drugbank_target|Q7SIG1 Hydrolase (DB02776)
 OpenBabel12092120253D

  0  0  0     0  0            999 V3000
M  V30 BEGIN CTAB
M  V30 COUNTS 4806 4877 0 0 0
M  V30 BEGIN ATOM
M  V30 1 H -0.908 1.98254 -0.117106 0
M  V30 2 N 0 1.576 0 0
M  V30 3 C 0.933 2.03868 1.02534 0
M  V30 4 C 1.911 0.928543 1.3348 0
M  V30 5 O 3.095 1.19667 1.45644 0
M  V30 6 C 0.222 2.43627 2.35294 0
M  V30 7 C -0.732 3.65373 2.2001 0
M  V30 8 S 0.101 5.13292 1.52614 0
M  V30 9 C 1.257 5.56322 2.86805 0
M  V30 10 H 1.49 2.90518 0.631377 0
M  V30 11 H -0.977 1.52953 0.210867 0
M  V30 12 H 0.981 2.67203 3.11629 0
M  V30 13 H -0.358 1.57376 2.7183 0
M  V30 14 H -1.165 3.90944 3.18086 0
M  V30 15 H -1.563 3.418 1.51819 0
M  V30 16 H 0.729 5.58782 3.83104 0
M  V30 17 H 1.672 6.56266 2.65933 0
M  V30 18 H 2.08 4.83886 2.90714 0
M  V30 19 N 1.4781 -0.272755 1.55222 0
M  V30 20 C 2.8891 -0.84378 1.66545 0
M  V30 21 C 3.2401 -1.87035 0.592641 0
M  V30 22 O 2.3651 -2.14761 -0.265818 0
M  V30 23 C 2.9601 -1.53723 3.01918 0
M  V30 24 C 1.5191 -2.05628 3.15268 0
M  V30 25 C 0.6661 -0.898424 2.62343 0
M  V30 26 H 3.6171 -0.0490998 1.58624 0
M  V30 27 H 3.6381 -2.40421 2.94921 0
M  V30 28 H 3.1501 -0.78983 3.79978 0
M  V30 29 H 1.2511 -2.83329 2.41983 0
M  V30 30 H 1.3641 -2.27142 4.21833 0
M  V30 31 H -0.2719 -1.29186 2.19506 0
M  V30 32 H 0.5111 -0.164528 3.42906 0
M  V30 33 N 2.9562 -1.48159 -0.537278 0
M  V30 34 C 3.8862 -1.65029 -1.6519 0
M  V30 35 C 4.8672 -0.499281 -1.62607 0
M  V30 36 O 6.0522 -0.730972 -1.79918 0
M  V30 37 C 3.1822 -1.68303 -3.03795 0
M  V30 38 C 2.1362 -2.8283 -3.21234 0
M  V30 39 C 1.4622 -2.71189 -4.60826 0
M  V30 40 C 2.7622 -4.24211 -3.04701 0
M  V30 41 H 4.4562 -2.58341 -1.51328 0
M  V30 42 H 2.0022 -1.24325 -0.726585 0
M  V30 43 H 3.9552 -1.78693 -3.81637 0
M  V30 44 H 2.6792 -0.715635 -3.18663 0
M  V30 45 H 1.3382 -2.71983 -2.45807 0
M  V30 46 H 0.9862 -1.72435 -4.7252 0
M  V30 47 H 0.6862 -3.48035 -4.7344 0
M  V30 48 H 2.2102 -2.83537 -5.40777 0
M  V30 49 H 3.6242 -4.3593 -3.72341 0
M  V30 50 H 2.0212 -5.01998 -3.28813 0
M  V30 51 H 3.0912 -4.41184 -2.01209 0
M  V30 52 N 4.4343 0.785586 -1.36625 0
M  V30 53 C 5.7113 1.53198 -1.21613 0
M  V30 54 C 6.0913 2.10187 0.196113 0
M  V30 55 O 5.4393 1.94318 1.20219 0
M  V30 56 C 5.6493 2.62388 -2.30116 0
M  V30 57 C 6.9973 3.30167 -2.66974 0
M  V30 58 O 8.0213 2.72674 -2.29188 0
M  V30 59 O 6.8803 4.34077 -3.32023 0
M  V30 60 H 3.9743 0.677865 -0.473738 0
M  V30 61 H 6.5203 0.823739 -1.48367 0
M  V30 62 H 5.2923 2.18299 -3.24748 0
M  V30 63 H 4.9153 3.40827 -2.0475 0
M  V30 64 N 5.9124 1.20967 1.01018 0
M  V30 65 C 7.3234 1.02319 1.56165 0
M  V30 66 C 7.6744 -0.418546 1.91684 0
M  V30 67 O 6.7994 -1.30096 1.72928 0
M  V30 68 C 7.3944 1.85109 2.8376 0
M  V30 69 C 5.9534 1.70809 3.35412 0
M  V30 70 C 5.1004 1.82643 2.08655 0
M  V30 71 H 8.0514 1.35065 0.833255 0
M  V30 72 H 8.0724 1.35827 3.55431 0
M  V30 73 H 7.5844 2.90035 2.57878 0
M  V30 74 H 5.6854 0.685464 3.66241 0
M  V30 75 H 5.7984 2.52467 4.07182 0
M  V30 76 H 4.1624 1.25896 2.21409 0
M  V30 77 H 4.9454 2.89066 1.85191 0
M  V30 78 N 7.3905 -1.2043 1.01659 0
M  V30 79 C 8.6365 -1.90079 0.706963 0
M  V30 80 C 8.9695 -1.78648 -0.761474 0
M  V30 81 O 8.2445 -1.17069 -1.55323 0
M  V30 82 C 8.5275 -3.41469 1.14327 0
M  V30 83 C 8.3805 -3.61833 2.67201 0
M  V30 84 C 9.6995 -4.34261 0.714529 0
M  V30 85 H 6.8185 -0.690254 0.2583 0
M  V30 86 H 9.4605 -1.41826 1.26433 0
M  V30 87 H 7.6105 -3.82696 0.669056 0
M  V30 88 H 9.2825 -3.2986 3.22475 0
M  V30 89 H 7.5255 -3.05304 3.08175 0
M  V30 90 H 8.1965 -4.67955 2.92783 0
M  V30 91 H 10.6725 -4.00682 1.12221 0
M  V30 92 H 9.5485 -5.38806 1.04784 0
M  V30 93 H 9.8095 -4.40431 -0.383799 0
M  V30 94 N 8.8686 -0.792821 -1.36206 0
M  V30 95 C 10.1176 -0.363353 -1.984 0
M  V30 96 C 10.4306 1.07172 -1.63626 0
M  V30 97 O 11.6366 1.60362 -2.19081 0
M  V30 98 C 10.0926 -0.59872 -3.54885 0
M  V30 99 C 9.7006 -2.04543 -3.9858 0
M  V30 100 C 11.4446 -0.233926 -4.23855 0
M  V30 101 C 9.3516 -2.22727 -5.47856 0
M  V30 102 H 8.2816 -0.13212 -0.742334 0
M  V30 103 H 10.9326 -0.974935 -1.55458 0
M  V30 104 H 9.3146 0.0826222 -3.95914 0
M  V30 105 H 10.4886 -2.76345 -3.68741 0
M  V30 106 H 8.8036 -2.36879 -3.42458 0
M  V30 107 H 11.4006 -0.348027 -5.33566 0
M  V30 108 H 11.7436 0.818351 -4.08177 0
M  V30 109 H 12.2766 -0.868639 -3.882 0
M  V30 110 H 9.0156 -3.2635 -5.68486 0
M  V30 111 H 8.5356 -1.55434 -5.7931 0
M  V30 112 H 10.2146 -2.03607 -6.14128 0
M  V30 113 N 10.3467 1.47872 -0.545128 0
M  V30 114 C 11.2787 2.27869 0.246621 0
M  V30 115 C 12.2917 1.36282 0.890561 0
M  V30 116 O 13.4807 1.61207 0.766449 0
M  V30 117 C 10.5807 3.10159 1.36582 0
M  V30 118 C 9.7537 4.29627 0.820954 0
M  V30 119 C 8.8127 4.93607 1.82314 0
M  V30 120 O 7.8387 5.52366 1.37406 0
M  V30 121 N 9.0407 4.87211 3.15603 0
M  V30 122 H 11.8057 2.96459 -0.439539 0
M  V30 123 H 9.3667 1.57367 -0.380421 0
M  V30 124 H 11.3587 3.49829 2.03474 0
M  V30 125 H 9.9287 2.43891 1.9554 0
M  V30 126 H 9.1487 3.94192 -0.0244032 0
M  V30 127 H 10.4367 5.06928 0.436063 0
M  V30 128 H 9.8347 4.40651 3.54744 0
M  V30 129 H 8.3917 5.30937 3.78087 0
M  V30 130 N 11.8248 0.280983 1.55075 0
M  V30 131 C 12.7568 -0.637268 2.20163 0
M  V30 132 C 13.7698 -1.11298 1.18813 0
M  V30 133 O 14.9588 -1.03388 1.4551 0
M  V30 134 C 12.0588 -1.88199 2.81841 0
M  V30 135 C 11.2318 -1.55211 4.08936 0
M  V30 136 C 10.2908 -2.64991 4.54606 0
M  V30 137 O 9.3168 -2.30929 5.2025 0
M  V30 138 N 10.5188 -3.95161 4.25238 0
M  V30 139 H 13.2838 -0.0801694 2.99593 0
M  V30 140 H 10.8448 0.102329 1.61576 0
M  V30 141 H 12.8368 -2.60948 3.09335 0
M  V30 142 H 11.4068 -2.34799 2.06369 0
M  V30 143 H 10.6268 -0.658185 3.88666 0
M  V30 144 H 11.9148 -1.30681 4.91732 0
M  V30 145 H 11.3128 -4.25653 3.72607 0
M  V30 146 H 9.8698 -4.6427 4.5749 0
M  V30 147 N 13.3029 -1.57598 0.00835791 0
M  V30 148 C 14.5489 -1.91211 -0.675732 0
M  V30 149 C 14.8819 -0.883139 -1.72958 0
M  V30 150 O 14.1569 0.097016 -1.94258 0
M  V30 151 C 14.4399 -3.35379 -1.31123 0
M  V30 152 C 14.2929 -4.48999 -0.268356 0
M  V30 153 C 15.6119 -3.7912 -2.23508 0
M  V30 154 H 12.7309 -0.695374 -0.244179 0
M  V30 155 H 15.3729 -1.89901 0.0613655 0
M  V30 156 H 13.5229 -3.36626 -1.93946 0
M  V30 157 H 15.1949 -4.59887 0.360844 0
M  V30 158 H 13.4379 -4.31873 0.408482 0
M  V30 159 H 14.1089 -5.46851 -0.752218 0
M  V30 160 H 16.5849 -3.79477 -1.70693 0
M  V30 161 H 15.4609 -4.80729 -2.64936 0
M  V30 162 H 15.7219 -3.13455 -3.11766 0
M  V30 163 N 14.781 0.264519 -1.55364 0
M  V30 164 C 15.711 1.33121 -1.91836 0
M  V30 165 C 16.692 1.51101 -0.781192 0
M  V30 166 O 17.877 1.64003 -1.04003 0
M  V30 167 C 15.007 2.68921 -2.19769 0
M  V30 168 C 13.961 2.65661 -3.35571 0
M  V30 169 C 13.287 4.05093 -3.49004 0
M  V30 170 C 14.587 2.24187 -4.71739 0
M  V30 171 H 16.281 1.02844 -2.81182 0
M  V30 172 H 13.827 0.493286 -1.35287 0
M  V30 173 H 15.78 3.43663 -2.43872 0
M  V30 174 H 14.504 3.00799 -1.27231 0
M  V30 175 H 13.163 1.93377 -3.1145 0
M  V30 176 H 12.811 4.34206 -2.53917 0
M  V30 177 H 12.511 4.03804 -4.26868 0
M  V30 178 H 14.035 4.81561 -3.75408 0
M  V30 179 H 15.449 2.88654 -4.9533 0
M  V30 180 H 13.846 2.34044 -5.52579 0
M  V30 181 H 14.916 1.19327 -4.69988 0
M  V30 182 N 16.2591 1.48442 0.529413 0
M  V30 183 C 17.5361 1.46978 1.29062 0
M  V30 184 C 17.9161 0.181769 2.10316 0
M  V30 185 O 17.2641 -0.836481 2.12639 0
M  V30 186 C 17.4741 2.7321 2.17157 0
M  V30 187 C 18.8221 3.21562 2.77278 0
M  V30 188 O 19.8461 2.74131 2.27444 0
M  V30 189 O 18.7051 4.04094 3.67927 0
M  V30 190 H 15.7991 0.587003 0.582543 0
M  V30 191 H 18.3451 1.60676 0.546021 0
M  V30 192 H 17.1171 3.58465 1.56903 0
M  V30 193 H 16.7401 2.62235 2.98862 0
M  V30 194 N 17.7372 -0.778329 1.37039 0
M  V30 195 C 18.6692 -1.90034 1.2814 0
M  V30 196 C 19.6822 -1.61585 0.198558 0
M  V30 197 O 20.8712 -1.72625 0.454175 0
M  V30 198 C 17.9712 -3.25108 0.956968 0
M  V30 199 C 17.1442 -3.81253 2.14394 0
M  V30 200 C 16.2032 -4.94789 1.79082 0
M  V30 201 O 15.2292 -5.10721 2.51301 0
M  V30 202 N 16.4312 -5.75878 0.731043 0
M  V30 203 H 19.1962 -1.98186 2.24816 0
M  V30 204 H 16.7572 -0.957129 1.30578 0
M  V30 205 H 18.7492 -3.9857 0.701701 0
M  V30 206 H 17.3192 -3.125 0.0789812 0
M  V30 207 H 16.5392 -2.99647 2.56135 0
M  V30 208 H 17.8272 -4.15495 2.93668 0
M  V30 209 H 17.2252 -5.65547 0.131618 0
M  V30 210 H 15.7822 -6.49596 0.535622 0
M  V30 211 N 19.2153 -1.21501 -1.00376 0
M  V30 212 C 20.1453 -0.999478 -2.11028 0
M  V30 213 C 21.1263 0.0759671 -1.6993 0
M  V30 214 O 22.3113 -0.0841106 -1.94018 0
M  V30 215 C 19.4413 -0.564709 -3.42678 0
M  V30 216 C 18.3953 -1.58486 -3.97576 0
M  V30 217 C 17.7213 -1.00628 -5.25146 0
M  V30 218 C 19.0213 -2.97204 -4.29496 0
M  V30 219 H 20.7153 -1.92495 -2.29317 0
M  V30 220 H 18.2613 -0.92693 -1.102 0
M  V30 221 H 20.2143 -0.401091 -4.19487 0
M  V30 222 H 18.9383 0.396411 -3.24185 0
M  V30 223 H 17.5973 -1.73606 -3.22888 0
M  V30 224 H 17.2453 -0.0368439 -5.02987 0
M  V30 225 H 16.9453 -1.68771 -5.62841 0
M  V30 226 H 18.4693 -0.854015 -6.04598 0
M  V30 227 H 19.8833 -2.8552 -4.97143 0
M  V30 228 H 18.2803 -3.62372 -4.78338 0
M  V30 229 H 19.3503 -3.47956 -3.3772 0
M  V30 230 N 20.6934 1.19889 -1.02296 0
M  V30 231 C 21.6414 2.24938 -0.592081 0
M  V30 232 C 22.6354 1.65257 0.372357 0
M  V30 233 O 23.8414 1.78371 0.241583 0
M  V30 234 H 20.2164 0.731787 -0.173182 0
M  V30 235 H 22.1874 2.58603 -1.48885 0
M  V30 236 C 20.9364 3.47668 0.047351 0
M  V30 237 H 20.2594 3.93875 -0.685772 0
M  V30 238 H 21.6994 4.22852 0.311862 0
M  V30 239 C 20.1584 3.11136 1.29212 0
M  V30 240 O 20.6884 3.2325 2.38479 0
M  V30 241 N 18.8944 2.65625 1.17863 0
M  V30 242 H 18.4414 2.55968 0.289493 0
M  V30 243 H 18.3994 2.41553 2.01245 0
M  V30 244 N 22.1715 0.800033 1.35784 0
M  V30 245 C 23.5875 0.482977 1.52117 0
M  V30 246 C 23.7875 -0.996948 1.75109 0
M  V30 247 O 22.8435 -1.78216 1.78872 0
M  V30 248 C 24.1565 1.32264 2.70049 0
M  V30 249 C 25.7045 1.31742 2.83924 0
M  V30 250 C 26.1795 2.14106 4.04874 0
M  V30 251 N 27.6705 2.11607 4.12039 0
M  V30 252 C 28.4055 2.72099 5.04727 0
M  V30 253 N 27.9015 3.41492 6.02789 0
M  V30 254 N 29.6945 2.61776 4.97423 0
M  V30 255 H 21.8455 1.75856 1.19115 0
M  V30 256 H 24.1085 0.748122 0.582252 0
M  V30 257 H 23.8145 2.37261 2.59616 0
M  V30 258 H 23.6885 0.971303 3.6448 0
M  V30 259 H 26.0755 0.275333 2.93813 0
M  V30 260 H 26.1565 1.70859 1.9037 0
M  V30 261 H 25.8005 3.18351 3.95746 0
M  V30 262 H 25.7305 1.72353 4.97596 0
M  V30 263 H 28.2215 1.61112 3.41835 0
M  V30 264 H 28.5345 3.84953 6.70098 0
M  V30 265 H 26.8795 3.45596 6.02983 0
M  V30 266 H 30.0705 2.07157 4.19766 0
M  V30 267 H 30.2435 3.0921 5.69468 0
M  V30 268 N 23.6496 -1.47581 0.552962 0
M  V30 269 C 24.5826 -2.26883 -0.244857 0
M  V30 270 C 25.5606 -1.33784 -0.924147 0
M  V30 271 O 26.7446 -1.6316 -0.943981 0
M  V30 272 C 23.8716 -3.10695 -1.34856 0
M  V30 273 C 22.9176 -4.19339 -0.778268 0
M  V30 274 S 23.7506 -5.34207 0.37184 0
M  V30 275 C 24.9066 -6.21584 -0.733779 0
M  V30 276 H 25.1396 -2.94202 0.428087 0
M  V30 277 H 22.6726 -1.50628 0.339197 0
M  V30 278 H 24.6306 -3.59555 -1.98066 0
M  V30 279 H 23.2916 -2.42746 -1.99332 0
M  V30 280 H 22.4846 -4.77695 -1.60696 0
M  V30 281 H 22.0866 -3.73338 -0.222422 0
M  V30 282 H 24.3786 -6.57676 -1.62692 0
M  V30 283 H 25.3216 -7.07851 -0.187668 0
M  V30 284 H 25.7296 -5.55125 -1.02454 0
M  V30 285 N 25.1277 -0.289203 -1.54924 0
M  V30 286 C 26.5387 0.205791 -1.85562 0
M  V30 287 C 26.8897 1.54351 -1.2112 0
M  V30 288 O 26.0147 2.10435 -0.504601 0
M  V30 289 C 26.6097 0.380177 -3.3666 0
M  V30 290 C 25.1687 0.819395 -3.67373 0
M  V30 291 C 24.3157 -0.079159 -2.77187 0
M  V30 292 H 27.2667 -0.510577 -1.50262 0
M  V30 293 H 27.2877 1.21659 -3.60526 0
M  V30 294 H 26.7997 -0.593589 -3.83534 0
M  V30 295 H 24.9007 1.80413 -3.26009 0
M  V30 296 H 25.0137 0.646957 -4.74712 0
M  V30 297 H 23.3777 0.439565 -2.50878 0
M  V30 298 H 24.1607 -1.04906 -3.26878 0
M  V30 299 N 26.6058 1.57591 -0.0167156 0
M  V30 300 C 27.5688 2.08393 0.954204 0
M  V30 301 C 28.5688 0.996531 1.26198 0
M  V30 302 O 29.7588 1.25858 1.20438 0
M  V30 303 C 26.8908 2.5394 2.27436 0
M  V30 304 H 28.0838 2.95455 0.514451 0
M  V30 305 H 25.6368 1.54582 0.231089 0
M  V30 306 H 26.3718 1.70171 2.76066 0
M  V30 307 H 26.1568 3.33371 2.06412 0
M  V30 308 H 27.6468 2.93512 2.97053 0
M  V30 309 N 28.0839 -0.256276 1.55502 0
M  V30 310 C 29.4949 -0.826068 1.67431 0
M  V30 311 C 29.8459 -1.86396 0.612446 0
M  V30 312 O 28.9709 -2.15031 -0.243025 0
M  V30 313 C 29.5659 -1.50512 3.03532 0
M  V30 314 C 28.1249 -2.02273 3.17431 0
M  V30 315 C 27.2719 -0.870548 2.63281 0
M  V30 316 H 30.2229 -0.0322728 1.58667 0
M  V30 317 H 30.2439 -2.37279 2.97454 0
M  V30 318 H 29.7559 -0.749484 3.80794 0
M  V30 319 H 27.8569 -2.80746 2.44974 0
M  V30 320 H 27.9699 -2.22655 4.24219 0
M  V30 321 H 26.3339 -1.26851 2.20864 0
M  V30 322 H 27.1169 -0.128149 3.43061 0
M  V30 323 N 29.562 -1.4872 -0.521534 0
M  V30 324 C 30.839 -1.4766 -1.2828 0
M  V30 325 C 31.219 -0.19292 -2.10217 0
M  V30 326 O 30.567 0.825193 -2.13079 0
M  V30 327 C 30.777 -2.74358 -2.15705 0
M  V30 328 C 32.125 -3.23028 -2.75569 0
M  V30 329 O 33.149 -2.75333 -2.25987 0
M  V30 330 O 32.008 -4.0604 -3.65778 0
M  V30 331 H 29.102 -0.590085 -0.579421 0
M  V30 332 H 31.648 -1.60963 -0.537492 0
M  V30 333 H 30.42 -3.59292 -1.54999 0
M  V30 334 H 30.043 -2.63816 -2.97467 0
M  V30 335 N 31.0401 0.771051 -1.3745 0
M  V30 336 C 32.2701 1.55789 -1.35696 0
M  V30 337 C 32.6781 1.89107 0.0594523 0
M  V30 338 O 32.0211 1.51984 1.03183 0
M  V30 339 C 32.0831 2.89515 -2.13123 0
M  V30 340 C 31.7471 2.78829 -3.62082 0
M  V30 341 C 32.7441 2.49812 -4.5595 0
M  V30 342 C 30.4291 2.9683 -4.05213 0
M  V30 343 C 32.4231 2.38923 -5.90927 0
M  V30 344 C 30.1101 2.85562 -5.40276 0
M  V30 345 C 31.1081 2.56649 -6.32946 0
M  V30 346 O 30.7961 2.45408 -7.65526 0
M  V30 347 H 30.5281 0.489257 -0.466481 0
M  V30 348 H 33.0821 0.963446 -1.81403 0
M  V30 349 H 31.3121 3.51081 -1.62107 0
M  V30 350 H 33.0011 3.50915 -2.03994 0
M  V30 351 H 33.7671 2.3559 -4.23937 0
M  V30 352 H 29.6461 3.18335 -3.33442 0
M  V30 353 H 33.1901 2.16277 -6.63227 0
M  V30 354 H 29.0871 2.99351 -5.71891 0
M  V30 355 H 29.8551 2.60753 -7.75855 0
M  V30 356 N 32.5182 1.22032 0.997298 0
M  V30 357 C 33.4652 0.986467 2.08656 0
M  V30 358 C 34.4352 -0.0902671 1.65855 0
M  V30 359 O 35.6202 0.0584294 1.90711 0
M  V30 360 C 32.7602 0.565569 3.40434 0
M  V30 361 C 31.8732 1.71259 3.96604 0
M  V30 362 C 31.0082 1.24011 5.16522 0
M  V30 363 C 30.0472 2.35896 5.64818 0
M  V30 364 N 29.1842 1.89726 6.7598 0
M  V30 365 H 34.0242 1.91892 2.27994 0
M  V30 366 H 31.5612 0.956199 1.11782 0
M  V30 367 H 33.5192 0.302738 4.161 0
M  V30 368 H 32.1492 -0.329879 3.2111 0
M  V30 369 H 31.2012 2.08986 3.17851 0
M  V30 370 H 32.5132 2.55436 4.28432 0
M  V30 371 H 31.6672 0.934395 5.99461 0
M  V30 372 H 30.4062 0.368487 4.86306 0
M  V30 373 H 29.4112 2.67261 4.8047 0
M  V30 374 H 30.6362 3.23567 5.97061 0
M  V30 375 H 28.5822 1.0492 6.47555 0
M  V30 376 H 28.4992 2.67471 7.07103 0
M  V30 377 H 29.7672 1.62211 7.62435 0
M  V30 378 N 33.9963 -1.19345 1.0293 0
M  V30 379 C 34.9463 -2.20472 0.58104 0
M  V30 380 C 35.9303 -1.56578 -0.370442 0
M  V30 381 O 37.1223 -1.75963 -0.191344 0
M  V30 382 C 34.2513 -3.43236 -0.066306 0
M  V30 383 C 33.3373 -4.14274 0.907642 0
M  V30 384 N 33.7283 -4.61492 2.07023 0
M  V30 385 C 32.0263 -4.39966 0.731177 0
M  V30 386 C 32.7273 -5.1605 2.68454 0
M  V30 387 N 31.7033 -5.06875 1.96414 0
M  V30 388 H 35.5053 -2.54659 1.46717 0
M  V30 389 H 33.0193 -1.35423 0.896345 0
M  V30 390 H 35.0163 -4.14927 -0.405068 0
M  V30 391 H 33.6763 -3.10549 -0.948118 0
M  V30 392 H 34.6873 -4.56304 2.44963 0
M  V30 393 H 31.3643 -4.17377 -0.101507 0
M  V30 394 H 32.7543 -5.6287 3.66915 0
M  V30 395 N 35.4744 -0.807222 -1.35358 0
M  V30 396 C 36.4044 -0.232509 -2.3234 0
M  V30 397 C 37.3854 0.642386 -1.57504 0
M  V30 398 O 38.5704 0.572526 -1.85569 0
M  V30 399 C 35.7004 0.619238 -3.41735 0
M  V30 400 C 34.6544 -0.157215 -4.27711 0
M  V30 401 C 33.9804 0.816273 -5.28433 0
M  V30 402 C 35.2804 -1.35656 -5.04376 0
M  V30 403 H 36.9744 -1.04276 -2.80654 0
M  V30 404 H 34.5204 -0.50288 -1.34934 0
M  V30 405 H 36.4734 1.03137 -4.08584 0
M  V30 406 H 35.1974 1.46239 -2.92031 0
M  V30 407 H 33.8564 -0.550525 -3.62443 0
M  V30 408 H 33.5044 1.65494 -4.74996 0
M  V30 409 H 33.2044 0.301067 -5.86828 0
M  V30 410 H 34.7284 1.22659 -5.98153 0
M  V30 411 H 36.1424 -1.01927 -5.64166 0
M  V30 412 H 34.5394 -1.8063 -5.7227 0
M  V30 413 H 35.6094 -2.14288 -4.34981 0
M  V30 414 N 36.9525 1.47285 -0.560781 0
M  V30 415 C 38.1775 2.07359 -0.0410566 0
M  V30 416 C 38.6025 1.41017 1.24483 0
M  V30 417 O 37.9605 0.486368 1.74654 0
M  V30 418 C 38.0085 3.6035 0.134123 0
M  V30 419 O 37.1125 3.94681 1.19587 0
M  V30 420 H 36.4535 0.661887 -0.0529291 0
M  V30 421 H 38.9835 1.89252 -0.777482 0
M  V30 422 H 38.9935 4.0652 0.347207 0
M  V30 423 H 37.6685 4.08034 -0.805047 0
M  V30 424 H 36.2455 3.60251 0.962987 0
M  V30 425 N 38.4306 0.297415 1.54768 0
M  V30 426 C 39.3936 -0.567375 2.22066 0
M  V30 427 C 40.3936 -1.06409 1.20556 0
M  V30 428 O 41.5836 -0.960691 1.45315 0
M  V30 429 C 38.7156 -1.78517 2.90421 0
M  V30 430 H 39.9086 0.0205534 2.99893 0
M  V30 431 H 37.4616 0.0482163 1.56226 0
M  V30 432 H 38.1966 -2.41303 2.16664 0
M  V30 433 H 37.9816 -1.43669 3.64831 0
M  V30 434 H 39.4716 -2.39964 3.41771 0
M  V30 435 N 39.9087 -1.5758 0.0250728 0
M  V30 436 C 40.8407 -2.06869 -0.986796 0
M  V30 437 C 41.8537 -0.991332 -1.29137 0
M  V30 438 O 43.0427 -1.26761 -1.25674 0
M  V30 439 C 40.1427 -2.47486 -2.31525 0
M  V30 440 C 39.3157 -3.78253 -2.19643 0
M  V30 441 C 38.3747 -4.05464 -3.35388 0
M  V30 442 O 37.4007 -4.75774 -3.12454 0
M  V30 443 N 38.6027 -3.55321 -4.59051 0
M  V30 444 H 41.3677 -2.94302 -0.566276 0
M  V30 445 H 38.9287 -1.6109 -0.161776 0
M  V30 446 H 40.9207 -2.62785 -3.07776 0
M  V30 447 H 39.4907 -1.65441 -2.65232 0
M  V30 448 H 38.7107 -3.7279 -1.28144 0
M  V30 449 H 39.9987 -4.63936 -2.08903 0
M  V30 450 H 39.3967 -2.98431 -4.80578 0
M  V30 451 H 37.9537 -3.75905 -5.32483 0
M  V30 452 N 41.3868 0.248026 -1.55636 0
M  V30 453 C 42.3188 1.32993 -1.8667 0
M  V30 454 C 43.3318 1.44345 -0.752877 0
M  V30 455 O 44.5208 1.45715 -1.03098 0
M  V30 456 C 41.6208 2.70863 -2.03682 0
M  V30 457 C 40.7938 2.81792 -3.34532 0
M  V30 458 C 39.8528 4.005 -3.41301 0
M  V30 459 O 38.8788 3.9008 -4.14519 0
M  V30 460 N 40.0808 5.13618 -2.70512 0
M  V30 461 H 42.8458 1.06707 -2.8006 0
M  V30 462 H 40.4068 0.438129 -1.55859 0
M  V30 463 H 42.3988 3.48612 -2.05553 0
M  V30 464 H 40.9688 2.89862 -1.17041 0
M  V30 465 H 40.1888 1.90729 -3.44987 0
M  V30 466 H 41.4768 2.86043 -4.20781 0
M  V30 467 H 40.8748 5.24975 -2.10755 0
M  V30 468 H 39.4318 5.89505 -2.78077 0
M  V30 469 N 42.8649 1.48995 0.513639 0
M  V30 470 C 44.1119 1.57843 1.26854 0
M  V30 471 C 44.4399 0.259501 1.92761 0
M  V30 472 O 43.6949 -0.75159 1.80692 0
M  V30 473 C 43.9939 2.67756 2.36731 0
M  V30 474 C 43.6599 4.09669 1.88368 0
M  V30 475 C 42.3219 4.48291 1.74896 0
M  V30 476 C 44.6739 4.98537 1.52021 0
M  V30 477 C 42.0019 5.73568 1.23438 0
M  V30 478 C 44.3539 6.24319 1.0202 0
M  V30 479 C 43.0179 6.61783 0.871778 0
M  V30 480 H 42.2879 0.577587 0.464192 0
M  V30 481 H 44.9349 1.82778 0.571366 0
M  V30 482 H 43.2399 2.36743 3.12185 0
M  V30 483 H 44.9369 2.71813 2.9482 0
M  V30 484 H 41.5269 3.79176 1.99808 0
M  V30 485 H 45.7109 4.69363 1.61281 0
M  V30 486 H 40.9669 6.01304 1.10648 0
M  V30 487 H 45.1409 6.92566 0.729722 0
M  V30 488 H 42.7679 7.5874 0.470852 0
M  V30 489 N 44.343 -0.763751 1.37857 0
M  V30 490 C 45.759 -1.06542 1.18832 0
M  V30 491 C 45.959 -2.01478 0.0299722 0
M  V30 492 O 45.015 -2.4458 -0.627447 0
M  V30 493 C 46.328 -1.65525 2.51042 0
M  V30 494 C 47.876 -1.77745 2.57635 0
M  V30 495 C 48.351 -2.4014 3.89996 0
M  V30 496 N 49.842 -2.47582 3.91481 0
M  V30 497 C 50.577 -2.96732 4.9065 0
M  V30 498 N 50.073 -3.45993 6.00217 0
M  V30 499 N 51.866 -2.95679 4.78048 0
M  V30 500 H 44.017 -0.133556 2.1198 0
M  V30 501 H 46.28 -0.121879 0.940133 0
M  V30 502 H 45.986 -1.03236 3.36207 0
M  V30 503 H 45.86 -2.64719 2.68707 0
M  V30 504 H 48.247 -2.39164 1.72872 0
M  V30 505 H 48.328 -0.772836 2.43846 0
M  V30 506 H 47.972 -1.79358 4.75177 0
M  V30 507 H 47.902 -3.41223 4.01092 0
M  V30 508 H 50.393 -2.1273 3.12337 0
M  V30 509 H 50.706 -3.81922 6.7183 0
M  V30 510 H 49.051 -3.44077 6.03851 0
M  V30 511 H 52.242 -2.56499 3.91568 0
M  V30 512 H 52.415 -3.33672 5.55488 0
M  V30 513 N 45.8211 -1.22559 -0.990812 0
M  V30 514 C 47.0461 -1.07862 -1.77145 0
M  V30 515 C 47.4711 0.366447 -1.84496 0
M  V30 516 O 46.8291 1.26478 -1.29896 0
M  V30 517 C 46.8771 -1.69686 -3.18181 0
M  V30 518 O 45.9811 -0.951946 -4.01263 0
M  V30 519 H 45.3221 -0.378712 -0.545411 0
M  V30 520 H 47.8521 -1.62399 -1.2445 0
M  V30 521 H 47.8621 -1.74496 -3.68802 0
M  V30 522 H 46.5371 -2.74841 -3.12146 0
M  V30 523 H 45.1141 -0.980011 -3.59792 0
M  V30 524 N 47.2992 1.18797 -1.03562 0
M  V30 525 C 48.2312 2.21731 -0.580337 0
M  V30 526 C 49.2442 1.59051 0.347349 0
M  V30 527 O 50.4332 1.77929 0.142669 0
M  V30 528 C 47.5332 3.38459 0.172805 0
M  V30 529 C 46.7062 4.3072 -0.761496 0
M  V30 530 C 45.7652 5.26174 -0.0525547 0
M  V30 531 O 44.7912 5.65108 -0.681333 0
M  V30 532 N 45.9932 5.67624 1.21586 0
M  V30 533 H 48.7582 2.61417 -1.46565 0
M  V30 534 H 46.3192 1.33531 -0.915476 0
M  V30 535 H 48.3112 3.99335 0.656793 0
M  V30 536 H 46.8812 2.97507 0.959602 0
M  V30 537 H 46.1012 3.67525 -1.42544 0
M  V30 538 H 47.3892 4.89267 -1.39626 0
M  V30 539 H 46.7872 5.38038 1.74732 0
M  V30 540 H 45.3442 6.30721 1.64421 0
M  V30 541 N 48.7773 0.814389 1.34928 0
M  V30 542 C 49.7093 0.187834 2.28429 0
M  V30 543 C 50.7223 -0.617374 1.5064 0
M  V30 544 O 51.9113 -0.448454 1.72775 0
M  V30 545 C 49.0113 -0.755962 3.30361 0
M  V30 546 C 48.1843 0.00456686 4.374 0
M  V30 547 C 47.2433 -0.858876 5.19143 0
M  V30 548 O 46.2693 -0.306968 5.68372 0
M  V30 549 N 47.4713 -2.17988 5.38016 0
M  V30 550 H 50.2363 0.991105 2.82838 0
M  V30 551 H 47.7973 0.670561 1.4736 0
M  V30 552 H 49.7893 -1.338 3.81942 0
M  V30 553 H 48.3593 -1.46001 2.7641 0
M  V30 554 H 47.5793 0.767865 3.86649 0
M  V30 555 H 48.8673 0.528422 5.06049 0
M  V30 556 H 48.2653 -2.65212 4.99679 0
M  V30 557 H 46.8223 -2.71098 5.92747 0
M  V30 558 N 50.2554 -1.46986 0.568584 0
M  V30 559 C 51.4804 -2.07335 0.0520528 0
M  V30 560 C 51.9054 -1.41675 -1.23733 0
M  V30 561 O 51.2634 -0.495623 -1.74394 0
M  V30 562 C 51.3114 -3.60417 -0.11501 0
M  V30 563 O 50.4154 -3.95309 -1.17492 0
M  V30 564 H 49.7564 -0.661597 0.0564385 0
M  V30 565 H 52.2864 -1.88837 0.787507 0
M  V30 566 H 52.2964 -4.06698 -0.325644 0
M  V30 567 H 50.9714 -4.07601 0.826675 0
M  V30 568 H 49.5484 -3.60757 -0.943869 0
M  V30 569 N 51.7335 -0.305618 -1.54608 0
M  V30 570 C 52.6635 0.561482 -2.26649 0
M  V30 571 C 53.6445 1.13415 -1.26772 0
M  V30 572 O 54.8295 1.16262 -1.55553 0
M  V30 573 C 51.9595 1.73122 -3.01075 0
M  V30 574 C 50.9135 1.2887 -4.08138 0
M  V30 575 C 50.2395 2.54396 -4.70305 0
M  V30 576 C 51.5395 0.416578 -5.20636 0
M  V30 577 H 53.2335 -0.0393902 -2.99374 0
M  V30 578 H 50.7795 -0.020385 -1.43986 0
M  V30 579 H 52.7325 2.34396 -3.50195 0
M  V30 580 H 51.4565 2.3584 -2.25936 0
M  V30 581 H 50.1155 0.698991 -3.59875 0
M  V30 582 H 49.7635 3.15439 -3.918 0
M  V30 583 H 49.4635 2.25486 -5.42614 0
M  V30 584 H 50.9875 3.16464 -5.2219 0
M  V30 585 H 52.4015 0.935116 -5.65622 0
M  V30 586 H 50.7985 0.221046 -5.99693 0
M  V30 587 H 51.8685 -0.557162 -4.81688 0
M  V30 588 N 53.2116 1.57565 -0.0334293 0
M  V30 589 C 54.4586 1.91978 0.644272 0
M  V30 590 C 54.7866 0.910231 1.71887 0
M  V30 591 O 54.0416 -0.0801961 1.95536 0
M  V30 592 C 54.3406 3.33112 1.29504 0
M  V30 593 C 54.0066 4.49537 0.350388 0
M  V30 594 C 52.6686 4.81115 0.0903974 0
M  V30 595 C 55.0206 5.20347 -0.298032 0
M  V30 596 C 52.3486 5.8086 -0.825746 0
M  V30 597 C 54.7006 6.2107 -1.20226 0
M  V30 598 C 53.3646 6.51088 -1.4711 0
M  V30 599 H 52.6346 0.702496 0.235756 0
M  V30 600 H 55.2816 1.91259 -0.0961176 0
M  V30 601 H 53.5866 3.30113 2.11028 0
M  V30 602 H 55.2836 3.57011 1.82603 0
M  V30 603 H 51.8736 4.24883 0.563205 0
M  V30 604 H 56.0576 4.96178 -0.110234 0
M  V30 605 H 51.3136 6.02461 -1.04169 0
M  V30 606 H 55.4876 6.75057 -1.71086 0
M  V30 607 H 53.1146 7.28193 -2.18264 0
M  V30 608 N 54.6897 -0.239769 1.55765 0
M  V30 609 C 56.1007 -0.808263 1.68297 0
M  V30 610 C 56.4517 -1.85736 0.632181 0
M  V30 611 O 55.5767 -2.15277 -0.220204 0
M  V30 612 C 56.1717 -1.47284 3.05111 0
M  V30 613 C 54.7307 -1.98895 3.19559 0
M  V30 614 C 53.8777 -0.842575 2.64189 0
M  V30 615 H 56.8287 -0.0154422 1.58692 0
M  V30 616 H 56.8497 -2.34111 2.99954 0
M  V30 617 H 56.3617 -0.709053 3.81568 0
M  V30 618 H 54.4627 -2.78132 2.47938 0
M  V30 619 H 54.5757 -2.18143 4.26556 0
M  V30 620 H 52.9397 -1.24501 2.22197 0
M  V30 621 H 53.7227 -0.0917552 3.43177 0
M  V30 622 N 56.1678 -1.49265 -0.50573 0
M  V30 623 C 57.5788 -1.51769 -1.08734 0
M  V30 624 C 57.9298 -0.301192 -1.93874 0
M  V30 625 O 57.0548 0.589456 -2.08217 0
M  V30 626 C 57.6498 -2.75017 -1.97867 0
M  V30 627 C 56.2088 -2.80314 -2.51199 0
M  V30 628 C 55.3558 -2.4562 -1.28709 0
M  V30 629 H 58.3068 -1.56031 -0.289855 0
M  V30 630 H 58.3278 -2.5491 -2.82491 0
M  V30 631 H 57.8398 -3.63539 -1.35873 0
M  V30 632 H 55.9408 -1.96061 -3.16845 0
M  V30 633 H 56.0538 -3.82366 -2.88675 0
M  V30 634 H 54.4178 -1.97297 -1.61078 0
M  V30 635 H 55.2008 -3.36411 -0.6843 0
M  V30 636 N 57.6459 0.756429 -1.3826 0
M  V30 637 C 58.8919 1.51772 -1.34511 0
M  V30 638 C 59.2249 1.94089 0.0656691 0
M  V30 639 O 58.4999 1.65221 1.02626 0
M  V30 640 C 58.7829 2.77226 -2.29821 0
M  V30 641 C 58.6359 2.41065 -3.79747 0
M  V30 642 C 59.9549 3.79236 -2.23312 0
M  V30 643 H 57.0739 0.550578 -0.489931 0
M  V30 644 H 59.7159 0.866607 -1.69086 0
M  V30 645 H 57.8659 3.32784 -2.00467 0
M  V30 646 H 59.5379 1.91303 -4.19763 0
M  V30 647 H 57.7809 1.7356 -3.97567 0
M  V30 648 H 58.4519 3.3081 -4.41892 0
M  V30 649 H 60.9279 3.3321 -2.49219 0
M  V30 650 H 59.8039 4.64714 -2.92116 0
M  V30 651 H 60.0649 4.24615 -1.23102 0
M  V30 652 N 59.124 1.23083 0.984299 0
M  V30 653 C 60.071 1.00854 2.07598 0
M  V30 654 C 61.041 -0.0726709 1.65941 0
M  V30 655 O 62.226 0.0786535 1.90638 0
M  V30 656 C 59.366 0.601645 3.39815 0
M  V30 657 C 58.479 1.75456 3.94765 0
M  V30 658 C 57.614 1.29482 5.15177 0
M  V30 659 C 56.653 2.41873 5.62284 0
M  V30 660 N 55.79 1.96885 6.73929 0
M  V30 661 H 60.63 1.943 2.25946 0
M  V30 662 H 58.167 0.968001 1.10762 0
M  V30 663 H 60.125 0.346854 4.15756 0
M  V30 664 H 58.755 -0.295803 3.21442 0
M  V30 665 H 57.807 2.12346 3.15616 0
M  V30 666 H 59.119 2.59965 4.25699 0
M  V30 667 H 58.273 0.997923 5.98437 0
M  V30 668 H 57.012 0.420046 4.85888 0
M  V30 669 H 56.017 2.72342 4.77608 0
M  V30 670 H 57.242 3.29881 5.93595 0
M  V30 671 H 55.188 1.11782 6.46406 0
M  V30 672 H 55.105 2.74956 7.04227 0
M  V30 673 H 56.373 1.70289 7.60672 0
M  V30 674 N 60.6021 -1.18246 1.0419 0
M  V30 675 C 61.5491 -2.2192 0.634037 0
M  V30 676 C 62.5191 -1.62179 -0.358765 0
M  V30 677 O 63.7041 -1.89122 -0.252466 0
M  V30 678 C 60.8441 -3.451 0.00445535 0
M  V30 679 C 59.9571 -4.19174 1.04487 0
M  V30 680 C 59.0921 -5.29813 0.383676 0
M  V30 681 C 58.1311 -5.9566 1.4091 0
M  V30 682 N 57.2681 -6.97834 0.772784 0
M  V30 683 H 62.1081 -2.56164 1.52263 0
M  V30 684 H 59.6451 -1.25843 0.761701 0
M  V30 685 H 61.6031 -4.15485 -0.377919 0
M  V30 686 H 60.2331 -3.11472 -0.847652 0
M  V30 687 H 59.2851 -3.47604 1.54518 0
M  V30 688 H 60.5971 -4.64267 1.82368 0
M  V30 689 H 59.7511 -6.06677 -0.0528366 0
M  V30 690 H 58.4901 -4.85825 -0.427208 0
M  V30 691 H 57.4951 -5.17535 1.85574 0
M  V30 692 H 58.7201 -6.4173 2.22171 0
M  V30 693 H 56.6661 -6.55998 -0.0177708 0
M  V30 694 H 56.5831 -7.41186 1.48928 0
M  V30 695 H 57.8511 -7.78665 0.36071 0
M  V30 696 N 62.0802 -0.821533 -1.34494 0
M  V30 697 C 62.9902 -0.244355 -2.33324 0
M  V30 698 C 64.0062 0.620527 -1.62559 0
M  V30 699 O 65.1822 0.528754 -1.94335 0
M  V30 700 C 62.2472 0.585368 -3.41723 0
M  V30 701 C 61.3082 -0.301752 -4.28238 0
M  V30 702 C 60.5412 0.488466 -5.3146 0
M  V30 703 O 60.7642 1.72186 -5.4379 0
M  V30 704 O 59.6982 -0.12848 -6.01763 0
M  V30 705 H 63.5242 -1.06231 -2.84515 0
M  V30 706 H 61.1092 -0.583645 -1.37528 0
M  V30 707 H 62.9912 1.05747 -4.07916 0
M  V30 708 H 61.6662 1.38068 -2.92778 0
M  V30 709 H 60.5732 -0.821315 -3.64973 0
M  V30 710 H 61.9062 -1.06138 -4.8062 0
M  V30 711 N 63.5583 1.46682 -0.576371 0
M  V30 712 C 64.9693 1.86112 -0.148091 0
M  V30 713 C 65.3203 1.48073 1.2872 0
M  V30 714 O 64.4453 0.892656 1.97131 0
M  V30 715 C 65.0403 3.37786 -0.261982 0
M  V30 716 C 63.5993 3.76235 0.111384 0
M  V30 717 C 62.7463 2.70713 -0.60083 0
M  V30 718 H 65.6973 1.37927 -0.78497 0
M  V30 719 H 65.7183 3.77007 0.514364 0
M  V30 720 H 65.2303 3.6544 -1.30671 0
M  V30 721 H 63.3313 3.54198 1.15649 0
M  V30 722 H 63.4443 4.78391 -0.26052 0
M  V30 723 H 61.8083 2.54666 -0.0417783 0
M  V30 724 H 62.5913 3.01208 -1.64708 0
M  V30 725 N 65.0364 0.313813 1.54444 0
M  V30 726 C 66.2824 -0.292108 2.00685 0
M  V30 727 C 66.6154 -1.52548 1.20177 0
M  V30 728 O 65.8904 -1.92452 0.281531 0
M  V30 729 C 66.1734 -0.635968 3.5444 0
M  V30 730 C 66.0264 0.607437 4.4568 0
M  V30 731 C 67.3454 -1.45747 4.15266 0
M  V30 732 H 64.4644 -0.104697 0.729526 0
M  V30 733 H 67.1064 0.428457 1.85106 0
M  V30 734 H 65.2564 -1.24986 3.67846 0
M  V30 735 H 66.9284 1.24581 4.44159 0
M  V30 736 H 65.1714 1.23822 4.15753 0
M  V30 737 H 65.8424 0.322515 5.51057 0
M  V30 738 H 68.3184 -0.938645 4.05375 0
M  V30 739 H 67.1944 -1.66683 5.2298 0
M  V30 740 H 67.4554 -2.45063 3.67963 0
M  V30 741 N 66.5145 -1.57545 0.0417849 0
M  V30 742 C 67.4775 -2.09885 -0.92093 0
M  V30 743 C 68.4775 -1.01648 -1.24596 0
M  V30 744 O 69.6675 -1.27759 -1.1842 0
M  V30 745 C 66.7995 -2.57527 -2.23367 0
M  V30 746 H 67.9925 -2.96236 -0.467382 0
M  V30 747 H 65.5455 -1.5493 -0.206467 0
M  V30 748 H 66.2805 -1.74542 -2.73323 0
M  V30 749 H 66.0655 -3.36613 -2.01083 0
M  V30 750 H 67.5555 -2.98201 -2.92346 0
M  V30 751 N 67.9926 0.231505 -1.5589 0
M  V30 752 C 68.9026 1.308 -1.94752 0
M  V30 753 C 69.9186 1.51826 -0.849989 0
M  V30 754 O 71.0946 1.6515 -1.15271 0
M  V30 755 C 68.1596 2.63968 -2.24771 0
M  V30 756 C 67.2206 2.51331 -3.48039 0
M  V30 757 C 66.4536 3.78148 -3.76616 0
M  V30 758 O 66.6766 4.80722 -3.07022 0
M  V30 759 O 65.6106 3.75857 -4.70123 0
M  V30 760 H 69.4366 1.0083 -2.86474 0
M  V30 761 H 67.0216 0.433547 -1.42971 0
M  V30 762 H 68.9036 3.42633 -2.45318 0
M  V30 763 H 67.5786 2.9364 -1.36225 0
M  V30 764 H 66.4856 1.709 -3.32782 0
M  V30 765 H 67.8186 2.26601 -4.36936 0
M  V30 766 N 69.4707 1.49531 0.497807 0
M  V30 767 C 70.7167 1.59415 1.25358 0
M  V30 768 C 71.0497 0.281422 1.9215 0
M  V30 769 O 70.3247 -0.715249 1.80871 0
M  V30 770 C 70.6077 2.75566 2.3181 0
M  V30 771 C 70.4607 4.16642 1.69498 0
M  V30 772 C 71.7797 2.87347 3.33346 0
M  V30 773 H 68.8987 0.580244 0.454408 0
M  V30 774 H 71.5407 1.81827 0.551262 0
M  V30 775 H 69.6907 2.56587 2.91711 0
M  V30 776 H 71.3627 4.47145 1.13399 0
M  V30 777 H 69.6057 4.22141 0.998978 0
M  V30 778 H 70.2767 4.93792 2.46725 0
M  V30 779 H 72.7527 3.04634 2.83438 0
M  V30 780 H 71.6287 3.70289 4.05188 0
M  V30 781 H 71.8897 1.96834 3.95865 0
M  V30 782 N 70.9488 -0.749086 1.3866 0
M  V30 783 C 72.3648 -1.05276 1.19955 0
M  V30 784 C 72.5648 -2.01435 0.05134 0
M  V30 785 O 71.6208 -2.45232 -0.60147 0
M  V30 786 C 72.9338 -1.62853 2.52783 0
M  V30 787 C 74.4818 -1.75002 2.59506 0
M  V30 788 C 74.9568 -2.35991 3.92521 0
M  V30 789 N 76.4478 -2.43416 3.94085 0
M  V30 790 C 77.1828 -2.91511 4.9377 0
M  V30 791 N 76.6788 -3.39608 6.03853 0
M  V30 792 N 78.4718 -2.90592 4.81157 0
M  V30 793 H 70.6228 -0.111066 2.12109 0
M  V30 794 H 72.8858 -0.111901 0.941373 0
M  V30 795 H 72.5918 -0.99664 3.37283 0
M  V30 796 H 72.4658 -2.61854 2.715 0
M  V30 797 H 74.8528 -2.37317 1.75398 0
M  V30 798 H 74.9338 -0.74693 2.44652 0
M  V30 799 H 74.5778 -1.74308 4.77053 0
M  V30 800 H 74.5078 -3.3695 4.04688 0
M  V30 801 H 76.9988 -2.09405 3.14576 0
M  V30 802 H 77.3118 -3.74775 6.75843 0
M  V30 803 H 75.6568 -3.37653 6.07466 0
M  V30 804 H 78.8478 -2.52332 3.94267 0
M  V30 805 H 79.0208 -3.27762 5.58996 0
M  V30 806 N 72.4269 -1.23603 -0.977757 0
M  V30 807 C 73.3369 -1.03632 -2.1047 0
M  V30 808 C 74.3529 0.0199435 -1.73989 0
M  V30 809 O 75.5289 -0.176076 -2.00629 0
M  V30 810 C 72.5939 -0.63276 -3.40877 0
M  V30 811 C 71.6549 -1.76437 -3.91367 0
M  V30 812 C 70.8879 -1.37997 -5.15551 0
M  V30 813 O 71.1109 -0.265357 -5.69782 0
M  V30 814 O 70.0449 -2.20201 -5.60174 0
M  V30 815 H 73.8709 -1.98086 -2.30208 0
M  V30 816 H 71.4559 -1.02332 -1.08851 0
M  V30 817 H 73.3379 -0.418761 -4.19314 0
M  V30 818 H 72.0129 0.282754 -3.22463 0
M  V30 819 H 70.9199 -2.03304 -3.14036 0
M  V30 820 H 72.2529 -2.6583 -4.14241 0
M  V30 821 N 73.905 1.17692 -1.04816 0
M  V30 822 C 75.152 1.87859 -0.75599 0
M  V30 823 C 75.48 1.80812 0.716752 0
M  V30 824 O 74.735 1.20819 1.53952 0
M  V30 825 C 75.034 3.37462 -1.17703 0
M  V30 826 C 74.7 3.64713 -2.65133 0
M  V30 827 C 73.362 3.71859 -3.05408 0
M  V30 828 C 75.714 3.76492 -3.60421 0
M  V30 829 C 73.042 3.88271 -4.39843 0
M  V30 830 C 75.394 3.94421 -4.94585 0
M  V30 831 C 74.058 3.99806 -5.3452 0
M  V30 832 H 73.328 0.687425 -0.276636 0
M  V30 833 H 75.975 1.39255 -1.31455 0
M  V30 834 H 74.28 3.88097 -0.537395 0
M  V30 835 H 75.977 3.90109 -0.928218 0
M  V30 836 H 72.567 3.59772 -2.32942 0
M  V30 837 H 76.751 3.70295 -3.30447 0
M  V30 838 H 72.007 3.90687 -4.70291 0
M  V30 839 H 76.181 4.02477 -5.68318 0
M  V30 840 H 73.808 4.12276 -6.38696 0
M  V30 841 N 75.3831 0.828654 1.34056 0
M  V30 842 C 76.6601 0.341809 1.9259 0
M  V30 843 C 77.0401 -1.17158 1.75605 0
M  V30 844 O 76.3881 -1.98132 1.13824 0
M  V30 845 C 76.5981 0.777453 3.4023 0
M  V30 846 C 77.9461 0.779579 4.17382 0
M  V30 847 O 78.9701 0.7204 3.48839 0
M  V30 848 O 77.8291 0.857996 5.39723 0
M  V30 849 H 74.9231 0.0946085 0.821571 0
M  V30 850 H 77.4691 0.913827 1.42994 0
M  V30 851 H 76.2411 1.8196 3.46419 0
M  V30 852 H 75.8641 0.181444 3.97186 0
M  V30 853 N 76.8612 -1.46375 0.584142 0
M  V30 854 C 77.7942 -2.27351 -0.196676 0
M  V30 855 C 78.7722 -1.35715 -0.895561 0
M  V30 856 O 79.9562 -1.65126 -0.90916 0
M  V30 857 C 77.0832 -3.13486 -1.28235 0
M  V30 858 C 76.1292 -4.20896 -0.689145 0
M  V30 859 S 76.9622 -5.33299 0.48507 0
M  V30 860 C 78.1182 -6.23 -0.601767 0
M  V30 861 H 78.3512 -2.93228 0.490395 0
M  V30 862 H 75.8842 -1.49875 0.371071 0
M  V30 863 H 77.8422 -3.63676 -1.90395 0
M  V30 864 H 76.5032 -2.4692 -1.94138 0
M  V30 865 H 75.6962 -4.80997 -1.50527 0
M  V30 866 H 75.2982 -3.73726 -0.143181 0
M  V30 867 H 77.5902 -6.60979 -1.48705 0
M  V30 868 H 78.5332 -7.0809 -0.0374799 0
M  V30 869 H 78.9412 -5.57173 -0.906557 0
M  V30 870 N 78.3393 -0.321999 -1.54275 0
M  V30 871 C 79.6163 0.335232 -1.92706 0
M  V30 872 C 79.9963 1.70006 -1.25145 0
M  V30 873 O 79.3443 2.25067 -0.394596 0
M  V30 874 C 79.5543 0.429008 -3.46353 0
M  V30 875 C 80.9023 0.690029 -4.18956 0
M  V30 876 O 81.9263 0.511992 -3.52501 0
M  V30 877 O 80.7853 1.03338 -5.36641 0
M  V30 878 H 77.8793 0.191143 -0.804608 0
M  V30 879 H 80.4253 -0.3716 -1.65581 0
M  V30 880 H 79.1973 -0.529611 -3.87699 0
M  V30 881 H 78.8203 1.18348 -3.79578 0
M  V30 882 N 79.8174 1.5752 -0.0501392 0
M  V30 883 C 80.7474 2.14502 0.922566 0
M  V30 884 C 81.7284 1.06642 1.3252 0
M  V30 885 O 82.9134 1.34577 1.4001 0
M  V30 886 C 80.0434 2.68916 2.19776 0
M  V30 887 C 78.9974 3.8175 1.93523 0
M  V30 888 C 78.3234 4.22677 3.27487 0
M  V30 889 C 79.6234 5.06932 1.25765 0
M  V30 890 H 81.3174 2.9603 0.447952 0
M  V30 891 H 78.8634 1.42401 0.214024 0
M  V30 892 H 80.8164 3.07419 2.88222 0
M  V30 893 H 79.5404 1.84578 2.69441 0
M  V30 894 H 78.1994 3.43718 1.27489 0
M  V30 895 H 77.8474 3.35291 3.74952 0
M  V30 896 H 77.5474 4.98725 3.1072 0
M  V30 897 H 79.0714 4.63779 3.97166 0
M  V30 898 H 80.4854 5.42888 1.84244 0
M  V30 899 H 78.8824 5.88116 1.19328 0
M  V30 900 H 79.9524 4.84337 0.233536 0
M  V30 901 N 81.2955 -0.223234 1.56011 0
M  V30 902 C 82.7065 -0.790368 1.69145 0
M  V30 903 C 83.0575 -1.85055 0.651845 0
M  V30 904 O 82.1825 -2.15498 -0.197359 0
M  V30 905 C 82.7775 -1.4404 3.06656 0
M  V30 906 C 81.3365 -1.95494 3.2165 0
M  V30 907 C 80.4835 -0.814506 2.65068 0
M  V30 908 H 83.4345 0.00139011 1.587 0
M  V30 909 H 83.4555 -2.30916 3.0242 0
M  V30 910 H 82.9675 -0.668543 3.82298 0
M  V30 911 H 81.0685 -2.75487 2.50874 0
M  V30 912 H 81.1815 -2.13607 4.28846 0
M  V30 913 H 79.5455 -1.22137 2.23505 0
M  V30 914 H 80.3285 -0.0553515 3.43255 0
M  V30 915 N 82.7736 -1.49793 -0.48987 0
M  V30 916 C 84.0216 -1.59525 -1.24081 0
M  V30 917 C 84.3426 -0.288953 -1.92847 0
M  V30 918 O 83.6126 0.692436 -1.83254 0
M  V30 919 H 82.1926 -0.587796 -0.460983 0
M  V30 920 H 84.8546 -1.86477 -0.566778 0
M  V30 921 H 83.9506 -2.39696 -1.99881 0
M  V30 922 N 84.2517 0.741722 -1.39055 0
M  V30 923 C 85.6677 1.04638 -1.20512 0
M  V30 924 C 85.8677 2.01405 -0.0620218 0
M  V30 925 O 84.9237 2.45547 0.588457 0
M  V30 926 C 86.2367 1.6151 -2.53643 0
M  V30 927 C 87.7847 1.73623 -2.6043 0
M  V30 928 C 88.2597 2.33906 -3.93767 0
M  V30 929 N 89.7507 2.41323 -3.9537 0
M  V30 930 C 90.4857 2.88888 -4.95309 0
M  V30 931 N 89.9817 3.36401 -6.05645 0
M  V30 932 N 91.7747 2.88037 -4.82692 0
M  V30 933 H 83.9257 0.0998155 -2.12165 0
M  V30 934 H 86.1887 0.106907 -0.941953 0
M  V30 935 H 85.8947 0.978739 -3.37807 0
M  V30 936 H 85.7687 2.60411 -2.72885 0
M  V30 937 H 88.1557 2.36384 -1.76655 0
M  V30 938 H 88.2367 0.733945 -2.45045 0
M  V30 939 H 87.8807 1.71776 -4.7797 0
M  V30 940 H 87.8107 3.34799 -4.06469 0
M  V30 941 H 90.3017 2.07734 -3.15682 0
M  V30 942 H 90.6147 3.71186 -6.77821 0
M  V30 943 H 88.9597 3.34427 -6.09248 0
M  V30 944 H 92.1507 2.50237 -3.95599 0
M  V30 945 H 92.3237 3.24792 -5.60726 0
M  V30 946 N 85.7298 1.2412 0.971189 0
M  V30 947 C 86.9578 1.10575 1.74874 0
M  V30 948 C 87.3728 -0.342017 1.85676 0
M  V30 949 O 86.7298 -1.23617 1.34258 0
M  V30 950 C 86.7808 1.73579 3.171 0
M  V30 951 O 86.5018 3.12695 3.06844 0
M  V30 952 C 88.0028 1.65598 4.11208 0
M  V30 953 H 85.2228 0.386504 0.548503 0
M  V30 954 H 87.7668 1.64156 1.21955 0
M  V30 955 H 85.9218 1.24009 3.67016 0
M  V30 956 H 86.3358 3.43412 3.96445 0
M  V30 957 H 87.8098 2.1437 5.08674 0
M  V30 958 H 88.2868 0.616532 4.34851 0
M  V30 959 H 88.8928 2.14578 3.67201 0
M  V30 960 N 87.2079 -1.17134 1.05439 0
M  V30 961 C 88.1379 -2.2342 0.678649 0
M  V30 962 C 89.1189 -1.66971 -0.32476 0
M  V30 963 O 90.3039 -1.93149 -0.201802 0
M  V30 964 C 87.4339 -3.47256 0.0552099 0
M  V30 965 C 86.3879 -4.16543 0.98365 0
M  V30 966 C 85.7139 -5.34231 0.223961 0
M  V30 967 C 87.0139 -4.68495 2.3089 0
M  V30 968 H 88.7079 -2.55105 1.56722 0
M  V30 969 H 86.2539 -1.2262 0.754998 0
M  V30 970 H 88.2069 -4.20828 -0.21946 0
M  V30 971 H 86.9309 -3.14846 -0.868319 0
M  V30 972 H 85.5899 -3.44887 1.24293 0
M  V30 973 H 85.2379 -4.98071 -0.702412 0
M  V30 974 H 84.9379 -5.81527 0.842627 0
M  V30 975 H 86.4619 -6.10585 -0.0433671 0
M  V30 976 H 87.8759 -5.33691 2.09396 0
M  V30 977 H 86.2729 -5.26379 2.88176 0
M  V30 978 H 87.3429 -3.85169 2.94572 0
M  V30 979 N 88.686 -0.835752 -1.33615 0
M  V30 980 C 89.633 -0.26473 -2.29277 0
M  V30 981 C 90.603 0.617712 -1.54187 0
M  V30 982 O 91.788 0.556641 -1.825 0
M  V30 983 C 88.928 0.556777 -3.40579 0
M  V30 984 C 88.041 -0.349339 -4.30585 0
M  V30 985 C 87.176 0.482969 -5.29 0
M  V30 986 C 86.215 -0.421732 -6.10645 0
M  V30 987 N 85.352 0.372262 -7.01112 0
M  V30 988 H 90.192 -1.08582 -2.77514 0
M  V30 989 H 87.729 -0.546927 -1.36554 0
M  V30 990 H 89.687 1.04852 -4.03809 0
M  V30 991 H 88.317 1.34286 -2.93542 0
M  V30 992 H 87.369 -0.959372 -3.68104 0
M  V30 993 H 88.681 -1.04445 -4.87742 0
M  V30 994 H 87.835 1.03866 -5.97743 0
M  V30 995 H 86.574 1.21153 -4.72412 0
M  V30 996 H 85.579 -0.989464 -5.40823 0
M  V30 997 H 86.804 -1.14861 -6.69316 0
M  V30 998 H 84.75 1.08426 -6.46977 0
M  V30 999 H 84.667 -0.264198 -7.55538 0
M  V30 1000 H 85.935 0.910293 -7.74167 0
M  V30 1001 N 90.1641 1.46063 -0.591896 0
M  V30 1002 C 91.4101 2.02638 -0.0811191 0
M  V30 1003 C 91.7431 1.4613 1.27905 0
M  V30 1004 O 91.0181 0.629908 1.84017 0
M  V30 1005 C 91.3011 3.60091 -0.0252436 0
M  V30 1006 C 91.1541 4.26965 -1.41496 0
M  V30 1007 C 92.4731 4.3496 0.670685 0
M  V30 1008 H 89.5921 0.73635 -0.0309524 0
M  V30 1009 H 92.2341 1.741 -0.760859 0
M  V30 1010 H 90.3841 3.84535 0.553624 0
M  V30 1011 H 92.0561 4.13756 -2.0397 0
M  V30 1012 H 90.2991 3.85971 -1.98011 0
M  V30 1013 H 90.9701 5.35781 -1.32825 0
M  V30 1014 H 93.4461 4.15716 0.178825 0
M  V30 1015 H 92.3221 5.44686 0.678837 0
M  V30 1016 H 92.5831 4.06685 1.73379 0
M  V30 1017 N 91.6422 0.330177 1.54103 0
M  V30 1018 C 93.0582 -0.0222371 1.59585 0
M  V30 1019 C 93.2582 -1.49902 1.34654 0
M  V30 1020 O 92.3142 -2.25592 1.13421 0
M  V30 1021 C 93.6272 0.401932 2.98002 0
M  V30 1022 C 95.1752 0.353145 3.11001 0
M  V30 1023 C 95.6502 0.752576 4.51775 0
M  V30 1024 N 97.1412 0.706239 4.57784 0
M  V30 1025 C 97.8762 0.987417 5.64834 0
M  V30 1026 N 97.3722 1.33607 6.79795 0
M  V30 1027 N 99.1652 0.91254 5.54643 0
M  V30 1028 H 91.3162 1.29228 1.68564 0
M  V30 1029 H 93.5792 0.525906 0.78875 0
M  V30 1030 H 93.2852 1.4311 3.21267 0
M  V30 1031 H 93.1592 -0.229699 3.765 0
M  V30 1032 H 95.5462 -0.666822 2.87467 0
M  V30 1033 H 95.6272 1.0198 2.34593 0
M  V30 1034 H 95.2712 1.77049 4.76042 0
M  V30 1035 H 95.2012 0.0635409 5.26562 0
M  V30 1036 H 97.6922 0.44889 3.75224 0
M  V30 1037 H 98.0052 1.53582 7.57385 0
M  V30 1038 H 96.3502 1.37439 6.81275 0
M  V30 1039 H 99.5412 0.639601 4.6371 0
M  V30 1040 H 99.7142 1.13503 6.37982 0
M  V30 1041 N 93.1203 -1.57491 0.0584922 0
M  V30 1042 C 94.0533 -2.07533 -0.948969 0
M  V30 1043 C 95.0313 -0.977444 -1.29942 0
M  V30 1044 O 96.2153 -1.2499 -1.41102 0
M  V30 1045 C 93.3423 -2.52192 -2.2609 0
M  V30 1046 C 92.3883 -3.73287 -2.06298 0
M  V30 1047 S 93.2213 -5.18603 -1.33459 0
M  V30 1048 C 94.3773 -5.66583 -2.65959 0
M  V30 1049 H 94.6103 -2.92662 -0.523118 0
M  V30 1050 H 92.1433 -1.53631 -0.153954 0
M  V30 1051 H 94.1013 -2.78585 -3.01498 0
M  V30 1052 H 92.7623 -1.67356 -2.65802 0
M  V30 1053 H 91.9553 -4.0248 -3.03357 0
M  V30 1054 H 91.5573 -3.47199 -1.39029 0
M  V30 1055 H 93.8493 -5.72616 -3.62101 0
M  V30 1056 H 94.7923 -6.65684 -2.41393 0
M  V30 1057 H 95.2003 -4.94342 -2.72554 0
M  V30 1058 N 94.5984 0.214957 -1.56127 0
M  V30 1059 C 95.8284 0.953707 -1.8327 0
M  V30 1060 C 96.2364 1.78181 -0.636262 0
M  V30 1061 O 95.5794 1.79191 0.404516 0
M  V30 1062 C 95.6414 1.91516 -3.0424 0
M  V30 1063 C 95.3054 1.27094 -4.38972 0
M  V30 1064 C 96.3024 0.657575 -5.15725 0
M  V30 1065 C 93.9874 1.28073 -4.85698 0
M  V30 1066 C 95.9814 0.0625968 -6.37369 0
M  V30 1067 C 93.6684 0.681914 -6.07283 0
M  V30 1068 C 94.6664 0.0739046 -6.8296 0
M  V30 1069 O 94.3544 -0.515582 -8.02245 0
M  V30 1070 H 94.0864 0.284764 -0.613095 0
M  V30 1071 H 96.6404 0.233283 -2.04071 0
M  V30 1072 H 94.8704 2.67475 -2.79274 0
M  V30 1073 H 96.5594 2.52001 -3.18198 0
M  V30 1074 H 97.3254 0.642288 -4.80728 0
M  V30 1075 H 93.2044 1.74337 -4.26764 0
M  V30 1076 H 96.7484 -0.412593 -6.96379 0
M  V30 1077 H 92.6454 0.694636 -6.41752 0
M  V30 1078 H 93.4134 -0.410544 -8.1747 0
M  V30 1079 N 96.0765 1.50051 0.48192 0
M  V30 1080 C 97.4925 1.37237 0.814756 0
M  V30 1081 C 97.6925 0.420109 1.97072 0
M  V30 1082 O 96.7485 -0.141246 2.52105 0
M  V30 1083 C 98.0615 2.78375 1.13701 0
M  V30 1084 C 99.6095 2.87213 1.2441 0
M  V30 1085 C 100.084 4.29161 1.59954 0
M  V30 1086 N 101.575 4.32061 1.66967 0
M  V30 1087 C 102.31 5.38879 1.95952 0
M  V30 1088 N 101.806 6.55918 2.23031 0
M  V30 1089 N 103.599 5.26312 1.97363 0
M  V30 1090 H 95.7505 2.10546 -0.28005 0
M  V30 1091 H 98.0135 0.945921 -0.0627454 0
M  V30 1092 H 97.7195 3.49845 0.360787 0
M  V30 1093 H 97.5935 3.14941 2.07586 0
M  V30 1094 H 99.9805 2.15969 2.01101 0
M  V30 1095 H 100.061 2.54204 0.285299 0
M  V30 1096 H 99.7055 5.00938 0.838067 0
M  V30 1097 H 99.6355 4.59648 2.56966 0
M  V30 1098 H 102.126 3.47661 1.48123 0
M  V30 1099 H 102.439 7.33139 2.44391 0
M  V30 1100 H 100.784 6.59112 2.20447 0
M  V30 1101 H 103.975 4.33876 1.75697 0
M  V30 1102 H 104.148 6.09649 2.19618 0
M  V30 1103 N 97.5546 -0.734337 1.39446 0
M  V30 1104 C 98.9656 -1.31264 1.32766 0
M  V30 1105 C 99.3166 -1.96198 -0.00767497 0
M  V30 1106 O 98.4416 -1.96346 -0.909796 0
M  V30 1107 C 99.0366 -2.38682 2.4045 0
M  V30 1108 C 97.5956 -2.92184 2.37288 0
M  V30 1109 C 96.7426 -1.6576 2.22304 0
M  V30 1110 H 99.6936 -0.531799 1.49525 0
M  V30 1111 H 99.7146 -3.19087 2.07276 0
M  V30 1112 H 99.2266 -1.91392 3.37625 0
M  V30 1113 H 97.3276 -3.43752 1.43754 0
M  V30 1114 H 97.4406 -3.45253 3.3217 0
M  V30 1115 H 95.8046 -1.9012 1.69489 0
M  V30 1116 H 96.5876 -1.20521 3.21449 0
M  V30 1117 N 99.0327 -1.24633 -0.964593 0
M  V30 1118 C 99.9427 -1.05859 -2.09359 0
M  V30 1119 C 100.959 0.00148855 -1.74 0
M  V30 1120 O 102.135 -0.197346 -2.00431 0
M  V30 1121 C 99.1997 -0.668879 -3.40187 0
M  V30 1122 C 98.2607 -1.80578 -3.89474 0
M  V30 1123 C 97.4937 -1.43457 -5.14058 0
M  V30 1124 O 97.7167 -0.325775 -5.69469 0
M  V30 1125 O 96.6507 -2.2613 -5.57807 0
M  V30 1126 H 100.477 -2.00516 -2.28094 0
M  V30 1127 H 98.0617 -1.03481 -1.0776 0
M  V30 1128 H 99.9437 -0.463211 -4.18846 0
M  V30 1129 H 98.6187 0.248536 -3.22744 0
M  V30 1130 H 97.5257 -2.06623 -3.11862 0
M  V30 1131 H 98.8587 -2.70208 -4.11398 0
M  V30 1132 N 100.511 1.16574 -1.06058 0
M  V30 1133 C 101.759 1.86677 -0.77434 0
M  V30 1134 C 102.08 1.81959 0.701147 0
M  V30 1135 O 101.35 1.2515 1.50713 0
M  V30 1136 H 99.9298 0.691134 -0.283449 0
M  V30 1137 H 102.592 1.41378 -1.34158 0
M  V30 1138 H 101.688 2.92181 -1.09711 0
M  V30 1139 N 101.989 0.842826 1.3317 0
M  V30 1140 C 103.235 0.441099 1.97945 0
M  V30 1141 C 103.568 -0.998024 1.66593 0
M  V30 1142 O 102.843 -1.69839 0.947898 0
M  V30 1143 C 103.126 0.666841 3.53872 0
M  V30 1144 C 102.979 2.15352 3.94897 0
M  V30 1145 C 104.298 0.115544 4.39948 0
M  V30 1146 H 101.417 0.161739 0.719034 0
M  V30 1147 H 104.059 1.05907 1.57746 0
M  V30 1148 H 102.209 0.140828 3.88245 0
M  V30 1149 H 103.881 2.7447 3.70761 0
M  V30 1150 H 102.124 2.63653 3.44484 0
M  V30 1151 H 102.795 2.26221 5.03516 0
M  V30 1152 H 105.271 0.565213 4.12243 0
M  V30 1153 H 104.147 0.303152 5.48062 0
M  V30 1154 H 104.408 -0.980935 4.3108 0
M  V30 1155 N 103.467 -1.45747 0.599634 0
M  V30 1156 C 104.377 -2.34262 -0.125888 0
M  V30 1157 C 105.393 -1.50768 -0.868625 0
M  V30 1158 O 106.569 -1.83592 -0.828003 0
M  V30 1159 C 103.634 -3.28252 -1.11587 0
M  V30 1160 C 102.695 -4.27651 -0.375956 0
M  V30 1161 C 101.928 -5.1715 -1.31877 0
M  V30 1162 O 102.151 -5.09916 -2.55621 0
M  V30 1163 O 101.085 -5.96286 -0.820157 0
M  V30 1164 H 104.911 -2.97688 0.601315 0
M  V30 1165 H 102.496 -1.44999 0.359934 0
M  V30 1166 H 104.378 -3.86191 -1.68626 0
M  V30 1167 H 103.053 -2.67401 -1.82424 0
M  V30 1168 H 101.96 -3.7335 0.236698 0
M  V30 1169 H 103.293 -4.91334 0.29177 0
M  V30 1170 N 104.945 -0.338344 -1.53925 0
M  V30 1171 C 106.356 0.146651 -1.86123 0
M  V30 1172 C 106.707 1.5042 -1.2597 0
M  V30 1173 O 105.832 2.08723 -0.571294 0
M  V30 1174 C 106.427 0.272879 -3.37699 0
M  V30 1175 C 104.986 0.702103 -3.69794 0
M  V30 1176 C 104.133 -0.167304 -2.76795 0
M  V30 1177 H 107.084 -0.558123 -1.48562 0
M  V30 1178 H 107.105 1.10128 -3.64214 0
M  V30 1179 H 106.617 -0.715307 -3.81451 0
M  V30 1180 H 104.718 1.6995 -3.31584 0
M  V30 1181 H 104.831 0.495604 -4.7653 0
M  V30 1182 H 103.195 0.359527 -2.5215 0
M  V30 1183 H 103.978 -1.15253 -3.23375 0
M  V30 1184 N 106.423 1.57458 -0.0668435 0
M  V30 1185 C 107.834 1.80776 0.466558 0
M  V30 1186 C 108.185 0.980361 1.69951 0
M  V30 1187 O 107.31 0.201441 2.1546 0
M  V30 1188 C 107.905 3.27881 0.85321 0
M  V30 1189 C 106.464 3.52062 1.3315 0
M  V30 1190 C 105.611 2.75513 0.314264 0
M  V30 1191 H 108.562 1.5598 -0.292588 0
M  V30 1192 H 108.583 3.39659 1.715 0
M  V30 1193 H 108.095 3.88075 -0.0443439 0
M  V30 1194 H 106.196 2.97167 2.24772 0
M  V30 1195 H 106.309 4.60762 1.31285 0
M  V30 1196 H 104.673 2.42123 0.790492 0
M  V30 1197 H 105.456 3.38442 -0.575477 0
M  V30 1198 N 107.901 -0.206675 1.56239 0
M  V30 1199 C 109.131 -0.943975 1.83773 0
M  V30 1200 C 109.539 -1.77841 0.645703 0
M  V30 1201 O 108.882 -1.79403 -0.395008 0
M  V30 1202 C 108.944 -1.899 3.05251 0
M  V30 1203 C 108.608 -1.24764 4.39639 0
M  V30 1204 C 109.605 -0.630216 5.16066 0
M  V30 1205 C 107.29 -1.25496 4.8637 0
M  V30 1206 C 109.284 -0.0287946 6.37393 0
M  V30 1207 C 106.971 -0.649698 6.07637 0
M  V30 1208 C 107.969 -0.0376845 6.8299 0
M  V30 1209 O 107.657 0.55812 8.0196 0
M  V30 1210 H 107.389 -0.281508 0.614597 0
M  V30 1211 H 109.943 -0.222458 2.04192 0
M  V30 1212 H 108.173 -2.6599 2.80689 0
M  V30 1213 H 109.862 -2.5031 3.1953 0
M  V30 1214 H 110.628 -0.616785 4.81062 0
M  V30 1215 H 106.507 -1.72072 4.27683 0
M  V30 1216 H 110.051 0.449518 6.9615 0
M  V30 1217 H 105.948 -0.660592 6.42111 0
M  V30 1218 H 106.716 0.453891 8.17241 0
M  V30 1219 N 109.379 -1.50304 -0.473955 0
M  V30 1220 C 110.79 -1.54042 -1.0549 0
M  V30 1221 C 111.141 -0.342248 -1.93192 0
M  V30 1222 O 110.266 0.545157 -2.09421 0
M  V30 1223 C 110.861 -2.79152 -1.91989 0
M  V30 1224 C 109.42 -2.8558 -2.45196 0
M  V30 1225 C 108.567 -2.48295 -1.2347 0
M  V30 1226 H 111.518 -1.5661 -0.256693 0
M  V30 1227 H 111.539 -2.60845 -2.7702 0
M  V30 1228 H 111.051 -3.66339 -1.28131 0
M  V30 1229 H 109.152 -2.02738 -3.12615 0
M  V30 1230 H 109.265 -3.88403 -2.80499 0
M  V30 1231 H 107.629 -2.00669 -1.56856 0
M  V30 1232 H 108.412 -3.37787 -0.612789 0
M  V30 1233 N 110.857 0.726932 -1.39834 0
M  V30 1234 C 111.82 1.82269 -1.38962 0
M  V30 1235 C 112.82 1.58248 -0.285334 0
M  V30 1236 O 114.01 1.65499 -0.54366 0
M  V30 1237 C 111.142 3.20186 -1.17019 0
M  V30 1238 H 112.335 1.84443 -2.36476 0
M  V30 1239 H 109.888 0.931416 -1.25516 0
M  V30 1240 H 110.623 3.23669 -0.202204 0
M  V30 1241 H 110.408 3.3902 -1.96998 0
M  V30 1242 H 111.898 4.00235 -1.1917 0
M  V30 1243 N 112.336 1.25143 0.95797 0
M  V30 1244 C 113.266 1.07711 2.07173 0
M  V30 1245 C 114.247 -0.0128462 1.70095 0
M  V30 1246 O 115.432 0.156061 1.93572 0
M  V30 1247 C 112.562 0.691503 3.40346 0
M  V30 1248 C 111.516 1.73132 3.9142 0
M  V30 1249 C 110.842 1.20049 5.21049 0
M  V30 1250 C 112.142 3.1294 4.1817 0
M  V30 1251 H 113.836 2.00873 2.22014 0
M  V30 1252 H 111.382 0.967191 1.06684 0
M  V30 1253 H 113.335 0.556505 4.17709 0
M  V30 1254 H 112.059 -0.275819 3.25433 0
M  V30 1255 H 110.718 1.8547 3.16222 0
M  V30 1256 H 110.366 0.223499 5.02503 0
M  V30 1257 H 110.066 1.89545 5.56189 0
M  V30 1258 H 111.59 1.07782 6.01012 0
M  V30 1259 H 113.004 3.03775 4.86203 0
M  V30 1260 H 111.401 3.79875 4.64559 0
M  V30 1261 H 112.471 3.6025 3.24573 0
M  V30 1262 N 113.814 -1.1601 1.06675 0
M  V30 1263 C 115.06 -1.86909 0.786945 0
M  V30 1264 C 115.393 -1.81717 -0.685018 0
M  V30 1265 O 114.668 -1.23551 -1.50218 0
M  V30 1266 C 114.951 -3.36313 1.28707 0
M  V30 1267 C 114.804 -3.50175 2.82308 0
M  V30 1268 C 116.123 -4.3084 0.898071 0
M  V30 1269 H 113.242 -0.678677 0.287343 0
M  V30 1270 H 115.884 -1.36336 1.32334 0
M  V30 1271 H 114.034 -3.79513 0.830768 0
M  V30 1272 H 115.706 -3.15886 3.36175 0
M  V30 1273 H 113.949 -2.91959 3.20847 0
M  V30 1274 H 114.62 -4.55116 3.12368 0
M  V30 1275 H 117.096 -3.95561 1.29114 0
M  V30 1276 H 115.972 -5.33876 1.27543 0
M  V30 1277 H 116.233 -4.41662 -0.196651 0
M  V30 1278 N 115.292 -0.849877 -1.32721 0
M  V30 1279 C 116.522 -0.46408 -2.0132 0
M  V30 1280 C 116.93 0.94246 -1.64056 0
M  V30 1281 O 116.273 1.6257 -0.855379 0
M  V30 1282 C 116.335 -0.517887 -3.5575 0
M  V30 1283 C 115.999 -1.88248 -4.16427 0
M  V30 1284 C 116.996 -2.84726 -4.35002 0
M  V30 1285 C 114.681 -2.17832 -4.52609 0
M  V30 1286 C 116.675 -4.08945 -4.8892 0
M  V30 1287 C 114.362 -3.42304 -5.06232 0
M  V30 1288 C 115.36 -4.37677 -5.24335 0
M  V30 1289 O 115.048 -5.59946 -5.76815 0
M  V30 1290 H 114.78 -0.181327 -0.651227 0
M  V30 1291 H 117.334 -1.14713 -1.70382 0
M  V30 1292 H 115.564 0.221997 -3.86062 0
M  V30 1293 H 117.253 -0.148366 -4.05629 0
M  V30 1294 H 118.019 -2.63174 -4.07388 0
M  V30 1295 H 113.898 -1.44385 -4.37806 0
M  V30 1296 H 117.442 -4.83396 -5.02966 0
M  V30 1297 H 113.339 -3.63709 -5.33278 0
M  V30 1298 H 114.107 -5.61838 -5.95214 0
M  V30 1299 N 116.77 1.45427 -0.607355 0
M  V30 1300 C 118 2.06314 -0.108656 0
M  V30 1301 C 118.408 1.45269 1.21217 0
M  V30 1302 O 117.751 0.561115 1.74921 0
M  V30 1303 C 117.813 3.59345 0.105618 0
M  V30 1304 C 117.477 4.42723 -1.13337 0
M  V30 1305 C 118.474 4.77715 -2.05145 0
M  V30 1306 C 116.159 4.83478 -1.36213 0
M  V30 1307 C 118.153 5.52317 -3.18158 0
M  V30 1308 C 115.84 5.57835 -2.49527 0
M  V30 1309 C 116.838 5.92171 -3.40327 0
M  V30 1310 O 116.526 6.65019 -4.51669 0
M  V30 1311 H 116.258 0.672782 -0.0658842 0
M  V30 1312 H 118.812 1.87664 -0.834945 0
M  V30 1313 H 117.042 3.76394 0.886796 0
M  V30 1314 H 118.731 4.02076 0.555886 0
M  V30 1315 H 119.497 4.46787 -1.88697 0
M  V30 1316 H 115.376 4.56188 -0.664362 0
M  V30 1317 H 118.92 5.79036 -3.89054 0
M  V30 1318 H 114.817 5.88177 -2.65928 0
M  V30 1319 H 115.585 6.83469 -4.50348 0
M  V30 1320 N 118.248 0.346503 1.53744 0
M  V30 1321 C 119.198 -0.524953 2.21874 0
M  V30 1322 C 120.182 -1.06376 1.20718 0
M  V30 1323 O 121.374 -0.996972 1.46251 0
M  V30 1324 C 118.503 -1.6739 2.99726 0
M  V30 1325 C 117.589 -1.14888 4.08242 0
M  V30 1326 N 117.98 -0.345329 5.0462 0
M  V30 1327 C 116.278 -1.4255 4.22606 0
M  V30 1328 C 116.979 -0.0600706 5.81669 0
M  V30 1329 N 115.955 -0.65252 5.39669 0
M  V30 1330 H 119.757 0.0960091 2.93743 0
M  V30 1331 H 117.271 0.15352 1.61673 0
M  V30 1332 H 119.268 -2.3102 3.47038 0
M  V30 1333 H 117.928 -2.29811 2.29384 0
M  V30 1334 H 118.939 0.0138439 5.17898 0
M  V30 1335 H 115.616 -2.05389 3.63486 0
M  V30 1336 H 117.006 0.588321 6.69319 0
M  V30 1337 N 119.726 -1.57421 0.075193 0
M  V30 1338 C 120.974 -1.93236 -0.591974 0
M  V30 1339 C 121.295 -0.956241 -1.69944 0
M  V30 1340 O 120.565 -0.00494792 -1.95899 0
M  V30 1341 H 119.145 -0.713355 -0.22166 0
M  V30 1342 H 121.807 -1.9444 0.133848 0
M  V30 1343 H 120.903 -2.95131 -1.01509 0
M  V30 1344 N 121.204 0.198386 -1.56346 0
M  V30 1345 C 122.452 0.91747 -1.80075 0
M  V30 1346 C 122.773 1.83929 -0.647692 0
M  V30 1347 O 122.043 1.93029 0.334166 0
M  V30 1348 H 120.623 0.341774 -0.664228 0
M  V30 1349 H 123.285 0.204684 -1.93822 0
M  V30 1350 H 122.381 1.51055 -2.7311 0
M  V30 1351 N 122.682 1.50554 0.465978 0
M  V30 1352 C 123.93 1.61479 1.21528 0
M  V30 1353 C 124.251 0.319596 1.92363 0
M  V30 1354 O 123.521 -0.663194 1.84333 0
M  V30 1355 H 122.101 0.595055 0.451573 0
M  V30 1356 H 124.763 1.87355 0.53704 0
M  V30 1357 H 123.859 2.42846 1.96042 0
M  V30 1358 N 124.16 -0.719506 1.40217 0
M  V30 1359 C 125.406 -1.48034 1.39491 0
M  V30 1360 C 125.761 -1.92399 -0.00443536 0
M  V30 1361 O 125.054 -1.64993 -0.974061 0
M  V30 1362 C 125.248 -2.72271 2.31524 0
M  V30 1363 C 125.077 -2.40055 3.80268 0
M  V30 1364 C 123.847 -2.31588 4.49105 0
M  V30 1365 C 126.045 -2.04581 4.71859 0
M  V30 1366 N 124.027 -1.92006 5.83101 0
M  V30 1367 C 125.398 -1.75568 5.94623 0
M  V30 1368 C 127.453 -1.91183 4.59732 0
M  V30 1369 C 126.156 -1.34505 7.06612 0
M  V30 1370 C 128.182 -1.51524 5.71659 0
M  V30 1371 C 127.544 -1.23406 6.93506 0
M  V30 1372 H 123.643 -0.539927 0.565688 0
M  V30 1373 H 126.227 -0.834764 1.75897 0
M  V30 1374 H 124.398 -3.34584 1.97251 0
M  V30 1375 H 126.13 -3.38584 2.21682 0
M  V30 1376 H 122.885 -2.49199 4.02737 0
M  V30 1377 H 123.309 -1.74764 6.54054 0
M  V30 1378 H 127.951 -2.11584 3.66049 0
M  V30 1379 H 125.669 -1.12846 8.00182 0
M  V30 1380 H 129.255 -1.41741 5.6427 0
M  V30 1381 H 128.135 -0.931788 7.78645 0
M  V30 1382 N 125.638 -1.25649 -0.95132 0
M  V30 1383 C 126.884 -1.10757 -1.69884 0
M  V30 1384 C 127.217 0.350061 -1.91019 0
M  V30 1385 O 126.492 1.25783 -1.48354 0
M  V30 1386 C 126.775 -1.86606 -3.07978 0
M  V30 1387 C 126.628 -3.40217 -2.94232 0
M  V30 1388 C 127.947 -1.65182 -4.07925 0
M  V30 1389 H 125.066 -0.40374 -0.616574 0
M  V30 1390 H 127.708 -1.54521 -1.10558 0
M  V30 1391 H 125.858 -1.49409 -3.58621 0
M  V30 1392 H 127.53 -3.87108 -2.50889 0
M  V30 1393 H 125.773 -3.67759 -2.30078 0
M  V30 1394 H 126.444 -3.88505 -3.92133 0
M  V30 1395 H 128.92 -1.9757 -3.66204 0
M  V30 1396 H 127.796 -2.20683 -5.02583 0
M  V30 1397 H 128.057 -0.593933 -4.38092 0
M  V30 1398 N 127.117 1.15442 -1.07289 0
M  V30 1399 C 128.363 1.86489 -0.796846 0
M  V30 1400 C 128.696 1.82078 0.675371 0
M  V30 1401 O 127.971 1.24346 1.4956 0
M  V30 1402 C 128.254 3.35626 -1.30489 0
M  V30 1403 C 128.107 3.48673 -2.84161 0
M  V30 1404 C 129.426 4.30357 -0.920907 0
M  V30 1405 H 126.545 0.677144 -0.290939 0
M  V30 1406 H 129.187 1.35633 -1.33056 0
M  V30 1407 H 127.337 3.79068 -0.850883 0
M  V30 1408 H 129.009 3.14099 -3.37846 0
M  V30 1409 H 127.252 2.90253 -3.22391 0
M  V30 1410 H 127.923 4.53453 -3.14777 0
M  V30 1411 H 130.399 3.94871 -1.3121 0
M  V30 1412 H 129.275 5.33193 -1.30372 0
M  V30 1413 H 129.536 4.4176 0.173226 0
M  V30 1414 N 128.595 0.856903 1.32268 0
M  V30 1415 C 129.843 0.460474 1.96784 0
M  V30 1416 C 130.164 -0.987701 1.68135 0
M  V30 1417 O 129.434 -1.69058 0.989765 0
M  V30 1418 H 128.014 0.167289 0.728027 0
M  V30 1419 H 130.676 1.09383 1.61312 0
M  V30 1420 H 129.772 0.60739 3.06133 0
M  V30 1421 N 130.073 -1.45103 0.615059 0
M  V30 1422 C 131.35 -1.95549 0.0448276 0
M  V30 1423 C 131.73 -1.55737 -1.4251 0
M  V30 1424 O 131.078 -0.823556 -2.13143 0
M  V30 1425 C 131.288 -3.48098 0.250785 0
M  V30 1426 C 132.636 -4.24384 0.135509 0
M  V30 1427 O 133.66 -3.55738 0.181299 0
M  V30 1428 O 132.519 -5.46493 0.0268878 0
M  V30 1429 H 129.613 -0.8264 -0.0314845 0
M  V30 1430 H 132.159 -1.55232 0.685642 0
M  V30 1431 H 130.931 -3.7007 1.27139 0
M  V30 1432 H 130.554 -3.95323 -0.424937 0
M  V30 1433 N 131.551 -0.354651 -1.53558 0
M  V30 1434 C 132.481 0.489091 -2.2832 0
M  V30 1435 C 133.462 1.09324 -1.30316 0
M  V30 1436 O 134.647 1.11255 -1.59173 0
M  V30 1437 C 131.777 1.63456 -3.0643 0
M  V30 1438 C 130.731 1.1582 -4.12031 0
M  V30 1439 C 130.057 2.39305 -4.7816 0
M  V30 1440 C 131.357 0.250731 -5.21698 0
M  V30 1441 H 133.051 -0.134614 -2.99097 0
M  V30 1442 H 130.597 -0.0661826 -1.43848 0
M  V30 1443 H 132.55 2.23136 -3.57475 0
M  V30 1444 H 131.274 2.28533 -2.33325 0
M  V30 1445 H 129.933 0.584146 -3.61916 0
M  V30 1446 H 129.581 3.02814 -4.01637 0
M  V30 1447 H 129.281 2.08109 -5.49513 0
M  V30 1448 H 130.805 2.99691 -5.31994 0
M  V30 1449 H 132.219 0.754695 -5.68311 0
M  V30 1450 H 130.616 0.0301468 -6.00092 0
M  V30 1451 H 131.686 -0.710125 -4.79672 0
M  V30 1452 N 133.029 1.57378 -0.0835403 0
M  V30 1453 C 133.939 2.16897 0.894021 0
M  V30 1454 C 134.955 1.13528 1.31861 0
M  V30 1455 O 136.131 1.45848 1.3889 0
M  V30 1456 C 133.196 2.72831 2.13925 0
M  V30 1457 C 132.257 3.91115 1.76997 0
M  V30 1458 C 131.49 4.44371 2.95584 0
M  V30 1459 O 131.713 3.96596 4.09961 0
M  V30 1460 O 130.647 5.35549 2.74719 0
M  V30 1461 H 134.473 3.00814 0.417679 0
M  V30 1462 H 132.058 1.48741 0.140181 0
M  V30 1463 H 133.94 3.0863 2.86924 0
M  V30 1464 H 132.615 1.91967 2.60635 0
M  V30 1465 H 131.522 3.60148 1.01214 0
M  V30 1466 H 132.855 4.73307 1.3506 0
M  V30 1467 N 134.507 -0.190092 1.56449 0
M  V30 1468 C 135.735 -0.925772 1.85033 0
M  V30 1469 C 136.15 -1.76638 0.666658 0
M  V30 1470 O 135.507 -1.78822 -0.364565 0
M  V30 1471 C 135.558 -1.81786 3.12468 0
M  V30 1472 O 135.279 -1.01118 4.26271 0
M  V30 1473 C 136.78 -2.6648 3.54265 0
M  V30 1474 H 134 -0.269872 0.614337 0
M  V30 1475 H 136.544 -0.195837 2.0356 0
M  V30 1476 H 134.699 -2.50136 2.95822 0
M  V30 1477 H 135.113 -1.61956 4.98869 0
M  V30 1478 H 136.587 -3.24722 4.46385 0
M  V30 1479 H 137.064 -3.40434 2.77491 0
M  V30 1480 H 137.67 -2.03493 3.73458 0
M  V30 1481 N 135.985 -1.50799 -0.457987 0
M  V30 1482 C 136.935 -1.67003 -1.55222 0
M  V30 1483 C 137.919 -0.52434 -1.52117 0
M  V30 1484 O 139.111 -0.779345 -1.58919 0
M  V30 1485 C 136.24 -1.77956 -2.93576 0
M  V30 1486 C 135.326 -2.98243 -3.01516 0
M  V30 1487 N 135.717 -4.21732 -2.79241 0
M  V30 1488 C 134.015 -2.97072 -3.32662 0
M  V30 1489 C 134.716 -5.02817 -2.92489 0
M  V30 1490 N 133.692 -4.37038 -3.23262 0
M  V30 1491 H 137.494 -2.60163 -1.36721 0
M  V30 1492 H 135.008 -1.48163 -0.664952 0
M  V30 1493 H 137.005 -1.87671 -3.72271 0
M  V30 1494 H 135.665 -0.859634 -3.13114 0
M  V30 1495 H 136.676 -4.51016 -2.54567 0
M  V30 1496 H 133.353 -2.14631 -3.58106 0
M  V30 1497 H 134.743 -6.11054 -2.79396 0
M  V30 1498 N 137.463 0.71206 -1.40597 0
M  V30 1499 C 138.74 1.46536 -1.29563 0
M  V30 1500 C 139.12 2.10931 0.0844217 0
M  V30 1501 O 138.468 2.00418 1.0975 0
M  V30 1502 C 138.678 2.49821 -2.43701 0
M  V30 1503 C 140.026 3.15551 -2.841 0
M  V30 1504 O 141.05 2.60142 -2.4332 0
M  V30 1505 O 139.909 4.15867 -3.54566 0
M  V30 1506 H 137.003 0.651801 -0.509004 0
M  V30 1507 H 139.549 0.743935 -1.52524 0
M  V30 1508 H 138.321 2.00778 -3.35863 0
M  V30 1509 H 137.944 3.29495 -2.22528 0
M  V30 1510 N 138.941 1.26152 0.944643 0
M  V30 1511 C 140.352 1.10454 1.50522 0
M  V30 1512 C 140.703 -0.31635 1.93633 0
M  V30 1513 O 139.828 -1.20746 1.79581 0
M  V30 1514 C 140.423 1.99891 2.73549 0
M  V30 1515 C 138.982 1.88348 3.25886 0
M  V30 1516 C 138.129 1.93447 1.9868 0
M  V30 1517 H 141.08 1.39292 0.760489 0
M  V30 1518 H 141.101 1.54477 3.47732 0
M  V30 1519 H 140.613 3.03297 2.42141 0
M  V30 1520 H 138.714 0.878636 3.62092 0
M  V30 1521 H 138.827 2.73696 3.93227 0
M  V30 1522 H 137.191 1.37456 2.14425 0
M  V30 1523 H 137.974 2.98476 1.69607 0
M  V30 1524 N 140.419 -1.14872 1.07899 0
M  V30 1525 C 141.665 -1.86064 0.806725 0
M  V30 1526 C 141.998 -1.82434 -0.665706 0
M  V30 1527 O 141.273 -1.25138 -1.48899 0
M  V30 1528 C 141.556 -3.34929 1.32267 0
M  V30 1529 C 141.409 -3.47161 2.86006 0
M  V30 1530 C 142.728 -4.29863 0.943717 0
M  V30 1531 H 139.847 -0.675591 0.294526 0
M  V30 1532 H 142.489 -1.34925 1.33773 0
M  V30 1533 H 140.639 -3.78611 0.870974 0
M  V30 1534 H 142.311 -3.12302 3.39507 0
M  V30 1535 H 140.554 -2.88539 3.23925 0
M  V30 1536 H 141.225 -4.51777 3.17177 0
M  V30 1537 H 143.701 -3.9417 1.33302 0
M  V30 1538 H 142.577 -5.32494 1.33198 0
M  V30 1539 H 142.838 -4.41846 -0.149796 0
M  V30 1540 N 141.898 -0.863906 -1.31812 0
M  V30 1541 C 143.138 -0.47825 -1.98726 0
M  V30 1542 C 143.502 0.950397 -1.66828 0
M  V30 1543 O 144.703 1.44109 -2.26905 0
M  V30 1544 C 142.974 -0.721134 -3.50049 0
M  V30 1545 S 144.533 -0.434432 -4.36644 0
M  V30 1546 H 141.351 -0.178773 -0.688158 0
M  V30 1547 H 143.953 -1.11862 -1.60334 0
M  V30 1548 H 142.657 -1.75981 -3.70755 0
M  V30 1549 H 142.188 -0.0675315 -3.93342 0
M  V30 1550 H 144.203 0.735786 -4.90714 0
M  V30 1551 N 143.376 1.44774 -0.622745 0
M  V30 1552 C 144.792 1.56986 -0.287652 0
M  V30 1553 C 144.992 1.61167 1.20944 0
M  V30 1554 O 144.048 1.55015 1.99315 0
M  V30 1555 C 145.361 2.84551 -0.972188 0
M  V30 1556 C 146.909 2.9825 -0.949536 0
M  V30 1557 C 147.384 4.28605 -1.61437 0
M  V30 1558 N 148.875 4.35399 -1.58057 0
M  V30 1559 C 149.61 5.34964 -2.064 0
M  V30 1560 N 149.106 6.40981 -2.62897 0
M  V30 1561 N 150.899 5.26419 -1.97078 0
M  V30 1562 H 143.05 1.40304 -1.59463 0
M  V30 1563 H 145.313 0.671794 -0.668878 0
M  V30 1564 H 145.019 2.87417 -2.02693 0
M  V30 1565 H 144.893 3.73807 -0.504771 0
M  V30 1566 H 147.28 2.94941 0.0967067 0
M  V30 1567 H 147.361 2.10364 -1.45536 0
M  V30 1568 H 147.005 4.32672 -2.66002 0
M  V30 1569 H 146.935 5.15334 -1.08344 0
M  V30 1570 H 149.426 3.59397 -1.16801 0
M  V30 1571 H 149.739 7.13225 -2.97539 0
M  V30 1572 H 148.084 6.4169 -2.66943 0
M  V30 1573 H 151.275 4.42504 -1.52669 0
M  V30 1574 H 151.448 6.03861 -2.35066 0
M  V30 1575 N 144.854 0.36279 1.53368 0
M  V30 1576 C 146.1 -0.228113 2.01513 0
M  V30 1577 C 146.433 -1.48648 1.2497 0
M  V30 1578 O 145.708 -1.91459 0.342616 0
M  V30 1579 C 145.991 -0.522884 3.56284 0
M  V30 1580 C 145.844 0.74892 4.43521 0
M  V30 1581 C 147.163 -1.32461 4.19693 0
M  V30 1582 H 144.282 -0.0814343 0.732487 0
M  V30 1583 H 146.924 0.48713 1.83649 0
M  V30 1584 H 145.074 -1.1322 3.71636 0
M  V30 1585 H 146.746 1.38648 4.39971 0
M  V30 1586 H 144.989 1.36986 4.11603 0
M  V30 1587 H 145.66 0.497667 5.49752 0
M  V30 1588 H 148.136 -0.809203 4.08156 0
M  V30 1589 H 147.012 -1.49961 5.28018 0
M  V30 1590 H 147.273 -2.33232 3.75573 0
M  V30 1591 N 146.332 -1.57332 0.0918853 0
M  V30 1592 C 147.262 -2.16872 -0.865371 0
M  V30 1593 C 148.243 -1.10118 -1.29646 0
M  V30 1594 O 149.428 -1.38242 -1.36392 0
M  V30 1595 C 146.558 -2.74649 -2.12569 0
M  V30 1596 C 145.512 -3.86747 -1.83333 0
M  V30 1597 C 144.838 -4.31212 -3.16166 0
M  V30 1598 C 146.138 -5.10089 -1.1228 0
M  V30 1599 H 147.832 -2.97114 -0.369307 0
M  V30 1600 H 145.378 -1.42918 -0.176194 0
M  V30 1601 H 147.331 -3.14952 -2.7997 0
M  V30 1602 H 146.055 -1.91657 -2.64452 0
M  V30 1603 H 144.714 -3.46978 -1.18331 0
M  V30 1604 H 144.362 -3.45115 -3.6593 0
M  V30 1605 H 144.062 -5.06788 -2.97388 0
M  V30 1606 H 145.586 -4.74146 -3.84731 0
M  V30 1607 H 147 -5.47582 -1.69785 0
M  V30 1608 H 145.397 -5.91073 -1.03693 0
M  V30 1609 H 146.467 -4.84786 -0.105041 0
M  V30 1610 N 147.81 0.181792 -1.56548 0
M  V30 1611 C 148.773 1.20894 -1.94724 0
M  V30 1612 C 149.773 1.37738 -0.829747 0
M  V30 1613 O 150.963 1.35323 -1.09697 0
M  V30 1614 C 148.095 2.57593 -2.23291 0
M  V30 1615 H 149.288 0.882275 -2.86629 0
M  V30 1616 H 146.841 0.423838 -1.50444 0
M  V30 1617 H 147.576 2.95291 -1.34067 0
M  V30 1618 H 147.361 2.46735 -3.04736 0
M  V30 1619 H 148.851 3.31637 -2.53785 0
M  V30 1620 N 149.288 1.51039 0.449983 0
M  V30 1621 C 150.235 1.71439 1.54523 0
M  V30 1622 C 151.205 0.555871 1.56522 0
M  V30 1623 O 152.39 0.788871 1.73728 0
M  V30 1624 C 149.53 1.83384 2.92343 0
M  V30 1625 C 148.643 3.10873 2.9997 0
M  V30 1626 C 147.778 3.13488 4.28834 0
M  V30 1627 C 146.817 4.35343 4.30282 0
M  V30 1628 N 145.954 4.35579 5.5065 0
M  V30 1629 H 150.794 2.64934 1.36433 0
M  V30 1630 H 148.331 1.31312 0.662982 0
M  V30 1631 H 150.289 1.88291 3.72293 0
M  V30 1632 H 148.919 0.933086 3.0902 0
M  V30 1633 H 147.971 3.15336 2.12761 0
M  V30 1634 H 149.283 4.00814 2.96901 0
M  V30 1635 H 148.437 3.17241 5.17149 0
M  V30 1636 H 147.176 2.21414 4.34543 0
M  V30 1637 H 146.181 4.3178 3.40362 0
M  V30 1638 H 147.406 5.28668 4.26248 0
M  V30 1639 H 145.352 3.46369 5.57104 0
M  V30 1640 H 145.269 5.19313 5.49409 0
M  V30 1641 H 146.537 4.43507 6.41032 0
M  V30 1642 N 150.766 -0.704594 1.40972 0
M  V30 1643 C 152.043 -1.45847 1.30338 0
M  V30 1644 C 152.423 -2.10973 -0.0732344 0
M  V30 1645 O 151.771 -2.00997 -1.08685 0
M  V30 1646 C 151.981 -2.48525 2.45023 0
M  V30 1647 C 153.329 -3.1404 2.8577 0
M  V30 1648 O 154.353 -2.58848 2.44696 0
M  V30 1649 O 153.212 -4.13981 3.56766 0
M  V30 1650 H 150.306 -0.649092 0.512454 0
M  V30 1651 H 152.852 -0.735836 1.52917 0
M  V30 1652 H 151.624 -1.98994 3.36923 0
M  V30 1653 H 151.247 -3.2831 2.24272 0
M  V30 1654 N 152.244 -1.26651 -0.937939 0
M  V30 1655 C 153.492 -1.12165 -1.68118 0
M  V30 1656 C 153.813 0.334983 -1.92101 0
M  V30 1657 O 153.083 1.23583 -1.52 0
M  V30 1658 H 151.663 -0.412093 -0.623048 0
M  V30 1659 H 154.325 -1.59027 -1.12678 0
M  V30 1660 H 153.421 -1.64289 -2.6536 0
M  V30 1661 N 153.722 1.14298 -1.08507 0
M  V30 1662 C 155.138 1.37347 -0.812901 0
M  V30 1663 C 155.338 1.93052 0.577325 0
M  V30 1664 O 154.394 2.14389 1.33393 0
M  V30 1665 C 155.707 2.33359 -1.89642 0
M  V30 1666 C 157.255 2.46996 -1.92255 0
M  V30 1667 C 157.73 3.46309 -2.99724 0
M  V30 1668 N 159.221 3.53853 -2.98902 0
M  V30 1669 C 159.956 4.3055 -3.787 0
M  V30 1670 N 159.452 5.10482 -4.6838 0
M  V30 1671 N 161.245 4.25757 -3.66998 0
M  V30 1672 H 153.396 0.764867 -1.9815 0
M  V30 1673 H 155.659 0.398966 -0.859959 0
M  V30 1674 H 155.365 1.99565 -2.89597 0
M  V30 1675 H 155.239 3.33274 -1.76659 0
M  V30 1676 H 157.626 2.80081 -0.929445 0
M  V30 1677 H 157.707 1.47039 -2.09316 0
M  V30 1678 H 157.351 3.13957 -3.99241 0
M  V30 1679 H 157.281 4.46049 -2.79907 0
M  V30 1680 H 159.772 2.96812 -2.33904 0
M  V30 1681 H 160.085 5.66284 -5.25873 0
M  V30 1682 H 158.43 5.09747 -4.72422 0
M  V30 1683 H 161.621 3.62383 -2.96304 0
M  V30 1684 H 161.794 4.85279 -4.29427 0
M  V30 1685 N 155.201 0.870884 1.31352 0
M  V30 1686 C 156.164 0.332243 2.26779 0
M  V30 1687 C 157.164 -0.517302 1.52252 0
M  V30 1688 O 158.354 -0.326477 1.71113 0
M  V30 1689 C 155.486 -0.528066 3.36785 0
M  V30 1690 H 156.679 1.17469 2.75937 0
M  V30 1691 H 154.232 0.64655 1.423 0
M  V30 1692 H 154.967 -1.39167 2.92922 0
M  V30 1693 H 154.752 0.0802582 3.92018 0
M  V30 1694 H 156.242 -0.897179 4.07849 0
M  V30 1695 N 156.679 -1.44442 0.630414 0
M  V30 1696 C 157.925 -2.02351 0.134816 0
M  V30 1697 C 158.258 -1.4947 -1.23986 0
M  V30 1698 O 157.533 -0.678475 -1.82283 0
M  V30 1699 C 157.816 -3.59898 0.120707 0
M  V30 1700 C 157.669 -4.23063 1.52767 0
M  V30 1701 C 158.988 -4.36585 -0.555127 0
M  V30 1702 H 156.107 -0.73527 0.0504646 0
M  V30 1703 H 158.749 -1.72022 0.806751 0
M  V30 1704 H 156.899 -3.85868 -0.451477 0
M  V30 1705 H 158.571 -4.08202 2.14869 0
M  V30 1706 H 156.814 -3.80586 2.08175 0
M  V30 1707 H 157.485 -5.32071 1.46984 0
M  V30 1708 H 159.961 -4.16044 -0.0685429 0
M  V30 1709 H 158.837 -5.46294 -0.534185 0
M  V30 1710 H 159.098 -4.11138 -1.62535 0
M  V30 1711 N 158.157 -0.370918 -1.53173 0
M  V30 1712 C 159.403 0.217423 -2.01631 0
M  V30 1713 C 159.736 1.47983 -1.25756 0
M  V30 1714 O 159.011 1.91274 -0.352764 0
M  V30 1715 C 159.294 0.503982 -3.56556 0
M  V30 1716 C 159.147 -0.77243 -4.43118 0
M  V30 1717 C 160.466 1.30234 -4.20389 0
M  V30 1718 H 157.585 0.0775486 -0.732909 0
M  V30 1719 H 160.227 -0.496863 -1.83388 0
M  V30 1720 H 158.377 1.11248 -3.72231 0
M  V30 1721 H 160.049 -1.4098 -4.39229 0
M  V30 1722 H 158.292 -1.39167 -4.10871 0
M  V30 1723 H 158.963 -0.526815 -5.4948 0
M  V30 1724 H 161.439 0.787546 -4.08579 0
M  V30 1725 H 160.315 1.47158 -5.28806 0
M  V30 1726 H 160.576 2.31237 -3.76805 0
M  V30 1727 N 159.635 1.57281 -0.100228 0
M  V30 1728 C 160.882 1.94537 0.562268 0
M  V30 1729 C 161.21 0.982315 1.67871 0
M  V30 1730 O 160.465 0.00280936 1.957 0
M  V30 1731 C 160.764 3.38305 1.15259 0
M  V30 1732 C 160.43 4.50618 0.159409 0
M  V30 1733 C 159.092 4.81066 -0.113741 0
M  V30 1734 C 161.444 5.18615 -0.518461 0
M  V30 1735 C 158.772 5.76835 -1.07137 0
M  V30 1736 C 161.124 6.15412 -1.46459 0
M  V30 1737 C 159.788 6.44262 -1.74592 0
M  V30 1738 H 159.058 0.711863 0.205748 0
M  V30 1739 H 161.705 1.90679 -0.17715 0
M  V30 1740 H 160.01 3.38766 1.96836 0
M  V30 1741 H 161.707 3.64435 1.67297 0
M  V30 1742 H 158.297 4.2689 0.382491 0
M  V30 1743 H 162.481 4.95264 -0.320581 0
M  V30 1744 H 157.737 5.975 -1.29628 0
M  V30 1745 H 161.911 6.67194 -1.99564 0
M  V30 1746 H 159.538 7.1828 -2.48953 0
M  V30 1747 N 161.113 -0.173488 1.56642 0
M  V30 1748 C 162.338 -0.910149 1.86363 0
M  V30 1749 C 162.763 -1.75132 0.686318 0
M  V30 1750 O 162.121 -1.77595 -0.364643 0
M  V30 1751 C 162.169 -1.76447 3.14482 0
M  V30 1752 O 161.273 -2.86584 2.96553 0
M  V30 1753 H 160.614 -0.255086 0.613047 0
M  V30 1754 H 163.144 -0.172283 2.03873 0
M  V30 1755 H 163.154 -2.16483 3.45831 0
M  V30 1756 H 161.829 -1.14658 3.99783 0
M  V30 1757 H 160.406 -2.50146 2.76553 0
M  V30 1758 N 162.591 -1.51276 -0.441967 0
M  V30 1759 C 163.837 -1.63958 -1.19355 0
M  V30 1760 C 164.17 -0.352543 -1.90973 0
M  V30 1761 O 163.445 0.647627 -1.83401 0
M  V30 1762 C 163.728 -2.83979 -2.21422 0
M  V30 1763 C 163.581 -4.22646 -1.53918 0
M  V30 1764 C 164.9 -2.99521 -3.22451 0
M  V30 1765 H 162.019 -0.596709 -0.432559 0
M  V30 1766 H 164.661 -1.83748 -0.483398 0
M  V30 1767 H 162.811 -2.67237 -2.81987 0
M  V30 1768 H 164.483 -4.51045 -0.967256 0
M  V30 1769 H 162.726 -4.25558 -0.841615 0
M  V30 1770 H 163.397 -5.02609 -2.28229 0
M  V30 1771 H 165.873 -3.14944 -2.71937 0
M  V30 1772 H 164.749 -3.85072 -3.91166 0
M  V30 1773 H 165.01 -2.11391 -3.88287 0
M  V30 1774 N 164.069 0.697108 -1.41344 0
M  V30 1775 C 165.346 1.45154 -1.31109 0
M  V30 1776 C 165.726 2.11009 0.0620449 0
M  V30 1777 O 165.074 2.01571 1.07618 0
M  V30 1778 C 165.284 2.47223 -2.46337 0
M  V30 1779 C 166.632 3.1252 -2.87431 0
M  V30 1780 O 167.656 2.57547 -2.46065 0
M  V30 1781 O 166.515 4.12083 -3.58957 0
M  V30 1782 H 163.609 0.646365 -0.515889 0
M  V30 1783 H 166.155 0.727716 -1.53305 0
M  V30 1784 H 164.927 1.97204 -3.37974 0
M  V30 1785 H 164.55 3.27116 -2.2601 0
M  V30 1786 N 165.547 1.27147 0.931209 0
M  V30 1787 C 166.777 1.15914 1.71019 0
M  V30 1788 C 167.185 -0.287112 1.87009 0
M  V30 1789 O 166.528 -1.20761 1.38429 0
M  V30 1790 C 166.59 1.76647 3.13107 0
M  V30 1791 C 166.254 3.25807 3.20467 0
M  V30 1792 C 167.251 4.22489 3.02983 0
M  V30 1793 C 164.936 3.66452 3.43538 0
M  V30 1794 C 166.93 5.57794 3.08454 0
M  V30 1795 C 164.617 5.01888 3.48643 0
M  V30 1796 C 165.615 5.97369 3.31119 0
M  V30 1797 O 165.303 7.30337 3.35952 0
M  V30 1798 H 165.035 0.404062 0.54195 0
M  V30 1799 H 167.589 1.68457 1.17521 0
M  V30 1800 H 165.819 1.18578 3.68071 0
M  V30 1801 H 167.508 1.60179 3.72958 0
M  V30 1802 H 168.274 3.92425 2.85004 0
M  V30 1803 H 164.153 2.92611 3.5623 0
M  V30 1804 H 167.697 6.32298 2.94694 0
M  V30 1805 H 163.594 5.31609 3.66145 0
M  V30 1806 H 164.362 7.38739 3.5243 0
M  V30 1807 N 167.025 -1.13721 1.09112 0
M  V30 1808 C 168.441 -1.36914 0.820174 0
M  V30 1809 C 168.641 -1.93356 -0.567079 0
M  V30 1810 O 167.697 -2.15093 -1.32255 0
M  V30 1811 C 169.01 -2.3235 1.90877 0
M  V30 1812 C 170.558 -2.45973 1.93562 0
M  V30 1813 C 171.033 -3.44714 3.01556 0
M  V30 1814 N 172.524 -3.52263 3.00775 0
M  V30 1815 C 173.259 -4.28536 3.80978 0
M  V30 1816 N 172.755 -5.07991 4.71081 0
M  V30 1817 N 174.548 -4.23804 3.69251 0
M  V30 1818 H 166.699 -0.754348 1.98553 0
M  V30 1819 H 168.962 -0.3944 0.862063 0
M  V30 1820 H 168.668 -1.98027 2.90651 0
M  V30 1821 H 168.542 -3.32332 1.78424 0
M  V30 1822 H 170.929 -2.79584 0.944286 0
M  V30 1823 H 171.01 -1.45926 2.10093 0
M  V30 1824 H 170.654 -3.11835 4.00901 0
M  V30 1825 H 170.584 -4.44558 2.82269 0
M  V30 1826 H 173.075 -2.95567 2.35475 0
M  V30 1827 H 173.388 -5.63487 5.28869 0
M  V30 1828 H 171.733 -5.07235 4.75119 0
M  V30 1829 H 174.924 -3.60806 2.98222 0
M  V30 1830 H 175.097 -4.82995 4.31995 0
M  V30 1831 N 168.503 -0.877838 -1.30888 0
M  V30 1832 C 169.433 -0.35534 -2.3078 0
M  V30 1833 C 170.414 0.557994 -1.60687 0
M  V30 1834 O 171.599 0.473355 -1.88343 0
M  V30 1835 C 168.729 0.437221 -3.44537 0
M  V30 1836 C 167.683 -0.383715 -4.26276 0
M  V30 1837 C 167.009 0.535014 -5.32017 0
M  V30 1838 C 168.309 -1.62201 -4.96476 0
M  V30 1839 H 170.003 -1.19007 -2.74732 0
M  V30 1840 H 167.549 -0.573698 -1.32078 0
M  V30 1841 H 169.502 0.813334 -4.13477 0
M  V30 1842 H 168.226 1.30553 -2.99372 0
M  V30 1843 H 166.885 -0.741874 -3.59015 0
M  V30 1844 H 166.533 1.40083 -4.831 0
M  V30 1845 H 166.233 -0.0104211 -5.87599 0
M  V30 1846 H 167.757 0.907799 -6.03814 0
M  V30 1847 H 169.171 -1.31689 -5.5797 0
M  V30 1848 H 167.568 -2.10711 -5.61891 0
M  V30 1849 H 168.638 -2.37044 -4.23011 0
M  V30 1850 N 169.982 1.44106 -0.638065 0
M  V30 1851 C 170.945 2.29138 0.0531013 0
M  V30 1852 C 171.945 1.41409 0.765506 0
M  V30 1853 O 173.135 1.63206 0.609046 0
M  V30 1854 C 170.267 3.23144 1.08584 0
M  V30 1855 H 171.46 2.91739 -0.694883 0
M  V30 1856 H 169.013 1.51134 -0.398538 0
M  V30 1857 H 169.748 2.65408 1.86357 0
M  V30 1858 H 169.533 3.87804 0.578852 0
M  V30 1859 H 171.023 3.87004 1.56899 0
M  V30 1860 N 171.46 0.379036 1.52974 0
M  V30 1861 C 172.871 -0.0972525 1.86447 0
M  V30 1862 C 173.222 -1.47027 1.29914 0
M  V30 1863 O 172.347 -2.07135 0.626433 0
M  V30 1864 C 172.942 -0.183248 3.38304 0
M  V30 1865 C 171.501 -0.603812 3.71525 0
M  V30 1866 C 170.648 0.240632 2.76254 0
M  V30 1867 H 173.599 0.597316 1.4703 0
M  V30 1868 H 173.62 -1.00432 3.67006 0
M  V30 1869 H 173.132 0.816191 3.79421 0
M  V30 1870 H 171.233 -1.61099 3.35973 0
M  V30 1871 H 171.346 -0.369086 4.77676 0
M  V30 1872 H 169.71 -0.292548 2.53014 0
M  V30 1873 H 170.493 1.23786 3.20206 0
M  V30 1874 N 172.938 -1.57226 0.108567 0
M  V30 1875 C 173.848 -2.18292 -0.859401 0
M  V30 1876 C 174.864 -1.15612 -1.30038 0
M  V30 1877 O 176.04 -1.48039 -1.36552 0
M  V30 1878 C 173.105 -2.762 -2.09558 0
M  V30 1879 C 172.166 -3.93881 -1.70752 0
M  V30 1880 C 171.399 -4.49018 -2.88477 0
M  V30 1881 O 171.622 -4.03068 -4.036 0
M  V30 1882 O 170.556 -5.39852 -2.66164 0
M  V30 1883 H 174.382 -3.01441 -0.369769 0
M  V30 1884 H 171.967 -1.48945 -0.1165 0
M  V30 1885 H 173.849 -3.13156 -2.81978 0
M  V30 1886 H 172.524 -1.96089 -2.57548 0
M  V30 1887 H 171.431 -3.61713 -0.954714 0
M  V30 1888 H 172.764 -4.75396 -1.27513 0
M  V30 1889 N 174.416 0.165178 -1.56732 0
M  V30 1890 C 175.366 1.20917 -1.93295 0
M  V30 1891 C 176.35 1.39488 -0.801985 0
M  V30 1892 O 177.542 1.41356 -1.06525 0
M  V30 1893 C 174.671 2.54718 -2.3016 0
M  V30 1894 C 173.757 2.39815 -3.49785 0
M  V30 1895 N 174.148 1.94637 -4.66851 0
M  V30 1896 C 172.446 2.70623 -3.54513 0
M  V30 1897 C 173.147 1.92344 -5.4898 0
M  V30 1898 N 172.123 2.34978 -4.9019 0
M  V30 1899 H 175.925 0.851675 -2.81289 0
M  V30 1900 H 173.439 0.373399 -1.58049 0
M  V30 1901 H 175.436 3.30165 -2.54552 0
M  V30 1902 H 174.096 2.91265 -1.43508 0
M  V30 1903 H 175.107 1.6488 -4.90953 0
M  V30 1904 H 171.784 3.11167 -2.78354 0
M  V30 1905 H 173.174 1.5906 -6.52801 0
M  V30 1906 N 175.894 1.51508 0.433938 0
M  V30 1907 C 176.841 1.73068 1.52696 0
M  V30 1908 C 177.811 0.572441 1.55924 0
M  V30 1909 O 178.996 0.807253 1.72882 0
M  V30 1910 C 176.136 1.86474 2.90381 0
M  V30 1911 C 175.249 3.14037 2.96656 0
M  V30 1912 C 174.384 3.18019 4.25485 0
M  V30 1913 C 173.423 4.39882 4.2564 0
M  V30 1914 N 172.56 4.41394 5.45999 0
M  V30 1915 H 177.4 2.66366 1.33615 0
M  V30 1916 H 174.937 1.32008 0.649018 0
M  V30 1917 H 176.895 1.92229 3.70275 0
M  V30 1918 H 175.525 0.965809 3.08013 0
M  V30 1919 H 174.577 3.17575 2.09404 0
M  V30 1920 H 175.889 4.0394 2.92633 0
M  V30 1921 H 175.043 3.22708 5.13755 0
M  V30 1922 H 173.782 2.2601 4.3217 0
M  V30 1923 H 172.787 4.35366 3.35763 0
M  V30 1924 H 174.012 5.33159 4.20617 0
M  V30 1925 H 171.958 3.52258 5.53399 0
M  V30 1926 H 171.875 5.25111 5.4387 0
M  V30 1927 H 173.143 4.50281 6.36292 0
M  V30 1928 N 177.372 -0.689602 1.41712 0
M  V30 1929 C 178.619 -1.44966 1.4139 0
M  V30 1930 C 178.947 -1.94484 0.025105 0
M  V30 1931 O 178.202 -1.70307 -0.964048 0
M  V30 1932 C 178.501 -2.67298 2.37247 0
M  V30 1933 C 178.167 -2.36405 3.83958 0
M  V30 1934 C 176.829 -2.27691 4.23923 0
M  V30 1935 C 179.181 -2.11043 4.76561 0
M  V30 1936 C 176.509 -1.91719 5.54492 0
M  V30 1937 C 178.861 -1.76578 6.07456 0
M  V30 1938 C 177.525 -1.66363 6.46436 0
M  V30 1939 H 176.795 -0.53047 0.517381 0
M  V30 1940 H 179.442 -0.787655 1.74552 0
M  V30 1941 H 177.747 -3.38461 1.9736 0
M  V30 1942 H 179.444 -3.25452 2.34269 0
M  V30 1943 H 176.034 -2.44085 3.52308 0
M  V30 1944 H 180.218 -2.16717 4.46483 0
M  V30 1945 H 175.474 -1.82367 5.83568 0
M  V30 1946 H 179.648 -1.55974 6.78708 0
M  V30 1947 H 177.275 -1.38258 7.47522 0
M  V30 1948 N 178.85 -1.27639 -0.924453 0
M  V30 1949 C 180.261 -1.12834 -1.48746 0
M  V30 1950 C 180.612 0.285505 -1.94112 0
M  V30 1951 O 179.737 1.17874 -1.81479 0
M  V30 1952 C 180.332 -2.04217 -2.70334 0
M  V30 1953 C 178.891 -1.93509 -3.22848 0
M  V30 1954 C 178.038 -1.96583 -1.95577 0
M  V30 1955 H 180.989 -1.40484 -0.738233 0
M  V30 1956 H 181.01 -1.59989 -3.4523 0
M  V30 1957 H 180.522 -3.07111 -2.37285 0
M  V30 1958 H 178.623 -0.936131 -3.60649 0
M  V30 1959 H 178.736 -2.79917 -3.88823 0
M  V30 1960 H 177.1 -1.4085 -2.12211 0
M  V30 1961 H 177.883 -3.01137 -1.64837 0
M  V30 1962 N 180.328 1.1314 -1.09713 0
M  V30 1963 C 181.291 2.16831 -0.742751 0
M  V30 1964 C 182.291 1.59159 0.229129 0
M  V30 1965 O 183.481 1.74199 0.00693237 0
M  V30 1966 C 180.613 3.40756 -0.0989168 0
M  V30 1967 H 181.806 2.49695 -1.66109 0
M  V30 1968 H 179.359 1.2802 -0.896699 0
M  V30 1969 H 180.094 3.13485 0.830514 0
M  V30 1970 H 179.879 3.83888 -0.798265 0
M  V30 1971 H 181.369 4.17386 0.133524 0
M  V30 1972 N 181.806 0.884767 1.30421 0
M  V30 1973 C 182.769 0.356277 2.26414 0
M  V30 1974 C 183.769 -0.501124 1.52792 0
M  V30 1975 O 184.959 -0.30831 1.7145 0
M  V30 1976 C 182.091 -0.492316 3.37326 0
M  V30 1977 H 183.284 1.20389 2.74675 0
M  V30 1978 H 180.837 0.661607 1.41607 0
M  V30 1979 H 181.572 -1.36052 2.94381 0
M  V30 1980 H 181.357 0.121832 3.91911 0
M  V30 1981 H 182.847 -0.853871 4.08777 0
M  V30 1982 N 183.284 -1.43765 0.645699 0
M  V30 1983 C 184.53 -2.02197 0.156271 0
M  V30 1984 C 184.863 -1.50776 -1.22393 0
M  V30 1985 O 184.138 -0.697771 -1.81553 0
M  V30 1986 C 184.421 -3.59749 0.158872 0
M  V30 1987 C 184.274 -4.21419 1.57245 0
M  V30 1988 C 185.593 -4.37149 -0.50879 0
M  V30 1989 H 182.712 -0.734694 0.0582602 0
M  V30 1990 H 185.354 -1.71157 0.824951 0
M  V30 1991 H 183.504 -3.86325 -0.410525 0
M  V30 1992 H 185.176 -4.059 2.19186 0
M  V30 1993 H 183.419 -3.78356 2.122 0
M  V30 1994 H 184.09 -5.30482 1.52619 0
M  V30 1995 H 186.566 -4.16093 -0.024412 0
M  V30 1996 H 185.442 -5.4683 -0.476213 0
M  V30 1997 H 185.703 -4.12839 -1.58165 0
M  V30 1998 N 184.763 -0.387143 -1.52771 0
M  V30 1999 C 185.673 0.456442 -2.30117 0
M  V30 2000 C 186.689 1.07342 -1.36944 0
M  V30 2001 O 187.865 1.07971 -1.70013 0
M  V30 2002 C 184.93 1.56957 -3.09136 0
M  V30 2003 C 183.991 0.977916 -4.18014 0
M  V30 2004 C 183.224 2.038 -4.93256 0
M  V30 2005 O 183.447 3.25271 -4.68567 0
M  V30 2006 O 182.381 1.6565 -5.78657 0
M  V30 2007 H 186.207 -0.17359 -3.03203 0
M  V30 2008 H 183.792 -0.150919 -1.48636 0
M  V30 2009 H 185.674 2.21628 -3.58412 0
M  V30 2010 H 184.349 2.18461 -2.38865 0
M  V30 2011 H 183.256 0.294525 -3.72939 0
M  V30 2012 H 184.589 0.407128 -4.90513 0
M  V30 2013 N 186.241 1.57166 -0.116904 0
M  V30 2014 C 187.518 1.86645 0.585049 0
M  V30 2015 C 187.898 1.0177 1.84949 0
M  V30 2016 O 187.246 0.0960379 2.28298 0
M  V30 2017 C 187.456 3.37736 0.879507 0
M  V30 2018 C 188.804 4.06289 1.23348 0
M  V30 2019 O 189.828 3.42743 0.969836 0
M  V30 2020 O 188.687 5.18455 1.7282 0
M  V30 2021 H 185.781 0.772593 0.295007 0
M  V30 2022 H 188.327 1.69025 -0.151249 0
M  V30 2023 H 187.099 3.91296 -0.0166136 0
M  V30 2024 H 186.722 3.6078 1.67103 0
M  V30 2025 N 187.719 -0.156864 1.56817 0
M  V30 2026 C 188.682 -1.17781 1.96622 0
M  V30 2027 C 189.682 -1.36401 0.851555 0
M  V30 2028 O 190.872 -1.33561 1.11836 0
M  V30 2029 C 188.004 -2.54008 2.27361 0
M  V30 2030 H 189.197 -0.836564 2.87996 0
M  V30 2031 H 186.75 -0.39985 1.51099 0
M  V30 2032 H 187.485 -2.9312 1.38748 0
M  V30 2033 H 187.27 -2.41856 3.08623 0
M  V30 2034 H 188.76 -3.27558 2.59029 0
M  V30 2035 N 189.197 -1.51736 -0.425897 0
M  V30 2036 C 190.427 -1.68549 -1.19476 0
M  V30 2037 C 190.835 -0.387288 -1.85194 0
M  V30 2038 O 190.178 0.645142 -1.71999 0
M  V30 2039 C 190.24 -2.75275 -2.31223 0
M  V30 2040 C 189.904 -4.17534 -1.8578 0
M  V30 2041 C 190.901 -5.01936 -1.35485 0
M  V30 2042 C 188.586 -4.6369 -1.93123 0
M  V30 2043 C 190.58 -6.30559 -0.931347 0
M  V30 2044 C 188.267 -5.92307 -1.50384 0
M  V30 2045 C 189.265 -6.75569 -1.00473 0
M  V30 2046 O 188.953 -8.0178 -0.583452 0
M  V30 2047 H 188.685 -0.568525 -0.365725 0
M  V30 2048 H 191.239 -1.98982 -0.509444 0
M  V30 2049 H 189.469 -2.40182 -3.03067 0
M  V30 2050 H 191.158 -2.80853 -2.93047 0
M  V30 2051 H 191.924 -4.67475 -1.29197 0
M  V30 2052 H 187.803 -3.98997 -2.30916 0
M  V30 2053 H 191.347 -6.95498 -0.541084 0
M  V30 2054 H 187.244 -6.2628 -1.56346 0
M  V30 2055 H 188.012 -8.1543 -0.708275 0
M  V30 2056 N 190.675 0.682077 -1.42076 0
M  V30 2057 C 191.952 1.43755 -1.32642 0
M  V30 2058 C 192.332 2.11063 0.0396611 0
M  V30 2059 O 191.68 2.02701 1.05474 0
M  V30 2060 C 191.89 2.44596 -2.48946 0
M  V30 2061 C 193.238 3.09454 -2.9073 0
M  V30 2062 O 194.262 2.54922 -2.48783 0
M  V30 2063 O 193.121 4.08253 -3.63307 0
M  V30 2064 H 190.215 0.640857 -0.522715 0
M  V30 2065 H 192.761 0.711415 -1.54068 0
M  V30 2066 H 191.533 1.93609 -3.40046 0
M  V30 2067 H 191.156 3.24701 -2.29467 0
M  V30 2068 N 192.153 1.28127 0.917671 0
M  V30 2069 C 193.116 1.11744 2.00115 0
M  V30 2070 C 194.116 0.0583052 1.60694 0
M  V30 2071 O 195.306 0.303755 1.71531 0
M  V30 2072 C 192.438 0.704862 3.33533 0
M  V30 2073 H 193.631 2.07966 2.16079 0
M  V30 2074 H 191.184 1.11058 1.09981 0
M  V30 2075 H 191.919 -0.258299 3.2327 0
M  V30 2076 H 191.704 1.4699 3.63505 0
M  V30 2077 H 193.194 0.612768 4.1308 0
M  V30 2078 N 193.631 -1.12557 1.10312 0
M  V30 2079 C 194.561 -2.20341 0.772798 0
M  V30 2080 C 195.542 -1.68198 -0.25365 0
M  V30 2081 O 196.727 -1.93831 -0.119699 0
M  V30 2082 C 193.857 -3.46709 0.202443 0
M  V30 2083 C 192.811 -4.11996 1.15943 0
M  V30 2084 C 192.137 -5.328 0.450345 0
M  V30 2085 C 193.437 -4.5828 2.50552 0
M  V30 2086 H 195.131 -2.48229 1.674 0
M  V30 2087 H 192.677 -1.19308 0.806326 0
M  V30 2088 H 194.63 -4.2138 -0.0407752 0
M  V30 2089 H 193.354 -3.18245 -0.734001 0
M  V30 2090 H 192.013 -3.39305 1.38808 0
M  V30 2091 H 191.661 -5.00602 -0.490531 0
M  V30 2092 H 191.361 -5.7743 1.08851 0
M  V30 2093 H 192.885 -6.10219 0.215642 0
M  V30 2094 H 194.299 -5.2433 2.31843 0
M  V30 2095 H 192.696 -5.13683 3.10242 0
M  V30 2096 H 193.766 -3.72329 3.10643 0
M  V30 2097 N 195.109 -0.891671 -1.2995 0
M  V30 2098 C 196.041 -0.320695 -2.26945 0
M  V30 2099 C 197.054 0.528497 -1.53983 0
M  V30 2100 O 198.243 0.346959 -1.75096 0
M  V30 2101 C 195.343 0.562066 -3.34207 0
M  V30 2102 C 194.516 -0.259576 -4.36629 0
M  V30 2103 C 193.575 0.554739 -5.23268 0
M  V30 2104 O 192.601 -0.0249311 -5.69195 0
M  V30 2105 N 193.803 1.8625 -5.4981 0
M  V30 2106 H 196.568 -1.15432 -2.76578 0
M  V30 2107 H 194.129 -0.755336 -1.432 0
M  V30 2108 H 196.121 1.11304 -3.89093 0
M  V30 2109 H 194.691 1.29637 -2.84452 0
M  V30 2110 H 193.911 -0.991986 -3.81514 0
M  V30 2111 H 195.199 -0.822564 -5.02107 0
M  V30 2112 H 194.597 2.35628 -5.14292 0
M  V30 2113 H 193.154 2.36078 -6.07545 0
M  V30 2114 N 196.587 1.43421 -0.653314 0
M  V30 2115 C 197.833 2.02641 -0.175593 0
M  V30 2116 C 198.188 1.5062 1.19713 0
M  V30 2117 O 197.481 0.689697 1.78756 0
M  V30 2118 C 197.675 3.57176 -0.126623 0
M  V30 2119 C 197.504 4.24191 -1.49306 0
M  V30 2120 C 196.274 4.60257 -2.08547 0
M  V30 2121 C 198.472 4.53193 -2.43148 0
M  V30 2122 N 196.454 5.12345 -3.38194 0
M  V30 2123 C 197.825 5.06601 -3.57429 0
M  V30 2124 C 199.88 4.35161 -2.41949 0
M  V30 2125 C 198.583 5.43875 -4.70736 0
M  V30 2126 C 200.609 4.73498 -3.54336 0
M  V30 2127 C 199.971 5.27039 -4.67343 0
M  V30 2128 H 196.07 0.77441 -0.108686 0
M  V30 2129 H 198.654 1.74596 -0.861638 0
M  V30 2130 H 196.825 3.84784 0.528766 0
M  V30 2131 H 198.557 4.03078 0.36198 0
M  V30 2132 H 195.312 4.45302 -1.61255 0
M  V30 2133 H 195.736 5.42842 -4.04538 0
M  V30 2134 H 200.378 3.9304 -1.55818 0
M  V30 2135 H 198.096 5.8494 -5.57558 0
M  V30 2136 H 201.682 4.61241 -3.5461 0
M  V30 2137 H 200.562 5.56153 -5.52868 0
M  V30 2138 N 198.065 0.39524 1.52563 0
M  V30 2139 C 199.314 -0.186321 2.00838 0
M  V30 2140 C 199.627 -1.47402 1.28577 0
M  V30 2141 O 200.833 -2.13599 1.67593 0
M  V30 2142 C 199.289 -0.382595 3.57861 0
M  V30 2143 C 198.897 0.892202 4.39026 0
M  V30 2144 C 200.641 -0.9202 4.14406 0
M  V30 2145 C 198.548 0.66388 5.87662 0
M  V30 2146 H 197.478 -0.0734041 0.750418 0
M  V30 2147 H 200.129 0.518552 1.76021 0
M  V30 2148 H 198.511 -1.14946 3.7895 0
M  V30 2149 H 199.685 1.66414 4.29701 0
M  V30 2150 H 198 1.35519 3.9373 0
M  V30 2151 H 200.597 -1.10683 5.23119 0
M  V30 2152 H 200.94 -1.89096 3.70875 0
M  V30 2153 H 201.473 -0.212751 3.97231 0
M  V30 2154 H 198.212 1.6058 6.35527 0
M  V30 2155 H 197.732 -0.0690193 5.9976 0
M  V30 2156 H 199.411 0.300699 6.46301 0
M  V30 2157 N 199.544 -1.57102 0.125237 0
M  V30 2158 C 200.507 -2.14471 -0.80838 0
M  V30 2159 C 201.507 -1.0811 -1.19033 0
M  V30 2160 O 202.697 -1.33856 -1.11482 0
M  V30 2161 C 199.829 -2.69005 -2.09402 0
M  V30 2162 H 201.022 -2.98297 -0.309696 0
M  V30 2163 H 198.575 -1.55807 -0.124051 0
M  V30 2164 H 199.31 -1.88785 -2.63687 0
M  V30 2165 H 199.095 -3.46799 -1.82957 0
M  V30 2166 H 200.585 -3.13278 -2.76128 0
M  V30 2167 N 201.022 0.148545 -1.56898 0
M  V30 2168 C 201.932 1.20293 -2.01412 0
M  V30 2169 C 202.948 1.47107 -0.929273 0
M  V30 2170 O 204.124 1.58807 -1.23863 0
M  V30 2171 C 201.189 2.51682 -2.38447 0
M  V30 2172 C 200.25 2.32529 -3.60872 0
M  V30 2173 C 199.483 3.57653 -3.96132 0
M  V30 2174 O 199.706 4.63771 -3.32073 0
M  V30 2175 O 198.64 3.50408 -4.89385 0
M  V30 2176 H 202.466 0.855025 -2.91416 0
M  V30 2177 H 200.051 0.357151 -1.45068 0
M  V30 2178 H 201.933 3.29147 -2.63135 0
M  V30 2179 H 200.608 2.86006 -1.51599 0
M  V30 2180 H 199.515 1.53019 -3.41373 0
M  V30 2181 H 200.848 2.03121 -4.48333 0
M  V30 2182 N 202.5 1.5196 0.417844 0
M  V30 2183 C 203.916 1.40569 0.755816 0
M  V30 2184 C 204.116 0.503316 1.95113 0
M  V30 2185 O 203.172 -0.0341925 2.52477 0
M  V30 2186 C 204.485 2.82947 1.01791 0
M  V30 2187 C 206.033 2.92231 1.12116 0
M  V30 2188 C 206.508 4.35559 1.41608 0
M  V30 2189 N 207.999 4.38753 1.48491 0
M  V30 2190 C 208.734 5.46705 1.7292 0
M  V30 2191 N 208.23 6.64788 1.95011 0
M  V30 2192 N 210.023 5.34209 1.74863 0
M  V30 2193 H 202.174 2.09168 -0.369098 0
M  V30 2194 H 204.437 0.942409 -0.102809 0
M  V30 2195 H 204.143 3.5106 0.212081 0
M  V30 2196 H 204.017 3.23462 1.94042 0
M  V30 2197 H 206.404 2.24304 1.9176 0
M  V30 2198 H 206.485 2.55185 0.177225 0
M  V30 2199 H 206.129 5.04042 0.624848 0
M  V30 2200 H 206.059 4.70133 2.37239 0
M  V30 2201 H 208.55 3.5363 1.33244 0
M  V30 2202 H 208.863 7.42845 2.13076 0
M  V30 2203 H 207.208 6.67869 1.92293 0
M  V30 2204 H 210.399 4.40937 1.57137 0
M  V30 2205 H 210.572 6.18415 1.93563 0
M  V30 2206 N 203.978 -0.674533 1.42435 0
M  V30 2207 C 204.941 -1.76986 1.45632 0
M  V30 2208 C 205.941 -1.5708 0.343871 0
M  V30 2209 O 207.131 -1.63367 0.604709 0
M  V30 2210 C 204.263 -3.15623 1.28822 0
M  V30 2211 H 205.456 -1.75539 2.43158 0
M  V30 2212 H 203.009 -0.884189 1.28887 0
M  V30 2213 H 203.744 -3.22696 0.322193 0
M  V30 2214 H 203.529 -3.31475 2.09444 0
M  V30 2215 H 205.019 -3.95537 1.33942 0
M  V30 2216 N 205.456 -1.28612 -0.910864 0
M  V30 2217 C 206.419 -1.12803 -1.9952 0
M  V30 2218 C 207.419 -0.0668264 -1.60661 0
M  V30 2219 O 208.609 -0.312847 -1.71368 0
M  V30 2220 C 205.741 -0.72254 -3.33155 0
M  V30 2221 H 206.934 -2.09109 -2.14973 0
M  V30 2222 H 204.487 -1.11639 -1.09391 0
M  V30 2223 H 205.222 0.241152 -3.23402 0
M  V30 2224 H 205.007 -1.48916 -3.62721 0
M  V30 2225 H 206.497 -0.634666 -4.12749 0
M  V30 2226 N 206.934 1.1197 -1.10907 0
M  V30 2227 C 208.211 1.79959 -0.766432 0
M  V30 2228 C 208.591 1.97466 0.746363 0
M  V30 2229 O 207.939 1.55491 1.67436 0
M  V30 2230 C 208.149 3.14009 -1.52314 0
M  V30 2231 C 209.497 3.89134 -1.69883 0
M  V30 2232 O 210.521 3.2368 -1.48692 0
M  V30 2233 O 209.38 5.06572 -2.05054 0
M  V30 2234 H 206.474 0.779208 -0.277062 0
M  V30 2235 H 209.02 1.18762 -1.21217 0
M  V30 2236 H 207.792 2.96587 -2.55249 0
M  V30 2237 H 207.415 3.82915 -1.07059 0
M  V30 2238 N 208.412 0.89855 1.29475 0
M  V30 2239 C 209.659 0.523882 1.95606 0
M  V30 2240 C 209.987 -0.929608 1.70847 0
M  V30 2241 O 209.242 -1.67401 1.01367 0
M  V30 2242 C 209.541 0.761398 3.49195 0
M  V30 2243 C 209.207 2.19207 3.94029 0
M  V30 2244 C 207.869 2.58326 4.05982 0
M  V30 2245 C 210.221 3.12379 4.17216 0
M  V30 2246 C 207.549 3.898 4.38489 0
M  V30 2247 C 209.901 4.43401 4.51197 0
M  V30 2248 C 208.565 4.82394 4.61359 0
M  V30 2249 H 207.835 0.191702 0.715773 0
M  V30 2250 H 210.482 1.13699 1.54094 0
M  V30 2251 H 208.787 0.0653622 3.91745 0
M  V30 2252 H 210.484 0.450904 3.98457 0
M  V30 2253 H 207.074 1.87846 3.85242 0
M  V30 2254 H 211.258 2.83371 4.07449 0
M  V30 2255 H 206.514 4.19734 4.44559 0
M  V30 2256 H 210.688 5.15623 4.68087 0
M  V30 2257 H 208.315 5.84306 4.86303 0
M  V30 2258 N 209.89 -1.43072 0.660911 0
M  V30 2259 C 210.84 -2.27948 -0.04847 0
M  V30 2260 C 211.824 -1.40325 -0.787246 0
M  V30 2261 O 213.016 -1.63893 -0.668446 0
M  V30 2262 C 210.145 -3.28143 -1.00881 0
M  V30 2263 C 209.231 -4.23252 -0.268108 0
M  V30 2264 N 209.622 -5.00656 0.719528 0
M  V30 2265 C 207.92 -4.43092 -0.508493 0
M  V30 2266 C 208.621 -5.70019 1.15988 0
M  V30 2267 N 207.597 -5.41364 0.492584 0
M  V30 2268 H 211.399 -2.85213 0.709279 0
M  V30 2269 H 208.913 -1.54869 0.488822 0
M  V30 2270 H 210.91 -3.87736 -1.53188 0
M  V30 2271 H 209.57 -2.7244 -1.76654 0
M  V30 2272 H 210.581 -5.06115 1.09855 0
M  V30 2273 H 207.258 -3.98449 -1.24679 0
M  V30 2274 H 208.648 -6.4214 1.97751 0
M  V30 2275 N 211.368 -0.403325 -1.52352 0
M  V30 2276 C 212.298 0.416205 -2.29761 0
M  V30 2277 C 213.279 1.05123 -1.33728 0
M  V30 2278 O 214.464 1.06134 -1.62632 0
M  V30 2279 C 211.594 1.53624 -3.11475 0
M  V30 2280 C 210.548 1.02653 -4.15507 0
M  V30 2281 C 209.874 2.23971 -4.85532 0
M  V30 2282 C 211.174 0.08463 -5.22231 0
M  V30 2283 H 212.868 -0.229701 -2.98518 0
M  V30 2284 H 210.414 -0.111913 -1.43564 0
M  V30 2285 H 212.367 2.1165 -3.64393 0
M  V30 2286 H 211.091 2.20994 -2.40477 0
M  V30 2287 H 209.75 0.46871 -3.63591 0
M  V30 2288 H 209.398 2.89883 -4.11068 0
M  V30 2289 H 209.098 1.90521 -5.55856 0
M  V30 2290 H 210.622 2.82614 -5.41259 0
M  V30 2291 H 212.036 0.573509 -5.70424 0
M  V30 2292 H 210.433 -0.160783 -5.99885 0
M  V30 2293 H 211.503 -0.86237 -4.7717 0
M  V30 2294 N 212.846 1.57033 -0.133567 0
M  V30 2295 C 214.123 1.87256 0.56522 0
M  V30 2296 C 214.503 1.03726 1.83859 0
M  V30 2297 O 213.851 0.120247 2.28183 0
M  V30 2298 C 214.061 3.3865 0.843636 0
M  V30 2299 C 215.409 4.07574 1.19032 0
M  V30 2300 O 216.433 3.43752 0.933429 0
M  V30 2301 O 215.292 5.20259 1.67312 0
M  V30 2302 H 212.386 0.775678 0.286796 0
M  V30 2303 H 214.932 1.68855 -0.169168 0
M  V30 2304 H 213.704 3.91257 -0.0581149 0
M  V30 2305 H 213.327 3.62532 1.63268 0
M  V30 2306 N 214.325 -0.140222 1.56975 0
M  V30 2307 C 215.736 -0.699596 1.73097 0
M  V30 2308 C 216.087 -1.8134 0.749022 0
M  V30 2309 O 215.212 -2.16241 -0.0828503 0
M  V30 2310 C 215.807 -1.27582 3.1386 0
M  V30 2311 C 214.366 -1.78169 3.31561 0
M  V30 2312 C 213.513 -0.672855 2.69013 0
M  V30 2313 H 216.464 0.0855115 1.58469 0
M  V30 2314 H 216.485 -2.14561 3.14235 0
M  V30 2315 H 215.997 -0.464955 3.85305 0
M  V30 2316 H 214.098 -2.61801 2.65124 0
M  V30 2317 H 214.211 -1.90574 4.39566 0
M  V30 2318 H 212.575 -1.10118 2.29665 0
M  V30 2319 H 213.358 0.126679 3.43066 0
M  V30 2320 N 215.803 -1.52179 -0.40978 0
M  V30 2321 C 216.766 -1.74853 -1.48186 0
M  V30 2322 C 217.766 -0.618417 -1.48433 0
M  V30 2323 O 218.956 -0.886286 -1.49969 0
M  V30 2324 C 216.088 -1.8303 -2.87598 0
M  V30 2325 H 217.281 -2.70559 -1.29374 0
M  V30 2326 H 214.834 -1.42586 -0.640233 0
M  V30 2327 H 215.569 -0.89236 -3.11781 0
M  V30 2328 H 215.354 -2.65187 -2.88822 0
M  V30 2329 H 216.844 -2.02316 -3.65319 0
M  V30 2330 N 217.281 0.66697 -1.42791 0
M  V30 2331 C 218.697 0.981027 -1.25889 0
M  V30 2332 C 218.897 2.00793 -0.168695 0
M  V30 2333 O 217.953 2.48321 0.45747 0
M  V30 2334 C 219.266 1.47838 -2.61848 0
M  V30 2335 C 220.814 1.59575 -2.69267 0
M  V30 2336 C 221.289 2.12704 -4.05612 0
M  V30 2337 N 222.78 2.20026 -4.07606 0
M  V30 2338 C 223.515 2.62227 -5.09926 0
M  V30 2339 N 223.011 3.03824 -6.22626 0
M  V30 2340 N 224.804 2.62045 -4.97281 0
M  V30 2341 H 216.955 -0.0127891 -2.12396 0
M  V30 2342 H 219.218 0.0568258 -0.946295 0
M  V30 2343 H 218.924 0.798299 -3.4252 0
M  V30 2344 H 218.798 2.45579 -2.86305 0
M  V30 2345 H 221.185 2.26687 -1.88936 0
M  V30 2346 H 221.266 0.60302 -2.48591 0
M  V30 2347 H 220.91 1.46198 -4.86404 0
M  V30 2348 H 220.84 3.12782 -4.23645 0
M  V30 2349 H 223.331 1.90708 -3.2625 0
M  V30 2350 H 223.644 3.34734 -6.96544 0
M  V30 2351 H 221.989 3.01662 -6.26119 0
M  V30 2352 H 225.18 2.28916 -4.08308 0
M  V30 2353 H 225.353 2.94613 -5.77154 0
M  V30 2354 N 218.759 1.29093 0.90403 0
M  V30 2355 C 220.008 1.16187 1.64874 0
M  V30 2356 C 220.321 -0.286742 1.93487 0
M  V30 2357 O 221.527 -0.537062 2.66135 0
M  V30 2358 C 219.983 2.03177 2.97064 0
M  V30 2359 C 219.591 3.52836 2.76062 0
M  V30 2360 C 221.335 1.98984 3.74974 0
M  V30 2361 C 219.242 4.31945 4.03952 0
M  V30 2362 H 218.172 0.431246 0.618501 0
M  V30 2363 H 220.823 1.53699 1.00243 0
M  V30 2364 H 219.205 1.5853 3.62883 0
M  V30 2365 H 220.379 4.05507 2.18863 0
M  V30 2366 H 218.694 3.58656 2.11553 0
M  V30 2367 H 221.291 2.55351 4.69787 0
M  V30 2368 H 221.634 0.968815 4.0487 0
M  V30 2369 H 222.167 2.41652 3.15989 0
M  V30 2370 H 218.906 5.34667 3.79225 0
M  V30 2371 H 218.426 3.84045 4.60727 0
M  V30 2372 H 220.105 4.42379 4.72133 0
M  V30 2373 N 220.237 -1.11381 1.11499 0
M  V30 2374 C 221.2 -2.15622 0.777153 0
M  V30 2375 C 222.2 -1.59504 -0.203779 0
M  V30 2376 O 223.39 -1.74188 0.020782 0
M  V30 2377 C 220.522 -3.40556 0.153116 0
M  V30 2378 H 221.715 -2.47021 1.70061 0
M  V30 2379 H 219.268 -1.26577 0.916952 0
M  V30 2380 H 220.003 -3.14767 -0.780536 0
M  V30 2381 H 219.788 -3.8257 0.859238 0
M  V30 2382 H 221.278 -4.17546 -0.0671044 0
M  V30 2383 N 221.715 -0.905404 -1.28997 0
M  V30 2384 C 222.961 -0.535039 -1.95615 0
M  V30 2385 C 223.294 0.917404 -1.71165 0
M  V30 2386 O 222.569 1.65123 -1.02785 0
M  V30 2387 C 222.852 -0.834918 -3.50287 0
M  V30 2388 C 222.705 -2.33948 -3.84172 0
M  V30 2389 C 224.024 -0.325318 -4.38896 0
M  V30 2390 H 221.143 -0.195861 -0.710498 0
M  V30 2391 H 223.785 -1.13313 -1.52513 0
M  V30 2392 H 221.935 -0.325904 -3.87131 0
M  V30 2393 H 223.607 -2.91847 -3.57243 0
M  V30 2394 H 221.85 -2.79789 -3.31513 0
M  V30 2395 H 222.521 -2.49987 -4.92149 0
M  V30 2396 H 224.997 -0.761256 -4.09077 0
M  V30 2397 H 223.873 -0.564295 -5.45992 0
M  V30 2398 H 224.134 0.774144 -4.35269 0
M  V30 2399 N 223.193 1.4272 -0.668489 0
M  V30 2400 C 224.441 2.01226 -0.187769 0
M  V30 2401 C 224.762 1.53092 1.2078 0
M  V30 2402 O 224.032 0.74993 1.80977 0
M  V30 2403 H 222.612 0.744041 -0.0664272 0
M  V30 2404 H 225.274 1.74723 -0.863583 0
M  V30 2405 H 224.37 3.11556 -0.184166 0
M  V30 2406 N 224.671 0.411399 1.52136 0
M  V30 2407 C 225.919 -0.163322 2.01439 0
M  V30 2408 C 226.24 -1.45453 1.29879 0
M  V30 2409 O 225.51 -1.91225 0.4254 0
M  V30 2410 H 224.09 -0.0633447 0.744309 0
M  V30 2411 H 226.752 0.548161 1.87033 0
M  V30 2412 H 225.848 -0.357817 3.10042 0
M  V30 2413 N 226.149 -1.5696 0.141893 0
M  V30 2414 C 227.426 -1.87553 -0.555281 0
M  V30 2415 C 227.806 -1.04699 -1.83306 0
M  V30 2416 O 227.154 -0.132346 -2.28116 0
M  V30 2417 C 227.364 -3.39093 -0.825664 0
M  V30 2418 C 228.712 -4.08199 -1.16869 0
M  V30 2419 O 229.736 -3.44242 -0.915185 0
M  V30 2420 O 228.595 -5.21139 -1.6455 0
M  V30 2421 H 225.689 -0.777188 -0.282679 0
M  V30 2422 H 228.235 -1.68763 0.17812 0
M  V30 2423 H 227.007 -3.91221 0.0788633 0
M  V30 2424 H 226.63 -3.63393 -1.61343 0
M  V30 2425 N 227.627 0.131896 -1.57047 0
M  V30 2426 C 228.852 0.860418 -1.8871 0
M  V30 2427 C 229.277 1.73251 -0.73251 0
M  V30 2428 O 228.635 1.785 0.317429 0
M  V30 2429 C 228.683 1.68047 -3.19049 0
M  V30 2430 O 227.787 2.7862 -3.04047 0
M  V30 2431 H 227.128 0.238743 -0.619595 0
M  V30 2432 H 229.658 0.118169 -2.04258 0
M  V30 2433 H 229.668 2.07238 -3.51449 0
M  V30 2434 H 228.343 1.04018 -4.02682 0
M  V30 2435 H 226.92 2.42726 -2.83088 0
M  V30 2436 N 229.106 1.52395 0.401703 0
M  V30 2437 C 230.069 1.75636 1.47257 0
M  V30 2438 C 231.069 0.62628 1.48103 0
M  V30 2439 O 232.259 0.894227 1.49497 0
M  V30 2440 C 229.391 1.84553 2.86624 0
M  V30 2441 H 230.584 2.71241 1.27938 0
M  V30 2442 H 228.137 1.42923 0.632662 0
M  V30 2443 H 228.872 0.908882 3.11303 0
M  V30 2444 H 228.657 2.66715 2.87412 0
M  V30 2445 H 230.147 2.04251 3.64241 0
M  V30 2446 N 230.584 -0.659388 1.43143 0
M  V30 2447 C 231.832 -1.41654 1.44147 0
M  V30 2448 C 232.153 -1.94893 0.0645739 0
M  V30 2449 O 231.423 -1.74044 -0.899198 0
M  V30 2450 H 230.003 -0.525708 0.530697 0
M  V30 2451 H 232.665 -0.778097 1.78694 0
M  V30 2452 H 231.761 -2.26195 2.1504 0
M  V30 2453 N 232.062 -1.29571 -0.897171 0
M  V30 2454 C 233.31 -1.17456 -1.64464 0
M  V30 2455 C 233.631 0.273698 -1.9307 0
M  V30 2456 O 232.901 1.18684 -1.55855 0
M  V30 2457 H 231.481 -0.431706 -0.609622 0
M  V30 2458 H 234.143 -1.62531 -1.07562 0
M  V30 2459 H 233.239 -1.72648 -2.59998 0
M  V30 2460 N 233.54 1.10788 -1.12088 0
M  V30 2461 C 234.488 2.19111 -0.780587 0
M  V30 2462 C 235.482 1.67818 0.230961 0
M  V30 2463 O 236.688 1.79777 0.0895427 0
M  V30 2464 H 233.063 0.714477 -0.234578 0
M  V30 2465 H 235.034 2.45055 -1.70266 0
M  V30 2466 C 233.783 3.46818 -0.24747 0
M  V30 2467 H 233.106 3.86646 -1.01712 0
M  V30 2468 H 234.546 4.23973 -0.0476291 0
M  V30 2469 C 233.005 3.20968 1.02378 0
M  V30 2470 O 233.535 3.42298 2.10226 0
M  V30 2471 N 231.741 2.74658 0.949271 0
M  V30 2472 H 231.288 2.57501 0.0715173 0
M  V30 2473 H 231.246 2.57739 1.80049 0
M  V30 2474 N 235.018 0.912232 1.28515 0
M  V30 2475 C 235.948 0.416403 2.29757 0
M  V30 2476 C 236.929 -0.515194 1.6211 0
M  V30 2477 O 238.114 -0.423253 1.89532 0
M  V30 2478 C 235.244 -0.34572 3.45575 0
M  V30 2479 C 234.198 0.496599 4.25109 0
M  V30 2480 C 233.524 -0.393771 5.33248 0
M  V30 2481 C 234.824 1.75307 4.92001 0
M  V30 2482 H 236.518 1.26249 2.7148 0
M  V30 2483 H 234.064 0.608515 1.30511 0
M  V30 2484 H 236.017 -0.703422 4.15488 0
M  V30 2485 H 234.741 -1.2257 3.02728 0
M  V30 2486 H 233.4 0.8368 3.56922 0
M  V30 2487 H 233.048 -1.27225 4.86644 0
M  V30 2488 H 232.748 0.166209 5.87365 0
M  V30 2489 H 234.272 -0.747389 6.06009 0
M  V30 2490 H 235.686 1.46437 5.54283 0
M  V30 2491 H 234.083 2.25534 5.56106 0
M  V30 2492 H 235.153 2.48176 4.16577 0
M  V30 2493 N 236.496 -1.42363 0.676048 0
M  V30 2494 C 237.459 -2.29199 0.00766941 0
M  V30 2495 C 238.459 -1.43389 -0.727745 0
M  V30 2496 O 239.649 -1.64764 -0.56556 0
M  V30 2497 C 236.781 -3.2591 -0.999785 0
M  V30 2498 H 237.974 -2.89794 0.771988 0
M  V30 2499 H 235.527 -1.50024 0.438468 0
M  V30 2500 H 236.262 -2.70256 -1.79255 0
M  V30 2501 H 236.047 -3.89202 -0.475829 0
M  V30 2502 H 237.537 -3.91028 -1.46583 0
M  V30 2503 N 237.974 -0.419461 -1.51915 0
M  V30 2504 C 238.937 0.389116 -2.25873 0
M  V30 2505 C 239.937 0.964924 -1.28631 0
M  V30 2506 O 241.127 0.842179 -1.52489 0
M  V30 2507 C 238.259 1.54874 -3.03689 0
M  V30 2508 H 239.452 -0.258799 -2.98781 0
M  V30 2509 H 237.005 -0.172209 -1.55348 0
M  V30 2510 H 237.74 2.23323 -2.35154 0
M  V30 2511 H 237.525 1.14223 -3.75094 0
M  V30 2512 H 239.015 2.12046 -3.59759 0
M  V30 2513 N 239.452 1.56882 -0.150215 0
M  V30 2514 C 240.698 1.96518 0.500834 0
M  V30 2515 C 241.031 1.03527 1.64304 0
M  V30 2516 O 240.306 0.0782751 1.94342 0
M  V30 2517 C 240.589 3.45822 1.00395 0
M  V30 2518 C 240.442 4.49591 -0.136983 0
M  V30 2519 C 241.761 3.97704 1.88467 0
M  V30 2520 H 238.88 0.714535 0.18058 0
M  V30 2521 H 241.522 1.88577 -0.232091 0
M  V30 2522 H 239.672 3.5272 1.62851 0
M  V30 2523 H 241.344 4.5477 -0.77343 0
M  V30 2524 H 239.587 4.26441 -0.795652 0
M  V30 2525 H 240.258 5.51402 0.256815 0
M  V30 2526 H 242.734 3.93304 1.35834 0
M  V30 2527 H 241.61 5.0263 2.20578 0
M  V30 2528 H 241.871 3.40252 2.82279 0
M  V30 2529 N 240.93 -0.123565 1.57115 0
M  V30 2530 C 242.158 -0.846461 1.88793 0
M  V30 2531 C 242.573 -1.73652 0.740976 0
M  V30 2532 O 241.93 -1.80207 -0.288393 0
M  V30 2533 C 241.981 -1.6837 3.19897 0
M  V30 2534 O 241.702 -0.829477 4.30176 0
M  V30 2535 C 243.203 -2.51214 3.65248 0
M  V30 2536 H 240.423 -0.243573 0.625231 0
M  V30 2537 H 242.967 -0.109324 2.04208 0
M  V30 2538 H 241.122 -2.37364 3.06165 0
M  V30 2539 H 241.536 -1.40651 5.0529 0
M  V30 2540 H 243.01 -3.05497 4.59756 0
M  V30 2541 H 243.487 -3.28359 2.9168 0
M  V30 2542 H 244.093 -1.8747 3.81752 0
M  V30 2543 N 242.408 -1.52605 -0.393616 0
M  V30 2544 C 243.633 -1.71592 -1.16495 0
M  V30 2545 C 244.058 -0.43133 -1.83088 0
M  V30 2546 O 243.416 0.612523 -1.7064 0
M  V30 2547 C 243.464 -2.86318 -2.19213 0
M  V30 2548 O 242.568 -2.52969 -3.257 0
M  V30 2549 H 241.909 -0.570734 -0.33935 0
M  V30 2550 H 244.439 -1.99377 -0.459324 0
M  V30 2551 H 244.449 -3.1168 -2.63286 0
M  V30 2552 H 243.124 -3.79511 -1.7013 0
M  V30 2553 H 241.701 -2.38332 -2.86797 0
M  V30 2554 N 243.887 0.651787 -1.4349 0
M  V30 2555 C 245.136 1.40754 -1.44469 0
M  V30 2556 C 245.449 1.95463 -0.0731845 0
M  V30 2557 O 246.655 2.71471 0.0395721 0
M  V30 2558 C 245.111 2.54735 -2.5424 0
M  V30 2559 C 244.719 2.06628 -3.97504 0
M  V30 2560 C 246.463 3.32092 -2.64414 0
M  V30 2561 C 244.37 3.17829 -4.98737 0
M  V30 2562 H 243.3 0.528862 -0.53742 0
M  V30 2563 H 245.951 0.703365 -1.69485 0
M  V30 2564 H 244.333 3.2763 -2.22428 0
M  V30 2565 H 245.507 1.40734 -4.38783 0
M  V30 2566 H 243.822 1.42146 -3.91387 0
M  V30 2567 H 246.419 4.14952 -3.37223 0
M  V30 2568 H 246.762 3.80217 -1.69532 0
M  V30 2569 H 247.295 2.66279 -2.95534 0
M  V30 2570 H 244.034 2.74671 -5.95177 0
M  V30 2571 H 243.554 3.82429 -4.62069 0
M  V30 2572 H 245.233 3.82937 -5.21505 0
M  V30 2573 N 245.365 1.30045 0.890287 0
M  V30 2574 C 246.295 1.18541 2.01172 0
M  V30 2575 C 247.276 0.0773356 1.69924 0
M  V30 2576 O 248.461 0.25845 1.92473 0
M  V30 2577 C 245.591 0.870941 3.36202 0
M  V30 2578 C 244.545 1.93637 3.81692 0
M  V30 2579 C 243.871 1.475 5.13953 0
M  V30 2580 C 245.171 3.34666 4.00994 0
M  V30 2581 H 246.865 2.12359 2.11054 0
M  V30 2582 H 244.411 1.02238 1.01407 0
M  V30 2583 H 246.364 0.777141 4.14172 0
M  V30 2584 H 245.088 -0.102926 3.26438 0
M  V30 2585 H 243.747 2.01972 3.05946 0
M  V30 2586 H 243.395 0.489551 5.00612 0
M  V30 2587 H 243.095 2.1876 5.4536 0
M  V30 2588 H 244.619 1.39489 5.94454 0
M  V30 2589 H 246.033 3.2912 4.69417 0
M  V30 2590 H 244.43 4.03966 4.43769 0
M  V30 2591 H 245.5 3.76949 3.05021 0
M  V30 2592 N 246.843 -1.10192 1.12674 0
M  V30 2593 C 247.806 -2.14786 0.799979 0
M  V30 2594 C 248.806 -1.59711 -0.18685 0
M  V30 2595 O 249.996 -1.74156 0.0392558 0
M  V30 2596 C 247.128 -3.40374 0.189228 0
M  V30 2597 H 248.321 -2.45203 1.72671 0
M  V30 2598 H 245.874 -1.25597 0.930326 0
M  V30 2599 H 246.609 -3.15577 -0.747107 0
M  V30 2600 H 246.394 -3.81637 0.899766 0
M  V30 2601 H 247.884 -4.17594 -0.0228143 0
M  V30 2602 N 248.321 -0.919034 -1.28029 0
M  V30 2603 C 249.268 -0.410005 -2.27129 0
M  V30 2604 C 250.238 0.518405 -1.57803 0
M  V30 2605 O 251.423 0.439451 -1.8567 0
M  V30 2606 C 248.563 0.339054 -3.4343 0
M  V30 2607 C 247.676 -0.622468 -4.27492 0
M  V30 2608 C 246.811 0.145567 -5.31001 0
M  V30 2609 C 245.85 -0.809226 -6.06727 0
M  V30 2610 N 244.987 -0.0743728 -7.02061 0
M  V30 2611 H 249.827 -1.26011 -2.70047 0
M  V30 2612 H 247.364 -0.632663 -1.328 0
M  V30 2613 H 249.322 0.789586 -4.0966 0
M  V30 2614 H 247.952 1.15346 -3.01488 0
M  V30 2615 H 247.004 -1.19153 -3.61257 0
M  V30 2616 H 248.316 -1.35252 -4.80113 0
M  V30 2617 H 247.47 0.656417 -6.03139 0
M  V30 2618 H 246.209 0.908643 -4.79161 0
M  V30 2619 H 245.214 -1.3314 -5.33436 0
M  V30 2620 H 246.439 -1.57194 -6.60656 0
M  V30 2621 H 244.385 0.670616 -6.52563 0
M  V30 2622 H 244.302 -0.744157 -7.52329 0
M  V30 2623 H 245.57 0.416109 -7.78389 0
M  V30 2624 N 249.799 1.42003 -0.683588 0
M  V30 2625 C 250.709 2.34597 -0.0109075 0
M  V30 2626 C 251.725 1.55576 0.779245 0
M  V30 2627 O 252.901 1.88107 0.719555 0
M  V30 2628 C 249.966 3.34199 0.922588 0
M  V30 2629 C 249.027 4.29115 0.125984 0
M  V30 2630 C 248.26 5.23959 1.01502 0
M  V30 2631 O 248.483 5.23952 2.25456 0
M  V30 2632 O 247.417 6.00053 0.47111 0
M  V30 2633 H 251.243 2.93675 -0.773853 0
M  V30 2634 H 248.828 1.42654 -0.443861 0
M  V30 2635 H 250.71 3.95365 1.45823 0
M  V30 2636 H 249.385 2.77582 1.66523 0
M  V30 2637 H 248.292 3.71335 -0.453969 0
M  V30 2638 H 249.625 4.88798 -0.577736 0
M  V30 2639 N 251.277 0.427512 1.51691 0
M  V30 2640 C 252.693 0.0792977 1.59403 0
M  V30 2641 C 252.893 -1.41035 1.43914 0
M  V30 2642 O 251.949 -2.17922 1.27539 0
M  V30 2643 C 253.262 0.590636 2.94842 0
M  V30 2644 C 254.81 0.550215 3.08126 0
M  V30 2645 C 255.285 1.03836 4.46074 0
M  V30 2646 N 256.776 0.995943 4.52366 0
M  V30 2647 C 257.511 1.34463 5.57411 0
M  V30 2648 N 257.007 1.76569 6.69922 0
M  V30 2649 N 258.8 1.26343 5.47717 0
M  V30 2650 H 250.951 1.39687 1.60004 0
M  V30 2651 H 253.214 0.575003 0.753708 0
M  V30 2652 H 252.92 1.63251 3.11516 0
M  V30 2653 H 252.794 0.0102061 3.77199 0
M  V30 2654 H 255.181 -0.482654 2.91126 0
M  V30 2655 H 255.262 1.16693 2.27632 0
M  V30 2656 H 254.906 2.06965 4.63819 0
M  V30 2657 H 254.836 0.398286 5.25092 0
M  V30 2658 H 257.327 0.68661 3.7161 0
M  V30 2659 H 257.64 2.01438 7.46085 0
M  V30 2660 H 255.985 1.80488 6.71155 0
M  V30 2661 H 259.176 0.933209 4.58703 0
M  V30 2662 H 259.349 1.53846 6.29472 0
M  V30 2663 N 252.755 -1.56801 0.158532 0
M  V30 2664 C 254.003 -1.96102 -0.488712 0
M  V30 2665 C 254.324 -1.04498 -1.64636 0
M  V30 2666 O 253.594 -0.108783 -1.95598 0
M  V30 2667 H 252.174 -0.724102 -0.183535 0
M  V30 2668 H 254.836 -1.93457 0.236728 0
M  V30 2669 H 253.932 -3.00097 -0.857219 0
M  V30 2670 N 254.233 0.115231 -1.57178 0
M  V30 2671 C 255.481 0.820727 -1.84685 0
M  V30 2672 C 255.802 1.80237 -0.744279 0
M  V30 2673 O 255.072 1.94529 0.231375 0
M  V30 2674 H 253.652 0.306084 -0.681411 0
M  V30 2675 H 256.314 0.101656 -1.94635 0
M  V30 2676 H 255.41 1.36366 -2.80733 0
M  V30 2677 N 255.711 1.52812 0.385517 0
M  V30 2678 C 257.122 1.5993 0.963293 0
M  V30 2679 C 257.473 0.454302 1.90868 0
M  V30 2680 O 256.598 -0.422132 2.12243 0
M  V30 2681 C 257.193 2.89871 1.75387 0
M  V30 2682 C 255.752 2.99389 2.28129 0
M  V30 2683 C 254.899 2.55071 1.08783 0
M  V30 2684 H 257.85 1.5784 0.164948 0
M  V30 2685 H 257.871 2.76553 2.61341 0
M  V30 2686 H 257.383 3.73186 1.06554 0
M  V30 2687 H 255.484 2.20619 3.00263 0
M  V30 2688 H 255.597 4.04096 2.57377 0
M  V30 2689 H 253.961 2.09473 1.4489 0
M  V30 2690 H 254.744 3.40785 0.414807 0
M  V30 2691 N 257.189 -0.644168 1.43834 0
M  V30 2692 C 258.152 -1.73857 1.49353 0
M  V30 2693 C 259.152 -1.56315 0.377112 0
M  V30 2694 O 260.342 -1.62048 0.639226 0
M  V30 2695 C 257.474 -3.12819 1.35488 0
M  V30 2696 H 258.667 -1.70342 2.46827 0
M  V30 2697 H 256.22 -0.856652 1.30733 0
M  V30 2698 H 256.955 -3.2194 0.390569 0
M  V30 2699 H 256.74 -3.26958 2.16428 0
M  V30 2700 H 258.23 -3.92606 1.42302 0
M  V30 2701 N 258.668 -1.30515 -0.883378 0
M  V30 2702 C 259.598 -1.19607 -2.00541 0
M  V30 2703 C 260.579 -0.086346 -1.69881 0
M  V30 2704 O 261.764 -0.268654 -1.92333 0
M  V30 2705 C 258.894 -0.888758 -3.35736 0
M  V30 2706 C 257.848 -1.95659 -3.8066 0
M  V30 2707 C 257.174 -1.50224 -5.13164 0
M  V30 2708 C 258.474 -3.36788 -3.99213 0
M  V30 2709 H 260.168 -2.13476 -2.09925 0
M  V30 2710 H 257.714 -1.02775 -1.00863 0
M  V30 2711 H 259.667 -0.799094 -4.13754 0
M  V30 2712 H 258.391 0.0856125 -3.26488 0
M  V30 2713 H 257.05 -2.03591 -3.04871 0
M  V30 2714 H 256.698 -0.516092 -5.00345 0
M  V30 2715 H 256.398 -2.2165 -5.44192 0
M  V30 2716 H 257.922 -1.42639 -5.93706 0
M  V30 2717 H 259.336 -3.31605 -4.67665 0
M  V30 2718 H 257.733 -4.06314 -4.41621 0
M  V30 2719 H 258.803 -3.78561 -3.03017 0
M  V30 2720 N 260.146 1.09593 -1.13257 0
M  V30 2721 C 261.109 2.14359 -0.811358 0
M  V30 2722 C 262.109 1.59808 0.178377 0
M  V30 2723 O 263.299 1.74132 -0.0484911 0
M  V30 2724 C 260.431 3.40269 -0.207276 0
M  V30 2725 H 261.624 2.44284 -1.73969 0
M  V30 2726 H 259.177 1.25102 -0.936973 0
M  V30 2727 H 259.912 3.15969 0.73036 0
M  V30 2728 H 259.697 3.81154 -0.919992 0
M  V30 2729 H 261.187 4.176 0.000667944 0
M  V30 2730 N 261.624 0.925811 1.2754 0
M  V30 2731 C 262.871 0.565255 1.94451 0
M  V30 2732 C 263.199 -0.89316 1.7278 0
M  V30 2733 O 262.454 -1.65213 1.04895 0
M  V30 2734 C 262.753 0.835296 3.47502 0
M  V30 2735 C 262.419 2.27515 3.89291 0
M  V30 2736 C 261.081 2.66879 4.00411 0
M  V30 2737 C 263.433 3.21158 4.10496 0
M  V30 2738 C 260.761 3.99014 4.30122 0
M  V30 2739 C 263.113 4.52871 4.4169 0
M  V30 2740 C 261.777 4.92072 4.51023 0
M  V30 2741 H 261.047 0.206841 0.711546 0
M  V30 2742 H 263.694 1.16942 1.51647 0
M  V30 2743 H 261.999 0.148442 3.91519 0
M  V30 2744 H 263.696 0.535322 3.97411 0
M  V30 2745 H 260.286 1.95976 3.81171 0
M  V30 2746 H 264.47 2.9195 4.01346 0
M  V30 2747 H 259.726 4.2907 4.35556 0
M  V30 2748 H 263.9 5.25436 4.57045 0
M  V30 2749 H 261.527 5.9449 4.738 0
M  V30 2750 N 263.102 -1.41638 0.69111 0
M  V30 2751 C 264.034 -2.29194 -0.0161523 0
M  V30 2752 C 265.047 -1.44549 -0.748955 0
M  V30 2753 O 266.236 -1.681 -0.6004 0
M  V30 2754 C 263.336 -3.22325 -1.0469 0
M  V30 2755 C 262.509 -4.35706 -0.384621 0
M  V30 2756 C 261.568 -5.09443 -1.31737 0
M  V30 2757 O 260.594 -5.63386 -0.811451 0
M  V30 2758 N 261.796 -5.16487 -2.64993 0
M  V30 2759 H 264.561 -2.90534 0.735523 0
M  V30 2760 H 262.122 -1.52742 0.53679 0
M  V30 2761 H 264.114 -3.68522 -1.67252 0
M  V30 2762 H 262.684 -2.62323 -1.70015 0
M  V30 2763 H 261.904 -3.91948 0.420804 0
M  V30 2764 H 263.192 -5.08743 0.0760765 0
M  V30 2765 H 262.59 -4.741 -3.08619 0
M  V30 2766 H 261.147 -5.66276 -3.22761 0
M  V30 2767 N 264.58 -0.43555 -1.51462 0
M  V30 2768 C 265.51 0.367376 -2.30592 0
M  V30 2769 C 266.491 1.02263 -1.35928 0
M  V30 2770 O 267.676 1.02661 -1.64847 0
M  V30 2771 C 264.806 1.46983 -3.14664 0
M  V30 2772 C 263.76 0.938161 -4.17591 0
M  V30 2773 C 263.086 2.13622 -4.90173 0
M  V30 2774 C 264.386 -0.0261621 -5.22293 0
M  V30 2775 H 266.08 -0.292969 -2.97963 0
M  V30 2776 H 263.626 -0.14234 -1.43295 0
M  V30 2777 H 265.579 2.03873 -3.688 0
M  V30 2778 H 264.303 2.15843 -2.4511 0
M  V30 2779 H 262.962 0.391481 -3.64504 0
M  V30 2780 H 262.61 2.81098 -4.17124 0
M  V30 2781 H 262.31 1.78688 -5.59772 0
M  V30 2782 H 263.834 2.7107 -5.47132 0
M  V30 2783 H 265.248 0.452384 -5.71512 0
M  V30 2784 H 263.645 -0.287992 -5.99409 0
M  V30 2785 H 264.715 -0.963391 -4.75233 0
M  V30 2786 N 266.058 1.56714 -0.166846 0
M  V30 2787 C 266.988 2.20754 0.760913 0
M  V30 2788 C 267.969 1.16178 1.24244 0
M  V30 2789 O 269.154 1.44592 1.29641 0
M  V30 2790 C 266.284 2.84478 1.99223 0
M  V30 2791 C 265.238 3.95053 1.64672 0
M  V30 2792 C 264.564 4.45805 2.95232 0
M  V30 2793 C 265.864 5.14865 0.878155 0
M  V30 2794 H 267.558 2.98537 0.22713 0
M  V30 2795 H 265.104 1.43596 0.107805 0
M  V30 2796 H 267.057 3.27951 2.64624 0
M  V30 2797 H 265.781 2.04056 2.55007 0
M  V30 2798 H 264.44 3.52228 1.01641 0
M  V30 2799 H 264.088 3.62181 3.49047 0
M  V30 2800 H 263.788 5.204 2.7287 0
M  V30 2801 H 265.312 4.91962 3.6167 0
M  V30 2802 H 266.726 5.55059 1.43466 0
M  V30 2803 H 265.123 5.95348 0.753738 0
M  V30 2804 H 266.193 4.84735 -0.126377 0
M  V30 2805 N 267.536 -0.106894 1.57237 0
M  V30 2806 C 268.785 -0.811163 1.8467 0
M  V30 2807 C 269.098 -1.80469 0.754342 0
M  V30 2808 O 270.304 -2.55601 0.915439 0
M  V30 2809 C 268.76 -1.49337 3.27454 0
M  V30 2810 C 268.368 -0.540217 4.44731 0
M  V30 2811 C 270.112 -2.18206 3.64124 0
M  V30 2812 C 268.019 -1.22634 5.78545 0
M  V30 2813 H 266.949 -0.306679 0.688813 0
M  V30 2814 H 269.6 -0.0639887 1.83388 0
M  V30 2815 H 267.982 -2.2876 3.23241 0
M  V30 2816 H 269.156 0.221659 4.60267 0
M  V30 2817 H 267.471 0.042146 4.16379 0
M  V30 2818 H 270.068 -2.70253 4.61376 0
M  V30 2819 H 270.411 -2.96562 2.92158 0
M  V30 2820 H 270.944 -1.45658 3.70174 0
M  V30 2821 H 267.683 -0.483832 6.53712 0
M  V30 2822 H 267.203 -1.95993 5.66874 0
M  V30 2823 H 268.882 -1.75615 6.2271 0
M  V30 2824 N 269.014 -1.53014 -0.377408 0
M  V30 2825 C 270.244 -1.72265 -1.14054 0
M  V30 2826 C 270.652 -0.44601 -1.83868 0
M  V30 2827 O 269.995 0.590095 -1.73964 0
M  V30 2828 C 270.057 -2.82492 -2.22348 0
M  V30 2829 C 269.721 -4.23233 -1.72402 0
M  V30 2830 C 270.718 -5.05992 -1.19448 0
M  V30 2831 C 268.403 -4.696 -1.78273 0
M  V30 2832 C 270.397 -6.33203 -0.730268 0
M  V30 2833 C 268.084 -5.96792 -1.31464 0
M  V30 2834 C 269.082 -6.78424 -0.789297 0
M  V30 2835 O 268.77 -8.0323 -0.328077 0
M  V30 2836 H 268.502 -0.579873 -0.347453 0
M  V30 2837 H 271.056 -2.00502 -0.445882 0
M  V30 2838 H 269.286 -2.49702 -2.95272 0
M  V30 2839 H 270.975 -2.90034 -2.83963 0
M  V30 2840 H 271.741 -4.71349 -1.14259 0
M  V30 2841 H 267.62 -4.06142 -2.18106 0
M  V30 2842 H 271.164 -6.96868 -0.319542 0
M  V30 2843 H 267.061 -6.30937 -1.36342 0
M  V30 2844 H 267.829 -8.1727 -0.448493 0
M  V30 2845 N 270.492 0.636531 -1.44174 0
M  V30 2846 C 271.903 1.21806 -1.41493 0
M  V30 2847 C 272.254 1.95785 -0.1275 0
M  V30 2848 O 271.379 2.02147 0.772376 0
M  V30 2849 C 271.974 2.21551 -2.56321 0
M  V30 2850 C 270.533 2.75143 -2.56853 0
M  V30 2851 C 269.68 1.50052 -2.33195 0
M  V30 2852 H 272.631 0.427531 -1.52833 0
M  V30 2853 H 272.652 3.0405 -2.28765 0
M  V30 2854 H 272.164 1.67679 -3.50008 0
M  V30 2855 H 270.265 3.33033 -1.67093 0
M  V30 2856 H 270.378 3.2155 -3.55165 0
M  V30 2857 H 268.742 1.77993 -1.82183 0
M  V30 2858 H 269.525 0.980903 -3.28988 0
M  V30 2859 N 271.97 1.30982 0.876444 0
M  V30 2860 C 273.195 1.23373 1.66715 0
M  V30 2861 C 273.62 -0.19885 1.87046 0
M  V30 2862 O 272.978 -1.1427 1.40756 0
M  V30 2863 C 273.026 1.97644 3.01611 0
M  V30 2864 O 272.13 1.30935 3.91062 0
M  V30 2865 H 271.471 0.426279 0.509099 0
M  V30 2866 H 274.001 1.72944 1.09323 0
M  V30 2867 H 274.011 2.06992 3.51594 0
M  V30 2868 H 272.686 3.01829 2.86133 0
M  V30 2869 H 271.263 1.29996 3.49507 0
M  V30 2870 N 273.449 -1.08991 1.13837 0
M  V30 2871 C 274.677 -1.85011 0.926202 0
M  V30 2872 C 275.092 -1.8135 -0.525127 0
M  V30 2873 O 274.449 -1.21287 -1.36366 0
M  V30 2874 C 274.5 -3.32802 1.41155 0
M  V30 2875 O 274.221 -3.36444 2.80601 0
M  V30 2876 C 275.722 -4.25649 1.23847 0
M  V30 2877 H 272.942 -0.584249 0.32999 0
M  V30 2878 H 275.486 -1.37688 1.51202 0
M  V30 2879 H 273.641 -3.77536 0.868631 0
M  V30 2880 H 274.055 -4.28657 3.02248 0
M  V30 2881 H 275.529 -5.27485 1.62675 0
M  V30 2882 H 276.006 -4.38828 0.18065 0
M  V30 2883 H 276.612 -3.86735 1.76964 0
M  V30 2884 N 274.927 -0.932562 -1.27047 0
M  V30 2885 C 276.175 -0.574422 -1.93765 0
M  V30 2886 C 276.496 0.887993 -1.73608 0
M  V30 2887 O 275.766 1.62999 -1.08665 0
M  V30 2888 H 274.346 -0.209451 -0.717035 0
M  V30 2889 H 277.008 -1.18601 -1.5466 0
M  V30 2890 H 276.104 -0.784841 -3.02071 0
M  V30 2891 N 276.405 1.4127 -0.698611 0
M  V30 2892 C 277.635 2.05205 -0.239644 0
M  V30 2893 C 278.043 1.52684 1.11733 0
M  V30 2894 O 277.386 0.671222 1.70998 0
M  V30 2895 C 277.448 3.59289 -0.123126 0
M  V30 2896 C 277.112 4.34619 -1.41263 0
M  V30 2897 C 278.109 4.63701 -2.35111 0
M  V30 2898 C 275.794 4.73837 -1.66684 0
M  V30 2899 C 277.788 5.30966 -3.52639 0
M  V30 2900 C 275.475 5.40837 -2.84498 0
M  V30 2901 C 276.473 5.69329 -3.77298 0
M  V30 2902 O 276.161 6.34949 -4.93047 0
M  V30 2903 H 275.893 0.66723 -0.108537 0
M  V30 2904 H 278.447 1.81974 -0.952602 0
M  V30 2905 H 276.677 3.81272 0.645628 0
M  V30 2906 H 278.366 4.04797 0.299056 0
M  V30 2907 H 279.132 4.33882 -2.16729 0
M  V30 2908 H 275.011 4.51039 -0.953135 0
M  V30 2909 H 278.555 5.53121 -4.25091 0
M  V30 2910 H 274.452 5.70075 -3.02795 0
M  V30 2911 H 275.22 6.53445 -4.92902 0
M  V30 2912 N 277.883 0.443576 1.51229 0
M  V30 2913 C 279.16 -0.181038 1.9476 0
M  V30 2914 C 279.54 -1.59523 1.38259 0
M  V30 2915 O 278.888 -2.2122 0.572198 0
M  V30 2916 C 279.098 -0.152422 3.48667 0
M  V30 2917 C 280.446 -0.354923 4.23114 0
M  V30 2918 O 281.47 -0.230257 3.55455 0
M  V30 2919 O 280.329 -0.603674 5.43156 0
M  V30 2920 H 277.423 -0.1266 0.817252 0
M  V30 2921 H 279.969 0.502004 1.62105 0
M  V30 2922 H 278.741 0.836022 3.82265 0
M  V30 2923 H 278.364 -0.878107 3.87782 0
M  V30 2924 N 279.361 -1.56624 0.175154 0
M  V30 2925 C 280.772 -1.83561 -0.340916 0
M  V30 2926 C 281.123 -1.09511 -1.62794 0
M  V30 2927 O 280.248 -0.349389 -2.13561 0
M  V30 2928 C 280.843 -3.32979 -0.625313 0
M  V30 2929 C 279.402 -3.60399 -1.08581 0
M  V30 2930 C 278.549 -2.77024 -0.123722 0
M  V30 2931 H 281.5 -1.53593 0.399344 0
M  V30 2932 H 281.521 -3.50666 -1.47694 0
M  V30 2933 H 281.033 -3.86847 0.311575 0
M  V30 2934 H 279.134 -3.11945 -2.03767 0
M  V30 2935 H 279.247 -4.68711 -0.992317 0
M  V30 2936 H 277.611 -2.46993 -0.621821 0
M  V30 2937 H 278.394 -3.33674 0.807256 0
M  V30 2938 N 280.839 0.0985539 -1.57292 0
M  V30 2939 C 281.802 1.10402 -2.00858 0
M  V30 2940 C 282.802 1.33146 -0.901593 0
M  V30 2941 O 283.992 1.29318 -1.16716 0
M  V30 2942 C 281.124 2.45394 -2.36632 0
M  V30 2943 H 282.317 0.729099 -2.90902 0
M  V30 2944 H 279.87 0.343495 -1.52479 0
M  V30 2945 H 280.605 2.87769 -1.49531 0
M  V30 2946 H 280.39 2.30235 -3.17387 0
M  V30 2947 H 281.88 3.17718 -2.71007 0
M  V30 2948 N 282.317 1.53212 0.369288 0
M  V30 2949 C 283.267 1.75769 1.45222 0
M  V30 2950 C 284.251 0.612136 1.48801 0
M  V30 2951 O 285.443 0.870674 1.54105 0
M  V30 2952 C 282.572 1.94769 2.82701 0
M  V30 2953 C 281.658 3.15315 2.83615 0
M  V30 2954 N 282.049 4.37295 2.54178 0
M  V30 2955 C 280.347 3.15962 3.14776 0
M  V30 2956 C 281.048 5.19015 2.62675 0
M  V30 2957 N 280.024 4.55142 2.97232 0
M  V30 2958 H 283.826 2.67691 1.2132 0
M  V30 2959 H 281.34 1.51787 0.577438 0
M  V30 2960 H 283.337 2.09056 3.60696 0
M  V30 2961 H 281.997 1.04073 3.07569 0
M  V30 2962 H 283.008 4.65091 2.27839 0
M  V30 2963 H 279.685 2.35144 3.44983 0
M  V30 2964 H 281.075 6.26305 2.43294 0
M  V30 2965 N 283.795 -0.628877 1.44509 0
M  V30 2966 C 285.206 -1.21054 1.42137 0
M  V30 2967 C 285.557 -1.95715 0.137881 0
M  V30 2968 O 284.682 -2.02554 -0.761645 0
M  V30 2969 C 285.277 -2.20189 2.57493 0
M  V30 2970 C 283.836 -2.73777 2.58308 0
M  V30 2971 C 282.983 -1.48813 2.33987 0
M  V30 2972 H 285.934 -0.41942 1.53057 0
M  V30 2973 H 285.955 -3.02833 2.30375 0
M  V30 2974 H 285.467 -1.6582 3.50892 0
M  V30 2975 H 283.568 -3.32142 1.68856 0
M  V30 2976 H 283.681 -3.19662 3.56865 0
M  V30 2977 H 282.045 -1.77024 1.83124 0
M  V30 2978 H 282.828 -0.963442 3.29504 0
M  V30 2979 N 285.273 -1.31445 -0.869486 0
M  V30 2980 C 286.684 -1.19042 -1.43826 0
M  V30 2981 C 287.035 0.202919 -1.95148 0
M  V30 2982 O 286.16 1.10071 -1.86315 0
M  V30 2983 C 286.755 -2.15499 -2.6143 0
M  V30 2984 C 285.314 -2.07028 -3.14351 0
M  V30 2985 C 284.461 -2.04701 -1.87063 0
M  V30 2986 H 287.412 -1.43489 -0.677984 0
M  V30 2987 H 287.433 -1.74488 -3.38134 0
M  V30 2988 H 286.945 -3.16899 -2.24046 0
M  V30 2989 H 285.046 -1.08825 -3.56354 0
M  V30 2990 H 285.159 -2.96157 -3.766 0
M  V30 2991 H 283.523 -1.49724 -2.06046 0
M  V30 2992 H 284.306 -3.07857 -1.51917 0
M  V30 2993 N 286.751 1.08385 -1.14413 0
M  V30 2994 C 287.714 2.13486 -0.834048 0
M  V30 2995 C 288.714 1.59988 0.161418 0
M  V30 2996 O 289.904 1.74071 -0.0669575 0
M  V30 2997 C 287.036 3.4003 -0.243354 0
M  V30 2998 H 288.229 2.42425 -1.7655 0
M  V30 2999 H 285.782 1.24101 -0.950189 0
M  V30 3000 H 286.517 3.16726 0.696807 0
M  V30 3001 H 286.302 3.80157 -0.960367 0
M  V30 3002 H 287.792 4.17577 -0.0436242 0
M  V30 3003 N 288.23 0.939286 1.26551 0
M  V30 3004 C 289.455 0.602008 1.98471 0
M  V30 3005 C 289.88 -0.815624 1.69497 0
M  V30 3006 O 289.238 -1.54912 0.941905 0
M  V30 3007 C 289.286 0.848407 3.50477 0
M  V30 3008 O 288.39 -0.0804009 4.12322 0
M  V30 3009 H 287.731 0.23049 0.622712 0
M  V30 3010 H 290.261 1.2617 1.61066 0
M  V30 3011 H 290.271 0.768553 4.00696 0
M  V30 3012 H 288.946 1.88171 3.70897 0
M  V30 3013 H 287.523 0.0503508 3.72866 0
M  V30 3014 N 289.708 -1.40897 0.706093 0
M  V30 3015 C 290.957 -2.00284 0.238574 0
M  V30 3016 C 291.27 -1.56604 -1.17194 0
M  V30 3017 O 292.476 -2.08624 -1.73748 0
M  V30 3018 C 290.932 -3.57934 0.375623 0
M  V30 3019 C 290.54 -4.10591 1.79217 0
M  V30 3020 C 292.284 -4.24488 -0.0315857 0
M  V30 3021 C 290.191 -5.60712 1.88032 0
M  V30 3022 H 289.121 -0.749144 0.0854398 0
M  V30 3023 H 291.772 -1.61251 0.875813 0
M  V30 3024 H 290.154 -3.94622 -0.330042 0
M  V30 3025 H 291.328 -3.85301 2.52745 0
M  V30 3026 H 289.643 -3.56601 2.15 0
M  V30 3027 H 292.24 -5.34698 0.0136842 0
M  V30 3028 H 292.583 -4.02261 -1.072 0
M  V30 3029 H 293.116 -3.92873 0.624181 0
M  V30 3030 H 289.855 -5.87781 2.90161 0
M  V30 3031 H 289.375 -5.87896 1.18903 0
M  V30 3032 H 291.054 -6.25658 1.64805 0
M  V30 3033 N 291.186 -0.45159 -1.50991 0
M  V30 3034 C 292.096 0.358431 -2.31846 0
M  V30 3035 C 293.112 1.01438 -1.41373 0
M  V30 3036 O 294.288 1.00663 -1.74439 0
M  V30 3037 C 291.353 1.43704 -3.15515 0
M  V30 3038 C 290.414 0.799742 -4.21785 0
M  V30 3039 C 289.647 1.82696 -5.01456 0
M  V30 3040 O 289.87 3.05105 -4.81941 0
M  V30 3041 O 288.804 1.40958 -5.85162 0
M  V30 3042 H 292.63 -0.302032 -3.02194 0
M  V30 3043 H 290.215 -0.213825 -1.47862 0
M  V30 3044 H 292.097 2.06227 -3.67489 0
M  V30 3045 H 290.772 2.08133 -2.47916 0
M  V30 3046 H 289.679 0.136084 -3.73852 0
M  V30 3047 H 291.012 0.198718 -4.91799 0
M  V30 3048 N 292.664 1.56529 -0.183458 0
M  V30 3049 C 293.574 2.22144 0.754272 0
M  V30 3050 C 294.59 1.21684 1.24374 0
M  V30 3051 O 295.766 1.54385 1.29333 0
M  V30 3052 C 292.831 2.85884 1.96141 0
M  V30 3053 C 291.892 4.01579 1.51765 0
M  V30 3054 C 291.125 4.6227 2.66725 0
M  V30 3055 O 291.348 4.21865 3.83909 0
M  V30 3056 O 290.282 5.51936 2.40104 0
M  V30 3057 H 294.108 3.02861 0.225527 0
M  V30 3058 H 291.693 1.49331 0.0453032 0
M  V30 3059 H 293.575 3.26253 2.66715 0
M  V30 3060 H 292.25 2.08154 2.47899 0
M  V30 3061 H 291.157 3.65856 0.781049 0
M  V30 3062 H 292.49 4.80938 1.04686 0
M  V30 3063 N 294.142 -0.090211 1.57342 0
M  V30 3064 C 295.09 -1.12792 2.03422 0
M  V30 3065 C 296.084 -1.41182 0.936166 0
M  V30 3066 O 297.29 -1.40805 1.12133 0
M  V30 3067 H 293.665 -0.380986 0.648347 0
M  V30 3068 H 295.636 -0.71299 2.89757 0
M  V30 3069 C 294.385 -2.43855 2.47851 0
M  V30 3070 H 293.708 -2.22855 3.31927 0
M  V30 3071 H 295.148 -3.14955 2.83865 0
M  V30 3072 C 293.607 -3.08503 1.3538 0
M  V30 3073 O 294.137 -3.95805 0.685641 0
M  V30 3074 N 292.343 -2.68831 1.10355 0
M  V30 3075 H 291.89 -1.97929 1.64869 0
M  V30 3076 H 291.848 -3.12412 0.353031 0
M  V30 3077 N 295.62 -1.53406 -0.361157 0
M  V30 3078 C 296.583 -1.79479 -1.42548 0
M  V30 3079 C 297.583 -0.665327 -1.4639 0
M  V30 3080 O 298.773 -0.933549 -1.47073 0
M  V30 3081 C 295.905 -1.92087 -2.8163 0
M  V30 3082 H 297.098 -2.74538 -1.20701 0
M  V30 3083 H 294.651 -1.4455 -0.594546 0
M  V30 3084 H 295.386 -0.991099 -3.08784 0
M  V30 3085 H 295.171 -2.74241 -2.80239 0
M  V30 3086 H 296.661 -2.13836 -3.58697 0
M  V30 3087 N 297.098 0.621204 -1.44841 0
M  V30 3088 C 298.008 1.7612 -1.5498 0
M  V30 3089 C 299.024 1.68477 -0.434927 0
M  V30 3090 O 300.2 1.89076 -0.693693 0
M  V30 3091 C 297.265 3.1254 -1.50065 0
M  V30 3092 C 296.326 3.31741 -2.72482 0
M  V30 3093 C 295.559 4.61653 -2.67792 0
M  V30 3094 O 295.782 5.431 -1.74352 0
M  V30 3095 O 294.716 4.83271 -3.58794 0
M  V30 3096 H 298.542 1.70518 -2.51311 0
M  V30 3097 H 296.127 0.783643 -1.27198 0
M  V30 3098 H 298.009 3.93844 -1.49882 0
M  V30 3099 H 296.684 3.18663 -0.568806 0
M  V30 3100 H 295.591 2.50077 -2.7823 0
M  V30 3101 H 296.924 3.30486 -3.64746 0
M  V30 3102 N 298.576 1.31904 0.862503 0
M  V30 3103 C 299.824 1.21776 1.61292 0
M  V30 3104 C 300.145 -0.222413 1.93727 0
M  V30 3105 O 299.415 -1.1451 1.58947 0
M  V30 3106 H 297.995 0.447717 0.597962 0
M  V30 3107 H 300.657 1.65326 1.03215 0
M  V30 3108 H 299.753 1.7948 2.5533 0
M  V30 3109 N 300.054 -1.07777 1.14986 0
M  V30 3110 C 301.284 -1.83752 0.944402 0
M  V30 3111 C 301.692 -1.8218 -0.51058 0
M  V30 3112 O 301.035 -1.22852 -1.36576 0
M  V30 3113 C 301.097 -3.32128 1.37592 0
M  V30 3114 C 300.761 -3.57425 2.84775 0
M  V30 3115 C 301.758 -3.5173 3.8286 0
M  V30 3116 C 299.443 -3.8523 3.2234 0
M  V30 3117 C 301.437 -3.73482 5.16517 0
M  V30 3118 C 299.124 -4.06634 4.56171 0
M  V30 3119 C 300.122 -4.00754 5.53069 0
M  V30 3120 O 299.81 -4.2159 6.84483 0
M  V30 3121 H 299.542 -0.58673 0.335744 0
M  V30 3122 H 302.096 -1.36982 1.53052 0
M  V30 3123 H 300.326 -3.79686 0.733165 0
M  V30 3124 H 302.015 -3.89555 1.14024 0
M  V30 3125 H 302.781 -3.30256 3.55184 0
M  V30 3126 H 298.66 -3.88923 2.47508 0
M  V30 3127 H 302.204 -3.68808 5.92137 0
M  V30 3128 H 298.101 -4.27593 4.83564 0
M  V30 3129 H 298.869 -4.38961 6.90837 0
M  V30 3130 N 301.532 -0.945985 -1.26051 0
M  V30 3131 C 302.462 -0.477172 -2.28572 0
M  V30 3132 C 303.443 0.472032 -1.63419 0
M  V30 3133 O 304.628 0.372853 -1.90587 0
M  V30 3134 C 301.758 0.253975 -3.4637 0
M  V30 3135 C 300.712 -0.609135 -4.23643 0
M  V30 3136 C 300.038 0.252252 -5.34105 0
M  V30 3137 C 301.338 -1.8829 -4.8718 0
M  V30 3138 H 303.032 -1.33402 -2.68038 0
M  V30 3139 H 300.578 -0.642904 -1.28852 0
M  V30 3140 H 302.531 0.593016 -4.17207 0
M  V30 3141 H 301.255 1.145 -3.05871 0
M  V30 3142 H 299.914 -0.931138 -3.54578 0
M  V30 3143 H 299.562 1.14278 -4.89846 0
M  V30 3144 H 299.262 -0.32188 -5.86718 0
M  V30 3145 H 300.786 0.586454 -6.07777 0
M  V30 3146 H 302.2 -1.61081 -5.50205 0
M  V30 3147 H 300.597 -2.40199 -5.49931 0
M  V30 3148 H 301.667 -2.59134 -4.09851 0
M  V30 3149 N 303.011 1.40521 -0.713556 0
M  V30 3150 C 303.941 2.33381 -0.0743864 0
M  V30 3151 C 304.922 1.52784 0.747735 0
M  V30 3152 O 306.107 1.81258 0.697071 0
M  V30 3153 C 303.237 3.36748 0.849598 0
M  V30 3154 C 302.191 4.27793 0.133247 0
M  V30 3155 C 301.517 5.21679 1.17281 0
M  V30 3156 C 302.817 5.12415 -1.01134 0
M  V30 3157 H 304.511 2.87081 -0.850007 0
M  V30 3158 H 302.057 1.38034 -0.410201 0
M  V30 3159 H 304.01 4.00648 1.30612 0
M  V30 3160 H 302.734 2.81439 1.65709 0
M  V30 3161 H 301.393 3.65342 -0.303426 0
M  V30 3162 H 301.041 4.62677 1.9733 0
M  V30 3163 H 300.741 5.83435 0.698397 0
M  V30 3164 H 302.265 5.88456 1.62947 0
M  V30 3165 H 303.679 5.69781 -0.634274 0
M  V30 3166 H 302.076 5.83203 -1.41399 0
M  V30 3167 H 303.146 4.48514 -1.84292 0
M  V30 3168 N 304.489 0.459591 1.5075 0
M  V30 3169 C 305.717 -0.0973749 2.06671 0
M  V30 3170 C 306.132 -1.34524 1.32472 0
M  V30 3171 O 305.489 -1.7827 0.390634 0
M  V30 3172 C 305.54 -0.39714 3.59312 0
M  V30 3173 O 305.261 0.801214 4.30711 0
M  V30 3174 C 306.762 -1.00234 4.31819 0
M  V30 3175 H 303.982 0.00195854 0.670997 0
M  V30 3176 H 306.526 0.645072 1.94059 0
M  V30 3177 H 304.681 -1.08951 3.71764 0
M  V30 3178 H 305.095 0.538857 5.21725 0
M  V30 3179 H 306.569 -1.16193 5.39632 0
M  V30 3180 H 307.046 -1.98939 3.91561 0
M  V30 3181 H 307.652 -0.348699 4.23868 0
M  V30 3182 N 305.967 -1.56429 0.191757 0
M  V30 3183 C 307.215 -1.97095 -0.447006 0
M  V30 3184 C 307.536 -1.07967 -1.62383 0
M  V30 3185 O 306.806 -0.150248 -1.95323 0
M  V30 3186 H 305.386 -0.727832 -0.168135 0
M  V30 3187 H 308.048 -1.92911 0.27771 0
M  V30 3188 H 307.144 -3.01848 -0.793371 0
M  V30 3189 N 307.445 0.0818655 -1.57387 0
M  V30 3190 C 308.693 0.781368 -1.86384 0
M  V30 3191 C 309.014 1.78618 -0.782342 0
M  V30 3192 O 308.284 1.94976 0.190061 0
M  V30 3193 H 306.864 0.291562 -0.687751 0
M  V30 3194 H 309.526 0.060348 -1.94807 0
M  V30 3195 H 308.622 1.3038 -2.83562 0
M  V30 3196 N 308.923 1.53595 0.353017 0
M  V30 3197 C 309.856 1.7572 1.45594 0
M  V30 3198 C 310.834 0.605961 1.50887 0
M  V30 3199 O 312.018 0.840023 1.68748 0
M  V30 3200 C 309.145 1.84732 2.83887 0
M  V30 3201 C 308.191 3.06808 2.96262 0
M  V30 3202 S 309.024 4.66065 2.63711 0
M  V30 3203 C 310.18 4.77943 4.04131 0
M  V30 3204 H 310.413 2.68994 1.26608 0
M  V30 3205 H 307.946 1.44343 0.548117 0
M  V30 3206 H 309.904 1.9061 3.63563 0
M  V30 3207 H 308.565 0.92488 3.00175 0
M  V30 3208 H 307.758 3.09761 3.97573 0
M  V30 3209 H 307.36 2.99108 2.24523 0
M  V30 3210 H 309.652 4.5877 4.98534 0
M  V30 3211 H 310.595 5.80022 4.06177 0
M  V30 3212 H 311.003 4.06472 3.91715 0
M  V30 3213 N 310.401 -0.613514 1.45168 0
M  V30 3214 C 311.334 -1.73809 1.47871 0
M  V30 3215 C 312.312 -1.59097 0.33568 0
M  V30 3216 O 313.496 -1.8074 0.535299 0
M  V30 3217 C 310.623 -3.11574 1.32813 0
M  V30 3218 C 309.669 -3.4489 2.50905 0
M  V30 3219 S 310.502 -3.40393 4.13392 0
M  V30 3220 C 311.658 -4.80749 4.00789 0
M  V30 3221 H 311.891 -1.71252 2.43023 0
M  V30 3222 H 309.424 -0.789658 1.32679 0
M  V30 3223 H 311.382 -3.91065 1.24812 0
M  V30 3224 H 310.043 -3.11652 0.391418 0
M  V30 3225 H 309.236 -4.45183 2.36279 0
M  V30 3226 H 308.838 -2.72901 2.55736 0
M  V30 3227 H 311.13 -5.7041 3.65567 0
M  V30 3228 H 312.073 -5.00431 5.00974 0
M  V30 3229 H 312.481 -4.56151 3.32545 0
M  V30 3230 N 311.879 -1.3236 -0.855495 0
M  V30 3231 C 312.809 -1.23833 -1.97958 0
M  V30 3232 C 313.79 -0.122361 -1.69659 0
M  V30 3233 O 314.975 -0.30939 -1.9172 0
M  V30 3234 C 312.105 -0.959772 -3.33775 0
M  V30 3235 C 311.059 -2.03689 -3.76424 0
M  V30 3236 C 310.385 -1.61075 -5.09862 0
M  V30 3237 C 311.685 -3.4518 -3.9198 0
M  V30 3238 H 313.379 -2.1788 -2.0535 0
M  V30 3239 H 310.925 -1.04891 -0.986605 0
M  V30 3240 H 312.878 -0.886678 -4.11966 0
M  V30 3241 H 311.602 0.0163404 -3.26596 0
M  V30 3242 H 310.261 -2.10012 -3.00484 0
M  V30 3243 H 309.909 -0.622107 -4.99138 0
M  V30 3244 H 309.609 -2.33143 -5.39368 0
M  V30 3245 H 311.133 -1.55201 -5.90546 0
M  V30 3246 H 312.547 -3.4145 -4.60526 0
M  V30 3247 H 310.944 -4.1559 -4.32903 0
M  V30 3248 H 312.014 -3.84903 -2.94919 0
M  V30 3249 N 313.357 1.07166 -1.15556 0
M  V30 3250 C 314.603 1.80222 -0.942961 0
M  V30 3251 C 314.958 1.85121 0.524209 0
M  V30 3252 O 314.251 1.32531 1.38369 0
M  V30 3253 C 314.445 3.24707 -1.49332 0
M  V30 3254 C 314.274 3.33887 -3.01247 0
M  V30 3255 C 313.044 3.44337 -3.69811 0
M  V30 3256 C 315.242 3.24484 -3.99017 0
M  V30 3257 N 313.224 3.42439 -5.09518 0
M  V30 3258 C 314.595 3.29726 -5.25053 0
M  V30 3259 C 316.65 3.08307 -3.90962 0
M  V30 3260 C 315.353 3.20455 -6.43973 0
M  V30 3261 C 317.379 3.00371 -5.09442 0
M  V30 3262 C 316.741 3.06227 -6.34354 0
M  V30 3263 H 312.84 0.672709 -0.398731 0
M  V30 3264 H 315.424 1.27905 -1.46794 0
M  V30 3265 H 313.595 3.7544 -0.994946 0
M  V30 3266 H 315.327 3.85894 -1.21935 0
M  V30 3267 H 312.082 3.48762 -3.20409 0
M  V30 3268 H 312.506 3.45013 -5.8249 0
M  V30 3269 H 317.148 3.02633 -2.95251 0
M  V30 3270 H 314.866 3.24888 -7.39914 0
M  V30 3271 H 318.452 2.88955 -5.04971 0
M  V30 3272 H 317.332 3.00132 -7.24493 0
M  V30 3273 N 314.835 0.952656 1.25548 0
M  V30 3274 C 316.082 0.606373 1.93208 0
M  V30 3275 C 316.41 -0.85631 1.74636 0
M  V30 3276 O 315.665 -1.62951 1.08376 0
M  V30 3277 C 315.964 0.908818 3.45652 0
M  V30 3278 C 315.63 2.35722 3.84378 0
M  V30 3279 C 314.292 2.75312 3.9466 0
M  V30 3280 C 316.644 3.29793 4.03591 0
M  V30 3281 C 313.972 4.08047 4.21562 0
M  V30 3282 C 316.324 4.62138 4.31985 0
M  V30 3283 C 314.988 5.01528 4.40484 0
M  V30 3284 H 314.258 0.221888 0.706998 0
M  V30 3285 H 316.905 1.20132 1.49133 0
M  V30 3286 H 315.21 0.231456 3.91116 0
M  V30 3287 H 316.907 0.619498 3.96186 0
M  V30 3288 H 313.497 2.04017 3.76928 0
M  V30 3289 H 317.681 3.00397 3.95064 0
M  V30 3290 H 312.937 4.38212 4.26357 0
M  V30 3291 H 317.111 5.35012 4.45797 0
M  V30 3292 H 314.738 6.04406 4.61083 0
M  V30 3293 N 316.313 -1.40141 0.720998 0
M  V30 3294 C 317.729 -1.54632 0.395113 0
M  V30 3295 C 317.929 -1.69115 -1.09555 0
M  V30 3296 O 316.985 -1.68377 -1.88163 0
M  V30 3297 C 318.298 -2.77177 1.1659 0
M  V30 3298 C 319.846 -2.91 1.15274 0
M  V30 3299 C 320.321 -4.16465 1.90579 0
M  V30 3300 N 321.812 -4.23476 1.87675 0
M  V30 3301 C 322.547 -5.19475 2.42762 0
M  V30 3302 N 322.043 -6.21348 3.06428 0
M  V30 3303 N 323.836 -5.11592 2.32874 0
M  V30 3304 H 315.987 -1.28986 1.68749 0
M  V30 3305 H 318.25 -0.62412 0.713567 0
M  V30 3306 H 317.956 -2.72771 2.22011 0
M  V30 3307 H 317.83 -3.69442 0.76108 0
M  V30 3308 H 320.217 -2.94907 0.106702 0
M  V30 3309 H 320.298 -1.99838 1.59682 0
M  V30 3310 H 319.942 -4.1332 2.95176 0
M  V30 3311 H 319.872 -5.06646 1.43587 0
M  V30 3312 H 322.363 -3.50497 1.41281 0
M  V30 3313 H 322.676 -6.91034 3.45965 0
M  V30 3314 H 321.021 -6.21777 3.10514 0
M  V30 3315 H 324.212 -4.30936 1.82789 0
M  V30 3316 H 324.385 -5.86233 2.76106 0
M  V30 3317 N 317.792 -0.46758 -1.50504 0
M  V30 3318 C 319.069 0.15003 -1.95024 0
M  V30 3319 C 319.449 1.57304 -1.40779 0
M  V30 3320 O 318.797 2.20281 -0.607319 0
M  V30 3321 C 319.007 0.0969324 -3.48865 0
M  V30 3322 C 320.355 0.287565 -4.23625 0
M  V30 3323 O 321.379 0.173678 -3.55776 0
M  V30 3324 O 320.238 0.517186 -5.44047 0
M  V30 3325 H 317.332 0.113582 -0.819163 0
M  V30 3326 H 319.878 -0.52773 -1.61286 0
M  V30 3327 H 318.65 -0.896732 -3.80886 0
M  V30 3328 H 318.273 0.816303 -3.8913 0
M  V30 3329 N 319.27 1.56325 -0.20005 0
M  V30 3330 C 320.202 2.16555 0.750771 0
M  V30 3331 C 321.215 1.12871 1.1732 0
M  V30 3332 O 322.404 1.39943 1.10807 0
M  V30 3333 C 319.504 2.71684 2.02586 0
M  V30 3334 C 318.677 4.00321 1.76244 0
M  V30 3335 C 317.736 4.40227 2.88248 0
M  V30 3336 O 316.762 5.07552 2.57642 0
M  V30 3337 N 317.964 4.04138 4.16717 0
M  V30 3338 H 320.729 2.98772 0.235685 0
M  V30 3339 H 318.29 1.6189 -0.0182594 0
M  V30 3340 H 320.282 2.95363 2.76664 0
M  V30 3341 H 318.852 1.93893 2.45202 0
M  V30 3342 H 318.072 3.84723 0.85919 0
M  V30 3343 H 319.36 4.84279 1.56048 0
M  V30 3344 H 318.758 3.49993 4.44434 0
M  V30 3345 H 317.315 4.32756 4.87407 0
M  V30 3346 N 320.748 -0.0735177 1.57428 0
M  V30 3347 C 321.978 -0.78483 1.91112 0
M  V30 3348 C 322.386 -1.71729 0.7941 0
M  V30 3349 O 321.729 -1.82105 -0.241542 0
M  V30 3350 C 321.791 -1.63346 3.20247 0
M  V30 3351 C 321.455 -0.870557 4.48632 0
M  V30 3352 C 322.452 -0.19058 5.19551 0
M  V30 3353 C 320.137 -0.838242 4.95256 0
M  V30 3354 C 322.131 0.511503 6.35344 0
M  V30 3355 C 319.818 -0.132386 6.10957 0
M  V30 3356 C 320.816 0.541288 6.80852 0
M  V30 3357 O 320.504 1.23578 7.94345 0
M  V30 3358 H 320.236 -0.228408 0.636244 0
M  V30 3359 H 322.79 -0.0486039 2.05342 0
M  V30 3360 H 321.02 -2.41245 3.02222 0
M  V30 3361 H 322.709 -2.22329 3.39595 0
M  V30 3362 H 323.475 -0.206864 4.84559 0
M  V30 3363 H 319.354 -1.35206 4.40727 0
M  V30 3364 H 322.898 1.03789 6.89836 0
M  V30 3365 H 318.795 -0.114023 6.45399 0
M  V30 3366 H 319.563 1.14487 8.10454 0
M  V30 3367 N 322.226 -1.5378 -0.344866 0
M  V30 3368 C 323.156 -1.84662 -1.42906 0
M  V30 3369 C 324.137 -0.701648 -1.54955 0
M  V30 3370 O 325.322 -0.953438 -1.69184 0
M  V30 3371 C 322.452 -2.05503 -2.79974 0
M  V30 3372 C 321.406 -3.21318 -2.82734 0
M  V30 3373 C 320.732 -3.2749 -4.22675 0
M  V30 3374 C 322.032 -4.59456 -2.48389 0
M  V30 3375 H 323.726 -2.75461 -1.17311 0
M  V30 3376 H 321.272 -1.32542 -0.562896 0
M  V30 3377 H 323.225 -2.25691 -3.55867 0
M  V30 3378 H 321.949 -1.11434 -3.07002 0
M  V30 3379 H 320.608 -3.00984 -2.09294 0
M  V30 3380 H 320.256 -2.31019 -4.4681 0
M  V30 3381 H 319.956 -4.05316 -4.25433 0
M  V30 3382 H 321.48 -3.49887 -5.00412 0
M  V30 3383 H 322.894 -4.79667 -3.13995 0
M  V30 3384 H 321.291 -5.39675 -2.62432 0
M  V30 3385 H 322.361 -4.63155 -1.4358 0
M  V30 3386 N 323.704 0.605807 -1.45491 0
M  V30 3387 C 324.652 1.73754 -1.54636 0
M  V30 3388 C 325.646 1.64207 -0.416219 0
M  V30 3389 O 326.852 1.69979 -0.592199 0
M  V30 3390 H 323.227 0.574073 -0.485741 0
M  V30 3391 H 325.198 1.63169 -2.49837 0
M  V30 3392 C 323.947 3.12135 -1.53189 0
M  V30 3393 H 323.27 3.20141 -2.39478 0
M  V30 3394 H 324.71 3.91147 -1.63645 0
M  V30 3395 C 323.169 3.35921 -0.256616 0
M  V30 3396 O 323.699 3.96194 0.662798 0
M  V30 3397 N 321.905 2.90204 -0.151751 0
M  V30 3398 H 321.452 2.41336 -0.90081 0
M  V30 3399 H 321.41 3.06492 0.700699 0
M  V30 3400 N 325.182 1.32811 0.848464 0
M  V30 3401 C 326.407 1.26882 1.6406 0
M  V30 3402 C 326.832 -0.15913 1.87426 0
M  V30 3403 O 326.19 -1.11258 1.43148 0
M  V30 3404 C 326.238 2.03997 2.97351 0
M  V30 3405 O 325.342 1.39201 3.88197 0
M  V30 3406 H 324.683 0.436982 0.499943 0
M  V30 3407 H 327.213 1.75224 1.0563 0
M  V30 3408 H 327.223 2.14403 3.47124 0
M  V30 3409 H 325.898 3.0783 2.79666 0
M  V30 3410 H 324.475 1.37381 3.46671 0
M  V30 3411 N 326.66 -1.06551 1.16123 0
M  V30 3412 C 327.59 -2.15935 0.88851 0
M  V30 3413 C 328.571 -1.69306 -0.164135 0
M  V30 3414 O 329.756 -1.94193 -0.0167857 0
M  V30 3415 C 326.886 -3.45149 0.385942 0
M  V30 3416 C 325.84 -4.05271 1.3762 0
M  V30 3417 C 325.166 -5.29664 0.732137 0
M  V30 3418 C 326.466 -4.44355 2.74493 0
M  V30 3419 H 328.16 -2.39006 1.80323 0
M  V30 3420 H 325.706 -1.14866 0.868435 0
M  V30 3421 H 327.659 -4.21004 0.182647 0
M  V30 3422 H 326.383 -3.21689 -0.564274 0
M  V30 3423 H 325.042 -3.3147 1.56599 0
M  V30 3424 H 324.69 -5.02499 -0.224483 0
M  V30 3425 H 324.39 -5.70848 1.39307 0
M  V30 3426 H 325.914 -6.08218 0.538802 0
M  V30 3427 H 327.328 -5.11303 2.59311 0
M  V30 3428 H 325.725 -4.96515 3.37035 0
M  V30 3429 H 326.795 -3.55339 3.29943 0
M  V30 3430 N 328.138 -0.959301 -1.25041 0
M  V30 3431 C 329.048 -0.489994 -2.29426 0
M  V30 3432 C 330.064 0.444944 -1.68215 0
M  V30 3433 O 331.24 0.320046 -1.98841 0
M  V30 3434 C 328.305 0.220309 -3.45999 0
M  V30 3435 C 327.366 -0.753418 -4.22637 0
M  V30 3436 C 326.599 -0.076918 -5.33645 0
M  V30 3437 O 326.822 1.13649 -5.58963 0
M  V30 3438 O 325.756 -0.764824 -5.97021 0
M  V30 3439 H 329.582 -1.35755 -2.71669 0
M  V30 3440 H 327.167 -0.725961 -1.30576 0
M  V30 3441 H 329.049 0.619677 -4.16819 0
M  V30 3442 H 327.724 1.06296 -3.0575 0
M  V30 3443 H 326.631 -1.20308 -3.54227 0
M  V30 3444 H 327.964 -1.56423 -4.66683 0
M  V30 3445 N 329.616 1.39756 -0.72842 0
M  V30 3446 C 330.526 2.34444 -0.0855374 0
M  V30 3447 C 331.542 1.57976 0.729356 0
M  V30 3448 O 332.718 1.90301 0.659346 0
M  V30 3449 C 329.783 3.36965 0.815798 0
M  V30 3450 C 328.844 4.29299 -0.0105996 0
M  V30 3451 C 328.077 5.26923 0.84781 0
M  V30 3452 O 328.3 5.30859 2.08673 0
M  V30 3453 O 327.234 6.01249 0.279969 0
M  V30 3454 H 331.06 2.91065 -0.866892 0
M  V30 3455 H 328.645 1.4117 -0.48902 0
M  V30 3456 H 330.527 3.99804 1.33171 0
M  V30 3457 H 329.202 2.82739 1.57608 0
M  V30 3458 H 328.109 3.69703 -0.571877 0
M  V30 3459 H 329.442 4.86712 -0.73295 0
M  V30 3460 N 331.094 0.475555 1.50254 0
M  V30 3461 C 332.024 -0.30611 2.31485 0
M  V30 3462 C 333.005 -0.986228 1.38591 0
M  V30 3463 O 334.19 -0.982541 1.67511 0
M  V30 3464 C 331.32 -1.38588 3.1845 0
M  V30 3465 C 330.274 -0.827115 4.19932 0
M  V30 3466 C 329.6 -2.00551 4.95665 0
M  V30 3467 C 330.9 0.16463 5.2204 0
M  V30 3468 H 332.594 0.371866 2.97082 0
M  V30 3469 H 330.14 0.180282 1.42867 0
M  V30 3470 H 332.093 -1.94023 3.74076 0
M  V30 3471 H 330.817 -2.09269 2.50747 0
M  V30 3472 H 329.476 -0.294702 3.65414 0
M  V30 3473 H 329.124 -2.6994 4.2443 0
M  V30 3474 H 328.824 -1.63784 5.64313 0
M  V30 3475 H 330.348 -2.56468 5.54127 0
M  V30 3476 H 331.762 -0.300699 5.72511 0
M  V30 3477 H 330.159 0.446813 5.98434 0
M  V30 3478 H 331.229 1.08905 4.72512 0
M  V30 3479 N 332.573 -1.56217 0.208337 0
M  V30 3480 C 333.801 -2.02337 -0.43215 0
M  V30 3481 C 334.216 -1.08834 -1.54275 0
M  V30 3482 O 333.573 -0.0955462 -1.8225 0
M  V30 3483 C 333.624 -3.48072 -0.976138 0
M  V30 3484 O 333.345 -4.38007 0.0901621 0
M  V30 3485 C 334.846 -4.09773 -1.69119 0
M  V30 3486 H 332.066 -0.662385 -0.10718 0
M  V30 3487 H 334.61 -2.01966 0.320923 0
M  V30 3488 H 332.765 -3.49099 -1.67954 0
M  V30 3489 H 333.179 -5.23543 -0.316701 0
M  V30 3490 H 334.653 -5.13556 -2.02397 0
M  V30 3491 H 335.13 -3.53999 -2.59964 0
M  V30 3492 H 335.736 -4.12556 -1.03332 0
M  V30 3493 N 334.051 0.0651679 -1.57465 0
M  V30 3494 C 335.001 1.0838 -2.00594 0
M  V30 3495 C 335.985 1.34106 -0.889071 0
M  V30 3496 O 337.177 1.34295 -1.15299 0
M  V30 3497 C 334.306 2.39565 -2.45894 0
M  V30 3498 C 333.392 2.17085 -3.64328 0
M  V30 3499 N 333.783 1.64553 -4.78285 0
M  V30 3500 C 332.081 2.4753 -3.71006 0
M  V30 3501 C 332.782 1.57042 -5.60101 0
M  V30 3502 N 331.758 2.03328 -5.04141 0
M  V30 3503 H 335.56 0.671062 -2.86136 0
M  V30 3504 H 333.074 0.27213 -1.60104 0
M  V30 3505 H 335.071 3.13308 -2.75034 0
M  V30 3506 H 333.731 2.81549 -1.61741 0
M  V30 3507 H 334.742 1.33323 -5.00445 0
M  V30 3508 H 331.419 2.92835 -2.9758 0
M  V30 3509 H 332.809 1.17223 -6.61595 0
M  V30 3510 N 335.529 1.53961 0.336706 0
M  V30 3511 C 336.94 1.62914 0.911925 0
M  V30 3512 C 337.291 0.514795 1.89326 0
M  V30 3513 O 336.416 -0.354395 2.13478 0
M  V30 3514 C 337.011 2.95304 1.66076 0
M  V30 3515 C 335.57 3.06496 2.18489 0
M  V30 3516 C 334.717 2.58403 1.00613 0
M  V30 3517 H 337.668 1.58285 0.114649 0
M  V30 3518 H 337.689 2.84727 2.5241 0
M  V30 3519 H 337.201 3.76387 0.946276 0
M  V30 3520 H 335.302 2.3006 2.93092 0
M  V30 3521 H 335.415 4.1208 2.44391 0
M  V30 3522 H 333.779 2.13977 1.38152 0
M  V30 3523 H 334.562 3.41932 0.306179 0
M  V30 3524 N 337.007 -0.598083 1.45811 0
M  V30 3525 C 338.253 -1.35679 1.51535 0
M  V30 3526 C 338.608 -1.91745 0.15864 0
M  V30 3527 O 337.901 -1.72654 -0.830724 0
M  V30 3528 C 338.095 -2.51669 2.53766 0
M  V30 3529 C 337.924 -2.06963 3.99245 0
M  V30 3530 C 336.694 -1.92693 4.67116 0
M  V30 3531 C 338.892 -1.63855 4.875 0
M  V30 3532 N 336.874 -1.41897 5.97276 0
M  V30 3533 C 338.245 -1.24541 6.07363 0
M  V30 3534 C 340.3 -1.51533 4.74281 0
M  V30 3535 C 339.003 -0.741354 7.15469 0
M  V30 3536 C 341.029 -1.0253 5.82444 0
M  V30 3537 C 340.391 -0.641869 7.01469 0
M  V30 3538 H 336.49 -0.490042 0.609412 0
M  V30 3539 H 339.074 -0.682687 1.82339 0
M  V30 3540 H 337.245 -3.16663 2.24898 0
M  V30 3541 H 338.977 -3.18578 2.4958 0
M  V30 3542 H 335.732 -2.1417 4.22408 0
M  V30 3543 H 336.156 -1.18704 6.66512 0
M  V30 3544 H 340.798 -1.798 3.82664 0
M  V30 3545 H 338.516 -0.446243 8.06867 0
M  V30 3546 H 342.102 -0.934088 5.74253 0
M  V30 3547 H 340.982 -0.268531 7.8374 0
M  V30 3548 N 338.485 -1.33259 -0.841409 0
M  V30 3549 C 339.732 -1.24572 -1.5965 0
M  V30 3550 C 340.06 0.189137 -1.93578 0
M  V30 3551 O 339.315 1.14566 -1.5866 0
M  V30 3552 C 339.614 -2.06381 -2.9179 0
M  V30 3553 C 339.28 -3.556 -2.77235 0
M  V30 3554 C 337.942 -3.96282 -2.72973 0
M  V30 3555 C 340.294 -4.50433 -2.62221 0
M  V30 3556 C 337.622 -5.30017 -2.51592 0
M  V30 3557 C 339.974 -5.84327 -2.42374 0
M  V30 3558 C 338.638 -6.24194 -2.36512 0
M  V30 3559 H 337.908 -0.455842 -0.5842 0
M  V30 3560 H 340.555 -1.6482 -0.975016 0
M  V30 3561 H 338.86 -1.58903 -3.5813 0
M  V30 3562 H 340.557 -1.97019 -3.49263 0
M  V30 3563 H 337.147 -3.23298 -2.81384 0
M  V30 3564 H 341.331 -4.19914 -2.64549 0
M  V30 3565 H 336.587 -5.59947 -2.45499 0
M  V30 3566 H 340.761 -6.57414 -2.29739 0
M  V30 3567 H 338.388 -7.27759 -2.19706 0
M  V30 3568 N 339.963 1.05934 -1.16686 0
M  V30 3569 C 341.188 1.83029 -0.975455 0
M  V30 3570 C 341.613 1.82096 0.471452 0
M  V30 3571 O 340.971 1.22443 1.33706 0
M  V30 3572 C 341.019 3.27372 -1.51195 0
M  V30 3573 O 340.123 4.06054 -0.720701 0
M  V30 3574 H 339.464 0.566194 -0.346872 0
M  V30 3575 H 341.994 1.33541 -1.55009 0
M  V30 3576 H 342.004 3.78186 -1.53099 0
M  V30 3577 H 340.679 3.27366 -2.56523 0
M  V30 3578 H 339.256 3.64812 -0.772458 0
M  V30 3579 N 341.441 0.965919 1.2453 0
M  V30 3580 C 342.852 0.665929 1.7442 0
M  V30 3581 C 343.203 -0.818407 1.78316 0
M  V30 3582 O 342.328 -1.64037 1.41141 0
M  V30 3583 C 342.923 1.20211 3.16757 0
M  V30 3584 C 341.482 0.952059 3.6416 0
M  V30 3585 C 340.629 1.33848 2.42858 0
M  V30 3586 H 343.58 1.14144 1.10258 0
M  V30 3587 H 343.601 0.567544 3.76244 0
M  V30 3588 H 343.113 2.28244 3.13889 0
M  V30 3589 H 341.214 -0.112821 3.72429 0
M  V30 3590 H 341.327 1.59645 4.51719 0
M  V30 3591 H 339.691 0.756864 2.43195 0
M  V30 3592 H 340.474 2.42827 2.42673 0
M  V30 3593 N 342.919 -1.39368 0.735821 0
M  V30 3594 C 344.165 -2.00794 0.284544 0
M  V30 3595 C 344.498 -1.58255 -1.12557 0
M  V30 3596 O 343.773 -0.811819 -1.76748 0
M  V30 3597 C 344.056 -3.58011 0.387337 0
M  V30 3598 C 343.909 -4.10566 1.83728 0
M  V30 3599 C 345.228 -4.395 -0.22975 0
M  V30 3600 H 342.347 -0.729501 0.104866 0
M  V30 3601 H 344.989 -1.65564 0.93213 0
M  V30 3602 H 343.139 -3.88154 -0.164006 0
M  V30 3603 H 344.811 -3.91139 2.44556 0
M  V30 3604 H 343.054 -3.64095 2.35833 0
M  V30 3605 H 343.725 -5.19702 1.86047 0
M  V30 3606 H 346.201 -4.15406 0.240257 0
M  V30 3607 H 345.077 -5.48752 -0.127485 0
M  V30 3608 H 345.338 -4.22062 -1.3159 0
M  V30 3609 N 344.397 -0.483516 -1.5 0
M  V30 3610 C 345.327 0.293829 -2.31644 0
M  V30 3611 C 346.308 0.978864 -1.39112 0
M  V30 3612 O 347.493 0.973644 -1.68029 0
M  V30 3613 C 344.623 1.36897 -3.19181 0
M  V30 3614 C 343.577 0.804833 -4.20365 0
M  V30 3615 C 342.903 1.9792 -4.96721 0
M  V30 3616 C 344.203 -0.192313 -5.21946 0
M  V30 3617 H 345.897 -0.387616 -2.9688 0
M  V30 3618 H 343.443 -0.187856 -1.42769 0
M  V30 3619 H 345.396 1.92037 -3.751 0
M  V30 3620 H 344.12 2.07936 -2.51853 0
M  V30 3621 H 342.779 0.275319 -3.65565 0
M  V30 3622 H 342.427 2.67686 -4.25856 0
M  V30 3623 H 342.127 1.60789 -5.65173 0
M  V30 3624 H 343.651 2.53526 -5.55479 0
M  V30 3625 H 345.065 0.270333 -5.72662 0
M  V30 3626 H 343.462 -0.478543 -5.98189 0
M  V30 3627 H 344.532 -1.11409 -4.71928 0
M  V30 3628 N 345.875 1.56104 -0.216619 0
M  V30 3629 C 347.105 2.02269 0.420802 0
M  V30 3630 C 347.513 1.09575 1.5424 0
M  V30 3631 O 346.856 0.0967308 1.83445 0
M  V30 3632 C 346.918 3.44784 1.01806 0
M  V30 3633 C 346.582 4.56988 0.0325154 0
M  V30 3634 C 347.579 5.14225 -0.766055 0
M  V30 3635 C 345.264 5.02228 -0.0848092 0
M  V30 3636 C 347.258 6.15169 -1.6687 0
M  V30 3637 C 344.945 6.03011 -0.990994 0
M  V30 3638 C 345.943 6.59357 -1.78149 0
M  V30 3639 O 345.631 7.58179 -2.67245 0
M  V30 3640 H 345.363 0.667353 0.107776 0
M  V30 3641 H 347.917 2.02747 -0.329034 0
M  V30 3642 H 346.147 3.41359 1.81689 0
M  V30 3643 H 347.836 3.74626 1.56237 0
M  V30 3644 H 348.602 4.80126 -0.685836 0
M  V30 3645 H 344.481 4.58054 0.520349 0
M  V30 3646 H 348.025 6.59076 -2.28615 0
M  V30 3647 H 343.922 6.36532 -1.07225 0
M  V30 3648 H 344.69 7.75682 -2.61265 0
M  V30 3649 N 347.353 -0.0568162 1.57498 0
M  V30 3650 C 348.764 -0.606858 1.76562 0
M  V30 3651 C 349.115 -1.77114 0.844094 0
M  V30 3652 O 348.24 -2.16376 0.0318911 0
M  V30 3653 C 348.835 -1.10766 3.20182 0
M  V30 3654 C 347.394 -1.60344 3.40539 0
M  V30 3655 C 346.541 -0.529311 2.72201 0
M  V30 3656 H 349.492 0.169393 1.57793 0
M  V30 3657 H 349.513 -1.97602 3.25167 0
M  V30 3658 H 349.025 -0.26006 3.87228 0
M  V30 3659 H 347.126 -2.47379 2.78629 0
M  V30 3660 H 347.239 -1.67006 4.4905 0
M  V30 3661 H 345.603 -0.977893 2.35179 0
M  V30 3662 H 346.386 0.308352 3.41912 0
M  V30 3663 N 348.832 -1.54138 -0.328536 0
M  V30 3664 C 350.109 -1.62749 -1.08499 0
M  V30 3665 C 350.489 -0.458198 -2.06067 0
M  V30 3666 O 349.837 0.548046 -2.2183 0
M  V30 3667 C 350.047 -2.99519 -1.79135 0
M  V30 3668 C 351.395 -3.55394 -2.32337 0
M  V30 3669 O 352.419 -3.01792 -1.89209 0
M  V30 3670 O 351.278 -4.49186 -3.11279 0
M  V30 3671 H 348.372 -0.65886 -0.499832 0
M  V30 3672 H 350.918 -1.66484 -0.328826 0
M  V30 3673 H 349.69 -3.76061 -1.08139 0
M  V30 3674 H 349.313 -2.99441 -2.61574 0
M  V30 3675 N 350.31 0.590341 -1.46126 0
M  V30 3676 C 351.24 1.71032 -1.58966 0
M  V30 3677 C 352.221 1.64302 -0.440335 0
M  V30 3678 O 353.406 1.82436 -0.665634 0
M  V30 3679 C 350.536 3.09665 -1.57241 0
M  V30 3680 C 349.49 3.31221 -2.71066 0
M  V30 3681 C 348.816 4.70303 -2.54399 0
M  V30 3682 C 350.116 3.19796 -4.1295 0
M  V30 3683 H 351.81 1.60543 -2.52718 0
M  V30 3684 H 349.356 0.770933 -1.21625 0
M  V30 3685 H 351.309 3.87831 -1.64819 0
M  V30 3686 H 350.033 3.21036 -0.600289 0
M  V30 3687 H 348.692 2.55452 -2.62944 0
M  V30 3688 H 348.34 4.78429 -1.55288 0
M  V30 3689 H 348.04 4.85679 -3.30741 0
M  V30 3690 H 349.564 5.50647 -2.63857 0
M  V30 3691 H 350.978 3.87815 -4.22223 0
M  V30 3692 H 349.375 3.46696 -4.89818 0
M  V30 3693 H 350.445 2.16983 -4.33643 0
M  V30 3694 N 351.788 1.33704 0.83433 0
M  V30 3695 C 353.013 1.28615 1.62705 0
M  V30 3696 C 353.438 -0.139242 1.87584 0
M  V30 3697 O 352.796 -1.09734 1.4432 0
M  V30 3698 C 352.844 2.07139 2.95171 0
M  V30 3699 O 351.948 1.4331 3.86699 0
M  V30 3700 H 351.289 0.44226 0.49528 0
M  V30 3701 H 353.819 1.76335 1.03766 0
M  V30 3702 H 353.829 2.18073 3.44831 0
M  V30 3703 H 352.504 3.10779 2.76386 0
M  V30 3704 H 351.081 1.4105 3.45195 0
M  V30 3705 N 353.266 -1.05314 1.17247 0
M  V30 3706 C 354.514 -1.77941 0.958194 0
M  V30 3707 C 354.835 -1.88089 -0.514556 0
M  V30 3708 O 354.105 -1.39676 -1.37359 0
M  V30 3709 H 352.685 -0.659116 0.351533 0
M  V30 3710 H 355.347 -1.27166 1.47699 0
M  V30 3711 H 354.443 -2.79663 1.38546 0
M  V30 3712 N 354.744 -0.972509 -1.24016 0
M  V30 3713 C 355.674 -0.525548 -2.27509 0
M  V30 3714 C 356.655 0.437262 -1.64384 0
M  V30 3715 O 357.84 0.332343 -1.91335 0
M  V30 3716 C 354.97 0.180448 -3.46831 0
M  V30 3717 C 353.924 -0.698859 -4.22256 0
M  V30 3718 C 353.25 0.138903 -5.3452 0
M  V30 3719 C 354.55 -1.98582 -4.83076 0
M  V30 3720 H 356.244 -1.39058 -2.65148 0
M  V30 3721 H 353.79 -0.67009 -1.27459 0
M  V30 3722 H 355.743 0.504387 -4.18371 0
M  V30 3723 H 354.467 1.07987 -3.08231 0
M  V30 3724 H 353.126 -1.00614 -3.52523 0
M  V30 3725 H 352.774 1.03862 -4.9216 0
M  V30 3726 H 352.474 -0.446259 -5.85903 0
M  V30 3727 H 353.998 0.457404 -6.08884 0
M  V30 3728 H 355.412 -1.72715 -5.46665 0
M  V30 3729 H 353.809 -2.5181 -5.44713 0
M  V30 3730 H 354.879 -2.67769 -4.04262 0
M  V30 3731 N 356.222 1.38976 -0.743202 0
M  V30 3732 C 357.633 1.83123 -0.363732 0
M  V30 3733 C 357.984 1.6205 1.10609 0
M  V30 3734 O 357.109 1.11606 1.854 0
M  V30 3735 C 357.704 3.32439 -0.653408 0
M  V30 3736 C 356.263 3.74974 -0.327338 0
M  V30 3737 C 355.41 2.61878 -0.911875 0
M  V30 3738 H 358.361 1.27852 -0.940191 0
M  V30 3739 H 358.382 3.80432 0.0720031 0
M  V30 3740 H 357.894 3.47745 -1.72323 0
M  V30 3741 H 355.995 3.65252 0.736314 0
M  V30 3742 H 356.108 4.72106 -0.815631 0
M  V30 3743 H 354.472 2.52448 -0.337944 0
M  V30 3744 H 355.255 2.79987 -1.98651 0
M  V30 3745 N 357.7 0.491464 1.49741 0
M  V30 3746 C 359.111 0.0413169 1.86654 0
M  V30 3747 C 359.462 -1.36985 1.40462 0
M  V30 3748 O 358.587 -2.01917 0.778354 0
M  V30 3749 C 359.182 0.0682023 3.38731 0
M  V30 3750 C 357.741 -0.32656 3.74981 0
M  V30 3751 C 356.888 0.444888 2.73708 0
M  V30 3752 H 359.839 0.704733 1.42194 0
M  V30 3753 H 359.86 -0.729322 3.73445 0
M  V30 3754 H 359.372 1.09539 3.72321 0
M  V30 3755 H 357.473 -1.35734 3.46997 0
M  V30 3756 H 357.586 -0.013741 4.79098 0
M  V30 3757 H 355.95 -0.104062 2.54487 0
M  V30 3758 H 356.733 1.47197 3.10142 0
M  V30 3759 N 359.178 -1.55987 0.224894 0
M  V30 3760 C 360.141 -2.19178 -0.670348 0
M  V30 3761 C 361.141 -1.15461 -1.11917 0
M  V30 3762 O 362.331 -1.40675 -1.02743 0
M  V30 3763 C 359.463 -2.81777 -1.9187 0
M  V30 3764 H 360.656 -2.99662 -0.119364 0
M  V30 3765 H 358.209 -1.5628 -0.0247128 0
M  V30 3766 H 358.944 -2.05172 -2.51147 0
M  V30 3767 H 358.729 -3.57732 -1.60531 0
M  V30 3768 H 360.219 -3.30205 -2.55645 0
M  V30 3769 N 360.656 0.0484629 -1.57525 0
M  V30 3770 C 361.886 0.754326 -1.92337 0
M  V30 3771 C 362.294 1.70443 -0.82132 0
M  V30 3772 O 361.637 1.82466 0.21254 0
M  V30 3773 C 361.699 1.58231 -3.22805 0
M  V30 3774 C 361.363 0.799074 -4.4996 0
M  V30 3775 C 362.36 0.1079 -5.19788 0
M  V30 3776 C 360.045 0.759345 -4.96527 0
M  V30 3777 C 362.039 -0.612516 -6.3445 0
M  V30 3778 C 359.726 0.0351713 -6.1109 0
M  V30 3779 C 360.724 -0.649537 -6.79904 0
M  V30 3780 O 360.412 -1.36199 -7.92278 0
M  V30 3781 H 360.144 0.218257 -0.639797 0
M  V30 3782 H 362.698 0.0159295 -2.05394 0
M  V30 3783 H 360.928 2.36406 -3.06021 0
M  V30 3784 H 362.617 2.16898 -3.43089 0
M  V30 3785 H 363.383 0.129748 -4.84826 0
M  V30 3786 H 359.262 1.28177 -4.42822 0
M  V30 3787 H 362.806 -1.14751 -6.88097 0
M  V30 3788 H 358.703 0.0113314 -6.45499 0
M  V30 3789 H 359.471 -1.27366 -8.0853 0
M  V30 3790 N 362.134 1.5431 0.320358 0
M  V30 3791 C 363.383 1.7188 1.05546 0
M  V30 3792 C 363.696 0.501143 1.89071 0
M  V30 3793 O 364.902 0.558258 2.65699 0
M  V30 3794 C 363.358 3.04025 1.92605 0
M  V30 3795 C 362.966 4.33207 1.14176 0
M  V30 3796 C 364.71 3.30959 2.65832 0
M  V30 3797 C 362.617 5.56412 2.00399 0
M  V30 3798 H 361.547 0.640547 0.397763 0
M  V30 3799 H 364.198 1.80802 0.313522 0
M  V30 3800 H 362.58 2.89019 2.7071 0
M  V30 3801 H 363.754 4.58989 0.40819 0
M  V30 3802 H 362.069 4.13062 0.526165 0
M  V30 3803 H 364.666 4.20203 3.30656 0
M  V30 3804 H 365.009 2.48979 3.33639 0
M  V30 3805 H 365.542 3.46847 1.94787 0
M  V30 3806 H 362.281 6.41004 1.37094 0
M  V30 3807 H 361.801 5.34844 2.7148 0
M  V30 3808 H 363.48 5.92938 2.58908 0
M  V30 3809 N 363.613 -0.582584 1.46437 0
M  V30 3810 C 364.576 -1.67366 1.56592 0
M  V30 3811 C 365.576 -1.54575 0.443072 0
M  V30 3812 O 366.766 -1.59191 0.707381 0
M  V30 3813 C 363.898 -3.06791 1.48634 0
M  V30 3814 H 365.091 -1.5972 2.5383 0
M  V30 3815 H 362.644 -0.800432 1.34249 0
M  V30 3816 H 363.379 -3.19993 0.526763 0
M  V30 3817 H 363.164 -3.17484 2.30101 0
M  V30 3818 H 364.654 -3.86218 1.58826 0
M  V30 3819 N 365.091 -1.34144 -0.827227 0
M  V30 3820 C 366.319 -1.29325 -1.61501 0
M  V30 3821 C 366.734 0.13354 -1.88327 0
M  V30 3822 O 366.091 1.0793 -1.47164 0
M  V30 3823 C 366.142 -2.07746 -2.95844 0
M  V30 3824 O 365.863 -3.4486 -2.70191 0
M  V30 3825 C 367.364 -2.10273 -3.90256 0
M  V30 3826 H 364.584 -0.445069 -0.50215 0
M  V30 3827 H 367.128 -1.76693 -1.02955 0
M  V30 3828 H 365.283 -1.6403 -3.5096 0
M  V30 3829 H 365.697 -3.85345 -3.55822 0
M  V30 3830 H 367.171 -2.69575 -4.81698 0
M  V30 3831 H 367.648 -1.096 -4.25305 0
M  V30 3832 H 368.254 -2.54059 -3.41078 0
M  V30 3833 N 366.569 1.04691 -1.17803 0
M  V30 3834 C 367.532 2.10724 -0.901545 0
M  V30 3835 C 368.532 1.6042 0.110437 0
M  V30 3836 O 369.722 1.7377 -0.122303 0
M  V30 3837 C 366.854 3.39084 -0.351409 0
M  V30 3838 H 368.047 2.36686 -1.84174 0
M  V30 3839 H 365.6 1.21015 -0.98919 0
M  V30 3840 H 366.335 3.18782 0.59569 0
M  V30 3841 H 366.12 3.76909 -1.08083 0
M  V30 3842 H 367.61 4.17227 -0.176451 0
M  V30 3843 N 368.047 0.979072 1.23499 0
M  V30 3844 C 368.979 0.476271 2.24197 0
M  V30 3845 C 369.992 -0.421166 1.57258 0
M  V30 3846 O 371.181 -0.225515 1.7707 0
M  V30 3847 C 368.281 -0.330503 3.37285 0
M  V30 3848 C 367.454 0.559744 4.33804 0
M  V30 3849 C 366.513 -0.192954 5.25846 0
M  V30 3850 O 365.539 0.416978 5.67671 0
M  V30 3851 N 366.741 -1.47932 5.61334 0
M  V30 3852 H 369.506 1.34211 2.67969 0
M  V30 3853 H 367.067 0.852189 1.37657 0
M  V30 3854 H 369.059 -0.842361 3.95836 0
M  V30 3855 H 367.629 -1.09734 2.92707 0
M  V30 3856 H 366.849 1.25245 3.73775 0
M  V30 3857 H 368.137 1.1665 4.95248 0
M  V30 3858 H 367.535 -1.9964 5.29302 0
M  V30 3859 H 366.092 -1.93664 6.22364 0
M  V30 3860 N 369.525 -1.3858 0.750561 0
M  V30 3861 C 370.755 -2.04175 0.31564 0
M  V30 3862 C 371.163 -1.56726 -1.05989 0
M  V30 3863 O 370.506 -0.734225 -1.68389 0
M  V30 3864 C 370.568 -3.58585 0.256389 0
M  V30 3865 C 370.232 -4.29077 1.57296 0
M  V30 3866 C 371.229 -4.54656 2.52159 0
M  V30 3867 C 368.914 -4.67324 1.84156 0
M  V30 3868 C 370.908 -5.17512 3.72103 0
M  V30 3869 C 368.595 -5.29905 3.04374 0
M  V30 3870 C 369.593 -5.54933 3.98168 0
M  V30 3871 O 369.281 -6.16212 5.16273 0
M  V30 3872 H 369.013 -0.662742 0.133226 0
M  V30 3873 H 371.567 -1.78313 1.01948 0
M  V30 3874 H 369.797 -3.83406 -0.503677 0
M  V30 3875 H 371.486 -4.05628 -0.148612 0
M  V30 3876 H 372.252 -4.25539 2.32683 0
M  V30 3877 H 368.131 -4.47191 1.11988 0
M  V30 3878 H 371.675 -5.36963 4.45327 0
M  V30 3879 H 367.572 -5.58444 3.23745 0
M  V30 3880 H 368.34 -6.34701 5.16815 0
M  V30 3881 N 371.003 -0.499398 -1.49478 0
M  V30 3882 C 372.28 0.108629 -1.95298 0
M  V30 3883 C 372.66 1.54282 -1.44084 0
M  V30 3884 O 372.008 2.18944 -0.653908 0
M  V30 3885 C 372.218 0.0229111 -3.48992 0
M  V30 3886 C 373.566 0.197643 -4.2414 0
M  V30 3887 O 374.59 0.0981735 -3.56065 0
M  V30 3888 O 373.449 0.401669 -5.45022 0
M  V30 3889 H 370.543 0.096181 -0.821388 0
M  V30 3890 H 373.089 -0.561822 -1.6013 0
M  V30 3891 H 371.861 -0.977321 -3.78899 0
M  V30 3892 H 371.484 0.733579 -3.90774 0
M  V30 3893 N 372.481 1.55866 -0.233164 0
M  V30 3894 C 373.892 1.847 0.272554 0
M  V30 3895 C 374.243 1.15477 1.58617 0
M  V30 3896 O 373.368 0.42841 2.12117 0
M  V30 3897 C 373.963 3.35071 0.501299 0
M  V30 3898 C 372.522 3.6418 0.951304 0
M  V30 3899 C 371.669 2.77292 0.0208209 0
M  V30 3900 H 374.62 1.52005 -0.456074 0
M  V30 3901 H 374.641 3.55906 1.34577 0
M  V30 3902 H 374.153 3.85424 -0.454936 0
M  V30 3903 H 372.254 3.19293 1.92049 0
M  V30 3904 H 372.367 4.72071 0.817675 0
M  V30 3905 H 370.731 2.49131 0.529723 0
M  V30 3906 H 371.514 3.30448 -0.93054 0
M  V30 3907 N 373.959 -0.0401083 1.57549 0
M  V30 3908 C 374.889 -1.04384 2.08869 0
M  V30 3909 C 375.87 -1.38407 0.988817 0
M  V30 3910 O 377.055 -1.47483 1.26342 0
M  V30 3911 C 374.185 -2.34808 2.55895 0
M  V30 3912 C 373.139 -2.15057 3.70047 0
M  V30 3913 C 372.465 -3.51145 4.03239 0
M  V30 3914 C 373.765 -1.54576 4.98902 0
M  V30 3915 H 375.459 -0.616666 2.92981 0
M  V30 3916 H 373.005 -0.295184 1.40942 0
M  V30 3917 H 374.958 -3.05346 2.90417 0
M  V30 3918 H 373.682 -2.79565 1.68853 0
M  V30 3919 H 372.341 -1.46954 3.35857 0
M  V30 3920 H 371.989 -3.93529 3.13279 0
M  V30 3921 H 371.689 -3.38758 4.80122 0
M  V30 3922 H 373.213 -4.23062 4.40285 0
M  V30 3923 H 374.627 -2.15017 5.31451 0
M  V30 3924 H 373.024 -1.52796 5.80322 0
M  V30 3925 H 374.094 -0.51039 4.82206 0
M  V30 3926 N 375.437 -1.54477 -0.31217 0
M  V30 3927 C 376.853 -1.45442 -0.657185 0
M  V30 3928 C 377.053 -0.63653 -1.91182 0
M  V30 3929 O 376.109 -0.139815 -2.52113 0
M  V30 3930 C 377.422 -2.89287 -0.82058 0
M  V30 3931 C 378.97 -2.9926 -0.917188 0
M  V30 3932 C 379.445 -4.44279 -1.11267 0
M  V30 3933 N 380.936 -4.4794 -1.17914 0
M  V30 3934 C 381.671 -5.57318 -1.34848 0
M  V30 3935 N 381.167 -6.76642 -1.48752 0
M  V30 3936 N 382.96 -5.44986 -1.37647 0
M  V30 3937 H 375.111 -2.06129 0.512313 0
M  V30 3938 H 377.374 -0.933088 0.167485 0
M  V30 3939 H 377.08 -3.51687 0.0302604 0
M  V30 3940 H 376.954 -3.36061 -1.71298 0
M  V30 3941 H 379.341 -2.36981 -1.75852 0
M  V30 3942 H 379.422 -2.558 -0.00101257 0
M  V30 3943 H 379.066 -5.07149 -0.27614 0
M  V30 3944 H 378.996 -4.85359 -2.04289 0
M  V30 3945 H 381.487 -3.61969 -1.08567 0
M  V30 3946 H 381.8 -7.55758 -1.61397 0
M  V30 3947 H 380.145 -6.79529 -1.45828 0
M  V30 3948 H 383.336 -4.50715 -1.26388 0
M  V30 3949 H 383.509 -6.3028 -1.50501 0
M  V30 3950 N 376.915 0.57481 -1.46744 0
M  V30 3951 C 378.192 1.3352 -1.4294 0
M  V30 3952 C 378.572 2.10775 -0.117009 0
M  V30 3953 O 377.92 2.09966 0.901474 0
M  V30 3954 C 378.13 2.25456 -2.66403 0
M  V30 3955 C 379.478 2.87035 -3.12883 0
M  V30 3956 O 380.502 2.35766 -2.67007 0
M  V30 3957 O 379.361 3.80179 -3.92589 0
M  V30 3958 H 376.455 0.600318 -0.568812 0
M  V30 3959 H 379.001 0.595171 -1.58921 0
M  V30 3960 H 377.773 1.67851 -3.53471 0
M  V30 3961 H 377.396 3.06785 -2.52921 0
M  V30 3962 N 378.394 1.34581 0.820102 0
M  V30 3963 C 379.64 1.27285 1.57881 0
M  V30 3964 C 379.973 -0.156137 1.93571 0
M  V30 3965 O 379.248 -1.10222 1.60254 0
M  V30 3966 C 379.531 2.16639 2.87645 0
M  V30 3967 C 379.384 3.68088 2.58517 0
M  V30 3968 C 380.703 2.05378 3.8924 0
M  V30 3969 H 377.822 0.463714 0.572833 0
M  V30 3970 H 380.464 1.64859 0.944539 0
M  V30 3971 H 378.614 1.84725 3.41773 0
M  V30 3972 H 380.286 4.10382 2.10676 0
M  V30 3973 H 378.529 3.89038 1.91917 0
M  V30 3974 H 379.2 4.2598 3.51063 0
M  V30 3975 H 381.676 2.33404 3.44473 0
M  V30 3976 H 380.552 2.7012 4.77835 0
M  V30 3977 H 380.813 1.0316 4.29896 0
M  V30 3978 N 379.872 -1.04064 1.18357 0
M  V30 3979 C 381.12 -1.76915 0.977013 0
M  V30 3980 C 381.441 -1.88624 -0.494577 0
M  V30 3981 O 380.711 -1.41125 -1.3587 0
M  V30 3982 H 379.291 -0.65535 0.358504 0
M  V30 3983 H 381.953 -1.25592 1.49039 0
M  V30 3984 H 381.049 -2.78178 1.41504 0
M  V30 3985 N 381.35 -0.985608 -1.22978 0
M  V30 3986 C 382.297 -0.529825 -2.24636 0
M  V30 3987 C 383.267 0.434028 -1.60329 0
M  V30 3988 O 384.452 0.340414 -1.87739 0
M  V30 3989 C 381.592 0.156533 -3.44745 0
M  V30 3990 C 380.705 -0.848197 -4.23591 0
M  V30 3991 C 379.84 -0.136109 -5.31026 0
M  V30 3992 C 378.879 -1.1297 -6.01585 0
M  V30 3993 N 378.016 -0.446415 -7.00679 0
M  V30 3994 H 382.856 -1.40148 -2.62988 0
M  V30 3995 H 380.393 -0.702168 -1.29259 0
M  V30 3996 H 382.351 0.571324 -4.1327 0
M  V30 3997 H 380.981 0.992025 -3.07179 0
M  V30 3998 H 380.033 -1.38135 -3.54433 0
M  V30 3999 H 381.345 -1.60512 -4.72268 0
M  V30 4000 H 380.499 0.335784 -6.0577 0
M  V30 4001 H 379.238 0.653373 -4.83304 0
M  V30 4002 H 378.243 -1.6123 -5.25628 0
M  V30 4003 H 379.468 -1.91993 -6.51395 0
M  V30 4004 H 377.414 0.323763 -6.55201 0
M  V30 4005 H 377.331 -1.1419 -7.47326 0
M  V30 4006 H 378.599 0.00291697 -7.795 0
M  V30 4007 N 382.828 1.3818 -0.7579 0
M  V30 4008 C 383.758 2.33027 -0.148597 0
M  V30 4009 C 384.739 1.55085 0.69875 0
M  V30 4010 O 385.924 1.83384 0.639053 0
M  V30 4011 C 383.054 3.3928 0.742034 0
M  V30 4012 C 382.008 4.28 -0.00291946 0
M  V30 4013 C 381.334 5.25146 1.00625 0
M  V30 4014 C 382.634 5.08938 -1.17385 0
M  V30 4015 H 384.328 2.84231 -0.940909 0
M  V30 4016 H 381.874 1.36659 -0.453908 0
M  V30 4017 H 383.827 4.046 1.17799 0
M  V30 4018 H 382.551 2.86569 1.56671 0
M  V30 4019 H 381.21 3.64192 -0.419504 0
M  V30 4020 H 380.858 4.68721 1.8251 0
M  V30 4021 H 380.558 5.85361 0.512428 0
M  V30 4022 H 382.082 5.93342 1.44143 0
M  V30 4023 H 383.496 5.67474 -0.815224 0
M  V30 4024 H 381.893 5.7841 -1.59882 0
M  V30 4025 H 382.963 4.42424 -1.98468 0
M  V30 4026 N 384.306 0.507319 1.49211 0
M  V30 4027 C 385.536 -0.0315292 2.06576 0
M  V30 4028 C 385.944 -1.30791 1.36713 0
M  V30 4029 O 385.287 -1.78324 0.441181 0
M  V30 4030 C 385.349 -0.349104 3.57801 0
M  V30 4031 C 385.013 0.830475 4.49391 0
M  V30 4032 C 386.01 1.72271 4.90529 0
M  V30 4033 C 383.695 1.03107 4.91604 0
M  V30 4034 C 385.689 2.79964 5.72625 0
M  V30 4035 C 383.376 2.11116 5.73475 0
M  V30 4036 C 384.374 2.99379 6.1389 0
M  V30 4037 O 384.062 4.05523 6.94123 0
M  V30 4038 H 383.794 0.0201002 0.675701 0
M  V30 4039 H 386.348 0.705737 1.92895 0
M  V30 4040 H 384.578 -1.14005 3.69513 0
M  V30 4041 H 386.267 -0.827319 3.97379 0
M  V30 4042 H 387.033 1.57958 4.58557 0
M  V30 4043 H 382.912 0.353417 4.59643 0
M  V30 4044 H 386.456 3.48884 6.04091 0
M  V30 4045 H 382.353 2.25421 6.0486 0
M  V30 4046 H 383.121 4.02953 7.1244 0
M  V30 4047 N 385.784 -1.5574 0.241426 0
M  V30 4048 C 386.747 -2.19877 -0.647063 0
M  V30 4049 C 387.747 -1.16642 -1.10686 0
M  V30 4050 O 388.937 -1.41757 -1.01245 0
M  V30 4051 C 386.069 -2.83797 -1.88871 0
M  V30 4052 H 387.262 -2.99772 -0.087574 0
M  V30 4053 H 384.815 -1.56298 -0.00813574 0
M  V30 4054 H 385.55 -2.07824 -2.48957 0
M  V30 4055 H 385.335 -3.59414 -1.56728 0
M  V30 4056 H 386.825 -3.32898 -2.52129 0
M  V30 4057 N 387.262 0.0317525 -1.57568 0
M  V30 4058 C 388.172 1.05021 -2.0978 0
M  V30 4059 C 389.188 1.39809 -1.03583 0
M  V30 4060 O 390.364 1.49182 -1.35302 0
M  V30 4061 C 387.429 2.33301 -2.56459 0
M  V30 4062 C 386.49 2.0512 -3.77127 0
M  V30 4063 C 385.723 3.27283 -4.2157 0
M  V30 4064 O 385.946 4.37861 -3.65559 0
M  V30 4065 O 384.88 3.13141 -5.14029 0
M  V30 4066 H 388.706 0.636505 -2.96955 0
M  V30 4067 H 386.291 0.248559 -1.47318 0
M  V30 4068 H 388.173 3.08722 -2.86825 0
M  V30 4069 H 386.848 2.73973 -1.72397 0
M  V30 4070 H 385.755 1.27276 -3.51784 0
M  V30 4071 H 387.088 1.69305 -4.62165 0
M  V30 4072 N 388.74 1.54641 0.303973 0
M  V30 4073 C 389.703 1.84646 1.35789 0
M  V30 4074 C 390.703 0.7192 1.4382 0
M  V30 4075 O 391.893 0.987491 1.43507 0
M  V30 4076 C 389.025 2.02407 2.74307 0
M  V30 4077 H 390.218 2.78829 1.10429 0
M  V30 4078 H 387.771 1.46658 0.540487 0
M  V30 4079 H 388.506 1.10502 3.04893 0
M  V30 4080 H 388.291 2.84453 2.69868 0
M  V30 4081 H 389.781 2.27002 3.50514 0
M  V30 4082 N 390.218 -0.567019 1.47046 0
M  V30 4083 C 391.148 -1.68482 1.61667 0
M  V30 4084 C 392.129 -1.6358 0.466418 0
M  V30 4085 O 393.314 -1.81354 0.694574 0
M  V30 4086 C 390.444 -3.07124 1.62148 0
M  V30 4087 C 389.398 -3.26867 2.76301 0
M  V30 4088 C 388.724 -4.66196 2.61849 0
M  V30 4089 C 390.024 -3.13186 4.17986 0
M  V30 4090 H 391.718 -1.56502 2.5524 0
M  V30 4091 H 389.264 -0.751486 1.22836 0
M  V30 4092 H 391.217 -3.8516 1.70968 0
M  V30 4093 H 389.941 -3.2004 0.651287 0
M  V30 4094 H 388.6 -2.51237 2.66975 0
M  V30 4095 H 388.248 -4.75898 1.62879 0
M  V30 4096 H 387.948 -4.80356 3.38425 0
M  V30 4097 H 389.472 -5.46379 2.72584 0
M  V30 4098 H 390.886 -3.81049 4.2834 0
M  V30 4099 H 389.283 -3.3886 4.95272 0
M  V30 4100 H 390.353 -2.10057 4.3704 0
M  V30 4101 N 391.696 -1.35014 -0.812953 0
M  V30 4102 C 392.644 -1.27435 -1.94585 0
M  V30 4103 C 393.638 -0.170494 -1.6854 0
M  V30 4104 O 394.844 -0.336085 -1.76835 0
M  V30 4105 H 391.219 -0.396144 -0.639198 0
M  V30 4106 H 393.19 -2.23158 -1.98098 0
M  V30 4107 C 391.939 -1.05677 -3.31252 0
M  V30 4108 H 391.262 -1.89853 -3.51846 0
M  V30 4109 H 392.702 -1.04413 -4.10943 0
M  V30 4110 C 391.161 0.239615 -3.36047 0
M  V30 4111 O 391.691 1.23759 -3.8216 0
M  V30 4112 N 389.897 0.276186 -2.89285 0
M  V30 4113 H 389.444 -0.53653 -2.51951 0
M  V30 4114 H 389.402 1.14332 -2.92875 0
M  V30 4115 N 393.175 1.03435 -1.18907 0
M  V30 4116 C 394.122 2.11591 -0.921837 0
M  V30 4117 C 395.092 1.65499 0.141226 0
M  V30 4118 O 396.277 1.908 0.000242829 0
M  V30 4119 C 393.417 3.42012 -0.460616 0
M  V30 4120 C 392.53 4.01682 -1.58982 0
M  V30 4121 C 391.665 5.20091 -1.08069 0
M  V30 4122 C 390.704 5.71805 -2.18416 0
M  V30 4123 N 389.841 6.81494 -1.68849 0
M  V30 4124 H 394.681 2.33787 -1.8479 0
M  V30 4125 H 392.218 1.1467 -0.921373 0
M  V30 4126 H 394.176 4.16834 -0.174642 0
M  V30 4127 H 392.806 3.19944 0.428467 0
M  V30 4128 H 391.858 3.24127 -1.99113 0
M  V30 4129 H 393.17 4.36084 -2.4214 0
M  V30 4130 H 392.324 6.02051 -0.749615 0
M  V30 4131 H 391.063 4.87209 -0.218771 0
M  V30 4132 H 390.068 4.88461 -2.5236 0
M  V30 4133 H 391.293 6.06728 -3.05054 0
M  V30 4134 H 389.239 6.50475 -0.849572 0
M  V30 4135 H 389.156 7.14994 -2.45601 0
M  V30 4136 H 390.424 7.67063 -1.38689 0
M  V30 4137 N 394.653 0.992116 1.22453 0
M  V30 4138 C 395.616 0.546883 2.2258 0
M  V30 4139 C 396.616 -0.369829 1.56489 0
M  V30 4140 O 397.806 -0.161896 1.73446 0
M  V30 4141 C 394.938 -0.204659 3.40285 0
M  V30 4142 H 396.131 1.43234 2.63484 0
M  V30 4143 H 393.684 0.779239 1.3549 0
M  V30 4144 H 394.419 -1.10614 3.04853 0
M  V30 4145 H 394.204 0.45354 3.89468 0
M  V30 4146 H 395.694 -0.504358 4.14543 0
M  V30 4147 N 396.131 -1.37776 0.765217 0
M  V30 4148 C 397.379 -1.99454 0.325943 0
M  V30 4149 C 397.7 -1.61049 -1.09947 0
M  V30 4150 O 396.97 -0.872821 -1.75381 0
M  V30 4151 H 395.55 -0.737697 0.117525 0
M  V30 4152 H 398.212 -1.68359 0.981895 0
M  V30 4153 H 397.308 -3.09547 0.398353 0
M  V30 4154 N 397.609 -0.515225 -1.4894 0
M  V30 4155 C 398.855 0.0242508 -2.02785 0
M  V30 4156 C 399.188 1.35323 -1.39289 0
M  V30 4157 O 398.463 1.87041 -0.533469 0
M  V30 4158 C 398.746 0.16184 -3.59736 0
M  V30 4159 C 398.599 -1.19127 -4.33738 0
M  V30 4160 C 399.918 0.895719 -4.30888 0
M  V30 4161 H 397.037 0.00733914 -0.736963 0
M  V30 4162 H 399.679 -0.669395 -1.77818 0
M  V30 4163 H 397.829 0.752624 -3.8114 0
M  V30 4164 H 399.501 -1.82202 -4.23792 0
M  V30 4165 H 397.744 -1.77695 -3.95736 0
M  V30 4166 H 398.415 -1.04815 -5.41957 0
M  V30 4167 H 400.891 0.394528 -4.14225 0
M  V30 4168 H 399.767 0.960859 -5.40425 0
M  V30 4169 H 400.028 1.9427 -3.97129 0
M  V30 4170 N 399.087 1.5561 -0.249682 0
M  V30 4171 C 400.034 2.21496 0.648694 0
M  V30 4172 C 401.004 1.17977 1.16921 0
M  V30 4173 O 402.189 1.46434 1.22318 0
M  V30 4174 C 399.329 2.92039 1.83868 0
M  V30 4175 C 398.442 4.10219 1.35442 0
M  V30 4176 C 397.577 4.6847 2.50419 0
M  V30 4177 C 396.616 5.78893 1.98869 0
M  V30 4178 N 395.753 6.31315 3.07223 0
M  V30 4179 H 400.593 2.97892 0.0801582 0
M  V30 4180 H 398.13 1.47074 0.0278031 0
M  V30 4181 H 400.088 3.31138 2.53778 0
M  V30 4182 H 398.718 2.18111 2.37965 0
M  V30 4183 H 397.77 3.76413 0.54928 0
M  V30 4184 H 399.082 4.89927 0.936649 0
M  V30 4185 H 398.236 5.10158 3.28366 0
M  V30 4186 H 396.975 3.87984 2.95499 0
M  V30 4187 H 395.98 5.3668 1.19393 0
M  V30 4188 H 397.205 6.61232 1.54755 0
M  V30 4189 H 395.151 5.53733 3.51732 0
M  V30 4190 H 395.068 7.06224 2.69784 0
M  V30 4191 H 396.336 6.77662 3.8522 0
M  V30 4192 N 400.565 -0.0233959 1.57583 0
M  V30 4193 C 401.811 -0.714119 1.89811 0
M  V30 4194 C 402.144 -1.74702 0.848113 0
M  V30 4195 O 401.419 -1.94023 -0.136135 0
M  V30 4196 C 401.702 -1.37853 3.32669 0
M  V30 4197 C 401.555 -0.358764 4.48367 0
M  V30 4198 C 402.874 -2.31101 3.7454 0
M  V30 4199 H 399.993 -0.25814 0.690314 0
M  V30 4200 H 402.635 0.0230927 1.89986 0
M  V30 4201 H 400.785 -2.00689 3.3265 0
M  V30 4202 H 402.457 0.268115 4.6052 0
M  V30 4203 H 400.7 0.321387 4.32608 0
M  V30 4204 H 401.371 -0.862242 5.45224 0
M  V30 4205 H 403.847 -1.78304 3.75961 0
M  V30 4206 H 402.723 -2.74567 4.75294 0
M  V30 4207 H 402.984 -3.18018 3.0711 0
M  V30 4208 N 402.043 -1.548 -0.295768 0
M  V30 4209 C 402.953 -1.89177 -1.38742 0
M  V30 4210 C 403.969 -0.786481 -1.55211 0
M  V30 4211 O 405.145 -1.08344 -1.69775 0
M  V30 4212 C 402.21 -2.13663 -2.73036 0
M  V30 4213 C 401.271 -3.37349 -2.65508 0
M  V30 4214 C 400.504 -3.60658 -3.93398 0
M  V30 4215 O 400.727 -2.86882 -4.93006 0
M  V30 4216 O 399.661 -4.54179 -3.94975 0
M  V30 4217 H 403.487 -2.82059 -1.12589 0
M  V30 4218 H 401.072 -1.41056 -0.492295 0
M  V30 4219 H 402.954 -2.3094 -3.52484 0
M  V30 4220 H 401.629 -1.23967 -2.99022 0
M  V30 4221 H 400.536 -3.25431 -1.84514 0
M  V30 4222 H 401.869 -4.27192 -2.44474 0
M  V30 4223 N 403.521 0.559213 -1.47345 0
M  V30 4224 C 404.77 1.31281 -1.53128 0
M  V30 4225 C 405.083 1.94602 -0.197344 0
M  V30 4226 O 406.289 2.71173 -0.133154 0
M  V30 4227 C 404.745 2.38051 -2.69925 0
M  V30 4228 C 404.353 1.8093 -4.0984 0
M  V30 4229 C 406.097 3.14604 -2.84999 0
M  V30 4230 C 404.004 2.85468 -5.1794 0
M  V30 4231 H 402.934 0.493614 -0.569966 0
M  V30 4232 H 405.585 0.594155 -1.73615 0
M  V30 4233 H 403.967 3.12822 -2.42814 0
M  V30 4234 H 405.141 1.12544 -4.46845 0
M  V30 4235 H 403.456 1.16967 -3.99634 0
M  V30 4236 H 406.053 3.92666 -3.62929 0
M  V30 4237 H 406.396 3.68665 -1.93369 0
M  V30 4238 H 406.929 2.46945 -3.1187 0
M  V30 4239 H 403.668 2.36264 -6.1144 0
M  V30 4240 H 403.188 3.52269 -4.85455 0
M  V30 4241 H 404.867 3.48996 -5.44803 0
M  V30 4242 N 404.999 1.35443 0.805782 0
M  V30 4243 C 405.909 1.30546 1.94923 0
M  V30 4244 C 406.925 0.210233 1.72725 0
M  V30 4245 O 408.101 0.43975 1.9654 0
M  V30 4246 C 405.166 1.07782 3.29521 0
M  V30 4247 C 404.227 2.26625 3.64609 0
M  V30 4248 C 403.46 2.04938 4.92784 0
M  V30 4249 O 403.683 1.01624 5.61274 0
M  V30 4250 O 402.617 2.9232 5.26149 0
M  V30 4251 H 406.443 2.26779 2.02002 0
M  V30 4252 H 404.028 1.15823 0.943682 0
M  V30 4253 H 405.91 0.969392 4.10098 0
M  V30 4254 H 404.585 0.146003 3.23371 0
M  V30 4255 H 403.492 2.43033 2.84404 0
M  V30 4256 H 404.825 3.18257 3.75464 0
M  V30 4257 N 406.477 -1.02803 1.19454 0
M  V30 4258 C 407.425 -2.13213 0.929673 0
M  V30 4259 C 408.419 -1.69011 -0.114806 0
M  V30 4260 O 409.625 -1.79967 0.0345147 0
M  V30 4261 H 406 -0.69662 0.28324 0
M  V30 4262 H 407.971 -2.32744 1.86743 0
M  V30 4263 C 406.72 -3.4429 0.485797 0
M  V30 4264 H 406.043 -3.7872 1.28105 0
M  V30 4265 H 407.483 -4.22638 0.339582 0
M  V30 4266 C 405.942 -3.27258 -0.800244 0
M  V30 4267 O 406.472 -3.55967 -1.86146 0
M  V30 4268 N 404.678 -2.80545 -0.75781 0
M  V30 4269 H 404.225 -2.57382 0.106039 0
M  V30 4270 H 404.183 -2.6953 -1.61867 0
M  V30 4271 N 407.956 -0.998596 -1.21925 0
M  V30 4272 C 409.203 -0.677663 -1.90824 0
M  V30 4273 C 409.531 0.790905 -1.77693 0
M  V30 4274 O 408.786 1.58817 -1.14349 0
M  V30 4275 C 409.085 -1.03648 -3.42041 0
M  V30 4276 C 408.751 -2.49825 -3.75364 0
M  V30 4277 C 407.413 -2.8977 -3.8417 0
M  V30 4278 C 409.765 -3.44545 -3.91073 0
M  V30 4279 C 407.093 -4.23412 -4.06127 0
M  V30 4280 C 409.445 -4.77853 -4.14535 0
M  V30 4281 C 408.109 -5.17531 -4.21566 0
M  V30 4282 H 407.379 -0.247975 -0.698276 0
M  V30 4283 H 410.026 -1.25584 -1.44571 0
M  V30 4284 H 408.331 -0.376457 -3.89987 0
M  V30 4285 H 410.028 -0.766113 -3.93614 0
M  V30 4286 H 406.618 -2.17866 -3.69097 0
M  V30 4287 H 410.802 -3.14853 -3.83642 0
M  V30 4288 H 406.058 -4.53734 -4.09799 0
M  V30 4289 H 410.232 -5.51189 -4.25633 0
M  V30 4290 H 407.859 -6.21102 -4.38333 0
M  V30 4291 N 409.434 1.37368 -0.772513 0
M  V30 4292 C 410.344 2.34053 -0.160081 0
M  V30 4293 C 411.36 1.60216 0.678728 0
M  V30 4294 O 412.536 1.92303 0.59847 0
M  V30 4295 C 409.601 3.3939 0.708182 0
M  V30 4296 C 408.662 4.29048 -0.147172 0
M  V30 4297 C 407.895 5.29354 0.679744 0
M  V30 4298 O 408.118 5.3723 1.91678 0
M  V30 4299 O 407.052 6.01835 0.0885444 0
M  V30 4300 H 410.878 2.88159 -0.959053 0
M  V30 4301 H 408.463 1.39543 -0.533685 0
M  V30 4302 H 410.345 4.03839 1.20384 0
M  V30 4303 H 409.02 2.8761 1.48533 0
M  V30 4304 H 407.927 3.67697 -0.689205 0
M  V30 4305 H 409.26 4.84134 -0.887423 0
M  V30 4306 N 410.912 0.523116 1.48665 0
M  V30 4307 C 412.189 -0.0775449 1.95446 0
M  V30 4308 C 412.569 -1.5197 1.4652 0
M  V30 4309 O 411.917 -2.17876 0.688657 0
M  V30 4310 C 412.127 0.0326135 3.48985 0
M  V30 4311 C 413.475 -0.130141 4.24401 0
M  V30 4312 O 414.499 -0.0415142 3.56176 0
M  V30 4313 O 413.358 -0.31491 5.45592 0
M  V30 4314 H 410.452 -0.0831012 0.822814 0
M  V30 4315 H 412.998 0.587227 1.59216 0
M  V30 4316 H 411.77 1.03748 3.77296 0
M  V30 4317 H 411.393 -0.671317 3.91892 0
M  V30 4318 N 412.39 -1.55475 0.257931 0
M  V30 4319 C 413.32 -2.24815 -0.630912 0
M  V30 4320 C 414.301 -1.23224 -1.17259 0
M  V30 4321 O 415.486 -1.51904 -1.20991 0
M  V30 4322 C 412.616 -2.95609 -1.82298 0
M  V30 4323 C 411.57 -4.03982 -1.41359 0
M  V30 4324 C 410.896 -4.6226 -2.68738 0
M  V30 4325 C 412.196 -5.19109 -0.57648 0
M  V30 4326 H 413.89 -2.99354 -0.0526878 0
M  V30 4327 H 411.436 -1.4398 -0.023901 0
M  V30 4328 H 413.389 -3.42822 -2.45054 0
M  V30 4329 H 412.113 -2.18577 -2.42676 0
M  V30 4330 H 410.772 -3.57555 -0.809324 0
M  V30 4331 H 410.42 -3.81915 -3.27338 0
M  V30 4332 H 410.12 -5.35424 -2.42065 0
M  V30 4333 H 411.644 -5.12212 -3.32372 0
M  V30 4334 H 413.058 -5.62479 -1.10861 0
M  V30 4335 H 411.455 -5.98729 -0.405351 0
M  V30 4336 H 412.525 -4.83174 0.408776 0
M  V30 4337 N 413.868 0.0150385 -1.57593 0
M  V30 4338 C 415.117 0.702115 -1.89085 0
M  V30 4339 C 415.43 1.75764 -0.858277 0
M  V30 4340 O 416.636 2.49829 -1.0629 0
M  V30 4341 C 415.092 1.29992 -3.35604 0
M  V30 4342 C 414.7 0.280007 -4.47124 0
M  V30 4343 C 416.444 1.96606 -3.76227 0
M  V30 4344 C 414.351 0.886949 -5.84711 0
M  V30 4345 H 413.281 0.265997 -0.705522 0
M  V30 4346 H 415.932 -0.0430408 -1.8345 0
M  V30 4347 H 414.314 2.09525 -3.36029 0
M  V30 4348 H 415.488 -0.489631 -4.58191 0
M  V30 4349 H 413.803 -0.284835 -4.15425 0
M  V30 4350 H 416.4 2.42893 -4.76347 0
M  V30 4351 H 416.743 2.79024 -3.08952 0
M  V30 4352 H 417.276 1.23828 -3.78036 0
M  V30 4353 H 414.015 0.101876 -6.55421 0
M  V30 4354 H 413.535 1.6261 -5.77337 0
M  V30 4355 H 415.214 1.39011 -6.3189 0
M  V30 4356 N 415.346 1.54954 0.287554 0
M  V30 4357 C 416.296 1.8322 1.357 0
M  V30 4358 C 417.28 0.690152 1.45347 0
M  V30 4359 O 418.472 0.951137 1.49273 0
M  V30 4360 C 415.601 2.09481 2.71979 0
M  V30 4361 C 414.687 3.29906 2.66502 0
M  V30 4362 N 415.078 4.50154 2.30641 0
M  V30 4363 C 413.376 3.32203 2.97585 0
M  V30 4364 C 414.077 5.32209 2.34794 0
M  V30 4365 N 413.053 4.70258 2.72688 0
M  V30 4366 H 416.855 2.73746 1.0696 0
M  V30 4367 H 414.369 1.54635 0.496167 0
M  V30 4368 H 416.366 2.27882 3.49107 0
M  V30 4369 H 415.026 1.2023 3.0162 0
M  V30 4370 H 416.037 4.76515 2.02865 0
M  V30 4371 H 412.714 2.53101 3.32034 0
M  V30 4372 H 414.104 6.38321 2.09753 0
M  V30 4373 N 416.824 -0.551391 1.4764 0
M  V30 4374 C 418.072 -1.30572 1.54258 0
M  V30 4375 C 418.393 -1.93877 0.208963 0
M  V30 4376 O 417.663 -1.80234 -0.767619 0
M  V30 4377 H 416.243 -0.484894 0.568231 0
M  V30 4378 H 418.905 -0.643402 1.83974 0
M  V30 4379 H 418.001 -2.09621 2.31226 0
M  V30 4380 N 418.302 -1.35869 -0.798587 0
M  V30 4381 C 419.549 -1.29588 -1.55606 0
M  V30 4382 C 419.877 0.127456 -1.94082 0
M  V30 4383 O 419.132 1.09461 -1.62225 0
M  V30 4384 C 419.431 -2.1556 -2.85077 0
M  V30 4385 C 419.097 -3.6424 -2.65781 0
M  V30 4386 C 417.759 -4.04766 -2.60227 0
M  V30 4387 C 420.111 -4.58547 -2.47758 0
M  V30 4388 C 417.439 -5.37753 -2.34603 0
M  V30 4389 C 419.791 -5.91742 -2.23662 0
M  V30 4390 C 418.455 -6.31402 -2.16534 0
M  V30 4391 H 417.725 -0.474197 -0.569402 0
M  V30 4392 H 420.372 -1.67839 -0.922086 0
M  V30 4393 H 418.677 -1.70216 -3.52893 0
M  V30 4394 H 420.374 -2.08031 -3.42818 0
M  V30 4395 H 416.964 -3.32086 -2.70956 0
M  V30 4396 H 421.148 -4.28117 -2.51056 0
M  V30 4397 H 416.404 -5.67474 -2.2756 0
M  V30 4398 H 420.578 -6.6439 -2.08708 0
M  V30 4399 H 418.205 -7.34381 -1.96441 0
M  V30 4400 N 419.78 1.02168 -1.19998 0
M  V30 4401 C 420.743 2.08765 -0.94604 0
M  V30 4402 C 421.743 1.60618 0.0763846 0
M  V30 4403 O 422.933 1.73472 -0.159135 0
M  V30 4404 C 420.065 3.38262 -0.423255 0
M  V30 4405 H 421.258 2.32726 -1.89153 0
M  V30 4406 H 418.811 1.1889 -1.01464 0
M  V30 4407 H 419.546 3.19974 0.527938 0
M  V30 4408 H 419.331 3.74532 -1.16053 0
M  V30 4409 H 420.821 4.16759 -0.264911 0
M  V30 4410 N 421.258 1.00505 1.21394 0
M  V30 4411 C 422.19 0.52372 2.23136 0
M  V30 4412 C 423.203 -0.387714 1.58116 0
M  V30 4413 O 424.392 -0.187905 1.77508 0
M  V30 4414 C 421.492 -0.258885 3.3791 0
M  V30 4415 C 420.665 0.651634 4.32519 0
M  V30 4416 C 419.724 -0.0813705 5.26137 0
M  V30 4417 O 418.75 0.537295 5.66658 0
M  V30 4418 N 419.952 -1.35992 5.64346 0
M  V30 4419 H 422.717 1.39865 2.65062 0
M  V30 4420 H 420.278 0.881196 1.35818 0
M  V30 4421 H 422.27 -0.758208 3.97534 0
M  V30 4422 H 420.84 -1.035 2.94968 0
M  V30 4423 H 420.06 1.33145 3.71034 0
M  V30 4424 H 421.348 1.27129 4.92662 0
M  V30 4425 H 420.746 -1.88368 5.33417 0
M  V30 4426 H 419.303 -1.8042 6.26332 0
M  V30 4427 N 422.737 -1.36956 0.779787 0
M  V30 4428 C 423.984 -1.99491 0.347766 0
M  V30 4429 C 424.312 -1.61898 -1.07793 0
M  V30 4430 O 423.567 -0.86071 -1.75756 0
M  V30 4431 C 423.866 -3.54585 0.447686 0
M  V30 4432 C 423.532 -4.1197 1.83279 0
M  V30 4433 C 422.194 -4.27356 2.2118 0
M  V30 4434 C 424.546 -4.43354 2.74019 0
M  V30 4435 C 421.874 -4.71432 3.4924 0
M  V30 4436 C 424.226 -4.88858 4.01497 0
M  V30 4437 C 422.89 -5.0245 4.39432 0
M  V30 4438 H 422.16 -0.729991 0.127257 0
M  V30 4439 H 424.807 -1.63599 0.995376 0
M  V30 4440 H 423.112 -3.90773 -0.283447 0
M  V30 4441 H 424.809 -4.00888 0.0945948 0
M  V30 4442 H 421.399 -4.00428 1.52825 0
M  V30 4443 H 425.583 -4.31045 2.45995 0
M  V30 4444 H 420.839 -4.80141 3.78516 0
M  V30 4445 H 425.013 -5.12108 4.71931 0
M  V30 4446 H 422.64 -5.36362 5.38721 0
M  V30 4447 N 424.215 -0.530993 -1.48385 0
M  V30 4448 C 425.445 -0.00133928 -2.066 0
M  V30 4449 C 425.853 1.28599 -1.38777 0
M  V30 4450 O 425.196 1.77599 -0.469495 0
M  V30 4451 C 425.258 0.292137 -3.58311 0
M  V30 4452 C 424.922 -0.901864 -4.48013 0
M  V30 4453 C 425.919 -1.80053 -4.87726 0
M  V30 4454 C 423.604 -1.10915 -4.89901 0
M  V30 4455 C 425.598 -2.89038 -5.68098 0
M  V30 4456 C 423.285 -2.20213 -5.70043 0
M  V30 4457 C 424.283 -3.09107 -6.0905 0
M  V30 4458 O 423.971 -4.16514 -6.87583 0
M  V30 4459 H 423.703 -0.0308475 -0.675296 0
M  V30 4460 H 426.257 -0.736335 -1.91748 0
M  V30 4461 H 424.487 1.08112 -3.7128 0
M  V30 4462 H 426.176 0.763994 -3.98645 0
M  V30 4463 H 426.942 -1.65234 -4.55986 0
M  V30 4464 H 422.821 -0.426498 -4.59023 0
M  V30 4465 H 426.365 -3.58451 -5.98464 0
M  V30 4466 H 422.262 -2.35016 -6.01197 0
M  V30 4467 H 423.03 -4.14237 -7.05939 0
M  V30 4468 N 425.693 1.55336 -0.266172 0
M  V30 4469 C 426.918 2.04258 0.359661 0
M  V30 4470 C 427.343 1.14359 1.49344 0
M  V30 4471 O 426.701 0.140369 1.80756 0
M  V30 4472 C 426.749 3.50997 0.826635 0
M  V30 4473 O 425.853 3.64204 1.93466 0
M  V30 4474 H 425.194 0.659668 0.075727 0
M  V30 4475 H 427.724 2.00694 -0.39786 0
M  V30 4476 H 427.734 3.9219 1.12477 0
M  V30 4477 H 426.409 4.159 -0.00293032 0
M  V30 4478 H 424.986 3.34913 1.63974 0
M  V30 4479 N 427.171 -0.0066808 1.57599 0
M  V30 4480 C 428.101 -0.999296 2.11036 0
M  V30 4481 C 429.082 -1.36278 1.01795 0
M  V30 4482 O 430.267 -1.4477 1.29442 0
M  V30 4483 C 427.397 -2.29328 2.60818 0
M  V30 4484 C 426.351 -2.07159 3.74525 0
M  V30 4485 C 425.677 -3.42512 4.10596 0
M  V30 4486 C 426.977 -1.43959 5.02069 0
M  V30 4487 H 428.671 -0.554382 2.94223 0
M  V30 4488 H 426.217 -0.265221 1.41536 0
M  V30 4489 H 428.17 -2.99117 2.96828 0
M  V30 4490 H 426.894 -2.7592 1.74745 0
M  V30 4491 H 425.553 -1.39797 3.38899 0
M  V30 4492 H 425.201 -3.86795 3.21556 0
M  V30 4493 H 424.901 -3.28498 4.87199 0
M  V30 4494 H 426.425 -4.13628 4.4916 0
M  V30 4495 H 427.839 -2.03696 5.35893 0
M  V30 4496 H 426.236 -1.40452 5.83432 0
M  V30 4497 H 427.306 -0.407992 4.83181 0
M  V30 4498 N 428.649 -1.55105 -0.279332 0
M  V30 4499 C 429.874 -1.7976 -1.03446 0
M  V30 4500 C 430.299 -0.565952 -1.79384 0
M  V30 4501 O 429.657 0.484259 -1.74713 0
M  V30 4502 C 429.705 -3.0179 -1.97371 0
M  V30 4503 O 428.809 -2.76432 -3.06038 0
M  V30 4504 H 428.15 -0.594334 -0.29608 0
M  V30 4505 H 430.68 -2.02235 -0.310165 0
M  V30 4506 H 430.69 -3.30351 -2.39441 0
M  V30 4507 H 429.365 -3.91085 -1.4151 0
M  V30 4508 H 427.942 -2.58949 -2.68328 0
M  V30 4509 N 430.127 0.543554 -1.4793 0
M  V30 4510 C 431.538 1.12561 -1.48953 0
M  V30 4511 C 431.889 1.94578 -0.251754 0
M  V30 4512 O 431.014 2.0665 0.642255 0
M  V30 4513 C 431.609 2.04801 -2.69892 0
M  V30 4514 C 430.168 2.58251 -2.73831 0
M  V30 4515 C 429.315 1.34918 -2.42265 0
M  V30 4516 H 432.266 0.32947 -1.55242 0
M  V30 4517 H 432.287 2.88886 -2.47639 0
M  V30 4518 H 431.799 1.4508 -3.59963 0
M  V30 4519 H 429.9 3.21732 -1.87934 0
M  V30 4520 H 430.013 2.98312 -3.74895 0
M  V30 4521 H 428.377 1.66046 -1.93134 0
M  V30 4522 H 429.16 0.769693 -3.3456 0
M  V30 4523 N 431.605 1.3629 0.791371 0
M  V30 4524 C 432.853 1.30154 1.5461 0
M  V30 4525 C 433.174 -0.119409 1.94634 0
M  V30 4526 O 432.444 -1.05924 1.64794 0
M  V30 4527 H 431.024 0.478784 0.573389 0
M  V30 4528 H 433.686 1.70565 0.94306 0
M  V30 4529 H 432.782 1.92762 2.45457 0
M  V30 4530 N 433.083 -1.0153 1.20538 0
M  V30 4531 C 434.046 -2.0826 0.957098 0
M  V30 4532 C 435.046 -1.60657 -0.0678655 0
M  V30 4533 O 436.236 -1.73385 0.168332 0
M  V30 4534 C 433.368 -3.38033 0.441188 0
M  V30 4535 H 434.561 -2.31719 1.90384 0
M  V30 4536 H 432.114 -1.1835 1.02093 0
M  V30 4537 H 432.849 -3.20249 -0.510961 0
M  V30 4538 H 432.634 -3.73911 1.18038 0
M  V30 4539 H 434.124 -4.16613 0.287009 0
M  V30 4540 N 434.561 -1.01147 -1.20859 0
M  V30 4541 C 435.789 -0.716911 -1.94082 0
M  V30 4542 C 436.204 0.721568 -1.74467 0
M  V30 4543 O 435.561 1.48889 -1.05539 0
M  V30 4544 C 435.612 -1.03662 -3.46318 0
M  V30 4545 O 435.333 -2.4186 -3.65288 0
M  V30 4546 C 436.834 -0.762386 -4.36695 0
M  V30 4547 H 434.054 -0.26367 -0.617024 0
M  V30 4548 H 436.598 -1.35127 -1.53496 0
M  V30 4549 H 434.753 -0.447757 -3.84804 0
M  V30 4550 H 435.167 -2.53224 -4.59323 0
M  V30 4551 H 436.641 -1.03621 -5.42187 0
M  V30 4552 H 437.118 0.303514 -4.3815 0
M  V30 4553 H 437.724 -1.33316 -4.03865 0
M  V30 4554 N 436.039 1.36541 -0.78704 0
M  V30 4555 C 436.986 2.30082 -0.181901 0
M  V30 4556 C 437.956 1.5186 0.672896 0
M  V30 4557 O 439.141 1.80374 0.622072 0
M  V30 4558 C 436.281 3.3835 0.679197 0
M  V30 4559 C 435.394 4.31565 -0.193882 0
M  V30 4560 C 434.529 5.26915 0.673364 0
M  V30 4561 C 433.568 6.11769 -0.201315 0
M  V30 4562 N 432.705 6.99315 0.624777 0
M  V30 4563 H 437.545 2.81248 -0.985064 0
M  V30 4564 H 435.082 1.38437 -0.497342 0
M  V30 4565 H 437.04 3.99767 1.19341 0
M  V30 4566 H 435.67 2.8851 1.44781 0
M  V30 4567 H 434.722 3.71323 -0.826044 0
M  V30 4568 H 436.034 4.91191 -0.867937 0
M  V30 4569 H 435.188 5.9361 1.25348 0
M  V30 4570 H 433.927 4.67737 1.38105 0
M  V30 4571 H 432.932 5.44039 -0.793849 0
M  V30 4572 H 434.157 6.73022 -0.906568 0
M  V30 4573 H 432.103 6.42648 1.3168 0
M  V30 4574 H 432.02 7.56 0.00835237 0
M  V30 4575 H 433.288 7.70382 1.18879 0
M  V30 4576 N 437.518 0.538854 1.48102 0
M  V30 4577 C 438.481 -0.208395 2.28251 0
M  V30 4578 C 439.481 -0.859656 1.35892 0
M  V30 4579 O 440.671 -0.71834 1.58699 0
M  V30 4580 C 437.803 -1.30252 3.15035 0
M  V30 4581 H 438.996 0.495407 2.9578 0
M  V30 4582 H 436.549 0.295112 1.53489 0
M  V30 4583 H 437.284 -2.0393 2.52157 0
M  V30 4584 H 437.069 -0.840551 3.82985 0
M  V30 4585 H 438.559 -1.82787 3.75471 0
M  V30 4586 N 438.996 -1.55193 0.274407 0
M  V30 4587 C 439.926 -2.25471 -0.607032 0
M  V30 4588 C 440.907 -1.24461 -1.15946 0
M  V30 4589 O 442.092 -1.53179 -1.19373 0
M  V30 4590 C 439.222 -2.97526 -1.79153 0
M  V30 4591 C 438.176 -4.05459 -1.37067 0
M  V30 4592 C 437.502 -4.65084 -2.6382 0
M  V30 4593 C 438.802 -5.19691 -0.521389 0
M  V30 4594 H 440.496 -2.99393 -0.0209343 0
M  V30 4595 H 438.042 -1.43997 -0.00862866 0
M  V30 4596 H 439.995 -3.45402 -2.41404 0
M  V30 4597 H 438.719 -2.21138 -2.40344 0
M  V30 4598 H 437.378 -3.58393 -0.771355 0
M  V30 4599 H 437.026 -3.85365 -3.23268 0
M  V30 4600 H 436.726 -5.37961 -2.36372 0
M  V30 4601 H 438.25 -5.15708 -3.26921 0
M  V30 4602 H 439.664 -5.63623 -1.04889 0
M  V30 4603 H 438.061 -5.99126 -0.341825 0
M  V30 4604 H 439.131 -4.82713 0.46 0
M  V30 4605 N 440.474 -0.00167713 -1.576 0
M  V30 4606 C 441.72 0.683832 -1.90923 0
M  V30 4607 C 442.053 1.7333 -0.875799 0
M  V30 4608 O 441.328 1.94215 0.10525 0
M  V30 4609 C 441.611 1.32543 -3.3482 0
M  V30 4610 C 441.464 0.287387 -4.48881 0
M  V30 4611 C 442.783 2.25114 -3.78169 0
M  V30 4612 H 439.902 0.247125 -0.694333 0
M  V30 4613 H 442.544 -0.0533149 -1.89925 0
M  V30 4614 H 440.694 1.95372 -3.35801 0
M  V30 4615 H 442.366 -0.341346 -4.60035 0
M  V30 4616 H 440.609 -0.39017 -4.32042 0
M  V30 4617 H 441.28 0.775393 -5.46527 0
M  V30 4618 H 443.756 1.723 -3.7875 0
M  V30 4619 H 442.632 2.66971 -4.79602 0
M  V30 4620 H 442.893 3.13092 -3.12131 0
M  V30 4621 N 441.952 1.55251 0.271103 0
M  V30 4622 C 443.368 1.47133 0.618393 0
M  V30 4623 C 443.568 0.686994 1.89427 0
M  V30 4624 O 442.624 0.206609 2.51653 0
M  V30 4625 C 443.937 2.91361 0.743593 0
M  V30 4626 C 445.485 3.01587 0.837522 0
M  V30 4627 C 445.96 4.47073 0.994483 0
M  V30 4628 N 447.451 4.50909 1.05996 0
M  V30 4629 C 448.186 5.60698 1.20024 0
M  V30 4630 N 447.682 6.80348 1.30759 0
M  V30 4631 N 449.475 5.48444 1.23149 0
M  V30 4632 H 441.626 2.04698 -0.566784 0
M  V30 4633 H 443.889 0.928319 -0.192165 0
M  V30 4634 H 443.595 3.51483 -0.123493 0
M  V30 4635 H 443.469 3.40484 1.62328 0
M  V30 4636 H 445.856 2.4156 1.69507 0
M  V30 4637 H 445.937 2.55713 -0.0668086 0
M  V30 4638 H 445.581 5.07703 0.141582 0
M  V30 4639 H 445.511 4.90605 1.91349 0
M  V30 4640 H 448.002 3.6472 0.989316 0
M  V30 4641 H 448.315 7.59772 1.41303 0
M  V30 4642 H 446.66 6.83156 1.27761 0
M  V30 4643 H 449.851 4.53907 1.14394 0
M  V30 4644 H 450.024 6.34049 1.33738 0
M  V30 4645 N 443.43 -0.535701 1.48216 0
M  V30 4646 C 444.679 -1.28828 1.55197 0
M  V30 4647 C 444.992 -1.94263 0.228278 0
M  V30 4648 O 446.198 -2.70927 0.176278 0
M  V30 4649 C 444.654 -2.33727 2.73678 0
M  V30 4650 C 444.262 -1.74386 4.12666 0
M  V30 4651 C 446.006 -3.1003 2.89968 0
M  V30 4652 C 443.913 -2.77192 5.22416 0
M  V30 4653 H 442.843 -0.484484 0.577747 0
M  V30 4654 H 445.494 -0.56646 1.74538 0
M  V30 4655 H 443.876 -3.08919 2.4776 0
M  V30 4656 H 445.05 -1.05421 4.48579 0
M  V30 4657 H 443.365 -1.10595 4.01445 0
M  V30 4658 H 445.962 -3.86842 3.6913 0
M  V30 4659 H 446.305 -3.65542 1.9921 0
M  V30 4660 H 446.838 -2.41952 3.15759 0
M  V30 4661 H 443.577 -2.26507 6.15122 0
M  V30 4662 H 443.097 -3.44502 4.90998 0
M  V30 4663 H 444.776 -3.40285 5.50286 0
M  V30 4664 N 444.908 -1.36708 -0.784132 0
M  V30 4665 C 445.871 -1.31307 -1.87859 0
M  V30 4666 C 446.871 -0.219654 -1.59293 0
M  V30 4667 O 448.061 -0.47476 -1.67606 0
M  V30 4668 C 445.193 -1.03679 -3.24751 0
M  V30 4669 H 446.386 -2.28647 -1.94064 0
M  V30 4670 H 443.939 -1.21558 -0.98252 0
M  V30 4671 H 444.674 -0.0681936 -3.24228 0
M  V30 4672 H 444.459 -1.82811 -3.46876 0
M  V30 4673 H 445.949 -1.02518 -4.04821 0
M  V30 4674 N 446.386 1.0089 -1.21074 0
M  V30 4675 C 447.296 2.13039 -0.982425 0
M  V30 4676 C 448.312 1.73881 0.0642161 0
M  V30 4677 O 449.488 2.01012 -0.12496 0
M  V30 4678 C 446.553 3.42377 -0.545803 0
M  V30 4679 C 445.614 3.95731 -1.6642 0
M  V30 4680 C 444.847 5.18896 -1.24832 0
M  V30 4681 O 445.07 5.70273 -0.120265 0
M  V30 4682 O 444.004 5.65597 -2.05873 0
M  V30 4683 H 447.83 2.35175 -1.92163 0
M  V30 4684 H 445.415 1.1142 -0.995285 0
M  V30 4685 H 447.297 4.20244 -0.311912 0
M  V30 4686 H 445.972 3.21639 0.364727 0
M  V30 4687 H 444.879 3.19108 -1.95246 0
M  V30 4688 H 446.212 4.20872 -2.55201 0
M  V30 4689 N 447.864 1.01787 1.20321 0
M  V30 4690 C 448.811 0.589197 2.23153 0
M  V30 4691 C 449.781 -0.391367 1.61423 0
M  V30 4692 O 450.966 -0.290518 1.88575 0
M  V30 4693 C 448.106 -0.0650747 3.45039 0
M  V30 4694 C 447.219 0.960207 4.21194 0
M  V30 4695 C 446.354 0.276854 5.30478 0
M  V30 4696 C 445.393 1.2888 5.98378 0
M  V30 4697 N 444.53 0.632031 6.99249 0
M  V30 4698 H 449.37 1.47071 2.59179 0
M  V30 4699 H 446.907 0.736192 1.27352 0
M  V30 4700 H 448.865 -0.461552 4.14639 0
M  V30 4701 H 447.495 -0.910233 3.09701 0
M  V30 4702 H 446.547 1.47484 3.50646 0
M  V30 4703 H 447.859 1.72977 4.67847 0
M  V30 4704 H 447.013 -0.175056 6.06447 0
M  V30 4705 H 445.752 -0.525004 4.84866 0
M  V30 4706 H 444.757 1.75109 5.21169 0
M  V30 4707 H 445.982 2.09196 6.46076 0
M  V30 4708 H 443.928 -0.149935 6.55829 0
M  V30 4709 H 443.845 1.33964 7.44036 0
M  V30 4710 H 445.113 0.203755 7.79234 0
M  V30 4711 N 449.342 -1.36122 0.79427 0
M  V30 4712 C 450.272 -2.32551 0.210328 0
M  V30 4713 C 451.253 -1.56884 -0.657386 0
M  V30 4714 O 452.438 -1.85014 -0.590207 0
M  V30 4715 C 449.568 -3.41128 -0.651819 0
M  V30 4716 C 448.522 -4.27842 0.116395 0
M  V30 4717 C 447.848 -5.2763 -0.86666 0
M  V30 4718 C 449.148 -5.05647 1.30837 0
M  V30 4719 H 450.842 -2.81636 1.01594 0
M  V30 4720 H 448.388 -1.35407 0.489981 0
M  V30 4721 H 450.341 -4.07581 -1.07031 0
M  V30 4722 H 449.065 -2.90622 -1.49019 0
M  V30 4723 H 447.724 -3.62952 0.515915 0
M  V30 4724 H 447.372 -4.73395 -1.70019 0
M  V30 4725 H 447.072 -5.86514 -0.35705 0
M  V30 4726 H 448.596 -5.96955 -1.28361 0
M  V30 4727 H 450.01 -5.65113 0.965393 0
M  V30 4728 H 448.407 -5.73967 1.75161 0
M  V30 4729 H 449.477 -4.37006 2.10128 0
M  V30 4730 N 450.82 -0.546701 -1.47814 0
M  V30 4731 C 452.236 -0.205717 -1.58269 0
M  V30 4732 C 452.436 1.29153 -1.54667 0
M  V30 4733 O 451.492 2.07098 -1.44453 0
M  V30 4734 C 452.805 -0.823065 -2.89216 0
M  V30 4735 C 454.353 -0.793328 -3.02779 0
M  V30 4736 C 454.828 -1.38955 -4.36412 0
M  V30 4737 N 456.319 -1.35227 -4.43021 0
M  V30 4738 C 457.054 -1.78333 -5.44963 0
M  V30 4739 N 456.55 -2.29246 -6.53772 0
M  V30 4740 N 458.343 -1.69467 -5.35945 0
M  V30 4741 H 450.494 -1.5196 -1.48398 0
M  V30 4742 H 452.757 -0.633078 -0.705632 0
M  V30 4743 H 452.463 -1.8749 -2.97558 0
M  V30 4744 H 452.337 -0.309915 -3.75925 0
M  V30 4745 H 454.724 0.249784 -2.94041 0
M  V30 4746 H 454.805 -1.34412 -2.17639 0
M  V30 4747 H 454.449 -2.43168 -4.45906 0
M  V30 4748 H 454.379 -0.814291 -5.20266 0
M  V30 4749 H 456.87 -0.979739 -3.64979 0
M  V30 4750 H 457.183 -2.60089 -7.27718 0
M  V30 4751 H 455.528 -2.3325 -6.5469 0
M  V30 4752 H 458.719 -1.29477 -4.49837 0
M  V30 4753 H 458.892 -2.03381 -6.15256 0
M  V30 4754 N 452.299 1.55045 -0.282633 0
M  V30 4755 C 453.576 1.9179 0.384166 0
M  V30 4756 C 453.956 1.20778 1.73136 0
M  V30 4757 O 453.304 0.33719 2.25998 0
M  V30 4758 C 453.514 3.45149 0.517014 0
M  V30 4759 C 454.862 4.17064 0.796427 0
M  V30 4760 O 455.886 3.51084 0.601535 0
M  V30 4761 O 454.745 5.33837 1.16962 0
M  V30 4762 H 451.839 0.799483 0.211558 0
M  V30 4763 H 454.385 1.66474 -0.32934 0
M  V30 4764 H 453.157 3.88922 -0.430772 0
M  V30 4765 H 452.78 3.76443 1.2797 0
M  V30 4766 N 453.777 0.010035 1.57597 0
M  V30 4767 C 454.74 -0.963029 2.07986 0
M  V30 4768 C 455.74 -1.26619 0.991173 0
M  V30 4769 O 456.93 -1.2097 1.25347 0
M  V30 4770 C 454.062 -2.2851 2.52974 0
M  V30 4771 H 455.255 -0.526971 2.95234 0
M  V30 4772 H 452.808 -0.237639 1.54483 0
M  V30 4773 H 453.543 -2.76784 1.69 0
M  V30 4774 H 453.328 -2.07824 3.32493 0
M  V30 4775 H 454.818 -2.98294 2.9225 0
M  V30 4776 N 455.255 -1.55392 -0.262866 0
M  V30 4777 C 456.185 -1.91978 -1.32917 0
M  V30 4778 C 457.166 -0.7828 -1.51017 0
M  V30 4779 O 458.351 -1.04178 -1.63892 0
M  V30 4780 C 455.481 -2.20055 -2.68687 0
M  V30 4781 C 454.435 -3.35854 -2.65304 0
M  V30 4782 C 453.761 -3.49435 -4.04721 0
M  V30 4783 C 455.061 -4.71977 -2.23685 0
M  V30 4784 H 456.755 -2.81292 -1.02544 0
M  V30 4785 H 454.301 -1.3534 -0.491846 0
M  V30 4786 H 456.254 -2.44237 -3.43404 0
M  V30 4787 H 454.978 -1.27551 -3.00663 0
M  V30 4788 H 453.637 -3.11655 -1.93045 0
M  V30 4789 H 453.285 -2.54379 -4.33936 0
M  V30 4790 H 452.985 -4.27297 -4.0335 0
M  V30 4791 H 454.509 -3.7592 -4.81161 0
M  V30 4792 H 455.923 -4.95637 -2.88127 0
M  V30 4793 H 454.32 -5.52828 -2.33456 0
M  V30 4794 H 455.39 -4.70115 -1.18827 0
M  V30 4795 N 456.733 0.527833 -1.48498 0
M  V30 4796 C 457.696 1.61439 -1.62696 0
M  V30 4797 C 458.696 1.52824 -0.500136 0
M  V30 4798 O 459.886 1.56456 -0.765976 0
M  V30 4799 C 457.018 3.01063 -1.59918 0
M  V30 4800 H 458.211 1.50189 -2.59583 0
M  V30 4801 H 455.764 0.750055 -1.37127 0
M  V30 4802 H 456.499 3.17818 -0.645163 0
M  V30 4803 H 456.284 3.08725 -2.41726 0
M  V30 4804 H 457.774 3.80057 -1.73051 0
M  V30 4805 O 458.25 1.46817 0.672841 0
M  V30 4806 H 458.941 1.41236 1.3256 0
M  V30 END ATOM
M  V30 BEGIN BOND
M  V30 END BOND
M  V30 END CTAB
M  END
$$$$
