drugbank_target|P9WJJ7 Nicotinate-nucleotide pyrophosphorylase [carboxylating] (DB01796; DB02382; DB02746; DB04294)
 OpenBabel12092119523D

  0  0  0     0  0            999 V3000
M  V30 BEGIN CTAB
M  V30 COUNTS 4250 4275 0 0 0
M  V30 BEGIN ATOM
M  V30 1 H -0.908 1.98254 -0.117106 0
M  V30 2 N 0 1.576 0 0
M  V30 3 C 0.933 2.03868 1.02534 0
M  V30 4 C 1.911 0.928543 1.3348 0
M  V30 5 O 3.095 1.19667 1.45644 0
M  V30 6 C 0.222 2.43627 2.35294 0
M  V30 7 C -0.732 3.65373 2.2001 0
M  V30 8 S 0.101 5.13292 1.52614 0
M  V30 9 C 1.257 5.56322 2.86805 0
M  V30 10 H 1.49 2.90518 0.631377 0
M  V30 11 H -0.977 1.52953 0.210867 0
M  V30 12 H 0.981 2.67203 3.11629 0
M  V30 13 H -0.358 1.57376 2.7183 0
M  V30 14 H -1.165 3.90944 3.18086 0
M  V30 15 H -1.563 3.418 1.51819 0
M  V30 16 H 0.729 5.58782 3.83104 0
M  V30 17 H 1.672 6.56266 2.65933 0
M  V30 18 H 2.08 4.83886 2.90714 0
M  V30 19 N 1.4781 -0.272755 1.55222 0
M  V30 20 C 2.7261 -1.00234 1.75492 0
M  V30 21 C 3.0471 -1.8681 0.5592 0
M  V30 22 O 2.3171 -1.91215 -0.425882 0
M  V30 23 H 0.8971 -0.373076 0.647166 0
M  V30 24 H 3.5591 -0.296926 1.92625 0
M  V30 25 H 2.6551 -1.63913 2.65592 0
M  V30 26 N 2.9562 -1.48159 -0.537278 0
M  V30 27 C 3.8862 -1.65029 -1.6519 0
M  V30 28 C 4.8672 -0.499281 -1.62607 0
M  V30 29 O 6.0522 -0.730972 -1.79918 0
M  V30 30 C 3.1822 -1.68303 -3.03795 0
M  V30 31 C 2.1362 -2.8283 -3.21234 0
M  V30 32 C 1.4622 -2.71189 -4.60826 0
M  V30 33 C 2.7622 -4.24211 -3.04701 0
M  V30 34 H 4.4562 -2.58341 -1.51328 0
M  V30 35 H 2.0022 -1.24325 -0.726585 0
M  V30 36 H 3.9552 -1.78693 -3.81637 0
M  V30 37 H 2.6792 -0.715635 -3.18663 0
M  V30 38 H 1.3382 -2.71983 -2.45807 0
M  V30 39 H 0.9862 -1.72435 -4.7252 0
M  V30 40 H 0.6862 -3.48035 -4.7344 0
M  V30 41 H 2.2102 -2.83537 -5.40777 0
M  V30 42 H 3.6242 -4.3593 -3.72341 0
M  V30 43 H 2.0212 -5.01998 -3.28813 0
M  V30 44 H 3.0912 -4.41184 -2.01209 0
M  V30 45 N 4.4343 0.785586 -1.36625 0
M  V30 46 C 5.6593 1.57963 -1.34397 0
M  V30 47 C 6.0843 1.87964 0.071526 0
M  V30 48 O 5.4423 1.48182 1.0446 0
M  V30 49 C 5.4903 2.87511 -2.17646 0
M  V30 50 O 4.5943 3.81281 -1.57158 0
M  V30 51 H 3.9353 0.479014 -0.459828 0
M  V30 52 H 6.4653 0.973411 -1.79961 0
M  V30 53 H 6.4753 3.36745 -2.30362 0
M  V30 54 H 5.1503 2.65002 -3.20541 0
M  V30 55 H 3.7273 3.39885 -1.53403 0
M  V30 56 N 5.9124 1.20967 1.01018 0
M  V30 57 C 7.1894 0.93264 1.71934 0
M  V30 58 C 7.5694 -0.55692 2.03621 0
M  V30 59 O 6.9174 -1.52035 1.7058 0
M  V30 60 C 7.1274 1.81233 2.98254 0
M  V30 61 C 8.4754 2.05804 3.71389 0
M  V30 62 O 9.4994 1.78539 3.08225 0
M  V30 63 O 8.3584 2.51888 4.84989 0
M  V30 64 H 5.4524 0.349272 0.749625 0
M  V30 65 H 7.9984 1.31871 1.06808 0
M  V30 66 H 6.7704 2.82067 2.71208 0
M  V30 67 H 6.3934 1.42674 3.7112 0
M  V30 68 N 7.3905 -1.2043 1.01659 0
M  V30 69 C 8.6365 -1.90356 0.716674 0
M  V30 70 C 8.9915 -1.77367 -0.745557 0
M  V30 71 O 8.2845 -1.1471 -1.53467 0
M  V30 72 C 8.4785 -3.40464 1.08714 0
M  V30 73 C 8.3075 -3.6806 2.58384 0
M  V30 74 C 7.0775 -3.86775 3.25167 0
M  V30 75 C 9.2755 -3.70623 3.56572 0
M  V30 76 N 7.2575 -4.01889 4.64067 0
M  V30 77 C 8.6285 -3.91161 4.81034 0
M  V30 78 C 10.6835 -3.53586 3.50544 0
M  V30 79 C 9.3865 -3.96428 6.00198 0
M  V30 80 C 11.4125 -3.60125 4.6911 0
M  V30 81 C 10.7745 -3.81135 5.92381 0
M  V30 82 H 6.8735 -0.716226 0.313918 0
M  V30 83 H 9.4575 -1.44815 1.30141 0
M  V30 84 H 7.6285 -3.84757 0.530745 0
M  V30 85 H 9.3605 -3.97863 0.740763 0
M  V30 86 H 6.1155 -3.85156 2.75594 0
M  V30 87 H 6.5395 -4.13323 5.36184 0
M  V30 88 H 11.1815 -3.36308 2.56235 0
M  V30 89 H 8.8995 -4.12502 6.94887 0
M  V30 90 H 12.4855 -3.4825 4.66062 0
M  V30 91 H 11.3655 -3.86054 6.82592 0
M  V30 92 N 8.8686 -0.792821 -1.36206 0
M  V30 93 C 9.7786 -0.194808 -2.3379 0
M  V30 94 C 10.7946 0.654869 -1.61206 0
M  V30 95 O 11.9706 0.569856 -1.9317 0
M  V30 96 C 9.0356 0.657721 -3.40404 0
M  V30 97 C 8.0966 -0.210849 -4.28782 0
M  V30 98 C 7.3296 0.601086 -5.30304 0
M  V30 99 O 7.5526 1.83682 -5.40016 0
M  V30 100 O 6.4866 -0.000808277 -6.019 0
M  V30 101 H 10.3126 -1.00172 -2.86704 0
M  V30 102 H 7.8976 -0.554341 -1.38735 0
M  V30 103 H 9.7796 1.14375 -4.05581 0
M  V30 104 H 8.4546 1.44247 -2.89784 0
M  V30 105 H 7.3616 -0.743714 -3.66633 0
M  V30 106 H 8.6946 -0.959195 -4.82763 0
M  V30 107 N 10.3467 1.47872 -0.545128 0
M  V30 108 C 11.2767 2.32661 0.197793 0
M  V30 109 C 12.2577 1.43041 0.920504 0
M  V30 110 O 13.4427 1.71912 0.90333 0
M  V30 111 C 10.5727 3.24569 1.23582 0
M  V30 112 C 9.5267 4.23333 0.630323 0
M  V30 113 C 8.8527 5.0448 1.77211 0
M  V30 114 C 10.1527 5.20704 -0.407974 0
M  V30 115 H 11.8467 2.95024 -0.510045 0
M  V30 116 H 9.3927 1.4187 -0.246731 0
M  V30 117 H 11.3457 3.8272 1.76362 0
M  V30 118 H 10.0697 2.60236 1.97344 0
M  V30 119 H 8.7287 3.6639 0.123922 0
M  V30 120 H 8.3767 4.36561 2.49847 0
M  V30 121 H 8.0767 5.71339 1.37281 0
M  V30 122 H 9.6007 5.65487 2.3034 0
M  V30 123 H 11.0147 5.7329 0.033305 0
M  V30 124 H 9.4117 5.95699 -0.725486 0
M  V30 125 H 10.4817 4.66917 -1.30828 0
M  V30 126 N 11.8248 0.280983 1.55075 0
M  V30 127 C 12.7878 -0.590896 2.21452 0
M  V30 128 C 13.7878 -1.07682 1.19421 0
M  V30 129 O 14.9778 -0.97605 1.44288 0
M  V30 130 C 12.1098 -1.81587 2.88511 0
M  V30 131 H 13.3028 -0.0112554 2.99898 0
M  V30 132 H 10.8558 0.0316438 1.56268 0
M  V30 133 H 11.5908 -2.43587 2.14093 0
M  V30 134 H 11.3758 -1.4753 3.63287 0
M  V30 135 H 12.8658 -2.43575 3.39206 0
M  V30 136 N 13.3029 -1.57598 0.00835791 0
M  V30 137 C 14.2659 -2.07884 -0.965242 0
M  V30 138 C 15.2659 -0.989825 -1.26725 0
M  V30 139 O 16.4559 -1.25218 -1.21104 0
M  V30 140 C 13.5879 -2.52731 -2.28779 0
M  V30 141 H 14.7809 -2.95178 -0.530112 0
M  V30 142 H 12.3339 -1.54458 -0.239283 0
M  V30 143 H 13.0689 -1.68705 -2.76964 0
M  V30 144 H 12.8539 -3.32272 -2.08177 0
M  V30 145 H 14.3439 -2.91933 -2.98605 0
M  V30 146 N 14.781 0.264519 -1.55364 0
M  V30 147 C 15.744 1.31046 -1.88042 0
M  V30 148 C 16.744 1.41943 -0.755569 0
M  V30 149 O 17.934 1.40947 -1.02369 0
M  V30 150 C 15.066 2.69067 -2.09323 0
M  V30 151 H 16.259 1.03297 -2.81549 0
M  V30 152 H 13.812 0.502989 -1.47986 0
M  V30 153 H 14.547 3.01982 -1.18226 0
M  V30 154 H 14.332 2.62542 -2.91229 0
M  V30 155 H 15.822 3.44623 -2.35848 0
M  V30 156 N 16.2591 1.48442 0.529413 0
M  V30 157 C 17.6751 1.34575 0.858004 0
M  V30 158 C 17.8751 0.3572 1.98309 0
M  V30 159 O 16.9311 -0.221379 2.51528 0
M  V30 160 C 18.2441 2.74617 1.22499 0
M  V30 161 C 19.7921 2.83109 1.33484 0
M  V30 162 C 20.2671 4.23854 1.73526 0
M  V30 163 N 21.7581 4.2653 1.80628 0
M  V30 164 C 22.4931 5.32372 2.12997 0
M  V30 165 N 21.9891 6.48491 2.43786 0
M  V30 166 N 23.7821 5.19766 2.14008 0
M  V30 167 H 15.9331 2.1133 -0.212925 0
M  V30 168 H 18.1961 0.947439 -0.0326199 0
M  V30 169 H 17.9021 3.4852 0.471905 0
M  V30 170 H 17.7761 3.08177 2.17501 0
M  V30 171 H 20.1631 2.09462 2.0787 0
M  V30 172 H 20.2441 2.53168 0.366027 0
M  V30 173 H 19.8881 4.98018 0.997013 0
M  V30 174 H 19.8181 4.5124 2.71459 0
M  V30 175 H 22.3091 3.42772 1.59108 0
M  V30 176 H 22.6221 7.24993 2.67592 0
M  V30 177 H 20.9671 6.51765 2.41304 0
M  V30 178 H 24.1581 4.28066 1.89412 0
M  V30 179 H 24.3311 6.02354 2.38902 0
M  V30 180 N 17.7372 -0.778329 1.37039 0
M  V30 181 C 18.7002 -1.87301 1.32102 0
M  V30 182 C 19.7002 -1.59198 0.226405 0
M  V30 183 O 20.8902 -1.67403 0.481861 0
M  V30 184 C 18.0222 -3.24309 1.05055 0
M  V30 185 H 19.2152 -1.93093 2.29467 0
M  V30 186 H 16.7682 -0.977358 1.21973 0
M  V30 187 H 17.5032 -3.24196 0.0819373 0
M  V30 188 H 17.2882 -3.46098 1.84279 0
M  V30 189 H 18.7782 -4.04382 1.04234 0
M  V30 190 N 19.2153 -1.21501 -1.00376 0
M  V30 191 C 20.1783 -0.976927 -2.07337 0
M  V30 192 C 21.1783 0.0525322 -1.60714 0
M  V30 193 O 22.3683 -0.184869 -1.73216 0
M  V30 194 C 19.5003 -0.473423 -3.37597 0
M  V30 195 H 20.6933 -1.92587 -2.29892 0
M  V30 196 H 18.2463 -1.03217 -1.17371 0
M  V30 197 H 18.9813 0.480379 -3.20722 0
M  V30 198 H 18.7663 -1.216 -3.72768 0
M  V30 199 H 20.2563 -0.32675 -4.1632 0
M  V30 200 N 20.6934 1.19889 -1.02296 0
M  V30 201 C 21.9424 1.88743 -0.711257 0
M  V30 202 C 22.2554 1.80112 0.762817 0
M  V30 203 O 23.4614 2.44161 1.18733 0
M  V30 204 C 21.9174 3.38525 -1.22185 0
M  V30 205 C 21.5254 3.55727 -2.72328 0
M  V30 206 C 23.2694 4.12893 -0.985864 0
M  V30 207 C 21.1764 4.99369 -3.16835 0
M  V30 208 H 20.1064 0.706885 -0.262353 0
M  V30 209 H 22.7574 1.35586 -1.23648 0
M  V30 210 H 21.1394 3.91044 -0.624571 0
M  V30 211 H 22.3134 3.13564 -3.3766 0
M  V30 212 H 20.6284 2.94739 -2.9414 0
M  V30 213 H 23.2254 5.18813 -1.29374 0
M  V30 214 H 23.5684 4.16228 0.0775055 0
M  V30 215 H 24.1014 3.66494 -1.54684 0
M  V30 216 H 20.8404 5.01193 -4.22476 0
M  V30 217 H 20.3604 5.42317 -2.56228 0
M  V30 218 H 22.0394 5.67988 -3.09837 0
M  V30 219 N 22.1715 0.800033 1.35784 0
M  V30 220 C 23.1345 0.211565 2.28221 0
M  V30 221 C 24.1345 -0.59728 1.49296 0
M  V30 222 O 25.3245 -0.416721 1.69142 0
M  V30 223 C 22.4565 -0.705846 3.33513 0
M  V30 224 H 23.6495 1.02677 2.81776 0
M  V30 225 H 21.2025 0.570211 1.45528 0
M  V30 226 H 21.9375 -1.54498 2.85133 0
M  V30 227 H 21.7225 -0.127655 3.91892 0
M  V30 228 H 23.2125 -1.11211 4.02519 0
M  V30 229 N 23.6496 -1.47581 0.552962 0
M  V30 230 C 25.0656 -1.5818 0.212424 0
M  V30 231 C 25.2656 -1.55213 -1.28496 0
M  V30 232 O 24.3216 -1.45329 -2.06484 0
M  V30 233 C 25.6346 -2.88865 0.835318 0
M  V30 234 C 27.1826 -3.0244 0.806156 0
M  V30 235 C 27.6576 -4.35819 1.40804 0
M  V30 236 N 29.1486 -4.42444 1.37103 0
M  V30 237 C 29.8836 -5.44202 1.80641 0
M  V30 238 N 29.3796 -6.52795 2.32015 0
M  V30 239 N 31.1726 -5.35222 1.71738 0
M  V30 240 H 23.3236 -1.47753 1.52587 0
M  V30 241 H 25.5866 -0.702941 0.636064 0
M  V30 242 H 25.2926 -2.9676 1.88749 0
M  V30 243 H 25.1666 -3.7579 0.325848 0
M  V30 244 H 27.5536 -2.94144 -0.237317 0
M  V30 245 H 27.6346 -2.17068 1.35334 0
M  V30 246 H 27.2786 -4.44871 2.45056 0
M  V30 247 H 27.2086 -5.19916 0.836338 0
M  V30 248 H 29.6996 -3.6456 0.995202 0
M  V30 249 H 30.0126 -7.26609 2.63171 0
M  V30 250 H 28.3576 -6.53696 2.36023 0
M  V30 251 H 31.5486 -4.49284 1.31382 0
M  V30 252 H 31.7216 -6.14389 2.05987 0
M  V30 253 N 25.1277 -0.289203 -1.54924 0
M  V30 254 C 26.3757 0.322879 -1.99504 0
M  V30 255 C 26.6967 1.55313 -1.1791 0
M  V30 256 O 25.9667 1.94001 -0.272097 0
M  V30 257 H 24.5467 0.122291 -0.736922 0
M  V30 258 H 27.2087 -0.397802 -1.90797 0
M  V30 259 H 26.3047 0.603061 -3.06218 0
M  V30 260 N 26.6058 1.57591 -0.0167156 0
M  V30 261 C 27.5358 2.12496 0.967858 0
M  V30 262 C 28.5168 1.03807 1.34752 0
M  V30 263 O 29.7018 1.31577 1.42833 0
M  V30 264 C 26.8318 2.64194 2.25431 0
M  V30 265 C 25.7858 3.77559 2.01576 0
M  V30 266 C 25.1118 4.15636 3.36379 0
M  V30 267 C 26.4118 5.04151 1.36489 0
M  V30 268 H 28.1058 2.95013 0.510643 0
M  V30 269 H 25.6518 1.41915 0.244181 0
M  V30 270 H 27.6048 3.01236 2.94678 0
M  V30 271 H 26.3288 1.78821 2.73296 0
M  V30 272 H 24.9878 3.40937 1.34751 0
M  V30 273 H 24.6358 3.27263 3.81979 0
M  V30 274 H 24.3358 4.92022 3.21229 0
M  V30 275 H 25.8598 4.5525 4.06915 0
M  V30 276 H 27.2738 5.38857 1.95718 0
M  V30 277 H 25.6708 5.85453 1.31776 0
M  V30 278 H 26.7408 4.83733 0.336219 0
M  V30 279 N 28.0839 -0.256276 1.55502 0
M  V30 280 C 29.3609 -1.00789 1.67633 0
M  V30 281 C 29.7409 -2.03706 0.553826 0
M  V30 282 O 29.0889 -2.24145 -0.443969 0
M  V30 283 C 29.2989 -1.64968 3.07549 0
M  V30 284 C 30.6469 -2.15505 3.65845 0
M  V30 285 O 31.6709 -1.74925 3.1029 0
M  V30 286 O 30.5299 -2.89986 4.63217 0
M  V30 287 H 27.6239 -0.468553 0.681459 0
M  V30 288 H 30.1699 -0.250806 1.67836 0
M  V30 289 H 28.9419 -0.904785 3.80696 0
M  V30 290 H 28.5649 -2.47321 3.11317 0
M  V30 291 N 29.562 -1.4872 -0.521534 0
M  V30 292 C 30.472 -1.66569 -1.65203 0
M  V30 293 C 31.488 -0.548197 -1.65139 0
M  V30 294 O 32.664 -0.820339 -1.83936 0
M  V30 295 C 29.729 -1.70917 -3.01642 0
M  V30 296 C 28.79 -2.94356 -3.12495 0
M  V30 297 C 28.023 -2.98487 -4.42426 0
M  V30 298 O 28.246 -2.10786 -5.30024 0
M  V30 299 O 27.18 -3.90746 -4.57822 0
M  V30 300 H 31.006 -2.62298 -1.5308 0
M  V30 301 H 28.591 -1.3222 -0.695565 0
M  V30 302 H 30.473 -1.7625 -3.82771 0
M  V30 303 H 29.148 -0.783633 -3.14071 0
M  V30 304 H 28.055 -2.94552 -2.3063 0
M  V30 305 H 29.388 -3.86322 -3.04986 0
M  V30 306 N 31.0401 0.771051 -1.3745 0
M  V30 307 C 32.3171 1.519 -1.23231 0
M  V30 308 C 32.6971 2.10383 0.173809 0
M  V30 309 O 32.0451 1.95583 1.18151 0
M  V30 310 C 32.2551 2.59933 -2.32886 0
M  V30 311 C 33.6031 3.27316 -2.70461 0
M  V30 312 O 34.6271 2.70228 -2.32068 0
M  V30 313 O 33.4861 4.30531 -3.36608 0
M  V30 314 H 30.5801 0.672803 -0.480901 0
M  V30 315 H 33.1261 0.807957 -1.49232 0
M  V30 316 H 31.8981 2.14842 -3.27045 0
M  V30 317 H 31.5211 3.38637 -2.08353 0
M  V30 318 N 32.5182 1.22032 0.997298 0
M  V30 319 C 33.4482 1.01065 2.10495 0
M  V30 320 C 34.4292 -0.0669542 1.69968 0
M  V30 321 O 35.6142 0.0943987 1.9397 0
M  V30 322 C 32.7442 0.582874 3.42374 0
M  V30 323 C 31.6982 1.60592 3.96729 0
M  V30 324 C 31.0242 1.03412 5.24605 0
M  V30 325 C 32.3242 2.99478 4.27914 0
M  V30 326 H 34.0182 1.93708 2.28292 0
M  V30 327 H 31.5642 0.932761 1.09707 0
M  V30 328 H 33.5172 0.423332 4.19268 0
M  V30 329 H 32.2412 -0.379213 3.24391 0
M  V30 330 H 30.9002 1.75316 3.21963 0
M  V30 331 H 30.5482 0.063518 5.0296 0
M  V30 332 H 30.2482 1.71754 5.61938 0
M  V30 333 H 31.7722 0.886066 6.04137 0
M  V30 334 H 33.1862 2.88153 4.95622 0
M  V30 335 H 31.5832 3.64903 4.76409 0
M  V30 336 H 32.6532 3.49742 3.3587 0
M  V30 337 N 33.9963 -1.19345 1.0293 0
M  V30 338 C 35.4123 -1.41069 0.746446 0
M  V30 339 C 35.6123 -1.90078 -0.668776 0
M  V30 340 O 34.6683 -2.0778 -1.4347 0
M  V30 341 C 35.9813 -2.42141 1.78292 0
M  V30 342 C 37.5293 -2.55887 1.80252 0
M  V30 343 C 38.0043 -3.60214 2.8286 0
M  V30 344 N 39.4953 -3.67711 2.81679 0
M  V30 345 C 40.2303 -4.48128 3.57727 0
M  V30 346 N 39.7263 -5.32248 4.43491 0
M  V30 347 N 41.5193 -4.42782 3.46267 0
M  V30 348 H 33.6703 -0.858536 1.94275 0
M  V30 349 H 35.9333 -0.439541 0.839945 0
M  V30 350 H 35.6393 -2.13155 2.79746 0
M  V30 351 H 35.5133 -3.41323 1.60557 0
M  V30 352 H 37.9003 -2.84196 0.794757 0
M  V30 353 H 37.9813 -1.56858 2.02062 0
M  V30 354 H 37.6253 -3.32647 3.83807 0
M  V30 355 H 37.5553 -4.58895 2.58307 0
M  V30 356 H 40.0463 -3.07634 2.19476 0
M  V30 357 H 40.3593 -5.90729 4.98256 0
M  V30 358 H 38.7043 -5.31707 4.47564 0
M  V30 359 H 41.8953 -3.76107 2.78677 0
M  V30 360 H 42.0683 -5.05215 4.05785 0
M  V30 361 N 35.4744 -0.807222 -1.35358 0
M  V30 362 C 36.7044 -0.399796 -2.02695 0
M  V30 363 C 37.1124 0.994176 -1.60974 0
M  V30 364 O 36.4554 1.65209 -0.803226 0
M  V30 365 C 36.5174 -0.404445 -3.57218 0
M  V30 366 C 36.1814 -1.74904 -4.22206 0
M  V30 367 C 37.1784 -2.70743 -4.4384 0
M  V30 368 C 34.8634 -2.03322 -4.5931 0
M  V30 369 C 36.8574 -3.93183 -5.01683 0
M  V30 370 C 34.5444 -3.26026 -5.16866 0
M  V30 371 C 35.5424 -4.20774 -5.37994 0
M  V30 372 O 35.2304 -5.41312 -5.94337 0
M  V30 373 H 34.9624 -0.160517 -0.656666 0
M  V30 374 H 37.5164 -1.09235 -1.73945 0
M  V30 375 H 35.7464 0.344707 -3.85161 0
M  V30 376 H 37.4354 -0.0192429 -4.05895 0
M  V30 377 H 38.2014 -2.5008 -4.15554 0
M  V30 378 H 34.0804 -1.30384 -4.42178 0
M  V30 379 H 37.6244 -4.6715 -5.1809 0
M  V30 380 H 33.5214 -3.46559 -5.44579 0
M  V30 381 H 34.2894 -5.42618 -6.12787 0
M  V30 382 N 36.9525 1.47285 -0.560781 0
M  V30 383 C 38.2005 2.02064 -0.0379868 0
M  V30 384 C 38.5215 1.43711 1.31803 0
M  V30 385 O 37.7915 0.61362 1.86042 0
M  V30 386 H 36.3715 0.746918 -0.0110531 0
M  V30 387 H 39.0335 1.80648 -0.731598 0
M  V30 388 H 38.1295 3.12064 0.0474463 0
M  V30 389 N 38.4306 0.297415 1.54768 0
M  V30 390 C 39.8416 -0.195947 1.85669 0
M  V30 391 C 40.1926 -1.53707 1.21937 0
M  V30 392 O 39.3176 -2.10164 0.515754 0
M  V30 393 C 39.9126 -0.362318 3.36857 0
M  V30 394 C 38.4716 -0.799901 3.67802 0
M  V30 395 C 37.6186 0.0938578 2.77141 0
M  V30 396 H 40.5696 0.518538 1.4999 0
M  V30 397 H 40.5906 -1.19745 3.61167 0
M  V30 398 H 40.1026 0.613921 3.83214 0
M  V30 399 H 38.2036 -1.78682 3.26961 0
M  V30 400 H 38.3166 -0.621773 4.75048 0
M  V30 401 H 36.6806 -0.426254 2.51108 0
M  V30 402 H 37.4636 1.06639 3.26318 0
M  V30 403 N 39.9087 -1.5758 0.0250728 0
M  V30 404 C 41.1857 -1.82917 -0.692873 0
M  V30 405 C 41.5657 -0.908137 -1.90568 0
M  V30 406 O 40.9137 0.0372298 -2.2847 0
M  V30 407 C 41.1237 -3.32034 -1.07492 0
M  V30 408 C 42.4717 -3.98406 -1.46826 0
M  V30 409 O 43.4957 -3.36505 -1.16801 0
M  V30 410 O 42.3547 -5.07497 -2.02754 0
M  V30 411 H 39.4487 -0.754079 -0.33955 0
M  V30 412 H 41.9947 -1.69619 0.0524456 0
M  V30 413 H 40.7667 -3.90728 -0.211552 0
M  V30 414 H 40.3897 -3.50424 -1.87854 0
M  V30 415 N 41.3868 0.248026 -1.55636 0
M  V30 416 C 42.6328 0.97767 -1.77678 0
M  V30 417 C 42.9658 1.85016 -0.590135 0
M  V30 418 O 42.2408 1.90095 0.411611 0
M  V30 419 C 42.5238 1.83914 -3.09593 0
M  V30 420 C 42.3768 0.99491 -4.38659 0
M  V30 421 C 43.6958 2.82183 -3.37729 0
M  V30 422 H 40.8148 0.354005 -0.646413 0
M  V30 423 H 43.4568 0.248253 -1.88371 0
M  V30 424 H 41.6068 2.46104 -3.00608 0
M  V30 425 H 43.2788 0.391789 -4.59633 0
M  V30 426 H 41.5218 0.299231 -4.32767 0
M  V30 427 H 42.1928 1.63145 -5.2734 0
M  V30 428 H 44.6688 2.30129 -3.4667 0
M  V30 429 H 43.5448 3.39582 -4.31249 0
M  V30 430 H 43.8058 3.58588 -2.58586 0
M  V30 431 N 42.8649 1.48995 0.513639 0
M  V30 432 C 44.0929 1.61531 1.29288 0
M  V30 433 C 44.5079 0.281801 1.86685 0
M  V30 434 O 43.8649 -0.731111 1.67215 0
M  V30 435 C 43.9159 2.67449 2.43215 0
M  V30 436 O 43.6369 3.95626 1.88179 0
M  V30 437 C 45.1379 2.90575 3.34785 0
M  V30 438 H 42.3579 0.544165 0.392588 0
M  V30 439 H 44.9019 1.9494 0.617956 0
M  V30 440 H 43.0569 2.36853 3.0656 0
M  V30 441 H 43.4709 4.53868 2.62876 0
M  V30 442 H 44.9449 3.68449 4.11035 0
M  V30 443 H 45.4219 2.00011 3.91015 0
M  V30 444 H 46.0279 3.22538 2.77218 0
M  V30 445 N 44.343 -0.763751 1.37857 0
M  V30 446 C 45.571 -1.55293 1.36718 0
M  V30 447 C 45.986 -1.88745 -0.0455434 0
M  V30 448 O 45.343 -1.52039 -1.00947 0
M  V30 449 C 45.394 -2.85831 2.2132 0
M  V30 450 O 45.115 -2.5381 3.57089 0
M  V30 451 C 46.616 -3.80023 2.28249 0
M  V30 452 H 43.836 -0.480841 0.468009 0
M  V30 453 H 46.38 -0.946009 1.81303 0
M  V30 454 H 44.535 -3.42926 1.80223 0
M  V30 455 H 44.949 -3.37459 4.01524 0
M  V30 456 H 46.423 -4.68599 2.91752 0
M  V30 457 H 46.9 -4.1973 1.2932 0
M  V30 458 H 47.506 -3.28855 2.69693 0
M  V30 459 N 45.8211 -1.22559 -0.990812 0
M  V30 460 C 46.7511 -1.0218 -2.09956 0
M  V30 461 C 47.7321 0.0579394 -1.70001 0
M  V30 462 O 48.9171 -0.104684 -1.93918 0
M  V30 463 C 46.0471 -0.601023 -3.4206 0
M  V30 464 C 45.0011 -1.62694 -3.95872 0
M  V30 465 C 44.3271 -1.06193 -5.24049 0
M  V30 466 C 45.6271 -3.01743 -4.2632 0
M  V30 467 H 47.3211 -1.94916 -2.27262 0
M  V30 468 H 44.8671 -0.938566 -1.09211 0
M  V30 469 H 46.8201 -0.445561 -4.19038 0
M  V30 470 H 45.5441 0.362005 -3.24588 0
M  V30 471 H 44.2031 -1.77021 -3.21028 0
M  V30 472 H 43.8511 -0.0901903 -5.02919 0
M  V30 473 H 43.5511 -1.74732 -5.61019 0
M  V30 474 H 45.0751 -0.918092 -6.03658 0
M  V30 475 H 46.4891 -2.90777 -4.94087 0
M  V30 476 H 44.8861 -3.67425 -4.74467 0
M  V30 477 H 45.9561 -3.51518 -3.34011 0
M  V30 478 N 47.2992 1.18797 -1.03562 0
M  V30 479 C 48.2622 2.20464 -0.626769 0
M  V30 480 C 49.2622 1.57721 0.313173 0
M  V30 481 O 50.4522 1.73917 0.0992615 0
M  V30 482 C 47.5842 3.40802 0.0818498 0
M  V30 483 H 48.7772 2.58149 -1.5264 0
M  V30 484 H 46.3302 1.32593 -0.827578 0
M  V30 485 H 47.0652 3.08642 0.995518 0
M  V30 486 H 46.8502 3.8758 -0.593652 0
M  V30 487 H 48.3402 4.16092 0.354584 0
M  V30 488 N 48.7773 0.814389 1.34928 0
M  V30 489 C 50.0053 0.411136 2.02774 0
M  V30 490 C 50.4203 -0.980316 1.61354 0
M  V30 491 O 49.7773 -1.63299 0.814847 0
M  V30 492 C 49.8283 0.493865 3.58111 0
M  V30 493 O 49.5493 1.83047 3.98027 0
M  V30 494 C 51.0503 0.0844174 4.4322 0
M  V30 495 H 48.2703 0.166037 0.650133 0
M  V30 496 H 50.8143 1.10018 1.72384 0
M  V30 497 H 48.9693 -0.147006 3.87121 0
M  V30 498 H 49.3833 1.79872 4.92693 0
M  V30 499 H 50.8573 0.193404 5.51661 0
M  V30 500 H 51.3343 -0.97113 4.28329 0
M  V30 501 H 51.9403 0.69875 4.19521 0
M  V30 502 N 50.2554 -1.46986 0.568584 0
M  V30 503 C 51.5014 -2.02741 0.0488709 0
M  V30 504 C 51.8344 -1.44077 -1.30214 0
M  V30 505 O 51.1094 -0.600552 -1.84996 0
M  V30 506 C 51.3924 -3.60086 -0.032047 0
M  V30 507 C 51.2454 -4.29162 1.34686 0
M  V30 508 C 52.5644 -4.33838 -0.739798 0
M  V30 509 H 49.6834 -0.736749 0.0192338 0
M  V30 510 H 52.3254 -1.75289 0.733065 0
M  V30 511 H 50.4754 -3.83606 -0.61473 0
M  V30 512 H 52.1474 -4.16948 1.97362 0
M  V30 513 H 50.3904 -3.89073 1.91846 0
M  V30 514 H 51.0614 -5.37826 1.24285 0
M  V30 515 H 53.5374 -4.15378 -0.244939 0
M  V30 516 H 52.4134 -5.43537 -0.765406 0
M  V30 517 H 52.6744 -4.03875 -1.79827 0
M  V30 518 N 51.7335 -0.305618 -1.54608 0
M  V30 519 C 53.1445 0.186098 -1.8577 0
M  V30 520 C 53.4955 1.53058 -1.22751 0
M  V30 521 O 52.6205 2.09888 -0.526893 0
M  V30 522 C 53.2155 0.344449 -3.37044 0
M  V30 523 C 51.7745 0.780384 -3.68221 0
M  V30 524 C 50.9215 -0.108554 -2.77087 0
M  V30 525 H 53.8725 -0.526485 -1.49712 0
M  V30 526 H 53.8935 1.17828 -3.61796 0
M  V30 527 H 53.4055 -0.634235 -3.82883 0
M  V30 528 H 51.5065 1.76945 -3.27904 0
M  V30 529 H 51.6195 0.596572 -4.75371 0
M  V30 530 H 49.9835 0.412931 -2.5133 0
M  V30 531 H 50.7665 -1.08368 -3.25747 0
M  V30 532 N 53.2116 1.57565 -0.0334293 0
M  V30 533 C 54.1746 2.09393 0.932048 0
M  V30 534 C 55.1746 1.00986 1.25134 0
M  V30 535 O 56.3646 1.27129 1.19096 0
M  V30 536 C 53.4966 2.56338 2.2473 0
M  V30 537 H 54.6896 2.95984 0.483085 0
M  V30 538 H 52.2426 1.54819 0.21468 0
M  V30 539 H 52.9776 1.7309 2.74245 0
M  V30 540 H 52.7626 3.35542 2.02865 0
M  V30 541 H 54.2526 2.96646 2.93923 0
M  V30 542 N 54.6897 -0.239769 1.55765 0
M  V30 543 C 55.9147 -0.988373 1.82335 0
M  V30 544 C 56.3397 -1.77886 0.611421 0
M  V30 545 O 55.6977 -1.75889 -0.439639 0
M  V30 546 C 55.7457 -1.89627 3.06715 0
M  V30 547 O 54.8497 -2.98904 2.84131 0
M  V30 548 H 54.1907 -0.280858 0.601677 0
M  V30 549 H 56.7207 -0.258597 2.02959 0
M  V30 550 H 56.7307 -2.30957 3.36338 0
M  V30 551 H 55.4057 -1.31511 3.9456 0
M  V30 552 H 53.9827 -2.61651 2.65694 0
M  V30 553 N 56.1678 -1.49265 -0.50573 0
M  V30 554 C 57.1308 -1.65075 -1.59006 0
M  V30 555 C 58.1308 -0.522768 -1.52065 0
M  V30 556 O 59.3208 -0.789117 -1.55302 0
M  V30 557 C 56.4528 -1.64369 -2.98656 0
M  V30 558 H 57.6458 -2.61784 -1.46319 0
M  V30 559 H 55.1988 -1.38226 -0.729616 0
M  V30 560 H 55.9338 -0.692272 -3.16825 0
M  V30 561 H 55.7188 -2.46282 -3.05103 0
M  V30 562 H 57.2088 -1.78674 -3.77446 0
M  V30 563 N 57.6459 0.756429 -1.3826 0
M  V30 564 C 58.8739 1.54565 -1.3754 0
M  V30 565 C 59.2889 1.88767 0.0355331 0
M  V30 566 O 58.6459 1.52572 1.0014 0
M  V30 567 C 58.6969 2.84654 -2.22833 0
M  V30 568 O 58.4179 2.51912 -3.5843 0
M  V30 569 C 59.9189 3.78807 -2.30261 0
M  V30 570 H 57.1389 0.478353 -0.470553 0
M  V30 571 H 59.6829 0.936381 -1.81803 0
M  V30 572 H 57.8379 3.41965 -1.8204 0
M  V30 573 H 58.2519 3.35325 -4.03308 0
M  V30 574 H 59.7259 4.67045 -2.94233 0
M  V30 575 H 60.2029 4.19038 -1.31545 0
M  V30 576 H 60.8089 3.2742 -2.71433 0
M  V30 577 N 59.124 1.23083 0.984299 0
M  V30 578 C 60.352 1.08714 1.76037 0
M  V30 579 C 60.767 -0.361691 1.85303 0
M  V30 580 O 60.124 -1.25034 1.32939 0
M  V30 581 C 60.175 1.70206 3.18923 0
M  V30 582 O 59.896 3.09423 3.10144 0
M  V30 583 C 61.397 1.61227 4.12941 0
M  V30 584 H 58.617 0.380664 0.552572 0
M  V30 585 H 61.161 1.62853 1.23689 0
M  V30 586 H 59.316 1.20109 3.6831 0
M  V30 587 H 59.73 3.39188 4.00065 0
M  V30 588 H 61.204 2.08962 5.10919 0
M  V30 589 H 61.681 0.570375 4.35481 0
M  V30 590 H 62.287 2.10671 3.69456 0
M  V30 591 N 60.6021 -1.18246 1.0419 0
M  V30 592 C 61.8301 -1.92195 0.766072 0
M  V30 593 C 62.2451 -1.76247 -0.676933 0
M  V30 594 O 61.6021 -1.09293 -1.46155 0
M  V30 595 C 61.6531 -3.43568 1.12442 0
M  V30 596 O 61.3741 -3.59015 2.51078 0
M  V30 597 C 62.8751 -4.34613 0.873275 0
M  V30 598 H 60.0951 -0.610114 0.279288 0
M  V30 599 H 62.6391 -1.50007 1.38989 0
M  V30 600 H 60.7941 -3.8354 0.545542 0
M  V30 601 H 61.2081 -4.5273 2.64831 0
M  V30 602 H 62.6821 -5.39374 1.17385 0
M  V30 603 H 63.1591 -4.38781 -0.191909 0
M  V30 604 H 63.7651 -4.00341 1.43551 0
M  V30 605 N 62.0802 -0.821533 -1.34494 0
M  V30 606 C 63.0432 -0.247847 -2.27856 0
M  V30 607 C 64.0432 0.573453 -1.50227 0
M  V30 608 O 65.2332 0.389759 -1.69784 0
M  V30 609 C 62.3652 0.652698 -3.34593 0
M  V30 610 H 63.5582 -1.07146 -2.80107 0
M  V30 611 H 61.1112 -0.593291 -1.44602 0
M  V30 612 H 61.8462 1.49943 -2.87555 0
M  V30 613 H 61.6312 0.065292 -3.92046 0
M  V30 614 H 63.1212 1.04793 -4.04238 0
M  V30 615 N 63.5583 1.46682 -0.576371 0
M  V30 616 C 64.7833 2.07304 -0.0630475 0
M  V30 617 C 65.2083 1.42329 1.2298 0
M  V30 618 O 64.5663 0.504865 1.74129 0
M  V30 619 C 64.6143 3.60472 0.095895 0
M  V30 620 O 63.7183 3.95927 1.15394 0
M  V30 621 H 63.0593 0.661288 -0.0599463 0
M  V30 622 H 65.5893 1.88417 -0.797511 0
M  V30 623 H 65.5993 4.06865 0.304071 0
M  V30 624 H 64.2743 4.07157 -0.84828 0
M  V30 625 H 62.8513 3.61252 0.924724 0
M  V30 626 N 65.0364 0.313813 1.54444 0
M  V30 627 C 65.9664 -0.549454 2.26943 0
M  V30 628 C 66.9474 -1.12741 1.27372 0
M  V30 629 O 68.1324 -1.15436 1.56167 0
M  V30 630 C 65.2624 -1.71523 3.01989 0
M  V30 631 C 64.2164 -1.26703 4.08816 0
M  V30 632 C 63.5424 -2.51898 4.71647 0
M  V30 633 C 64.8424 -0.388962 5.2085 0
M  V30 634 H 66.5364 0.0552661 2.99349 0
M  V30 635 H 64.0824 0.0280207 1.43973 0
M  V30 636 H 66.0354 -2.32535 3.51433 0
M  V30 637 H 64.7594 -2.34639 2.27183 0
M  V30 638 H 63.4184 -0.679896 3.6024 0
M  V30 639 H 63.0664 -3.13356 3.93468 0
M  V30 640 H 62.7664 -2.22605 5.43802 0
M  V30 641 H 64.2904 -3.1369 5.23861 0
M  V30 642 H 65.7044 -0.905107 5.6611 0
M  V30 643 H 64.1014 -0.18924 5.99802 0
M  V30 644 H 65.1714 0.582699 4.81386 0
M  V30 645 N 66.5145 -1.57545 0.0417849 0
M  V30 646 C 67.7605 -1.92601 -0.635021 0
M  V30 647 C 68.0935 -0.919627 -1.71045 0
M  V30 648 O 67.3685 0.0557892 -1.9442 0
M  V30 649 C 67.6515 -3.38085 -1.23979 0
M  V30 650 C 67.5045 -4.49467 -0.173057 0
M  V30 651 C 68.8235 -3.83776 -2.15416 0
M  V30 652 H 65.9425 -0.700397 -0.229374 0
M  V30 653 H 68.5845 -1.89728 0.101633 0
M  V30 654 H 66.7345 -3.40664 -1.86762 0
M  V30 655 H 68.4065 -4.59018 0.458312 0
M  V30 656 H 66.6495 -4.30909 0.499996 0
M  V30 657 H 67.3205 -5.48323 -0.636054 0
M  V30 658 H 69.7965 -3.83013 -1.62605 0
M  V30 659 H 68.6725 -4.8624 -2.54679 0
M  V30 660 H 68.9335 -3.19998 -3.05047 0
M  V30 661 N 67.9926 0.231505 -1.5589 0
M  V30 662 C 69.2206 0.974505 -1.82513 0
M  V30 663 C 69.6356 1.78344 -0.619591 0
M  V30 664 O 68.9926 1.77792 0.411848 0
M  V30 665 C 69.0436 1.90007 -3.07538 0
M  V30 666 O 68.7646 1.12385 -4.2344 0
M  V30 667 C 70.2656 2.75779 -3.47075 0
M  V30 668 H 67.4856 0.286065 -0.606966 0
M  V30 669 H 70.0296 0.249739 -2.02969 0
M  V30 670 H 68.1846 2.57891 -2.89086 0
M  V30 671 H 68.5986 1.75125 -4.944 0
M  V30 672 H 70.0726 3.36443 -4.37619 0
M  V30 673 H 70.5496 3.47672 -2.68367 0
M  V30 674 H 71.1556 2.13323 -3.67931 0
M  V30 675 N 69.4707 1.49531 0.497807 0
M  V30 676 C 70.8867 1.36365 0.829266 0
M  V30 677 C 71.0867 0.399184 1.97506 0
M  V30 678 O 70.1427 -0.167977 2.51941 0
M  V30 679 C 71.4557 2.77153 1.16647 0
M  V30 680 C 73.0037 2.85877 1.27449 0
M  V30 681 C 73.4787 4.2744 1.64497 0
M  V30 682 N 74.9697 4.30265 1.7154 0
M  V30 683 C 75.7047 5.3677 2.01656 0
M  V30 684 N 75.2007 6.53516 2.29976 0
M  V30 685 N 76.9937 5.24189 2.02934 0
M  V30 686 H 69.1447 2.10831 -0.257703 0
M  V30 687 H 71.4077 0.946534 -0.0527091 0
M  V30 688 H 71.1137 3.49442 0.397872 0
M  V30 689 H 70.9877 3.12722 2.10915 0
M  V30 690 H 73.3747 2.13824 2.0338 0
M  V30 691 H 73.4557 2.53887 0.312244 0
M  V30 692 H 73.0997 5.00021 0.891151 0
M  V30 693 H 73.0297 4.56896 2.61827 0
M  V30 694 H 75.5207 3.4607 1.51802 0
M  V30 695 H 75.8337 7.30506 2.52153 0
M  V30 696 H 74.1787 6.56737 2.27425 0
M  V30 697 H 77.3697 4.31988 1.80289 0
M  V30 698 H 77.5427 6.07286 2.26071 0
M  V30 699 N 70.9488 -0.749086 1.3866 0
M  V30 700 C 71.8588 -1.89358 1.38494 0
M  V30 701 C 72.8748 -1.71708 0.281476 0
M  V30 702 O 74.0508 -1.94554 0.520643 0
M  V30 703 C 71.1158 -3.24782 1.21316 0
M  V30 704 C 70.1768 -3.54926 2.41508 0
M  V30 705 C 69.4098 -4.83888 2.2514 0
M  V30 706 O 69.6328 -5.56592 1.24746 0
M  V30 707 O 68.5668 -5.13612 3.13826 0
M  V30 708 H 72.3928 -1.92452 2.34938 0
M  V30 709 H 69.9778 -0.894981 1.19626 0
M  V30 710 H 71.8598 -4.05739 1.13814 0
M  V30 711 H 70.5348 -3.2249 0.279592 0
M  V30 712 H 69.4418 -2.74112 2.54585 0
M  V30 713 H 70.7748 -3.61983 3.3351 0
M  V30 714 N 72.4269 -1.23603 -0.977757 0
M  V30 715 C 73.3899 -1.02069 -2.05218 0
M  V30 716 C 74.3899 0.0184305 -1.60789 0
M  V30 717 O 75.5799 -0.221569 -1.72785 0
M  V30 718 C 72.7119 -0.544926 -3.36517 0
M  V30 719 H 73.9049 -1.9742 -2.25755 0
M  V30 720 H 71.4579 -1.05684 -1.15155 0
M  V30 721 H 72.1929 0.412241 -3.21669 0
M  V30 722 H 71.9779 -1.2948 -3.70105 0
M  V30 723 H 73.4679 -0.414985 -4.15533 0
M  V30 724 N 73.905 1.17692 -1.04816 0
M  V30 725 C 75.153 1.87488 -0.754497 0
M  V30 726 C 75.474 1.81205 0.720407 0
M  V30 727 O 74.744 1.23544 1.52032 0
M  V30 728 H 73.324 0.694101 -0.276102 0
M  V30 729 H 75.986 1.42793 -1.32651 0
M  V30 730 H 75.082 2.93328 -1.06606 0
M  V30 731 N 75.3831 0.828654 1.34056 0
M  V30 732 C 76.6291 0.42008 1.98402 0
M  V30 733 C 76.9621 -1.01564 1.65525 0
M  V30 734 O 76.2371 -1.70834 0.929831 0
M  V30 735 C 76.5201 0.62927 3.54559 0
M  V30 736 C 76.3731 2.11152 3.97159 0
M  V30 737 C 77.6921 0.0688756 4.40046 0
M  V30 738 H 74.8111 0.154104 0.720709 0
M  V30 739 H 77.4531 1.04228 1.5886 0
M  V30 740 H 75.6031 0.0996418 3.88372 0
M  V30 741 H 77.2751 2.70522 3.73651 0
M  V30 742 H 75.5181 2.59985 3.47261 0
M  V30 743 H 76.1891 2.20868 5.05887 0
M  V30 744 H 78.6651 0.521458 4.1282 0
M  V30 745 H 77.5411 0.245006 5.48353 0
M  V30 746 H 77.8021 -1.0266 4.30015 0
M  V30 747 N 76.8612 -1.46375 0.584142 0
M  V30 748 C 78.1072 -2.02678 0.0703716 0
M  V30 749 C 78.4402 -1.4545 -1.28678 0
M  V30 750 O 77.7152 -0.62014 -1.84349 0
M  V30 751 C 77.9982 -3.60099 0.00614674 0
M  V30 752 C 77.8512 -4.27709 1.3923 0
M  V30 753 C 79.1702 -4.34598 -0.693742 0
M  V30 754 H 76.2892 -0.736504 0.027047 0
M  V30 755 H 78.9312 -1.74501 0.751615 0
M  V30 756 H 77.0812 -3.84236 -0.574009 0
M  V30 757 H 78.7532 -4.14832 2.01773 0
M  V30 758 H 76.9962 -3.87016 1.95962 0
M  V30 759 H 77.6672 -5.36478 1.29982 0
M  V30 760 H 80.1432 -4.15615 -0.200869 0
M  V30 761 H 79.0192 -5.44318 -0.707714 0
M  V30 762 H 79.2802 -4.05759 -1.75533 0
M  V30 763 N 78.3393 -0.321999 -1.54275 0
M  V30 764 C 79.3023 0.531975 -2.22941 0
M  V30 765 C 80.3023 1.04478 -1.22234 0
M  V30 766 O 81.4923 0.937452 -1.46825 0
M  V30 767 C 78.6243 1.73874 -2.93224 0
M  V30 768 H 79.8173 -0.0682612 -2.99822 0
M  V30 769 H 77.3703 -0.0730644 -1.56129 0
M  V30 770 H 78.1053 2.37825 -2.20476 0
M  V30 771 H 77.8903 1.37847 -3.6707 0
M  V30 772 H 79.3803 2.34496 -3.45545 0
M  V30 773 N 79.8174 1.5752 -0.0501392 0
M  V30 774 C 81.0654 1.9227 0.622642 0
M  V30 775 C 81.3864 0.929083 1.71444 0
M  V30 776 O 80.6564 -0.0262186 1.95882 0
M  V30 777 H 79.2364 0.709739 0.232981 0
M  V30 778 H 81.8984 1.94628 -0.102898 0
M  V30 779 H 80.9944 2.93479 1.06191 0
M  V30 780 N 81.2955 -0.223234 1.56011 0
M  V30 781 C 82.2255 -1.27988 1.95298 0
M  V30 782 C 83.2065 -1.48976 0.820979 0
M  V30 783 O 84.3915 -1.61188 1.08315 0
M  V30 784 C 81.5215 -2.63 2.26822 0
M  V30 785 C 80.4755 -2.56671 3.42497 0
M  V30 786 C 79.8015 -3.95697 3.59622 0
M  V30 787 C 81.1015 -2.11601 4.77517 0
M  V30 788 H 82.7955 -0.953525 2.8381 0
M  V30 789 H 80.3415 -0.457244 1.36548 0
M  V30 790 H 82.2945 -3.37077 2.52898 0
M  V30 791 H 81.0185 -2.9732 1.35161 0
M  V30 792 H 79.6775 -1.85051 3.16467 0
M  V30 793 H 79.3255 -4.27322 2.6534 0
M  V30 794 H 79.0255 -3.92345 4.37424 0
M  V30 795 H 80.5495 -4.71438 3.88044 0
M  V30 796 H 81.9635 -2.7542 5.02809 0
M  V30 797 H 80.3605 -2.19311 5.5859 0
M  V30 798 H 81.4305 -1.06824 4.72987 0
M  V30 799 N 82.7736 -1.49793 -0.48987 0
M  V30 800 C 84.0506 -1.50348 -1.25119 0
M  V30 801 C 84.4306 -0.237466 -2.0976 0
M  V30 802 O 83.7786 0.77981 -2.14782 0
M  V30 803 C 83.9886 -2.78872 -2.09837 0
M  V30 804 C 85.3366 -3.288 -2.68655 0
M  V30 805 O 86.3606 -2.80065 -2.20096 0
M  V30 806 O 85.2196 -4.13707 -3.57083 0
M  V30 807 H 82.3136 -0.602242 -0.566775 0
M  V30 808 H 84.8596 -1.62067 -0.503229 0
M  V30 809 H 83.6316 -3.62499 -1.47343 0
M  V30 810 H 83.2546 -2.70066 -2.91805 0
M  V30 811 N 84.2517 0.741722 -1.39055 0
M  V30 812 C 85.4977 1.50336 -1.36113 0
M  V30 813 C 85.8307 1.94148 0.0450796 0
M  V30 814 O 85.1057 1.66301 1.00868 0
M  V30 815 C 85.3887 2.74773 -2.32749 0
M  V30 816 C 85.2417 2.37023 -3.82283 0
M  V30 817 C 86.5607 3.76846 -2.27322 0
M  V30 818 H 83.6797 0.545351 -0.495743 0
M  V30 819 H 86.3217 0.848624 -1.69995 0
M  V30 820 H 84.4717 3.30639 -2.03986 0
M  V30 821 H 86.1437 1.8684 -4.21768 0
M  V30 822 H 84.3867 1.69334 -3.99385 0
M  V30 823 H 85.0577 3.26104 -4.45376 0
M  V30 824 H 87.5337 3.30548 -2.5274 0
M  V30 825 H 86.4097 4.6159 -2.97028 0
M  V30 826 H 86.6707 4.23286 -1.27599 0
M  V30 827 N 85.7298 1.2412 0.971189 0
M  V30 828 C 86.6928 1.03156 2.04674 0
M  V30 829 C 87.6928 -0.00990322 1.60797 0
M  V30 830 O 88.8828 0.230729 1.72665 0
M  V30 831 C 86.0148 0.562765 3.36223 0
M  V30 832 H 87.2078 1.98614 2.24705 0
M  V30 833 H 84.7608 1.06293 1.14593 0
M  V30 834 H 85.4958 -0.395176 3.21883 0
M  V30 835 H 85.2808 1.31441 3.69413 0
M  V30 836 H 86.7708 0.437015 4.15307 0
M  V30 837 N 87.2079 -1.17134 1.05439 0
M  V30 838 C 88.1379 -2.2342 0.678649 0
M  V30 839 C 89.1189 -1.66971 -0.32476 0
M  V30 840 O 90.3039 -1.93149 -0.201802 0
M  V30 841 C 87.4339 -3.47256 0.0552099 0
M  V30 842 C 86.3879 -4.16543 0.98365 0
M  V30 843 C 85.7139 -5.34231 0.223961 0
M  V30 844 C 87.0139 -4.68495 2.3089 0
M  V30 845 H 88.7079 -2.55105 1.56722 0
M  V30 846 H 86.2539 -1.2262 0.754998 0
M  V30 847 H 88.2069 -4.20828 -0.21946 0
M  V30 848 H 86.9309 -3.14846 -0.868319 0
M  V30 849 H 85.5899 -3.44887 1.24293 0
M  V30 850 H 85.2379 -4.98071 -0.702412 0
M  V30 851 H 84.9379 -5.81527 0.842627 0
M  V30 852 H 86.4619 -6.10585 -0.0433671 0
M  V30 853 H 87.8759 -5.33691 2.09396 0
M  V30 854 H 86.2729 -5.26379 2.88176 0
M  V30 855 H 87.3429 -3.85169 2.94572 0
M  V30 856 N 88.686 -0.835752 -1.33615 0
M  V30 857 C 89.616 -0.281739 -2.31794 0
M  V30 858 C 90.597 0.608833 -1.58831 0
M  V30 859 O 91.782 0.533035 -1.86741 0
M  V30 860 C 88.912 0.546612 -3.42971 0
M  V30 861 C 87.866 -0.247904 -4.27281 0
M  V30 862 C 87.192 0.704001 -5.30045 0
M  V30 863 C 88.492 -1.46324 -5.01385 0
M  V30 864 H 90.186 -1.10206 -2.78379 0
M  V30 865 H 87.732 -0.531388 -1.33837 0
M  V30 866 H 89.685 0.944467 -4.1068 0
M  V30 867 H 88.409 1.40011 -2.95067 0
M  V30 868 H 87.068 -0.627281 -3.61194 0
M  V30 869 H 86.716 1.55381 -4.78399 0
M  V30 870 H 86.416 0.176524 -5.87335 0
M  V30 871 H 87.94 1.09944 -6.0062 0
M  V30 872 H 89.354 -1.13871 -5.61877 0
M  V30 873 H 87.751 -1.92728 -5.6831 0
M  V30 874 H 88.821 -2.23467 -4.30338 0
M  V30 875 N 90.1641 1.46063 -0.591896 0
M  V30 876 C 91.3921 2.06717 -0.0868936 0
M  V30 877 C 91.8071 1.43916 1.22203 0
M  V30 878 O 91.1641 0.547698 1.74088 0
M  V30 879 C 91.2151 3.6142 0.0758725 0
M  V30 880 O 90.9361 4.21874 -1.18126 0
M  V30 881 C 92.4371 4.39025 0.61416 0
M  V30 882 H 89.6571 0.668162 -0.0616518 0
M  V30 883 H 92.2011 1.8755 -0.815175 0
M  V30 884 H 90.3561 3.79983 0.754413 0
M  V30 885 H 90.7701 5.14861 -1.00092 0
M  V30 886 H 92.2441 5.4783 0.677193 0
M  V30 887 H 92.7211 4.07708 1.63312 0
M  V30 888 H 93.3271 4.2529 -0.0298142 0
M  V30 889 N 91.6422 0.330177 1.54103 0
M  V30 890 C 92.5722 -0.525353 2.27513 0
M  V30 891 C 93.5532 -1.11383 1.2856 0
M  V30 892 O 94.7382 -1.13773 1.57383 0
M  V30 893 C 91.8682 -1.6831 3.03791 0
M  V30 894 C 90.8222 -1.2236 4.10137 0
M  V30 895 C 90.1482 -2.46882 4.74293 0
M  V30 896 C 91.4482 -0.333697 5.21233 0
M  V30 897 H 93.1422 0.087013 2.99274 0
M  V30 898 H 90.6882 0.0432893 1.43935 0
M  V30 899 H 92.6412 -2.28795 3.5388 0
M  V30 900 H 91.3652 -2.32216 2.29659 0
M  V30 901 H 90.0242 -0.64165 3.60941 0
M  V30 902 H 89.6722 -3.09165 3.96769 0
M  V30 903 H 89.3722 -2.16825 5.46133 0
M  V30 904 H 90.8962 -3.08117 5.27159 0
M  V30 905 H 92.3102 -0.845013 5.67038 0
M  V30 906 H 90.7072 -0.125612 5.99969 0
M  V30 907 H 91.7772 0.633724 4.80741 0
M  V30 908 N 93.1203 -1.57491 0.0584922 0
M  V30 909 C 94.0683 -2.13148 -0.931168 0
M  V30 910 C 95.0623 -1.06507 -1.31729 0
M  V30 911 O 96.2683 -1.24906 -1.29609 0
M  V30 912 H 92.6433 -0.68137 -0.31818 0
M  V30 913 H 94.6143 -2.95187 -0.436707 0
M  V30 914 C 93.3633 -2.69732 -2.19408 0
M  V30 915 H 92.6863 -3.51454 -1.90578 0
M  V30 916 H 94.1263 -3.12287 -2.86798 0
M  V30 917 C 92.5853 -1.63855 -2.94369 0
M  V30 918 O 93.1153 -1.05565 -3.87581 0
M  V30 919 N 91.3213 -1.35202 -2.57233 0
M  V30 920 H 90.8683 -1.82791 -1.81508 0
M  V30 921 H 90.8263 -0.645922 -3.07693 0
M  V30 922 N 94.5984 0.214957 -1.56127 0
M  V30 923 C 95.5084 1.28727 -1.96129 0
M  V30 924 C 96.5244 1.50916 -0.866044 0
M  V30 925 O 97.7004 1.63918 -1.17016 0
M  V30 926 C 94.7654 2.61569 -2.27558 0
M  V30 927 C 93.8264 2.47625 -3.50685 0
M  V30 928 C 93.0594 3.74132 -3.80606 0
M  V30 929 O 93.2824 4.77438 -3.12104 0
M  V30 930 O 92.2164 3.70849 -4.74083 0
M  V30 931 H 96.0424 0.977855 -2.87527 0
M  V30 932 H 93.6274 0.418358 -1.43423 0
M  V30 933 H 95.5094 3.40012 -2.48938 0
M  V30 934 H 94.1844 2.92178 -1.39332 0
M  V30 935 H 93.0914 1.67361 -3.34576 0
M  V30 936 H 94.4244 2.21954 -4.39315 0
M  V30 937 N 96.0765 1.50051 0.48192 0
M  V30 938 C 97.3225 1.60736 1.2366 0
M  V30 939 C 97.6555 0.301786 1.91841 0
M  V30 940 O 96.9305 -0.696025 1.8162 0
M  V30 941 C 97.2135 2.78009 2.28874 0
M  V30 942 C 97.0665 4.18416 1.65069 0
M  V30 943 C 98.3855 2.90867 3.30279 0
M  V30 944 H 95.5045 0.585031 0.448228 0
M  V30 945 H 98.1465 1.82402 0.531946 0
M  V30 946 H 96.2965 2.59667 2.88973 0
M  V30 947 H 97.9685 4.48322 1.0865 0
M  V30 948 H 96.2115 4.23177 0.954148 0
M  V30 949 H 96.8825 4.96381 2.41474 0
M  V30 950 H 99.3585 3.07623 2.80191 0
M  V30 951 H 98.2345 3.74566 4.01238 0
M  V30 952 H 98.4955 2.01021 3.93755 0
M  V30 953 N 97.5546 -0.734337 1.39446 0
M  V30 954 C 98.4846 -1.86155 1.40955 0
M  V30 955 C 99.4656 -1.67898 0.272827 0
M  V30 956 O 100.651 -1.88207 0.478743 0
M  V30 957 C 97.7806 -3.23912 1.25294 0
M  V30 958 C 96.7346 -3.56808 2.36373 0
M  V30 959 C 96.0606 -4.93508 2.058 0
M  V30 960 C 97.3606 -3.59713 3.78687 0
M  V30 961 H 99.0546 -1.8515 2.35287 0
M  V30 962 H 96.6006 -0.889367 1.13253 0
M  V30 963 H 98.5536 -4.02443 1.2497 0
M  V30 964 H 97.2776 -3.25446 0.274308 0
M  V30 965 H 95.9366 -2.80606 2.35914 0
M  V30 966 H 95.5846 -4.91623 1.06374 0
M  V30 967 H 95.2846 -5.16486 2.80208 0
M  V30 968 H 96.8086 -5.74396 2.07128 0
M  V30 969 H 98.2226 -4.2832 3.81071 0
M  V30 970 H 96.6196 -3.94209 4.52459 0
M  V30 971 H 97.6896 -2.59504 4.09617 0
M  V30 972 N 99.0327 -1.24633 -0.964593 0
M  V30 973 C 100.281 -1.08573 -1.70459 0
M  V30 974 C 100.602 0.375655 -1.91347 0
M  V30 975 O 99.8717 1.26779 -1.49345 0
M  V30 976 H 98.4517 -0.398784 -0.631649 0
M  V30 977 H 101.114 -1.56601 -1.16026 0
M  V30 978 H 100.21 -1.58623 -2.68785 0
M  V30 979 N 100.511 1.16574 -1.06058 0
M  V30 980 C 101.739 1.90952 -0.796552 0
M  V30 981 C 102.154 1.77302 0.648808 0
M  V30 982 O 101.511 1.11605 1.44397 0
M  V30 983 C 101.562 3.41736 -1.17894 0
M  V30 984 O 101.283 3.54975 -2.56758 0
M  V30 985 C 102.784 4.33169 -0.942308 0
M  V30 986 H 100.004 0.605594 -0.288959 0
M  V30 987 H 102.548 1.47777 -1.41358 0
M  V30 988 H 100.703 3.82623 -0.606491 0
M  V30 989 H 101.117 4.4846 -2.72 0
M  V30 990 H 102.591 5.37439 -1.25952 0
M  V30 991 H 103.068 4.3903 0.122078 0
M  V30 992 H 103.674 3.98007 -1.49902 0
M  V30 993 N 101.989 0.842826 1.3317 0
M  V30 994 C 102.937 0.267495 2.31057 0
M  V30 995 C 103.931 -0.602682 1.58316 0
M  V30 996 O 105.137 -0.491803 1.73151 0
M  V30 997 H 101.512 0.0677813 0.748939 0
M  V30 998 H 103.483 1.10754 2.77085 0
M  V30 999 C 102.232 -0.539331 3.43492 0
M  V30 1000 H 101.555 0.12095 3.99617 0
M  V30 1001 H 102.995 -0.90767 4.14171 0
M  V30 1002 C 101.454 -1.71981 2.89697 0
M  V30 1003 O 101.984 -2.81862 2.86211 0
M  V30 1004 N 100.19 -1.54299 2.46252 0
M  V30 1005 H 99.7369 -0.649143 2.49287 0
M  V30 1006 H 99.6949 -2.33431 2.10612 0
M  V30 1007 N 103.467 -1.45747 0.599634 0
M  V30 1008 C 104.715 -2.01893 0.0915472 0
M  V30 1009 C 105.036 -1.47155 -1.27946 0
M  V30 1010 O 104.306 -0.66273 -1.84349 0
M  V30 1011 H 102.886 -0.746363 0.0308524 0
M  V30 1012 H 105.548 -1.78645 0.779237 0
M  V30 1013 H 104.644 -3.1208 0.0353086 0
M  V30 1014 N 104.945 -0.338344 -1.53925 0
M  V30 1015 C 106.175 0.260919 -2.04946 0
M  V30 1016 C 106.583 1.45174 -1.2133 0
M  V30 1017 O 105.926 1.82122 -0.240262 0
M  V30 1018 C 105.988 0.744596 -3.51704 0
M  V30 1019 C 105.652 -0.325883 -4.55837 0
M  V30 1020 C 106.649 -1.16687 -5.06636 0
M  V30 1021 C 104.334 -0.478317 -5.00017 0
M  V30 1022 C 106.328 -2.14588 -6.00192 0
M  V30 1023 C 104.015 -1.46073 -5.93385 0
M  V30 1024 C 105.013 -2.29297 -6.4336 0
M  V30 1025 O 104.701 -3.25867 -7.34892 0
M  V30 1026 H 104.433 0.0551207 -0.673749 0
M  V30 1027 H 106.987 -0.486984 -1.99544 0
M  V30 1028 H 105.217 1.54366 -3.54553 0
M  V30 1029 H 106.906 1.26383 -3.85723 0
M  V30 1030 H 107.672 -1.06016 -4.73271 0
M  V30 1031 H 103.551 0.159613 -4.60724 0
M  V30 1032 H 107.095 -2.79585 -6.39123 0
M  V30 1033 H 102.992 -1.56802 -6.26166 0
M  V30 1034 H 103.76 -3.21278 -7.5281 0
M  V30 1035 N 106.423 1.57458 -0.0668435 0
M  V30 1036 C 107.839 1.56947 0.289772 0
M  V30 1037 C 108.039 1.07584 1.70376 0
M  V30 1038 O 107.095 0.739486 2.41429 0
M  V30 1039 C 108.408 3.0052 0.103943 0
M  V30 1040 C 109.956 3.12517 0.173857 0
M  V30 1041 C 110.431 4.57997 0.0163682 0
M  V30 1042 N 111.922 4.63144 0.0721352 0
M  V30 1043 C 112.657 5.73394 -0.0253794 0
M  V30 1044 N 112.153 6.92576 -0.176133 0
M  V30 1045 N 113.946 5.62091 0.0313305 0
M  V30 1046 H 106.097 1.87863 -0.991027 0
M  V30 1047 H 108.36 0.86583 -0.38606 0
M  V30 1048 H 108.066 3.40729 -0.871572 0
M  V30 1049 H 107.94 3.67304 0.858366 0
M  V30 1050 H 110.327 2.72197 1.13985 0
M  V30 1051 H 110.408 2.48381 -0.611586 0
M  V30 1052 H 110.052 4.99005 -0.946374 0
M  V30 1053 H 109.982 5.20158 0.821153 0
M  V30 1054 H 112.473 3.77436 0.187263 0
M  V30 1055 H 112.786 7.72418 -0.242821 0
M  V30 1056 H 111.131 6.94678 -0.211429 0
M  V30 1057 H 114.322 4.67867 0.147773 0
M  V30 1058 H 114.495 6.47982 -0.048121 0
M  V30 1059 N 107.901 -0.206675 1.56239 0
M  V30 1060 C 109.147 -0.930218 1.80208 0
M  V30 1061 C 109.48 -1.83387 0.638981 0
M  V30 1062 O 108.755 -1.91119 -0.361066 0
M  V30 1063 C 109.038 -1.75641 3.1436 0
M  V30 1064 C 108.891 -0.878257 4.41142 0
M  V30 1065 C 110.21 -2.73129 3.45092 0
M  V30 1066 H 107.329 -0.336742 0.655571 0
M  V30 1067 H 109.971 -0.198222 1.88963 0
M  V30 1068 H 108.121 -2.38048 3.07027 0
M  V30 1069 H 109.793 -0.269787 4.6051 0
M  V30 1070 H 108.036 -0.184385 4.33408 0
M  V30 1071 H 108.707 -1.49106 5.3148 0
M  V30 1072 H 111.183 -2.20856 3.52649 0
M  V30 1073 H 110.059 -3.28028 4.40101 0
M  V30 1074 H 110.32 -3.51606 2.68003 0
M  V30 1075 N 109.379 -1.50304 -0.473955 0
M  V30 1076 C 110.309 -1.71886 -1.58042 0
M  V30 1077 C 111.29 -0.567799 -1.60344 0
M  V30 1078 O 112.475 -0.806623 -1.76656 0
M  V30 1079 C 109.605 -1.81036 -2.96384 0
M  V30 1080 C 108.559 -2.962 -3.08949 0
M  V30 1081 C 107.885 -2.9049 -4.48909 0
M  V30 1082 C 109.185 -4.36752 -2.86434 0
M  V30 1083 H 110.879 -2.64527 -1.40234 0
M  V30 1084 H 108.425 -1.27295 -0.673201 0
M  V30 1085 H 110.378 -1.94719 -3.73714 0
M  V30 1086 H 109.102 -0.850147 -3.15341 0
M  V30 1087 H 107.761 -2.82164 -2.3405 0
M  V30 1088 H 107.409 -1.92321 -4.64781 0
M  V30 1089 H 107.109 -3.67802 -4.58253 0
M  V30 1090 H 108.633 -3.06218 -5.28264 0
M  V30 1091 H 110.047 -4.5133 -3.53517 0
M  V30 1092 H 108.444 -5.15493 -3.07225 0
M  V30 1093 H 109.514 -4.49321 -1.82316 0
M  V30 1094 N 110.857 0.726932 -1.39834 0
M  V30 1095 C 112.134 1.47902 -1.28001 0
M  V30 1096 C 112.514 2.1083 0.106789 0
M  V30 1097 O 111.862 1.99242 1.11869 0
M  V30 1098 C 112.072 2.52392 -2.41038 0
M  V30 1099 C 113.42 3.18546 -2.80737 0
M  V30 1100 O 114.444 2.62708 -2.40547 0
M  V30 1101 O 113.303 4.19604 -3.50135 0
M  V30 1102 H 110.397 0.657163 -0.502062 0
M  V30 1103 H 112.943 0.760071 -1.51727 0
M  V30 1104 H 111.715 2.04329 -3.33715 0
M  V30 1105 H 111.338 3.31837 -2.19021 0
M  V30 1106 N 112.336 1.25143 0.95797 0
M  V30 1107 C 113.752 1.01892 1.22842 0
M  V30 1108 C 113.952 -0.266311 1.99732 0
M  V30 1109 O 113.008 -0.979913 2.3271 0
M  V30 1110 C 114.321 2.24004 2.00606 0
M  V30 1111 C 115.869 2.28731 2.13662 0
M  V30 1112 C 116.344 3.5049 2.94823 0
M  V30 1113 N 117.835 3.50866 3.02403 0
M  V30 1114 C 118.57 4.4174 3.65586 0
M  V30 1115 N 118.066 5.42882 4.30408 0
M  V30 1116 N 119.859 4.29429 3.62694 0
M  V30 1117 H 112.01 2.07718 0.443493 0
M  V30 1118 H 114.273 0.912031 0.258657 0
M  V30 1119 H 113.979 3.17395 1.51503 0
M  V30 1120 H 113.853 2.26907 3.01319 0
M  V30 1121 H 116.24 1.35865 2.61963 0
M  V30 1122 H 116.321 2.29848 1.12265 0
M  V30 1123 H 115.965 4.43676 2.47213 0
M  V30 1124 H 115.895 3.46617 3.96439 0
M  V30 1125 H 118.386 2.777 2.56302 0
M  V30 1126 H 118.699 6.0844 4.76467 0
M  V30 1127 H 117.044 5.46758 4.29047 0
M  V30 1128 H 120.235 3.49643 3.11236 0
M  V30 1129 H 120.408 5.00448 4.1165 0
M  V30 1130 N 113.814 -1.1601 1.06675 0
M  V30 1131 C 115.06 -1.86909 0.786945 0
M  V30 1132 C 115.393 -1.81717 -0.685018 0
M  V30 1133 O 114.668 -1.23551 -1.50218 0
M  V30 1134 C 114.951 -3.36313 1.28707 0
M  V30 1135 C 114.804 -3.50175 2.82308 0
M  V30 1136 C 116.123 -4.3084 0.898071 0
M  V30 1137 H 113.242 -0.678677 0.287343 0
M  V30 1138 H 115.884 -1.36336 1.32334 0
M  V30 1139 H 114.034 -3.79513 0.830768 0
M  V30 1140 H 115.706 -3.15886 3.36175 0
M  V30 1141 H 113.949 -2.91959 3.20847 0
M  V30 1142 H 114.62 -4.55116 3.12368 0
M  V30 1143 H 117.096 -3.95561 1.29114 0
M  V30 1144 H 115.972 -5.33876 1.27543 0
M  V30 1145 H 116.233 -4.41662 -0.196651 0
M  V30 1146 N 115.292 -0.849877 -1.32721 0
M  V30 1147 C 116.202 -0.293791 -2.32753 0
M  V30 1148 C 117.218 0.585906 -1.63839 0
M  V30 1149 O 118.394 0.487413 -1.95413 0
M  V30 1150 C 115.459 0.512752 -3.42887 0
M  V30 1151 C 114.52 -0.39252 -4.27502 0
M  V30 1152 C 113.753 0.375625 -5.32377 0
M  V30 1153 O 113.976 1.60613 -5.4732 0
M  V30 1154 O 112.91 -0.256094 -6.01355 0
M  V30 1155 H 116.736 -1.12242 -2.82197 0
M  V30 1156 H 114.321 -0.612685 -1.36259 0
M  V30 1157 H 116.203 0.970704 -4.10067 0
M  V30 1158 H 114.878 1.31826 -2.95641 0
M  V30 1159 H 113.785 -0.898547 -3.63149 0
M  V30 1160 H 115.118 -1.16309 -4.7826 0
M  V30 1161 N 116.77 1.45427 -0.607355 0
M  V30 1162 C 118.047 1.9557 -0.0344566 0
M  V30 1163 C 118.427 1.54979 1.43334 0
M  V30 1164 O 117.775 0.812241 2.13576 0
M  V30 1165 C 117.985 3.48226 -0.232321 0
M  V30 1166 C 119.333 4.2445 -0.113001 0
M  V30 1167 O 120.357 3.55829 -0.162431 0
M  V30 1168 O 119.216 5.465 0.00209442 0
M  V30 1169 H 116.31 0.826222 0.0358667 0
M  V30 1170 H 118.856 1.55594 -0.6774 0
M  V30 1171 H 117.628 3.70739 -1.25174 0
M  V30 1172 H 117.251 3.95092 0.445896 0
M  V30 1173 N 118.248 0.346503 1.53744 0
M  V30 1174 C 119.496 -0.248612 2.00565 0
M  V30 1175 C 119.817 -1.5083 1.23593 0
M  V30 1176 O 119.087 -1.92858 0.343912 0
M  V30 1177 H 117.667 -0.0948564 0.740953 0
M  V30 1178 H 120.329 0.468341 1.89189 0
M  V30 1179 H 119.425 -0.488994 3.08245 0
M  V30 1180 N 119.726 -1.57421 0.075193 0
M  V30 1181 C 120.689 -2.11791 -0.876203 0
M  V30 1182 C 121.689 -1.04268 -1.22412 0
M  V30 1183 O 122.879 -1.30242 -1.15684 0
M  V30 1184 C 120.011 -2.62207 -2.17854 0
M  V30 1185 H 121.204 -2.9716 -0.40444 0
M  V30 1186 H 118.757 -1.55333 -0.173557 0
M  V30 1187 H 119.492 -1.803 -2.6956 0
M  V30 1188 H 119.277 -3.40802 -1.93897 0
M  V30 1189 H 120.767 -3.04335 -2.85955 0
M  V30 1190 N 121.204 0.198386 -1.56346 0
M  V30 1191 C 122.62 0.549085 -1.49857 0
M  V30 1192 C 122.82 1.86016 -0.774611 0
M  V30 1193 O 121.876 2.50416 -0.323776 0
M  V30 1194 C 123.189 0.606868 -2.94512 0
M  V30 1195 C 124.737 0.695925 -3.05165 0
M  V30 1196 C 125.212 0.784848 -4.51225 0
M  V30 1197 N 126.703 0.848463 -4.55363 0
M  V30 1198 C 127.438 0.937378 -5.65686 0
M  V30 1199 N 126.934 0.9888 -6.85707 0
M  V30 1200 N 128.727 0.974312 -5.53592 0
M  V30 1201 H 120.878 -0.661655 -2.01831 0
M  V30 1202 H 123.141 -0.235261 -0.918344 0
M  V30 1203 H 122.847 -0.28732 -3.50524 0
M  V30 1204 H 122.721 1.46268 -3.47686 0
M  V30 1205 H 125.108 1.58055 -2.49204 0
M  V30 1206 H 125.189 -0.186022 -2.55123 0
M  V30 1207 H 124.833 -0.0954072 -5.0781 0
M  V30 1208 H 124.763 1.68255 -4.98997 0
M  V30 1209 H 127.254 0.818103 -3.68938 0
M  V30 1210 H 127.567 1.05707 -7.65536 0
M  V30 1211 H 125.912 0.957534 -6.88372 0
M  V30 1212 H 129.103 0.930954 -4.58749 0
M  V30 1213 H 129.276 1.04015 -6.39597 0
M  V30 1214 N 122.682 1.50554 0.465978 0
M  V30 1215 C 123.928 1.62038 1.21949 0
M  V30 1216 C 124.261 0.322116 1.9151 0
M  V30 1217 O 123.536 -0.676723 1.82348 0
M  V30 1218 C 123.819 2.80421 2.25912 0
M  V30 1219 C 123.672 4.20144 1.60622 0
M  V30 1220 C 124.991 2.94354 3.27176 0
M  V30 1221 H 122.11 0.589752 0.441998 0
M  V30 1222 H 124.752 1.82956 0.51257 0
M  V30 1223 H 122.902 2.62717 2.86203 0
M  V30 1224 H 124.574 4.49449 1.03889 0
M  V30 1225 H 122.817 4.24165 0.909211 0
M  V30 1226 H 123.488 4.98914 2.36196 0
M  V30 1227 H 125.964 3.10578 2.76913 0
M  V30 1228 H 124.84 3.788 3.97242 0
M  V30 1229 H 125.101 2.05186 3.916 0
M  V30 1230 N 124.16 -0.719506 1.40217 0
M  V30 1231 C 125.571 -1.29848 1.34151 0
M  V30 1232 C 125.922 -1.96196 0.0131349 0
M  V30 1233 O 125.047 -1.973 -0.88892 0
M  V30 1234 C 125.642 -2.36118 2.42968 0
M  V30 1235 C 124.201 -2.8965 2.40374 0
M  V30 1236 C 123.348 -1.63393 2.24049 0
M  V30 1237 H 126.299 -0.51591 1.5008 0
M  V30 1238 H 126.32 -3.16871 2.10649 0
M  V30 1239 H 125.832 -1.878 3.39636 0
M  V30 1240 H 123.933 -3.42208 1.47392 0
M  V30 1241 H 124.046 -3.4171 3.35814 0
M  V30 1242 H 122.41 -1.88312 1.71495 0
M  V30 1243 H 123.193 -1.17104 3.2271 0
M  V30 1244 N 125.638 -1.25649 -0.95132 0
M  V30 1245 C 127.049 -1.09654 -1.51106 0
M  V30 1246 C 127.4 0.326615 -1.93462 0
M  V30 1247 O 126.525 1.21697 -1.78938 0
M  V30 1248 C 127.12 -1.98437 -2.74605 0
M  V30 1249 C 125.679 -1.86618 -3.2688 0
M  V30 1250 C 124.826 -1.9239 -1.99703 0
M  V30 1251 H 127.777 -1.38887 -0.767865 0
M  V30 1252 H 127.798 -1.5263 -3.48546 0
M  V30 1253 H 127.31 -3.02009 -2.43746 0
M  V30 1254 H 125.411 -0.859421 -3.62553 0
M  V30 1255 H 125.524 -2.71607 -3.94673 0
M  V30 1256 H 123.888 -1.36317 -2.15151 0
M  V30 1257 H 124.671 -2.97573 -1.71188 0
M  V30 1258 N 127.117 1.15442 -1.07289 0
M  V30 1259 C 128.365 1.85845 -0.794096 0
M  V30 1260 C 128.686 1.82692 0.681809 0
M  V30 1261 O 127.956 1.26741 1.49377 0
M  V30 1262 H 126.536 0.688089 -0.290763 0
M  V30 1263 H 129.198 1.39947 -1.3565 0
M  V30 1264 H 128.294 2.91001 -1.12804 0
M  V30 1265 N 128.595 0.856903 1.32268 0
M  V30 1266 C 129.505 0.306131 2.32594 0
M  V30 1267 C 130.521 -0.577209 1.64147 0
M  V30 1268 O 131.697 -0.477043 1.95669 0
M  V30 1269 C 128.762 -0.494561 3.43154 0
M  V30 1270 C 127.823 0.415186 4.27288 0
M  V30 1271 C 127.056 -0.347387 5.32568 0
M  V30 1272 O 127.279 -1.57708 5.48165 0
M  V30 1273 O 126.213 0.287982 6.01211 0
M  V30 1274 H 130.039 1.13737 2.81598 0
M  V30 1275 H 127.624 0.619902 1.35932 0
M  V30 1276 H 129.506 -0.948944 4.10576 0
M  V30 1277 H 128.181 -1.30257 2.96336 0
M  V30 1278 H 127.088 0.917793 3.62667 0
M  V30 1279 H 128.421 1.18844 4.77637 0
M  V30 1280 N 130.073 -1.45103 0.615059 0
M  V30 1281 C 131.036 -2.29025 -0.0895485 0
M  V30 1282 C 132.036 -1.40174 -0.787906 0
M  V30 1283 O 133.226 -1.62217 -0.634933 0
M  V30 1284 C 130.358 -3.21376 -1.13711 0
M  V30 1285 H 131.551 -2.92807 0.648382 0
M  V30 1286 H 129.104 -1.51749 0.374444 0
M  V30 1287 H 129.839 -2.6241 -1.90556 0
M  V30 1288 H 129.624 -3.86834 -0.640475 0
M  V30 1289 H 131.114 -3.84459 -1.63036 0
M  V30 1290 N 131.551 -0.354651 -1.53558 0
M  V30 1291 C 132.481 0.489091 -2.2832 0
M  V30 1292 C 133.462 1.09324 -1.30316 0
M  V30 1293 O 134.647 1.11255 -1.59173 0
M  V30 1294 C 131.777 1.63456 -3.0643 0
M  V30 1295 C 130.731 1.1582 -4.12031 0
M  V30 1296 C 130.057 2.39305 -4.7816 0
M  V30 1297 C 131.357 0.250731 -5.21698 0
M  V30 1298 H 133.051 -0.134614 -2.99097 0
M  V30 1299 H 130.597 -0.0661826 -1.43848 0
M  V30 1300 H 132.55 2.23136 -3.57475 0
M  V30 1301 H 131.274 2.28533 -2.33325 0
M  V30 1302 H 129.933 0.584146 -3.61916 0
M  V30 1303 H 129.581 3.02814 -4.01637 0
M  V30 1304 H 129.281 2.08109 -5.49513 0
M  V30 1305 H 130.805 2.99691 -5.31994 0
M  V30 1306 H 132.219 0.754695 -5.68311 0
M  V30 1307 H 130.616 0.0301468 -6.00092 0
M  V30 1308 H 131.686 -0.710125 -4.79672 0
M  V30 1309 N 133.029 1.57378 -0.0835403 0
M  V30 1310 C 133.962 2.09016 0.915833 0
M  V30 1311 C 134.94 0.997993 1.2837 0
M  V30 1312 O 136.124 1.27219 1.39096 0
M  V30 1313 C 133.251 2.55757 2.22049 0
M  V30 1314 C 132.297 3.76522 2.00333 0
M  V30 1315 S 133.13 5.20661 1.25191 0
M  V30 1316 C 134.286 5.70743 2.56912 0
M  V30 1317 H 134.519 2.93457 0.476492 0
M  V30 1318 H 132.052 1.53856 0.129493 0
M  V30 1319 H 134.01 2.83346 2.97027 0
M  V30 1320 H 132.671 1.71564 2.63106 0
M  V30 1321 H 131.864 4.07256 2.96916 0
M  V30 1322 H 131.466 3.49367 1.33488 0
M  V30 1323 H 133.758 5.78304 3.52946 0
M  V30 1324 H 134.701 6.6944 2.30772 0
M  V30 1325 H 135.109 4.98616 2.64655 0
M  V30 1326 N 134.507 -0.190092 1.56449 0
M  V30 1327 C 135.735 -0.925772 1.85033 0
M  V30 1328 C 136.15 -1.76638 0.666658 0
M  V30 1329 O 135.507 -1.78822 -0.364565 0
M  V30 1330 C 135.558 -1.81786 3.12468 0
M  V30 1331 O 135.279 -1.01118 4.26271 0
M  V30 1332 C 136.78 -2.6648 3.54265 0
M  V30 1333 H 134 -0.269872 0.614337 0
M  V30 1334 H 136.544 -0.195837 2.0356 0
M  V30 1335 H 134.699 -2.50136 2.95822 0
M  V30 1336 H 135.113 -1.61956 4.98869 0
M  V30 1337 H 136.587 -3.24722 4.46385 0
M  V30 1338 H 137.064 -3.40434 2.77491 0
M  V30 1339 H 137.67 -2.03493 3.73458 0
M  V30 1340 N 135.985 -1.50799 -0.457987 0
M  V30 1341 C 136.915 -1.73553 -1.5621 0
M  V30 1342 C 137.896 -0.584774 -1.59732 0
M  V30 1343 O 139.081 -0.825314 -1.7579 0
M  V30 1344 C 136.211 -1.84169 -2.94447 0
M  V30 1345 C 135.165 -2.99461 -3.0579 0
M  V30 1346 C 134.491 -2.95235 -4.45803 0
M  V30 1347 C 135.791 -4.39766 -2.81786 0
M  V30 1348 H 137.485 -2.66 -1.37421 0
M  V30 1349 H 135.031 -1.28002 -0.659662 0
M  V30 1350 H 136.984 -1.98672 -3.71628 0
M  V30 1351 H 135.708 -0.883545 -3.14422 0
M  V30 1352 H 134.367 -2.8463 -2.31044 0
M  V30 1353 H 134.015 -1.97239 -4.62715 0
M  V30 1354 H 133.715 -3.72642 -4.54326 0
M  V30 1355 H 135.239 -3.11803 -5.24987 0
M  V30 1356 H 136.653 -4.55054 -3.4871 0
M  V30 1357 H 135.05 -5.18722 -3.0174 0
M  V30 1358 H 136.12 -4.51229 -1.7754 0
M  V30 1359 N 137.463 0.71206 -1.40597 0
M  V30 1360 C 138.373 1.8562 -1.43466 0
M  V30 1361 C 139.389 1.70902 -0.326902 0
M  V30 1362 O 140.565 1.93105 -0.572043 0
M  V30 1363 C 137.63 3.21451 -1.29884 0
M  V30 1364 C 136.691 3.48398 -2.50833 0
M  V30 1365 C 135.924 4.77749 -2.3789 0
M  V30 1366 O 136.147 5.53089 -1.39459 0
M  V30 1367 O 135.081 5.05111 -3.27333 0
M  V30 1368 H 138.907 1.86155 -2.39958 0
M  V30 1369 H 136.492 0.86295 -1.21957 0
M  V30 1370 H 138.374 4.02579 -1.24531 0
M  V30 1371 H 137.049 3.21636 -0.364997 0
M  V30 1372 H 135.956 2.67265 -2.61763 0
M  V30 1373 H 137.289 3.53014 -3.4299 0
M  V30 1374 N 138.941 1.26152 0.944643 0
M  V30 1375 C 139.904 1.07474 2.0244 0
M  V30 1376 C 140.904 0.0242064 1.60782 0
M  V30 1377 O 142.094 0.267302 1.72137 0
M  V30 1378 C 139.226 0.633956 3.34953 0
M  V30 1379 H 140.419 2.03336 2.20442 0
M  V30 1380 H 137.972 1.087 1.12312 0
M  V30 1381 H 138.707 -0.326811 3.22649 0
M  V30 1382 H 138.492 1.39247 3.66542 0
M  V30 1383 H 139.982 0.52501 4.14287 0
M  V30 1384 N 140.419 -1.14872 1.07899 0
M  V30 1385 C 141.351 -2.19425 0.662231 0
M  V30 1386 C 142.364 -1.60231 -0.288079 0
M  V30 1387 O 143.553 -1.78336 -0.076534 0
M  V30 1388 C 140.653 -3.38867 -0.0470695 0
M  V30 1389 C 139.826 -4.27597 0.920831 0
M  V30 1390 C 138.885 -5.25616 0.247805 0
M  V30 1391 O 137.911 -5.62189 0.890599 0
M  V30 1392 N 139.113 -5.71746 -1.00435 0
M  V30 1393 H 141.878 -2.55797 1.56166 0
M  V30 1394 H 139.439 -1.30042 0.964404 0
M  V30 1395 H 141.431 -4.01497 -0.50813 0
M  V30 1396 H 140.001 -3.00864 -0.848523 0
M  V30 1397 H 139.221 -3.61982 1.56087 0
M  V30 1398 H 140.509 -4.83748 1.57688 0
M  V30 1399 H 139.907 -5.44153 -1.54642 0
M  V30 1400 H 138.464 -6.36389 -1.40899 0
M  V30 1401 N 141.898 -0.863906 -1.31812 0
M  V30 1402 C 143.126 -0.486111 -2.01108 0
M  V30 1403 C 143.541 0.919755 -1.64882 0
M  V30 1404 O 142.898 1.60162 -0.874893 0
M  V30 1405 C 142.949 -0.626435 -3.56031 0
M  V30 1406 O 142.67 -1.97693 -3.90959 0
M  V30 1407 C 144.171 -0.248857 -4.42601 0
M  V30 1408 H 141.391 -0.190052 -0.643523 0
M  V30 1409 H 143.935 -1.1634 -1.68182 0
M  V30 1410 H 142.09 0.00322717 -3.874 0
M  V30 1411 H 142.504 -1.98034 -4.85678 0
M  V30 1412 H 143.978 -0.398016 -5.50563 0
M  V30 1413 H 144.455 0.811489 -4.31638 0
M  V30 1414 H 145.061 -0.853971 -4.16638 0
M  V30 1415 N 143.376 1.44774 -0.622745 0
M  V30 1416 C 144.792 1.56986 -0.287652 0
M  V30 1417 C 144.992 1.61167 1.20944 0
M  V30 1418 O 144.048 1.55015 1.99315 0
M  V30 1419 C 145.361 2.84551 -0.972188 0
M  V30 1420 C 146.909 2.9825 -0.949536 0
M  V30 1421 C 147.384 4.28605 -1.61437 0
M  V30 1422 N 148.875 4.35399 -1.58057 0
M  V30 1423 C 149.61 5.34964 -2.064 0
M  V30 1424 N 149.106 6.40981 -2.62897 0
M  V30 1425 N 150.899 5.26419 -1.97078 0
M  V30 1426 H 143.05 1.40304 -1.59463 0
M  V30 1427 H 145.313 0.671794 -0.668878 0
M  V30 1428 H 145.019 2.87417 -2.02693 0
M  V30 1429 H 144.893 3.73807 -0.504771 0
M  V30 1430 H 147.28 2.94941 0.0967067 0
M  V30 1431 H 147.361 2.10364 -1.45536 0
M  V30 1432 H 147.005 4.32672 -2.66002 0
M  V30 1433 H 146.935 5.15334 -1.08344 0
M  V30 1434 H 149.426 3.59397 -1.16801 0
M  V30 1435 H 149.739 7.13225 -2.97539 0
M  V30 1436 H 148.084 6.4169 -2.66943 0
M  V30 1437 H 151.275 4.42504 -1.52669 0
M  V30 1438 H 151.448 6.03861 -2.35066 0
M  V30 1439 N 144.854 0.36279 1.53368 0
M  V30 1440 C 146.102 -0.227326 2.00817 0
M  V30 1441 C 146.423 -1.49511 1.25186 0
M  V30 1442 O 145.693 -1.92482 0.364348 0
M  V30 1443 H 144.273 -0.0869923 0.741917 0
M  V30 1444 H 146.935 0.488381 1.88682 0
M  V30 1445 H 146.031 -0.456273 3.08747 0
M  V30 1446 N 146.332 -1.57332 0.0918853 0
M  V30 1447 C 147.262 -2.16872 -0.865371 0
M  V30 1448 C 148.243 -1.10118 -1.29646 0
M  V30 1449 O 149.428 -1.38242 -1.36392 0
M  V30 1450 C 146.558 -2.74649 -2.12569 0
M  V30 1451 C 145.512 -3.86747 -1.83333 0
M  V30 1452 C 144.838 -4.31212 -3.16166 0
M  V30 1453 C 146.138 -5.10089 -1.1228 0
M  V30 1454 H 147.832 -2.97114 -0.369307 0
M  V30 1455 H 145.378 -1.42918 -0.176194 0
M  V30 1456 H 147.331 -3.14952 -2.7997 0
M  V30 1457 H 146.055 -1.91657 -2.64452 0
M  V30 1458 H 144.714 -3.46978 -1.18331 0
M  V30 1459 H 144.362 -3.45115 -3.6593 0
M  V30 1460 H 144.062 -5.06788 -2.97388 0
M  V30 1461 H 145.586 -4.74146 -3.84731 0
M  V30 1462 H 147 -5.47582 -1.69785 0
M  V30 1463 H 145.397 -5.91073 -1.03693 0
M  V30 1464 H 146.467 -4.84786 -0.105041 0
M  V30 1465 N 147.81 0.181792 -1.56548 0
M  V30 1466 C 148.74 1.22765 -1.98623 0
M  V30 1467 C 149.721 1.46747 -0.860189 0
M  V30 1468 O 150.906 1.58259 -1.12551 0
M  V30 1469 C 148.036 2.56894 -2.33715 0
M  V30 1470 C 146.99 2.475 -3.49182 0
M  V30 1471 C 146.316 3.86023 -3.69986 0
M  V30 1472 C 147.616 1.98866 -4.82959 0
M  V30 1473 H 149.31 0.877942 -2.86239 0
M  V30 1474 H 146.856 0.42088 -1.37712 0
M  V30 1475 H 148.809 3.30253 -2.61746 0
M  V30 1476 H 147.533 2.93632 -1.42997 0
M  V30 1477 H 146.192 1.76596 -3.21262 0
M  V30 1478 H 145.84 4.20136 -2.76576 0
M  V30 1479 H 145.54 3.80609 -4.47672 0
M  V30 1480 H 147.064 4.60984 -4.00407 0
M  V30 1481 H 148.478 2.61992 -5.09934 0
M  V30 1482 H 146.875 2.04424 -5.64208 0
M  V30 1483 H 147.945 0.942465 -4.75653 0
M  V30 1484 N 149.288 1.51039 0.449983 0
M  V30 1485 C 150.516 1.66869 1.2232 0
M  V30 1486 C 150.931 0.360727 1.85322 0
M  V30 1487 O 150.288 -0.659531 1.70166 0
M  V30 1488 C 150.339 2.77524 2.31652 0
M  V30 1489 O 150.06 4.03252 1.7123 0
M  V30 1490 C 151.561 3.04512 3.2216 0
M  V30 1491 H 148.781 0.560326 0.369155 0
M  V30 1492 H 151.325 1.97385 0.534719 0
M  V30 1493 H 149.48 2.49642 2.96239 0
M  V30 1494 H 149.894 4.64609 2.43389 0
M  V30 1495 H 151.368 3.85551 3.95038 0
M  V30 1496 H 151.845 2.16415 3.8218 0
M  V30 1497 H 152.451 3.34005 2.63288 0
M  V30 1498 N 150.766 -0.704594 1.40972 0
M  V30 1499 C 151.729 -1.80035 1.41845 0
M  V30 1500 C 152.729 -1.57774 0.310474 0
M  V30 1501 O 153.919 -1.64613 0.56992 0
M  V30 1502 C 151.051 -3.18284 1.22098 0
M  V30 1503 H 152.244 -1.80658 2.3938 0
M  V30 1504 H 149.797 -0.911329 1.26982 0
M  V30 1505 H 150.532 -3.23306 0.253672 0
M  V30 1506 H 150.317 -3.35843 2.02366 0
M  V30 1507 H 151.807 -3.98289 1.25522 0
M  V30 1508 N 152.244 -1.26651 -0.937939 0
M  V30 1509 C 153.154 -1.10276 -2.07066 0
M  V30 1510 C 154.17 -0.0354197 -1.73964 0
M  V30 1511 O 155.346 -0.239816 -1.99967 0
M  V30 1512 C 152.411 -0.740887 -3.38691 0
M  V30 1513 C 151.472 -1.88799 -3.85556 0
M  V30 1514 C 150.705 -1.54329 -5.10899 0
M  V30 1515 O 150.928 -0.446494 -5.6865 0
M  V30 1516 O 149.862 -2.37911 -5.52885 0
M  V30 1517 H 153.688 -2.05309 -2.23789 0
M  V30 1518 H 151.273 -1.05743 -1.0554 0
M  V30 1519 H 153.155 -0.55195 -4.1777 0
M  V30 1520 H 151.83 0.180022 -3.23199 0
M  V30 1521 H 150.737 -2.13191 -3.07409 0
M  V30 1522 H 152.07 -2.78874 -4.05574 0
M  V30 1523 N 153.722 1.14298 -1.08507 0
M  V30 1524 C 155.138 1.37347 -0.812901 0
M  V30 1525 C 155.338 1.93052 0.577325 0
M  V30 1526 O 154.394 2.14389 1.33393 0
M  V30 1527 C 155.707 2.33359 -1.89642 0
M  V30 1528 C 157.255 2.46996 -1.92255 0
M  V30 1529 C 157.73 3.46309 -2.99724 0
M  V30 1530 N 159.221 3.53853 -2.98902 0
M  V30 1531 C 159.956 4.3055 -3.787 0
M  V30 1532 N 159.452 5.10482 -4.6838 0
M  V30 1533 N 161.245 4.25757 -3.66998 0
M  V30 1534 H 153.396 0.764867 -1.9815 0
M  V30 1535 H 155.659 0.398966 -0.859959 0
M  V30 1536 H 155.365 1.99565 -2.89597 0
M  V30 1537 H 155.239 3.33274 -1.76659 0
M  V30 1538 H 157.626 2.80081 -0.929445 0
M  V30 1539 H 157.707 1.47039 -2.09316 0
M  V30 1540 H 157.351 3.13957 -3.99241 0
M  V30 1541 H 157.281 4.46049 -2.79907 0
M  V30 1542 H 159.772 2.96812 -2.33904 0
M  V30 1543 H 160.085 5.66284 -5.25873 0
M  V30 1544 H 158.43 5.09747 -4.72422 0
M  V30 1545 H 161.621 3.62383 -2.96304 0
M  V30 1546 H 161.794 4.85279 -4.29427 0
M  V30 1547 N 155.201 0.870884 1.31352 0
M  V30 1548 C 156.429 0.49677 2.00848 0
M  V30 1549 C 156.844 -0.910998 1.65367 0
M  V30 1550 O 156.201 -1.59696 0.883374 0
M  V30 1551 C 156.252 0.645308 3.55694 0
M  V30 1552 O 155.973 1.99764 3.89905 0
M  V30 1553 C 157.474 0.272326 4.42463 0
M  V30 1554 H 154.694 0.193462 0.642506 0
M  V30 1555 H 157.238 1.1723 1.67563 0
M  V30 1556 H 155.393 0.0173176 3.87396 0
M  V30 1557 H 155.807 2.00607 4.84621 0
M  V30 1558 H 157.281 0.427208 5.50344 0
M  V30 1559 H 157.758 -0.788587 4.32062 0
M  V30 1560 H 158.364 0.876054 4.1618 0
M  V30 1561 N 156.679 -1.44442 0.630414 0
M  V30 1562 C 157.612 -2.27862 -0.124247 0
M  V30 1563 C 158.59 -1.38495 -0.851931 0
M  V30 1564 O 159.774 -1.67935 -0.856166 0
M  V30 1565 C 156.901 -3.17407 -1.18197 0
M  V30 1566 C 155.947 -4.22875 -0.554892 0
M  V30 1567 S 156.78 -5.31485 0.654489 0
M  V30 1568 C 157.936 -6.246 -0.40326 0
M  V30 1569 H 158.169 -2.91519 0.583435 0
M  V30 1570 H 155.702 -1.48618 0.418565 0
M  V30 1571 H 157.66 -3.69549 -1.78728 0
M  V30 1572 H 156.321 -2.52971 -1.86184 0
M  V30 1573 H 155.514 -4.85542 -1.35148 0
M  V30 1574 H 155.116 -3.73992 -0.0242105 0
M  V30 1575 H 157.408 -6.65375 -1.27602 0
M  V30 1576 H 158.351 -7.07851 0.187813 0
M  V30 1577 H 158.759 -5.59775 -0.728837 0
M  V30 1578 N 158.157 -0.370918 -1.53173 0
M  V30 1579 C 159.087 0.464847 -2.28826 0
M  V30 1580 C 160.068 1.07936 -1.31468 0
M  V30 1581 O 161.253 1.0956 -1.60344 0
M  V30 1582 C 158.383 1.60196 -3.08147 0
M  V30 1583 C 157.337 1.11443 -4.13237 0
M  V30 1584 C 156.663 2.3422 -4.80672 0
M  V30 1585 C 157.963 0.195384 -5.21934 0
M  V30 1586 H 159.657 -0.166329 -2.98938 0
M  V30 1587 H 157.203 -0.0814359 -1.4377 0
M  V30 1588 H 159.156 2.19332 -3.59822 0
M  V30 1589 H 157.88 2.26045 -2.35735 0
M  V30 1590 H 156.539 0.545727 -3.62515 0
M  V30 1591 H 156.187 2.98537 -4.04827 0
M  V30 1592 H 155.887 2.02269 -5.51689 0
M  V30 1593 H 157.411 2.94032 -5.35143 0
M  V30 1594 H 158.825 0.694375 -5.69079 0
M  V30 1595 H 157.222 -0.0335027 -6.00091 0
M  V30 1596 H 158.292 -0.760961 -4.78892 0
M  V30 1597 N 159.635 1.57281 -0.100228 0
M  V30 1598 C 160.583 2.15542 0.874328 0
M  V30 1599 C 161.577 1.09962 1.28859 0
M  V30 1600 O 162.783 1.28298 1.26252 0
M  V30 1601 H 159.158 0.689567 0.300003 0
M  V30 1602 H 161.129 2.96241 0.35829 0
M  V30 1603 C 159.878 2.75454 2.1218 0
M  V30 1604 H 159.201 3.56384 1.81193 0
M  V30 1605 H 160.641 3.19781 2.78417 0
M  V30 1606 C 159.1 1.71602 2.89921 0
M  V30 1607 O 159.63 1.15804 3.84646 0
M  V30 1608 N 157.836 1.41975 2.53558 0
M  V30 1609 H 157.383 1.87539 1.76598 0
M  V30 1610 H 157.341 0.727274 3.05873 0
M  V30 1611 N 161.113 -0.173488 1.56642 0
M  V30 1612 C 162.043 -1.2171 1.99271 0
M  V30 1613 C 163.024 -1.46289 0.867959 0
M  V30 1614 O 164.209 -1.5766 1.13388 0
M  V30 1615 C 161.339 -2.55651 2.35074 0
M  V30 1616 C 160.293 -2.45645 3.50489 0
M  V30 1617 C 159.619 -3.84056 3.72028 0
M  V30 1618 C 160.919 -1.96302 4.84007 0
M  V30 1619 H 162.613 -0.86275 2.867 0
M  V30 1620 H 160.159 -0.413571 1.37933 0
M  V30 1621 H 162.112 -3.2886 2.63494 0
M  V30 1622 H 160.836 -2.92869 1.44552 0
M  V30 1623 H 159.495 -1.7489 3.22194 0
M  V30 1624 H 159.143 -4.18664 2.788 0
M  V30 1625 H 158.843 -3.7823 4.49684 0
M  V30 1626 H 160.367 -4.58854 4.02846 0
M  V30 1627 H 161.781 -2.59284 5.11317 0
M  V30 1628 H 160.178 -2.01429 5.65284 0
M  V30 1629 H 161.248 -0.917226 4.76146 0
M  V30 1630 N 162.591 -1.51276 -0.441967 0
M  V30 1631 C 163.837 -1.63958 -1.19355 0
M  V30 1632 C 164.17 -0.352543 -1.90973 0
M  V30 1633 O 163.445 0.647627 -1.83401 0
M  V30 1634 C 163.728 -2.83979 -2.21422 0
M  V30 1635 C 163.581 -4.22646 -1.53918 0
M  V30 1636 C 164.9 -2.99521 -3.22451 0
M  V30 1637 H 162.019 -0.596709 -0.432559 0
M  V30 1638 H 164.661 -1.83748 -0.483398 0
M  V30 1639 H 162.811 -2.67237 -2.81987 0
M  V30 1640 H 164.483 -4.51045 -0.967256 0
M  V30 1641 H 162.726 -4.25558 -0.841615 0
M  V30 1642 H 163.397 -5.02609 -2.28229 0
M  V30 1643 H 165.873 -3.14944 -2.71937 0
M  V30 1644 H 164.749 -3.85072 -3.91166 0
M  V30 1645 H 165.01 -2.11391 -3.88287 0
M  V30 1646 N 164.069 0.697108 -1.41344 0
M  V30 1647 C 165.317 1.45426 -1.40341 0
M  V30 1648 C 165.638 1.94996 -0.0128787 0
M  V30 1649 O 164.908 1.71599 0.945027 0
M  V30 1650 H 163.488 0.539594 -0.516573 0
M  V30 1651 H 166.15 0.825201 -1.76569 0
M  V30 1652 H 165.246 2.31817 -2.08967 0
M  V30 1653 N 165.547 1.27147 0.931209 0
M  V30 1654 C 166.497 1.06227 2.01742 0
M  V30 1655 C 167.481 -0.00859065 1.60898 0
M  V30 1656 O 168.673 0.209537 1.75755 0
M  V30 1657 C 165.802 0.707787 3.35924 0
M  V30 1658 C 164.888 1.81661 3.83223 0
M  V30 1659 N 165.279 3.05564 4.03069 0
M  V30 1660 C 163.577 1.70249 4.12227 0
M  V30 1661 C 164.278 3.77697 4.42403 0
M  V30 1662 N 163.254 3.0544 4.49675 0
M  V30 1663 H 167.056 2.00261 2.15111 0
M  V30 1664 H 164.57 1.1781 1.11779 0
M  V30 1665 H 166.567 0.539043 4.134 0
M  V30 1666 H 165.227 -0.224964 3.2392 0
M  V30 1667 H 166.238 3.41363 3.89476 0
M  V30 1668 H 162.915 0.840329 4.08956 0
M  V30 1669 H 164.305 4.84168 4.65866 0
M  V30 1670 N 167.025 -1.13721 1.09112 0
M  V30 1671 C 167.955 -2.21148 0.749385 0
M  V30 1672 C 168.936 -1.6792 -0.271475 0
M  V30 1673 O 170.121 -1.93693 -0.140251 0
M  V30 1674 C 167.251 -3.46905 0.165659 0
M  V30 1675 C 166.205 -4.13203 1.11567 0
M  V30 1676 C 165.531 -5.33248 0.393809 0
M  V30 1677 C 166.831 -4.60912 2.45678 0
M  V30 1678 H 168.525 -2.4999 1.64758 0
M  V30 1679 H 166.071 -1.20156 0.793626 0
M  V30 1680 H 168.024 -4.21313 -0.085466 0
M  V30 1681 H 166.748 -3.17449 -0.767714 0
M  V30 1682 H 165.407 -3.40758 1.35202 0
M  V30 1683 H 165.055 -5.00054 -0.543599 0
M  V30 1684 H 164.755 -5.78552 1.02721 0
M  V30 1685 H 166.279 -6.10413 0.150908 0
M  V30 1686 H 167.693 -5.26759 2.26269 0
M  V30 1687 H 166.09 -5.16944 3.04776 0
M  V30 1688 H 167.16 -3.75603 3.06677 0
M  V30 1689 N 168.503 -0.877838 -1.30888 0
M  V30 1690 C 169.728 -0.506629 -2.01117 0
M  V30 1691 C 170.153 0.895564 -1.65412 0
M  V30 1692 O 169.511 1.5923 -0.866922 0
M  V30 1693 C 169.559 -0.680223 -3.54126 0
M  V30 1694 O 168.663 0.277033 -4.11468 0
M  V30 1695 H 168.004 -0.200518 -0.633 0
M  V30 1696 H 170.534 -1.18342 -1.66902 0
M  V30 1697 H 170.544 -0.5765 -4.03907 0
M  V30 1698 H 169.219 -1.70261 -3.79452 0
M  V30 1699 H 167.796 0.127606 -3.72682 0
M  V30 1700 N 169.982 1.44106 -0.638065 0
M  V30 1701 C 171.23 2.01579 -0.145043 0
M  V30 1702 C 171.551 1.50496 1.24 0
M  V30 1703 O 170.821 0.711374 1.82527 0
M  V30 1704 H 169.401 0.745282 -0.05063 0
M  V30 1705 H 172.063 1.76516 -0.826327 0
M  V30 1706 H 171.159 3.11877 -0.118039 0
M  V30 1707 N 171.46 0.379036 1.52974 0
M  V30 1708 C 172.709 -0.207612 2.00629 0
M  V30 1709 C 173.022 -1.48758 1.27006 0
M  V30 1710 O 174.228 -2.15365 1.65318 0
M  V30 1711 C 172.684 -0.42053 3.57435 0
M  V30 1712 C 172.292 0.845587 4.39948 0
M  V30 1713 C 174.036 -0.964102 4.13407 0
M  V30 1714 C 171.943 0.601513 5.88333 0
M  V30 1715 H 170.873 -0.0813591 0.749598 0
M  V30 1716 H 173.524 0.499853 1.76561 0
M  V30 1717 H 171.906 -1.18959 3.7771 0
M  V30 1718 H 173.08 1.61848 4.31442 0
M  V30 1719 H 171.395 1.31336 3.95145 0
M  V30 1720 H 173.992 -1.16225 5.21916 0
M  V30 1721 H 174.335 -1.93019 3.68849 0
M  V30 1722 H 174.868 -0.25487 3.96983 0
M  V30 1723 H 171.607 1.53831 6.37194 0
M  V30 1724 H 171.127 -0.132628 5.99653 0
M  V30 1725 H 172.806 0.232134 6.46583 0
M  V30 1726 N 172.938 -1.57226 0.108567 0
M  V30 1727 C 173.901 -2.13602 -0.831082 0
M  V30 1728 C 174.901 -1.06841 -1.20173 0
M  V30 1729 O 176.091 -1.32666 -1.12895 0
M  V30 1730 C 173.223 -2.66769 -2.12243 0
M  V30 1731 H 174.416 -2.97951 -0.341317 0
M  V30 1732 H 171.969 -1.55667 -0.14057 0
M  V30 1733 H 172.704 -1.85977 -2.65675 0
M  V30 1734 H 172.489 -3.44839 -1.86625 0
M  V30 1735 H 173.979 -3.10332 -2.79435 0
M  V30 1736 N 174.416 0.165178 -1.56732 0
M  V30 1737 C 175.644 0.896218 -1.86482 0
M  V30 1738 C 176.059 1.75555 -0.694675 0
M  V30 1739 O 175.416 1.79379 0.33607 0
M  V30 1740 C 175.467 1.76792 -3.1532 0
M  V30 1741 O 175.188 0.943239 -4.27825 0
M  V30 1742 C 176.689 2.6081 -3.58459 0
M  V30 1743 H 173.909 0.260064 -0.618553 0
M  V30 1744 H 176.453 0.163428 -2.03846 0
M  V30 1745 H 174.608 2.45398 -2.99764 0
M  V30 1746 H 175.022 1.53998 -5.01383 0
M  V30 1747 H 176.496 3.17579 -4.51495 0
M  V30 1748 H 176.973 3.35977 -2.82872 0
M  V30 1749 H 177.579 1.97526 -3.76648 0
M  V30 1750 N 175.894 1.51508 0.433938 0
M  V30 1751 C 176.857 1.72473 1.50949 0
M  V30 1752 C 177.857 0.594725 1.49398 0
M  V30 1753 O 179.047 0.862315 1.5136 0
M  V30 1754 C 176.179 1.78431 2.90474 0
M  V30 1755 H 177.372 2.68467 1.33662 0
M  V30 1756 H 174.925 1.41549 0.662836 0
M  V30 1757 H 175.66 0.842645 3.13161 0
M  V30 1758 H 175.445 2.60558 2.93005 0
M  V30 1759 H 176.935 1.96479 3.68491 0
M  V30 1760 N 177.372 -0.689602 1.41712 0
M  V30 1761 C 178.6 -1.47827 1.44758 0
M  V30 1762 C 179.015 -1.88721 0.0545703 0
M  V30 1763 O 178.372 -1.57176 -0.927463 0
M  V30 1764 C 178.423 -2.73698 2.3616 0
M  V30 1765 O 178.144 -2.34524 3.7004 0
M  V30 1766 C 179.645 -3.67389 2.48072 0
M  V30 1767 H 176.865 -0.455357 0.49284 0
M  V30 1768 H 179.409 -0.848574 1.86063 0
M  V30 1769 H 177.564 -3.32891 1.98148 0
M  V30 1770 H 177.978 -3.15701 4.18847 0
M  V30 1771 H 179.452 -4.52475 3.16181 0
M  V30 1772 H 179.929 -4.12284 1.51388 0
M  V30 1773 H 180.535 -3.14097 2.86746 0
M  V30 1774 N 178.85 -1.27639 -0.924453 0
M  V30 1775 C 179.813 -1.10681 -2.00705 0
M  V30 1776 C 180.813 -0.0497823 -1.60723 0
M  V30 1777 O 182.003 -0.294654 -1.7169 0
M  V30 1778 C 179.135 -0.687164 -3.33902 0
M  V30 1779 H 180.328 -2.06817 -2.17179 0
M  V30 1780 H 177.881 -1.10473 -1.10569 0
M  V30 1781 H 178.616 0.275439 -3.23128 0
M  V30 1782 H 178.401 -1.45061 -3.6428 0
M  V30 1783 H 179.891 -0.590853 -4.13399 0
M  V30 1784 N 180.328 1.1314 -1.09713 0
M  V30 1785 C 181.291 2.16831 -0.742751 0
M  V30 1786 C 182.291 1.59159 0.229129 0
M  V30 1787 O 183.481 1.74199 0.00693237 0
M  V30 1788 C 180.613 3.40756 -0.0989168 0
M  V30 1789 H 181.806 2.49695 -1.66109 0
M  V30 1790 H 179.359 1.2802 -0.896699 0
M  V30 1791 H 180.094 3.13485 0.830514 0
M  V30 1792 H 179.879 3.83888 -0.798265 0
M  V30 1793 H 181.369 4.17386 0.133524 0
M  V30 1794 N 181.806 0.884767 1.30421 0
M  V30 1795 C 183.052 0.513218 1.96819 0
M  V30 1796 C 183.407 -0.927347 1.68577 0
M  V30 1797 O 182.7 -1.64644 0.979941 0
M  V30 1798 C 182.894 0.724318 3.49983 0
M  V30 1799 C 182.723 2.18385 3.93113 0
M  V30 1800 C 181.493 2.82839 4.18725 0
M  V30 1801 C 183.691 3.15763 4.05953 0
M  V30 1802 N 181.673 4.1939 4.48314 0
M  V30 1803 C 183.044 4.37387 4.39423 0
M  V30 1804 C 185.099 3.11555 3.88379 0
M  V30 1805 C 183.802 5.55343 4.5715 0
M  V30 1806 C 185.828 4.28782 4.07308 0
M  V30 1807 C 185.19 5.49172 4.41123 0
M  V30 1808 H 181.289 0.237123 0.745182 0
M  V30 1809 H 183.873 1.14246 1.57658 0
M  V30 1810 H 182.044 0.124565 3.882 0
M  V30 1811 H 183.776 0.31969 4.03435 0
M  V30 1812 H 180.531 2.33708 4.11919 0
M  V30 1813 H 180.955 4.89911 4.67243 0
M  V30 1814 H 185.597 2.19576 3.61312 0
M  V30 1815 H 183.315 6.47826 4.8306 0
M  V30 1816 H 186.901 4.26995 3.95179 0
M  V30 1817 H 185.781 6.38371 4.55469 0
M  V30 1818 N 183.284 -1.43765 0.645699 0
M  V30 1819 C 184.53 -2.02197 0.156271 0
M  V30 1820 C 184.863 -1.50776 -1.22393 0
M  V30 1821 O 184.138 -0.697771 -1.81553 0
M  V30 1822 C 184.421 -3.59749 0.158872 0
M  V30 1823 C 184.274 -4.21419 1.57245 0
M  V30 1824 C 185.593 -4.37149 -0.50879 0
M  V30 1825 H 182.712 -0.734694 0.0582602 0
M  V30 1826 H 185.354 -1.71157 0.824951 0
M  V30 1827 H 183.504 -3.86325 -0.410525 0
M  V30 1828 H 185.176 -4.059 2.19186 0
M  V30 1829 H 183.419 -3.78356 2.122 0
M  V30 1830 H 184.09 -5.30482 1.52619 0
M  V30 1831 H 186.566 -4.16093 -0.024412 0
M  V30 1832 H 185.442 -5.4683 -0.476213 0
M  V30 1833 H 185.703 -4.12839 -1.58165 0
M  V30 1834 N 184.763 -0.387143 -1.52771 0
M  V30 1835 C 186.04 0.253197 -1.93954 0
M  V30 1836 C 186.42 1.64545 -1.32243 0
M  V30 1837 O 185.768 2.23191 -0.489699 0
M  V30 1838 C 185.978 0.281722 -3.47861 0
M  V30 1839 C 187.326 0.511715 -4.21505 0
M  V30 1840 O 188.35 0.362023 -3.54356 0
M  V30 1841 O 187.209 0.804847 -5.40541 0
M  V30 1842 H 184.303 0.156845 -0.811991 0
M  V30 1843 H 186.849 -0.441494 -1.63856 0
M  V30 1844 H 185.621 -0.693571 -3.85104 0
M  V30 1845 H 185.244 1.02142 -3.84256 0
M  V30 1846 N 186.241 1.57166 -0.116904 0
M  V30 1847 C 187.204 2.14039 0.819742 0
M  V30 1848 C 188.204 1.07477 1.19605 0
M  V30 1849 O 189.394 1.33263 1.1219 0
M  V30 1850 C 186.526 2.67891 2.10826 0
M  V30 1851 H 187.719 2.98128 0.325511 0
M  V30 1852 H 185.272 1.55739 0.132312 0
M  V30 1853 H 186.007 1.87384 2.64685 0
M  V30 1854 H 185.792 3.45823 1.84793 0
M  V30 1855 H 187.282 3.11809 2.77785 0
M  V30 1856 N 187.719 -0.156864 1.56817 0
M  V30 1857 C 188.965 -0.872416 1.83076 0
M  V30 1858 C 189.298 -1.81261 0.697001 0
M  V30 1859 O 188.573 -1.92171 -0.30008 0
M  V30 1860 C 188.856 -1.65551 3.19789 0
M  V30 1861 C 188.709 -0.737467 4.43713 0
M  V30 1862 C 190.028 -2.62012 3.53606 0
M  V30 1863 H 187.147 -0.315715 0.665953 0
M  V30 1864 H 189.789 -0.138004 1.89498 0
M  V30 1865 H 187.939 -2.28159 3.14445 0
M  V30 1866 H 189.611 -0.123143 4.61136 0
M  V30 1867 H 187.854 -0.0464067 4.33775 0
M  V30 1868 H 188.525 -1.32122 5.35955 0
M  V30 1869 H 191.001 -2.09525 3.59497 0
M  V30 1870 H 189.877 -3.13861 4.50314 0
M  V30 1871 H 190.138 -3.42902 2.79053 0
M  V30 1872 N 189.197 -1.51736 -0.425897 0
M  V30 1873 C 190.613 -1.40166 -0.76326 0
M  V30 1874 C 190.813 -0.492962 -1.95377 0
M  V30 1875 O 189.869 0.0475815 -2.52455 0
M  V30 1876 C 191.182 -2.82403 -1.03291 0
M  V30 1877 C 192.73 -2.91632 -1.13665 0
M  V30 1878 C 193.205 -4.34801 -1.43916 0
M  V30 1879 N 194.696 -4.3796 -1.50816 0
M  V30 1880 C 195.431 -5.4578 -1.75817 0
M  V30 1881 N 194.927 -6.63744 -1.98534 0
M  V30 1882 N 196.72 -5.33274 -1.77694 0
M  V30 1883 H 188.871 -2.09361 0.358 0
M  V30 1884 H 191.134 -0.942941 0.0978094 0
M  V30 1885 H 190.84 -3.50943 -0.230696 0
M  V30 1886 H 190.714 -3.22428 -1.95754 0
M  V30 1887 H 193.101 -2.23284 -1.92947 0
M  V30 1888 H 193.182 -2.55088 -0.190756 0
M  V30 1889 H 192.826 -5.03703 -0.65157 0
M  V30 1890 H 192.756 -4.68868 -2.39729 0
M  V30 1891 H 195.247 -3.52919 -1.35118 0
M  V30 1892 H 195.56 -7.41704 -2.17013 0
M  V30 1893 H 193.905 -6.66839 -1.95832 0
M  V30 1894 H 197.096 -4.40098 -1.59473 0
M  V30 1895 H 197.269 -6.1738 -1.9684 0
M  V30 1896 N 190.675 0.682077 -1.42076 0
M  V30 1897 C 191.923 1.4393 -1.41876 0
M  V30 1898 C 192.244 1.94971 -0.0335599 0
M  V30 1899 O 191.514 1.72591 0.926773 0
M  V30 1900 H 190.094 0.534085 -0.522267 0
M  V30 1901 H 192.756 0.806427 -1.77434 0
M  V30 1902 H 191.852 2.29588 -2.11414 0
M  V30 1903 N 192.153 1.28127 0.917671 0
M  V30 1904 C 193.381 1.17892 1.70026 0
M  V30 1905 C 193.796 -0.262958 1.8696 0
M  V30 1906 O 193.153 -1.17811 1.3938 0
M  V30 1907 C 193.204 1.86872 3.09453 0
M  V30 1908 O 192.925 3.25428 2.93306 0
M  V30 1909 C 194.426 1.8289 4.03815 0
M  V30 1910 H 191.646 0.40942 0.531617 0
M  V30 1911 H 194.19 1.69181 1.14883 0
M  V30 1912 H 192.345 1.39464 3.61426 0
M  V30 1913 H 192.759 3.59918 3.81523 0
M  V30 1914 H 194.233 2.35751 4.99125 0
M  V30 1915 H 194.71 0.800412 4.31845 0
M  V30 1916 H 195.316 2.29959 3.57769 0
M  V30 1917 N 193.631 -1.12557 1.10312 0
M  V30 1918 C 194.578 -2.18247 0.750781 0
M  V30 1919 C 195.548 -1.63853 -0.272293 0
M  V30 1920 O 196.733 -1.90195 -0.151862 0
M  V30 1921 C 193.873 -3.44591 0.187379 0
M  V30 1922 C 192.986 -4.13046 1.2656 0
M  V30 1923 C 192.121 -5.27034 0.663978 0
M  V30 1924 C 191.16 -5.87353 1.72287 0
M  V30 1925 N 190.297 -6.92757 1.1416 0
M  V30 1926 H 195.137 -2.47732 1.65628 0
M  V30 1927 H 192.674 -1.21629 0.827337 0
M  V30 1928 H 194.632 -4.16904 -0.157148 0
M  V30 1929 H 193.262 -3.15527 -0.681355 0
M  V30 1930 H 192.314 -3.38924 1.72727 0
M  V30 1931 H 193.626 -4.53947 2.06721 0
M  V30 1932 H 192.78 -6.06104 0.268824 0
M  V30 1933 H 191.519 -4.87407 -0.169082 0
M  V30 1934 H 190.524 -5.06971 2.12746 0
M  V30 1935 H 191.749 -6.29051 2.55875 0
M  V30 1936 H 189.695 -6.5517 0.329984 0
M  V30 1937 H 189.612 -7.3225 1.88007 0
M  V30 1938 H 190.88 -7.75658 0.772956 0
M  V30 1939 N 195.109 -0.891671 -1.2995 0
M  V30 1940 C 196.072 -0.36828 -2.26222 0
M  V30 1941 C 197.072 0.493014 -1.53056 0
M  V30 1942 O 198.262 0.299213 -1.71611 0
M  V30 1943 C 195.394 0.47442 -3.37583 0
M  V30 1944 H 196.587 -1.21844 -2.74033 0
M  V30 1945 H 194.14 -0.669107 -1.41254 0
M  V30 1946 H 194.875 1.34489 -2.95099 0
M  V30 1947 H 194.66 -0.142615 -3.91841 0
M  V30 1948 H 196.15 0.83218 -4.09224 0
M  V30 1949 N 196.587 1.43421 -0.653314 0
M  V30 1950 C 197.534 2.30768 0.0382271 0
M  V30 1951 C 198.504 1.44755 0.814576 0
M  V30 1952 O 199.689 1.73624 0.791162 0
M  V30 1953 C 196.829 3.30336 0.998599 0
M  V30 1954 C 195.942 4.31448 0.218342 0
M  V30 1955 C 195.077 5.18098 1.17252 0
M  V30 1956 C 194.116 6.10902 0.382702 0
M  V30 1957 N 193.253 6.90176 1.28848 0
M  V30 1958 H 198.093 2.89357 -0.712511 0
M  V30 1959 H 195.63 1.42548 -0.363128 0
M  V30 1960 H 197.588 3.86572 1.56901 0
M  V30 1961 H 196.218 2.73397 1.71621 0
M  V30 1962 H 195.27 3.77506 -0.46836 0
M  V30 1963 H 196.582 4.97227 -0.395812 0
M  V30 1964 H 195.736 5.7896 1.81356 0
M  V30 1965 H 194.475 4.52444 1.82058 0
M  V30 1966 H 193.48 5.49128 -0.27169 0
M  V30 1967 H 194.705 6.78598 -0.260957 0
M  V30 1968 H 192.651 6.27171 1.92334 0
M  V30 1969 H 192.568 7.52478 0.728887 0
M  V30 1970 H 193.836 7.55543 1.91766 0
M  V30 1971 N 198.065 0.39524 1.52563 0
M  V30 1972 C 199.314 -0.186321 2.00838 0
M  V30 1973 C 199.627 -1.47402 1.28577 0
M  V30 1974 O 200.833 -2.13599 1.67593 0
M  V30 1975 C 199.289 -0.382595 3.57861 0
M  V30 1976 C 198.897 0.892202 4.39026 0
M  V30 1977 C 200.641 -0.9202 4.14406 0
M  V30 1978 C 198.548 0.66388 5.87662 0
M  V30 1979 H 197.478 -0.0734041 0.750418 0
M  V30 1980 H 200.129 0.518552 1.76021 0
M  V30 1981 H 198.511 -1.14946 3.7895 0
M  V30 1982 H 199.685 1.66414 4.29701 0
M  V30 1983 H 198 1.35519 3.9373 0
M  V30 1984 H 200.597 -1.10683 5.23119 0
M  V30 1985 H 200.94 -1.89096 3.70875 0
M  V30 1986 H 201.473 -0.212751 3.97231 0
M  V30 1987 H 198.212 1.6058 6.35527 0
M  V30 1988 H 197.732 -0.0690193 5.9976 0
M  V30 1989 H 199.411 0.300699 6.46301 0
M  V30 1990 N 199.544 -1.57102 0.125237 0
M  V30 1991 C 200.96 -1.57915 -0.231322 0
M  V30 1992 C 201.16 -1.13833 -1.66266 0
M  V30 1993 O 200.216 -0.828581 -2.38518 0
M  V30 1994 C 201.529 -3.00699 0.00766489 0
M  V30 1995 C 203.077 -3.12947 -0.0577483 0
M  V30 1996 C 203.552 -4.57742 0.153626 0
M  V30 1997 N 205.043 -4.63092 0.0998073 0
M  V30 1998 C 205.778 -5.72905 0.238174 0
M  V30 1999 N 205.274 -6.91445 0.433057 0
M  V30 2000 N 207.067 -5.6182 0.177308 0
M  V30 2001 H 199.218 -1.84055 1.06007 0
M  V30 2002 H 201.481 -0.850905 0.417929 0
M  V30 2003 H 201.187 -3.3726 0.997431 0
M  V30 2004 H 201.061 -3.70236 -0.721452 0
M  V30 2005 H 203.448 -2.7624 -1.03804 0
M  V30 2006 H 203.529 -2.4594 0.70335 0
M  V30 2007 H 203.173 -4.95149 1.13092 0
M  V30 2008 H 203.103 -5.22848 -0.627534 0
M  V30 2009 H 205.594 -3.77871 -0.047051 0
M  V30 2010 H 205.907 -7.70985 0.529332 0
M  V30 2011 H 204.252 -6.93415 0.469109 0
M  V30 2012 H 207.443 -4.68093 0.0259748 0
M  V30 2013 H 207.616 -6.47357 0.288582 0
M  V30 2014 N 201.022 0.148545 -1.56898 0
M  V30 2015 C 202.299 0.890019 -1.74178 0
M  V30 2016 C 202.679 1.99407 -0.692839 0
M  V30 2017 O 202.027 2.26671 0.288505 0
M  V30 2018 C 202.237 1.43389 -3.18183 0
M  V30 2019 C 203.585 1.89791 -3.79822 0
M  V30 2020 O 204.609 1.53134 -3.21603 0
M  V30 2021 O 203.468 2.57387 -4.82093 0
M  V30 2022 H 200.562 0.420496 -0.712118 0
M  V30 2023 H 203.108 0.134591 -1.69165 0
M  V30 2024 H 201.88 0.640383 -3.86024 0
M  V30 2025 H 201.503 2.25287 -3.27615 0
M  V30 2026 N 202.5 1.5196 0.417844 0
M  V30 2027 C 203.728 1.69426 1.18753 0
M  V30 2028 C 204.143 0.399955 1.84515 0
M  V30 2029 O 203.5 -0.623288 1.71527 0
M  V30 2030 C 203.551 2.82375 2.25714 0
M  V30 2031 O 203.272 4.06793 1.62638 0
M  V30 2032 C 204.773 3.11277 3.15628 0
M  V30 2033 H 201.993 0.568031 0.357186 0
M  V30 2034 H 204.537 1.98475 0.49273 0
M  V30 2035 H 202.692 2.5587 2.90877 0
M  V30 2036 H 203.106 4.69667 2.3348 0
M  V30 2037 H 204.58 3.93843 3.86771 0
M  V30 2038 H 205.057 2.24473 3.77503 0
M  V30 2039 H 205.663 3.39515 2.56144 0
M  V30 2040 N 203.978 -0.674533 1.42435 0
M  V30 2041 C 205.394 -0.98769 1.25367 0
M  V30 2042 C 205.594 -2.00879 0.158044 0
M  V30 2043 O 204.65 -2.48075 -0.470633 0
M  V30 2044 C 205.963 -1.49224 2.6106 0
M  V30 2045 C 207.511 -1.61 2.68417 0
M  V30 2046 C 207.986 -2.14852 4.04478 0
M  V30 2047 N 209.477 -2.22185 4.06434 0
M  V30 2048 C 210.212 -2.64928 5.08528 0
M  V30 2049 N 209.708 -3.07121 6.21006 0
M  V30 2050 N 211.501 -2.64679 4.95885 0
M  V30 2051 H 203.652 0.00152503 2.124 0
M  V30 2052 H 205.915 -0.0618434 0.945981 0
M  V30 2053 H 205.621 -0.816453 3.42092 0
M  V30 2054 H 205.495 -2.47094 2.84999 0
M  V30 2055 H 207.882 -2.27686 1.87732 0
M  V30 2056 H 207.963 -0.616195 2.48267 0
M  V30 2057 H 207.607 -1.48775 4.85622 0
M  V30 2058 H 207.537 -3.15024 4.2198 0
M  V30 2059 H 210.028 -1.92435 3.25234 0
M  V30 2060 H 210.341 -3.38423 6.94759 0
M  V30 2061 H 208.686 -3.04978 6.24511 0
M  V30 2062 H 211.877 -2.31078 4.07088 0
M  V30 2063 H 212.05 -2.9767 5.75584 0
M  V30 2064 N 205.456 -1.28612 -0.910864 0
M  V30 2065 C 206.403 -1.12786 -2.01365 0
M  V30 2066 C 207.373 -0.024201 -1.66082 0
M  V30 2067 O 208.558 -0.189667 -1.89855 0
M  V30 2068 C 205.698 -0.798743 -3.35729 0
M  V30 2069 C 204.811 -1.98173 -3.83864 0
M  V30 2070 C 203.946 -1.59298 -5.06752 0
M  V30 2071 C 202.985 -2.74245 -5.47226 0
M  V30 2072 N 202.122 -2.35842 -6.61304 0
M  V30 2073 H 206.962 -2.07142 -2.14234 0
M  V30 2074 H 204.499 -1.03093 -1.0493 0
M  V30 2075 H 206.457 -0.588662 -4.13026 0
M  V30 2076 H 205.087 0.10789 -3.2262 0
M  V30 2077 H 204.139 -2.30386 -3.02699 0
M  V30 2078 H 205.451 -2.84343 -4.09818 0
M  V30 2079 H 204.605 -1.34513 -5.916 0
M  V30 2080 H 203.344 -0.702618 -4.82612 0
M  V30 2081 H 202.349 -2.99725 -4.60918 0
M  V30 2082 H 203.574 -3.63928 -5.73353 0
M  V30 2083 H 201.52 -1.49279 -6.38789 0
M  V30 2084 H 201.437 -3.15546 -6.86998 0
M  V30 2085 H 202.705 -2.14348 -7.4945 0
M  V30 2086 N 206.934 1.1197 -1.10907 0
M  V30 2087 C 208.162 1.87402 -0.876824 0
M  V30 2088 C 208.577 1.79894 0.573025 0
M  V30 2089 O 207.934 1.17629 1.39534 0
M  V30 2090 C 207.985 3.36428 -1.32282 0
M  V30 2091 O 207.706 3.43765 -2.71582 0
M  V30 2092 C 209.207 4.28783 -1.12518 0
M  V30 2093 H 206.427 0.592793 -0.314384 0
M  V30 2094 H 208.971 1.41649 -1.47499 0
M  V30 2095 H 207.126 3.79706 -0.768229 0
M  V30 2096 H 207.54 4.3652 -2.90776 0
M  V30 2097 H 209.014 5.31613 -1.48633 0
M  V30 2098 H 209.491 4.39153 -0.0642394 0
M  V30 2099 H 210.097 3.91291 -1.66648 0
M  V30 2100 N 208.412 0.89855 1.29475 0
M  V30 2101 C 209.342 0.39201 2.30186 0
M  V30 2102 C 210.323 -0.532359 1.61555 0
M  V30 2103 O 211.508 -0.443331 1.89072 0
M  V30 2104 C 208.638 -0.382353 3.45189 0
M  V30 2105 C 207.592 0.451483 4.25612 0
M  V30 2106 C 206.918 -0.450307 5.328 0
M  V30 2107 C 208.218 1.70079 4.93832 0
M  V30 2108 H 209.912 1.23362 2.72804 0
M  V30 2109 H 207.458 0.594638 1.31149 0
M  V30 2110 H 209.411 -0.747451 4.14718 0
M  V30 2111 H 208.135 -1.25774 3.01411 0
M  V30 2112 H 206.794 0.798897 3.57789 0
M  V30 2113 H 206.442 -1.32379 4.85268 0
M  V30 2114 H 206.142 0.103902 5.87508 0
M  V30 2115 H 207.666 -0.811623 6.05182 0
M  V30 2116 H 209.08 1.40549 5.55805 0
M  V30 2117 H 207.477 2.19623 5.58467 0
M  V30 2118 H 208.547 2.43744 4.19186 0
M  V30 2119 N 209.89 -1.43072 0.660911 0
M  V30 2120 C 211.301 -1.84932 0.256348 0
M  V30 2121 C 211.652 -1.55325 -1.19868 0
M  V30 2122 O 210.777 -1.00607 -1.91591 0
M  V30 2123 C 211.372 -3.35684 0.458475 0
M  V30 2124 C 209.931 -3.76245 0.108161 0
M  V30 2125 C 209.078 -2.66749 0.757641 0
M  V30 2126 H 212.029 -1.33116 0.864051 0
M  V30 2127 H 212.05 -3.79365 -0.293683 0
M  V30 2128 H 211.562 -3.572 1.51755 0
M  V30 2129 H 209.663 -3.60338 -0.948014 0
M  V30 2130 H 209.776 -4.76058 0.538992 0
M  V30 2131 H 208.14 -2.53989 0.190185 0
M  V30 2132 H 208.923 -2.91092 1.81989 0
M  V30 2133 N 211.368 -0.403325 -1.52352 0
M  V30 2134 C 212.616 0.174003 -2.0135 0
M  V30 2135 C 212.937 1.46139 -1.29106 0
M  V30 2136 O 212.207 1.91448 -0.415253 0
M  V30 2137 H 210.787 0.0672911 -0.743963 0
M  V30 2138 H 213.449 -0.538235 -1.87321 0
M  V30 2139 H 212.545 0.374254 -3.09848 0
M  V30 2140 N 212.846 1.57033 -0.133567 0
M  V30 2141 C 213.776 2.1909 0.807567 0
M  V30 2142 C 214.757 1.13517 1.26681 0
M  V30 2143 O 215.942 1.41809 1.32679 0
M  V30 2144 C 213.072 2.80188 2.05212 0
M  V30 2145 C 212.026 3.91471 1.73015 0
M  V30 2146 C 211.352 4.39443 3.04622 0
M  V30 2147 C 212.652 5.12886 0.987168 0
M  V30 2148 H 214.346 2.97988 0.290403 0
M  V30 2149 H 211.892 1.43335 0.138239 0
M  V30 2150 H 213.845 3.22264 2.71521 0
M  V30 2151 H 212.569 1.98601 2.59278 0
M  V30 2152 H 211.228 3.49993 1.0909 0
M  V30 2153 H 210.876 3.54695 3.56651 0
M  V30 2154 H 210.576 5.14495 2.83847 0
M  V30 2155 H 212.1 4.8418 3.72024 0
M  V30 2156 H 213.514 5.51891 1.55208 0
M  V30 2157 H 211.911 5.93615 0.87985 0
M  V30 2158 H 212.981 4.84894 -0.0235286 0
M  V30 2159 N 214.325 -0.140222 1.56975 0
M  V30 2160 C 215.741 -0.493088 1.51792 0
M  V30 2161 C 215.941 -1.83013 0.843116 0
M  V30 2162 O 214.997 -2.49041 0.416493 0
M  V30 2163 C 216.31 -0.497144 2.96562 0
M  V30 2164 C 217.858 -0.582186 3.07538 0
M  V30 2165 C 218.333 -0.616838 4.53827 0
M  V30 2166 N 219.824 -0.678873 4.58198 0
M  V30 2167 C 220.559 -0.726782 5.68775 0
M  V30 2168 N 220.055 -0.733623 6.88905 0
M  V30 2169 N 221.848 -0.768179 5.56826 0
M  V30 2170 H 213.999 0.736108 1.99237 0
M  V30 2171 H 216.262 0.269182 0.90898 0
M  V30 2172 H 215.968 0.417217 3.49217 0
M  V30 2173 H 215.842 -1.33263 3.52875 0
M  V30 2174 H 218.229 -1.48697 2.54899 0
M  V30 2175 H 218.31 0.280581 2.54257 0
M  V30 2176 H 217.954 0.283812 5.07106 0
M  V30 2177 H 217.884 -1.49619 5.04898 0
M  V30 2178 H 220.375 -0.68061 3.7172 0
M  V30 2179 H 220.688 -0.772215 7.68932 0
M  V30 2180 H 219.033 -0.701389 6.91452 0
M  V30 2181 H 222.224 -0.760051 4.61888 0
M  V30 2182 H 222.397 -0.80205 6.43017 0
M  V30 2183 N 215.803 -1.52179 -0.40978 0
M  V30 2184 C 216.766 -1.74853 -1.48186 0
M  V30 2185 C 217.766 -0.618417 -1.48433 0
M  V30 2186 O 218.956 -0.886286 -1.49969 0
M  V30 2187 C 216.088 -1.8303 -2.87598 0
M  V30 2188 H 217.281 -2.70559 -1.29374 0
M  V30 2189 H 214.834 -1.42586 -0.640233 0
M  V30 2190 H 215.569 -0.89236 -3.11781 0
M  V30 2191 H 215.354 -2.65187 -2.88822 0
M  V30 2192 H 216.844 -2.02316 -3.65319 0
M  V30 2193 N 217.281 0.66697 -1.42791 0
M  V30 2194 C 218.211 1.79218 -1.49677 0
M  V30 2195 C 219.192 1.66405 -0.352623 0
M  V30 2196 O 220.377 1.85708 -0.567993 0
M  V30 2197 C 217.507 3.17565 -1.40605 0
M  V30 2198 C 216.461 3.45124 -2.53127 0
M  V30 2199 C 215.787 4.83127 -2.29112 0
M  V30 2200 C 217.087 3.41236 -3.95418 0
M  V30 2201 H 218.781 1.73713 -2.43853 0
M  V30 2202 H 216.327 0.83432 -1.17367 0
M  V30 2203 H 218.28 3.96022 -1.44029 0
M  V30 2204 H 217.004 3.23767 -0.429271 0
M  V30 2205 H 215.663 2.69031 -2.49034 0
M  V30 2206 H 215.311 4.85988 -1.29709 0
M  V30 2207 H 215.011 5.02528 -3.04531 0
M  V30 2208 H 216.535 5.63859 -2.34297 0
M  V30 2209 H 217.949 4.09651 -4.01073 0
M  V30 2210 H 216.346 3.72173 -4.70752 0
M  V30 2211 H 217.416 2.39665 -4.21532 0
M  V30 2212 N 218.759 1.29093 0.90403 0
M  V30 2213 C 219.691 1.09658 2.01266 0
M  V30 2214 C 220.704 0.0453729 1.62737 0
M  V30 2215 O 221.893 0.289446 1.76138 0
M  V30 2216 C 218.993 0.646278 3.32681 0
M  V30 2217 C 218.166 1.77505 3.99763 0
M  V30 2218 C 217.225 1.31649 5.09465 0
M  V30 2219 O 216.251 2.02045 5.32134 0
M  V30 2220 N 217.453 0.184997 5.80205 0
M  V30 2221 H 220.218 2.05135 2.18494 0
M  V30 2222 H 217.779 1.20975 1.07594 0
M  V30 2223 H 219.771 0.322906 4.0341 0
M  V30 2224 H 218.341 -0.215916 3.11853 0
M  V30 2225 H 217.561 2.26752 3.22455 0
M  V30 2226 H 218.849 2.53198 4.41325 0
M  V30 2227 H 218.247 -0.402021 5.6427 0
M  V30 2228 H 216.804 -0.0790358 6.51752 0
M  V30 2229 N 220.237 -1.11381 1.11499 0
M  V30 2230 C 221.184 -2.17439 0.773887 0
M  V30 2231 C 222.154 -1.64132 -0.254899 0
M  V30 2232 O 223.339 -1.90345 -0.13168 0
M  V30 2233 C 220.479 -3.44373 0.223917 0
M  V30 2234 C 219.592 -4.1168 1.30934 0
M  V30 2235 C 218.727 -5.263 0.71984 0
M  V30 2236 C 217.766 -5.85493 1.78507 0
M  V30 2237 N 216.903 -6.91507 1.21502 0
M  V30 2238 H 221.743 -2.45962 1.68246 0
M  V30 2239 H 219.28 -1.20744 0.840191 0
M  V30 2240 H 221.238 -4.17047 -0.112921 0
M  V30 2241 H 219.868 -3.16232 -0.647851 0
M  V30 2242 H 218.92 -3.37073 1.76312 0
M  V30 2243 H 220.232 -4.51729 2.11524 0
M  V30 2244 H 219.386 -6.05785 0.333094 0
M  V30 2245 H 218.125 -4.87559 -0.117377 0
M  V30 2246 H 217.13 -5.04686 2.18111 0
M  V30 2247 H 218.355 -6.26301 2.62533 0
M  V30 2248 H 216.301 -6.54783 0.399455 0
M  V30 2249 H 216.218 -7.30214 1.95763 0
M  V30 2250 H 217.486 -7.74795 0.855181 0
M  V30 2251 N 221.715 -0.905404 -1.28997 0
M  V30 2252 C 222.945 -0.549049 -1.99171 0
M  V30 2253 C 223.353 0.87203 -1.67906 0
M  V30 2254 O 222.696 1.58796 -0.923561 0
M  V30 2255 C 222.758 -0.668306 -3.53234 0
M  V30 2256 C 222.422 -2.0574 -4.08069 0
M  V30 2257 C 223.419 -3.0292 -4.22534 0
M  V30 2258 C 221.104 -2.36833 -4.42962 0
M  V30 2259 C 223.098 -4.29314 -4.71135 0
M  V30 2260 C 220.785 -3.63467 -4.91258 0
M  V30 2261 C 221.783 -4.59522 -5.053 0
M  V30 2262 O 221.471 -5.83907 -5.52546 0
M  V30 2263 H 221.203 -0.208784 -0.64295 0
M  V30 2264 H 223.757 -1.21836 -1.65363 0
M  V30 2265 H 221.987 0.0580547 -3.86656 0
M  V30 2266 H 223.676 -0.320273 -4.04634 0
M  V30 2267 H 224.442 -2.80216 -3.95859 0
M  V30 2268 H 220.321 -1.62824 -4.31288 0
M  V30 2269 H 223.865 -5.04293 -4.8201 0
M  V30 2270 H 219.762 -3.86 -5.17372 0
M  V30 2271 H 220.53 -5.86578 -5.70849 0
M  V30 2272 N 223.193 1.4272 -0.668489 0
M  V30 2273 C 224.156 2.292 0.00448567 0
M  V30 2274 C 225.156 1.43001 0.735339 0
M  V30 2275 O 226.346 1.64461 0.57429 0
M  V30 2276 C 223.478 3.25375 1.01705 0
M  V30 2277 H 224.671 2.90199 -0.756608 0
M  V30 2278 H 222.224 1.50254 -0.430506 0
M  V30 2279 H 222.959 2.69301 1.80686 0
M  V30 2280 H 222.744 3.88944 0.496463 0
M  V30 2281 H 224.234 3.90245 1.48655 0
M  V30 2282 N 224.671 0.411399 1.52136 0
M  V30 2283 C 225.917 -0.163888 2.02137 0
M  V30 2284 C 226.25 -1.44597 1.29636 0
M  V30 2285 O 225.525 -1.90272 0.403353 0
M  V30 2286 C 225.808 -0.40927 3.57767 0
M  V30 2287 C 225.661 0.889643 4.40914 0
M  V30 2288 C 226.98 -1.19042 4.23694 0
M  V30 2289 H 224.099 -0.0580896 0.734707 0
M  V30 2290 H 226.741 0.54531 1.82007 0
M  V30 2291 H 224.891 -1.0134 3.7505 0
M  V30 2292 H 226.563 1.52575 4.35337 0
M  V30 2293 H 224.806 1.50011 4.07037 0
M  V30 2294 H 225.477 0.672314 5.4789 0
M  V30 2295 H 227.953 -0.678942 4.10524 0
M  V30 2296 H 226.829 -1.33086 5.32522 0
M  V30 2297 H 227.09 -2.21166 3.82803 0
M  V30 2298 N 226.149 -1.5696 0.141893 0
M  V30 2299 C 227.565 -1.58151 -0.21456 0
M  V30 2300 C 227.765 -1.1559 -1.65049 0
M  V30 2301 O 226.821 -0.853832 -2.37626 0
M  V30 2302 C 228.134 -3.00674 0.0395576 0
M  V30 2303 C 229.682 -3.1299 -0.0245529 0
M  V30 2304 C 230.157 -4.57554 0.202167 0
M  V30 2305 N 231.648 -4.62961 0.148919 0
M  V30 2306 C 232.383 -5.7262 0.298924 0
M  V30 2307 N 231.879 -6.90947 0.50637 0
M  V30 2308 N 233.672 -5.61601 0.236886 0
M  V30 2309 H 225.823 -1.8292 1.07953 0
M  V30 2310 H 228.086 -0.846425 0.42693 0
M  V30 2311 H 227.792 -3.36183 1.03315 0
M  V30 2312 H 227.666 -3.70981 -0.682143 0
M  V30 2313 H 230.053 -2.77326 -1.00869 0
M  V30 2314 H 230.134 -2.4518 0.729396 0
M  V30 2315 H 229.778 -4.93922 1.18338 0
M  V30 2316 H 229.708 -5.23484 -0.572044 0
M  V30 2317 H 232.199 -3.77899 -0.00697015 0
M  V30 2318 H 232.512 -7.7038 0.611076 0
M  V30 2319 H 230.857 -6.92878 0.542628 0
M  V30 2320 H 234.048 -4.68039 0.0756209 0
M  V30 2321 H 234.221 -6.47015 0.357227 0
M  V30 2322 N 227.627 0.131896 -1.57047 0
M  V30 2323 C 228.855 0.856461 -1.88341 0
M  V30 2324 C 229.27 1.74042 -0.731757 0
M  V30 2325 O 228.627 1.80051 0.297945 0
M  V30 2326 C 228.678 1.70064 -3.18999 0
M  V30 2327 O 228.399 0.852278 -4.2973 0
M  V30 2328 C 229.9 2.53148 -3.63911 0
M  V30 2329 H 227.12 0.246885 -0.62393 0
M  V30 2330 H 229.664 0.120152 -2.04147 0
M  V30 2331 H 227.819 2.38984 -3.04902 0
M  V30 2332 H 228.233 1.43329 -5.04537 0
M  V30 2333 H 229.707 3.07931 -4.58129 0
M  V30 2334 H 230.184 3.29901 -2.89935 0
M  V30 2335 H 230.79 1.89492 -3.80753 0
M  V30 2336 N 229.106 1.52395 0.401703 0
M  V30 2337 C 230.354 1.66488 1.14569 0
M  V30 2338 C 230.675 0.400897 1.90835 0
M  V30 2339 O 229.945 -0.584415 1.8698 0
M  V30 2340 H 228.525 0.613672 0.425929 0
M  V30 2341 H 231.187 1.89464 0.457093 0
M  V30 2342 H 230.283 2.50942 1.85566 0
M  V30 2343 N 230.584 -0.659388 1.43143 0
M  V30 2344 C 231.832 -1.41654 1.44147 0
M  V30 2345 C 232.153 -1.94893 0.0645739 0
M  V30 2346 O 231.423 -1.74044 -0.899198 0
M  V30 2347 H 230.003 -0.525708 0.530697 0
M  V30 2348 H 232.665 -0.778097 1.78694 0
M  V30 2349 H 231.761 -2.26195 2.1504 0
M  V30 2350 N 232.062 -1.29571 -0.897171 0
M  V30 2351 C 233.31 -1.17456 -1.64464 0
M  V30 2352 C 233.631 0.273698 -1.9307 0
M  V30 2353 O 232.901 1.18684 -1.55855 0
M  V30 2354 H 231.481 -0.431706 -0.609622 0
M  V30 2355 H 234.143 -1.62531 -1.07562 0
M  V30 2356 H 233.239 -1.72648 -2.59998 0
M  V30 2357 N 233.54 1.10788 -1.12088 0
M  V30 2358 C 234.786 1.82942 -0.875226 0
M  V30 2359 C 235.119 1.84779 0.597538 0
M  V30 2360 O 234.394 1.30578 1.44152 0
M  V30 2361 C 234.677 3.29789 -1.44606 0
M  V30 2362 C 234.53 3.36307 -2.98693 0
M  V30 2363 C 235.849 4.26064 -1.10261 0
M  V30 2364 H 232.968 0.664195 -0.319397 0
M  V30 2365 H 235.61 1.29867 -1.38689 0
M  V30 2366 H 233.76 3.75118 -1.01089 0
M  V30 2367 H 235.432 2.99487 -3.50864 0
M  V30 2368 H 233.675 2.76318 -3.34411 0
M  V30 2369 H 234.346 4.39694 -3.33726 0
M  V30 2370 H 236.822 3.88951 -1.4784 0
M  V30 2371 H 235.698 5.27183 -1.52869 0
M  V30 2372 H 235.959 4.42098 -0.0142953 0
M  V30 2373 N 235.018 0.912232 1.28515 0
M  V30 2374 C 235.966 0.389597 2.29314 0
M  V30 2375 C 236.96 -0.517915 1.61289 0
M  V30 2376 O 238.166 -0.399328 1.75515 0
M  V30 2377 H 234.541 0.107386 0.744293 0
M  V30 2378 H 236.512 1.25286 2.70825 0
M  V30 2379 C 235.261 -0.356496 3.45868 0
M  V30 2380 H 234.584 0.332608 3.98414 0
M  V30 2381 H 236.024 -0.686851 4.184 0
M  V30 2382 C 234.483 -1.56383 2.98406 0
M  V30 2383 O 235.013 -2.66294 3.00749 0
M  V30 2384 N 233.219 -1.41029 2.54085 0
M  V30 2385 H 232.766 -0.516089 2.52377 0
M  V30 2386 H 232.724 -2.21939 2.22689 0
M  V30 2387 N 236.496 -1.42363 0.676048 0
M  V30 2388 C 237.446 -2.27987 -0.0242903 0
M  V30 2389 C 238.43 -1.41153 -0.772319 0
M  V30 2390 O 239.622 -1.64592 -0.651025 0
M  V30 2391 C 236.751 -3.29195 -0.973953 0
M  V30 2392 C 235.837 -4.23512 -0.223202 0
M  V30 2393 N 236.228 -4.99865 0.772589 0
M  V30 2394 C 234.526 -4.43606 -0.461469 0
M  V30 2395 C 235.227 -5.68757 1.22027 0
M  V30 2396 N 234.203 -5.40811 0.549975 0
M  V30 2397 H 238.005 -2.84445 0.73949 0
M  V30 2398 H 235.519 -1.54341 0.50522 0
M  V30 2399 H 237.516 -3.89339 -1.49067 0
M  V30 2400 H 236.176 -2.74298 -1.73755 0
M  V30 2401 H 237.187 -5.04921 1.15217 0
M  V30 2402 H 233.864 -3.99749 -1.20446 0
M  V30 2403 H 235.254 -6.40007 2.0455 0
M  V30 2404 N 237.974 -0.419461 -1.51915 0
M  V30 2405 C 239.39 -0.0708431 -1.59443 0
M  V30 2406 C 239.59 1.41796 -1.43164 0
M  V30 2407 O 238.646 2.18596 -1.26381 0
M  V30 2408 C 239.959 -0.574991 -2.95151 0
M  V30 2409 C 241.507 -0.533867 -3.08413 0
M  V30 2410 C 241.982 -1.01469 -4.46618 0
M  V30 2411 N 243.473 -0.971939 -4.52888 0
M  V30 2412 C 244.208 -1.31505 -5.58116 0
M  V30 2413 N 243.704 -1.73014 -6.70849 0
M  V30 2414 N 245.497 -1.23436 -5.48379 0
M  V30 2415 H 237.648 -1.38836 -1.60743 0
M  V30 2416 H 239.911 -0.570998 -0.756747 0
M  V30 2417 H 239.617 -1.61597 -3.12377 0
M  V30 2418 H 239.491 0.00979777 -3.77199 0
M  V30 2419 H 241.878 0.498086 -2.90866 0
M  V30 2420 H 241.959 -1.15484 -2.28248 0
M  V30 2421 H 241.603 -2.04502 -4.6491 0
M  V30 2422 H 241.533 -0.370433 -5.25295 0
M  V30 2423 H 244.024 -0.666893 -3.71969 0
M  V30 2424 H 244.337 -1.97479 -7.47143 0
M  V30 2425 H 242.682 -1.76926 -6.72103 0
M  V30 2426 H 245.873 -0.908869 -4.59192 0
M  V30 2427 H 246.046 -1.50506 -6.30279 0
M  V30 2428 N 239.452 1.56882 -0.150215 0
M  V30 2429 C 240.382 2.19935 0.784284 0
M  V30 2430 C 241.363 1.14854 1.25469 0
M  V30 2431 O 242.548 1.43209 1.31168 0
M  V30 2432 C 239.678 2.82349 2.02229 0
M  V30 2433 C 238.632 3.93285 1.68853 0
M  V30 2434 C 237.958 4.42649 2.99944 0
M  V30 2435 C 239.258 5.13904 0.932714 0
M  V30 2436 H 240.952 2.9828 0.258781 0
M  V30 2437 H 238.498 1.43473 0.123029 0
M  V30 2438 H 240.451 3.25126 2.68088 0
M  V30 2439 H 239.175 2.0134 2.57157 0
M  V30 2440 H 237.834 3.5113 1.05371 0
M  V30 2441 H 237.482 3.58458 3.52869 0
M  V30 2442 H 237.182 5.17476 2.78374 0
M  V30 2443 H 238.706 4.88099 3.66868 0
M  V30 2444 H 240.12 5.53506 1.49345 0
M  V30 2445 H 238.517 5.94515 0.81684 0
M  V30 2446 H 239.587 4.84842 -0.0749568 0
M  V30 2447 N 240.93 -0.123565 1.57115 0
M  V30 2448 C 242.178 -0.83051 1.84247 0
M  V30 2449 C 242.499 -1.80629 0.73471 0
M  V30 2450 O 241.769 -1.94403 -0.241688 0
M  V30 2451 H 240.349 -0.309694 0.679778 0
M  V30 2452 H 243.011 -0.111976 1.94578 0
M  V30 2453 H 242.107 -1.37852 2.80006 0
M  V30 2454 N 242.408 -1.52605 -0.393616 0
M  V30 2455 C 243.338 -1.80022 -1.48709 0
M  V30 2456 C 244.319 -0.651995 -1.57108 0
M  V30 2457 O 245.504 -0.89913 -1.72132 0
M  V30 2458 C 242.634 -1.96492 -2.86371 0
M  V30 2459 C 241.588 -3.12161 -2.92813 0
M  V30 2460 C 240.914 -3.13877 -4.3288 0
M  V30 2461 C 242.214 -4.51322 -2.6288 0
M  V30 2462 H 243.908 -2.71589 -1.26015 0
M  V30 2463 H 241.454 -1.30684 -0.604778 0
M  V30 2464 H 243.407 -2.14255 -3.62867 0
M  V30 2465 H 242.131 -1.01611 -3.10391 0
M  V30 2466 H 240.79 -2.94173 -2.18764 0
M  V30 2467 H 240.438 -2.16687 -4.53933 0
M  V30 2468 H 240.138 -3.91576 -4.38112 0
M  V30 2469 H 241.662 -3.33789 -5.1129 0
M  V30 2470 H 243.076 -4.69435 -3.29096 0
M  V30 2471 H 241.473 -5.31053 -2.79468 0
M  V30 2472 H 242.543 -4.58353 -1.58242 0
M  V30 2473 N 243.887 0.651787 -1.4349 0
M  V30 2474 C 245.135 1.40888 -1.44897 0
M  V30 2475 C 245.456 1.94856 -0.0749086 0
M  V30 2476 O 244.726 1.74518 0.889956 0
M  V30 2477 H 243.306 0.522887 -0.533478 0
M  V30 2478 H 245.968 0.768609 -1.79104 0
M  V30 2479 H 245.064 2.25052 -2.16236 0
M  V30 2480 N 245.365 1.30045 0.890287 0
M  V30 2481 C 246.642 1.09227 1.62262 0
M  V30 2482 C 247.022 -0.360305 2.08002 0
M  V30 2483 O 246.37 -1.35084 1.84295 0
M  V30 2484 C 246.58 2.08835 2.79623 0
M  V30 2485 C 247.928 2.40266 3.50082 0
M  V30 2486 O 248.952 2.07104 2.89804 0
M  V30 2487 O 247.811 2.96967 4.58773 0
M  V30 2488 H 244.905 0.419132 0.712922 0
M  V30 2489 H 247.451 1.41451 0.937529 0
M  V30 2490 H 246.223 3.06633 2.43089 0
M  V30 2491 H 245.846 1.77397 3.55832 0
M  V30 2492 N 246.843 -1.10192 1.12674 0
M  V30 2493 C 247.806 -2.14786 0.799979 0
M  V30 2494 C 248.806 -1.59711 -0.18685 0
M  V30 2495 O 249.996 -1.74156 0.0392558 0
M  V30 2496 C 247.128 -3.40374 0.189228 0
M  V30 2497 H 248.321 -2.45203 1.72671 0
M  V30 2498 H 245.874 -1.25597 0.930326 0
M  V30 2499 H 246.609 -3.15577 -0.747107 0
M  V30 2500 H 246.394 -3.81637 0.899766 0
M  V30 2501 H 247.884 -4.17594 -0.0228143 0
M  V30 2502 N 248.321 -0.919034 -1.28029 0
M  V30 2503 C 249.284 -0.416182 -2.2539 0
M  V30 2504 C 250.284 0.460438 -1.54067 0
M  V30 2505 O 251.474 0.262744 -1.72207 0
M  V30 2506 C 248.606 0.402707 -3.38513 0
M  V30 2507 H 249.799 -1.27629 -2.71387 0
M  V30 2508 H 247.352 -0.698919 -1.39803 0
M  V30 2509 H 248.087 1.282 -2.97885 0
M  V30 2510 H 247.872 -0.225698 -3.9145 0
M  V30 2511 H 249.362 0.745191 -4.10897 0
M  V30 2512 N 249.799 1.42003 -0.683588 0
M  V30 2513 C 250.729 2.33487 -0.024866 0
M  V30 2514 C 251.71 1.51163 0.779975 0
M  V30 2515 O 252.895 1.79739 0.735362 0
M  V30 2516 C 250.025 3.3487 0.920836 0
M  V30 2517 C 248.979 4.27414 0.223958 0
M  V30 2518 C 248.305 5.19074 1.2832 0
M  V30 2519 C 249.605 5.14445 -0.90242 0
M  V30 2520 H 251.299 2.88819 -0.788921 0
M  V30 2521 H 248.845 1.38873 -0.38083 0
M  V30 2522 H 250.798 3.97787 1.39081 0
M  V30 2523 H 249.522 2.77861 1.71642 0
M  V30 2524 H 248.181 3.65904 -0.225864 0
M  V30 2525 H 247.829 4.58387 2.071 0
M  V30 2526 H 247.529 5.81822 0.821995 0
M  V30 2527 H 249.053 5.84867 1.75392 0
M  V30 2528 H 250.467 5.70998 -0.513272 0
M  V30 2529 H 248.864 5.86072 -1.28997 0
M  V30 2530 H 249.934 4.52322 -1.74737 0
M  V30 2531 N 251.277 0.427512 1.51691 0
M  V30 2532 C 252.526 -0.143679 2.01188 0
M  V30 2533 C 252.839 -1.44642 1.31674 0
M  V30 2534 O 254.045 -2.09997 1.72086 0
M  V30 2535 C 252.501 -0.306602 3.58592 0
M  V30 2536 C 252.109 0.985125 4.37035 0
M  V30 2537 C 253.853 -0.832091 4.16265 0
M  V30 2538 C 251.76 0.788382 5.86122 0
M  V30 2539 H 250.69 -0.0574701 0.751807 0
M  V30 2540 H 253.341 0.555772 1.74881 0
M  V30 2541 H 251.723 -1.06882 3.81303 0
M  V30 2542 H 252.897 1.75492 4.26074 0
M  V30 2543 H 251.212 1.4384 3.90767 0
M  V30 2544 H 253.809 -0.995617 5.25349 0
M  V30 2545 H 254.152 -1.81186 3.74803 0
M  V30 2546 H 254.685 -0.128444 3.97593 0
M  V30 2547 H 251.424 1.74025 6.31978 0
M  V30 2548 H 250.944 0.0582143 5.99772 0
M  V30 2549 H 252.623 0.437722 6.45518 0
M  V30 2550 N 252.755 -1.56801 0.158532 0
M  V30 2551 C 253.702 -2.17337 -0.776729 0
M  V30 2552 C 254.672 -1.1096 -1.23601 0
M  V30 2553 O 255.857 -1.39054 -1.30647 0
M  V30 2554 C 252.997 -2.80822 -2.00582 0
M  V30 2555 C 252.11 -4.01624 -1.59129 0
M  V30 2556 C 251.245 -4.53072 -2.77306 0
M  V30 2557 C 250.284 -5.66314 -2.32282 0
M  V30 2558 N 249.421 -6.12329 -3.43508 0
M  V30 2559 H 254.261 -2.96918 -0.253701 0
M  V30 2560 H 251.798 -1.46661 -0.113504 0
M  V30 2561 H 253.756 -3.15779 -2.72652 0
M  V30 2562 H 252.386 -2.03866 -2.50277 0
M  V30 2563 H 251.438 -3.72571 -0.767806 0
M  V30 2564 H 252.75 -4.83633 -1.2207 0
M  V30 2565 H 251.904 -4.90145 -3.57551 0
M  V30 2566 H 250.643 -3.70095 -3.17617 0
M  V30 2567 H 249.648 -5.28806 -1.5048 0
M  V30 2568 H 250.873 -6.51085 -1.93043 0
M  V30 2569 H 248.819 -5.32284 -3.83418 0
M  V30 2570 H 248.736 -6.89293 -3.105 0
M  V30 2571 H 250.004 -6.5405 -4.24075 0
M  V30 2572 N 254.233 0.115231 -1.57178 0
M  V30 2573 C 255.51 0.852873 -1.76027 0
M  V30 2574 C 255.89 1.97892 -0.73498 0
M  V30 2575 O 255.238 2.27232 0.24036 0
M  V30 2576 C 255.448 1.36608 -3.21153 0
M  V30 2577 C 256.796 1.81692 -3.83762 0
M  V30 2578 O 257.82 1.46278 -3.24779 0
M  V30 2579 O 256.679 2.47104 -4.87444 0
M  V30 2580 H 253.773 0.405296 -0.720877 0
M  V30 2581 H 256.319 0.0986785 -1.69413 0
M  V30 2582 H 255.091 0.558357 -3.87296 0
M  V30 2583 H 254.714 2.18287 -3.3232 0
M  V30 2584 N 255.711 1.52812 0.385517 0
M  V30 2585 C 256.659 1.78482 1.49155 0
M  V30 2586 C 257.653 0.652914 1.56312 0
M  V30 2587 O 258.859 0.835464 1.59436 0
M  V30 2588 H 255.234 0.5648 0.496493 0
M  V30 2589 H 257.205 2.71095 1.24699 0
M  V30 2590 C 255.954 1.97378 2.86247 0
M  V30 2591 H 255.277 2.83907 2.81491 0
M  V30 2592 H 256.717 2.19327 3.62866 0
M  V30 2593 C 255.176 0.74728 3.28508 0
M  V30 2594 O 255.706 -0.0736232 4.01633 0
M  V30 2595 N 253.912 0.576396 2.84826 0
M  V30 2596 H 253.459 1.24555 2.25486 0
M  V30 2597 H 253.417 -0.24288 3.1346 0
M  V30 2598 N 257.189 -0.644168 1.43834 0
M  V30 2599 C 258.139 -1.7501 1.46135 0
M  V30 2600 C 259.123 -1.57507 0.328685 0
M  V30 2601 O 260.315 -1.67465 0.5731 0
M  V30 2602 C 257.444 -3.13641 1.39585 0
M  V30 2603 C 256.53 -3.3666 2.57916 0
M  V30 2604 N 256.921 -3.30107 3.83227 0
M  V30 2605 C 255.219 -3.67411 2.52834 0
M  V30 2606 C 255.92 -3.53456 4.61999 0
M  V30 2607 N 254.896 -3.75705 3.9287 0
M  V30 2608 H 258.698 -1.68382 2.40883 0
M  V30 2609 H 256.212 -0.846169 1.38614 0
M  V30 2610 H 258.209 -3.92933 1.39317 0
M  V30 2611 H 256.869 -3.21444 0.45865 0
M  V30 2612 H 257.88 -3.09316 4.15384 0
M  V30 2613 H 254.557 -3.82275 1.67845 0
M  V30 2614 H 255.947 -3.54093 5.71024 0
M  V30 2615 N 258.668 -1.30515 -0.883378 0
M  V30 2616 C 259.914 -1.19607 -1.63774 0
M  V30 2617 C 260.247 0.248314 -1.92606 0
M  V30 2618 O 259.522 1.17742 -1.54813 0
M  V30 2619 C 259.805 -2.02669 -2.97653 0
M  V30 2620 C 259.658 -3.55335 -2.75784 0
M  V30 2621 C 260.977 -1.86573 -3.98596 0
M  V30 2622 H 258.096 -0.435856 -0.594305 0
M  V30 2623 H 260.738 -1.60165 -1.02212 0
M  V30 2624 H 258.888 -1.68208 -3.50197 0
M  V30 2625 H 260.56 -3.99863 -2.30016 0
M  V30 2626 H 258.803 -3.79438 -2.1026 0
M  V30 2627 H 259.474 -4.08745 -3.70988 0
M  V30 2628 H 261.95 -2.16703 -3.55217 0
M  V30 2629 H 260.826 -2.47014 -4.90179 0
M  V30 2630 H 261.087 -0.825321 -4.34328 0
M  V30 2631 N 260.146 1.09593 -1.13257 0
M  V30 2632 C 261.109 2.14359 -0.811358 0
M  V30 2633 C 262.109 1.59808 0.178377 0
M  V30 2634 O 263.299 1.74132 -0.0484911 0
M  V30 2635 C 260.431 3.40269 -0.207276 0
M  V30 2636 H 261.624 2.44284 -1.73969 0
M  V30 2637 H 259.177 1.25102 -0.936973 0
M  V30 2638 H 259.912 3.15969 0.73036 0
M  V30 2639 H 259.697 3.81154 -0.919992 0
M  V30 2640 H 261.187 4.176 0.000667944 0
M  V30 2641 N 261.624 0.925811 1.2754 0
M  V30 2642 C 262.587 0.428129 2.25166 0
M  V30 2643 C 263.587 -0.452261 1.54309 0
M  V30 2644 O 264.777 -0.253608 1.72344 0
M  V30 2645 C 261.909 -0.384749 3.38722 0
M  V30 2646 H 263.102 1.29066 2.70706 0
M  V30 2647 H 260.655 0.706323 1.3943 0
M  V30 2648 H 261.39 -1.26618 2.98561 0
M  V30 2649 H 261.175 0.246454 3.91325 0
M  V30 2650 H 262.665 -0.723389 4.11287 0
M  V30 2651 N 263.102 -1.41638 0.69111 0
M  V30 2652 C 264.065 -2.29178 0.0319786 0
M  V30 2653 C 265.065 -1.44153 -0.712496 0
M  V30 2654 O 266.255 -1.65354 -0.548053 0
M  V30 2655 C 263.387 -3.26952 -0.965161 0
M  V30 2656 H 264.58 -2.88959 0.802681 0
M  V30 2657 H 262.133 -1.4955 0.454356 0
M  V30 2658 H 262.868 -2.72142 -1.76378 0
M  V30 2659 H 262.653 -3.89685 -0.434522 0
M  V30 2660 H 264.143 -3.92561 -1.42428 0
M  V30 2661 N 264.58 -0.43555 -1.51462 0
M  V30 2662 C 265.828 0.131254 -2.01673 0
M  V30 2663 C 266.149 1.43368 -1.32177 0
M  V30 2664 O 265.419 1.90524 -0.455769 0
M  V30 2665 H 263.999 0.0514954 -0.745223 0
M  V30 2666 H 266.661 -0.577847 -1.86137 0
M  V30 2667 H 265.757 0.308446 -3.10572 0
M  V30 2668 N 266.058 1.56714 -0.166846 0
M  V30 2669 C 267.283 2.01557 0.488833 0
M  V30 2670 C 267.708 1.0463 1.56314 0
M  V30 2671 O 267.066 0.0251304 1.81283 0
M  V30 2672 C 267.114 3.4503 1.04818 0
M  V30 2673 O 266.218 3.51163 2.16236 0
M  V30 2674 H 265.559 0.653516 0.117526 0
M  V30 2675 H 268.089 2.02818 -0.269421 0
M  V30 2676 H 268.099 3.84243 1.37191 0
M  V30 2677 H 266.774 4.15077 0.261572 0
M  V30 2678 H 265.351 3.23807 1.84942 0
M  V30 2679 N 267.536 -0.106894 1.57237 0
M  V30 2680 C 268.782 -0.81373 1.85759 0
M  V30 2681 C 269.115 -1.78952 0.754315 0
M  V30 2682 O 268.39 -1.93029 -0.23879 0
M  V30 2683 C 268.673 -1.55293 3.24894 0
M  V30 2684 C 268.526 -0.595929 4.45835 0
M  V30 2685 C 269.845 -2.5063 3.61763 0
M  V30 2686 H 266.964 -0.294369 0.67566 0
M  V30 2687 H 269.606 -0.0776472 1.89841 0
M  V30 2688 H 267.756 -2.1804 3.21544 0
M  V30 2689 H 269.428 0.0236262 4.61294 0
M  V30 2690 H 267.671 0.0916191 4.33703 0
M  V30 2691 H 268.342 -1.15004 5.39887 0
M  V30 2692 H 270.818 -1.97982 3.65981 0
M  V30 2693 H 269.694 -2.99376 4.60071 0
M  V30 2694 H 269.955 -3.3385 2.89821 0
M  V30 2695 N 269.014 -1.53014 -0.377408 0
M  V30 2696 C 270.26 -1.68872 -1.12294 0
M  V30 2697 C 270.593 -0.433224 -1.89306 0
M  V30 2698 O 269.868 0.569258 -1.85983 0
M  V30 2699 C 270.151 -2.93115 -2.09179 0
M  V30 2700 C 270.004 -4.28794 -1.35853 0
M  V30 2701 C 271.323 -3.12928 -3.09458 0
M  V30 2702 H 268.442 -0.614518 -0.406862 0
M  V30 2703 H 271.084 -1.85633 -0.40503 0
M  V30 2704 H 269.234 -2.78956 -2.70399 0
M  V30 2705 H 270.906 -4.54742 -0.775082 0
M  V30 2706 H 269.149 -4.28744 -0.660364 0
M  V30 2707 H 269.82 -5.11837 -2.06706 0
M  V30 2708 H 272.296 -3.26194 -2.58334 0
M  V30 2709 H 271.172 -4.01316 -3.74482 0
M  V30 2710 H 271.433 -2.27669 -3.78971 0
M  V30 2711 N 270.492 0.636531 -1.44174 0
M  V30 2712 C 271.769 1.39463 -1.37148 0
M  V30 2713 C 272.149 2.11082 -0.027507 0
M  V30 2714 O 271.497 2.05954 0.989716 0
M  V30 2715 C 271.707 2.36552 -2.56601 0
M  V30 2716 C 273.055 3.00048 -3.00427 0
M  V30 2717 O 274.079 2.46878 -2.56767 0
M  V30 2718 O 272.938 3.96488 -3.76111 0
M  V30 2719 H 270.032 0.623903 -0.542839 0
M  V30 2720 H 272.578 0.662039 -1.56253 0
M  V30 2721 H 271.35 1.82692 -3.46034 0
M  V30 2722 H 270.973 3.17236 -2.39681 0
M  V30 2723 N 271.97 1.30982 0.876444 0
M  V30 2724 C 272.933 1.18054 1.96459 0
M  V30 2725 C 273.933 0.109399 1.60427 0
M  V30 2726 O 275.123 0.358173 1.70478 0
M  V30 2727 C 272.255 0.810616 3.31122 0
M  V30 2728 H 273.448 2.14735 2.09354 0
M  V30 2729 H 271.001 1.145 1.06392 0
M  V30 2730 H 271.736 -0.155322 3.23928 0
M  V30 2731 H 271.521 1.58481 3.58645 0
M  V30 2732 H 273.011 0.743876 4.10921 0
M  V30 2733 N 273.449 -1.08991 1.13837 0
M  V30 2734 C 274.379 -2.17771 0.842507 0
M  V30 2735 C 275.36 -1.6892 -0.20001 0
M  V30 2736 O 276.545 -1.94113 -0.0579731 0
M  V30 2737 C 273.675 -3.4589 0.312644 0
M  V30 2738 C 272.629 -4.08099 1.28992 0
M  V30 2739 C 271.955 -5.31098 0.619623 0
M  V30 2740 C 273.255 -4.50077 2.65005 0
M  V30 2741 H 274.949 -2.42777 1.75213 0
M  V30 2742 H 272.495 -1.16682 0.843875 0
M  V30 2743 H 274.448 -4.21297 0.0933043 0
M  V30 2744 H 273.172 -3.20419 -0.632382 0
M  V30 2745 H 271.831 -3.34717 1.49533 0
M  V30 2746 H 271.479 -5.0191 -0.33102 0
M  V30 2747 H 271.179 -5.73674 1.27167 0
M  V30 2748 H 272.703 -6.09224 0.409669 0
M  V30 2749 H 274.117 -5.16688 2.48407 0
M  V30 2750 H 272.514 -5.03553 3.26427 0
M  V30 2751 H 273.584 -3.62257 3.22332 0
M  V30 2752 N 274.927 -0.932562 -1.27047 0
M  V30 2753 C 276.343 -0.633544 -1.46487 0
M  V30 2754 C 276.543 0.815746 -1.84249 0
M  V30 2755 O 275.599 1.59319 -1.95892 0
M  V30 2756 C 276.912 -1.58758 -2.55375 0
M  V30 2757 C 278.46 -1.59634 -2.69232 0
M  V30 2758 C 278.935 -2.53747 -3.81283 0
M  V30 2759 N 280.426 -2.51982 -3.88664 0
M  V30 2760 C 281.161 -3.21491 -4.74796 0
M  V30 2761 N 280.657 -4.00395 -5.65381 0
M  V30 2762 N 282.45 -3.10485 -4.68568 0
M  V30 2763 H 274.601 -1.86946 -1.00821 0
M  V30 2764 H 276.864 -0.802897 -0.504044 0
M  V30 2765 H 276.57 -2.62172 -2.34432 0
M  V30 2766 H 276.444 -1.33301 -3.52861 0
M  V30 2767 H 278.831 -0.569488 -2.89553 0
M  V30 2768 H 278.912 -1.89142 -1.72218 0
M  V30 2769 H 278.556 -3.56545 -3.61715 0
M  V30 2770 H 278.486 -2.21532 -4.77735 0
M  V30 2771 H 280.977 -1.94681 -3.23895 0
M  V30 2772 H 281.29 -4.50406 -6.27976 0
M  V30 2773 H 279.635 -4.04498 -5.65161 0
M  V30 2774 H 282.826 -2.48331 -3.96799 0
M  V30 2775 H 282.999 -3.64925 -5.35475 0
M  V30 2776 N 276.405 1.4127 -0.698611 0
M  V30 2777 C 277.368 2.29158 -0.044132 0
M  V30 2778 C 278.368 1.44529 0.704841 0
M  V30 2779 O 279.558 1.65643 0.539276 0
M  V30 2780 C 276.69 3.27459 0.947809 0
M  V30 2781 H 277.883 2.88529 -0.817994 0
M  V30 2782 H 275.436 1.49307 -0.46228 0
M  V30 2783 H 276.171 2.73073 1.74933 0
M  V30 2784 H 275.956 3.8991 0.41385 0
M  V30 2785 H 277.446 3.93311 1.40344 0
M  V30 2786 N 277.883 0.443576 1.51229 0
M  V30 2787 C 279.129 -0.120975 2.02439 0
M  V30 2788 C 279.462 -1.41815 1.32674 0
M  V30 2789 O 278.737 -1.89373 0.443622 0
M  V30 2790 C 279.02 -0.333291 3.58554 0
M  V30 2791 C 278.873 0.982968 4.38928 0
M  V30 2792 C 280.192 -1.10028 4.26124 0
M  V30 2793 H 277.311 -0.0424923 0.735774 0
M  V30 2794 H 279.953 0.583794 1.80809 0
M  V30 2795 H 278.103 -0.933614 3.77115 0
M  V30 2796 H 279.775 1.61775 4.32003 0
M  V30 2797 H 278.018 1.58611 4.03763 0
M  V30 2798 H 278.689 0.788379 5.46341 0
M  V30 2799 H 281.165 -0.591711 4.11871 0
M  V30 2800 H 280.041 -1.21761 5.35225 0
M  V30 2801 H 280.302 -2.12996 3.87408 0
M  V30 2802 N 279.361 -1.56624 0.175154 0
M  V30 2803 C 280.777 -1.58571 -0.180966 0
M  V30 2804 C 280.977 -1.19065 -1.6256 0
M  V30 2805 O 280.033 -0.904044 -2.35761 0
M  V30 2806 C 281.346 -3.00522 0.103326 0
M  V30 2807 C 282.894 -3.12972 0.0418426 0
M  V30 2808 C 283.369 -4.57022 0.299175 0
M  V30 2809 N 284.86 -4.62541 0.247086 0
M  V30 2810 C 285.595 -5.71857 0.420318 0
M  V30 2811 N 285.091 -6.89717 0.652816 0
M  V30 2812 N 286.884 -5.60972 0.355957 0
M  V30 2813 H 279.035 -1.80589 1.11809 0
M  V30 2814 H 281.298 -0.837178 0.444788 0
M  V30 2815 H 281.004 -3.33916 1.10422 0
M  V30 2816 H 280.878 -3.72344 -0.603299 0
M  V30 2817 H 283.265 -2.79403 -0.949636 0
M  V30 2818 H 283.346 -2.43578 0.781238 0
M  V30 2819 H 282.99 -4.913 1.28788 0
M  V30 2820 H 282.92 -5.24579 -0.460876 0
M  V30 2821 H 285.411 -3.77829 0.0731895 0
M  V30 2822 H 285.724 -7.68911 0.774347 0
M  V30 2823 H 284.069 -6.91572 0.689476 0
M  V30 2824 H 287.26 -4.67773 0.174882 0
M  V30 2825 H 287.433 -6.46111 0.494388 0
M  V30 2826 N 280.839 0.0985539 -1.57292 0
M  V30 2827 C 281.787 1.1387 -2.02821 0
M  V30 2828 C 282.781 1.41676 -0.928666 0
M  V30 2829 O 283.987 1.41398 -1.11385 0
M  V30 2830 H 280.362 0.384419 -0.646317 0
M  V30 2831 H 282.333 0.728347 -2.89375 0
M  V30 2832 C 281.082 2.45166 -2.46554 0
M  V30 2833 H 280.405 2.24613 -3.3074 0
M  V30 2834 H 281.845 3.16456 -2.8219 0
M  V30 2835 C 280.304 3.09216 -1.33742 0
M  V30 2836 O 280.834 3.96163 -0.66464 0
M  V30 2837 N 279.04 2.69413 -1.08928 0
M  V30 2838 H 278.587 1.98801 -1.63817 0
M  V30 2839 H 278.545 3.12594 -0.336458 0
M  V30 2840 N 282.317 1.53212 0.369288 0
M  V30 2841 C 283.28 1.7872 1.43498 0
M  V30 2842 C 284.28 0.657554 1.46741 0
M  V30 2843 O 285.47 0.925736 1.47566 0
M  V30 2844 C 282.602 1.90591 2.82645 0
M  V30 2845 H 283.795 2.73894 1.22156 0
M  V30 2846 H 281.348 1.44233 0.602203 0
M  V30 2847 H 282.083 0.974709 3.09306 0
M  V30 2848 H 281.868 2.72751 2.8169 0
M  V30 2849 H 283.358 2.11931 3.59826 0
M  V30 2850 N 283.795 -0.628877 1.44509 0
M  V30 2851 C 284.758 -1.72263 1.51188 0
M  V30 2852 C 285.758 -1.55907 0.39367 0
M  V30 2853 O 286.948 -1.61361 0.656377 0
M  V30 2854 C 284.08 -3.11365 1.38798 0
M  V30 2855 H 285.273 -1.67714 2.4862 0
M  V30 2856 H 282.826 -0.842737 1.31634 0
M  V30 2857 H 283.561 -3.21507 0.424693 0
M  V30 2858 H 283.346 -3.24644 2.19884 0
M  V30 2859 H 284.836 -3.91075 1.46458 0
M  V30 2860 N 285.273 -1.31445 -0.869486 0
M  V30 2861 C 286.684 -1.19042 -1.43826 0
M  V30 2862 C 287.035 0.202919 -1.95148 0
M  V30 2863 O 286.16 1.10071 -1.86315 0
M  V30 2864 C 286.755 -2.15499 -2.6143 0
M  V30 2865 C 285.314 -2.07028 -3.14351 0
M  V30 2866 C 284.461 -2.04701 -1.87063 0
M  V30 2867 H 287.412 -1.43489 -0.677984 0
M  V30 2868 H 287.433 -1.74488 -3.38134 0
M  V30 2869 H 286.945 -3.16899 -2.24046 0
M  V30 2870 H 285.046 -1.08825 -3.56354 0
M  V30 2871 H 285.159 -2.96157 -3.766 0
M  V30 2872 H 283.523 -1.49724 -2.06046 0
M  V30 2873 H 284.306 -3.07857 -1.51917 0
M  V30 2874 N 286.751 1.08385 -1.14413 0
M  V30 2875 C 288.028 1.77429 -0.823297 0
M  V30 2876 C 288.408 1.9974 0.683163 0
M  V30 2877 O 287.756 1.60739 1.62405 0
M  V30 2878 C 287.966 3.09004 -1.62227 0
M  V30 2879 C 289.314 3.83532 -1.82177 0
M  V30 2880 O 290.338 3.18786 -1.58915 0
M  V30 2881 O 289.197 4.99792 -2.21067 0
M  V30 2882 H 286.291 0.769999 -0.301712 0
M  V30 2883 H 288.837 1.14846 -1.24934 0
M  V30 2884 H 287.609 2.88316 -2.64555 0
M  V30 2885 H 287.232 3.79316 -1.19187 0
M  V30 2886 N 288.23 0.939286 1.26551 0
M  V30 2887 C 289.16 0.465044 2.28822 0
M  V30 2888 C 290.141 -0.480692 1.63167 0
M  V30 2889 O 291.326 -0.382955 1.90387 0
M  V30 2890 C 288.456 -0.27234 3.46231 0
M  V30 2891 C 287.41 0.58666 4.2396 0
M  V30 2892 C 286.736 -0.280573 5.33963 0
M  V30 2893 C 288.036 1.85704 4.88171 0
M  V30 2894 H 289.73 1.31979 2.68741 0
M  V30 2895 H 287.276 0.636061 1.29191 0
M  V30 2896 H 289.229 -0.615133 4.16886 0
M  V30 2897 H 287.953 -1.16121 3.0526 0
M  V30 2898 H 286.612 0.91232 3.55067 0
M  V30 2899 H 286.26 -1.16874 4.89234 0
M  V30 2900 H 285.96 0.29076 5.8688 0
M  V30 2901 H 287.484 -0.618678 6.07458 0
M  V30 2902 H 288.898 1.58161 5.51052 0
M  V30 2903 H 287.295 2.37279 5.51197 0
M  V30 2904 H 288.365 2.56957 4.11219 0
M  V30 2905 N 289.708 -1.40897 0.706093 0
M  V30 2906 C 291.119 -1.84023 0.315052 0
M  V30 2907 C 291.47 -1.5906 -1.14866 0
M  V30 2908 O 290.595 -1.06651 -1.88293 0
M  V30 2909 C 291.19 -3.34055 0.565038 0
M  V30 2910 C 289.749 -3.7571 0.227806 0
M  V30 2911 C 288.896 -2.64204 0.842122 0
M  V30 2912 H 291.847 -1.303 0.905963 0
M  V30 2913 H 291.868 -3.80107 -0.172843 0
M  V30 2914 H 291.38 -3.52192 1.63042 0
M  V30 2915 H 289.481 -3.63172 -0.832895 0
M  V30 2916 H 289.594 -4.74103 0.690174 0
M  V30 2917 H 287.958 -2.53255 0.270893 0
M  V30 2918 H 288.741 -2.85155 1.91158 0
M  V30 2919 N 291.186 -0.45159 -1.50991 0
M  V30 2920 C 292.426 0.109066 -2.04109 0
M  V30 2921 C 292.79 1.38716 -1.32747 0
M  V30 2922 O 293.991 2.02896 -1.76314 0
M  V30 2923 C 292.262 0.308354 -3.56067 0
M  V30 2924 S 293.821 0.830369 -4.30872 0
M  V30 2925 H 290.639 0.0251531 -0.710555 0
M  V30 2926 H 293.241 -0.614264 -1.85599 0
M  V30 2927 H 291.945 -0.627962 -4.05567 0
M  V30 2928 H 291.476 1.05836 -3.78896 0
M  V30 2929 H 293.491 2.10626 -4.49279 0
M  V30 2930 N 292.664 1.56529 -0.183458 0
M  V30 2931 C 293.574 2.22144 0.754272 0
M  V30 2932 C 294.59 1.21684 1.24374 0
M  V30 2933 O 295.766 1.54385 1.29333 0
M  V30 2934 C 292.831 2.85884 1.96141 0
M  V30 2935 C 291.892 4.01579 1.51765 0
M  V30 2936 C 291.125 4.6227 2.66725 0
M  V30 2937 O 291.348 4.21865 3.83909 0
M  V30 2938 O 290.282 5.51936 2.40104 0
M  V30 2939 H 294.108 3.02861 0.225527 0
M  V30 2940 H 291.693 1.49331 0.0453032 0
M  V30 2941 H 293.575 3.26253 2.66715 0
M  V30 2942 H 292.25 2.08154 2.47899 0
M  V30 2943 H 291.157 3.65856 0.781049 0
M  V30 2944 H 292.49 4.80938 1.04686 0
M  V30 2945 N 294.142 -0.090211 1.57342 0
M  V30 2946 C 295.388 -0.793982 1.86611 0
M  V30 2947 C 295.721 -1.78142 0.773252 0
M  V30 2948 O 294.996 -1.93271 -0.218304 0
M  V30 2949 C 295.279 -1.51839 3.26523 0
M  V30 2950 C 295.132 -0.548609 4.46442 0
M  V30 2951 C 296.451 -2.46779 3.64401 0
M  V30 2952 H 293.57 -0.287186 0.678744 0
M  V30 2953 H 296.212 -0.0575076 1.89913 0
M  V30 2954 H 294.362 -2.14617 3.23839 0
M  V30 2955 H 296.034 0.0725513 4.61243 0
M  V30 2956 H 294.277 0.137614 4.33582 0
M  V30 2957 H 294.948 -1.09271 5.41076 0
M  V30 2958 H 297.424 -1.94089 3.68061 0
M  V30 2959 H 296.3 -2.94479 4.63221 0
M  V30 2960 H 296.561 -3.30758 2.93346 0
M  V30 2961 N 295.62 -1.53406 -0.361157 0
M  V30 2962 C 296.53 -1.83122 -1.4664 0
M  V30 2963 C 297.546 -0.719943 -1.58407 0
M  V30 2964 O 298.722 -1.01046 -1.74218 0
M  V30 2965 C 295.787 -2.01891 -2.81853 0
M  V30 2966 C 294.848 -3.25784 -2.79577 0
M  V30 2967 C 294.081 -3.43648 -4.0834 0
M  V30 2968 O 294.304 -2.65714 -5.0473 0
M  V30 2969 O 293.238 -4.37018 -4.13883 0
M  V30 2970 H 297.064 -2.7703 -1.24451 0
M  V30 2971 H 294.649 -1.38841 -0.551678 0
M  V30 2972 H 296.531 -2.15782 -3.61962 0
M  V30 2973 H 295.206 -1.11173 -3.0401 0
M  V30 2974 H 294.113 -3.17312 -1.98151 0
M  V30 2975 H 295.446 -4.16439 -2.62373 0
M  V30 2976 N 297.098 0.621204 -1.44841 0
M  V30 2977 C 298.344 1.3826 -1.48365 0
M  V30 2978 C 298.677 1.93831 -0.119624 0
M  V30 2979 O 297.952 1.74251 0.864111 0
M  V30 2980 C 298.235 2.54058 -2.55199 0
M  V30 2981 C 298.088 2.03772 -4.00995 0
M  V30 2982 C 299.407 3.56225 -2.58442 0
M  V30 2983 H 296.526 0.501374 -0.540179 0
M  V30 2984 H 299.168 0.7015 -1.76576 0
M  V30 2985 H 297.318 3.12162 -2.31274 0
M  V30 2986 H 298.99 1.50423 -4.36086 0
M  V30 2987 H 297.233 1.34876 -4.12299 0
M  V30 2988 H 297.904 2.87185 -4.71411 0
M  V30 2989 H 300.38 3.07939 -2.79844 0
M  V30 2990 H 299.256 4.34756 -3.3508 0
M  V30 2991 H 299.517 4.10949 -1.63013 0
M  V30 2992 N 298.576 1.31904 0.862503 0
M  V30 2993 C 299.853 1.12644 1.59908 0
M  V30 2994 C 300.233 -0.316104 2.0872 0
M  V30 2995 O 299.581 -1.31145 1.87118 0
M  V30 2996 C 299.791 2.1472 2.7513 0
M  V30 2997 C 301.139 2.47637 3.44907 0
M  V30 2998 O 302.163 2.13205 2.85346 0
M  V30 2999 O 301.022 3.06632 4.52371 0
M  V30 3000 H 298.116 0.43416 0.703871 0
M  V30 3001 H 300.662 1.43408 0.907314 0
M  V30 3002 H 299.434 3.1172 2.3653 0
M  V30 3003 H 299.057 1.84905 3.51989 0
M  V30 3004 N 300.054 -1.07777 1.14986 0
M  V30 3005 C 301.279 -1.84558 0.946213 0
M  V30 3006 C 301.704 -1.81323 -0.500362 0
M  V30 3007 O 301.062 -1.20301 -1.35637 0
M  V30 3008 C 301.11 -3.29736 1.45968 0
M  V30 3009 O 300.214 -4.07149 0.65601 0
M  V30 3010 H 299.555 -0.571641 0.33782 0
M  V30 3011 H 302.085 -1.35991 1.52865 0
M  V30 3012 H 302.095 -3.80574 1.47063 0
M  V30 3013 H 300.77 -3.31406 2.51283 0
M  V30 3014 H 299.347 -3.65994 0.714322 0
M  V30 3015 N 301.532 -0.945985 -1.26051 0
M  V30 3016 C 302.462 -0.477172 -2.28572 0
M  V30 3017 C 303.443 0.472032 -1.63419 0
M  V30 3018 O 304.628 0.372853 -1.90587 0
M  V30 3019 C 301.758 0.253975 -3.4637 0
M  V30 3020 C 300.712 -0.609135 -4.23643 0
M  V30 3021 C 300.038 0.252252 -5.34105 0
M  V30 3022 C 301.338 -1.8829 -4.8718 0
M  V30 3023 H 303.032 -1.33402 -2.68038 0
M  V30 3024 H 300.578 -0.642904 -1.28852 0
M  V30 3025 H 302.531 0.593016 -4.17207 0
M  V30 3026 H 301.255 1.145 -3.05871 0
M  V30 3027 H 299.914 -0.931138 -3.54578 0
M  V30 3028 H 299.562 1.14278 -4.89846 0
M  V30 3029 H 299.262 -0.32188 -5.86718 0
M  V30 3030 H 300.786 0.586454 -6.07777 0
M  V30 3031 H 302.2 -1.61081 -5.50205 0
M  V30 3032 H 300.597 -2.40199 -5.49931 0
M  V30 3033 H 301.667 -2.59134 -4.09851 0
M  V30 3034 N 303.011 1.40521 -0.713556 0
M  V30 3035 C 303.921 2.34522 -0.0606667 0
M  V30 3036 C 304.937 1.57193 0.74607 0
M  V30 3037 O 306.113 1.89591 0.679493 0
M  V30 3038 C 303.178 3.36081 0.851491 0
M  V30 3039 C 302.239 4.29286 0.0349339 0
M  V30 3040 C 301.472 5.25994 0.903649 0
M  V30 3041 O 301.695 5.28616 2.14292 0
M  V30 3042 O 300.629 6.00918 0.343723 0
M  V30 3043 H 304.455 2.91968 -0.835972 0
M  V30 3044 H 302.04 1.41681 -0.47402 0
M  V30 3045 H 303.922 3.98369 1.37404 0
M  V30 3046 H 302.597 2.81052 1.60598 0
M  V30 3047 H 301.504 3.70289 -0.532633 0
M  V30 3048 H 302.837 4.87462 -0.681287 0
M  V30 3049 N 304.489 0.459591 1.5075 0
M  V30 3050 C 305.421 -0.37665 2.26084 0
M  V30 3051 C 306.434 -0.967109 1.30961 0
M  V30 3052 O 307.623 -0.857468 1.56556 0
M  V30 3053 C 304.723 -1.54112 3.01832 0
M  V30 3054 C 303.896 -1.06553 4.24223 0
M  V30 3055 C 302.955 -2.1027 4.82362 0
M  V30 3056 O 301.981 -1.68798 5.43595 0
M  V30 3057 N 303.183 -3.42974 4.68347 0
M  V30 3058 H 305.948 0.269124 2.98489 0
M  V30 3059 H 303.509 0.28972 1.59287 0
M  V30 3060 H 305.501 -2.23165 3.37608 0
M  V30 3061 H 304.071 -2.0918 2.32298 0
M  V30 3062 H 303.291 -0.201274 3.93686 0
M  V30 3063 H 304.579 -0.725516 5.03601 0
M  V30 3064 H 303.977 -3.79385 4.19623 0
M  V30 3065 H 302.534 -4.07858 5.08424 0
M  V30 3066 N 305.967 -1.56429 0.191757 0
M  V30 3067 C 306.897 -2.21937 -0.725696 0
M  V30 3068 C 307.878 -1.1814 -1.2238 0
M  V30 3069 O 309.063 -1.46636 -1.27325 0
M  V30 3070 C 306.193 -2.87611 -1.94672 0
M  V30 3071 C 305.147 -3.97623 -1.58366 0
M  V30 3072 C 304.473 -4.50446 -2.88102 0
M  V30 3073 C 305.773 -5.16197 -0.796133 0
M  V30 3074 H 307.467 -2.98861 -0.179606 0
M  V30 3075 H 305.013 -1.43749 -0.0849464 0
M  V30 3076 H 306.966 -3.3212 -2.59373 0
M  V30 3077 H 305.69 -2.08087 -2.51728 0
M  V30 3078 H 304.349 -3.53801 -0.960247 0
M  V30 3079 H 303.997 -3.67688 -3.43241 0
M  V30 3080 H 303.697 -5.24675 -2.64556 0
M  V30 3081 H 305.221 -4.97654 -3.53798 0
M  V30 3082 H 306.635 -5.57271 -1.34618 0
M  V30 3083 H 305.032 -5.96471 -0.658928 0
M  V30 3084 H 306.102 -4.84473 0.203478 0
M  V30 3085 N 307.445 0.0818655 -1.57387 0
M  V30 3086 C 308.722 0.815343 -1.77796 0
M  V30 3087 C 309.102 1.96289 -0.77679 0
M  V30 3088 O 308.45 2.27691 0.192106 0
M  V30 3089 C 308.66 1.29765 -3.23978 0
M  V30 3090 C 310.008 1.7351 -3.8753 0
M  V30 3091 O 311.032 1.39356 -3.27808 0
M  V30 3092 O 309.891 2.36708 -4.92576 0
M  V30 3093 H 306.985 0.389914 -0.729312 0
M  V30 3094 H 309.531 0.0627213 -1.69584 0
M  V30 3095 H 308.303 0.47608 -3.88393 0
M  V30 3096 H 307.926 2.11189 -3.36875 0
M  V30 3097 N 308.923 1.53595 0.353017 0
M  V30 3098 C 309.886 1.80232 1.41594 0
M  V30 3099 C 310.886 0.673081 1.46035 0
M  V30 3100 O 312.076 0.941335 1.46576 0
M  V30 3101 C 309.208 1.93578 2.80607 0
M  V30 3102 H 310.401 2.75174 1.19244 0
M  V30 3103 H 307.954 1.44864 0.586872 0
M  V30 3104 H 308.689 1.00746 3.08254 0
M  V30 3105 H 308.474 2.75724 2.78781 0
M  V30 3106 H 309.964 2.15735 3.57558 0
M  V30 3107 N 310.401 -0.613514 1.45168 0
M  V30 3108 C 311.647 -1.37471 1.49096 0
M  V30 3109 C 311.98 -1.93765 0.129901 0
M  V30 3110 O 311.255 -1.74707 -0.854858 0
M  V30 3111 C 311.538 -2.52701 2.56542 0
M  V30 3112 C 311.391 -2.01643 4.0207 0
M  V30 3113 C 312.71 -3.54849 2.60327 0
M  V30 3114 H 309.829 -0.498502 0.54283 0
M  V30 3115 H 312.471 -0.692125 1.76945 0
M  V30 3116 H 310.621 -3.10931 2.32926 0
M  V30 3117 H 312.293 -1.48108 4.36877 0
M  V30 3118 H 310.536 -1.32688 4.13009 0
M  V30 3119 H 311.207 -2.84681 4.72928 0
M  V30 3120 H 313.683 -3.0645 2.81474 0
M  V30 3121 H 312.559 -4.32973 3.37381 0
M  V30 3122 H 312.82 -4.10079 1.6519 0
M  V30 3123 N 311.879 -1.3236 -0.855495 0
M  V30 3124 C 312.809 -1.23833 -1.97958 0
M  V30 3125 C 313.79 -0.122361 -1.69659 0
M  V30 3126 O 314.975 -0.30939 -1.9172 0
M  V30 3127 C 312.105 -0.959772 -3.33775 0
M  V30 3128 C 311.059 -2.03689 -3.76424 0
M  V30 3129 C 310.385 -1.61075 -5.09862 0
M  V30 3130 C 311.685 -3.4518 -3.9198 0
M  V30 3131 H 313.379 -2.1788 -2.0535 0
M  V30 3132 H 310.925 -1.04891 -0.986605 0
M  V30 3133 H 312.878 -0.886678 -4.11966 0
M  V30 3134 H 311.602 0.0163404 -3.26596 0
M  V30 3135 H 310.261 -2.10012 -3.00484 0
M  V30 3136 H 309.909 -0.622107 -4.99138 0
M  V30 3137 H 309.609 -2.33143 -5.39368 0
M  V30 3138 H 311.133 -1.55201 -5.90546 0
M  V30 3139 H 312.547 -3.4145 -4.60526 0
M  V30 3140 H 310.944 -4.1559 -4.32903 0
M  V30 3141 H 312.014 -3.84903 -2.94919 0
M  V30 3142 N 313.357 1.07166 -1.15556 0
M  V30 3143 C 314.768 1.6127 -0.940693 0
M  V30 3144 C 315.119 1.89251 0.517551 0
M  V30 3145 O 314.244 1.65937 1.38903 0
M  V30 3146 C 314.839 2.92993 -1.7012 0
M  V30 3147 C 313.398 3.43832 -1.53156 0
M  V30 3148 C 312.545 2.1786 -1.71558 0
M  V30 3149 H 315.496 0.90229 -1.30554 0
M  V30 3150 H 315.517 3.62007 -1.17181 0
M  V30 3151 H 315.029 2.72596 -2.76248 0
M  V30 3152 H 313.13 3.69307 -0.494294 0
M  V30 3153 H 313.243 4.19747 -2.30975 0
M  V30 3154 H 311.607 2.2765 -1.14225 0
M  V30 3155 H 312.39 1.99956 -2.79056 0
M  V30 3156 N 314.835 0.952656 1.25548 0
M  V30 3157 C 315.745 0.47782 2.29682 0
M  V30 3158 C 316.761 -0.453859 1.67977 0
M  V30 3159 O 317.937 -0.330587 1.98668 0
M  V30 3160 C 315.002 -0.238655 3.45878 0
M  V30 3161 C 314.063 0.730994 4.23031 0
M  V30 3162 C 313.296 0.0486165 5.33678 0
M  V30 3163 O 313.519 -1.16612 5.58353 0
M  V30 3164 O 312.453 0.733152 5.97418 0
M  V30 3165 H 316.279 1.34312 2.72386 0
M  V30 3166 H 313.864 0.719026 1.30959 0
M  V30 3167 H 315.746 -0.641774 4.16484 0
M  V30 3168 H 314.421 -1.07916 3.05181 0
M  V30 3169 H 313.328 1.18428 3.5486 0
M  V30 3170 H 314.661 1.53946 4.67506 0
M  V30 3171 N 316.313 -1.40141 0.720998 0
M  V30 3172 C 317.26 -2.30688 0.071919 0
M  V30 3173 C 318.23 -1.48476 -0.744584 0
M  V30 3174 O 319.415 -1.77201 -0.707423 0
M  V30 3175 C 316.555 -3.34724 -0.839855 0
M  V30 3176 C 315.668 -4.31998 -0.0122438 0
M  V30 3177 C 314.803 -5.23102 -0.923995 0
M  V30 3178 C 313.842 -6.12033 -0.0907969 0
M  V30 3179 N 312.979 -6.95537 -0.957718 0
M  V30 3180 H 317.819 -2.85628 0.849755 0
M  V30 3181 H 315.356 -1.40653 0.430726 0
M  V30 3182 H 317.314 -3.93618 -1.38279 0
M  V30 3183 H 315.944 -2.81274 -1.58381 0
M  V30 3184 H 314.996 -3.74841 0.64794 0
M  V30 3185 H 316.308 -4.94772 0.632595 0
M  V30 3186 H 315.462 -5.86953 -1.53527 0
M  V30 3187 H 314.201 -4.60615 -1.60264 0
M  V30 3188 H 313.206 -5.47207 0.533377 0
M  V30 3189 H 314.431 -6.76581 0.584428 0
M  V30 3190 H 312.377 -6.35633 -1.62192 0
M  V30 3191 H 312.294 -7.55099 -0.36904 0
M  V30 3192 H 313.562 -7.63832 -1.555 0
M  V30 3193 N 317.792 -0.46758 -1.50504 0
M  V30 3194 C 319.203 -0.0116166 -1.86696 0
M  V30 3195 C 319.554 1.39202 -1.38265 0
M  V30 3196 O 318.679 2.0313 -0.746132 0
M  V30 3197 C 319.274 -0.0143044 -3.38797 0
M  V30 3198 C 317.833 0.386175 -3.74414 0
M  V30 3199 C 316.98 -0.401287 -2.74381 0
M  V30 3200 H 319.931 -0.682022 -1.43297 0
M  V30 3201 H 319.952 0.788641 -3.72237 0
M  V30 3202 H 319.464 -1.03602 -3.74016 0
M  V30 3203 H 317.565 1.41237 -3.44794 0
M  V30 3204 H 317.678 0.0899596 -4.79016 0
M  V30 3205 H 316.042 0.144536 -2.5429 0
M  V30 3206 H 316.825 -1.42244 -3.12444 0
M  V30 3207 N 319.27 1.56325 -0.20005 0
M  V30 3208 C 320.18 2.22931 0.730668 0
M  V30 3209 C 321.196 1.22997 1.23076 0
M  V30 3210 O 322.372 1.55748 1.27689 0
M  V30 3211 C 319.437 2.87948 1.93098 0
M  V30 3212 C 318.498 4.03166 1.47497 0
M  V30 3213 C 317.731 4.65073 2.61807 0
M  V30 3214 O 317.954 4.25913 3.79413 0
M  V30 3215 O 316.888 5.54452 2.34237 0
M  V30 3216 H 320.714 3.03084 0.193391 0
M  V30 3217 H 318.299 1.49371 0.0294621 0
M  V30 3218 H 320.181 3.29063 2.6324 0
M  V30 3219 H 318.856 2.10771 2.45677 0
M  V30 3220 H 317.763 3.66664 0.742201 0
M  V30 3221 H 319.096 4.82022 0.995796 0
M  V30 3222 N 320.748 -0.0735177 1.57428 0
M  V30 3223 C 321.678 -1.0879 2.06608 0
M  V30 3224 C 322.659 -1.40473 0.959237 0
M  V30 3225 O 323.844 -1.5013 1.23185 0
M  V30 3226 C 320.974 -2.40183 2.50857 0
M  V30 3227 C 319.928 -2.22858 3.65402 0
M  V30 3228 C 319.254 -3.59619 3.957 0
M  V30 3229 C 320.554 -1.65123 4.95511 0
M  V30 3230 H 322.248 -0.678673 2.91607 0
M  V30 3231 H 319.794 -0.325013 1.40284 0
M  V30 3232 H 321.747 -3.11437 2.83874 0
M  V30 3233 H 320.471 -2.83083 1.62885 0
M  V30 3234 H 319.13 -1.54045 3.32664 0
M  V30 3235 H 318.778 -4.00086 3.04861 0
M  V30 3236 H 318.478 -3.48866 4.72828 0
M  V30 3237 H 320.002 -4.32306 4.31212 0
M  V30 3238 H 321.416 -2.26241 5.26771 0
M  V30 3239 H 319.813 -1.65071 5.7695 0
M  V30 3240 H 320.883 -0.612559 4.81015 0
M  V30 3241 N 322.226 -1.5378 -0.344866 0
M  V30 3242 C 323.475 -1.7018 -1.08267 0
M  V30 3243 C 323.788 -0.471 -1.89845 0
M  V30 3244 O 324.994 -0.515917 -2.66553 0
M  V30 3245 C 323.45 -3.00923 -1.97417 0
M  V30 3246 C 323.058 -4.31335 -1.21053 0
M  V30 3247 C 324.802 -3.26688 -2.71063 0
M  V30 3248 C 322.709 -5.53153 -2.09225 0
M  V30 3249 H 321.639 -0.634138 -0.407903 0
M  V30 3250 H 324.29 -1.8028 -0.342246 0
M  V30 3251 H 322.672 -2.84676 -2.75274 0
M  V30 3252 H 323.846 -4.58281 -0.481159 0
M  V30 3253 H 322.161 -4.12173 -0.591813 0
M  V30 3254 H 324.758 -4.1489 -3.37299 0
M  V30 3255 H 325.101 -2.43639 -3.37558 0
M  V30 3256 H 325.634 -3.43705 -2.0028 0
M  V30 3257 H 322.373 -6.38741 -1.47274 0
M  V30 3258 H 321.893 -5.30458 -2.79955 0
M  V30 3259 H 323.572 -5.88744 -2.68308 0
M  V30 3260 N 323.704 0.605807 -1.45491 0
M  V30 3261 C 324.634 1.72709 -1.57143 0
M  V30 3262 C 325.615 1.6476 -0.422884 0
M  V30 3263 O 326.8 1.83132 -0.646247 0
M  V30 3264 C 323.93 3.11316 -1.53948 0
M  V30 3265 C 322.884 3.34077 -2.67537 0
M  V30 3266 C 322.21 4.72975 -2.49397 0
M  V30 3267 C 323.51 3.24158 -4.09535 0
M  V30 3268 H 325.204 1.63214 -2.51001 0
M  V30 3269 H 322.75 0.78379 -1.208 0
M  V30 3270 H 324.703 3.89557 -1.60696 0
M  V30 3271 H 323.427 3.21655 -0.566205 0
M  V30 3272 H 322.086 2.58227 -2.6022 0
M  V30 3273 H 321.734 4.8005 -1.50205 0
M  V30 3274 H 321.434 4.8916 -3.25571 0
M  V30 3275 H 322.958 5.53414 -2.58002 0
M  V30 3276 H 324.372 3.92271 -4.18086 0
M  V30 3277 H 322.769 3.51872 -4.86113 0
M  V30 3278 H 323.839 2.2157 -4.31317 0
M  V30 3279 N 325.182 1.32811 0.848464 0
M  V30 3280 C 326.112 1.24882 1.97299 0
M  V30 3281 C 327.093 0.131357 1.69592 0
M  V30 3282 O 328.278 0.319553 1.91553 0
M  V30 3283 C 325.408 0.97746 3.33261 0
M  V30 3284 C 324.362 2.05682 3.75338 0
M  V30 3285 C 323.688 1.63777 5.09 0
M  V30 3286 C 324.988 3.47254 3.90144 0
M  V30 3287 H 326.682 2.18966 2.04191 0
M  V30 3288 H 324.228 1.05413 0.981029 0
M  V30 3289 H 326.181 0.908513 4.1149 0
M  V30 3290 H 324.905 0.000980011 3.266 0
M  V30 3291 H 323.564 2.11603 2.99366 0
M  V30 3292 H 323.212 0.648569 4.98801 0
M  V30 3293 H 322.912 2.36 5.38124 0
M  V30 3294 H 324.436 1.5833 5.89715 0
M  V30 3295 H 325.85 3.43888 4.58709 0
M  V30 3296 H 324.247 4.1788 4.30693 0
M  V30 3297 H 325.317 3.86462 2.92874 0
M  V30 3298 N 326.66 -1.06551 1.16123 0
M  V30 3299 C 327.937 -1.76097 0.85142 0
M  V30 3300 C 328.317 -2.00802 -0.6513 0
M  V30 3301 O 327.665 -1.63302 -1.59827 0
M  V30 3302 C 327.875 -3.06384 1.67122 0
M  V30 3303 C 329.223 -3.80585 1.88255 0
M  V30 3304 O 330.247 -3.16218 1.63966 0
M  V30 3305 O 329.106 -4.96212 2.2899 0
M  V30 3306 H 326.2 -0.765102 0.313923 0
M  V30 3307 H 328.746 -1.12844 1.26745 0
M  V30 3308 H 327.518 -2.84071 2.69108 0
M  V30 3309 H 327.141 -3.77371 1.25206 0
M  V30 3310 N 328.138 -0.959301 -1.25041 0
M  V30 3311 C 329.086 -0.474437 -2.2771 0
M  V30 3312 C 330.08 0.457697 -1.631 0
M  V30 3313 O 331.286 0.333912 -1.76876 0
M  V30 3314 H 327.661 -0.134936 -0.739795 0
M  V30 3315 H 329.632 -1.35251 -2.65988 0
M  V30 3316 C 328.381 0.227884 -3.46952 0
M  V30 3317 H 327.704 -0.480248 -3.96905 0
M  V30 3318 H 329.144 0.531091 -4.20661 0
M  V30 3319 C 327.603 1.452 -3.04004 0
M  V30 3320 O 328.133 2.54949 -3.10426 0
M  V30 3321 N 326.339 1.31502 -2.59144 0
M  V30 3322 H 325.886 0.422065 -2.54119 0
M  V30 3323 H 325.844 2.13521 -2.30773 0
M  V30 3324 N 329.616 1.39756 -0.72842 0
M  V30 3325 C 330.863 2.00645 -0.273487 0
M  V30 3326 C 331.191 1.57786 1.13727 0
M  V30 3327 O 330.446 0.794886 1.7883 0
M  V30 3328 C 330.745 3.56002 -0.315776 0
M  V30 3329 C 330.411 4.18489 -1.67863 0
M  V30 3330 C 329.073 4.3527 -2.05166 0
M  V30 3331 C 331.425 4.53219 -2.57375 0
M  V30 3332 C 328.753 4.84069 -3.31503 0
M  V30 3333 C 331.105 5.03423 -3.83077 0
M  V30 3334 C 329.769 5.18413 -4.20481 0
M  V30 3335 H 329.039 0.734211 -0.100076 0
M  V30 3336 H 331.686 1.6718 -0.933972 0
M  V30 3337 H 329.991 3.89452 0.428285 0
M  V30 3338 H 331.688 4.00963 0.0542575 0
M  V30 3339 H 328.278 4.05824 -1.37858 0
M  V30 3340 H 332.462 4.39878 -2.29827 0
M  V30 3341 H 327.718 4.93859 -3.60435 0
M  V30 3342 H 331.892 5.2927 -4.52599 0
M  V30 3343 H 329.519 5.55987 -5.18443 0
M  V30 3344 N 331.094 0.475555 1.50254 0
M  V30 3345 C 332.057 -0.305016 2.27161 0
M  V30 3346 C 333.057 -0.916519 1.32123 0
M  V30 3347 O 334.247 -0.785003 1.5551 0
M  V30 3348 C 331.379 -1.43496 3.09227 0
M  V30 3349 H 332.572 0.369511 2.97615 0
M  V30 3350 H 330.125 0.229747 1.54602 0
M  V30 3351 H 330.86 -2.14441 2.43281 0
M  V30 3352 H 330.645 -1.00223 3.79075 0
M  V30 3353 H 332.135 -1.98548 3.67381 0
M  V30 3354 N 332.573 -1.56217 0.208337 0
M  V30 3355 C 333.819 -1.98242 -0.427552 0
M  V30 3356 C 334.152 -1.09554 -1.60348 0
M  V30 3357 O 333.427 -0.15035 -1.93918 0
M  V30 3358 C 333.71 -3.4931 -0.874907 0
M  V30 3359 C 333.563 -4.48773 0.303751 0
M  V30 3360 C 334.882 -4.04424 -1.73577 0
M  V30 3361 H 332.001 -0.720744 -0.153936 0
M  V30 3362 H 334.643 -1.87586 0.30192 0
M  V30 3363 H 332.793 -3.58522 -1.49648 0
M  V30 3364 H 334.465 -4.51586 0.941682 0
M  V30 3365 H 332.708 -4.23194 0.953375 0
M  V30 3366 H 333.379 -5.51976 -0.0519883 0
M  V30 3367 H 335.855 -3.98075 -1.21143 0
M  V30 3368 H 334.731 -5.1047 -2.01771 0
M  V30 3369 H 334.992 -3.50494 -2.69456 0
M  V30 3370 N 334.051 0.0651679 -1.57465 0
M  V30 3371 C 335.297 0.758912 -1.88712 0
M  V30 3372 C 335.652 1.7485 -0.802819 0
M  V30 3373 O 334.945 1.90632 0.192359 0
M  V30 3374 C 335.139 1.50081 -3.24362 0
M  V30 3375 C 334.968 0.584579 -4.45884 0
M  V30 3376 C 333.738 0.219039 -5.04825 0
M  V30 3377 C 335.936 -0.121559 -5.14156 0
M  V30 3378 N 333.918 -0.702222 -6.09871 0
M  V30 3379 C 335.289 -0.899767 -6.13436 0
M  V30 3380 C 337.344 -0.192331 -4.97528 0
M  V30 3381 C 336.047 -1.74218 -6.97883 0
M  V30 3382 C 338.073 -1.02174 -5.82507 0
M  V30 3383 C 337.435 -1.78798 -6.8133 0
M  V30 3384 H 333.534 0.25293 -0.739967 0
M  V30 3385 H 336.118 0.0201744 -1.9469 0
M  V30 3386 H 334.289 2.21023 -3.1938 0
M  V30 3387 H 336.021 2.14409 -3.43236 0
M  V30 3388 H 332.776 0.57336 -4.70117 0
M  V30 3389 H 333.2 -1.15629 -6.67052 0
M  V30 3390 H 337.842 0.385741 -4.21037 0
M  V30 3391 H 335.56 -2.3312 -7.73745 0
M  V30 3392 H 339.146 -1.07957 -5.71696 0
M  V30 3393 H 338.026 -2.41942 -7.45945 0
M  V30 3394 N 335.529 1.53961 0.336706 0
M  V30 3395 C 336.461 1.78751 1.4346 0
M  V30 3396 C 337.474 0.669019 1.48418 0
M  V30 3397 O 338.663 0.945884 1.51378 0
M  V30 3398 C 335.763 1.87844 2.82078 0
M  V30 3399 C 334.936 3.17854 3.00479 0
M  V30 3400 C 333.995 3.17816 4.19379 0
M  V30 3401 O 333.021 3.91511 4.13168 0
M  V30 3402 N 334.223 2.40669 5.2826 0
M  V30 3403 H 336.988 2.73493 1.22563 0
M  V30 3404 H 334.549 1.53096 0.526625 0
M  V30 3405 H 336.541 1.85261 3.59806 0
M  V30 3406 H 335.111 1.00257 2.96086 0
M  V30 3407 H 334.331 3.33504 2.10163 0
M  V30 3408 H 335.619 4.03718 3.0966 0
M  V30 3409 H 335.017 1.8036 5.36178 0
M  V30 3410 H 333.574 2.43877 6.04456 0
M  V30 3411 N 337.007 -0.598083 1.45811 0
M  V30 3412 C 338.235 -1.38322 1.53866 0
M  V30 3413 C 338.65 -1.87992 0.174479 0
M  V30 3414 O 338.007 -1.62756 -0.825627 0
M  V30 3415 C 338.058 -2.58125 2.53089 0
M  V30 3416 O 337.779 -2.10516 3.84206 0
M  V30 3417 C 339.28 -3.50869 2.70935 0
M  V30 3418 H 336.5 -0.423093 0.520801 0
M  V30 3419 H 339.044 -0.728527 1.91083 0
M  V30 3420 H 337.199 -3.19615 2.18917 0
M  V30 3421 H 337.613 -2.88425 4.38077 0
M  V30 3422 H 339.087 -4.31451 3.44317 0
M  V30 3423 H 339.564 -4.01822 1.77301 0
M  V30 3424 H 340.17 -2.95225 3.06141 0
M  V30 3425 N 338.485 -1.33259 -0.841409 0
M  V30 3426 C 339.417 -1.19136 -1.95804 0
M  V30 3427 C 340.43 -0.122965 -1.62335 0
M  V30 3428 O 341.619 -0.373154 -1.74556 0
M  V30 3429 C 338.719 -0.804268 -3.29218 0
M  V30 3430 C 337.892 -1.96376 -3.90839 0
M  V30 3431 C 336.951 -1.55806 -5.02604 0
M  V30 3432 O 335.977 -2.27203 -5.21888 0
M  V30 3433 N 337.179 -0.461609 -5.78662 0
M  V30 3434 H 339.944 -2.15326 -2.08458 0
M  V30 3435 H 337.505 -1.25971 -1.017 0
M  V30 3436 H 339.497 -0.51501 -4.0141 0
M  V30 3437 H 338.067 0.0668809 -3.12528 0
M  V30 3438 H 337.287 -2.41879 -3.11269 0
M  V30 3439 H 338.575 -2.73966 -4.28742 0
M  V30 3440 H 337.973 0.132343 -5.65545 0
M  V30 3441 H 336.53 -0.232013 -6.51387 0
M  V30 3442 N 339.963 1.05934 -1.16686 0
M  V30 3443 C 341.191 1.8249 -0.974929 0
M  V30 3444 C 341.606 1.82679 0.476861 0
M  V30 3445 O 340.963 1.2486 1.33103 0
M  V30 3446 C 341.014 3.28943 -1.49929 0
M  V30 3447 O 340.735 3.28886 -2.89423 0
M  V30 3448 C 342.236 4.22215 -1.35089 0
M  V30 3449 H 339.456 0.575295 -0.345365 0
M  V30 3450 H 342 1.33631 -1.548 0
M  V30 3451 H 340.155 3.751 -0.968423 0
M  V30 3452 H 340.569 4.20493 -3.13506 0
M  V30 3453 H 342.043 5.22987 -1.76603 0
M  V30 3454 H 342.52 4.38195 -0.296935 0
M  V30 3455 H 343.126 3.81907 -1.87155 0
M  V30 3456 N 341.441 0.965919 1.2453 0
M  V30 3457 C 342.404 0.499547 2.2369 0
M  V30 3458 C 343.404 -0.40294 1.5567 0
M  V30 3459 O 344.594 -0.19865 1.73064 0
M  V30 3460 C 341.726 -0.276792 3.39774 0
M  V30 3461 H 342.919 1.37613 2.66463 0
M  V30 3462 H 340.472 0.750324 1.37112 0
M  V30 3463 H 341.207 -1.17055 3.02438 0
M  V30 3464 H 340.992 0.370826 3.90343 0
M  V30 3465 H 342.482 -0.592175 4.1338 0
M  V30 3466 N 342.919 -1.39368 0.735821 0
M  V30 3467 C 344.165 -2.00794 0.284544 0
M  V30 3468 C 344.498 -1.58255 -1.12557 0
M  V30 3469 O 343.773 -0.811819 -1.76748 0
M  V30 3470 C 344.056 -3.58011 0.387337 0
M  V30 3471 C 343.909 -4.10566 1.83728 0
M  V30 3472 C 345.228 -4.395 -0.22975 0
M  V30 3473 H 342.347 -0.729501 0.104866 0
M  V30 3474 H 344.989 -1.65564 0.93213 0
M  V30 3475 H 343.139 -3.88154 -0.164006 0
M  V30 3476 H 344.811 -3.91139 2.44556 0
M  V30 3477 H 343.054 -3.64095 2.35833 0
M  V30 3478 H 343.725 -5.19702 1.86047 0
M  V30 3479 H 346.201 -4.15406 0.240257 0
M  V30 3480 H 345.077 -5.48752 -0.127485 0
M  V30 3481 H 345.338 -4.22062 -1.3159 0
M  V30 3482 N 344.397 -0.483516 -1.5 0
M  V30 3483 C 345.329 0.340634 -2.26655 0
M  V30 3484 C 346.342 0.946152 -1.32483 0
M  V30 3485 O 347.531 0.832453 -1.579 0
M  V30 3486 C 344.631 1.4929 -3.04246 0
M  V30 3487 C 343.804 0.997903 -4.25865 0
M  V30 3488 C 342.863 2.02569 -4.85646 0
M  V30 3489 O 341.889 1.60128 -5.46212 0
M  V30 3490 N 343.091 3.3548 -4.73744 0
M  V30 3491 H 345.856 -0.316577 -2.98023 0
M  V30 3492 H 343.417 -0.315024 -1.58806 0
M  V30 3493 H 345.409 2.17766 -3.41116 0
M  V30 3494 H 343.979 2.05458 -2.35597 0
M  V30 3495 H 343.199 0.138617 -3.93956 0
M  V30 3496 H 344.487 0.645305 -5.04691 0
M  V30 3497 H 343.885 3.72661 -4.25605 0
M  V30 3498 H 342.442 3.99718 -5.14848 0
M  V30 3499 N 345.875 1.56104 -0.216619 0
M  V30 3500 C 347.291 1.58995 0.13886 0
M  V30 3501 C 347.491 1.23333 1.59346 0
M  V30 3502 O 346.547 0.966234 2.33281 0
M  V30 3503 C 347.86 3.00143 -0.182968 0
M  V30 3504 C 349.408 3.12751 -0.124807 0
M  V30 3505 C 349.883 4.56068 -0.420241 0
M  V30 3506 N 351.374 4.61723 -0.369634 0
M  V30 3507 C 352.109 5.70542 -0.571789 0
M  V30 3508 N 351.605 6.87744 -0.835453 0
M  V30 3509 N 353.398 5.59831 -0.504563 0
M  V30 3510 H 345.549 1.77562 -1.16557 0
M  V30 3511 H 347.812 0.825091 -0.466828 0
M  V30 3512 H 347.518 3.30871 -1.19237 0
M  V30 3513 H 347.392 3.73813 0.504367 0
M  V30 3514 H 349.779 2.81822 0.875223 0
M  V30 3515 H 349.86 2.41421 -0.845544 0
M  V30 3516 H 349.504 4.87713 -1.41769 0
M  V30 3517 H 349.434 5.25617 0.321631 0
M  V30 3518 H 351.925 3.77502 -0.173338 0
M  V30 3519 H 352.238 7.66587 -0.977938 0
M  V30 3520 H 350.583 6.895 -0.872592 0
M  V30 3521 H 353.774 4.67145 -0.298842 0
M  V30 3522 H 353.947 6.44573 -0.665519 0
M  V30 3523 N 347.353 -0.0568162 1.57498 0
M  V30 3524 C 348.769 -0.411933 1.54192 0
M  V30 3525 C 348.969 -1.78287 0.938942 0
M  V30 3526 O 348.025 -2.46483 0.547919 0
M  V30 3527 C 349.338 -0.339244 2.9878 0
M  V30 3528 C 350.886 -0.418348 3.10192 0
M  V30 3529 C 351.361 -0.375407 4.56459 0
M  V30 3530 N 352.852 -0.435038 4.61153 0
M  V30 3531 C 353.587 -0.424265 5.71828 0
M  V30 3532 N 353.083 -0.367418 6.91825 0
M  V30 3533 N 354.876 -0.471938 5.60115 0
M  V30 3534 H 347.027 0.840684 1.95055 0
M  V30 3535 H 349.29 0.316987 0.893433 0
M  V30 3536 H 348.996 0.601742 3.46514 0
M  V30 3537 H 348.87 -1.14371 3.59443 0
M  V30 3538 H 351.257 -1.34976 2.62422 0
M  V30 3539 H 351.338 0.414962 2.52412 0
M  V30 3540 H 350.982 0.552219 5.04889 0
M  V30 3541 H 350.912 -1.22645 5.12119 0
M  V30 3542 H 353.403 -0.482612 3.74806 0
M  V30 3543 H 353.716 -0.363535 7.71944 0
M  V30 3544 H 352.061 -0.333879 6.94198 0
M  V30 3545 H 355.252 -0.514145 4.65268 0
M  V30 3546 H 355.425 -0.460073 6.46365 0
M  V30 3547 N 348.832 -1.54138 -0.328536 0
M  V30 3548 C 350.109 -1.62749 -1.08499 0
M  V30 3549 C 350.489 -0.458198 -2.06067 0
M  V30 3550 O 349.837 0.548046 -2.2183 0
M  V30 3551 C 350.047 -2.99519 -1.79135 0
M  V30 3552 C 351.395 -3.55394 -2.32337 0
M  V30 3553 O 352.419 -3.01792 -1.89209 0
M  V30 3554 O 351.278 -4.49186 -3.11279 0
M  V30 3555 H 348.372 -0.65886 -0.499832 0
M  V30 3556 H 350.918 -1.66484 -0.328826 0
M  V30 3557 H 349.69 -3.76061 -1.08139 0
M  V30 3558 H 349.313 -2.99441 -2.61574 0
M  V30 3559 N 350.31 0.590341 -1.46126 0
M  V30 3560 C 351.535 1.37991 -1.54833 0
M  V30 3561 C 351.96 1.87163 -0.187506 0
M  V30 3562 O 351.318 1.61133 0.831008 0
M  V30 3563 C 351.366 2.54867 -2.55098 0
M  V30 3564 O 350.47 3.56061 -2.08073 0
M  V30 3565 H 349.811 0.411265 -0.521303 0
M  V30 3566 H 352.341 0.716819 -1.91632 0
M  V30 3567 H 352.351 3.01886 -2.74461 0
M  V30 3568 H 351.026 2.18429 -3.53923 0
M  V30 3569 H 349.603 3.15574 -1.98664 0
M  V30 3570 N 351.788 1.33704 0.83433 0
M  V30 3571 C 353.204 1.13137 1.12571 0
M  V30 3572 C 353.404 -0.0747261 2.01361 0
M  V30 3573 O 352.46 -0.753647 2.4099 0
M  V30 3574 C 353.773 2.42105 1.78342 0
M  V30 3575 C 355.321 2.48054 1.90888 0
M  V30 3576 C 355.796 3.76995 2.60075 0
M  V30 3577 N 357.287 3.78092 2.67584 0
M  V30 3578 C 358.022 4.74574 3.21818 0
M  V30 3579 N 357.518 5.81434 3.76705 0
M  V30 3580 N 359.311 4.62044 3.20112 0
M  V30 3581 H 351.462 2.11 0.243489 0
M  V30 3582 H 353.725 0.932532 0.17055 0
M  V30 3583 H 353.431 3.30391 1.20561 0
M  V30 3584 H 353.305 2.54594 2.7832 0
M  V30 3585 H 355.692 1.60215 2.47821 0
M  V30 3586 H 355.773 2.39502 0.898459 0
M  V30 3587 H 355.417 4.65219 2.03799 0
M  V30 3588 H 355.347 3.82825 3.61597 0
M  V30 3589 H 357.838 3.00865 2.28667 0
M  V30 3590 H 358.151 6.51084 4.16305 0
M  V30 3591 H 356.496 5.85163 3.7498 0
M  V30 3592 H 359.687 3.77716 2.76493 0
M  V30 3593 H 359.86 5.37406 3.62076 0
M  V30 3594 N 353.266 -1.05314 1.17247 0
M  V30 3595 C 354.229 -2.112 0.890357 0
M  V30 3596 C 355.229 -1.60359 -0.118943 0
M  V30 3597 O 356.419 -1.73833 0.113086 0
M  V30 3598 C 353.551 -3.39266 0.333422 0
M  V30 3599 H 354.744 -2.37659 1.82916 0
M  V30 3600 H 352.297 -1.21538 0.982758 0
M  V30 3601 H 353.032 -3.18462 -0.612587 0
M  V30 3602 H 352.817 -3.77477 1.06082 0
M  V30 3603 H 354.307 -4.17315 0.154322 0
M  V30 3604 N 354.744 -0.972509 -1.24016 0
M  V30 3605 C 356.155 -0.67517 -1.74064 0
M  V30 3606 C 356.506 0.808939 -1.78747 0
M  V30 3607 O 355.631 1.63286 -1.42009 0
M  V30 3608 C 356.226 -1.21889 -3.16115 0
M  V30 3609 C 354.785 -0.971358 -3.6365 0
M  V30 3610 C 353.932 -1.35134 -2.42145 0
M  V30 3611 H 356.883 -1.14727 -1.09651 0
M  V30 3612 H 356.904 -0.587489 -3.75937 0
M  V30 3613 H 356.416 -2.29906 -3.12674 0
M  V30 3614 H 354.517 0.0930686 -3.72484 0
M  V30 3615 H 354.63 -1.62039 -4.50866 0
M  V30 3616 H 352.994 -0.769751 -2.4279 0
M  V30 3617 H 353.777 -2.4411 -2.41381 0
M  V30 3618 N 356.222 1.38976 -0.743202 0
M  V30 3619 C 357.45 2.04636 -0.30525 0
M  V30 3620 C 357.865 1.56044 1.06281 0
M  V30 3621 O 357.222 0.728921 1.67311 0
M  V30 3622 C 357.273 3.60193 -0.307177 0
M  V30 3623 O 356.994 4.06998 -1.62124 0
M  V30 3624 C 358.495 4.4306 0.145928 0
M  V30 3625 H 355.715 0.65788 -0.132041 0
M  V30 3626 H 358.259 1.77866 -1.00915 0
M  V30 3627 H 356.414 3.85835 0.347898 0
M  V30 3628 H 356.828 5.01371 -1.54036 0
M  V30 3629 H 358.302 5.51921 0.0934183 0
M  V30 3630 H 358.779 4.22706 1.19231 0
M  V30 3631 H 359.385 4.22584 -0.479886 0
M  V30 3632 N 357.7 0.491464 1.49741 0
M  V30 3633 C 358.946 -0.0565092 2.02721 0
M  V30 3634 C 359.279 -1.37522 1.37118 0
M  V30 3635 O 358.554 -1.87866 0.503645 0
M  V30 3636 C 358.837 -0.219051 3.59433 0
M  V30 3637 C 358.69 1.12211 4.35579 0
M  V30 3638 C 360.009 -0.964157 4.29409 0
M  V30 3639 H 357.128 -0.0190627 0.736753 0
M  V30 3640 H 359.77 0.641021 1.7886 0
M  V30 3641 H 357.92 -0.813165 3.79895 0
M  V30 3642 H 359.592 1.75437 4.26637 0
M  V30 3643 H 357.835 1.71377 3.98513 0
M  V30 3644 H 358.506 0.961794 5.43556 0
M  V30 3645 H 360.982 -0.460378 4.13545 0
M  V30 3646 H 359.858 -1.04671 5.38828 0
M  V30 3647 H 360.119 -2.00563 3.93988 0
M  V30 3648 N 359.178 -1.55987 0.224894 0
M  V30 3649 C 360.111 -2.16413 -0.723929 0
M  V30 3650 C 361.089 -1.10952 -1.18863 0
M  V30 3651 O 362.273 -1.39225 -1.27077 0
M  V30 3652 C 359.4 -2.74711 -1.98121 0
M  V30 3653 C 358.446 -3.9303 -1.6562 0
M  V30 3654 S 359.279 -5.29817 -0.778058 0
M  V30 3655 C 360.435 -5.91555 -2.04483 0
M  V30 3656 H 360.668 -2.96555 -0.210347 0
M  V30 3657 H 358.201 -1.54397 0.00955457 0
M  V30 3658 H 360.159 -3.08938 -2.70311 0
M  V30 3659 H 358.82 -1.94555 -2.46591 0
M  V30 3660 H 358.013 -4.32334 -2.59043 0
M  V30 3661 H 357.615 -3.59966 -1.01491 0
M  V30 3662 H 359.907 -6.07732 -2.99446 0
M  V30 3663 H 360.85 -6.87498 -1.69563 0
M  V30 3664 H 361.258 -5.20419 -2.18688 0
M  V30 3665 N 360.656 0.0484629 -1.57525 0
M  V30 3666 C 361.586 1.0549 -2.08313 0
M  V30 3667 C 362.567 1.38929 -0.981463 0
M  V30 3668 O 363.752 1.48151 -1.25558 0
M  V30 3669 C 360.882 2.36162 -2.54646 0
M  V30 3670 C 359.836 2.17016 -3.68901 0
M  V30 3671 C 359.162 3.53278 -4.01371 0
M  V30 3672 C 360.462 1.57219 -4.98076 0
M  V30 3673 H 362.156 0.632195 -2.92649 0
M  V30 3674 H 359.702 0.302654 -1.40784 0
M  V30 3675 H 361.655 3.06882 -2.88793 0
M  V30 3676 H 360.379 2.80456 -1.67368 0
M  V30 3677 H 359.038 1.48733 -3.35073 0
M  V30 3678 H 358.686 3.95185 -3.11188 0
M  V30 3679 H 358.386 3.41299 -4.78318 0
M  V30 3680 H 359.91 4.25391 -4.38035 0
M  V30 3681 H 361.324 2.17832 -5.30304 0
M  V30 3682 H 359.721 1.55871 -5.79503 0
M  V30 3683 H 360.791 0.535956 -4.81929 0
M  V30 3684 N 362.134 1.5431 0.320358 0
M  V30 3685 C 363.044 1.86946 1.41734 0
M  V30 3686 C 364.06 0.761689 1.56443 0
M  V30 3687 O 365.236 1.05629 1.71477 0
M  V30 3688 C 362.301 2.09293 2.76401 0
M  V30 3689 C 361.362 3.33082 2.70841 0
M  V30 3690 C 360.595 3.54353 3.99086 0
M  V30 3691 O 360.818 2.79002 4.97508 0
M  V30 3692 O 359.752 4.47838 4.0215 0
M  V30 3693 H 363.578 2.80232 1.17062 0
M  V30 3694 H 361.163 1.40255 0.514673 0
M  V30 3695 H 363.045 2.25303 3.56113 0
M  V30 3696 H 361.72 1.19194 3.00956 0
M  V30 3697 H 360.627 3.22454 1.89668 0
M  V30 3698 H 361.96 4.23249 2.5124 0
M  V30 3699 N 363.613 -0.582584 1.46437 0
M  V30 3700 C 364.838 -1.37168 1.55563 0
M  V30 3701 C 365.263 -1.87061 0.19743 0
M  V30 3702 O 364.621 -1.61572 -0.822451 0
M  V30 3703 C 364.669 -2.53511 2.56446 0
M  V30 3704 O 363.773 -3.54953 2.09958 0
M  V30 3705 H 363.114 -0.408494 0.523477 0
M  V30 3706 H 365.644 -0.706646 1.9201 0
M  V30 3707 H 365.654 -3.00426 2.76058 0
M  V30 3708 H 364.329 -2.16549 3.55076 0
M  V30 3709 H 362.906 -3.14516 2.00334 0
M  V30 3710 N 365.091 -1.34144 -0.827227 0
M  V30 3711 C 366.316 -1.29476 -1.62021 0
M  V30 3712 C 366.741 0.129292 -1.87655 0
M  V30 3713 O 366.099 1.08967 -1.449 0
M  V30 3714 C 366.147 -2.08702 -2.94068 0
M  V30 3715 O 365.251 -1.45359 -3.85933 0
M  V30 3716 H 364.592 -0.444881 -0.492927 0
M  V30 3717 H 367.122 -1.76882 -1.02829 0
M  V30 3718 H 367.132 -2.19898 -3.43669 0
M  V30 3719 H 365.807 -3.12241 -2.74734 0
M  V30 3720 H 364.384 -1.42879 -3.44442 0
M  V30 3721 N 366.569 1.04691 -1.17803 0
M  V30 3722 C 367.817 1.7743 -0.967617 0
M  V30 3723 C 368.138 1.88359 0.504574 0
M  V30 3724 O 367.408 1.40402 1.36617 0
M  V30 3725 H 365.988 0.657242 -0.355024 0
M  V30 3726 H 368.65 1.2638 -1.48371 0
M  V30 3727 H 367.746 2.78924 -1.40027 0
M  V30 3728 N 368.047 0.979072 1.23499 0
M  V30 3729 C 369.295 0.645941 1.91499 0
M  V30 3730 C 369.616 -0.822948 1.76784 0
M  V30 3731 O 368.886 -1.58854 1.14639 0
M  V30 3732 H 367.466 0.235919 0.708767 0
M  V30 3733 H 370.128 1.2426 1.50152 0
M  V30 3734 H 369.224 0.896411 2.9895 0
M  V30 3735 N 369.525 -1.3858 0.750561 0
M  V30 3736 C 370.455 -2.33102 0.136237 0
M  V30 3737 C 371.436 -1.54713 -0.706965 0
M  V30 3738 O 372.621 -1.83043 -0.648769 0
M  V30 3739 C 369.751 -3.38882 -0.760017 0
M  V30 3740 C 368.705 -4.27995 -0.0197785 0
M  V30 3741 C 368.031 -5.24605 -1.03408 0
M  V30 3742 C 369.331 -5.09554 1.14684 0
M  V30 3743 H 371.025 -2.84726 0.925822 0
M  V30 3744 H 368.571 -1.36898 0.446654 0
M  V30 3745 H 370.524 -4.0397 -1.19943 0
M  V30 3746 H 369.248 -2.85734 -1.58189 0
M  V30 3747 H 367.907 -3.64409 0.400184 0
M  V30 3748 H 367.555 -4.67746 -1.84994 0
M  V30 3749 H 367.255 -5.85081 -0.543464 0
M  V30 3750 H 368.779 -5.9257 -1.47288 0
M  V30 3751 H 370.193 -5.67899 0.785118 0
M  V30 3752 H 368.59 -5.7925 1.56812 0
M  V30 3753 H 369.66 -4.4347 1.96118 0
M  V30 3754 N 371.003 -0.499398 -1.49478 0
M  V30 3755 C 372.228 0.044722 -2.07352 0
M  V30 3756 C 372.653 1.30207 -1.35749 0
M  V30 3757 O 372.011 1.76516 -0.413732 0
M  V30 3758 C 372.059 0.283013 -3.59488 0
M  V30 3759 O 371.163 1.35804 -3.89398 0
M  V30 3760 H 370.504 -0.0255147 -0.66351 0
M  V30 3761 H 373.034 -0.698561 -1.92305 0
M  V30 3762 H 373.044 0.515007 -4.04737 0
M  V30 3763 H 371.719 -0.635636 -4.11014 0
M  V30 3764 H 370.296 1.11113 -3.55961 0
M  V30 3765 N 372.481 1.55866 -0.233164 0
M  V30 3766 C 373.411 2.23783 0.666599 0
M  V30 3767 C 374.392 1.21343 1.19205 0
M  V30 3768 O 375.577 1.4996 1.23392 0
M  V30 3769 C 372.707 2.92671 1.86978 0
M  V30 3770 C 371.661 4.01682 1.47768 0
M  V30 3771 C 370.987 4.57926 2.76058 0
M  V30 3772 C 372.287 5.18126 0.658993 0
M  V30 3773 H 373.981 2.99232 0.100306 0
M  V30 3774 H 371.527 1.43924 0.046804 0
M  V30 3775 H 373.48 3.3888 2.50476 0
M  V30 3776 H 372.204 2.14688 2.46123 0
M  V30 3777 H 370.863 3.56222 0.866106 0
M  V30 3778 H 370.511 3.76659 3.33372 0
M  V30 3779 H 370.211 5.31505 2.50552 0
M  V30 3780 H 371.735 5.06859 3.40479 0
M  V30 3781 H 373.149 5.60644 1.19795 0
M  V30 3782 H 371.546 5.98009 0.500552 0
M  V30 3783 H 372.616 4.83763 -0.331856 0
M  V30 3784 N 373.959 -0.0401083 1.57549 0
M  V30 3785 C 374.891 -1.07149 2.02612 0
M  V30 3786 C 375.904 -1.33126 0.937085 0
M  V30 3787 O 377.093 -1.30808 1.21456 0
M  V30 3788 C 374.193 -2.41561 2.37701 0
M  V30 3789 C 373.366 -2.35096 3.68848 0
M  V30 3790 C 372.425 -3.51867 3.91249 0
M  V30 3791 O 371.451 -3.3186 4.62447 0
M  V30 3792 N 372.653 -4.73351 3.36035 0
M  V30 3793 H 375.418 -0.687485 2.91708 0
M  V30 3794 H 372.979 -0.228248 1.60283 0
M  V30 3795 H 374.971 -3.18379 2.49833 0
M  V30 3796 H 373.541 -2.71846 1.54332 0
M  V30 3797 H 372.761 -1.4345 3.67173 0
M  V30 3798 H 374.049 -2.27908 4.54901 0
M  V30 3799 H 373.447 -4.92507 2.78304 0
M  V30 3800 H 372.004 -5.47572 3.53565 0
M  V30 3801 N 375.437 -1.54477 -0.31217 0
M  V30 3802 C 376.665 -1.77205 -1.068 0
M  V30 3803 C 377.08 -0.526114 -1.81321 0
M  V30 3804 O 376.437 0.503647 -1.75413 0
M  V30 3805 C 376.488 -2.97253 -2.05725 0
M  V30 3806 O 376.209 -4.1703 -1.34228 0
M  V30 3807 C 377.71 -3.32281 -2.93435 0
M  V30 3808 H 374.93 -0.591287 -0.317208 0
M  V30 3809 H 377.474 -2.01398 -0.354834 0
M  V30 3810 H 375.629 -2.753 -2.72559 0
M  V30 3811 H 376.043 -4.84636 -2.00571 0
M  V30 3812 H 377.517 -4.19551 -3.58721 0
M  V30 3813 H 377.994 -2.49945 -3.61143 0
M  V30 3814 H 378.6 -3.56353 -2.32147 0
M  V30 3815 N 376.915 0.57481 -1.46744 0
M  V30 3816 C 377.878 1.66533 -1.57478 0
M  V30 3817 C 378.878 1.54338 -0.451263 0
M  V30 3818 O 380.068 1.58814 -0.715813 0
M  V30 3819 C 377.2 3.05999 -1.50259 0
M  V30 3820 H 378.393 1.58372 -2.54673 0
M  V30 3821 H 375.946 0.793301 -1.34672 0
M  V30 3822 H 376.681 3.19709 -0.543725 0
M  V30 3823 H 376.466 3.16259 -2.31781 0
M  V30 3824 H 377.956 3.8537 -1.60872 0
M  V30 3825 N 378.394 1.34581 0.820102 0
M  V30 3826 C 379.357 1.2628 1.91275 0
M  V30 3827 C 380.357 0.177344 1.59819 0
M  V30 3828 O 381.547 0.430156 1.68806 0
M  V30 3829 C 378.679 0.950327 3.27386 0
M  V30 3830 H 379.872 2.23421 2.00057 0
M  V30 3831 H 377.425 1.1891 1.0144 0
M  V30 3832 H 378.16 -0.0177938 3.24295 0
M  V30 3833 H 377.945 1.73549 3.51601 0
M  V30 3834 H 379.435 0.917492 4.07396 0
M  V30 3835 N 379.872 -1.04064 1.18357 0
M  V30 3836 C 381.1 -1.80916 1.00384 0
M  V30 3837 C 381.515 -1.83414 -0.447738 0
M  V30 3838 O 380.872 -1.26962 -1.31099 0
M  V30 3839 C 380.923 -3.26516 1.55144 0
M  V30 3840 O 380.644 -3.2424 2.94618 0
M  V30 3841 C 382.145 -4.20013 1.41789 0
M  V30 3842 H 379.365 -0.569728 0.354474 0
M  V30 3843 H 381.909 -1.31151 1.56906 0
M  V30 3844 H 380.064 -3.73512 1.02798 0
M  V30 3845 H 380.478 -4.15452 3.20156 0
M  V30 3846 H 381.952 -5.20111 1.84901 0
M  V30 3847 H 382.429 -4.37667 0.36661 0
M  V30 3848 H 383.035 -3.78881 1.93207 0
M  V30 3849 N 381.35 -0.985608 -1.22978 0
M  V30 3850 C 382.58 -0.674603 -1.95276 0
M  V30 3851 C 382.988 0.763483 -1.73111 0
M  V30 3852 O 382.331 1.52601 -1.02268 0
M  V30 3853 C 382.393 -0.891597 -3.48268 0
M  V30 3854 C 382.057 -2.31275 -3.94158 0
M  V30 3855 C 383.054 -3.29179 -4.02415 0
M  V30 3856 C 380.739 -2.64524 -4.27004 0
M  V30 3857 C 382.733 -4.58407 -4.42879 0
M  V30 3858 C 380.42 -3.93974 -4.67149 0
M  V30 3859 C 381.418 -4.90727 -4.75053 0
M  V30 3860 O 381.106 -6.17865 -5.14294 0
M  V30 3861 H 380.838 -0.249251 -0.628371 0
M  V30 3862 H 383.392 -1.32106 -1.5728 0
M  V30 3863 H 381.622 -0.187962 -3.86243 0
M  V30 3864 H 383.311 -0.576957 -4.01779 0
M  V30 3865 H 384.077 -3.04823 -3.77237 0
M  V30 3866 H 379.956 -1.89923 -4.2006 0
M  V30 3867 H 383.5 -5.33926 -4.48964 0
M  V30 3868 H 379.397 -4.18122 -4.91777 0
M  V30 3869 H 380.165 -6.21694 -5.32389 0
M  V30 3870 N 382.828 1.3818 -0.7579 0
M  V30 3871 C 383.791 2.28764 -0.141286 0
M  V30 3872 C 384.791 1.47388 0.642907 0
M  V30 3873 O 385.981 1.67781 0.468536 0
M  V30 3874 C 383.113 3.31184 0.808069 0
M  V30 3875 H 384.306 2.848 -0.939633 0
M  V30 3876 H 381.859 1.47212 -0.525191 0
M  V30 3877 H 382.594 2.80247 1.63193 0
M  V30 3878 H 382.379 3.91314 0.248104 0
M  V30 3879 H 383.869 3.98909 1.23536 0
M  V30 3880 N 384.306 0.507319 1.49211 0
M  V30 3881 C 385.216 -0.272136 2.33016 0
M  V30 3882 C 386.232 -0.961206 1.45041 0
M  V30 3883 O 387.408 -0.941191 1.78055 0
M  V30 3884 C 384.473 -1.31895 3.20631 0
M  V30 3885 C 383.534 -0.642648 4.24463 0
M  V30 3886 C 382.767 -1.63959 5.07891 0
M  V30 3887 O 382.99 -2.87007 4.92933 0
M  V30 3888 O 381.924 -1.19143 5.8999 0
M  V30 3889 H 385.75 0.413982 3.00865 0
M  V30 3890 H 383.335 0.268556 1.46966 0
M  V30 3891 H 385.217 -1.92446 3.7489 0
M  V30 3892 H 383.892 -1.98788 2.5547 0
M  V30 3893 H 382.799 0.00276252 3.741 0
M  V30 3894 H 384.132 -0.0160534 4.92197 0
M  V30 3895 N 385.784 -1.5574 0.241426 0
M  V30 3896 C 387.012 -2.03208 -0.389134 0
M  V30 3897 C 387.427 -1.12082 -1.51931 0
M  V30 3898 O 386.784 -0.134183 -1.82006 0
M  V30 3899 C 386.835 -3.50064 -0.902087 0
M  V30 3900 O 386.556 -4.37717 0.18305 0
M  V30 3901 C 388.057 -4.13268 -1.60389 0
M  V30 3902 H 385.277 -0.664509 -0.0931053 0
M  V30 3903 H 387.821 -2.0124 0.36369 0
M  V30 3904 H 385.976 -3.52583 -1.60511 0
M  V30 3905 H 386.39 -5.24097 -0.205579 0
M  V30 3906 H 387.864 -5.17733 -1.91458 0
M  V30 3907 H 388.341 -3.59434 -2.52397 0
M  V30 3908 H 388.947 -4.14655 -0.945576 0
M  V30 3909 N 387.262 0.0317525 -1.57568 0
M  V30 3910 C 388.51 0.721676 -1.88776 0
M  V30 3911 C 388.831 1.76039 -0.838772 0
M  V30 3912 O 388.101 1.95482 0.127935 0
M  V30 3913 H 386.681 0.269534 -0.696678 0
M  V30 3914 H 389.343 -0.00165879 -1.949 0
M  V30 3915 H 388.439 1.21293 -2.87566 0
M  V30 3916 N 388.74 1.54641 0.303973 0
M  V30 3917 C 389.986 1.74038 1.04109 0
M  V30 3918 C 390.319 0.523051 1.87024 0
M  V30 3919 O 389.594 -0.479874 1.88487 0
M  V30 3920 C 389.877 3.02761 1.94955 0
M  V30 3921 C 389.73 4.34787 1.1524 0
M  V30 3922 C 391.049 3.27336 2.94175 0
M  V30 3923 H 388.168 0.63323 0.377079 0
M  V30 3924 H 390.81 1.87354 0.316001 0
M  V30 3925 H 388.96 2.9154 2.56782 0
M  V30 3926 H 390.632 4.57922 0.557236 0
M  V30 3927 H 388.875 4.31407 0.455053 0
M  V30 3928 H 389.546 5.21116 1.8205 0
M  V30 3929 H 392.022 3.38148 2.42477 0
M  V30 3930 H 390.898 4.18726 3.54908 0
M  V30 3931 H 391.159 2.45491 3.67677 0
M  V30 3932 N 390.218 -0.567019 1.47046 0
M  V30 3933 C 391.495 -1.3276 1.43646 0
M  V30 3934 C 391.875 -2.1071 0.128186 0
M  V30 3935 O 391.223 -2.10441 -0.890326 0
M  V30 3936 C 391.433 -2.2404 2.67595 0
M  V30 3937 C 392.781 -2.85372 3.14401 0
M  V30 3938 O 393.805 -2.34346 2.68254 0
M  V30 3939 O 392.664 -3.78091 3.946 0
M  V30 3940 H 389.758 -0.597293 0.571988 0
M  V30 3941 H 392.304 -0.586735 1.59234 0
M  V30 3942 H 391.076 -1.65975 3.54356 0
M  V30 3943 H 390.699 -3.05439 2.54544 0
M  V30 3944 N 391.696 -1.35014 -0.812953 0
M  V30 3945 C 392.926 -1.30841 -1.59888 0
M  V30 3946 C 393.334 0.117576 -1.88834 0
M  V30 3947 O 392.677 1.07807 -1.48739 0
M  V30 3948 C 392.739 -2.0412 -2.95931 0
M  V30 3949 C 392.403 -3.53336 -2.89832 0
M  V30 3950 C 393.4 -4.48052 -2.63714 0
M  V30 3951 C 391.085 -3.95894 -3.0915 0
M  V30 3952 C 393.079 -5.833 -2.56982 0
M  V30 3953 C 390.766 -5.31239 -3.0204 0
M  V30 3954 C 391.764 -6.24754 -2.75991 0
M  V30 3955 O 391.452 -7.57617 -2.68833 0
M  V30 3956 H 391.184 -0.451215 -0.50337 0
M  V30 3957 H 393.738 -1.78354 -1.01877 0
M  V30 3958 H 391.968 -1.51235 -3.559 0
M  V30 3959 H 393.657 -1.93107 -3.57022 0
M  V30 3960 H 394.423 -4.16492 -2.48515 0
M  V30 3961 H 390.302 -3.23495 -3.28438 0
M  V30 3962 H 393.846 -6.56263 -2.36569 0
M  V30 3963 H 389.743 -5.62415 -3.16796 0
M  V30 3964 H 390.511 -7.67469 -2.84487 0
M  V30 3965 N 393.175 1.03435 -1.18907 0
M  V30 3966 C 394.105 2.13503 -0.945448 0
M  V30 3967 C 395.086 1.69682 0.119189 0
M  V30 3968 O 396.271 1.94169 -0.034707 0
M  V30 3969 C 393.401 3.44004 -0.477316 0
M  V30 3970 C 392.355 4.0148 -1.48316 0
M  V30 3971 C 391.681 5.27537 -0.872311 0
M  V30 3972 C 392.981 4.36921 -2.86177 0
M  V30 3973 H 394.675 2.34141 -1.86597 0
M  V30 3974 H 392.221 1.12523 -0.898584 0
M  V30 3975 H 394.174 4.20372 -0.294204 0
M  V30 3976 H 392.898 3.23072 0.478786 0
M  V30 3977 H 391.557 3.27201 -1.65332 0
M  V30 3978 H 391.205 5.02917 0.0911752 0
M  V30 3979 H 390.905 5.66954 -1.54393 0
M  V30 3980 H 392.429 6.06576 -0.699871 0
M  V30 3981 H 393.843 5.04248 -2.72776 0
M  V30 3982 H 392.24 4.87405 -3.50081 0
M  V30 3983 H 393.31 3.46466 -3.39248 0
M  V30 3984 N 394.653 0.992116 1.22453 0
M  V30 3985 C 395.616 0.546883 2.2258 0
M  V30 3986 C 396.616 -0.369829 1.56489 0
M  V30 3987 O 397.806 -0.161896 1.73446 0
M  V30 3988 C 394.938 -0.204659 3.40285 0
M  V30 3989 H 396.131 1.43234 2.63484 0
M  V30 3990 H 393.684 0.779239 1.3549 0
M  V30 3991 H 394.419 -1.10614 3.04853 0
M  V30 3992 H 394.204 0.45354 3.89468 0
M  V30 3993 H 395.694 -0.504358 4.14543 0
M  V30 3994 N 396.131 -1.37776 0.765217 0
M  V30 3995 C 397.377 -2.00145 0.327072 0
M  V30 3996 C 397.71 -1.60607 -1.09175 0
M  V30 3997 O 396.985 -0.849127 -1.74986 0
M  V30 3998 C 397.268 -3.57109 0.46319 0
M  V30 3999 C 397.121 -4.06576 1.92395 0
M  V30 4000 C 398.44 -4.39888 -0.136473 0
M  V30 4001 H 395.559 -0.727113 0.120316 0
M  V30 4002 H 398.201 -1.63549 0.967039 0
M  V30 4003 H 396.351 -3.88414 -0.0816358 0
M  V30 4004 H 398.023 -3.85864 2.52798 0
M  V30 4005 H 396.266 -3.59011 2.43503 0
M  V30 4006 H 396.937 -5.15639 1.97028 0
M  V30 4007 H 399.413 -4.14803 0.328317 0
M  V30 4008 H 398.289 -5.48899 -0.0110582 0
M  V30 4009 H 398.55 -4.24758 -1.22608 0
M  V30 4010 N 397.609 -0.515225 -1.4894 0
M  V30 4011 C 398.857 0.0241671 -2.02086 0
M  V30 4012 C 399.178 1.3616 -1.3959 0
M  V30 4013 O 398.448 1.87841 -0.556121 0
M  V30 4014 H 397.028 0.0119203 -0.746905 0
M  V30 4015 H 399.69 -0.675702 -1.82812 0
M  V30 4016 H 398.786 0.143385 -3.1177 0
M  V30 4017 N 399.087 1.5561 -0.249682 0
M  V30 4018 C 400.05 2.20217 0.635394 0
M  V30 4019 C 401.05 1.17227 1.10066 0
M  V30 4020 O 402.24 1.42292 1.00492 0
M  V30 4021 C 399.372 2.84794 1.87363 0
M  V30 4022 H 400.565 2.99814 0.0716752 0
M  V30 4023 H 398.118 1.563 -0.000153234 0
M  V30 4024 H 398.853 2.09142 2.47851 0
M  V30 4025 H 398.638 3.60241 1.5482 0
M  V30 4026 H 400.128 3.3423 2.5036 0
M  V30 4027 N 400.565 -0.0233959 1.57583 0
M  V30 4028 C 401.495 -1.02162 2.09965 0
M  V30 4029 C 402.476 -1.3735 1.00344 0
M  V30 4030 O 403.661 -1.46135 1.27899 0
M  V30 4031 C 400.791 -2.32081 2.58371 0
M  V30 4032 C 399.745 -2.1112 3.72307 0
M  V30 4033 C 399.071 -3.46848 4.06941 0
M  V30 4034 C 400.371 -1.49276 5.00514 0
M  V30 4035 H 402.065 -0.585557 2.93618 0
M  V30 4036 H 399.611 -0.280218 1.41247 0
M  V30 4037 H 401.564 -3.02249 2.93639 0
M  V30 4038 H 400.288 -2.77758 1.71808 0
M  V30 4039 H 398.947 -1.43384 3.37397 0
M  V30 4040 H 398.595 -3.90184 3.17436 0
M  V30 4041 H 398.295 -3.33646 4.83688 0
M  V30 4042 H 399.819 -4.18369 4.44747 0
M  V30 4043 H 401.233 -2.09368 5.33702 0
M  V30 4044 H 399.63 -1.46632 5.8191 0
M  V30 4045 H 400.7 -0.459217 4.82721 0
M  V30 4046 N 402.043 -1.548 -0.295768 0
M  V30 4047 C 403.271 -1.78327 -1.04914 0
M  V30 4048 C 403.686 -0.545316 -1.80753 0
M  V30 4049 O 403.043 0.485013 -1.75937 0
M  V30 4050 C 403.094 -2.99418 -2.02561 0
M  V30 4051 O 402.815 -4.18431 -1.29798 0
M  V30 4052 C 404.316 -3.35375 -2.89895 0
M  V30 4053 H 401.536 -0.594618 -0.310918 0
M  V30 4054 H 404.08 -2.01763 -0.333454 0
M  V30 4055 H 402.235 -2.78175 -2.69624 0
M  V30 4056 H 402.649 -4.86736 -1.95419 0
M  V30 4057 H 404.123 -4.23332 -3.54251 0
M  V30 4058 H 404.6 -2.53761 -3.58472 0
M  V30 4059 H 405.206 -3.58796 -2.28355 0
M  V30 4060 N 403.521 0.559213 -1.47345 0
M  V30 4061 C 404.471 1.66192 -1.5609 0
M  V30 4062 C 405.455 1.55323 -0.419957 0
M  V30 4063 O 406.647 1.63839 -0.669762 0
M  V30 4064 C 403.776 3.0497 -1.57634 0
M  V30 4065 C 402.862 3.2105 -2.77106 0
M  V30 4066 N 403.253 3.07203 -4.01821 0
M  V30 4067 C 401.551 3.52046 -2.73825 0
M  V30 4068 C 402.252 3.25919 -4.81821 0
M  V30 4069 N 401.228 3.52161 -4.14106 0
M  V30 4070 H 405.03 1.54052 -2.5029 0
M  V30 4071 H 402.544 0.763914 -1.43311 0
M  V30 4072 H 404.541 3.84142 -1.61989 0
M  V30 4073 H 403.201 3.18224 -0.645281 0
M  V30 4074 H 404.212 2.84572 -4.32711 0
M  V30 4075 H 400.889 3.71839 -1.89848 0
M  V30 4076 H 402.279 3.20198 -5.90697 0
M  V30 4077 N 404.999 1.35443 0.805782 0
M  V30 4078 C 406.224 1.32037 1.59941 0
M  V30 4079 C 406.649 -0.0994215 1.87837 0
M  V30 4080 O 406.007 -1.06648 1.46615 0
M  V30 4081 C 406.055 2.13354 2.90711 0
M  V30 4082 O 405.159 1.5148 3.83572 0
M  V30 4083 H 404.5 0.452666 0.485787 0
M  V30 4084 H 407.03 1.78496 1.00002 0
M  V30 4085 H 407.04 2.25338 3.40128 0
M  V30 4086 H 405.715 3.16572 2.69732 0
M  V30 4087 H 404.292 1.4834 3.42125 0
M  V30 4088 N 406.477 -1.02803 1.19454 0
M  V30 4089 C 407.723 -1.76478 0.999171 0
M  V30 4090 C 408.056 -1.88456 -0.468828 0
M  V30 4091 O 407.331 -1.40198 -1.34814 0
M  V30 4092 C 407.614 -3.19044 1.66981 0
M  V30 4093 C 407.467 -3.14932 3.21151 0
M  V30 4094 C 408.786 -4.17456 1.39349 0
M  V30 4095 H 405.905 -0.640614 0.364393 0
M  V30 4096 H 408.547 -1.20005 1.47305 0
M  V30 4097 H 406.697 -3.67263 1.2669 0
M  V30 4098 H 408.369 -2.74605 3.70661 0
M  V30 4099 H 406.612 -2.52625 3.52652 0
M  V30 4100 H 407.283 -4.1566 3.63223 0
M  V30 4101 H 409.759 -3.77842 1.74283 0
M  V30 4102 H 408.635 -5.154 1.88823 0
M  V30 4103 H 408.896 -4.40949 0.318813 0
M  V30 4104 N 407.956 -0.998596 -1.21925 0
M  V30 4105 C 409.372 -0.710303 -1.42923 0
M  V30 4106 C 409.572 0.716933 -1.88314 0
M  V30 4107 O 408.628 1.48712 -2.04062 0
M  V30 4108 C 409.941 -1.72072 -2.466 0
M  V30 4109 C 411.489 -1.73681 -2.60392 0
M  V30 4110 C 411.964 -2.73601 -3.67296 0
M  V30 4111 N 413.455 -2.7223 -3.7476 0
M  V30 4112 C 414.19 -3.46206 -4.57087 0
M  V30 4113 N 413.686 -4.29802 -5.43362 0
M  V30 4114 N 415.479 -3.34886 -4.51451 0
M  V30 4115 H 407.63 -1.92028 -0.9077 0
M  V30 4116 H 409.893 -0.828487 -0.460775 0
M  V30 4117 H 409.599 -2.74231 -2.20206 0
M  V30 4118 H 409.473 -1.51818 -3.45299 0
M  V30 4119 H 411.86 -0.722173 -2.86127 0
M  V30 4120 H 411.941 -1.98005 -1.61949 0
M  V30 4121 H 411.585 -3.75217 -3.42307 0
M  V30 4122 H 411.515 -2.46545 -4.65321 0
M  V30 4123 H 414.006 -2.11576 -3.1312 0
M  V30 4124 H 414.319 -4.83061 -6.03218 0
M  V30 4125 H 412.664 -4.33887 -5.42925 0
M  V30 4126 H 415.855 -2.69015 -3.83078 0
M  V30 4127 H 416.028 -3.92796 -5.15379 0
M  V30 4128 N 409.434 1.37368 -0.772513 0
M  V30 4129 C 410.68 1.99969 -0.337681 0
M  V30 4130 C 411.013 1.61184 1.08321 0
M  V30 4131 O 410.288 0.858395 1.74533 0
M  V30 4132 C 410.571 3.56858 -0.482121 0
M  V30 4133 C 410.424 4.0555 -1.94549 0
M  V30 4134 C 411.743 4.39955 0.113143 0
M  V30 4135 H 408.862 0.726464 -0.124171 0
M  V30 4136 H 411.504 1.63034 -0.975699 0
M  V30 4137 H 409.654 3.88452 0.0610361 0
M  V30 4138 H 411.326 3.84518 -2.54841 0
M  V30 4139 H 409.569 3.57715 -2.45403 0
M  V30 4140 H 410.24 5.14587 -1.9976 0
M  V30 4141 H 412.716 4.14623 -0.35031 0
M  V30 4142 H 411.592 5.48897 -0.0180514 0
M  V30 4143 H 411.853 4.25403 1.20354 0
M  V30 4144 N 410.912 0.523116 1.48665 0
M  V30 4145 C 411.842 -0.23231 2.32342 0
M  V30 4146 C 412.823 -0.941637 1.41659 0
M  V30 4147 O 414.008 -0.928751 1.70552 0
M  V30 4148 C 411.138 -1.28387 3.22698 0
M  V30 4149 C 410.092 -0.693098 4.22351 0
M  V30 4150 C 409.418 -1.8468 5.01794 0
M  V30 4151 C 410.718 0.33063 5.21252 0
M  V30 4152 H 412.412 0.466192 2.95748 0
M  V30 4153 H 409.958 0.225643 1.42221 0
M  V30 4154 H 411.911 -1.82024 3.80059 0
M  V30 4155 H 410.635 -2.01186 2.57278 0
M  V30 4156 H 409.294 -0.178299 3.66166 0
M  V30 4157 H 408.942 -2.56301 4.32804 0
M  V30 4158 H 408.642 -1.45747 5.69238 0
M  V30 4159 H 410.166 -2.38709 5.62006 0
M  V30 4160 H 411.58 -0.118407 5.73178 0
M  V30 4161 H 409.977 0.636974 5.9671 0
M  V30 4162 H 411.047 1.23883 4.68808 0
M  V30 4163 N 412.39 -1.55475 0.257931 0
M  V30 4164 C 413.667 -1.91155 -0.414629 0
M  V30 4165 C 414.047 -1.18008 -1.75035 0
M  V30 4166 O 413.395 -0.301193 -2.26506 0
M  V30 4167 C 413.605 -3.44283 -0.571859 0
M  V30 4168 C 414.953 -4.15744 -0.862678 0
M  V30 4169 O 415.977 -3.50083 -0.657314 0
M  V30 4170 O 414.836 -5.31909 -1.2544 0
M  V30 4171 H 411.93 -0.796016 -0.22425 0
M  V30 4172 H 414.476 -1.66976 0.302814 0
M  V30 4173 H 413.248 -3.89558 0.368844 0
M  V30 4174 H 412.871 -3.7436 -1.33943 0
M  V30 4175 N 413.868 0.0150385 -1.57593 0
M  V30 4176 C 415.117 0.702115 -1.89085 0
M  V30 4177 C 415.43 1.75764 -0.858277 0
M  V30 4178 O 416.636 2.49829 -1.0629 0
M  V30 4179 C 415.092 1.29992 -3.35604 0
M  V30 4180 C 414.7 0.280007 -4.47124 0
M  V30 4181 C 416.444 1.96606 -3.76227 0
M  V30 4182 C 414.351 0.886949 -5.84711 0
M  V30 4183 H 413.281 0.265997 -0.705522 0
M  V30 4184 H 415.932 -0.0430408 -1.8345 0
M  V30 4185 H 414.314 2.09525 -3.36029 0
M  V30 4186 H 415.488 -0.489631 -4.58191 0
M  V30 4187 H 413.803 -0.284835 -4.15425 0
M  V30 4188 H 416.4 2.42893 -4.76347 0
M  V30 4189 H 416.743 2.79024 -3.08952 0
M  V30 4190 H 417.276 1.23828 -3.78036 0
M  V30 4191 H 414.015 0.101876 -6.55421 0
M  V30 4192 H 413.535 1.6261 -5.77337 0
M  V30 4193 H 415.214 1.39011 -6.3189 0
M  V30 4194 N 415.346 1.54954 0.287554 0
M  V30 4195 C 416.594 1.74528 1.01904 0
M  V30 4196 C 416.915 0.541349 1.87335 0
M  V30 4197 O 416.185 -0.444108 1.908 0
M  V30 4198 H 414.765 0.643576 0.379235 0
M  V30 4199 H 417.427 1.92333 0.315294 0
M  V30 4200 H 416.523 2.64015 1.6644 0
M  V30 4201 N 416.824 -0.551391 1.4764 0
M  V30 4202 C 417.754 -1.66757 1.63445 0
M  V30 4203 C 418.735 -1.63077 0.483742 0
M  V30 4204 O 419.92 -1.80607 0.71377 0
M  V30 4205 C 417.05 -3.05387 1.65396 0
M  V30 4206 C 416.004 -3.23918 2.79752 0
M  V30 4207 C 415.33 -4.63393 2.66779 0
M  V30 4208 C 416.63 -3.08735 4.21284 0
M  V30 4209 H 418.324 -1.53786 2.56886 0
M  V30 4210 H 415.87 -0.738415 1.23626 0
M  V30 4211 H 417.823 -3.83325 1.75043 0
M  V30 4212 H 416.547 -3.19332 0.685195 0
M  V30 4213 H 415.206 -2.48391 2.69625 0
M  V30 4214 H 414.854 -4.74144 1.67918 0
M  V30 4215 H 414.554 -4.7674 3.43501 0
M  V30 4216 H 416.078 -5.43458 2.78364 0
M  V30 4217 H 417.492 -3.76484 4.32357 0
M  V30 4218 H 415.889 -3.33588 4.98838 0
M  V30 4219 H 416.959 -2.0541 4.39243 0
M  V30 4220 N 418.302 -1.35869 -0.798587 0
M  V30 4221 C 419.579 -1.20145 -1.54352 0
M  V30 4222 C 419.959 0.216161 -2.0999 0
M  V30 4223 O 419.307 1.22068 -1.93162 0
M  V30 4224 C 419.517 -2.27602 -2.64572 0
M  V30 4225 C 420.865 -2.63811 -3.32699 0
M  V30 4226 O 421.889 -2.26576 -2.74849 0
M  V30 4227 O 420.748 -3.27866 -4.37226 0
M  V30 4228 H 417.842 -0.467248 -0.682355 0
M  V30 4229 H 420.388 -1.47574 -0.837859 0
M  V30 4230 H 419.16 -3.2265 -2.21388 0
M  V30 4231 H 418.783 -2.01488 -3.42766 0
M  V30 4232 N 419.78 1.02168 -1.19998 0
M  V30 4233 C 420.713 2.10232 -0.887558 0
M  V30 4234 C 421.691 1.61827 0.158317 0
M  V30 4235 O 422.875 1.88471 0.0330249 0
M  V30 4236 C 420.002 3.37092 -0.32964 0
M  V30 4237 C 419.048 4.0438 -1.3557 0
M  V30 4238 S 419.881 4.48956 -2.91888 0
M  V30 4239 C 421.037 5.79024 -2.37658 0
M  V30 4240 H 421.27 2.36409 -1.80272 0
M  V30 4241 H 418.803 1.15211 -1.0279 0
M  V30 4242 H 420.761 4.10498 -0.0142824 0
M  V30 4243 H 419.422 3.08996 0.563941 0
M  V30 4244 H 418.615 4.95632 -0.9146 0
M  V30 4245 H 418.217 3.37176 -1.61828 0
M  V30 4246 H 420.509 6.53942 -1.77103 0
M  V30 4247 H 421.452 6.27924 -3.27287 0
M  V30 4248 H 421.86 5.35043 -1.79971 0
M  V30 4249 O 421.297 1.13266 1.15122 0
M  V30 4250 H 421.988 0.848237 1.7414 0
M  V30 END ATOM
M  V30 BEGIN BOND
M  V30 END BOND
M  V30 END CTAB
M  END
$$$$
