drugbank_target|P00747 Plasminogen (DB00009; DB00013; DB00015; DB00029; DB00031; DB00086; DB00302; DB00513; DB03709; DB04925; DB06692; DB09130; DB12831)
 OpenBabel12092119273D

  0  0  0     0  0            999 V3000
M  V30 BEGIN CTAB
M  V30 COUNTS 12415 12596 0 0 0
M  V30 BEGIN ATOM
M  V30 1 H -0.908 1.98254 -0.117106 0
M  V30 2 N 0 1.576 0 0
M  V30 3 C 0.933 2.03868 1.02534 0
M  V30 4 C 1.911 0.928543 1.3348 0
M  V30 5 O 3.095 1.19667 1.45644 0
M  V30 6 C 0.222 2.43627 2.35294 0
M  V30 7 C -0.732 3.65373 2.2001 0
M  V30 8 S 0.101 5.13292 1.52614 0
M  V30 9 C 1.257 5.56322 2.86805 0
M  V30 10 H 1.49 2.90518 0.631377 0
M  V30 11 H -0.977 1.52953 0.210867 0
M  V30 12 H 0.981 2.67203 3.11629 0
M  V30 13 H -0.358 1.57376 2.7183 0
M  V30 14 H -1.165 3.90944 3.18086 0
M  V30 15 H -1.563 3.418 1.51819 0
M  V30 16 H 0.729 5.58782 3.83104 0
M  V30 17 H 1.672 6.56266 2.65933 0
M  V30 18 H 2.08 4.83886 2.90714 0
M  V30 19 N 1.4781 -0.272755 1.55222 0
M  V30 20 C 2.3881 -1.35918 1.91216 0
M  V30 21 C 3.4041 -1.54026 0.809436 0
M  V30 22 O 4.5801 -1.68148 1.10852 0
M  V30 23 C 1.6451 -2.69834 2.17693 0
M  V30 24 C 0.7061 -2.6047 3.41253 0
M  V30 25 C -0.0609 -3.88 3.66458 0
M  V30 26 O 0.1621 -4.88693 2.94169 0
M  V30 27 O -0.9039 -3.88189 4.59992 0
M  V30 28 H 2.9221 -1.0839 2.83699 0
M  V30 29 H 0.5071 -0.471301 1.41771 0
M  V30 30 H 2.3891 -3.49017 2.36147 0
M  V30 31 H 1.0641 -2.97148 1.28392 0
M  V30 32 H -0.0289 -1.79663 3.28134 0
M  V30 33 H 1.3041 -2.38106 4.30774 0
M  V30 34 N 2.9562 -1.48159 -0.537278 0
M  V30 35 C 3.9062 -1.5854 -1.63857 0
M  V30 36 C 4.8902 -0.442969 -1.54682 0
M  V30 37 O 6.0822 -0.69401 -1.62827 0
M  V30 38 C 3.2112 -1.62144 -3.02596 0
M  V30 39 C 2.2972 -2.81841 -3.16901 0
M  V30 40 N 2.6882 -4.06337 -3.01204 0
M  V30 41 C 0.9862 -2.79021 -3.47942 0
M  V30 42 C 1.6872 -4.86606 -3.18731 0
M  V30 43 N 0.6632 -4.19288 -3.45974 0
M  V30 44 H 4.4652 -2.5255 -1.50319 0
M  V30 45 H 1.9792 -1.4443 -0.742555 0
M  V30 46 H 3.9762 -1.67674 -3.81695 0
M  V30 47 H 2.6362 -0.69245 -3.17231 0
M  V30 48 H 3.6472 -4.36888 -2.78117 0
M  V30 49 H 0.3242 -1.95347 -3.6898 0
M  V30 50 H 1.7142 -5.95385 -3.11394 0
M  V30 51 N 4.4343 0.785586 -1.36625 0
M  V30 52 C 5.3813 1.89838 -1.31264 0
M  V30 53 C 6.3513 1.65115 -0.180633 0
M  V30 54 O 7.5363 1.87222 -0.36777 0
M  V30 55 C 4.6763 3.26706 -1.11163 0
M  V30 56 C 3.7893 3.63476 -2.33472 0
M  V30 57 C 2.9243 4.89481 -2.06353 0
M  V30 58 C 1.9633 5.18941 -3.24602 0
M  V30 59 N 1.1003 6.36131 -2.97123 0
M  V30 60 H 5.9403 1.93756 -2.26413 0
M  V30 61 H 3.4773 0.947454 -1.12524 0
M  V30 62 H 5.4353 4.05639 -0.975337 0
M  V30 63 H 4.0653 3.222 -0.196674 0
M  V30 64 H 3.1173 2.79636 -2.57891 0
M  V30 65 H 4.4293 3.81193 -3.21704 0
M  V30 66 H 3.5833 5.76288 -1.89675 0
M  V30 67 H 2.3223 4.73841 -1.15437 0
M  V30 68 H 1.3273 4.30615 -3.41834 0
M  V30 69 H 2.5523 5.36498 -4.16349 0
M  V30 70 H 0.4983 6.21875 -2.08823 0
M  V30 71 H 0.4153 6.54198 -3.78894 0
M  V30 72 H 1.6833 7.2591 -2.84033 0
M  V30 73 N 5.9124 1.20967 1.01018 0
M  V30 74 C 6.8224 0.980157 2.13143 0
M  V30 75 C 7.8384 -0.0660665 1.73875 0
M  V30 76 O 9.0144 0.122821 2.01025 0
M  V30 77 C 6.0794 0.54216 3.42435 0
M  V30 78 C 5.1404 1.65999 3.95908 0
M  V30 79 C 4.3734 1.2428 5.19028 0
M  V30 80 O 4.5964 0.114196 5.70286 0
M  V30 81 O 3.5304 2.05271 5.65816 0
M  V30 82 H 7.3564 1.91913 2.35379 0
M  V30 83 H 4.9414 0.994099 1.11526 0
M  V30 84 H 6.8234 0.30744 4.20277 0
M  V30 85 H 5.4984 -0.36815 3.216 0
M  V30 86 H 4.4054 1.94906 3.19316 0
M  V30 87 H 5.7384 2.54753 4.21143 0
M  V30 88 N 7.3905 -1.2043 1.01659 0
M  V30 89 C 8.6365 -1.90079 0.706963 0
M  V30 90 C 8.9695 -1.78648 -0.761474 0
M  V30 91 O 8.2445 -1.17069 -1.55323 0
M  V30 92 C 8.5275 -3.41469 1.14327 0
M  V30 93 C 8.3805 -3.61833 2.67201 0
M  V30 94 C 9.6995 -4.34261 0.714529 0
M  V30 95 H 6.8185 -0.690254 0.2583 0
M  V30 96 H 9.4605 -1.41826 1.26433 0
M  V30 97 H 7.6105 -3.82696 0.669056 0
M  V30 98 H 9.2825 -3.2986 3.22475 0
M  V30 99 H 7.5255 -3.05304 3.08175 0
M  V30 100 H 8.1965 -4.67955 2.92783 0
M  V30 101 H 10.6725 -4.00682 1.12221 0
M  V30 102 H 9.5485 -5.38806 1.04784 0
M  V30 103 H 9.8095 -4.40431 -0.383799 0
M  V30 104 N 8.8686 -0.792821 -1.36206 0
M  V30 105 C 10.1146 -0.36733 -1.99446 0
M  V30 106 C 10.4476 1.05917 -1.62774 0
M  V30 107 O 9.7226 1.7324 -0.88421 0
M  V30 108 C 10.0056 -0.535044 -3.56103 0
M  V30 109 C 9.8586 -2.00548 -4.02617 0
M  V30 110 C 11.1776 0.0478191 -4.40074 0
M  V30 111 H 8.2966 -0.134941 -0.724541 0
M  V30 112 H 10.9386 -0.999794 -1.61568 0
M  V30 113 H 9.0886 0.00336329 -3.885 0
M  V30 114 H 10.7606 -2.60521 -3.80692 0
M  V30 115 H 9.0036 -2.50686 -3.54032 0
M  V30 116 H 9.6746 -2.07377 -5.11565 0
M  V30 117 H 12.1506 -0.411822 -4.14057 0
M  V30 118 H 11.0266 -0.0995336 -5.4881 0
M  V30 119 H 11.2876 1.14025 -4.27142 0
M  V30 120 N 10.3467 1.47872 -0.545128 0
M  V30 121 C 11.2767 2.32661 0.197793 0
M  V30 122 C 12.2577 1.43041 0.920504 0
M  V30 123 O 13.4427 1.71912 0.90333 0
M  V30 124 C 10.5727 3.24569 1.23582 0
M  V30 125 C 9.5267 4.23333 0.630323 0
M  V30 126 C 8.8527 5.0448 1.77211 0
M  V30 127 C 10.1527 5.20704 -0.407974 0
M  V30 128 H 11.8467 2.95024 -0.510045 0
M  V30 129 H 9.3927 1.4187 -0.246731 0
M  V30 130 H 11.3457 3.8272 1.76362 0
M  V30 131 H 10.0697 2.60236 1.97344 0
M  V30 132 H 8.7287 3.6639 0.123922 0
M  V30 133 H 8.3767 4.36561 2.49847 0
M  V30 134 H 8.0767 5.71339 1.37281 0
M  V30 135 H 9.6007 5.65487 2.3034 0
M  V30 136 H 11.0147 5.7329 0.033305 0
M  V30 137 H 9.4117 5.95699 -0.725486 0
M  V30 138 H 10.4817 4.66917 -1.30828 0
M  V30 139 N 11.8248 0.280983 1.55075 0
M  V30 140 C 12.7548 -0.597469 2.25727 0
M  V30 141 C 13.7358 -1.15417 1.24952 0
M  V30 142 O 14.9208 -1.18722 1.53684 0
M  V30 143 C 12.0508 -1.7789 2.98283 0
M  V30 144 C 11.0048 -1.35347 4.06036 0
M  V30 145 C 10.3308 -2.61846 4.66198 0
M  V30 146 C 11.6308 -0.499354 5.19907 0
M  V30 147 H 13.3248 -0.00824265 2.99399 0
M  V30 148 H 10.8708 -0.0025244 1.44 0
M  V30 149 H 12.8238 -2.39937 3.46422 0
M  V30 150 H 11.5478 -2.39405 2.22155 0
M  V30 151 H 10.2068 -0.756156 3.58717 0
M  V30 152 H 9.8548 -3.21632 3.86732 0
M  V30 153 H 9.5548 -2.3409 5.38958 0
M  V30 154 H 11.0788 -3.24732 5.1709 0
M  V30 155 H 12.4928 -1.02498 5.64063 0
M  V30 156 H 10.8898 -0.316424 5.99265 0
M  V30 157 H 11.9598 0.480459 4.82514 0
M  V30 158 N 13.3029 -1.57598 0.00835791 0
M  V30 159 C 14.2329 -2.1198 -0.979113 0
M  V30 160 C 15.2139 -1.03091 -1.35301 0
M  V30 161 O 16.3989 -1.30818 -1.43528 0
M  V30 162 C 13.5289 -2.62995 -2.26828 0
M  V30 163 C 12.4829 -3.76485 -2.03576 0
M  V30 164 C 11.8089 -4.13846 -3.38579 0
M  V30 165 C 13.1089 -5.0342 -1.39161 0
M  V30 166 H 14.8029 -2.94738 -0.526281 0
M  V30 167 H 12.3489 -1.41783 -0.251704 0
M  V30 168 H 14.3019 -2.99669 -2.96271 0
M  V30 169 H 13.0259 -1.7737 -2.7424 0
M  V30 170 H 11.6849 -3.40217 -1.36557 0
M  V30 171 H 11.3329 -3.25232 -3.83709 0
M  V30 172 H 11.0329 -4.90312 -3.23834 0
M  V30 173 H 12.5569 -4.53086 -4.09323 0
M  V30 174 H 13.9709 -5.37812 -1.98573 0
M  V30 175 H 12.3679 -5.84746 -1.34878 0
M  V30 176 H 13.4379 -4.83548 -0.361868 0
M  V30 177 N 14.781 0.264519 -1.55364 0
M  V30 178 C 15.711 1.33121 -1.91836 0
M  V30 179 C 16.692 1.51101 -0.781192 0
M  V30 180 O 17.877 1.64003 -1.04003 0
M  V30 181 C 15.007 2.68921 -2.19769 0
M  V30 182 C 13.961 2.65661 -3.35571 0
M  V30 183 C 13.287 4.05093 -3.49004 0
M  V30 184 C 14.587 2.24187 -4.71739 0
M  V30 185 H 16.281 1.02844 -2.81182 0
M  V30 186 H 13.827 0.493286 -1.35287 0
M  V30 187 H 15.78 3.43663 -2.43872 0
M  V30 188 H 14.504 3.00799 -1.27231 0
M  V30 189 H 13.163 1.93377 -3.1145 0
M  V30 190 H 12.811 4.34206 -2.53917 0
M  V30 191 H 12.511 4.03804 -4.26868 0
M  V30 192 H 14.035 4.81561 -3.75408 0
M  V30 193 H 15.449 2.88654 -4.9533 0
M  V30 194 H 13.846 2.34044 -5.52579 0
M  V30 195 H 14.916 1.19327 -4.69988 0
M  V30 196 N 16.2591 1.48442 0.529413 0
M  V30 197 C 17.1891 1.65902 1.64313 0
M  V30 198 C 18.1701 0.507897 1.6234 0
M  V30 199 O 19.3551 0.740503 1.79528 0
M  V30 200 C 16.4851 1.69911 3.02898 0
M  V30 201 C 15.4391 2.8453 3.19729 0
M  V30 202 C 14.7651 2.73629 4.59381 0
M  V30 203 C 16.0651 4.25821 3.02447 0
M  V30 204 H 17.7591 2.5914 1.49955 0
M  V30 205 H 15.3051 1.24709 0.719982 0
M  V30 206 H 17.2581 1.80715 3.80684 0
M  V30 207 H 15.9821 0.732524 3.18279 0
M  V30 208 H 14.6411 2.73283 2.44361 0
M  V30 209 H 14.2891 1.74938 4.71599 0
M  V30 210 H 13.9891 3.50541 4.71588 0
M  V30 211 H 15.5131 2.86401 5.39265 0
M  V30 212 H 16.9271 4.37898 3.70024 0
M  V30 213 H 15.3241 5.03735 3.26146 0
M  V30 214 H 16.3941 4.42244 1.98867 0
M  V30 215 N 17.7372 -0.778329 1.37039 0
M  V30 216 C 18.9842 -1.53665 1.31884 0
M  V30 217 C 19.3122 -1.9425 -0.0986303 0
M  V30 218 O 18.5672 -1.63832 -1.07041 0
M  V30 219 C 18.8662 -2.81845 2.19768 0
M  V30 220 C 18.5322 -2.60345 3.68146 0
M  V30 221 C 17.1942 -2.5419 4.08584 0
M  V30 222 C 19.5462 -2.40923 4.62175 0
M  V30 223 C 16.8742 -2.26594 5.41177 0
M  V30 224 C 19.2262 -2.14852 5.94997 0
M  V30 225 C 17.8902 -2.07137 6.34547 0
M  V30 226 H 17.1602 -0.562299 0.482598 0
M  V30 227 H 19.8072 -0.897069 1.69189 0
M  V30 228 H 18.1122 -3.50328 1.75436 0
M  V30 229 H 19.8092 -3.39692 2.13097 0
M  V30 230 H 16.3992 -2.65996 3.36072 0
M  V30 231 H 20.5832 -2.44673 4.31797 0
M  V30 232 H 15.8392 -2.19111 5.70789 0
M  V30 233 H 20.0132 -1.98822 6.67415 0
M  V30 234 H 17.6402 -1.85518 7.37216 0
M  V30 235 N 19.2153 -1.21501 -1.00376 0
M  V30 236 C 20.1453 -0.999478 -2.11028 0
M  V30 237 C 21.1263 0.0759671 -1.6993 0
M  V30 238 O 22.3113 -0.0841106 -1.94018 0
M  V30 239 C 19.4413 -0.564709 -3.42678 0
M  V30 240 C 18.3953 -1.58486 -3.97576 0
M  V30 241 C 17.7213 -1.00628 -5.25146 0
M  V30 242 C 19.0213 -2.97204 -4.29496 0
M  V30 243 H 20.7153 -1.92495 -2.29317 0
M  V30 244 H 18.2613 -0.92693 -1.102 0
M  V30 245 H 20.2143 -0.401091 -4.19487 0
M  V30 246 H 18.9383 0.396411 -3.24185 0
M  V30 247 H 17.5973 -1.73606 -3.22888 0
M  V30 248 H 17.2453 -0.0368439 -5.02987 0
M  V30 249 H 16.9453 -1.68771 -5.62841 0
M  V30 250 H 18.4693 -0.854015 -6.04598 0
M  V30 251 H 19.8833 -2.8552 -4.97143 0
M  V30 252 H 18.2803 -3.62372 -4.78338 0
M  V30 253 H 19.3503 -3.47956 -3.3772 0
M  V30 254 N 20.6934 1.19889 -1.02296 0
M  V30 255 C 21.6404 2.22901 -0.598651 0
M  V30 256 C 22.6104 1.61588 0.384521 0
M  V30 257 O 23.7954 1.88697 0.282522 0
M  V30 258 C 20.9354 3.45063 0.0504476 0
M  V30 259 C 20.0484 4.20783 -0.978053 0
M  V30 260 C 19.1834 5.30356 -0.299338 0
M  V30 261 C 18.2224 5.97826 -1.31416 0
M  V30 262 N 17.3594 6.98975 -0.661667 0
M  V30 263 H 22.1994 2.58554 -1.48169 0
M  V30 264 H 19.7364 1.27039 -0.741584 0
M  V30 265 H 21.6944 4.14831 0.443971 0
M  V30 266 H 20.3244 3.10084 0.897097 0
M  V30 267 H 19.3764 3.50018 -1.48969 0
M  V30 268 H 20.6884 4.67109 -1.74958 0
M  V30 269 H 19.8424 6.06516 0.149347 0
M  V30 270 H 18.5814 4.85084 0.504445 0
M  V30 271 H 17.5864 5.20422 -1.77317 0
M  V30 272 H 18.8114 6.45183 -2.11933 0
M  V30 273 H 16.7574 6.55886 0.122132 0
M  V30 274 H 16.6744 7.43461 -1.37117 0
M  V30 275 H 17.9424 7.7914 -0.236785 0
M  V30 276 N 22.1715 0.800033 1.35784 0
M  V30 277 C 23.3965 0.388511 2.03729 0
M  V30 278 C 23.8215 -0.990481 1.5991 0
M  V30 279 O 23.1795 -1.64013 0.772612 0
M  V30 280 C 23.2275 0.4726 3.5749 0
M  V30 281 O 22.3315 -0.51646 4.09153 0
M  V30 282 H 21.6725 0.163271 0.643614 0
M  V30 283 H 24.2025 1.0841 1.73518 0
M  V30 284 H 24.2125 0.34003 4.06581 0
M  V30 285 H 22.8875 1.47848 3.88734 0
M  V30 286 H 21.4645 -0.344673 3.71304 0
M  V30 287 N 23.6496 -1.47581 0.552962 0
M  V30 288 C 24.8976 -2.02082 0.0272703 0
M  V30 289 C 25.2186 -1.4301 -1.32563 0
M  V30 290 O 24.4886 -0.603745 -1.86365 0
M  V30 291 H 23.0686 -0.746966 0.00709182 0
M  V30 292 H 25.7306 -1.81033 0.722008 0
M  V30 293 H 24.8266 -3.12034 -0.0639951 0
M  V30 294 N 25.1277 -0.289203 -1.54924 0
M  V30 295 C 26.0597 0.625583 -2.20497 0
M  V30 296 C 27.0727 1.10667 -1.19402 0
M  V30 297 O 28.2617 1.02615 -1.46056 0
M  V30 298 C 25.3617 1.86702 -2.82835 0
M  V30 299 C 24.5347 1.5304 -4.09753 0
M  V30 300 C 23.5937 2.62576 -4.56005 0
M  V30 301 O 22.6197 2.28167 -5.21468 0
M  V30 302 N 23.8217 3.92901 -4.27328 0
M  V30 303 H 26.5867 0.0642801 -2.99631 0
M  V30 304 H 24.1477 -0.110896 -1.6152 0
M  V30 305 H 26.1397 2.59304 -3.10715 0
M  V30 306 H 24.7097 2.33702 -2.07611 0
M  V30 307 H 23.9297 0.637564 -3.8901 0
M  V30 308 H 25.2177 1.28072 -4.92418 0
M  V30 309 H 24.6157 4.23671 -3.74859 0
M  V30 310 H 23.1727 4.61837 -4.59946 0
M  V30 311 N 26.6058 1.57591 -0.0167156 0
M  V30 312 C 27.8538 1.90906 0.663285 0
M  V30 313 C 28.1748 0.892509 1.73376 0
M  V30 314 O 27.4448 -0.0677623 1.95783 0
M  V30 315 H 26.0248 0.704637 0.247983 0
M  V30 316 H 28.6868 1.94803 -0.0615909 0
M  V30 317 H 27.7828 2.9116 1.12393 0
M  V30 318 N 28.0839 -0.256276 1.55502 0
M  V30 319 C 28.9939 -1.33882 1.92647 0
M  V30 320 C 30.0099 -1.53159 0.825727 0
M  V30 321 O 31.1859 -1.66963 1.12629 0
M  V30 322 C 28.2509 -2.6751 2.20543 0
M  V30 323 C 27.3119 -2.56836 3.43997 0
M  V30 324 C 26.5449 -3.84092 3.70553 0
M  V30 325 O 26.7679 -4.85545 2.99336 0
M  V30 326 O 25.7019 -3.83288 4.64084 0
M  V30 327 H 29.5279 -1.05374 2.84833 0
M  V30 328 H 27.1129 -0.456237 1.42263 0
M  V30 329 H 28.9949 -3.46492 2.39835 0
M  V30 330 H 27.6699 -2.9577 1.31536 0
M  V30 331 H 26.5769 -1.76172 3.30021 0
M  V30 332 H 27.9099 -2.33523 4.33275 0
M  V30 333 N 29.562 -1.4872 -0.521534 0
M  V30 334 C 30.973 -1.50607 -1.10337 0
M  V30 335 C 31.324 -0.280612 -1.94183 0
M  V30 336 O 30.449 0.611507 -2.0758 0
M  V30 337 C 31.044 -2.72903 -2.00772 0
M  V30 338 C 29.603 -2.77634 -2.54158 0
M  V30 339 C 28.75 -2.44241 -1.31307 0
M  V30 340 H 31.701 -1.55714 -0.306388 0
M  V30 341 H 31.722 -2.519 -2.85178 0
M  V30 342 H 31.234 -3.62077 -1.39721 0
M  V30 343 H 29.335 -1.92689 -3.18907 0
M  V30 344 H 29.448 -3.79283 -2.92714 0
M  V30 345 H 27.812 -1.95577 -1.63161 0
M  V30 346 H 28.595 -3.35666 -0.719943 0
M  V30 347 N 31.0401 0.771051 -1.3745 0
M  V30 348 C 31.9701 1.89827 -1.3597 0
M  V30 349 C 32.9511 1.68562 -0.228216 0
M  V30 350 O 34.1361 1.8941 -0.428675 0
M  V30 351 C 31.2661 3.2712 -1.16662 0
M  V30 352 C 30.2201 3.6295 -2.2683 0
M  V30 353 C 29.5461 4.98791 -1.92644 0
M  V30 354 C 30.8461 3.69627 -3.69017 0
M  V30 355 H 32.5401 1.91323 -2.30295 0
M  V30 356 H 30.0861 0.919082 -1.10855 0
M  V30 357 H 32.0391 4.05615 -1.14256 0
M  V30 358 H 30.7631 3.26059 -0.187926 0
M  V30 359 H 29.4221 2.86763 -2.28392 0
M  V30 360 H 29.0701 4.94271 -0.933021 0
M  V30 361 H 28.7701 5.23733 -2.66416 0
M  V30 362 H 30.2941 5.79685 -1.91826 0
M  V30 363 H 31.7081 4.38273 -3.69581 0
M  V30 364 H 30.1051 4.06067 -4.41848 0
M  V30 365 H 31.1751 2.70273 -4.02592 0
M  V30 366 N 32.5182 1.22032 0.997298 0
M  V30 367 C 33.7952 0.950823 1.70935 0
M  V30 368 C 34.1752 -0.535292 2.042 0
M  V30 369 O 33.5232 -1.50217 1.72183 0
M  V30 370 C 33.7332 1.84386 2.96315 0
M  V30 371 C 35.0812 2.09732 3.69185 0
M  V30 372 O 36.1052 1.81798 3.06314 0
M  V30 373 O 34.9642 2.57018 4.82291 0
M  V30 374 H 32.0582 0.357204 0.745878 0
M  V30 375 H 34.6042 1.32997 1.05404 0
M  V30 376 H 33.3762 2.84928 2.68201 0
M  V30 377 H 32.9992 1.46602 3.69586 0
M  V30 378 N 33.9963 -1.19345 1.0293 0
M  V30 379 C 35.2733 -1.84811 0.640642 0
M  V30 380 C 35.6533 -1.91855 -0.88062 0
M  V30 381 O 35.0013 -1.43587 -1.7775 0
M  V30 382 C 35.2113 -3.23755 1.30321 0
M  V30 383 C 36.5593 -3.99912 1.42673 0
M  V30 384 O 37.5833 -3.33155 1.26041 0
M  V30 385 O 36.4423 -5.19494 1.6967 0
M  V30 386 H 33.5363 -0.796443 0.222726 0
M  V30 387 H 36.0823 -1.26831 1.12748 0
M  V30 388 H 34.8543 -3.13466 2.34211 0
M  V30 389 H 34.4773 -3.89381 0.804261 0
M  V30 390 N 35.4744 -0.807222 -1.35358 0
M  V30 391 C 36.7044 -0.399796 -2.02695 0
M  V30 392 C 37.1124 0.994176 -1.60974 0
M  V30 393 O 36.4554 1.65209 -0.803226 0
M  V30 394 C 36.5174 -0.404445 -3.57218 0
M  V30 395 C 36.1814 -1.74904 -4.22206 0
M  V30 396 C 37.1784 -2.70743 -4.4384 0
M  V30 397 C 34.8634 -2.03322 -4.5931 0
M  V30 398 C 36.8574 -3.93183 -5.01683 0
M  V30 399 C 34.5444 -3.26026 -5.16866 0
M  V30 400 C 35.5424 -4.20774 -5.37994 0
M  V30 401 O 35.2304 -5.41312 -5.94337 0
M  V30 402 H 34.9624 -0.160517 -0.656666 0
M  V30 403 H 37.5164 -1.09235 -1.73945 0
M  V30 404 H 35.7464 0.344707 -3.85161 0
M  V30 405 H 37.4354 -0.0192429 -4.05895 0
M  V30 406 H 38.2014 -2.5008 -4.15554 0
M  V30 407 H 34.0804 -1.30384 -4.42178 0
M  V30 408 H 37.6244 -4.6715 -5.1809 0
M  V30 409 H 33.5214 -3.46559 -5.44579 0
M  V30 410 H 34.2894 -5.42618 -6.12787 0
M  V30 411 N 36.9525 1.47285 -0.560781 0
M  V30 412 C 38.1985 2.02764 -0.0381184 0
M  V30 413 C 38.5315 1.43384 1.30976 0
M  V30 414 O 37.8065 0.590733 1.85312 0
M  V30 415 C 38.0895 3.60064 0.0511427 0
M  V30 416 C 37.9425 4.2987 -1.32408 0
M  V30 417 C 39.2615 4.33439 0.762795 0
M  V30 418 H 36.3805 0.736841 -0.0153264 0
M  V30 419 H 39.0225 1.75675 -0.723759 0
M  V30 420 H 37.1725 3.83274 0.635065 0
M  V30 421 H 38.8445 4.17989 -1.95148 0
M  V30 422 H 37.0875 3.90085 -1.8978 0
M  V30 423 H 37.7585 5.38478 -1.21431 0
M  V30 424 H 40.2345 4.15243 0.266965 0
M  V30 425 H 39.1105 5.43124 0.794221 0
M  V30 426 H 39.3715 4.02915 1.81966 0
M  V30 427 N 38.4306 0.297415 1.54768 0
M  V30 428 C 39.3786 -0.596051 2.24833 0
M  V30 429 C 40.3726 -1.13992 1.25308 0
M  V30 430 O 41.5786 -1.09098 1.4317 0
M  V30 431 H 37.9536 -0.210814 0.721846 0
M  V30 432 H 39.9246 0.0174667 2.98395 0
M  V30 433 C 38.6736 -1.75818 2.99972 0
M  V30 434 H 37.9966 -1.3489 3.76357 0
M  V30 435 H 39.4366 -2.35949 3.52284 0
M  V30 436 C 37.8956 -2.66014 2.06732 0
M  V30 437 O 38.4256 -3.67009 1.63302 0
M  V30 438 N 36.6316 -2.33669 1.72763 0
M  V30 439 H 36.1786 -1.51586 2.08277 0
M  V30 440 H 36.1366 -2.94285 1.10652 0
M  V30 441 N 39.9087 -1.5758 0.0250728 0
M  V30 442 C 41.1367 -1.9593 -0.664747 0
M  V30 443 C 41.5517 -0.901352 -1.65895 0
M  V30 444 O 40.9087 0.117255 -1.82123 0
M  V30 445 C 40.9597 -3.34342 -1.37468 0
M  V30 446 O 40.6807 -4.36079 -0.420324 0
M  V30 447 C 42.1817 -3.873 -2.1567 0
M  V30 448 H 39.4017 -0.645405 -0.183557 0
M  V30 449 H 41.9457 -2.04329 0.0836372 0
M  V30 450 H 40.1007 -3.27175 -2.0745 0
M  V30 451 H 40.5147 -5.16297 -0.923991 0
M  V30 452 H 41.9887 -4.86504 -2.60803 0
M  V30 453 H 42.4657 -3.21331 -2.99405 0
M  V30 454 H 43.0717 -3.97723 -1.50654 0
M  V30 455 N 41.3868 0.248026 -1.55636 0
M  V30 456 C 42.3188 1.32993 -1.8667 0
M  V30 457 C 43.3318 1.44345 -0.752877 0
M  V30 458 O 44.5208 1.45715 -1.03098 0
M  V30 459 C 41.6208 2.70863 -2.03682 0
M  V30 460 C 40.7938 2.81792 -3.34532 0
M  V30 461 C 39.8528 4.005 -3.41301 0
M  V30 462 O 38.8788 3.9008 -4.14519 0
M  V30 463 N 40.0808 5.13618 -2.70512 0
M  V30 464 H 42.8458 1.06707 -2.8006 0
M  V30 465 H 40.4068 0.438129 -1.55859 0
M  V30 466 H 42.3988 3.48612 -2.05553 0
M  V30 467 H 40.9688 2.89862 -1.17041 0
M  V30 468 H 40.1888 1.90729 -3.44987 0
M  V30 469 H 41.4768 2.86043 -4.20781 0
M  V30 470 H 40.8748 5.24975 -2.10755 0
M  V30 471 H 39.4318 5.89505 -2.78077 0
M  V30 472 N 42.8649 1.48995 0.513639 0
M  V30 473 C 44.1129 1.57531 1.26604 0
M  V30 474 C 44.4339 0.258236 1.93283 0
M  V30 475 O 43.7039 -0.721502 1.8213 0
M  V30 476 H 42.2839 0.580387 0.470276 0
M  V30 477 H 44.9459 1.85552 0.596373 0
M  V30 478 H 44.0419 2.36486 2.03669 0
M  V30 479 N 44.343 -0.763751 1.37857 0
M  V30 480 C 45.306 -1.85889 1.34081 0
M  V30 481 C 46.306 -1.58949 0.243277 0
M  V30 482 O 47.496 -1.66882 0.499589 0
M  V30 483 C 44.628 -3.23176 1.08489 0
M  V30 484 H 45.821 -1.90648 2.31502 0
M  V30 485 H 43.374 -0.964367 1.23003 0
M  V30 486 H 44.109 -3.24091 0.116318 0
M  V30 487 H 43.894 -3.44124 1.8794 0
M  V30 488 H 45.384 -4.03254 1.08517 0
M  V30 489 N 45.8211 -1.22559 -0.990812 0
M  V30 490 C 47.0461 -1.07862 -1.77145 0
M  V30 491 C 47.4711 0.366447 -1.84496 0
M  V30 492 O 46.8291 1.26478 -1.29896 0
M  V30 493 C 46.8771 -1.69686 -3.18181 0
M  V30 494 O 45.9811 -0.951946 -4.01263 0
M  V30 495 H 45.3221 -0.378712 -0.545411 0
M  V30 496 H 47.8521 -1.62399 -1.2445 0
M  V30 497 H 47.8621 -1.74496 -3.68802 0
M  V30 498 H 46.5371 -2.74841 -3.12146 0
M  V30 499 H 45.1141 -0.980011 -3.59792 0
M  V30 500 N 47.2992 1.18797 -1.03562 0
M  V30 501 C 48.2292 2.24472 -0.643019 0
M  V30 502 C 49.2102 1.66433 0.351283 0
M  V30 503 O 50.3952 1.92803 0.232505 0
M  V30 504 C 47.5252 3.473 4.24935e-05 0
M  V30 505 C 46.4792 4.18055 -0.917257 0
M  V30 506 C 45.8052 5.34519 -0.138941 0
M  V30 507 C 47.1052 4.72109 -2.23407 0
M  V30 508 H 48.7992 2.57566 -1.52643 0
M  V30 509 H 46.3452 1.23806 -0.735394 0
M  V30 510 H 48.2982 4.20426 0.286383 0
M  V30 511 H 47.0222 3.13424 0.918299 0
M  V30 512 H 45.6812 3.46821 -1.1879 0
M  V30 513 H 45.3292 4.96891 0.781562 0
M  V30 514 H 45.0292 5.82794 -0.750005 0
M  V30 515 H 46.5532 6.10438 0.1405 0
M  V30 516 H 47.9672 5.36955 -2.00879 0
M  V30 517 H 46.3642 5.30897 -2.79765 0
M  V30 518 H 47.4342 3.89807 -2.88407 0
M  V30 519 N 48.7773 0.814389 1.34928 0
M  V30 520 C 50.0243 0.398423 1.98542 0
M  V30 521 C 50.3523 -1.03638 1.64589 0
M  V30 522 O 49.6073 -1.73509 0.90516 0
M  V30 523 C 49.9063 0.537781 3.53331 0
M  V30 524 C 49.5723 1.93704 4.07172 0
M  V30 525 C 48.2343 2.31984 4.21589 0
M  V30 526 C 50.5863 2.85213 4.36237 0
M  V30 527 C 47.9143 3.61125 4.62391 0
M  V30 528 C 50.2663 4.13809 4.78482 0
M  V30 529 C 48.9303 4.52077 4.91104 0
M  V30 530 H 48.2003 0.145793 0.726516 0
M  V30 531 H 50.8473 1.03669 1.61012 0
M  V30 532 H 49.1523 -0.183906 3.91368 0
M  V30 533 H 50.8493 0.196588 4.00518 0
M  V30 534 H 47.4393 1.62966 3.96409 0
M  V30 535 H 51.6233 2.56885 4.24645 0
M  V30 536 H 46.8793 3.90612 4.70353 0
M  V30 537 H 51.0533 4.84811 4.99932 0
M  V30 538 H 48.6803 5.52196 5.22478 0
M  V30 539 N 50.2554 -1.46986 0.568584 0
M  V30 540 C 51.4804 -2.07335 0.0520528 0
M  V30 541 C 51.9054 -1.41675 -1.23733 0
M  V30 542 O 51.2634 -0.495623 -1.74394 0
M  V30 543 C 51.3114 -3.60417 -0.11501 0
M  V30 544 O 50.4154 -3.95309 -1.17492 0
M  V30 545 H 49.7564 -0.661597 0.0564385 0
M  V30 546 H 52.2864 -1.88837 0.787507 0
M  V30 547 H 52.2964 -4.06698 -0.325644 0
M  V30 548 H 50.9714 -4.07601 0.826675 0
M  V30 549 H 49.5484 -3.60757 -0.943869 0
M  V30 550 N 51.7335 -0.305618 -1.54608 0
M  V30 551 C 52.9795 0.302746 -2.00528 0
M  V30 552 C 53.3125 1.53184 -1.19367 0
M  V30 553 O 52.5875 1.92598 -0.271321 0
M  V30 554 C 52.8705 0.654756 -3.54097 0
M  V30 555 C 52.7235 -0.583793 -4.45995 0
M  V30 556 C 54.0425 1.47947 -4.14487 0
M  V30 557 H 51.1615 0.108564 -0.72896 0
M  V30 558 H 53.8035 -0.418634 -1.85331 0
M  V30 559 H 51.9535 1.26935 -3.67178 0
M  V30 560 H 53.6255 -1.22224 -4.44814 0
M  V30 561 H 51.8685 -1.21615 -4.16404 0
M  V30 562 H 52.5395 -0.293287 -5.5122 0
M  V30 563 H 55.0155 0.96013 -4.04871 0
M  V30 564 H 53.8915 1.69454 -5.22088 0
M  V30 565 H 54.1525 2.47011 -3.66658 0
M  V30 566 N 53.2116 1.57565 -0.0334293 0
M  V30 567 C 54.4396 1.9628 0.654347 0
M  V30 568 C 54.8546 0.910138 1.65414 0
M  V30 569 O 54.2116 -0.107595 1.82183 0
M  V30 570 C 54.2626 3.35067 1.35693 0
M  V30 571 O 53.9836 4.36296 0.397191 0
M  V30 572 C 55.4846 3.88439 2.13613 0
M  V30 573 H 52.7046 0.646369 0.180132 0
M  V30 574 H 55.2486 2.04282 -0.0944721 0
M  V30 575 H 53.4036 3.2827 2.05712 0
M  V30 576 H 53.8176 5.1678 0.896597 0
M  V30 577 H 55.2916 4.8788 2.58219 0
M  V30 578 H 55.7686 3.22914 2.97696 0
M  V30 579 H 56.3746 3.98516 1.48543 0
M  V30 580 N 54.6897 -0.239769 1.55765 0
M  V30 581 C 55.6367 -1.29696 1.90913 0
M  V30 582 C 56.6067 -1.47478 0.764164 0
M  V30 583 O 57.7917 -1.61345 1.01845 0
M  V30 584 C 54.9317 -2.64598 2.21544 0
M  V30 585 C 54.0447 -2.54765 3.48882 0
M  V30 586 C 53.1797 -3.82069 3.69049 0
M  V30 587 C 52.2187 -3.66883 4.89963 0
M  V30 588 N 51.3557 -4.86094 5.06614 0
M  V30 589 H 56.1957 -0.990224 2.81067 0
M  V30 590 H 53.7327 -0.477684 1.39128 0
M  V30 591 H 55.6907 -3.43132 2.3731 0
M  V30 592 H 54.3207 -2.93405 1.34585 0
M  V30 593 H 53.3727 -1.67763 3.41409 0
M  V30 594 H 54.6847 -2.39457 4.37563 0
M  V30 595 H 53.8387 -4.69046 3.84812 0
M  V30 596 H 52.5777 -4.00282 2.78614 0
M  V30 597 H 51.5827 -2.78289 4.74168 0
M  V30 598 H 52.8077 -3.50157 5.81865 0
M  V30 599 H 50.7537 -5.04655 4.19117 0
M  V30 600 H 50.6707 -4.73443 5.89396 0
M  V30 601 H 51.9387 -5.74549 5.26795 0
M  V30 602 N 56.1678 -1.49265 -0.50573 0
M  V30 603 C 57.1148 -1.65585 -1.6078 0
M  V30 604 C 58.0848 -0.497396 -1.58478 0
M  V30 605 O 59.2698 -0.72385 -1.76536 0
M  V30 606 C 56.4098 -1.72408 -2.98948 0
M  V30 607 C 55.5228 -2.99525 -3.11301 0
M  V30 608 C 54.6578 -2.97356 -4.40174 0
M  V30 609 C 53.6968 -4.19074 -4.46143 0
M  V30 610 N 52.8338 -4.14841 -5.66437 0
M  V30 611 H 57.6738 -2.59688 -1.46172 0
M  V30 612 H 55.2108 -1.28761 -0.711261 0
M  V30 613 H 57.1688 -1.74344 -3.79025 0
M  V30 614 H 55.7988 -0.817753 -3.1227 0
M  V30 615 H 54.8508 -3.07222 -2.24318 0
M  V30 616 H 56.1628 -3.89518 -3.11572 0
M  V30 617 H 55.3168 -2.97829 -5.28567 0
M  V30 618 H 54.0558 -2.05133 -4.42461 0
M  V30 619 H 53.0608 -4.1885 -3.56153 0
M  V30 620 H 54.2858 -5.12483 -4.45575 0
M  V30 621 H 52.2318 -3.25453 -5.69575 0
M  V30 622 H 52.1488 -4.98564 -5.68304 0
M  V30 623 H 53.4168 -4.1941 -6.57051 0
M  V30 624 N 57.6459 0.756429 -1.3826 0
M  V30 625 C 58.5779 1.87971 -1.31147 0
M  V30 626 C 59.5909 1.61248 -0.224239 0
M  V30 627 O 60.7799 1.71881 -0.481581 0
M  V30 628 C 57.8799 3.23545 -1.00857 0
M  V30 629 C 57.0529 3.77794 -2.20432 0
M  V30 630 C 56.1119 4.91877 -1.86931 0
M  V30 631 O 55.1379 5.06659 -2.59395 0
M  V30 632 N 56.3399 5.74643 -0.822568 0
M  V30 633 H 59.1049 1.94585 -2.2794 0
M  V30 634 H 56.6659 0.936234 -1.32084 0
M  V30 635 H 58.6579 3.97403 -0.765021 0
M  V30 636 H 57.2279 3.12335 -0.128687 0
M  V30 637 H 56.4479 2.95534 -2.6087 0
M  V30 638 H 57.7359 4.10771 -3.00241 0
M  V30 639 H 57.1339 5.65266 -0.221575 0
M  V30 640 H 55.6909 6.48661 -0.638899 0
M  V30 641 N 59.124 1.23083 0.984299 0
M  V30 642 C 60.054 1.03292 2.09411 0
M  V30 643 C 61.035 -0.048923 1.7003 0
M  V30 644 O 62.22 0.114967 1.93859 0
M  V30 645 C 59.35 0.619155 3.41736 0
M  V30 646 C 58.304 1.64791 3.95004 0
M  V30 647 C 57.63 1.0897 5.23478 0
M  V30 648 C 58.93 3.03999 4.24714 0
M  V30 649 H 60.624 1.96119 2.26225 0
M  V30 650 H 58.17 0.944344 1.08711 0
M  V30 651 H 60.123 0.467777 4.18796 0
M  V30 652 H 58.847 -0.344786 3.24775 0
M  V30 653 H 57.506 1.78721 3.20085 0
M  V30 654 H 57.154 0.11686 5.02864 0
M  V30 655 H 56.854 1.77704 5.60085 0
M  V30 656 H 58.378 0.950093 6.03163 0
M  V30 657 H 59.792 2.93393 4.92538 0
M  V30 658 H 58.189 3.69936 4.72512 0
M  V30 659 H 59.259 3.53285 3.32142 0
M  V30 660 N 60.6021 -1.18246 1.0419 0
M  V30 661 C 61.8501 -1.87886 0.744543 0
M  V30 662 C 62.1711 -1.8082 -0.730006 0
M  V30 663 O 61.4411 -1.22736 -1.52685 0
M  V30 664 H 60.0211 -0.695556 0.272417 0
M  V30 665 H 62.6831 -1.43494 1.31892 0
M  V30 666 H 61.7791 -2.9389 1.05049 0
M  V30 667 N 62.0802 -0.821533 -1.34494 0
M  V30 668 C 63.0432 -0.247847 -2.27856 0
M  V30 669 C 64.0432 0.573453 -1.50227 0
M  V30 670 O 65.2332 0.389759 -1.69784 0
M  V30 671 C 62.3652 0.652698 -3.34593 0
M  V30 672 H 63.5582 -1.07146 -2.80107 0
M  V30 673 H 61.1112 -0.593291 -1.44602 0
M  V30 674 H 61.8462 1.49943 -2.87555 0
M  V30 675 H 61.6312 0.065292 -3.92046 0
M  V30 676 H 63.1212 1.04793 -4.04238 0
M  V30 677 N 63.5583 1.46682 -0.576371 0
M  V30 678 C 64.8063 2.02013 -0.0594163 0
M  V30 679 C 65.1273 1.45101 1.30271 0
M  V30 680 O 64.3973 0.633317 1.8538 0
M  V30 681 H 62.9773 0.746759 -0.0189745 0
M  V30 682 H 65.6393 1.79862 -0.750717 0
M  V30 683 H 64.7353 3.12097 0.014345 0
M  V30 684 N 65.0364 0.313813 1.54444 0
M  V30 685 C 66.2614 -0.296681 2.05267 0
M  V30 686 C 66.6864 -1.45757 1.18897 0
M  V30 687 O 66.0444 -1.80239 0.195886 0
M  V30 688 C 66.0924 -0.71831 3.53373 0
M  V30 689 O 65.1964 -1.82175 3.69981 0
M  V30 690 H 64.5374 -0.0554061 0.661684 0
M  V30 691 H 67.0674 0.459387 1.99376 0
M  V30 692 H 67.0774 -1.00364 3.95463 0
M  V30 693 H 65.7524 0.130821 4.15694 0
M  V30 694 H 64.3294 -1.53598 3.39797 0
M  V30 695 N 66.5145 -1.57545 0.0417849 0
M  V30 696 C 67.7635 -1.91494 -0.633492 0
M  V30 697 C 68.0765 -0.921084 -1.72556 0
M  V30 698 O 69.2825 -1.15228 -2.45835 0
M  V30 699 C 67.7385 -3.40072 -1.17808 0
M  V30 700 C 67.3465 -4.47843 -0.118633 0
M  V30 701 C 69.0905 -3.8307 -1.82915 0
M  V30 702 C 66.9975 -5.87529 -0.675578 0
M  V30 703 H 65.9275 -0.714653 -0.24039 0
M  V30 704 H 68.5785 -1.83175 0.109148 0
M  V30 705 H 66.9605 -3.43364 -1.97274 0
M  V30 706 H 68.1345 -4.56128 0.654494 0
M  V30 707 H 66.4495 -4.14128 0.434414 0
M  V30 708 H 69.0465 -4.84794 -2.25563 0
M  V30 709 H 69.3895 -3.1881 -2.67705 0
M  V30 710 H 69.9225 -3.82255 -1.10119 0
M  V30 711 H 66.6615 -6.55362 0.134475 0
M  V30 712 H 66.1815 -5.82824 -1.4169 0
M  V30 713 H 67.8605 -6.36491 -1.1614 0
M  V30 714 N 67.9926 0.231505 -1.5589 0
M  V30 715 C 68.9026 1.308 -1.94752 0
M  V30 716 C 69.9186 1.51826 -0.849989 0
M  V30 717 O 71.0946 1.6515 -1.15271 0
M  V30 718 C 68.1596 2.63968 -2.24771 0
M  V30 719 C 67.2206 2.51331 -3.48039 0
M  V30 720 C 66.4536 3.78148 -3.76616 0
M  V30 721 O 66.6766 4.80722 -3.07022 0
M  V30 722 O 65.6106 3.75857 -4.70123 0
M  V30 723 H 69.4366 1.0083 -2.86474 0
M  V30 724 H 67.0216 0.433547 -1.42971 0
M  V30 725 H 68.9036 3.42633 -2.45318 0
M  V30 726 H 67.5786 2.9364 -1.36225 0
M  V30 727 H 66.4856 1.709 -3.32782 0
M  V30 728 H 67.8186 2.26601 -4.36936 0
M  V30 729 N 69.4707 1.49531 0.497807 0
M  V30 730 C 70.3807 1.69176 1.62532 0
M  V30 731 C 71.3967 0.5744 1.64246 0
M  V30 732 O 72.5727 0.849497 1.82608 0
M  V30 733 C 69.6377 1.75695 2.98885 0
M  V30 734 C 68.6987 2.9929 3.07773 0
M  V30 735 C 67.9317 3.05488 4.37622 0
M  V30 736 O 68.1547 2.19192 5.26603 0
M  V30 737 O 67.0887 3.9798 4.51548 0
M  V30 738 H 70.9147 2.647 1.48887 0
M  V30 739 H 68.4997 1.3331 0.674441 0
M  V30 740 H 70.3817 1.82317 3.79919 0
M  V30 741 H 69.0567 0.8335 3.12785 0
M  V30 742 H 67.9637 2.98183 2.25915 0
M  V30 743 H 69.2967 3.91125 2.98801 0
M  V30 744 N 70.9488 -0.749086 1.3866 0
M  V30 745 C 72.1888 -1.52112 1.36534 0
M  V30 746 C 72.5528 -1.91951 -0.0432316 0
M  V30 747 O 73.7538 -2.68132 -0.189396 0
M  V30 748 C 72.0248 -2.73704 2.29828 0
M  V30 749 S 73.5838 -3.63519 2.45763 0
M  V30 750 H 70.4018 -0.520482 0.484375 0
M  V30 751 H 73.0038 -0.878963 1.74627 0
M  V30 752 H 71.7078 -2.42552 3.31054 0
M  V30 753 H 71.2388 -3.4286 1.929 0
M  V30 754 H 73.2538 -4.66712 1.68505 0
M  V30 755 N 72.4269 -1.23603 -0.977757 0
M  V30 756 C 73.3899 -1.02069 -2.05218 0
M  V30 757 C 74.3899 0.0184305 -1.60789 0
M  V30 758 O 75.5799 -0.221569 -1.72785 0
M  V30 759 C 72.7119 -0.544926 -3.36517 0
M  V30 760 H 73.9049 -1.9742 -2.25755 0
M  V30 761 H 71.4579 -1.05684 -1.15155 0
M  V30 762 H 72.1929 0.412241 -3.21669 0
M  V30 763 H 71.9779 -1.2948 -3.70105 0
M  V30 764 H 73.4679 -0.414985 -4.15533 0
M  V30 765 N 73.905 1.17692 -1.04816 0
M  V30 766 C 74.868 2.19787 -0.650117 0
M  V30 767 C 75.868 1.58044 0.296427 0
M  V30 768 O 77.058 1.74012 0.0808097 0
M  V30 769 C 74.19 3.40869 0.0456987 0
M  V30 770 H 75.383 2.56516 -1.5537 0
M  V30 771 H 72.936 1.31708 -0.841594 0
M  V30 772 H 73.671 3.09681 0.962726 0
M  V30 773 H 73.456 3.86928 -0.634727 0
M  V30 774 H 74.946 4.16445 0.310432 0
M  V30 775 N 75.3831 0.828654 1.34056 0
M  V30 776 C 76.3301 0.252567 2.29414 0
M  V30 777 C 77.3001 -0.62588 1.53857 0
M  V30 778 O 78.4851 -0.566312 1.82202 0
M  V30 779 C 75.6251 -0.574831 3.40279 0
M  V30 780 C 74.7381 0.326499 4.30764 0
M  V30 781 C 73.8731 -0.511016 5.28736 0
M  V30 782 C 72.9121 0.389342 6.1086 0
M  V30 783 N 72.0491 -0.409439 7.00905 0
M  V30 784 H 76.8891 1.07108 2.78086 0
M  V30 785 H 74.4261 0.539677 1.36843 0
M  V30 786 H 76.3841 -1.06992 4.03248 0
M  V30 787 H 75.0141 -1.35841 2.92826 0
M  V30 788 H 74.0661 0.939837 3.68607 0
M  V30 789 H 75.3781 1.01857 4.88289 0
M  V30 790 H 74.5321 -1.07035 5.97184 0
M  V30 791 H 73.2711 -1.23657 4.71763 0
M  V30 792 H 72.2761 0.960769 5.4134 0
M  V30 793 H 73.5011 1.1131 6.69916 0
M  V30 794 H 71.4471 -1.11856 6.46393 0
M  V30 795 H 71.3641 0.224126 7.55668 0
M  V30 796 H 72.6321 -0.951336 7.73673 0
M  V30 797 N 76.8612 -1.46375 0.584142 0
M  V30 798 C 78.1012 -2.0427 0.0729695 0
M  V30 799 C 78.4652 -1.44563 -1.26355 0
M  V30 800 O 79.6662 -1.93667 -1.86405 0
M  V30 801 C 77.9372 -3.57399 0.00967464 0
M  V30 802 S 79.4962 -4.36551 -0.443714 0
M  V30 803 H 76.3142 -0.709975 0.0381673 0
M  V30 804 H 78.9162 -1.79398 0.776962 0
M  V30 805 H 77.6202 -3.98372 0.986319 0
M  V30 806 H 77.1512 -3.8681 -0.717044 0
M  V30 807 H 79.1662 -4.66237 -1.69816 0
M  V30 808 N 78.3393 -0.321999 -1.54275 0
M  V30 809 C 79.2493 0.553631 -2.27974 0
M  V30 810 C 80.2653 1.13054 -1.32268 0
M  V30 811 O 81.4413 1.15084 -1.6528 0
M  V30 812 C 78.5063 1.69927 -3.02201 0
M  V30 813 C 77.5673 1.15433 -4.1349 0
M  V30 814 C 76.8003 2.24537 -4.84168 0
M  V30 815 O 77.0233 3.44852 -4.5435 0
M  V30 816 O 75.9573 1.90044 -5.7111 0
M  V30 817 H 79.7833 -0.0448345 -3.03667 0
M  V30 818 H 77.3683 -0.0877418 -1.49142 0
M  V30 819 H 79.2503 2.3663 -3.48689 0
M  V30 820 H 77.9253 2.28395 -2.29385 0
M  V30 821 H 76.8323 0.452436 -3.71354 0
M  V30 822 H 78.1653 0.614805 -4.88345 0
M  V30 823 N 79.8174 1.5752 -0.0501392 0
M  V30 824 C 80.7274 2.14952 0.939827 0
M  V30 825 C 81.7434 1.10706 1.34239 0
M  V30 826 O 82.9194 1.42869 1.41952 0
M  V30 827 C 79.9844 2.68232 2.19665 0
M  V30 828 C 79.0454 3.87272 1.85253 0
M  V30 829 C 78.2784 4.38002 3.04943 0
M  V30 830 O 78.5014 3.87811 4.18281 0
M  V30 831 O 77.4354 5.29602 2.86017 0
M  V30 832 H 81.2614 2.9986 0.481392 0
M  V30 833 H 78.8464 1.4841 0.171699 0
M  V30 834 H 80.7284 3.02475 2.93406 0
M  V30 835 H 79.4034 1.86395 2.64648 0
M  V30 836 H 78.3104 3.5792 1.0883 0
M  V30 837 H 79.6434 4.70336 1.4507 0
M  V30 838 N 81.2955 -0.223234 1.56011 0
M  V30 839 C 82.5725 -0.972108 1.69733 0
M  V30 840 C 82.9525 -2.02485 0.59691 0
M  V30 841 O 82.3005 -2.25037 -0.396324 0
M  V30 842 C 82.5105 -1.58407 3.10979 0
M  V30 843 C 83.8585 -2.07696 3.70334 0
M  V30 844 O 84.8825 -1.68304 3.1393 0
M  V30 845 O 83.7415 -2.80096 4.69264 0
M  V30 846 H 80.8355 -0.453993 0.691245 0
M  V30 847 H 83.3815 -0.215149 1.68331 0
M  V30 848 H 82.1535 -0.823831 3.82529 0
M  V30 849 H 81.7765 -2.40661 3.16493 0
M  V30 850 N 82.7736 -1.49793 -0.48987 0
M  V30 851 C 83.6836 -1.70036 -1.61632 0
M  V30 852 C 84.6996 -0.583102 -1.63939 0
M  V30 853 O 85.8756 -0.859169 -1.82154 0
M  V30 854 C 82.9406 -1.77277 -2.97949 0
M  V30 855 C 82.0016 -3.00918 -3.06181 0
M  V30 856 C 81.2346 -3.07804 -4.35996 0
M  V30 857 O 81.4576 -2.21982 -5.25433 0
M  V30 858 O 80.3916 -4.00369 -4.49431 0
M  V30 859 H 84.2176 -2.65486 -1.47482 0
M  V30 860 H 81.8026 -1.33666 -0.667362 0
M  V30 861 H 83.6846 -1.84329 -3.78947 0
M  V30 862 H 82.3596 -0.850076 -3.12339 0
M  V30 863 H 81.2666 -2.99377 -2.2433 0
M  V30 864 H 82.5996 -3.92704 -2.96723 0
M  V30 865 N 84.2517 0.741722 -1.39055 0
M  V30 866 C 85.1617 1.88621 -1.39496 0
M  V30 867 C 86.1777 1.71557 -0.290578 0
M  V30 868 O 87.3537 1.94275 -0.530954 0
M  V30 869 C 84.4187 3.24134 -1.23037 0
M  V30 870 C 83.4797 3.5364 -2.43387 0
M  V30 871 C 82.7127 4.82687 -2.27703 0
M  V30 872 O 82.9357 5.55922 -1.27696 0
M  V30 873 O 81.8697 5.1194 -3.16545 0
M  V30 874 H 85.6957 1.91203 -2.35956 0
M  V30 875 H 83.2807 0.888625 -1.20099 0
M  V30 876 H 85.1627 4.0513 -1.15964 0
M  V30 877 H 83.8377 3.22337 -0.296691 0
M  V30 878 H 82.7447 2.72758 -2.56035 0
M  V30 879 H 84.0777 3.60209 -3.35425 0
M  V30 880 N 85.7298 1.2412 0.971189 0
M  V30 881 C 86.9768 1.07881 1.71371 0
M  V30 882 C 87.3048 -0.382901 1.90694 0
M  V30 883 O 86.5598 -1.29945 1.46331 0
M  V30 884 C 86.8588 1.75983 3.11071 0
M  V30 885 C 86.5248 3.25909 3.11599 0
M  V30 886 C 85.1868 3.66813 3.11451 0
M  V30 887 C 87.5388 4.21771 3.062 0
M  V30 888 C 84.8668 5.02021 3.03631 0
M  V30 889 C 87.2188 5.56982 2.99923 0
M  V30 890 C 85.8828 5.97237 2.98102 0
M  V30 891 H 85.1528 0.394764 0.62709 0
M  V30 892 H 87.7998 1.54176 1.13587 0
M  V30 893 H 86.1048 1.22072 3.72298 0
M  V30 894 H 87.8018 1.60887 3.6731 0
M  V30 895 H 84.3918 2.93353 3.12477 0
M  V30 896 H 88.5758 3.91172 3.05447 0
M  V30 897 H 83.8318 5.32411 3.0058 0
M  V30 898 H 88.0058 6.30969 2.94704 0
M  V30 899 H 85.6328 7.01967 2.91798 0
M  V30 900 N 87.2079 -1.17134 1.05439 0
M  V30 901 C 88.4359 -1.91372 0.786414 0
M  V30 902 C 88.8509 -1.76955 -0.658202 0
M  V30 903 O 88.2079 -1.10838 -1.44987 0
M  V30 904 C 88.2589 -3.42356 1.1608 0
M  V30 905 O 87.9799 -3.56332 2.54871 0
M  V30 906 C 89.4809 -4.33663 0.919322 0
M  V30 907 H 86.7009 -0.607118 0.285743 0
M  V30 908 H 89.2449 -1.48525 1.40572 0
M  V30 909 H 87.3999 -3.82939 0.586191 0
M  V30 910 H 87.8139 -4.49896 2.69618 0
M  V30 911 H 89.2879 -5.38099 1.231 0
M  V30 912 H 89.7649 -4.38959 -0.145359 0
M  V30 913 H 90.3709 -3.98796 1.47789 0
M  V30 914 N 88.686 -0.835752 -1.33615 0
M  V30 915 C 89.926 -0.43599 -1.99696 0
M  V30 916 C 90.29 0.98557 -1.64774 0
M  V30 917 O 91.491 1.48889 -2.23798 0
M  V30 918 C 89.762 -0.646721 -3.515 0
M  V30 919 S 91.321 -0.341715 -4.37467 0
M  V30 920 H 88.139 -0.164136 -0.691795 0
M  V30 921 H 90.741 -1.08436 -1.62671 0
M  V30 922 H 89.445 -1.68077 -3.74404 0
M  V30 923 H 88.976 0.0159173 -3.93397 0
M  V30 924 H 90.991 0.839708 -4.89043 0
M  V30 925 N 90.1641 1.46063 -0.591896 0
M  V30 926 C 91.5801 1.57561 -0.254288 0
M  V30 927 C 91.7801 1.58565 1.24336 0
M  V30 928 O 90.8361 1.50753 2.02558 0
M  V30 929 C 92.1491 2.86549 -0.911611 0
M  V30 930 C 93.6971 3.00197 -0.886059 0
M  V30 931 C 94.1721 4.31933 -1.5231 0
M  V30 932 N 95.6631 4.38654 -1.48786 0
M  V30 933 C 96.3981 5.39222 -1.95006 0
M  V30 934 N 95.8941 6.46414 -2.49241 0
M  V30 935 N 97.6871 5.3048 -1.85868 0
M  V30 936 H 89.8381 1.43655 -1.56451 0
M  V30 937 H 92.1011 0.68583 -0.654478 0
M  V30 938 H 91.8071 2.91651 -1.96551 0
M  V30 939 H 91.6811 3.74794 -0.425368 0
M  V30 940 H 94.0681 2.9467 0.159246 0
M  V30 941 H 94.1491 2.13403 -1.41041 0
M  V30 942 H 93.7931 4.38217 -2.56765 0
M  V30 943 H 93.7231 5.17516 -0.973891 0
M  V30 944 H 96.2141 3.61793 -1.09151 0
M  V30 945 H 96.5271 7.19376 -2.82344 0
M  V30 946 H 94.8721 6.47208 -2.53272 0
M  V30 947 H 98.0631 4.45643 -1.43248 0
M  V30 948 H 98.2361 6.08711 -2.22204 0
M  V30 949 N 91.6422 0.330177 1.54103 0
M  V30 950 C 92.6052 -0.520144 2.2322 0
M  V30 951 C 93.6052 -1.03828 1.22786 0
M  V30 952 O 94.7952 -0.929652 1.4732 0
M  V30 953 C 91.9272 -1.72317 2.94142 0
M  V30 954 H 93.1202 0.0841605 2.99782 0
M  V30 955 H 90.6732 0.0813433 1.56088 0
M  V30 956 H 91.4082 -2.36653 2.21734 0
M  V30 957 H 91.1932 -1.35898 3.67796 0
M  V30 958 H 92.6832 -2.3266 3.46784 0
M  V30 959 N 93.1203 -1.57491 0.0584922 0
M  V30 960 C 94.3673 -1.92978 -0.613648 0
M  V30 961 C 94.6953 -0.937461 -1.70417 0
M  V30 962 O 93.9503 0.049078 -1.95638 0
M  V30 963 C 94.2493 -3.3513 -1.24188 0
M  V30 964 C 93.9153 -4.50037 -0.278826 0
M  V30 965 C 92.5773 -4.81198 -0.0138447 0
M  V30 966 C 94.9293 -5.19807 0.380777 0
M  V30 967 C 92.2573 -5.79473 0.918052 0
M  V30 968 C 94.6093 -6.19079 1.30091 0
M  V30 969 C 93.2733 -6.48665 1.57449 0
M  V30 970 H 92.5433 -0.706157 -0.22455 0
M  V30 971 H 95.1903 -1.91082 0.126533 0
M  V30 972 H 93.4953 -3.33429 -2.05749 0
M  V30 973 H 95.1923 -3.59871 -1.769 0
M  V30 974 H 91.7823 -4.25726 -0.495539 0
M  V30 975 H 95.9663 -4.95939 0.189158 0
M  V30 976 H 91.2223 -6.00727 1.1374 0
M  V30 977 H 95.3963 -6.7225 1.81804 0
M  V30 978 H 93.0233 -7.24628 2.29822 0
M  V30 979 N 94.5984 0.214957 -1.56127 0
M  V30 980 C 95.5304 1.29004 -1.89448 0
M  V30 981 C 96.5434 1.42716 -0.783326 0
M  V30 982 O 97.7324 1.43496 -1.06166 0
M  V30 983 C 94.8324 2.66482 -2.09381 0
M  V30 984 C 94.0054 2.74633 -3.40434 0
M  V30 985 C 93.0644 3.9317 -3.49719 0
M  V30 986 O 92.0904 3.812 -4.227 0
M  V30 987 N 93.2924 5.07765 -2.81346 0
M  V30 988 H 96.0574 1.00743 -2.82261 0
M  V30 989 H 93.6184 0.40497 -1.56753 0
M  V30 990 H 95.6104 3.44173 -2.12901 0
M  V30 991 H 94.1804 2.87314 -1.23163 0
M  V30 992 H 93.4004 1.83368 -3.48955 0
M  V30 993 H 94.6884 2.77054 -4.26754 0
M  V30 994 H 94.0864 5.20386 -2.21843 0
M  V30 995 H 92.6434 5.83474 -2.90519 0
M  V30 996 N 96.0765 1.50051 0.48192 0
M  V30 997 C 97.3065 1.63999 1.2565 0
M  V30 998 C 97.7145 0.318288 1.86504 0
M  V30 999 O 97.0575 -0.708534 1.69486 0
M  V30 1000 C 97.1195 2.66504 2.4128 0
M  V30 1001 C 96.7835 4.10352 2.01148 0
M  V30 1002 C 97.7805 4.96562 1.54021 0
M  V30 1003 C 95.4655 4.56203 2.10199 0
M  V30 1004 C 97.4595 6.26668 1.16473 0
M  V30 1005 C 95.1465 5.86318 1.72264 0
M  V30 1006 C 96.1445 6.71375 1.25477 0
M  V30 1007 O 95.8325 7.99062 0.880626 0
M  V30 1008 H 95.5645 0.55456 0.386574 0
M  V30 1009 H 98.1185 1.96954 0.582944 0
M  V30 1010 H 96.3485 2.28769 3.11772 0
M  V30 1011 H 98.0375 2.69783 3.03268 0
M  V30 1012 H 98.8035 4.62358 1.46458 0
M  V30 1013 H 94.6825 3.90152 2.45566 0
M  V30 1014 H 98.2265 6.93011 0.798841 0
M  V30 1015 H 94.1235 6.20046 1.79482 0
M  V30 1016 H 94.8915 8.12239 1.01043 0
M  V30 1017 N 97.5546 -0.734337 1.39446 0
M  V30 1018 C 98.5046 -1.83949 1.34709 0
M  V30 1019 C 99.4886 -1.59279 0.227851 0
M  V30 1020 O 100.681 -1.70771 0.465438 0
M  V30 1021 C 97.8096 -3.21884 1.19356 0
M  V30 1022 C 96.8956 -3.52381 2.35984 0
M  V30 1023 N 97.2866 -3.53811 3.61457 0
M  V30 1024 C 95.5846 -3.82747 2.28956 0
M  V30 1025 C 96.2856 -3.82122 4.38586 0
M  V30 1026 N 95.2616 -3.9993 3.68181 0
M  V30 1027 H 99.0636 -1.83361 2.29687 0
M  V30 1028 H 96.5776 -0.932609 1.32952 0
M  V30 1029 H 98.5746 -4.00998 1.14046 0
M  V30 1030 H 97.2346 -3.23711 0.253295 0
M  V30 1031 H 98.2456 -3.35107 3.94872 0
M  V30 1032 H 94.9226 -3.92175 1.43194 0
M  V30 1033 H 96.3126 -3.89691 5.47349 0
M  V30 1034 N 99.0327 -1.24633 -0.964593 0
M  V30 1035 C 100.258 -1.11596 -1.74818 0
M  V30 1036 C 100.683 0.32723 -1.85232 0
M  V30 1037 O 100.041 1.23695 -1.32549 0
M  V30 1038 C 100.089 -1.76397 -3.1451 0
M  V30 1039 O 99.1927 -1.03685 -3.99153 0
M  V30 1040 H 98.5337 -0.390196 -0.537255 0
M  V30 1041 H 101.064 -1.65002 -1.20977 0
M  V30 1042 H 101.074 -1.8228 -3.65018 0
M  V30 1043 H 99.7487 -2.81401 -3.06246 0
M  V30 1044 H 98.3257 -1.05611 -3.57632 0
M  V30 1045 N 100.511 1.16574 -1.06058 0
M  V30 1046 C 101.458 2.20883 -0.669263 0
M  V30 1047 C 102.428 1.62729 0.332918 0
M  V30 1048 O 103.613 1.895 0.222346 0
M  V30 1049 C 100.753 3.45049 -0.0593572 0
M  V30 1050 C 99.8658 4.17458 -1.11143 0
M  V30 1051 C 99.0008 5.29135 -0.467916 0
M  V30 1052 C 98.0398 5.93343 -1.50369 0
M  V30 1053 N 97.1768 6.96516 -0.883706 0
M  V30 1054 H 102.017 2.53709 -1.5632 0
M  V30 1055 H 99.5538 1.24616 -0.781625 0
M  V30 1056 H 101.512 4.16033 0.311771 0
M  V30 1057 H 100.142 3.12781 0.797992 0
M  V30 1058 H 99.1938 3.45101 -1.60029 0
M  V30 1059 H 100.506 4.61307 -1.89731 0
M  V30 1060 H 99.6598 6.06684 -0.0436871 0
M  V30 1061 H 98.3988 4.86443 0.349864 0
M  V30 1062 H 97.4038 5.14517 -1.93784 0
M  V30 1063 H 98.6288 6.38114 -2.32352 0
M  V30 1064 H 96.5748 6.55943 -0.086595 0
M  V30 1065 H 96.4918 7.38723 -1.607 0
M  V30 1066 H 97.7598 7.77993 -0.484543 0
M  V30 1067 N 101.989 0.842826 1.3317 0
M  V30 1068 C 102.899 0.281444 2.32906 0
M  V30 1069 C 103.915 -0.594587 1.63526 0
M  V30 1070 O 105.091 -0.49777 1.95152 0
M  V30 1071 C 102.156 -0.530929 3.42611 0
M  V30 1072 C 101.217 0.369843 4.27704 0
M  V30 1073 C 100.45 -0.403853 5.3217 0
M  V30 1074 O 100.673 -1.63513 5.46461 0
M  V30 1075 O 99.6069 0.224199 6.01482 0
M  V30 1076 H 103.433 1.10744 2.82789 0
M  V30 1077 H 101.018 0.60545 1.36582 0
M  V30 1078 H 102.9 -0.992437 4.09547 0
M  V30 1079 H 101.575 -1.33392 2.94938 0
M  V30 1080 H 100.482 0.879275 3.6362 0
M  V30 1081 H 101.815 1.13771 4.78871 0
M  V30 1082 N 103.467 -1.45747 0.599634 0
M  V30 1083 C 104.399 -2.28628 -0.161879 0
M  V30 1084 C 105.412 -1.39494 -0.839367 0
M  V30 1085 O 106.601 -1.63941 -0.706089 0
M  V30 1086 C 103.701 -3.15014 -1.24976 0
M  V30 1087 C 102.874 -4.32378 -0.660935 0
M  V30 1088 C 101.933 -5.00033 -1.63869 0
M  V30 1089 O 100.959 -5.57085 -1.1681 0
M  V30 1090 N 102.161 -4.98589 -2.97303 0
M  V30 1091 H 104.926 -2.94624 0.549265 0
M  V30 1092 H 102.487 -1.55847 0.438565 0
M  V30 1093 H 104.479 -3.5714 -1.9035 0
M  V30 1094 H 103.049 -2.5098 -1.86354 0
M  V30 1095 H 102.269 -3.9383 0.170688 0
M  V30 1096 H 103.557 -5.08197 -0.247619 0
M  V30 1097 H 102.955 -4.53514 -3.38145 0
M  V30 1098 H 101.512 -5.44603 -3.58121 0
M  V30 1099 N 104.945 -0.338344 -1.53925 0
M  V30 1100 C 105.877 0.555117 -2.22376 0
M  V30 1101 C 106.89 1.06812 -1.22862 0
M  V30 1102 O 108.079 0.979163 -1.49247 0
M  V30 1103 C 105.179 1.77609 -2.88631 0
M  V30 1104 C 104.352 1.39927 -4.14414 0
M  V30 1105 C 103.411 2.47936 -4.64127 0
M  V30 1106 O 102.437 2.11461 -5.28463 0
M  V30 1107 N 103.639 3.79107 -4.39612 0
M  V30 1108 H 106.404 -0.0310778 -2.99684 0
M  V30 1109 H 103.965 -0.162226 -1.61085 0
M  V30 1110 H 105.957 2.49287 -3.18807 0
M  V30 1111 H 104.527 2.26978 -2.14941 0
M  V30 1112 H 103.747 0.513481 -3.90841 0
M  V30 1113 H 105.035 1.12341 -4.96243 0
M  V30 1114 H 104.433 4.11531 -3.88148 0
M  V30 1115 H 102.99 4.4697 -4.74406 0
M  V30 1116 N 106.423 1.57458 -0.0668435 0
M  V30 1117 C 107.663 1.95175 0.607116 0
M  V30 1118 C 108.027 0.946039 1.67075 0
M  V30 1119 O 109.228 1.2107 2.39991 0
M  V30 1120 C 107.499 3.37582 1.17358 0
M  V30 1121 S 109.058 3.97271 1.86336 0
M  V30 1122 H 105.876 0.682604 0.19893 0
M  V30 1123 H 108.478 1.95002 -0.139519 0
M  V30 1124 H 107.182 4.08566 0.387553 0
M  V30 1125 H 106.713 3.41288 1.95669 0
M  V30 1126 H 108.728 3.83772 3.14537 0
M  V30 1127 N 107.901 -0.206675 1.56239 0
M  V30 1128 C 109.147 -0.930218 1.80208 0
M  V30 1129 C 109.48 -1.83387 0.638981 0
M  V30 1130 O 108.755 -1.91119 -0.361066 0
M  V30 1131 C 109.038 -1.75641 3.1436 0
M  V30 1132 C 108.891 -0.878257 4.41142 0
M  V30 1133 C 110.21 -2.73129 3.45092 0
M  V30 1134 H 107.329 -0.336742 0.655571 0
M  V30 1135 H 109.971 -0.198222 1.88963 0
M  V30 1136 H 108.121 -2.38048 3.07027 0
M  V30 1137 H 109.793 -0.269787 4.6051 0
M  V30 1138 H 108.036 -0.184385 4.33408 0
M  V30 1139 H 108.707 -1.49106 5.3148 0
M  V30 1140 H 111.183 -2.20856 3.52649 0
M  V30 1141 H 110.059 -3.28028 4.40101 0
M  V30 1142 H 110.32 -3.51606 2.68003 0
M  V30 1143 N 109.379 -1.50304 -0.473955 0
M  V30 1144 C 110.628 -1.60392 -1.22301 0
M  V30 1145 C 110.941 -0.308411 -1.93153 0
M  V30 1146 O 112.147 -0.288156 -2.69966 0
M  V30 1147 C 110.603 -2.83109 -2.2221 0
M  V30 1148 C 110.211 -4.19524 -1.57173 0
M  V30 1149 C 111.955 -3.0254 -2.97775 0
M  V30 1150 C 109.862 -5.33431 -2.55353 0
M  V30 1151 H 108.792 -0.597286 -0.460179 0
M  V30 1152 H 111.443 -1.76731 -0.493803 0
M  V30 1153 H 109.825 -2.60322 -2.9841 0
M  V30 1154 H 110.999 -4.52554 -0.867824 0
M  V30 1155 H 109.314 -4.05674 -0.939002 0
M  V30 1156 H 111.911 -3.84811 -3.71248 0
M  V30 1157 H 112.254 -2.14154 -3.56992 0
M  V30 1158 H 112.787 -3.25494 -2.28688 0
M  V30 1159 H 109.526 -6.23962 -2.00878 0
M  V30 1160 H 109.046 -5.04823 -3.23904 0
M  V30 1161 H 110.725 -5.63887 -3.17239 0
M  V30 1162 N 110.857 0.726932 -1.39834 0
M  V30 1163 C 111.79 1.8501 -1.33592 0
M  V30 1164 C 112.768 1.61262 -0.208191 0
M  V30 1165 O 113.952 1.84422 -0.389981 0
M  V30 1166 C 111.079 3.21143 -1.07633 0
M  V30 1167 C 110.125 3.63737 -2.22705 0
M  V30 1168 S 110.958 3.72167 -3.85035 0
M  V30 1169 C 112.114 5.11077 -3.61318 0
M  V30 1170 H 112.347 1.90022 -2.28646 0
M  V30 1171 H 109.88 0.892595 -1.25985 0
M  V30 1172 H 111.838 3.99747 -0.933415 0
M  V30 1173 H 110.499 3.13776 -0.142526 0
M  V30 1174 H 109.692 4.62551 -2.00155 0
M  V30 1175 H 109.294 2.9236 -2.33242 0
M  V30 1176 H 111.586 5.97656 -3.19083 0
M  V30 1177 H 112.529 5.38658 -4.59623 0
M  V30 1178 H 112.937 4.81135 -2.95245 0
M  V30 1179 N 112.336 1.25143 0.95797 0
M  V30 1180 C 113.299 1.05321 2.03569 0
M  V30 1181 C 114.299 0.007152 1.60798 0
M  V30 1182 O 115.489 0.24903 1.72411 0
M  V30 1183 C 112.621 0.598394 3.35607 0
M  V30 1184 H 113.814 2.00986 2.22586 0
M  V30 1185 H 111.367 1.07502 1.13459 0
M  V30 1186 H 112.102 -0.361014 3.22284 0
M  V30 1187 H 111.887 1.35351 3.67998 0
M  V30 1188 H 113.377 0.48104 4.1482 0
M  V30 1189 N 113.814 -1.1601 1.06675 0
M  V30 1190 C 114.724 -2.24156 0.692179 0
M  V30 1191 C 115.74 -1.71507 -0.293513 0
M  V30 1192 O 116.916 -2.009 -0.141861 0
M  V30 1193 C 113.981 -3.46587 0.0884131 0
M  V30 1194 C 113.042 -4.14257 1.12646 0
M  V30 1195 C 112.275 -5.30844 0.551416 0
M  V30 1196 O 112.498 -5.66858 -0.634656 0
M  V30 1197 O 111.432 -5.87848 1.29298 0
M  V30 1198 H 115.258 -2.58513 1.59388 0
M  V30 1199 H 112.843 -1.23599 0.83926 0
M  V30 1200 H 114.725 -4.20679 -0.246361 0
M  V30 1201 H 113.4 -3.13994 -0.786712 0
M  V30 1202 H 112.307 -3.42118 1.51348 0
M  V30 1203 H 113.64 -4.50914 1.97325 0
M  V30 1204 N 115.292 -0.849877 -1.32721 0
M  V30 1205 C 116.24 -0.279745 -2.30912 0
M  V30 1206 C 117.234 0.594278 -1.58634 0
M  V30 1207 O 118.44 0.482613 -1.73409 0
M  V30 1208 H 114.815 -0.0717521 -0.748569 0
M  V30 1209 H 116.786 -1.12222 -2.76494 0
M  V30 1210 C 115.535 0.521108 -3.43773 0
M  V30 1211 H 114.858 -0.142141 -3.99547 0
M  V30 1212 H 116.298 0.885693 -4.14646 0
M  V30 1213 C 114.757 1.70442 -2.90605 0
M  V30 1214 O 115.287 2.8034 -2.87702 0
M  V30 1215 N 113.493 1.52991 -2.47067 0
M  V30 1216 H 113.04 0.635914 -2.49628 0
M  V30 1217 H 112.998 2.32311 -2.11847 0
M  V30 1218 N 116.77 1.45427 -0.607355 0
M  V30 1219 C 118.186 1.57283 -0.270985 0
M  V30 1220 C 118.386 1.59875 1.22647 0
M  V30 1221 O 117.442 1.52893 2.00948 0
M  V30 1222 C 118.755 2.85566 -0.941952 0
M  V30 1223 C 120.303 2.9924 -0.917849 0
M  V30 1224 C 120.778 4.30293 -1.56882 0
M  V30 1225 N 122.269 4.37051 -1.5343 0
M  V30 1226 C 123.004 5.37123 -2.00715 0
M  V30 1227 N 122.5 6.43734 -2.56084 0
M  V30 1228 N 124.293 5.28479 -1.91484 0
M  V30 1229 H 116.444 1.41988 -1.57966 0
M  V30 1230 H 118.707 0.67885 -0.661715 0
M  V30 1231 H 118.413 2.8955 -1.99633 0
M  V30 1232 H 118.287 3.74322 -0.465096 0
M  V30 1233 H 120.674 2.94822 0.127984 0
M  V30 1234 H 120.755 2.11895 -1.43297 0
M  V30 1235 H 120.399 4.35469 -2.61398 0
M  V30 1236 H 120.329 5.16454 -1.02873 0
M  V30 1237 H 122.82 3.60615 -1.12982 0
M  V30 1238 H 123.133 7.16341 -2.89958 0
M  V30 1239 H 121.478 6.44485 -2.60122 0
M  V30 1240 H 124.669 4.44098 -1.47967 0
M  V30 1241 H 124.842 6.0632 -2.28648 0
M  V30 1242 N 118.248 0.346503 1.53744 0
M  V30 1243 C 119.195 -0.508914 2.25119 0
M  V30 1244 C 120.165 -1.09315 1.25058 0
M  V30 1245 O 121.35 -1.12921 1.53797 0
M  V30 1246 C 118.49 -1.65246 3.02965 0
M  V30 1247 C 117.603 -1.09525 4.17886 0
M  V30 1248 C 116.738 -2.20634 4.83212 0
M  V30 1249 C 115.777 -1.62279 5.90196 0
M  V30 1250 N 114.914 -2.67143 6.49291 0
M  V30 1251 H 119.754 0.106283 2.9781 0
M  V30 1252 H 117.291 0.0642227 1.4696 0
M  V30 1253 H 119.249 -2.32574 3.4636 0
M  V30 1254 H 117.879 -2.2386 2.32565 0
M  V30 1255 H 116.931 -0.312818 3.79112 0
M  V30 1256 H 118.243 -0.628444 4.94825 0
M  V30 1257 H 117.397 -2.95821 5.29693 0
M  V30 1258 H 116.136 -2.70659 4.05703 0
M  V30 1259 H 115.141 -0.855989 5.43096 0
M  V30 1260 H 116.366 -1.13102 6.69615 0
M  V30 1261 H 114.312 -3.16417 5.74645 0
M  V30 1262 H 114.229 -2.25093 7.21713 0
M  V30 1263 H 115.497 -3.4209 7.00425 0
M  V30 1264 N 119.726 -1.57421 0.075193 0
M  V30 1265 C 120.951 -1.98364 -0.605515 0
M  V30 1266 C 121.376 -0.953383 -1.62149 0
M  V30 1267 O 120.734 0.0806053 -1.81121 0
M  V30 1268 C 120.782 -3.38332 -1.24756 0
M  V30 1269 O 119.886 -3.37959 -2.36342 0
M  V30 1270 H 119.227 -0.645553 -0.155428 0
M  V30 1271 H 121.757 -2.04044 0.150714 0
M  V30 1272 H 121.767 -3.75591 -1.5936 0
M  V30 1273 H 120.442 -4.12846 -0.503129 0
M  V30 1274 H 119.019 -3.12474 -2.03506 0
M  V30 1275 N 121.204 0.198386 -1.56346 0
M  V30 1276 C 122.429 0.939682 -1.84891 0
M  V30 1277 C 122.854 1.76202 -0.658369 0
M  V30 1278 O 122.212 1.76993 0.392851 0
M  V30 1279 C 122.26 1.81428 -3.11635 0
M  V30 1280 O 121.364 2.91265 -2.91956 0
M  V30 1281 H 120.705 0.264807 -0.608912 0
M  V30 1282 H 123.235 0.204695 -2.03573 0
M  V30 1283 H 123.245 2.21958 -3.42343 0
M  V30 1284 H 121.92 1.21004 -3.97908 0
M  V30 1285 H 120.497 2.54514 -2.72538 0
M  V30 1286 N 122.682 1.50554 0.465978 0
M  V30 1287 C 123.931 1.61038 1.21448 0
M  V30 1288 C 124.244 0.31865 1.92987 0
M  V30 1289 O 125.45 0.302469 2.6981 0
M  V30 1290 C 123.906 2.84283 2.20706 0
M  V30 1291 C 123.514 4.20352 1.54946 0
M  V30 1292 C 125.258 3.04115 2.96166 0
M  V30 1293 C 123.165 5.34778 2.5252 0
M  V30 1294 H 122.095 0.599718 0.457005 0
M  V30 1295 H 124.746 1.7699 0.484424 0
M  V30 1296 H 123.128 2.61901 2.97025 0
M  V30 1297 H 124.302 4.53008 0.843811 0
M  V30 1298 H 122.617 4.06167 0.917475 0
M  V30 1299 H 125.214 3.86774 3.69202 0
M  V30 1300 H 125.557 2.16045 3.55852 0
M  V30 1301 H 126.09 3.26702 2.26959 0
M  V30 1302 H 122.829 6.25018 1.97566 0
M  V30 1303 H 122.349 5.06534 3.21222 0
M  V30 1304 H 124.028 5.65561 3.14245 0
M  V30 1305 N 124.16 -0.719506 1.40217 0
M  V30 1306 C 125.409 -1.47486 1.37589 0
M  V30 1307 C 125.722 -1.9559 -0.0201568 0
M  V30 1308 O 126.928 -2.70973 -0.169049 0
M  V30 1309 C 125.384 -2.66575 2.41796 0
M  V30 1310 C 124.992 -2.25358 3.87192 0
M  V30 1311 C 126.736 -3.4433 2.48269 0
M  V30 1312 C 124.643 -3.41262 4.83005 0
M  V30 1313 H 123.573 -0.553901 0.511576 0
M  V30 1314 H 126.224 -0.783427 1.65936 0
M  V30 1315 H 124.606 -3.3787 2.06543 0
M  V30 1316 H 125.78 -1.61509 4.31569 0
M  V30 1317 H 124.095 -1.60657 3.84159 0
M  V30 1318 H 126.692 -4.30569 3.17041 0
M  V30 1319 H 127.035 -3.87872 1.51198 0
M  V30 1320 H 127.568 -2.80076 2.82493 0
M  V30 1321 H 124.307 -3.02755 5.81394 0
M  V30 1322 H 123.827 -4.0404 4.43297 0
M  V30 1323 H 125.506 -4.07383 5.02641 0
M  V30 1324 N 125.638 -1.25649 -0.95132 0
M  V30 1325 C 126.887 -1.09988 -1.69073 0
M  V30 1326 C 127.2 0.358355 -1.92289 0
M  V30 1327 O 128.406 0.635466 -2.63958 0
M  V30 1328 C 126.862 -1.92012 -3.044 0
M  V30 1329 C 126.47 -3.42347 -2.88968 0
M  V30 1330 C 128.214 -1.8493 -3.82101 0
M  V30 1331 C 126.121 -4.16655 -4.19705 0
M  V30 1332 H 125.051 -0.407993 -0.63408 0
M  V30 1333 H 127.702 -1.49873 -1.05879 0
M  V30 1334 H 126.084 -1.44952 -3.68517 0
M  V30 1335 H 127.258 -3.97104 -2.33762 0
M  V30 1336 H 125.573 -3.50557 -2.24719 0
M  V30 1337 H 128.17 -2.37739 -4.78941 0
M  V30 1338 H 128.513 -0.817883 -4.08187 0
M  V30 1339 H 129.046 -2.29758 -3.2474 0
M  V30 1340 H 125.785 -5.20224 -3.98807 0
M  V30 1341 H 125.305 -3.66681 -4.74663 0
M  V30 1342 H 126.984 -4.24551 -4.88227 0
M  V30 1343 N 127.117 1.15442 -1.07289 0
M  V30 1344 C 128.533 1.38201 -0.798288 0
M  V30 1345 C 128.733 1.92429 0.597769 0
M  V30 1346 O 127.789 2.12962 1.3566 0
M  V30 1347 C 129.102 2.35357 -1.87156 0
M  V30 1348 C 130.65 2.49021 -1.89624 0
M  V30 1349 C 131.125 3.49468 -2.96034 0
M  V30 1350 N 132.616 3.57003 -2.95132 0
M  V30 1351 C 133.351 4.34543 -3.74112 0
M  V30 1352 N 132.847 5.15421 -4.6294 0
M  V30 1353 N 134.64 4.29625 -3.62462 0
M  V30 1354 H 126.791 0.78584 -1.97328 0
M  V30 1355 H 129.054 0.408065 -0.855679 0
M  V30 1356 H 128.76 2.02626 -2.87464 0
M  V30 1357 H 128.634 3.35129 -1.73114 0
M  V30 1358 H 131.021 2.81051 -0.899687 0
M  V30 1359 H 131.102 1.4925 -2.07745 0
M  V30 1360 H 130.746 3.18173 -3.95889 0
M  V30 1361 H 130.676 4.48992 -2.75161 0
M  V30 1362 H 133.167 2.99276 -2.30743 0
M  V30 1363 H 133.48 5.7183 -5.19837 0
M  V30 1364 H 131.825 5.14729 -4.66989 0
M  V30 1365 H 135.016 3.65505 -2.92444 0
M  V30 1366 H 135.189 4.89807 -4.24256 0
M  V30 1367 N 128.595 0.856903 1.32268 0
M  V30 1368 C 129.528 0.247937 2.26849 0
M  V30 1369 C 130.506 -0.615382 1.50505 0
M  V30 1370 O 131.69 -0.571689 1.79622 0
M  V30 1371 C 128.817 -0.650093 3.32403 0
M  V30 1372 C 127.863 0.140138 4.2627 0
M  V30 1373 S 128.696 1.51004 5.13769 0
M  V30 1374 C 129.852 0.61778 6.22844 0
M  V30 1375 H 130.085 1.04971 2.78152 0
M  V30 1376 H 127.618 0.654665 1.39834 0
M  V30 1377 H 129.576 -1.16256 3.93694 0
M  V30 1378 H 128.237 -1.4257 2.7988 0
M  V30 1379 H 127.43 -0.543945 5.01056 0
M  V30 1380 H 127.032 0.584267 3.69408 0
M  V30 1381 H 129.324 -0.177053 6.77269 0
M  V30 1382 H 130.267 1.33636 6.95375 0
M  V30 1383 H 130.675 0.191124 5.64176 0
M  V30 1384 N 130.073 -1.45103 0.615059 0
M  V30 1385 C 131.489 -1.57137 0.279322 0
M  V30 1386 C 131.689 -1.60523 -1.21797 0
M  V30 1387 O 130.745 -1.53956 -2.00134 0
M  V30 1388 C 132.058 -2.85062 0.957083 0
M  V30 1389 C 133.606 -2.98749 0.933706 0
M  V30 1390 C 134.081 -4.29455 1.59162 0
M  V30 1391 N 135.572 -4.36231 1.55746 0
M  V30 1392 C 136.307 -5.36051 2.0356 0
M  V30 1393 N 135.803 -6.42367 2.59494 0
M  V30 1394 N 137.596 -5.27456 1.94284 0
M  V30 1395 H 129.747 -1.41148 1.58717 0
M  V30 1396 H 132.01 -0.675331 0.665306 0
M  V30 1397 H 131.716 -2.88488 2.01166 0
M  V30 1398 H 131.59 -3.7407 0.48494 0
M  V30 1399 H 133.977 -2.94886 -0.112347 0
M  V30 1400 H 134.058 -2.11132 1.44419 0
M  V30 1401 H 133.702 -4.34077 2.63704 0
M  V30 1402 H 133.632 -5.15901 1.0561 0
M  V30 1403 H 136.123 -3.60011 1.14893 0
M  V30 1404 H 136.436 -7.14793 2.93752 0
M  V30 1405 H 134.781 -6.43097 2.63537 0
M  V30 1406 H 137.972 -4.43308 1.5032 0
M  V30 1407 H 138.145 -6.05099 2.3186 0
M  V30 1408 N 131.551 -0.354651 -1.53558 0
M  V30 1409 C 132.828 0.294281 -1.93374 0
M  V30 1410 C 133.208 1.67313 -1.28723 0
M  V30 1411 O 132.556 2.24179 -0.442247 0
M  V30 1412 C 132.766 0.355445 -3.47185 0
M  V30 1413 C 134.114 0.601007 -4.20325 0
M  V30 1414 O 135.138 0.437106 -3.53508 0
M  V30 1415 O 133.997 0.919322 -5.38712 0
M  V30 1416 H 131.091 0.174033 -0.808481 0
M  V30 1417 H 133.637 -0.406638 -1.64756 0
M  V30 1418 H 132.409 -0.611729 -3.86489 0
M  V30 1419 H 132.032 1.1027 -3.82003 0
M  V30 1420 N 133.029 1.57378 -0.0835403 0
M  V30 1421 C 134.275 1.94217 0.583733 0
M  V30 1422 C 134.608 0.964653 1.68547 0
M  V30 1423 O 133.883 -0.00422258 1.945 0
M  V30 1424 C 134.166 3.41253 1.14972 0
M  V30 1425 C 134.019 4.49768 0.0538277 0
M  V30 1426 C 135.338 3.89352 2.05166 0
M  V30 1427 H 132.457 0.706233 0.210724 0
M  V30 1428 H 135.099 1.89392 -0.1519 0
M  V30 1429 H 133.249 3.45496 1.77665 0
M  V30 1430 H 134.921 4.57641 -0.579851 0
M  V30 1431 H 133.164 4.29432 -0.614068 0
M  V30 1432 H 133.835 5.49817 0.490452 0
M  V30 1433 H 136.311 3.87189 1.52393 0
M  V30 1434 H 135.187 4.92822 2.41698 0
M  V30 1435 H 135.448 3.27973 2.96456 0
M  V30 1436 N 134.507 -0.190092 1.56449 0
M  V30 1437 C 135.753 -0.911052 1.81184 0
M  V30 1438 C 136.086 -1.82699 0.658396 0
M  V30 1439 O 135.361 -1.91491 -0.340775 0
M  V30 1440 C 135.644 -1.72297 3.16205 0
M  V30 1441 C 135.497 -0.831419 4.42049 0
M  V30 1442 C 136.816 -2.69454 3.47969 0
M  V30 1443 H 133.935 -0.32977 0.659106 0
M  V30 1444 H 136.577 -0.178169 1.89163 0
M  V30 1445 H 134.727 -2.34778 3.09534 0
M  V30 1446 H 136.399 -0.220929 4.60771 0
M  V30 1447 H 134.642 -0.138406 4.33579 0
M  V30 1448 H 135.313 -1.43461 5.33032 0
M  V30 1449 H 137.789 -2.17104 3.54972 0
M  V30 1450 H 136.665 -3.23342 4.43555 0
M  V30 1451 H 136.926 -3.48744 2.71717 0
M  V30 1452 N 135.985 -1.50799 -0.457987 0
M  V30 1453 C 136.915 -1.73553 -1.5621 0
M  V30 1454 C 137.896 -0.584774 -1.59732 0
M  V30 1455 O 139.081 -0.825314 -1.7579 0
M  V30 1456 C 136.211 -1.84169 -2.94447 0
M  V30 1457 C 135.165 -2.99461 -3.0579 0
M  V30 1458 C 134.491 -2.95235 -4.45803 0
M  V30 1459 C 135.791 -4.39766 -2.81786 0
M  V30 1460 H 137.485 -2.66 -1.37421 0
M  V30 1461 H 135.031 -1.28002 -0.659662 0
M  V30 1462 H 136.984 -1.98672 -3.71628 0
M  V30 1463 H 135.708 -0.883545 -3.14422 0
M  V30 1464 H 134.367 -2.8463 -2.31044 0
M  V30 1465 H 134.015 -1.97239 -4.62715 0
M  V30 1466 H 133.715 -3.72642 -4.54326 0
M  V30 1467 H 135.239 -3.11803 -5.24987 0
M  V30 1468 H 136.653 -4.55054 -3.4871 0
M  V30 1469 H 135.05 -5.18722 -3.0174 0
M  V30 1470 H 136.12 -4.51229 -1.7754 0
M  V30 1471 N 137.463 0.71206 -1.40597 0
M  V30 1472 C 138.71 1.47197 -1.39065 0
M  V30 1473 C 139.038 1.94499 0.00583891 0
M  V30 1474 O 138.293 1.68752 0.99102 0
M  V30 1475 C 138.592 2.71039 -2.32965 0
M  V30 1476 C 138.258 2.42484 -3.80148 0
M  V30 1477 C 136.92 2.34406 -4.20247 0
M  V30 1478 C 139.272 2.18598 -4.73143 0
M  V30 1479 C 136.6 2.00516 -5.51371 0
M  V30 1480 C 138.952 1.8622 -6.0457 0
M  V30 1481 C 137.616 1.76626 -6.43708 0
M  V30 1482 H 136.886 0.538634 -0.508876 0
M  V30 1483 H 139.533 0.815325 -1.73276 0
M  V30 1484 H 137.838 3.41558 -1.91951 0
M  V30 1485 H 139.535 3.29138 -2.29061 0
M  V30 1486 H 136.125 2.49659 -3.4838 0
M  V30 1487 H 140.309 2.23793 -4.42979 0
M  V30 1488 H 135.565 1.91628 -5.80593 0
M  V30 1489 H 139.739 1.66752 -6.76141 0
M  V30 1490 H 137.366 1.50133 -7.45228 0
M  V30 1491 N 138.941 1.26152 0.944643 0
M  V30 1492 C 139.851 1.09176 2.07648 0
M  V30 1493 C 140.867 0.0261935 1.7398 0
M  V30 1494 O 142.043 0.229208 2.00091 0
M  V30 1495 C 139.108 0.722915 3.39079 0
M  V30 1496 C 138.169 1.86752 3.86552 0
M  V30 1497 C 137.402 1.51617 5.11711 0
M  V30 1498 O 137.625 0.416331 5.68879 0
M  V30 1499 O 136.559 2.34975 5.54139 0
M  V30 1500 H 140.385 2.0412 2.24875 0
M  V30 1501 H 137.97 1.05182 1.061 0
M  V30 1502 H 139.852 0.529787 4.18056 0
M  V30 1503 H 138.527 -0.197159 3.23099 0
M  V30 1504 H 137.434 2.11558 3.08535 0
M  V30 1505 H 138.767 2.76719 4.07047 0
M  V30 1506 N 140.419 -1.14872 1.07899 0
M  V30 1507 C 141.366 -2.19791 0.704319 0
M  V30 1508 C 142.336 -1.63238 -0.306987 0
M  V30 1509 O 143.521 -1.8983 -0.192171 0
M  V30 1510 C 140.661 -3.44911 0.114244 0
M  V30 1511 C 139.774 -4.15637 1.1777 0
M  V30 1512 C 138.909 -5.28324 0.552037 0
M  V30 1513 C 137.948 -5.90875 1.59789 0
M  V30 1514 N 137.085 -6.95022 0.994404 0
M  V30 1515 H 141.925 -2.5119 1.60336 0
M  V30 1516 H 139.462 -1.23356 0.801352 0
M  V30 1517 H 141.42 -4.16477 -0.245544 0
M  V30 1518 H 140.05 -3.14011 -0.74813 0
M  V30 1519 H 139.102 -3.42512 1.65499 0
M  V30 1520 H 140.414 -4.5823 1.97046 0
M  V30 1521 H 139.568 -6.06538 0.1402 0
M  V30 1522 H 138.307 -4.86939 -0.272431 0
M  V30 1523 H 137.312 -5.11369 2.01945 0
M  V30 1524 H 138.537 -6.34337 2.42474 0
M  V30 1525 H 136.483 -6.55722 0.190939 0
M  V30 1526 H 136.4 -7.36073 1.72432 0
M  V30 1527 H 137.668 -7.77123 0.608253 0
M  V30 1528 N 141.898 -0.863906 -1.31812 0
M  V30 1529 C 142.845 -0.313303 -2.28664 0
M  V30 1530 C 143.815 0.584868 -1.55462 0
M  V30 1531 O 145 0.517805 -1.83639 0
M  V30 1532 C 142.14 0.48441 -3.41683 0
M  V30 1533 C 141.253 -0.440594 -4.29747 0
M  V30 1534 C 140.388 0.370652 -5.29905 0
M  V30 1535 C 139.427 -0.551164 -6.09613 0
M  V30 1536 N 138.564 0.223462 -7.01744 0
M  V30 1537 H 143.404 -1.14444 -2.75148 0
M  V30 1538 H 140.941 -0.575769 -1.35364 0
M  V30 1539 H 142.899 0.962627 -4.05943 0
M  V30 1540 H 141.529 1.28029 -2.96325 0
M  V30 1541 H 140.581 -1.03724 -3.65986 0
M  V30 1542 H 141.893 -1.14767 -4.85417 0
M  V30 1543 H 141.047 0.911638 -5.99812 0
M  V30 1544 H 139.786 1.11105 -4.74876 0
M  V30 1545 H 138.791 -1.10396 -5.38603 0
M  V30 1546 H 140.016 -1.29032 -6.66729 0
M  V30 1547 H 137.962 0.946787 -6.49132 0
M  V30 1548 H 137.879 -0.424399 -7.54808 0
M  V30 1549 H 139.147 0.745876 -7.75923 0
M  V30 1550 N 143.376 1.44774 -0.622745 0
M  V30 1551 C 144.622 2.0242 -0.124083 0
M  V30 1552 C 144.955 1.4881 1.24777 0
M  V30 1553 O 144.23 0.668799 1.8264 0
M  V30 1554 C 144.513 3.59957 -0.101619 0
M  V30 1555 C 144.366 4.23867 -1.50521 0
M  V30 1556 C 145.685 4.36284 0.578272 0
M  V30 1557 H 142.804 0.735528 -0.0465645 0
M  V30 1558 H 145.446 1.72447 -0.797617 0
M  V30 1559 H 143.596 3.85623 0.471934 0
M  V30 1560 H 145.268 4.09336 -2.12701 0
M  V30 1561 H 143.511 3.81684 -2.06154 0
M  V30 1562 H 144.182 5.32843 -1.4416 0
M  V30 1563 H 146.658 4.16001 0.0906057 0
M  V30 1564 H 145.534 5.46004 0.563149 0
M  V30 1565 H 145.795 4.10271 1.64713 0
M  V30 1566 N 144.854 0.36279 1.53368 0
M  V30 1567 C 146.084 -0.228281 2.05335 0
M  V30 1568 C 146.492 -1.43226 1.23625 0
M  V30 1569 O 145.835 -1.81717 0.269206 0
M  V30 1570 C 145.897 -0.688549 3.52845 0
M  V30 1571 C 145.561 0.398362 4.5526 0
M  V30 1572 C 146.558 1.24732 5.04716 0
M  V30 1573 C 144.243 0.557805 4.99193 0
M  V30 1574 C 146.237 2.2411 5.96702 0
M  V30 1575 C 143.924 1.55495 5.90986 0
M  V30 1576 C 144.922 2.39503 6.39631 0
M  V30 1577 O 144.61 3.37517 7.29615 0
M  V30 1578 H 144.342 -0.044395 0.674541 0
M  V30 1579 H 146.896 0.518668 1.98744 0
M  V30 1580 H 145.126 -1.48706 3.56964 0
M  V30 1581 H 146.815 -1.20231 3.87685 0
M  V30 1582 H 147.581 1.13532 4.71525 0
M  V30 1583 H 143.46 -0.0862959 4.60919 0
M  V30 1584 H 147.004 2.89718 6.34594 0
M  V30 1585 H 142.901 1.66744 6.23592 0
M  V30 1586 H 143.669 3.33213 7.47604 0
M  V30 1587 N 146.332 -1.57332 0.0918853 0
M  V30 1588 C 147.262 -2.16872 -0.865371 0
M  V30 1589 C 148.243 -1.10118 -1.29646 0
M  V30 1590 O 149.428 -1.38242 -1.36392 0
M  V30 1591 C 146.558 -2.74649 -2.12569 0
M  V30 1592 C 145.512 -3.86747 -1.83333 0
M  V30 1593 C 144.838 -4.31212 -3.16166 0
M  V30 1594 C 146.138 -5.10089 -1.1228 0
M  V30 1595 H 147.832 -2.97114 -0.369307 0
M  V30 1596 H 145.378 -1.42918 -0.176194 0
M  V30 1597 H 147.331 -3.14952 -2.7997 0
M  V30 1598 H 146.055 -1.91657 -2.64452 0
M  V30 1599 H 144.714 -3.46978 -1.18331 0
M  V30 1600 H 144.362 -3.45115 -3.6593 0
M  V30 1601 H 144.062 -5.06788 -2.97388 0
M  V30 1602 H 145.586 -4.74146 -3.84731 0
M  V30 1603 H 147 -5.47582 -1.69785 0
M  V30 1604 H 145.397 -5.91073 -1.03693 0
M  V30 1605 H 146.467 -4.84786 -0.105041 0
M  V30 1606 N 147.81 0.181792 -1.56548 0
M  V30 1607 C 149.035 0.920019 -1.85877 0
M  V30 1608 C 149.46 1.75494 -0.677021 0
M  V30 1609 O 148.818 1.77399 0.374056 0
M  V30 1610 C 148.866 1.78112 -3.13542 0
M  V30 1611 O 147.97 2.88152 -2.95029 0
M  V30 1612 H 147.311 0.258334 -0.611686 0
M  V30 1613 H 149.841 0.183092 -2.03779 0
M  V30 1614 H 149.851 2.18314 -3.44678 0
M  V30 1615 H 148.526 1.16777 -3.99169 0
M  V30 1616 H 147.103 2.51609 -2.75222 0
M  V30 1617 N 149.288 1.51039 0.449983 0
M  V30 1618 C 150.198 1.74261 1.57067 0
M  V30 1619 C 151.214 0.626363 1.62335 0
M  V30 1620 O 152.39 0.907162 1.79812 0
M  V30 1621 C 149.455 1.85114 2.93144 0
M  V30 1622 C 148.516 3.0893 2.98095 0
M  V30 1623 C 147.749 3.19256 4.27681 0
M  V30 1624 O 147.972 2.35835 5.19363 0
M  V30 1625 O 146.906 4.12144 4.38658 0
M  V30 1626 H 150.732 2.69303 1.40391 0
M  V30 1627 H 148.317 1.35389 0.631688 0
M  V30 1628 H 150.199 1.94311 3.73926 0
M  V30 1629 H 148.874 0.932588 3.09975 0
M  V30 1630 H 147.781 3.0522 2.16314 0
M  V30 1631 H 149.114 4.00433 2.86206 0
M  V30 1632 N 150.766 -0.704594 1.40972 0
M  V30 1633 C 152.006 -1.47691 1.41304 0
M  V30 1634 C 152.37 -1.91992 0.0178582 0
M  V30 1635 O 153.571 -2.68599 -0.103996 0
M  V30 1636 C 151.842 -2.66254 2.38419 0
M  V30 1637 S 153.401 -3.55516 2.57204 0
M  V30 1638 H 150.219 -0.504808 0.500689 0
M  V30 1639 H 152.821 -0.822962 1.77335 0
M  V30 1640 H 151.525 -2.31897 3.38603 0
M  V30 1641 H 151.056 -3.3655 2.03711 0
M  V30 1642 H 153.071 -4.61115 1.83268 0
M  V30 1643 N 152.244 -1.26651 -0.937939 0
M  V30 1644 C 153.191 -1.0849 -2.03712 0
M  V30 1645 C 154.161 0.011033 -1.66096 0
M  V30 1646 O 155.346 -0.149353 -1.90215 0
M  V30 1647 C 152.486 -0.72735 -3.37348 0
M  V30 1648 C 151.599 -1.89986 -3.87981 0
M  V30 1649 C 150.734 -1.48513 -5.10017 0
M  V30 1650 C 149.773 -2.62575 -5.5292 0
M  V30 1651 N 148.91 -2.21762 -6.66158 0
M  V30 1652 H 153.75 -2.02551 -2.18579 0
M  V30 1653 H 151.287 -1.00844 -1.07093 0
M  V30 1654 H 153.245 -0.50092 -4.14182 0
M  V30 1655 H 151.875 0.176298 -3.22318 0
M  V30 1656 H 150.927 -2.23913 -3.07518 0
M  V30 1657 H 152.239 -2.75586 -4.15757 0
M  V30 1658 H 151.393 -1.21934 -5.94321 0
M  V30 1659 H 150.132 -0.60009 -4.83994 0
M  V30 1660 H 149.137 -2.8988 -4.67172 0
M  V30 1661 H 150.362 -3.51685 -5.80943 0
M  V30 1662 H 148.308 -1.35696 -6.41812 0
M  V30 1663 H 148.225 -3.00903 -6.93537 0
M  V30 1664 H 149.493 -1.98403 -7.53828 0
M  V30 1665 N 153.722 1.14298 -1.08507 0
M  V30 1666 C 154.95 1.89219 -0.836876 0
M  V30 1667 C 155.365 1.78638 0.611054 0
M  V30 1668 O 154.722 1.14643 1.41998 0
M  V30 1669 C 154.773 3.39158 -1.25116 0
M  V30 1670 O 154.494 3.49449 -2.64229 0
M  V30 1671 C 155.995 4.31073 -1.03398 0
M  V30 1672 H 153.215 0.599328 -0.301739 0
M  V30 1673 H 155.759 1.44746 -1.44461 0
M  V30 1674 H 153.914 3.81251 -0.687514 0
M  V30 1675 H 154.328 4.42589 -2.81452 0
M  V30 1676 H 155.802 5.34646 -1.37323 0
M  V30 1677 H 156.279 4.3919 0.0289259 0
M  V30 1678 H 156.885 3.94738 -1.58311 0
M  V30 1679 N 155.201 0.870884 1.31352 0
M  V30 1680 C 156.449 0.48132 1.96285 0
M  V30 1681 C 156.77 -0.969813 1.69173 0
M  V30 1682 O 156.04 -1.67998 1.00764 0
M  V30 1683 H 154.62 0.175002 0.726212 0
M  V30 1684 H 157.282 1.11087 1.60143 0
M  V30 1685 H 156.378 0.639825 3.05471 0
M  V30 1686 N 156.679 -1.44442 0.630414 0
M  V30 1687 C 157.627 -2.32437 -0.0871428 0
M  V30 1688 C 158.621 -1.47304 -0.836525 0
M  V30 1689 O 159.827 -1.63653 -0.749506 0
M  V30 1690 H 156.202 -0.750533 -0.0469495 0
M  V30 1691 H 158.173 -2.90709 0.673096 0
M  V30 1692 C 156.922 -3.31288 -1.05563 0
M  V30 1693 H 156.245 -3.96805 -0.488426 0
M  V30 1694 H 157.685 -3.9554 -1.52721 0
M  V30 1695 C 156.144 -2.6016 -2.14052 0
M  V30 1696 O 156.674 -2.39997 -3.22124 0
M  V30 1697 N 154.88 -2.19911 -1.89967 0
M  V30 1698 H 154.427 -2.36509 -1.02085 0
M  V30 1699 H 154.385 -1.72646 -2.62756 0
M  V30 1700 N 158.157 -0.370918 -1.53173 0
M  V30 1701 C 159.405 0.216673 -2.00935 0
M  V30 1702 C 159.726 1.48845 -1.25977 0
M  V30 1703 O 158.996 1.92286 -0.374551 0
M  V30 1704 H 157.576 0.0830565 -0.742368 0
M  V30 1705 H 160.238 -0.49838 -1.8842 0
M  V30 1706 H 159.334 0.439893 -3.08984 0
M  V30 1707 N 159.635 1.57281 -0.100228 0
M  V30 1708 C 160.582 2.14305 0.856858 0
M  V30 1709 C 161.552 1.06296 1.27634 0
M  V30 1710 O 162.737 1.34109 1.35718 0
M  V30 1711 C 159.877 2.73184 2.10866 0
M  V30 1712 C 158.99 3.95442 1.73925 0
M  V30 1713 C 158.125 4.42468 2.93931 0
M  V30 1714 C 157.164 5.57303 2.5314 0
M  V30 1715 N 156.301 5.99158 3.65997 0
M  V30 1716 H 161.141 2.95772 0.363726 0
M  V30 1717 H 158.678 1.46139 0.167858 0
M  V30 1718 H 160.636 3.05442 2.84185 0
M  V30 1719 H 159.266 1.94437 2.57671 0
M  V30 1720 H 158.318 3.69464 0.905554 0
M  V30 1721 H 159.63 4.78769 1.39935 0
M  V30 1722 H 158.784 4.76537 3.75496 0
M  V30 1723 H 157.523 3.58052 3.31134 0
M  V30 1724 H 156.528 5.22857 1.70003 0
M  V30 1725 H 157.753 6.43471 2.17075 0
M  V30 1726 H 155.699 5.17687 4.02909 0
M  V30 1727 H 155.616 6.77295 3.35869 0
M  V30 1728 H 156.884 6.3786 4.48057 0
M  V30 1729 N 161.113 -0.173488 1.56642 0
M  V30 1730 C 162.061 -1.23417 1.97157 0
M  V30 1731 C 163.055 -1.45946 0.860013 0
M  V30 1732 O 164.261 -1.46551 1.04512 0
M  V30 1733 H 160.636 -0.414818 0.62724 0
M  V30 1734 H 162.607 -0.865582 2.8557 0
M  V30 1735 C 161.356 -2.5665 2.34576 0
M  V30 1736 H 160.679 -2.40137 3.19647 0
M  V30 1737 H 162.119 -3.2956 2.6677 0
M  V30 1738 C 160.578 -3.15245 1.18836 0
M  V30 1739 O 161.108 -3.98883 0.474869 0
M  V30 1740 N 159.314 -2.74303 0.959497 0
M  V30 1741 H 158.861 -2.0639 1.54146 0
M  V30 1742 H 158.819 -3.13844 0.186932 0
M  V30 1743 N 162.591 -1.51276 -0.441967 0
M  V30 1744 C 163.821 -1.67273 -1.21257 0
M  V30 1745 C 164.229 -0.367624 -1.85594 0
M  V30 1746 O 163.572 0.663349 -1.71305 0
M  V30 1747 C 163.634 -2.72807 -2.34129 0
M  V30 1748 C 163.298 -4.1554 -1.90198 0
M  V30 1749 C 164.295 -5.00471 -1.40801 0
M  V30 1750 C 161.98 -4.61616 -1.9803 0
M  V30 1751 C 163.974 -6.29536 -0.998174 0
M  V30 1752 C 161.661 -5.90679 -1.56658 0
M  V30 1753 C 162.659 -6.74466 -1.07633 0
M  V30 1754 O 162.347 -8.01116 -0.668459 0
M  V30 1755 H 162.079 -0.564614 -0.371734 0
M  V30 1756 H 164.633 -1.9843 -0.530521 0
M  V30 1757 H 162.863 -2.36954 -3.05597 0
M  V30 1758 H 164.552 -2.77729 -2.96009 0
M  V30 1759 H 165.318 -4.66079 -1.34148 0
M  V30 1760 H 161.197 -3.96526 -2.35135 0
M  V30 1761 H 164.741 -6.94885 -0.61482 0
M  V30 1762 H 160.638 -6.24586 -1.62979 0
M  V30 1763 H 161.406 -8.14633 -0.794722 0
M  V30 1764 N 164.069 0.697108 -1.41344 0
M  V30 1765 C 165.485 1.00751 -1.2378 0
M  V30 1766 C 165.685 2.01105 -0.126066 0
M  V30 1767 O 164.741 2.47295 0.51004 0
M  V30 1768 C 166.054 1.53359 -2.58653 0
M  V30 1769 C 167.602 1.6525 -2.65822 0
M  V30 1770 C 168.077 2.2126 -4.01009 0
M  V30 1771 N 169.568 2.28622 -4.02847 0
M  V30 1772 C 170.303 2.72984 -5.04249 0
M  V30 1773 N 169.799 3.16962 -6.16041 0
M  V30 1774 N 171.592 2.72534 -4.91611 0
M  V30 1775 H 163.743 0.0322662 -2.12375 0
M  V30 1776 H 166.006 0.0768853 -0.944877 0
M  V30 1777 H 165.712 0.870773 -3.4075 0
M  V30 1778 H 165.586 2.51597 -2.81032 0
M  V30 1779 H 167.973 2.30644 -1.84086 0
M  V30 1780 H 168.054 0.655614 -2.47256 0
M  V30 1781 H 167.698 1.56482 -4.83193 0
M  V30 1782 H 167.628 3.21698 -4.16915 0
M  V30 1783 H 170.119 1.97585 -3.22131 0
M  V30 1784 H 170.432 3.49434 -6.89287 0
M  V30 1785 H 168.777 3.14875 -6.1958 0
M  V30 1786 H 171.968 2.37525 -4.0336 0
M  V30 1787 H 172.141 3.06789 -5.70775 0
M  V30 1788 N 165.547 1.27147 0.931209 0
M  V30 1789 C 166.795 1.13055 1.6752 0
M  V30 1790 C 167.116 -0.324791 1.92276 0
M  V30 1791 O 166.386 -1.22775 1.52654 0
M  V30 1792 H 164.966 0.415391 0.620854 0
M  V30 1793 H 167.628 1.59623 1.11833 0
M  V30 1794 H 166.724 1.65694 2.64485 0
M  V30 1795 N 167.025 -1.13721 1.09112 0
M  V30 1796 C 168.253 -1.88773 0.846899 0
M  V30 1797 C 168.668 -1.7896 -0.601572 0
M  V30 1798 O 168.025 -1.15394 -1.41388 0
M  V30 1799 C 168.076 -3.3849 1.26913 0
M  V30 1800 O 167.797 -3.48043 2.66079 0
M  V30 1801 C 169.298 -4.30518 1.05682 0
M  V30 1802 H 166.518 -0.59772 0.304914 0
M  V30 1803 H 169.062 -1.43977 1.45227 0
M  V30 1804 H 167.217 -3.80881 0.707723 0
M  V30 1805 H 167.631 -4.4109 2.83795 0
M  V30 1806 H 169.105 -5.3391 1.40156 0
M  V30 1807 H 169.582 -4.392 -0.00563416 0
M  V30 1808 H 170.188 -3.93893 1.60402 0
M  V30 1809 N 168.503 -0.877838 -1.30888 0
M  V30 1810 C 169.436 -0.283995 -2.26426 0
M  V30 1811 C 170.414 0.591361 -1.51465 0
M  V30 1812 O 171.598 0.54304 -1.80509 0
M  V30 1813 C 168.725 0.597129 -3.33395 0
M  V30 1814 C 167.771 -0.207937 -4.25993 0
M  V30 1815 S 168.604 -1.59158 -5.11301 0
M  V30 1816 C 169.76 -0.716791 -6.21782 0
M  V30 1817 H 169.993 -1.09383 -2.76446 0
M  V30 1818 H 167.526 -0.676828 -1.38775 0
M  V30 1819 H 169.484 1.09978 -3.95493 0
M  V30 1820 H 168.145 1.38099 -2.82113 0
M  V30 1821 H 167.338 0.464163 -5.01858 0
M  V30 1822 H 166.94 -0.642963 -3.68432 0
M  V30 1823 H 169.232 0.0692833 -6.77465 0
M  V30 1824 H 170.175 -1.44682 -6.93161 0
M  V30 1825 H 170.583 -0.280855 -5.63801 0
M  V30 1826 N 169.982 1.44106 -0.638065 0
M  V30 1827 C 171.207 2.0685 -0.150916 0
M  V30 1828 C 171.632 1.47417 1.16833 0
M  V30 1829 O 170.99 0.578264 1.71831 0
M  V30 1830 C 171.038 3.60555 -0.05708 0
M  V30 1831 O 170.142 4.00465 0.984972 0
M  V30 1832 H 169.483 0.658151 -0.0879399 0
M  V30 1833 H 172.013 1.84865 -0.876707 0
M  V30 1834 H 172.023 4.07789 0.131232 0
M  V30 1835 H 170.698 4.03193 -1.02021 0
M  V30 1836 H 169.275 3.64849 0.770672 0
M  V30 1837 N 171.46 0.379036 1.52974 0
M  V30 1838 C 172.407 -0.461048 2.26148 0
M  V30 1839 C 173.377 -1.06637 1.27349 0
M  V30 1840 O 174.562 -1.09633 1.56157 0
M  V30 1841 C 171.702 -1.58782 3.06402 0
M  V30 1842 C 170.815 -1.00636 4.20115 0
M  V30 1843 C 169.95 -2.10334 4.87784 0
M  V30 1844 C 168.989 -1.49724 5.93506 0
M  V30 1845 N 168.126 -2.5331 6.54812 0
M  V30 1846 H 172.966 0.169429 2.97518 0
M  V30 1847 H 170.503 0.0953806 1.4679 0
M  V30 1848 H 172.461 -2.25174 3.51215 0
M  V30 1849 H 171.091 -2.18876 2.37261 0
M  V30 1850 H 170.143 -0.232332 3.7969 0
M  V30 1851 H 171.455 -0.523343 4.96047 0
M  V30 1852 H 170.609 -2.84519 5.35849 0
M  V30 1853 H 169.348 -2.61992 4.11353 0
M  V30 1854 H 168.353 -0.740598 5.44789 0
M  V30 1855 H 169.578 -0.988732 6.71864 0
M  V30 1856 H 167.524 -3.04156 5.81227 0
M  V30 1857 H 167.441 -2.09734 7.26325 0
M  V30 1858 H 168.709 -3.27155 7.07524 0
M  V30 1859 N 172.938 -1.57226 0.108567 0
M  V30 1860 C 174.166 -1.99179 -0.559954 0
M  V30 1861 C 174.581 -0.988022 -1.60884 0
M  V30 1862 O 173.938 0.0205512 -1.82488 0
M  V30 1863 C 173.989 -3.41159 -1.19552 0
M  V30 1864 O 173.71 -4.37694 -0.188577 0
M  V30 1865 C 175.211 -3.98188 -1.94837 0
M  V30 1866 H 172.431 -0.654228 -0.149088 0
M  V30 1867 H 174.975 -2.03598 0.19183 0
M  V30 1868 H 173.13 -3.37711 -1.89815 0
M  V30 1869 H 173.544 -5.20469 -0.649014 0
M  V30 1870 H 175.018 -4.99644 -2.34648 0
M  V30 1871 H 175.495 -3.3675 -2.81951 0
M  V30 1872 H 176.101 -4.0515 -1.2936 0
M  V30 1873 N 174.416 0.165178 -1.56732 0
M  V30 1874 C 175.363 1.2044 -1.96883 0
M  V30 1875 C 176.333 1.43664 -0.833657 0
M  V30 1876 O 177.518 1.56302 -1.09427 0
M  V30 1877 C 174.658 2.53727 -2.33916 0
M  V30 1878 C 173.771 2.3783 -3.6064 0
M  V30 1879 C 172.906 3.64026 -3.86857 0
M  V30 1880 C 171.945 3.43088 -5.06909 0
M  V30 1881 N 171.082 4.61369 -5.29229 0
M  V30 1882 H 175.922 0.854996 -2.85471 0
M  V30 1883 H 173.459 0.41076 -1.41249 0
M  V30 1884 H 175.417 3.31419 -2.53411 0
M  V30 1885 H 174.047 2.8665 -1.48431 0
M  V30 1886 H 173.099 1.51282 -3.49024 0
M  V30 1887 H 174.411 2.18308 -4.4849 0
M  V30 1888 H 173.565 4.50152 -4.06753 0
M  V30 1889 H 172.304 3.86533 -2.97394 0
M  V30 1890 H 171.309 2.55349 -4.86906 0
M  V30 1891 H 172.534 3.21997 -5.97909 0
M  V30 1892 H 170.48 4.84084 -4.42718 0
M  V30 1893 H 170.397 4.44783 -6.11313 0
M  V30 1894 H 171.665 5.48761 -5.53608 0
M  V30 1895 N 175.894 1.51508 0.433938 0
M  V30 1896 C 176.842 1.73646 1.54757 0
M  V30 1897 C 177.836 0.602854 1.5831 0
M  V30 1898 O 179.042 0.784318 1.62014 0
M  V30 1899 H 175.417 0.548718 0.51421 0
M  V30 1900 H 177.388 2.66991 1.33261 0
M  V30 1901 C 176.137 1.88172 2.92381 0
M  V30 1902 H 175.46 2.74808 2.90381 0
M  V30 1903 H 176.9 2.07672 3.6966 0
M  V30 1904 C 175.359 0.64239 3.30719 0
M  V30 1905 O 175.889 -0.201362 4.01195 0
M  V30 1906 N 174.095 0.485489 2.86516 0
M  V30 1907 H 173.642 1.17318 2.29334 0
M  V30 1908 H 173.6 -0.342482 3.12529 0
M  V30 1909 N 177.372 -0.689602 1.41712 0
M  V30 1910 C 178.62 -1.4468 1.4111 0
M  V30 1911 C 178.941 -1.94986 0.0232196 0
M  V30 1912 O 178.211 -1.72097 -0.935913 0
M  V30 1913 H 176.791 -0.536847 0.519427 0
M  V30 1914 H 179.453 -0.815825 1.77004 0
M  V30 1915 H 178.549 -2.30706 2.10193 0
M  V30 1916 N 178.85 -1.27639 -0.924453 0
M  V30 1917 C 180.099 -1.13549 -1.66702 0
M  V30 1918 C 180.412 0.317487 -1.93006 0
M  V30 1919 O 181.618 0.579333 -2.65247 0
M  V30 1920 C 180.074 -1.98426 -3.00259 0
M  V30 1921 C 179.682 -3.484 -2.81641 0
M  V30 1922 C 181.426 -1.92993 -3.78092 0
M  V30 1923 C 179.333 -4.25464 -4.10773 0
M  V30 1924 H 178.263 -0.421351 -0.625283 0
M  V30 1925 H 180.914 -1.52085 -1.02676 0
M  V30 1926 H 179.296 -1.52736 -3.6536 0
M  V30 1927 H 180.47 -4.01973 -2.25287 0
M  V30 1928 H 178.785 -3.55245 -2.17232 0
M  V30 1929 H 181.382 -2.47844 -4.7379 0
M  V30 1930 H 181.725 -0.904281 -4.0636 0
M  V30 1931 H 182.258 -2.36595 -3.19793 0
M  V30 1932 H 178.997 -5.28566 -3.87683 0
M  V30 1933 H 178.517 -3.76667 -4.66779 0
M  V30 1934 H 180.196 -4.34812 -4.79111 0
M  V30 1935 N 180.328 1.1314 -1.09713 0
M  V30 1936 C 181.556 1.88321 -0.856898 0
M  V30 1937 C 181.971 1.79276 0.592073 0
M  V30 1938 O 181.328 1.16142 1.40774 0
M  V30 1939 C 181.379 3.37812 -1.28706 0
M  V30 1940 O 181.1 3.46627 -2.67921 0
M  V30 1941 C 182.601 4.29952 -1.07964 0
M  V30 1942 H 179.821 0.596094 -0.308079 0
M  V30 1943 H 182.365 1.43205 -1.45988 0
M  V30 1944 H 180.52 3.805 -0.727912 0
M  V30 1945 H 180.934 4.39579 -2.8613 0
M  V30 1946 H 182.408 5.33159 -1.42986 0
M  V30 1947 H 182.885 4.39196 -0.0176577 0
M  V30 1948 H 183.491 3.93036 -1.62489 0
M  V30 1949 N 181.806 0.884767 1.30421 0
M  V30 1950 C 183.046 0.509806 1.9794 0
M  V30 1951 C 183.41 -0.923736 1.68319 0
M  V30 1952 O 184.611 -1.40481 2.29169 0
M  V30 1953 C 182.882 0.776732 3.48858 0
M  V30 1954 S 184.441 0.503843 4.35898 0
M  V30 1955 H 181.259 0.189699 0.685227 0
M  V30 1956 H 183.861 1.14399 1.58535 0
M  V30 1957 H 182.565 1.81857 3.67908 0
M  V30 1958 H 182.096 0.1301 3.93185 0
M  V30 1959 H 184.111 -0.657625 4.91823 0
M  V30 1960 N 183.284 -1.43765 0.645699 0
M  V30 1961 C 184.216 -2.29027 -0.0890605 0
M  V30 1962 C 185.229 -1.42093 -0.794563 0
M  V30 1963 O 186.418 -1.66104 -0.653575 0
M  V30 1964 C 183.518 -3.18831 -1.14891 0
M  V30 1965 C 182.691 -4.34261 -0.523043 0
M  V30 1966 C 181.75 -5.04994 -1.47878 0
M  V30 1967 O 180.776 -5.6052 -0.990277 0
M  V30 1968 N 181.978 -5.07795 -2.81291 0
M  V30 1969 H 184.743 -2.92727 0.64272 0
M  V30 1970 H 182.304 -1.54373 0.487924 0
M  V30 1971 H 184.296 -3.63015 -1.78892 0
M  V30 1972 H 182.866 -2.56782 -1.78275 0
M  V30 1973 H 182.086 -3.93088 0.295896 0
M  V30 1974 H 183.374 -5.08728 -0.0858147 0
M  V30 1975 H 182.772 -4.64042 -3.23546 0
M  V30 1976 H 181.329 -5.55721 -3.40614 0
M  V30 1977 N 184.763 -0.387143 -1.52771 0
M  V30 1978 C 185.71 0.449048 -2.26389 0
M  V30 1979 C 186.68 1.05961 -1.27912 0
M  V30 1980 O 187.865 1.08804 -1.56737 0
M  V30 1981 C 185.005 1.57155 -3.0724 0
M  V30 1982 C 184.118 0.984066 -4.20643 0
M  V30 1983 C 183.253 2.07745 -4.88892 0
M  V30 1984 C 182.292 1.46574 -5.94292 0
M  V30 1985 N 181.429 2.49834 -6.56146 0
M  V30 1986 H 186.269 -0.185205 -2.97424 0
M  V30 1987 H 183.806 -0.103164 -1.46738 0
M  V30 1988 H 185.764 2.23309 -3.52405 0
M  V30 1989 H 184.394 2.17615 -2.38419 0
M  V30 1990 H 183.446 0.212193 -3.79808 0
M  V30 1991 H 184.758 0.497029 -4.96318 0
M  V30 1992 H 183.912 2.81673 -5.3735 0
M  V30 1993 H 182.651 2.59807 -4.12737 0
M  V30 1994 H 181.656 0.711696 -5.45174 0
M  V30 1995 H 182.881 0.953088 -6.72379 0
M  V30 1996 H 180.827 3.0107 -5.82832 0
M  V30 1997 H 180.744 2.05879 -7.27427 0
M  V30 1998 H 182.012 3.23399 -7.09249 0
M  V30 1999 N 186.241 1.57166 -0.116904 0
M  V30 2000 C 187.487 1.96206 0.536166 0
M  V30 2001 C 187.842 0.99915 1.64422 0
M  V30 2002 O 187.135 0.0288195 1.91578 0
M  V30 2003 C 187.329 3.39508 1.11664 0
M  V30 2004 C 187.158 4.49651 0.0663474 0
M  V30 2005 C 185.928 5.03982 -0.36474 0
M  V30 2006 C 188.126 5.09322 -0.713829 0
M  V30 2007 N 186.108 5.97699 -1.40102 0
M  V30 2008 C 187.479 5.98963 -1.60136 0
M  V30 2009 C 189.534 4.91989 -0.764948 0
M  V30 2010 C 188.237 6.73128 -2.53556 0
M  V30 2011 C 190.263 5.66833 -1.68685 0
M  V30 2012 C 189.625 6.56158 -2.56196 0
M  V30 2013 H 185.724 0.764203 0.165886 0
M  V30 2014 H 188.308 1.93623 -0.204535 0
M  V30 2015 H 186.479 3.42743 1.82707 0
M  V30 2016 H 188.211 3.65677 1.73386 0
M  V30 2017 H 184.966 4.73592 0.027252 0
M  V30 2018 H 185.39 6.49262 -1.91802 0
M  V30 2019 H 190.032 4.22676 -0.102501 0
M  V30 2020 H 187.75 7.41689 -3.20816 0
M  V30 2021 H 191.336 5.55427 -1.73181 0
M  V30 2022 H 190.216 7.13057 -3.26372 0
M  V30 2023 N 187.719 -0.156864 1.56817 0
M  V30 2024 C 188.944 -0.890331 1.87318 0
M  V30 2025 C 189.369 -1.74394 0.704855 0
M  V30 2026 O 188.727 -1.77972 -0.345786 0
M  V30 2027 C 188.775 -1.73102 3.16336 0
M  V30 2028 O 187.879 -2.83422 2.99576 0
M  V30 2029 H 187.22 -0.24857 0.615718 0
M  V30 2030 H 189.75 -0.150649 2.04045 0
M  V30 2031 H 189.76 -2.12803 3.48107 0
M  V30 2032 H 188.435 -1.10412 4.00976 0
M  V30 2033 H 187.012 -2.47199 2.7919 0
M  V30 2034 N 189.197 -1.51736 -0.425897 0
M  V30 2035 C 190.422 -1.69082 -1.20108 0
M  V30 2036 C 190.847 -0.392398 -1.83962 0
M  V30 2037 O 190.205 0.64858 -1.69302 0
M  V30 2038 C 190.253 -2.81604 -2.25237 0
M  V30 2039 O 189.357 -2.46004 -3.30992 0
M  V30 2040 H 188.698 -0.563408 -0.35138 0
M  V30 2041 H 191.228 -1.98358 -0.501512 0
M  V30 2042 H 191.238 -3.06025 -2.69838 0
M  V30 2043 H 189.913 -3.75817 -1.78142 0
M  V30 2044 H 188.49 -2.32195 -2.91787 0
M  V30 2045 N 190.675 0.682077 -1.42076 0
M  V30 2046 C 191.903 1.47057 -1.4554 0
M  V30 2047 C 192.318 1.8869 -0.0645779 0
M  V30 2048 O 191.675 1.57666 0.919115 0
M  V30 2049 C 191.726 2.72442 -2.37609 0
M  V30 2050 O 191.447 2.32559 -3.71279 0
M  V30 2051 C 192.948 3.66069 -2.50017 0
M  V30 2052 H 190.168 0.452737 -0.495248 0
M  V30 2053 H 192.712 0.838695 -1.8651 0
M  V30 2054 H 190.867 3.31835 -1.9991 0
M  V30 2055 H 191.281 3.13475 -4.20516 0
M  V30 2056 H 192.755 4.50792 -3.18576 0
M  V30 2057 H 193.232 4.11476 -1.53572 0
M  V30 2058 H 193.838 3.12572 -2.88407 0
M  V30 2059 N 192.153 1.28127 0.917671 0
M  V30 2060 C 193.378 1.18007 1.70555 0
M  V30 2061 C 193.803 -0.258257 1.86319 0
M  V30 2062 O 193.161 -1.1869 1.37049 0
M  V30 2063 C 193.209 1.87948 3.07746 0
M  V30 2064 O 192.313 1.18427 3.9503 0
M  V30 2065 H 191.654 0.409867 0.522403 0
M  V30 2066 H 194.184 1.69379 1.1477 0
M  V30 2067 H 194.194 1.95701 3.58001 0
M  V30 2068 H 192.869 2.92573 2.95591 0
M  V30 2069 H 191.446 1.18811 3.53466 0
M  V30 2070 N 193.631 -1.12557 1.10312 0
M  V30 2071 C 195.042 -1.65574 0.862678 0
M  V30 2072 C 195.393 -1.86566 -0.607256 0
M  V30 2073 O 194.518 -1.59121 -1.46662 0
M  V30 2074 C 195.113 -3.00776 1.55947 0
M  V30 2075 C 193.672 -3.50748 1.36576 0
M  V30 2076 C 192.819 -2.25797 1.60968 0
M  V30 2077 H 195.77 -0.963552 1.26101 0
M  V30 2078 H 195.791 -3.67185 0.997753 0
M  V30 2079 H 195.303 -2.85465 2.62928 0
M  V30 2080 H 193.404 -3.71245 0.317531 0
M  V30 2081 H 193.517 -4.30289 2.10686 0
M  V30 2082 H 191.881 -2.32841 1.03234 0
M  V30 2083 H 192.664 -2.13043 2.69198 0
M  V30 2084 N 195.109 -0.891671 -1.2995 0
M  V30 2085 C 196.059 -0.334811 -2.25528 0
M  V30 2086 C 197.043 0.540553 -1.51548 0
M  V30 2087 O 198.235 0.383882 -1.72787 0
M  V30 2088 C 195.364 0.44374 -3.4042 0
M  V30 2089 C 194.45 -0.44609 -4.21747 0
M  V30 2090 N 194.841 -1.54963 -4.81477 0
M  V30 2091 C 193.139 -0.242415 -4.45341 0
M  V30 2092 C 193.84 -2.10015 -5.42465 0
M  V30 2093 N 192.816 -1.39423 -5.25416 0
M  V30 2094 H 196.618 -1.17792 -2.69262 0
M  V30 2095 H 194.132 -0.741822 -1.44467 0
M  V30 2096 H 196.129 0.859362 -4.07947 0
M  V30 2097 H 194.789 1.28421 -2.98225 0
M  V30 2098 H 195.8 -1.93244 -4.80497 0
M  V30 2099 H 192.477 0.560342 -4.13723 0
M  V30 2100 H 193.867 -3.02724 -5.9984 0
M  V30 2101 N 196.587 1.43421 -0.653314 0
M  V30 2102 C 198.003 1.56341 -0.320886 0
M  V30 2103 C 198.203 1.63696 1.17499 0
M  V30 2104 O 197.259 1.59208 1.95982 0
M  V30 2105 C 198.572 2.82424 -1.03233 0
M  V30 2106 C 200.12 2.96168 -1.01259 0
M  V30 2107 C 200.595 4.25084 -1.70492 0
M  V30 2108 N 202.086 4.31948 -1.67257 0
M  V30 2109 C 202.821 5.30466 -2.17701 0
M  V30 2110 N 202.317 6.35261 -2.76434 0
M  V30 2111 N 204.11 5.2212 -2.082 0
M  V30 2112 H 196.261 1.3689 -1.62403 0
M  V30 2113 H 198.524 0.657455 -0.682977 0
M  V30 2114 H 198.23 2.83053 -2.08744 0
M  V30 2115 H 198.104 3.72653 -0.583948 0
M  V30 2116 H 200.491 2.9508 0.0341235 0
M  V30 2117 H 200.572 2.07229 -1.49966 0
M  V30 2118 H 200.216 4.26932 -2.7512 0
M  V30 2119 H 200.146 5.1292 -1.19251 0
M  V30 2120 H 202.637 3.56838 -1.24398 0
M  V30 2121 H 202.95 7.06754 -3.12601 0
M  V30 2122 H 201.295 6.35884 -2.80495 0
M  V30 2123 H 204.486 4.39166 -1.62021 0
M  V30 2124 H 204.659 5.98739 -2.47822 0
M  V30 2125 N 198.065 0.39524 1.52563 0
M  V30 2126 C 199.476 -0.0774719 1.86539 0
M  V30 2127 C 199.827 -1.45641 1.31466 0
M  V30 2128 O 198.952 -2.06459 0.648367 0
M  V30 2129 C 199.547 -0.147356 3.38479 0
M  V30 2130 C 198.106 -0.564373 3.72145 0
M  V30 2131 C 197.253 0.269919 2.75983 0
M  V30 2132 H 200.204 0.612876 1.46388 0
M  V30 2133 H 200.225 -0.965343 3.68051 0
M  V30 2134 H 199.737 0.856387 3.78534 0
M  V30 2135 H 197.838 -1.57527 3.37663 0
M  V30 2136 H 197.951 -0.318402 4.78041 0
M  V30 2137 H 196.315 -0.265696 2.5331 0
M  V30 2138 H 197.098 1.27175 3.18875 0
M  V30 2139 N 199.544 -1.57102 0.125237 0
M  V30 2140 C 200.96 -1.57915 -0.231322 0
M  V30 2141 C 201.16 -1.13833 -1.66266 0
M  V30 2142 O 200.216 -0.828581 -2.38518 0
M  V30 2143 C 201.529 -3.00699 0.00766489 0
M  V30 2144 C 203.077 -3.12947 -0.0577483 0
M  V30 2145 C 203.552 -4.57742 0.153626 0
M  V30 2146 N 205.043 -4.63092 0.0998073 0
M  V30 2147 C 205.778 -5.72905 0.238174 0
M  V30 2148 N 205.274 -6.91445 0.433057 0
M  V30 2149 N 207.067 -5.6182 0.177308 0
M  V30 2150 H 199.218 -1.84055 1.06007 0
M  V30 2151 H 201.481 -0.850905 0.417929 0
M  V30 2152 H 201.187 -3.3726 0.997431 0
M  V30 2153 H 201.061 -3.70236 -0.721452 0
M  V30 2154 H 203.448 -2.7624 -1.03804 0
M  V30 2155 H 203.529 -2.4594 0.70335 0
M  V30 2156 H 203.173 -4.95149 1.13092 0
M  V30 2157 H 203.103 -5.22848 -0.627534 0
M  V30 2158 H 205.594 -3.77871 -0.047051 0
M  V30 2159 H 205.907 -7.70985 0.529332 0
M  V30 2160 H 204.252 -6.93415 0.469109 0
M  V30 2161 H 207.443 -4.68093 0.0259748 0
M  V30 2162 H 207.616 -6.47357 0.288582 0
M  V30 2163 N 201.022 0.148545 -1.56898 0
M  V30 2164 C 202.269 0.861418 -1.83264 0
M  V30 2165 C 202.597 1.81239 -0.705883 0
M  V30 2166 O 201.852 1.93305 0.305212 0
M  V30 2167 C 202.151 1.67064 -3.1595 0
M  V30 2168 C 201.817 0.866591 -4.42494 0
M  V30 2169 C 200.479 0.644762 -4.76861 0
M  V30 2170 C 202.831 0.30418 -5.20312 0
M  V30 2171 C 200.159 -0.15021 -5.86508 0
M  V30 2172 C 202.511 -0.477824 -6.30793 0
M  V30 2173 C 201.175 -0.710244 -6.63711 0
M  V30 2174 H 200.445 0.315215 -0.670612 0
M  V30 2175 H 203.092 0.125142 -1.91091 0
M  V30 2176 H 201.397 2.47698 -3.03567 0
M  V30 2177 H 203.094 2.22566 -3.33565 0
M  V30 2178 H 199.684 1.04955 -4.15551 0
M  V30 2179 H 203.868 0.462844 -4.94137 0
M  V30 2180 H 199.124 -0.339796 -6.10455 0
M  V30 2181 H 203.298 -0.92076 -6.90286 0
M  V30 2182 H 200.925 -1.3281 -7.48509 0
M  V30 2183 N 202.5 1.5196 0.417844 0
M  V30 2184 C 203.725 1.69717 1.1921 0
M  V30 2185 C 204.15 0.402148 1.83751 0
M  V30 2186 O 203.508 -0.639593 1.69643 0
M  V30 2187 C 203.556 2.82794 2.2374 0
M  V30 2188 O 202.66 2.47756 3.29683 0
M  V30 2189 H 202.001 0.565263 0.348387 0
M  V30 2190 H 204.531 1.98621 0.490985 0
M  V30 2191 H 204.541 3.07452 2.68212 0
M  V30 2192 H 203.216 3.76756 1.76146 0
M  V30 2193 H 201.793 2.33739 2.90552 0
M  V30 2194 N 203.978 -0.674533 1.42435 0
M  V30 2195 C 205.389 -1.25514 1.38214 0
M  V30 2196 C 205.74 -1.96055 0.0755464 0
M  V30 2197 O 204.865 -2.00028 -0.8257 0
M  V30 2198 C 205.46 -2.28269 2.50357 0
M  V30 2199 C 204.019 -2.81856 2.49467 0
M  V30 2200 C 203.166 -1.56182 2.29134 0
M  V30 2201 H 206.117 -0.467902 1.51646 0
M  V30 2202 H 206.138 -3.10009 2.20624 0
M  V30 2203 H 205.65 -1.769 3.45439 0
M  V30 2204 H 203.751 -3.37346 1.58204 0
M  V30 2205 H 203.864 -3.30854 3.46515 0
M  V30 2206 H 202.228 -1.82761 1.774 0
M  V30 2207 H 203.011 -1.06778 3.26272 0
M  V30 2208 N 205.456 -1.28612 -0.910864 0
M  V30 2209 C 206.419 -1.12803 -1.9952 0
M  V30 2210 C 207.419 -0.0668264 -1.60661 0
M  V30 2211 O 208.609 -0.312847 -1.71368 0
M  V30 2212 C 205.741 -0.72254 -3.33155 0
M  V30 2213 H 206.934 -2.09109 -2.14973 0
M  V30 2214 H 204.487 -1.11639 -1.09391 0
M  V30 2215 H 205.222 0.241152 -3.23402 0
M  V30 2216 H 205.007 -1.48916 -3.62721 0
M  V30 2217 H 206.497 -0.634666 -4.12749 0
M  V30 2218 N 206.934 1.1197 -1.10907 0
M  V30 2219 C 208.162 1.87402 -0.876824 0
M  V30 2220 C 208.577 1.79894 0.573025 0
M  V30 2221 O 207.934 1.17629 1.39534 0
M  V30 2222 C 207.985 3.36428 -1.32282 0
M  V30 2223 O 207.706 3.43765 -2.71582 0
M  V30 2224 C 209.207 4.28783 -1.12518 0
M  V30 2225 H 206.427 0.592793 -0.314384 0
M  V30 2226 H 208.971 1.41649 -1.47499 0
M  V30 2227 H 207.126 3.79706 -0.768229 0
M  V30 2228 H 207.54 4.3652 -2.90776 0
M  V30 2229 H 209.014 5.31613 -1.48633 0
M  V30 2230 H 209.491 4.39153 -0.0642394 0
M  V30 2231 H 210.097 3.91291 -1.66648 0
M  V30 2232 N 208.412 0.89855 1.29475 0
M  V30 2233 C 209.362 0.346767 2.25348 0
M  V30 2234 C 210.346 -0.532509 1.51833 0
M  V30 2235 O 211.538 -0.374714 1.72988 0
M  V30 2236 C 208.667 -0.425681 3.40651 0
M  V30 2237 C 207.753 0.46845 4.21505 0
M  V30 2238 N 208.144 1.57514 4.80648 0
M  V30 2239 C 206.442 0.26603 4.45206 0
M  V30 2240 C 207.143 2.12889 5.41344 0
M  V30 2241 N 206.119 1.42208 5.24669 0
M  V30 2242 H 209.921 1.19219 2.68634 0
M  V30 2243 H 207.435 0.749473 1.44072 0
M  V30 2244 H 209.432 -0.837716 4.08397 0
M  V30 2245 H 208.092 -1.26838 2.98902 0
M  V30 2246 H 209.103 1.95789 4.79465 0
M  V30 2247 H 205.78 -0.538394 4.14014 0
M  V30 2248 H 207.17 3.05901 5.98226 0
M  V30 2249 N 209.89 -1.43072 0.660911 0
M  V30 2250 C 211.301 -1.84932 0.256348 0
M  V30 2251 C 211.652 -1.55325 -1.19868 0
M  V30 2252 O 210.777 -1.00607 -1.91591 0
M  V30 2253 C 211.372 -3.35684 0.458475 0
M  V30 2254 C 209.931 -3.76245 0.108161 0
M  V30 2255 C 209.078 -2.66749 0.757641 0
M  V30 2256 H 212.029 -1.33116 0.864051 0
M  V30 2257 H 212.05 -3.79365 -0.293683 0
M  V30 2258 H 211.562 -3.572 1.51755 0
M  V30 2259 H 209.663 -3.60338 -0.948014 0
M  V30 2260 H 209.776 -4.76058 0.538992 0
M  V30 2261 H 208.14 -2.53989 0.190185 0
M  V30 2262 H 208.923 -2.91092 1.81989 0
M  V30 2263 N 211.368 -0.403325 -1.52352 0
M  V30 2264 C 212.593 0.176499 -2.06648 0
M  V30 2265 C 213.018 1.38577 -1.27193 0
M  V30 2266 O 212.376 1.7879 -0.300637 0
M  V30 2267 C 212.424 0.511061 -3.5696 0
M  V30 2268 O 211.528 1.60294 -3.79973 0
M  V30 2269 H 210.869 0.0167337 -0.663789 0
M  V30 2270 H 213.399 -0.574848 -1.96359 0
M  V30 2271 H 213.409 0.771362 -4.00642 0
M  V30 2272 H 212.084 -0.37296 -4.14224 0
M  V30 2273 H 210.661 1.33526 -3.48174 0
M  V30 2274 N 212.846 1.57033 -0.133567 0
M  V30 2275 C 213.756 2.19632 0.824564 0
M  V30 2276 C 214.772 1.17666 1.28182 0
M  V30 2277 O 215.948 1.50193 1.3418 0
M  V30 2278 C 213.013 2.79499 2.05137 0
M  V30 2279 C 212.074 3.96548 1.64464 0
M  V30 2280 C 211.307 4.5355 2.81297 0
M  V30 2281 O 211.53 4.09438 3.97136 0
M  V30 2282 O 210.464 5.44018 2.57542 0
M  V30 2283 H 214.29 3.01991 0.321766 0
M  V30 2284 H 211.875 1.49112 0.0927889 0
M  V30 2285 H 213.757 3.17602 2.7696 0
M  V30 2286 H 212.432 2.00162 2.54395 0
M  V30 2287 H 211.339 3.63186 0.897048 0
M  V30 2288 H 212.672 4.77364 1.19934 0
M  V30 2289 N 214.325 -0.140222 1.56975 0
M  V30 2290 C 215.573 -0.850005 1.83356 0
M  V30 2291 C 215.894 -1.81399 0.71551 0
M  V30 2292 O 215.164 -1.94136 -0.262294 0
M  V30 2293 H 213.744 -0.316886 0.676456 0
M  V30 2294 H 216.406 -0.132608 1.94448 0
M  V30 2295 H 215.502 -1.40814 2.78528 0
M  V30 2296 N 215.803 -1.52179 -0.40978 0
M  V30 2297 C 216.733 -1.78435 -1.5061 0
M  V30 2298 C 217.714 -0.635295 -1.57791 0
M  V30 2299 O 218.899 -0.880823 -1.73076 0
M  V30 2300 C 216.029 -1.93444 -2.88439 0
M  V30 2301 C 214.983 -3.09038 -2.96108 0
M  V30 2302 C 214.309 -3.09268 -4.36185 0
M  V30 2303 C 215.609 -4.48508 -2.67652 0
M  V30 2304 H 217.303 -2.70237 -1.28889 0
M  V30 2305 H 214.849 -1.30036 -0.618605 0
M  V30 2306 H 216.802 -2.10394 -3.65119 0
M  V30 2307 H 215.526 -0.983129 -3.11452 0
M  V30 2308 H 214.185 -2.91837 -2.21872 0
M  V30 2309 H 213.833 -2.11861 -4.56206 0
M  V30 2310 H 213.533 -3.86907 -4.42241 0
M  V30 2311 H 215.057 -3.28348 -5.14801 0
M  V30 2312 H 216.471 -4.65918 -3.34056 0
M  V30 2313 H 214.868 -5.28059 -2.85085 0
M  V30 2314 H 215.938 -4.56649 -1.63095 0
M  V30 2315 N 217.281 0.66697 -1.42791 0
M  V30 2316 C 218.191 1.80962 -1.49299 0
M  V30 2317 C 219.207 1.69775 -0.381108 0
M  V30 2318 O 220.383 1.91188 -0.633188 0
M  V30 2319 C 217.448 3.17156 -1.40045 0
M  V30 2320 C 216.509 3.40242 -2.6179 0
M  V30 2321 C 215.742 4.69939 -2.52969 0
M  V30 2322 O 215.965 5.48372 -1.56985 0
M  V30 2323 O 214.899 4.94441 -3.43237 0
M  V30 2324 H 218.725 1.78427 -2.45759 0
M  V30 2325 H 216.31 0.823713 -1.24641 0
M  V30 2326 H 218.192 3.98413 -1.37276 0
M  V30 2327 H 216.867 3.20312 -0.467138 0
M  V30 2328 H 215.774 2.58802 -2.70134 0
M  V30 2329 H 217.107 3.41923 -3.54047 0
M  V30 2330 N 218.759 1.29093 0.90403 0
M  V30 2331 C 219.669 1.15727 2.0407 0
M  V30 2332 C 220.685 0.0815308 1.73809 0
M  V30 2333 O 221.861 0.292749 1.99261 0
M  V30 2334 C 218.926 0.830424 3.36608 0
M  V30 2335 C 217.987 1.98955 3.80415 0
M  V30 2336 C 217.22 1.6782 5.06628 0
M  V30 2337 O 217.443 0.597105 5.67266 0
M  V30 2338 O 216.377 2.52486 5.46383 0
M  V30 2339 H 220.203 2.11171 2.18267 0
M  V30 2340 H 217.788 1.08504 1.027 0
M  V30 2341 H 219.67 0.662521 4.16159 0
M  V30 2342 H 218.345 -0.0942678 3.23563 0
M  V30 2343 H 217.252 2.21267 3.01648 0
M  V30 2344 H 218.585 2.89529 3.98037 0
M  V30 2345 N 220.237 -1.11381 1.11499 0
M  V30 2346 C 221.185 -2.19522 0.768956 0
M  V30 2347 C 222.179 -1.67693 -0.239857 0
M  V30 2348 O 223.385 -1.79727 -0.0990755 0
M  V30 2349 H 219.76 -0.715711 0.230786 0
M  V30 2350 H 221.731 -2.45954 1.68964 0
M  V30 2351 C 220.48 -3.46945 0.229073 0
M  V30 2352 H 219.803 -3.8718 0.996596 0
M  V30 2353 H 221.243 -4.23993 0.0251441 0
M  V30 2354 C 219.702 -3.2042 -1.04079 0
M  V30 2355 O 220.232 -3.41178 -2.12038 0
M  V30 2356 N 218.438 -2.74151 -0.963823 0
M  V30 2357 H 217.985 -2.57459 -0.0851722 0
M  V30 2358 H 217.943 -2.56781 -1.81414 0
M  V30 2359 N 221.715 -0.905404 -1.28997 0
M  V30 2360 C 222.945 -0.549049 -1.99171 0
M  V30 2361 C 223.353 0.87203 -1.67906 0
M  V30 2362 O 222.696 1.58796 -0.923561 0
M  V30 2363 C 222.758 -0.668306 -3.53234 0
M  V30 2364 C 222.422 -2.0574 -4.08069 0
M  V30 2365 C 223.419 -3.0292 -4.22534 0
M  V30 2366 C 221.104 -2.36833 -4.42962 0
M  V30 2367 C 223.098 -4.29314 -4.71135 0
M  V30 2368 C 220.785 -3.63467 -4.91258 0
M  V30 2369 C 221.783 -4.59522 -5.053 0
M  V30 2370 O 221.471 -5.83907 -5.52546 0
M  V30 2371 H 221.203 -0.208784 -0.64295 0
M  V30 2372 H 223.757 -1.21836 -1.65363 0
M  V30 2373 H 221.987 0.0580547 -3.86656 0
M  V30 2374 H 223.676 -0.320273 -4.04634 0
M  V30 2375 H 224.442 -2.80216 -3.95859 0
M  V30 2376 H 220.321 -1.62824 -4.31288 0
M  V30 2377 H 223.865 -5.04293 -4.8201 0
M  V30 2378 H 219.762 -3.86 -5.17372 0
M  V30 2379 H 220.53 -5.86578 -5.70849 0
M  V30 2380 N 223.193 1.4272 -0.668489 0
M  V30 2381 C 224.433 2.03497 -0.19194 0
M  V30 2382 C 224.797 1.51684 1.17712 0
M  V30 2383 O 225.998 2.04205 1.74796 0
M  V30 2384 C 224.269 3.56734 -0.218032 0
M  V30 2385 S 225.828 4.38395 0.188438 0
M  V30 2386 H 222.646 0.706542 -0.0794959 0
M  V30 2387 H 225.248 1.74563 -0.880235 0
M  V30 2388 H 223.952 3.91943 -1.2169 0
M  V30 2389 H 223.483 3.90333 0.490303 0
M  V30 2390 H 225.498 4.75345 1.42345 0
M  V30 2391 N 224.671 0.411399 1.52136 0
M  V30 2392 C 226.087 0.0623865 1.59478 0
M  V30 2393 C 226.287 -1.42554 1.4241 0
M  V30 2394 O 225.343 -2.19263 1.2522 0
M  V30 2395 C 226.656 0.559331 2.95452 0
M  V30 2396 C 228.204 0.517503 3.08692 0
M  V30 2397 C 228.679 0.990994 4.4715 0
M  V30 2398 N 230.17 0.947908 4.53397 0
M  V30 2399 C 230.905 1.28544 5.58806 0
M  V30 2400 N 230.401 1.69454 6.71757 0
M  V30 2401 N 232.194 1.20526 5.49026 0
M  V30 2402 H 224.345 1.37982 1.61477 0
M  V30 2403 H 226.608 0.566977 0.759764 0
M  V30 2404 H 226.314 1.59938 3.1323 0
M  V30 2405 H 226.188 -0.0298014 3.77188 0
M  V30 2406 H 228.575 -0.513505 2.90598 0
M  V30 2407 H 228.656 1.14272 2.28857 0
M  V30 2408 H 228.3 2.02034 4.65988 0
M  V30 2409 H 228.23 0.34257 5.25485 0
M  V30 2410 H 230.721 0.647157 3.72317 0
M  V30 2411 H 231.034 1.93513 7.48179 0
M  V30 2412 H 229.379 1.73359 6.73032 0
M  V30 2413 H 232.57 0.884505 4.59667 0
M  V30 2414 H 232.743 1.47161 6.31069 0
M  V30 2415 N 226.149 -1.5696 0.141893 0
M  V30 2416 C 227.097 -2.17784 -0.816874 0
M  V30 2417 C 228.091 -1.1334 -1.25899 0
M  V30 2418 O 229.297 -1.316 -1.22806 0
M  V30 2419 H 225.672 -0.697278 -0.281615 0
M  V30 2420 H 227.643 -2.97087 -0.279621 0
M  V30 2421 C 226.392 -2.80983 -2.04802 0
M  V30 2422 H 225.715 -3.61062 -1.7168 0
M  V30 2423 H 227.155 -3.2705 -2.69841 0
M  V30 2424 C 225.614 -1.79228 -2.8527 0
M  V30 2425 O 226.144 -1.25962 -3.8144 0
M  V30 2426 N 224.35 -1.48647 -2.49704 0
M  V30 2427 H 223.897 -1.92155 -1.71564 0
M  V30 2428 H 223.855 -0.808115 -3.03837 0
M  V30 2429 N 227.627 0.131896 -1.57047 0
M  V30 2430 C 229.038 0.690407 -1.73465 0
M  V30 2431 C 229.389 1.8094 -0.758629 0
M  V30 2432 O 228.514 2.16282 0.0713813 0
M  V30 2433 C 229.109 1.25916 -3.14532 0
M  V30 2434 C 227.668 1.76409 -3.32501 0
M  V30 2435 C 226.815 0.658579 -2.69366 0
M  V30 2436 H 229.766 -0.0939144 -1.58422 0
M  V30 2437 H 229.787 2.12892 -3.15369 0
M  V30 2438 H 229.299 0.444515 -3.85546 0
M  V30 2439 H 227.4 2.60391 -2.66509 0
M  V30 2440 H 227.513 1.88241 -4.4057 0
M  V30 2441 H 225.877 1.08899 -2.30246 0
M  V30 2442 H 226.66 -0.14487 -3.42994 0
M  V30 2443 N 229.106 1.52395 0.401703 0
M  V30 2444 C 230.383 1.57387 1.16141 0
M  V30 2445 C 230.763 0.359359 2.08019 0
M  V30 2446 O 230.111 -0.65326 2.18963 0
M  V30 2447 C 230.321 2.90631 1.93221 0
M  V30 2448 C 231.669 3.43904 2.49028 0
M  V30 2449 O 232.693 2.92421 2.03393 0
M  V30 2450 O 231.552 4.33823 3.32356 0
M  V30 2451 H 228.646 0.634262 0.530698 0
M  V30 2452 H 231.192 1.64725 0.407883 0
M  V30 2453 H 229.964 3.70473 1.25958 0
M  V30 2454 H 229.587 2.8662 2.75563 0
M  V30 2455 N 230.584 -0.659388 1.43143 0
M  V30 2456 C 231.532 -1.79374 1.4808 0
M  V30 2457 C 232.526 -1.65639 0.354988 0
M  V30 2458 O 233.732 -1.7206 0.528704 0
M  V30 2459 H 230.107 -0.591705 0.4641 0
M  V30 2460 H 232.078 -1.72329 2.43609 0
M  V30 2461 C 230.827 -3.17606 1.41499 0
M  V30 2462 H 230.15 -3.28809 2.27431 0
M  V30 2463 H 231.59 -3.96951 1.49015 0
M  V30 2464 C 230.049 -3.36642 0.131765 0
M  V30 2465 O 230.579 -3.93461 -0.809386 0
M  V30 2466 N 228.785 -2.90567 0.0439396 0
M  V30 2467 H 228.332 -2.44513 0.810619 0
M  V30 2468 H 228.29 -3.03681 -0.813969 0
M  V30 2469 N 232.062 -1.29571 -0.897171 0
M  V30 2470 C 233.339 -1.08365 -1.62839 0
M  V30 2471 C 233.719 0.371331 -2.07808 0
M  V30 2472 O 233.067 1.3606 -1.83576 0
M  V30 2473 C 233.277 -2.0735 -2.80726 0
M  V30 2474 C 234.625 -2.38406 -3.51351 0
M  V30 2475 O 235.649 -2.05564 -2.90898 0
M  V30 2476 O 234.508 -2.9453 -4.60341 0
M  V30 2477 H 231.602 -0.415345 -0.715134 0
M  V30 2478 H 234.148 -1.40952 -0.945018 0
M  V30 2479 H 232.92 -3.05339 -2.44711 0
M  V30 2480 H 232.543 -1.75507 -3.56767 0
M  V30 2481 N 233.54 1.10788 -1.12088 0
M  V30 2482 C 234.951 1.64181 -0.88891 0
M  V30 2483 C 235.302 1.87508 0.577498 0
M  V30 2484 O 234.427 1.61434 1.44112 0
M  V30 2485 C 235.022 2.98257 -1.60712 0
M  V30 2486 C 233.581 3.4853 -1.42139 0
M  V30 2487 C 232.728 2.23208 -1.6454 0
M  V30 2488 H 235.679 0.943368 -1.27618 0
M  V30 2489 H 235.7 3.65552 -1.05604 0
M  V30 2490 H 235.212 2.81246 -2.67436 0
M  V30 2491 H 233.313 3.70692 -0.376552 0
M  V30 2492 H 233.426 4.26882 -2.17505 0
M  V30 2493 H 231.79 2.31169 -1.06925 0
M  V30 2494 H 232.573 2.08733 -2.72554 0
M  V30 2495 N 235.018 0.912232 1.28515 0
M  V30 2496 C 235.95 0.35676 2.26406 0
M  V30 2497 C 236.963 -0.503933 1.54804 0
M  V30 2498 O 238.152 -0.319059 1.75625 0
M  V30 2499 C 235.252 -0.508825 3.35058 0
M  V30 2500 C 234.425 0.329007 4.36161 0
M  V30 2501 C 233.484 -0.471422 5.24084 0
M  V30 2502 O 232.51 0.115482 5.69083 0
M  V30 2503 N 233.712 -1.77479 5.52704 0
M  V30 2504 H 236.477 1.19818 2.74707 0
M  V30 2505 H 234.038 0.778022 1.4198 0
M  V30 2506 H 236.03 -1.051 3.90815 0
M  V30 2507 H 234.6 -1.25095 2.86478 0
M  V30 2508 H 233.82 1.05256 3.79888 0
M  V30 2509 H 235.108 0.90234 5.00735 0
M  V30 2510 H 234.506 -2.27417 5.17975 0
M  V30 2511 H 233.063 -2.26382 6.11224 0
M  V30 2512 N 236.496 -1.42363 0.676048 0
M  V30 2513 C 237.744 -2.01123 0.198437 0
M  V30 2514 C 238.065 -1.53731 -1.19966 0
M  V30 2515 O 237.335 -0.759518 -1.80577 0
M  V30 2516 H 235.915 -0.743678 0.0703721 0
M  V30 2517 H 238.577 -1.74263 0.872837 0
M  V30 2518 H 237.673 -3.11454 0.200686 0
M  V30 2519 N 237.974 -0.419461 -1.51915 0
M  V30 2520 C 239.385 0.0477853 -1.86639 0
M  V30 2521 C 239.736 1.43531 -1.33766 0
M  V30 2522 O 238.861 2.05401 -0.68113 0
M  V30 2523 C 239.456 0.0934885 -3.38671 0
M  V30 2524 C 238.015 0.505097 -3.72996 0
M  V30 2525 C 237.162 -0.313792 -2.75519 0
M  V30 2526 H 240.113 -0.636088 -1.45395 0
M  V30 2527 H 240.134 0.906667 -3.6954 0
M  V30 2528 H 239.646 -0.916501 -3.77123 0
M  V30 2529 H 237.747 1.52135 -3.40126 0
M  V30 2530 H 237.86 0.242309 -4.78487 0
M  V30 2531 H 236.224 0.225363 -2.53701 0
M  V30 2532 H 237.007 -1.32232 -3.16812 0
M  V30 2533 N 239.452 1.56882 -0.150215 0
M  V30 2534 C 240.698 1.97299 0.494427 0
M  V30 2535 C 241.053 1.0338 1.62266 0
M  V30 2536 O 240.346 0.0694497 1.91474 0
M  V30 2537 C 240.54 3.41801 1.04437 0
M  V30 2538 C 240.369 4.49691 -0.0290451 0
M  V30 2539 C 239.139 5.03095 -0.47156 0
M  V30 2540 C 241.337 5.07693 -0.821703 0
M  V30 2541 N 239.319 5.94593 -1.52749 0
M  V30 2542 C 240.69 5.95431 -1.72805 0
M  V30 2543 C 242.745 4.90256 -0.869134 0
M  V30 2544 C 241.448 6.67599 -2.67777 0
M  V30 2545 C 243.474 5.63127 -1.8067 0
M  V30 2546 C 242.836 6.50576 -2.70057 0
M  V30 2547 H 238.935 0.76755 0.149639 0
M  V30 2548 H 241.519 1.93145 -0.24556 0
M  V30 2549 H 239.69 3.46541 1.75396 0
M  V30 2550 H 241.422 3.69272 1.6559 0
M  V30 2551 H 238.177 4.73543 -0.0732101 0
M  V30 2552 H 238.601 6.45047 -2.05531 0
M  V30 2553 H 243.243 4.22363 -0.192134 0
M  V30 2554 H 240.961 7.34717 -3.36476 0
M  V30 2555 H 244.547 5.51629 -1.84924 0
M  V30 2556 H 243.427 7.05974 -3.41424 0
M  V30 2557 N 240.93 -0.123565 1.57115 0
M  V30 2558 C 242.17 -0.838097 1.86428 0
M  V30 2559 C 242.534 -1.77266 0.737611 0
M  V30 2560 O 243.735 -2.52842 0.912389 0
M  V30 2561 C 242.006 -1.57219 3.20962 0
M  V30 2562 S 243.565 -2.32893 3.71896 0
M  V30 2563 H 240.383 -0.279811 0.653626 0
M  V30 2564 H 242.985 -0.0967034 1.95261 0
M  V30 2565 H 241.689 -0.877522 4.00909 0
M  V30 2566 H 241.22 -2.35405 3.15195 0
M  V30 2567 H 243.235 -3.5853 3.43032 0
M  V30 2568 N 242.408 -1.52605 -0.393616 0
M  V30 2569 C 243.638 -1.71046 -1.15874 0
M  V30 2570 C 244.046 -0.426483 -1.84331 0
M  V30 2571 O 243.389 0.608513 -1.73329 0
M  V30 2572 C 243.451 -2.80118 -2.25332 0
M  V30 2573 C 243.115 -4.21381 -1.76881 0
M  V30 2574 C 244.112 -5.04697 -1.24808 0
M  V30 2575 C 241.797 -4.67683 -1.83244 0
M  V30 2576 C 243.791 -6.32393 -0.797387 0
M  V30 2577 C 241.478 -5.95364 -1.37787 0
M  V30 2578 C 242.476 -6.77549 -0.861208 0
M  V30 2579 O 242.164 -8.02837 -0.413252 0
M  V30 2580 H 241.896 -0.576155 -0.353583 0
M  V30 2581 H 244.45 -2.00018 -0.467123 0
M  V30 2582 H 242.68 -2.46557 -2.97904 0
M  V30 2583 H 244.369 -2.87006 -2.87023 0
M  V30 2584 H 245.135 -4.70111 -1.19252 0
M  V30 2585 H 241.014 -4.03805 -2.22401 0
M  V30 2586 H 244.558 -6.9649 -0.393437 0
M  V30 2587 H 240.455 -6.29455 -1.43026 0
M  V30 2588 H 241.223 -8.16749 -0.53515 0
M  V30 2589 N 243.887 0.651787 -1.4349 0
M  V30 2590 C 245.115 1.43937 -1.48626 0
M  V30 2591 C 245.53 1.8851 -0.104587 0
M  V30 2592 O 244.887 1.5958 0.885464 0
M  V30 2593 C 244.938 2.6734 -2.43334 0
M  V30 2594 O 244.659 2.24631 -3.76128 0
M  V30 2595 C 246.16 3.60683 -2.57726 0
M  V30 2596 H 243.38 0.44213 -0.504739 0
M  V30 2597 H 245.924 0.798944 -1.88248 0
M  V30 2598 H 244.079 3.2752 -2.06904 0
M  V30 2599 H 244.493 3.04485 -4.2707 0
M  V30 2600 H 245.967 4.43933 -3.28067 0
M  V30 2601 H 246.444 4.08126 -1.62265 0
M  V30 2602 H 247.05 3.06384 -2.94973 0
M  V30 2603 N 245.365 1.30045 0.890287 0
M  V30 2604 C 246.593 1.21472 1.67487 0
M  V30 2605 C 247.008 -0.223241 1.87476 0
M  V30 2606 O 246.365 -1.14828 1.41847 0
M  V30 2607 C 246.416 1.93394 3.05419 0
M  V30 2608 O 246.137 3.31576 2.86337 0
M  V30 2609 C 247.638 1.91414 3.99844 0
M  V30 2610 H 244.858 0.420604 0.522813 0
M  V30 2611 H 247.402 1.7158 1.11268 0
M  V30 2612 H 245.557 1.47099 3.58386 0
M  V30 2613 H 245.971 3.67929 3.73802 0
M  V30 2614 H 247.445 2.46285 4.94012 0
M  V30 2615 H 247.922 0.891833 4.3005 0
M  V30 2616 H 248.528 2.37496 3.52811 0
M  V30 2617 N 246.843 -1.10192 1.12674 0
M  V30 2618 C 248.12 -1.78717 0.794965 0
M  V30 2619 C 248.5 -1.98628 -0.714853 0
M  V30 2620 O 247.848 -1.58135 -1.64941 0
M  V30 2621 C 248.058 -3.11546 1.5729 0
M  V30 2622 C 249.406 -3.86382 1.76052 0
M  V30 2623 O 250.43 -3.21274 1.53823 0
M  V30 2624 O 249.289 -5.03246 2.13087 0
M  V30 2625 H 246.383 -0.774702 0.289423 0
M  V30 2626 H 248.929 -1.16819 1.23091 0
M  V30 2627 H 247.701 -2.92489 2.59935 0
M  V30 2628 H 247.324 -3.81164 1.13137 0
M  V30 2629 N 248.321 -0.919034 -1.28029 0
M  V30 2630 C 249.732 -0.600735 -1.76771 0
M  V30 2631 C 250.083 0.884024 -1.75156 0
M  V30 2632 O 249.208 1.69163 -1.34956 0
M  V30 2633 C 249.803 -1.08372 -3.21 0
M  V30 2634 C 248.362 -0.816248 -3.67443 0
M  V30 2635 C 247.509 -1.24742 -2.47658 0
M  V30 2636 H 250.46 -1.09974 -1.14418 0
M  V30 2637 H 250.481 -0.427512 -3.78091 0
M  V30 2638 H 249.993 -2.16437 -3.22144 0
M  V30 2639 H 248.094 0.250968 -3.71754 0
M  V30 2640 H 248.207 -1.4277 -4.57333 0
M  V30 2641 H 246.571 -0.666083 -2.45836 0
M  V30 2642 H 247.354 -2.33653 -2.51518 0
M  V30 2643 N 249.799 1.42003 -0.683588 0
M  V30 2644 C 250.709 2.34597 -0.0109075 0
M  V30 2645 C 251.725 1.55576 0.779245 0
M  V30 2646 O 252.901 1.88107 0.719555 0
M  V30 2647 C 249.966 3.34199 0.922588 0
M  V30 2648 C 249.027 4.29115 0.125984 0
M  V30 2649 C 248.26 5.23959 1.01502 0
M  V30 2650 O 248.483 5.23952 2.25456 0
M  V30 2651 O 247.417 6.00053 0.47111 0
M  V30 2652 H 251.243 2.93675 -0.773853 0
M  V30 2653 H 248.828 1.42654 -0.443861 0
M  V30 2654 H 250.71 3.95365 1.45823 0
M  V30 2655 H 249.385 2.77582 1.66523 0
M  V30 2656 H 248.292 3.71335 -0.453969 0
M  V30 2657 H 249.625 4.88798 -0.577736 0
M  V30 2658 N 251.277 0.427512 1.51691 0
M  V30 2659 C 252.224 -0.388867 2.275 0
M  V30 2660 C 253.194 -1.02532 1.30677 0
M  V30 2661 O 254.379 -1.0461 1.59566 0
M  V30 2662 C 251.519 -1.48954 3.11298 0
M  V30 2663 C 250.632 -0.872194 4.23104 0
M  V30 2664 C 249.767 -1.94709 4.94228 0
M  V30 2665 C 248.806 -1.30766 5.97969 0
M  V30 2666 N 247.943 -2.32349 6.62539 0
M  V30 2667 H 252.783 0.263997 2.96828 0
M  V30 2668 H 250.32 0.142033 1.46413 0
M  V30 2669 H 252.278 -2.13887 3.58201 0
M  V30 2670 H 250.908 -2.11217 2.44105 0
M  V30 2671 H 249.96 -0.111419 3.80237 0
M  V30 2672 H 251.272 -0.365264 4.97461 0
M  V30 2673 H 250.426 -2.67327 5.44629 0
M  V30 2674 H 249.165 -2.48773 4.1948 0
M  V30 2675 H 248.17 -0.566902 5.4687 0
M  V30 2676 H 249.395 -0.774483 6.74669 0
M  V30 2677 H 247.341 -2.85511 5.90609 0
M  V30 2678 H 247.258 -1.8652 7.3263 0
M  V30 2679 H 248.526 -3.04481 7.17574 0
M  V30 2680 N 252.755 -1.56801 0.158532 0
M  V30 2681 C 254.171 -1.5837 -0.197774 0
M  V30 2682 C 254.371 -1.17334 -1.63814 0
M  V30 2683 O 253.427 -0.878988 -2.36707 0
M  V30 2684 C 254.74 -3.00615 0.0714459 0
M  V30 2685 C 256.288 -3.12999 0.00864533 0
M  V30 2686 C 256.763 -4.57313 0.250685 0
M  V30 2687 N 258.254 -4.62777 0.198014 0
M  V30 2688 C 258.989 -5.72271 0.359642 0
M  V30 2689 N 258.485 -6.90371 0.579625 0
M  V30 2690 N 260.278 -5.61318 0.296438 0
M  V30 2691 H 252.429 -1.81765 1.09887 0
M  V30 2692 H 254.692 -0.841849 0.435884 0
M  V30 2693 H 254.398 -3.35068 1.06874 0
M  V30 2694 H 254.272 -3.71683 -0.642757 0
M  V30 2695 H 256.659 -2.7838 -0.979217 0
M  V30 2696 H 256.74 -2.44393 0.755359 0
M  V30 2697 H 256.384 -4.92639 1.2357 0
M  V30 2698 H 256.314 -5.24061 -0.516489 0
M  V30 2699 H 258.805 -3.77885 0.0331115 0
M  V30 2700 H 259.118 -7.69689 0.69275 0
M  V30 2701 H 257.463 -6.92264 0.616087 0
M  V30 2702 H 260.654 -4.67932 0.125258 0
M  V30 2703 H 260.827 -6.46599 0.425831 0
M  V30 2704 N 254.233 0.115231 -1.57178 0
M  V30 2705 C 255.463 0.835224 -1.88964 0
M  V30 2706 C 255.871 1.73774 -0.74829 0
M  V30 2707 O 255.214 1.81401 0.289739 0
M  V30 2708 C 255.276 1.7178 -3.15804 0
M  V30 2709 C 254.94 0.989198 -4.46166 0
M  V30 2710 C 255.937 0.328263 -5.18863 0
M  V30 2711 C 253.622 0.969256 -4.9286 0
M  V30 2712 C 255.616 -0.342873 -6.36477 0
M  V30 2713 C 253.303 0.294324 -6.10391 0
M  V30 2714 C 254.301 -0.360582 -6.82048 0
M  V30 2715 O 253.989 -1.02474 -7.97342 0
M  V30 2716 H 253.721 0.245197 -0.629964 0
M  V30 2717 H 256.275 0.10303 -2.05141 0
M  V30 2718 H 254.505 2.49173 -2.95719 0
M  V30 2719 H 256.194 2.31255 -3.33581 0
M  V30 2720 H 256.96 0.335263 -4.8384 0
M  V30 2721 H 252.839 1.46844 -4.36987 0
M  V30 2722 H 256.383 -0.854629 -6.92345 0
M  V30 2723 H 252.28 0.285099 -6.4487 0
M  V30 2724 H 253.048 -0.929594 -8.13204 0
M  V30 2725 N 255.711 1.52812 0.385517 0
M  V30 2726 C 256.988 1.5861 1.14465 0
M  V30 2727 C 257.368 0.381402 2.07626 0
M  V30 2728 O 256.716 -0.629999 2.19643 0
M  V30 2729 C 256.926 2.92664 1.90128 0
M  V30 2730 C 258.274 3.46526 2.45367 0
M  V30 2731 O 259.298 2.94562 2.0028 0
M  V30 2732 O 258.157 4.37323 3.27736 0
M  V30 2733 H 255.251 0.639855 0.523941 0
M  V30 2734 H 257.797 1.65149 0.390389 0
M  V30 2735 H 256.569 3.71788 1.22022 0
M  V30 2736 H 256.192 2.89527 2.72507 0
M  V30 2737 N 257.189 -0.644168 1.43834 0
M  V30 2738 C 258.419 -1.42939 1.49171 0
M  V30 2739 C 258.827 -1.88874 0.111048 0
M  V30 2740 O 258.17 -1.60656 -0.8908 0
M  V30 2741 C 258.232 -2.69151 2.38324 0
M  V30 2742 C 257.896 -2.45097 3.85715 0
M  V30 2743 C 258.893 -2.07747 4.76589 0
M  V30 2744 C 256.578 -2.59141 4.30292 0
M  V30 2745 C 258.572 -1.8475 6.10038 0
M  V30 2746 C 256.259 -2.35759 5.63792 0
M  V30 2747 C 257.257 -1.9862 6.53482 0
M  V30 2748 O 256.945 -1.75489 7.84512 0
M  V30 2749 H 256.677 -0.445271 0.508635 0
M  V30 2750 H 259.231 -0.79621 1.8934 0
M  V30 2751 H 257.461 -3.3506 1.93058 0
M  V30 2752 H 259.15 -3.31123 2.3476 0
M  V30 2753 H 259.916 -1.96465 4.43426 0
M  V30 2754 H 255.795 -2.87022 3.60749 0
M  V30 2755 H 259.339 -1.55686 6.80006 0
M  V30 2756 H 255.236 -2.46646 5.9652 0
M  V30 2757 H 256.004 -1.89841 7.9618 0
M  V30 2758 N 258.668 -1.30515 -0.883378 0
M  V30 2759 C 259.908 -1.20716 -1.64946 0
M  V30 2760 C 260.272 0.234072 -1.90568 0
M  V30 2761 O 261.473 0.455335 -2.64915 0
M  V30 2762 C 259.744 -2.01444 -2.9522 0
M  V30 2763 S 261.303 -2.0836 -3.86175 0
M  V30 2764 H 258.121 -0.430165 -0.566109 0
M  V30 2765 H 260.723 -1.65011 -1.04841 0
M  V30 2766 H 259.427 -3.05268 -2.74298 0
M  V30 2767 H 258.958 -1.57817 -3.60357 0
M  V30 2768 H 260.973 -1.21215 -4.81167 0
M  V30 2769 N 260.146 1.09593 -1.13257 0
M  V30 2770 C 261.423 1.78293 -0.804432 0
M  V30 2771 C 261.803 1.99004 0.70431 0
M  V30 2772 O 261.151 1.59007 1.641 0
M  V30 2773 C 261.361 3.10707 -1.5894 0
M  V30 2774 C 262.709 3.85443 -1.78099 0
M  V30 2775 O 263.733 3.20454 -1.55525 0
M  V30 2776 O 262.592 5.02108 -2.15753 0
M  V30 2777 H 259.686 0.773156 -0.293528 0
M  V30 2778 H 262.232 1.16164 -1.23709 0
M  V30 2779 H 261.004 2.91106 -2.61482 0
M  V30 2780 H 260.627 3.80558 -1.15157 0
M  V30 2781 N 261.624 0.925811 1.2754 0
M  V30 2782 C 262.873 0.561084 1.93739 0
M  V30 2783 C 263.186 -0.901685 1.73577 0
M  V30 2784 O 264.392 -1.37511 2.34101 0
M  V30 2785 C 262.848 0.952668 3.47062 0
M  V30 2786 C 262.456 2.43599 3.75983 0
M  V30 2787 C 264.2 0.659103 4.19352 0
M  V30 2788 C 262.107 2.76707 5.22673 0
M  V30 2789 H 261.037 0.206122 0.725279 0
M  V30 2790 H 263.688 1.12637 1.44863 0
M  V30 2791 H 262.07 0.316053 3.94737 0
M  V30 2792 H 263.244 3.12035 3.39073 0
M  V30 2793 H 261.559 2.70125 3.16893 0
M  V30 2794 H 264.156 0.882985 5.27359 0
M  V30 2795 H 264.499 -0.403607 4.14339 0
M  V30 2796 H 265.032 1.25473 3.77494 0
M  V30 2797 H 261.771 3.8188 5.32774 0
M  V30 2798 H 261.291 2.12919 5.60737 0
M  V30 2799 H 262.97 2.6435 5.90532 0
M  V30 2800 N 263.102 -1.41638 0.69111 0
M  V30 2801 C 264.032 -2.3347 0.037248 0
M  V30 2802 C 265.013 -1.51575 -0.771947 0
M  V30 2803 O 266.198 -1.80126 -0.72582 0
M  V30 2804 C 263.328 -3.35354 -0.903064 0
M  V30 2805 C 262.282 -4.27526 -0.201288 0
M  V30 2806 C 261.608 -5.19747 -1.25565 0
M  V30 2807 C 262.908 -5.13959 0.929689 0
M  V30 2808 H 264.602 -2.88397 0.804227 0
M  V30 2809 H 262.148 -1.38669 0.388189 0
M  V30 2810 H 264.101 -3.98519 -1.36969 0
M  V30 2811 H 262.825 -2.78767 -1.70166 0
M  V30 2812 H 261.484 -3.65779 0.245265 0
M  V30 2813 H 261.132 -4.59479 -2.04666 0
M  V30 2814 H 260.832 -5.8225 -0.791128 0
M  V30 2815 H 262.356 -5.85789 -1.72288 0
M  V30 2816 H 263.77 -5.70718 0.543546 0
M  V30 2817 H 262.167 -5.85379 1.32103 0
M  V30 2818 H 263.237 -4.51389 1.77133 0
M  V30 2819 N 264.58 -0.43555 -1.51462 0
M  V30 2820 C 265.49 0.383001 -2.31453 0
M  V30 2821 C 266.506 1.02931 -1.4029 0
M  V30 2822 O 267.682 1.02507 -1.73362 0
M  V30 2823 C 264.747 1.47043 -3.13973 0
M  V30 2824 C 263.808 0.844433 -4.20913 0
M  V30 2825 C 263.041 1.88004 -4.9949 0
M  V30 2826 O 263.264 3.10199 -4.78678 0
M  V30 2827 O 262.198 1.47157 -5.83634 0
M  V30 2828 H 266.024 -0.269964 -3.02498 0
M  V30 2829 H 263.609 -0.19813 -1.4808 0
M  V30 2830 H 265.491 2.10113 -3.65281 0
M  V30 2831 H 264.166 2.10751 -2.45695 0
M  V30 2832 H 263.073 0.175729 -3.73687 0
M  V30 2833 H 264.406 0.250869 -4.9156 0
M  V30 2834 N 266.058 1.56714 -0.166846 0
M  V30 2835 C 267.298 1.98641 0.481763 0
M  V30 2836 C 267.662 1.05038 1.6072 0
M  V30 2837 O 268.863 1.36087 2.31805 0
M  V30 2838 C 267.134 3.44362 0.956517 0
M  V30 2839 S 268.693 4.08317 1.60694 0
M  V30 2840 H 265.511 0.693873 0.155116 0
M  V30 2841 H 268.113 1.93719 -0.263251 0
M  V30 2842 H 266.817 4.10204 0.126936 0
M  V30 2843 H 266.348 3.53041 1.73568 0
M  V30 2844 H 268.363 4.02999 2.89494 0
M  V30 2845 N 267.536 -0.106894 1.57237 0
M  V30 2846 C 268.446 -1.14911 2.0453 0
M  V30 2847 C 269.462 -1.44592 0.96795 0
M  V30 2848 O 270.638 -1.55468 1.2803 0
M  V30 2849 C 267.703 -2.45272 2.45036 0
M  V30 2850 C 266.764 -2.22879 3.66911 0
M  V30 2851 C 265.997 -3.47024 4.05475 0
M  V30 2852 O 266.22 -4.54804 3.44252 0
M  V30 2853 O 265.154 -3.3731 4.98504 0
M  V30 2854 H 268.98 -0.777461 2.9358 0
M  V30 2855 H 266.565 -0.318563 1.45964 0
M  V30 2856 H 268.447 -3.22055 2.71769 0
M  V30 2857 H 267.122 -2.81886 1.59129 0
M  V30 2858 H 266.029 -1.43915 3.45311 0
M  V30 2859 H 267.362 -1.91163 4.53561 0
M  V30 2860 N 269.014 -1.53014 -0.377408 0
M  V30 2861 C 269.924 -1.81557 -1.48574 0
M  V30 2862 C 270.94 -0.703102 -1.59162 0
M  V30 2863 O 272.116 -0.99192 -1.75279 0
M  V30 2864 C 269.181 -1.9889 -2.83978 0
M  V30 2865 C 268.242 -3.22801 -2.83016 0
M  V30 2866 C 267.475 -3.39298 -4.11962 0
M  V30 2867 O 267.698 -2.60345 -5.0752 0
M  V30 2868 O 266.632 -4.32604 -4.18494 0
M  V30 2869 H 270.458 -2.75695 -1.27382 0
M  V30 2870 H 268.043 -1.38248 -0.566373 0
M  V30 2871 H 269.925 -2.11931 -3.6423 0
M  V30 2872 H 268.6 -1.07942 -3.05172 0
M  V30 2873 H 267.507 -3.15193 -2.01505 0
M  V30 2874 H 268.84 -4.13632 -2.66775 0
M  V30 2875 N 270.492 0.636531 -1.44174 0
M  V30 2876 C 271.402 1.77754 -1.53103 0
M  V30 2877 C 272.418 1.68928 -0.417034 0
M  V30 2878 O 273.594 1.89801 -0.6736 0
M  V30 2879 C 270.659 3.14115 -1.46741 0
M  V30 2880 C 269.72 3.34612 -2.68948 0
M  V30 2881 C 268.953 4.64467 -2.6288 0
M  V30 2882 O 269.176 5.44919 -1.68581 0
M  V30 2883 O 268.11 4.87049 -3.53648 0
M  V30 2884 H 271.936 1.73174 -2.49489 0
M  V30 2885 H 269.521 0.79709 -1.2636 0
M  V30 2886 H 271.403 3.95412 -1.45696 0
M  V30 2887 H 270.078 3.19249 -0.534975 0
M  V30 2888 H 268.985 2.53014 -2.75562 0
M  V30 2889 H 270.318 3.34336 -3.61221 0
M  V30 2890 N 271.97 1.30982 0.876444 0
M  V30 2891 C 273.21 1.21589 1.64303 0
M  V30 2892 C 273.574 -0.223962 1.90689 0
M  V30 2893 O 274.775 -0.44128 2.65153 0
M  V30 2894 C 273.046 2.03007 2.94148 0
M  V30 2895 S 274.605 2.10405 3.85065 0
M  V30 2896 H 271.423 0.433161 0.563819 0
M  V30 2897 H 274.025 1.65565 1.03964 0
M  V30 2898 H 272.729 3.06719 2.72675 0
M  V30 2899 H 272.26 1.59725 3.59515 0
M  V30 2900 H 274.275 1.23765 4.80517 0
M  V30 2901 N 273.449 -1.08991 1.13837 0
M  V30 2902 C 274.382 -2.15049 0.763477 0
M  V30 2903 C 275.36 -1.60629 -0.252398 0
M  V30 2904 O 276.544 -1.87958 -0.142853 0
M  V30 2905 C 273.671 -3.38441 0.132545 0
M  V30 2906 C 272.717 -4.11596 1.11763 0
M  V30 2907 S 273.55 -4.6521 2.65216 0
M  V30 2908 C 274.706 -5.91896 2.03495 0
M  V30 2909 H 274.939 -2.46518 1.66182 0
M  V30 2910 H 272.472 -1.21008 0.958976 0
M  V30 2911 H 274.43 -4.09883 -0.225074 0
M  V30 2912 H 273.091 -3.05182 -0.743135 0
M  V30 2913 H 272.284 -5.00121 0.624076 0
M  V30 2914 H 271.886 -3.46038 1.41894 0
M  V30 2915 H 274.178 -6.63156 1.38675 0
M  V30 2916 H 275.121 -6.45938 2.9012 0
M  V30 2917 H 275.529 -5.44625 1.48471 0
M  V30 2918 N 274.927 -0.932562 -1.27047 0
M  V30 2919 C 275.877 -0.406392 -2.24349 0
M  V30 2920 C 276.861 0.492066 -1.53191 0
M  V30 2921 O 278.053 0.328717 -1.73921 0
M  V30 2922 C 275.182 0.335214 -3.41659 0
M  V30 2923 C 274.268 -0.58004 -4.20115 0
M  V30 2924 N 274.659 -1.70203 -4.76303 0
M  V30 2925 C 272.957 -0.383974 -4.44344 0
M  V30 2926 C 273.658 -2.27167 -5.35509 0
M  V30 2927 N 272.634 -1.56068 -5.20715 0
M  V30 2928 H 276.436 -1.26299 -2.65378 0
M  V30 2929 H 273.95 -0.787408 -1.42034 0
M  V30 2930 H 275.947 0.729142 -4.10474 0
M  V30 2931 H 274.607 1.18868 -3.0216 0
M  V30 2932 H 275.618 -2.08433 -4.74106 0
M  V30 2933 H 272.295 0.428436 -4.15296 0
M  V30 2934 H 273.685 -3.21654 -5.89905 0
M  V30 2935 N 276.405 1.4127 -0.698611 0
M  V30 2936 C 277.645 2.03044 -0.235062 0
M  V30 2937 C 278.009 1.54146 1.14468 0
M  V30 2938 O 279.21 2.07867 1.70425 0
M  V30 2939 C 277.481 3.56192 -0.293651 0
M  V30 2940 S 279.04 4.38696 0.0954053 0
M  V30 2941 H 275.858 0.704697 -0.0944648 0
M  V30 2942 H 278.46 1.72656 -0.917064 0
M  V30 2943 H 277.164 3.89274 -1.29977 0
M  V30 2944 H 276.695 3.91285 0.407397 0
M  V30 2945 H 278.71 4.78257 1.3223 0
M  V30 2946 N 277.883 0.443576 1.51229 0
M  V30 2947 C 279.108 -0.121648 2.07043 0
M  V30 2948 C 279.533 -1.35156 1.30823 0
M  V30 2949 O 278.891 -1.7793 0.347934 0
M  V30 2950 C 278.939 -0.41624 3.5819 0
M  V30 2951 O 278.043 -1.50163 3.8409 0
M  V30 2952 H 277.384 0.000871367 0.663999 0
M  V30 2953 H 279.914 0.626706 1.94765 0
M  V30 2954 H 279.924 -0.664867 4.02546 0
M  V30 2955 H 278.599 0.482653 4.1309 0
M  V30 2956 H 277.176 -1.24248 3.51592 0
M  V30 2957 N 279.361 -1.56624 0.175154 0
M  V30 2958 C 280.609 -1.96609 -0.467885 0
M  V30 2959 C 280.93 -1.06238 -1.63519 0
M  V30 2960 O 280.2 -0.129523 -1.95471 0
M  V30 2961 H 278.78 -0.726008 -0.175845 0
M  V30 2962 H 281.442 -1.93195 0.257234 0
M  V30 2963 H 280.538 -3.00989 -0.825342 0
M  V30 2964 N 280.839 0.0985539 -1.57292 0
M  V30 2965 C 281.749 1.13824 -2.05137 0
M  V30 2966 C 282.765 1.44076 -0.975604 0
M  V30 2967 O 283.941 1.54786 -1.28853 0
M  V30 2968 C 281.006 2.43969 -2.46333 0
M  V30 2969 C 280.067 2.2093 -3.68087 0
M  V30 2970 C 279.3 3.44869 -4.0731 0
M  V30 2971 O 279.523 4.52972 -3.46659 0
M  V30 2972 O 278.457 3.34661 -5.00285 0
M  V30 2973 H 282.283 0.761881 -2.93988 0
M  V30 2974 H 279.868 0.310818 -1.46131 0
M  V30 2975 H 281.75 3.20609 -2.73473 0
M  V30 2976 H 280.425 2.81038 -1.60621 0
M  V30 2977 H 279.332 1.42081 -3.46069 0
M  V30 2978 H 280.665 1.88755 -4.54568 0
M  V30 2979 N 282.317 1.53212 0.369288 0
M  V30 2980 C 283.265 1.80054 1.47253 0
M  V30 2981 C 284.259 0.669456 1.55611 0
M  V30 2982 O 285.465 0.852328 1.58541 0
M  V30 2983 H 281.84 0.570034 0.490475 0
M  V30 2984 H 283.811 2.72403 1.21817 0
M  V30 2985 C 282.56 2.00403 2.84137 0
M  V30 2986 H 281.883 2.86876 2.78464 0
M  V30 2987 H 283.323 2.23164 3.60519 0
M  V30 2988 C 281.782 0.782081 3.27697 0
M  V30 2989 O 282.312 -0.0310205 4.01688 0
M  V30 2990 N 280.518 0.606573 2.84199 0
M  V30 2991 H 280.065 1.26939 2.24152 0
M  V30 2992 H 280.023 -0.20962 3.137 0
M  V30 2993 N 283.795 -0.628877 1.44509 0
M  V30 2994 C 285.025 -1.41349 1.50678 0
M  V30 2995 C 285.433 -1.88745 0.131075 0
M  V30 2996 O 284.776 -1.61592 -0.87371 0
M  V30 2997 C 284.838 -2.66608 2.41165 0
M  V30 2998 C 284.502 -2.40993 3.88293 0
M  V30 2999 C 285.499 -2.0268 4.78766 0
M  V30 3000 C 283.184 -2.54563 4.33016 0
M  V30 3001 C 285.178 -1.78269 6.11963 0
M  V30 3002 C 282.865 -2.29766 5.6626 0
M  V30 3003 C 283.863 -1.91678 6.55552 0
M  V30 3004 O 283.551 -1.67158 7.86329 0
M  V30 3005 H 283.283 -0.439851 0.51333 0
M  V30 3006 H 285.837 -0.776084 1.90174 0
M  V30 3007 H 284.067 -3.32994 1.96601 0
M  V30 3008 H 285.756 -3.28615 2.38259 0
M  V30 3009 H 286.522 -1.91751 4.45485 0
M  V30 3010 H 282.401 -2.83179 3.63773 0
M  V30 3011 H 285.945 -1.48465 6.81619 0
M  V30 3012 H 281.842 -2.40306 5.99102 0
M  V30 3013 H 282.61 -1.81386 7.98149 0
M  V30 3014 N 285.273 -1.31445 -0.869486 0
M  V30 3015 C 286.55 -1.11795 -1.60503 0
M  V30 3016 C 286.93 0.327168 -2.08549 0
M  V30 3017 O 286.278 1.32135 -1.8642 0
M  V30 3018 C 286.488 -2.13258 -2.76265 0
M  V30 3019 C 287.836 -2.45805 -3.46215 0
M  V30 3020 O 288.86 -2.11688 -2.86473 0
M  V30 3021 O 287.719 -3.04228 -4.5399 0
M  V30 3022 H 284.813 -0.430421 -0.706163 0
M  V30 3023 H 287.359 -1.42925 -0.914907 0
M  V30 3024 H 286.131 -3.10461 -2.3818 0
M  V30 3025 H 285.754 -1.83035 -3.52964 0
M  V30 3026 N 286.751 1.08385 -1.14413 0
M  V30 3027 C 287.999 1.80419 -0.910679 0
M  V30 3028 C 288.32 1.86658 0.564243 0
M  V30 3029 O 287.59 1.35985 1.41014 0
M  V30 3030 H 286.17 0.668204 -0.333934 0
M  V30 3031 H 288.832 1.31037 -1.44275 0
M  V30 3032 H 287.928 2.83238 -1.31082 0
M  V30 3033 N 288.23 0.939286 1.26551 0
M  V30 3034 C 289.177 0.446088 2.26448 0
M  V30 3035 C 290.147 -0.493234 1.58608 0
M  V30 3036 O 291.332 -0.409857 1.86346 0
M  V30 3037 C 288.472 -0.284375 3.43926 0
M  V30 3038 C 287.585 0.690399 4.26448 0
M  V30 3039 C 286.72 -0.0610712 5.31165 0
M  V30 3040 C 285.759 0.905649 6.05363 0
M  V30 3041 N 284.896 0.186055 7.01853 0
M  V30 3042 H 289.736 1.30291 2.68008 0
M  V30 3043 H 287.273 0.65371 1.31776 0
M  V30 3044 H 289.231 -0.724313 4.10864 0
M  V30 3045 H 287.861 -1.10535 3.03285 0
M  V30 3046 H 286.913 1.24885 3.59316 0
M  V30 3047 H 288.225 1.42873 4.779 0
M  V30 3048 H 287.379 -0.56038 6.04106 0
M  V30 3049 H 286.118 -0.832297 4.80546 0
M  V30 3050 H 285.123 1.4161 5.3125 0
M  V30 3051 H 286.348 1.67685 6.58072 0
M  V30 3052 H 284.294 -0.566714 6.53548 0
M  V30 3053 H 284.211 0.863752 7.51049 0
M  V30 3054 H 285.479 -0.292221 7.78952 0
M  V30 3055 N 289.708 -1.40897 0.706093 0
M  V30 3056 C 290.957 -2.00284 0.238574 0
M  V30 3057 C 291.27 -1.56604 -1.17194 0
M  V30 3058 O 292.476 -2.08624 -1.73748 0
M  V30 3059 C 290.932 -3.57934 0.375623 0
M  V30 3060 C 290.54 -4.10591 1.79217 0
M  V30 3061 C 292.284 -4.24488 -0.0315857 0
M  V30 3062 C 290.191 -5.60712 1.88032 0
M  V30 3063 H 289.121 -0.749144 0.0854398 0
M  V30 3064 H 291.772 -1.61251 0.875813 0
M  V30 3065 H 290.154 -3.94622 -0.330042 0
M  V30 3066 H 291.328 -3.85301 2.52745 0
M  V30 3067 H 289.643 -3.56601 2.15 0
M  V30 3068 H 292.24 -5.34698 0.0136842 0
M  V30 3069 H 292.583 -4.02261 -1.072 0
M  V30 3070 H 293.116 -3.92873 0.624181 0
M  V30 3071 H 289.855 -5.87781 2.90161 0
M  V30 3072 H 289.375 -5.87896 1.18903 0
M  V30 3073 H 291.054 -6.25658 1.64805 0
M  V30 3074 N 291.186 -0.45159 -1.50991 0
M  V30 3075 C 292.411 0.110667 -2.07105 0
M  V30 3076 C 292.836 1.3446 -1.31538 0
M  V30 3077 O 292.194 1.77743 -0.357365 0
M  V30 3078 C 292.242 0.397238 -3.58405 0
M  V30 3079 O 291.346 1.48124 -3.84881 0
M  V30 3080 H 290.687 -0.00439271 -0.663985 0
M  V30 3081 H 293.217 -0.637026 -1.9443 0
M  V30 3082 H 293.227 0.64351 -4.02893 0
M  V30 3083 H 291.902 -0.504553 -4.12828 0
M  V30 3084 H 290.479 1.22381 -3.52246 0
M  V30 3085 N 292.664 1.56529 -0.183458 0
M  V30 3086 C 293.611 2.18546 0.742055 0
M  V30 3087 C 294.581 1.12912 1.2182 0
M  V30 3088 O 295.766 1.41115 1.28418 0
M  V30 3089 C 292.906 2.83977 1.96089 0
M  V30 3090 C 292.019 4.04105 1.52719 0
M  V30 3091 C 291.154 4.57427 2.70063 0
M  V30 3092 C 290.193 5.69938 2.23243 0
M  V30 3093 N 289.33 6.17717 3.33722 0
M  V30 3094 H 294.17 2.97284 0.206432 0
M  V30 3095 H 291.707 1.46823 0.0901571 0
M  V30 3096 H 293.665 3.20077 2.67594 0
M  V30 3097 H 292.295 2.07822 2.47002 0
M  V30 3098 H 291.347 3.73745 0.708436 0
M  V30 3099 H 292.659 4.85513 1.1436 0
M  V30 3100 H 291.813 4.95772 3.49708 0
M  V30 3101 H 290.552 3.75101 3.11689 0
M  V30 3102 H 289.557 5.31133 1.42048 0
M  V30 3103 H 290.782 6.54073 1.82661 0
M  V30 3104 H 288.728 5.38317 3.74902 0
M  V30 3105 H 288.645 6.94146 2.99495 0
M  V30 3106 H 289.913 6.60713 4.13616 0
M  V30 3107 N 294.142 -0.090211 1.57342 0
M  V30 3108 C 295.37 -0.806224 1.90546 0
M  V30 3109 C 295.785 -1.72041 0.777644 0
M  V30 3110 O 295.142 -1.80778 -0.250103 0
M  V30 3111 C 295.193 -1.61546 3.23396 0
M  V30 3112 O 294.914 -0.738043 4.31839 0
M  V30 3113 C 296.415 -2.4341 3.70495 0
M  V30 3114 H 293.635 -0.230256 0.630257 0
M  V30 3115 H 296.179 -0.0659843 2.04394 0
M  V30 3116 H 294.334 -2.30816 3.11131 0
M  V30 3117 H 294.748 -1.29901 5.08159 0
M  V30 3118 H 296.222 -2.95676 4.66133 0
M  V30 3119 H 296.699 -3.22098 2.98579 0
M  V30 3120 H 297.305 -1.79331 3.85643 0
M  V30 3121 N 295.62 -1.53406 -0.361157 0
M  V30 3122 C 296.553 -1.74946 -1.46524 0
M  V30 3123 C 297.531 -0.59795 -1.51206 0
M  V30 3124 O 298.715 -0.831062 -1.69191 0
M  V30 3125 C 295.842 -1.83224 -2.84863 0
M  V30 3126 C 294.888 -3.05233 -2.97885 0
M  V30 3127 S 295.721 -4.6466 -2.66179 0
M  V30 3128 C 296.877 -4.75793 -4.06659 0
M  V30 3129 H 297.11 -2.68319 -1.28033 0
M  V30 3130 H 294.643 -1.44051 -0.555764 0
M  V30 3131 H 296.601 -1.88679 -3.64569 0
M  V30 3132 H 295.262 -0.908948 -3.00661 0
M  V30 3133 H 294.455 -3.07648 -3.9921 0
M  V30 3134 H 294.057 -2.97913 -2.26106 0
M  V30 3135 H 296.349 -4.5612 -5.0096 0
M  V30 3136 H 297.292 -5.7786 -4.09247 0
M  V30 3137 H 297.7 -4.04389 -3.93865 0
M  V30 3138 N 297.098 0.621204 -1.44841 0
M  V30 3139 C 298.323 1.41244 -1.51871 0
M  V30 3140 C 298.748 1.87519 -0.147764 0
M  V30 3141 O 298.106 1.59334 0.865 0
M  V30 3142 C 298.154 2.60221 -2.49634 0
M  V30 3143 O 297.258 3.60395 -2.00473 0
M  V30 3144 H 296.599 0.42223 -0.512463 0
M  V30 3145 H 299.129 0.757305 -1.90069 0
M  V30 3146 H 299.139 3.0764 -2.67996 0
M  V30 3147 H 297.814 2.25887 -3.4921 0
M  V30 3148 H 296.391 3.19717 -1.91925 0
M  V30 3149 N 298.576 1.31904 0.862503 0
M  V30 3150 C 299.824 1.21776 1.61292 0
M  V30 3151 C 300.145 -0.222413 1.93727 0
M  V30 3152 O 299.415 -1.1451 1.58947 0
M  V30 3153 H 297.995 0.447717 0.597962 0
M  V30 3154 H 300.657 1.65326 1.03215 0
M  V30 3155 H 299.753 1.7948 2.5533 0
M  V30 3156 N 300.054 -1.07777 1.14986 0
M  V30 3157 C 300.984 -2.16865 0.865557 0
M  V30 3158 C 301.965 -1.69123 -0.182083 0
M  V30 3159 O 303.15 -1.94164 -0.0373815 0
M  V30 3160 C 300.28 -3.45539 0.349313 0
M  V30 3161 C 299.234 -4.06708 1.33313 0
M  V30 3162 C 298.56 -5.30411 0.675918 0
M  V30 3163 C 299.86 -4.47241 2.69764 0
M  V30 3164 H 301.554 -2.40905 1.77778 0
M  V30 3165 H 299.1 -1.15781 0.856203 0
M  V30 3166 H 301.053 -4.21174 0.137983 0
M  V30 3167 H 299.777 -3.21072 -0.598362 0
M  V30 3168 H 298.436 -3.33112 1.53075 0
M  V30 3169 H 298.084 -5.02232 -0.277767 0
M  V30 3170 H 297.784 -5.72293 1.33244 0
M  V30 3171 H 299.308 -6.08755 0.474262 0
M  V30 3172 H 300.722 -5.14025 2.53873 0
M  V30 3173 H 299.119 -5.00062 3.3175 0
M  V30 3174 H 300.189 -3.58818 3.26156 0
M  V30 3175 N 301.532 -0.945985 -1.26051 0
M  V30 3176 C 302.442 -0.465633 -2.29933 0
M  V30 3177 C 303.458 0.462761 -1.67733 0
M  V30 3178 O 304.634 0.341118 -1.9849 0
M  V30 3179 C 301.699 0.256994 -3.45746 0
M  V30 3180 C 300.76 -0.708549 -4.23412 0
M  V30 3181 C 299.993 -0.0203135 -5.33696 0
M  V30 3182 O 300.216 1.19571 -5.57726 0
M  V30 3183 O 299.15 -0.701459 -5.97799 0
M  V30 3184 H 302.976 -1.32866 -2.73094 0
M  V30 3185 H 300.561 -0.712071 -1.31339 0
M  V30 3186 H 302.443 0.663852 -4.16138 0
M  V30 3187 H 301.118 1.09533 -3.04605 0
M  V30 3188 H 300.025 -1.16545 -3.55483 0
M  V30 3189 H 301.358 -1.51465 -4.68315 0
M  V30 3190 N 303.011 1.40521 -0.713556 0
M  V30 3191 C 304.251 2.02783 -0.256584 0
M  V30 3192 C 304.615 1.55352 1.12827 0
M  V30 3193 O 305.816 2.09663 1.68211 0
M  V30 3194 C 304.087 3.5586 -0.331414 0
M  V30 3195 S 305.646 4.38773 0.0488703 0
M  V30 3196 H 302.464 0.703655 -0.101934 0
M  V30 3197 H 305.066 1.71674 -0.935325 0
M  V30 3198 H 303.77 3.87874 -1.34098 0
M  V30 3199 H 303.301 3.91695 0.365873 0
M  V30 3200 H 305.316 4.79633 1.2715 0
M  V30 3201 N 304.489 0.459591 1.5075 0
M  V30 3202 C 305.421 -0.37665 2.26084 0
M  V30 3203 C 306.434 -0.967109 1.30961 0
M  V30 3204 O 307.623 -0.857468 1.56556 0
M  V30 3205 C 304.723 -1.54112 3.01832 0
M  V30 3206 C 303.896 -1.06553 4.24223 0
M  V30 3207 C 302.955 -2.1027 4.82362 0
M  V30 3208 O 301.981 -1.68798 5.43595 0
M  V30 3209 N 303.183 -3.42974 4.68347 0
M  V30 3210 H 305.948 0.269124 2.98489 0
M  V30 3211 H 303.509 0.28972 1.59287 0
M  V30 3212 H 305.501 -2.23165 3.37608 0
M  V30 3213 H 304.071 -2.0918 2.32298 0
M  V30 3214 H 303.291 -0.201274 3.93686 0
M  V30 3215 H 304.579 -0.725516 5.03601 0
M  V30 3216 H 303.977 -3.79385 4.19623 0
M  V30 3217 H 302.534 -4.07858 5.08424 0
M  V30 3218 N 305.967 -1.56429 0.191757 0
M  V30 3219 C 306.93 -2.17707 -0.716688 0
M  V30 3220 C 307.93 -1.13061 -1.14341 0
M  V30 3221 O 309.12 -1.38464 -1.05704 0
M  V30 3222 C 306.252 -2.77644 -1.97804 0
M  V30 3223 H 307.445 -2.99342 -0.1829 0
M  V30 3224 H 304.998 -1.56193 -0.0578566 0
M  V30 3225 H 305.733 -1.99799 -2.55443 0
M  V30 3226 H 305.518 -3.54246 -1.68083 0
M  V30 3227 H 307.008 -3.24708 -2.62592 0
M  V30 3228 N 307.445 0.0818655 -1.57387 0
M  V30 3229 C 308.691 0.778884 -1.87896 0
M  V30 3230 C 309.046 1.75692 -0.784229 0
M  V30 3231 O 308.339 1.90417 0.212567 0
M  V30 3232 C 308.533 1.53513 -3.22752 0
M  V30 3233 C 308.362 0.631838 -4.45239 0
M  V30 3234 C 307.132 0.272571 -5.04564 0
M  V30 3235 C 309.33 -0.0670191 -5.14256 0
M  V30 3236 N 307.312 -0.637498 -6.10581 0
M  V30 3237 C 308.683 -0.834653 -6.14356 0
M  V30 3238 C 310.738 -0.139551 -4.97704 0
M  V30 3239 C 309.441 -1.66806 -6.99691 0
M  V30 3240 C 311.467 -0.959903 -5.83558 0
M  V30 3241 C 310.829 -1.71561 -6.83188 0
M  V30 3242 H 306.928 0.260764 -0.737242 0
M  V30 3243 H 309.512 0.0408227 -1.94657 0
M  V30 3244 H 307.683 2.24398 -3.17018 0
M  V30 3245 H 309.415 2.18038 -3.40942 0
M  V30 3246 H 306.17 0.62319 -4.69482 0
M  V30 3247 H 306.594 -1.08548 -6.68241 0
M  V30 3248 H 311.236 0.430376 -4.20604 0
M  V30 3249 H 308.954 -2.249 -7.76174 0
M  V30 3250 H 312.54 -1.01887 -5.72809 0
M  V30 3251 H 311.42 -2.34017 -7.48469 0
M  V30 3252 N 308.923 1.53595 0.353017 0
M  V30 3253 C 310.2 1.61002 1.11075 0
M  V30 3254 C 310.58 0.425356 2.0677 0
M  V30 3255 O 309.928 -0.583267 2.2093 0
M  V30 3256 C 310.138 2.96631 1.83877 0
M  V30 3257 C 311.486 3.51653 2.37961 0
M  V30 3258 O 312.51 2.98743 1.93987 0
M  V30 3259 O 311.369 4.44177 3.18386 0
M  V30 3260 H 308.463 0.650825 0.510251 0
M  V30 3261 H 311.009 1.6594 0.35527 0
M  V30 3262 H 309.781 3.74293 1.14108 0
M  V30 3263 H 309.404 2.95242 2.66304 0
M  V30 3264 N 310.401 -0.613514 1.45168 0
M  V30 3265 C 311.626 -1.40437 1.52618 0
M  V30 3266 C 312.051 -1.87438 0.157707 0
M  V30 3267 O 311.409 -1.59791 -0.856537 0
M  V30 3268 C 311.457 -2.58894 2.51011 0
M  V30 3269 O 310.561 -3.59326 2.02382 0
M  V30 3270 H 309.902 -0.419506 0.514695 0
M  V30 3271 H 312.432 -0.747215 1.90467 0
M  V30 3272 H 312.442 -3.06214 2.69624 0
M  V30 3273 H 311.117 -2.24032 3.50403 0
M  V30 3274 H 309.694 -3.18695 1.93618 0
M  V30 3275 N 311.879 -1.3236 -0.855495 0
M  V30 3276 C 312.811 -1.17052 -1.97057 0
M  V30 3277 C 313.824 -0.10574 -1.62456 0
M  V30 3278 O 315.013 -0.354619 -1.74942 0
M  V30 3279 C 312.113 -0.769305 -3.30053 0
M  V30 3280 C 311.286 -1.9222 -3.929 0
M  V30 3281 C 310.345 -1.50466 -5.04228 0
M  V30 3282 O 309.371 -2.21655 -5.24269 0
M  V30 3283 N 310.573 -0.400209 -5.79119 0
M  V30 3284 H 313.338 -2.13103 -2.1073 0
M  V30 3285 H 310.899 -1.24885 -1.0303 0
M  V30 3286 H 312.891 -0.472407 -4.01933 0
M  V30 3287 H 311.461 0.100025 -3.1244 0
M  V30 3288 H 310.681 -2.38563 -3.13817 0
M  V30 3289 H 311.969 -2.69403 -4.31624 0
M  V30 3290 H 311.367 0.192319 -5.65373 0
M  V30 3291 H 309.924 -0.162912 -6.51596 0
M  V30 3292 N 313.357 1.07166 -1.15556 0
M  V30 3293 C 314.582 1.84053 -0.955988 0
M  V30 3294 C 315.007 1.81586 0.490739 0
M  V30 3295 O 314.365 1.21018 1.34997 0
M  V30 3296 C 314.413 3.28957 -1.47714 0
M  V30 3297 O 313.517 4.06795 -0.677593 0
M  V30 3298 H 312.858 0.569842 -0.340847 0
M  V30 3299 H 315.388 1.35178 -1.53584 0
M  V30 3300 H 315.398 3.79788 -1.4908 0
M  V30 3301 H 314.073 3.30068 -2.53037 0
M  V30 3302 H 312.65 3.6561 -0.733721 0
M  V30 3303 N 314.835 0.952656 1.25548 0
M  V30 3304 C 316.246 0.647392 1.75116 0
M  V30 3305 C 316.597 -0.837274 1.77438 0
M  V30 3306 O 315.722 -1.65525 1.39393 0
M  V30 3307 C 316.317 1.16845 3.18014 0
M  V30 3308 C 314.876 0.913382 3.6515 0
M  V30 3309 C 314.023 1.31265 2.44264 0
M  V30 3310 H 316.974 1.12968 1.11462 0
M  V30 3311 H 316.995 0.527606 3.76824 0
M  V30 3312 H 316.507 2.24902 3.16292 0
M  V30 3313 H 314.608 -0.152316 3.72289 0
M  V30 3314 H 314.721 1.54845 4.53387 0
M  V30 3315 H 313.085 0.731028 2.43984 0
M  V30 3316 H 313.868 2.40239 2.45234 0
M  V30 3317 N 316.313 -1.40141 0.720998 0
M  V30 3318 C 317.263 -2.27949 0.0482544 0
M  V30 3319 C 318.247 -1.43538 -0.727021 0
M  V30 3320 O 319.439 -1.6658 -0.598332 0
M  V30 3321 C 316.568 -3.32126 -0.868729 0
M  V30 3322 C 315.654 -4.24008 -0.0883515 0
M  V30 3323 N 316.045 -4.97154 0.931226 0
M  V30 3324 C 314.343 -4.4485 -0.320105 0
M  V30 3325 C 315.044 -5.64587 1.4006 0
M  V30 3326 N 314.02 -5.38787 0.721752 0
M  V30 3327 H 317.822 -2.81948 0.829609 0
M  V30 3328 H 315.336 -1.52656 0.554067 0
M  V30 3329 H 317.333 -3.93884 -1.36605 0
M  V30 3330 H 315.993 -2.79687 -1.6494 0
M  V30 3331 H 317.004 -5.01 1.31222 0
M  V30 3332 H 313.681 -4.03378 -1.07668 0
M  V30 3333 H 315.071 -6.33175 2.24808 0
M  V30 3334 N 317.792 -0.46758 -1.50504 0
M  V30 3335 C 318.755 0.317059 -2.26996 0
M  V30 3336 C 319.755 0.923513 -1.31635 0
M  V30 3337 O 320.945 0.793239 -1.55091 0
M  V30 3338 C 318.077 1.45134 -3.08462 0
M  V30 3339 H 319.27 -0.353723 -2.97807 0
M  V30 3340 H 316.823 -0.221545 -1.54722 0
M  V30 3341 H 317.558 2.15728 -2.4214 0
M  V30 3342 H 317.343 1.02232 -3.78538 0
M  V30 3343 H 318.833 2.00493 -3.66323 0
M  V30 3344 N 319.27 1.56325 -0.20005 0
M  V30 3345 C 320.22 2.15939 0.731743 0
M  V30 3346 C 321.204 1.10154 1.17281 0
M  V30 3347 O 322.396 1.36203 1.13038 0
M  V30 3348 C 319.525 2.82614 1.94895 0
M  V30 3349 C 318.611 3.95596 1.52855 0
M  V30 3350 N 319.002 4.99118 0.819418 0
M  V30 3351 C 317.3 4.07288 1.81748 0
M  V30 3352 C 318.001 5.78513 0.608053 0
M  V30 3353 N 316.977 5.31117 1.15828 0
M  V30 3354 H 320.779 2.9334 0.181285 0
M  V30 3355 H 318.293 1.624 -0.000452172 0
M  V30 3356 H 320.29 3.23718 2.62702 0
M  V30 3357 H 318.95 2.06702 2.50408 0
M  V30 3358 H 319.961 5.15723 0.47436 0
M  V30 3359 H 316.638 3.42509 2.38734 0
M  V30 3360 H 318.028 6.71885 0.0451619 0
M  V30 3361 N 320.748 -0.0735177 1.57428 0
M  V30 3362 C 321.996 -0.771472 1.86796 0
M  V30 3363 C 322.317 -1.78201 0.791804 0
M  V30 3364 O 321.587 -1.95074 -0.179718 0
M  V30 3365 H 320.167 -0.28791 0.689287 0
M  V30 3366 H 322.829 -0.0500161 1.94836 0
M  V30 3367 H 321.925 -1.28874 2.8425 0
M  V30 3368 N 322.226 -1.5378 -0.344866 0
M  V30 3369 C 323.456 -1.74646 -1.10374 0
M  V30 3370 C 323.864 -0.48491 -1.8288 0
M  V30 3371 O 323.207 0.553062 -1.75177 0
M  V30 3372 C 323.269 -2.87145 -2.16306 0
M  V30 3373 C 322.933 -4.26795 -1.63386 0
M  V30 3374 C 323.93 -5.08412 -1.08688 0
M  V30 3375 C 321.615 -4.73276 -1.68272 0
M  V30 3376 C 323.609 -6.34609 -0.595792 0
M  V30 3377 C 321.296 -5.99446 -1.18776 0
M  V30 3378 C 322.294 -6.79946 -0.645215 0
M  V30 3379 O 321.982 -8.03745 -0.157626 0
M  V30 3380 H 321.714 -0.587112 -0.335075 0
M  V30 3381 H 324.268 -2.01403 -0.403252 0
M  V30 3382 H 322.498 -2.55909 -2.89909 0
M  V30 3383 H 324.187 -2.95992 -2.77747 0
M  V30 3384 H 324.953 -4.73666 -1.04236 0
M  V30 3385 H 320.832 -4.10677 -2.09442 0
M  V30 3386 H 324.376 -6.97389 -0.171654 0
M  V30 3387 H 320.273 -6.33687 -1.22928 0
M  V30 3388 H 321.041 -8.18038 -0.275037 0
M  V30 3389 N 323.704 0.605807 -1.45491 0
M  V30 3390 C 324.953 1.36086 -1.48874 0
M  V30 3391 C 325.266 1.95131 -0.135333 0
M  V30 3392 O 326.472 2.7146 -0.0468144 0
M  V30 3393 C 324.928 2.46518 -2.62215 0
M  V30 3394 C 324.536 1.93877 -4.03876 0
M  V30 3395 C 326.28 3.23512 -2.74846 0
M  V30 3396 C 324.187 3.01801 -5.08596 0
M  V30 3397 H 323.117 0.511497 -0.553974 0
M  V30 3398 H 325.768 0.649089 -1.71636 0
M  V30 3399 H 324.15 3.20388 -2.32739 0
M  V30 3400 H 325.324 1.26704 -4.43038 0
M  V30 3401 H 323.639 1.29622 -3.95711 0
M  V30 3402 H 326.236 4.04013 -3.50253 0
M  V30 3403 H 326.579 3.74631 -1.81542 0
M  V30 3404 H 327.112 2.56742 -3.03856 0
M  V30 3405 H 323.851 2.55597 -6.03614 0
M  V30 3406 H 323.371 3.67535 -4.74002 0
M  V30 3407 H 325.05 3.66152 -5.33424 0
M  V30 3408 N 325.182 1.32811 0.848464 0
M  V30 3409 C 326.593 1.21315 1.41914 0
M  V30 3410 C 326.944 -0.171847 1.95446 0
M  V30 3411 O 326.069 -1.07093 1.88043 0
M  V30 3412 C 326.664 2.19631 2.57968 0
M  V30 3413 C 325.223 2.12003 3.11017 0
M  V30 3414 C 324.37 2.07651 1.83783 0
M  V30 3415 H 327.321 1.44549 0.655071 0
M  V30 3416 H 327.342 1.79845 3.35315 0
M  V30 3417 H 326.854 3.20423 2.18976 0
M  V30 3418 H 324.955 1.14481 3.54577 0
M  V30 3419 H 325.068 3.02111 3.71841 0
M  V30 3420 H 323.432 1.52983 2.03638 0
M  V30 3421 H 324.215 3.10235 1.47 0
M  V30 3422 N 326.66 -1.06551 1.16123 0
M  V30 3423 C 327.885 -1.83544 0.965735 0
M  V30 3424 C 328.31 -1.81843 -0.481102 0
M  V30 3425 O 327.668 -1.21732 -1.34354 0
M  V30 3426 C 327.716 -3.28169 1.49457 0
M  V30 3427 O 326.82 -4.0643 0.699157 0
M  V30 3428 H 326.161 -0.568026 0.343864 0
M  V30 3429 H 328.691 -1.34362 1.54299 0
M  V30 3430 H 328.701 -3.78992 1.51092 0
M  V30 3431 H 327.376 -3.28722 2.54784 0
M  V30 3432 H 325.953 -3.65216 0.7531 0
M  V30 3433 N 328.138 -0.959301 -1.25041 0
M  V30 3434 C 329.085 -0.482057 -2.2571 0
M  V30 3435 C 330.055 0.467939 -1.59372 0
M  V30 3436 O 331.24 0.380159 -1.86974 0
M  V30 3437 C 328.38 0.229623 -3.44335 0
M  V30 3438 C 327.493 -0.758156 -4.25295 0
M  V30 3439 C 326.628 -0.0234403 -5.31195 0
M  V30 3440 C 325.667 -1.00184 -6.03846 0
M  V30 3441 N 324.804 -0.29769 -7.01469 0
M  V30 3442 H 329.644 -1.34538 -2.65901 0
M  V30 3443 H 327.181 -0.674592 -1.3072 0
M  V30 3444 H 329.139 0.658856 -4.11965 0
M  V30 3445 H 327.769 1.05696 -3.05005 0
M  V30 3446 H 326.821 -1.30586 -3.57284 0
M  V30 3447 H 328.133 -1.50458 -4.75567 0
M  V30 3448 H 327.287 0.464201 -6.04922 0
M  V30 3449 H 326.026 0.755741 -4.81809 0
M  V30 3450 H 325.031 -1.50044 -5.2893 0
M  V30 3451 H 326.256 -1.78133 -6.55321 0
M  V30 3452 H 324.202 0.462668 -6.54366 0
M  V30 3453 H 324.119 -0.983128 -7.4958 0
M  V30 3454 H 325.387 0.16826 -7.79318 0
M  V30 3455 N 329.616 1.39756 -0.72842 0
M  V30 3456 C 330.863 2.00645 -0.273487 0
M  V30 3457 C 331.191 1.57786 1.13727 0
M  V30 3458 O 330.446 0.794886 1.7883 0
M  V30 3459 C 330.745 3.56002 -0.315776 0
M  V30 3460 C 330.411 4.18489 -1.67863 0
M  V30 3461 C 329.073 4.3527 -2.05166 0
M  V30 3462 C 331.425 4.53219 -2.57375 0
M  V30 3463 C 328.753 4.84069 -3.31503 0
M  V30 3464 C 331.105 5.03423 -3.83077 0
M  V30 3465 C 329.769 5.18413 -4.20481 0
M  V30 3466 H 329.039 0.734211 -0.100076 0
M  V30 3467 H 331.686 1.6718 -0.933972 0
M  V30 3468 H 329.991 3.89452 0.428285 0
M  V30 3469 H 331.688 4.00963 0.0542575 0
M  V30 3470 H 328.278 4.05824 -1.37858 0
M  V30 3471 H 332.462 4.39878 -2.29827 0
M  V30 3472 H 327.718 4.93859 -3.60435 0
M  V30 3473 H 331.892 5.2927 -4.52599 0
M  V30 3474 H 329.519 5.55987 -5.18443 0
M  V30 3475 N 331.094 0.475555 1.50254 0
M  V30 3476 C 332.505 0.0215174 1.86688 0
M  V30 3477 C 332.856 -1.38467 1.39001 0
M  V30 3478 O 331.981 -2.02732 0.756894 0
M  V30 3479 C 332.576 0.0322715 3.38785 0
M  V30 3480 C 331.135 -0.366314 3.74613 0
M  V30 3481 C 330.282 0.415832 2.74164 0
M  V30 3482 H 333.233 0.689612 1.42934 0
M  V30 3483 H 333.254 -0.76889 3.7265 0
M  V30 3484 H 332.766 1.05584 3.73462 0
M  V30 3485 H 330.867 -1.39406 3.45538 0
M  V30 3486 H 330.98 -0.064555 4.79057 0
M  V30 3487 H 329.344 -0.131048 2.54363 0
M  V30 3488 H 330.127 1.43899 3.11686 0
M  V30 3489 N 332.573 -1.56217 0.208337 0
M  V30 3490 C 333.521 -2.21053 -0.723769 0
M  V30 3491 C 334.515 -1.18578 -1.20978 0
M  V30 3492 O 335.721 -1.36691 -1.17114 0
M  V30 3493 H 332.096 -0.708595 -0.251788 0
M  V30 3494 H 334.067 -2.98006 -0.153365 0
M  V30 3495 C 332.816 -2.89417 -1.927 0
M  V30 3496 H 332.139 -3.68019 -1.56212 0
M  V30 3497 H 333.579 -3.38201 -2.55727 0
M  V30 3498 C 332.038 -1.91166 -2.77411 0
M  V30 3499 O 332.568 -1.42026 -3.75754 0
M  V30 3500 N 330.774 -1.59105 -2.43175 0
M  V30 3501 H 330.321 -1.99259 -1.63259 0
M  V30 3502 H 330.279 -0.936255 -3.00136 0
M  V30 3503 N 334.051 0.0651679 -1.57465 0
M  V30 3504 C 334.998 1.07675 -2.04144 0
M  V30 3505 C 335.968 1.38071 -0.923335 0
M  V30 3506 O 337.153 1.49026 -1.19146 0
M  V30 3507 C 334.293 2.38337 -2.49579 0
M  V30 3508 C 333.406 2.14413 -3.75035 0
M  V30 3509 C 332.541 3.38686 -4.09225 0
M  V30 3510 C 331.58 3.10156 -5.27702 0
M  V30 3511 N 330.717 4.26778 -5.57499 0
M  V30 3512 H 335.557 0.671716 -2.90331 0
M  V30 3513 H 333.094 0.3201 -1.43575 0
M  V30 3514 H 335.052 3.14632 -2.73975 0
M  V30 3515 H 333.682 2.7663 -1.6636 0
M  V30 3516 H 332.734 1.2878 -3.57939 0
M  V30 3517 H 334.046 1.89344 -4.61466 0
M  V30 3518 H 333.2 4.23373 -4.34558 0
M  V30 3519 H 331.939 3.66837 -3.21374 0
M  V30 3520 H 330.944 2.23866 -5.02159 0
M  V30 3521 H 332.169 2.8332 -6.17176 0
M  V30 3522 H 330.115 4.54948 -4.72608 0
M  V30 3523 H 330.032 4.05005 -6.38362 0
M  V30 3524 H 331.3 5.12443 -5.87386 0
M  V30 3525 N 335.529 1.53961 0.336706 0
M  V30 3526 C 336.477 1.83136 1.43401 0
M  V30 3527 C 337.471 0.702313 1.54156 0
M  V30 3528 O 338.677 0.885765 1.56698 0
M  V30 3529 H 335.052 0.580309 0.478273 0
M  V30 3530 H 337.023 2.74925 1.16012 0
M  V30 3531 C 335.772 2.06385 2.79822 0
M  V30 3532 H 335.095 2.92718 2.72316 0
M  V30 3533 H 336.535 2.30761 3.55704 0
M  V30 3534 C 334.994 0.851414 3.25964 0
M  V30 3535 O 335.524 0.0541904 4.01663 0
M  V30 3536 N 333.73 0.66672 2.82848 0
M  V30 3537 H 333.277 1.31665 2.21409 0
M  V30 3538 H 333.235 -0.143032 3.14074 0
M  V30 3539 N 337.007 -0.598083 1.45811 0
M  V30 3540 C 337.937 -1.71873 1.58057 0
M  V30 3541 C 338.918 -1.64533 0.431615 0
M  V30 3542 O 340.103 -1.82787 0.65595 0
M  V30 3543 C 337.233 -3.10495 1.55597 0
M  V30 3544 C 336.187 -3.32654 2.69305 0
M  V30 3545 C 335.513 -4.71646 2.51902 0
M  V30 3546 C 336.813 -3.21981 4.11248 0
M  V30 3547 H 338.507 -1.61881 2.51863 0
M  V30 3548 H 336.053 -0.777372 1.21214 0
M  V30 3549 H 338.006 -3.88699 1.6276 0
M  V30 3550 H 336.73 -3.2135 0.583255 0
M  V30 3551 H 335.389 -2.56843 2.61586 0
M  V30 3552 H 335.037 -4.79246 1.52748 0
M  V30 3553 H 334.737 -4.87426 3.2816 0
M  V30 3554 H 336.261 -5.52038 2.60933 0
M  V30 3555 H 337.675 -3.90049 4.20161 0
M  V30 3556 H 336.072 -3.49289 4.87972 0
M  V30 3557 H 337.142 -2.1928 4.32486 0
M  V30 3558 N 338.485 -1.33259 -0.841409 0
M  V30 3559 C 339.432 -1.23302 -1.95103 0
M  V30 3560 C 340.402 -0.112204 -1.65721 0
M  V30 3561 O 341.587 -0.290038 -1.88583 0
M  V30 3562 C 338.727 -0.975583 -3.31023 0
M  V30 3563 C 337.84 -2.18243 -3.72819 0
M  V30 3564 C 336.975 -1.85936 -4.97595 0
M  V30 3565 C 336.014 -3.02866 -5.3192 0
M  V30 3566 N 335.151 -2.70565 -6.47873 0
M  V30 3567 H 339.991 -2.18207 -2.02952 0
M  V30 3568 H 337.528 -1.0851 -0.993173 0
M  V30 3569 H 339.486 -0.80677 -4.09325 0
M  V30 3570 H 338.116 -0.0632755 -3.22738 0
M  V30 3571 H 337.168 -2.46107 -2.90061 0
M  V30 3572 H 338.48 -3.05666 -3.94169 0
M  V30 3573 H 337.634 -1.65684 -5.83638 0
M  V30 3574 H 336.373 -0.957452 -4.78209 0
M  V30 3575 H 335.378 -3.23736 -4.44382 0
M  V30 3576 H 336.603 -3.93809 -5.53255 0
M  V30 3577 H 334.549 -1.8293 -6.29978 0
M  V30 3578 H 334.466 -3.51519 -6.69306 0
M  V30 3579 H 335.734 -2.53774 -7.37034 0
M  V30 3580 N 339.963 1.05934 -1.16686 0
M  V30 3581 C 340.91 2.13499 -0.876748 0
M  V30 3582 C 341.88 1.65162 0.176299 0
M  V30 3583 O 343.065 1.90757 0.0407143 0
M  V30 3584 C 340.205 3.42912 -0.387967 0
M  V30 3585 C 339.318 4.04964 -1.50426 0
M  V30 3586 C 338.453 5.22266 -0.970125 0
M  V30 3587 C 337.492 5.76309 -2.06238 0
M  V30 3588 N 336.629 6.84922 -1.54356 0
M  V30 3589 H 341.469 2.37654 -1.7979 0
M  V30 3590 H 339.006 1.16598 -0.896843 0
M  V30 3591 H 340.964 4.17111 -0.086186 0
M  V30 3592 H 339.594 3.18963 0.496235 0
M  V30 3593 H 338.646 3.28277 -1.92193 0
M  V30 3594 H 339.958 4.41122 -2.32836 0
M  V30 3595 H 339.112 6.03506 -0.621743 0
M  V30 3596 H 337.851 4.87564 -0.115377 0
M  V30 3597 H 336.856 4.93704 -2.41942 0
M  V30 3598 H 338.081 6.13062 -2.92115 0
M  V30 3599 H 336.027 6.52131 -0.711406 0
M  V30 3600 H 335.944 7.20043 -2.30379 0
M  V30 3601 H 337.212 7.69832 -1.22387 0
M  V30 3602 N 341.441 0.965919 1.2453 0
M  V30 3603 C 342.389 0.486506 2.27455 0
M  V30 3604 C 343.383 -0.449041 1.6334 0
M  V30 3605 O 344.589 -0.324527 1.7705 0
M  V30 3606 H 340.964 0.138857 0.739069 0
M  V30 3607 H 342.935 1.3666 2.65267 0
M  V30 3608 C 341.684 -0.209481 3.47068 0
M  V30 3609 H 341.007 0.50129 3.96645 0
M  V30 3610 H 342.447 -0.508775 4.20936 0
M  V30 3611 C 340.906 -1.43586 3.0477 0
M  V30 3612 O 341.436 -2.53299 3.11773 0
M  V30 3613 N 339.642 -1.30126 2.59838 0
M  V30 3614 H 339.189 -0.408583 2.54339 0
M  V30 3615 H 339.147 -2.12294 2.31902 0
M  V30 3616 N 342.919 -1.39368 0.735821 0
M  V30 3617 C 344.149 -2.04498 0.293967 0
M  V30 3618 C 344.557 -1.55593 -1.07645 0
M  V30 3619 O 343.9 -0.716324 -1.69158 0
M  V30 3620 C 343.962 -3.58836 0.218342 0
M  V30 3621 C 343.626 -4.30721 1.52736 0
M  V30 3622 C 344.623 -4.57305 2.47322 0
M  V30 3623 C 342.308 -4.69251 1.79189 0
M  V30 3624 C 344.302 -5.21429 3.66593 0
M  V30 3625 C 341.989 -5.33104 2.98737 0
M  V30 3626 C 342.987 -5.59125 3.9226 0
M  V30 3627 O 342.675 -6.21653 5.09708 0
M  V30 3628 H 342.407 -0.664118 0.126189 0
M  V30 3629 H 344.961 -1.79385 1.00051 0
M  V30 3630 H 343.191 -3.8285 -0.544314 0
M  V30 3631 H 344.88 -4.05447 -0.191626 0
M  V30 3632 H 345.646 -4.27983 2.28156 0
M  V30 3633 H 341.525 -4.48354 1.07239 0
M  V30 3634 H 345.069 -5.41656 4.39607 0
M  V30 3635 H 340.966 -5.61846 3.17803 0
M  V30 3636 H 341.734 -6.40146 5.10054 0
M  V30 3637 N 344.397 -0.483516 -1.5 0
M  V30 3638 C 345.637 0.0657469 -2.04294 0
M  V30 3639 C 346.001 1.35869 -1.35659 0
M  V30 3640 O 347.202 1.99111 -1.80578 0
M  V30 3641 C 345.473 0.232758 -3.56641 0
M  V30 3642 S 347.032 0.738788 -4.32536 0
M  V30 3643 H 343.85 0.0100755 -0.710929 0
M  V30 3644 H 346.452 -0.653494 -1.84254 0
M  V30 3645 H 345.156 -0.713847 -4.04144 0
M  V30 3646 H 344.687 0.977751 -3.81056 0
M  V30 3647 H 346.702 2.01048 -4.53645 0
M  V30 3648 N 345.875 1.56104 -0.216619 0
M  V30 3649 C 347.291 1.58995 0.13886 0
M  V30 3650 C 347.491 1.23333 1.59346 0
M  V30 3651 O 346.547 0.966234 2.33281 0
M  V30 3652 C 347.86 3.00143 -0.182968 0
M  V30 3653 C 349.408 3.12751 -0.124807 0
M  V30 3654 C 349.883 4.56068 -0.420241 0
M  V30 3655 N 351.374 4.61723 -0.369634 0
M  V30 3656 C 352.109 5.70542 -0.571789 0
M  V30 3657 N 351.605 6.87744 -0.835453 0
M  V30 3658 N 353.398 5.59831 -0.504563 0
M  V30 3659 H 345.549 1.77562 -1.16557 0
M  V30 3660 H 347.812 0.825091 -0.466828 0
M  V30 3661 H 347.518 3.30871 -1.19237 0
M  V30 3662 H 347.392 3.73813 0.504367 0
M  V30 3663 H 349.779 2.81822 0.875223 0
M  V30 3664 H 349.86 2.41421 -0.845544 0
M  V30 3665 H 349.504 4.87713 -1.41769 0
M  V30 3666 H 349.434 5.25617 0.321631 0
M  V30 3667 H 351.925 3.77502 -0.173338 0
M  V30 3668 H 352.238 7.66587 -0.977938 0
M  V30 3669 H 350.583 6.895 -0.872592 0
M  V30 3670 H 353.774 4.67145 -0.298842 0
M  V30 3671 H 353.947 6.44573 -0.665519 0
M  V30 3672 N 347.353 -0.0568162 1.57498 0
M  V30 3673 C 348.301 -1.08452 2.05769 0
M  V30 3674 C 349.295 -1.39164 0.965903 0
M  V30 3675 O 350.501 -1.38395 1.15095 0
M  V30 3676 H 346.876 -0.367148 0.656282 0
M  V30 3677 H 348.847 -0.651368 2.91204 0
M  V30 3678 C 347.596 -2.38543 2.52968 0
M  V30 3679 H 346.919 -2.15765 3.36579 0
M  V30 3680 H 348.359 -3.08863 2.90481 0
M  V30 3681 C 346.818 -3.05562 1.41893 0
M  V30 3682 O 347.348 -3.94262 0.769442 0
M  V30 3683 N 345.554 -2.6643 1.16032 0
M  V30 3684 H 345.101 -1.94387 1.6903 0
M  V30 3685 H 345.059 -3.11593 0.419219 0
M  V30 3686 N 348.832 -1.54138 -0.328536 0
M  V30 3687 C 350.243 -1.63395 -0.903272 0
M  V30 3688 C 350.594 -0.524828 -1.8905 0
M  V30 3689 O 349.719 0.343068 -2.13663 0
M  V30 3690 C 350.314 -2.9618 -1.64507 0
M  V30 3691 C 348.873 -3.0765 -2.1686 0
M  V30 3692 C 348.02 -2.58933 -0.992416 0
M  V30 3693 H 350.971 -1.58344 -0.106253 0
M  V30 3694 H 350.992 -2.86061 -2.50897 0
M  V30 3695 H 350.504 -3.76884 -0.926302 0
M  V30 3696 H 348.605 -2.31611 -2.91868 0
M  V30 3697 H 348.718 -4.1337 -2.42202 0
M  V30 3698 H 347.082 -2.14706 -1.37016 0
M  V30 3699 H 347.865 -3.42089 -0.288041 0
M  V30 3700 N 350.31 0.590341 -1.46126 0
M  V30 3701 C 351.587 1.35029 -1.41515 0
M  V30 3702 C 351.967 2.10888 -0.0946472 0
M  V30 3703 O 351.315 2.08998 0.923693 0
M  V30 3704 C 351.525 2.28269 -2.63997 0
M  V30 3705 C 352.873 2.90338 -3.09821 0
M  V30 3706 O 353.897 2.38585 -2.64492 0
M  V30 3707 O 352.756 3.84321 -3.88535 0
M  V30 3708 H 349.85 0.606317 -0.562413 0
M  V30 3709 H 352.396 0.611994 -1.58281 0
M  V30 3710 H 351.168 1.71591 -3.51671 0
M  V30 3711 H 350.791 3.0945 -2.49652 0
M  V30 3712 N 351.788 1.33704 0.83433 0
M  V30 3713 C 353.204 1.13137 1.12571 0
M  V30 3714 C 353.404 -0.0747261 2.01361 0
M  V30 3715 O 352.46 -0.753647 2.4099 0
M  V30 3716 C 353.773 2.42105 1.78342 0
M  V30 3717 C 355.321 2.48054 1.90888 0
M  V30 3718 C 355.796 3.76995 2.60075 0
M  V30 3719 N 357.287 3.78092 2.67584 0
M  V30 3720 C 358.022 4.74574 3.21818 0
M  V30 3721 N 357.518 5.81434 3.76705 0
M  V30 3722 N 359.311 4.62044 3.20112 0
M  V30 3723 H 351.462 2.11 0.243489 0
M  V30 3724 H 353.725 0.932532 0.17055 0
M  V30 3725 H 353.431 3.30391 1.20561 0
M  V30 3726 H 353.305 2.54594 2.7832 0
M  V30 3727 H 355.692 1.60215 2.47821 0
M  V30 3728 H 355.773 2.39502 0.898459 0
M  V30 3729 H 355.417 4.65219 2.03799 0
M  V30 3730 H 355.347 3.82825 3.61597 0
M  V30 3731 H 357.838 3.00865 2.28667 0
M  V30 3732 H 358.151 6.51084 4.16305 0
M  V30 3733 H 356.496 5.85163 3.7498 0
M  V30 3734 H 359.687 3.77716 2.76493 0
M  V30 3735 H 359.86 5.37406 3.62076 0
M  V30 3736 N 353.266 -1.05314 1.17247 0
M  V30 3737 C 354.176 -2.16538 0.90268 0
M  V30 3738 C 355.192 -1.73523 -0.128707 0
M  V30 3739 O 356.368 -2.01337 0.0502701 0
M  V30 3740 C 353.433 -3.44167 0.418356 0
M  V30 3741 C 352.494 -4.01635 1.51618 0
M  V30 3742 C 351.727 -5.23171 1.05487 0
M  V30 3743 O 351.95 -5.70327 -0.0914715 0
M  V30 3744 O 350.884 -5.72848 1.8474 0
M  V30 3745 H 354.71 -2.42145 1.83302 0
M  V30 3746 H 352.295 -1.15037 0.953246 0
M  V30 3747 H 354.177 -4.21112 0.155726 0
M  V30 3748 H 352.852 -3.20063 -0.48385 0
M  V30 3749 H 351.759 -3.26135 1.83268 0
M  V30 3750 H 353.092 -4.30053 2.39405 0
M  V30 3751 N 354.744 -0.972509 -1.24016 0
M  V30 3752 C 355.674 -0.525548 -2.27509 0
M  V30 3753 C 356.655 0.437262 -1.64384 0
M  V30 3754 O 357.84 0.332343 -1.91335 0
M  V30 3755 C 354.97 0.180448 -3.46831 0
M  V30 3756 C 353.924 -0.698859 -4.22256 0
M  V30 3757 C 353.25 0.138903 -5.3452 0
M  V30 3758 C 354.55 -1.98582 -4.83076 0
M  V30 3759 H 356.244 -1.39058 -2.65148 0
M  V30 3760 H 353.79 -0.67009 -1.27459 0
M  V30 3761 H 355.743 0.504387 -4.18371 0
M  V30 3762 H 354.467 1.07987 -3.08231 0
M  V30 3763 H 353.126 -1.00614 -3.52523 0
M  V30 3764 H 352.774 1.03862 -4.9216 0
M  V30 3765 H 352.474 -0.446259 -5.85903 0
M  V30 3766 H 353.998 0.457404 -6.08884 0
M  V30 3767 H 355.412 -1.72715 -5.46665 0
M  V30 3768 H 353.809 -2.5181 -5.44713 0
M  V30 3769 H 354.879 -2.67769 -4.04262 0
M  V30 3770 N 356.222 1.38976 -0.743202 0
M  V30 3771 C 357.638 1.53984 -0.419664 0
M  V30 3772 C 357.838 1.70837 1.0685 0
M  V30 3773 O 356.894 1.7135 1.8546 0
M  V30 3774 C 358.207 2.75287 -1.20985 0
M  V30 3775 C 359.755 2.89129 -1.19889 0
M  V30 3776 C 360.23 4.13381 -1.97181 0
M  V30 3777 N 361.721 4.20437 -1.94389 0
M  V30 3778 C 362.456 5.15547 -2.50996 0
M  V30 3779 N 361.952 6.16395 -3.16274 0
M  V30 3780 N 363.745 5.07822 -2.40984 0
M  V30 3781 H 355.896 1.26285 -1.7078 0
M  V30 3782 H 358.159 0.612689 -0.723406 0
M  V30 3783 H 357.865 2.69204 -2.26323 0
M  V30 3784 H 357.739 3.68184 -0.819759 0
M  V30 3785 H 360.126 2.947 -0.153606 0
M  V30 3786 H 360.207 1.97272 -1.62841 0
M  V30 3787 H 359.851 4.08572 -3.01714 0
M  V30 3788 H 359.781 5.04298 -1.51629 0
M  V30 3789 H 362.272 3.48205 -1.46839 0
M  V30 3790 H 362.585 6.85443 -3.56915 0
M  V30 3791 H 360.93 6.16758 -3.20367 0
M  V30 3792 H 364.121 4.27973 -1.89622 0
M  V30 3793 H 364.294 5.81767 -2.85397 0
M  V30 3794 N 357.7 0.491464 1.49741 0
M  V30 3795 C 359.111 0.0413169 1.86654 0
M  V30 3796 C 359.462 -1.36985 1.40462 0
M  V30 3797 O 358.587 -2.01917 0.778354 0
M  V30 3798 C 359.182 0.0682023 3.38731 0
M  V30 3799 C 357.741 -0.32656 3.74981 0
M  V30 3800 C 356.888 0.444888 2.73708 0
M  V30 3801 H 359.839 0.704733 1.42194 0
M  V30 3802 H 359.86 -0.729322 3.73445 0
M  V30 3803 H 359.372 1.09539 3.72321 0
M  V30 3804 H 357.473 -1.35734 3.46997 0
M  V30 3805 H 357.586 -0.013741 4.79098 0
M  V30 3806 H 355.95 -0.104062 2.54487 0
M  V30 3807 H 356.733 1.47197 3.10142 0
M  V30 3808 N 359.178 -1.55987 0.224894 0
M  V30 3809 C 360.424 -1.99433 -0.39973 0
M  V30 3810 C 360.779 -1.11004 -1.57149 0
M  V30 3811 O 360.072 -0.160725 -1.90925 0
M  V30 3812 C 360.266 -3.46394 -0.880106 0
M  V30 3813 C 360.095 -4.4904 0.243565 0
M  V30 3814 C 358.865 -5.00272 0.711056 0
M  V30 3815 C 361.063 -5.03195 1.06299 0
M  V30 3816 N 359.045 -5.86628 1.80944 0
M  V30 3817 C 360.416 -5.86508 2.01017 0
M  V30 3818 C 362.471 -4.8555 1.10205 0
M  V30 3819 C 361.174 -6.54062 2.99324 0
M  V30 3820 C 363.2 -5.53866 2.07332 0
M  V30 3821 C 362.562 -6.3695 3.00789 0
M  V30 3822 H 358.661 -0.773815 -0.112847 0
M  V30 3823 H 361.245 -1.91754 0.337432 0
M  V30 3824 H 359.416 -3.54515 -1.58662 0
M  V30 3825 H 361.148 -3.76752 -1.47783 0
M  V30 3826 H 357.903 -4.72655 0.29906 0
M  V30 3827 H 358.327 -6.34507 2.36073 0
M  V30 3828 H 362.969 -4.20966 0.39343 0
M  V30 3829 H 360.687 -7.17827 3.71147 0
M  V30 3830 H 364.273 -5.42178 2.11032 0
M  V30 3831 H 363.153 -6.8888 3.74718 0
M  V30 3832 N 360.656 0.0484629 -1.57525 0
M  V30 3833 C 361.896 0.748196 -1.90214 0
M  V30 3834 C 362.26 1.73545 -0.821347 0
M  V30 3835 O 363.461 2.48201 -1.03198 0
M  V30 3836 C 361.732 1.41727 -3.28098 0
M  V30 3837 S 363.291 2.14884 -3.82584 0
M  V30 3838 H 360.109 0.248307 -0.666232 0
M  V30 3839 H 362.711 0.00343188 -1.955 0
M  V30 3840 H 361.415 0.685244 -4.04639 0
M  V30 3841 H 360.946 2.20099 -3.26068 0
M  V30 3842 H 362.961 3.41755 -3.59747 0
M  V30 3843 N 362.134 1.5431 0.320358 0
M  V30 3844 C 363.381 1.72668 1.05792 0
M  V30 3845 C 363.709 0.502084 1.87908 0
M  V30 3846 O 362.964 -0.516149 1.88771 0
M  V30 3847 C 363.263 2.95639 2.00828 0
M  V30 3848 C 362.929 4.30265 1.34843 0
M  V30 3849 C 361.591 4.66865 1.16578 0
M  V30 3850 C 363.943 5.13801 0.875095 0
M  V30 3851 C 361.271 5.84597 0.496336 0
M  V30 3852 C 363.623 6.32219 0.219463 0
M  V30 3853 C 362.287 6.67495 0.0246915 0
M  V30 3854 H 361.557 0.631837 0.387121 0
M  V30 3855 H 364.204 1.88552 0.334735 0
M  V30 3856 H 362.509 2.74456 2.79609 0
M  V30 3857 H 364.206 3.07038 2.57932 0
M  V30 3858 H 360.796 4.01472 1.50061 0
M  V30 3859 H 364.98 4.86039 1.00398 0
M  V30 3860 H 360.236 6.10486 0.334264 0
M  V30 3861 H 364.41 6.96227 -0.155291 0
M  V30 3862 H 362.037 7.5858 -0.496065 0
M  V30 3863 N 363.613 -0.582584 1.46437 0
M  V30 3864 C 364.841 -1.36682 1.55324 0
M  V30 3865 C 365.256 -1.87796 0.194409 0
M  V30 3866 O 364.613 -1.63623 -0.808318 0
M  V30 3867 C 364.664 -2.55426 2.55812 0
M  V30 3868 O 364.385 -2.0643 3.86417 0
M  V30 3869 C 365.886 -3.47976 2.74641 0
M  V30 3870 H 363.106 -0.417545 0.525259 0
M  V30 3871 H 365.65 -0.708219 1.91845 0
M  V30 3872 H 363.805 -3.17275 2.22295 0
M  V30 3873 H 364.219 -2.83762 4.41111 0
M  V30 3874 H 365.693 -4.27775 3.48874 0
M  V30 3875 H 366.17 -3.99919 1.81553 0
M  V30 3876 H 366.776 -2.91962 3.09255 0
M  V30 3877 N 365.091 -1.34144 -0.827227 0
M  V30 3878 C 366.319 -1.29325 -1.61501 0
M  V30 3879 C 366.734 0.13354 -1.88327 0
M  V30 3880 O 366.091 1.0793 -1.47164 0
M  V30 3881 C 366.142 -2.07746 -2.95844 0
M  V30 3882 O 365.863 -3.4486 -2.70191 0
M  V30 3883 C 367.364 -2.10273 -3.90256 0
M  V30 3884 H 364.584 -0.445069 -0.50215 0
M  V30 3885 H 367.128 -1.76693 -1.02955 0
M  V30 3886 H 365.283 -1.6403 -3.5096 0
M  V30 3887 H 365.697 -3.85345 -3.55822 0
M  V30 3888 H 367.171 -2.69575 -4.81698 0
M  V30 3889 H 367.648 -1.096 -4.25305 0
M  V30 3890 H 368.254 -2.54059 -3.41078 0
M  V30 3891 N 366.569 1.04691 -1.17803 0
M  V30 3892 C 367.846 1.7472 -0.879328 0
M  V30 3893 C 368.226 2.01812 0.619271 0
M  V30 3894 O 367.574 1.65824 1.57209 0
M  V30 3895 C 367.784 3.03686 -1.71976 0
M  V30 3896 C 369.132 3.77542 -1.94286 0
M  V30 3897 O 370.156 3.13569 -1.68976 0
M  V30 3898 O 369.015 4.92506 -2.36855 0
M  V30 3899 H 366.109 0.760011 -0.326056 0
M  V30 3900 H 368.655 1.10813 -1.28525 0
M  V30 3901 H 367.427 2.79754 -2.73594 0
M  V30 3902 H 367.05 3.75332 -1.31194 0
M  V30 3903 N 368.047 0.979072 1.23499 0
M  V30 3904 C 369.458 0.684391 1.73704 0
M  V30 3905 C 369.809 -0.799448 1.79174 0
M  V30 3906 O 368.934 -1.62531 1.42873 0
M  V30 3907 C 369.529 1.23564 3.15464 0
M  V30 3908 C 368.088 0.99063 3.6313 0
M  V30 3909 C 367.235 1.36416 2.41425 0
M  V30 3910 H 370.186 1.15307 1.09041 0
M  V30 3911 H 370.207 0.607417 3.7562 0
M  V30 3912 H 369.719 2.31561 3.1145 0
M  V30 3913 H 367.82 -0.0733136 3.72528 0
M  V30 3914 H 367.933 1.64427 4.5 0
M  V30 3915 H 366.297 0.782616 2.42378 0
M  V30 3916 H 367.08 2.45387 2.40083 0
M  V30 3917 N 369.525 -1.3858 0.750561 0
M  V30 3918 C 370.473 -2.32339 0.110162 0
M  V30 3919 C 371.467 -1.53864 -0.708674 0
M  V30 3920 O 372.673 -1.69417 -0.608112 0
M  V30 3921 H 369.048 -0.751812 0.0168275 0
M  V30 3922 H 371.019 -2.83959 0.917053 0
M  V30 3923 C 369.768 -3.39043 -0.771067 0
M  V30 3924 H 369.091 -3.99517 -0.150374 0
M  V30 3925 H 370.531 -4.07061 -1.1865 0
M  V30 3926 C 368.99 -2.77365 -1.91234 0
M  V30 3927 O 369.52 -2.66434 -3.00626 0
M  V30 3928 N 367.726 -2.35219 -1.70646 0
M  V30 3929 H 367.273 -2.4431 -0.81673 0
M  V30 3930 H 367.231 -1.94294 -2.47178 0
M  V30 3931 N 371.003 -0.499398 -1.49478 0
M  V30 3932 C 371.95 0.279881 -2.29097 0
M  V30 3933 C 372.92 0.961805 -1.3542 0
M  V30 3934 O 374.105 0.968777 -1.64376 0
M  V30 3935 C 371.245 1.33932 -3.18051 0
M  V30 3936 C 370.358 0.669333 -4.26783 0
M  V30 3937 C 369.493 1.70907 -5.02955 0
M  V30 3938 C 368.532 1.02087 -6.03527 0
M  V30 3939 N 367.669 2.00474 -6.7287 0
M  V30 3940 H 372.509 -0.405317 -2.95231 0
M  V30 3941 H 370.046 -0.211726 -1.45568 0
M  V30 3942 H 372.004 1.96553 -3.67998 0
M  V30 3943 H 370.634 1.9933 -2.53904 0
M  V30 3944 H 369.686 -0.0701234 -3.80335 0
M  V30 3945 H 370.998 0.127503 -4.98637 0
M  V30 3946 H 370.152 2.41037 -5.56764 0
M  V30 3947 H 368.891 2.28476 -4.30871 0
M  V30 3948 H 367.896 0.305338 -5.48951 0
M  V30 3949 H 369.121 0.451708 -6.77596 0
M  V30 3950 H 367.067 2.57007 -6.03559 0
M  V30 3951 H 366.984 1.51353 -7.40694 0
M  V30 3952 H 368.252 2.69897 -7.31284 0
M  V30 3953 N 372.481 1.55866 -0.233164 0
M  V30 3954 C 373.897 1.59133 0.121988 0
M  V30 3955 C 374.097 1.25016 1.58029 0
M  V30 3956 O 373.153 0.990922 2.32243 0
M  V30 3957 C 374.466 2.99932 -0.214792 0
M  V30 3958 C 376.014 3.12601 -0.157971 0
M  V30 3959 C 376.489 4.55597 -0.46859 0
M  V30 3960 N 377.98 4.61305 -0.418585 0
M  V30 3961 C 378.715 5.69903 -0.63227 0
M  V30 3962 N 378.211 6.86819 -0.90835 0
M  V30 3963 N 380.004 5.59264 -0.563913 0
M  V30 3964 H 372.155 1.76315 -1.18434 0
M  V30 3965 H 374.418 0.820093 -0.475553 0
M  V30 3966 H 374.124 3.29588 -1.22739 0
M  V30 3967 H 373.998 3.74327 0.464691 0
M  V30 3968 H 376.385 2.82735 0.845283 0
M  V30 3969 H 376.466 2.40511 -0.871102 0
M  V30 3970 H 376.11 4.86182 -1.46934 0
M  V30 3971 H 376.04 5.25928 0.265865 0
M  V30 3972 H 378.531 3.77297 -0.213368 0
M  V30 3973 H 378.844 7.65507 -1.05919 0
M  V30 3974 H 377.189 6.88536 -0.945673 0
M  V30 3975 H 380.38 4.66802 -0.348372 0
M  V30 3976 H 380.553 6.43831 -0.733847 0
M  V30 3977 N 373.959 -0.0401083 1.57549 0
M  V30 3978 C 375.205 -0.728793 1.89895 0
M  V30 3979 C 375.56 -1.73551 0.830535 0
M  V30 3980 O 374.853 -1.90914 -0.162007 0
M  V30 3981 C 375.047 -1.44902 3.26708 0
M  V30 3982 C 374.876 -0.513568 4.46758 0
M  V30 3983 C 373.646 -0.138698 5.0511 0
M  V30 3984 C 375.844 0.203341 5.13898 0
M  V30 3985 N 373.826 0.799159 6.08676 0
M  V30 3986 C 375.197 0.997246 6.11927 0
M  V30 3987 C 377.252 0.271459 4.97159 0
M  V30 3988 C 375.955 1.85299 6.95023 0
M  V30 3989 C 377.981 1.11429 5.80808 0
M  V30 3990 C 377.343 1.89615 6.78399 0
M  V30 3991 H 373.442 -0.241125 0.743897 0
M  V30 3992 H 376.026 0.0108016 1.94697 0
M  V30 3993 H 374.197 -2.15914 3.22856 0
M  V30 3994 H 375.929 -2.08921 3.46603 0
M  V30 3995 H 372.684 -0.498496 4.70969 0
M  V30 3996 H 373.108 1.26227 6.65128 0
M  V30 3997 H 377.75 -0.318709 4.21597 0
M  V30 3998 H 375.468 2.454 7.69938 0
M  V30 3999 H 379.054 1.17038 5.69906 0
M  V30 4000 H 377.934 2.53779 7.42001 0
M  V30 4001 N 375.437 -1.54477 -0.31217 0
M  V30 4002 C 376.347 -1.87695 -1.4074 0
M  V30 4003 C 377.363 -0.769975 -1.56036 0
M  V30 4004 O 378.539 -1.06537 -1.70915 0
M  V30 4005 C 375.604 -2.10755 -2.75287 0
M  V30 4006 C 374.665 -3.34514 -2.69071 0
M  V30 4007 C 373.898 -3.56465 -3.97201 0
M  V30 4008 O 374.121 -2.81637 -4.96021 0
M  V30 4009 O 373.055 -4.49964 -3.9977 0
M  V30 4010 H 376.881 -2.80849 -1.15574 0
M  V30 4011 H 374.466 -1.40526 -0.507228 0
M  V30 4012 H 376.348 -2.27188 -3.54913 0
M  V30 4013 H 375.023 -1.20788 -3.0032 0
M  V30 4014 H 373.93 -3.23456 -1.87955 0
M  V30 4015 H 375.263 -4.24575 -2.48992 0
M  V30 4016 N 376.915 0.57481 -1.46744 0
M  V30 4017 C 377.845 1.69337 -1.60771 0
M  V30 4018 C 378.826 1.63825 -0.457736 0
M  V30 4019 O 380.011 1.8172 -0.684947 0
M  V30 4020 C 377.141 3.0798 -1.60517 0
M  V30 4021 C 376.095 3.28327 -2.74564 0
M  V30 4022 C 375.421 4.67578 -2.59373 0
M  V30 4023 C 376.721 3.15398 -4.16319 0
M  V30 4024 H 378.415 1.57853 -2.54407 0
M  V30 4025 H 375.961 0.75799 -1.22436 0
M  V30 4026 H 377.914 3.86061 -1.68923 0
M  V30 4027 H 376.638 3.20381 -0.634305 0
M  V30 4028 H 375.297 2.52649 -2.65639 0
M  V30 4029 H 374.945 4.76755 -1.60353 0
M  V30 4030 H 374.645 4.82144 -3.35873 0
M  V30 4031 H 376.169 5.47817 -2.69682 0
M  V30 4032 H 377.583 3.83315 -4.26313 0
M  V30 4033 H 375.98 3.41482 -4.93468 0
M  V30 4034 H 377.05 2.12372 -4.3592 0
M  V30 4035 N 378.394 1.34581 0.820102 0
M  V30 4036 C 379.634 1.28448 1.58998 0
M  V30 4037 C 379.998 -0.142883 1.91468 0
M  V30 4038 O 381.199 -0.328422 2.66786 0
M  V30 4039 C 379.47 2.153 2.85273 0
M  V30 4040 S 381.029 2.26548 3.75794 0
M  V30 4041 H 377.847 0.456685 0.54494 0
M  V30 4042 H 380.449 1.69825 0.968487 0
M  V30 4043 H 379.153 3.18008 2.59421 0
M  V30 4044 H 378.684 1.7483 3.52417 0
M  V30 4045 H 380.699 1.44034 4.74835 0
M  V30 4046 N 379.872 -1.04064 1.18357 0
M  V30 4047 C 381.149 -1.74252 0.888581 0
M  V30 4048 C 381.529 -2.02138 -0.60856 0
M  V30 4049 O 380.877 -1.66656 -1.56327 0
M  V30 4050 C 381.087 -3.0277 1.73584 0
M  V30 4051 C 382.435 -3.76506 1.96286 0
M  V30 4052 O 383.459 -3.12668 1.70637 0
M  V30 4053 O 382.318 -4.91243 2.39464 0
M  V30 4054 H 379.412 -0.758271 0.330082 0
M  V30 4055 H 381.958 -1.1013 1.2911 0
M  V30 4056 H 380.73 -2.78299 2.75073 0
M  V30 4057 H 380.353 -3.74631 1.33183 0
M  V30 4058 N 381.35 -0.985608 -1.22978 0
M  V30 4059 C 382.599 -0.652881 -1.90841 0
M  V30 4060 C 382.912 0.817842 -1.77681 0
M  V30 4061 O 384.118 1.26185 -2.40395 0
M  V30 4062 C 382.574 -1.11717 -3.42122 0
M  V30 4063 C 382.182 -2.6126 -3.63933 0
M  V30 4064 C 383.926 -0.85843 -4.1573 0
M  V30 4065 C 381.833 -3.0133 -5.08876 0
M  V30 4066 H 380.763 -0.240491 -0.714619 0
M  V30 4067 H 383.414 -1.1942 -1.39324 0
M  V30 4068 H 381.796 -0.504027 -3.92779 0
M  V30 4069 H 382.97 -3.27858 -3.23799 0
M  V30 4070 H 381.285 -2.84937 -3.03644 0
M  V30 4071 H 383.882 -1.13359 -5.22546 0
M  V30 4072 H 384.225 0.205461 -4.15793 0
M  V30 4073 H 384.758 -1.43341 -3.71077 0
M  V30 4074 H 381.497 -4.06864 -5.13947 0
M  V30 4075 H 381.017 -2.3943 -5.49939 0
M  V30 4076 H 382.696 -2.92224 -5.77247 0
M  V30 4077 N 382.828 1.3818 -0.7579 0
M  V30 4078 C 384.239 1.82726 -0.383134 0
M  V30 4079 C 384.59 1.63214 1.08884 0
M  V30 4080 O 383.715 1.13566 1.84205 0
M  V30 4081 C 384.31 3.31728 -0.688631 0
M  V30 4082 C 382.869 3.74606 -0.367091 0
M  V30 4083 C 382.016 2.60896 -0.939599 0
M  V30 4084 H 384.967 1.26847 -0.953699 0
M  V30 4085 H 384.988 3.80487 0.0316492 0
M  V30 4086 H 384.5 3.45898 -1.76001 0
M  V30 4087 H 382.601 3.66013 0.697532 0
M  V30 4088 H 382.714 4.71215 -0.865658 0
M  V30 4089 H 381.078 2.52075 -0.3647 0
M  V30 4090 H 381.861 2.77864 -2.0161 0
M  V30 4091 N 384.306 0.507319 1.49211 0
M  V30 4092 C 385.722 0.163682 1.58758 0
M  V30 4093 C 385.922 -1.33208 1.51188 0
M  V30 4094 O 384.978 -2.10855 1.38911 0
M  V30 4095 C 386.291 0.746095 2.91297 0
M  V30 4096 C 387.839 0.712773 3.04776 0
M  V30 4097 C 388.314 1.27336 4.39943 0
M  V30 4098 N 389.805 1.23433 4.46451 0
M  V30 4099 C 390.54 1.63821 5.495 0
M  V30 4100 N 390.036 2.11832 6.5962 0
M  V30 4101 N 391.829 1.55198 5.4025 0
M  V30 4102 H 383.98 1.47972 1.52375 0
M  V30 4103 H 386.243 0.614147 0.722168 0
M  V30 4104 H 385.949 1.79534 3.02424 0
M  V30 4105 H 385.823 0.210137 3.76614 0
M  V30 4106 H 388.21 -0.327656 2.93275 0
M  V30 4107 H 388.291 1.28595 2.21127 0
M  V30 4108 H 387.935 2.3126 4.52196 0
M  V30 4109 H 387.865 0.676066 5.22242 0
M  V30 4110 H 390.356 0.882627 3.67448 0
M  V30 4111 H 390.669 2.40703 7.34358 0
M  V30 4112 H 389.014 2.1581 6.60644 0
M  V30 4113 H 392.205 1.17505 4.53112 0
M  V30 4114 H 392.378 1.86997 6.20432 0
M  V30 4115 N 385.784 -1.5574 0.241426 0
M  V30 4116 C 387.024 -2.00714 -0.38644 0
M  V30 4117 C 387.388 -1.12586 -1.55526 0
M  V30 4118 O 388.589 -1.46992 -2.25048 0
M  V30 4119 C 386.86 -3.48534 -0.791128 0
M  V30 4120 S 388.419 -4.15519 -1.41029 0
M  V30 4121 H 385.237 -0.700484 -0.121834 0
M  V30 4122 H 387.839 -1.92243 0.355377 0
M  V30 4123 H 386.543 -4.10342 0.0689225 0
M  V30 4124 H 386.074 -3.6092 -1.56526 0
M  V30 4125 H 388.089 -4.16352 -2.69936 0
M  V30 4126 N 387.262 0.0317525 -1.57568 0
M  V30 4127 C 388.49 0.734949 -1.93407 0
M  V30 4128 C 388.905 1.69036 -0.84096 0
M  V30 4129 O 388.262 1.81582 0.182836 0
M  V30 4130 C 388.313 1.49432 -3.29169 0
M  V30 4131 O 388.034 0.577261 -4.3428 0
M  V30 4132 C 389.535 2.29492 -3.79273 0
M  V30 4133 H 386.755 0.206706 -0.638368 0
M  V30 4134 H 389.299 -0.00992046 -2.04498 0
M  V30 4135 H 387.454 2.1911 -3.19483 0
M  V30 4136 H 387.868 1.10952 -5.1263 0
M  V30 4137 H 389.342 2.78172 -4.76785 0
M  V30 4138 H 389.819 3.10794 -3.10328 0
M  V30 4139 H 390.425 1.64894 -3.92033 0
M  V30 4140 N 388.74 1.54641 0.303973 0
M  V30 4141 C 389.968 1.77768 1.05858 0
M  V30 4142 C 390.383 0.535722 1.8104 0
M  V30 4143 O 389.74 -0.494337 1.75677 0
M  V30 4144 C 389.791 2.9834 2.04146 0
M  V30 4145 O 389.512 4.17736 1.32015 0
M  V30 4146 C 391.013 3.33832 2.91669 0
M  V30 4147 H 388.233 0.592961 0.314067 0
M  V30 4148 H 390.777 2.01583 0.344149 0
M  V30 4149 H 388.932 2.76742 2.71096 0
M  V30 4150 H 389.346 4.85693 1.97998 0
M  V30 4151 H 390.82 4.21448 3.56491 0
M  V30 4152 H 391.297 2.51857 3.59812 0
M  V30 4153 H 391.903 3.57579 2.30254 0
M  V30 4154 N 390.218 -0.567019 1.47046 0
M  V30 4155 C 391.629 -1.14916 1.47143 0
M  V30 4156 C 391.98 -1.94954 0.220767 0
M  V30 4157 O 391.105 -2.05602 -0.67505 0
M  V30 4158 C 391.7 -2.09069 2.666 0
M  V30 4159 C 390.259 -2.62575 2.69687 0
M  V30 4160 C 389.406 -1.38755 2.40088 0
M  V30 4161 H 392.357 -0.354126 1.54699 0
M  V30 4162 H 392.378 -2.92789 2.43011 0
M  V30 4163 H 391.89 -1.50789 3.57609 0
M  V30 4164 H 389.991 -3.24681 1.82792 0
M  V30 4165 H 390.104 -3.04239 3.70102 0
M  V30 4166 H 388.468 -1.69098 1.90468 0
M  V30 4167 H 389.251 -0.822822 3.33293 0
M  V30 4168 N 391.696 -1.35014 -0.812953 0
M  V30 4169 C 393.107 -1.25035 -1.38648 0
M  V30 4170 C 393.458 0.119967 -1.95833 0
M  V30 4171 O 392.583 1.02069 -1.90816 0
M  V30 4172 C 393.178 -2.26394 -2.52054 0
M  V30 4173 C 391.737 -2.20175 -3.05287 0
M  V30 4174 C 390.884 -2.12451 -1.78213 0
M  V30 4175 H 393.835 -1.46235 -0.616516 0
M  V30 4176 H 393.856 -1.88672 -3.30429 0
M  V30 4177 H 393.368 -3.26116 -2.10404 0
M  V30 4178 H 391.469 -1.23841 -3.51417 0
M  V30 4179 H 391.582 -3.11863 -3.63701 0
M  V30 4180 H 389.946 -1.58328 -1.9951 0
M  V30 4181 H 390.729 -3.14024 -1.38723 0
M  V30 4182 N 393.175 1.03435 -1.18907 0
M  V30 4183 C 394.586 1.58195 -0.991523 0
M  V30 4184 C 394.937 1.90801 0.457081 0
M  V30 4185 O 394.062 1.70272 1.33553 0
M  V30 4186 C 394.657 2.87432 -1.79355 0
M  V30 4187 C 393.216 3.38785 -1.64017 0
M  V30 4188 C 392.363 2.12292 -1.78402 0
M  V30 4189 H 395.314 0.860299 -1.33359 0
M  V30 4190 H 395.335 3.58096 -1.28638 0
M  V30 4191 H 394.847 2.63669 -2.84781 0
M  V30 4192 H 392.948 3.67547 -0.611536 0
M  V30 4193 H 393.061 4.12186 -2.44212 0
M  V30 4194 H 391.425 2.23901 -1.2141 0
M  V30 4195 H 392.208 1.90977 -2.85277 0
M  V30 4196 N 394.653 0.992116 1.22453 0
M  V30 4197 C 395.878 0.685644 1.95739 0
M  V30 4198 C 396.303 -0.743 1.72804 0
M  V30 4199 O 395.661 -1.50778 1.00676 0
M  V30 4200 C 395.709 0.996293 3.46564 0
M  V30 4201 O 394.813 0.0945512 4.12292 0
M  V30 4202 H 394.154 0.256694 0.612376 0
M  V30 4203 H 396.684 1.32888 1.5557 0
M  V30 4204 H 396.694 0.93781 3.97076 0
M  V30 4205 H 395.369 2.03733 3.62582 0
M  V30 4206 H 393.946 0.208451 3.72317 0
M  V30 4207 N 396.131 -1.37776 0.765217 0
M  V30 4208 C 397.356 -2.04651 0.336537 0
M  V30 4209 C 397.781 -1.57337 -1.03086 0
M  V30 4210 O 397.139 -0.730621 -1.65927 0
M  V30 4211 C 397.187 -3.58577 0.381468 0
M  V30 4212 O 396.291 -4.07706 -0.62042 0
M  V30 4213 H 395.632 -0.64756 0.146838 0
M  V30 4214 H 398.162 -1.76221 1.03959 0
M  V30 4215 H 398.172 -4.07314 0.236448 0
M  V30 4216 H 396.847 -3.9237 1.37907 0
M  V30 4217 H 395.424 -3.70306 -0.439056 0
M  V30 4218 N 397.609 -0.515225 -1.4894 0
M  V30 4219 C 398.857 0.0241671 -2.02086 0
M  V30 4220 C 399.178 1.3616 -1.3959 0
M  V30 4221 O 398.448 1.87841 -0.556121 0
M  V30 4222 H 397.028 0.0119203 -0.746905 0
M  V30 4223 H 399.69 -0.675702 -1.82812 0
M  V30 4224 H 398.786 0.143385 -3.1177 0
M  V30 4225 N 399.087 1.5561 -0.249682 0
M  V30 4226 C 400.498 1.84979 0.252949 0
M  V30 4227 C 400.849 1.17153 1.57384 0
M  V30 4228 O 399.974 0.450884 2.11651 0
M  V30 4229 C 400.569 3.35584 0.465732 0
M  V30 4230 C 399.128 3.65169 0.912624 0
M  V30 4231 C 398.275 2.77299 -0.00859085 0
M  V30 4232 H 401.226 1.51513 -0.47217 0
M  V30 4233 H 401.247 3.57313 1.30795 0
M  V30 4234 H 400.759 3.8492 -0.49579 0
M  V30 4235 H 398.86 3.21312 1.88652 0
M  V30 4236 H 398.973 4.72912 0.767559 0
M  V30 4237 H 397.337 2.49678 0.50327 0
M  V30 4238 H 398.12 3.29442 -0.965537 0
M  V30 4239 N 400.565 -0.0233959 1.57583 0
M  V30 4240 C 401.793 -0.724682 1.93794 0
M  V30 4241 C 402.208 -1.68588 0.849912 0
M  V30 4242 O 401.565 -1.81676 -0.173204 0
M  V30 4243 C 401.616 -1.47684 3.29957 0
M  V30 4244 O 401.337 -0.554222 4.3458 0
M  V30 4245 C 402.838 -2.27477 3.80485 0
M  V30 4246 H 400.058 -0.203317 0.639455 0
M  V30 4247 H 402.602 0.0207653 2.04489 0
M  V30 4248 H 400.757 -2.17412 3.20641 0
M  V30 4249 H 401.171 -1.08232 5.13212 0
M  V30 4250 H 402.645 -2.7564 4.78254 0
M  V30 4251 H 403.122 -3.09144 3.11972 0
M  V30 4252 H 403.728 -1.62813 3.92902 0
M  V30 4253 N 402.043 -1.548 -0.295768 0
M  V30 4254 C 403.273 -1.78069 -1.04762 0
M  V30 4255 C 403.681 -0.542847 -1.81245 0
M  V30 4256 O 403.024 0.497051 -1.76848 0
M  V30 4257 C 403.086 -2.93881 -2.07061 0
M  V30 4258 C 402.75 -4.31777 -1.49725 0
M  V30 4259 C 403.747 -5.11613 -0.924581 0
M  V30 4260 C 401.432 -4.78389 -1.5313 0
M  V30 4261 C 403.426 -6.36184 -0.393594 0
M  V30 4262 C 401.113 -6.02921 -0.996447 0
M  V30 4263 C 402.111 -6.81654 -0.428569 0
M  V30 4264 O 401.799 -8.0384 0.0981593 0
M  V30 4265 H 401.531 -0.597475 -0.316226 0
M  V30 4266 H 404.085 -2.02584 -0.338973 0
M  V30 4267 H 402.315 -2.65003 -2.81621 0
M  V30 4268 H 404.004 -3.04679 -2.6819 0
M  V30 4269 H 404.77 -4.76743 -0.891136 0
M  V30 4270 H 400.649 -4.17132 -1.9627 0
M  V30 4271 H 404.193 -6.97582 0.0503014 0
M  V30 4272 H 400.09 -6.37277 -1.02706 0
M  V30 4273 H 400.858 -8.18499 -0.0146455 0
M  V30 4274 N 403.521 0.559213 -1.47345 0
M  V30 4275 C 404.453 1.68161 -1.55738 0
M  V30 4276 C 405.466 1.56636 -0.443744 0
M  V30 4277 O 406.655 1.6363 -0.713258 0
M  V30 4278 C 403.755 3.06611 -1.4437 0
M  V30 4279 C 402.928 3.4391 -2.70268 0
M  V30 4280 C 401.987 4.61515 -2.52765 0
M  V30 4281 O 401.013 4.66197 -3.26572 0
M  V30 4282 N 402.215 5.57883 -1.6046 0
M  V30 4283 H 404.98 1.61408 -2.52522 0
M  V30 4284 H 402.541 0.7458 -1.43699 0
M  V30 4285 H 404.533 3.83117 -1.30398 0
M  V30 4286 H 403.103 3.07602 -0.556766 0
M  V30 4287 H 402.323 2.56873 -2.99015 0
M  V30 4288 H 403.611 3.65605 -3.53851 0
M  V30 4289 H 403.009 5.56855 -0.996422 0
M  V30 4290 H 401.566 6.33723 -1.52441 0
M  V30 4291 N 404.999 1.35443 0.805782 0
M  V30 4292 C 406.239 1.30127 1.57627 0
M  V30 4293 C 406.603 -0.122567 1.91608 0
M  V30 4294 O 407.804 -0.300107 2.67119 0
M  V30 4295 C 406.075 2.18314 2.82973 0
M  V30 4296 S 407.634 2.30521 3.7337 0
M  V30 4297 H 404.452 0.462439 0.540066 0
M  V30 4298 H 407.054 1.70843 0.95042 0
M  V30 4299 H 405.758 3.20741 2.56034 0
M  V30 4300 H 405.289 1.78558 3.50543 0
M  V30 4301 H 407.304 1.49062 4.73281 0
M  V30 4302 N 406.477 -1.02803 1.19454 0
M  V30 4303 C 407.407 -2.12999 0.956758 0
M  V30 4304 C 408.388 -1.69743 -0.110188 0
M  V30 4305 O 409.573 -1.94148 0.0450038 0
M  V30 4306 C 406.703 -3.43746 0.495553 0
M  V30 4307 C 405.657 -4.00688 1.50443 0
M  V30 4308 C 404.983 -5.27067 0.900275 0
M  V30 4309 C 406.283 -4.35397 2.8849 0
M  V30 4310 H 407.977 -2.33148 1.87836 0
M  V30 4311 H 405.523 -1.12045 0.904539 0
M  V30 4312 H 407.476 -4.2021 0.316493 0
M  V30 4313 H 406.2 -3.23321 -0.461646 0
M  V30 4314 H 404.859 -3.2632 1.67065 0
M  V30 4315 H 404.507 -5.02959 -0.064503 0
M  V30 4316 H 404.207 -5.66127 1.57397 0
M  V30 4317 H 405.731 -6.06196 0.73203 0
M  V30 4318 H 407.145 -5.02795 2.75446 0
M  V30 4319 H 405.542 -4.85541 3.52661 0
M  V30 4320 H 406.612 -3.44662 3.41081 0
M  V30 4321 N 407.956 -0.998596 -1.21925 0
M  V30 4322 C 408.903 -0.553621 -2.24062 0
M  V30 4323 C 409.873 0.416999 -1.6078 0
M  V30 4324 O 411.058 0.320482 -1.88089 0
M  V30 4325 C 408.198 0.119959 -3.44891 0
M  V30 4326 C 407.311 -0.893077 -4.22668 0
M  V30 4327 C 406.446 -0.192424 -5.30851 0
M  V30 4328 C 405.485 -1.19344 -6.00353 0
M  V30 4329 N 404.622 -0.520707 -7.00166 0
M  V30 4330 H 409.462 -1.4293 -2.61486 0
M  V30 4331 H 406.999 -0.715838 -1.28507 0
M  V30 4332 H 408.957 0.527459 -4.13852 0
M  V30 4333 H 407.587 0.959389 -3.08214 0
M  V30 4334 H 406.639 -1.41886 -3.52948 0
M  V30 4335 H 407.951 -1.65512 -4.70539 0
M  V30 4336 H 407.105 0.271515 -6.06092 0
M  V30 4337 H 405.844 0.602075 -4.83969 0
M  V30 4338 H 404.849 -1.66795 -5.23889 0
M  V30 4339 H 406.074 -1.98891 -6.49322 0
M  V30 4340 H 404.02 0.254252 -6.55507 0
M  V30 4341 H 403.937 -1.2211 -7.46073 0
M  V30 4342 H 405.205 -0.0797596 -7.79459 0
M  V30 4343 N 409.434 1.37368 -0.772513 0
M  V30 4344 C 410.682 1.99279 -0.336516 0
M  V30 4345 C 411.003 1.6163 1.09091 0
M  V30 4346 O 410.273 0.882109 1.74916 0
M  V30 4347 H 408.853 0.737063 -0.121435 0
M  V30 4348 H 411.515 1.67836 -0.990809 0
M  V30 4349 H 410.611 3.09332 -0.414763 0
M  V30 4350 N 410.912 0.523116 1.48665 0
M  V30 4351 C 412.14 -0.0096312 2.06898 0
M  V30 4352 C 412.555 -1.28784 1.38059 0
M  V30 4353 O 411.912 -1.76453 0.465893 0
M  V30 4354 C 411.963 -0.244386 3.60673 0
M  V30 4355 O 411.684 0.983172 4.26925 0
M  V30 4356 C 413.185 -0.818289 4.35682 0
M  V30 4357 H 410.405 0.0304161 0.67031 0
M  V30 4358 H 412.949 0.726799 1.91149 0
M  V30 4359 H 411.104 -0.930847 3.76051 0
M  V30 4360 H 411.518 0.759653 5.1897 0
M  V30 4361 H 412.992 -0.93201 5.44075 0
M  V30 4362 H 413.469 -1.82153 3.99646 0
M  V30 4363 H 414.075 -0.168609 4.24966 0
M  V30 4364 N 412.39 -1.55475 0.257931 0
M  V30 4365 C 413.638 -1.98813 -0.363009 0
M  V30 4366 C 413.959 -1.14757 -1.57657 0
M  V30 4367 O 413.229 -0.232956 -1.9451 0
M  V30 4368 H 411.809 -0.734308 -0.137113 0
M  V30 4369 H 414.471 -1.9156 0.359281 0
M  V30 4370 H 413.567 -3.04941 -0.664634 0
M  V30 4371 N 413.868 0.0150385 -1.57593 0
M  V30 4372 C 414.778 1.02791 -2.10882 0
M  V30 4373 C 415.794 1.38702 -1.0506 0
M  V30 4374 O 416.97 1.47739 -1.36877 0
M  V30 4375 C 414.035 2.30568 -2.58919 0
M  V30 4376 C 413.096 2.01108 -3.79281 0
M  V30 4377 C 412.329 3.22794 -4.25018 0
M  V30 4378 O 412.552 4.33959 -3.70183 0
M  V30 4379 O 411.486 3.07672 -5.17322 0
M  V30 4380 H 415.312 0.604973 -2.97613 0
M  V30 4381 H 412.897 0.23292 -1.47573 0
M  V30 4382 H 414.779 3.05662 -2.90084 0
M  V30 4383 H 413.454 2.72129 -1.75293 0
M  V30 4384 H 412.361 1.23537 -3.53114 0
M  V30 4385 H 413.694 1.64394 -4.63935 0
M  V30 4386 N 415.346 1.54954 0.287554 0
M  V30 4387 C 416.294 1.87606 1.37502 0
M  V30 4388 C 417.288 0.751001 1.51843 0
M  V30 4389 O 418.494 0.935169 1.53801 0
M  V30 4390 H 414.869 0.595231 0.459569 0
M  V30 4391 H 416.84 2.78477 1.07206 0
M  V30 4392 C 415.589 2.15183 2.73115 0
M  V30 4393 H 414.912 3.01234 2.62866 0
M  V30 4394 H 416.352 2.4196 3.48183 0
M  V30 4395 C 414.811 0.954686 3.2309 0
M  V30 4396 O 415.341 0.181949 4.01288 0
M  V30 4397 N 413.547 0.756368 2.80584 0
M  V30 4398 H 413.094 1.38643 2.17108 0
M  V30 4399 H 413.052 -0.0430391 3.14371 0
M  V30 4400 N 416.824 -0.551391 1.4764 0
M  V30 4401 C 418.054 -1.33163 1.57959 0
M  V30 4402 C 418.462 -1.87785 0.23094 0
M  V30 4403 O 417.805 -1.65996 -0.786825 0
M  V30 4404 C 417.867 -2.53449 2.54958 0
M  V30 4405 C 417.531 -2.20071 4.00522 0
M  V30 4406 C 418.528 -1.77017 4.88836 0
M  V30 4407 C 416.213 -2.31252 4.45901 0
M  V30 4408 C 418.207 -1.4558 6.20552 0
M  V30 4409 C 415.894 -1.99427 5.77644 0
M  V30 4410 C 416.892 -1.56659 6.64791 0
M  V30 4411 O 416.58 -1.25242 7.94084 0
M  V30 4412 H 416.312 -0.412022 0.535923 0
M  V30 4413 H 418.866 -0.674186 1.9402 0
M  V30 4414 H 417.096 -3.22104 2.13976 0
M  V30 4415 H 418.785 -3.15523 2.55343 0
M  V30 4416 H 419.551 -1.67867 4.55023 0
M  V30 4417 H 415.43 -2.63498 3.78272 0
M  V30 4418 H 418.974 -1.12125 6.8853 0
M  V30 4419 H 414.871 -2.08211 6.10998 0
M  V30 4420 H 415.639 -1.38822 8.06642 0
M  V30 4421 N 418.302 -1.35869 -0.798587 0
M  V30 4422 C 419.718 -1.16082 -1.09532 0
M  V30 4423 C 419.918 0.0213124 -2.01489 0
M  V30 4424 O 418.974 0.689488 -2.42904 0
M  V30 4425 C 420.287 -2.46748 -1.7186 0
M  V30 4426 C 421.835 -2.53028 -1.84244 0
M  V30 4427 C 422.31 -3.83758 -2.49988 0
M  V30 4428 N 423.801 -3.85053 -2.57465 0
M  V30 4429 C 424.536 -4.8294 -3.09122 0
M  V30 4430 N 424.032 -5.91217 -3.61157 0
M  V30 4431 N 425.825 -4.70369 -3.0775 0
M  V30 4432 H 417.976 -2.11571 -0.187461 0
M  V30 4433 H 420.239 -0.936726 -0.145765 0
M  V30 4434 H 419.945 -3.33471 -1.11759 0
M  V30 4435 H 419.819 -2.61883 -2.71472 0
M  V30 4436 H 422.206 -1.66729 -2.43486 0
M  V30 4437 H 422.287 -2.418 -0.834643 0
M  V30 4438 H 421.931 -4.70459 -1.91393 0
M  V30 4439 H 421.861 -3.92278 -3.5132 0
M  V30 4440 H 424.352 -3.06822 -2.20609 0
M  V30 4441 H 424.665 -6.61892 -3.98896 0
M  V30 4442 H 423.01 -5.94899 -3.59333 0
M  V30 4443 H 426.201 -3.84914 -2.66381 0
M  V30 4444 H 426.374 -5.46816 -3.47701 0
M  V30 4445 N 419.78 1.02168 -1.19998 0
M  V30 4446 C 421.028 1.75338 -1.00504 0
M  V30 4447 C 421.349 1.89387 0.464506 0
M  V30 4448 O 420.619 1.43268 1.33608 0
M  V30 4449 H 419.199 0.649564 -0.368885 0
M  V30 4450 H 421.861 1.23205 -1.51018 0
M  V30 4451 H 420.957 2.75892 -1.45912 0
M  V30 4452 N 421.258 1.00505 1.21394 0
M  V30 4453 C 422.206 0.558623 2.25792 0
M  V30 4454 C 423.2 -0.396848 1.64686 0
M  V30 4455 O 424.406 -0.268035 1.77993 0
M  V30 4456 H 420.781 0.1623 0.734277 0
M  V30 4457 H 422.752 1.4503 2.60785 0
M  V30 4458 C 421.501 -0.0989574 3.47559 0
M  V30 4459 H 420.824 0.627225 3.94849 0
M  V30 4460 H 422.264 -0.3746 4.22342 0
M  V30 4461 C 420.723 -1.33817 3.09184 0
M  V30 4462 O 421.253 -2.43252 3.19674 0
M  V30 4463 N 419.459 -1.21793 2.63846 0
M  V30 4464 H 419.006 -0.32746 2.5551 0
M  V30 4465 H 418.964 -2.04809 2.38539 0
M  V30 4466 N 422.737 -1.36956 0.779787 0
M  V30 4467 C 423.983 -1.99787 0.348281 0
M  V30 4468 C 424.316 -1.61756 -1.07465 0
M  V30 4469 O 423.591 -0.867639 -1.74075 0
M  V30 4470 C 423.874 -3.56597 0.50104 0
M  V30 4471 C 423.727 -4.04513 1.96697 0
M  V30 4472 C 425.046 -4.40008 -0.0898097 0
M  V30 4473 H 422.165 -0.725796 0.128022 0
M  V30 4474 H 424.807 -1.62514 0.984331 0
M  V30 4475 H 422.957 -3.88479 -0.0404347 0
M  V30 4476 H 424.629 -3.83161 2.56876 0
M  V30 4477 H 422.872 -3.56408 2.47297 0
M  V30 4478 H 423.543 -5.1352 2.02486 0
M  V30 4479 H 426.019 -4.14431 0.372293 0
M  V30 4480 H 424.895 -5.4888 0.0471605 0
M  V30 4481 H 425.156 -4.26035 -1.18096 0
M  V30 4482 N 424.215 -0.530993 -1.48385 0
M  V30 4483 C 425.178 0.220497 -2.28137 0
M  V30 4484 C 426.178 0.866851 -1.35434 0
M  V30 4485 O 427.368 0.726746 -1.58316 0
M  V30 4486 C 424.5 1.31921 -3.1434 0
M  V30 4487 H 425.693 -0.479714 -2.96038 0
M  V30 4488 H 423.246 -0.286968 -1.53643 0
M  V30 4489 H 423.981 2.05264 -2.51072 0
M  V30 4490 H 423.766 0.86085 -3.82533 0
M  V30 4491 H 425.256 1.84776 -3.74497 0
M  V30 4492 N 425.693 1.55336 -0.266172 0
M  V30 4493 C 426.939 1.99692 0.353681 0
M  V30 4494 C 427.272 1.1543 1.56172 0
M  V30 4495 O 426.547 0.222218 1.93226 0
M  V30 4496 C 426.83 3.52316 0.74466 0
M  V30 4497 C 426.683 4.47337 -0.470101 0
M  V30 4498 C 428.002 4.10588 1.58447 0
M  V30 4499 H 425.121 0.725961 0.12708 0
M  V30 4500 H 427.763 1.86336 -0.371333 0
M  V30 4501 H 425.913 3.63829 1.36239 0
M  V30 4502 H 427.585 4.4778 -1.10864 0
M  V30 4503 H 425.828 4.19364 -1.10978 0
M  V30 4504 H 426.499 5.51788 -0.15291 0
M  V30 4505 H 428.975 4.02297 1.06286 0
M  V30 4506 H 427.851 5.17607 1.82686 0
M  V30 4507 H 428.112 3.60253 2.56262 0
M  V30 4508 N 427.171 -0.0066808 1.57599 0
M  V30 4509 C 428.399 -0.704087 1.94551 0
M  V30 4510 C 428.814 -1.67677 0.867746 0
M  V30 4511 O 428.171 -1.8185 -0.153925 0
M  V30 4512 C 428.222 -1.44177 3.31505 0
M  V30 4513 O 427.943 -0.508097 4.35144 0
M  V30 4514 C 429.444 -2.23429 3.82876 0
M  V30 4515 H 426.664 -0.196523 0.641576 0
M  V30 4516 H 429.208 0.042453 2.04456 0
M  V30 4517 H 427.363 -2.13999 3.22929 0
M  V30 4518 H 427.777 -1.02782 5.14331 0
M  V30 4519 H 429.251 -2.70552 4.8115 0
M  V30 4520 H 429.728 -3.05818 3.15233 0
M  V30 4521 H 430.334 -1.58636 3.94607 0
M  V30 4522 N 428.649 -1.55105 -0.279332 0
M  V30 4523 C 429.895 -1.75672 -1.01327 0
M  V30 4524 C 430.228 -0.552739 -1.86168 0
M  V30 4525 O 429.503 0.449827 -1.89227 0
M  V30 4526 C 429.786 -3.05825 -1.90114 0
M  V30 4527 C 429.639 -4.36565 -1.08309 0
M  V30 4528 C 430.958 -3.31975 -2.8893 0
M  V30 4529 H 428.077 -0.639149 -0.366957 0
M  V30 4530 H 430.719 -1.87833 -0.286154 0
M  V30 4531 H 428.869 -2.95588 -2.52111 0
M  V30 4532 H 430.541 -4.58751 -0.484314 0
M  V30 4533 H 428.784 -4.32076 -0.386362 0
M  V30 4534 H 429.455 -5.23946 -1.73737 0
M  V30 4535 H 431.931 -3.41963 -2.37067 0
M  V30 4536 H 430.807 -4.2432 -3.48201 0
M  V30 4537 H 431.068 -2.51309 -3.63725 0
M  V30 4538 N 430.127 0.543554 -1.4793 0
M  V30 4539 C 431.352 1.32995 -1.59145 0
M  V30 4540 C 431.777 1.86472 -0.246956 0
M  V30 4541 O 431.135 1.63696 0.779324 0
M  V30 4542 C 431.183 2.46623 -2.63077 0
M  V30 4543 O 430.287 3.49261 -2.19295 0
M  V30 4544 H 429.628 0.394472 -0.534124 0
M  V30 4545 H 432.158 0.655489 -1.93816 0
M  V30 4546 H 432.168 2.93001 -2.83926 0
M  V30 4547 H 430.843 2.07059 -3.60693 0
M  V30 4548 H 429.42 3.09094 -2.08603 0
M  V30 4549 N 431.605 1.3629 0.791371 0
M  V30 4550 C 432.853 1.30154 1.5461 0
M  V30 4551 C 433.174 -0.119409 1.94634 0
M  V30 4552 O 432.444 -1.05924 1.64794 0
M  V30 4553 H 431.024 0.478784 0.573389 0
M  V30 4554 H 433.686 1.70565 0.94306 0
M  V30 4555 H 432.782 1.92762 2.45457 0
M  V30 4556 N 433.083 -1.0153 1.20538 0
M  V30 4557 C 434.033 -2.08482 0.922991 0
M  V30 4558 C 435.017 -1.60469 -0.117702 0
M  V30 4559 O 436.209 -1.76772 0.0898465 0
M  V30 4560 C 433.338 -3.39952 0.478312 0
M  V30 4561 C 432.424 -3.94662 1.5525 0
M  V30 4562 N 432.815 -4.22866 2.77521 0
M  V30 4563 C 431.113 -4.22825 1.41897 0
M  V30 4564 C 431.814 -4.67002 3.4682 0
M  V30 4565 N 430.79 -4.69356 2.74237 0
M  V30 4566 H 434.592 -2.28199 1.85209 0
M  V30 4567 H 432.106 -1.19512 1.09957 0
M  V30 4568 H 434.103 -4.16105 0.257408 0
M  V30 4569 H 432.763 -3.21648 -0.444148 0
M  V30 4570 H 433.774 -4.11732 3.1416 0
M  V30 4571 H 430.451 -4.13714 0.561015 0
M  V30 4572 H 431.841 -4.97632 4.51455 0
M  V30 4573 N 434.561 -1.01147 -1.20859 0
M  V30 4574 C 435.789 -0.716911 -1.94082 0
M  V30 4575 C 436.204 0.721568 -1.74467 0
M  V30 4576 O 435.561 1.48889 -1.05539 0
M  V30 4577 C 435.612 -1.03662 -3.46318 0
M  V30 4578 O 435.333 -2.4186 -3.65288 0
M  V30 4579 C 436.834 -0.762386 -4.36695 0
M  V30 4580 H 434.054 -0.26367 -0.617024 0
M  V30 4581 H 436.598 -1.35127 -1.53496 0
M  V30 4582 H 434.753 -0.447757 -3.84804 0
M  V30 4583 H 435.167 -2.53224 -4.59323 0
M  V30 4584 H 436.641 -1.03621 -5.42187 0
M  V30 4585 H 437.118 0.303514 -4.3815 0
M  V30 4586 H 437.724 -1.33316 -4.03865 0
M  V30 4587 N 436.039 1.36541 -0.78704 0
M  V30 4588 C 437.279 2.01138 -0.363714 0
M  V30 4589 C 437.643 1.61114 1.04433 0
M  V30 4590 O 438.844 2.18285 1.56861 0
M  V30 4591 C 437.115 3.53603 -0.519582 0
M  V30 4592 S 438.674 4.38415 -0.183782 0
M  V30 4593 H 435.492 0.697263 -0.13909 0
M  V30 4594 H 438.094 1.66475 -1.02501 0
M  V30 4595 H 436.798 3.8022 -1.5447 0
M  V30 4596 H 436.329 3.93084 0.15773 0
M  V30 4597 H 438.344 4.85698 1.01547 0
M  V30 4598 N 437.518 0.538854 1.48102 0
M  V30 4599 C 438.45 -0.256278 2.27763 0
M  V30 4600 C 439.463 -0.89633 1.35904 0
M  V30 4601 O 440.652 -0.773275 1.60881 0
M  V30 4602 C 437.752 -1.37896 3.09577 0
M  V30 4603 C 436.925 -0.839159 4.29275 0
M  V30 4604 C 435.984 -1.84405 4.9283 0
M  V30 4605 O 435.01 -1.39746 5.51779 0
M  V30 4606 N 436.212 -3.17666 4.85869 0
M  V30 4607 H 438.977 0.426968 2.96643 0
M  V30 4608 H 436.538 0.373747 1.57527 0
M  V30 4609 H 438.53 -2.04955 3.48963 0
M  V30 4610 H 437.1 -1.96572 2.4306 0
M  V30 4611 H 436.32 0.00769287 3.94199 0
M  V30 4612 H 437.608 -0.457548 5.06739 0
M  V30 4613 H 437.006 -3.56609 4.39143 0
M  V30 4614 H 435.563 -3.80334 5.29329 0
M  V30 4615 N 438.996 -1.55193 0.274407 0
M  V30 4616 C 439.946 -2.19184 -0.627882 0
M  V30 4617 C 440.93 -1.15625 -1.11892 0
M  V30 4618 O 442.122 -1.41441 -1.06411 0
M  V30 4619 C 439.251 -2.91591 -1.81189 0
M  V30 4620 C 438.337 -4.02438 -1.33807 0
M  V30 4621 N 438.728 -5.0246 -0.580349 0
M  V30 4622 C 437.026 -4.15496 -1.62109 0
M  V30 4623 C 437.727 -5.80756 -0.331344 0
M  V30 4624 N 436.703 -5.36038 -0.903556 0
M  V30 4625 H 440.505 -2.93871 -0.0411216 0
M  V30 4626 H 438.019 -1.62213 0.0779348 0
M  V30 4627 H 440.016 -3.35883 -2.46957 0
M  V30 4628 H 438.676 -2.18414 -2.40261 0
M  V30 4629 H 439.687 -5.17399 -0.227762 0
M  V30 4630 H 436.364 -3.53509 -2.22121 0
M  V30 4631 H 437.754 -6.71335 0.275454 0
M  V30 4632 N 440.474 -0.00167713 -1.576 0
M  V30 4633 C 441.72 0.67819 -1.91761 0
M  V30 4634 C 442.075 1.71288 -0.876256 0
M  V30 4635 O 441.368 1.91276 0.111333 0
M  V30 4636 C 441.562 1.36189 -3.30435 0
M  V30 4637 C 441.391 0.394938 -4.47962 0
M  V30 4638 C 440.161 0.00472875 -5.053 0
M  V30 4639 C 442.359 -0.339521 -5.13178 0
M  V30 4640 N 440.341 -0.960257 -6.06343 0
M  V30 4641 C 441.712 -1.15914 -6.09068 0
M  V30 4642 C 443.767 -0.403177 -4.96265 0
M  V30 4643 C 442.47 -2.03661 -6.89866 0
M  V30 4644 C 444.496 -1.26788 -5.77649 0
M  V30 4645 C 443.858 -2.07535 -6.73134 0
M  V30 4646 H 439.957 0.221317 -0.750028 0
M  V30 4647 H 442.541 -0.0624182 -1.946 0
M  V30 4648 H 440.712 2.07278 -3.28467 0
M  V30 4649 H 442.444 1.99658 -3.52021 0
M  V30 4650 H 439.199 0.373452 -4.72125 0
M  V30 4651 H 439.623 -1.43817 -6.61548 0
M  V30 4652 H 444.265 0.206818 -4.22294 0
M  V30 4653 H 441.983 -2.65727 -7.63161 0
M  V30 4654 H 445.569 -1.32107 -5.66603 0
M  V30 4655 H 444.449 -2.73363 -7.35012 0
M  V30 4656 N 441.952 1.55251 0.271103 0
M  V30 4657 C 443.177 1.80306 1.02491 0
M  V30 4658 C 443.602 0.575457 1.79081 0
M  V30 4659 O 442.96 -0.474987 1.74967 0
M  V30 4660 C 443.008 3.02832 1.95768 0
M  V30 4661 O 442.112 2.78051 3.04568 0
M  V30 4662 H 441.453 0.595896 0.292923 0
M  V30 4663 H 443.983 2.02397 0.299436 0
M  V30 4664 H 443.993 3.31616 2.37686 0
M  V30 4665 H 442.668 3.9183 1.39434 0
M  V30 4666 H 441.245 2.60369 2.66951 0
M  V30 4667 N 443.43 -0.535701 1.48216 0
M  V30 4668 C 444.393 -1.623 1.61838 0
M  V30 4669 C 445.393 -1.53087 0.492024 0
M  V30 4670 O 446.583 -1.5686 0.757668 0
M  V30 4671 C 443.715 -3.01907 1.58319 0
M  V30 4672 H 444.908 -1.51564 2.58783 0
M  V30 4673 H 442.461 -0.757317 1.36727 0
M  V30 4674 H 443.196 -3.18155 0.628299 0
M  V30 4675 H 442.981 -3.10003 2.40085 0
M  V30 4676 H 444.471 -3.80969 1.71033 0
M  V30 4677 N 444.908 -1.36708 -0.784132 0
M  V30 4678 C 445.84 -1.27333 -1.90575 0
M  V30 4679 C 446.853 -0.191706 -1.61667 0
M  V30 4680 O 448.042 -0.446854 -1.72816 0
M  V30 4681 C 445.142 -0.943177 -3.25511 0
M  V30 4682 C 444.315 -2.12776 -3.82158 0
M  V30 4683 C 443.374 -1.76983 -4.95544 0
M  V30 4684 O 442.4 -2.49134 -5.11782 0
M  V30 4685 N 443.602 -0.706624 -5.76183 0
M  V30 4686 H 446.367 -2.23974 -1.99138 0
M  V30 4687 H 443.928 -1.30171 -0.962656 0
M  V30 4688 H 445.92 -0.684799 -3.98864 0
M  V30 4689 H 444.49 -0.0657333 -3.12531 0
M  V30 4690 H 443.71 -2.54863 -3.0073 0
M  V30 4691 H 444.998 -2.91904 -4.16737 0
M  V30 4692 H 444.396 -0.107643 -5.65598 0
M  V30 4693 H 442.953 -0.50808 -6.49817 0
M  V30 4694 N 446.386 1.0089 -1.21074 0
M  V30 4695 C 447.614 1.78191 -1.05145 0
M  V30 4696 C 448.029 1.84537 0.398952 0
M  V30 4697 O 447.386 1.30393 1.27687 0
M  V30 4698 C 447.437 3.22288 -1.63746 0
M  V30 4699 O 447.158 3.16315 -3.03111 0
M  V30 4700 C 448.659 4.16106 -1.52875 0
M  V30 4701 H 445.879 0.560129 -0.369454 0
M  V30 4702 H 448.423 1.26945 -1.60328 0
M  V30 4703 H 446.578 3.70655 -1.12664 0
M  V30 4704 H 446.992 4.06817 -3.31059 0
M  V30 4705 H 448.466 5.15026 -1.98626 0
M  V30 4706 H 448.943 4.36541 -0.482521 0
M  V30 4707 H 449.549 3.73625 -2.03185 0
M  V30 4708 N 447.864 1.01787 1.20321 0
M  V30 4709 C 449.275 0.739307 1.71438 0
M  V30 4710 C 449.626 -0.742041 1.81627 0
M  V30 4711 O 448.751 -1.57903 1.47971 0
M  V30 4712 C 449.346 1.33538 3.11373 0
M  V30 4713 C 447.905 1.10566 3.59795 0
M  V30 4714 C 447.052 1.44028 2.36962 0
M  V30 4715 H 450.003 1.18718 1.05317 0
M  V30 4716 H 450.024 0.726611 3.73498 0
M  V30 4717 H 449.536 2.41352 3.03926 0
M  V30 4718 H 447.637 0.0452405 3.72573 0
M  V30 4719 H 447.75 1.78661 4.44542 0
M  V30 4720 H 446.114 0.85933 2.39766 0
M  V30 4721 H 446.897 2.52901 2.32155 0
M  V30 4722 N 449.342 -1.36122 0.79427 0
M  V30 4723 C 450.292 -2.27373 0.169017 0
M  V30 4724 C 451.276 -1.4719 -0.649913 0
M  V30 4725 O 452.468 -1.69518 -0.50919 0
M  V30 4726 C 449.597 -3.36264 -0.691455 0
M  V30 4727 C 448.683 -4.2388 0.13653 0
M  V30 4728 N 449.074 -4.91519 1.19345 0
M  V30 4729 C 447.372 -4.45921 -0.0838499 0
M  V30 4730 C 448.073 -5.56369 1.6979 0
M  V30 4731 N 447.049 -5.34204 1.00634 0
M  V30 4732 H 450.851 -2.77154 0.977897 0
M  V30 4733 H 448.365 -1.49504 0.634208 0
M  V30 4734 H 450.362 -4.00572 -1.15534 0
M  V30 4735 H 449.022 -2.88037 -1.49883 0
M  V30 4736 H 450.033 -4.9334 1.57594 0
M  V30 4737 H 446.71 -4.08518 -0.861341 0
M  V30 4738 H 448.1 -6.20368 2.58055 0
M  V30 4739 N 450.82 -0.546701 -1.47814 0
M  V30 4740 C 452.048 -0.0232857 -2.06887 0
M  V30 4741 C 452.463 1.26571 -1.4009 0
M  V30 4742 O 451.82 1.7569 -0.493906 0
M  V30 4743 C 451.871 0.186975 -3.61016 0
M  V30 4744 O 451.592 -1.05097 -4.25307 0
M  V30 4745 C 453.093 0.748872 -4.36929 0
M  V30 4746 H 450.313 -0.0410763 -0.669742 0
M  V30 4747 H 452.857 -0.757117 -1.89968 0
M  V30 4748 H 451.012 0.870903 -3.77484 0
M  V30 4749 H 451.426 -0.842121 -5.17695 0
M  V30 4750 H 452.9 0.845334 -5.45489 0
M  V30 4751 H 453.377 1.75772 -4.02493 0
M  V30 4752 H 453.983 0.100979 -4.2518 0
M  V30 4753 N 452.299 1.55045 -0.282633 0
M  V30 4754 C 453.249 2.19514 0.616249 0
M  V30 4755 C 454.233 1.16216 1.11277 0
M  V30 4756 O 455.425 1.42004 1.05659 0
M  V30 4757 C 452.554 2.92548 1.7964 0
M  V30 4758 C 451.64 4.03142 1.31671 0
M  V30 4759 N 452.031 5.0276 0.553695 0
M  V30 4760 C 450.329 4.1635 1.59903 0
M  V30 4761 C 451.03 5.80923 0.30054 0
M  V30 4762 N 450.006 5.3651 0.875116 0
M  V30 4763 H 453.808 2.93889 0.0255363 0
M  V30 4764 H 451.322 1.62169 -0.0865362 0
M  V30 4765 H 453.319 3.37188 2.45173 0
M  V30 4766 H 451.979 2.19685 2.39099 0
M  V30 4767 H 452.99 5.17512 0.20032 0
M  V30 4768 H 449.667 3.54682 2.20243 0
M  V30 4769 H 451.057 6.7118 -0.311053 0
M  V30 4770 N 453.777 0.010035 1.57597 0
M  V30 4771 C 454.725 -0.996272 2.10184 0
M  V30 4772 C 455.719 -1.34942 1.02406 0
M  V30 4773 O 456.925 -1.33389 1.20861 0
M  V30 4774 H 453.3 -0.338982 0.671264 0
M  V30 4775 H 455.271 -0.527272 2.93705 0
M  V30 4776 C 454.02 -2.27599 2.62857 0
M  V30 4777 H 453.343 -2.01295 3.45428 0
M  V30 4778 H 454.783 -2.96265 3.0332 0
M  V30 4779 C 453.242 -2.99269 1.54725 0
M  V30 4780 O 453.772 -3.90644 0.93597 0
M  V30 4781 N 451.978 -2.61269 1.27228 0
M  V30 4782 H 451.525 -1.87043 1.77123 0
M  V30 4783 H 451.483 -3.09534 0.550999 0
M  V30 4784 N 455.255 -1.55392 -0.262866 0
M  V30 4785 C 456.671 -1.47459 -0.610582 0
M  V30 4786 C 456.871 -0.697031 -1.8906 0
M  V30 4787 O 455.927 -0.219952 -2.5154 0
M  V30 4788 C 457.24 -2.91751 -0.728131 0
M  V30 4789 C 458.788 -3.02027 -0.821517 0
M  V30 4790 C 459.263 -4.47594 -0.97076 0
M  V30 4791 N 460.754 -4.51465 -1.03603 0
M  V30 4792 C 461.489 -5.61326 -1.17049 0
M  V30 4793 N 460.985 -6.81032 -1.2715 0
M  V30 4794 N 462.778 -5.49089 -1.20239 0
M  V30 4795 H 454.929 -2.04395 0.577632 0
M  V30 4796 H 457.192 -0.927287 0.197086 0
M  V30 4797 H 456.898 -3.51413 0.142132 0
M  V30 4798 H 456.772 -3.4134 -1.6052 0
M  V30 4799 H 459.159 -2.42456 -1.68224 0
M  V30 4800 H 459.24 -2.55674 0.0803688 0
M  V30 4801 H 458.884 -5.07771 -0.114655 0
M  V30 4802 H 458.814 -4.91613 -1.88745 0
M  V30 4803 H 461.305 -3.6524 -0.96996 0
M  V30 4804 H 461.618 -7.60511 -1.37271 0
M  V30 4805 H 459.963 -6.83824 -1.24136 0
M  V30 4806 H 463.154 -4.54507 -1.11985 0
M  V30 4807 H 463.327 -6.34749 -1.30373 0
M  V30 4808 N 456.733 0.527833 -1.48498 0
M  V30 4809 C 457.961 1.30823 -1.6029 0
M  V30 4810 C 458.376 1.86945 -0.263974 0
M  V30 4811 O 457.733 1.6651 0.747034 0
M  V30 4812 C 457.784 2.45756 -2.65116 0
M  V30 4813 O 457.505 1.91946 -3.93813 0
M  V30 4814 C 459.006 3.37543 -2.87367 0
M  V30 4815 H 456.226 0.397763 -0.540394 0
M  V30 4816 H 458.77 0.636529 -1.94341 0
M  V30 4817 H 456.925 3.08806 -2.33917 0
M  V30 4818 H 457.339 2.67195 -4.51339 0
M  V30 4819 H 458.813 4.14532 -3.6451 0
M  V30 4820 H 459.29 3.92905 -1.9627 0
M  V30 4821 H 459.896 2.80283 -3.19878 0
M  V30 4822 N 458.211 1.37122 0.776871 0
M  V30 4823 C 459.622 1.28667 1.35284 0
M  V30 4824 C 459.973 -0.0680035 1.96082 0
M  V30 4825 O 459.098 -0.969743 1.93455 0
M  V30 4826 C 459.693 2.32997 2.45963 0
M  V30 4827 C 458.252 2.28191 2.99342 0
M  V30 4828 C 457.399 2.17101 1.72517 0
M  V30 4829 H 460.35 1.47819 0.577527 0
M  V30 4830 H 460.371 1.97366 3.2531 0
M  V30 4831 H 459.883 3.3158 2.01684 0
M  V30 4832 H 457.984 1.33115 3.4801 0
M  V30 4833 H 458.097 3.21397 3.55304 0
M  V30 4834 H 456.461 1.63562 1.95242 0
M  V30 4835 H 457.244 3.17591 1.30348 0
M  V30 4836 N 459.689 -1.00246 1.21608 0
M  V30 4837 C 460.599 -2.12515 0.993709 0
M  V30 4838 C 461.615 -1.73913 -0.0549939 0
M  V30 4839 O 462.791 -2.00943 0.135619 0
M  V30 4840 C 459.856 -3.42083 0.563953 0
M  V30 4841 C 458.917 -3.94843 1.68516 0
M  V30 4842 C 458.15 -5.18226 1.27582 0
M  V30 4843 O 458.373 -5.70201 0.150506 0
M  V30 4844 O 457.307 -5.64497 2.0887 0
M  V30 4845 H 461.133 -2.34152 1.93407 0
M  V30 4846 H 458.718 -1.10891 1.00118 0
M  V30 4847 H 460.6 -4.20073 0.334194 0
M  V30 4848 H 459.275 -3.21828 -0.347665 0
M  V30 4849 H 458.182 -3.18068 1.96935 0
M  V30 4850 H 459.515 -4.19512 2.5743 0
M  V30 4851 N 461.167 -1.02423 -1.1978 0
M  V30 4852 C 462.115 -0.594474 -2.24875 0
M  V30 4853 C 463.109 0.370598 -1.65296 0
M  V30 4854 O 464.315 0.239684 -1.78397 0
M  V30 4855 H 460.69 -0.173961 -0.731602 0
M  V30 4856 H 462.661 -1.4916 -2.58445 0
M  V30 4857 C 461.41 0.0436512 -3.47673 0
M  V30 4858 H 460.733 -0.689963 -3.93801 0
M  V30 4859 H 462.173 0.307362 -4.22884 0
M  V30 4860 C 460.632 1.28881 -3.11274 0
M  V30 4861 O 461.162 2.38135 -3.23503 0
M  V30 4862 N 459.368 1.1758 -2.6575 0
M  V30 4863 H 458.915 0.286769 -2.55999 0
M  V30 4864 H 458.873 2.00988 -2.41767 0
M  V30 4865 N 462.645 1.35699 -0.801477 0
M  V30 4866 C 463.892 1.98913 -0.379459 0
M  V30 4867 C 464.22 1.63592 1.05204 0
M  V30 4868 O 463.475 0.888563 1.74365 0
M  V30 4869 C 463.774 3.53828 -0.504041 0
M  V30 4870 C 463.44 4.09002 -1.8981 0
M  V30 4871 C 462.102 4.23783 -2.27951 0
M  V30 4872 C 464.454 4.38939 -2.81038 0
M  V30 4873 C 461.782 4.65816 -3.56696 0
M  V30 4874 C 464.134 4.82409 -4.09224 0
M  V30 4875 C 462.798 4.95395 -4.4737 0
M  V30 4876 H 462.068 0.727874 -0.138854 0
M  V30 4877 H 464.715 1.61994 -1.02128 0
M  V30 4878 H 463.02 3.91175 0.221242 0
M  V30 4879 H 464.717 4.00687 -0.158361 0
M  V30 4880 H 461.307 3.97946 -1.59176 0
M  V30 4881 H 465.491 4.27077 -2.52821 0
M  V30 4882 H 460.747 4.74059 -3.86106 0
M  V30 4883 H 464.921 5.04535 -4.80018 0
M  V30 4884 H 462.548 5.27724 -5.47185 0
M  V30 4885 N 464.123 0.554532 1.47522 0
M  V30 4886 C 465.534 0.120446 1.86311 0
M  V30 4887 C 465.885 -1.30904 1.46145 0
M  V30 4888 O 465.01 -1.98434 0.863294 0
M  V30 4889 C 465.605 0.211808 3.38137 0
M  V30 4890 C 464.164 -0.167224 3.76028 0
M  V30 4891 C 463.311 0.560576 2.71575 0
M  V30 4892 H 466.262 0.764408 1.39077 0
M  V30 4893 H 466.283 -0.570275 3.76202 0
M  V30 4894 H 465.795 1.25232 3.6734 0
M  V30 4895 H 463.896 -1.20894 3.52442 0
M  V30 4896 H 464.009 0.189473 4.78725 0
M  V30 4897 H 462.373 0.00396836 2.547 0
M  V30 4898 H 463.156 1.60219 3.0362 0
M  V30 4899 N 465.601 -1.54893 0.290851 0
M  V30 4900 C 466.841 -2.01842 -0.322388 0
M  V30 4901 C 467.205 -1.17477 -1.51865 0
M  V30 4902 O 468.406 -1.54077 -2.20258 0
M  V30 4903 C 466.677 -3.50874 -0.679844 0
M  V30 4904 S 468.236 -4.19796 -1.27739 0
M  V30 4905 H 465.054 -0.704005 -0.0994866 0
M  V30 4906 H 467.656 -1.91015 0.416358 0
M  V30 4907 H 466.36 -4.09915 0.199435 0
M  V30 4908 H 465.891 -3.65717 -1.44964 0
M  V30 4909 H 467.906 -4.24729 -2.56554 0
M  V30 4910 N 467.08 -0.0183926 -1.57589 0
M  V30 4911 C 468.027 0.967022 -2.09565 0
M  V30 4912 C 468.997 1.32983 -0.995225 0
M  V30 4913 O 470.182 1.42501 -1.26878 0
M  V30 4914 C 467.322 2.24772 -2.61861 0
M  V30 4915 C 466.435 1.94232 -3.85873 0
M  V30 4916 C 465.57 3.16518 -4.26603 0
M  V30 4917 C 464.609 2.81748 -5.43401 0
M  V30 4918 N 463.746 3.96626 -5.79338 0
M  V30 4919 H 468.586 0.516874 -2.93483 0
M  V30 4920 H 466.123 0.243544 -1.4507 0
M  V30 4921 H 468.081 2.99667 -2.90268 0
M  V30 4922 H 466.711 2.67423 -1.8079 0
M  V30 4923 H 465.763 1.09625 -3.64262 0
M  V30 4924 H 467.075 1.64616 -4.70853 0
M  V30 4925 H 466.229 3.99743 -4.56389 0
M  V30 4926 H 464.968 3.49286 -3.40368 0
M  V30 4927 H 463.973 1.96933 -5.1332 0
M  V30 4928 H 465.198 2.50207 -6.31327 0
M  V30 4929 H 463.144 4.29257 -4.96059 0
M  V30 4930 H 463.061 3.70598 -6.58933 0
M  V30 4931 H 464.329 4.80586 -6.13724 0
M  V30 4932 N 468.558 1.5553 0.254621 0
M  V30 4933 C 469.506 1.9048 1.33492 0
M  V30 4934 C 470.5 0.78304 1.50216 0
M  V30 4935 O 471.706 0.967582 1.51782 0
M  V30 4936 H 468.081 0.604846 0.44684 0
M  V30 4937 H 470.052 2.80688 1.01275 0
M  V30 4938 C 468.801 2.20928 2.68489 0
M  V30 4939 H 468.124 3.06742 2.56417 0
M  V30 4940 H 469.564 2.49291 3.42972 0
M  V30 4941 C 468.023 1.023 3.20993 0
M  V30 4942 O 468.553 0.267027 4.00811 0
M  V30 4943 N 466.759 0.815714 2.78917 0
M  V30 4944 H 466.306 1.43217 2.14119 0
M  V30 4945 H 466.264 0.0236532 3.14391 0
M  V30 4946 N 470.036 -0.519951 1.48776 0
M  V30 4947 C 470.966 -1.63253 1.66945 0
M  V30 4948 C 471.947 -1.62014 0.518224 0
M  V30 4949 O 473.132 -1.79053 0.751919 0
M  V30 4950 C 470.262 -3.0181 1.71836 0
M  V30 4951 C 469.216 -3.17911 2.8656 0
M  V30 4952 C 468.542 -4.5763 2.76548 0
M  V30 4953 C 469.842 -2.99729 4.27738 0
M  V30 4954 H 471.536 -1.48302 2.6009 0
M  V30 4955 H 469.082 -0.712026 1.25165 0
M  V30 4956 H 471.035 -3.79525 1.83135 0
M  V30 4957 H 469.759 -3.17806 0.752775 0
M  V30 4958 H 468.418 -2.42616 2.74833 0
M  V30 4959 H 468.066 -4.70476 1.77937 0
M  V30 4960 H 467.766 -4.69346 3.53536 0
M  V30 4961 H 469.29 -5.37431 2.89828 0
M  V30 4962 H 470.704 -3.67228 4.40246 0
M  V30 4963 H 469.101 -3.22932 5.05801 0
M  V30 4964 H 470.171 -1.96047 4.43502 0
M  V30 4965 N 471.514 -1.37532 -0.769588 0
M  V30 4966 C 472.791 -1.23392 -1.51768 0
M  V30 4967 C 473.171 0.17157 -2.10402 0
M  V30 4968 O 472.519 1.17943 -1.95708 0
M  V30 4969 C 472.729 -2.33163 -2.59685 0
M  V30 4970 C 474.077 -2.70809 -3.27028 0
M  V30 4971 O 475.101 -2.32355 -2.69981 0
M  V30 4972 O 473.96 -3.37066 -4.30173 0
M  V30 4973 H 471.054 -0.481617 -0.67229 0
M  V30 4974 H 473.6 -1.49318 -0.806368 0
M  V30 4975 H 472.372 -3.27273 -2.14494 0
M  V30 4976 H 471.995 -2.08713 -3.38415 0
M  V30 4977 N 472.992 0.995999 -1.22138 0
M  V30 4978 C 473.902 2.11985 -1.00496 0
M  V30 4979 C 474.918 1.7394 0.0457701 0
M  V30 4980 O 476.094 2.00868 -0.146273 0
M  V30 4981 C 473.159 3.41779 -0.582086 0
M  V30 4982 C 472.22 3.93943 -1.70608 0
M  V30 4983 C 471.453 5.17542 -1.30328 0
M  V30 4984 O 471.676 5.70114 -0.180743 0
M  V30 4985 O 470.61 5.63382 -2.11861 0
M  V30 4986 H 474.436 2.33123 -1.94647 0
M  V30 4987 H 472.021 1.10358 -1.00705 0
M  V30 4988 H 473.903 4.1989 -0.356467 0
M  V30 4989 H 472.578 3.22007 0.330592 0
M  V30 4990 H 471.485 3.17019 -1.98619 0
M  V30 4991 H 472.818 4.18141 -2.59651 0
M  V30 4992 N 474.47 1.03057 1.19235 0
M  V30 4993 C 475.418 0.606391 2.24557 0
M  V30 4994 C 476.412 -0.361826 1.65491 0
M  V30 4995 O 477.618 -0.23022 1.78522 0
M  V30 4996 H 473.993 0.177838 0.730669 0
M  V30 4997 H 475.964 1.50529 2.5765 0
M  V30 4998 C 474.713 -0.0252127 3.47691 0
M  V30 4999 H 474.036 0.710838 3.9343 0
M  V30 5000 H 475.476 -0.284931 4.23042 0
M  V30 5001 C 473.935 -1.27229 3.11953 0
M  V30 5002 O 474.465 -2.36416 3.24762 0
M  V30 5003 N 472.671 -1.16169 2.6637 0
M  V30 5004 H 472.218 -0.273189 2.56147 0
M  V30 5005 H 472.176 -1.99703 2.42829 0
M  V30 5006 N 475.948 -1.35272 0.808662 0
M  V30 5007 C 477.178 -2.02652 0.401953 0
M  V30 5008 C 477.586 -1.6108 -0.992462 0
M  V30 5009 O 476.929 -0.804984 -1.65123 0
M  V30 5010 C 476.991 -3.57174 0.408246 0
M  V30 5011 C 476.655 -4.22019 1.75353 0
M  V30 5012 C 477.652 -4.43552 2.71215 0
M  V30 5013 C 475.337 -4.59093 2.03811 0
M  V30 5014 C 477.331 -5.01264 3.93717 0
M  V30 5015 C 475.018 -5.16519 3.26576 0
M  V30 5016 C 476.016 -5.37546 4.21347 0
M  V30 5017 O 475.704 -5.93761 5.41944 0
M  V30 5018 H 475.436 -0.656495 0.161216 0
M  V30 5019 H 477.99 -1.73829 1.0942 0
M  V30 5020 H 476.22 -3.85197 -0.340608 0
M  V30 5021 H 477.909 -4.05893 0.0235623 0
M  V30 5022 H 478.675 -4.15288 2.50522 0
M  V30 5023 H 474.554 -4.42039 1.30854 0
M  V30 5024 H 478.098 -5.17592 4.67701 0
M  V30 5025 H 473.995 -5.4421 3.47139 0
M  V30 5026 H 474.763 -6.1221 5.43269 0
M  V30 5027 N 477.426 -0.562348 -1.47226 0
M  V30 5028 C 478.666 -0.0426374 -2.04356 0
M  V30 5029 C 479.03 1.28487 -1.42671 0
M  V30 5030 O 480.231 1.89259 -1.90878 0
M  V30 5031 C 478.502 0.0433826 -3.57374 0
M  V30 5032 S 480.061 0.508472 -4.35844 0
M  V30 5033 H 476.879 -0.0276234 -0.710463 0
M  V30 5034 H 479.481 -0.750245 -1.80531 0
M  V30 5035 H 478.185 -0.927072 -3.99792 0
M  V30 5036 H 477.716 0.774387 -3.85703 0
M  V30 5037 H 479.731 1.76719 -4.63665 0
M  V30 5038 N 478.904 1.54736 -0.299062 0
M  V30 5039 C 480.32 1.59507 0.0543849 0
M  V30 5040 C 480.52 1.31606 1.52585 0
M  V30 5041 O 479.576 1.08853 2.27832 0
M  V30 5042 C 480.889 2.98751 -0.34181 0
M  V30 5043 C 482.437 3.1165 -0.290414 0
M  V30 5044 C 482.912 4.53199 -0.661402 0
M  V30 5045 N 484.403 4.59114 -0.613863 0
M  V30 5046 C 485.138 5.66709 -0.873417 0
M  V30 5047 N 484.634 6.82349 -1.19884 0
M  V30 5048 N 486.427 5.56369 -0.800608 0
M  V30 5049 H 478.578 1.71133 -1.25806 0
M  V30 5050 H 480.841 0.799186 -0.509908 0
M  V30 5051 H 480.547 3.24085 -1.36608 0
M  V30 5052 H 480.421 3.75961 0.305508 0
M  V30 5053 H 482.808 2.86066 0.724605 0
M  V30 5054 H 482.889 2.366 -0.972327 0
M  V30 5055 H 482.533 4.79513 -1.67422 0
M  V30 5056 H 482.463 5.26583 0.0425612 0
M  V30 5057 H 484.954 3.76053 -0.3732 0
M  V30 5058 H 485.267 7.60326 -1.38291 0
M  V30 5059 H 483.612 6.83906 -1.23685 0
M  V30 5060 H 486.803 4.64904 -0.546045 0
M  V30 5061 H 486.976 6.40139 -1.00626 0
M  V30 5062 N 480.382 0.0267497 1.57577 0
M  V30 5063 C 481.33 -0.973923 2.11229 0
M  V30 5064 C 482.324 -1.33849 1.03831 0
M  V30 5065 O 483.53 -1.321 1.22269 0
M  V30 5066 H 479.905 -0.331844 0.674821 0
M  V30 5067 H 481.876 -0.496092 2.94247 0
M  V30 5068 C 480.625 -2.24798 2.65257 0
M  V30 5069 H 479.948 -1.9762 3.47543 0
M  V30 5070 H 481.388 -2.93031 3.06445 0
M  V30 5071 C 479.847 -2.97611 1.57891 0
M  V30 5072 O 480.377 -3.89629 0.97735 0
M  V30 5073 N 478.583 -2.59905 1.29992 0
M  V30 5074 H 478.13 -1.85154 1.79097 0
M  V30 5075 H 478.088 -3.08932 0.583798 0
M  V30 5076 N 481.861 -1.55662 -0.24637 0
M  V30 5077 C 483.272 -1.67953 -0.81539 0
M  V30 5078 C 483.623 -0.624302 -1.86002 0
M  V30 5079 O 482.748 0.229328 -2.15181 0
M  V30 5080 C 483.343 -3.04484 -1.48576 0
M  V30 5081 C 481.902 -3.18713 -2.00248 0
M  V30 5082 C 481.049 -2.6383 -0.853766 0
M  V30 5083 H 484 -1.58685 -0.0221692 0
M  V30 5084 H 484.021 -2.98959 -2.3538 0
M  V30 5085 H 483.533 -3.81264 -0.725222 0
M  V30 5086 H 481.634 -2.46757 -2.79181 0
M  V30 5087 H 481.747 -4.25628 -2.1995 0
M  V30 5088 H 480.111 -2.21667 -1.25442 0
M  V30 5089 H 480.894 -3.43135 -0.106302 0
M  V30 5090 N 483.339 0.512053 -1.4905 0
M  V30 5091 C 484.616 1.27337 -1.48474 0
M  V30 5092 C 484.996 2.1009 -0.206301 0
M  V30 5093 O 484.344 2.136 0.811609 0
M  V30 5094 C 484.554 2.13954 -2.75726 0
M  V30 5095 C 485.902 2.73507 -3.24776 0
M  V30 5096 O 486.926 2.24229 -2.76767 0
M  V30 5097 O 485.785 3.63186 -4.08361 0
M  V30 5098 H 482.879 0.575652 -0.593762 0
M  V30 5099 H 485.425 0.527232 -1.61302 0
M  V30 5100 H 484.197 1.52709 -3.60272 0
M  V30 5101 H 483.82 2.95782 -2.65705 0
M  V30 5102 N 484.817 1.37938 0.762283 0
M  V30 5103 C 486.065 1.33404 1.51815 0
M  V30 5104 C 486.386 -0.0780975 1.94844 0
M  V30 5105 O 485.656 -1.02405 1.67003 0
M  V30 5106 H 484.236 0.490839 0.563104 0
M  V30 5107 H 486.898 1.72527 0.906669 0
M  V30 5108 H 485.994 1.97926 2.41313 0
M  V30 5109 N 486.295 -0.989507 1.22664 0
M  V30 5110 C 487.242 -2.08024 0.999733 0
M  V30 5111 C 488.212 -1.65909 -0.0797047 0
M  V30 5112 O 489.397 -1.90669 0.0705715 0
M  V30 5113 C 486.537 -3.40067 0.587234 0
M  V30 5114 C 485.65 -3.95505 1.73781 0
M  V30 5115 C 484.785 -5.15722 1.27297 0
M  V30 5116 C 483.824 -5.63305 2.39488 0
M  V30 5117 N 482.961 -6.74758 1.94026 0
M  V30 5118 H 487.801 -2.26768 1.9334 0
M  V30 5119 H 485.338 -1.11171 0.963297 0
M  V30 5120 H 487.296 -4.15899 0.329227 0
M  V30 5121 H 485.926 -3.21314 -0.309426 0
M  V30 5122 H 484.978 -3.16513 2.11006 0
M  V30 5123 H 486.29 -4.26797 2.58158 0
M  V30 5124 H 485.444 -5.98854 0.972546 0
M  V30 5125 H 484.183 -4.86061 0.399445 0
M  V30 5126 H 483.188 -4.78759 2.70315 0
M  V30 5127 H 484.413 -5.94988 3.27362 0
M  V30 5128 H 482.359 -6.46874 1.09041 0
M  V30 5129 H 482.276 -7.05386 2.71968 0
M  V30 5130 H 483.544 -7.61387 1.67062 0
M  V30 5131 N 487.773 -1.03688 -1.18687 0
M  V30 5132 C 489.189 -0.755413 -1.4059 0
M  V30 5133 C 489.389 0.656659 -1.905 0
M  V30 5134 O 488.445 1.42144 -2.08689 0
M  V30 5135 C 489.758 -1.7983 -2.41001 0
M  V30 5136 C 491.306 -1.81877 -2.54735 0
M  V30 5137 C 491.781 -2.85148 -3.58406 0
M  V30 5138 N 493.272 -2.84015 -3.6591 0
M  V30 5139 C 494.007 -3.60573 -4.45841 0
M  V30 5140 N 493.503 -4.46871 -5.29413 0
M  V30 5141 N 495.296 -3.49079 -4.40568 0
M  V30 5142 H 487.447 -1.94818 -0.846148 0
M  V30 5143 H 489.71 -0.842727 -0.434184 0
M  V30 5144 H 489.416 -2.81097 -2.1137 0
M  V30 5145 H 489.29 -1.62727 -3.40294 0
M  V30 5146 H 491.677 -0.812836 -2.83685 0
M  V30 5147 H 491.758 -2.03057 -1.55568 0
M  V30 5148 H 491.402 -3.85918 -3.30197 0
M  V30 5149 H 491.332 -2.61224 -4.57241 0
M  V30 5150 H 493.823 -2.21431 -3.0623 0
M  V30 5151 H 494.136 -5.02007 -5.87545 0
M  V30 5152 H 492.481 -4.5094 -5.28846 0
M  V30 5153 H 495.672 -2.81066 -3.74325 0
M  V30 5154 H 495.845 -4.08994 -5.02621 0
M  V30 5155 N 489.251 1.34841 -0.815825 0
M  V30 5156 C 490.214 2.27959 -0.238185 0
M  V30 5157 C 491.214 1.49983 0.579816 0
M  V30 5158 O 492.404 1.69617 0.396953 0
M  V30 5159 C 489.536 3.34314 0.666876 0
M  V30 5160 H 490.729 2.80558 -1.05958 0
M  V30 5161 H 488.282 1.44852 -0.587156 0
M  V30 5162 H 489.017 2.86916 1.5116 0
M  V30 5163 H 488.802 3.92014 0.0819106 0
M  V30 5164 H 490.292 4.0379 1.06506 0
M  V30 5165 N 490.729 0.570148 1.46925 0
M  V30 5166 C 492.14 0.1402 1.86173 0
M  V30 5167 C 492.491 -1.29347 1.47526 0
M  V30 5168 O 491.616 -1.97508 0.884292 0
M  V30 5169 C 492.211 0.247661 3.37894 0
M  V30 5170 C 490.77 -0.127332 3.76185 0
M  V30 5171 C 489.917 0.589349 2.70965 0
M  V30 5172 H 492.868 0.779117 1.38259 0
M  V30 5173 H 492.889 -0.530341 3.76786 0
M  V30 5174 H 492.401 1.29121 3.65991 0
M  V30 5175 H 490.502 -1.17149 3.53704 0
M  V30 5176 H 490.615 0.240238 4.78497 0
M  V30 5177 H 488.979 0.0309824 2.54681 0
M  V30 5178 H 489.762 1.6343 3.01903 0
M  V30 5179 N 492.207 -1.54576 0.307264 0
M  V30 5180 C 493.453 -2.01272 -0.293453 0
M  V30 5181 C 493.808 -1.19178 -1.51044 0
M  V30 5182 O 493.101 -0.261704 -1.89804 0
M  V30 5183 C 493.295 -3.50572 -0.695253 0
M  V30 5184 C 493.124 -4.47118 0.481249 0
M  V30 5185 C 491.894 -4.958 0.97524 0
M  V30 5186 C 494.092 -4.96853 1.32823 0
M  V30 5187 N 492.074 -5.76212 2.11785 0
M  V30 5188 C 493.445 -5.75028 2.31824 0
M  V30 5189 C 495.5 -4.79026 1.35788 0
M  V30 5190 C 494.203 -6.37276 3.33574 0
M  V30 5191 C 496.229 -5.42097 2.364 0
M  V30 5192 C 495.591 -6.2011 3.34129 0
M  V30 5193 H 491.69 -0.778709 -0.0716705 0
M  V30 5194 H 494.274 -1.89695 0.438602 0
M  V30 5195 H 492.445 -3.62427 -1.39647 0
M  V30 5196 H 494.177 -3.84056 -1.27604 0
M  V30 5197 H 490.932 -4.70405 0.549184 0
M  V30 5198 H 491.356 -6.21101 2.69375 0
M  V30 5199 H 495.998 -4.18288 0.616021 0
M  V30 5200 H 493.716 -6.97144 4.08676 0
M  V30 5201 H 497.302 -5.30229 2.39475 0
M  V30 5202 H 496.182 -6.68049 4.10707 0
M  V30 5203 N 493.685 -0.035106 -1.57561 0
M  V30 5204 C 494.925 0.646316 -1.93913 0
M  V30 5205 C 495.289 1.68947 -0.912185 0
M  V30 5206 O 496.49 2.42381 -1.1621 0
M  V30 5207 C 494.761 1.24136 -3.35149 0
M  V30 5208 S 496.32 1.94302 -3.93436 0
M  V30 5209 H 493.138 0.212642 -0.678457 0
M  V30 5210 H 495.74 -0.100203 -1.95243 0
M  V30 5211 H 494.444 0.46979 -4.07702 0
M  V30 5212 H 493.975 2.02505 -3.37276 0
M  V30 5213 H 495.99 3.22205 -3.77357 0
M  V30 5214 N 495.163 1.55791 0.238111 0
M  V30 5215 C 496.113 1.87444 1.29803 0
M  V30 5216 C 497.097 0.736043 1.43078 0
M  V30 5217 O 498.289 0.998146 1.46171 0
M  V30 5218 C 495.418 2.18028 2.65177 0
M  V30 5219 C 494.504 3.38217 2.55871 0
M  V30 5220 N 494.895 4.57264 2.16202 0
M  V30 5221 C 493.193 3.41502 2.86866 0
M  V30 5222 C 493.894 5.3941 2.17744 0
M  V30 5223 N 492.87 4.78695 2.57589 0
M  V30 5224 H 496.672 2.7701 0.981965 0
M  V30 5225 H 494.186 1.56135 0.44672 0
M  V30 5226 H 496.183 2.38873 3.4168 0
M  V30 5227 H 494.843 1.29765 2.97643 0
M  V30 5228 H 495.854 4.82727 1.87602 0
M  V30 5229 H 492.531 2.63536 3.23813 0
M  V30 5230 H 493.921 6.44671 1.89339 0
M  V30 5231 N 496.642 -0.504142 1.49319 0
M  V30 5232 C 497.87 -1.28256 1.62351 0
M  V30 5233 C 498.285 -1.86502 0.293682 0
M  V30 5234 O 497.642 -1.67678 -0.720449 0
M  V30 5235 C 497.693 -2.41507 2.68992 0
M  V30 5236 O 497.414 -1.85656 3.96817 0
M  V30 5237 C 498.915 -3.32929 2.927 0
M  V30 5238 H 496.135 -0.389115 0.546654 0
M  V30 5239 H 498.679 -0.605531 1.95329 0
M  V30 5240 H 496.834 -3.05046 2.38801 0
M  V30 5241 H 497.248 -2.59981 4.55533 0
M  V30 5242 H 498.722 -4.0868 3.71058 0
M  V30 5243 H 499.199 -3.89733 2.02496 0
M  V30 5244 H 499.805 -2.75158 3.24296 0
M  V30 5245 N 498.12 -1.38341 -0.754957 0
M  V30 5246 C 499.348 -1.37704 -1.54419 0
M  V30 5247 C 499.763 0.0335243 -1.8877 0
M  V30 5248 O 499.12 0.999773 -1.52679 0
M  V30 5249 C 499.171 -2.23136 -2.84416 0
M  V30 5250 O 498.892 -3.58697 -2.51531 0
M  V30 5251 C 500.393 -2.30664 -3.78562 0
M  V30 5252 H 497.613 -0.471061 -0.477852 0
M  V30 5253 H 500.157 -1.81902 -0.934446 0
M  V30 5254 H 498.312 -1.82403 -3.41772 0
M  V30 5255 H 498.726 -4.03665 -3.34896 0
M  V30 5256 H 500.2 -2.9473 -4.66732 0
M  V30 5257 H 500.677 -1.3199 -4.18898 0
M  V30 5258 H 501.283 -2.71781 -3.27131 0
M  V30 5259 N 499.598 0.982988 -1.23187 0
M  V30 5260 C 500.546 2.09616 -1.00817 0
M  V30 5261 C 501.54 1.6932 0.0519995 0
M  V30 5262 O 502.746 1.79715 -0.101284 0
M  V30 5263 H 499.121 0.685628 -0.308899 0
M  V30 5264 H 501.092 2.25652 -1.95253 0
M  V30 5265 C 499.841 3.42249 -0.613243 0
M  V30 5266 H 499.164 3.73705 -1.42073 0
M  V30 5267 H 500.604 4.21086 -0.496208 0
M  V30 5268 C 499.063 3.30002 0.678233 0
M  V30 5269 O 499.593 3.6263 1.72807 0
M  V30 5270 N 497.799 2.83164 0.653165 0
M  V30 5271 H 497.346 2.56811 -0.201492 0
M  V30 5272 H 497.304 2.75352 1.51752 0
M  V30 5273 N 501.076 1.04316 1.18135 0
M  V30 5274 C 502.301 0.768047 1.92655 0
M  V30 5275 C 502.726 -0.66904 1.758 0
M  V30 5276 O 502.084 -1.46372 1.06981 0
M  V30 5277 C 502.132 1.14239 3.42026 0
M  V30 5278 O 501.236 0.269333 4.1152 0
M  V30 5279 H 500.577 0.282436 0.600937 0
M  V30 5280 H 503.107 1.39367 1.49793 0
M  V30 5281 H 503.117 1.10538 3.92741 0
M  V30 5282 H 501.792 2.18928 3.53615 0
M  V30 5283 H 500.369 0.366175 3.71098 0
M  V30 5284 N 502.554 -1.34406 0.822964 0
M  V30 5285 C 503.486 -2.28305 0.202375 0
M  V30 5286 C 504.499 -1.5103 -0.60777 0
M  V30 5287 O 505.688 -1.73057 -0.437444 0
M  V30 5288 C 502.788 -3.30836 -0.734911 0
M  V30 5289 C 501.961 -4.37388 0.0324177 0
M  V30 5290 C 501.02 -5.1968 -0.825803 0
M  V30 5291 O 500.046 -5.68556 -0.270771 0
M  V30 5292 N 501.248 -5.39393 -2.14558 0
M  V30 5293 H 504.013 -2.82201 1.00909 0
M  V30 5294 H 501.574 -1.4693 0.67993 0
M  V30 5295 H 503.566 -3.82786 -1.31365 0
M  V30 5296 H 502.136 -2.77334 -1.44238 0
M  V30 5297 H 501.356 -3.86152 0.792469 0
M  V30 5298 H 502.644 -5.05702 0.560633 0
M  V30 5299 H 502.042 -5.01357 -2.62025 0
M  V30 5300 H 500.599 -5.94461 -2.67318 0
M  V30 5301 N 504.032 -0.577932 -1.46621 0
M  V30 5302 C 505.278 -0.0617793 -2.02706 0
M  V30 5303 C 505.611 1.29294 -1.44903 0
M  V30 5304 O 504.886 1.8461 -0.61232 0
M  V30 5305 C 505.169 0.00911824 -3.60099 0
M  V30 5306 C 505.022 -1.37416 -4.28295 0
M  V30 5307 C 506.341 0.712159 -4.343 0
M  V30 5308 H 503.46 -0.0239246 -0.736612 0
M  V30 5309 H 506.102 -0.744211 -1.74818 0
M  V30 5310 H 504.252 0.590292 -3.83989 0
M  V30 5311 H 505.924 -2.00013 -4.15683 0
M  V30 5312 H 504.167 -1.94319 -3.87843 0
M  V30 5313 H 504.838 -1.27707 -5.37024 0
M  V30 5314 H 507.314 0.218486 -4.15526 0
M  V30 5315 H 506.19 0.730782 -5.44014 0
M  V30 5316 H 506.451 1.77251 -4.05012 0
M  V30 5317 N 505.51 1.54411 -0.315457 0
M  V30 5318 C 506.926 1.59556 0.037464 0
M  V30 5319 C 507.126 1.33217 1.5118 0
M  V30 5320 O 506.182 1.11264 2.26664 0
M  V30 5321 C 507.495 2.98372 -0.373477 0
M  V30 5322 C 509.043 3.11324 -0.323452 0
M  V30 5323 C 509.518 4.52472 -0.709433 0
M  V30 5324 N 511.009 4.58437 -0.662524 0
M  V30 5325 C 511.744 5.65751 -0.933474 0
M  V30 5326 N 511.24 6.81039 -1.27114 0
M  V30 5327 N 513.033 5.55489 -0.859573 0
M  V30 5328 H 505.184 1.6979 -1.27614 0
M  V30 5329 H 507.447 0.793732 -0.518356 0
M  V30 5330 H 507.153 3.22618 -1.40037 0
M  V30 5331 H 507.027 3.76264 0.265615 0
M  V30 5332 H 509.414 2.86818 0.694223 0
M  V30 5333 H 509.495 2.35555 -0.997367 0
M  V30 5334 H 509.139 4.7771 -1.72498 0
M  V30 5335 H 509.069 5.26598 -0.0132923 0
M  V30 5336 H 511.56 3.75636 -0.413065 0
M  V30 5337 H 511.873 7.58816 -1.46348 0
M  V30 5338 H 510.218 6.82555 -1.30932 0
M  V30 5339 H 513.409 4.64299 -0.595324 0
M  V30 5340 H 513.582 6.39036 -1.0741 0
M  V30 5341 N 506.988 0.0434614 1.5754 0
M  V30 5342 C 508.234 -0.627109 1.93491 0
M  V30 5343 C 508.589 -1.68904 0.921362 0
M  V30 5344 O 507.882 -1.91504 -0.0605799 0
M  V30 5345 C 508.076 -1.2738 3.3393 0
M  V30 5346 C 507.905 -0.27603 4.48852 0
M  V30 5347 C 506.675 0.129244 5.05135 0
M  V30 5348 C 508.873 0.475462 5.12098 0
M  V30 5349 N 506.855 1.12068 6.03584 0
M  V30 5350 C 508.226 1.32021 6.05781 0
M  V30 5351 C 510.281 0.534611 4.95022 0
M  V30 5352 C 508.984 2.2188 6.84223 0
M  V30 5353 C 511.01 1.42059 5.74085 0
M  V30 5354 C 510.372 2.25309 6.67394 0
M  V30 5355 H 506.471 -0.201354 0.755633 0
M  V30 5356 H 509.055 0.113991 1.94366 0
M  V30 5357 H 507.226 -1.98496 3.33847 0
M  V30 5358 H 508.958 -1.90255 3.57191 0
M  V30 5359 H 505.713 -0.248145 4.72949 0
M  V30 5360 H 506.137 1.61306 6.57502 0
M  V30 5361 H 510.779 -0.0947817 4.22694 0
M  V30 5362 H 508.497 2.85868 7.55847 0
M  V30 5363 H 512.083 1.47083 5.62901 0
M  V30 5364 H 510.963 2.92754 7.27506 0
M  V30 5365 N 508.466 -1.55915 -0.229846 0
M  V30 5366 C 509.376 -1.94891 -1.30593 0
M  V30 5367 C 510.392 -0.851604 -1.51736 0
M  V30 5368 O 511.568 -1.15447 -1.65027 0
M  V30 5369 C 508.633 -2.25052 -2.63728 0
M  V30 5370 C 507.694 -3.48306 -2.5096 0
M  V30 5371 C 506.927 -3.77019 -3.77747 0
M  V30 5372 O 507.15 -3.07534 -4.80395 0
M  V30 5373 O 506.084 -4.70523 -3.75356 0
M  V30 5374 H 509.91 -2.86581 -1.00525 0
M  V30 5375 H 507.495 -1.43017 -0.432025 0
M  V30 5376 H 509.377 -2.45682 -3.42372 0
M  V30 5377 H 508.052 -1.36538 -2.93495 0
M  V30 5378 H 506.959 -3.32964 -1.70546 0
M  V30 5379 H 508.292 -4.37177 -2.26136 0
M  V30 5380 N 509.944 0.496216 -1.49584 0
M  V30 5381 C 511.174 1.27209 -1.62793 0
M  V30 5382 C 511.582 1.86799 -0.300476 0
M  V30 5383 O 510.925 1.68802 0.724674 0
M  V30 5384 C 510.987 2.43812 -2.64189 0
M  V30 5385 C 510.651 2.05055 -4.08414 0
M  V30 5386 C 511.648 1.58752 -4.9507 0
M  V30 5387 C 509.333 2.14543 -4.54177 0
M  V30 5388 C 511.327 1.22448 -6.25528 0
M  V30 5389 C 509.014 1.77851 -5.84647 0
M  V30 5390 C 510.012 1.31878 -6.70147 0
M  V30 5391 O 509.7 0.956834 -7.98185 0
M  V30 5392 H 509.432 0.391848 -0.550846 0
M  V30 5393 H 511.986 0.601712 -1.96389 0
M  V30 5394 H 510.216 3.13941 -2.25783 0
M  V30 5395 H 511.905 3.05829 -2.66877 0
M  V30 5396 H 512.671 1.50863 -4.60939 0
M  V30 5397 H 508.55 2.49277 -3.87791 0
M  V30 5398 H 512.094 0.864933 -6.92217 0
M  V30 5399 H 507.991 1.8539 -6.18305 0
M  V30 5400 H 508.759 1.08789 -8.11238 0
M  V30 5401 N 511.423 1.38739 0.74761 0
M  V30 5402 C 512.663 1.36695 1.51966 0
M  V30 5403 C 513.027 -0.0411889 1.91956 0
M  V30 5404 O 514.228 -0.186543 2.68152 0
M  V30 5405 C 512.499 2.30119 2.73459 0
M  V30 5406 S 514.058 2.4615 3.63257 0
M  V30 5407 H 510.876 0.484929 0.519966 0
M  V30 5408 H 513.478 1.7472 0.877104 0
M  V30 5409 H 512.182 3.31312 2.422 0
M  V30 5410 H 511.713 1.93265 3.42655 0
M  V30 5411 H 513.728 1.69001 4.66533 0
M  V30 5412 N 512.901 -0.976442 1.23707 0
M  V30 5413 C 513.848 -2.06952 1.02174 0
M  V30 5414 C 514.818 -1.65984 -0.0621034 0
M  V30 5415 O 516.003 -1.90584 0.0907906 0
M  V30 5416 C 513.143 -3.39425 0.62327 0
M  V30 5417 C 512.256 -3.9364 1.77966 0
M  V30 5418 C 511.391 -5.14343 1.3276 0
M  V30 5419 C 510.43 -5.60733 2.45449 0
M  V30 5420 N 509.567 -6.72662 2.01172 0
M  V30 5421 H 514.407 -2.24704 1.95734 0
M  V30 5422 H 511.944 -1.10143 0.975034 0
M  V30 5423 H 513.902 -4.15526 0.37332 0
M  V30 5424 H 512.532 -3.21624 -0.275329 0
M  V30 5425 H 511.584 -3.14258 2.14351 0
M  V30 5426 H 512.896 -4.24035 2.62671 0
M  V30 5427 H 512.05 -5.97789 1.03601 0
M  V30 5428 H 510.789 -4.8561 0.450975 0
M  V30 5429 H 509.794 -4.75865 2.75378 0
M  V30 5430 H 511.019 -5.91483 3.33654 0
M  V30 5431 H 508.965 -6.45681 1.15895 0
M  V30 5432 H 508.882 -7.02462 2.79434 0
M  V30 5433 H 510.15 -7.59572 1.75129 0
M  V30 5434 N 514.379 -1.04941 -1.1758 0
M  V30 5435 C 515.628 -0.753124 -1.87112 0
M  V30 5436 C 515.941 0.722507 -1.81767 0
M  V30 5437 O 517.147 1.13265 -2.46746 0
M  V30 5438 C 515.603 -1.29695 -3.35719 0
M  V30 5439 C 515.211 -2.80184 -3.49572 0
M  V30 5440 C 516.955 -1.07759 -4.10595 0
M  V30 5441 C 514.862 -3.2788 -4.92187 0
M  V30 5442 H 513.792 -0.278034 -0.700866 0
M  V30 5443 H 516.443 -1.26637 -1.32798 0
M  V30 5444 H 514.825 -0.711522 -3.89555 0
M  V30 5445 H 515.999 -3.44561 -3.05965 0
M  V30 5446 H 514.314 -3.00632 -2.88113 0
M  V30 5447 H 516.911 -1.40899 -5.15802 0
M  V30 5448 H 517.254 -0.0152302 -4.16297 0
M  V30 5449 H 517.787 -1.62809 -3.62957 0
M  V30 5450 H 514.526 -4.33535 -4.91658 0
M  V30 5451 H 514.046 -2.68245 -5.36475 0
M  V30 5452 H 515.725 -3.22412 -5.60945 0
M  V30 5453 N 515.857 1.33968 -0.830081 0
M  V30 5454 C 517.268 1.80439 -0.479455 0
M  V30 5455 C 517.619 1.68756 1.00079 0
M  V30 5456 O 516.744 1.23171 1.77927 0
M  V30 5457 C 517.339 3.27611 -0.863505 0
M  V30 5458 C 515.898 3.72133 -0.565145 0
M  V30 5459 C 515.045 2.55549 -1.07657 0
M  V30 5460 H 517.996 1.21614 -1.0196 0
M  V30 5461 H 518.017 3.8012 -0.170083 0
M  V30 5462 H 517.529 3.36082 -1.94089 0
M  V30 5463 H 515.63 3.69196 0.502536 0
M  V30 5464 H 515.743 4.65963 -1.11422 0
M  V30 5465 H 514.107 2.49788 -0.497807 0
M  V30 5466 H 514.89 2.66786 -2.16055 0
M  V30 5467 N 517.335 0.585699 1.46312 0
M  V30 5468 C 518.56 0.0762461 2.0726 0
M  V30 5469 C 518.985 -1.22071 1.43109 0
M  V30 5470 O 518.343 -1.73804 0.515942 0
M  V30 5471 C 518.391 -0.0729404 3.60526 0
M  V30 5472 O 517.495 -1.1287 3.96654 0
M  V30 5473 H 516.836 0.0641558 0.660893 0
M  V30 5474 H 519.366 0.809492 1.87905 0
M  V30 5475 H 519.376 -0.278158 4.07051 0
M  V30 5476 H 518.051 0.874188 4.06609 0
M  V30 5477 H 516.628 -0.901703 3.61834 0
M  V30 5478 N 518.813 -1.54241 0.323641 0
M  V30 5479 C 520.053 -2.0248 -0.279502 0
M  V30 5480 C 520.417 -1.20672 -1.49339 0
M  V30 5481 O 521.618 -1.58715 -2.1694 0
M  V30 5482 C 519.889 -3.52238 -0.605266 0
M  V30 5483 S 521.448 -4.22411 -1.18805 0
M  V30 5484 H 518.266 -0.705957 -0.0845313 0
M  V30 5485 H 520.868 -1.90089 0.456781 0
M  V30 5486 H 519.572 -4.094 0.286339 0
M  V30 5487 H 519.103 -3.6871 -1.37174 0
M  V30 5488 H 521.118 -4.30075 -2.47487 0
M  V30 5489 N 520.291 -0.0518155 -1.57515 0
M  V30 5490 C 521.568 0.661727 -1.84067 0
M  V30 5491 C 521.948 1.88999 -0.940351 0
M  V30 5492 O 521.296 2.285 -0.00155404 0
M  V30 5493 C 521.506 1.01841 -3.3381 0
M  V30 5494 C 522.854 1.40043 -4.00841 0
M  V30 5495 O 523.878 1.11073 -3.38439 0
M  V30 5496 O 522.737 1.94111 -5.10865 0
M  V30 5497 H 519.831 0.326702 -0.759733 0
M  V30 5498 H 522.377 -0.0812277 -1.69505 0
M  V30 5499 H 521.149 0.145202 -3.91031 0
M  V30 5500 H 520.772 1.81879 -3.53562 0
M  V30 5501 N 521.769 1.56035 0.221574 0
M  V30 5502 C 522.994 1.83476 0.967026 0
M  V30 5503 C 523.419 0.632139 1.7716 0
M  V30 5504 O 522.777 -0.419082 1.7639 0
M  V30 5505 C 522.825 3.08907 1.86034 0
M  V30 5506 O 521.929 2.876 2.95567 0
M  V30 5507 H 521.27 0.604913 0.273817 0
M  V30 5508 H 523.8 2.03247 0.234893 0
M  V30 5509 H 523.81 3.3901 2.27016 0
M  V30 5510 H 522.485 3.96068 1.26898 0
M  V30 5511 H 521.062 2.6873 2.58532 0
M  V30 5512 N 523.247 -0.488276 1.49845 0
M  V30 5513 C 524.472 -1.26997 1.63971 0
M  V30 5514 C 524.897 -1.85427 0.315994 0
M  V30 5515 O 524.255 -1.66475 -0.718032 0
M  V30 5516 C 524.303 -2.36689 2.72049 0
M  V30 5517 O 523.407 -3.40882 2.32107 0
M  V30 5518 H 522.748 -0.374376 0.548396 0
M  V30 5519 H 525.278 -0.583104 1.96115 0
M  V30 5520 H 525.288 -2.82262 2.94605 0
M  V30 5521 H 523.963 -1.93529 3.68129 0
M  V30 5522 H 522.54 -3.01139 2.19931 0
M  V30 5523 N 524.725 -1.39134 -0.740242 0
M  V30 5524 C 526.136 -1.32208 -1.31825 0
M  V30 5525 C 526.487 0.0159919 -1.96193 0
M  V30 5526 O 525.612 0.918111 -1.95958 0
M  V30 5527 C 526.207 -2.39436 -2.39699 0
M  V30 5528 C 524.766 -2.36048 -2.93187 0
M  V30 5529 C 523.913 -2.21599 -1.66701 0
M  V30 5530 H 526.864 -1.49298 -0.538133 0
M  V30 5531 H 526.885 -2.05922 -3.19963 0
M  V30 5532 H 526.397 -3.36811 -1.92821 0
M  V30 5533 H 524.498 -1.42295 -3.44359 0
M  V30 5534 H 524.611 -3.30704 -3.46658 0
M  V30 5535 H 522.975 -1.68681 -1.90837 0
M  V30 5536 H 523.758 -3.20936 -1.21882 0
M  V30 5537 N 526.204 0.969867 -1.24223 0
M  V30 5538 C 527.45 1.7151 -1.08223 0
M  V30 5539 C 527.783 1.90478 0.37838 0
M  V30 5540 O 527.058 1.4647 1.27971 0
M  V30 5541 C 527.341 3.10714 -1.82013 0
M  V30 5542 C 527.194 2.9925 -3.35811 0
M  V30 5543 C 528.513 4.10332 -1.59108 0
M  V30 5544 H 525.632 0.622499 -0.394543 0
M  V30 5545 H 528.274 1.1284 -1.52863 0
M  V30 5546 H 526.424 3.608 -1.44068 0
M  V30 5547 H 528.096 2.56608 -3.83341 0
M  V30 5548 H 526.339 2.35512 -3.64303 0
M  V30 5549 H 527.01 3.97857 -3.82641 0
M  V30 5550 H 529.486 3.69097 -1.92111 0
M  V30 5551 H 528.362 5.05804 -2.13198 0
M  V30 5552 H 528.623 4.38926 -0.528832 0
M  V30 5553 N 527.682 1.05563 1.17022 0
M  V30 5554 C 528.907 0.788437 1.91829 0
M  V30 5555 C 529.332 -0.650356 1.76499 0
M  V30 5556 O 528.69 -1.45229 1.08527 0
M  V30 5557 C 528.738 1.1786 3.40795 0
M  V30 5558 O 527.842 0.312965 4.11211 0
M  V30 5559 H 527.183 0.288794 0.597908 0
M  V30 5560 H 529.713 1.40948 1.48307 0
M  V30 5561 H 529.723 1.14697 3.91546 0
M  V30 5562 H 528.398 2.22666 3.51273 0
M  V30 5563 H 526.975 0.405515 3.70689 0
M  V30 5564 N 529.16 -1.33526 0.837174 0
M  V30 5565 C 530.388 -2.02047 0.445494 0
M  V30 5566 C 530.803 -1.62995 -0.952788 0
M  V30 5567 O 530.16 -0.842447 -1.61892 0
M  V30 5568 C 530.211 -3.57221 0.554577 0
M  V30 5569 O 529.932 -3.94863 1.89776 0
M  V30 5570 C 531.433 -4.43012 0.159634 0
M  V30 5571 H 528.653 -0.647221 0.177048 0
M  V30 5572 H 531.197 -1.70492 1.12928 0
M  V30 5573 H 529.352 -3.87315 -0.0812781 0
M  V30 5574 H 529.766 -4.89569 1.88208 0
M  V30 5575 H 531.24 -5.51253 0.28701 0
M  V30 5576 H 531.717 -4.29916 -0.898289 0
M  V30 5577 H 532.323 -4.18274 0.769855 0
M  V30 5578 N 530.638 -0.59345 -1.46 0
M  V30 5579 C 531.548 0.135817 -2.34207 0
M  V30 5580 C 532.564 0.875008 -1.50398 0
M  V30 5581 O 533.74 0.835778 -1.83239 0
M  V30 5582 C 530.805 1.12977 -3.27776 0
M  V30 5583 C 529.866 0.394081 -4.27487 0
M  V30 5584 C 529.099 1.34068 -5.16586 0
M  V30 5585 O 529.322 2.5778 -5.08828 0
M  V30 5586 O 528.256 0.845426 -5.95933 0
M  V30 5587 H 532.082 -0.588691 -2.9794 0
M  V30 5588 H 529.667 -0.353784 -1.45151 0
M  V30 5589 H 531.549 1.70261 -3.85473 0
M  V30 5590 H 530.224 1.83556 -2.66625 0
M  V30 5591 H 529.131 -0.220869 -3.73447 0
M  V30 5592 H 530.464 -0.270939 -4.91454 0
M  V30 5593 N 532.116 1.54067 -0.331816 0
M  V30 5594 C 533.048 2.22139 0.564538 0
M  V30 5595 C 534.061 1.22408 1.07332 0
M  V30 5596 O 535.25 1.4883 0.985481 0
M  V30 5597 C 532.35 2.87876 1.78831 0
M  V30 5598 C 531.523 4.13817 1.41682 0
M  V30 5599 C 530.582 4.63072 2.49901 0
M  V30 5600 O 529.608 5.27562 2.13699 0
M  V30 5601 N 530.81 4.38001 3.80967 0
M  V30 5602 H 533.575 2.99694 -0.0183736 0
M  V30 5603 H 531.136 1.61153 -0.155396 0
M  V30 5604 H 533.128 3.17747 2.50637 0
M  V30 5605 H 531.698 2.13977 2.27887 0
M  V30 5606 H 530.918 3.9062 0.530044 0
M  V30 5607 H 532.206 4.95762 1.14443 0
M  V30 5608 H 531.604 3.864 4.13173 0
M  V30 5609 H 530.161 4.72507 4.48977 0
M  V30 5610 N 533.594 0.0601682 1.57485 0
M  V30 5611 C 534.524 -0.90889 2.15085 0
M  V30 5612 C 535.505 -1.31838 1.07484 0
M  V30 5613 O 536.69 -1.3915 1.35466 0
M  V30 5614 C 533.82 -2.18059 2.7031 0
M  V30 5615 C 532.774 -1.91088 3.82974 0
M  V30 5616 C 532.1 -3.24789 4.24754 0
M  V30 5617 C 533.4 -1.22535 5.07723 0
M  V30 5618 H 535.094 -0.429093 2.96309 0
M  V30 5619 H 532.64 -0.204952 1.42534 0
M  V30 5620 H 534.593 -2.86258 3.09248 0
M  V30 5621 H 533.317 -2.6826 1.8629 0
M  V30 5622 H 531.976 -1.25297 3.44523 0
M  V30 5623 H 531.624 -3.72809 3.37672 0
M  V30 5624 H 531.324 -3.07538 5.00694 0
M  V30 5625 H 532.848 -3.94205 4.66299 0
M  V30 5626 H 534.262 -1.80783 5.4405 0
M  V30 5627 H 532.659 -1.1558 5.88864 0
M  V30 5628 H 533.729 -0.202692 4.84476 0
M  V30 5629 N 535.072 -1.5615 -0.213296 0
M  V30 5630 C 536.035 -1.92249 -1.24792 0
M  V30 5631 C 537.035 -0.801828 -1.39382 0
M  V30 5632 O 538.225 -1.06948 -1.37506 0
M  V30 5633 C 535.357 -2.18056 -2.62039 0
M  V30 5634 H 536.55 -2.84793 -0.939845 0
M  V30 5635 H 534.103 -1.49559 -0.454062 0
M  V30 5636 H 534.838 -1.2809 -2.97932 0
M  V30 5637 H 534.623 -2.99703 -2.52825 0
M  V30 5638 H 536.113 -2.47051 -3.36683 0
M  V30 5639 N 536.55 0.480323 -1.50102 0
M  V30 5640 C 537.961 1.06142 -1.53593 0
M  V30 5641 C 538.312 1.93335 -0.334055 0
M  V30 5642 O 537.437 2.09188 0.55403 0
M  V30 5643 C 538.032 1.9317 -2.78336 0
M  V30 5644 C 536.591 2.46405 -2.84538 0
M  V30 5645 C 535.738 1.24521 -2.4777 0
M  V30 5646 H 538.689 0.26333 -1.565 0
M  V30 5647 H 538.71 2.78123 -2.59669 0
M  V30 5648 H 538.222 1.29683 -3.65792 0
M  V30 5649 H 536.323 3.13472 -2.01411 0
M  V30 5650 H 536.436 2.82143 -3.87211 0
M  V30 5651 H 534.8 1.57706 -2.00003 0
M  V30 5652 H 535.583 0.627102 -3.37524 0
M  V30 5653 N 538.028 1.39524 0.732853 0
M  V30 5654 C 539.256 1.40143 1.52209 0
M  V30 5655 C 539.671 -0.00348836 1.888 0
M  V30 5656 O 539.028 -0.975357 1.5425 0
M  V30 5657 C 539.079 2.27632 2.8083 0
M  V30 5658 O 538.8 3.62654 2.45792 0
M  V30 5659 C 540.301 2.36658 3.74844 0
M  V30 5660 H 537.521 0.478604 0.470297 0
M  V30 5661 H 540.065 1.83366 0.905388 0
M  V30 5662 H 538.22 1.87818 3.38826 0
M  V30 5663 H 538.634 4.08941 3.28431 0
M  V30 5664 H 540.108 3.02118 4.61984 0
M  V30 5665 H 540.585 1.38638 4.16745 0
M  V30 5666 H 541.191 2.76951 3.22766 0
M  V30 5667 N 539.506 -0.963266 1.24736 0
M  V30 5668 C 540.469 -2.04013 1.04457 0
M  V30 5669 C 541.469 -1.608 0.000335555 0
M  V30 5670 O 542.659 -1.72515 0.241719 0
M  V30 5671 C 539.791 -3.35858 0.584162 0
M  V30 5672 H 540.984 -2.23436 2.00041 0
M  V30 5673 H 538.537 -1.13914 1.07021 0
M  V30 5674 H 539.272 -3.22128 -0.374673 0
M  V30 5675 H 539.057 -3.68568 1.3379 0
M  V30 5676 H 540.547 -4.1502 0.463451 0
M  V30 5677 N 540.985 -1.06182 -1.16461 0
M  V30 5678 C 542.396 -0.802426 -1.68576 0
M  V30 5679 C 542.747 0.67412 -1.84255 0
M  V30 5680 O 541.872 1.52303 -1.5373 0
M  V30 5681 C 542.467 -1.45002 -3.06202 0
M  V30 5682 C 541.026 -1.23843 -3.55443 0
M  V30 5683 C 540.173 -1.52724 -2.31454 0
M  V30 5684 H 543.124 -1.22545 -1.00839 0
M  V30 5685 H 543.145 -0.864731 -3.70544 0
M  V30 5686 H 542.657 -2.52466 -2.94759 0
M  V30 5687 H 540.758 -0.183487 -3.72148 0
M  V30 5688 H 540.871 -1.95036 -4.37604 0
M  V30 5689 H 539.235 -0.947726 -2.36411 0
M  V30 5690 H 540.018 -2.61343 -2.22609 0
M  V30 5691 N 542.463 1.3308 -0.844243 0
M  V30 5692 C 543.874 1.7992 -0.498566 0
M  V30 5693 C 544.225 1.69808 0.982834 0
M  V30 5694 O 543.35 1.25051 1.7661 0
M  V30 5695 C 543.945 3.26677 -0.898204 0
M  V30 5696 C 542.504 3.71513 -0.604583 0
M  V30 5697 C 541.651 2.54393 -1.10362 0
M  V30 5698 H 544.602 1.20526 -1.03244 0
M  V30 5699 H 544.623 3.79918 -0.21039 0
M  V30 5700 H 544.135 3.34004 -1.97643 0
M  V30 5701 H 542.236 3.69708 0.46335 0
M  V30 5702 H 542.349 4.64755 -1.16358 0
M  V30 5703 H 540.713 2.49246 -0.524273 0
M  V30 5704 H 541.496 2.6448 -2.18873 0
M  V30 5705 N 543.941 0.601185 1.45683 0
M  V30 5706 C 544.851 -0.123395 2.34275 0
M  V30 5707 C 545.867 -0.86702 1.5086 0
M  V30 5708 O 547.043 -0.826049 1.8368 0
M  V30 5709 C 544.108 -1.11237 3.2837 0
M  V30 5710 C 543.169 -0.371405 4.2769 0
M  V30 5711 C 542.402 -1.31327 5.1729 0
M  V30 5712 O 542.625 -2.55078 5.10188 0
M  V30 5713 O 541.559 -0.813811 5.96373 0
M  V30 5714 H 545.385 0.604483 2.97623 0
M  V30 5715 H 542.97 0.361477 1.44961 0
M  V30 5716 H 544.852 -1.68214 3.8637 0
M  V30 5717 H 543.527 -1.82139 2.67595 0
M  V30 5718 H 542.434 0.24067 3.73325 0
M  V30 5719 H 543.767 0.296998 4.91303 0
M  V30 5720 N 545.419 -1.53889 0.339982 0
M  V30 5721 C 546.349 -2.27843 -0.510856 0
M  V30 5722 C 547.33 -1.29267 -1.10563 0
M  V30 5723 O 548.515 -1.58104 -1.12768 0
M  V30 5724 C 545.645 -3.04857 -1.66372 0
M  V30 5725 C 544.599 -4.10907 -1.19746 0
M  V30 5726 C 543.925 -4.75855 -2.43857 0
M  V30 5727 C 545.225 -5.21435 -0.300501 0
M  V30 5728 H 546.919 -2.99212 0.106067 0
M  V30 5729 H 544.465 -1.43904 0.0524533 0
M  V30 5730 H 546.418 -3.5533 -2.26537 0
M  V30 5731 H 545.142 -2.31133 -2.30749 0
M  V30 5732 H 543.801 -3.61342 -0.618654 0
M  V30 5733 H 543.449 -3.9873 -3.06633 0
M  V30 5734 H 543.149 -5.47502 -2.13343 0
M  V30 5735 H 544.673 -5.2911 -3.04754 0
M  V30 5736 H 546.087 -5.67565 -0.80889 0
M  V30 5737 H 544.484 -6.00036 -0.0874076 0
M  V30 5738 H 545.554 -4.80328 0.664321 0
M  V30 5739 N 546.897 -0.0685191 -1.57451 0
M  V30 5740 C 548.125 0.610462 -1.97689 0
M  V30 5741 C 548.54 1.63346 -0.946758 0
M  V30 5742 O 547.897 1.82377 0.0669868 0
M  V30 5743 C 547.948 1.28196 -3.38006 0
M  V30 5744 O 547.669 0.299906 -4.37072 0
M  V30 5745 C 549.17 2.04907 -3.931 0
M  V30 5746 H 546.39 0.165689 -0.650222 0
M  V30 5747 H 548.934 -0.139953 -2.04021 0
M  V30 5748 H 547.089 1.98348 -3.32771 0
M  V30 5749 H 547.503 0.78126 -5.18649 0
M  V30 5750 H 548.977 2.47287 -4.93511 0
M  V30 5751 H 549.454 2.9043 -3.29465 0
M  V30 5752 H 550.06 1.39629 -4.01726 0
M  V30 5753 N 548.375 1.56261 0.205012 0
M  V30 5754 C 549.786 1.70056 0.770574 0
M  V30 5755 C 550.137 0.673398 1.84282 0
M  V30 5756 O 549.262 -0.172196 2.15714 0
M  V30 5757 C 549.857 3.08316 1.40451 0
M  V30 5758 C 548.416 3.2391 1.91727 0
M  V30 5759 C 547.563 2.66001 0.783516 0
M  V30 5760 H 550.514 1.58688 -0.019911 0
M  V30 5761 H 550.535 3.05094 2.27371 0
M  V30 5762 H 550.047 3.83053 0.623882 0
M  V30 5763 H 548.148 2.54072 2.7254 0
M  V30 5764 H 548.261 4.3131 2.08588 0
M  V30 5765 H 546.625 2.24915 1.19521 0
M  V30 5766 H 547.408 3.43297 0.0152883 0
M  V30 5767 N 549.853 -0.472356 1.50355 0
M  V30 5768 C 551.099 -1.22634 1.6152 0
M  V30 5769 C 551.432 -1.91645 0.313995 0
M  V30 5770 O 550.707 -1.82059 -0.684446 0
M  V30 5771 C 550.99 -2.27099 2.7946 0
M  V30 5772 C 550.843 -1.62402 4.19459 0
M  V30 5773 C 552.162 -3.28421 2.92964 0
M  V30 5774 H 549.281 -0.444494 0.587873 0
M  V30 5775 H 551.923 -0.520321 1.82737 0
M  V30 5776 H 550.073 -2.87314 2.61501 0
M  V30 5777 H 551.745 -1.05793 4.49005 0
M  V30 5778 H 549.988 -0.927184 4.23776 0
M  V30 5779 H 550.659 -2.38309 4.97909 0
M  V30 5780 H 553.135 -2.78227 3.09401 0
M  V30 5781 H 552.011 -3.98845 3.77113 0
M  V30 5782 H 552.272 -3.92467 2.03525 0
M  V30 5783 N 551.331 -1.39911 -0.725443 0
M  V30 5784 C 552.577 -1.37858 -1.48738 0
M  V30 5785 C 552.91 0.0224187 -1.94187 0
M  V30 5786 O 552.185 0.989204 -1.67466 0
M  V30 5787 C 552.468 -2.3594 -2.72038 0
M  V30 5788 C 552.321 -3.85023 -2.32546 0
M  V30 5789 C 553.64 -2.31704 -3.74167 0
M  V30 5790 H 550.759 -0.502074 -0.539528 0
M  V30 5791 H 553.401 -1.70974 -0.828728 0
M  V30 5792 H 551.551 -2.0783 -3.28236 0
M  V30 5793 H 553.223 -4.2392 -1.81905 0
M  V30 5794 H 551.466 -4.01334 -1.64661 0
M  V30 5795 H 552.137 -4.49152 -3.20884 0
M  V30 5796 H 554.613 -2.5658 -3.27576 0
M  V30 5797 H 553.489 -3.02395 -4.58092 0
M  V30 5798 H 553.75 -1.3253 -4.21768 0
M  V30 5799 N 552.809 0.956637 -1.25245 0
M  V30 5800 C 553.741 2.05628 -1.01242 0
M  V30 5801 C 554.754 1.62785 0.0219579 0
M  V30 5802 O 555.943 1.77184 -0.216365 0
M  V30 5803 C 553.043 3.35069 -0.508161 0
M  V30 5804 C 552.216 4.06761 -1.60823 0
M  V30 5805 C 551.275 5.14473 -1.1047 0
M  V30 5806 O 550.301 5.40033 -1.79868 0
M  V30 5807 N 551.503 5.80474 0.0550773 0
M  V30 5808 H 554.268 2.2679 -1.95925 0
M  V30 5809 H 551.829 1.12505 -1.16423 0
M  V30 5810 H 553.821 4.044 -0.155819 0
M  V30 5811 H 552.391 3.10694 0.344683 0
M  V30 5812 H 551.611 3.31555 -2.13224 0
M  V30 5813 H 552.899 4.51418 -2.34733 0
M  V30 5814 H 552.297 5.62125 0.635004 0
M  V30 5815 H 550.854 6.50868 0.348469 0
M  V30 5816 N 554.287 1.06798 1.15896 0
M  V30 5817 C 555.564 0.701057 1.82605 0
M  V30 5818 C 555.944 -0.817066 1.94646 0
M  V30 5819 O 555.292 -1.72933 1.49353 0
M  V30 5820 C 555.502 1.40895 3.19296 0
M  V30 5821 C 556.85 1.55744 3.95005 0
M  V30 5822 O 557.874 1.36927 3.28831 0
M  V30 5823 O 556.733 1.86658 5.13635 0
M  V30 5824 H 553.827 0.248791 0.78869 0
M  V30 5825 H 556.373 1.16857 1.23055 0
M  V30 5826 H 555.145 2.4439 3.05596 0
M  V30 5827 H 554.768 0.931847 3.86526 0
M  V30 5828 N 555.766 -1.3263 0.851289 0
M  V30 5829 C 557.006 -1.99174 0.459266 0
M  V30 5830 C 557.37 -1.65913 -0.966273 0
M  V30 5831 O 558.571 -2.2552 -1.46267 0
M  V30 5832 C 556.842 -3.50721 0.687698 0
M  V30 5833 S 558.401 -4.37039 0.392746 0
M  V30 5834 H 555.219 -0.689832 0.172199 0
M  V30 5835 H 557.821 -1.61395 1.10327 0
M  V30 5836 H 556.525 -3.72417 1.72435 0
M  V30 5837 H 556.056 -3.93389 0.0299949 0
M  V30 5838 H 558.071 -4.8999 -0.782578 0
M  V30 5839 N 557.244 -0.608902 -1.45362 0
M  V30 5840 C 558.474 -0.110852 -2.06302 0
M  V30 5841 C 558.882 1.21062 -1.45398 0
M  V30 5842 O 558.225 1.74861 -0.562976 0
M  V30 5843 C 558.287 0.101793 -3.59356 0
M  V30 5844 C 557.951 -1.13808 -4.42602 0
M  V30 5845 C 558.948 -2.05653 -4.77496 0
M  V30 5846 C 556.633 -1.36727 -4.83333 0
M  V30 5847 C 558.627 -3.18745 -5.51978 0
M  V30 5848 C 556.314 -2.5012 -5.57569 0
M  V30 5849 C 557.312 -3.40957 -5.91809 0
M  V30 5850 O 557 -4.52376 -6.64538 0
M  V30 5851 H 556.732 -0.0666001 -0.672711 0
M  V30 5852 H 559.286 -0.836942 -1.87575 0
M  V30 5853 H 557.516 0.88279 -3.76489 0
M  V30 5854 H 559.205 0.551607 -4.02134 0
M  V30 5855 H 559.971 -1.89172 -4.46586 0
M  V30 5856 H 555.85 -0.669216 -4.56117 0
M  V30 5857 H 559.394 -3.8967 -5.78622 0
M  V30 5858 H 555.291 -2.66553 -5.87894 0
M  V30 5859 H 556.059 -4.51075 -6.82989 0
M  V30 5860 N 558.722 1.53707 -0.348139 0
M  V30 5861 C 559.672 2.2193 0.522592 0
M  V30 5862 C 560.656 1.20831 1.06248 0
M  V30 5863 O 561.848 1.46357 0.995415 0
M  V30 5864 C 558.977 2.99904 1.6707 0
M  V30 5865 C 558.063 4.08364 1.14454 0
M  V30 5866 N 558.454 5.04656 0.339958 0
M  V30 5867 C 556.752 4.22757 1.421 0
M  V30 5868 C 557.453 5.81675 0.0538806 0
M  V30 5869 N 556.429 5.39739 0.646776 0
M  V30 5870 H 560.231 2.93733 -0.099135 0
M  V30 5871 H 557.745 1.61656 -0.15524 0
M  V30 5872 H 559.742 3.47284 2.30651 0
M  V30 5873 H 558.402 2.29629 2.29566 0
M  V30 5874 H 559.413 5.17896 -0.0193552 0
M  V30 5875 H 556.09 3.63704 2.05002 0
M  V30 5876 H 557.48 6.69256 -0.595443 0
M  V30 5877 N 560.2 0.0768682 1.57412 0
M  V30 5878 C 561.448 -0.589918 1.93299 0
M  V30 5879 C 561.769 -1.69842 0.958049 0
M  V30 5880 O 561.039 -1.95899 0.00703261 0
M  V30 5881 H 559.619 -0.220901 0.713591 0
M  V30 5882 H 562.281 0.135917 1.94425 0
M  V30 5883 H 561.377 -1.01195 2.95239 0
M  V30 5884 N 561.678 -1.56367 -0.196722 0
M  V30 5885 C 562.955 -1.71359 -0.943159 0
M  V30 5886 C 563.335 -0.631192 -2.01443 0
M  V30 5887 O 562.683 0.358071 -2.25677 0
M  V30 5888 C 562.893 -3.13623 -1.53106 0
M  V30 5889 C 564.241 -3.73806 -2.01381 0
M  V30 5890 O 565.265 -3.16742 -1.62951 0
M  V30 5891 O 564.124 -4.73951 -2.7209 0
M  V30 5892 H 561.218 -0.698851 -0.442195 0
M  V30 5893 H 563.764 -1.68672 -0.186547 0
M  V30 5894 H 562.536 -3.83873 -0.758785 0
M  V30 5895 H 562.159 -3.20532 -2.35255 0
M  V30 5896 N 563.156 0.464375 -1.50603 0
M  V30 5897 C 564.404 1.21356 -1.61608 0
M  V30 5898 C 564.725 1.92329 -0.321643 0
M  V30 5899 O 563.995 1.84403 0.661232 0
M  V30 5900 H 562.575 0.45094 -0.595535 0
M  V30 5901 H 565.237 0.535046 -1.87412 0
M  V30 5902 H 564.333 1.95783 -2.43054 0
M  V30 5903 N 564.634 1.40294 0.718013 0
M  V30 5904 C 565.566 1.36281 1.84283 0
M  V30 5905 C 566.579 0.268621 1.60569 0
M  V30 5906 O 567.768 0.528798 1.70487 0
M  V30 5907 C 564.868 1.09741 3.2064 0
M  V30 5908 C 564.041 2.30767 3.71571 0
M  V30 5909 C 563.1 2.00424 4.86535 0
M  V30 5910 O 562.126 2.73268 4.99313 0
M  V30 5911 N 563.328 0.980724 5.72156 0
M  V30 5912 H 566.093 2.3322 1.88225 0
M  V30 5913 H 563.654 1.34616 0.899453 0
M  V30 5914 H 565.646 0.874322 3.95143 0
M  V30 5915 H 564.216 0.214771 3.11861 0
M  V30 5916 H 563.436 2.68921 2.88228 0
M  V30 5917 H 564.724 3.11455 4.02335 0
M  V30 5918 H 564.122 0.377375 5.6444 0
M  V30 5919 H 562.679 0.817538 6.46653 0
M  V30 5920 N 566.112 -0.949982 1.2575 0
M  V30 5921 C 567.337 -1.73503 1.13628 0
M  V30 5922 C 567.762 -1.85601 -0.30559 0
M  V30 5923 O 567.12 -1.33984 -1.22139 0
M  V30 5924 C 567.168 -3.1243 1.80055 0
M  V30 5925 O 566.272 -3.97916 1.08336 0
M  V30 5926 H 565.613 -0.532665 0.396439 0
M  V30 5927 H 568.143 -1.19043 1.66403 0
M  V30 5928 H 568.153 -3.62866 1.86527 0
M  V30 5929 H 566.828 -3.02941 2.84956 0
M  V30 5930 H 565.405 -3.56375 1.09777 0
M  V30 5931 N 567.59 -1.07411 -1.15328 0
M  V30 5932 C 568.82 -0.817595 -1.89734 0
M  V30 5933 C 569.228 0.63297 -1.78298 0
M  V30 5934 O 568.571 1.44594 -1.13306 0
M  V30 5935 C 568.633 -1.14748 -3.40695 0
M  V30 5936 C 568.297 -2.59876 -3.75917 0
M  V30 5937 C 569.294 -3.58122 -3.76888 0
M  V30 5938 C 566.979 -2.95469 -4.06206 0
M  V30 5939 C 568.973 -4.89996 -4.07655 0
M  V30 5940 C 566.66 -4.2754 -4.36638 0
M  V30 5941 C 567.658 -5.24614 -4.37344 0
M  V30 5942 O 567.346 -6.54312 -4.67045 0
M  V30 5943 H 567.078 -0.295175 -0.608151 0
M  V30 5944 H 569.632 -1.43409 -1.47048 0
M  V30 5945 H 567.862 -0.47395 -3.83785 0
M  V30 5946 H 569.551 -0.873397 -3.96392 0
M  V30 5947 H 570.317 -3.31966 -3.53587 0
M  V30 5948 H 566.196 -2.20558 -4.04815 0
M  V30 5949 H 569.74 -5.65759 -4.08121 0
M  V30 5950 H 565.637 -4.53449 -4.59407 0
M  V30 5951 H 566.405 -6.59473 -4.84807 0
M  V30 5952 N 569.068 1.32177 -0.85831 0
M  V30 5953 C 570.484 1.49873 -0.548656 0
M  V30 5954 C 570.684 1.79278 0.919874 0
M  V30 5955 O 569.74 1.86451 1.70271 0
M  V30 5956 C 571.053 2.64043 -1.4388 0
M  V30 5957 C 572.601 2.77928 -1.43961 0
M  V30 5958 C 573.076 3.95182 -2.31506 0
M  V30 5959 N 574.567 4.0245 -2.29321 0
M  V30 5960 C 575.302 4.9242 -2.93786 0
M  V30 5961 N 574.798 5.87373 -3.67376 0
M  V30 5962 N 576.591 4.85572 -2.83155 0
M  V30 5963 H 568.742 1.11357 -1.80868 0
M  V30 5964 H 571.005 0.549175 -0.772729 0
M  V30 5965 H 570.711 2.49055 -2.48324 0
M  V30 5966 H 570.585 3.59912 -1.12885 0
M  V30 5967 H 572.972 2.92338 -0.402813 0
M  V30 5968 H 573.053 1.82762 -1.78974 0
M  V30 5969 H 572.697 3.81531 -3.35256 0
M  V30 5970 H 572.627 4.89633 -1.93823 0
M  V30 5971 H 575.118 3.34507 -1.75822 0
M  V30 5972 H 575.431 6.52728 -4.13722 0
M  V30 5973 H 573.776 5.87388 -3.71484 0
M  V30 5974 H 576.967 4.10363 -2.25211 0
M  V30 5975 H 577.14 5.55486 -3.33676 0
M  V30 5976 N 570.547 0.616602 1.45037 0
M  V30 5977 C 571.795 0.115103 2.01772 0
M  V30 5978 C 572.116 -1.2622 1.48639 0
M  V30 5979 O 571.386 -1.83563 0.684199 0
M  V30 5980 H 569.966 0.0395607 0.745952 0
M  V30 5981 H 572.628 0.800032 1.77723 0
M  V30 5982 H 571.724 0.0717274 3.12018 0
M  V30 5983 N 572.025 -1.5352 0.356285 0
M  V30 5984 C 573.253 -2.05534 -0.237328 0
M  V30 5985 C 573.668 -1.23043 -1.43199 0
M  V30 5986 O 573.025 -0.268821 -1.80509 0
M  V30 5987 C 573.076 -3.55791 -0.639933 0
M  V30 5988 O 572.797 -4.35154 0.507233 0
M  V30 5989 C 574.298 -4.24027 -1.29292 0
M  V30 5990 H 571.518 -0.669585 -0.0435572 0
M  V30 5991 H 574.062 -1.97988 0.511963 0
M  V30 5992 H 572.217 -3.63518 -1.33915 0
M  V30 5993 H 572.631 -5.24178 0.18375 0
M  V30 5994 H 574.105 -5.30509 -1.52527 0
M  V30 5995 H 574.582 -3.77166 -2.25039 0
M  V30 5996 H 575.188 -4.20527 -0.63539 0
M  V30 5997 N 573.503 -0.0852151 -1.57369 0
M  V30 5998 C 574.728 0.592872 -1.98746 0
M  V30 5999 C 575.153 1.61538 -0.963689 0
M  V30 6000 O 574.511 1.81168 0.069071 0
M  V30 6001 C 574.559 1.22599 -3.39119 0
M  V30 6002 O 573.663 2.34185 -3.39457 0
M  V30 6003 H 573.004 0.151314 -0.646529 0
M  V30 6004 H 575.534 -0.163703 -2.03944 0
M  V30 6005 H 575.544 1.56965 -3.76598 0
M  V30 6006 H 574.219 0.476831 -4.13158 0
M  V30 6007 H 572.796 2.01512 -3.13763 0
M  V30 6008 N 574.981 1.5647 0.188427 0
M  V30 6009 C 576.206 1.85486 0.927891 0
M  V30 6010 C 576.631 0.669575 1.75779 0
M  V30 6011 O 575.989 -0.381573 1.77239 0
M  V30 6012 C 576.037 3.12784 1.7944 0
M  V30 6013 O 575.141 2.93805 2.894 0
M  V30 6014 H 574.482 0.610585 0.260925 0
M  V30 6015 H 577.012 2.037 0.191729 0
M  V30 6016 H 577.022 3.43749 2.19774 0
M  V30 6017 H 575.697 3.98671 1.18468 0
M  V30 6018 H 574.274 2.74153 2.52774 0
M  V30 6019 N 576.459 -0.456382 1.50847 0
M  V30 6020 C 577.687 -1.23026 1.66349 0
M  V30 6021 C 578.102 -1.85473 0.352868 0
M  V30 6022 O 577.459 -1.69885 -0.666739 0
M  V30 6023 C 577.51 -2.32827 2.76539 0
M  V30 6024 O 577.231 -1.72938 4.02522 0
M  V30 6025 C 578.732 -3.23448 3.03144 0
M  V30 6026 H 575.952 -0.371527 0.558756 0
M  V30 6027 H 578.496 -0.543082 1.97157 0
M  V30 6028 H 576.651 -2.97294 2.48384 0
M  V30 6029 H 577.065 -2.45357 4.63573 0
M  V30 6030 H 578.539 -3.96669 3.83872 0
M  V30 6031 H 579.016 -3.83094 2.14793 0
M  V30 6032 H 579.622 -2.64702 3.32886 0
M  V30 6033 N 577.937 -1.40673 -0.710563 0
M  V30 6034 C 579.165 -1.42547 -1.4996 0
M  V30 6035 C 579.58 -0.0265485 -1.88781 0
M  V30 6036 O 578.937 0.950694 -1.55782 0
M  V30 6037 C 578.988 -2.32071 -2.77173 0
M  V30 6038 O 578.709 -3.66518 -2.39992 0
M  V30 6039 C 580.21 -2.42591 -3.71032 0
M  V30 6040 H 577.43 -0.486025 -0.462623 0
M  V30 6041 H 579.974 -1.84783 -0.876102 0
M  V30 6042 H 578.129 -1.93184 -3.35795 0
M  V30 6043 H 578.543 -4.14115 -3.21884 0
M  V30 6044 H 580.017 -3.09429 -4.57119 0
M  V30 6045 H 580.494 -1.4525 -4.14486 0
M  V30 6046 H 581.1 -2.82051 -3.18319 0
M  V30 6047 N 579.415 0.9433 -1.26252 0
M  V30 6048 C 580.643 1.72367 -1.14443 0
M  V30 6049 C 581.058 1.86392 0.300572 0
M  V30 6050 O 580.415 1.36978 1.20596 0
M  V30 6051 C 580.466 3.13155 -1.806 0
M  V30 6052 O 580.187 2.99803 -3.19452 0
M  V30 6053 C 581.688 4.07417 -1.74717 0
M  V30 6054 H 578.908 0.539758 -0.398626 0
M  V30 6055 H 581.452 1.18268 -1.66832 0
M  V30 6056 H 579.607 3.64162 -1.32154 0
M  V30 6057 H 580.021 3.88697 -3.52158 0
M  V30 6058 H 581.495 5.03773 -2.25647 0
M  V30 6059 H 581.972 4.3337 -0.713244 0
M  V30 6060 H 582.578 3.6233 -2.22704 0
M  V30 6061 N 580.893 1.08022 1.14757 0
M  V30 6062 C 582.121 0.828847 1.89572 0
M  V30 6063 C 582.536 -0.618621 1.78377 0
M  V30 6064 O 581.893 -1.42482 1.1404 0
M  V30 6065 C 581.944 1.23677 3.39685 0
M  V30 6066 O 581.665 2.62746 3.50566 0
M  V30 6067 C 583.166 1.01569 4.31507 0
M  V30 6068 H 580.386 0.299196 0.600602 0
M  V30 6069 H 582.93 1.43846 1.45357 0
M  V30 6070 H 581.085 0.671347 3.81539 0
M  V30 6071 H 581.499 2.79573 4.43778 0
M  V30 6072 H 582.973 1.35055 5.35223 0
M  V30 6073 H 583.45 -0.0475433 4.39174 0
M  V30 6074 H 584.056 1.56636 3.95405 0
M  V30 6075 N 582.371 -1.3172 0.865308 0
M  V30 6076 C 583.619 -1.96487 0.472995 0
M  V30 6077 C 583.94 -1.68761 -0.976975 0
M  V30 6078 O 583.21 -1.00051 -1.68424 0
M  V30 6079 H 581.79 -0.726947 0.171922 0
M  V30 6080 H 584.452 -1.60612 1.10407 0
M  V30 6081 H 583.548 -3.0574 0.62687 0
M  V30 6082 N 583.85 -0.624285 -1.44708 0
M  V30 6083 C 584.797 0.0847135 -2.30644 0
M  V30 6084 C 585.767 0.843575 -1.43084 0
M  V30 6085 O 586.952 0.825982 -1.71995 0
M  V30 6086 C 584.091 1.06495 -3.28257 0
M  V30 6087 C 583.205 0.305224 -4.3092 0
M  V30 6088 C 582.34 1.27667 -5.1563 0
M  V30 6089 C 581.379 0.505706 -6.10007 0
M  V30 6090 N 580.516 1.42727 -6.8744 0
M  V30 6091 H 585.356 -0.654068 -2.90733 0
M  V30 6092 H 582.893 -0.334334 -1.4325 0
M  V30 6093 H 584.851 1.64658 -3.83332 0
M  V30 6094 H 583.481 1.77094 -2.69884 0
M  V30 6095 H 582.533 -0.392207 -3.78373 0
M  V30 6096 H 583.845 -0.295553 -4.97924 0
M  V30 6097 H 582.999 1.92984 -5.75189 0
M  V30 6098 H 581.738 1.91137 -4.48685 0
M  V30 6099 H 580.743 -0.160999 -5.49564 0
M  V30 6100 H 581.968 -0.124183 -6.78986 0
M  V30 6101 H 579.913 2.04931 -6.23169 0
M  V30 6102 H 579.831 0.880345 -7.50857 0
M  V30 6103 H 581.099 2.0695 -7.51526 0
M  V30 6104 N 585.328 1.53329 -0.364422 0
M  V30 6105 C 586.275 2.25698 0.482607 0
M  V30 6106 C 587.245 1.26325 1.07848 0
M  V30 6107 O 588.43 1.55104 1.11119 0
M  V30 6108 C 585.57 3.04873 1.61699 0
M  V30 6109 C 584.683 4.19135 1.0464 0
M  V30 6110 C 583.818 4.85754 2.14979 0
M  V30 6111 C 582.857 5.9205 1.5538 0
M  V30 6112 N 581.994 6.52365 2.59547 0
M  V30 6113 H 586.834 2.97666 -0.141032 0
M  V30 6114 H 584.371 1.46875 -0.0813692 0
M  V30 6115 H 586.329 3.49051 2.28516 0
M  V30 6116 H 584.959 2.35162 2.2113 0
M  V30 6117 H 584.011 3.79451 0.268553 0
M  V30 6118 H 585.323 4.95525 0.570653 0
M  V30 6119 H 584.477 5.3311 2.89619 0
M  V30 6120 H 583.216 4.08834 2.65906 0
M  V30 6121 H 582.221 5.44058 0.792549 0
M  V30 6122 H 583.446 6.7089 1.0528 0
M  V30 6123 H 581.392 5.78298 3.09689 0
M  V30 6124 H 581.309 7.2429 2.16655 0
M  V30 6125 H 582.577 7.0437 3.33892 0
M  V30 6126 N 586.806 0.0935595 1.57322 0
M  V30 6127 C 588.046 -0.573901 1.96178 0
M  V30 6128 C 588.41 -1.65445 0.97426 0
M  V30 6129 O 589.611 -2.37901 1.25126 0
M  V30 6130 C 587.882 -1.11612 3.39526 0
M  V30 6131 S 589.441 -1.79566 4.00377 0
M  V30 6132 H 586.259 -0.187315 0.685882 0
M  V30 6133 H 588.861 0.172597 1.94737 0
M  V30 6134 H 587.565 -0.31815 4.09165 0
M  V30 6135 H 587.096 -1.89848 3.4456 0
M  V30 6136 H 589.111 -3.07978 3.89056 0
M  V30 6137 N 588.284 -1.56567 -0.180126 0
M  V30 6138 C 589.216 -1.92275 -1.24751 0
M  V30 6139 C 590.229 -0.814922 -1.40936 0
M  V30 6140 O 591.418 -1.09336 -1.41095 0
M  V30 6141 C 588.518 -2.15265 -2.61752 0
M  V30 6142 C 587.691 -3.46467 -2.66981 0
M  V30 6143 C 586.75 -3.58391 -3.85283 0
M  V30 6144 O 585.776 -4.31086 -3.7169 0
M  V30 6145 N 586.978 -2.92587 -5.01371 0
M  V30 6146 H 589.743 -2.84435 -0.944302 0
M  V30 6147 H 587.304 -1.57617 -0.369952 0
M  V30 6148 H 589.296 -2.20515 -3.39345 0
M  V30 6149 H 587.866 -1.29533 -2.845 0
M  V30 6150 H 587.086 -3.52953 -1.75549 0
M  V30 6151 H 588.374 -4.32819 -2.67479 0
M  V30 6152 H 587.772 -2.3338 -5.15316 0
M  V30 6153 H 586.329 -3.03444 -5.76858 0
M  V30 6154 N 589.762 0.448376 -1.51087 0
M  V30 6155 C 590.987 1.22605 -1.6728 0
M  V30 6156 C 591.412 1.84524 -0.365045 0
M  V30 6157 O 590.77 1.6832 0.673642 0
M  V30 6158 C 590.818 2.29393 -2.78229 0
M  V30 6159 O 589.922 3.34608 -2.41063 0
M  V30 6160 H 589.263 0.359705 -0.558129 0
M  V30 6161 H 591.793 0.530903 -1.97592 0
M  V30 6162 H 591.803 2.74352 -3.01986 0
M  V30 6163 H 590.478 1.83701 -3.73131 0
M  V30 6164 H 589.055 2.95202 -2.27838 0
M  V30 6165 N 591.24 1.41047 0.703093 0
M  V30 6166 C 592.486 1.41209 1.46396 0
M  V30 6167 C 592.841 0.0180188 1.92392 0
M  V30 6168 O 592.134 -0.954739 1.66118 0
M  V30 6169 C 592.328 2.34686 2.6955 0
M  V30 6170 C 592.157 3.83044 2.35601 0
M  V30 6171 C 590.927 4.51777 2.26331 0
M  V30 6172 C 593.125 4.74215 1.9906 0
M  V30 6173 N 591.107 5.85302 1.85188 0
M  V30 6174 C 592.478 5.96631 1.68616 0
M  V30 6175 C 594.533 4.61932 1.85805 0
M  V30 6176 C 593.236 7.08134 1.26249 0
M  V30 6177 C 595.262 5.73389 1.44842 0
M  V30 6178 C 594.624 6.94899 1.15304 0
M  V30 6179 H 590.723 0.571951 0.533288 0
M  V30 6180 H 593.307 1.76859 0.814179 0
M  V30 6181 H 591.478 2.01143 3.32259 0
M  V30 6182 H 593.21 2.25618 3.35974 0
M  V30 6183 H 589.965 4.05618 2.44482 0
M  V30 6184 H 590.389 6.56049 1.67119 0
M  V30 6185 H 595.031 3.68494 2.07298 0
M  V30 6186 H 592.749 8.01445 1.035 0
M  V30 6187 H 596.335 5.65886 1.35146 0
M  V30 6188 H 595.215 7.79679 0.840854 0
M  V30 6189 N 592.718 -0.936591 1.26751 0
M  V30 6190 C 593.943 -1.72288 1.15462 0
M  V30 6191 C 594.368 -1.85915 -0.285887 0
M  V30 6192 O 593.726 -1.35272 -1.20711 0
M  V30 6193 C 593.774 -3.10503 1.83359 0
M  V30 6194 O 592.878 -3.96745 1.1255 0
M  V30 6195 H 592.219 -0.52843 0.402067 0
M  V30 6196 H 594.749 -1.17271 1.67656 0
M  V30 6197 H 594.759 -3.60867 1.90365 0
M  V30 6198 H 593.434 -2.99901 2.88153 0
M  V30 6199 H 592.011 -3.55191 1.13551 0
M  V30 6200 N 594.196 -1.08629 -1.14182 0
M  V30 6201 C 595.421 -0.83902 -1.89671 0
M  V30 6202 C 595.846 0.603332 -1.78161 0
M  V30 6203 O 595.204 1.42301 -1.12339 0
M  V30 6204 C 595.252 -1.26854 -3.37551 0
M  V30 6205 O 594.356 -0.42188 -4.10236 0
M  V30 6206 H 593.697 -0.304545 -0.590041 0
M  V30 6207 H 596.227 -1.4483 -1.44518 0
M  V30 6208 H 596.237 -1.25038 -3.88368 0
M  V30 6209 H 594.912 -2.31901 -3.45246 0
M  V30 6210 H 593.489 -0.503654 -3.69483 0
M  V30 6211 N 595.674 1.31259 -0.872281 0
M  V30 6212 C 596.607 2.26544 -0.274394 0
M  V30 6213 C 597.585 1.51213 0.597776 0
M  V30 6214 O 598.769 1.80277 0.550687 0
M  V30 6215 C 595.896 3.33139 0.611256 0
M  V30 6216 C 594.942 4.26077 -0.189876 0
M  V30 6217 S 595.775 5.11971 -1.56989 0
M  V30 6218 C 596.931 6.2208 -0.690427 0
M  V30 6219 H 597.164 2.76908 -1.0821 0
M  V30 6220 H 594.697 1.3906 -0.670939 0
M  V30 6221 H 596.655 3.95024 1.11654 0
M  V30 6222 H 595.316 2.81525 1.39294 0
M  V30 6223 H 594.509 5.01657 0.485433 0
M  V30 6224 H 594.111 3.68701 -0.627339 0
M  V30 6225 H 596.403 6.77429 0.098001 0
M  V30 6226 H 597.346 6.93768 -1.41742 0
M  V30 6227 H 597.754 5.63915 -0.256953 0
M  V30 6228 N 597.152 0.631951 1.44375 0
M  V30 6229 C 598.38 0.143867 2.06399 0
M  V30 6230 C 598.795 -1.18188 1.47231 0
M  V30 6231 O 598.152 -1.72511 0.595498 0
M  V30 6232 C 598.203 0.0238253 3.61492 0
M  V30 6233 O 597.924 1.29715 4.18456 0
M  V30 6234 C 599.425 -0.492856 4.40552 0
M  V30 6235 H 596.645 0.0800542 0.666207 0
M  V30 6236 H 599.189 0.866586 1.85231 0
M  V30 6237 H 597.344 -0.649338 3.81919 0
M  V30 6238 H 597.758 1.14252 5.11905 0
M  V30 6239 H 599.232 -0.525861 5.49489 0
M  V30 6240 H 599.709 -1.52006 4.12057 0
M  V30 6241 H 600.315 0.147085 4.25046 0
M  V30 6242 N 598.631 -1.53133 0.372548 0
M  V30 6243 C 600.042 -1.86404 -0.105155 0
M  V30 6244 C 600.393 -1.29289 -1.47576 0
M  V30 6245 O 599.518 -0.617646 -2.07398 0
M  V30 6246 C 600.113 -3.38223 -0.197588 0
M  V30 6247 C 598.672 -3.71266 -0.619556 0
M  V30 6248 C 597.819 -2.76353 0.228919 0
M  V30 6249 H 600.77 -1.47282 0.591077 0
M  V30 6250 H 600.791 -3.66577 -1.01987 0
M  V30 6251 H 600.303 -3.79763 0.800099 0
M  V30 6252 H 598.404 -3.35287 -1.62522 0
M  V30 6253 H 598.517 -4.77515 -0.389332 0
M  V30 6254 H 596.881 -2.52888 -0.303271 0
M  V30 6255 H 597.664 -3.20728 1.22428 0
M  V30 6256 N 600.109 -0.101901 -1.5727 0
M  V30 6257 C 601.059 0.865346 -2.1094 0
M  V30 6258 C 602.043 1.2394 -1.02605 0
M  V30 6259 O 603.235 1.21334 -1.28868 0
M  V30 6260 C 600.364 2.12187 -2.69874 0
M  V30 6261 C 599.45 1.77295 -3.85263 0
M  V30 6262 N 599.841 1.12993 -4.93017 0
M  V30 6263 C 598.139 2.06862 -3.95126 0
M  V30 6264 C 598.84 0.968631 -5.73579 0
M  V30 6265 N 597.816 1.48814 -5.22834 0
M  V30 6266 H 601.618 0.364368 -2.91633 0
M  V30 6267 H 599.132 0.101104 -1.62085 0
M  V30 6268 H 601.129 2.82431 -3.06657 0
M  V30 6269 H 599.789 2.62844 -1.90639 0
M  V30 6270 H 600.8 0.795935 -5.11747 0
M  V30 6271 H 597.477 2.59686 -3.26909 0
M  V30 6272 H 598.867 0.465231 -6.70287 0
M  V30 6273 N 601.587 1.56661 0.17182 0
M  V30 6274 C 603.003 1.50768 0.52357 0
M  V30 6275 C 603.203 0.806072 1.84675 0
M  V30 6276 O 602.259 0.366233 2.4983 0
M  V30 6277 C 603.572 2.955 0.556793 0
M  V30 6278 C 605.12 3.06303 0.644029 0
M  V30 6279 C 605.595 4.52492 0.708148 0
M  V30 6280 N 607.086 4.56737 0.771051 0
M  V30 6281 C 607.821 5.67196 0.841229 0
M  V30 6282 N 607.317 6.87287 0.872272 0
M  V30 6283 N 609.11 5.55165 0.88021 0
M  V30 6284 H 601.261 2.00679 -0.695817 0
M  V30 6285 H 603.524 0.914219 -0.250814 0
M  V30 6286 H 603.23 3.49986 -0.346774 0
M  V30 6287 H 603.104 3.50119 1.40346 0
M  V30 6288 H 605.491 2.51851 1.53802 0
M  V30 6289 H 605.572 2.5477 -0.229297 0
M  V30 6290 H 605.216 5.07575 -0.181585 0
M  V30 6291 H 605.146 5.01781 1.59761 0
M  V30 6292 H 607.637 3.70274 0.755364 0
M  V30 6293 H 607.95 7.6722 0.92698 0
M  V30 6294 H 606.295 6.89898 0.840557 0
M  V30 6295 H 609.486 4.60263 0.852956 0
M  V30 6296 H 609.659 6.41271 0.931439 0
M  V30 6297 N 603.065 -0.440357 1.51323 0
M  V30 6298 C 604.015 -1.53263 1.68803 0
M  V30 6299 C 604.999 -1.51494 0.542057 0
M  V30 6300 O 606.191 -1.57999 0.797839 0
M  V30 6301 C 603.32 -2.91479 1.8137 0
M  V30 6302 C 602.406 -2.98015 3.01742 0
M  V30 6303 N 602.797 -2.743 4.24962 0
M  V30 6304 C 601.095 -3.29173 3.00934 0
M  V30 6305 C 601.796 -2.86601 5.06197 0
M  V30 6306 N 600.772 -3.1814 4.40781 0
M  V30 6307 H 604.574 -1.33675 2.61741 0
M  V30 6308 H 602.088 -0.647616 1.48929 0
M  V30 6309 H 604.085 -3.70055 1.92002 0
M  V30 6310 H 602.745 -3.12089 0.896117 0
M  V30 6311 H 603.756 -2.49287 4.53957 0
M  V30 6312 H 600.433 -3.55577 2.18796 0
M  V30 6313 H 601.823 -2.72246 6.14274 0
M  V30 6314 N 604.543 -1.41418 -0.695603 0
M  V30 6315 C 605.475 -1.39195 -1.82092 0
M  V30 6316 C 606.488 -0.294132 -1.60121 0
M  V30 6317 O 607.677 -0.555854 -1.69625 0
M  V30 6318 C 604.777 -1.14828 -3.18854 0
M  V30 6319 C 603.95 -2.36649 -3.67853 0
M  V30 6320 C 603.009 -2.08139 -4.83285 0
M  V30 6321 O 602.035 -2.81177 -4.94902 0
M  V30 6322 N 603.237 -1.07162 -5.70523 0
M  V30 6323 H 606.002 -2.36185 -1.84491 0
M  V30 6324 H 603.563 -1.3603 -0.877923 0
M  V30 6325 H 605.555 -0.937075 -3.93702 0
M  V30 6326 H 604.125 -0.264358 -3.1148 0
M  V30 6327 H 603.345 -2.73472 -2.83913 0
M  V30 6328 H 604.633 -3.17816 -3.97329 0
M  V30 6329 H 604.031 -0.467124 -5.63768 0
M  V30 6330 H 602.588 -0.920311 -6.4527 0
M  V30 6331 N 606.021 0.929856 -1.27246 0
M  V30 6332 C 606.968 2.03017 -1.09785 0
M  V30 6333 C 607.938 1.661 0.000456744 0
M  V30 6334 O 609.123 1.90116 -0.161462 0
M  V30 6335 C 606.263 3.36878 -0.748816 0
M  V30 6336 C 605.376 3.86763 -1.92453 0
M  V30 6337 C 604.511 5.09061 -1.51758 0
M  V30 6338 C 603.55 5.51237 -2.66091 0
M  V30 6339 N 602.687 6.64732 -2.25999 0
M  V30 6340 H 607.527 2.17285 -2.03939 0
M  V30 6341 H 605.064 1.06448 -1.01524 0
M  V30 6342 H 607.022 4.13855 -0.527283 0
M  V30 6343 H 605.652 3.22424 0.155771 0
M  V30 6344 H 604.704 3.06086 -2.25867 0
M  V30 6345 H 606.016 4.13994 -2.78227 0
M  V30 6346 H 605.17 5.93532 -1.25716 0
M  V30 6347 H 603.909 4.83602 -0.630896 0
M  V30 6348 H 602.914 4.65316 -2.92849 0
M  V30 6349 H 604.139 5.78692 -3.55377 0
M  V30 6350 H 602.085 6.40935 -1.3978 0
M  V30 6351 H 602.002 6.91607 -3.05313 0
M  V30 6352 H 603.27 7.52549 -2.03199 0
M  V30 6353 N 607.499 1.09233 1.13605 0
M  V30 6354 C 608.727 0.848908 1.88683 0
M  V30 6355 C 609.142 -0.599667 1.79024 0
M  V30 6356 O 608.499 -1.41265 1.15544 0
M  V30 6357 C 608.55 1.27273 3.38355 0
M  V30 6358 O 608.271 2.66449 3.47759 0
M  V30 6359 C 609.772 1.0614 4.30406 0
M  V30 6360 H 606.992 0.305549 0.597395 0
M  V30 6361 H 609.536 1.4538 1.43823 0
M  V30 6362 H 607.691 0.711776 3.80805 0
M  V30 6363 H 608.105 2.84264 4.40788 0
M  V30 6364 H 609.579 1.40725 5.33761 0
M  V30 6365 H 610.056 -0.000960332 4.392 0
M  V30 6366 H 610.662 1.60821 3.93722 0
M  V30 6367 N 608.977 -1.30795 0.87923 0
M  V30 6368 C 610.388 -1.78535 0.546093 0
M  V30 6369 C 610.739 -1.72354 -0.937467 0
M  V30 6370 O 609.864 -1.2969 -1.73233 0
M  V30 6371 C 610.459 -3.24181 0.9845 0
M  V30 6372 C 609.018 -3.69779 0.702871 0
M  V30 6373 C 608.165 -2.51377 1.17068 0
M  V30 6374 H 611.116 -1.17746 1.06403 0
M  V30 6375 H 611.137 -3.79227 0.311045 0
M  V30 6376 H 610.649 -3.28647 2.06429 0
M  V30 6377 H 608.75 -3.70806 -0.365166 0
M  V30 6378 H 608.863 -4.61507 1.28639 0
M  V30 6379 H 607.227 -2.47768 0.590172 0
M  V30 6380 H 608.01 -2.58584 2.25808 0
M  V30 6381 N 610.455 -0.639598 -1.44038 0
M  V30 6382 C 611.365 0.0612377 -2.3452 0
M  V30 6383 C 612.381 0.826717 -1.53106 0
M  V30 6384 O 613.557 0.777059 -1.85806 0
M  V30 6385 C 610.622 1.02492 -3.31204 0
M  V30 6386 C 609.683 0.25788 -4.28525 0
M  V30 6387 C 608.916 1.17566 -5.2059 0
M  V30 6388 O 609.139 2.41461 -5.16771 0
M  V30 6389 O 608.073 0.655407 -5.98321 0
M  V30 6390 H 611.899 -0.68318 -2.95916 0
M  V30 6391 H 609.484 -0.399784 -1.43952 0
M  V30 6392 H 611.366 1.57911 -3.90694 0
M  V30 6393 H 610.041 1.7498 -2.7233 0
M  V30 6394 H 608.948 -0.339566 -3.72556 0
M  V30 6395 H 610.281 -0.427154 -4.90343 0
M  V30 6396 N 611.933 1.52934 -0.380664 0
M  V30 6397 C 612.881 2.27727 0.47361 0
M  V30 6398 C 613.875 1.31288 1.0705 0
M  V30 6399 O 615.081 1.4886 1.01197 0
M  V30 6400 H 611.456 0.732189 0.171475 0
M  V30 6401 H 613.427 2.97864 -0.178785 0
M  V30 6402 C 612.176 3.0904 1.59341 0
M  V30 6403 H 611.499 3.831 1.14343 0
M  V30 6404 H 612.939 3.64527 2.16555 0
M  V30 6405 C 611.398 2.20813 2.54447 0
M  V30 6406 O 611.928 1.82907 3.57642 0
M  V30 6407 N 610.134 1.85145 2.23986 0
M  V30 6408 H 609.681 2.16169 1.40103 0
M  V30 6409 H 609.639 1.26402 2.87871 0
M  V30 6410 N 613.412 0.11024 1.57214 0
M  V30 6411 C 614.642 -0.557025 1.98949 0
M  V30 6412 C 615.05 -1.61317 0.988606 0
M  V30 6413 O 614.393 -1.83679 -0.0279159 0
M  V30 6414 C 614.455 -1.24956 3.37085 0
M  V30 6415 C 614.119 -0.342398 4.55716 0
M  V30 6416 C 615.116 0.415511 5.18237 0
M  V30 6417 C 612.801 -0.256029 5.01647 0
M  V30 6418 C 614.795 1.24761 6.25071 0
M  V30 6419 C 612.482 0.579713 6.08344 0
M  V30 6420 C 613.48 1.33017 6.69922 0
M  V30 6421 O 613.168 2.15205 7.74559 0
M  V30 6422 H 612.9 -0.152792 0.658506 0
M  V30 6423 H 615.454 0.19076 2.04512 0
M  V30 6424 H 613.684 -2.04424 3.2825 0
M  V30 6425 H 615.373 -1.81286 3.63167 0
M  V30 6426 H 616.139 0.358605 4.83672 0
M  V30 6427 H 612.018 -0.829831 4.5347 0
M  V30 6428 H 615.562 1.83386 6.73064 0
M  V30 6429 H 611.459 0.638044 6.42339 0
M  V30 6430 H 612.227 2.08052 7.91617 0
M  V30 6431 N 614.89 -1.56749 -0.16351 0
M  V30 6432 C 616.301 -1.72039 -0.725216 0
M  V30 6433 C 616.652 -0.72202 -1.82432 0
M  V30 6434 O 615.777 0.114942 -2.16095 0
M  V30 6435 C 616.372 -3.11932 -1.32227 0
M  V30 6436 C 614.931 -3.28879 -1.83072 0
M  V30 6437 C 614.078 -2.67984 -0.712716 0
M  V30 6438 H 617.029 -1.58579 0.0619772 0
M  V30 6439 H 617.05 -3.11015 -2.19202 0
M  V30 6440 H 616.562 -3.84572 -0.522103 0
M  V30 6441 H 614.663 -2.61209 -2.65708 0
M  V30 6442 H 614.776 -4.36688 -1.97079 0
M  V30 6443 H 613.14 -2.28005 -1.13515 0
M  V30 6444 H 613.923 -3.43216 0.0757361 0
M  V30 6445 N 616.368 0.432326 -1.51554 0
M  V30 6446 C 617.316 1.54572 -1.73811 0
M  V30 6447 C 618.31 1.58246 -0.604539 0
M  V30 6448 O 619.516 1.6193 -0.786041 0
M  V30 6449 H 615.891 0.513626 -0.549265 0
M  V30 6450 H 617.862 1.32977 -2.67132 0
M  V30 6451 C 616.611 2.92181 -1.88483 0
M  V30 6452 H 615.934 2.90088 -2.75116 0
M  V30 6453 H 617.374 3.69439 -2.08065 0
M  V30 6454 C 615.833 3.3065 -0.645909 0
M  V30 6455 O 616.363 4.01216 0.197093 0
M  V30 6456 N 614.569 2.86464 -0.488538 0
M  V30 6457 H 614.116 2.29209 -1.17562 0
M  V30 6458 H 614.074 3.12565 0.339156 0
M  V30 6459 N 617.846 1.41785 0.688094 0
M  V30 6460 C 618.809 1.43936 1.78368 0
M  V30 6461 C 619.809 0.328866 1.57401 0
M  V30 6462 O 620.999 0.589093 1.63937 0
M  V30 6463 C 618.131 1.25804 3.16838 0
M  V30 6464 H 619.324 2.41472 1.77852 0
M  V30 6465 H 616.877 1.28037 0.896448 0
M  V30 6466 H 617.612 0.291386 3.22988 0
M  V30 6467 H 617.397 2.06272 3.33458 0
M  V30 6468 H 618.887 1.30162 3.96797 0
M  V30 6469 N 619.324 -0.923095 1.27737 0
M  V30 6470 C 620.572 -1.66797 1.14119 0
M  V30 6471 C 620.893 -1.92479 -0.312541 0
M  V30 6472 O 620.163 -1.53432 -1.218 0
M  V30 6473 H 618.743 -0.618196 0.419336 0
M  V30 6474 H 621.405 -1.10815 1.60331 0
M  V30 6475 H 620.501 -2.63424 1.67374 0
M  V30 6476 N 620.802 -1.09834 -1.13024 0
M  V30 6477 C 621.732 -0.763451 -2.20666 0
M  V30 6478 C 622.713 0.260778 -1.68089 0
M  V30 6479 O 623.898 0.127915 -1.93778 0
M  V30 6480 C 621.028 -0.187744 -3.46792 0
M  V30 6481 C 619.982 -1.14196 -4.12484 0
M  V30 6482 C 619.308 -0.427755 -5.32986 0
M  V30 6483 C 620.608 -2.48607 -4.59338 0
M  V30 6484 H 622.302 -1.66347 -2.48936 0
M  V30 6485 H 619.848 -0.801261 -1.19649 0
M  V30 6486 H 621.801 0.0586375 -4.21359 0
M  V30 6487 H 620.525 0.747485 -3.17931 0
M  V30 6488 H 619.184 -1.37369 -3.3989 0
M  V30 6489 H 618.832 0.511747 -5.0039 0
M  V30 6490 H 618.532 -1.06403 -5.77886 0
M  V30 6491 H 620.056 -0.189772 -6.10305 0
M  V30 6492 H 621.47 -2.29618 -5.25308 0
M  V30 6493 H 619.867 -3.08062 -5.14993 0
M  V30 6494 H 620.937 -3.09062 -3.73642 0
M  V30 6495 N 622.28 1.30327 -0.886154 0
M  V30 6496 C 623.508 2.00254 -0.520176 0
M  V30 6497 C 623.923 1.66419 0.891637 0
M  V30 6498 O 623.28 0.901951 1.58654 0
M  V30 6499 C 623.331 3.54916 -0.686775 0
M  V30 6500 O 623.052 3.87547 -2.04301 0
M  V30 6501 C 624.553 4.42115 -0.323945 0
M  V30 6502 H 621.773 0.640204 -0.200947 0
M  V30 6503 H 624.317 1.66183 -1.19178 0
M  V30 6504 H 622.472 3.8735 -0.0625273 0
M  V30 6505 H 622.886 4.82247 -2.06249 0
M  V30 6506 H 624.36 5.49808 -0.491407 0
M  V30 6507 H 624.837 4.32953 0.73811 0
M  V30 6508 H 625.443 4.15129 -0.924565 0
M  V30 6509 N 623.758 0.647228 1.43697 0
M  V30 6510 C 624.691 -0.097646 2.27991 0
M  V30 6511 C 625.669 -0.83571 1.3948 0
M  V30 6512 O 626.853 -0.836509 1.68922 0
M  V30 6513 C 623.98 -1.14484 3.18765 0
M  V30 6514 C 623.026 -0.505503 4.23494 0
M  V30 6515 S 623.859 0.716471 5.30685 0
M  V30 6516 C 625.015 -0.330339 6.25028 0
M  V30 6517 H 625.248 0.617417 2.90818 0
M  V30 6518 H 622.781 0.435881 1.4812 0
M  V30 6519 H 624.739 -1.74403 3.7161 0
M  V30 6520 H 623.4 -1.83219 2.55127 0
M  V30 6521 H 622.593 -1.29473 4.87086 0
M  V30 6522 H 622.195 0.0194377 3.73995 0
M  V30 6523 H 624.487 -1.19828 6.66819 0
M  V30 6524 H 625.43 0.270409 7.07583 0
M  V30 6525 H 625.838 -0.663459 5.60588 0
M  V30 6526 N 625.236 -1.5273 0.388769 0
M  V30 6527 C 626.184 -2.27975 -0.461527 0
M  V30 6528 C 627.178 -1.31854 -1.06352 0
M  V30 6529 O 628.384 -1.49394 -1.00406 0
M  V30 6530 H 624.759 -0.733088 -0.16759 0
M  V30 6531 H 626.73 -2.97765 0.194579 0
M  V30 6532 C 625.479 -3.09881 -1.577 0
M  V30 6533 H 624.802 -3.83701 -1.12309 0
M  V30 6534 H 626.242 -3.6567 -2.14619 0
M  V30 6535 C 624.701 -2.22159 -2.53272 0
M  V30 6536 O 625.231 -1.84802 -3.56667 0
M  V30 6537 N 623.437 -1.8633 -2.23001 0
M  V30 6538 H 622.984 -2.16909 -1.38954 0
M  V30 6539 H 622.942 -1.27927 -2.87197 0
M  V30 6540 N 626.714 -0.118576 -1.57153 0
M  V30 6541 C 627.944 0.546466 -1.99242 0
M  V30 6542 C 628.352 1.60791 -0.997148 0
M  V30 6543 O 627.695 1.83691 0.0181745 0
M  V30 6544 C 627.757 1.23167 -3.37743 0
M  V30 6545 C 627.421 0.318226 -4.55891 0
M  V30 6546 C 628.418 -0.442988 -5.18009 0
M  V30 6547 C 626.103 0.229421 -5.01776 0
M  V30 6548 C 628.097 -1.28074 -6.244 0
M  V30 6549 C 625.784 -0.611966 -6.08028 0
M  V30 6550 C 626.782 -1.36568 -6.69207 0
M  V30 6551 O 626.47 -2.1931 -7.73407 0
M  V30 6552 H 626.202 0.149297 -0.659307 0
M  V30 6553 H 628.756 -0.201603 -2.04408 0
M  V30 6554 H 626.986 2.0268 -3.29329 0
M  V30 6555 H 628.675 1.79358 -3.64123 0
M  V30 6556 H 629.441 -0.38425 -4.83475 0
M  V30 6557 H 625.32 0.805771 -4.53903 0
M  V30 6558 H 628.864 -1.86952 -6.72082 0
M  V30 6559 H 624.761 -0.6721 -6.41991 0
M  V30 6560 H 625.529 -2.12247 -7.90502 0
M  V30 6561 N 628.193 1.56834 0.155195 0
M  V30 6562 C 629.433 1.84701 0.875488 0
M  V30 6563 C 629.797 0.701747 1.78716 0
M  V30 6564 O 630.998 0.861263 2.54629 0
M  V30 6565 C 629.269 3.1773 1.63654 0
M  V30 6566 S 630.828 3.67128 2.40338 0
M  V30 6567 H 627.646 0.647856 0.292923 0
M  V30 6568 H 630.248 1.95026 0.136024 0
M  V30 6569 H 628.952 3.99059 0.958117 0
M  V30 6570 H 628.483 3.10388 2.41708 0
M  V30 6571 H 630.498 3.35739 3.65368 0
M  V30 6572 N 629.671 -0.424282 1.51781 0
M  V30 6573 C 631.087 -0.761768 1.40247 0
M  V30 6574 C 631.287 -1.95324 0.495041 0
M  V30 6575 O 630.343 -2.5246 -0.0448949 0
M  V30 6576 C 631.656 -1.0299 2.82513 0
M  V30 6577 C 633.204 -1.13354 2.91753 0
M  V30 6578 C 633.679 -1.43453 4.34954 0
M  V30 6579 N 635.17 -1.5035 4.3812 0
M  V30 6580 C 635.905 -1.75236 5.45967 0
M  V30 6581 N 635.401 -1.97827 6.63955 0
M  V30 6582 N 637.194 -1.77126 5.33463 0
M  V30 6583 H 629.345 0.360228 2.09323 0
M  V30 6584 H 631.608 0.0988128 0.942836 0
M  V30 6585 H 631.314 -0.226961 3.50967 0
M  V30 6586 H 631.188 -1.95411 3.22637 0
M  V30 6587 H 633.575 -1.92709 2.23489 0
M  V30 6588 H 633.656 -0.188041 2.55108 0
M  V30 6589 H 633.3 -0.646209 5.03772 0
M  V30 6590 H 633.23 -2.3923 4.69123 0
M  V30 6591 H 635.721 -1.34742 3.53062 0
M  V30 6592 H 636.034 -2.16223 7.41935 0
M  V30 6593 H 634.379 -1.95123 6.67047 0
M  V30 6594 H 637.57 -1.59005 4.40267 0
M  V30 6595 H 637.743 -1.96182 6.17589 0
M  V30 6596 N 631.149 -1.42148 -0.680565 0
M  V30 6597 C 632.097 -1.45401 -1.81552 0
M  V30 6598 C 633.091 -0.33036 -1.66147 0
M  V30 6599 O 634.297 -0.503103 -1.72826 0
M  V30 6600 H 630.672 -0.455265 -0.59853 0
M  V30 6601 H 632.643 -2.41024 -1.75926 0
M  V30 6602 C 631.392 -1.36769 -3.19671 0
M  V30 6603 H 630.715 -2.22525 -3.32149 0
M  V30 6604 H 632.155 -1.43106 -3.9912 0
M  V30 6605 C 630.614 -0.0817752 -3.36801 0
M  V30 6606 O 631.144 0.867707 -3.92216 0
M  V30 6607 N 629.35 -0.000799811 -2.906 0
M  V30 6608 H 628.897 -0.774231 -2.4569 0
M  V30 6609 H 628.855 0.858961 -3.02439 0
M  V30 6610 N 632.627 0.916307 -1.28225 0
M  V30 6611 C 634.038 1.48024 -1.13779 0
M  V30 6612 C 634.389 1.94289 0.273139 0
M  V30 6613 O 633.514 1.82226 1.16716 0
M  V30 6614 C 634.109 2.69029 -2.05935 0
M  V30 6615 C 632.668 3.2161 -1.95561 0
M  V30 6616 C 631.815 1.94321 -1.97825 0
M  V30 6617 H 634.766 0.729272 -1.40951 0
M  V30 6618 H 634.787 3.44204 -1.62184 0
M  V30 6619 H 634.299 2.35325 -3.08616 0
M  V30 6620 H 632.4 3.60045 -0.959076 0
M  V30 6621 H 632.513 3.87032 -2.82388 0
M  V30 6622 H 630.877 2.1131 -1.42198 0
M  V30 6623 H 631.66 1.62917 -3.0218 0
M  V30 6624 N 634.105 1.10431 1.1244 0
M  V30 6625 C 635.382 0.758797 1.80282 0
M  V30 6626 C 635.762 -0.754727 1.97147 0
M  V30 6627 O 635.11 -1.68094 1.54779 0
M  V30 6628 C 635.32 1.50982 3.14651 0
M  V30 6629 C 636.668 1.68232 3.8985 0
M  V30 6630 O 637.692 1.47319 3.24308 0
M  V30 6631 O 636.551 2.02905 5.07437 0
M  V30 6632 H 633.645 0.273756 0.780376 0
M  V30 6633 H 636.191 1.20713 1.19275 0
M  V30 6634 H 634.963 2.53989 2.97666 0
M  V30 6635 H 634.586 1.05435 3.83366 0
M  V30 6636 N 635.583 -1.29855 0.893053 0
M  V30 6637 C 636.546 -2.26183 0.370687 0
M  V30 6638 C 637.546 -1.53108 -0.491385 0
M  V30 6639 O 638.736 -1.71643 -0.297386 0
M  V30 6640 C 635.868 -3.37633 -0.470827 0
M  V30 6641 H 637.061 -2.73903 1.22135 0
M  V30 6642 H 634.614 -1.41183 0.67061 0
M  V30 6643 H 635.349 -2.95241 -1.34175 0
M  V30 6644 H 635.134 -3.91825 0.146784 0
M  V30 6645 H 636.624 -4.09313 -0.827825 0
M  V30 6646 N 637.061 -0.65484 -1.43351 0
M  V30 6647 C 638.338 -0.0987371 -1.95351 0
M  V30 6648 C 638.718 1.38161 -1.59608 0
M  V30 6649 O 638.066 2.10791 -0.882021 0
M  V30 6650 C 638.276 -0.346684 -3.47274 0
M  V30 6651 C 639.624 -0.25249 -4.23849 0
M  V30 6652 O 640.648 -0.279332 -3.55103 0
M  V30 6653 O 639.507 -0.177584 -5.46211 0
M  V30 6654 H 636.601 0.0086829 -0.826954 0
M  V30 6655 H 639.147 -0.728189 -1.53282 0
M  V30 6656 H 637.919 -1.37296 -3.66423 0
M  V30 6657 H 637.542 0.315757 -3.96344 0
M  V30 6658 N 638.539 1.52521 -0.396863 0
M  V30 6659 C 639.486 2.26671 0.434624 0
M  V30 6660 C 640.456 1.28584 1.05144 0
M  V30 6661 O 641.641 1.57426 1.07804 0
M  V30 6662 C 638.781 3.08234 1.55196 0
M  V30 6663 C 637.894 4.21261 0.957262 0
M  V30 6664 C 637.029 4.90205 2.04627 0
M  V30 6665 C 636.068 5.95213 1.42787 0
M  V30 6666 N 635.205 6.57723 2.45651 0
M  V30 6667 H 640.045 2.973 -0.204139 0
M  V30 6668 H 637.582 1.46669 -0.112505 0
M  V30 6669 H 639.54 3.53819 2.2106 0
M  V30 6670 H 638.17 2.398 2.16092 0
M  V30 6671 H 637.222 3.79935 0.188005 0
M  V30 6672 H 638.534 4.96624 0.465416 0
M  V30 6673 H 637.688 5.39133 2.78246 0
M  V30 6674 H 636.427 4.14383 2.57174 0
M  V30 6675 H 635.432 5.45616 0.676968 0
M  V30 6676 H 636.657 6.72972 0.910255 0
M  V30 6677 H 634.603 5.84737 2.97353 0
M  V30 6678 H 634.52 7.28723 2.01243 0
M  V30 6679 H 635.788 7.11293 3.18876 0
M  V30 6680 N 640.017 0.126909 1.57088 0
M  V30 6681 C 641.265 -0.528123 1.95078 0
M  V30 6682 C 641.586 -1.66708 1.0116 0
M  V30 6683 O 640.856 -1.95777 0.0693527 0
M  V30 6684 H 639.436 -0.198087 0.720257 0
M  V30 6685 H 642.098 0.197703 1.93895 0
M  V30 6686 H 641.194 -0.917507 2.98309 0
M  V30 6687 N 641.495 -1.56914 -0.146875 0
M  V30 6688 C 642.906 -1.72799 -0.706928 0
M  V30 6689 C 643.257 -0.741329 -1.81656 0
M  V30 6690 O 642.382 0.0920162 -2.16204 0
M  V30 6691 C 642.977 -3.13317 -1.28911 0
M  V30 6692 C 641.536 -3.30803 -1.79573 0
M  V30 6693 C 640.683 -2.68725 -0.684252 0
M  V30 6694 H 643.634 -1.58504 0.0787931 0
M  V30 6695 H 643.655 -3.13323 -2.15891 0
M  V30 6696 H 643.167 -3.85104 -0.481284 0
M  V30 6697 H 641.268 -2.64012 -2.62923 0
M  V30 6698 H 641.381 -4.38754 -1.92436 0
M  V30 6699 H 639.745 -2.29196 -1.11091 0
M  V30 6700 H 640.528 -3.43117 0.112134 0
M  V30 6701 N 642.974 0.416227 -1.52004 0
M  V30 6702 C 644.22 1.16233 -1.66917 0
M  V30 6703 C 644.575 1.8839 -0.390763 0
M  V30 6704 O 643.868 1.81479 0.614478 0
M  V30 6705 C 644.062 2.18923 -2.82502 0
M  V30 6706 C 643.891 1.56849 -4.2146 0
M  V30 6707 C 642.661 1.34426 -4.87091 0
M  V30 6708 C 644.859 1.03322 -5.03815 0
M  V30 6709 N 642.841 0.681703 -6.10103 0
M  V30 6710 C 644.212 0.497165 -6.18003 0
M  V30 6711 C 646.267 0.926997 -4.89194 0
M  V30 6712 C 644.97 -0.134687 -7.19174 0
M  V30 6713 C 646.996 0.309009 -5.90592 0
M  V30 6714 C 646.358 -0.216399 -7.04068 0
M  V30 6715 H 642.457 0.412252 -0.664509 0
M  V30 6716 H 645.041 0.455758 -1.89291 0
M  V30 6717 H 643.212 2.86946 -2.61756 0
M  V30 6718 H 644.944 2.85844 -2.86488 0
M  V30 6719 H 641.699 1.61183 -4.45328 0
M  V30 6720 H 642.123 0.367256 -6.76003 0
M  V30 6721 H 646.765 1.31904 -4.01698 0
M  V30 6722 H 644.483 -0.538811 -8.06302 0
M  V30 6723 H 648.069 0.228438 -5.81351 0
M  V30 6724 H 646.949 -0.687064 -7.81184 0
M  V30 6725 N 644.452 1.42507 0.673017 0
M  V30 6726 C 645.692 1.44559 1.44507 0
M  V30 6727 C 646.056 0.0606206 1.91904 0
M  V30 6728 O 647.257 -0.044139 2.68764 0
M  V30 6729 C 645.528 2.44291 2.60877 0
M  V30 6730 S 647.087 2.65059 3.49699 0
M  V30 6731 H 643.905 0.51181 0.49353 0
M  V30 6732 H 646.507 1.79124 0.783256 0
M  V30 6733 H 645.211 3.43685 2.24297 0
M  V30 6734 H 644.742 2.11157 3.31928 0
M  V30 6735 H 646.757 1.93494 4.56919 0
M  V30 6736 N 645.93 -0.909495 1.28709 0
M  V30 6737 C 647.177 -1.65905 1.16111 0
M  V30 6738 C 647.505 -1.92334 -0.289436 0
M  V30 6739 O 646.76 -1.52495 -1.22653 0
M  V30 6740 C 647.059 -3.02117 1.90945 0
M  V30 6741 C 646.725 -2.95332 3.40719 0
M  V30 6742 C 645.387 -2.93189 3.81567 0
M  V30 6743 C 647.739 -2.85264 4.36204 0
M  V30 6744 C 645.067 -2.78784 5.16233 0
M  V30 6745 C 647.419 -2.724 5.70948 0
M  V30 6746 C 646.083 -2.68617 6.11066 0
M  V30 6747 H 645.353 -0.60709 0.42488 0
M  V30 6748 H 648 -1.05932 1.59533 0
M  V30 6749 H 646.305 -3.65901 1.40085 0
M  V30 6750 H 648.002 -3.59026 1.7861 0
M  V30 6751 H 644.592 -2.97797 3.08245 0
M  V30 6752 H 648.776 -2.86005 4.05605 0
M  V30 6753 H 644.032 -2.74254 5.46438 0
M  V30 6754 H 648.206 -2.63579 6.44592 0
M  V30 6755 H 645.833 -2.57213 7.15364 0
M  V30 6756 N 647.408 -1.11026 -1.11852 0
M  V30 6757 C 648.636 -0.878818 -1.87308 0
M  V30 6758 C 649.051 0.57111 -1.79955 0
M  V30 6759 O 648.408 1.39409 -1.17777 0
M  V30 6760 C 648.459 -1.3264 -3.36287 0
M  V30 6761 O 648.18 -2.71948 -3.43476 0
M  V30 6762 C 649.681 -1.12974 -4.28663 0
M  V30 6763 H 646.901 -0.315015 -0.592458 0
M  V30 6764 H 649.445 -1.47649 -1.41492 0
M  V30 6765 H 647.6 -0.772269 -3.79625 0
M  V30 6766 H 648.014 -2.91241 -4.3621 0
M  V30 6767 H 649.488 -1.49198 -5.31454 0
M  V30 6768 H 649.965 -0.0689127 -4.39146 0
M  V30 6769 H 650.571 -1.67064 -3.91113 0
M  V30 6770 N 648.886 1.2938 -0.899927 0
M  V30 6771 C 650.114 1.99691 -0.541386 0
M  V30 6772 C 650.529 1.67355 0.873936 0
M  V30 6773 O 649.886 0.918728 1.57688 0
M  V30 6774 C 649.937 3.54168 -0.72438 0
M  V30 6775 O 649.658 3.85359 -2.08399 0
M  V30 6776 C 651.159 4.41746 -0.370819 0
M  V30 6777 H 648.379 0.638037 -0.207726 0
M  V30 6778 H 650.923 1.6491 -1.20934 0
M  V30 6779 H 649.078 3.87261 -0.103607 0
M  V30 6780 H 649.492 4.80032 -2.11352 0
M  V30 6781 H 650.966 5.49256 -0.549693 0
M  V30 6782 H 651.443 4.33712 0.692148 0
M  V30 6783 H 652.049 4.14125 -0.968543 0
M  V30 6784 N 650.364 0.662433 1.43002 0
M  V30 6785 C 651.641 0.109096 1.95296 0
M  V30 6786 C 652.021 -1.37313 1.60338 0
M  V30 6787 O 651.369 -2.1032 0.893187 0
M  V30 6788 C 651.579 0.365096 3.47085 0
M  V30 6789 C 652.927 0.274964 4.23709 0
M  V30 6790 O 653.951 0.29816 3.5495 0
M  V30 6791 O 652.81 0.206549 5.4611 0
M  V30 6792 H 649.904 -0.00429724 0.826989 0
M  V30 6793 H 652.45 0.736308 1.52894 0
M  V30 6794 H 651.222 1.39237 3.65689 0
M  V30 6795 H 650.845 -0.294733 3.96506 0
M  V30 6796 N 651.842 -1.52309 0.404946 0
M  V30 6797 C 653.253 -1.86585 -0.0655926 0
M  V30 6798 C 653.604 -1.3239 -1.44801 0
M  V30 6799 O 652.729 -0.6615 -2.06042 0
M  V30 6800 C 653.324 -3.38566 -0.125801 0
M  V30 6801 C 651.883 -3.72497 -0.540666 0
M  V30 6802 C 651.03 -2.75806 0.287487 0
M  V30 6803 H 653.981 -1.45995 0.622185 0
M  V30 6804 H 654.002 -3.68658 -0.941888 0
M  V30 6805 H 653.514 -3.77981 0.880473 0
M  V30 6806 H 651.615 -3.38659 -1.55373 0
M  V30 6807 H 651.728 -4.78234 -0.287956 0
M  V30 6808 H 650.092 -2.53474 -0.249561 0
M  V30 6809 H 650.875 -3.18059 1.29203 0
M  V30 6810 N 653.32 -0.135238 -1.57019 0
M  V30 6811 C 654.545 0.529343 -2.00531 0
M  V30 6812 C 654.97 1.58391 -1.01459 0
M  V30 6813 O 654.328 1.81296 0.0113986 0
M  V30 6814 C 654.376 1.11748 -3.42848 0
M  V30 6815 O 653.48 2.23267 -3.46736 0
M  V30 6816 H 652.821 0.130669 -0.651016 0
M  V30 6817 H 655.351 -0.228503 -2.0332 0
M  V30 6818 H 655.361 1.44905 -3.81401 0
M  V30 6819 H 654.036 0.345147 -4.14465 0
M  V30 6820 H 652.613 1.91428 -3.20015 0
M  V30 6821 N 654.798 1.5699 0.138552 0
M  V30 6822 C 656.044 1.84081 0.85099 0
M  V30 6823 C 656.377 0.718107 1.80435 0
M  V30 6824 O 655.652 -0.277633 1.92508 0
M  V30 6825 C 655.935 3.21699 1.61808 0
M  V30 6826 C 655.788 4.44544 0.685633 0
M  V30 6827 C 657.107 3.5664 2.57868 0
M  V30 6828 H 654.226 0.669592 0.307922 0
M  V30 6829 H 656.868 1.89646 0.11588 0
M  V30 6830 H 655.018 3.17086 2.24474 0
M  V30 6831 H 656.69 4.61248 0.0693179 0
M  V30 6832 H 654.933 4.338 -0.00421993 0
M  V30 6833 H 655.604 5.3746 1.25858 0
M  V30 6834 H 658.08 3.61918 2.05316 0
M  V30 6835 H 656.956 4.53946 3.08584 0
M  V30 6836 H 657.217 2.83036 3.39622 0
M  V30 6837 N 656.276 -0.40816 1.52223 0
M  V30 6838 C 657.692 -0.74685 1.41047 0
M  V30 6839 C 657.892 -1.94788 0.51573 0
M  V30 6840 O 656.948 -2.52494 -0.0181156 0
M  V30 6841 C 658.261 -0.999878 2.83589 0
M  V30 6842 C 659.809 -1.10253 2.92939 0
M  V30 6843 C 660.284 -1.38832 4.36451 0
M  V30 6844 N 661.775 -1.45694 4.3969 0
M  V30 6845 C 662.51 -1.69435 5.47795 0
M  V30 6846 N 662.006 -1.90774 6.66016 0
M  V30 6847 N 663.799 -1.71458 5.35312 0
M  V30 6848 H 655.95 0.382409 2.08929 0
M  V30 6849 H 658.213 0.108807 0.941735 0
M  V30 6850 H 657.919 -0.189723 3.51188 0
M  V30 6851 H 657.793 -1.91978 3.24691 0
M  V30 6852 H 660.18 -1.90328 2.2552 0
M  V30 6853 H 660.261 -0.160973 2.55293 0
M  V30 6854 H 659.905 -0.592741 5.04429 0
M  V30 6855 H 659.835 -2.34241 4.71634 0
M  V30 6856 H 662.326 -1.3099 3.54472 0
M  V30 6857 H 662.639 -2.08342 7.44186 0
M  V30 6858 H 660.984 -1.88037 6.69079 0
M  V30 6859 H 664.175 -1.54326 4.41929 0
M  V30 6860 H 664.348 -1.89621 6.19635 0
M  V30 6861 N 657.755 -1.42862 -0.66545 0
M  V30 6862 C 659.001 -1.4504 -1.426 0
M  V30 6863 C 659.356 -0.0690217 -1.92276 0
M  V30 6864 O 658.649 0.91036 -1.68591 0
M  V30 6865 C 658.843 -2.4175 -2.63233 0
M  V30 6866 C 658.672 -3.89155 -2.25362 0
M  V30 6867 C 657.442 -4.57619 -2.14273 0
M  V30 6868 C 659.64 -4.79326 -1.86417 0
M  V30 6869 N 657.622 -5.90006 -1.69604 0
M  V30 6870 C 658.993 -6.00892 -1.52738 0
M  V30 6871 C 661.048 -4.66696 -1.73492 0
M  V30 6872 C 659.751 -7.11232 -1.0743 0
M  V30 6873 C 661.777 -5.77027 -1.29589 0
M  V30 6874 C 661.139 -6.97712 -0.968393 0
M  V30 6875 H 657.238 -0.585889 -0.517936 0
M  V30 6876 H 659.822 -1.78956 -0.767002 0
M  V30 6877 H 657.993 -2.09881 -3.26809 0
M  V30 6878 H 659.725 -2.34447 -3.29874 0
M  V30 6879 H 656.48 -4.11957 -2.33641 0
M  V30 6880 H 656.904 -6.60249 -1.49666 0
M  V30 6881 H 661.546 -3.7386 -1.97455 0
M  V30 6882 H 659.264 -8.03907 -0.822147 0
M  V30 6883 H 662.85 -5.6927 -1.20095 0
M  V30 6884 H 661.73 -7.81634 -0.63384 0
M  V30 6885 N 659.233 0.902656 -1.29189 0
M  V30 6886 C 660.143 2.03946 -1.15944 0
M  V30 6887 C 661.159 1.738 -0.0833803 0
M  V30 6888 O 662.335 1.9923 -0.29487 0
M  V30 6889 C 659.4 3.36519 -0.834006 0
M  V30 6890 C 658.461 3.80203 -1.9936 0
M  V30 6891 C 657.694 5.06449 -1.68359 0
M  V30 6892 O 657.917 5.67202 -0.603141 0
M  V30 6893 O 656.851 5.46114 -2.53067 0
M  V30 6894 H 660.677 2.18043 -2.11403 0
M  V30 6895 H 658.262 1.02584 -1.08613 0
M  V30 6896 H 660.144 4.16089 -0.666949 0
M  V30 6897 H 658.819 3.23573 0.0908245 0
M  V30 6898 H 657.726 3.01413 -2.21588 0
M  V30 6899 H 659.059 3.97729 -2.89952 0
M  V30 6900 N 660.711 1.11618 1.11262 0
M  V30 6901 C 661.941 0.88745 1.86569 0
M  V30 6902 C 662.349 -0.56636 1.80524 0
M  V30 6903 O 661.692 -1.40289 1.18594 0
M  V30 6904 C 661.754 1.27313 3.36202 0
M  V30 6905 C 661.418 2.73649 3.66013 0
M  V30 6906 C 662.415 3.71863 3.63337 0
M  V30 6907 C 660.1 3.10342 3.9496 0
M  V30 6908 C 662.094 5.04788 3.89188 0
M  V30 6909 C 659.781 4.43451 4.20469 0
M  V30 6910 C 660.779 5.40484 4.17572 0
M  V30 6911 O 660.467 6.71195 4.42439 0
M  V30 6912 H 660.199 0.317543 0.596777 0
M  V30 6913 H 662.753 1.48768 1.41624 0
M  V30 6914 H 660.983 0.616062 3.81761 0
M  V30 6915 H 662.672 1.01991 3.92877 0
M  V30 6916 H 663.438 3.44861 3.41022 0
M  V30 6917 H 659.317 2.35431 3.9635 0
M  V30 6918 H 662.861 5.80516 3.86842 0
M  V30 6919 H 658.758 4.70187 4.42261 0
M  V30 6920 H 659.526 6.77012 4.59997 0
M  V30 6921 N 662.189 -1.289 0.906776 0
M  V30 6922 C 663.429 -1.97046 0.543329 0
M  V30 6923 C 663.793 -1.69862 -0.895034 0
M  V30 6924 O 664.994 -2.31521 -1.36571 0
M  V30 6925 C 663.265 -3.47489 0.835833 0
M  V30 6926 S 664.824 -4.3498 0.577756 0
M  V30 6927 H 661.642 -0.681908 0.201302 0
M  V30 6928 H 664.244 -1.5657 1.17073 0
M  V30 6929 H 662.948 -3.64768 1.88075 0
M  V30 6930 H 662.479 -3.92907 0.196817 0
M  V30 6931 H 664.494 -4.92868 -0.574052 0
M  V30 6932 N 663.667 -0.670007 -1.42649 0
M  V30 6933 C 664.615 0.0230106 -2.32589 0
M  V30 6934 C 665.609 0.795585 -1.49555 0
M  V30 6935 O 666.815 0.70409 -1.65658 0
M  V30 6936 H 663.19 0.0262342 -0.751542 0
M  V30 6937 H 665.161 -0.753009 -2.88743 0
M  V30 6938 C 663.91 0.963872 -3.34073 0
M  V30 6939 H 663.233 0.378813 -3.98001 0
M  V30 6940 H 664.673 1.41755 -3.99602 0
M  V30 6941 C 663.132 2.06797 -2.65964 0
M  V30 6942 O 663.662 3.15383 -2.48789 0
M  V30 6943 N 661.868 1.83831 -2.25066 0
M  V30 6944 H 661.415 0.955235 -2.39234 0
M  V30 6945 H 661.373 2.57895 -1.79827 0
M  V30 6946 N 665.145 1.52092 -0.413018 0
M  V30 6947 C 666.075 2.30021 0.401567 0
M  V30 6948 C 667.056 1.34395 1.04269 0
M  V30 6949 O 668.241 1.63304 1.05097 0
M  V30 6950 C 665.371 3.12447 1.51638 0
M  V30 6951 C 664.325 4.16153 1.00005 0
M  V30 6952 C 663.651 4.86948 2.20875 0
M  V30 6953 C 664.951 5.22275 0.0513757 0
M  V30 6954 H 666.645 2.98365 -0.248704 0
M  V30 6955 H 664.191 1.4349 -0.121052 0
M  V30 6956 H 666.144 3.65733 2.09326 0
M  V30 6957 H 664.868 2.41879 2.19458 0
M  V30 6958 H 663.527 3.63882 0.445549 0
M  V30 6959 H 663.175 4.12905 2.8726 0
M  V30 6960 H 662.875 5.57057 1.86978 0
M  V30 6961 H 664.399 5.43048 2.79162 0
M  V30 6962 H 665.813 5.70778 0.537176 0
M  V30 6963 H 664.21 5.9977 -0.198977 0
M  V30 6964 H 665.28 4.76611 -0.892736 0
M  V30 6965 N 666.623 0.143563 1.56945 0
M  V30 6966 C 667.57 -0.797433 2.16586 0
M  V30 6967 C 668.54 -1.24654 1.09775 0
M  V30 6968 O 669.725 -1.31968 1.37801 0
M  V30 6969 C 666.865 -2.03253 2.78895 0
M  V30 6970 C 665.978 -1.62954 4.00087 0
M  V30 6971 C 665.113 -2.81617 4.50406 0
M  V30 6972 C 664.152 -2.37675 5.64072 0
M  V30 6973 N 663.289 -3.49335 6.09023 0
M  V30 6974 H 668.129 -0.282023 2.96662 0
M  V30 6975 H 665.666 -0.127494 1.46546 0
M  V30 6976 H 667.624 -2.75653 3.13163 0
M  V30 6977 H 666.254 -2.52211 2.01469 0
M  V30 6978 H 665.306 -0.803322 3.71821 0
M  V30 6979 H 666.618 -1.26679 4.82446 0
M  V30 6980 H 665.772 -3.62212 4.86711 0
M  V30 6981 H 664.511 -3.21134 3.67048 0
M  V30 6982 H 663.516 -1.55519 5.27346 0
M  V30 6983 H 664.741 -1.99247 6.49213 0
M  V30 6984 H 662.687 -3.8848 5.28601 0
M  V30 6985 H 662.604 -3.17064 6.86299 0
M  V30 6986 H 663.872 -4.30297 6.49973 0
M  V30 6987 N 668.101 -1.57061 -0.130224 0
M  V30 6988 C 669.048 -1.99517 -1.16024 0
M  V30 6989 C 670.018 -0.865452 -1.41771 0
M  V30 6990 O 671.203 -1.12882 -1.53826 0
M  V30 6991 C 668.343 -2.3951 -2.48453 0
M  V30 6992 C 667.456 -3.65848 -2.29737 0
M  V30 6993 C 666.591 -3.9487 -3.55318 0
M  V30 6994 C 665.63 -5.14426 -3.31711 0
M  V30 6995 N 664.767 -5.39375 -4.49466 0
M  V30 6996 H 669.607 -2.87305 -0.791194 0
M  V30 6997 H 667.144 -1.42129 -0.379195 0
M  V30 6998 H 669.102 -2.60731 -3.25692 0
M  V30 6999 H 667.732 -1.54779 -2.83272 0
M  V30 7000 H 666.784 -3.52307 -1.4347 0
M  V30 7001 H 668.096 -4.53241 -2.08263 0
M  V30 7002 H 667.25 -4.16679 -4.4098 0
M  V30 7003 H 665.989 -3.05931 -3.79813 0
M  V30 7004 H 664.994 -4.92473 -2.44439 0
M  V30 7005 H 666.219 -6.04933 -3.08598 0
M  V30 7006 H 664.165 -4.53391 -4.74102 0
M  V30 7007 H 664.082 -6.21069 -4.31055 0
M  V30 7008 H 665.35 -5.65694 -5.36293 0
M  V30 7009 N 669.579 0.400081 -1.52437 0
M  V30 7010 C 670.819 1.15526 -1.68622 0
M  V30 7011 C 671.183 1.87533 -0.411744 0
M  V30 7012 O 672.384 2.6501 -0.449804 0
M  V30 7013 C 670.655 2.11618 -2.88015 0
M  V30 7014 S 672.214 2.95121 -3.24729 0
M  V30 7015 H 669.032 0.39123 -0.593683 0
M  V30 7016 H 671.634 0.441255 -1.90455 0
M  V30 7017 H 670.338 1.5742 -3.79008 0
M  V30 7018 H 669.869 2.87544 -2.68481 0
M  V30 7019 H 671.884 4.13653 -2.74055 0
M  V30 7020 N 671.057 1.43213 0.657864 0
M  V30 7021 C 672.282 1.48227 1.45064 0
M  V30 7022 C 672.707 0.0999939 1.87834 0
M  V30 7023 O 672.065 -0.905269 1.57081 0
M  V30 7024 C 672.113 2.42931 2.6649 0
M  V30 7025 O 671.217 1.91237 3.6538 0
M  V30 7026 H 670.558 0.501551 0.435135 0
M  V30 7027 H 673.088 1.8808 0.805431 0
M  V30 7028 H 673.098 2.6008 3.1436 0
M  V30 7029 H 671.773 3.43348 2.34701 0
M  V30 7030 H 670.35 1.83726 3.24498 0
M  V30 7031 N 672.536 -0.895792 1.29666 0
M  V30 7032 C 673.784 -1.64339 1.17631 0
M  V30 7033 C 674.105 -1.93099 -0.271643 0
M  V30 7034 O 673.375 -1.55981 -1.18518 0
M  V30 7035 H 671.955 -0.609162 0.432354 0
M  V30 7036 H 674.617 -1.07389 1.62646 0
M  V30 7037 H 673.713 -2.59815 1.72924 0
M  V30 7038 N 674.014 -1.12206 -1.10668 0
M  V30 7039 C 675.242 -0.898635 -1.86366 0
M  V30 7040 C 675.657 0.551991 -1.80551 0
M  V30 7041 O 675.014 1.38152 -1.19249 0
M  V30 7042 C 675.065 -1.36199 -3.34861 0
M  V30 7043 O 674.786 -2.75576 -3.40573 0
M  V30 7044 C 676.287 -1.17515 -4.2744 0
M  V30 7045 H 673.507 -0.321281 -0.589084 0
M  V30 7046 H 676.051 -1.49142 -1.39918 0
M  V30 7047 H 674.206 -0.81249 -3.78784 0
M  V30 7048 H 674.62 -2.95851 -4.33096 0
M  V30 7049 H 676.094 -1.54827 -5.29842 0
M  V30 7050 H 676.571 -0.115486 -4.39048 0
M  V30 7051 H 677.177 -1.71203 -3.89319 0
M  V30 7052 N 675.492 1.28418 -0.913599 0
M  V30 7053 C 676.402 2.31043 -0.406965 0
M  V30 7054 C 677.418 1.66501 0.505298 0
M  V30 7055 O 678.594 1.97558 0.391522 0
M  V30 7056 C 675.659 3.4498 0.344901 0
M  V30 7057 C 674.72 4.25078 -0.600563 0
M  V30 7058 C 673.953 5.33575 0.115516 0
M  V30 7059 O 674.176 5.54503 1.33727 0
M  V30 7060 O 673.11 5.9939 -0.549095 0
M  V30 7061 H 676.936 2.76387 -1.25873 0
M  V30 7062 H 674.521 1.33109 -0.678415 0
M  V30 7063 H 676.403 4.14314 0.769542 0
M  V30 7064 H 675.078 3.01719 1.1725 0
M  V30 7065 H 673.985 3.58334 -1.0746 0
M  V30 7066 H 675.318 4.72018 -1.39497 0
M  V30 7067 N 676.97 0.677563 1.42291 0
M  V30 7068 C 677.933 0.0101085 2.29198 0
M  V30 7069 C 678.933 -0.726219 1.43467 0
M  V30 7070 O 680.123 -0.563807 1.64824 0
M  V30 7071 C 677.255 -0.996316 3.26016 0
M  V30 7072 H 678.448 0.775071 2.89711 0
M  V30 7073 H 676.001 0.440065 1.49977 0
M  V30 7074 H 676.736 -1.78967 2.70446 0
M  V30 7075 H 676.521 -0.471687 3.89253 0
M  V30 7076 H 678.011 -1.46167 3.91184 0
M  V30 7077 N 678.448 -1.51871 0.421078 0
M  V30 7078 C 679.673 -2.0684 -0.152371 0
M  V30 7079 C 680.098 -1.28802 -1.37083 0
M  V30 7080 O 679.456 -0.321482 -1.78427 0
M  V30 7081 C 679.504 -3.57532 -0.469368 0
M  V30 7082 O 678.608 -3.81818 -1.55848 0
M  V30 7083 H 677.949 -0.663939 -0.00898586 0
M  V30 7084 H 680.479 -1.95674 0.597724 0
M  V30 7085 H 680.489 -4.01515 -0.724553 0
M  V30 7086 H 679.164 -4.13761 0.421276 0
M  V30 7087 H 677.741 -3.49709 -1.29453 0
M  V30 7088 N 679.926 -0.151884 -1.56866 0
M  V30 7089 C 681.172 0.498742 -1.96572 0
M  V30 7090 C 681.505 1.64194 -1.03702 0
M  V30 7091 O 680.78 1.94334 -0.0803432 0
M  V30 7092 C 681.063 1.00027 -3.45929 0
M  V30 7093 C 680.916 -0.141767 -4.49577 0
M  V30 7094 C 682.235 1.88044 -3.97904 0
M  V30 7095 H 679.354 0.17982 -0.714726 0
M  V30 7096 H 681.996 -0.234097 -1.88552 0
M  V30 7097 H 680.146 1.62476 -3.52894 0
M  V30 7098 H 681.818 -0.778269 -4.54687 0
M  V30 7099 H 680.061 -0.80019 -4.26356 0
M  V30 7100 H 680.732 0.250947 -5.51429 0
M  V30 7101 H 683.208 1.35416 -3.93449 0
M  V30 7102 H 682.084 2.20043 -5.02864 0
M  V30 7103 H 682.345 2.81916 -3.40552 0
M  V30 7104 N 681.404 1.57128 0.121893 0
M  V30 7105 C 682.65 1.84974 0.831418 0
M  V30 7106 C 682.983 0.737204 1.79663 0
M  V30 7107 O 682.258 -0.257199 1.92792 0
M  V30 7108 C 682.541 3.23397 1.58386 0
M  V30 7109 C 682.394 4.45246 0.638445 0
M  V30 7110 C 683.713 3.59355 2.54071 0
M  V30 7111 H 680.832 0.67282 0.300803 0
M  V30 7112 H 683.474 1.89759 0.0957587 0
M  V30 7113 H 681.624 3.19449 2.21098 0
M  V30 7114 H 683.296 4.61295 0.0203925 0
M  V30 7115 H 681.539 4.33771 -0.05023 0
M  V30 7116 H 682.21 5.38765 1.20151 0
M  V30 7117 H 684.686 3.64075 2.01465 0
M  V30 7118 H 683.562 4.57193 3.03752 0
M  V30 7119 H 683.823 2.86622 3.36601 0
M  V30 7120 N 682.882 -0.391992 1.52647 0
M  V30 7121 C 683.845 -1.46135 1.7657 0
M  V30 7122 C 684.845 -1.47701 0.635698 0
M  V30 7123 O 686.035 -1.48924 0.903728 0
M  V30 7124 C 683.167 -2.85443 1.86374 0
M  V30 7125 H 684.36 -1.26208 2.72051 0
M  V30 7126 H 681.913 -0.623549 1.43323 0
M  V30 7127 H 682.648 -3.10718 0.928685 0
M  V30 7128 H 682.433 -2.85708 2.68539 0
M  V30 7129 H 683.923 -3.62933 2.06566 0
M  V30 7130 N 684.36 -1.4356 -0.65026 0
M  V30 7131 C 685.771 -1.40324 -1.2315 0
M  V30 7132 C 686.122 -0.108812 -1.95898 0
M  V30 7133 O 685.247 0.79163 -2.01401 0
M  V30 7134 C 685.842 -2.54195 -2.23987 0
M  V30 7135 C 684.401 -2.54215 -2.77582 0
M  V30 7136 C 683.548 -2.31752 -1.5227 0
M  V30 7137 H 686.499 -1.52418 -0.442095 0
M  V30 7138 H 686.52 -2.25854 -3.0622 0
M  V30 7139 H 686.032 -3.48392 -1.71011 0
M  V30 7140 H 684.133 -1.63907 -3.34612 0
M  V30 7141 H 684.246 -3.52081 -3.24925 0
M  V30 7142 H 682.61 -1.80476 -1.79723 0
M  V30 7143 H 683.393 -3.28037 -1.01225 0
M  V30 7144 N 685.838 0.888903 -1.30139 0
M  V30 7145 C 687.249 1.45578 -1.16893 0
M  V30 7146 C 687.6 1.94825 0.231866 0
M  V30 7147 O 686.725 1.84661 1.12824 0
M  V30 7148 C 687.32 2.646 -2.11595 0
M  V30 7149 C 685.879 3.17389 -2.02339 0
M  V30 7150 C 685.026 1.90081 -2.01902 0
M  V30 7151 H 687.977 0.69921 -1.42467 0
M  V30 7152 H 687.998 3.40687 -1.69449 0
M  V30 7153 H 687.51 2.28726 -3.13538 0
M  V30 7154 H 685.611 3.5793 -1.03523 0
M  V30 7155 H 685.724 3.80955 -2.90534 0
M  V30 7156 H 684.088 2.08246 -1.46648 0
M  V30 7157 H 684.871 1.5647 -3.05568 0
M  V30 7158 N 687.317 1.12792 1.10072 0
M  V30 7159 C 688.728 0.899346 1.63611 0
M  V30 7160 C 689.079 -0.565547 1.87872 0
M  V30 7161 O 688.204 -1.43081 1.62348 0
M  V30 7162 C 688.799 1.62608 2.97227 0
M  V30 7163 C 687.358 1.44356 3.47618 0
M  V30 7164 C 686.505 1.65958 2.22156 0
M  V30 7165 H 689.456 1.28216 0.935223 0
M  V30 7166 H 689.477 1.0793 3.64872 0
M  V30 7167 H 688.989 2.69221 2.79538 0
M  V30 7168 H 687.09 0.400148 3.70445 0
M  V30 7169 H 687.203 2.20218 4.25489 0
M  V30 7170 H 685.567 1.08395 2.30484 0
M  V30 7171 H 686.35 2.73877 2.06993 0
M  V30 7172 N 688.795 -1.27931 0.920396 0
M  V30 7173 C 690.041 -1.94977 0.557832 0
M  V30 7174 C 690.374 -1.72224 -0.897365 0
M  V30 7175 O 689.649 -1.04705 -1.63912 0
M  V30 7176 C 689.932 -3.49289 0.875741 0
M  V30 7177 C 689.785 -3.81416 2.38416 0
M  V30 7178 C 691.104 -4.38486 0.376517 0
M  V30 7179 H 688.223 -0.708164 0.20414 0
M  V30 7180 H 690.865 -1.5118 1.15085 0
M  V30 7181 H 689.015 -3.86724 0.371062 0
M  V30 7182 H 690.687 -3.53813 2.95997 0
M  V30 7183 H 688.93 -3.28225 2.83639 0
M  V30 7184 H 689.601 -4.89198 2.55713 0
M  V30 7185 H 692.077 -4.08161 0.808945 0
M  V30 7186 H 690.953 -5.45296 0.627976 0
M  V30 7187 H 691.214 -4.36143 -0.723293 0
M  V30 7188 N 690.273 -0.685099 -1.4193 0
M  V30 7189 C 691.519 -0.211971 -2.01689 0
M  V30 7190 C 691.852 1.18189 -1.54094 0
M  V30 7191 O 691.127 1.79559 -0.747572 0
M  V30 7192 C 691.41 -0.258019 -3.59174 0
M  V30 7193 C 691.263 -1.68807 -4.16922 0
M  V30 7194 C 692.582 0.388044 -4.38386 0
M  V30 7195 H 689.701 -0.0784987 -0.732808 0
M  V30 7196 H 692.343 -0.871837 -1.68816 0
M  V30 7197 H 690.493 0.303832 -3.8731 0
M  V30 7198 H 692.165 -2.30296 -3.99702 0
M  V30 7199 H 690.408 -2.22553 -3.72361 0
M  V30 7200 H 691.079 -1.6719 -5.26072 0
M  V30 7201 H 693.555 -0.0903432 -4.16002 0
M  V30 7202 H 692.431 0.325232 -5.47936 0
M  V30 7203 H 692.692 1.4672 -4.17044 0
M  V30 7204 N 691.751 1.51645 -0.429126 0
M  V30 7205 C 692.681 2.30434 0.377148 0
M  V30 7206 C 693.662 1.35493 1.02838 0
M  V30 7207 O 694.847 1.6441 1.03359 0
M  V30 7208 C 691.977 3.14038 1.48315 0
M  V30 7209 C 690.931 4.1719 0.955855 0
M  V30 7210 C 690.257 4.89263 2.15698 0
M  V30 7211 C 691.557 5.223 -0.00402136 0
M  V30 7212 H 693.251 2.98085 -0.280336 0
M  V30 7213 H 690.797 1.43354 -0.136265 0
M  V30 7214 H 692.75 3.67933 2.05435 0
M  V30 7215 H 691.474 2.44193 2.16881 0
M  V30 7216 H 690.133 3.64335 0.406929 0
M  V30 7217 H 689.781 4.15929 2.82864 0
M  V30 7218 H 689.481 5.59009 1.81059 0
M  V30 7219 H 691.005 5.45978 2.73387 0
M  V30 7220 H 692.419 5.71315 0.476607 0
M  V30 7221 H 690.816 5.99525 -0.26258 0
M  V30 7222 H 691.886 4.75638 -0.943236 0
M  V30 7223 N 693.229 0.160201 1.56784 0
M  V30 7224 C 694.159 -0.770264 2.2043 0
M  V30 7225 C 695.14 -1.24736 1.15651 0
M  V30 7226 O 696.325 -1.30253 1.44041 0
M  V30 7227 C 693.455 -2.00427 2.83631 0
M  V30 7228 C 692.409 -1.66345 3.94352 0
M  V30 7229 C 691.735 -2.97119 4.4455 0
M  V30 7230 C 693.035 -0.899972 5.14488 0
M  V30 7231 H 694.729 -0.239783 2.98438 0
M  V30 7232 H 692.275 -0.113891 1.43549 0
M  V30 7233 H 694.228 -2.66012 3.26827 0
M  V30 7234 H 692.952 -2.5587 2.02973 0
M  V30 7235 H 691.611 -1.03133 3.51794 0
M  V30 7236 H 691.259 -3.5058 3.60698 0
M  V30 7237 H 690.959 -2.75073 5.19238 0
M  V30 7238 H 692.483 -3.63753 4.90425 0
M  V30 7239 H 693.897 -1.45818 5.54446 0
M  V30 7240 H 692.294 -0.778968 5.95023 0
M  V30 7241 H 693.364 0.105827 4.84785 0
M  V30 7242 N 694.707 -1.5719 -0.113559 0
M  V30 7243 C 696.118 -1.74259 -0.670116 0
M  V30 7244 C 696.469 -0.779694 -1.80042 0
M  V30 7245 O 695.594 0.0461353 -2.16351 0
M  V30 7246 C 696.189 -3.15981 -1.22236 0
M  V30 7247 C 694.748 -3.34537 -1.72516 0
M  V30 7248 C 693.895 -2.70116 -0.627098 0
M  V30 7249 H 696.846 -1.58301 0.112396 0
M  V30 7250 H 696.867 -3.17832 -2.09197 0
M  V30 7251 H 696.379 -3.86038 -0.39949 0
M  V30 7252 H 694.48 -2.6953 -2.57263 0
M  V30 7253 H 694.593 -4.42737 -1.83086 0
M  V30 7254 H 692.957 -2.31501 -1.06204 0
M  V30 7255 H 693.74 -3.42802 0.184889 0
M  V30 7256 N 696.185 0.383891 -1.52853 0
M  V30 7257 C 697.462 1.14296 -1.58732 0
M  V30 7258 C 697.842 2.07585 -0.383611 0
M  V30 7259 O 697.19 2.1971 0.627661 0
M  V30 7260 C 697.4 1.89816 -2.92867 0
M  V30 7261 C 698.748 2.44998 -3.46787 0
M  V30 7262 O 699.772 1.99966 -2.94774 0
M  V30 7263 O 698.631 3.2727 -4.37672 0
M  V30 7264 H 695.725 0.52326 -0.640413 0
M  V30 7265 H 698.271 0.388631 -1.6519 0
M  V30 7266 H 697.043 1.21626 -3.71918 0
M  V30 7267 H 696.666 2.72199 -2.89816 0
M  V30 7268 N 697.663 1.43903 0.642637 0
M  V30 7269 C 698.909 1.46296 1.40447 0
M  V30 7270 C 699.242 0.0908361 1.93987 0
M  V30 7271 O 698.517 -0.889884 1.72949 0
M  V30 7272 C 698.8 2.51399 2.57819 0
M  V30 7273 C 698.653 3.97926 2.09702 0
M  V30 7274 C 699.972 2.53125 3.60022 0
M  V30 7275 H 697.091 0.532676 0.509338 0
M  V30 7276 H 699.733 1.75515 0.727635 0
M  V30 7277 H 697.883 2.26614 3.1556 0
M  V30 7278 H 699.555 4.33804 1.5688 0
M  V30 7279 H 697.798 4.10252 1.40982 0
M  V30 7280 H 698.469 4.67096 2.94152 0
M  V30 7281 H 700.945 2.75242 3.12059 0
M  V30 7282 H 699.821 3.28589 4.39682 0
M  V30 7283 H 700.082 1.56895 4.13324 0
M  V30 7284 N 699.141 -0.881989 1.30609 0
M  V30 7285 C 700.051 -2.02076 1.19174 0
M  V30 7286 C 701.067 -1.73645 0.11102 0
M  V30 7287 O 702.243 -1.98735 0.326528 0
M  V30 7288 C 699.308 -3.3515 0.887438 0
M  V30 7289 C 698.369 -3.76983 2.05383 0
M  V30 7290 C 697.602 -5.03707 1.76395 0
M  V30 7291 O 697.825 -5.66171 0.693302 0
M  V30 7292 O 696.759 -5.42019 2.61723 0
M  V30 7293 H 700.585 -2.14652 2.14845 0
M  V30 7294 H 698.17 -1.00843 1.10232 0
M  V30 7295 H 700.052 -4.14975 0.73306 0
M  V30 7296 H 698.727 -3.23676 -0.0393354 0
M  V30 7297 H 697.634 -2.97849 2.26355 0
M  V30 7298 H 698.967 -3.93066 2.96243 0
M  V30 7299 N 700.619 -1.13374 -1.09472 0
M  V30 7300 C 701.847 -0.918351 -1.85402 0
M  V30 7301 C 702.262 0.53281 -1.81126 0
M  V30 7302 O 701.619 1.36879 -1.20708 0
M  V30 7303 C 701.67 -1.39743 -3.33398 0
M  V30 7304 O 701.391 -2.79172 -3.37631 0
M  V30 7305 C 702.892 -1.22042 -4.2617 0
M  V30 7306 H 700.112 -0.327511 -0.585643 0
M  V30 7307 H 702.656 -1.50617 -1.38328 0
M  V30 7308 H 700.811 -0.852619 -3.77901 0
M  V30 7309 H 701.225 -3.00428 -4.29934 0
M  V30 7310 H 702.699 -1.60438 -5.2817 0
M  V30 7311 H 703.176 -0.162047 -4.38901 0
M  V30 7312 H 703.782 -1.75323 -3.87482 0
M  V30 7313 N 702.098 1.27442 -0.927168 0
M  V30 7314 C 703.509 1.76385 -0.611979 0
M  V30 7315 C 703.86 1.75715 0.872853 0
M  V30 7316 O 702.985 1.3603 1.683 0
M  V30 7317 C 703.58 3.20303 -1.10414 0
M  V30 7318 C 702.139 3.66916 -0.839628 0
M  V30 7319 C 701.286 2.46859 -1.26317 0
M  V30 7320 H 704.237 1.13716 -1.107 0
M  V30 7321 H 704.258 3.77811 -0.451578 0
M  V30 7322 H 703.77 3.20759 -2.18484 0
M  V30 7323 H 701.871 3.71906 0.227292 0
M  V30 7324 H 701.984 4.56415 -1.45679 0
M  V30 7325 H 700.348 2.45407 -0.681723 0
M  V30 7326 H 701.131 2.50025 -2.3525 0
M  V30 7327 N 703.576 0.692616 1.41565 0
M  V30 7328 C 704.801 0.229776 2.06123 0
M  V30 7329 C 705.226 -1.11119 1.5177 0
M  V30 7330 O 704.584 -1.69498 0.643444 0
M  V30 7331 C 704.632 0.19469 3.60074 0
M  V30 7332 O 703.736 -0.831366 4.03933 0
M  V30 7333 H 703.077 0.113002 0.654314 0
M  V30 7334 H 705.607 0.946645 1.81383 0
M  V30 7335 H 705.617 0.0245487 4.07993 0
M  V30 7336 H 704.292 1.17339 3.99004 0
M  V30 7337 H 702.869 -0.630819 3.67526 0
M  V30 7338 N 705.054 -1.51416 0.437162 0
M  V30 7339 C 705.964 -2.31493 -0.380537 0
M  V30 7340 C 706.98 -1.40399 -1.02782 0
M  V30 7341 O 708.156 -1.73471 -1.02323 0
M  V30 7342 C 705.221 -3.1413 -1.46709 0
M  V30 7343 C 704.282 -4.21003 -0.839953 0
M  V30 7344 C 703.515 -4.9969 -1.87473 0
M  V30 7345 O 703.738 -4.79008 -3.09689 0
M  V30 7346 O 702.672 -5.8379 -1.46536 0
M  V30 7347 H 706.498 -3.02469 0.273183 0
M  V30 7348 H 704.083 -1.48059 0.199706 0
M  V30 7349 H 705.965 -3.65505 -2.09724 0
M  V30 7350 H 704.64 -2.45919 -2.10489 0
M  V30 7351 H 703.547 -3.73706 -0.171752 0
M  V30 7352 H 704.88 -4.91587 -0.245638 0
M  V30 7353 N 706.532 -0.168513 -1.56696 0
M  V30 7354 C 707.442 0.775435 -2.21414 0
M  V30 7355 C 708.458 1.25529 -1.20492 0
M  V30 7356 O 709.634 1.30801 -1.53144 0
M  V30 7357 C 706.699 1.9886 -2.83999 0
M  V30 7358 C 705.76 1.5559 -4.00113 0
M  V30 7359 C 704.993 2.71124 -4.59704 0
M  V30 7360 O 705.216 3.87917 -4.18182 0
M  V30 7361 O 704.15 2.4536 -5.4962 0
M  V30 7362 H 707.976 0.254416 -3.02632 0
M  V30 7363 H 705.561 0.0595507 -1.49281 0
M  V30 7364 H 707.443 2.69816 -3.23693 0
M  V30 7365 H 706.118 2.49874 -2.05779 0
M  V30 7366 H 705.025 0.815924 -3.65094 0
M  V30 7367 H 706.358 1.09271 -4.79917 0
M  V30 7368 N 708.01 1.57248 0.105221 0
M  V30 7369 C 709.287 1.76566 0.841647 0
M  V30 7370 C 709.667 0.747566 1.9742 0
M  V30 7371 O 709.015 -0.225886 2.27381 0
M  V30 7372 C 709.225 3.22016 1.3456 0
M  V30 7373 C 710.573 3.84911 1.79244 0
M  V30 7374 O 711.597 3.25703 1.44207 0
M  V30 7375 O 710.456 4.89008 2.43995 0
M  V30 7376 H 707.55 0.723443 0.400698 0
M  V30 7377 H 710.096 1.69472 0.0878893 0
M  V30 7378 H 708.868 3.87644 0.533685 0
M  V30 7379 H 708.491 3.33703 2.16167 0
M  V30 7380 N 709.488 -0.375779 1.53054 0
M  V30 7381 C 710.728 -1.12828 1.70438 0
M  V30 7382 C 711.092 -1.86854 0.441527 0
M  V30 7383 O 712.293 -2.64261 0.491908 0
M  V30 7384 C 710.564 -2.07009 2.91345 0
M  V30 7385 S 712.123 -2.89917 3.29383 0
M  V30 7386 H 708.941 -0.381736 0.599832 0
M  V30 7387 H 711.543 -0.4109 1.91133 0
M  V30 7388 H 710.247 -1.51371 3.81464 0
M  V30 7389 H 709.778 -2.83236 2.73022 0
M  V30 7390 H 711.793 -4.0924 2.80601 0
M  V30 7391 N 710.966 -1.44241 -0.634997 0
M  V30 7392 C 711.899 -1.45274 -1.75985 0
M  V30 7393 C 712.877 -0.312025 -1.59578 0
M  V30 7394 O 714.061 -0.508409 -1.81514 0
M  V30 7395 C 711.188 -1.28173 -3.13511 0
M  V30 7396 C 710.234 -2.45757 -3.48576 0
M  V30 7397 S 711.067 -4.08293 -3.46492 0
M  V30 7398 C 712.223 -3.93608 -4.86645 0
M  V30 7399 H 712.456 -2.40454 -1.74841 0
M  V30 7400 H 709.989 -1.31492 -0.809268 0
M  V30 7401 H 711.947 -1.18993 -3.92875 0
M  V30 7402 H 710.608 -0.34511 -3.12198 0
M  V30 7403 H 709.801 -2.29644 -4.48642 0
M  V30 7404 H 709.403 -2.51657 -2.76667 0
M  V30 7405 H 711.695 -3.57059 -5.75774 0
M  V30 7406 H 712.638 -4.9349 -5.07813 0
M  V30 7407 H 713.046 -3.25737 -4.61038 0
M  V30 7408 N 712.444 0.87505 -1.31075 0
M  V30 7409 C 713.691 1.62768 -1.20469 0
M  V30 7410 C 714.019 1.93034 0.23834 0
M  V30 7411 O 713.274 1.55693 1.18567 0
M  V30 7412 C 713.573 2.96948 -1.98888 0
M  V30 7413 C 713.239 2.86195 -3.4843 0
M  V30 7414 C 711.901 2.82969 -3.89207 0
M  V30 7415 C 714.253 2.73599 -4.43614 0
M  V30 7416 C 711.581 2.64999 -5.23443 0
M  V30 7417 C 713.933 2.57166 -5.77969 0
M  V30 7418 C 712.597 2.52321 -6.17973 0
M  V30 7419 H 711.867 0.595611 -0.440827 0
M  V30 7420 H 714.514 1.01665 -1.62285 0
M  V30 7421 H 712.819 3.62058 -1.49737 0
M  V30 7422 H 714.516 3.54164 -1.88067 0
M  V30 7423 H 711.106 2.8952 -3.16032 0
M  V30 7424 H 715.29 2.7515 -4.13045 0
M  V30 7425 H 710.546 2.5967 -5.53517 0
M  V30 7426 H 714.72 2.46396 -6.51354 0
M  V30 7427 H 712.347 2.38156 -7.21932 0
M  V30 7428 N 713.922 1.13953 1.08869 0
M  V30 7429 C 715.17 0.903023 1.80803 0
M  V30 7430 C 715.491 -0.572151 1.86417 0
M  V30 7431 O 714.761 -1.41589 1.35386 0
M  V30 7432 H 713.341 0.331099 0.669614 0
M  V30 7433 H 716.003 1.43719 1.31647 0
M  V30 7434 H 715.099 1.29881 2.83791 0
M  V30 7435 N 715.4 -1.26948 0.933913 0
M  V30 7436 C 716.348 -2.2862 0.428463 0
M  V30 7437 C 717.342 -1.62144 -0.490464 0
M  V30 7438 O 718.548 -1.76167 -0.36948 0
M  V30 7439 H 714.923 -0.742363 0.120003 0
M  V30 7440 H 716.894 -2.68659 1.29865 0
M  V30 7441 C 715.643 -3.46423 -0.29774 0
M  V30 7442 H 714.966 -3.97792 0.400183 0
M  V30 7443 H 716.406 -4.19505 -0.615736 0
M  V30 7444 C 714.865 -3.01017 -1.51295 0
M  V30 7445 O 715.395 -3.05226 -2.61151 0
M  V30 7446 N 713.601 -2.56442 -1.36696 0
M  V30 7447 H 713.148 -2.53217 -0.473178 0
M  V30 7448 H 713.106 -2.26424 -2.18127 0
M  V30 7449 N 716.879 -0.700114 -1.41195 0
M  V30 7450 C 718.127 -0.232546 -2.00758 0
M  V30 7451 C 718.448 1.1734 -1.55745 0
M  V30 7452 O 717.718 1.79262 -0.790058 0
M  V30 7453 H 716.298 -0.0829845 -0.742376 0
M  V30 7454 H 718.96 -0.902289 -1.72756 0
M  V30 7455 H 718.056 -0.253521 -3.11069 0
M  V30 7456 N 718.357 1.51182 -0.445186 0
M  V30 7457 C 719.304 2.27939 0.362291 0
M  V30 7458 C 720.274 1.31864 1.01 0
M  V30 7459 O 721.459 1.60776 1.02741 0
M  V30 7460 C 718.599 3.13016 1.45311 0
M  V30 7461 C 717.712 4.24093 0.822757 0
M  V30 7462 C 716.847 4.96467 1.88928 0
M  V30 7463 C 715.886 5.99454 1.23778 0
M  V30 7464 N 715.023 6.65206 2.24602 0
M  V30 7465 H 719.863 2.965 -0.29862 0
M  V30 7466 H 717.4 1.46237 -0.15911 0
M  V30 7467 H 719.358 3.60673 2.09692 0
M  V30 7468 H 717.988 2.46553 2.08354 0
M  V30 7469 H 717.04 3.80341 0.0670364 0
M  V30 7470 H 718.352 4.97853 0.307184 0
M  V30 7471 H 717.506 5.47712 2.60953 0
M  V30 7472 H 716.245 4.22355 2.4386 0
M  V30 7473 H 715.25 5.47494 0.503042 0
M  V30 7474 H 716.475 6.75527 0.695694 0
M  V30 7475 H 714.421 5.93901 2.78599 0
M  V30 7476 H 714.338 7.34756 1.77958 0
M  V30 7477 H 715.606 7.21078 2.96085 0
M  V30 7478 N 719.835 0.176821 1.56605 0
M  V30 7479 C 721.083 -0.465793 1.96659 0
M  V30 7480 C 721.404 -1.63406 1.06412 0
M  V30 7481 O 720.674 -1.95457 0.131603 0
M  V30 7482 H 719.254 -0.175072 0.726195 0
M  V30 7483 H 721.916 0.25929 1.93168 0
M  V30 7484 H 721.012 -0.822138 3.01077 0
M  V30 7485 N 721.313 -1.57302 -0.09688 0
M  V30 7486 C 722.543 -1.89926 -0.813114 0
M  V30 7487 C 722.951 -0.76852 -1.72888 0
M  V30 7488 O 722.294 0.268549 -1.81726 0
M  V30 7489 C 722.356 -3.17787 -1.68082 0
M  V30 7490 C 722.02 -4.4729 -0.937061 0
M  V30 7491 C 723.017 -5.1921 -0.267687 0
M  V30 7492 C 720.702 -4.93957 -0.911671 0
M  V30 7493 C 722.696 -6.36034 0.417129 0
M  V30 7494 C 720.383 -6.10693 -0.223068 0
M  V30 7495 C 721.381 -6.8158 0.440155 0
M  V30 7496 O 721.069 -7.96092 1.11772 0
M  V30 7497 H 720.801 -0.632783 -0.237828 0
M  V30 7498 H 723.355 -2.05248 -0.0790818 0
M  V30 7499 H 721.585 -2.98607 -2.45705 0
M  V30 7500 H 723.274 -3.36257 -2.27346 0
M  V30 7501 H 724.04 -4.84198 -0.278774 0
M  V30 7502 H 719.919 -4.38671 -1.41734 0
M  V30 7503 H 723.463 -6.91301 0.93537 0
M  V30 7504 H 719.36 -6.45159 -0.209821 0
M  V30 7505 H 720.128 -8.12064 1.02443 0
M  V30 7506 N 722.791 0.367657 -1.53252 0
M  V30 7507 C 724.207 0.709191 -1.42978 0
M  V30 7508 C 724.407 1.93352 -0.567193 0
M  V30 7509 O 723.463 2.52453 -0.0488349 0
M  V30 7510 C 724.776 0.924338 -2.86141 0
M  V30 7511 C 726.324 1.02448 -2.95759 0
M  V30 7512 C 726.799 1.27211 -4.39979 0
M  V30 7513 N 728.29 1.33986 -4.43398 0
M  V30 7514 C 729.025 1.54852 -5.52095 0
M  V30 7515 N 728.521 1.73049 -6.7084 0
M  V30 7516 N 730.314 1.57205 -5.39669 0
M  V30 7517 H 722.465 -0.437669 -2.07842 0
M  V30 7518 H 724.728 -0.133737 -0.938519 0
M  V30 7519 H 724.434 0.0965455 -3.51567 0
M  V30 7520 H 724.308 1.83302 -3.29667 0
M  V30 7521 H 726.695 1.84282 -2.30487 0
M  V30 7522 H 726.776 0.0932301 -2.5563 0
M  V30 7523 H 726.42 0.458792 -5.05824 0
M  V30 7524 H 726.35 2.21654 -4.77679 0
M  V30 7525 H 728.841 1.21545 -3.5782 0
M  V30 7526 H 729.154 1.88538 -7.49449 0
M  V30 7527 H 727.499 1.70231 -6.7383 0
M  V30 7528 H 730.69 1.42555 -4.45865 0
M  V30 7529 H 730.863 1.73126 -6.24445 0
M  V30 7530 N 724.269 1.44576 0.627338 0
M  V30 7531 C 725.517 1.47267 1.38408 0
M  V30 7532 C 725.838 0.107971 1.94701 0
M  V30 7533 O 725.108 -0.860206 1.76004 0
M  V30 7534 H 723.688 0.542276 0.513756 0
M  V30 7535 H 726.35 1.80383 0.738099 0
M  V30 7536 H 725.446 2.20025 2.21349 0
M  V30 7537 N 725.747 -0.868086 1.31537 0
M  V30 7538 C 726.694 -1.97548 1.19346 0
M  V30 7539 C 727.664 -1.65913 0.0787922 0
M  V30 7540 O 728.849 -1.89129 0.251985 0
M  V30 7541 C 725.989 -3.32922 0.908692 0
M  V30 7542 C 725.102 -3.77141 2.10687 0
M  V30 7543 C 724.237 -5.01241 1.75873 0
M  V30 7544 C 723.276 -5.37914 2.92088 0
M  V30 7545 N 722.413 -6.53192 2.57457 0
M  V30 7546 H 727.253 -2.07307 2.14074 0
M  V30 7547 H 724.79 -1.01483 1.06487 0
M  V30 7548 H 726.748 -4.10867 0.724138 0
M  V30 7549 H 725.378 -3.228 -0.0017611 0
M  V30 7550 H 724.43 -2.94961 2.40213 0
M  V30 7551 H 725.742 -4.00248 2.97663 0
M  V30 7552 H 724.896 -5.86858 1.53891 0
M  V30 7553 H 723.635 -4.80041 0.86091 0
M  V30 7554 H 722.64 -4.50814 3.14717 0
M  V30 7555 H 723.865 -5.61077 3.82582 0
M  V30 7556 H 721.811 -6.33536 1.702 0
M  V30 7557 H 721.728 -6.76252 3.37963 0
M  V30 7558 H 722.996 -7.41997 2.38873 0
M  V30 7559 N 727.225 -1.14528 -1.08264 0
M  V30 7560 C 728.641 -0.885976 -1.3275 0
M  V30 7561 C 728.841 0.472096 -1.95892 0
M  V30 7562 O 727.897 1.21606 -2.21288 0
M  V30 7563 C 729.21 -2.01982 -2.22764 0
M  V30 7564 C 730.758 -2.05329 -2.36239 0
M  V30 7565 C 731.233 -3.1801 -3.29596 0
M  V30 7566 N 732.724 -3.17598 -3.37173 0
M  V30 7567 C 733.459 -4.01426 -4.09444 0
M  V30 7568 N 732.955 -4.95297 -4.8441 0
M  V30 7569 N 734.748 -3.89482 -4.0529 0
M  V30 7570 H 726.899 -2.01996 -0.656607 0
M  V30 7571 H 729.162 -0.880274 -0.351884 0
M  V30 7572 H 728.868 -2.99964 -1.83615 0
M  V30 7573 H 728.742 -1.94421 -3.23234 0
M  V30 7574 H 731.129 -1.07953 -2.74646 0
M  V30 7575 H 731.21 -2.1696 -1.35506 0
M  V30 7576 H 730.854 -4.15633 -2.9191 0
M  V30 7577 H 730.784 -3.03616 -4.30261 0
M  V30 7578 H 733.275 -2.4961 -2.83731 0
M  V30 7579 H 733.588 -5.55723 -5.37021 0
M  V30 7580 H 731.933 -4.99293 -4.83457 0
M  V30 7581 H 735.124 -3.15465 -3.45832 0
M  V30 7582 H 735.297 -4.55039 -4.6135 0
M  V30 7583 N 728.703 1.26451 -0.940633 0
M  V30 7584 C 729.666 2.24651 -0.454378 0
M  V30 7585 C 730.666 1.54826 0.434222 0
M  V30 7586 O 731.856 1.72628 0.233477 0
M  V30 7587 C 728.988 3.39148 0.345192 0
M  V30 7588 H 730.181 2.69182 -1.32217 0
M  V30 7589 H 727.734 1.38596 -0.722547 0
M  V30 7590 H 728.469 3.00018 1.23125 0
M  V30 7591 H 728.254 3.9101 -0.292107 0
M  V30 7592 H 729.744 4.12103 0.675341 0
M  V30 7593 N 730.181 0.707592 1.40822 0
M  V30 7594 C 731.409 0.253073 2.05346 0
M  V30 7595 C 731.824 -1.10218 1.53289 0
M  V30 7596 O 731.181 -1.69112 0.686105 0
M  V30 7597 C 731.232 0.215411 3.60858 0
M  V30 7598 O 730.953 1.51714 4.10992 0
M  V30 7599 C 732.454 -0.258636 4.42545 0
M  V30 7600 H 729.674 0.115256 0.661027 0
M  V30 7601 H 732.218 0.963555 1.80377 0
M  V30 7602 H 730.373 -0.445978 3.84824 0
M  V30 7603 H 730.787 1.41226 5.05129 0
M  V30 7604 H 732.261 -0.233849 5.51504 0
M  V30 7605 H 732.738 -1.2995 4.19535 0
M  V30 7606 H 733.344 0.372186 4.23668 0
M  V30 7607 N 731.66 -1.50943 0.453197 0
M  V30 7608 C 732.888 -2.06628 -0.106135 0
M  V30 7609 C 733.303 -1.31901 -1.35084 0
M  V30 7610 O 732.66 -0.383074 -1.78434 0
M  V30 7611 C 732.711 -3.5914 -0.412368 0
M  V30 7612 O 732.432 -4.31047 0.782948 0
M  V30 7613 C 733.933 -4.31391 -1.02064 0
M  V30 7614 H 731.153 -0.670999 -0.000885896 0
M  V30 7615 H 733.697 -1.94331 0.63684 0
M  V30 7616 H 731.852 -3.71299 -1.10526 0
M  V30 7617 H 732.266 -5.21948 0.516736 0
M  V30 7618 H 733.74 -5.39135 -1.1848 0
M  V30 7619 H 734.217 -3.90714 -2.00598 0
M  V30 7620 H 734.823 -4.23716 -0.366664 0
M  V30 7621 N 733.138 -0.185124 -1.56509 0
M  V30 7622 C 734.384 0.456934 -1.97585 0
M  V30 7623 C 734.717 1.61957 -1.07161 0
M  V30 7624 O 733.992 1.9412 -0.121546 0
M  V30 7625 C 734.275 0.926666 -3.47973 0
M  V30 7626 C 734.128 -0.237097 -4.49175 0
M  V30 7627 C 735.447 1.79561 -4.01803 0
M  V30 7628 H 732.566 0.164619 -0.71838 0
M  V30 7629 H 735.208 -0.274039 -1.88013 0
M  V30 7630 H 733.358 1.54954 -3.56261 0
M  V30 7631 H 735.03 -0.87454 -4.52934 0
M  V30 7632 H 733.273 -0.890446 -4.24563 0
M  V30 7633 H 733.944 0.133924 -5.51838 0
M  V30 7634 H 736.42 1.27039 -3.96232 0
M  V30 7635 H 735.296 2.09327 -5.07418 0
M  V30 7636 H 735.557 2.74629 -3.46455 0
M  V30 7637 N 734.616 1.57351 0.0885366 0
M  V30 7638 C 735.844 1.90631 0.804196 0
M  V30 7639 C 736.259 0.779474 1.71958 0
M  V30 7640 O 735.616 -0.248179 1.80805 0
M  V30 7641 C 735.667 3.23568 1.61202 0
M  V30 7642 O 735.388 4.31917 0.733447 0
M  V30 7643 C 736.889 3.70753 2.43016 0
M  V30 7644 H 734.109 0.630501 0.229585 0
M  V30 7645 H 736.653 2.044 0.0638092 0
M  V30 7646 H 734.808 3.11377 2.30485 0
M  V30 7647 H 735.222 5.08297 1.29361 0
M  V30 7648 H 736.696 4.66447 2.9518 0
M  V30 7649 H 737.173 2.98922 3.2178 0
M  V30 7650 H 737.779 3.85834 1.7892 0
M  V30 7651 N 736.094 -0.359525 1.53444 0
M  V30 7652 C 737.342 -1.09935 1.69584 0
M  V30 7653 C 737.663 -1.89656 0.453371 0
M  V30 7654 O 736.933 -1.8852 -0.53263 0
M  V30 7655 H 735.513 -0.408843 0.625185 0
M  V30 7656 H 738.175 -0.40467 1.90653 0
M  V30 7657 H 737.271 -1.78575 2.55964 0
M  V30 7658 N 737.572 -1.44907 -0.619662 0
M  V30 7659 C 738.8 -1.51795 -1.40591 0
M  V30 7660 C 739.215 -0.146553 -1.8823 0
M  V30 7661 O 738.572 0.849698 -1.61513 0
M  V30 7662 C 738.623 -2.49229 -2.61853 0
M  V30 7663 O 738.344 -3.81039 -2.16197 0
M  V30 7664 C 739.845 -2.65696 -3.54853 0
M  V30 7665 H 737.065 -0.514463 -0.430777 0
M  V30 7666 H 739.609 -1.8998 -0.756813 0
M  V30 7667 H 737.764 -2.14149 -3.2283 0
M  V30 7668 H 738.178 -4.33747 -2.94896 0
M  V30 7669 H 739.652 -3.37874 -4.36515 0
M  V30 7670 H 740.129 -1.71316 -4.0441 0
M  V30 7671 H 740.735 -3.01724 -2.99737 0
M  V30 7672 N 739.05 0.861098 -1.31996 0
M  V30 7673 C 740.461 1.43065 -1.19955 0
M  V30 7674 C 740.812 1.95273 0.190489 0
M  V30 7675 O 739.937 1.87012 1.08882 0
M  V30 7676 C 740.532 2.60052 -2.1716 0
M  V30 7677 C 739.091 3.13026 -2.09026 0
M  V30 7678 C 738.238 1.85756 -2.05888 0
M  V30 7679 H 741.189 0.668834 -1.43918 0
M  V30 7680 H 741.21 3.37016 -1.76637 0
M  V30 7681 H 740.722 2.22024 -3.18319 0
M  V30 7682 H 738.823 3.55653 -1.11092 0
M  V30 7683 H 738.936 3.74707 -2.98549 0
M  V30 7684 H 737.3 2.05088 -1.51033 0
M  V30 7685 H 738.083 1.49954 -3.08818 0
M  V30 7686 N 740.528 1.15101 1.07655 0
M  V30 7687 C 741.768 0.934462 1.81789 0
M  V30 7688 C 742.132 -0.529101 1.84566 0
M  V30 7689 O 743.333 -0.863868 2.5454 0
M  V30 7690 C 741.604 1.52817 3.23082 0
M  V30 7691 S 743.163 1.45429 4.14 0
M  V30 7692 H 739.981 0.336379 0.626395 0
M  V30 7693 H 742.583 1.46593 1.29347 0
M  V30 7694 H 741.287 2.58635 3.18647 0
M  V30 7695 H 740.818 0.995432 3.80598 0
M  V30 7696 H 742.833 0.445058 4.942 0
M  V30 7697 N 742.006 -1.2595 0.947325 0
M  V30 7698 C 742.938 -2.25336 0.41906 0
M  V30 7699 C 743.951 -1.56135 -0.461051 0
M  V30 7700 O 745.14 -1.76438 -0.270505 0
M  V30 7701 C 742.24 -3.36334 -0.416233 0
M  V30 7702 C 741.413 -4.35088 0.449162 0
M  V30 7703 C 740.472 -5.25185 -0.326716 0
M  V30 7704 O 739.498 -5.68548 0.272374 0
M  V30 7705 N 740.7 -5.57388 -1.6217 0
M  V30 7706 H 743.465 -2.71298 1.27348 0
M  V30 7707 H 741.026 -1.39781 0.81688 0
M  V30 7708 H 743.018 -3.93564 -0.942826 0
M  V30 7709 H 741.588 -2.89819 -1.17148 0
M  V30 7710 H 740.808 -3.76841 1.15692 0
M  V30 7711 H 742.096 -4.98056 1.04008 0
M  V30 7712 H 741.494 -5.2405 -2.13046 0
M  V30 7713 H 740.051 -6.17234 -2.0944 0
M  V30 7714 N 743.484 -0.715051 -1.40445 0
M  V30 7715 C 744.761 -0.181503 -1.94756 0
M  V30 7716 C 745.141 1.31268 -1.65324 0
M  V30 7717 O 744.489 2.0686 -0.970631 0
M  V30 7718 C 744.699 -0.493663 -3.45491 0
M  V30 7719 C 746.047 -0.432032 -4.22396 0
M  V30 7720 O 747.071 -0.429692 -3.53599 0
M  V30 7721 O 745.93 -0.409091 -5.44967 0
M  V30 7722 H 743.024 -0.0263989 -0.826579 0
M  V30 7723 H 745.57 -0.792546 -1.50056 0
M  V30 7724 H 744.342 -1.52713 -3.6027 0
M  V30 7725 H 743.965 0.14737 -3.97327 0
M  V30 7726 N 744.962 1.50701 -0.461195 0
M  V30 7727 C 746.208 2.03203 0.0895017 0
M  V30 7728 C 746.563 1.33768 1.38289 0
M  V30 7729 O 745.856 0.451304 1.86209 0
M  V30 7730 C 746.05 3.55788 0.33908 0
M  V30 7731 C 745.879 4.40009 -0.928571 0
M  V30 7732 C 744.649 4.83475 -1.46903 0
M  V30 7733 C 746.847 4.80972 -1.82129 0
M  V30 7734 N 744.829 5.51985 -2.68673 0
M  V30 7735 C 746.2 5.48792 -2.88491 0
M  V30 7736 C 748.255 4.62937 -1.83285 0
M  V30 7737 C 746.958 6.00489 -3.95987 0
M  V30 7738 C 748.984 5.15568 -2.89731 0
M  V30 7739 C 748.346 5.83355 -3.94812 0
M  V30 7740 H 744.445 0.781968 -0.00702462 0
M  V30 7741 H 747.029 1.84321 -0.627195 0
M  V30 7742 H 745.2 3.74636 1.02481 0
M  V30 7743 H 746.932 3.94944 0.883242 0
M  V30 7744 H 743.687 4.62495 -1.01959 0
M  V30 7745 H 744.111 5.90854 -3.30486 0
M  V30 7746 H 748.753 4.0997 -1.03366 0
M  V30 7747 H 746.471 6.52499 -4.7673 0
M  V30 7748 H 750.057 5.0345 -2.91597 0
M  V30 7749 H 748.937 6.23347 -4.75824 0
M  V30 7750 N 746.441 0.193421 1.56409 0
M  V30 7751 C 747.404 -0.714371 2.17783 0
M  V30 7752 C 748.404 -1.1422 1.13183 0
M  V30 7753 O 749.594 -1.05557 1.38576 0
M  V30 7754 C 746.726 -1.97509 2.77855 0
M  V30 7755 H 747.919 -0.179714 2.99361 0
M  V30 7756 H 745.472 -0.0561944 1.56199 0
M  V30 7757 H 746.207 -2.5523 2.0007 0
M  V30 7758 H 745.992 -1.67706 3.54425 0
M  V30 7759 H 747.482 -2.62246 3.24987 0
M  V30 7760 N 747.919 -1.57396 -0.0801906 0
M  V30 7761 C 748.882 -2.02133 -1.0805 0
M  V30 7762 C 749.882 -0.91707 -1.32085 0
M  V30 7763 O 751.072 -1.18217 -1.27947 0
M  V30 7764 C 748.204 -2.39479 -2.42616 0
M  V30 7765 H 749.397 -2.91733 -0.6951 0
M  V30 7766 H 746.95 -1.52869 -0.325677 0
M  V30 7767 H 747.685 -1.52879 -2.86004 0
M  V30 7768 H 747.47 -3.20052 -2.26515 0
M  V30 7769 H 748.96 -2.74697 -3.14534 0
M  V30 7770 N 749.397 0.351382 -1.53633 0
M  V30 7771 C 750.329 1.45159 -1.77374 0
M  V30 7772 C 751.342 1.4905 -0.654826 0
M  V30 7773 O 752.531 1.52274 -0.931396 0
M  V30 7774 C 749.631 2.83858 -1.85143 0
M  V30 7775 C 748.804 3.03498 -3.14972 0
M  V30 7776 C 747.863 4.22393 -3.138 0
M  V30 7777 O 746.889 4.16885 -3.87551 0
M  V30 7778 N 748.091 5.30533 -2.35617 0
M  V30 7779 H 750.856 1.25167 -2.72311 0
M  V30 7780 H 748.417 0.54121 -1.52586 0
M  V30 7781 H 750.409 3.61557 -1.8182 0
M  V30 7782 H 748.979 2.9703 -0.974275 0
M  V30 7783 H 748.199 2.13336 -3.31484 0
M  V30 7784 H 749.487 3.13498 -4.00745 0
M  V30 7785 H 748.885 5.37875 -1.75235 0
M  V30 7786 H 747.442 6.06756 -2.38098 0
M  V30 7787 N 750.875 1.45233 0.611969 0
M  V30 7788 C 751.785 1.56098 1.7513 0
M  V30 7789 C 752.801 0.445646 1.68196 0
M  V30 7790 O 753.977 0.705718 1.88631 0
M  V30 7791 C 751.042 1.52052 3.11579 0
M  V30 7792 C 750.103 2.74589 3.29999 0
M  V30 7793 C 749.336 2.70726 4.59938 0
M  V30 7794 O 749.559 1.77806 5.41979 0
M  V30 7795 O 748.493 3.61864 4.80976 0
M  V30 7796 H 752.319 2.52392 1.68914 0
M  V30 7797 H 749.904 1.27695 0.775528 0
M  V30 7798 H 751.786 1.52387 3.92882 0
M  V30 7799 H 750.461 0.589085 3.18295 0
M  V30 7800 H 749.368 2.79817 2.48301 0
M  V30 7801 H 750.701 3.66843 3.28157 0
M  V30 7802 N 752.353 -0.854086 1.3245 0
M  V30 7803 C 753.764 -1.42427 1.20712 0
M  V30 7804 C 754.115 -1.95371 -0.18013 0
M  V30 7805 O 753.24 -1.87587 -1.07889 0
M  V30 7806 C 753.835 -2.58897 2.18536 0
M  V30 7807 C 752.394 -3.11913 2.10683 0
M  V30 7808 C 751.541 -1.84661 2.06871 0
M  V30 7809 H 754.492 -0.661192 1.4427 0
M  V30 7810 H 754.513 -3.36074 1.78422 0
M  V30 7811 H 754.025 -2.20333 3.19492 0
M  V30 7812 H 752.126 -3.55059 1.12977 0
M  V30 7813 H 752.239 -3.73119 3.00532 0
M  V30 7814 H 750.603 -2.04285 1.52118 0
M  V30 7815 H 751.386 -1.48314 3.09609 0
M  V30 7816 N 753.831 -1.1567 -1.07043 0
M  V30 7817 C 754.781 -0.824733 -2.12561 0
M  V30 7818 C 755.765 0.19243 -1.59745 0
M  V30 7819 O 756.957 -0.00728759 -1.76998 0
M  V30 7820 C 754.086 -0.31921 -3.41813 0
M  V30 7821 C 753.172 -1.36671 -4.01475 0
M  V30 7822 N 753.563 -2.57493 -4.35351 0
M  V30 7823 C 751.861 -1.22018 -4.28984 0
M  V30 7824 C 752.562 -3.24658 -4.82672 0
M  V30 7825 N 751.538 -2.52043 -4.81638 0
M  V30 7826 H 755.34 -1.74363 -2.3659 0
M  V30 7827 H 752.854 -1.04262 -1.24511 0
M  V30 7828 H 754.851 -0.0630216 -4.16852 0
M  V30 7829 H 753.511 0.593708 -3.19226 0
M  V30 7830 H 754.522 -2.94612 -4.25939 0
M  V30 7831 H 751.199 -0.367414 -4.1588 0
M  V30 7832 H 752.589 -4.2775 -5.1815 0
M  V30 7833 N 755.309 1.25446 -0.953992 0
M  V30 7834 C 756.725 1.4539 -0.658316 0
M  V30 7835 C 756.925 1.85607 0.784356 0
M  V30 7836 O 755.981 1.98568 1.55972 0
M  V30 7837 C 757.294 2.52643 -1.6307 0
M  V30 7838 C 758.842 2.66484 -1.64181 0
M  V30 7839 C 759.317 3.76921 -2.60182 0
M  V30 7840 N 760.808 3.84331 -2.58542 0
M  V30 7841 C 761.543 4.69271 -3.29503 0
M  V30 7842 N 761.039 5.58503 -4.09934 0
M  V30 7843 N 762.832 4.6323 -3.18393 0
M  V30 7844 H 754.983 0.976337 -1.8863 0
M  V30 7845 H 757.246 0.490343 -0.811337 0
M  V30 7846 H 756.952 2.29949 -2.66114 0
M  V30 7847 H 756.826 3.50547 -1.39271 0
M  V30 7848 H 759.213 2.88545 -0.618552 0
M  V30 7849 H 759.294 1.68982 -1.92038 0
M  V30 7850 H 758.938 3.55612 -3.62633 0
M  V30 7851 H 758.868 4.73906 -2.29609 0
M  V30 7852 H 761.359 3.20544 -2.0015 0
M  V30 7853 H 761.672 6.20241 -4.61 0
M  V30 7854 H 760.017 5.58214 -4.14032 0
M  V30 7855 H 763.208 3.92527 -2.5503 0
M  V30 7856 H 763.381 5.29204 -3.73961 0
M  V30 7857 N 756.787 0.722489 1.40064 0
M  V30 7858 C 757.737 0.0506801 2.27944 0
M  V30 7859 C 758.721 -0.725493 1.43615 0
M  V30 7860 O 759.913 -0.596559 1.66644 0
M  V30 7861 C 757.042 -0.865195 3.32219 0
M  V30 7862 C 756.128 -0.0838393 4.24017 0
M  V30 7863 N 756.519 0.936516 4.97054 0
M  V30 7864 C 754.817 -0.315371 4.44884 0
M  V30 7865 C 755.518 1.4066 5.64437 0
M  V30 7866 N 754.494 0.727485 5.3871 0
M  V30 7867 H 758.296 0.832609 2.8186 0
M  V30 7868 H 755.81 0.555691 1.52597 0
M  V30 7869 H 757.807 -1.36186 3.94029 0
M  V30 7870 H 756.467 -1.64642 2.79862 0
M  V30 7871 H 757.478 1.31755 5.0086 0
M  V30 7872 H 754.155 -1.07238 4.03492 0
M  V30 7873 H 755.545 2.25482 6.32936 0
M  V30 7874 N 758.265 -1.50454 0.469181 0
M  V30 7875 C 759.49 -2.0722 -0.0864892 0
M  V30 7876 C 759.915 -1.33098 -1.32916 0
M  V30 7877 O 759.273 -0.378084 -1.77314 0
M  V30 7878 C 759.321 -3.58845 -0.355384 0
M  V30 7879 O 758.425 -3.86583 -1.43622 0
M  V30 7880 H 757.766 -0.663889 0.0121414 0
M  V30 7881 H 760.296 -1.93674 0.659674 0
M  V30 7882 H 760.306 -4.03617 -0.596447 0
M  V30 7883 H 758.981 -4.12211 0.552698 0
M  V30 7884 H 757.558 -3.5365 -1.18262 0
M  V30 7885 N 759.743 -0.201713 -1.56304 0
M  V30 7886 C 760.992 0.435557 -1.96941 0
M  V30 7887 C 761.305 1.62299 -1.09172 0
M  V30 7888 O 762.511 2.32849 -1.3962 0
M  V30 7889 C 760.967 0.826298 -3.50286 0
M  V30 7890 C 760.575 -0.337216 -4.46729 0
M  V30 7891 C 762.319 1.43028 -3.99679 0
M  V30 7892 C 760.226 0.0748539 -5.91353 0
M  V30 7893 H 759.156 0.1665 -0.735387 0
M  V30 7894 H 761.807 -0.294781 -1.81117 0
M  V30 7895 H 760.189 1.61349 -3.61639 0
M  V30 7896 H 761.363 -1.11476 -4.47113 0
M  V30 7897 H 759.678 -0.853126 -4.07567 0
M  V30 7898 H 762.275 1.75115 -5.05212 0
M  V30 7899 H 762.618 2.33911 -3.44371 0
M  V30 7900 H 763.151 0.706924 -3.91468 0
M  V30 7901 H 759.89 -0.799957 -6.506 0
M  V30 7902 H 759.41 0.817122 -5.94208 0
M  V30 7903 H 761.089 0.508389 -6.45 0
M  V30 7904 N 761.222 1.57436 0.0718424 0
M  V30 7905 C 762.469 1.87248 0.771007 0
M  V30 7906 C 762.797 0.793441 1.7758 0
M  V30 7907 O 762.052 -0.210565 1.94564 0
M  V30 7908 C 762.351 3.23723 1.51455 0
M  V30 7909 C 762.017 4.46194 0.649736 0
M  V30 7910 C 760.679 4.79438 0.411409 0
M  V30 7911 C 763.031 5.21176 0.05004 0
M  V30 7912 C 760.359 5.85077 -0.436096 0
M  V30 7913 C 762.711 6.27712 -0.784919 0
M  V30 7914 C 761.375 6.59457 -1.03312 0
M  V30 7915 H 760.645 0.685188 0.282132 0
M  V30 7916 H 763.292 1.91474 0.0317896 0
M  V30 7917 H 761.597 3.15287 2.32597 0
M  V30 7918 H 763.294 3.44023 2.06031 0
M  V30 7919 H 759.884 4.20175 0.84562 0
M  V30 7920 H 764.068 4.95806 0.221282 0
M  V30 7921 H 759.324 6.08071 -0.637136 0
M  V30 7922 H 763.498 6.84974 -1.25635 0
M  V30 7923 H 761.125 7.4114 -1.6916 0
M  V30 7924 N 762.7 -0.34323 1.53817 0
M  V30 7925 C 763.928 -1.10348 1.75017 0
M  V30 7926 C 764.343 -1.82345 0.489475 0
M  V30 7927 O 763.7 -1.74362 -0.538886 0
M  V30 7928 C 763.751 -2.11672 2.93048 0
M  V30 7929 O 763.472 -1.42603 4.14241 0
M  V30 7930 C 764.973 -3.0007 3.26301 0
M  V30 7931 H 762.193 -0.329056 0.584776 0
M  V30 7932 H 764.737 -0.395339 2.00642 0
M  V30 7933 H 762.892 -2.78051 2.69753 0
M  V30 7934 H 763.306 -2.10294 4.80496 0
M  V30 7935 H 764.78 -3.67101 4.12239 0
M  V30 7936 H 765.257 -3.66105 2.42618 0
M  V30 7937 H 765.863 -2.3928 3.51604 0
M  V30 7938 N 764.178 -1.45556 -0.604258 0
M  V30 7939 C 765.589 -1.44171 -1.18624 0
M  V30 7940 C 765.94 -0.171081 -1.95453 0
M  V30 7941 O 765.065 0.727156 -2.03817 0
M  V30 7942 C 765.66 -2.61193 -2.15786 0
M  V30 7943 C 764.219 -2.62918 -2.69353 0
M  V30 7944 C 763.366 -2.36479 -1.4482 0
M  V30 7945 H 766.317 -1.53747 -0.393381 0
M  V30 7946 H 766.338 -2.35481 -2.98879 0
M  V30 7947 H 765.85 -3.53656 -1.59841 0
M  V30 7948 H 763.951 -1.7447 -3.29228 0
M  V30 7949 H 764.064 -3.6224 -3.13559 0
M  V30 7950 H 762.428 -1.86103 -1.73891 0
M  V30 7951 H 763.211 -3.31091 -0.907376 0
M  V30 7952 N 765.656 0.84705 -1.32902 0
M  V30 7953 C 766.566 1.98845 -1.2449 0
M  V30 7954 C 767.582 1.7329 -0.15702 0
M  V30 7955 O 768.758 1.978 -0.379104 0
M  V30 7956 C 765.823 3.32679 -0.975985 0
M  V30 7957 C 764.884 3.71405 -2.15306 0
M  V30 7958 C 764.117 4.98853 -1.89688 0
M  V30 7959 O 764.34 5.64134 -0.843168 0
M  V30 7960 O 763.274 5.34889 -2.76002 0
M  V30 7961 H 767.1 2.0888 -2.2046 0
M  V30 7962 H 764.685 0.978852 -1.12867 0
M  V30 7963 H 766.567 4.12885 -0.842826 0
M  V30 7964 H 765.242 3.23667 -0.0464954 0
M  V30 7965 H 764.149 2.91743 -2.34172 0
M  V30 7966 H 765.482 3.85073 -3.06561 0
M  V30 7967 N 767.134 1.16236 1.06428 0
M  V30 7968 C 768.362 0.967184 1.82902 0
M  V30 7969 C 768.777 -0.484601 1.82475 0
M  V30 7970 O 768.134 -1.33631 1.24294 0
M  V30 7971 C 768.185 1.48534 3.29576 0
M  V30 7972 O 767.906 2.88026 3.3011 0
M  V30 7973 C 769.407 1.33298 4.22784 0
M  V30 7974 H 766.627 0.342923 0.576754 0
M  V30 7975 H 769.171 1.54232 1.34286 0
M  V30 7976 H 767.326 0.952513 3.75508 0
M  V30 7977 H 767.74 3.11721 4.21818 0
M  V30 7978 H 769.214 1.74385 5.23731 0
M  V30 7979 H 769.691 0.278356 4.38317 0
M  V30 7980 H 770.297 1.85535 3.82697 0
M  V30 7981 N 768.612 -1.24939 0.960631 0
M  V30 7982 C 769.56 -2.27659 0.47686 0
M  V30 7983 C 770.554 -1.63148 -0.455961 0
M  V30 7984 O 771.76 -1.76911 -0.332029 0
M  V30 7985 H 768.135 -0.739651 0.135723 0
M  V30 7986 H 770.106 -2.65844 1.35534 0
M  V30 7987 C 768.855 -3.46976 -0.224191 0
M  V30 7988 H 768.178 -3.96854 0.484471 0
M  V30 7989 H 769.618 -4.20717 -0.526615 0
M  V30 7990 C 768.077 -3.04159 -1.44876 0
M  V30 7991 O 768.607 -3.10697 -2.54618 0
M  V30 7992 N 766.813 -2.59284 -1.31226 0
M  V30 7993 H 766.36 -2.54164 -0.419361 0
M  V30 7994 H 766.318 -2.31 -2.13275 0
M  V30 7995 N 770.09 -0.729906 -1.39679 0
M  V30 7996 C 771.501 -0.346241 -1.83461 0
M  V30 7997 C 771.852 1.1215 -1.60987 0
M  V30 7998 O 770.977 1.86456 -1.09832 0
M  V30 7999 C 771.572 -0.621656 -3.33048 0
M  V30 8000 C 770.131 -0.291543 -3.75269 0
M  V30 8001 C 769.278 -0.886844 -2.62736 0
M  V30 8002 H 772.229 -0.927949 -1.28743 0
M  V30 8003 H 772.25 0.108301 -3.80346 0
M  V30 8004 H 771.762 -1.68996 -3.49373 0
M  V30 8005 H 769.863 0.771133 -3.64533 0
M  V30 8006 H 769.976 -0.770544 -4.72863 0
M  V30 8007 H 768.34 -0.313839 -2.52759 0
M  V30 8008 H 769.123 -1.95971 -2.81869 0
M  V30 8009 N 771.568 1.50203 -0.477153 0
M  V30 8010 C 772.984 1.59056 -0.131663 0
M  V30 8011 C 773.184 1.48473 1.36227 0
M  V30 8012 O 772.24 1.34635 2.13611 0
M  V30 8013 C 773.553 2.92741 -0.687254 0
M  V30 8014 C 775.101 3.0615 -0.651223 0
M  V30 8015 C 775.576 4.42419 -1.18446 0
M  V30 8016 N 777.067 4.48847 -1.14413 0
M  V30 8017 C 777.802 5.52689 -1.52717 0
M  V30 8018 N 777.298 6.63754 -1.98499 0
M  V30 8019 N 779.091 5.43267 -1.44282 0
M  V30 8020 H 771.242 1.55325 -1.44872 0
M  V30 8021 H 773.505 0.734395 -0.599473 0
M  V30 8022 H 773.211 3.0598 -1.73405 0
M  V30 8023 H 773.085 3.76961 -0.134215 0
M  V30 8024 H 775.472 2.92556 0.386677 0
M  V30 8025 H 775.553 2.23673 -1.24114 0
M  V30 8026 H 775.197 4.56763 -2.22103 0
M  V30 8027 H 775.127 5.23498 -0.570709 0
M  V30 8028 H 777.618 3.69152 -0.808416 0
M  V30 8029 H 777.931 7.39059 -2.25859 0
M  V30 8030 H 776.276 6.64858 -2.02456 0
M  V30 8031 H 779.467 4.55387 -1.08352 0
M  V30 8032 H 779.64 6.24074 -1.74459 0
M  V30 8033 N 773.046 0.209999 1.56195 0
M  V30 8034 C 774.009 -0.691232 2.18528 0
M  V30 8035 C 775.009 -1.13013 1.14388 0
M  V30 8036 O 776.199 -1.04081 1.39688 0
M  V30 8037 C 773.331 -1.94551 2.79934 0
M  V30 8038 H 774.524 -0.147953 2.99535 0
M  V30 8039 H 772.077 -0.0396243 1.5625 0
M  V30 8040 H 772.812 -2.53094 2.02766 0
M  V30 8041 H 772.597 -1.63938 3.56184 0
M  V30 8042 H 774.087 -2.58785 3.2775 0
M  V30 8043 N 774.524 -1.57472 -0.0634922 0
M  V30 8044 C 775.772 -1.87283 -0.759563 0
M  V30 8045 C 776.093 -0.803135 -1.77693 0
M  V30 8046 O 775.363 0.167293 -1.95184 0
M  V30 8047 H 773.943 -0.691106 -0.283516 0
M  V30 8048 H 776.605 -1.94864 -0.0376091 0
M  V30 8049 H 775.701 -2.85064 -1.27062 0
M  V30 8050 N 776.003 0.335068 -1.53997 0
M  V30 8051 C 776.933 1.41727 -1.85568 0
M  V30 8052 C 777.914 1.54505 -0.7115 0
M  V30 8053 O 779.099 1.68573 -0.964191 0
M  V30 8054 C 776.229 2.7866 -2.07282 0
M  V30 8055 C 775.183 2.80682 -3.23112 0
M  V30 8056 C 774.509 4.20581 -3.30175 0
M  V30 8057 C 775.809 2.45458 -4.61029 0
M  V30 8058 H 777.503 1.15555 -2.76202 0
M  V30 8059 H 775.049 0.554445 -1.32898 0
M  V30 8060 H 777.002 3.54423 -2.27952 0
M  V30 8061 H 775.726 3.06286 -1.13387 0
M  V30 8062 H 774.385 2.07373 -3.02311 0
M  V30 8063 H 774.033 4.4533 -2.33859 0
M  V30 8064 H 773.733 4.22843 -4.08016 0
M  V30 8065 H 775.257 4.98174 -3.53066 0
M  V30 8066 H 776.671 3.10934 -4.81656 0
M  V30 8067 H 775.068 2.5899 -5.41336 0
M  V30 8068 H 776.138 1.40628 -4.6406 0
M  V30 8069 N 777.481 1.45874 0.596531 0
M  V30 8070 C 778.391 1.57947 1.73464 0
M  V30 8071 C 779.407 0.463461 1.67714 0
M  V30 8072 O 780.583 0.725685 1.87872 0
M  V30 8073 C 777.648 1.55348 3.09948 0
M  V30 8074 C 776.709 2.78074 3.27068 0
M  V30 8075 C 775.942 2.75589 4.57041 0
M  V30 8076 O 776.165 1.83545 5.40063 0
M  V30 8077 O 775.099 3.66945 4.77111 0
M  V30 8078 H 778.925 2.54169 1.66228 0
M  V30 8079 H 776.51 1.2851 0.76194 0
M  V30 8080 H 778.392 1.56545 3.91244 0
M  V30 8081 H 777.067 0.622811 3.17652 0
M  V30 8082 H 775.974 2.82435 2.45319 0
M  V30 8083 H 777.307 3.70303 3.24248 0
M  V30 8084 N 778.959 -0.83999 1.33349 0
M  V30 8085 C 779.906 -1.94972 1.23509 0
M  V30 8086 C 780.876 -1.65709 0.113967 0
M  V30 8087 O 782.061 -1.88552 0.292045 0
M  V30 8088 C 779.201 -3.30919 0.979105 0
M  V30 8089 C 778.314 -3.72587 2.18639 0
M  V30 8090 C 777.449 -4.97397 1.86465 0
M  V30 8091 C 776.488 -5.31597 3.03432 0
M  V30 8092 N 775.625 -6.47584 2.71254 0
M  V30 8093 H 780.465 -2.0272 2.18423 0
M  V30 8094 H 778.002 -0.992017 1.08616 0
M  V30 8095 H 779.96 -4.09239 0.811126 0
M  V30 8096 H 778.59 -3.22731 0.0667099 0
M  V30 8097 H 777.642 -2.89799 2.46416 0
M  V30 8098 H 778.954 -3.93844 3.06086 0
M  V30 8099 H 778.108 -5.83462 1.66305 0
M  V30 8100 H 776.847 -4.78107 0.96254 0
M  V30 8101 H 775.852 -4.44037 3.24208 0
M  V30 8102 H 777.077 -5.52836 3.94397 0
M  V30 8103 H 775.023 -6.29783 1.836 0
M  V30 8104 H 774.94 -6.68931 3.52231 0
M  V30 8105 H 776.208 -7.36764 2.54558 0
M  V30 8106 N 780.437 -1.16799 -1.0581 0
M  V30 8107 C 781.385 -0.875111 -2.1551 0
M  V30 8108 C 782.379 0.157781 -1.68664 0
M  V30 8109 O 783.585 0.011297 -1.79996 0
M  V30 8110 H 779.96 -0.26542 -0.703602 0
M  V30 8111 H 781.931 -1.8076 -2.37421 0
M  V30 8112 C 780.68 -0.39802 -3.45414 0
M  V30 8113 H 780.003 -1.18425 -3.81858 0
M  V30 8114 H 781.443 -0.231913 -4.23365 0
M  V30 8115 C 779.902 0.88327 -3.25115 0
M  V30 8116 O 780.432 1.95145 -3.51114 0
M  V30 8117 N 778.638 0.828961 -2.78526 0
M  V30 8118 H 778.185 -0.0405029 -2.57568 0
M  V30 8119 H 778.143 1.68673 -2.65324 0
M  V30 8120 N 781.915 1.24427 -0.967243 0
M  V30 8121 C 783.145 1.96256 -0.64554 0
M  V30 8122 C 783.553 1.71959 0.789098 0
M  V30 8123 O 782.896 0.999913 1.54102 0
M  V30 8124 C 782.958 3.49553 -0.839798 0
M  V30 8125 C 782.622 3.97548 -2.25399 0
M  V30 8126 C 783.619 4.07257 -3.23168 0
M  V30 8127 C 781.304 4.30884 -2.58156 0
M  V30 8128 C 783.298 4.49635 -4.51782 0
M  V30 8129 C 780.985 4.72946 -3.86996 0
M  V30 8130 C 781.983 4.82286 -4.83621 0
M  V30 8131 O 781.671 5.23409 -6.10162 0
M  V30 8132 H 781.403 0.632002 -0.239895 0
M  V30 8133 H 783.957 1.59224 -1.29757 0
M  V30 8134 H 782.187 3.86479 -0.130603 0
M  V30 8135 H 783.876 4.02591 -0.517249 0
M  V30 8136 H 784.642 3.8172 -2.9919 0
M  V30 8137 H 780.521 4.22833 -1.83666 0
M  V30 8138 H 784.065 4.5684 -5.27203 0
M  V30 8139 H 779.962 4.9793 -4.10775 0
M  V30 8140 H 780.73 5.4156 -6.13722 0
M  V30 8141 N 783.393 0.737304 1.3929 0
M  V30 8142 C 784.633 0.290966 2.02318 0
M  V30 8143 C 784.997 -1.10174 1.57244 0
M  V30 8144 O 786.198 -1.64628 2.12488 0
M  V30 8145 C 784.469 0.391767 3.55246 0
M  V30 8146 S 786.028 0.0256103 4.38793 0
M  V30 8147 H 782.846 0.113862 0.701824 0
M  V30 8148 H 785.448 0.964329 1.70062 0
M  V30 8149 H 784.152 1.40662 3.85542 0
M  V30 8150 H 783.683 -0.299338 3.9226 0
M  V30 8151 H 785.698 -1.18991 4.81722 0
M  V30 8152 N 784.871 -1.49948 0.485112 0
M  V30 8153 C 786.287 -1.58984 0.140096 0
M  V30 8154 C 786.487 -1.49194 -1.35438 0
M  V30 8155 O 785.543 -1.35765 -2.12894 0
M  V30 8156 C 786.856 -2.92372 0.702769 0
M  V30 8157 C 788.404 -3.05801 0.66745 0
M  V30 8158 C 788.879 -4.41785 1.20791 0
M  V30 8159 N 790.37 -4.48234 1.16792 0
M  V30 8160 C 791.105 -5.51871 1.55646 0
M  V30 8161 N 790.601 -6.62692 2.02016 0
M  V30 8162 N 792.394 -5.42494 1.47161 0
M  V30 8163 H 784.545 -1.54555 1.45693 0
M  V30 8164 H 786.808 -0.731206 0.603359 0
M  V30 8165 H 786.514 -3.05056 1.75025 0
M  V30 8166 H 786.388 -3.76885 0.154205 0
M  V30 8167 H 788.775 -2.92757 -0.371157 0
M  V30 8168 H 788.856 -2.23011 1.25298 0
M  V30 8169 H 788.5 -4.55579 2.24522 0
M  V30 8170 H 788.43 -5.23188 0.598464 0
M  V30 8171 H 790.921 -3.68718 0.827982 0
M  V30 8172 H 791.234 -7.3785 2.29775 0
M  V30 8173 H 789.579 -6.63775 2.05979 0
M  V30 8174 H 792.77 -4.54806 1.10765 0
M  V30 8175 H 792.943 -6.2314 1.77766 0
M  V30 8176 N 786.349 -0.21828 -1.56081 0
M  V30 8177 C 787.297 0.709679 -2.21509 0
M  V30 8178 C 788.291 1.20221 -1.19346 0
M  V30 8179 O 789.497 1.16241 -1.37433 0
M  V30 8180 H 785.872 0.247271 -0.710184 0
M  V30 8181 H 787.843 0.134386 -2.98097 0
M  V30 8182 C 786.592 1.90853 -2.90638 0
M  V30 8183 H 785.915 1.53865 -3.69006 0
M  V30 8184 H 787.355 2.53568 -3.39822 0
M  V30 8185 C 785.814 2.76189 -1.92929 0
M  V30 8186 O 786.344 3.74842 -1.44416 0
M  V30 8187 N 784.55 2.42157 -1.6065 0
M  V30 8188 H 784.097 1.61987 -2.00294 0
M  V30 8189 H 784.055 2.99534 -0.955347 0
M  V30 8190 N 787.827 1.57504 0.0551401 0
M  V30 8191 C 789.238 1.76626 0.604979 0
M  V30 8192 C 789.589 0.845978 1.77024 0
M  V30 8193 O 788.714 0.0341936 2.16373 0
M  V30 8194 C 789.309 3.203 1.10425 0
M  V30 8195 C 787.868 3.4071 1.59981 0
M  V30 8196 C 787.015 2.72258 0.526414 0
M  V30 8197 H 789.966 1.57775 -0.171072 0
M  V30 8198 H 789.987 3.25377 1.97256 0
M  V30 8199 H 789.499 3.87255 0.255939 0
M  V30 8200 H 787.6 2.78892 2.47083 0
M  V30 8201 H 787.713 4.49227 1.66528 0
M  V30 8202 H 786.077 2.35283 0.97539 0
M  V30 8203 H 786.86 3.41879 -0.311991 0
M  V30 8204 N 789.305 -0.326896 1.54172 0
M  V30 8205 C 790.582 -1.08326 1.62864 0
M  V30 8206 C 790.962 -2.06018 0.46039 0
M  V30 8207 O 790.31 -2.21889 -0.545685 0
M  V30 8208 C 790.52 -1.78816 2.9971 0
M  V30 8209 C 791.868 -2.31958 3.55641 0
M  V30 8210 O 792.892 -1.88888 3.01993 0
M  V30 8211 O 791.751 -3.10801 4.49517 0
M  V30 8212 H 788.845 -0.499131 0.659392 0
M  V30 8213 H 791.391 -0.327054 1.66519 0
M  V30 8214 H 790.163 -1.07739 3.76176 0
M  V30 8215 H 789.786 -2.61255 2.99719 0
M  V30 8216 N 790.784 -1.46188 -0.588786 0
M  V30 8217 C 792.032 -1.50885 -1.34455 0
M  V30 8218 C 792.353 -0.159555 -1.94346 0
M  V30 8219 O 791.623 0.813239 -1.78222 0
M  V30 8220 H 790.203 -0.555707 -0.499198 0
M  V30 8221 H 792.865 -1.82277 -0.690014 0
M  V30 8222 H 791.961 -2.25816 -2.15438 0
M  V30 8223 N 792.262 0.832906 -1.33792 0
M  V30 8224 C 793.539 1.57359 -1.16178 0
M  V30 8225 C 793.919 2.09372 0.269532 0
M  V30 8226 O 793.267 1.89993 1.26944 0
M  V30 8227 C 793.477 2.70279 -2.20795 0
M  V30 8228 C 794.825 3.39305 -2.55259 0
M  V30 8229 O 795.849 2.80526 -2.19508 0
M  V30 8230 O 794.708 4.45428 -3.16632 0
M  V30 8231 H 791.802 0.694025 -0.449731 0
M  V30 8232 H 794.348 0.875144 -1.45394 0
M  V30 8233 H 793.12 2.29527 -3.16911 0
M  V30 8234 H 792.743 3.47782 -1.927 0
M  V30 8235 N 793.74 1.17359 1.05189 0
M  V30 8236 C 794.986 0.963413 1.78455 0
M  V30 8237 C 795.319 -0.506703 1.87473 0
M  V30 8238 O 794.594 -1.37611 1.37453 0
M  V30 8239 C 794.877 1.60519 3.22344 0
M  V30 8240 C 794.73 3.14741 3.21338 0
M  V30 8241 C 796.049 1.3091 4.20179 0
M  V30 8242 H 793.168 0.351412 0.647826 0
M  V30 8243 H 795.81 1.44858 1.22948 0
M  V30 8244 H 793.96 1.19265 3.69741 0
M  V30 8245 H 795.632 3.65053 2.82017 0
M  V30 8246 H 793.875 3.4749 2.59679 0
M  V30 8247 H 794.546 3.54775 4.22894 0
M  V30 8248 H 797.022 1.66635 3.81277 0
M  V30 8249 H 795.898 1.784 5.191 0
M  V30 8250 H 796.159 0.229908 4.41502 0
M  V30 8251 N 795.218 -1.23913 0.973828 0
M  V30 8252 C 796.466 -1.91771 0.637817 0
M  V30 8253 C 796.787 -1.76434 -0.830435 0
M  V30 8254 O 796.057 -1.13965 -1.59339 0
M  V30 8255 H 794.637 -0.709761 0.232912 0
M  V30 8256 H 797.299 -1.50677 1.23622 0
M  V30 8257 H 796.395 -2.99327 0.883731 0
M  V30 8258 N 796.696 -0.74468 -1.38897 0
M  V30 8259 C 797.944 -0.296298 -1.99916 0
M  V30 8260 C 798.265 1.12325 -1.59399 0
M  V30 8261 O 797.535 1.76658 -0.846689 0
M  V30 8262 H 796.115 -0.106561 -0.73936 0
M  V30 8263 H 798.777 -0.956793 -1.69798 0
M  V30 8264 H 797.873 -0.352356 -3.10105 0
M  V30 8265 N 798.174 1.49689 -0.493057 0
M  V30 8266 C 799.585 1.8665 -0.0433032 0
M  V30 8267 C 799.936 1.40607 1.36836 0
M  V30 8268 O 799.061 0.780503 2.01834 0
M  V30 8269 C 799.656 3.38724 -0.0718069 0
M  V30 8270 C 798.215 3.75015 0.32257 0
M  V30 8271 C 797.362 2.7366 -0.4478 0
M  V30 8272 H 800.313 1.42119 -0.706246 0
M  V30 8273 H 800.334 3.73522 0.725347 0
M  V30 8274 H 799.846 3.72204 -1.09935 0
M  V30 8275 H 797.947 3.47142 1.35364 0
M  V30 8276 H 798.06 4.79099 0.00864259 0
M  V30 8277 H 796.424 2.54498 0.101354 0
M  V30 8278 H 797.207 3.09985 -1.47527 0
M  V30 8279 N 799.652 0.226554 1.55963 0
M  V30 8280 C 800.898 -0.397608 1.99476 0
M  V30 8281 C 801.253 -1.57031 1.11172 0
M  V30 8282 O 800.546 -1.90907 0.162757 0
M  V30 8283 C 800.74 -0.87642 3.46488 0
M  V30 8284 C 800.569 0.248344 4.49014 0
M  V30 8285 C 799.339 0.71638 5.00196 0
M  V30 8286 C 801.537 1.06835 5.03081 0
M  V30 8287 N 799.519 1.81568 5.86435 0
M  V30 8288 C 800.89 2.01641 5.86294 0
M  V30 8289 C 802.945 1.10722 4.85433 0
M  V30 8290 C 801.648 3.0002 6.53743 0
M  V30 8291 C 803.674 2.07921 5.53645 0
M  V30 8292 C 803.036 3.01466 6.3663 0
M  V30 8293 H 799.135 -0.112024 0.773935 0
M  V30 8294 H 801.719 0.339472 1.91718 0
M  V30 8295 H 799.89 -1.58285 3.54684 0
M  V30 8296 H 801.622 -1.47382 3.76909 0
M  V30 8297 H 798.377 0.30409 4.72623 0
M  V30 8298 H 798.801 2.36748 6.34255 0
M  V30 8299 H 803.443 0.397909 4.20923 0
M  V30 8300 H 801.161 3.71911 7.17432 0
M  V30 8301 H 804.747 2.11609 5.41953 0
M  V30 8302 H 803.627 3.75451 6.88481 0
M  V30 8303 N 801.13 -1.57531 -0.0467866 0
M  V30 8304 C 802.37 -1.90294 -0.746171 0
M  V30 8305 C 802.734 -0.823194 -1.73458 0
M  V30 8306 O 803.935 -1.03463 -2.48091 0
M  V30 8307 C 802.206 -3.28249 -1.41378 0
M  V30 8308 S 803.765 -3.82812 -2.14477 0
M  V30 8309 H 800.583 -0.666496 -0.247598 0
M  V30 8310 H 803.185 -1.955 -0.00135143 0
M  V30 8311 H 801.889 -4.04712 -0.680937 0
M  V30 8312 H 801.42 -3.26302 -2.19751 0
M  V30 8313 H 803.435 -3.60111 -3.41372 0
M  V30 8314 N 802.608 0.318715 -1.54344 0
M  V30 8315 C 803.838 1.07394 -1.76494 0
M  V30 8316 C 804.246 1.82031 -0.515881 0
M  V30 8317 O 803.589 1.7609 0.52325 0
M  V30 8318 C 803.651 2.11401 -2.90775 0
M  V30 8319 C 803.315 1.56118 -4.29507 0
M  V30 8320 C 804.312 1.00043 -5.10184 0
M  V30 8321 C 801.997 1.60215 -4.76063 0
M  V30 8322 C 803.991 0.487993 -6.35529 0
M  V30 8323 C 801.678 1.08584 -6.01376 0
M  V30 8324 C 802.676 0.529714 -6.80943 0
M  V30 8325 O 802.364 0.0211823 -8.03897 0
M  V30 8326 H 802.096 0.325061 -0.592715 0
M  V30 8327 H 804.65 0.36901 -2.02058 0
M  V30 8328 H 802.88 2.85524 -2.60793 0
M  V30 8329 H 804.569 2.72683 -3.00664 0
M  V30 8330 H 805.335 0.961811 -4.75367 0
M  V30 8331 H 801.214 2.02441 -4.14172 0
M  V30 8332 H 804.758 0.0532608 -6.9758 0
M  V30 8333 H 800.655 1.12155 -6.35682 0
M  V30 8334 H 801.423 0.136151 -8.18387 0
M  V30 8335 N 804.086 1.46499 0.581025 0
M  V30 8336 C 805.314 1.5547 1.36517 0
M  V30 8337 C 805.729 0.196407 1.87776 0
M  V30 8338 O 805.086 -0.806577 1.63709 0
M  V30 8339 C 805.137 2.56084 2.55154 0
M  V30 8340 O 804.858 3.86637 2.06018 0
M  V30 8341 C 806.359 2.75011 3.47683 0
M  V30 8342 H 803.579 0.525703 0.416986 0
M  V30 8343 H 806.123 1.9192 0.706177 0
M  V30 8344 H 804.278 2.22633 3.17039 0
M  V30 8345 H 804.692 4.41413 2.83292 0
M  V30 8346 H 806.166 3.49329 4.27403 0
M  V30 8347 H 806.643 1.81978 3.99726 0
M  V30 8348 H 807.249 3.09565 2.91632 0
M  V30 8349 N 805.565 -0.825799 1.34232 0
M  V30 8350 C 806.793 -1.61363 1.29497 0
M  V30 8351 C 807.208 -1.88341 -0.131536 0
M  V30 8352 O 806.565 -1.47279 -1.07773 0
M  V30 8353 C 806.616 -2.95623 2.08061 0
M  V30 8354 O 806.337 -2.69824 3.45147 0
M  V30 8355 C 807.838 -3.90032 2.10688 0
M  V30 8356 H 805.058 -0.501676 0.445603 0
M  V30 8357 H 807.602 -1.02767 1.76803 0
M  V30 8358 H 805.757 -3.50785 1.64404 0
M  V30 8359 H 806.171 -3.55412 3.85723 0
M  V30 8360 H 807.645 -4.81411 2.70087 0
M  V30 8361 H 808.122 -4.25188 1.10052 0
M  V30 8362 H 808.728 -3.40807 2.54422 0
M  V30 8363 N 807.043 -1.17915 -1.04565 0
M  V30 8364 C 807.991 -0.897919 -2.1457 0
M  V30 8365 C 808.985 0.139883 -1.68821 0
M  V30 8366 O 810.191 -0.00779463 -1.79998 0
M  V30 8367 H 806.566 -0.272867 -0.700748 0
M  V30 8368 H 808.537 -1.83268 -2.3549 0
M  V30 8369 C 807.286 -0.434634 -3.44973 0
M  V30 8370 H 806.609 -1.22469 -3.8058 0
M  V30 8371 H 808.049 -0.276804 -4.23095 0
M  V30 8372 C 806.508 0.848738 -3.26034 0
M  V30 8373 O 807.038 1.9141 -3.53164 0
M  V30 8374 N 805.244 0.799373 -2.79389 0
M  V30 8375 H 804.791 -0.0678192 -2.57511 0
M  V30 8376 H 804.749 1.6585 -2.67098 0
M  V30 8377 N 808.521 1.23394 -0.980386 0
M  V30 8378 C 809.932 1.73631 -0.686239 0
M  V30 8379 C 810.283 1.79259 0.797541 0
M  V30 8380 O 809.408 1.43046 1.62379 0
M  V30 8381 C 810.003 3.15332 -1.239 0
M  V30 8382 C 808.562 3.63024 -0.994494 0
M  V30 8383 C 807.709 2.41279 -1.36673 0
M  V30 8384 H 810.66 1.08918 -1.15423 0
M  V30 8385 H 810.681 3.75556 -0.611414 0
M  V30 8386 H 810.193 3.11204 -2.31892 0
M  V30 8387 H 808.294 3.72535 0.0693492 0
M  V30 8388 H 808.407 4.49825 -1.64906 0
M  V30 8389 H 806.771 2.42295 -0.785195 0
M  V30 8390 H 807.554 2.39822 -2.45642 0
M  V30 8391 N 809.999 0.752036 1.385 0
M  V30 8392 C 811.415 0.42946 1.53713 0
M  V30 8393 C 811.615 -1.0576 1.71514 0
M  V30 8394 O 810.671 -1.84366 1.72527 0
M  V30 8395 C 811.984 1.22735 2.74511 0
M  V30 8396 C 813.532 1.21727 2.8836 0
M  V30 8397 C 814.007 1.99809 4.12117 0
M  V30 8398 N 815.498 1.97062 4.19191 0
M  V30 8399 C 816.233 2.54274 5.13938 0
M  V30 8400 N 815.729 3.20193 6.14368 0
M  V30 8401 N 817.522 2.44212 5.06277 0
M  V30 8402 H 809.673 1.71581 1.25195 0
M  V30 8403 H 811.936 0.727293 0.60807 0
M  V30 8404 H 811.642 2.28032 2.67758 0
M  V30 8405 H 811.516 0.843186 3.67655 0
M  V30 8406 H 813.903 0.172367 2.94596 0
M  V30 8407 H 813.984 1.64094 1.96232 0
M  V30 8408 H 813.628 3.0431 4.06642 0
M  V30 8409 H 813.558 1.54837 5.03322 0
M  V30 8410 H 816.049 1.49054 3.47263 0
M  V30 8411 H 816.362 3.61272 6.83156 0
M  V30 8412 H 814.707 3.24287 6.14705 0
M  V30 8413 H 817.898 1.92343 4.26757 0
M  V30 8414 H 818.071 2.89096 5.79937 0
M  V30 8415 N 811.477 -1.49425 0.500989 0
M  V30 8416 C 812.424 -2.29126 -0.277443 0
M  V30 8417 C 813.394 -1.35522 -0.960363 0
M  V30 8418 O 814.579 -1.64479 -0.967027 0
M  V30 8419 C 811.719 -3.18193 -1.33593 0
M  V30 8420 C 810.832 -4.26854 -0.664791 0
M  V30 8421 C 809.967 -5.03137 -1.70372 0
M  V30 8422 C 809.006 -6.03635 -1.01445 0
M  V30 8423 N 808.143 -6.73083 -1.99758 0
M  V30 8424 H 812.983 -2.95187 0.408458 0
M  V30 8425 H 810.52 -1.45546 0.213275 0
M  V30 8426 H 812.478 -3.68207 -1.96161 0
M  V30 8427 H 811.108 -2.54116 -1.9906 0
M  V30 8428 H 810.16 -3.80328 0.0741708 0
M  V30 8429 H 811.472 -4.9865 -0.122197 0
M  V30 8430 H 810.626 -5.5702 -2.40445 0
M  V30 8431 H 809.365 -4.31114 -2.28017 0
M  V30 8432 H 808.37 -5.48984 -0.299496 0
M  V30 8433 H 809.595 -6.77644 -0.444497 0
M  V30 8434 H 807.541 -6.03832 -2.56365 0
M  V30 8435 H 807.458 -7.40855 -1.50565 0
M  V30 8436 H 808.726 -7.3157 -2.69119 0
M  V30 8437 N 812.955 -0.234822 -1.55841 0
M  V30 8438 C 813.885 0.664217 -2.23854 0
M  V30 8439 C 814.866 1.19076 -1.2147 0
M  V30 8440 O 816.051 1.23232 -1.50091 0
M  V30 8441 C 813.181 1.86666 -2.9287 0
M  V30 8442 C 812.135 1.47341 -4.01839 0
M  V30 8443 C 811.461 2.75571 -4.58219 0
M  V30 8444 C 812.761 0.653479 -5.18196 0
M  V30 8445 H 814.455 0.0971213 -2.99242 0
M  V30 8446 H 812.001 0.0452724 -1.43929 0
M  V30 8447 H 813.954 2.50116 -3.39146 0
M  V30 8448 H 812.678 2.45894 -2.1495 0
M  V30 8449 H 811.337 0.862314 -3.56314 0
M  V30 8450 H 810.985 3.32971 -3.77014 0
M  V30 8451 H 810.685 2.49987 -5.31771 0
M  V30 8452 H 812.209 3.39939 -5.07221 0
M  V30 8453 H 813.623 1.19198 -5.60771 0
M  V30 8454 H 812.02 0.494188 -5.98062 0
M  V30 8455 H 813.09 -0.337004 -4.83728 0
M  V30 8456 N 814.433 1.57553 0.0384317 0
M  V30 8457 C 815.663 1.92813 0.742064 0
M  V30 8458 C 816.071 0.832157 1.69917 0
M  V30 8459 O 815.414 -0.200917 1.82598 0
M  V30 8460 C 815.476 3.23806 1.56172 0
M  V30 8461 C 815.14 4.50459 0.770407 0
M  V30 8462 C 816.137 5.19846 0.0748006 0
M  V30 8463 C 813.822 4.97001 0.727714 0
M  V30 8464 C 815.816 6.34047 -0.652902 0
M  V30 8465 C 813.503 6.111 -0.00373992 0
M  V30 8466 C 814.501 6.79477 -0.692816 0
M  V30 8467 O 814.189 7.91395 -1.41241 0
M  V30 8468 H 813.921 0.641174 0.214179 0
M  V30 8469 H 816.475 2.054 0.00285095 0
M  V30 8470 H 814.705 3.0752 2.34453 0
M  V30 8471 H 816.394 3.44463 2.14709 0
M  V30 8472 H 817.16 4.84899 0.098875 0
M  V30 8473 H 813.039 4.43629 1.25355 0
M  V30 8474 H 816.583 6.87353 -1.1913 0
M  V30 8475 H 812.48 6.45493 -0.0297703 0
M  V30 8476 H 813.248 8.07702 -1.32512 0
M  V30 8477 N 815.911 -0.310526 1.54511 0
M  V30 8478 C 817.188 -1.06593 1.64004 0
M  V30 8479 C 817.568 -2.05519 0.482216 0
M  V30 8480 O 816.916 -2.22455 -0.52212 0
M  V30 8481 C 817.126 -1.75627 3.01589 0
M  V30 8482 C 818.474 -2.28173 3.58081 0
M  V30 8483 O 819.498 -1.85674 3.03979 0
M  V30 8484 O 818.357 -3.06015 4.52788 0
M  V30 8485 H 815.451 -0.492109 0.664649 0
M  V30 8486 H 817.997 -0.309374 1.66856 0
M  V30 8487 H 816.769 -1.03743 3.77297 0
M  V30 8488 H 816.392 -2.58061 3.02473 0
M  V30 8489 N 817.389 -1.46805 -0.573248 0
M  V30 8490 C 818.619 -1.55965 -1.35494 0
M  V30 8491 C 819.027 -0.203038 -1.88107 0
M  V30 8492 O 818.37 0.81138 -1.6481 0
M  V30 8493 C 818.432 -2.51168 -2.57206 0
M  V30 8494 C 818.096 -3.97211 -2.25993 0
M  V30 8495 C 819.093 -4.86155 -1.84254 0
M  V30 8496 C 816.778 -4.42419 -2.37846 0
M  V30 8497 C 818.772 -6.18323 -1.54776 0
M  V30 8498 C 816.459 -5.74619 -2.0798 0
M  V30 8499 C 817.457 -6.62392 -1.66511 0
M  V30 8500 O 817.145 -7.92137 -1.37016 0
M  V30 8501 H 816.877 -0.529748 -0.419932 0
M  V30 8502 H 819.431 -1.92998 -0.702914 0
M  V30 8503 H 817.661 -2.09171 -3.25245 0
M  V30 8504 H 819.35 -2.50631 -3.19279 0
M  V30 8505 H 820.116 -4.52481 -1.74603 0
M  V30 8506 H 815.995 -3.74319 -2.69085 0
M  V30 8507 H 819.539 -6.8679 -1.22334 0
M  V30 8508 H 815.436 -6.0784 -2.17258 0
M  V30 8509 H 816.204 -8.04492 -1.50782 0
M  V30 8510 N 818.867 0.818669 -1.34668 0
M  V30 8511 C 820.107 1.58862 -1.28617 0
M  V30 8512 C 820.471 1.91483 0.140845 0
M  V30 8513 O 821.672 2.66821 0.325583 0
M  V30 8514 C 819.943 2.85044 -2.15604 0
M  V30 8515 S 821.502 3.75553 -2.26948 0
M  V30 8516 H 818.32 0.544454 -0.457265 0
M  V30 8517 H 820.922 0.966679 -1.69928 0
M  V30 8518 H 819.626 2.59083 -3.18284 0
M  V30 8519 H 819.157 3.52231 -1.75205 0
M  V30 8520 H 821.172 4.74682 -1.44539 0
M  V30 8521 N 820.346 1.18468 1.03938 0
M  V30 8522 C 821.623 0.890435 1.74157 0
M  V30 8523 C 822.003 -0.606409 2.02203 0
M  V30 8524 O 821.351 -1.5615 1.66822 0
M  V30 8525 C 821.561 1.73906 3.02585 0
M  V30 8526 C 822.909 1.96686 3.76297 0
M  V30 8527 O 823.933 1.70969 3.12487 0
M  V30 8528 O 822.792 2.39986 4.90988 0
M  V30 8529 H 819.886 0.330889 0.757919 0
M  V30 8530 H 822.432 1.29228 1.09992 0
M  V30 8531 H 821.204 2.75369 2.78006 0
M  V30 8532 H 820.827 1.33581 3.74489 0
M  V30 8533 N 821.824 -1.22873 0.986916 0
M  V30 8534 C 823.07 -1.91746 0.660401 0
M  V30 8535 C 823.403 -1.76738 -0.804812 0
M  V30 8536 O 822.678 -1.13246 -1.58131 0
M  V30 8537 C 822.961 -3.44156 1.05966 0
M  V30 8538 C 822.814 -3.68242 2.58298 0
M  V30 8539 C 824.133 -4.35874 0.60842 0
M  V30 8540 H 821.252 -0.696347 0.241391 0
M  V30 8541 H 823.894 -1.44867 1.22937 0
M  V30 8542 H 822.044 -3.84213 0.575534 0
M  V30 8543 H 823.716 -3.37626 3.14335 0
M  V30 8544 H 821.959 -3.12728 3.00638 0
M  V30 8545 H 822.63 -4.74956 2.81285 0
M  V30 8546 H 825.106 -4.03299 1.02417 0
M  V30 8547 H 823.982 -5.41201 0.916142 0
M  V30 8548 H 824.243 -4.39364 -0.491086 0
M  V30 8549 N 823.302 -0.75937 -1.38099 0
M  V30 8550 C 824.713 -0.385078 -1.82686 0
M  V30 8551 C 825.064 1.0871 -1.6333 0
M  V30 8552 O 824.189 1.84084 -1.13762 0
M  V30 8553 C 824.784 -0.692161 -3.31654 0
M  V30 8554 C 823.343 -0.371077 -3.74566 0
M  V30 8555 C 822.49 -0.942375 -2.60796 0
M  V30 8556 H 825.441 -0.955048 -1.26746 0
M  V30 8557 H 825.462 0.0276001 -3.8049 0
M  V30 8558 H 824.974 -1.76369 -3.4571 0
M  V30 8559 H 823.075 0.693637 -3.66087 0
M  V30 8560 H 823.188 -0.870672 -4.71122 0
M  V30 8561 H 821.552 -0.367383 -2.52036 0
M  V30 8562 H 822.335 -2.01905 -2.77649 0
M  V30 8563 N 824.78 1.49157 -0.508906 0
M  V30 8564 C 825.712 2.272 0.302115 0
M  V30 8565 C 826.725 1.3407 0.923529 0
M  V30 8566 O 827.914 1.5929 0.805532 0
M  V30 8567 C 825.014 3.06736 1.44105 0
M  V30 8568 C 824.187 4.27497 0.925477 0
M  V30 8569 C 823.246 4.89014 1.94297 0
M  V30 8570 O 822.272 5.48851 1.50834 0
M  V30 8571 N 823.474 4.7937 3.2739 0
M  V30 8572 H 826.239 2.97443 -0.367115 0
M  V30 8573 H 823.8 1.58248 -0.341933 0
M  V30 8574 H 825.792 3.44763 2.11944 0
M  V30 8575 H 824.362 2.3905 2.0143 0
M  V30 8576 H 823.582 3.94135 0.0717301 0
M  V30 8577 H 824.87 5.05714 0.55955 0
M  V30 8578 H 824.268 4.31869 3.65384 0
M  V30 8579 H 822.825 5.21559 3.90922 0
M  V30 8580 N 826.258 0.243083 1.55714 0
M  V30 8581 C 827.498 -0.384303 2.00755 0
M  V30 8582 C 827.862 -1.55406 1.12752 0
M  V30 8583 O 829.063 -2.24892 1.47231 0
M  V30 8584 C 827.334 -0.787419 3.48618 0
M  V30 8585 S 828.893 -1.40587 4.15669 0
M  V30 8586 H 825.711 -0.121088 0.700613 0
M  V30 8587 H 828.313 0.357423 1.92205 0
M  V30 8588 H 827.017 0.0732892 4.10335 0
M  V30 8589 H 826.548 -1.56142 3.61086 0
M  V30 8590 H 828.563 -2.69493 4.16639 0
M  V30 8591 N 827.736 -1.57571 -0.0300757 0
M  V30 8592 C 828.699 -2.05468 -1.01565 0
M  V30 8593 C 829.699 -0.958628 -1.29101 0
M  V30 8594 O 830.889 -1.22228 -1.24121 0
M  V30 8595 C 828.021 -2.47077 -2.34874 0
M  V30 8596 H 829.214 -2.93797 -0.601936 0
M  V30 8597 H 826.767 -1.53828 -0.276878 0
M  V30 8598 H 827.502 -1.61901 -2.80996 0
M  V30 8599 H 827.287 -3.27097 -2.16218 0
M  V30 8600 H 828.777 -2.84564 -3.05635 0
M  V30 8601 N 829.214 0.302327 -1.54673 0
M  V30 8602 C 830.177 1.35592 -1.8479 0
M  V30 8603 C 831.177 1.43743 -0.72073 0
M  V30 8604 O 832.367 1.43402 -0.989017 0
M  V30 8605 C 829.499 2.74091 -2.02699 0
M  V30 8606 H 830.692 1.10132 -2.78946 0
M  V30 8607 H 828.245 0.538926 -1.46715 0
M  V30 8608 H 828.98 3.04775 -1.10826 0
M  V30 8609 H 828.765 2.69565 -2.8474 0
M  V30 8610 H 830.255 3.50272 -2.27374 0
M  V30 8611 N 830.692 1.47107 0.565454 0
M  V30 8612 C 832.103 1.47266 1.1476 0
M  V30 8613 C 832.454 0.222841 1.9493 0
M  V30 8614 O 831.579 -0.672862 2.05673 0
M  V30 8615 C 832.174 2.66822 2.08785 0
M  V30 8616 C 830.733 2.69967 2.62288 0
M  V30 8617 C 829.88 2.40236 1.38499 0
M  V30 8618 H 832.831 1.54736 0.352479 0
M  V30 8619 H 832.852 2.43323 2.92531 0
M  V30 8620 H 832.364 3.5777 1.50408 0
M  V30 8621 H 830.465 1.83137 3.24487 0
M  V30 8622 H 830.578 3.70426 3.03845 0
M  V30 8623 H 828.942 1.90648 1.68895 0
M  V30 8624 H 829.725 3.33381 0.819274 0
M  V30 8625 N 832.17 -0.811516 1.35101 0
M  V30 8626 C 833.395 -1.60499 1.31358 0
M  V30 8627 C 833.82 -1.87793 -0.107383 0
M  V30 8628 O 833.178 -1.46161 -1.07268 0
M  V30 8629 C 833.226 -2.91612 2.12119 0
M  V30 8630 O 832.33 -3.84211 1.49853 0
M  V30 8631 H 831.671 -0.487702 0.450603 0
M  V30 8632 H 834.201 -1.00758 1.7807 0
M  V30 8633 H 834.211 -3.4108 2.23894 0
M  V30 8634 H 832.886 -2.71071 3.15426 0
M  V30 8635 H 831.463 -3.42751 1.46889 0
M  V30 8636 N 833.648 -1.19017 -1.03309 0
M  V30 8637 C 834.895 -0.990214 -1.76638 0
M  V30 8638 C 835.223 0.479435 -1.88498 0
M  V30 8639 O 834.478 1.37223 -1.39529 0
M  V30 8640 C 834.777 -1.59927 -3.19622 0
M  V30 8641 C 834.443 -3.09632 -3.27779 0
M  V30 8642 C 833.105 -3.50491 -3.29712 0
M  V30 8643 C 835.457 -4.05644 -3.27264 0
M  V30 8644 C 832.785 -4.85921 -3.28782 0
M  V30 8645 C 835.137 -5.41 -3.27875 0
M  V30 8646 C 833.801 -5.81295 -3.28104 0
M  V30 8647 H 833.071 -0.362345 -0.646364 0
M  V30 8648 H 835.718 -1.48197 -1.21284 0
M  V30 8649 H 834.023 -1.0297 -3.78027 0
M  V30 8650 H 835.72 -1.41989 -3.7502 0
M  V30 8651 H 832.31 -2.77073 -3.26999 0
M  V30 8652 H 836.494 -3.75124 -3.24955 0
M  V30 8653 H 831.75 -5.16427 -3.27281 0
M  V30 8654 H 835.924 -6.15157 -3.26428 0
M  V30 8655 H 833.551 -6.86211 -3.27138 0
M  V30 8656 N 835.127 1.22348 -0.993418 0
M  V30 8657 C 836.404 1.86632 -0.585495 0
M  V30 8658 C 836.784 1.89156 0.937187 0
M  V30 8659 O 836.132 1.38247 1.81934 0
M  V30 8660 C 836.342 3.27481 -1.20652 0
M  V30 8661 C 837.69 4.03971 -1.30738 0
M  V30 8662 O 838.714 3.3675 -1.16096 0
M  V30 8663 O 837.573 5.24302 -1.54173 0
M  V30 8664 H 834.667 0.802704 -0.198984 0
M  V30 8665 H 837.213 1.30122 -1.08933 0
M  V30 8666 H 835.985 3.20281 -2.24802 0
M  V30 8667 H 835.608 3.91597 -0.688312 0
M  V30 8668 N 836.605 0.766683 1.37694 0
M  V30 8669 C 837.845 0.333815 2.01656 0
M  V30 8670 C 838.209 -1.06813 1.59546 0
M  V30 8671 O 839.41 -1.60084 2.15932 0
M  V30 8672 C 837.681 0.467032 3.54335 0
M  V30 8673 S 839.24 0.118679 4.38639 0
M  V30 8674 H 836.058 0.128723 0.699251 0
M  V30 8675 H 838.66 1.00018 1.67978 0
M  V30 8676 H 837.364 1.48808 3.82471 0
M  V30 8677 H 836.895 -0.216066 3.92806 0
M  V30 8678 H 838.91 -1.08746 4.84137 0
M  V30 8679 N 838.083 -1.48885 0.516809 0
M  V30 8680 C 839.331 -2.02088 -0.0220166 0
M  V30 8681 C 839.652 -1.39735 -1.36011 0
M  V30 8682 O 838.922 -0.558119 -1.87781 0
M  V30 8683 H 837.502 -0.746917 -0.0111255 0
M  V30 8684 H 840.164 -1.8274 0.677647 0
M  V30 8685 H 839.26 -3.11786 -0.140067 0
M  V30 8686 N 839.561 -0.251338 -1.55583 0
M  V30 8687 C 840.508 0.646337 -2.21565 0
M  V30 8688 C 841.478 1.16796 -1.18102 0
M  V30 8689 O 842.663 1.22162 -1.46564 0
M  V30 8690 C 839.803 1.83557 -2.92234 0
M  V30 8691 C 838.916 1.35006 -4.10363 0
M  V30 8692 C 838.051 2.4992 -4.68736 0
M  V30 8693 C 837.09 1.98253 -5.79105 0
M  V30 8694 N 836.227 3.06551 -6.31642 0
M  V30 8695 H 841.067 0.0769881 -2.97901 0
M  V30 8696 H 838.604 0.026238 -1.47077 0
M  V30 8697 H 840.562 2.53425 -3.31408 0
M  V30 8698 H 839.192 2.37733 -2.18364 0
M  V30 8699 H 838.244 0.545274 -3.76472 0
M  V30 8700 H 839.556 0.931435 -4.90026 0
M  V30 8701 H 838.71 3.27823 -5.10507 0
M  V30 8702 H 837.449 2.95086 -3.88298 0
M  V30 8703 H 836.454 1.18822 -5.36807 0
M  V30 8704 H 837.679 1.54051 -6.61396 0
M  V30 8705 H 835.625 3.51143 -5.54107 0
M  V30 8706 H 835.542 2.69033 -7.06511 0
M  V30 8707 H 836.81 3.84499 -6.78071 0
M  V30 8708 N 841.039 1.57585 0.0217189 0
M  V30 8709 C 842.45 1.7787 0.567377 0
M  V30 8710 C 842.801 0.883337 1.7519 0
M  V30 8711 O 841.926 0.0800819 2.16252 0
M  V30 8712 C 842.521 3.2257 1.03606 0
M  V30 8713 C 841.08 3.44026 1.52718 0
M  V30 8714 C 840.227 2.73313 0.468545 0
M  V30 8715 H 843.178 1.57377 -0.2045 0
M  V30 8716 H 843.199 3.29488 1.9031 0
M  V30 8717 H 842.711 3.87711 0.173739 0
M  V30 8718 H 840.812 2.8407 2.41111 0
M  V30 8719 H 840.925 4.52659 1.56962 0
M  V30 8720 H 839.289 2.37299 0.925263 0
M  V30 8721 H 840.072 3.41141 -0.384438 0
M  V30 8722 N 842.517 -0.29412 1.54831 0
M  V30 8723 C 843.449 -1.38476 1.82639 0
M  V30 8724 C 844.462 -1.46517 0.709694 0
M  V30 8725 O 845.651 -1.48712 0.987269 0
M  V30 8726 C 842.751 -2.76791 1.95551 0
M  V30 8727 C 841.924 -2.91599 3.26019 0
M  V30 8728 C 840.983 -4.10456 3.29261 0
M  V30 8729 O 840.009 -4.02214 4.02756 0
M  V30 8730 N 841.211 -5.21422 2.55145 0
M  V30 8731 H 843.976 -1.14974 2.76769 0
M  V30 8732 H 841.537 -0.484206 1.5449 0
M  V30 8733 H 843.529 -3.5456 1.95113 0
M  V30 8734 H 842.099 -2.93209 1.08384 0
M  V30 8735 H 841.319 -2.00886 3.39173 0
M  V30 8736 H 842.607 -2.98409 4.12104 0
M  V30 8737 H 842.005 -5.31 1.95078 0
M  V30 8738 H 840.562 -5.97501 2.60454 0
M  V30 8739 N 843.995 -1.47404 -0.557645 0
M  V30 8740 C 845.241 -1.54235 -1.31679 0
M  V30 8741 C 845.574 -0.203782 -1.93128 0
M  V30 8742 O 844.849 0.787536 -1.77843 0
M  V30 8743 C 845.132 -2.66003 -2.42723 0
M  V30 8744 C 844.985 -4.09475 -1.86145 0
M  V30 8745 C 846.304 -2.73685 -3.44652 0
M  V30 8746 H 843.423 -0.561466 -0.477415 0
M  V30 8747 H 846.065 -1.79459 -0.624067 0
M  V30 8748 H 844.215 -2.44627 -3.01811 0
M  V30 8749 H 845.887 -4.42213 -1.31321 0
M  V30 8750 H 844.13 -4.17774 -1.16823 0
M  V30 8751 H 844.801 -4.83451 -2.66418 0
M  V30 8752 H 847.277 -2.92968 -2.95481 0
M  V30 8753 H 846.153 -3.53665 -4.19777 0
M  V30 8754 H 846.414 -1.80726 -4.03473 0
M  V30 8755 N 845.473 0.80434 -1.35529 0
M  V30 8756 C 846.383 1.94784 -1.30753 0
M  V30 8757 C 847.399 1.72703 -0.212071 0
M  V30 8758 O 848.575 1.96494 -0.441841 0
M  V30 8759 C 845.64 3.29406 -1.08133 0
M  V30 8760 C 844.701 3.64367 -2.27013 0
M  V30 8761 C 843.934 4.92566 -2.05463 0
M  V30 8762 O 844.157 5.61166 -1.02222 0
M  V30 8763 O 843.091 5.25838 -2.92879 0
M  V30 8764 H 846.917 2.01761 -2.26994 0
M  V30 8765 H 844.502 0.942448 -1.15924 0
M  V30 8766 H 846.384 4.09995 -0.973756 0
M  V30 8767 H 845.059 3.23355 -0.149444 0
M  V30 8768 H 843.966 2.84146 -2.43335 0
M  V30 8769 H 845.299 3.75125 -3.18656 0
M  V30 8770 N 846.951 1.19563 1.02676 0
M  V30 8771 C 848.362 1.00158 1.57561 0
M  V30 8772 C 848.713 -0.444922 1.91089 0
M  V30 8773 O 847.838 -1.32466 1.71119 0
M  V30 8774 C 848.433 1.81181 2.86284 0
M  V30 8775 C 846.992 1.66171 3.37734 0
M  V30 8776 C 846.139 1.7975 2.11152 0
M  V30 8777 H 849.09 1.33904 0.85179 0
M  V30 8778 H 849.111 1.30916 3.57269 0
M  V30 8779 H 848.623 2.86454 2.6185 0
M  V30 8780 H 846.724 0.634927 3.6715 0
M  V30 8781 H 846.837 2.46832 4.10622 0
M  V30 8782 H 845.201 1.22833 2.23123 0
M  V30 8783 H 845.984 2.86487 1.89157 0
M  V30 8784 N 848.429 -1.21819 0.999893 0
M  V30 8785 C 849.376 -2.24003 0.556005 0
M  V30 8786 C 850.346 -1.60825 -0.415287 0
M  V30 8787 O 851.531 -1.88123 -0.318481 0
M  V30 8788 C 848.671 -3.44904 -0.116289 0
M  V30 8789 C 847.784 -4.22573 0.897574 0
M  V30 8790 C 846.919 -5.30831 0.198073 0
M  V30 8791 C 845.958 -6.00225 1.19983 0
M  V30 8792 N 845.095 -7.00111 0.528157 0
M  V30 8793 H 849.935 -2.61334 1.43208 0
M  V30 8794 H 847.472 -1.28431 0.717205 0
M  V30 8795 H 849.43 -4.13908 -0.523055 0
M  V30 8796 H 848.06 -3.08315 -0.956108 0
M  V30 8797 H 847.112 -3.52797 1.42262 0
M  V30 8798 H 848.424 -4.70363 1.66013 0
M  V30 8799 H 847.578 -6.06121 -0.265065 0
M  V30 8800 H 846.317 -4.84033 -0.596924 0
M  V30 8801 H 845.322 -5.23711 1.67353 0
M  V30 8802 H 846.547 -6.4911 1.99582 0
M  V30 8803 H 844.493 -6.55534 -0.247276 0
M  V30 8804 H 844.41 -7.45943 1.22904 0
M  V30 8805 H 845.678 -7.7945 0.0880543 0
M  V30 8806 N 849.908 -0.773975 -1.37286 0
M  V30 8807 C 850.855 -0.159938 -2.30245 0
M  V30 8808 C 851.825 0.687356 -1.51211 0
M  V30 8809 O 853.01 0.639255 -1.79773 0
M  V30 8810 C 850.15 0.711452 -3.37687 0
M  V30 8811 C 849.263 -0.152692 -4.3173 0
M  V30 8812 C 848.398 0.723613 -5.26248 0
M  V30 8813 C 847.437 -0.14293 -6.11933 0
M  V30 8814 N 846.574 0.691479 -6.98687 0
M  V30 8815 H 851.414 -0.958182 -2.82175 0
M  V30 8816 H 848.951 -0.48411 -1.38906 0
M  V30 8817 H 850.909 1.2315 -3.9861 0
M  V30 8818 H 849.539 1.47528 -2.87116 0
M  V30 8819 H 848.591 -0.790574 -3.72094 0
M  V30 8820 H 849.903 -0.821027 -4.91997 0
M  V30 8821 H 849.057 1.31006 -5.92387 0
M  V30 8822 H 847.796 1.42562 -4.66398 0
M  V30 8823 H 846.801 -0.7419 -5.44771 0
M  V30 8824 H 848.026 -0.842305 -6.73856 0
M  V30 8825 H 845.972 1.37806 -6.41362 0
M  V30 8826 H 845.889 0.0804911 -7.55957 0
M  V30 8827 H 847.157 1.26225 -7.69212 0
M  V30 8828 N 851.386 1.48609 -0.524698 0
M  V30 8829 C 852.626 2.04398 0.00938367 0
M  V30 8830 C 852.99 1.39355 1.32077 0
M  V30 8831 O 854.191 1.86 1.94055 0
M  V30 8832 C 852.462 3.57148 0.134318 0
M  V30 8833 S 854.021 4.34409 0.619227 0
M  V30 8834 H 850.839 0.710936 -0.00953362 0
M  V30 8835 H 853.441 1.82382 -0.704058 0
M  V30 8836 H 852.145 4.02022 -0.825027 0
M  V30 8837 H 851.676 3.83607 0.872296 0
M  V30 8838 H 853.691 4.59017 1.88462 0
M  V30 8839 N 852.864 0.259585 1.55447 0
M  V30 8840 C 854.275 -0.241165 1.85136 0
M  V30 8841 C 854.626 -1.56634 1.18153 0
M  V30 8842 O 853.751 -2.11359 0.464351 0
M  V30 8843 C 854.346 -0.444355 3.35873 0
M  V30 8844 C 852.905 -0.889354 3.65742 0
M  V30 8845 C 852.052 0.0262474 2.77288 0
M  V30 8846 H 855.003 0.481808 1.51209 0
M  V30 8847 H 855.024 -1.28517 3.58139 0
M  V30 8848 H 854.536 0.520289 3.84597 0
M  V30 8849 H 852.637 -1.86602 3.22507 0
M  V30 8850 H 852.75 -0.737432 4.73391 0
M  V30 8851 H 851.114 -0.487361 2.49994 0
M  V30 8852 H 851.897 0.986494 3.28821 0
M  V30 8853 N 854.342 -1.57594 -0.0133615 0
M  V30 8854 C 855.59 -1.89605 -0.699596 0
M  V30 8855 C 855.911 -0.85926 -1.75048 0
M  V30 8856 O 855.181 0.105112 -1.95618 0
M  V30 8857 H 853.761 -0.699776 -0.261385 0
M  V30 8858 H 856.423 -1.94885 0.0244044 0
M  V30 8859 H 855.519 -2.88962 -1.17928 0
M  V30 8860 N 855.82 0.285905 -1.54985 0
M  V30 8861 C 857.236 0.632405 -1.46536 0
M  V30 8862 C 857.436 1.90074 -0.668888 0
M  V30 8863 O 856.492 2.51839 -0.182586 0
M  V30 8864 C 857.805 0.771361 -2.90638 0
M  V30 8865 C 859.353 0.866262 -3.00774 0
M  V30 8866 C 859.828 1.0371 -4.46103 0
M  V30 8867 N 861.319 1.10294 -4.49877 0
M  V30 8868 C 862.054 1.25369 -5.59527 0
M  V30 8869 N 861.55 1.37246 -6.7907 0
M  V30 8870 N 863.343 1.28377 -5.47244 0
M  V30 8871 H 855.494 -0.547226 -2.0523 0
M  V30 8872 H 857.757 -0.183298 -0.930111 0
M  V30 8873 H 857.463 -0.0899485 -3.51585 0
M  V30 8874 H 857.337 1.65569 -3.3892 0
M  V30 8875 H 859.724 1.71805 -2.39931 0
M  V30 8876 H 859.805 -0.0424049 -2.55765 0
M  V30 8877 H 859.449 0.190021 -5.07544 0
M  V30 8878 H 859.379 1.96022 -4.88757 0
M  V30 8879 H 861.87 1.02407 -3.6376 0
M  V30 8880 H 862.183 1.48546 -7.58389 0
M  V30 8881 H 860.528 1.34274 -6.81906 0
M  V30 8882 H 863.719 1.1872 -4.52795 0
M  V30 8883 H 863.892 1.39782 -6.32744 0
M  V30 8884 N 857.298 1.47698 0.54982 0
M  V30 8885 C 858.544 1.54931 1.30859 0
M  V30 8886 C 858.877 0.214021 1.93017 0
M  V30 8887 O 858.152 -0.778093 1.78258 0
M  V30 8888 C 858.435 2.67286 2.41309 0
M  V30 8889 C 858.288 4.10457 1.83971 0
M  V30 8890 C 859.607 2.75509 3.43195 0
M  V30 8891 H 856.726 0.56399 0.474431 0
M  V30 8892 H 859.368 1.79787 0.614541 0
M  V30 8893 H 857.518 2.46224 3.0051 0
M  V30 8894 H 859.19 4.42903 1.28974 0
M  V30 8895 H 857.433 4.18387 1.14606 0
M  V30 8896 H 858.104 4.84857 2.63851 0
M  V30 8897 H 860.58 2.94531 2.93923 0
M  V30 8898 H 859.456 3.55886 4.17895 0
M  V30 8899 H 859.717 1.82863 4.02509 0
M  V30 8900 N 858.776 -0.797141 1.35954 0
M  V30 8901 C 860.022 -1.55698 1.29946 0
M  V30 8902 C 860.355 -1.93808 -0.123259 0
M  V30 8903 O 859.63 -1.62102 -1.07486 0
M  V30 8904 C 859.913 -2.83926 2.2149 0
M  V30 8905 C 859.766 -2.52232 3.72423 0
M  V30 8906 C 861.085 -3.85698 2.11955 0
M  V30 8907 H 858.204 -0.56488 0.47337 0
M  V30 8908 H 860.846 -0.916421 1.66438 0
M  V30 8909 H 858.996 -3.38588 1.905 0
M  V30 8910 H 860.668 -2.0368 4.13899 0
M  V30 8911 H 858.911 -1.85286 3.92239 0
M  V30 8912 H 859.582 -3.43782 4.31877 0
M  V30 8913 H 862.058 -3.40462 2.39218 0
M  V30 8914 H 860.934 -4.73182 2.78191 0
M  V30 8915 H 861.195 -4.28083 1.10442 0
M  V30 8916 N 860.254 -1.20106 -1.0204 0
M  V30 8917 C 861.502 -1.0069 -1.75231 0
M  V30 8918 C 861.823 0.462491 -1.89436 0
M  V30 8919 O 861.093 1.33455 -1.4341 0
M  V30 8920 H 859.673 -0.369576 -0.649171 0
M  V30 8921 H 862.335 -1.51149 -1.23044 0
M  V30 8922 H 861.431 -1.46205 -2.75736 0
M  V30 8923 N 861.732 1.21287 -1.00634 0
M  V30 8924 C 862.98 1.90013 -0.688438 0
M  V30 8925 C 863.301 1.78573 0.783365 0
M  V30 8926 O 862.571 1.1815 1.56261 0
M  V30 8927 H 861.151 0.703336 -0.251648 0
M  V30 8928 H 863.813 1.47346 -1.27574 0
M  V30 8929 H 862.909 2.96879 -0.962781 0
M  V30 8930 N 863.21 0.781244 1.36873 0
M  V30 8931 C 864.45 0.355185 2.0129 0
M  V30 8932 C 864.814 -1.05115 1.6067 0
M  V30 8933 O 866.015 -1.57785 2.17618 0
M  V30 8934 C 864.286 0.504587 3.5382 0
M  V30 8935 S 865.845 0.165196 4.38489 0
M  V30 8936 H 862.663 0.136133 0.697846 0
M  V30 8937 H 865.265 1.01794 1.66908 0
M  V30 8938 H 863.969 1.52857 3.80871 0
M  V30 8939 H 863.5 -0.174392 3.93013 0
M  V30 8940 H 865.515 -1.03605 4.85263 0
M  V30 8941 N 864.689 -1.48329 0.532571 0
M  V30 8942 C 865.935 -2.028 -0.000583219 0
M  V30 8943 C 866.268 -1.40858 -1.33688 0
M  V30 8944 O 865.543 -0.555261 -1.86406 0
M  V30 8945 C 865.826 -3.59901 -0.119846 0
M  V30 8946 C 865.679 -4.32318 1.2418 0
M  V30 8947 C 866.998 -4.31904 -0.845372 0
M  V30 8948 H 864.117 -0.736999 0.00126205 0
M  V30 8949 H 866.759 -1.77024 0.690102 0
M  V30 8950 H 864.909 -3.81993 -0.708092 0
M  V30 8951 H 866.581 -4.21637 1.87136 0
M  V30 8952 H 864.824 -3.93635 1.82301 0
M  V30 8953 H 865.495 -5.40697 1.11132 0
M  V30 8954 H 867.971 -4.14658 -0.346159 0
M  V30 8955 H 866.847 -5.41509 -0.897723 0
M  V30 8956 H 867.108 -3.99369 -1.89622 0
M  V30 8957 N 866.167 -0.267825 -1.55308 0
M  V30 8958 C 867.13 0.60965 -2.20943 0
M  V30 8959 C 868.13 1.0869 -1.18504 0
M  V30 8960 O 869.32 0.988248 -1.43455 0
M  V30 8961 C 866.452 1.84027 -2.86961 0
M  V30 8962 H 867.645 0.0366806 -2.99878 0
M  V30 8963 H 865.198 -0.0183941 -1.56289 0
M  V30 8964 H 865.933 2.45394 -2.1202 0
M  V30 8965 H 865.718 1.50605 -3.62023 0
M  V30 8966 H 867.208 2.46442 -3.37129 0
M  V30 8967 N 867.645 1.57599 0.00500368 0
M  V30 8968 C 868.595 2.04585 1.00643 0
M  V30 8969 C 869.579 0.939622 1.30614 0
M  V30 8970 O 870.771 1.20342 1.29796 0
M  V30 8971 C 867.9 2.5486 2.30002 0
M  V30 8972 C 866.986 3.7235 2.03017 0
M  V30 8973 N 867.377 4.84218 1.46173 0
M  V30 8974 C 865.675 3.80185 2.33185 0
M  V30 8975 C 866.376 5.65688 1.35544 0
M  V30 8976 N 865.352 5.11536 1.83933 0
M  V30 8977 H 869.154 2.8849 0.561332 0
M  V30 8978 H 866.668 1.61026 0.210808 0
M  V30 8979 H 868.665 2.86794 3.0258 0
M  V30 8980 H 867.325 1.72372 2.75169 0
M  V30 8981 H 868.336 5.0517 1.1412 0
M  V30 8982 H 865.013 3.08543 2.81261 0
M  V30 8983 H 866.403 6.65588 0.918791 0
M  V30 8984 N 869.123 -0.277682 1.55134 0
M  V30 8985 C 870.534 -0.849063 1.66276 0
M  V30 8986 C 870.885 -1.87223 0.5867 0
M  V30 8987 O 870.01 -2.14676 -0.272635 0
M  V30 8988 C 870.605 -1.54681 3.01429 0
M  V30 8989 C 869.164 -2.06628 3.14614 0
M  V30 8990 C 868.311 -0.906748 2.62056 0
M  V30 8991 H 871.262 -0.0541357 1.58608 0
M  V30 8992 H 871.283 -2.41356 2.94156 0
M  V30 8993 H 870.795 -0.80189 3.79725 0
M  V30 8994 H 868.896 -2.84095 2.41082 0
M  V30 8995 H 869.009 -2.2848 4.2111 0
M  V30 8996 H 867.373 -1.29882 2.19095 0
M  V30 8997 H 868.156 -0.175414 3.42852 0
M  V30 8998 N 870.601 -1.47988 -0.541979 0
M  V30 8999 C 871.551 -1.58019 -1.64359 0
M  V30 9000 C 872.535 -0.438056 -1.54822 0
M  V30 9001 O 873.727 -0.688837 -1.63046 0
M  V30 9002 C 870.856 -1.61182 -3.03109 0
M  V30 9003 C 869.942 -2.80834 -3.17794 0
M  V30 9004 N 870.333 -4.05379 -3.02492 0
M  V30 9005 C 868.631 -2.77914 -3.48826 0
M  V30 9006 C 869.332 -4.85592 -3.20274 0
M  V30 9007 N 868.308 -4.18188 -3.47304 0
M  V30 9008 H 872.11 -2.52071 -1.5112 0
M  V30 9009 H 869.624 -1.44193 -0.747137 0
M  V30 9010 H 871.621 -1.66461 -3.82226 0
M  V30 9011 H 870.281 -0.682375 -3.17449 0
M  V30 9012 H 871.292 -4.36003 -2.79503 0
M  V30 9013 H 867.969 -1.94174 -3.69598 0
M  V30 9014 H 869.359 -5.94394 -3.13282 0
M  V30 9015 N 872.079 0.78992 -1.36375 0
M  V30 9016 C 873.304 1.58389 -1.33895 0
M  V30 9017 C 873.729 1.8794 0.0774934 0
M  V30 9018 O 873.087 1.4785 1.0493 0
M  V30 9019 C 873.135 2.88201 -2.16732 0
M  V30 9020 O 872.239 3.81778 -1.55946 0
M  V30 9021 H 871.58 0.480471 -0.458305 0
M  V30 9022 H 874.11 0.979119 -1.79651 0
M  V30 9023 H 874.12 3.37475 -2.29292 0
M  V30 9024 H 872.795 2.66019 -3.19698 0
M  V30 9025 H 871.372 3.40371 -1.52323 0
M  V30 9026 N 873.557 1.20646 1.01402 0
M  V30 9027 C 874.803 1.02974 1.75408 0
M  V30 9028 C 875.158 -0.433294 1.87458 0
M  V30 9029 O 874.451 -1.31741 1.39122 0
M  V30 9030 C 874.645 1.64991 3.17037 0
M  V30 9031 C 874.474 3.17174 3.18796 0
M  V30 9032 C 873.244 3.86165 3.2589 0
M  V30 9033 C 875.442 4.14369 3.04636 0
M  V30 9034 N 873.424 5.25614 3.1718 0
M  V30 9035 C 874.795 5.4051 3.03724 0
M  V30 9036 C 876.85 4.05534 2.88872 0
M  V30 9037 C 875.553 6.58836 2.88664 0
M  V30 9038 C 877.579 5.23486 2.75166 0
M  V30 9039 C 876.941 6.48535 2.74922 0
M  V30 9040 H 873.04 0.431068 0.65246 0
M  V30 9041 H 875.624 1.52858 1.20593 0
M  V30 9042 H 873.795 1.17688 3.70141 0
M  V30 9043 H 875.527 1.40612 3.79487 0
M  V30 9044 H 872.282 3.37038 3.32719 0
M  V30 9045 H 872.706 5.98625 3.16192 0
M  V30 9046 H 877.348 3.09661 2.87872 0
M  V30 9047 H 875.066 7.5488 2.88413 0
M  V30 9048 H 878.652 5.18464 2.63982 0
M  V30 9049 H 877.532 7.3827 2.64439 0
M  V30 9050 N 875.035 -1.20752 1.01276 0
M  V30 9051 C 876.446 -1.7175 0.732033 0
M  V30 9052 C 876.797 -1.8131 -0.749733 0
M  V30 9053 O 875.922 -1.47301 -1.58529 0
M  V30 9054 C 876.517 -3.11936 1.32217 0
M  V30 9055 C 875.076 -3.6026 1.09039 0
M  V30 9056 C 874.223 -2.37571 1.43022 0
M  V30 9057 H 877.174 -1.0582 1.1827 0
M  V30 9058 H 877.195 -3.73802 0.710771 0
M  V30 9059 H 876.707 -3.04946 2.40061 0
M  V30 9060 H 874.808 -3.72588 0.0294464 0
M  V30 9061 H 874.921 -4.45295 1.76775 0
M  V30 9062 H 873.285 -2.40128 0.849159 0
M  V30 9063 H 874.068 -2.33225 2.51915 0
M  V30 9064 N 876.513 -0.788492 -1.36457 0
M  V30 9065 C 877.759 -0.370067 -2.00005 0
M  V30 9066 C 878.114 1.0464 -1.61456 0
M  V30 9067 O 877.407 1.71277 -0.85876 0
M  V30 9068 C 877.601 -0.470255 -3.54293 0
M  V30 9069 C 877.43 -1.89492 -4.07827 0
M  V30 9070 C 876.2 -2.51932 -4.38016 0
M  V30 9071 C 878.398 -2.85692 -4.2765 0
M  V30 9072 N 876.38 -3.85997 -4.77368 0
M  V30 9073 C 877.751 -4.04588 -4.69796 0
M  V30 9074 C 879.806 -2.8276 -4.09818 0
M  V30 9075 C 878.509 -5.2096 -4.95977 0
M  V30 9076 C 880.535 -3.98319 -4.37145 0
M  V30 9077 C 879.897 -5.1596 -4.79547 0
M  V30 9078 H 875.996 -0.182813 -0.760331 0
M  V30 9079 H 878.58 -1.02589 -1.6548 0
M  V30 9080 H 876.751 0.155476 -3.88089 0
M  V30 9081 H 878.483 -0.0281643 -4.0469 0
M  V30 9082 H 875.238 -2.0342 -4.27688 0
M  V30 9083 H 875.662 -4.54971 -5.01329 0
M  V30 9084 H 880.304 -1.92971 -3.76194 0
M  V30 9085 H 878.022 -6.11335 -5.28483 0
M  V30 9086 H 881.608 -3.97411 -4.24919 0
M  V30 9087 H 880.488 -6.03893 -5.00283 0
M  V30 9088 N 877.991 1.48044 -0.54043 0
M  V30 9089 C 878.923 2.2779 0.253854 0
M  V30 9090 C 879.936 1.35999 0.894883 0
M  V30 9091 O 881.125 1.60963 0.771563 0
M  V30 9092 C 878.225 3.09724 1.37566 0
M  V30 9093 C 877.398 4.29364 0.83459 0
M  V30 9094 C 876.457 4.93026 1.83881 0
M  V30 9095 O 875.483 5.51927 1.39159 0
M  V30 9096 N 876.685 4.86207 3.17149 0
M  V30 9097 H 879.45 2.96597 -0.430125 0
M  V30 9098 H 877.011 1.57487 -0.375423 0
M  V30 9099 H 879.003 3.49181 2.04584 0
M  V30 9100 H 877.573 2.43269 1.96314 0
M  V30 9101 H 876.793 3.94198 -0.0118878 0
M  V30 9102 H 878.081 5.06787 0.452155 0
M  V30 9103 H 877.479 4.39523 3.56141 0
M  V30 9104 H 876.036 5.29733 3.79771 0
M  V30 9105 N 879.47 0.276058 1.55163 0
M  V30 9106 C 880.716 -0.340959 1.99913 0
M  V30 9107 C 881.049 -1.55434 1.16422 0
M  V30 9108 O 880.324 -1.93081 0.234517 0
M  V30 9109 C 880.607 -0.722211 3.52783 0
M  V30 9110 C 880.46 0.498575 4.47028 0
M  V30 9111 C 881.779 -1.5583 4.11589 0
M  V30 9112 H 878.898 -0.122455 0.726756 0
M  V30 9113 H 881.54 0.38319 1.86096 0
M  V30 9114 H 879.69 -1.33919 3.64689 0
M  V30 9115 H 881.362 1.13713 4.47065 0
M  V30 9116 H 879.605 1.13646 4.18649 0
M  V30 9117 H 880.276 0.188041 5.5168 0
M  V30 9118 H 882.752 -1.03722 4.02965 0
M  V30 9119 H 881.628 -1.79387 5.1876 0
M  V30 9120 H 881.889 -2.53963 3.61877 0
M  V30 9121 N 880.948 -1.576 0.00335426 0
M  V30 9122 C 882.173 -1.95398 -0.695311 0
M  V30 9123 C 882.598 -0.878476 -1.66326 0
M  V30 9124 O 881.956 0.163086 -1.80565 0
M  V30 9125 C 882.004 -3.32293 -1.40049 0
M  V30 9126 O 881.108 -3.26834 -2.51502 0
M  V30 9127 H 880.449 -0.637796 -0.184694 0
M  V30 9128 H 882.979 -2.04519 0.057543 0
M  V30 9129 H 882.989 -3.67936 -1.76316 0
M  V30 9130 H 881.664 -4.10123 -0.690803 0
M  V30 9131 H 880.241 -3.02872 -2.17539 0
M  V30 9132 N 882.426 0.269451 -1.5528 0
M  V30 9133 C 883.356 1.33729 -1.91413 0
M  V30 9134 C 884.337 1.51348 -0.776391 0
M  V30 9135 O 885.522 1.64332 -1.03482 0
M  V30 9136 C 882.652 2.69618 -2.18914 0
M  V30 9137 C 881.606 2.66725 -3.34726 0
M  V30 9138 C 880.932 4.06199 -3.47716 0
M  V30 9139 C 882.232 2.25684 -4.71025 0
M  V30 9140 H 883.926 1.03736 -2.80854 0
M  V30 9141 H 881.472 0.497579 -1.3513 0
M  V30 9142 H 883.425 3.44436 -2.42779 0
M  V30 9143 H 882.149 3.01201 -1.26275 0
M  V30 9144 H 880.808 1.94365 -3.10834 0
M  V30 9145 H 880.456 4.3501 -2.52537 0
M  V30 9146 H 880.156 4.05157 -4.25583 0
M  V30 9147 H 881.68 4.8275 -3.73877 0
M  V30 9148 H 883.094 2.90225 -4.94411 0
M  V30 9149 H 881.491 2.35797 -5.51833 0
M  V30 9150 H 882.561 1.20819 -4.69607 0
M  V30 9151 N 883.904 1.48273 0.534124 0
M  V30 9152 C 885.32 1.34302 0.862272 0
M  V30 9153 C 885.52 0.350902 1.98421 0
M  V30 9154 O 884.576 -0.229364 2.51456 0
M  V30 9155 C 885.889 2.74227 1.23371 0
M  V30 9156 C 887.437 2.82684 1.34383 0
M  V30 9157 C 887.912 4.23301 1.74871 0
M  V30 9158 N 889.403 4.25954 1.81981 0
M  V30 9159 C 890.138 5.31693 2.14686 0
M  V30 9160 N 889.634 6.47714 2.45844 0
M  V30 9161 N 891.427 5.19084 2.15657 0
M  V30 9162 H 883.578 2.11397 -0.206215 0
M  V30 9163 H 885.841 0.947537 -0.0296116 0
M  V30 9164 H 885.547 3.48368 0.482967 0
M  V30 9165 H 885.421 3.07485 2.18478 0
M  V30 9166 H 887.808 2.08801 2.08534 0
M  V30 9167 H 887.889 2.5305 0.374063 0
M  V30 9168 H 887.533 4.97699 1.01282 0
M  V30 9169 H 887.463 4.50376 2.7289 0
M  V30 9170 H 889.954 3.42266 1.60196 0
M  V30 9171 H 890.267 7.2414 2.69892 0
M  V30 9172 H 888.612 6.50995 2.43372 0
M  V30 9173 H 891.803 4.27463 1.9077 0
M  V30 9174 H 891.976 6.01592 2.40813 0
M  V30 9175 N 885.382 -0.782676 1.36792 0
M  V30 9176 C 886.61 -1.57162 1.34565 0
M  V30 9177 C 887.025 -1.88664 -0.0715501 0
M  V30 9178 O 886.382 -1.50633 -1.03033 0
M  V30 9179 C 886.433 -2.88854 2.1736 0
M  V30 9180 O 886.154 -2.58707 3.53557 0
M  V30 9181 C 887.655 -3.83132 2.2299 0
M  V30 9182 H 884.875 -0.487245 0.461338 0
M  V30 9183 H 887.419 -0.970905 1.79982 0
M  V30 9184 H 885.574 -3.45377 1.7548 0
M  V30 9185 H 885.988 -3.42961 3.96835 0
M  V30 9186 H 887.462 -4.72575 2.85266 0
M  V30 9187 H 887.939 -4.21472 1.23524 0
M  V30 9188 H 888.545 -3.32541 2.65135 0
M  V30 9189 N 886.86 -1.21182 -1.00761 0
M  V30 9190 C 888.276 -0.968607 -1.26847 0
M  V30 9191 C 888.476 0.346561 -1.98497 0
M  V30 9192 O 887.532 1.07287 -2.28573 0
M  V30 9193 C 888.845 -2.1574 -2.09467 0
M  V30 9194 C 890.393 -2.19937 -2.22703 0
M  V30 9195 C 890.868 -3.38328 -3.08704 0
M  V30 9196 N 892.359 -3.38398 -3.16293 0
M  V30 9197 C 893.094 -4.26653 -3.83086 0
M  V30 9198 N 892.59 -5.25101 -4.5193 0
M  V30 9199 N 894.383 -4.14469 -3.797 0
M  V30 9200 H 886.534 -2.05763 -0.526816 0
M  V30 9201 H 888.797 -0.90087 -0.29519 0
M  V30 9202 H 888.503 -3.11034 -1.64167 0
M  V30 9203 H 888.377 -2.14584 -3.10216 0
M  V30 9204 H 890.764 -1.25201 -2.67224 0
M  V30 9205 H 890.845 -2.25139 -1.21433 0
M  V30 9206 H 890.489 -4.33356 -2.64886 0
M  V30 9207 H 890.419 -3.30364 -4.10082 0
M  V30 9208 H 892.91 -2.67149 -2.67282 0
M  V30 9209 H 893.223 -5.8875 -5.00592 0
M  V30 9210 H 891.568 -5.29029 -4.50726 0
M  V30 9211 H 894.759 -3.3682 -3.25069 0
M  V30 9212 H 894.932 -4.83458 -4.31477 0
M  V30 9213 N 888.338 1.20213 -1.01915 0
M  V30 9214 C 889.585 1.89647 -0.709955 0
M  V30 9215 C 889.913 1.7901 0.760631 0
M  V30 9216 O 889.168 1.17028 1.56853 0
M  V30 9217 C 889.467 3.40232 -1.09438 0
M  V30 9218 C 889.133 3.7107 -2.5616 0
M  V30 9219 C 887.795 3.79196 -2.96249 0
M  V30 9220 C 890.147 3.85169 -3.51133 0
M  V30 9221 C 887.475 3.98882 -4.30244 0
M  V30 9222 C 889.827 4.06365 -4.8482 0
M  V30 9223 C 888.491 4.12722 -5.24611 0
M  V30 9224 H 887.761 0.693967 -0.259791 0
M  V30 9225 H 890.408 1.42419 -1.2802 0
M  V30 9226 H 888.713 3.89292 -0.442596 0
M  V30 9227 H 890.41 3.92257 -0.832811 0
M  V30 9228 H 887 3.65346 -2.24099 0
M  V30 9229 H 891.184 3.78243 -3.21319 0
M  V30 9230 H 886.44 4.02039 -4.60624 0
M  V30 9231 H 890.614 4.16216 -5.58334 0
M  V30 9232 H 888.241 4.27728 -6.28453 0
M  V30 9233 N 889.816 0.795718 1.36037 0
M  V30 9234 C 891.064 0.370291 1.98679 0
M  V30 9235 C 891.385 -1.06332 1.63458 0
M  V30 9236 O 890.655 -1.73394 0.911671 0
M  V30 9237 H 889.235 0.133928 0.734896 0
M  V30 9238 H 891.897 1.01915 1.6613 0
M  V30 9239 H 890.993 0.467207 3.08583 0
M  V30 9240 N 891.294 -1.47756 0.548274 0
M  V30 9241 C 892.227 -2.26804 -0.252059 0
M  V30 9242 C 893.205 -1.3349 -0.928389 0
M  V30 9243 O 894.389 -1.6286 -0.949156 0
M  V30 9244 C 891.516 -3.10266 -1.35841 0
M  V30 9245 C 890.562 -4.1909 -0.791578 0
M  V30 9246 S 891.395 -5.34323 0.354878 0
M  V30 9247 C 892.551 -6.21348 -0.753511 0
M  V30 9248 H 892.784 -2.94336 0.418744 0
M  V30 9249 H 890.317 -1.50735 0.334413 0
M  V30 9250 H 892.275 -3.58925 -1.99207 0
M  V30 9251 H 890.936 -2.42112 -2.00101 0
M  V30 9252 H 890.129 -4.77183 -1.62212 0
M  V30 9253 H 889.731 -3.73266 -0.234274 0
M  V30 9254 H 892.023 -6.57156 -1.6478 0
M  V30 9255 H 892.966 -7.07788 -0.210141 0
M  V30 9256 H 893.374 -5.54797 -1.04216 0
M  V30 9257 N 892.772 -0.284283 -1.55015 0
M  V30 9258 C 893.722 0.613913 -2.19579 0
M  V30 9259 C 894.706 1.11153 -1.16335 0
M  V30 9260 O 895.898 1.05508 -1.42116 0
M  V30 9261 C 893.027 1.79329 -2.92739 0
M  V30 9262 C 892.113 1.31242 -4.03282 0
M  V30 9263 N 892.504 0.548344 -5.02819 0
M  V30 9264 C 890.802 1.5946 -4.1652 0
M  V30 9265 C 891.503 0.294358 -5.80955 0
M  V30 9266 N 890.479 0.869406 -5.36603 0
M  V30 9267 H 894.281 0.0224088 -2.93891 0
M  V30 9268 H 891.795 -0.0882619 -1.6216 0
M  V30 9269 H 893.792 2.44814 -3.37449 0
M  V30 9270 H 892.452 2.38865 -2.1994 0
M  V30 9271 H 893.463 0.194812 -5.17533 0
M  V30 9272 H 890.14 2.19866 -3.54916 0
M  V30 9273 H 891.53 -0.318195 -6.71146 0
M  V30 9274 N 894.251 1.57596 -0.0117121 0
M  V30 9275 C 895.498 1.91071 0.670667 0
M  V30 9276 C 895.826 0.886457 1.73125 0
M  V30 9277 O 895.081 -0.107135 1.95407 0
M  V30 9278 C 895.38 3.31296 1.34082 0
M  V30 9279 C 895.046 4.49011 0.412305 0
M  V30 9280 C 893.708 4.80945 0.156691 0
M  V30 9281 C 896.06 5.20709 -0.226294 0
M  V30 9282 C 893.388 5.81943 -0.745619 0
M  V30 9283 C 895.74 6.22668 -1.11655 0
M  V30 9284 C 894.404 6.53053 -1.38123 0
M  V30 9285 H 893.674 0.69918 0.245415 0
M  V30 9286 H 896.321 1.91373 -0.0697511 0
M  V30 9287 H 894.626 3.27174 2.15557 0
M  V30 9288 H 896.323 3.54461 1.87506 0
M  V30 9289 H 892.913 4.24067 0.621705 0
M  V30 9290 H 897.097 4.96282 -0.0418456 0
M  V30 9291 H 892.353 6.03839 -0.958566 0
M  V30 9292 H 896.527 6.77351 -1.61767 0
M  V30 9293 H 894.154 7.31132 -2.08208 0
M  V30 9294 N 895.729 -0.261212 1.5542 0
M  V30 9295 C 896.969 -0.998748 1.78338 0
M  V30 9296 C 897.333 -1.83064 0.578914 0
M  V30 9297 O 898.534 -2.59884 0.686575 0
M  V30 9298 C 896.805 -1.84828 3.05898 0
M  V30 9299 S 898.364 -2.64686 3.49981 0
M  V30 9300 H 895.182 -0.33619 0.626496 0
M  V30 9301 H 897.784 -0.26799 1.93655 0
M  V30 9302 H 896.488 -1.22658 3.91642 0
M  V30 9303 H 896.019 -2.62203 2.9328 0
M  V30 9304 H 898.034 -3.87299 3.10184 0
M  V30 9305 N 897.207 -1.48554 -0.526253 0
M  V30 9306 C 898.455 -1.56452 -1.27935 0
M  V30 9307 C 898.776 -0.24184 -1.93495 0
M  V30 9308 O 898.046 0.736917 -1.81511 0
M  V30 9309 H 896.626 -0.576379 -0.47518 0
M  V30 9310 H 899.288 -1.85039 -0.612083 0
M  V30 9311 H 898.384 -2.34751 -2.05666 0
M  V30 9312 N 898.685 0.775411 -1.37205 0
M  V30 9313 C 899.933 1.53081 -1.3195 0
M  V30 9314 C 900.254 1.9476 0.0966864 0
M  V30 9315 O 899.524 1.66019 1.03993 0
M  V30 9316 H 898.104 0.567762 -0.485444 0
M  V30 9317 H 900.766 0.92309 -1.71654 0
M  V30 9318 H 899.862 2.4319 -1.95614 0
M  V30 9319 N 900.163 1.21714 1.00117 0
M  V30 9320 C 901.391 1.06278 1.77518 0
M  V30 9321 C 901.806 -0.387193 1.84787 0
M  V30 9322 O 901.163 -1.26854 1.31203 0
M  V30 9323 C 901.214 1.65795 3.21239 0
M  V30 9324 O 900.935 3.05119 3.14378 0
M  V30 9325 C 902.436 1.55521 4.15124 0
M  V30 9326 H 899.656 0.373013 0.557765 0
M  V30 9327 H 902.2 1.61133 1.25922 0
M  V30 9328 H 900.355 1.15022 3.69931 0
M  V30 9329 H 900.769 3.33643 4.04701 0
M  V30 9330 H 902.243 2.01902 5.13751 0
M  V30 9331 H 902.72 0.510307 4.36225 0
M  V30 9332 H 903.326 2.0556 3.72324 0
M  V30 9333 N 901.641 -1.19671 1.02551 0
M  V30 9334 C 902.571 -2.25009 0.623965 0
M  V30 9335 C 903.552 -1.66129 -0.36538 0
M  V30 9336 O 904.737 -1.92599 -0.248842 0
M  V30 9337 C 901.867 -3.47287 -0.0294869 0
M  V30 9338 C 900.821 -4.18818 0.881781 0
M  V30 9339 C 900.147 -5.34618 0.0936189 0
M  V30 9340 C 901.447 -4.73986 2.19396 0
M  V30 9341 H 903.141 -2.58851 1.50454 0
M  V30 9342 H 900.687 -1.24425 0.724872 0
M  V30 9343 H 902.64 -4.20168 -0.322016 0
M  V30 9344 H 901.364 -3.12635 -0.944838 0
M  V30 9345 H 900.023 -3.47815 1.15845 0
M  V30 9346 H 899.671 -4.9621 -0.823661 0
M  V30 9347 H 899.371 -5.83409 0.700568 0
M  V30 9348 H 900.895 -6.10297 -0.192249 0
M  V30 9349 H 902.309 -5.38639 1.96319 0
M  V30 9350 H 900.706 -5.3325 2.75254 0
M  V30 9351 H 901.776 -3.92238 2.85092 0
M  V30 9352 N 903.119 -0.802921 -1.35613 0
M  V30 9353 C 904.368 -0.378087 -1.98125 0
M  V30 9354 C 904.681 1.05953 -1.64418 0
M  V30 9355 O 905.887 1.58729 -2.20266 0
M  V30 9356 C 904.343 -0.625077 -3.5443 0
M  V30 9357 C 903.951 -2.07499 -3.97049 0
M  V30 9358 C 905.695 -0.265419 -4.23669 0
M  V30 9359 C 903.602 -2.26793 -5.46186 0
M  V30 9360 H 902.532 -0.137633 -0.741332 0
M  V30 9361 H 905.183 -0.986461 -1.54729 0
M  V30 9362 H 903.565 0.0531975 -3.95964 0
M  V30 9363 H 904.739 -2.79077 -3.66678 0
M  V30 9364 H 903.054 -2.39417 -3.40688 0
M  V30 9365 H 905.651 -0.387669 -5.33293 0
M  V30 9366 H 905.994 0.787994 -4.08774 0
M  V30 9367 H 906.527 -0.897464 -3.87544 0
M  V30 9368 H 903.266 -3.30566 -5.66045 0
M  V30 9369 H 902.786 -1.59735 -5.78139 0
M  V30 9370 H 904.465 -2.08165 -6.12598 0
M  V30 9371 N 904.597 1.47463 -0.556102 0
M  V30 9372 C 905.822 2.07371 -0.0344729 0
M  V30 9373 C 906.247 1.40621 1.2493 0
M  V30 9374 O 905.605 0.48082 1.74808 0
M  V30 9375 C 905.653 3.60306 0.145563 0
M  V30 9376 O 904.757 3.94299 1.20839 0
M  V30 9377 H 904.098 0.662052 -0.0508274 0
M  V30 9378 H 906.628 1.89498 -0.771469 0
M  V30 9379 H 906.638 4.06408 0.360112 0
M  V30 9380 H 905.313 4.08288 -0.792089 0
M  V30 9381 H 903.89 3.59944 0.97442 0
M  V30 9382 N 906.075 0.2925 1.54862 0
M  V30 9383 C 907.486 -0.201841 1.85606 0
M  V30 9384 C 907.837 -1.54093 1.21449 0
M  V30 9385 O 906.962 -2.10327 0.509079 0
M  V30 9386 C 907.557 -0.373011 3.3674 0
M  V30 9387 C 906.116 -0.811574 3.67547 0
M  V30 9388 C 905.263 0.0850583 2.7717 0
M  V30 9389 H 908.214 0.513774 1.50153 0
M  V30 9390 H 908.235 -1.20892 3.60785 0
M  V30 9391 H 907.747 0.601751 3.83407 0
M  V30 9392 H 905.848 -1.79719 3.26392 0
M  V30 9393 H 905.961 -0.636853 4.74848 0
M  V30 9394 H 904.325 -0.434224 2.50971 0
M  V30 9395 H 905.108 1.05602 3.26654 0
M  V30 9396 N 907.553 -1.57587 0.0200696 0
M  V30 9397 C 908.463 -2.13119 -0.980676 0
M  V30 9398 C 909.479 -1.08124 -1.36328 0
M  V30 9399 O 910.655 -1.40134 -1.44653 0
M  V30 9400 C 907.72 -2.63991 -2.24743 0
M  V30 9401 C 906.781 -3.83667 -1.9261 0
M  V30 9402 C 906.014 -4.32103 -3.13246 0
M  V30 9403 O 906.237 -3.79758 -4.25606 0
M  V30 9404 O 905.171 -5.24047 -2.96072 0
M  V30 9405 H 908.997 -2.98887 -0.538528 0
M  V30 9406 H 906.582 -1.48055 -0.19999 0
M  V30 9407 H 908.464 -2.9682 -2.99125 0
M  V30 9408 H 907.139 -1.81311 -2.68157 0
M  V30 9409 H 906.046 -3.55778 -1.15641 0
M  V30 9410 H 907.379 -4.67482 -1.54019 0
M  V30 9411 N 909.032 0.252966 -1.55557 0
M  V30 9412 C 910.278 0.979092 -1.78284 0
M  V30 9413 C 910.633 1.83194 -0.588009 0
M  V30 9414 O 909.926 1.86965 0.418899 0
M  V30 9415 C 910.12 1.87785 -3.04091 0
M  V30 9416 C 909.949 1.11349 -4.35697 0
M  V30 9417 C 908.719 0.821038 -4.98585 0
M  V30 9418 C 910.917 0.494039 -5.11922 0
M  V30 9419 N 908.899 0.0319767 -6.13892 0
M  V30 9420 C 910.27 -0.159888 -6.19794 0
M  V30 9421 C 912.325 0.403894 -4.96259 0
M  V30 9422 C 911.028 -0.895295 -7.13706 0
M  V30 9423 C 913.054 -0.317968 -5.90545 0
M  V30 9424 C 912.416 -0.960555 -6.9782 0
M  V30 9425 H 908.515 0.339586 -0.704419 0
M  V30 9426 H 911.099 0.252801 -1.93052 0
M  V30 9427 H 909.27 2.57623 -2.90663 0
M  V30 9428 H 911.002 2.53908 -3.15139 0
M  V30 9429 H 907.757 1.13132 -4.59889 0
M  V30 9430 H 908.181 -0.35047 -6.76092 0
M  V30 9431 H 912.823 0.886366 -4.13405 0
M  V30 9432 H 910.541 -1.38939 -7.96066 0
M  V30 9433 H 914.127 -0.388302 -5.80503 0
M  V30 9434 H 913.007 -1.51022 -7.69521 0
M  V30 9435 N 910.51 1.48831 0.518367 0
M  V30 9436 C 911.756 1.57672 1.27543 0
M  V30 9437 C 912.089 0.254915 1.9252 0
M  V30 9438 O 911.364 -0.740107 1.79868 0
M  V30 9439 C 911.647 2.72345 2.35585 0
M  V30 9440 C 911.5 4.14267 1.75224 0
M  V30 9441 C 912.819 2.82726 3.37274 0
M  V30 9442 H 909.938 0.573926 0.462361 0
M  V30 9443 H 912.58 1.8105 0.576267 0
M  V30 9444 H 910.73 2.52543 2.95219 0
M  V30 9445 H 912.402 4.45539 1.19551 0
M  V30 9446 H 910.645 4.20724 1.05706 0
M  V30 9447 H 911.316 4.90345 2.53507 0
M  V30 9448 H 913.792 3.00699 2.8761 0
M  V30 9449 H 912.668 3.6467 4.10252 0
M  V30 9450 H 912.929 1.9136 3.9854 0
M  V30 9451 N 911.988 -0.768124 1.37614 0
M  V30 9452 C 912.918 -1.89537 1.36374 0
M  V30 9453 C 913.899 -1.68513 0.231803 0
M  V30 9454 O 915.084 -1.89318 0.432705 0
M  V30 9455 C 912.214 -3.26871 1.17358 0
M  V30 9456 C 911.168 -3.62466 2.27602 0
M  V30 9457 C 910.494 -4.9838 1.93705 0
M  V30 9458 C 911.794 -3.68841 3.69802 0
M  V30 9459 H 913.488 -1.90832 2.30702 0
M  V30 9460 H 911.034 -0.91672 1.11051 0
M  V30 9461 H 912.987 -4.05371 1.15119 0
M  V30 9462 H 911.711 -3.26018 0.194865 0
M  V30 9463 H 910.37 -2.86276 2.29002 0
M  V30 9464 H 910.018 -4.94071 0.943539 0
M  V30 9465 H 909.718 -5.23165 2.6753 0
M  V30 9466 H 911.242 -5.79276 1.93059 0
M  V30 9467 H 912.656 -4.37485 3.70513 0
M  V30 9468 H 911.053 -4.05126 4.42711 0
M  V30 9469 H 912.123 -2.69415 4.03167 0
M  V30 9470 N 913.466 -1.22244 -0.994698 0
M  V30 9471 C 914.694 -1.07218 -1.76952 0
M  V30 9472 C 915.109 0.377388 -1.8499 0
M  V30 9473 O 914.466 1.26157 -1.31874 0
M  V30 9474 C 914.517 -1.67496 -3.20355 0
M  V30 9475 O 914.238 -3.06782 -3.12756 0
M  V30 9476 C 915.739 -1.57721 -4.14294 0
M  V30 9477 H 912.959 -0.375966 -0.555779 0
M  V30 9478 H 915.503 -1.61799 -1.25065 0
M  V30 9479 H 913.658 -1.16982 -3.69315 0
M  V30 9480 H 914.072 -3.35784 -4.02926 0
M  V30 9481 H 915.546 -2.04623 -5.12673 0
M  V30 9482 H 916.023 -0.533434 -4.35949 0
M  V30 9483 H 916.629 -2.07531 -3.71229 0
M  V30 9484 N 914.944 1.19125 -1.03184 0
M  V30 9485 C 915.907 2.20662 -0.619766 0
M  V30 9486 C 916.907 1.57621 0.318179 0
M  V30 9487 O 918.097 1.73885 0.104783 0
M  V30 9488 C 915.229 3.40774 0.0926696 0
M  V30 9489 H 916.422 2.58633 -1.5182 0
M  V30 9490 H 913.975 1.32855 -0.823364 0
M  V30 9491 H 914.71 3.08324 1.00531 0
M  V30 9492 H 914.495 3.87766 -0.581344 0
M  V30 9493 H 915.985 4.15977 0.367792 0
M  V30 9494 N 916.422 0.810101 1.35185 0
M  V30 9495 C 917.385 0.22852 2.28058 0
M  V30 9496 C 918.385 -0.586168 1.49735 0
M  V30 9497 O 919.575 -0.40414 1.69447 0
M  V30 9498 C 916.707 -0.681041 3.34028 0
M  V30 9499 H 917.9 1.04768 2.81005 0
M  V30 9500 H 915.453 0.58101 1.451 0
M  V30 9501 H 916.188 -1.52375 2.86273 0
M  V30 9502 H 915.973 -0.0985276 3.91976 0
M  V30 9503 H 917.463 -1.08217 4.03335 0
M  V30 9504 N 917.9 -1.47166 0.563914 0
M  V30 9505 C 918.85 -2.27116 -0.20055 0
M  V30 9506 C 919.834 -1.34756 -0.879177 0
M  V30 9507 O 921.026 -1.59064 -0.776377 0
M  V30 9508 C 918.155 -3.20676 -1.22565 0
M  V30 9509 C 917.241 -4.20517 -0.550092 0
M  V30 9510 N 917.632 -5.04343 0.383662 0
M  V30 9511 C 915.93 -4.38708 -0.803186 0
M  V30 9512 C 916.631 -5.76491 0.776718 0
M  V30 9513 N 915.607 -5.43444 0.130047 0
M  V30 9514 H 919.409 -2.89312 0.517275 0
M  V30 9515 H 916.923 -1.57787 0.384334 0
M  V30 9516 H 918.92 -3.76643 -1.78733 0
M  V30 9517 H 917.58 -2.60038 -1.94449 0
M  V30 9518 H 918.591 -5.1232 0.758192 0
M  V30 9519 H 915.268 -3.89235 -1.51003 0
M  V30 9520 H 916.658 -6.5391 1.54437 0
M  V30 9521 N 919.378 -0.300708 -1.54705 0
M  V30 9522 C 920.618 0.30953 -2.02043 0
M  V30 9523 C 920.982 1.51114 -1.18442 0
M  V30 9524 O 922.183 2.19273 -1.55477 0
M  V30 9525 C 920.454 0.657489 -3.513 0
M  V30 9526 S 922.013 1.25063 -4.206 0
M  V30 9527 H 918.831 0.0950019 -0.704624 0
M  V30 9528 H 921.433 -0.428512 -1.90746 0
M  V30 9529 H 920.137 -0.225532 -4.0978 0
M  V30 9530 H 919.668 1.42633 -3.66633 0
M  V30 9531 H 921.683 2.53844 -4.26354 0
M  V30 9532 N 920.856 1.57574 -0.0284266 0
M  V30 9533 C 921.786 2.1321 0.952039 0
M  V30 9534 C 922.767 1.04806 1.33977 0
M  V30 9535 O 923.952 1.32635 1.41851 0
M  V30 9536 C 921.082 2.65862 2.23461 0
M  V30 9537 C 920.036 3.79047 1.98765 0
M  V30 9538 C 919.362 4.18124 3.33281 0
M  V30 9539 C 920.662 5.05151 1.32739 0
M  V30 9540 H 922.356 2.95385 0.488705 0
M  V30 9541 H 919.902 1.42092 0.233628 0
M  V30 9542 H 921.855 3.03417 2.92431 0
M  V30 9543 H 920.579 1.80848 2.71959 0
M  V30 9544 H 919.238 3.41929 1.32213 0
M  V30 9545 H 918.886 3.30092 3.79537 0
M  V30 9546 H 918.586 4.94396 3.17563 0
M  V30 9547 H 920.11 4.58262 4.0352 0
M  V30 9548 H 921.524 5.40297 1.91708 0
M  V30 9549 H 919.921 5.86416 1.27421 0
M  V30 9550 H 920.991 4.83969 0.300261 0
M  V30 9551 N 922.334 -0.244713 1.55689 0
M  V30 9552 C 923.244 -1.32447 1.93636 0
M  V30 9553 C 924.26 -1.52541 0.837086 0
M  V30 9554 O 925.436 -1.66121 1.13867 0
M  V30 9555 C 922.501 -2.65864 2.22525 0
M  V30 9556 C 921.562 -2.54273 3.45896 0
M  V30 9557 C 920.795 -3.81327 3.73397 0
M  V30 9558 O 921.018 -4.83307 3.02936 0
M  V30 9559 O 919.952 -3.79829 4.66919 0
M  V30 9560 H 923.778 -1.03255 2.85608 0
M  V30 9561 H 921.363 -0.445652 1.42598 0
M  V30 9562 H 923.245 -3.447 2.42404 0
M  V30 9563 H 921.92 -2.94784 1.33731 0
M  V30 9564 H 920.827 -1.73715 3.31321 0
M  V30 9565 H 922.16 -2.30297 4.34999 0
M  V30 9566 N 923.813 -1.49104 -0.510467 0
M  V30 9567 C 924.76 -1.65074 -1.61305 0
M  V30 9568 C 925.73 -0.492362 -1.58635 0
M  V30 9569 O 926.915 -0.718241 -1.76765 0
M  V30 9570 C 924.055 -1.71457 -2.99493 0
M  V30 9571 C 923.168 -2.98536 -3.12251 0
M  V30 9572 C 922.303 -2.95957 -4.41116 0
M  V30 9573 C 921.342 -4.17655 -4.47471 0
M  V30 9574 N 920.479 -4.13041 -5.67751 0
M  V30 9575 H 925.319 -2.59222 -1.46996 0
M  V30 9576 H 922.856 -1.28535 -0.715346 0
M  V30 9577 H 924.814 -1.7314 -3.79577 0
M  V30 9578 H 923.444 -0.807834 -3.12528 0
M  V30 9579 H 922.496 -3.06509 -2.25292 0
M  V30 9580 H 923.808 -3.88527 -3.12807 0
M  V30 9581 H 922.962 -2.96149 -5.2951 0
M  V30 9582 H 921.701 -2.03728 -4.4311 0
M  V30 9583 H 920.706 -4.17717 -3.57481 0
M  V30 9584 H 921.931 -5.11066 -4.472 0
M  V30 9585 H 919.877 -3.23643 -5.70606 0
M  V30 9586 H 919.794 -4.96757 -5.69884 0
M  V30 9587 H 921.062 -4.17322 -6.58379 0
M  V30 9588 N 925.291 0.760815 -1.38019 0
M  V30 9589 C 926.516 1.55513 -1.37224 0
M  V30 9590 C 926.941 1.88062 0.037611 0
M  V30 9591 O 926.299 1.50042 1.0177 0
M  V30 9592 C 926.347 2.83539 -2.22796 0
M  V30 9593 O 925.451 3.78384 -1.64009 0
M  V30 9594 H 924.792 0.470642 -0.468393 0
M  V30 9595 H 927.322 0.940792 -1.81687 0
M  V30 9596 H 927.332 3.32535 -2.36399 0
M  V30 9597 H 926.007 2.59178 -3.25269 0
M  V30 9598 H 924.584 3.37063 -1.59508 0
M  V30 9599 N 926.769 1.22769 0.988202 0
M  V30 9600 C 928.18 1.0512 1.54294 0
M  V30 9601 C 928.531 -0.383904 1.92407 0
M  V30 9602 O 927.656 -1.26955 1.75246 0
M  V30 9603 C 928.251 1.90198 2.80375 0
M  V30 9604 C 926.81 1.76831 3.32276 0
M  V30 9605 C 925.957 1.86377 2.05326 0
M  V30 9606 H 928.908 1.36546 0.808758 0
M  V30 9607 H 928.929 1.42216 3.52923 0
M  V30 9608 H 928.441 2.9464 2.52605 0
M  V30 9609 H 926.542 0.751412 3.64945 0
M  V30 9610 H 926.655 2.59771 4.02562 0
M  V30 9611 H 925.019 1.2987 2.19103 0
M  V30 9612 H 925.802 2.9236 1.79946 0
M  V30 9613 N 928.247 -1.18576 1.03814 0
M  V30 9614 C 929.663 -1.4051 0.756909 0
M  V30 9615 C 929.863 -1.9057 -0.654631 0
M  V30 9616 O 928.919 -2.0884 -1.41922 0
M  V30 9617 C 930.232 -2.4081 1.80087 0
M  V30 9618 C 931.78 -2.54541 1.82148 0
M  V30 9619 C 932.255 -3.58102 2.85529 0
M  V30 9620 N 933.746 -3.65607 2.84404 0
M  V30 9621 C 934.481 -4.45458 3.61047 0
M  V30 9622 N 933.977 -5.28937 4.47434 0
M  V30 9623 N 935.77 -4.40196 3.49548 0
M  V30 9624 H 927.921 -0.844075 1.94908 0
M  V30 9625 H 930.184 -0.433287 0.843188 0
M  V30 9626 H 929.89 -2.1107 2.81322 0
M  V30 9627 H 929.764 -3.4012 1.63089 0
M  V30 9628 H 932.151 -2.83598 0.815855 0
M  V30 9629 H 932.232 -1.55352 2.03223 0
M  V30 9630 H 931.876 -3.29786 3.86269 0
M  V30 9631 H 931.806 -4.56963 2.6171 0
M  V30 9632 H 934.297 -3.05994 2.21756 0
M  V30 9633 H 934.61 -5.8701 5.02632 0
M  V30 9634 H 932.955 -5.28366 4.51503 0
M  V30 9635 H 936.146 -3.74026 2.81464 0
M  V30 9636 H 936.319 -5.02186 4.09528 0
M  V30 9637 N 929.725 -0.817259 -1.34754 0
M  V30 9638 C 931.136 -0.462215 -1.80888 0
M  V30 9639 C 931.487 1.01685 -1.67794 0
M  V30 9640 O 930.612 1.79094 -1.21468 0
M  V30 9641 C 931.207 -0.832204 -3.2842 0
M  V30 9642 C 929.766 -0.52961 -3.72655 0
M  V30 9643 C 928.913 -1.05214 -2.56564 0
M  V30 9644 H 931.864 -1.00795 -1.22581 0
M  V30 9645 H 931.885 -0.133804 -3.80265 0
M  V30 9646 H 931.397 -1.90873 -3.37919 0
M  V30 9647 H 929.498 0.537743 -3.68699 0
M  V30 9648 H 929.611 -1.06971 -4.67005 0
M  V30 9649 H 927.975 -0.473949 -2.50251 0
M  V30 9650 H 928.758 -2.135 -2.68836 0
M  V30 9651 N 931.203 1.46865 -0.571711 0
M  V30 9652 C 932.428 2.07323 -0.0564655 0
M  V30 9653 C 932.853 1.41938 1.23431 0
M  V30 9654 O 932.211 0.499334 1.74288 0
M  V30 9655 C 932.259 3.6044 0.107339 0
M  V30 9656 O 931.363 3.95558 1.1665 0
M  V30 9657 H 930.704 0.661475 -0.0578465 0
M  V30 9658 H 933.234 1.88669 -0.791524 0
M  V30 9659 H 933.244 4.06767 0.316987 0
M  V30 9660 H 931.919 4.07425 -0.835348 0
M  V30 9661 H 930.496 3.60957 0.936189 0
M  V30 9662 N 932.681 0.308908 1.54543 0
M  V30 9663 C 933.906 -0.303196 2.05172 0
M  V30 9664 C 934.331 -1.46133 1.18434 0
M  V30 9665 O 933.689 -1.803 0.190162 0
M  V30 9666 C 933.737 -0.729526 3.53143 0
M  V30 9667 O 932.841 -1.83348 3.69401 0
M  V30 9668 H 932.182 -0.0575066 0.661505 0
M  V30 9669 H 934.712 0.453055 1.99521 0
M  V30 9670 H 934.722 -1.01619 3.95143 0
M  V30 9671 H 933.397 0.117622 4.15734 0
M  V30 9672 H 931.974 -1.54676 3.39308 0
M  V30 9673 N 934.159 -1.57557 0.0367827 0
M  V30 9674 C 935.389 -1.96134 -0.649225 0
M  V30 9675 C 935.797 -0.912279 -1.65753 0
M  V30 9676 O 935.14 0.113569 -1.83349 0
M  V30 9677 C 935.202 -3.30889 -1.40545 0
M  V30 9678 C 934.866 -4.53622 -0.554609 0
M  V30 9679 C 935.863 -5.19611 0.17331 0
M  V30 9680 C 933.548 -4.99907 -0.48976 0
M  V30 9681 C 935.542 -6.3021 0.95467 0
M  V30 9682 C 933.229 -6.10386 0.295299 0
M  V30 9683 C 934.227 -6.75398 1.01621 0
M  V30 9684 O 933.915 -7.83755 1.78839 0
M  V30 9685 H 933.647 -0.650662 -0.183344 0
M  V30 9686 H 936.201 -2.05179 0.0951512 0
M  V30 9687 H 934.431 -3.18356 -2.19513 0
M  V30 9688 H 936.12 -3.54315 -1.9803 0
M  V30 9689 H 936.886 -4.84819 0.132589 0
M  V30 9690 H 932.765 -4.49105 -1.04046 0
M  V30 9691 H 936.309 -6.80886 1.51789 0
M  V30 9692 H 932.206 -6.44616 0.33771 0
M  V30 9693 H 932.974 -8.0046 1.70898 0
M  V30 9694 N 935.637 0.236453 -1.55816 0
M  V30 9695 C 936.584 1.29289 -1.91188 0
M  V30 9696 C 937.554 1.47315 -0.767301 0
M  V30 9697 O 938.739 1.61128 -1.02189 0
M  V30 9698 C 935.879 2.64126 -2.22107 0
M  V30 9699 C 934.992 2.54022 -3.49423 0
M  V30 9700 C 934.127 3.81282 -3.69861 0
M  V30 9701 C 933.166 3.65839 -4.90743 0
M  V30 9702 N 932.303 4.85014 -5.07647 0
M  V30 9703 H 937.143 0.98424 -2.81277 0
M  V30 9704 H 934.68 0.474722 -1.39229 0
M  V30 9705 H 936.638 3.42626 -2.3804 0
M  V30 9706 H 935.268 2.93118 -1.35209 0
M  V30 9707 H 934.32 1.67036 -3.41765 0
M  V30 9708 H 935.632 2.38525 -4.38072 0
M  V30 9709 H 934.786 4.68226 -3.8581 0
M  V30 9710 H 933.525 3.99688 -2.79465 0
M  V30 9711 H 932.53 2.77279 -4.74759 0
M  V30 9712 H 933.755 3.48918 -5.82609 0
M  V30 9713 H 931.701 5.03762 -4.20191 0
M  V30 9714 H 931.618 4.72188 -5.90402 0
M  V30 9715 H 932.886 5.73427 -5.28017 0
M  V30 9716 N 937.115 1.49373 0.502552 0
M  V30 9717 C 938.361 1.59016 1.25864 0
M  V30 9718 C 938.694 0.27532 1.92238 0
M  V30 9719 O 937.969 -0.720988 1.80643 0
M  V30 9720 C 938.252 2.74828 2.32683 0
M  V30 9721 C 938.105 4.16102 1.7082 0
M  V30 9722 C 939.424 2.86288 3.34256 0
M  V30 9723 H 936.543 0.578798 0.456248 0
M  V30 9724 H 939.185 1.81651 0.557032 0
M  V30 9725 H 937.335 2.5566 2.92524 0
M  V30 9726 H 939.007 4.46782 1.14818 0
M  V30 9727 H 937.25 4.21822 1.01238 0
M  V30 9728 H 937.921 4.93006 2.48292 0
M  V30 9729 H 940.397 3.03733 2.84404 0
M  V30 9730 H 939.273 3.69001 4.06362 0
M  V30 9731 H 939.534 1.95576 3.96488 0
M  V30 9732 N 938.594 -0.753485 1.38421 0
M  V30 9733 C 939.843 -1.50797 1.33952 0
M  V30 9734 C 940.156 -1.95482 -0.0678464 0
M  V30 9735 O 941.362 -2.7048 -0.235078 0
M  V30 9736 C 939.818 -2.72393 2.35224 0
M  V30 9737 C 939.426 -2.34733 3.81582 0
M  V30 9738 C 941.17 -3.50281 2.39798 0
M  V30 9739 C 939.077 -3.52939 4.7454 0
M  V30 9740 H 938.007 -0.566211 0.497916 0
M  V30 9741 H 940.658 -0.823659 1.63976 0
M  V30 9742 H 939.04 -3.42806 1.98243 0
M  V30 9743 H 940.214 -1.71985 4.27502 0
M  V30 9744 H 938.529 -1.69978 3.80127 0
M  V30 9745 H 941.126 -4.38172 3.06447 0
M  V30 9746 H 941.469 -3.91444 1.41695 0
M  V30 9747 H 942.002 -2.86881 2.75579 0
M  V30 9748 H 938.741 -3.16843 5.73839 0
M  V30 9749 H 938.261 -4.1473 4.33312 0
M  V30 9750 H 939.94 -4.19519 4.92557 0
M  V30 9751 N 940.072 -1.23292 -0.981677 0
M  V30 9752 C 941.002 -1.03738 -2.09191 0
M  V30 9753 C 941.983 0.0453041 -1.7004 0
M  V30 9754 O 943.168 -0.119092 -1.93834 0
M  V30 9755 C 940.298 -0.626426 -3.41604 0
M  V30 9756 C 939.252 -1.65631 -3.94652 0
M  V30 9757 C 938.578 -1.10084 -5.23245 0
M  V30 9758 C 939.878 -3.04903 -4.24066 0
M  V30 9759 H 941.572 -1.966 -2.25807 0
M  V30 9760 H 939.118 -0.946656 -1.0851 0
M  V30 9761 H 941.071 -0.476689 -4.18695 0
M  V30 9762 H 939.795 0.337873 -3.24848 0
M  V30 9763 H 938.454 -1.79402 -3.19704 0
M  V30 9764 H 938.102 -0.127562 -5.02838 0
M  V30 9765 H 937.802 -1.78896 -5.59705 0
M  V30 9766 H 939.326 -0.962928 -6.02959 0
M  V30 9767 H 940.74 -2.94441 -4.91912 0
M  V30 9768 H 939.137 -3.70941 -4.71724 0
M  V30 9769 H 940.207 -3.53991 -3.31389 0
M  V30 9770 N 941.55 1.18024 -1.04442 0
M  V30 9771 C 942.798 1.87727 -0.74854 0
M  V30 9772 C 943.119 1.80975 0.726156 0
M  V30 9773 O 942.389 1.23061 1.52423 0
M  V30 9774 H 940.969 0.694974 -0.273897 0
M  V30 9775 H 943.631 1.43213 -1.32197 0
M  V30 9776 H 942.727 2.93665 -1.05674 0
M  V30 9777 N 943.028 0.824394 1.34319 0
M  V30 9778 C 943.991 0.252696 2.27803 0
M  V30 9779 C 944.991 -0.570254 1.50349 0
M  V30 9780 O 946.181 -0.386145 1.69866 0
M  V30 9781 C 943.313 -0.645575 3.34731 0
M  V30 9782 H 944.506 1.07742 2.79878 0
M  V30 9783 H 942.059 0.596367 1.44475 0
M  V30 9784 H 942.794 -1.4933 2.87873 0
M  V30 9785 H 942.579 -0.0569478 3.92059 0
M  V30 9786 H 944.069 -1.03933 4.0446 0
M  V30 9787 N 944.506 -1.46559 0.579492 0
M  V30 9788 C 945.456 -2.27316 -0.17645 0
M  V30 9789 C 946.44 -1.35681 -0.864835 0
M  V30 9790 O 947.632 -1.59879 -0.759462 0
M  V30 9791 C 944.761 -3.21957 -1.19157 0
M  V30 9792 C 943.847 -4.21077 -0.505459 0
M  V30 9793 N 944.238 -5.03908 0.437133 0
M  V30 9794 C 942.536 -4.39535 -0.75661 0
M  V30 9795 C 943.237 -5.75635 0.837819 0
M  V30 9796 N 942.213 -5.43276 0.187679 0
M  V30 9797 H 946.015 -2.88747 0.547932 0
M  V30 9798 H 943.529 -1.5737 0.401048 0
M  V30 9799 H 945.526 -3.78518 -1.74728 0
M  V30 9800 H 944.186 -2.62085 -1.9168 0
M  V30 9801 H 945.197 -5.11487 0.812488 0
M  V30 9802 H 941.874 -3.90815 -1.46867 0
M  V30 9803 H 943.264 -6.52235 1.61364 0
M  V30 9804 N 945.984 -0.3171 -1.54377 0
M  V30 9805 C 946.916 0.58571 -2.2159 0
M  V30 9806 C 947.929 1.08495 -1.21378 0
M  V30 9807 O 949.118 0.999638 -1.47883 0
M  V30 9808 C 946.218 1.8157 -2.86156 0
M  V30 9809 C 945.391 1.45625 -4.12447 0
M  V30 9810 C 944.45 2.54308 -4.60667 0
M  V30 9811 O 943.476 2.18724 -5.25498 0
M  V30 9812 N 944.678 3.85129 -4.34345 0
M  V30 9813 H 947.443 0.0102247 -2.99698 0
M  V30 9814 H 945.004 -0.140011 -1.61293 0
M  V30 9815 H 946.996 2.53657 -3.15341 0
M  V30 9816 H 945.566 2.29919 -2.11793 0
M  V30 9817 H 944.786 0.567294 -3.90097 0
M  V30 9818 H 946.074 1.19169 -4.94648 0
M  V30 9819 H 945.472 4.16841 -3.8244 0
M  V30 9820 H 944.029 4.53466 -4.68201 0
M  V30 9821 N 947.462 1.57535 -0.0451378 0
M  V30 9822 C 948.372 2.14653 0.946646 0
M  V30 9823 C 949.388 1.10279 1.3459 0
M  V30 9824 O 950.564 1.42417 1.42405 0
M  V30 9825 C 947.629 2.67533 2.20515 0
M  V30 9826 C 946.69 3.86682 1.86481 0
M  V30 9827 C 945.923 4.37031 3.06332 0
M  V30 9828 O 946.146 3.86481 4.1951 0
M  V30 9829 O 945.08 5.28691 2.87697 0
M  V30 9830 H 948.906 2.99706 0.49091 0
M  V30 9831 H 946.491 1.48355 0.17641 0
M  V30 9832 H 948.373 3.01542 2.94365 0
M  V30 9833 H 947.048 1.85554 2.65238 0
M  V30 9834 H 945.955 3.57573 1.09966 0
M  V30 9835 H 947.288 4.69873 1.46562 0
M  V30 9836 N 948.94 -0.228186 1.55939 0
M  V30 9837 C 950.186 -0.954964 1.78909 0
M  V30 9838 C 950.519 -1.8425 0.613648 0
M  V30 9839 O 949.794 -1.90604 -0.38737 0
M  V30 9840 C 950.077 -1.79957 3.1191 0
M  V30 9841 C 949.93 -0.938968 4.3989 0
M  V30 9842 C 951.249 -2.77859 3.41295 0
M  V30 9843 H 948.368 -0.345745 0.650868 0
M  V30 9844 H 951.01 -0.224244 1.88672 0
M  V30 9845 H 949.16 -2.42256 3.03717 0
M  V30 9846 H 950.832 -0.333225 4.60095 0
M  V30 9847 H 949.075 -0.244096 4.33113 0
M  V30 9848 H 949.746 -1.56416 5.29375 0
M  V30 9849 H 952.222 -2.25695 3.49572 0
M  V30 9850 H 951.098 -3.34062 4.35538 0
M  V30 9851 H 951.359 -3.55266 2.63132 0
M  V30 9852 N 950.418 -1.49637 -0.494624 0
M  V30 9853 C 951.366 -1.6727 -1.61627 0
M  V30 9854 C 952.36 -0.538587 -1.6061 0
M  V30 9855 O 953.566 -0.718411 -1.65042 0
M  V30 9856 H 949.941 -0.527557 -0.535899 0
M  V30 9857 H 951.912 -2.61405 -1.43909 0
M  V30 9858 C 950.661 -1.7624 -2.99725 0
M  V30 9859 H 949.984 -2.62886 -3.01216 0
M  V30 9860 H 951.424 -1.92611 -3.77726 0
M  V30 9861 C 949.883 -0.508632 -3.33038 0
M  V30 9862 O 950.413 0.362828 -4.00058 0
M  V30 9863 N 948.619 -0.369667 -2.88239 0
M  V30 9864 H 948.166 -1.07984 -2.33875 0
M  V30 9865 H 948.124 0.468112 -3.10896 0
M  V30 9866 N 951.896 0.746133 -1.38819 0
M  V30 9867 C 952.826 1.87344 -1.39372 0
M  V30 9868 C 953.807 1.68123 -0.258583 0
M  V30 9869 O 954.992 1.88606 -0.462769 0
M  V30 9870 C 952.122 3.24962 -1.22543 0
M  V30 9871 C 951.076 3.58799 -2.33339 0
M  V30 9872 C 950.402 4.95235 -2.01609 0
M  V30 9873 C 951.702 3.62911 -3.75624 0
M  V30 9874 H 953.396 1.87138 -2.33709 0
M  V30 9875 H 950.942 0.898937 -1.12495 0
M  V30 9876 H 952.895 4.03488 -1.21554 0
M  V30 9877 H 951.619 3.25667 -0.246707 0
M  V30 9878 H 950.278 2.82596 -2.33527 0
M  V30 9879 H 949.926 4.92508 -1.02202 0
M  V30 9880 H 949.626 5.18843 -2.75819 0
M  V30 9881 H 951.15 5.76131 -2.02251 0
M  V30 9882 H 952.564 4.31535 -3.77426 0
M  V30 9883 H 950.961 3.98031 -4.491 0
M  V30 9884 H 952.031 2.62967 -4.07402 0
M  V30 9885 N 953.375 1.23811 0.975125 0
M  V30 9886 C 954.285 1.0408 2.10249 0
M  V30 9887 C 955.301 -0.0162404 1.73992 0
M  V30 9888 O 956.477 0.180346 2.00591 0
M  V30 9889 C 953.542 0.640013 3.40741 0
M  V30 9890 C 952.603 1.7727 3.90991 0
M  V30 9891 C 951.836 1.39094 5.15256 0
M  V30 9892 O 952.059 0.277483 5.69725 0
M  V30 9893 O 950.993 2.21392 5.59704 0
M  V30 9894 H 954.819 1.98575 2.29786 0
M  V30 9895 H 952.404 1.02563 1.08633 0
M  V30 9896 H 954.286 0.427684 4.19224 0
M  V30 9897 H 952.961 -0.27589 3.22522 0
M  V30 9898 H 951.868 2.03971 3.13602 0
M  V30 9899 H 953.201 2.66711 4.13674 0
M  V30 9900 N 954.853 -1.17469 1.05066 0
M  V30 9901 C 956.264 -1.69334 0.786304 0
M  V30 9902 C 956.615 -1.83604 -0.691671 0
M  V30 9903 O 955.74 -1.52269 -1.53763 0
M  V30 9904 C 956.335 -3.07572 1.42074 0
M  V30 9905 C 954.894 -3.56609 1.20446 0
M  V30 9906 C 954.041 -2.329 1.50508 0
M  V30 9907 H 956.992 -1.02003 1.21577 0
M  V30 9908 H 957.013 -3.71352 0.829334 0
M  V30 9909 H 956.525 -2.97154 2.49642 0
M  V30 9910 H 954.626 -3.72306 0.147968 0
M  V30 9911 H 954.739 -4.39446 1.90852 0
M  V30 9912 H 953.103 -2.37305 0.925124 0
M  V30 9913 H 953.886 -2.25093 2.59207 0
M  V30 9914 N 956.331 -0.831506 -1.3388 0
M  V30 9915 C 957.281 -0.231656 -2.2682 0
M  V30 9916 C 958.265 0.609075 -1.48926 0
M  V30 9917 O 959.457 0.462249 -1.70857 0
M  V30 9918 C 956.586 0.59846 -3.38043 0
M  V30 9919 C 955.672 -0.253372 -4.23342 0
M  V30 9920 N 956.063 -1.32854 -4.8804 0
M  V30 9921 C 954.361 -0.0391537 -4.45983 0
M  V30 9922 C 955.062 -1.85069 -5.51475 0
M  V30 9923 N 954.038 -1.15327 -5.31226 0
M  V30 9924 H 957.84 -1.05396 -2.74352 0
M  V30 9925 H 955.354 -0.675195 -1.47699 0
M  V30 9926 H 957.351 1.04443 -4.03605 0
M  V30 9927 H 956.011 1.41882 -2.92061 0
M  V30 9928 H 957.022 -1.71139 -4.88806 0
M  V30 9929 H 953.699 0.748356 -4.10738 0
M  V30 9930 H 955.089 -2.75065 -6.13016 0
M  V30 9931 N 957.809 1.4625 -0.587256 0
M  V30 9932 C 959.055 2.02662 -0.0746851 0
M  V30 9933 C 959.388 1.45723 1.28368 0
M  V30 9934 O 958.663 0.624062 1.84216 0
M  V30 9935 C 958.946 3.60097 -0.0138109 0
M  V30 9936 C 958.799 4.27412 -1.4014 0
M  V30 9937 C 960.118 4.34744 0.684491 0
M  V30 9938 H 957.237 0.736444 -0.0286144 0
M  V30 9939 H 959.879 1.74341 -0.755328 0
M  V30 9940 H 958.029 3.84357 0.56583 0
M  V30 9941 H 959.701 4.14401 -2.02656 0
M  V30 9942 H 957.944 3.86598 -1.96785 0
M  V30 9943 H 958.615 5.362 -1.31124 0
M  V30 9944 H 961.091 4.15657 0.192023 0
M  V30 9945 H 959.967 5.44468 0.696127 0
M  V30 9946 H 960.228 4.06132 1.74669 0
M  V30 9947 N 959.287 0.325282 1.54207 0
M  V30 9948 C 960.219 -0.57395 2.21897 0
M  V30 9949 C 961.232 -1.0785 1.21952 0
M  V30 9950 O 962.421 -0.991782 1.48411 0
M  V30 9951 C 959.521 -1.8005 2.87115 0
M  V30 9952 C 958.694 -1.43435 4.13213 0
M  V30 9953 C 957.753 -2.51862 4.62009 0
M  V30 9954 O 956.779 -2.15934 5.26651 0
M  V30 9955 N 957.981 -3.8282 4.36382 0
M  V30 9956 H 960.746 0.00566918 2.99699 0
M  V30 9957 H 958.307 0.148563 1.61217 0
M  V30 9958 H 960.299 -2.51981 3.16682 0
M  V30 9959 H 958.869 -2.28792 2.13009 0
M  V30 9960 H 958.089 -0.546598 3.90392 0
M  V30 9961 H 959.377 -1.16544 4.95273 0
M  V30 9962 H 958.775 -4.14807 3.84645 0
M  V30 9963 H 957.332 -4.50976 4.70599 0
M  V30 9964 N 960.765 -1.57509 0.0534917 0
M  V30 9965 C 961.675 -2.15152 -0.935249 0
M  V30 9966 C 962.691 -1.10991 -1.34003 0
M  V30 9967 O 963.867 -1.43171 -1.41648 0
M  V30 9968 C 960.932 -2.68699 -2.19093 0
M  V30 9969 C 959.993 -3.87666 -1.84428 0
M  V30 9970 C 959.226 -4.3865 -3.0401 0
M  V30 9971 O 959.449 -3.887 -4.17455 0
M  V30 9972 O 958.383 -5.30209 -2.84889 0
M  V30 9973 H 962.209 -2.99962 -0.475009 0
M  V30 9974 H 959.794 -1.48446 -0.16854 0
M  V30 9975 H 961.676 -3.03098 -2.92762 0
M  V30 9976 H 960.351 -1.86958 -2.6425 0
M  V30 9977 H 959.258 -3.58151 -1.08068 0
M  V30 9978 H 960.591 -4.70643 -1.44068 0
M  V30 9979 N 962.243 0.219913 -1.56058 0
M  V30 9980 C 963.492 0.942119 -1.78345 0
M  V30 9981 C 963.805 1.85435 -0.622344 0
M  V30 9982 O 965.011 2.61533 -0.728886 0
M  V30 9983 C 963.467 1.72544 -3.15843 0
M  V30 9984 C 963.075 0.859263 -4.39682 0
M  V30 9985 C 964.819 2.43876 -3.47455 0
M  V30 9986 C 962.726 1.64003 -5.68205 0
M  V30 9987 H 961.656 0.355514 -0.664925 0
M  V30 9988 H 964.307 0.195963 -1.82451 0
M  V30 9989 H 962.689 2.51456 -3.05918 0
M  V30 9990 H 963.863 0.110562 -4.60667 0
M  V30 9991 H 962.178 0.257985 -4.156 0
M  V30 9992 H 964.775 3.02794 -4.40704 0
M  V30 9993 H 965.118 3.16843 -2.7003 0
M  V30 9994 H 965.651 1.71952 -3.58716 0
M  V30 9995 H 962.39 0.953606 -6.48526 0
M  V30 9996 H 961.91 2.3633 -5.51279 0
M  V30 9997 H 963.589 2.20028 -6.08438 0
M  V30 9998 N 963.721 1.49897 0.486681 0
M  V30 9999 C 964.631 1.70379 1.6127 0
M  V30 10000 C 965.647 0.58659 1.63814 0
M  V30 10001 O 966.823 0.863044 1.81971 0
M  V30 10002 C 963.888 1.77911 2.97571 0
M  V30 10003 C 962.949 3.01569 3.0554 0
M  V30 10004 C 962.182 3.08732 4.35339 0
M  V30 10005 O 962.405 2.23099 5.2496 0
M  V30 10006 O 961.339 4.01325 4.48578 0
M  V30 10007 H 965.165 2.65799 1.46916 0
M  V30 10008 H 962.75 1.33808 0.664516 0
M  V30 10009 H 964.632 1.85135 3.78554 0
M  V30 10010 H 963.307 0.856722 3.12157 0
M  V30 10011 H 962.214 2.99854 2.23693 0
M  V30 10012 H 963.547 3.93335 2.95886 0
M  V30 10013 N 965.199 -0.738761 1.39212 0
M  V30 10014 C 966.445 -1.50046 1.36433 0
M  V30 10015 C 966.778 -1.94157 -0.0409474 0
M  V30 10016 O 966.053 -1.66515 -1.00514 0
M  V30 10017 C 966.336 -2.74277 2.33333 0
M  V30 10018 C 966.189 -2.36209 3.82786 0
M  V30 10019 C 967.508 -3.76361 2.28123 0
M  V30 10020 H 964.627 -0.544294 0.496903 0
M  V30 10021 H 967.269 -0.845005 1.70175 0
M  V30 10022 H 965.419 -3.30204 2.04689 0
M  V30 10023 H 967.091 -1.85942 4.22165 0
M  V30 10024 H 965.334 -1.68483 3.99745 0
M  V30 10025 H 966.005 -3.25156 4.46069 0
M  V30 10026 H 968.481 -3.30009 2.53443 0
M  V30 10027 H 967.357 -4.60957 2.9801 0
M  V30 10028 H 967.618 -4.23013 1.28499 0
M  V30 10029 N 966.677 -1.24326 -0.968545 0
M  V30 10030 C 967.902 -1.1104 -1.75171 0
M  V30 10031 C 968.327 0.333109 -1.85127 0
M  V30 10032 O 967.685 1.24115 -1.32156 0
M  V30 10033 C 967.733 -1.75397 -3.15068 0
M  V30 10034 O 966.837 -1.02417 -3.9948 0
M  V30 10035 H 966.178 -0.388488 -0.538491 0
M  V30 10036 H 968.708 -1.64617 -1.215 0
M  V30 10037 H 968.718 -1.8112 -3.65595 0
M  V30 10038 H 967.393 -2.80427 -3.07138 0
M  V30 10039 H 965.97 -1.04475 -3.57966 0
M  V30 10040 N 968.156 1.1691 -1.05688 0
M  V30 10041 C 969.572 1.39288 -0.779167 0
M  V30 10042 C 969.772 1.91587 0.624231 0
M  V30 10043 O 968.828 2.11072 1.38582 0
M  V30 10044 C 970.141 2.37914 -1.83895 0
M  V30 10045 C 971.689 2.51611 -1.86175 0
M  V30 10046 C 972.164 3.53514 -2.9119 0
M  V30 10047 N 973.655 3.61036 -2.90184 0
M  V30 10048 C 974.39 4.39657 -3.68088 0
M  V30 10049 N 973.886 5.21752 -4.55793 0
M  V30 10050 N 975.679 4.3458 -3.56507 0
M  V30 10051 H 967.83 0.81296 -1.96226 0
M  V30 10052 H 970.093 0.419818 -0.849975 0
M  V30 10053 H 969.799 2.06568 -2.84645 0
M  V30 10054 H 969.673 3.37483 -1.68479 0
M  V30 10055 H 972.06 2.82264 -0.86087 0
M  V30 10056 H 972.141 1.52099 -2.05668 0
M  V30 10057 H 971.785 3.23599 -3.91467 0
M  V30 10058 H 971.715 4.52742 -2.68947 0
M  V30 10059 H 974.206 3.02428 -2.26596 0
M  V30 10060 H 974.519 5.78939 -5.11907 0
M  V30 10061 H 972.864 5.21116 -4.59851 0
M  V30 10062 H 976.055 3.69501 -2.87379 0
M  V30 10063 H 976.228 4.95607 -4.17466 0
M  V30 10064 N 969.634 0.838594 1.33437 0
M  V30 10065 C 970.564 0.286672 2.31734 0
M  V30 10066 C 971.545 -0.605451 1.5896 0
M  V30 10067 O 972.73 -0.529059 1.86854 0
M  V30 10068 C 969.86 -0.539311 3.43087 0
M  V30 10069 C 968.814 0.256997 4.27228 0
M  V30 10070 C 968.14 -0.692718 5.30194 0
M  V30 10071 C 969.44 1.47391 5.01072 0
M  V30 10072 H 971.134 1.10798 2.78144 0
M  V30 10073 H 968.68 0.534235 1.33723 0
M  V30 10074 H 970.633 -0.935724 4.1088 0
M  V30 10075 H 969.357 -1.39383 2.95364 0
M  V30 10076 H 968.016 0.634967 3.61059 0
M  V30 10077 H 967.664 -1.54363 4.78729 0
M  V30 10078 H 967.364 -0.164023 5.87371 0
M  V30 10079 H 968.888 -1.08665 6.00853 0
M  V30 10080 H 970.302 1.15067 5.61634 0
M  V30 10081 H 968.699 1.93937 5.67898 0
M  V30 10082 H 969.769 2.24382 4.29861 0
M  V30 10083 N 971.112 -1.45937 0.595003 0
M  V30 10084 C 972.359 -2.0232 0.0853053 0
M  V30 10085 C 972.687 -1.465 -1.27937 0
M  V30 10086 O 971.942 -0.624767 -1.85459 0
M  V30 10087 C 972.241 -3.57396 -0.0173747 0
M  V30 10088 C 971.907 -4.32311 1.28131 0
M  V30 10089 C 970.569 -4.52496 1.63708 0
M  V30 10090 C 972.921 -4.75233 2.14017 0
M  V30 10091 C 970.249 -5.12857 2.84947 0
M  V30 10092 C 972.601 -5.36933 3.34493 0
M  V30 10093 C 971.265 -5.55343 3.70338 0
M  V30 10094 H 970.535 -0.740342 0.0312154 0
M  V30 10095 H 973.182 -1.75157 0.774103 0
M  V30 10096 H 971.487 -3.83766 -0.789371 0
M  V30 10097 H 973.184 -3.98713 -0.427699 0
M  V30 10098 H 969.774 -4.16905 0.994374 0
M  V30 10099 H 973.958 -4.59383 1.87833 0
M  V30 10100 H 969.214 -5.253 3.12841 0
M  V30 10101 H 973.388 -5.69147 4.01304 0
M  V30 10102 H 971.015 -6.01883 4.64371 0
M  V30 10103 N 972.59 -0.333456 -1.54032 0
M  V30 10104 C 973.52 0.52051 -2.27625 0
M  V30 10105 C 974.501 1.1111 -1.28797 0
M  V30 10106 O 975.686 1.13438 -1.57625 0
M  V30 10107 C 972.816 1.67663 -3.04149 0
M  V30 10108 C 971.77 1.21487 -4.10396 0
M  V30 10109 C 971.096 2.45872 -4.74817 0
M  V30 10110 C 972.396 0.322603 -5.21303 0
M  V30 10111 H 974.09 -0.0933823 -2.99254 0
M  V30 10112 H 971.636 -0.0463526 -1.43925 0
M  V30 10113 H 973.589 2.28041 -3.54366 0
M  V30 10114 H 972.313 2.31727 -2.30153 0
M  V30 10115 H 970.972 0.633966 -3.61077 0
M  V30 10116 H 970.62 3.0832 -3.97426 0
M  V30 10117 H 970.32 2.15662 -5.46593 0
M  V30 10118 H 971.844 3.06994 -5.27814 0
M  V30 10119 H 973.258 0.832942 -5.67217 0
M  V30 10120 H 971.655 0.112843 -5.99994 0
M  V30 10121 H 972.725 -0.643954 -4.80605 0
M  V30 10122 N 974.068 1.57479 -0.061844 0
M  V30 10123 C 974.978 2.15645 0.923826 0
M  V30 10124 C 975.994 1.117 1.33413 0
M  V30 10125 O 977.17 1.4392 1.40887 0
M  V30 10126 C 974.235 2.69857 2.17665 0
M  V30 10127 C 973.296 3.88638 1.8237 0
M  V30 10128 C 972.529 4.40256 3.01679 0
M  V30 10129 O 972.752 3.90908 4.15388 0
M  V30 10130 O 971.686 5.31713 2.82073 0
M  V30 10131 H 975.512 3.0021 0.459094 0
M  V30 10132 H 973.097 1.48534 0.160665 0
M  V30 10133 H 974.979 3.04647 2.9115 0
M  V30 10134 H 973.654 1.88357 2.63255 0
M  V30 10135 H 972.561 3.58719 1.06167 0
M  V30 10136 H 973.894 4.71401 1.4157 0
M  V30 10137 N 975.546 -0.211634 1.56173 0
M  V30 10138 C 976.957 -0.777776 1.69728 0
M  V30 10139 C 977.308 -1.84566 0.66558 0
M  V30 10140 O 976.433 -2.15639 -0.181338 0
M  V30 10141 C 977.028 -1.41757 3.07718 0
M  V30 10142 C 975.587 -1.93098 3.23094 0
M  V30 10143 C 974.734 -0.794785 2.65666 0
M  V30 10144 H 977.685 0.0131839 1.58695 0
M  V30 10145 H 977.706 -2.28662 3.04128 0
M  V30 10146 H 977.218 -0.640114 3.82785 0
M  V30 10147 H 975.319 -2.73615 2.52914 0
M  V30 10148 H 975.432 -2.10414 4.30422 0
M  V30 10149 H 973.796 -1.20473 2.24407 0
M  V30 10150 H 974.579 -0.0298408 3.43287 0
M  V30 10151 N 977.024 -1.50153 -0.478725 0
M  V30 10152 C 978.252 -1.64505 -1.25482 0
M  V30 10153 C 978.667 -0.325295 -1.85977 0
M  V30 10154 O 978.024 0.691885 -1.68876 0
M  V30 10155 C 978.075 -2.73052 -2.36906 0
M  V30 10156 O 977.796 -3.99911 -1.78894 0
M  V30 10157 C 979.297 -2.98309 -3.27912 0
M  V30 10158 H 976.517 -0.55318 -0.379781 0
M  V30 10159 H 979.061 -1.96329 -0.57229 0
M  V30 10160 H 977.216 -2.43944 -3.00949 0
M  V30 10161 H 977.63 -4.5988 -2.52211 0
M  V30 10162 H 979.104 -3.77942 -4.02323 0
M  V30 10163 H 979.581 -2.09082 -3.8624 0
M  V30 10164 H 980.187 -3.2892 -2.69614 0
M  V30 10165 N 978.502 0.731368 -1.39602 0
M  V30 10166 C 979.918 1.03739 -1.21286 0
M  V30 10167 C 980.118 2.01353 -0.0769875 0
M  V30 10168 O 979.174 2.45978 0.570193 0
M  V30 10169 C 980.487 1.59621 -2.54837 0
M  V30 10170 C 982.035 1.71683 -2.61713 0
M  V30 10171 C 982.51 2.30973 -3.95494 0
M  V30 10172 N 984.001 2.38378 -3.97153 0
M  V30 10173 C 984.736 2.852 -4.97442 0
M  V30 10174 N 984.232 3.31891 -6.08129 0
M  V30 10175 N 986.025 2.84441 -4.84819 0
M  V30 10176 H 978.176 0.0840456 -2.12234 0
M  V30 10177 H 980.439 0.0999038 -0.942721 0
M  V30 10178 H 980.145 0.953608 -3.38525 0
M  V30 10179 H 980.019 2.58375 -2.74813 0
M  V30 10180 H 982.406 2.35064 -1.78406 0
M  V30 10181 H 982.487 0.715714 -2.45583 0
M  V30 10182 H 982.131 1.68219 -4.79234 0
M  V30 10183 H 982.061 3.31769 -4.08946 0
M  V30 10184 H 984.552 2.05382 -3.17217 0
M  V30 10185 H 984.865 3.66138 -6.8056 0
M  V30 10186 H 983.21 3.2989 -6.11717 0
M  V30 10187 H 986.401 2.4729 -3.97448 0
M  V30 10188 H 986.574 3.20616 -5.63124 0
M  V30 10189 N 979.98 1.24838 0.961938 0
M  V30 10190 C 980.927 1.04582 2.05745 0
M  V30 10191 C 981.897 -0.0427281 1.66045 0
M  V30 10192 O 983.082 0.113026 1.90465 0
M  V30 10193 C 980.222 0.66284 3.38675 0
M  V30 10194 C 979.335 1.82548 3.91536 0
M  V30 10195 C 978.47 1.38753 5.12758 0
M  V30 10196 C 977.509 2.51976 5.5783 0
M  V30 10197 N 976.646 2.09009 6.70268 0
M  V30 10198 H 981.486 1.98343 2.22405 0
M  V30 10199 H 979.023 0.987822 1.08998 0
M  V30 10200 H 980.981 0.421788 4.15062 0
M  V30 10201 H 979.611 -0.237776 3.21923 0
M  V30 10202 H 978.663 2.18004 3.11735 0
M  V30 10203 H 979.975 2.67601 4.20941 0
M  V30 10204 H 979.129 1.1057 5.96539 0
M  V30 10205 H 977.868 0.507618 4.85051 0
M  V30 10206 H 976.873 2.80912 4.72619 0
M  V30 10207 H 978.098 3.40534 5.87549 0
M  V30 10208 H 976.044 1.23423 6.44285 0
M  V30 10209 H 975.961 2.87613 6.99153 0
M  V30 10210 H 977.229 1.83981 7.57477 0
M  V30 10211 N 981.458 -1.16348 1.06306 0
M  V30 10212 C 982.735 -1.829 0.69331 0
M  V30 10213 C 983.115 -1.94298 -0.82531 0
M  V30 10214 O 982.463 -1.48619 -1.73565 0
M  V30 10215 C 982.673 -3.1989 1.3954 0
M  V30 10216 C 984.021 -3.95662 1.54068 0
M  V30 10217 O 985.045 -3.29408 1.35532 0
M  V30 10218 O 983.904 -5.14422 1.84479 0
M  V30 10219 H 980.998 -0.789738 0.245445 0
M  V30 10220 H 983.544 -1.23549 1.16334 0
M  V30 10221 H 982.316 -3.06629 2.43093 0
M  V30 10222 H 981.939 -3.86918 0.915453 0
M  V30 10223 N 982.937 -0.845659 -1.3299 0
M  V30 10224 C 984.186 -0.440928 -1.96822 0
M  V30 10225 C 984.499 1.00668 -1.67706 0
M  V30 10226 O 985.705 1.51641 -2.25205 0
M  V30 10227 C 984.161 -0.73752 -3.52262 0
M  V30 10228 C 983.769 -2.20026 -3.90247 0
M  V30 10229 C 985.513 -0.400072 -4.22611 0
M  V30 10230 C 983.42 -2.44054 -5.38694 0
M  V30 10231 H 982.35 -0.161148 -0.736578 0
M  V30 10232 H 985.001 -1.03519 -1.51513 0
M  V30 10233 H 983.383 -0.0728025 -3.95933 0
M  V30 10234 H 984.557 -2.90602 -3.57613 0
M  V30 10235 H 982.872 -2.50135 -3.32899 0
M  V30 10236 H 985.469 -0.557136 -5.3179 0
M  V30 10237 H 985.812 0.657547 -4.11074 0
M  V30 10238 H 986.345 -1.0203 -3.84493 0
M  V30 10239 H 983.084 -3.48407 -5.55241 0
M  V30 10240 H 982.604 -1.78047 -5.72765 0
M  V30 10241 H 984.283 -2.27549 -6.05665 0
M  V30 10242 N 984.415 1.45619 -0.602734 0
M  V30 10243 C 985.378 2.28941 0.108962 0
M  V30 10244 C 986.378 1.39501 0.799762 0
M  V30 10245 O 987.568 1.61673 0.648663 0
M  V30 10246 C 984.7 3.204 1.16432 0
M  V30 10247 H 985.893 2.93346 -0.623534 0
M  V30 10248 H 983.446 1.52061 -0.361565 0
M  V30 10249 H 984.181 2.60785 1.92774 0
M  V30 10250 H 983.966 3.86277 0.673248 0
M  V30 10251 H 985.456 3.83063 1.6629 0
M  V30 10252 N 985.893 0.34162 1.53853 0
M  V30 10253 C 986.823 -0.508431 2.27897 0
M  V30 10254 C 987.804 -1.10425 1.29384 0
M  V30 10255 O 988.989 -1.126 1.58224 0
M  V30 10256 C 986.119 -1.66048 3.05034 0
M  V30 10257 C 985.073 -1.19309 4.11035 0
M  V30 10258 C 984.399 -2.4335 4.76114 0
M  V30 10259 C 985.699 -0.294952 5.21467 0
M  V30 10260 H 987.393 0.109251 2.99201 0
M  V30 10261 H 984.939 0.0539847 1.43899 0
M  V30 10262 H 986.892 -2.26158 3.5557 0
M  V30 10263 H 985.616 -2.30503 2.31379 0
M  V30 10264 H 984.275 -0.614809 3.61408 0
M  V30 10265 H 983.923 -3.06208 3.99056 0
M  V30 10266 H 983.623 -2.1276 5.47729 0
M  V30 10267 H 985.147 -3.0419 5.29434 0
M  V30 10268 H 986.561 -0.80285 5.67651 0
M  V30 10269 H 984.958 -0.0810221 6.00045 0
M  V30 10270 H 986.028 0.669433 4.80257 0
M  V30 10271 N 987.371 -1.57444 0.0701946 0
M  V30 10272 C 988.301 -2.15659 -0.895176 0
M  V30 10273 C 989.282 -1.08321 -1.31151 0
M  V30 10274 O 990.467 -1.36349 -1.38284 0
M  V30 10275 C 987.597 -2.71693 -2.16334 0
M  V30 10276 C 986.551 -3.84183 -1.88645 0
M  V30 10277 C 985.877 -4.26814 -3.22078 0
M  V30 10278 C 987.177 -5.08493 -1.19299 0
M  V30 10279 H 988.871 -2.96576 -0.410217 0
M  V30 10280 H 986.417 -1.42662 -0.195872 0
M  V30 10281 H 988.37 -3.11064 -2.84284 0
M  V30 10282 H 987.094 -1.87994 -2.67069 0
M  V30 10283 H 985.753 -3.45314 -1.23101 0
M  V30 10284 H 985.401 -3.40039 -3.70651 0
M  V30 10285 H 985.101 -5.02642 -3.04344 0
M  V30 10286 H 986.625 -4.68799 -3.91228 0
M  V30 10287 H 988.039 -5.4519 -1.77316 0
M  V30 10288 H 986.436 -5.89588 -1.11828 0
M  V30 10289 H 987.506 -4.84595 -0.171839 0
M  V30 10290 N 988.849 0.203349 -1.56283 0
M  V30 10291 C 989.796 1.25205 -1.93888 0
M  V30 10292 C 990.766 1.45654 -0.798376 0
M  V30 10293 O 991.951 1.58924 -1.05583 0
M  V30 10294 C 989.091 2.59355 -2.27659 0
M  V30 10295 C 988.204 2.46553 -3.54733 0
M  V30 10296 C 987.339 3.73351 -3.77865 0
M  V30 10297 C 986.378 3.55347 -4.98392 0
M  V30 10298 N 985.515 4.74137 -5.17821 0
M  V30 10299 H 990.355 0.924356 -2.83301 0
M  V30 10300 H 987.892 0.445082 -1.40205 0
M  V30 10301 H 989.85 3.375 -2.45254 0
M  V30 10302 H 988.48 2.90184 -1.41396 0
M  V30 10303 H 987.532 1.59749 -3.45231 0
M  V30 10304 H 988.844 2.2918 -4.43033 0
M  V30 10305 H 987.998 4.59937 -3.95655 0
M  V30 10306 H 986.737 3.9367 -2.8788 0
M  V30 10307 H 985.742 2.67146 -4.80534 0
M  V30 10308 H 986.967 3.36482 -5.89879 0
M  V30 10309 H 984.913 4.94735 -4.30782 0
M  V30 10310 H 984.83 4.59558 -6.00285 0
M  V30 10311 H 986.098 5.62098 -5.40061 0
M  V30 10312 N 990.327 1.50405 0.470755 0
M  V30 10313 C 991.257 1.72222 1.57676 0
M  V30 10314 C 992.238 0.57121 1.60222 0
M  V30 10315 O 993.423 0.810381 1.76484 0
M  V30 10316 C 990.553 1.81666 2.95998 0
M  V30 10317 C 989.507 2.96857 3.08318 0
M  V30 10318 C 988.833 2.91445 4.4829 0
M  V30 10319 C 990.133 4.37361 2.85504 0
M  V30 10320 H 991.827 2.64825 1.39671 0
M  V30 10321 H 989.373 1.27438 0.67049 0
M  V30 10322 H 991.326 1.95514 3.73299 0
M  V30 10323 H 990.05 0.856856 3.1516 0
M  V30 10324 H 988.709 2.82661 2.33449 0
M  V30 10325 H 988.357 1.93309 4.64371 0
M  V30 10326 H 988.057 3.68776 4.57469 0
M  V30 10327 H 989.581 3.07341 5.27611 0
M  V30 10328 H 990.995 4.52081 3.52555 0
M  V30 10329 H 989.392 5.16145 3.06127 0
M  V30 10330 H 990.462 4.49708 1.81359 0
M  V30 10331 N 991.805 -0.723954 1.39988 0
M  V30 10332 C 993.03 -1.5182 1.41299 0
M  V30 10333 C 993.455 -1.88096 0.0122636 0
M  V30 10334 O 992.813 -1.52687 -0.977559 0
M  V30 10335 C 992.861 -2.77532 2.30235 0
M  V30 10336 O 991.965 -3.73903 1.73984 0
M  V30 10337 H 991.306 -0.458058 0.480707 0
M  V30 10338 H 993.836 -0.892291 1.84118 0
M  V30 10339 H 993.846 -3.2615 2.45132 0
M  V30 10340 H 992.521 -2.50462 3.32026 0
M  V30 10341 H 991.098 -3.32715 1.68389 0
M  V30 10342 N 993.283 -1.25346 -0.955304 0
M  V30 10343 C 994.508 -1.12892 -1.73983 0
M  V30 10344 C 994.933 0.313455 -1.8547 0
M  V30 10345 O 994.291 1.22706 -1.33465 0
M  V30 10346 C 994.339 -1.78729 -3.1319 0
M  V30 10347 O 993.443 -1.06648 -3.98372 0
M  V30 10348 H 992.784 -0.394178 -0.534341 0
M  V30 10349 H 995.314 -1.65897 -1.19747 0
M  V30 10350 H 995.324 -1.84987 -3.63653 0
M  V30 10351 H 993.999 -2.83669 -3.04146 0
M  V30 10352 H 992.576 -1.08266 -3.56837 0
M  V30 10353 N 994.761 1.15782 -1.06922 0
M  V30 10354 C 996.172 1.68062 -0.813144 0
M  V30 10355 C 996.523 1.84681 0.662374 0
M  V30 10356 O 995.648 1.54696 1.51321 0
M  V30 10357 C 996.243 3.05273 -1.46949 0
M  V30 10358 C 994.802 3.54647 -1.26104 0
M  V30 10359 C 993.949 2.30477 -1.54194 0
M  V30 10360 H 996.9 1.00056 -1.23185 0
M  V30 10361 H 996.921 3.69986 -0.888308 0
M  V30 10362 H 996.433 2.93145 -2.54337 0
M  V30 10363 H 994.534 3.72024 -0.20718 0
M  V30 10364 H 994.647 4.36354 -1.97819 0
M  V30 10365 H 993.011 2.35803 -0.96276 0
M  V30 10366 H 993.794 2.2094 -2.62755 0
M  V30 10367 N 996.239 0.8527 1.3254 0
M  V30 10368 C 997.202 0.300959 2.27215 0
M  V30 10369 C 998.202 -0.538235 1.51525 0
M  V30 10370 O 999.392 -0.350027 1.70647 0
M  V30 10371 C 996.524 -0.574428 3.36025 0
M  V30 10372 H 997.717 1.13655 2.77529 0
M  V30 10373 H 995.27 0.626878 1.43178 0
M  V30 10374 H 996.005 -1.43191 2.90976 0
M  V30 10375 H 995.79 0.0262265 3.92091 0
M  V30 10376 H 997.28 -0.9533 4.06573 0
M  V30 10377 N 997.718 -1.45297 0.610449 0
M  V30 10378 C 998.964 -2.02518 0.106917 0
M  V30 10379 C 999.297 -1.47747 -1.26034 0
M  V30 10380 O 998.572 -0.65329 -1.832 0
M  V30 10381 C 998.855 -3.6003 0.0710975 0
M  V30 10382 C 998.708 -4.25128 1.46922 0
M  V30 10383 C 1000.03 -4.35778 -0.61524 0
M  V30 10384 H 997.146 -0.735896 0.040327 0
M  V30 10385 H 999.788 -1.73117 0.782968 0
M  V30 10386 H 997.938 -3.85209 -0.504611 0
M  V30 10387 H 999.61 -4.11125 2.09223 0
M  V30 10388 H 997.853 -3.83418 2.02911 0
M  V30 10389 H 998.524 -5.34046 1.39637 0
M  V30 10390 H 1001 -4.1591 -0.125871 0
M  V30 10391 H 999.876 -5.45506 -0.609419 0
M  V30 10392 H 1000.14 -4.08859 -1.68186 0
M  V30 10393 N 999.196 -0.349774 -1.5367 0
M  V30 10394 C 1000.44 0.245862 -2.00196 0
M  V30 10395 C 1000.76 1.51154 -1.24144 0
M  V30 10396 O 1001.96 2.18481 -1.61178 0
M  V30 10397 C 1000.42 0.488665 -3.56567 0
M  V30 10398 C 1000.03 -0.761475 -4.41481 0
M  V30 10399 C 1001.77 1.04282 -4.11492 0
M  V30 10400 C 999.679 -0.489128 -5.89374 0
M  V30 10401 H 998.609 0.0956493 -0.747909 0
M  V30 10402 H 1001.26 -0.466068 -1.77483 0
M  V30 10403 H 999.642 1.26145 -3.75371 0
M  V30 10404 H 1000.82 -1.53585 -4.34452 0
M  V30 10405 H 999.131 -1.23771 -3.9758 0
M  V30 10406 H 1001.73 1.26164 -5.19603 0
M  V30 10407 H 1002.07 2.00023 -3.65098 0
M  V30 10408 H 1002.6 0.330582 -3.96424 0
M  V30 10409 H 999.343 -1.41643 -6.40014 0
M  V30 10410 H 998.863 0.247039 -5.99291 0
M  V30 10411 H 1000.54 -0.1087 -6.46909 0
M  V30 10412 N 1000.67 1.57404 -0.0785433 0
M  V30 10413 C 1001.9 1.98074 0.597862 0
M  V30 10414 C 1002.32 0.95714 1.6274 0
M  V30 10415 O 1001.67 -0.0553728 1.82416 0
M  V30 10416 C 1001.72 3.38815 1.26041 0
M  V30 10417 O 1001.45 4.37254 0.27207 0
M  V30 10418 C 1002.95 3.94397 2.024 0
M  V30 10419 H 1000.17 0.651263 0.161546 0
M  V30 10420 H 1002.71 2.03927 -0.152941 0
M  V30 10421 H 1000.87 3.34028 1.96225 0
M  V30 10422 H 1001.28 5.19136 0.74822 0
M  V30 10423 H 1002.75 4.95075 2.4414 0
M  V30 10424 H 1003.23 3.31308 2.88326 0
M  V30 10425 H 1003.84 4.02607 1.37068 0
M  V30 10426 N 1002.15 -0.195058 1.56388 0
M  V30 10427 C 1003.43 -0.941335 1.71459 0
M  V30 10428 C 1003.81 -2.01375 0.633336 0
M  V30 10429 O 1003.16 -2.25715 -0.35567 0
M  V30 10430 C 1003.37 -1.52772 3.13786 0
M  V30 10431 C 1004.71 -2.00983 3.7402 0
M  V30 10432 O 1005.74 -1.62614 3.16915 0
M  V30 10433 O 1004.6 -2.71586 4.7424 0
M  V30 10434 H 1001.69 -0.441451 0.699321 0
M  V30 10435 H 1004.24 -0.184752 1.68691 0
M  V30 10436 H 1003.01 -0.754699 3.83953 0
M  V30 10437 H 1002.63 -2.34914 3.20782 0
M  V30 10438 N 1003.63 -1.50653 -0.462772 0
M  V30 10439 C 1004.58 -1.70122 -1.55971 0
M  V30 10440 C 1005.55 -0.542581 -1.56988 0
M  V30 10441 O 1006.73 -0.774114 -1.74391 0
M  V30 10442 C 1003.87 -1.80899 -2.93887 0
M  V30 10443 C 1002.98 -3.08318 -3.02595 0
M  V30 10444 C 1002.12 -3.09841 -4.31477 0
M  V30 10445 C 1001.16 -4.3168 -4.33957 0
M  V30 10446 N 1000.3 -4.30894 -5.54323 0
M  V30 10447 H 1005.14 -2.63768 -1.38674 0
M  V30 10448 H 1002.67 -1.30746 -0.674091 0
M  V30 10449 H 1004.63 -1.85128 -3.73876 0
M  V30 10450 H 1003.26 -0.906854 -3.098 0
M  V30 10451 H 1002.31 -3.13521 -2.15427 0
M  V30 10452 H 1003.62 -3.98282 -3.00288 0
M  V30 10453 H 1002.78 -3.12845 -5.1982 0
M  V30 10454 H 1001.52 -2.17722 -4.36404 0
M  V30 10455 H 1000.52 -4.28879 -3.4401 0
M  V30 10456 H 1001.75 -5.25035 -4.30715 0
M  V30 10457 H 999.694 -3.41633 -5.6002 0
M  V30 10458 H 999.611 -5.14636 -5.53792 0
M  V30 10459 H 1000.88 -4.38056 -6.44769 0
M  V30 10460 N 1005.11 0.71652 -1.4037 0
M  V30 10461 C 1006.35 1.47857 -1.38803 0
M  V30 10462 C 1006.69 1.94197 0.0100536 0
M  V30 10463 O 1005.96 1.68093 0.978521 0
M  V30 10464 C 1006.25 2.7053 -2.37667 0
M  V30 10465 C 1006.1 2.3009 -3.86496 0
M  V30 10466 C 1007.42 3.72684 -2.34082 0
M  V30 10467 H 1004.54 0.53632 -0.505499 0
M  V30 10468 H 1007.18 0.817824 -1.71498 0
M  V30 10469 H 1005.33 3.26906 -2.09916 0
M  V30 10470 H 1007 1.79202 -4.2507 0
M  V30 10471 H 1005.24 1.62102 -4.02375 0
M  V30 10472 H 1005.91 3.18018 -4.51186 0
M  V30 10473 H 1008.39 3.25935 -2.58661 0
M  V30 10474 H 1007.27 4.56157 -3.05306 0
M  V30 10475 H 1007.53 4.20916 -1.35213 0
M  V30 10476 N 1006.59 1.25851 0.948643 0
M  V30 10477 C 1007.84 1.10347 1.68838 0
M  V30 10478 C 1008.15 -0.354262 1.92365 0
M  V30 10479 O 1009.35 -0.629847 2.64093 0
M  V30 10480 C 1007.81 1.92659 3.03991 0
M  V30 10481 C 1007.42 3.42962 2.88238 0
M  V30 10482 C 1009.16 1.85743 3.81707 0
M  V30 10483 C 1007.07 4.17547 4.18818 0
M  V30 10484 H 1006 0.409342 0.63321 0
M  V30 10485 H 1008.65 1.50098 1.05559 0
M  V30 10486 H 1007.03 1.45736 3.68208 0
M  V30 10487 H 1008.21 3.97601 2.32917 0
M  V30 10488 H 1006.52 3.51035 2.23972 0
M  V30 10489 H 1009.12 2.38758 4.78434 0
M  V30 10490 H 1009.46 0.826568 4.08012 0
M  V30 10491 H 1009.99 2.30449 3.2425 0
M  V30 10492 H 1006.73 5.21072 3.97699 0
M  V30 10493 H 1006.25 3.6769 4.73882 0
M  V30 10494 H 1007.93 4.25589 4.87322 0
M  V30 10495 N 1008.06 -1.15214 1.07534 0
M  V30 10496 C 1009.48 -1.67628 0.822045 0
M  V30 10497 C 1009.83 -1.8503 -0.652571 0
M  V30 10498 O 1008.95 -1.55497 -1.50498 0
M  V30 10499 C 1009.55 -3.04489 1.48566 0
M  V30 10500 C 1008.11 -3.53974 1.27983 0
M  V30 10501 C 1007.25 -2.29656 1.55414 0
M  V30 10502 H 1010.2 -0.994016 1.23713 0
M  V30 10503 H 1010.22 -3.69509 0.907916 0
M  V30 10504 H 1009.74 -2.91792 2.55888 0
M  V30 10505 H 1007.84 -3.71908 0.226906 0
M  V30 10506 H 1007.95 -4.35298 2.0013 0
M  V30 10507 H 1006.31 -2.35289 0.975251 0
M  V30 10508 H 1007.1 -2.19544 2.63923 0
M  V30 10509 N 1009.54 -0.859717 -1.32086 0
M  V30 10510 C 1010.51 -0.313005 -2.27053 0
M  V30 10511 C 1011.51 0.530191 -1.51808 0
M  V30 10512 O 1012.7 0.340972 -1.7083 0
M  V30 10513 C 1009.83 0.5566 -3.36325 0
M  V30 10514 H 1011.02 -1.15125 -2.76923 0
M  V30 10515 H 1008.57 -0.634463 -1.42843 0
M  V30 10516 H 1009.31 1.41645 -2.91731 0
M  V30 10517 H 1009.09 -0.0470197 -3.92072 0
M  V30 10518 H 1010.58 0.931725 -4.07073 0
M  V30 10519 N 1011.02 1.44971 -0.618145 0
M  V30 10520 C 1012.26 2.04044 -0.120625 0
M  V30 10521 C 1012.62 1.47472 1.22947 0
M  V30 10522 O 1013.83 1.97965 1.81834 0
M  V30 10523 C 1012.1 3.57279 -0.0930863 0
M  V30 10524 S 1013.66 4.37468 0.341705 0
M  V30 10525 H 1010.47 0.708891 -0.0547272 0
M  V30 10526 H 1013.08 1.77535 -0.818621 0
M  V30 10527 H 1011.78 3.95961 -1.07903 0
M  V30 10528 H 1011.31 3.88378 0.62657 0
M  V30 10529 H 1013.33 4.70073 1.58888 0
M  V30 10530 N 1012.5 0.357919 1.53482 0
M  V30 10531 C 1013.43 -0.484231 2.28424 0
M  V30 10532 C 1014.41 -1.09046 1.30548 0
M  V30 10533 O 1015.59 -1.10916 1.59409 0
M  V30 10534 C 1012.72 -1.62803 3.06778 0
M  V30 10535 C 1011.68 -1.14943 4.12277 0
M  V30 10536 C 1011 -2.38287 4.78669 0
M  V30 10537 C 1012.3 -0.239627 5.2175 0
M  V30 10538 H 1014 0.140979 2.99068 0
M  V30 10539 H 1011.54 0.069244 1.43833 0
M  V30 10540 H 1013.5 -2.22374 3.57949 0
M  V30 10541 H 1012.22 -2.28036 2.3381 0
M  V30 10542 H 1010.88 -0.576442 3.6204 0
M  V30 10543 H 1010.53 -3.01959 4.02281 0
M  V30 10544 H 1010.23 -2.06939 5.49955 0
M  V30 10545 H 1011.75 -2.98558 5.32631 0
M  V30 10546 H 1013.17 -0.742597 5.6847 0
M  V30 10547 H 1011.56 -0.0173747 6.00097 0
M  V30 10548 H 1012.63 0.720333 4.7952 0
M  V30 10549 N 1013.98 -1.5736 0.0868897 0
M  V30 10550 C 1015.39 -1.81356 -0.443499 0
M  V30 10551 C 1015.74 -1.00192 -1.68689 0
M  V30 10552 O 1014.86 -0.228863 -2.15186 0
M  V30 10553 C 1015.46 -3.28941 -0.811387 0
M  V30 10554 C 1014.02 -3.53729 -1.28656 0
M  V30 10555 C 1013.16 -2.75891 -0.279153 0
M  V30 10556 H 1016.12 -1.55594 0.312427 0
M  V30 10557 H 1016.14 -3.41815 -1.6716 0
M  V30 10558 H 1015.65 -3.87987 0.0937598 0
M  V30 10559 H 1013.75 -3.00005 -2.2097 0
M  V30 10560 H 1013.86 -4.62396 -1.25406 0
M  V30 10561 H 1012.23 -2.4311 -0.759595 0
M  V30 10562 H 1013.01 -3.37682 0.618529 0
M  V30 10563 N 1015.45 0.186762 -1.56489 0
M  V30 10564 C 1016.68 0.925916 -1.85584 0
M  V30 10565 C 1017.1 1.75708 -0.671446 0
M  V30 10566 O 1016.46 1.7728 0.379687 0
M  V30 10567 C 1016.51 1.79107 -3.12975 0
M  V30 10568 O 1015.61 2.89088 -2.94112 0
M  V30 10569 H 1014.96 0.260275 -0.610863 0
M  V30 10570 H 1017.49 0.189561 -2.0372 0
M  V30 10571 H 1017.5 2.19408 -3.43983 0
M  V30 10572 H 1016.17 1.18044 -3.98796 0
M  V30 10573 H 1014.75 2.52482 -2.74422 0
M  V30 10574 N 1016.93 1.50896 0.454776 0
M  V30 10575 C 1018.34 1.55372 1.0352 0
M  V30 10576 C 1018.69 0.366822 1.9274 0
M  V30 10577 O 1017.82 -0.518444 2.10098 0
M  V30 10578 C 1018.41 2.81574 1.88418 0
M  V30 10579 C 1016.97 2.88679 2.4154 0
M  V30 10580 C 1016.12 2.49847 1.20298 0
M  V30 10581 H 1019.07 1.56924 0.236729 0
M  V30 10582 H 1019.09 2.64352 2.73676 0
M  V30 10583 H 1018.6 3.67941 1.23455 0
M  V30 10584 H 1016.71 2.06702 3.10008 0
M  V30 10585 H 1016.82 3.91944 2.7553 0
M  V30 10586 H 1015.18 2.02651 1.54288 0
M  V30 10587 H 1015.97 3.3854 0.569723 0
M  V30 10588 N 1018.41 -0.709066 1.40748 0
M  V30 10589 C 1019.36 -1.84445 1.41714 0
M  V30 10590 C 1020.35 -1.66779 0.296818 0
M  V30 10591 O 1021.56 -1.73805 0.468181 0
M  V30 10592 H 1017.93 -0.607581 0.443114 0
M  V30 10593 H 1019.9 -1.80747 2.3743 0
M  V30 10594 C 1018.65 -3.22362 1.303 0
M  V30 10595 H 1017.98 -3.36565 2.15787 0
M  V30 10596 H 1019.42 -4.01922 1.35036 0
M  V30 10597 C 1017.88 -3.36897 0.0139015 0
M  V30 10598 O 1018.41 -3.90389 -0.946553 0
M  V30 10599 N 1016.61 -2.90543 -0.0577491 0
M  V30 10600 H 1016.16 -2.472 0.724574 0
M  V30 10601 H 1016.12 -3.00647 -0.919721 0
M  V30 10602 N 1019.89 -1.26353 -0.941956 0
M  V30 10603 C 1021.12 -1.1446 -1.71996 0
M  V30 10604 C 1021.53 0.302957 -1.86759 0
M  V30 10605 O 1020.87 1.2193 -1.374 0
M  V30 10606 C 1020.93 -1.73986 -3.14593 0
M  V30 10607 C 1020.6 -3.23078 -3.23217 0
M  V30 10608 C 1021.59 -4.19905 -3.06554 0
M  V30 10609 C 1019.28 -3.63526 -3.46632 0
M  V30 10610 C 1021.27 -5.55159 -3.13172 0
M  V30 10611 C 1018.96 -4.98914 -3.52886 0
M  V30 10612 C 1019.96 -5.9454 -3.36172 0
M  V30 10613 O 1019.65 -7.27462 -3.42132 0
M  V30 10614 H 1019.38 -0.399453 -0.545356 0
M  V30 10615 H 1021.93 -1.67455 -1.18945 0
M  V30 10616 H 1020.16 -1.15453 -3.69063 0
M  V30 10617 H 1021.85 -1.57011 -3.74302 0
M  V30 10618 H 1022.62 -3.89995 -2.88321 0
M  V30 10619 H 1018.5 -2.8958 -3.58698 0
M  V30 10620 H 1022.04 -6.29777 -3.00044 0
M  V30 10621 H 1017.94 -5.28485 -3.70639 0
M  V30 10622 H 1018.7 -7.35725 -3.5868 0
M  V30 10623 N 1021.37 1.14642 -1.08144 0
M  V30 10624 C 1022.61 1.85892 -0.810683 0
M  V30 10625 C 1022.95 1.82575 0.661821 0
M  V30 10626 O 1022.22 1.25454 1.48632 0
M  V30 10627 C 1022.5 3.34647 -1.32979 0
M  V30 10628 C 1022.36 3.46551 -2.86744 0
M  V30 10629 C 1023.68 4.29661 -0.952864 0
M  V30 10630 H 1020.8 0.674963 -0.295963 0
M  V30 10631 H 1023.44 1.3464 -1.3406 0
M  V30 10632 H 1021.59 3.78425 -0.87903 0
M  V30 10633 H 1023.26 3.11579 -3.40171 0
M  V30 10634 H 1021.5 2.87849 -3.24539 0
M  V30 10635 H 1022.17 4.51101 -3.18138 0
M  V30 10636 H 1024.65 3.93885 -1.34141 0
M  V30 10637 H 1023.53 5.32209 -1.34331 0
M  V30 10638 H 1023.79 4.41877 0.140392 0
M  V30 10639 N 1022.85 0.866709 1.31628 0
M  V30 10640 C 1024.09 0.476731 1.97117 0
M  V30 10641 C 1024.42 -0.967813 1.68366 0
M  V30 10642 O 1023.7 -1.68101 0.978377 0
M  V30 10643 C 1023.98 0.730561 3.52611 0
M  V30 10644 C 1023.84 2.2244 3.90948 0
M  V30 10645 C 1025.15 0.19488 4.39668 0
M  V30 10646 H 1022.27 0.174682 0.715999 0
M  V30 10647 H 1024.92 1.08735 1.5581 0
M  V30 10648 H 1023.07 0.210834 3.87927 0
M  V30 10649 H 1024.74 2.81113 3.6575 0
M  V30 10650 H 1022.98 2.69824 3.39673 0
M  V30 10651 H 1023.65 2.35266 4.99353 0
M  V30 10652 H 1026.13 0.639478 4.11157 0
M  V30 10653 H 1025 0.401958 5.47426 0
M  V30 10654 H 1025.26 -0.90302 4.32779 0
M  V30 10655 N 1024.32 -1.44642 0.625825 0
M  V30 10656 C 1025.29 -2.29085 -0.072526 0
M  V30 10657 C 1026.29 -1.40755 -0.777467 0
M  V30 10658 O 1027.48 -1.62684 -0.622861 0
M  V30 10659 C 1024.61 -3.22212 -1.1132 0
M  V30 10660 H 1025.8 -2.92317 0.670124 0
M  V30 10661 H 1023.35 -1.51466 0.38571 0
M  V30 10662 H 1024.09 -2.63819 -1.88601 0
M  V30 10663 H 1023.87 -3.87299 -0.611709 0
M  V30 10664 H 1025.36 -3.8566 -1.60175 0
M  V30 10665 N 1025.8 -0.366053 -1.5329 0
M  V30 10666 C 1027.08 0.279902 -1.93587 0
M  V30 10667 C 1027.46 1.66352 -1.29963 0
M  V30 10668 O 1026.81 2.23845 -0.458895 0
M  V30 10669 C 1027.02 0.329634 -3.4744 0
M  V30 10670 C 1028.36 0.569754 -4.2076 0
M  V30 10671 O 1029.39 0.410823 -3.53823 0
M  V30 10672 O 1028.25 0.879262 -5.3938 0
M  V30 10673 H 1025.34 0.16802 -0.809752 0
M  V30 10674 H 1027.89 -0.418871 -1.64449 0
M  V30 10675 H 1026.66 -0.640434 -3.86023 0
M  V30 10676 H 1026.28 1.07428 -3.82812 0
M  V30 10677 N 1027.28 1.57312 -0.0952337 0
M  V30 10678 C 1028.7 1.57445 0.261416 0
M  V30 10679 C 1028.9 1.10639 1.68408 0
M  V30 10680 O 1027.95 0.782912 2.40056 0
M  V30 10681 C 1029.26 3.00659 0.0497206 0
M  V30 10682 C 1030.81 3.1278 0.117459 0
M  V30 10683 C 1031.29 4.57952 -0.0662441 0
M  V30 10684 N 1032.78 4.63199 -0.0114146 0
M  V30 10685 C 1033.51 5.73255 -0.128799 0
M  V30 10686 N 1033.01 6.92146 -0.301026 0
M  V30 10687 N 1034.8 5.62056 -0.0700599 0
M  V30 10688 H 1026.95 1.86045 -1.02475 0
M  V30 10689 H 1029.22 0.858726 -0.401614 0
M  V30 10690 H 1028.92 3.39102 -0.932888 0
M  V30 10691 H 1028.8 3.68792 0.791975 0
M  V30 10692 H 1031.18 2.74209 1.09057 0
M  V30 10693 H 1031.26 2.47238 -0.656288 0
M  V30 10694 H 1030.91 4.97217 -1.03623 0
M  V30 10695 H 1030.84 5.21555 0.727198 0
M  V30 10696 H 1033.33 3.77712 0.119154 0
M  V30 10697 H 1033.64 7.71855 -0.382104 0
M  V30 10698 H 1031.99 6.94184 -0.336695 0
M  V30 10699 H 1035.18 4.68057 0.0633587 0
M  V30 10700 H 1035.35 6.4779 -0.164991 0
M  V30 10701 N 1028.76 -0.17846 1.56586 0
M  V30 10702 C 1029.99 -0.911996 1.85715 0
M  V30 10703 C 1030.4 -1.76138 0.679766 0
M  V30 10704 O 1029.76 -1.79088 -0.351266 0
M  V30 10705 C 1029.81 -1.79459 3.1381 0
M  V30 10706 O 1029.53 -0.979476 4.2701 0
M  V30 10707 C 1031.03 -2.6384 3.56235 0
M  V30 10708 H 1028.25 -0.265299 0.616326 0
M  V30 10709 H 1030.79 -0.180704 2.037 0
M  V30 10710 H 1028.95 -2.4793 2.97673 0
M  V30 10711 H 1029.36 -1.58244 5.00059 0
M  V30 10712 H 1030.84 -3.21396 4.48786 0
M  V30 10713 H 1031.31 -3.38363 2.80013 0
M  V30 10714 H 1031.92 -2.00712 3.7496 0
M  V30 10715 N 1030.24 -1.51135 -0.446768 0
M  V30 10716 C 1031.15 -1.74595 -1.56696 0
M  V30 10717 C 1032.16 -0.629816 -1.62201 0
M  V30 10718 O 1033.34 -0.910987 -1.79619 0
M  V30 10719 C 1030.4 -1.85738 -2.9275 0
M  V30 10720 C 1029.46 -3.09564 -2.97437 0
M  V30 10721 C 1028.7 -3.20165 -4.27001 0
M  V30 10722 O 1028.92 -2.36939 -5.1886 0
M  V30 10723 O 1027.85 -4.13077 -4.3778 0
M  V30 10724 H 1031.68 -2.69601 -1.39817 0
M  V30 10725 H 1029.26 -1.35523 -0.628805 0
M  V30 10726 H 1031.15 -1.95107 -3.73512 0
M  V30 10727 H 1029.82 -0.939184 -3.09776 0
M  V30 10728 H 1028.73 -3.05679 -2.15664 0
M  V30 10729 H 1030.06 -4.01041 -2.85353 0
M  V30 10730 N 1031.71 0.701592 -1.41122 0
M  V30 10731 C 1032.95 1.4739 -1.41618 0
M  V30 10732 C 1033.32 1.91987 -0.0219443 0
M  V30 10733 O 1034.52 2.6862 0.0982793 0
M  V30 10734 C 1032.79 2.65745 -2.38986 0
M  V30 10735 S 1034.35 3.54968 -2.5796 0
M  V30 10736 H 1031.17 0.503742 -0.501762 0
M  V30 10737 H 1033.77 0.819186 -1.77509 0
M  V30 10738 H 1032.47 2.31176 -3.39096 0
M  V30 10739 H 1032 3.36115 -2.04426 0
M  V30 10740 H 1034.02 4.60724 -1.84249 0
M  V30 10741 N 1033.19 1.2685 0.935242 0
M  V30 10742 C 1034.44 1.12745 1.68211 0
M  V30 10743 C 1034.77 -0.328128 1.91712 0
M  V30 10744 O 1034.02 -1.25701 1.49993 0
M  V30 10745 C 1034.32 1.8482 3.05903 0
M  V30 10746 C 1033.99 3.347 3.02137 0
M  V30 10747 C 1032.65 3.75583 3.00817 0
M  V30 10748 C 1035 4.30368 2.93995 0
M  V30 10749 C 1032.33 5.10511 2.89129 0
M  V30 10750 C 1034.68 5.65343 2.83848 0
M  V30 10751 C 1033.34 6.0553 2.80874 0
M  V30 10752 H 1032.61 0.412563 0.615527 0
M  V30 10753 H 1035.26 1.57366 1.09124 0
M  V30 10754 H 1033.57 1.32685 3.68649 0
M  V30 10755 H 1035.26 1.71341 3.62551 0
M  V30 10756 H 1031.85 3.02182 3.03947 0
M  V30 10757 H 1036.04 3.9976 2.94118 0
M  V30 10758 H 1031.29 5.40802 2.85208 0
M  V30 10759 H 1035.47 6.39151 2.76512 0
M  V30 10760 H 1033.09 7.10037 2.71573 0
M  V30 10761 N 1034.67 -1.14067 1.0875 0
M  V30 10762 C 1035.92 -1.84535 0.814235 0
M  V30 10763 C 1036.23 -1.84044 -0.662355 0
M  V30 10764 O 1037.44 -2.50336 -1.05091 0
M  V30 10765 C 1035.89 -3.31273 1.40663 0
M  V30 10766 C 1035.5 -3.40171 2.91526 0
M  V30 10767 C 1037.25 -4.0683 1.21201 0
M  V30 10768 C 1035.15 -4.81141 3.43885 0
M  V30 10769 H 1034.08 -0.691346 0.300926 0
M  V30 10770 H 1036.73 -1.28562 1.30935 0
M  V30 10771 H 1035.12 -3.87005 0.839215 0
M  V30 10772 H 1036.29 -2.94471 3.54434 0
M  V30 10773 H 1034.61 -2.78073 3.09942 0
M  V30 10774 H 1037.2 -5.10891 1.57781 0
M  V30 10775 H 1037.55 -4.16022 0.152092 0
M  V30 10776 H 1038.08 -3.57408 1.74655 0
M  V30 10777 H 1034.82 -4.77138 4.49466 0
M  V30 10778 H 1034.34 -5.27365 2.85738 0
M  V30 10779 H 1036.02 -5.50042 3.40681 0
M  V30 10780 N 1036.15 -0.873678 -1.31166 0
M  V30 10781 C 1037.38 -0.501043 -2.00742 0
M  V30 10782 C 1037.79 0.907477 -1.65561 0
M  V30 10783 O 1037.15 1.59507 -0.886771 0
M  V30 10784 C 1037.2 -0.652877 -3.55556 0
M  V30 10785 O 1036.92 -2.00593 -3.89479 0
M  V30 10786 C 1038.42 -0.281742 -4.42404 0
M  V30 10787 H 1035.64 -0.194829 -0.642092 0
M  V30 10788 H 1038.19 -1.17587 -1.67313 0
M  V30 10789 H 1036.34 -0.0255627 -3.87392 0
M  V30 10790 H 1036.75 -2.01638 -4.84193 0
M  V30 10791 H 1038.23 -0.43892 -5.50252 0
M  V30 10792 H 1038.71 0.779389 -4.32229 0
M  V30 10793 H 1039.31 -0.88491 -4.15992 0
M  V30 10794 N 1037.63 1.44308 -0.633487 0
M  V30 10795 C 1038.87 2.01624 -0.138643 0
M  V30 10796 C 1039.2 1.50101 1.24477 0
M  V30 10797 O 1038.47 0.705575 1.82752 0
M  V30 10798 H 1037.05 0.745439 -0.0482636 0
M  V30 10799 H 1039.71 1.76777 -0.820719 0
M  V30 10800 H 1038.8 3.11913 -0.108136 0
M  V30 10801 N 1039.1 0.374177 1.53094 0
M  V30 10802 C 1040.35 -0.205669 2.02358 0
M  V30 10803 C 1040.71 -1.4572 1.25633 0
M  V30 10804 O 1040 -1.88487 0.343977 0
M  V30 10805 C 1040.19 -0.542179 3.53264 0
M  V30 10806 C 1040.02 0.675186 4.44602 0
M  V30 10807 C 1038.79 1.18987 4.91091 0
M  V30 10808 C 1040.99 1.54299 4.90608 0
M  V30 10809 N 1038.97 2.36637 5.66459 0
M  V30 10810 C 1040.34 2.56605 5.64406 0
M  V30 10811 C 1042.4 1.56486 4.7267 0
M  V30 10812 C 1041.1 3.60965 6.22171 0
M  V30 10813 C 1043.13 2.59745 5.31307 0
M  V30 10814 C 1042.49 3.60774 6.04997 0
M  V30 10815 H 1038.59 -0.0377471 0.781088 0
M  V30 10816 H 1041.17 0.520661 1.87609 0
M  V30 10817 H 1039.34 -1.23758 3.68156 0
M  V30 10818 H 1041.07 -1.10786 3.89241 0
M  V30 10819 H 1037.83 0.753181 4.67573 0
M  V30 10820 H 1038.25 2.96123 6.08802 0
M  V30 10821 H 1042.9 0.797296 4.15214 0
M  V30 10822 H 1040.61 4.38599 6.78717 0
M  V30 10823 H 1044.2 2.62301 5.19316 0
M  V30 10824 H 1043.08 4.39363 6.49561 0
M  V30 10825 N 1040.58 -1.57259 0.103575 0
M  V30 10826 C 1041.83 -1.94272 -0.557024 0
M  V30 10827 C 1042.15 -0.986739 -1.68192 0
M  V30 10828 O 1041.42 -0.0402818 -1.95859 0
M  V30 10829 H 1040 -0.717237 -0.208757 0
M  V30 10830 H 1042.66 -1.94167 0.168898 0
M  V30 10831 H 1041.76 -2.96914 -0.961691 0
M  V30 10832 N 1042.06 0.170153 -1.56679 0
M  V30 10833 C 1042.97 1.23057 -1.99735 0
M  V30 10834 C 1043.99 1.48374 -0.908912 0
M  V30 10835 O 1045.16 1.60499 -1.21663 0
M  V30 10836 C 1042.23 2.54944 -2.34956 0
M  V30 10837 C 1041.29 2.3748 -3.57634 0
M  V30 10838 C 1040.52 3.63078 -3.91165 0
M  V30 10839 O 1040.74 4.68304 -3.2565 0
M  V30 10840 O 1039.68 3.57119 -4.8451 0
M  V30 10841 H 1043.5 0.895104 -2.9021 0
M  V30 10842 H 1041.09 0.377109 -1.44562 0
M  V30 10843 H 1042.97 3.32742 -2.58574 0
M  V30 10844 H 1041.65 2.88068 -1.47643 0
M  V30 10845 H 1040.55 1.57709 -3.39232 0
M  V30 10846 H 1041.89 2.0928 -4.45491 0
M  V30 10847 N 1043.54 1.5137 0.438746 0
M  V30 10848 C 1044.77 1.67774 1.21077 0
M  V30 10849 C 1045.18 0.374489 1.85049 0
M  V30 10850 O 1044.54 -0.646867 1.70651 0
M  V30 10851 C 1044.59 2.79238 2.29584 0
M  V30 10852 O 1044.31 4.04513 1.68228 0
M  V30 10853 C 1045.81 3.06898 3.19888 0
M  V30 10854 H 1043.03 0.563054 0.364981 0
M  V30 10855 H 1045.58 1.97777 0.520035 0
M  V30 10856 H 1043.73 2.51837 2.94375 0
M  V30 10857 H 1044.14 4.66405 2.3993 0
M  V30 10858 H 1045.62 3.88476 3.92162 0
M  V30 10859 H 1046.1 2.19249 3.80561 0
M  V30 10860 H 1046.7 3.35952 2.60799 0
M  V30 10861 N 1045.02 -0.694098 1.41492 0
M  V30 10862 C 1045.95 -1.81943 1.39389 0
M  V30 10863 C 1046.96 -1.6009 0.295836 0
M  V30 10864 O 1048.15 -1.69565 0.557658 0
M  V30 10865 C 1045.25 -3.18731 1.15167 0
M  V30 10866 C 1044.42 -3.67601 2.37041 0
M  V30 10867 C 1043.48 -4.83063 2.08654 0
M  V30 10868 O 1042.51 -4.94603 2.81704 0
M  V30 10869 N 1043.71 -5.70409 1.0777 0
M  V30 10870 H 1046.48 -1.84239 2.36381 0
M  V30 10871 H 1044.04 -0.876475 1.36123 0
M  V30 10872 H 1046.03 -3.93602 0.941264 0
M  V30 10873 H 1044.6 -3.11452 0.267673 0
M  V30 10874 H 1043.82 -2.83622 2.73774 0
M  V30 10875 H 1045.11 -3.96991 3.18239 0
M  V30 10876 H 1044.5 -5.63718 0.473123 0
M  V30 10877 H 1043.06 -6.45172 0.927177 0
M  V30 10878 N 1046.49 -1.27344 -0.928501 0
M  V30 10879 C 1047.74 -1.13411 -1.67279 0
M  V30 10880 C 1048.06 0.320698 -1.92345 0
M  V30 10881 O 1047.33 1.2245 -1.52915 0
M  V30 10882 H 1045.91 -0.416712 -0.619968 0
M  V30 10883 H 1048.58 -1.5986 -1.11493 0
M  V30 10884 H 1047.67 -1.66256 -2.64131 0
M  V30 10885 N 1047.97 1.13488 -1.09353 0
M  V30 10886 C 1049.2 1.88592 -0.850915 0
M  V30 10887 C 1049.62 1.79087 0.597761 0
M  V30 10888 O 1048.97 1.15695 1.41142 0
M  V30 10889 C 1049.02 3.38219 -1.27633 0
M  V30 10890 O 1048.74 3.47476 -2.66819 0
M  V30 10891 C 1050.25 4.30293 -1.06598 0
M  V30 10892 H 1047.47 0.597069 -0.306185 0
M  V30 10893 H 1050.01 1.43668 -1.45533 0
M  V30 10894 H 1048.16 3.80729 -0.715828 0
M  V30 10895 H 1048.58 4.40485 -2.84733 0
M  V30 10896 H 1050.05 5.33611 -1.41293 0
M  V30 10897 H 1050.53 4.392 -0.0037135 0
M  V30 10898 H 1051.14 3.9355 -1.6124 0
M  V30 10899 N 1049.45 0.880621 1.30701 0
M  V30 10900 C 1050.7 0.496875 1.96309 0
M  V30 10901 C 1051.03 -0.953064 1.69549 0
M  V30 10902 O 1050.28 -1.68782 0.990507 0
M  V30 10903 C 1050.58 0.713203 3.50212 0
M  V30 10904 C 1050.25 2.13756 3.97013 0
M  V30 10905 C 1048.91 2.52706 4.09503 0
M  V30 10906 C 1051.26 3.066 4.21481 0
M  V30 10907 C 1048.59 3.8372 4.43819 0
M  V30 10908 C 1050.94 4.3714 4.57265 0
M  V30 10909 C 1049.6 4.7599 4.67963 0
M  V30 10910 H 1048.87 0.18182 0.718347 0
M  V30 10911 H 1051.52 1.11564 1.55646 0
M  V30 10912 H 1049.83 0.0113694 3.91798 0
M  V30 10913 H 1051.52 0.39595 3.9904 0
M  V30 10914 H 1048.11 1.8252 3.87794 0
M  V30 10915 H 1052.3 2.77729 4.11315 0
M  V30 10916 H 1047.55 4.13568 4.50301 0
M  V30 10917 H 1051.73 5.09123 4.75149 0
M  V30 10918 H 1049.35 5.77549 4.94309 0
M  V30 10919 N 1050.93 -1.4397 0.641131 0
M  V30 10920 C 1052.18 -2.01548 0.149333 0
M  V30 10921 C 1052.5 -1.50759 -1.23679 0
M  V30 10922 O 1051.77 -0.715257 -1.82376 0
M  V30 10923 H 1050.35 -0.745173 0.0522161 0
M  V30 10924 H 1053.01 -1.7634 0.830082 0
M  V30 10925 H 1052.11 -3.11851 0.124676 0
M  V30 10926 N 1052.41 -0.382291 -1.52893 0
M  V30 10927 C 1053.37 0.44408 -2.24857 0
M  V30 10928 C 1054.37 0.996004 -1.26239 0
M  V30 10929 O 1055.56 0.879114 -1.5039 0
M  V30 10930 C 1052.69 1.62234 -2.99822 0
M  V30 10931 H 1053.89 -0.185862 -2.99324 0
M  V30 10932 H 1051.44 -0.134275 -1.55722 0
M  V30 10933 H 1052.17 2.28991 -2.29638 0
M  V30 10934 H 1051.96 1.23336 -3.72197 0
M  V30 10935 H 1053.45 2.20756 -3.54481 0
M  V30 10936 N 1053.89 1.57202 -0.111913 0
M  V30 10937 C 1055.13 1.94565 0.546713 0
M  V30 10938 C 1055.45 0.995644 1.67666 0
M  V30 10939 O 1054.72 0.0506681 1.95834 0
M  V30 10940 H 1053.3 0.718334 0.204951 0
M  V30 10941 H 1055.97 1.94074 -0.179193 0
M  V30 10942 H 1055.06 2.9742 0.945931 0
M  V30 10943 N 1055.36 -0.161842 1.56767 0
M  V30 10944 C 1056.29 -1.20226 2.0017 0
M  V30 10945 C 1057.27 -1.4564 0.878807 0
M  V30 10946 O 1058.46 -1.56813 1.14557 0
M  V30 10947 C 1055.59 -2.53897 2.36968 0
M  V30 10948 C 1054.54 -2.43033 3.52305 0
M  V30 10949 C 1053.87 -3.81281 3.74872 0
M  V30 10950 C 1055.17 -1.927 4.85453 0
M  V30 10951 H 1056.86 -0.84142 2.87333 0
M  V30 10952 H 1054.41 -0.403309 1.38237 0
M  V30 10953 H 1056.36 -3.26893 2.6593 0
M  V30 10954 H 1055.09 -2.91787 1.46724 0
M  V30 10955 H 1053.75 -1.7249 3.23485 0
M  V30 10956 H 1053.39 -4.1658 2.81904 0
M  V30 10957 H 1053.09 -3.74877 4.52483 0
M  V30 10958 H 1054.62 -4.55848 4.06245 0
M  V30 10959 H 1056.03 -2.55477 5.13229 0
M  V30 10960 H 1054.43 -1.97222 5.66766 0
M  V30 10961 H 1055.5 -0.881816 4.76814 0
M  V30 10962 N 1056.84 -1.516 -0.430713 0
M  V30 10963 C 1057.77 -1.76342 -1.53054 0
M  V30 10964 C 1058.75 -0.61349 -1.58652 0
M  V30 10965 O 1059.94 -0.856888 -1.74273 0
M  V30 10966 C 1057.07 -1.8945 -2.91077 0
M  V30 10967 C 1056.02 -3.04928 -3.00339 0
M  V30 10968 C 1055.35 -3.03228 -4.40405 0
M  V30 10969 C 1056.65 -4.44777 -2.73808 0
M  V30 10970 H 1058.34 -2.68435 -1.326 0
M  V30 10971 H 1055.89 -1.29171 -0.636466 0
M  V30 10972 H 1057.84 -2.05343 -3.67984 0
M  V30 10973 H 1056.56 -0.940114 -3.12777 0
M  V30 10974 H 1055.22 -2.88751 -2.25872 0
M  V30 10975 H 1054.87 -2.05553 -4.59083 0
M  V30 10976 H 1054.57 -3.80776 -4.47531 0
M  V30 10977 H 1056.1 -3.21222 -5.19277 0
M  V30 10978 H 1057.51 -4.6127 -3.40445 0
M  V30 10979 H 1055.91 -5.2408 -2.92335 0
M  V30 10980 H 1056.98 -4.54358 -1.69372 0
M  V30 10981 N 1058.32 0.686584 -1.41858 0
M  V30 10982 C 1059.27 1.80038 -1.44413 0
M  V30 10983 C 1060.24 1.63415 -0.297427 0
M  V30 10984 O 1061.42 1.84138 -0.499789 0
M  V30 10985 C 1058.56 3.17988 -1.34082 0
M  V30 10986 C 1057.67 3.45979 -2.58693 0
M  V30 10987 C 1056.81 4.73592 -2.4059 0
M  V30 10988 C 1055.85 4.94581 -3.60633 0
M  V30 10989 N 1054.99 6.13426 -3.41545 0
M  V30 10990 H 1059.83 1.77189 -2.396 0
M  V30 10991 H 1057.36 0.865158 -1.18968 0
M  V30 10992 H 1059.32 3.97689 -1.26092 0
M  V30 10993 H 1057.95 3.1999 -0.424975 0
M  V30 10994 H 1057 2.60617 -2.77097 0
M  V30 10995 H 1058.31 3.57386 -3.47961 0
M  V30 10996 H 1057.47 5.61364 -2.30119 0
M  V30 10997 H 1056.21 4.64448 -1.48794 0
M  V30 10998 H 1055.21 4.05254 -3.71549 0
M  V30 10999 H 1056.44 5.05578 -4.53395 0
M  V30 11000 H 1054.38 6.05477 -2.52456 0
M  V30 11001 H 1054.3 6.25641 -4.24393 0
M  V30 11002 H 1055.57 7.03908 -3.34864 0
M  V30 11003 N 1059.8 1.27835 0.921735 0
M  V30 11004 C 1060.71 1.12904 2.05645 0
M  V30 11005 C 1061.72 0.0575704 1.73905 0
M  V30 11006 O 1062.9 0.265261 1.99645 0
M  V30 11007 C 1059.96 0.783957 3.3772 0
M  V30 11008 C 1059.03 1.93694 3.8312 0
M  V30 11009 C 1058.26 1.60823 5.08893 0
M  V30 11010 O 1058.48 0.518873 5.68035 0
M  V30 11011 O 1057.42 2.44932 5.49811 0
M  V30 11012 H 1061.24 2.08143 2.21157 0
M  V30 11013 H 1058.83 1.07078 1.04185 0
M  V30 11014 H 1060.71 0.605107 4.17033 0
M  V30 11015 H 1059.38 -0.138849 3.23402 0
M  V30 11016 H 1058.29 2.17089 3.04669 0
M  V30 11017 H 1059.62 2.84016 4.0199 0
M  V30 11018 N 1061.28 -1.12907 1.09954 0
M  V30 11019 C 1062.24 -2.16673 0.747364 0
M  V30 11020 C 1063.24 -1.59208 -0.225741 0
M  V30 11021 O 1064.43 -1.742 -0.00322482 0
M  V30 11022 C 1061.56 -3.40735 0.106169 0
M  V30 11023 H 1062.75 -2.49341 1.6664 0
M  V30 11024 H 1060.31 -1.27828 0.899421 0
M  V30 11025 H 1061.04 -3.13661 -0.82384 0
M  V30 11026 H 1060.83 -3.83717 0.806434 0
M  V30 11027 H 1062.32 -4.17414 -0.12464 0
M  V30 11028 N 1062.75 -0.88754 -1.30232 0
M  V30 11029 C 1063.69 -0.313488 -2.27046 0
M  V30 11030 C 1064.7 0.533383 -1.53814 0
M  V30 11031 O 1065.89 0.352516 -1.74984 0
M  V30 11032 C 1062.99 0.572674 -3.34026 0
M  V30 11033 C 1062.16 -0.245712 -4.36709 0
M  V30 11034 C 1061.22 0.57135 -5.23089 0
M  V30 11035 O 1060.25 -0.00685948 -5.692 0
M  V30 11036 N 1061.45 1.87994 -5.49216 0
M  V30 11037 H 1064.21 -1.14553 -2.76943 0
M  V30 11038 H 1061.77 -0.750785 -1.43439 0
M  V30 11039 H 1063.77 1.12539 -3.88738 0
M  V30 11040 H 1062.34 1.3054 -2.84039 0
M  V30 11041 H 1061.56 -0.979869 -3.81827 0
M  V30 11042 H 1062.84 -0.806618 -5.02366 0
M  V30 11043 H 1062.24 2.3726 -5.13541 0
M  V30 11044 H 1060.8 2.38005 -6.06792 0
M  V30 11045 N 1064.23 1.43628 -0.648757 0
M  V30 11046 C 1065.16 2.33478 0.0320785 0
M  V30 11047 C 1066.14 1.49217 0.816605 0
M  V30 11048 O 1067.33 1.77892 0.778974 0
M  V30 11049 C 1064.46 3.32525 1.00222 0
M  V30 11050 C 1063.41 4.2674 0.328119 0
M  V30 11051 C 1062.74 5.15791 1.4094 0
M  V30 11052 C 1064.04 5.16493 -0.776701 0
M  V30 11053 H 1065.73 2.90657 -0.718257 0
M  V30 11054 H 1063.28 1.3976 -0.346852 0
M  V30 11055 H 1065.23 3.94277 1.4874 0
M  V30 11056 H 1063.96 2.73593 1.78366 0
M  V30 11057 H 1062.61 3.66346 -0.136569 0
M  V30 11058 H 1062.26 4.53201 2.18216 0
M  V30 11059 H 1061.96 5.79645 0.963631 0
M  V30 11060 H 1063.49 5.80416 1.89603 0
M  V30 11061 H 1064.9 5.7208 -0.373878 0
M  V30 11062 H 1063.3 5.89043 -1.14667 0
M  V30 11063 H 1064.37 4.56448 -1.63654 0
M  V30 11064 N 1065.71 0.390394 1.52688 0
M  V30 11065 C 1067.12 -0.083394 1.86514 0
M  V30 11066 C 1067.47 -1.46057 1.31003 0
M  V30 11067 O 1066.6 -2.06663 0.641809 0
M  V30 11068 C 1067.19 -0.158102 3.38431 0
M  V30 11069 C 1065.75 -0.576186 3.71964 0
M  V30 11070 C 1064.9 0.261156 2.76068 0
M  V30 11071 H 1067.85 0.608226 1.46582 0
M  V30 11072 H 1067.87 -0.977023 3.67742 0
M  V30 11073 H 1067.38 0.844365 3.78803 0
M  V30 11074 H 1065.48 -1.58598 3.37161 0
M  V30 11075 H 1065.6 -0.333577 4.77937 0
M  V30 11076 H 1063.96 -0.273737 2.53225 0
M  V30 11077 H 1064.74 1.26162 3.19277 0
M  V30 11078 N 1067.19 -1.57141 0.120249 0
M  V30 11079 C 1068.43 -1.95527 -0.538245 0
M  V30 11080 C 1068.77 -1.00373 -1.6625 0
M  V30 11081 O 1068.04 -0.0411734 -1.94456 0
M  V30 11082 C 1068.33 -3.43843 -1.06976 0
M  V30 11083 C 1068.18 -4.49771 0.0511596 0
M  V30 11084 C 1069.5 -3.94035 -1.96022 0
M  V30 11085 H 1066.62 -0.710958 -0.194183 0
M  V30 11086 H 1069.26 -1.88986 0.196061 0
M  V30 11087 H 1067.41 -3.49548 -1.69553 0
M  V30 11088 H 1069.08 -4.56163 0.686503 0
M  V30 11089 H 1067.32 -4.27882 0.714127 0
M  V30 11090 H 1067.99 -5.50812 -0.361995 0
M  V30 11091 H 1070.47 -3.9064 -1.43315 0
M  V30 11092 H 1069.35 -4.98329 -2.3013 0
M  V30 11093 H 1069.61 -3.34803 -2.8872 0
M  V30 11094 N 1068.67 0.153526 -1.5685 0
M  V30 11095 C 1069.92 0.865628 -1.82181 0
M  V30 11096 C 1070.23 1.82629 -0.700434 0
M  V30 11097 O 1071.43 2.58206 -0.839155 0
M  V30 11098 C 1069.89 1.58993 -3.22877 0
M  V30 11099 C 1069.5 0.672006 -4.42931 0
M  V30 11100 C 1071.24 2.2892 -3.57486 0
M  V30 11101 C 1069.15 1.39755 -5.7465 0
M  V30 11102 H 1068.08 0.326993 -0.679406 0
M  V30 11103 H 1070.73 0.118403 -1.83118 0
M  V30 11104 H 1069.11 2.38255 -3.16308 0
M  V30 11105 H 1070.29 -0.0849226 -4.60722 0
M  V30 11106 H 1068.6 0.0814825 -4.1632 0
M  V30 11107 H 1071.2 2.8383 -4.5315 0
M  V30 11108 H 1071.54 3.05105 -2.83226 0
M  V30 11109 H 1072.07 1.56583 -3.65686 0
M  V30 11110 H 1068.81 0.677686 -6.51987 0
M  V30 11111 H 1068.33 2.12736 -5.60806 0
M  V30 11112 H 1070.01 1.94024 -6.17223 0
M  V30 11113 N 1070.14 1.51827 0.422667 0
M  V30 11114 C 1071.05 1.77066 1.53899 0
M  V30 11115 C 1072.07 0.655541 1.61179 0
M  V30 11116 O 1073.25 0.939448 1.78147 0
M  V30 11117 C 1070.31 1.90372 2.89758 0
M  V30 11118 C 1069.37 3.14256 2.92475 0
M  V30 11119 C 1068.61 3.26918 4.21853 0
M  V30 11120 O 1068.83 2.45164 5.15025 0
M  V30 11121 O 1067.76 4.19989 4.31153 0
M  V30 11122 H 1071.59 2.71791 1.35511 0
M  V30 11123 H 1069.17 1.36506 0.607165 0
M  V30 11124 H 1071.06 2.01024 3.70361 0
M  V30 11125 H 1069.73 0.988347 3.08242 0
M  V30 11126 H 1068.64 3.09072 2.10773 0
M  V30 11127 H 1069.97 4.0553 2.78937 0
M  V30 11128 N 1071.62 -0.679052 1.4222 0
M  V30 11129 C 1072.57 -1.81398 1.45594 0
M  V30 11130 C 1073.56 -1.66112 0.332127 0
M  V30 11131 O 1074.77 -1.72772 0.504942 0
M  V30 11132 H 1071.15 -0.598045 0.455902 0
M  V30 11133 H 1073.12 -1.7567 2.41211 0
M  V30 11134 C 1071.87 -3.19525 1.37109 0
M  V30 11135 H 1071.19 -3.31912 2.22878 0
M  V30 11136 H 1072.63 -3.98967 1.43531 0
M  V30 11137 C 1071.09 -3.36792 0.0853593 0
M  V30 11138 O 1071.62 -3.92309 -0.863532 0
M  V30 11139 N 1069.82 -2.906 0.00389229 0
M  V30 11140 H 1069.37 -2.45607 0.776846 0
M  V30 11141 H 1069.33 -3.0253 -0.855742 0
M  V30 11142 N 1073.1 -1.28322 -0.914942 0
M  V30 11143 C 1074.05 -1.12146 -2.01722 0
M  V30 11144 C 1075.02 -0.0189279 -1.66089 0
M  V30 11145 O 1076.2 -0.183638 -1.89914 0
M  V30 11146 C 1073.34 -0.78808 -3.35981 0
M  V30 11147 C 1072.46 -1.96954 -3.84491 0
M  V30 11148 C 1071.59 -1.57688 -5.07255 0
M  V30 11149 C 1070.63 -2.72506 -5.48094 0
M  V30 11150 N 1069.77 -2.33741 -6.62049 0
M  V30 11151 H 1074.61 -2.06461 -2.1489 0
M  V30 11152 H 1072.14 -1.0276 -1.05256 0
M  V30 11153 H 1074.1 -0.575546 -4.13211 0
M  V30 11154 H 1072.73 0.118132 -3.22584 0
M  V30 11155 H 1071.78 -2.29423 -3.03429 0
M  V30 11156 H 1073.1 -2.8304 -4.10719 0
M  V30 11157 H 1072.25 -1.32634 -5.92025 0
M  V30 11158 H 1070.99 -0.687291 -4.82833 0
M  V30 11159 H 1069.99 -2.9826 -4.61867 0
M  V30 11160 H 1071.22 -3.62106 -5.74505 0
M  V30 11161 H 1069.16 -1.4725 -6.3926 0
M  V30 11162 H 1069.08 -3.13364 -6.87997 0
M  V30 11163 H 1070.35 -2.11968 -7.50127 0
M  V30 11164 N 1074.58 1.12322 -1.10551 0
M  V30 11165 C 1075.82 1.8413 -0.849932 0
M  V30 11166 C 1076.16 1.83938 0.622946 0
M  V30 11167 O 1075.43 1.28579 1.45937 0
M  V30 11168 C 1075.72 3.31751 -1.40048 0
M  V30 11169 C 1075.57 3.40391 -2.9403 0
M  V30 11170 C 1076.89 4.27543 -1.04379 0
M  V30 11171 H 1074.01 0.668533 -0.310213 0
M  V30 11172 H 1076.65 1.31766 -1.36886 0
M  V30 11173 H 1074.8 3.76475 -0.959102 0
M  V30 11174 H 1076.47 3.04294 -3.46703 0
M  V30 11175 H 1074.71 2.809 -3.30571 0
M  V30 11176 H 1075.38 4.44252 -3.27635 0
M  V30 11177 H 1077.86 3.90951 -1.42466 0
M  V30 11178 H 1076.74 5.2924 -1.4559 0
M  V30 11179 H 1077 4.42075 0.0466316 0
M  V30 11180 N 1076.06 0.894434 1.2976 0
M  V30 11181 C 1077.3 0.524501 1.97556 0
M  V30 11182 C 1077.66 -0.911202 1.69 0
M  V30 11183 O 1078.86 -1.38774 2.30207 0
M  V30 11184 C 1077.13 0.802636 3.48271 0
M  V30 11185 S 1078.69 0.536223 4.35511 0
M  V30 11186 H 1075.51 0.194786 0.683798 0
M  V30 11187 H 1078.11 1.15574 1.5768 0
M  V30 11188 H 1076.82 1.84586 3.66546 0
M  V30 11189 H 1076.35 0.159316 3.93077 0
M  V30 11190 H 1078.36 -0.621056 4.92298 0
M  V30 11191 N 1077.53 -1.43282 0.656365 0
M  V30 11192 C 1078.48 -2.32556 -0.0452037 0
M  V30 11193 C 1079.48 -1.48789 -0.80982 0
M  V30 11194 O 1080.68 -1.64979 -0.719865 0
M  V30 11195 H 1077.06 -0.751258 -0.0334043 0
M  V30 11196 H 1079.03 -2.89448 0.725423 0
M  V30 11197 C 1077.78 -3.33138 -0.995706 0
M  V30 11198 H 1077.1 -3.97622 -0.416774 0
M  V30 11199 H 1078.54 -3.98231 -1.45562 0
M  V30 11200 C 1077 -2.63978 -2.09325 0
M  V30 11201 O 1077.53 -2.45769 -3.17743 0
M  V30 11202 N 1075.74 -2.23301 -1.8597 0
M  V30 11203 H 1075.28 -2.38312 -0.97802 0
M  V30 11204 H 1075.24 -1.77358 -2.59599 0
M  V30 11205 N 1079.01 -0.398486 -1.52479 0
M  V30 11206 C 1080.43 -0.0488635 -1.59525 0
M  V30 11207 C 1080.63 1.43756 -1.41197 0
M  V30 11208 O 1079.69 2.20317 -1.23357 0
M  V30 11209 C 1081 -0.534262 -2.95916 0
M  V30 11210 C 1082.55 -0.491314 -3.0912 0
M  V30 11211 C 1083.02 -0.953049 -4.47974 0
M  V30 11212 N 1084.51 -0.909434 -4.54184 0
M  V30 11213 C 1085.25 -1.23801 -5.59876 0
M  V30 11214 N 1084.74 -1.63752 -6.73169 0
M  V30 11215 N 1086.54 -1.15867 -5.50028 0
M  V30 11216 H 1078.69 -1.36608 -1.62641 0
M  V30 11217 H 1080.95 -0.560515 -0.764544 0
M  V30 11218 H 1080.66 -1.57277 -3.14574 0
M  V30 11219 H 1080.53 0.0617787 -3.77149 0
M  V30 11220 H 1082.92 0.538123 -2.90152 0
M  V30 11221 H 1083 -1.12327 -2.29818 0
M  V30 11222 H 1082.64 -1.98076 -4.67684 0
M  V30 11223 H 1082.57 -0.298007 -5.25756 0
M  V30 11224 H 1085.06 -0.615569 -3.72853 0
M  V30 11225 H 1085.38 -1.87163 -7.49793 0
M  V30 11226 H 1083.72 -1.67647 -6.74477 0
M  V30 11227 H 1086.91 -0.845502 -4.60401 0
M  V30 11228 H 1087.09 -1.41805 -6.32294 0
M  V30 11229 N 1080.49 1.57075 -0.12858 0
M  V30 11230 C 1081.72 1.99586 0.533769 0
M  V30 11231 C 1082.13 1.00737 1.60152 0
M  V30 11232 O 1081.47 -0.00647783 1.83699 0
M  V30 11233 C 1081.53 3.3852 1.21014 0
M  V30 11234 C 1081.2 4.56084 0.289191 0
M  V30 11235 C 1082.2 5.17717 -0.475963 0
M  V30 11236 C 1079.88 5.01912 0.197467 0
M  V30 11237 C 1081.87 6.23572 -1.32048 0
M  V30 11238 C 1079.56 6.07626 -0.65067 0
M  V30 11239 C 1080.56 6.68324 -1.40826 0
M  V30 11240 O 1080.25 7.71995 -2.2423 0
M  V30 11241 H 1079.98 0.660245 0.145096 0
M  V30 11242 H 1082.53 2.04276 -0.214615 0
M  V30 11243 H 1080.76 3.30613 2.00579 0
M  V30 11244 H 1082.45 3.65258 1.77036 0
M  V30 11245 H 1083.22 4.83221 -0.415027 0
M  V30 11246 H 1079.1 4.54407 0.776853 0
M  V30 11247 H 1082.64 6.70878 -1.91228 0
M  V30 11248 H 1078.54 6.41551 -0.712965 0
M  V30 11249 H 1079.31 7.89135 -2.17276 0
M  V30 11250 N 1081.97 -0.145205 1.5693 0
M  V30 11251 C 1082.88 -1.19864 2.01667 0
M  V30 11252 C 1083.9 -1.46909 0.932402 0
M  V30 11253 O 1085.07 -1.58543 1.24201 0
M  V30 11254 C 1082.14 -2.51174 2.38982 0
M  V30 11255 C 1081.2 -2.3176 3.61366 0
M  V30 11256 C 1080.43 -3.56809 3.96892 0
M  V30 11257 O 1080.65 -4.63063 3.33059 0
M  V30 11258 O 1079.59 -3.49366 4.9013 0
M  V30 11259 H 1083.41 -0.848821 2.91597 0
M  V30 11260 H 1081 -0.354063 1.45144 0
M  V30 11261 H 1082.88 -3.28587 2.63835 0
M  V30 11262 H 1081.56 -2.85683 1.52207 0
M  V30 11263 H 1080.46 -1.52293 3.41698 0
M  V30 11264 H 1081.8 -2.02167 4.48764 0
M  V30 11265 N 1083.45 -1.52049 -0.414609 0
M  V30 11266 C 1084.69 -1.65838 -1.16206 0
M  V30 11267 C 1085.02 -0.385623 -1.90639 0
M  V30 11268 O 1084.28 0.631214 -1.85241 0
M  V30 11269 C 1084.58 -2.82735 -2.18622 0
M  V30 11270 C 1084.24 -4.21163 -1.61037 0
M  V30 11271 C 1082.9 -4.58816 -1.45056 0
M  V30 11272 C 1085.26 -5.0745 -1.18928 0
M  V30 11273 C 1082.58 -5.8044 -0.854761 0
M  V30 11274 C 1084.94 -6.29674 -0.607686 0
M  V30 11275 C 1083.6 -6.66081 -0.434968 0
M  V30 11276 H 1082.87 -0.606845 -0.425229 0
M  V30 11277 H 1085.52 -1.86137 -0.450009 0
M  V30 11278 H 1083.82 -2.56749 -2.95952 0
M  V30 11279 H 1085.52 -2.90601 -2.76319 0
M  V30 11280 H 1082.11 -3.91488 -1.74457 0
M  V30 11281 H 1086.29 -4.78948 -1.30086 0
M  V30 11282 H 1081.55 -6.07276 -0.70891 0
M  V30 11283 H 1085.72 -6.95865 -0.272988 0
M  V30 11284 H 1083.35 -7.60195 0.0288116 0
M  V30 11285 N 1084.93 0.6715 -1.42579 0
M  V30 11286 C 1085.86 1.79693 -1.49107 0
M  V30 11287 C 1086.84 1.66516 -0.347338 0
M  V30 11288 O 1088.02 1.85887 -0.562094 0
M  V30 11289 C 1085.15 3.1801 -1.39596 0
M  V30 11290 C 1084.11 3.45926 -2.5203 0
M  V30 11291 C 1083.43 4.83852 -2.27577 0
M  V30 11292 C 1084.73 3.4249 -3.94333 0
M  V30 11293 H 1086.43 1.74486 -2.433 0
M  V30 11294 H 1083.97 0.838042 -1.17102 0
M  V30 11295 H 1085.92 3.96478 -1.42771 0
M  V30 11296 H 1084.65 3.23901 -0.418989 0
M  V30 11297 H 1083.31 2.6982 -2.48178 0
M  V30 11298 H 1082.96 4.86398 -1.28165 0
M  V30 11299 H 1082.66 5.03493 -3.02934 0
M  V30 11300 H 1084.18 5.646 -2.32506 0
M  V30 11301 H 1085.59 4.10922 -3.9977 0
M  V30 11302 H 1083.99 3.73666 -4.69568 0
M  V30 11303 H 1085.06 2.41002 -4.20768 0
M  V30 11304 N 1086.4 1.28806 0.908124 0
M  V30 11305 C 1087.35 1.13083 2.03261 0
M  V30 11306 C 1088.35 0.0486094 1.6933 0
M  V30 11307 O 1089.55 0.207794 1.78797 0
M  V30 11308 H 1085.93 0.349057 0.666081 0
M  V30 11309 H 1087.9 2.08304 2.13663 0
M  V30 11310 C 1086.65 0.815339 3.38005 0
M  V30 11311 H 1085.97 1.64007 3.64612 0
M  V30 11312 H 1087.41 0.745311 4.17398 0
M  V30 11313 C 1085.87 -0.48113 3.33447 0
M  V30 11314 O 1086.4 -1.50974 3.7225 0
M  V30 11315 N 1084.6 -0.483912 2.86543 0
M  V30 11316 H 1084.15 0.353593 2.55162 0
M  V30 11317 H 1084.11 -1.35138 2.83875 0
M  V30 11318 N 1087.88 -1.11734 1.11145 0
M  V30 11319 C 1089.13 -1.83043 0.856717 0
M  V30 11320 C 1089.45 -1.84901 -0.619407 0
M  V30 11321 O 1088.72 -1.31738 -1.44989 0
M  V30 11322 H 1087.3 -0.677823 0.31395 0
M  V30 11323 H 1089.96 -1.35262 1.40322 0
M  V30 11324 H 1089.06 -2.87005 1.22616 0
M  V30 11325 N 1089.36 -0.901303 -1.29284 0
M  V30 11326 C 1090.78 -0.597634 -1.47988 0
M  V30 11327 C 1090.98 0.860434 -1.82205 0
M  V30 11328 O 1090.03 1.64049 -1.91948 0
M  V30 11329 C 1091.34 -1.52484 -2.5917 0
M  V30 11330 C 1092.89 -1.53021 -2.73045 0
M  V30 11331 C 1093.37 -2.44373 -3.87357 0
M  V30 11332 N 1094.86 -2.42429 -3.94693 0
M  V30 11333 C 1095.59 -3.09817 -4.82495 0
M  V30 11334 N 1095.09 -3.86489 -5.74976 0
M  V30 11335 N 1096.88 -2.98966 -4.76 0
M  V30 11336 H 1089.03 -1.84432 -1.0535 0
M  V30 11337 H 1091.3 -0.790367 -0.523473 0
M  V30 11338 H 1091 -2.56378 -2.40756 0
M  V30 11339 H 1090.88 -1.24657 -3.56006 0
M  V30 11340 H 1093.26 -0.498709 -2.90855 0
M  V30 11341 H 1093.34 -1.84886 -1.76779 0
M  V30 11342 H 1092.99 -3.47618 -3.70302 0
M  V30 11343 H 1092.92 -2.09817 -4.82995 0
M  V30 11344 H 1095.41 -1.86724 -3.28546 0
M  V30 11345 H 1095.72 -4.34959 -6.38773 0
M  V30 11346 H 1094.07 -3.90596 -5.74857 0
M  V30 11347 H 1097.26 -2.38581 -4.02737 0
M  V30 11348 H 1097.43 -3.51758 -5.44215 0
M  V30 11349 N 1090.84 1.42931 -0.663954 0
M  V30 11350 C 1092.08 2.01982 -0.182007 0
M  V30 11351 C 1092.42 1.52323 1.20463 0
M  V30 11352 O 1091.69 0.720834 1.80649 0
M  V30 11353 C 1091.97 3.59518 -0.204671 0
M  V30 11354 C 1091.83 4.19382 -1.62599 0
M  V30 11355 C 1093.15 4.37762 0.45308 0
M  V30 11356 H 1090.27 0.733892 -0.0676115 0
M  V30 11357 H 1092.91 1.70092 -0.84668 0
M  V30 11358 H 1091.06 3.86816 0.361295 0
M  V30 11359 H 1092.73 4.03076 -2.24337 0
M  V30 11360 H 1090.97 3.75623 -2.17001 0
M  V30 11361 H 1091.64 5.28496 -1.59362 0
M  V30 11362 H 1094.12 4.1609 -0.0285774 0
M  V30 11363 H 1093 5.47392 0.406538 0
M  V30 11364 H 1093.26 4.1482 1.52895 0
M  V30 11365 N 1092.32 0.406567 1.52266 0
M  V30 11366 C 1093.25 -0.45552 2.24628 0
M  V30 11367 C 1094.26 -1.01234 1.27497 0
M  V30 11368 O 1095.45 -0.911718 1.5346 0
M  V30 11369 C 1092.55 -1.64578 2.96256 0
M  V30 11370 C 1091.72 -1.2133 4.20235 0
M  V30 11371 C 1090.78 -2.27018 4.7471 0
M  V30 11372 O 1089.81 -1.87714 5.37357 0
M  V30 11373 N 1091.01 -3.5915 4.56061 0
M  V30 11374 H 1093.77 0.164525 2.99248 0
M  V30 11375 H 1091.34 0.233812 1.60203 0
M  V30 11376 H 1093.33 -2.3484 3.29594 0
M  V30 11377 H 1091.9 -2.1718 2.24837 0
M  V30 11378 H 1091.12 -0.338892 3.92741 0
M  V30 11379 H 1092.41 -0.901268 5.00754 0
M  V30 11380 H 1091.8 -3.93834 4.06092 0
M  V30 11381 H 1090.36 -4.25397 4.93843 0
M  V30 11382 N 1093.79 -1.57004 0.136909 0
M  V30 11383 C 1095.02 -2.00587 -0.527209 0
M  V30 11384 C 1095.44 -1.01628 -1.58283 0
M  V30 11385 O 1094.8 0.00946934 -1.81298 0
M  V30 11386 C 1094.85 -3.42967 -1.11384 0
M  V30 11387 O 1093.95 -3.46973 -2.22898 0
M  V30 11388 H 1093.3 -0.651155 -0.129976 0
M  V30 11389 H 1095.83 -2.03296 0.230667 0
M  V30 11390 H 1095.84 -3.81555 -1.44499 0
M  V30 11391 H 1094.51 -4.14502 -0.340736 0
M  V30 11392 H 1093.09 -3.20219 -1.91087 0
M  V30 11393 N 1095.27 0.136881 -1.57004 0
M  V30 11394 C 1096.5 0.862436 -1.88068 0
M  V30 11395 C 1096.92 1.74274 -0.726227 0
M  V30 11396 O 1096.27 1.79956 0.30366 0
M  V30 11397 C 1096.32 1.71076 -3.18458 0
M  V30 11398 O 1096.04 0.865918 -4.29457 0
M  V30 11399 C 1097.55 2.54302 -3.63105 0
M  V30 11400 H 1094.77 0.248865 -0.623143 0
M  V30 11401 H 1097.31 0.126633 -2.04108 0
M  V30 11402 H 1095.46 2.39951 -3.04142 0
M  V30 11403 H 1095.88 1.4493 -5.04079 0
M  V30 11404 H 1097.35 3.09384 -4.57149 0
M  V30 11405 H 1097.83 3.3082 -2.88886 0
M  V30 11406 H 1098.44 1.907 -3.80149 0
M  V30 11407 N 1096.75 1.52266 0.40654 0
M  V30 11408 C 1097.66 1.78688 1.52012 0
M  V30 11409 C 1098.68 0.6726 1.60475 0
M  V30 11410 O 1099.85 0.95829 1.77141 0
M  V30 11411 C 1096.92 1.93434 2.87722 0
M  V30 11412 C 1095.98 3.17341 2.89125 0
M  V30 11413 C 1095.21 3.31374 4.18362 0
M  V30 11414 O 1095.43 2.50613 5.12396 0
M  V30 11415 O 1094.37 4.24539 4.26674 0
M  V30 11416 H 1098.19 2.73213 1.3262 0
M  V30 11417 H 1095.78 1.37142 0.592653 0
M  V30 11418 H 1097.66 2.04941 3.68208 0
M  V30 11419 H 1096.34 1.02099 3.07177 0
M  V30 11420 H 1095.24 3.1129 2.07483 0
M  V30 11421 H 1096.58 4.08466 2.7462 0
M  V30 11422 N 1098.23 -0.663929 1.42933 0
M  V30 11423 C 1099.16 -1.78899 1.50058 0
M  V30 11424 C 1100.14 -1.66329 0.356164 0
M  V30 11425 O 1101.32 -1.85587 0.571944 0
M  V30 11426 C 1098.45 -3.17265 1.41281 0
M  V30 11427 C 1097.41 -3.44584 2.53861 0
M  V30 11428 C 1096.73 -4.82638 2.3014 0
M  V30 11429 C 1098.03 -3.40394 3.96143 0
M  V30 11430 H 1099.73 -1.73194 2.44222 0
M  V30 11431 H 1097.27 -0.83182 1.17545 0
M  V30 11432 H 1099.23 -3.95715 1.44872 0
M  V30 11433 H 1097.95 -3.23675 0.43616 0
M  V30 11434 H 1096.61 -2.685 2.49606 0
M  V30 11435 H 1096.26 -4.85711 1.30743 0
M  V30 11436 H 1095.96 -5.01879 3.056 0
M  V30 11437 H 1097.48 -5.63359 2.35497 0
M  V30 11438 H 1098.9 -4.08796 4.01943 0
M  V30 11439 H 1097.29 -3.7117 4.71543 0
M  V30 11440 H 1098.36 -2.38767 4.22041 0
M  V30 11441 N 1099.71 -1.29285 -0.901281 0
M  V30 11442 C 1100.95 -1.18431 -1.66594 0
M  V30 11443 C 1101.31 0.260312 -1.90227 0
M  V30 11444 O 1102.51 0.4918 -2.64263 0
M  V30 11445 C 1100.78 -1.97357 -2.97968 0
M  V30 11446 S 1102.34 -2.03019 -3.8901 0
M  V30 11447 H 1099.16 -0.422323 -0.571983 0
M  V30 11448 H 1101.76 -1.63551 -1.07105 0
M  V30 11449 H 1100.47 -3.01459 -2.78479 0
M  V30 11450 H 1100 -1.52836 -3.62498 0
M  V30 11451 H 1102.01 -1.14572 -4.82791 0
M  V30 11452 N 1101.18 1.11143 -1.11736 0
M  V30 11453 C 1102.15 2.15456 -0.78174 0
M  V30 11454 C 1103.15 1.59547 0.200383 0
M  V30 11455 O 1104.34 1.74183 -0.0244893 0
M  V30 11456 C 1101.47 3.40523 -0.160364 0
M  V30 11457 H 1102.66 2.46658 -1.70586 0
M  V30 11458 H 1100.22 1.26381 -0.919644 0
M  V30 11459 H 1100.95 3.14932 0.773835 0
M  V30 11460 H 1100.74 3.82386 -0.867378 0
M  V30 11461 H 1102.23 4.17559 0.0582175 0
M  V30 11462 N 1102.66 0.908147 1.28804 0
M  V30 11463 C 1103.91 0.53734 1.94826 0
M  V30 11464 C 1104.23 -0.920962 1.71882 0
M  V30 11465 O 1103.5 -1.65043 1.05534 0
M  V30 11466 H 1102.08 0.195729 0.720902 0
M  V30 11467 H 1104.74 1.15628 1.56895 0
M  V30 11468 H 1103.84 0.727052 3.03513 0
M  V30 11469 N 1104.14 -1.42577 0.671525 0
M  V30 11470 C 1105.09 -2.27978 -0.0315286 0
M  V30 11471 C 1106.07 -1.40907 -0.776796 0
M  V30 11472 O 1107.27 -1.64385 -0.656248 0
M  V30 11473 C 1104.4 -3.28884 -0.9844 0
M  V30 11474 C 1103.48 -4.23439 -0.236647 0
M  V30 11475 N 1103.87 -5.00107 0.756714 0
M  V30 11476 C 1102.17 -4.43457 -0.475551 0
M  V30 11477 C 1102.87 -5.69141 1.20221 0
M  V30 11478 N 1101.85 -5.40983 0.532802 0
M  V30 11479 H 1105.65 -2.84678 0.730455 0
M  V30 11480 H 1103.16 -1.54501 0.500317 0
M  V30 11481 H 1105.16 -3.88864 -1.50302 0
M  V30 11482 H 1103.82 -2.73745 -1.74625 0
M  V30 11483 H 1104.83 -5.05285 1.13613 0
M  V30 11484 H 1101.51 -3.99364 -1.21715 0
M  V30 11485 H 1102.9 -6.40653 2.02517 0
M  V30 11486 N 1105.62 -0.414636 -1.52048 0
M  V30 11487 C 1106.55 0.399119 -2.30064 0
M  V30 11488 C 1107.53 1.04126 -1.34506 0
M  V30 11489 O 1108.71 1.04923 -1.63416 0
M  V30 11490 C 1105.84 1.51305 -3.12608 0
M  V30 11491 C 1104.8 0.995621 -4.16259 0
M  V30 11492 C 1104.12 2.20357 -4.87183 0
M  V30 11493 C 1105.42 0.0458178 -5.2228 0
M  V30 11494 H 1107.12 -0.251879 -2.98339 0
M  V30 11495 H 1104.66 -0.122579 -1.43477 0
M  V30 11496 H 1106.62 2.08936 -3.65956 0
M  V30 11497 H 1105.34 2.19201 -2.42113 0
M  V30 11498 H 1104 0.441676 -3.6393 0
M  V30 11499 H 1103.65 2.8682 -4.13211 0
M  V30 11500 H 1103.35 1.86385 -5.57256 0
M  V30 11501 H 1104.87 2.78584 -5.43345 0
M  V30 11502 H 1106.29 0.531102 -5.70835 0
M  V30 11503 H 1104.68 -0.20536 -5.99749 0
M  V30 11504 H 1105.75 -0.897807 -4.76516 0
M  V30 11505 N 1107.1 1.56929 -0.145233 0
M  V30 11506 C 1108.06 2.15483 0.781002 0
M  V30 11507 C 1109.06 1.09617 1.17647 0
M  V30 11508 O 1110.25 1.35265 1.09768 0
M  V30 11509 C 1107.38 2.7165 2.05959 0
M  V30 11510 H 1108.57 2.98667 0.271685 0
M  V30 11511 H 1106.13 1.55952 0.1042 0
M  V30 11512 H 1106.86 1.92127 2.61262 0
M  V30 11513 H 1106.65 3.491 1.78526 0
M  V30 11514 H 1108.14 3.16769 2.72116 0
M  V30 11515 N 1108.58 -0.128553 1.57075 0
M  V30 11516 C 1109.82 -0.836355 1.83982 0
M  V30 11517 C 1110.14 -1.80862 0.728971 0
M  V30 11518 O 1109.41 -1.94326 -0.247859 0
M  V30 11519 H 1107.99 -0.31185 0.678792 0
M  V30 11520 H 1110.66 -0.118153 1.94542 0
M  V30 11521 H 1109.75 -1.38741 2.79567 0
M  V30 11522 N 1110.05 -1.5248 -0.398459 0
M  V30 11523 C 1111.3 -1.66731 -1.14215 0
M  V30 11524 C 1111.62 -0.404957 -1.90749 0
M  V30 11525 O 1110.89 0.580434 -1.87104 0
M  V30 11526 H 1109.47 -0.614577 -0.424622 0
M  V30 11527 H 1112.13 -1.89561 -0.453059 0
M  V30 11528 H 1111.23 -2.51336 -1.85031 0
M  V30 11529 N 1111.53 0.65634 -1.43283 0
M  V30 11530 C 1112.76 1.44408 -1.48168 0
M  V30 11531 C 1113.17 1.88542 -0.0986016 0
M  V30 11532 O 1112.53 1.59298 0.890527 0
M  V30 11533 C 1112.58 2.68111 -2.42484 0
M  V30 11534 O 1112.3 2.25824 -3.75413 0
M  V30 11535 C 1113.8 3.61499 -2.56579 0
M  V30 11536 H 1111.02 0.443731 -0.503333 0
M  V30 11537 H 1113.57 0.804917 -1.87993 0
M  V30 11538 H 1111.72 3.28175 -2.05863 0
M  V30 11539 H 1112.14 3.05839 -4.26102 0
M  V30 11540 H 1113.61 4.44972 -3.26655 0
M  V30 11541 H 1114.09 4.08639 -1.60969 0
M  V30 11542 H 1114.69 3.07319 -2.93998 0
M  V30 11543 N 1113.01 1.29761 0.894412 0
M  V30 11544 C 1114.29 1.08711 1.62608 0
M  V30 11545 C 1114.67 -0.366907 2.07887 0
M  V30 11546 O 1114.01 -1.35669 1.83865 0
M  V30 11547 C 1114.22 2.07947 2.80284 0
M  V30 11548 C 1115.57 2.39153 3.50843 0
M  V30 11549 O 1116.6 2.06183 2.9046 0
M  V30 11550 O 1115.46 2.95509 4.59713 0
M  V30 11551 H 1112.55 0.416866 0.714249 0
M  V30 11552 H 1115.1 1.41153 0.942015 0
M  V30 11553 H 1113.87 3.05859 2.44061 0
M  V30 11554 H 1113.49 1.76266 3.56393 0
M  V30 11555 N 1114.49 -1.10549 1.12324 0
M  V30 11556 C 1115.71 -1.8681 0.900927 0
M  V30 11557 C 1116.14 -1.80049 -0.54443 0
M  V30 11558 O 1115.5 -1.16957 -1.38531 0
M  V30 11559 C 1115.54 -3.33197 1.37883 0
M  V30 11560 O 1114.65 -4.08628 0.556529 0
M  V30 11561 H 1113.99 -0.579709 0.32378 0
M  V30 11562 H 1116.52 -1.39678 1.49503 0
M  V30 11563 H 1116.53 -3.84047 1.37739 0
M  V30 11564 H 1115.2 -3.37435 2.43127 0
M  V30 11565 H 1113.78 -3.67627 0.62486 0
M  V30 11566 N 1115.97 -0.914965 -1.28321 0
M  V30 11567 C 1117.21 -0.555865 -1.96696 0
M  V30 11568 C 1117.57 0.8842 -1.70429 0
M  V30 11569 O 1118.77 1.35094 -2.32386 0
M  V30 11570 C 1117.04 -0.857942 -3.4695 0
M  V30 11571 S 1118.6 -0.605441 -4.34603 0
M  V30 11572 H 1115.42 -0.20564 -0.680612 0
M  V30 11573 H 1118.02 -1.18068 -1.55821 0
M  V30 11574 H 1116.72 -1.90394 -3.63563 0
M  V30 11575 H 1116.26 -0.221831 -3.92774 0
M  V30 11576 H 1118.27 0.542657 -4.93224 0
M  V30 11577 N 1117.44 1.42219 -0.679077 0
M  V30 11578 C 1118.38 2.29172 0.035583 0
M  V30 11579 C 1119.39 1.43909 0.761183 0
M  V30 11580 O 1120.58 1.67584 0.61463 0
M  V30 11581 C 1117.68 3.21426 1.07419 0
M  V30 11582 C 1116.85 4.35364 0.421547 0
M  V30 11583 C 1115.91 5.08307 1.36051 0
M  V30 11584 O 1114.94 5.62678 0.859186 0
M  V30 11585 N 1116.14 5.14222 2.69362 0
M  V30 11586 H 1118.9 2.91147 -0.710865 0
M  V30 11587 H 1116.46 1.53192 -0.523821 0
M  V30 11588 H 1118.46 3.67091 1.70371 0
M  V30 11589 H 1117.03 2.60873 1.72233 0
M  V30 11590 H 1116.25 3.9229 -0.387559 0
M  V30 11591 H 1117.53 5.08789 -0.0329421 0
M  V30 11592 H 1116.93 4.71467 3.12627 0
M  V30 11593 H 1115.49 5.63519 3.27551 0
M  V30 11594 N 1118.92 0.422693 1.51826 0
M  V30 11595 C 1120.17 -0.148348 2.01555 0
M  V30 11596 C 1120.49 -1.44483 1.30956 0
M  V30 11597 O 1119.76 -1.90904 0.439599 0
M  V30 11598 H 1118.34 -0.0578116 0.74476 0
M  V30 11599 H 1121 0.562046 1.8662 0
M  V30 11600 H 1120.1 -0.334766 3.10299 0
M  V30 11601 N 1120.4 -1.5685 0.153553 0
M  V30 11602 C 1121.68 -1.8796 -0.541328 0
M  V30 11603 C 1122.06 -1.06059 -1.82523 0
M  V30 11604 O 1121.4 -0.149295 -2.28012 0
M  V30 11605 C 1121.61 -3.39697 -0.800442 0
M  V30 11606 C 1122.96 -4.09057 -1.13832 0
M  V30 11607 O 1123.99 -3.44913 -0.889578 0
M  V30 11608 O 1122.85 -5.22347 -1.60673 0
M  V30 11609 H 1119.94 -0.779268 -0.276895 0
M  V30 11610 H 1122.49 -1.68626 0.190657 0
M  V30 11611 H 1121.26 -3.91151 0.107935 0
M  V30 11612 H 1120.88 -3.64582 -1.58638 0
M  V30 11613 N 1121.88 0.120221 -1.57141 0
M  V30 11614 C 1123.1 0.84637 -1.89344 0
M  V30 11615 C 1123.53 1.72702 -0.745365 0
M  V30 11616 O 1122.89 1.7873 0.304155 0
M  V30 11617 C 1122.93 1.65671 -3.20289 0
M  V30 11618 O 1122.04 2.76353 -3.06109 0
M  V30 11619 H 1121.38 0.234132 -0.621352 0
M  V30 11620 H 1123.91 0.102986 -2.04341 0
M  V30 11621 H 1123.92 2.04621 -3.52979 0
M  V30 11622 H 1122.59 1.01023 -4.03444 0
M  V30 11623 H 1121.17 2.40615 -2.84884 0
M  V30 11624 N 1123.36 1.52689 0.390367 0
M  V30 11625 C 1124.6 1.67335 1.13329 0
M  V30 11626 C 1124.93 0.415068 1.90531 0
M  V30 11627 O 1124.2 -0.570504 1.87409 0
M  V30 11628 H 1122.78 0.616821 0.421356 0
M  V30 11629 H 1125.44 1.89799 0.443 0
M  V30 11630 H 1124.53 2.52314 1.83696 0
M  V30 11631 N 1124.83 -0.648732 1.43629 0
M  V30 11632 C 1126.08 -1.40579 1.45196 0
M  V30 11633 C 1126.4 -1.9484 0.0790556 0
M  V30 11634 O 1125.67 -1.74707 -0.886239 0
M  V30 11635 H 1124.25 -0.52175 0.53459 0
M  V30 11636 H 1126.92 -0.764796 1.79268 0
M  V30 11637 H 1126.01 -2.24591 2.16715 0
M  V30 11638 N 1126.31 -1.30234 -0.887518 0
M  V30 11639 C 1127.72 -1.17048 -1.45453 0
M  V30 11640 C 1128.07 0.229793 -1.9485 0
M  V30 11641 O 1127.2 1.12628 -1.84781 0
M  V30 11642 C 1127.79 -2.11876 -2.64375 0
M  V30 11643 C 1126.35 -2.02676 -3.17174 0
M  V30 11644 C 1125.5 -2.02104 -1.89866 0
M  V30 11645 H 1128.45 -1.42541 -0.697694 0
M  V30 11646 H 1128.47 -1.69811 -3.40506 0
M  V30 11647 H 1127.98 -3.13781 -2.28392 0
M  V30 11648 H 1126.09 -1.03904 -3.57819 0
M  V30 11649 H 1126.2 -2.90939 -3.80646 0
M  V30 11650 H 1124.56 -1.4687 -2.0809 0
M  V30 11651 H 1125.35 -3.05735 -1.56145 0
M  V30 11652 N 1127.79 1.09952 -1.12909 0
M  V30 11653 C 1128.72 2.18477 -0.824014 0
M  V30 11654 C 1129.7 1.68744 0.214324 0
M  V30 11655 O 1130.89 1.94057 0.0744281 0
M  V30 11656 C 1128.02 3.46143 -0.283308 0
M  V30 11657 C 1126.97 4.09178 -1.25528 0
M  V30 11658 C 1126.3 5.31604 -0.574574 0
M  V30 11659 C 1127.6 4.52308 -2.6118 0
M  V30 11660 H 1129.29 2.44254 -1.73148 0
M  V30 11661 H 1126.84 1.17394 -0.833952 0
M  V30 11662 H 1128.79 4.21361 -0.057583 0
M  V30 11663 H 1127.51 3.19872 0.659525 0
M  V30 11664 H 1126.17 3.35973 -1.4669 0
M  V30 11665 H 1125.82 5.01611 0.37356 0
M  V30 11666 H 1125.52 5.74732 -1.22299 0
M  V30 11667 H 1127.04 6.0955 -0.358004 0
M  V30 11668 H 1128.46 5.18776 -2.44017 0
M  V30 11669 H 1126.86 5.06302 -3.22147 0
M  V30 11670 H 1127.93 3.64977 -3.19249 0
M  V30 11671 N 1129.27 0.921757 1.27833 0
M  V30 11672 C 1130.51 0.559906 1.94918 0
M  V30 11673 C 1130.85 -0.895532 1.72319 0
M  V30 11674 O 1130.12 -1.638 1.04879 0
M  V30 11675 C 1130.41 0.879458 3.49196 0
M  V30 11676 C 1130.26 2.38821 3.81162 0
M  V30 11677 C 1131.58 0.381183 4.38446 0
M  V30 11678 H 1128.7 0.204893 0.707946 0
M  V30 11679 H 1131.34 1.15246 1.51058 0
M  V30 11680 H 1129.49 0.375177 3.86684 0
M  V30 11681 H 1131.16 2.96373 3.53498 0
M  V30 11682 H 1129.4 2.83988 3.27923 0
M  V30 11683 H 1130.07 2.56234 4.88926 0
M  V30 11684 H 1132.55 0.813289 4.08075 0
M  V30 11685 H 1131.43 0.633778 5.45229 0
M  V30 11686 H 1131.69 -0.718651 4.3622 0
M  V30 11687 N 1130.75 -1.41857 0.686609 0
M  V30 11688 C 1131.99 -2.03236 0.217839 0
M  V30 11689 C 1132.35 -1.5317 -1.15771 0
M  V30 11690 O 1133.55 -2.06415 -1.72181 0
M  V30 11691 C 1131.82 -3.56428 0.263443 0
M  V30 11692 S 1133.38 -4.386 -0.132595 0
M  V30 11693 H 1130.2 -0.705472 0.088487 0
M  V30 11694 H 1132.8 -1.73428 0.902393 0
M  V30 11695 H 1131.51 -3.90362 1.26672 0
M  V30 11696 H 1131.04 -3.90925 -0.440556 0
M  V30 11697 H 1133.05 -4.77119 -1.3628 0
M  V30 11698 N 1132.22 -0.430739 -1.51599 0
M  V30 11699 C 1133.47 0.137929 -2.0203 0
M  V30 11700 C 1133.8 1.43287 -1.31526 0
M  V30 11701 O 1133.05 1.9121 -0.416814 0
M  V30 11702 C 1133.35 0.410694 -3.55032 0
M  V30 11703 C 1133.02 -0.797634 -4.43789 0
M  V30 11704 C 1131.68 -1.12902 -4.67768 0
M  V30 11705 C 1134.03 -1.60403 -4.95904 0
M  V30 11706 C 1131.36 -2.2676 -5.41107 0
M  V30 11707 C 1133.71 -2.73354 -5.70491 0
M  V30 11708 C 1132.38 -3.06955 -5.92735 0
M  V30 11709 H 1131.65 0.0504718 -0.739279 0
M  V30 11710 H 1134.29 -0.576585 -1.82614 0
M  V30 11711 H 1132.6 1.20703 -3.72744 0
M  V30 11712 H 1134.3 0.864006 -3.91581 0
M  V30 11713 H 1130.89 -0.529397 -4.25318 0
M  V30 11714 H 1135.07 -1.36122 -4.77268 0
M  V30 11715 H 1130.33 -2.53114 -5.56546 0
M  V30 11716 H 1134.5 -3.36213 -6.09864 0
M  V30 11717 H 1132.13 -3.95293 -6.49344 0
M  V30 11718 N 1133.7 1.56767 -0.161869 0
M  V30 11719 C 1134.61 2.21083 0.784814 0
M  V30 11720 C 1135.63 1.19959 1.26039 0
M  V30 11721 O 1136.8 1.52588 1.31449 0
M  V30 11722 C 1133.87 2.83153 2.00063 0
M  V30 11723 C 1132.93 3.9945 1.57285 0
M  V30 11724 C 1132.16 4.5855 2.7307 0
M  V30 11725 O 1132.39 4.16534 3.89686 0
M  V30 11726 O 1131.32 5.48575 2.47688 0
M  V30 11727 H 1135.15 3.02522 0.267243 0
M  V30 11728 H 1132.73 1.49255 0.0658783 0
M  V30 11729 H 1134.61 3.22546 2.71186 0
M  V30 11730 H 1133.29 2.04718 2.50744 0
M  V30 11731 H 1132.2 3.64745 0.831393 0
M  V30 11732 H 1133.53 4.7945 1.11304 0
M  V30 11733 N 1135.18 -0.111886 1.57202 0
M  V30 11734 C 1136.13 -1.13688 2.00858 0
M  V30 11735 C 1137.1 -1.40752 0.881939 0
M  V30 11736 O 1138.28 -1.52498 1.14669 0
M  V30 11737 C 1135.42 -2.45641 2.42393 0
M  V30 11738 C 1134.54 -2.25452 3.68504 0
M  V30 11739 C 1133.67 -3.50686 3.9899 0
M  V30 11740 C 1132.71 -3.25685 5.18262 0
M  V30 11741 N 1131.85 -4.4314 5.44583 0
M  V30 11742 H 1136.69 -0.757611 2.88209 0
M  V30 11743 H 1134.22 -0.362582 1.42561 0
M  V30 11744 H 1136.18 -3.22627 2.64514 0
M  V30 11745 H 1134.81 -2.81447 1.58074 0
M  V30 11746 H 1133.86 -1.39349 3.53958 0
M  V30 11747 H 1135.18 -2.0296 4.55641 0
M  V30 11748 H 1134.33 -4.36087 4.21797 0
M  V30 11749 H 1133.07 -3.76216 3.10343 0
M  V30 11750 H 1132.07 -2.38675 4.95292 0
M  V30 11751 H 1133.3 -3.01518 6.08493 0
M  V30 11752 H 1131.24 -4.68778 4.58893 0
M  V30 11753 H 1131.16 -4.23778 6.26058 0
M  V30 11754 H 1132.43 -5.29654 5.71915 0
M  V30 11755 N 1136.66 -1.52894 -0.382264 0
M  V30 11756 C 1137.94 -1.58853 -1.14127 0
M  V30 11757 C 1138.32 -0.38582 -2.07544 0
M  V30 11758 O 1137.66 0.625323 -2.19777 0
M  V30 11759 C 1137.87 -2.93068 -1.89504 0
M  V30 11760 C 1139.22 -3.47048 -2.44629 0
M  V30 11761 O 1140.25 -2.94987 -1.99652 0
M  V30 11762 O 1139.1 -4.3802 -3.26804 0
M  V30 11763 H 1136.2 -0.640969 -0.522578 0
M  V30 11764 H 1138.74 -1.65231 -0.386873 0
M  V30 11765 H 1137.52 -3.72047 -1.2123 0
M  V30 11766 H 1137.14 -2.90106 -2.7189 0
M  V30 11767 N 1138.14 0.641106 -1.43971 0
M  V30 11768 C 1139.08 1.75352 -1.50068 0
M  V30 11769 C 1140.05 1.62386 -0.349266 0
M  V30 11770 O 1141.24 1.82455 -0.558118 0
M  V30 11771 C 1138.38 3.13561 -1.4413 0
M  V30 11772 C 1137.49 3.37574 -2.6957 0
M  V30 11773 C 1136.63 4.65698 -2.55535 0
M  V30 11774 C 1135.67 4.82857 -3.76186 0
M  V30 11775 N 1134.8 6.02249 -3.60888 0
M  V30 11776 H 1139.64 1.69477 -2.45116 0
M  V30 11777 H 1137.18 0.826871 -1.2166 0
M  V30 11778 H 1139.14 3.93476 -1.38681 0
M  V30 11779 H 1137.77 3.18476 -0.526563 0
M  V30 11780 H 1136.82 2.5167 -2.85248 0
M  V30 11781 H 1138.13 3.46135 -3.59154 0
M  V30 11782 H 1137.29 5.53759 -2.47862 0
M  V30 11783 H 1136.03 4.59479 -1.63495 0
M  V30 11784 H 1135.03 3.93229 -3.84254 0
M  V30 11785 H 1136.26 4.90898 -4.6925 0
M  V30 11786 H 1134.2 5.97138 -2.71591 0
M  V30 11787 H 1134.12 6.11822 -4.44083 0
M  V30 11788 H 1135.39 6.92898 -3.57088 0
M  V30 11789 N 1139.62 1.30703 0.880598 0
M  V30 11790 C 1140.85 1.22536 1.66339 0
M  V30 11791 C 1141.25 -0.213507 1.87991 0
M  V30 11792 O 1140.6 -1.15236 1.43061 0
M  V30 11793 C 1140.66 1.88798 3.05934 0
M  V30 11794 C 1140.32 3.38131 3.07435 0
M  V30 11795 C 1141.32 4.34053 2.86171 0
M  V30 11796 C 1139 3.79651 3.28893 0
M  V30 11797 C 1141 5.69469 2.86328 0
M  V30 11798 C 1138.69 5.15182 3.2868 0
M  V30 11799 C 1139.68 6.09902 3.07423 0
M  V30 11800 O 1139.37 7.42957 3.07034 0
M  V30 11801 H 1139.1 0.425018 0.525677 0
M  V30 11802 H 1141.66 1.72939 1.1082 0
M  V30 11803 H 1139.89 1.3293 3.63134 0
M  V30 11804 H 1141.58 1.74691 3.66385 0
M  V30 11805 H 1142.34 4.03307 2.69385 0
M  V30 11806 H 1138.22 3.06365 3.44473 0
M  V30 11807 H 1141.77 6.43375 2.69655 0
M  V30 11808 H 1137.66 5.45567 3.45002 0
M  V30 11809 H 1138.43 7.52 3.23169 0
M  V30 11810 N 1141.09 -1.09351 1.1349 0
M  V30 11811 C 1142.34 -1.80915 0.89177 0
M  V30 11812 C 1142.66 -1.86688 -0.5837 0
M  V30 11813 O 1143.86 -2.54568 -0.943788 0
M  V30 11814 C 1142.32 -3.25009 1.54587 0
M  V30 11815 C 1141.93 -3.27501 3.05691 0
M  V30 11816 C 1143.67 -4.01323 1.38346 0
M  V30 11817 C 1141.58 -4.66123 3.63983 0
M  V30 11818 H 1140.51 -0.677961 0.329978 0
M  V30 11819 H 1143.16 -1.22893 1.3627 0
M  V30 11820 H 1141.54 -3.83098 1.0026 0
M  V30 11821 H 1142.71 -2.79174 3.66604 0
M  V30 11822 H 1141.03 -2.64677 3.21457 0
M  V30 11823 H 1143.63 -5.03739 1.79307 0
M  V30 11824 H 1143.97 -4.15003 0.328404 0
M  V30 11825 H 1144.5 -3.49679 1.89656 0
M  V30 11826 H 1141.24 -4.57646 4.69298 0
M  V30 11827 H 1140.76 -5.14772 3.07848 0
M  V30 11828 H 1142.44 -5.35097 3.63703 0
M  V30 11829 N 1142.57 -0.928524 -1.27343 0
M  V30 11830 C 1143.5 -0.445627 -2.29208 0
M  V30 11831 C 1144.48 0.494508 -1.62753 0
M  V30 11832 O 1145.67 0.399082 -1.90055 0
M  V30 11833 C 1142.8 0.301684 -3.45987 0
M  V30 11834 C 1141.75 -0.550695 -4.24442 0
M  V30 11835 C 1141.08 0.325833 -5.33706 0
M  V30 11836 C 1142.38 -1.81559 -4.89728 0
M  V30 11837 H 1144.07 -1.29696 -2.69851 0
M  V30 11838 H 1141.62 -0.625085 -1.29725 0
M  V30 11839 H 1143.57 0.650455 -4.1635 0
M  V30 11840 H 1142.29 1.18705 -3.04264 0
M  V30 11841 H 1140.95 -0.882185 -3.55827 0
M  V30 11842 H 1140.6 1.21018 -4.88225 0
M  V30 11843 H 1140.3 -0.240994 -5.87106 0
M  V30 11844 H 1141.83 0.670156 -6.06911 0
M  V30 11845 H 1143.24 -1.53483 -5.52373 0
M  V30 11846 H 1141.64 -2.32598 -5.53189 0
M  V30 11847 H 1142.71 -2.53461 -4.13383 0
M  V30 11848 N 1144.05 1.41491 -0.694123 0
M  V30 11849 C 1144.98 2.29197 0.0112742 0
M  V30 11850 C 1145.99 1.44708 0.745877 0
M  V30 11851 O 1147.18 1.68227 0.596821 0
M  V30 11852 C 1144.28 3.22547 1.04004 0
M  V30 11853 C 1143.46 4.35787 0.375347 0
M  V30 11854 C 1142.52 5.09722 1.30652 0
M  V30 11855 O 1141.54 5.63558 0.799459 0
M  V30 11856 N 1142.74 5.1705 2.63893 0
M  V30 11857 H 1145.51 2.90377 -0.741705 0
M  V30 11858 H 1143.07 1.52628 -0.540039 0
M  V30 11859 H 1145.06 3.68878 1.66468 0
M  V30 11860 H 1143.63 2.62685 1.69456 0
M  V30 11861 H 1142.85 3.91857 -0.429145 0
M  V30 11862 H 1144.14 5.08726 -0.0869041 0
M  V30 11863 H 1143.54 4.74756 3.07609 0
M  V30 11864 H 1142.09 5.66962 3.21555 0
M  V30 11865 N 1145.53 0.438773 1.51369 0
M  V30 11866 C 1146.78 -0.126962 2.01701 0
M  V30 11867 C 1147.1 -1.43086 1.32481 0
M  V30 11868 O 1146.37 -1.90427 0.459823 0
M  V30 11869 H 1144.95 -0.0499092 0.745331 0
M  V30 11870 H 1147.61 0.581808 1.86013 0
M  V30 11871 H 1146.7 -0.301836 3.10637 0
M  V30 11872 N 1147.01 -1.56678 0.170181 0
M  V30 11873 C 1148.25 -1.9714 -0.475767 0
M  V30 11874 C 1148.58 -1.05611 -1.62972 0
M  V30 11875 O 1147.86 -0.103017 -1.94227 0
M  V30 11876 C 1148.14 -3.47072 -0.959828 0
M  V30 11877 C 1148 -4.4938 0.194225 0
M  V30 11878 C 1149.31 -4.00071 -1.83387 0
M  V30 11879 H 1146.43 -0.716776 -0.171466 0
M  V30 11880 H 1149.08 -1.88266 0.256086 0
M  V30 11881 H 1147.23 -3.54766 -1.58346 0
M  V30 11882 H 1148.9 -4.53748 0.83128 0
M  V30 11883 H 1147.14 -4.25393 0.849893 0
M  V30 11884 H 1147.81 -5.51685 -0.186575 0
M  V30 11885 H 1150.29 -3.95002 -1.30815 0
M  V30 11886 H 1149.16 -5.05398 -2.14159 0
M  V30 11887 H 1149.42 -3.43819 -2.77923 0
M  V30 11888 N 1148.48 0.103547 -1.57259 0
M  V30 11889 C 1149.71 0.82235 -1.89855 0
M  V30 11890 C 1150.13 1.72694 -0.76303 0
M  V30 11891 O 1149.48 1.8056 0.265421 0
M  V30 11892 C 1149.53 1.64282 -3.22015 0
M  V30 11893 O 1149.26 0.774628 -4.31197 0
M  V30 11894 C 1150.76 2.46543 -3.68418 0
M  V30 11895 H 1147.98 0.235591 -0.628282 0
M  V30 11896 H 1150.52 0.0833106 -2.0433 0
M  V30 11897 H 1148.68 2.33446 -3.09163 0
M  V30 11898 H 1149.09 1.34205 -5.0704 0
M  V30 11899 H 1150.56 2.99618 -4.63609 0
M  V30 11900 H 1151.04 3.24618 -2.95838 0
M  V30 11901 H 1151.65 1.82594 -3.84109 0
M  V30 11902 N 1149.96 1.53094 0.37415 0
M  V30 11903 C 1151.19 1.73061 1.143 0
M  V30 11904 C 1151.61 0.454611 1.82524 0
M  V30 11905 O 1150.97 -0.590743 1.71406 0
M  V30 11906 C 1151.02 2.89086 2.15549 0
M  V30 11907 O 1150.12 2.57096 3.22452 0
M  V30 11908 H 1149.46 0.575009 0.332055 0
M  V30 11909 H 1151.99 1.99946 0.433897 0
M  V30 11910 H 1152 3.15007 2.59296 0
M  V30 11911 H 1150.68 3.81647 1.65283 0
M  V30 11912 H 1149.25 2.41965 2.83738 0
M  V30 11913 N 1151.44 -0.633461 1.44309 0
M  V30 11914 C 1152.69 -1.39334 1.48181 0
M  V30 11915 C 1153.04 -1.92075 0.111835 0
M  V30 11916 O 1152.33 -1.70577 -0.87258 0
M  V30 11917 C 1152.53 -2.57783 2.47554 0
M  V30 11918 C 1152.36 -2.16638 3.94079 0
M  V30 11919 C 1151.13 -2.04027 4.62278 0
M  V30 11920 C 1153.32 -1.75694 4.83359 0
M  V30 11921 N 1151.31 -1.5642 5.93638 0
M  V30 11922 C 1152.68 -1.39315 6.04145 0
M  V30 11923 C 1154.73 -1.63053 4.70445 0
M  V30 11924 C 1153.44 -0.915604 7.13449 0
M  V30 11925 C 1155.46 -1.16703 5.79771 0
M  V30 11926 C 1154.82 -0.812735 6.99696 0
M  V30 11927 H 1150.92 -0.504757 0.597281 0
M  V30 11928 H 1153.51 -0.726948 1.8062 0
M  V30 11929 H 1151.68 -3.22053 2.17109 0
M  V30 11930 H 1153.41 -3.2457 2.41737 0
M  V30 11931 H 1150.16 -2.24407 4.17059 0
M  V30 11932 H 1150.59 -1.34922 6.63419 0
M  V30 11933 H 1155.23 -1.89078 3.78166 0
M  V30 11934 H 1152.95 -0.642869 8.05539 0
M  V30 11935 H 1156.53 -1.07385 5.71804 0
M  V30 11936 H 1155.41 -0.45957 7.82852 0
M  V30 11937 N 1152.92 -1.31168 -0.873655 0
M  V30 11938 C 1154.17 -1.20404 -1.62319 0
M  V30 11939 C 1154.49 0.238829 -1.93532 0
M  V30 11940 O 1153.76 1.15854 -1.57971 0
M  V30 11941 H 1152.34 -0.442632 -0.601736 0
M  V30 11942 H 1155 -1.64445 -1.04613 0
M  V30 11943 H 1154.1 -1.77309 -2.56842 0
M  V30 11944 N 1154.4 1.08748 -1.14068 0
M  V30 11945 C 1155.33 2.17591 -0.84714 0
M  V30 11946 C 1156.31 1.68962 0.196415 0
M  V30 11947 O 1157.49 1.94125 0.0538415 0
M  V30 11948 C 1154.62 3.45823 -0.320005 0
M  V30 11949 C 1153.58 4.07824 -1.2986 0
M  V30 11950 C 1152.9 5.30965 -0.630925 0
M  V30 11951 C 1154.2 4.49512 -2.65963 0
M  V30 11952 H 1155.9 2.42404 -1.75729 0
M  V30 11953 H 1153.44 1.16502 -0.846356 0
M  V30 11954 H 1155.4 4.21276 -0.102271 0
M  V30 11955 H 1154.12 3.20553 0.625561 0
M  V30 11956 H 1152.78 3.34398 -1.50245 0
M  V30 11957 H 1152.43 5.01979 0.320337 0
M  V30 11958 H 1152.13 5.73402 -1.28388 0
M  V30 11959 H 1153.65 6.09136 -0.422635 0
M  V30 11960 H 1155.06 5.16159 -2.49506 0
M  V30 11961 H 1153.46 5.02857 -3.27498 0
M  V30 11962 H 1154.53 3.6157 -3.23102 0
M  V30 11963 N 1155.87 0.935264 1.26849 0
M  V30 11964 C 1157.12 0.578545 1.93642 0
M  V30 11965 C 1157.44 -0.884296 1.73796 0
M  V30 11966 O 1156.71 -1.62768 1.09011 0
M  V30 11967 H 1155.29 0.210976 0.716588 0
M  V30 11968 H 1157.96 1.1893 1.54407 0
M  V30 11969 H 1157.05 0.791268 3.01903 0
M  V30 11970 N 1157.35 -1.41121 0.701616 0
M  V30 11971 C 1158.59 -2.02993 0.239383 0
M  V30 11972 C 1158.96 -1.5439 -1.1414 0
M  V30 11973 O 1160.16 -2.08229 -1.69982 0
M  V30 11974 C 1158.43 -3.56128 0.301232 0
M  V30 11975 S 1159.99 -4.38716 -0.0860681 0
M  V30 11976 H 1156.81 -0.704494 0.0959645 0
M  V30 11977 H 1159.41 -1.72461 0.920736 0
M  V30 11978 H 1158.11 -3.88996 1.30805 0
M  V30 11979 H 1157.64 -3.91371 -0.399069 0
M  V30 11980 H 1159.66 -4.78537 -1.31212 0
M  V30 11981 N 1158.83 -0.446794 -1.51134 0
M  V30 11982 C 1159.79 0.348311 -2.26538 0
M  V30 11983 C 1160.79 0.941566 -1.3035 0
M  V30 11984 O 1161.98 0.814537 -1.53984 0
M  V30 11985 C 1159.12 1.49371 -3.06433 0
M  V30 11986 H 1160.31 -0.312648 -2.98266 0
M  V30 11987 H 1157.86 -0.200201 -1.55013 0
M  V30 11988 H 1158.6 2.19045 -2.39144 0
M  V30 11989 H 1158.38 1.07439 -3.77093 0
M  V30 11990 H 1159.87 2.05522 -3.63525 0
M  V30 11991 N 1160.31 1.56586 -0.178487 0
M  V30 11992 C 1161.72 1.58609 0.17759 0
M  V30 11993 C 1161.92 1.19411 1.62306 0
M  V30 11994 O 1160.98 0.90906 2.35568 0
M  V30 11995 C 1162.29 3.005 -0.109722 0
M  V30 11996 C 1163.84 3.12962 -0.0485036 0
M  V30 11997 C 1164.32 4.56957 -0.308901 0
M  V30 11998 N 1165.81 4.62487 -0.25693 0
M  V30 11999 C 1166.54 5.71767 -0.432488 0
M  V30 12000 N 1166.04 6.89577 -0.667494 0
M  V30 12001 N 1167.83 5.60895 -0.367895 0
M  V30 12002 H 1159.98 1.80351 -1.12193 0
M  V30 12003 H 1162.25 0.83623 -0.446569 0
M  V30 12004 H 1161.95 3.3368 -1.11133 0
M  V30 12005 H 1161.83 3.72472 0.595373 0
M  V30 12006 H 1164.21 2.79604 0.943687 0
M  V30 12007 H 1164.29 2.43411 -0.78642 0
M  V30 12008 H 1163.94 4.91025 -1.29833 0
M  V30 12009 H 1163.87 5.24676 0.449711 0
M  V30 12010 H 1166.36 3.77813 -0.0812308 0
M  V30 12011 H 1166.67 7.68744 -0.79071 0
M  V30 12012 H 1165.02 6.91423 -0.704193 0
M  V30 12013 H 1168.21 4.67735 -0.184837 0
M  V30 12014 H 1168.38 6.46005 -0.508138 0
M  V30 12015 N 1161.79 -0.095206 1.57312 0
M  V30 12016 C 1163.2 -0.649733 1.7503 0
M  V30 12017 C 1163.55 -1.7912 0.800652 0
M  V30 12018 O 1162.67 -2.1639 -0.0208831 0
M  V30 12019 C 1163.27 -1.18541 3.17386 0
M  V30 12020 C 1161.83 -1.686 3.36528 0
M  V30 12021 C 1160.97 -0.595531 2.7083 0
M  V30 12022 H 1163.93 0.130863 1.5816 0
M  V30 12023 H 1163.95 -2.05473 3.20252 0
M  V30 12024 H 1163.46 -0.35441 3.86478 0
M  V30 12025 H 1161.56 -2.541 2.72514 0
M  V30 12026 H 1161.67 -1.77907 4.44844 0
M  V30 12027 H 1160.04 -1.03495 2.32725 0
M  V30 12028 H 1160.82 0.224883 3.42563 0
M  V30 12029 N 1163.26 -1.53291 -0.366026 0
M  V30 12030 C 1164.21 -1.80367 -1.4687 0
M  V30 12031 C 1165.21 -0.672767 -1.55468 0
M  V30 12032 O 1166.41 -0.8557 -1.5836 0
M  V30 12033 H 1162.79 -0.571076 -0.48926 0
M  V30 12034 H 1164.76 -2.72661 -1.21237 0
M  V30 12035 C 1163.51 -2.01008 -2.8371 0
M  V30 12036 H 1162.83 -2.87468 -2.77853 0
M  V30 12037 H 1164.27 -2.2393 -3.60043 0
M  V30 12038 C 1162.73 -0.789054 -3.27529 0
M  V30 12039 O 1163.26 0.0224712 -4.01694 0
M  V30 12040 N 1161.47 -0.612621 -2.84069 0
M  V30 12041 H 1161.01 -1.27416 -2.23881 0
M  V30 12042 H 1160.97 0.202943 -3.13744 0
M  V30 12043 N 1164.74 0.6258 -1.44643 0
M  V30 12044 C 1165.69 1.73751 -1.51919 0
M  V30 12045 C 1166.66 1.62007 -0.36647 0
M  V30 12046 O 1167.84 1.81852 -0.577439 0
M  V30 12047 C 1164.98 3.12015 -1.47448 0
M  V30 12048 C 1164.1 3.34696 -2.73135 0
M  V30 12049 C 1163.23 4.62962 -2.6046 0
M  V30 12050 C 1162.27 4.7884 -3.81286 0
M  V30 12051 N 1161.41 5.98388 -3.67255 0
M  V30 12052 H 1166.25 1.66867 -2.46899 0
M  V30 12053 H 1163.79 0.813921 -1.22531 0
M  V30 12054 H 1165.74 3.91983 -1.42846 0
M  V30 12055 H 1164.37 3.179 -0.560312 0
M  V30 12056 H 1163.43 2.4863 -2.87901 0
M  V30 12057 H 1164.74 3.42306 -3.62806 0
M  V30 12058 H 1163.89 5.51099 -2.53722 0
M  V30 12059 H 1162.63 4.57719 -1.68359 0
M  V30 12060 H 1161.64 3.89131 -3.88403 0
M  V30 12061 H 1162.86 4.85893 -4.74431 0
M  V30 12062 H 1160.81 5.94224 -2.77909 0
M  V30 12063 H 1160.72 6.07078 -4.50547 0
M  V30 12064 H 1161.99 6.89072 -3.64417 0
M  V30 12065 N 1166.22 1.31629 0.866686 0
M  V30 12066 C 1167.63 1.19347 1.43573 0
M  V30 12067 C 1167.98 -0.198765 1.95191 0
M  V30 12068 O 1167.11 -1.09674 1.86549 0
M  V30 12069 C 1167.7 2.16055 2.6097 0
M  V30 12070 C 1166.26 2.07697 3.13909 0
M  V30 12071 C 1165.41 2.05099 1.86627 0
M  V30 12072 H 1168.36 1.43633 0.674929 0
M  V30 12073 H 1168.38 1.75207 3.37761 0
M  V30 12074 H 1167.89 3.17375 2.23371 0
M  V30 12075 H 1165.99 1.09583 3.56121 0
M  V30 12076 H 1166.11 2.96958 3.75969 0
M  V30 12077 H 1164.47 1.50162 2.05727 0
M  V30 12078 H 1165.25 3.0818 1.51261 0
M  V30 12079 N 1167.7 -1.08142 1.14644 0
M  V30 12080 C 1168.95 -1.80225 0.914517 0
M  V30 12081 C 1169.27 -1.86778 -0.560269 0
M  V30 12082 O 1168.54 -1.36284 -1.40724 0
M  V30 12083 H 1167.12 -0.667492 0.335356 0
M  V30 12084 H 1169.78 -1.30729 1.44554 0
M  V30 12085 H 1168.88 -2.82958 1.31685 0
M  V30 12086 N 1169.18 -0.941978 -1.26351 0
M  V30 12087 C 1170.42 -0.590845 -1.94002 0
M  V30 12088 C 1170.76 0.868004 -1.73722 0
M  V30 12089 O 1170.03 1.62111 -1.07472 0
M  V30 12090 C 1170.31 -0.934901 -3.47752 0
M  V30 12091 C 1170.17 -2.44855 -3.77314 0
M  V30 12092 C 1171.49 -0.450888 -4.37784 0
M  V30 12093 H 1168.61 -0.21613 -0.704597 0
M  V30 12094 H 1171.25 -1.17634 -1.49205 0
M  V30 12095 H 1169.4 -0.436648 -3.86038 0
M  V30 12096 H 1171.07 -3.01959 -3.48738 0
M  V30 12097 H 1169.31 -2.89169 -3.23363 0
M  V30 12098 H 1169.98 -2.6398 -4.84787 0
M  V30 12099 H 1172.46 -0.878107 -4.06729 0
M  V30 12100 H 1171.34 -0.720439 -5.44152 0
M  V30 12101 H 1171.6 0.649162 -4.37308 0
M  V30 12102 N 1170.66 1.40747 -0.709091 0
M  V30 12103 C 1171.89 2.05022 -0.254887 0
M  V30 12104 C 1172.29 1.5351 1.10595 0
M  V30 12105 O 1171.64 0.683912 1.70494 0
M  V30 12106 C 1171.7 3.59188 -0.149823 0
M  V30 12107 C 1171.36 4.33557 -1.44489 0
M  V30 12108 C 1172.36 4.61941 -2.3855 0
M  V30 12109 C 1170.04 4.72585 -1.70201 0
M  V30 12110 C 1172.04 5.2833 -3.56575 0
M  V30 12111 C 1169.73 5.38707 -2.88509 0
M  V30 12112 C 1170.72 5.66509 -3.81518 0
M  V30 12113 O 1170.41 6.31267 -4.97752 0
M  V30 12114 H 1170.14 0.666405 -0.113493 0
M  V30 12115 H 1172.7 1.81261 -0.966099 0
M  V30 12116 H 1170.93 3.81742 0.617276 0
M  V30 12117 H 1172.62 4.05008 0.268965 0
M  V30 12118 H 1173.38 4.32259 -2.19947 0
M  V30 12119 H 1169.26 4.50318 -0.986628 0
M  V30 12120 H 1172.81 5.49947 -4.2919 0
M  V30 12121 H 1168.7 5.67809 -3.07023 0
M  V30 12122 H 1169.47 6.49764 -4.97745 0
M  V30 12123 N 1172.13 0.454803 1.50895 0
M  V30 12124 C 1173.38 -0.105927 2.02523 0
M  V30 12125 C 1173.71 -1.40825 1.33724 0
M  V30 12126 O 1172.99 -1.89038 0.457683 0
M  V30 12127 C 1173.27 -0.306635 3.58792 0
M  V30 12128 C 1173.12 1.01556 4.38185 0
M  V30 12129 C 1174.44 -1.06858 4.2693 0
M  V30 12130 H 1171.56 -0.0370232 0.736069 0
M  V30 12131 H 1174.2 0.597215 1.8037 0
M  V30 12132 H 1172.35 -0.905563 3.77799 0
M  V30 12133 H 1174.03 1.64981 4.30789 0
M  V30 12134 H 1172.27 1.61608 4.02574 0
M  V30 12135 H 1172.94 0.828959 5.4574 0
M  V30 12136 H 1175.42 -0.561086 4.123 0
M  V30 12137 H 1174.29 -1.1778 5.36115 0
M  V30 12138 H 1174.55 -2.10111 3.8898 0
M  V30 12139 N 1173.61 -1.56489 0.186789 0
M  V30 12140 C 1175.03 -1.58701 -0.169176 0
M  V30 12141 C 1175.23 -1.2027 -1.61671 0
M  V30 12142 O 1174.28 -0.92154 -2.35083 0
M  V30 12143 C 1175.6 -3.00437 0.125657 0
M  V30 12144 C 1177.14 -3.12932 0.0651 0
M  V30 12145 C 1177.62 -4.56787 0.333131 0
M  V30 12146 N 1179.11 -4.62344 0.281453 0
M  V30 12147 C 1179.85 -5.71529 0.462805 0
M  V30 12148 N 1179.34 -6.89213 0.704054 0
M  V30 12149 N 1181.13 -5.60692 0.397636 0
M  V30 12150 H 1173.29 -1.79754 1.13148 0
M  V30 12151 H 1175.55 -0.83385 0.450997 0
M  V30 12152 H 1175.25 -3.33086 1.12901 0
M  V30 12153 H 1175.13 -3.72782 -0.575612 0
M  V30 12154 H 1177.52 -2.80101 -0.928845 0
M  V30 12155 H 1177.6 -2.42991 0.799318 0
M  V30 12156 H 1177.24 -4.9033 1.32436 0
M  V30 12157 H 1177.17 -5.24907 -0.421879 0
M  V30 12158 H 1179.66 -3.77764 0.101266 0
M  V30 12159 H 1179.97 -7.68314 0.831468 0
M  V30 12160 H 1178.32 -6.9104 0.740851 0
M  V30 12161 H 1181.51 -4.6763 0.20964 0
M  V30 12162 H 1181.68 -6.45726 0.54239 0
M  V30 12163 N 1175.09 0.086862 -1.5736 0
M  V30 12164 C 1176.34 0.790008 -1.8678 0
M  V30 12165 C 1176.67 1.77977 -0.777042 0
M  V30 12166 O 1175.94 1.93317 0.21419 0
M  V30 12167 C 1176.23 1.51143 -3.26845 0
M  V30 12168 C 1176.08 0.539106 -4.46558 0
M  V30 12169 C 1177.4 2.46003 -3.64926 0
M  V30 12170 H 1174.52 0.285741 -0.679354 0
M  V30 12171 H 1177.16 0.0534655 -1.89925 0
M  V30 12172 H 1175.31 2.13928 -3.24295 0
M  V30 12173 H 1176.98 -0.0823679 -4.61226 0
M  V30 12174 H 1175.22 -0.146842 -4.33551 0
M  V30 12175 H 1175.9 1.0812 -5.41308 0
M  V30 12176 H 1178.37 1.93306 -3.68473 0
M  V30 12177 H 1177.25 2.93493 -4.63846 0
M  V30 12178 H 1177.51 3.30133 -2.94049 0
M  V30 12179 N 1176.57 1.53483 0.357892 0
M  V30 12180 C 1177.79 1.74264 1.12458 0
M  V30 12181 C 1178.22 0.473944 1.82031 0
M  V30 12182 O 1177.58 -0.57253 1.72023 0
M  V30 12183 C 1177.62 2.91356 2.12471 0
M  V30 12184 O 1176.73 2.60502 3.19707 0
M  V30 12185 H 1176.07 0.578499 0.325937 0
M  V30 12186 H 1178.6 2.00395 0.412666 0
M  V30 12187 H 1178.61 3.1774 2.5594 0
M  V30 12188 H 1177.28 3.83378 1.61226 0
M  V30 12189 H 1175.86 2.44961 2.81156 0
M  V30 12190 N 1178.05 -0.61812 1.44973 0
M  V30 12191 C 1179.46 -0.937734 1.29146 0
M  V30 12192 C 1179.66 -2.00104 0.236749 0
M  V30 12193 O 1178.72 -2.49731 -0.372923 0
M  V30 12194 C 1180.03 -1.38865 2.66715 0
M  V30 12195 C 1181.58 -1.50343 2.74529 0
M  V30 12196 C 1182.05 -1.98814 4.12598 0
M  V30 12197 N 1183.54 -2.06064 4.14839 0
M  V30 12198 C 1184.28 -2.44768 5.18533 0
M  V30 12199 N 1183.78 -2.82516 6.32579 0
M  V30 12200 N 1185.57 -2.45016 5.05889 0
M  V30 12201 H 1177.72 0.084872 2.1223 0
M  V30 12202 H 1179.98 -0.0246744 0.947679 0
M  V30 12203 H 1179.69 -0.681583 3.45032 0
M  V30 12204 H 1179.56 -2.3572 2.94475 0
M  V30 12205 H 1181.95 -2.20144 1.96522 0
M  V30 12206 H 1182.03 -0.518297 2.50494 0
M  V30 12207 H 1181.67 -1.29604 4.91086 0
M  V30 12208 H 1181.6 -2.98223 4.34017 0
M  V30 12209 H 1184.1 -1.79525 3.32535 0
M  V30 12210 H 1184.41 -3.109 7.07504 0
M  V30 12211 H 1182.75 -2.80237 6.35997 0
M  V30 12212 H 1185.94 -2.14925 4.15842 0
M  V30 12213 H 1186.12 -2.74854 5.86821 0
M  V30 12214 N 1179.52 -1.32087 -0.859693 0
M  V30 12215 C 1180.77 -1.2236 -1.61351 0
M  V30 12216 C 1181.1 0.215796 -1.93299 0
M  V30 12217 O 1180.35 1.16742 -1.57066 0
M  V30 12218 C 1180.65 -2.0234 -2.94607 0
M  V30 12219 C 1180.32 -3.51746 -2.82109 0
M  V30 12220 C 1178.98 -3.92482 -2.78408 0
M  V30 12221 C 1181.33 -4.46776 -2.68403 0
M  V30 12222 C 1178.66 -5.265 -2.58873 0
M  V30 12223 C 1181.01 -5.80931 -2.50404 0
M  V30 12224 C 1179.68 -6.20875 -2.45092 0
M  V30 12225 H 1178.95 -0.447748 -0.590426 0
M  V30 12226 H 1181.59 -1.63461 -0.997637 0
M  V30 12227 H 1179.9 -1.53952 -3.60286 0
M  V30 12228 H 1181.6 -1.92187 -3.51945 0
M  V30 12229 H 1178.19 -3.19389 -2.85812 0
M  V30 12230 H 1182.37 -4.16228 -2.70311 0
M  V30 12231 H 1177.63 -5.5651 -2.53192 0
M  V30 12232 H 1181.8 -6.54185 -2.38777 0
M  V30 12233 H 1179.43 -7.24662 -2.29714 0
M  V30 12234 N 1181 1.07532 -1.15215 0
M  V30 12235 C 1182.25 1.8036 -0.927263 0
M  V30 12236 C 1182.58 1.86414 0.544371 0
M  V30 12237 O 1181.86 1.34653 1.40353 0
M  V30 12238 C 1182.14 3.25512 -1.53992 0
M  V30 12239 C 1181.99 3.27614 -3.08203 0
M  V30 12240 C 1183.31 4.22731 -1.22418 0
M  V30 12241 H 1180.43 0.654775 -0.338289 0
M  V30 12242 H 1183.07 1.25842 -1.42351 0
M  V30 12243 H 1181.22 3.72068 -1.11791 0
M  V30 12244 H 1182.89 2.89315 -3.59297 0
M  V30 12245 H 1181.14 2.66627 -3.42188 0
M  V30 12246 H 1181.81 4.29956 -3.46182 0
M  V30 12247 H 1184.28 3.84557 -1.58919 0
M  V30 12248 H 1183.16 5.22589 -1.67906 0
M  V30 12249 H 1183.42 4.41875 -0.14091 0
M  V30 12250 N 1182.48 0.948665 1.2585 0
M  V30 12251 C 1183.71 0.617229 1.97479 0
M  V30 12252 C 1184.12 -0.809406 1.7057 0
M  V30 12253 O 1183.48 -1.54066 0.97826 0
M  V30 12254 C 1183.53 0.859065 3.51144 0
M  V30 12255 O 1183.25 2.2296 3.77121 0
M  V30 12256 C 1184.75 0.539197 4.40009 0
M  V30 12257 H 1181.97 0.231933 0.629641 0
M  V30 12258 H 1184.52 1.27141 1.60173 0
M  V30 12259 H 1182.67 0.25138 3.86584 0
M  V30 12260 H 1183.09 2.29524 4.71613 0
M  V30 12261 H 1184.56 0.758986 5.46757 0
M  V30 12262 H 1185.04 -0.526062 4.36038 0
M  V30 12263 H 1185.64 1.12594 4.10125 0
M  V30 12264 N 1183.96 -1.40369 0.716545 0
M  V30 12265 C 1185.2 -2.01657 0.265674 0
M  V30 12266 C 1185.56 -1.55803 -1.12886 0
M  V30 12267 O 1184.85 -0.76863 -1.75507 0
M  V30 12268 C 1185.05 -3.56257 0.285583 0
M  V30 12269 C 1184.88 -4.1712 1.68051 0
M  V30 12270 C 1183.65 -4.50512 2.28839 0
M  V30 12271 C 1185.84 -4.41913 2.63092 0
M  V30 12272 N 1183.83 -4.96774 3.60679 0
M  V30 12273 C 1185.2 -4.90179 3.79638 0
M  V30 12274 C 1187.25 -4.23953 2.61091 0
M  V30 12275 C 1185.95 -5.22369 4.94493 0
M  V30 12276 C 1187.98 -4.57246 3.75074 0
M  V30 12277 C 1187.34 -5.05701 4.90353 0
M  V30 12278 H 1183.44 -0.768801 0.14307 0
M  V30 12279 H 1186.03 -1.70585 0.938548 0
M  V30 12280 H 1184.2 -3.86757 -0.35686 0
M  V30 12281 H 1185.93 -4.0429 -0.182091 0
M  V30 12282 H 1182.68 -4.37678 1.80929 0
M  V30 12283 H 1183.11 -5.24286 4.28315 0
M  V30 12284 H 1187.75 -3.8571 1.73169 0
M  V30 12285 H 1185.47 -5.59526 5.83058 0
M  V30 12286 H 1189.05 -4.44989 3.74802 0
M  V30 12287 H 1187.93 -5.30977 5.77091 0
M  V30 12288 N 1185.44 -0.462799 -1.50652 0
M  V30 12289 C 1186.69 0.0966838 -2.01468 0
M  V30 12290 C 1187 1.41529 -1.35014 0
M  V30 12291 O 1188.2 2.05923 -1.76941 0
M  V30 12292 C 1186.66 0.222826 -3.5921 0
M  V30 12293 C 1186.27 -1.08686 -4.34616 0
M  V30 12294 C 1188.01 0.734711 -4.18094 0
M  V30 12295 C 1185.92 -0.924964 -5.84122 0
M  V30 12296 H 1184.85 0.0399078 -0.752943 0
M  V30 12297 H 1187.5 -0.596437 -1.73536 0
M  V30 12298 H 1185.88 0.979539 -3.83694 0
M  V30 12299 H 1187.06 -1.85388 -4.21862 0
M  V30 12300 H 1185.37 -1.52922 -3.87303 0
M  V30 12301 H 1187.97 0.872734 -5.2753 0
M  V30 12302 H 1188.31 1.72389 -3.7893 0
M  V30 12303 H 1188.84 0.0356139 -3.97784 0
M  V30 12304 H 1185.58 -1.88727 -6.27744 0
M  V30 12305 H 1185.1 -0.198181 -5.99473 0
M  V30 12306 H 1186.78 -0.588262 -6.4432 0
M  V30 12307 N 1186.91 1.56388 -0.195085 0
M  V30 12308 C 1187.82 2.22698 0.737743 0
M  V30 12309 C 1188.84 1.22605 1.23466 0
M  V30 12310 O 1190.02 1.55342 1.28183 0
M  V30 12311 C 1187.08 2.87333 1.94011 0
M  V30 12312 C 1186.14 4.02696 1.48776 0
M  V30 12313 C 1185.38 4.64239 2.63282 0
M  V30 12314 O 1185.6 4.24706 3.80763 0
M  V30 12315 O 1184.53 5.53705 2.35996 0
M  V30 12316 H 1188.36 3.03021 0.203013 0
M  V30 12317 H 1185.94 1.49361 0.0342044 0
M  V30 12318 H 1187.83 3.28226 2.64284 0
M  V30 12319 H 1186.5 2.0999 2.46345 0
M  V30 12320 H 1185.41 3.66426 0.753839 0
M  V30 12321 H 1186.74 4.81703 1.01109 0
M  V30 12322 N 1188.39 -0.0785156 1.57404 0
M  V30 12323 C 1189.64 -0.777399 1.8655 0
M  V30 12324 C 1189.96 -1.78451 0.786142 0
M  V30 12325 O 1189.23 -1.95016 -0.185911 0
M  V30 12326 H 1187.81 -0.290097 0.688369 0
M  V30 12327 H 1190.47 -0.0562017 1.94819 0
M  V30 12328 H 1189.57 -1.29776 2.83839 0
M  V30 12329 N 1189.87 -1.5367 -0.349747 0
M  V30 12330 C 1191.12 -1.7087 -1.0923 0
M  V30 12331 C 1191.45 -0.467299 -1.88494 0
M  V30 12332 O 1190.72 0.535619 -1.8698 0
M  V30 12333 C 1191.01 -2.9684 -2.03858 0
M  V30 12334 C 1190.86 -4.31174 -1.28097 0
M  V30 12335 C 1192.18 -3.18459 -3.03763 0
M  V30 12336 H 1189.3 -0.621757 -0.395711 0
M  V30 12337 H 1191.94 -1.86333 -0.371481 0
M  V30 12338 H 1190.09 -2.83788 -2.65323 0
M  V30 12339 H 1191.76 -4.56066 -0.692933 0
M  V30 12340 H 1190.01 -4.29866 -0.582924 0
M  V30 12341 H 1190.68 -5.15482 -1.9744 0
M  V30 12342 H 1193.15 -3.30801 -2.52409 0
M  V30 12343 H 1192.03 -4.08006 -3.67182 0
M  V30 12344 H 1192.29 -2.34467 -3.74803 0
M  V30 12345 N 1191.35 0.610423 -1.45298 0
M  V30 12346 C 1192.28 1.73493 -1.48241 0
M  V30 12347 C 1193.26 1.59025 -0.339065 0
M  V30 12348 O 1194.44 1.80625 -0.539144 0
M  V30 12349 C 1191.57 3.11291 -1.33476 0
M  V30 12350 C 1190.62 3.44355 -2.51638 0
M  V30 12351 S 1191.45 3.39512 -4.14116 0
M  V30 12352 C 1192.61 4.79895 -4.01811 0
M  V30 12353 H 1192.84 1.70734 -2.43387 0
M  V30 12354 H 1190.37 0.786833 -1.32847 0
M  V30 12355 H 1192.33 3.90799 -1.25644 0
M  V30 12356 H 1190.99 3.11568 -0.39805 0
M  V30 12357 H 1190.18 4.44679 -2.37226 0
M  V30 12358 H 1189.79 2.72356 -2.56317 0
M  V30 12359 H 1192.08 5.6963 -3.6678 0
M  V30 12360 H 1193.02 4.99363 -5.02038 0
M  V30 12361 H 1193.43 4.55443 -3.33515 0
M  V30 12362 N 1192.83 1.32541 0.852676 0
M  V30 12363 C 1194.24 1.11575 1.14119 0
M  V30 12364 C 1194.44 -0.102469 2.01239 0
M  V30 12365 O 1193.5 -0.786786 2.39929 0
M  V30 12366 C 1194.81 2.39624 1.81661 0
M  V30 12367 C 1196.36 2.454 1.94288 0
M  V30 12368 C 1196.83 3.73375 2.65245 0
M  V30 12369 N 1198.33 3.74368 2.72769 0
M  V30 12370 C 1199.06 4.70094 3.28328 0
M  V30 12371 N 1198.56 5.76187 3.84682 0
M  V30 12372 N 1200.35 4.57588 3.26449 0
M  V30 12373 H 1192.5 2.10644 0.272544 0
M  V30 12374 H 1194.76 0.930094 0.183385 0
M  V30 12375 H 1194.47 3.28698 1.25102 0
M  V30 12376 H 1194.34 2.50734 2.81802 0
M  V30 12377 H 1196.73 1.56784 2.50005 0
M  V30 12378 H 1196.81 2.38241 0.931379 0
M  V30 12379 H 1196.46 4.62366 2.10191 0
M  V30 12380 H 1196.39 3.77806 3.66838 0
M  V30 12381 H 1198.88 2.97685 2.32791 0
M  V30 12382 H 1199.19 6.45285 4.25238 0
M  V30 12383 H 1197.53 5.79939 3.83008 0
M  V30 12384 H 1200.73 3.7387 2.81672 0
M  V30 12385 H 1200.9 5.32365 3.69448 0
M  V30 12386 N 1194.3 -1.0692 1.15784 0
M  V30 12387 C 1195.25 -2.16335 0.854506 0
M  V30 12388 C 1196.25 -1.68505 -0.173868 0
M  V30 12389 O 1197.45 -1.79977 -0.0284722 0
M  V30 12390 H 1193.83 -0.706103 0.258694 0
M  V30 12391 H 1195.8 -2.39135 1.78486 0
M  V30 12392 C 1194.55 -3.45778 0.365042 0
M  V30 12393 H 1193.87 -3.82971 1.14776 0
M  V30 12394 H 1195.31 -4.23567 0.191504 0
M  V30 12395 C 1193.77 -3.24258 -0.914253 0
M  V30 12396 O 1194.3 -3.49236 -1.98487 0
M  V30 12397 N 1192.51 -2.77722 -0.855501 0
M  V30 12398 H 1192.05 -2.57595 0.0159233 0
M  V30 12399 H 1192.01 -2.63702 -1.71198 0
M  V30 12400 N 1195.78 -0.955326 -1.25345 0
M  V30 12401 C 1196.73 -0.467205 -2.2786 0
M  V30 12402 C 1197.72 0.462873 -1.62954 0
M  V30 12403 O 1198.93 0.339526 -1.76769 0
M  V30 12404 H 1195.31 -0.132586 -0.74022 0
M  V30 12405 H 1197.28 -1.34406 -2.66416 0
M  V30 12406 C 1196.03 0.238898 -3.46878 0
M  V30 12407 H 1195.35 -0.467644 -3.97056 0
M  V30 12408 H 1196.79 0.544444 -4.2049 0
M  V30 12409 C 1195.25 1.46164 -3.03542 0
M  V30 12410 O 1195.78 2.55933 -3.09615 0
M  V30 12411 N 1193.98 1.32324 -2.58725 0
M  V30 12412 H 1193.53 0.430131 -2.53984 0
M  V30 12413 H 1193.49 2.14253 -2.30094 0
M  V30 12414 O 1197.3 1.36571 -0.862013 0
M  V30 12415 H 1197.99 1.88193 -0.458612 0
M  V30 END ATOM
M  V30 BEGIN BOND
M  V30 END BOND
M  V30 END CTAB
M  END
$$$$
