drugbank_target|P05141 ADP/ATP translocase 2 (DB00720; DB01077)
 OpenBabel12092119373D

  0  0  0     0  0            999 V3000
M  V30 BEGIN CTAB
M  V30 COUNTS 4676 4726 0 0 0
M  V30 BEGIN ATOM
M  V30 1 H -0.908 1.98254 -0.117106 0
M  V30 2 N 0 1.576 0 0
M  V30 3 C 0.933 2.03868 1.02534 0
M  V30 4 C 1.911 0.928543 1.3348 0
M  V30 5 O 3.095 1.19667 1.45644 0
M  V30 6 C 0.222 2.43627 2.35294 0
M  V30 7 C -0.732 3.65373 2.2001 0
M  V30 8 S 0.101 5.13292 1.52614 0
M  V30 9 C 1.257 5.56322 2.86805 0
M  V30 10 H 1.49 2.90518 0.631377 0
M  V30 11 H -0.977 1.52953 0.210867 0
M  V30 12 H 0.981 2.67203 3.11629 0
M  V30 13 H -0.358 1.57376 2.7183 0
M  V30 14 H -1.165 3.90944 3.18086 0
M  V30 15 H -1.563 3.418 1.51819 0
M  V30 16 H 0.729 5.58782 3.83104 0
M  V30 17 H 1.672 6.56266 2.65933 0
M  V30 18 H 2.08 4.83886 2.90714 0
M  V30 19 N 1.4781 -0.272755 1.55222 0
M  V30 20 C 2.7061 -1.02255 1.79865 0
M  V30 21 C 3.1211 -1.79924 0.572088 0
M  V30 22 O 2.4781 -1.76638 -0.458842 0
M  V30 23 C 2.5291 -1.98094 3.02392 0
M  V30 24 O 2.2501 -1.23572 4.20311 0
M  V30 25 C 3.7511 -2.84884 3.39641 0
M  V30 26 H 0.9711 -0.302057 0.599168 0
M  V30 27 H 3.5151 -0.303465 2.02236 0
M  V30 28 H 1.6701 -2.65465 2.82147 0
M  V30 29 H 2.0841 -1.88172 4.89583 0
M  V30 30 H 3.5581 -3.47927 4.28545 0
M  V30 31 H 4.0351 -3.54665 2.59055 0
M  V30 32 H 4.6411 -2.23003 3.62146 0
M  V30 33 N 2.9562 -1.48159 -0.537278 0
M  V30 34 C 4.2332 -1.46291 -1.29839 0
M  V30 35 C 4.6132 -0.170613 -2.10409 0
M  V30 36 O 3.9612 0.847746 -2.12192 0
M  V30 37 C 4.1712 -2.72055 -2.18603 0
M  V30 38 C 5.5192 -3.20087 -2.7898 0
M  V30 39 O 6.5432 -2.72921 -2.28894 0
M  V30 40 O 5.4022 -4.02138 -3.70064 0
M  V30 41 H 2.4962 -0.583906 -0.585647 0
M  V30 42 H 5.0422 -1.60384 -0.554534 0
M  V30 43 H 3.8142 -3.57628 -1.58801 0
M  V30 44 H 3.4372 -2.60646 -3.00249 0
M  V30 45 N 4.4343 0.785586 -1.36625 0
M  V30 46 C 5.3973 1.87999 -1.31107 0
M  V30 47 C 6.3973 1.59316 -0.217959 0
M  V30 48 O 7.5873 1.67656 -0.472977 0
M  V30 49 C 4.7193 3.24861 -1.03334 0
M  V30 50 H 5.9123 1.94307 -2.2844 0
M  V30 51 H 3.4653 0.983813 -1.21453 0
M  V30 52 H 4.2003 3.24235 -0.0647432 0
M  V30 53 H 3.9853 3.4707 -1.82441 0
M  V30 54 H 5.4753 4.04929 -1.02088 0
M  V30 55 N 5.9124 1.20967 1.01018 0
M  V30 56 C 6.8754 0.965918 2.07853 0
M  V30 57 C 7.8754 -0.0610545 1.60684 0
M  V30 58 O 9.0654 0.175681 1.73312 0
M  V30 59 C 6.1974 0.455513 3.37843 0
M  V30 60 H 7.3904 1.91365 2.3091 0
M  V30 61 H 4.9434 1.02594 1.17916 0
M  V30 62 H 5.6784 -0.497381 3.20463 0
M  V30 63 H 5.4634 1.19622 3.73407 0
M  V30 64 H 6.9534 0.304667 4.16487 0
M  V30 65 N 7.3905 -1.2043 1.01659 0
M  V30 66 C 8.6365 -1.90079 0.706963 0
M  V30 67 C 8.9695 -1.78648 -0.761474 0
M  V30 68 O 8.2445 -1.17069 -1.55323 0
M  V30 69 C 8.5275 -3.41469 1.14327 0
M  V30 70 C 8.3805 -3.61833 2.67201 0
M  V30 71 C 9.6995 -4.34261 0.714529 0
M  V30 72 H 6.8185 -0.690254 0.2583 0
M  V30 73 H 9.4605 -1.41826 1.26433 0
M  V30 74 H 7.6105 -3.82696 0.669056 0
M  V30 75 H 9.2825 -3.2986 3.22475 0
M  V30 76 H 7.5255 -3.05304 3.08175 0
M  V30 77 H 8.1965 -4.67955 2.92783 0
M  V30 78 H 10.6725 -4.00682 1.12221 0
M  V30 79 H 9.5485 -5.38806 1.04784 0
M  V30 80 H 9.8095 -4.40431 -0.383799 0
M  V30 81 N 8.8686 -0.792821 -1.36206 0
M  V30 82 C 10.0936 -0.377701 -2.03932 0
M  V30 83 C 10.5186 0.998947 -1.59382 0
M  V30 84 O 9.8766 1.64421 -0.763903 0
M  V30 85 C 9.9246 -0.453635 -3.57735 0
M  V30 86 O 9.0286 0.538151 -4.08874 0
M  V30 87 H 8.3696 -0.159855 -0.644471 0
M  V30 88 H 10.8996 -1.07488 -1.7409 0
M  V30 89 H 10.9096 -0.318464 -4.06755 0
M  V30 90 H 9.5846 -1.45784 -3.89512 0
M  V30 91 H 8.1616 0.364359 -3.71116 0
M  V30 92 N 10.3467 1.47872 -0.545128 0
M  V30 93 C 11.5937 2.02493 -0.0165858 0
M  V30 94 C 11.9217 1.42073 1.32836 0
M  V30 95 O 11.1767 0.561459 1.87473 0
M  V30 96 C 11.4757 3.57131 0.13867 0
M  V30 97 C 11.1417 4.36411 -1.13384 0
M  V30 98 C 9.8037 4.57792 -1.48256 0
M  V30 99 C 12.1557 4.82223 -1.97764 0
M  V30 100 C 9.4837 5.22233 -2.67376 0
M  V30 101 C 11.8357 5.47977 -3.16076 0
M  V30 102 C 10.4997 5.67593 -3.51275 0
M  V30 103 H 9.7697 0.740975 -0.00606918 0
M  V30 104 H 12.4167 1.77683 -0.714207 0
M  V30 105 H 10.7217 3.80865 0.919172 0
M  V30 106 H 12.4187 3.97031 0.562782 0
M  V30 107 H 9.0087 4.2004 -0.852297 0
M  V30 108 H 13.1927 4.65493 -1.72132 0
M  V30 109 H 8.4487 5.35616 -2.94831 0
M  V30 110 H 12.6227 5.8244 -3.81755 0
M  V30 111 H 10.2497 6.17298 -4.43675 0
M  V30 112 N 11.8248 0.280983 1.55075 0
M  V30 113 C 12.7878 -0.590896 2.21452 0
M  V30 114 C 13.7878 -1.07682 1.19421 0
M  V30 115 O 14.9778 -0.97605 1.44288 0
M  V30 116 C 12.1098 -1.81587 2.88511 0
M  V30 117 H 13.3028 -0.0112554 2.99898 0
M  V30 118 H 10.8558 0.0316438 1.56268 0
M  V30 119 H 11.5908 -2.43587 2.14093 0
M  V30 120 H 11.3758 -1.4753 3.63287 0
M  V30 121 H 12.8658 -2.43575 3.39206 0
M  V30 122 N 13.3029 -1.57598 0.00835791 0
M  V30 123 C 14.2499 -2.08945 -0.980346 0
M  V30 124 C 15.2199 -0.986738 -1.33614 0
M  V30 125 O 16.4049 -1.25968 -1.43306 0
M  V30 126 C 13.5449 -2.60425 -2.26435 0
M  V30 127 C 12.6579 -3.84628 -1.96685 0
M  V30 128 C 11.7929 -4.24579 -3.19228 0
M  V30 129 C 10.8319 -5.41596 -2.85202 0
M  V30 130 N 9.9689 -5.768 -4.00307 0
M  V30 131 H 14.8089 -2.93148 -0.535551 0
M  V30 132 H 12.3459 -1.44912 -0.252776 0
M  V30 133 H 14.3039 -2.88354 -3.01509 0
M  V30 134 H 12.9339 -1.79083 -2.68568 0
M  V30 135 H 11.9859 -3.63556 -1.11942 0
M  V30 136 H 13.2979 -4.69796 -1.67611 0
M  V30 137 H 12.4519 -4.53834 -4.02641 0
M  V30 138 H 11.1909 -3.38137 -3.51447 0
M  V30 139 H 10.1959 -5.12056 -2.00198 0
M  V30 140 H 11.4209 -6.29721 -2.54222 0
M  V30 141 H 9.3669 -4.93316 -4.32407 0
M  V30 142 H 9.2839 -6.5656 -3.74786 0
M  V30 143 H 10.5519 -6.10652 -4.84484 0
M  V30 144 N 14.781 0.264519 -1.55364 0
M  V30 145 C 16.058 1.01677 -1.67096 0
M  V30 146 C 16.438 2.03996 -0.543015 0
M  V30 147 O 15.786 2.23907 0.45585 0
M  V30 148 C 15.996 1.66596 -3.0667 0
M  V30 149 C 17.344 2.17442 -3.64697 0
M  V30 150 O 18.368 1.76568 -3.09358 0
M  V30 151 O 17.227 2.92439 -4.61673 0
M  V30 152 H 14.321 0.472161 -0.678965 0
M  V30 153 H 16.867 0.259703 -1.67701 0
M  V30 154 H 15.639 0.924962 -3.80211 0
M  V30 155 H 15.262 2.48968 -3.10001 0
M  V30 156 N 16.2591 1.48442 0.529413 0
M  V30 157 C 17.5061 1.56488 1.28521 0
M  V30 158 C 17.8341 0.239042 1.93025 0
M  V30 159 O 17.0891 -0.770713 1.79885 0
M  V30 160 C 17.3881 2.6523 2.39558 0
M  V30 161 C 17.0541 4.07648 1.92702 0
M  V30 162 C 15.7161 4.46411 1.79641 0
M  V30 163 C 18.0681 4.96896 1.573 0
M  V30 164 C 15.3961 5.72226 1.29514 0
M  V30 165 C 17.7481 6.23202 1.08636 0
M  V30 166 C 16.4121 6.60821 0.941919 0
M  V30 167 H 15.6821 0.572631 0.470292 0
M  V30 168 H 18.3291 1.82161 0.59072 0
M  V30 169 H 16.6341 2.33419 3.14679 0
M  V30 170 H 18.3311 2.68671 2.97686 0
M  V30 171 H 14.9211 3.77036 2.03819 0
M  V30 172 H 19.1051 4.67626 1.66251 0
M  V30 173 H 14.3611 6.00097 1.17019 0
M  V30 174 H 18.5351 6.91753 0.803136 0
M  V30 175 H 16.1621 7.58198 0.5513 0
M  V30 176 N 17.7372 -0.778329 1.37039 0
M  V30 177 C 18.6672 -1.90546 1.34962 0
M  V30 178 C 19.6482 -1.68681 0.219274 0
M  V30 179 O 20.8332 -1.89634 0.418624 0
M  V30 180 C 17.9632 -3.27734 1.14925 0
M  V30 181 C 16.9172 -3.64147 2.24902 0
M  V30 182 C 16.2432 -4.99806 1.89996 0
M  V30 183 C 17.5432 -3.71579 3.67051 0
M  V30 184 H 19.2372 -1.92541 2.29277 0
M  V30 185 H 16.7832 -0.924948 1.10366 0
M  V30 186 H 18.7362 -4.06215 1.12104 0
M  V30 187 H 17.4602 -3.26154 0.170631 0
M  V30 188 H 16.1192 -2.8797 2.26868 0
M  V30 189 H 15.7672 -4.94759 0.906796 0
M  V30 190 H 15.4672 -5.25139 2.63634 0
M  V30 191 H 16.9912 -5.80694 1.88749 0
M  V30 192 H 18.4052 -4.40227 3.67251 0
M  V30 193 H 16.8022 -4.08405 4.39688 0
M  V30 194 H 17.8722 -2.72404 4.01154 0
M  V30 195 N 19.2153 -1.21501 -1.00376 0
M  V30 196 C 20.1783 -0.976927 -2.07337 0
M  V30 197 C 21.1783 0.0525322 -1.60714 0
M  V30 198 O 22.3683 -0.184869 -1.73216 0
M  V30 199 C 19.5003 -0.473423 -3.37597 0
M  V30 200 H 20.6933 -1.92587 -2.29892 0
M  V30 201 H 18.2463 -1.03217 -1.17371 0
M  V30 202 H 18.9813 0.480379 -3.20722 0
M  V30 203 H 18.7663 -1.216 -3.72768 0
M  V30 204 H 20.2563 -0.32675 -4.1632 0
M  V30 205 N 20.6934 1.19889 -1.02296 0
M  V30 206 C 21.9414 1.89046 -0.714558 0
M  V30 207 C 22.2624 1.79636 0.758681 0
M  V30 208 O 21.5324 1.20292 1.54618 0
M  V30 209 H 20.1124 0.699802 -0.261317 0
M  V30 210 H 22.7744 1.45574 -1.29592 0
M  V30 211 H 21.8704 2.95524 -1.0036 0
M  V30 212 N 22.1715 0.800033 1.35784 0
M  V30 213 C 23.4195 0.376597 1.9856 0
M  V30 214 C 23.7405 -1.05812 1.63795 0
M  V30 215 O 23.0105 -1.73103 0.917171 0
M  V30 216 H 21.5905 0.136261 0.734467 0
M  V30 217 H 24.2525 1.02442 1.65806 0
M  V30 218 H 23.3485 0.477002 3.08433 0
M  V30 219 N 23.6496 -1.47581 0.552962 0
M  V30 220 C 24.8956 -2.02782 0.0273648 0
M  V30 221 C 25.2286 -1.42687 -1.31734 0
M  V30 222 O 24.5036 -0.580897 -1.85623 0
M  V30 223 C 24.7866 -3.60031 -0.0702371 0
M  V30 224 C 24.6396 -4.30566 1.30126 0
M  V30 225 C 25.9586 -4.33028 -0.785771 0
M  V30 226 H 23.0776 -0.736912 0.0114185 0
M  V30 227 H 25.7196 -1.76056 0.714432 0
M  V30 228 H 23.8696 -3.82932 -0.655382 0
M  V30 229 H 25.5416 -4.19018 1.92929 0
M  V30 230 H 23.7846 -3.91086 1.87709 0
M  V30 231 H 24.4556 -5.39114 1.18573 0
M  V30 232 H 26.9316 -4.15095 -0.288982 0
M  V30 233 H 25.8076 -5.42695 -0.823013 0
M  V30 234 H 26.0686 -4.01945 -1.841 0
M  V30 235 N 25.1277 -0.289203 -1.54924 0
M  V30 236 C 26.0907 0.579144 -2.21762 0
M  V30 237 C 27.0907 1.07047 -1.1999 0
M  V30 238 O 28.2807 0.968384 -1.44803 0
M  V30 239 C 25.4127 1.80055 -2.8947 0
M  V30 240 H 26.6057 -0.00464908 -2.999 0
M  V30 241 H 24.1587 -0.0399306 -1.56249 0
M  V30 242 H 24.8937 2.42449 -2.15381 0
M  V30 243 H 24.6787 1.45602 -3.64064 0
M  V30 244 H 26.1687 2.41773 -3.40493 0
M  V30 245 N 26.6058 1.57591 -0.0167156 0
M  V30 246 C 27.5688 2.08393 0.954204 0
M  V30 247 C 28.5688 0.996531 1.26198 0
M  V30 248 O 29.7588 1.25858 1.20438 0
M  V30 249 C 26.8908 2.5394 2.27436 0
M  V30 250 H 28.0838 2.95455 0.514451 0
M  V30 251 H 25.6368 1.54582 0.231089 0
M  V30 252 H 26.3718 1.70171 2.76066 0
M  V30 253 H 26.1568 3.33371 2.06412 0
M  V30 254 H 27.6468 2.93512 2.97053 0
M  V30 255 N 28.0839 -0.256276 1.55502 0
M  V30 256 C 29.0469 -1.30047 1.88734 0
M  V30 257 C 30.0469 -1.4154 0.763086 0
M  V30 258 O 31.2369 -1.40403 1.03115 0
M  V30 259 C 28.3689 -2.67953 2.10747 0
M  V30 260 H 29.5619 -1.01802 2.82093 0
M  V30 261 H 27.1149 -0.495134 1.4825 0
M  V30 262 H 27.8499 -3.01351 1.19825 0
M  V30 263 H 27.6349 -2.60993 2.92617 0
M  V30 264 H 29.1249 -3.43368 2.37673 0
M  V30 265 N 29.562 -1.4872 -0.521534 0
M  V30 266 C 30.811 -1.56419 -1.27341 0
M  V30 267 C 31.124 -0.246805 -1.94037 0
M  V30 268 O 32.33 -0.202122 -2.70747 0
M  V30 269 C 30.786 -2.75896 -2.31105 0
M  V30 270 C 30.394 -4.14311 -1.70441 0
M  V30 271 C 32.138 -2.92913 -3.07249 0
M  V30 272 C 30.045 -5.25038 -2.72194 0
M  V30 273 H 28.975 -0.582344 -0.478949 0
M  V30 274 H 31.626 -1.75071 -0.549779 0
M  V30 275 H 30.008 -2.50697 -3.06541 0
M  V30 276 H 31.182 -4.49564 -1.01136 0
M  V30 277 H 29.497 -4.02482 -1.06759 0
M  V30 278 H 32.094 -3.72805 -3.83302 0
M  V30 279 H 32.437 -2.02689 -3.63625 0
M  V30 280 H 32.97 -3.18054 -2.38928 0
M  V30 281 H 29.709 -6.17255 -2.20627 0
M  V30 282 H 29.229 -4.94263 -3.39801 0
M  V30 283 H 30.908 -5.53508 -3.35019 0
M  V30 284 N 31.0401 0.771051 -1.3745 0
M  V30 285 C 32.2651 1.56529 -1.36065 0
M  V30 286 C 32.6901 1.88029 0.0515859 0
M  V30 287 O 32.0481 1.49282 1.02882 0
M  V30 288 C 32.0961 2.85187 -2.20683 0
M  V30 289 O 31.2001 3.79593 -1.61193 0
M  V30 290 H 30.5411 0.47411 -0.464883 0
M  V30 291 H 33.0711 0.954269 -1.80983 0
M  V30 292 H 33.0811 3.34283 -2.33921 0
M  V30 293 H 31.7561 2.61588 -3.23334 0
M  V30 294 H 30.3331 3.38239 -1.56999 0
M  V30 295 N 32.5182 1.22032 0.997298 0
M  V30 296 C 33.4652 0.986467 2.08656 0
M  V30 297 C 34.4352 -0.0902671 1.65855 0
M  V30 298 O 35.6202 0.0584294 1.90711 0
M  V30 299 C 32.7602 0.565569 3.40434 0
M  V30 300 C 31.8732 1.71259 3.96604 0
M  V30 301 C 31.0082 1.24011 5.16522 0
M  V30 302 C 30.0472 2.35896 5.64818 0
M  V30 303 N 29.1842 1.89726 6.7598 0
M  V30 304 H 34.0242 1.91892 2.27994 0
M  V30 305 H 31.5612 0.956199 1.11782 0
M  V30 306 H 33.5192 0.302738 4.161 0
M  V30 307 H 32.1492 -0.329879 3.2111 0
M  V30 308 H 31.2012 2.08986 3.17851 0
M  V30 309 H 32.5132 2.55436 4.28432 0
M  V30 310 H 31.6672 0.934395 5.99461 0
M  V30 311 H 30.4062 0.368487 4.86306 0
M  V30 312 H 29.4112 2.67261 4.8047 0
M  V30 313 H 30.6362 3.23567 5.97061 0
M  V30 314 H 28.5822 1.0492 6.47555 0
M  V30 315 H 28.4992 2.67471 7.07103 0
M  V30 316 H 29.7672 1.62211 7.62435 0
M  V30 317 N 33.9963 -1.19345 1.0293 0
M  V30 318 C 35.2243 -1.92997 0.745644 0
M  V30 319 C 35.6393 -1.75519 -0.695589 0
M  V30 320 O 34.9963 -1.07737 -1.47306 0
M  V30 321 C 35.0473 -3.44741 1.08792 0
M  V30 322 O 34.7683 -3.61658 2.47256 0
M  V30 323 C 36.2693 -4.35515 0.827129 0
M  V30 324 H 33.4893 -0.613042 0.272801 0
M  V30 325 H 36.0333 -1.51473 1.3739 0
M  V30 326 H 34.1883 -3.84097 0.504832 0
M  V30 327 H 34.6023 -4.55514 2.60015 0
M  V30 328 H 36.0763 -5.40589 1.11658 0
M  V30 329 H 36.5533 -4.38552 -0.238436 0
M  V30 330 H 37.1593 -4.01841 1.39297 0
M  V30 331 N 35.4744 -0.807222 -1.35358 0
M  V30 332 C 36.4374 -0.223665 -2.28106 0
M  V30 333 C 37.4374 0.589354 -1.4961 0
M  V30 334 O 38.6274 0.407745 -1.69361 0
M  V30 335 C 35.7594 0.688149 -3.33882 0
M  V30 336 H 36.9524 -1.04169 -2.81227 0
M  V30 337 H 34.5054 -0.577921 -1.45223 0
M  V30 338 H 35.2404 1.52984 -2.85948 0
M  V30 339 H 35.0254 0.10687 -3.91954 0
M  V30 340 H 36.5154 1.09075 -4.03104 0
M  V30 341 N 36.9525 1.47285 -0.560781 0
M  V30 342 C 38.1985 2.02764 -0.0381184 0
M  V30 343 C 38.5315 1.43384 1.30976 0
M  V30 344 O 37.8065 0.590733 1.85312 0
M  V30 345 C 38.0895 3.60064 0.0511427 0
M  V30 346 C 37.9425 4.2987 -1.32408 0
M  V30 347 C 39.2615 4.33439 0.762795 0
M  V30 348 H 36.3805 0.736841 -0.0153264 0
M  V30 349 H 39.0225 1.75675 -0.723759 0
M  V30 350 H 37.1725 3.83274 0.635065 0
M  V30 351 H 38.8445 4.17989 -1.95148 0
M  V30 352 H 37.0875 3.90085 -1.8978 0
M  V30 353 H 37.7585 5.38478 -1.21431 0
M  V30 354 H 40.2345 4.15243 0.266965 0
M  V30 355 H 39.1105 5.43124 0.794221 0
M  V30 356 H 39.3715 4.02915 1.81966 0
M  V30 357 N 38.4306 0.297415 1.54768 0
M  V30 358 C 39.3936 -0.567375 2.22066 0
M  V30 359 C 40.3936 -1.06409 1.20556 0
M  V30 360 O 41.5836 -0.960691 1.45315 0
M  V30 361 C 38.7156 -1.78517 2.90421 0
M  V30 362 H 39.9086 0.0205534 2.99893 0
M  V30 363 H 37.4616 0.0482163 1.56226 0
M  V30 364 H 38.1966 -2.41303 2.16664 0
M  V30 365 H 37.9816 -1.43669 3.64831 0
M  V30 366 H 39.4716 -2.39964 3.41771 0
M  V30 367 N 39.9087 -1.5758 0.0250728 0
M  V30 368 C 41.3197 -1.79476 -0.514323 0
M  V30 369 C 41.6707 -0.934956 -1.72491 0
M  V30 370 O 40.7957 -0.144245 -2.15919 0
M  V30 371 C 41.3907 -3.25503 -0.939842 0
M  V30 372 C 39.9497 -3.48408 -1.42438 0
M  V30 373 C 39.0967 -2.74583 -0.387201 0
M  V30 374 H 42.0477 -1.567 0.25113 0
M  V30 375 H 42.0687 -3.34992 -1.80445 0
M  V30 376 H 41.5807 -3.88056 -0.0585628 0
M  V30 377 H 39.6817 -2.91103 -2.32572 0
M  V30 378 H 39.7947 -4.57119 -1.43455 0
M  V30 379 H 38.1587 -2.39942 -0.854409 0
M  V30 380 H 38.9417 -3.39849 0.485543 0
M  V30 381 N 41.3868 0.248026 -1.55636 0
M  V30 382 C 42.6358 0.974134 -1.76617 0
M  V30 383 C 42.9488 1.86528 -0.588796 0
M  V30 384 O 44.1548 2.62805 -0.681594 0
M  V30 385 C 42.6108 1.78213 -3.12679 0
M  V30 386 C 42.2188 0.93843 -4.38061 0
M  V30 387 C 43.9628 2.50104 -3.42999 0
M  V30 388 C 41.8698 1.74225 -5.65155 0
M  V30 389 H 40.7998 0.36745 -0.658405 0
M  V30 390 H 43.4508 0.22884 -1.82067 0
M  V30 391 H 41.8328 2.56933 -3.01333 0
M  V30 392 H 43.0068 0.193635 -4.60393 0
M  V30 393 H 41.3218 0.332905 -4.15067 0
M  V30 394 H 43.9188 3.10694 -4.3517 0
M  V30 395 H 44.2618 3.21662 -2.64271 0
M  V30 396 H 44.7948 1.78395 -3.55556 0
M  V30 397 H 41.5338 1.07043 -6.46701 0
M  V30 398 H 41.0538 2.46235 -5.46926 0
M  V30 399 H 42.7328 2.30967 -6.0437 0
M  V30 400 N 42.8649 1.48995 0.513639 0
M  V30 401 C 43.7749 1.67443 1.64317 0
M  V30 402 C 44.7909 0.556947 1.64846 0
M  V30 403 O 45.9669 0.830082 1.83498 0
M  V30 404 C 43.0319 1.72515 3.00732 0
M  V30 405 C 42.0929 2.96009 3.1093 0
M  V30 406 C 41.3259 3.00829 4.40837 0
M  V30 407 O 41.5489 2.13594 5.28898 0
M  V30 408 O 40.4829 3.93168 4.55744 0
M  V30 409 H 44.3089 2.63106 1.51687 0
M  V30 410 H 41.8939 1.32588 0.688543 0
M  V30 411 H 43.7759 1.78277 3.81831 0
M  V30 412 H 42.4509 0.800278 3.13651 0
M  V30 413 H 41.3579 2.9577 2.29065 0
M  V30 414 H 42.6909 3.87934 3.02933 0
M  V30 415 N 44.343 -0.763751 1.37857 0
M  V30 416 C 45.759 -1.06542 1.18832 0
M  V30 417 C 45.959 -2.01478 0.0299722 0
M  V30 418 O 45.015 -2.4458 -0.627447 0
M  V30 419 C 46.328 -1.65525 2.51042 0
M  V30 420 C 47.876 -1.77745 2.57635 0
M  V30 421 C 48.351 -2.4014 3.89996 0
M  V30 422 N 49.842 -2.47582 3.91481 0
M  V30 423 C 50.577 -2.96732 4.9065 0
M  V30 424 N 50.073 -3.45993 6.00217 0
M  V30 425 N 51.866 -2.95679 4.78048 0
M  V30 426 H 44.017 -0.133556 2.1198 0
M  V30 427 H 46.28 -0.121879 0.940133 0
M  V30 428 H 45.986 -1.03236 3.36207 0
M  V30 429 H 45.86 -2.64719 2.68707 0
M  V30 430 H 48.247 -2.39164 1.72872 0
M  V30 431 H 48.328 -0.772836 2.43846 0
M  V30 432 H 47.972 -1.79358 4.75177 0
M  V30 433 H 47.902 -3.41223 4.01092 0
M  V30 434 H 50.393 -2.1273 3.12337 0
M  V30 435 H 50.706 -3.81922 6.7183 0
M  V30 436 H 49.051 -3.44077 6.03851 0
M  V30 437 H 52.242 -2.56499 3.91568 0
M  V30 438 H 52.415 -3.33672 5.55488 0
M  V30 439 N 45.8211 -1.22559 -0.990812 0
M  V30 440 C 47.0671 -1.05297 -1.73322 0
M  V30 441 C 47.4001 0.410655 -1.89808 0
M  V30 442 O 46.6751 1.30439 -1.44277 0
M  V30 443 C 46.9581 -1.76713 -3.13759 0
M  V30 444 C 46.8111 -3.30684 -3.04907 0
M  V30 445 C 48.1301 -1.52121 -4.12974 0
M  V30 446 H 45.2491 -0.38392 -0.629106 0
M  V30 447 H 47.8911 -1.50926 -1.15418 0
M  V30 448 H 46.0411 -1.37924 -3.63193 0
M  V30 449 H 47.7131 -3.7893 -2.63077 0
M  V30 450 H 45.9561 -3.60253 -2.41661 0
M  V30 451 H 46.6271 -3.75833 -4.04294 0
M  V30 452 H 49.1031 -1.85819 -3.72304 0
M  V30 453 H 47.9791 -2.04582 -5.0935 0
M  V30 454 H 48.2401 -0.454257 -4.3976 0
M  V30 455 N 47.2992 1.18797 -1.03562 0
M  V30 456 C 48.2462 2.22253 -0.622259 0
M  V30 457 C 49.2162 1.61987 0.36736 0
M  V30 458 O 50.4012 1.88986 0.262492 0
M  V30 459 C 47.5412 3.45097 0.0138462 0
M  V30 460 C 46.6542 4.19722 -1.02263 0
M  V30 461 C 45.7892 5.30009 -0.355573 0
M  V30 462 C 44.8282 5.96399 -1.37749 0
M  V30 463 N 43.9652 6.98234 -0.735766 0
M  V30 464 H 48.8052 2.56968 -1.50903 0
M  V30 465 H 46.3422 1.26245 -0.755017 0
M  V30 466 H 48.3002 4.15279 0.399948 0
M  V30 467 H 46.9302 3.11018 0.864158 0
M  V30 468 H 45.9822 3.48418 -1.52673 0
M  V30 469 H 47.2942 4.65227 -1.79903 0
M  V30 470 H 46.4482 6.0664 0.0850095 0
M  V30 471 H 45.1872 4.85592 0.452967 0
M  V30 472 H 44.1922 5.18512 -1.82826 0
M  V30 473 H 45.4172 6.42899 -2.18764 0
M  V30 474 H 43.3632 6.55979 0.0525597 0
M  V30 475 H 43.2802 7.41965 -1.44995 0
M  V30 476 H 44.5482 7.78845 -0.31941 0
M  V30 477 N 48.7773 0.814389 1.34928 0
M  V30 478 C 49.7073 0.244827 2.32213 0
M  V30 479 C 50.6883 -0.634024 1.57842 0
M  V30 480 O 51.8733 -0.562676 1.8587 0
M  V30 481 C 49.0033 -0.601106 3.42058 0
M  V30 482 C 47.9573 0.179896 4.27622 0
M  V30 483 C 47.2833 -0.788237 5.28858 0
M  V30 484 C 48.5833 1.38329 5.03649 0
M  V30 485 H 50.2773 1.05763 2.80097 0
M  V30 486 H 47.8233 0.510029 1.34665 0
M  V30 487 H 49.7763 -1.00968 4.09125 0
M  V30 488 H 48.5003 -1.44688 2.92802 0
M  V30 489 H 47.1593 0.569739 3.62146 0
M  V30 490 H 46.8073 -1.62973 4.75866 0
M  V30 491 H 46.5073 -0.269942 5.8698 0
M  V30 492 H 48.0313 -1.19485 5.98795 0
M  V30 493 H 49.4453 1.04918 5.63618 0
M  V30 494 H 47.8423 1.83662 5.71304 0
M  V30 495 H 48.9123 2.16592 4.33839 0
M  V30 496 N 50.2554 -1.46986 0.568584 0
M  V30 497 C 51.1854 -2.32946 -0.160753 0
M  V30 498 C 52.1664 -1.44487 -0.897631 0
M  V30 499 O 53.3514 -1.73327 -0.875867 0
M  V30 500 C 50.4814 -3.26494 -1.18403 0
M  V30 501 C 49.4354 -4.24282 -0.562895 0
M  V30 502 C 48.7614 -5.07236 -1.69163 0
M  V30 503 C 50.0614 -5.19989 0.490761 0
M  V30 504 H 51.7554 -2.94175 0.556916 0
M  V30 505 H 49.3014 -1.4146 0.26927 0
M  V30 506 H 51.2544 -3.85477 -1.70251 0
M  V30 507 H 49.9784 -2.63343 -1.93179 0
M  V30 508 H 48.6374 -3.66541 -0.0656164 0
M  V30 509 H 48.2854 -4.4048 -2.42871 0
M  V30 510 H 47.9854 -5.7345 -1.28174 0
M  V30 511 H 49.5094 -5.6908 -2.21314 0
M  V30 512 H 50.9234 -5.73271 0.0579047 0
M  V30 513 H 49.3204 -5.94469 0.820165 0
M  V30 514 H 50.3904 -4.64777 1.3824 0
M  V30 515 N 51.7335 -0.305618 -1.54608 0
M  V30 516 C 52.6635 0.561482 -2.26649 0
M  V30 517 C 53.6445 1.13415 -1.26772 0
M  V30 518 O 54.8295 1.16262 -1.55553 0
M  V30 519 C 51.9595 1.73122 -3.01075 0
M  V30 520 C 50.9135 1.2887 -4.08138 0
M  V30 521 C 50.2395 2.54396 -4.70305 0
M  V30 522 C 51.5395 0.416578 -5.20636 0
M  V30 523 H 53.2335 -0.0393902 -2.99374 0
M  V30 524 H 50.7795 -0.020385 -1.43986 0
M  V30 525 H 52.7325 2.34396 -3.50195 0
M  V30 526 H 51.4565 2.3584 -2.25936 0
M  V30 527 H 50.1155 0.698991 -3.59875 0
M  V30 528 H 49.7635 3.15439 -3.918 0
M  V30 529 H 49.4635 2.25486 -5.42614 0
M  V30 530 H 50.9875 3.16464 -5.2219 0
M  V30 531 H 52.4015 0.935116 -5.65622 0
M  V30 532 H 50.7985 0.221046 -5.99693 0
M  V30 533 H 51.8685 -0.557162 -4.81688 0
M  V30 534 N 53.2116 1.57565 -0.0334293 0
M  V30 535 C 54.1436 2.0739 0.975811 0
M  V30 536 C 55.1566 0.998166 1.2861 0
M  V30 537 O 56.3456 1.27426 1.25 0
M  V30 538 C 53.4456 2.4871 2.30209 0
M  V30 539 C 52.6186 3.79413 2.17634 0
M  V30 540 C 51.6776 4.07237 3.33233 0
M  V30 541 O 50.7036 4.77425 3.09927 0
M  V30 542 N 51.9056 3.5775 4.5716 0
M  V30 543 H 54.6706 2.94598 0.55066 0
M  V30 544 H 52.2316 1.61173 0.15323 0
M  V30 545 H 54.2236 2.64413 3.06378 0
M  V30 546 H 52.7936 1.66845 2.64351 0
M  V30 547 H 52.0136 3.73465 1.26165 0
M  V30 548 H 53.3016 4.65038 2.0644 0
M  V30 549 H 52.6996 3.00976 4.78989 0
M  V30 550 H 51.2566 3.78724 5.30482 0
M  V30 551 N 54.6897 -0.239769 1.55765 0
M  V30 552 C 55.9357 -0.968234 1.78194 0
M  V30 553 C 56.2687 -1.84701 0.599938 0
M  V30 554 O 55.5437 -1.9031 -0.401524 0
M  V30 555 C 55.8267 -1.8227 3.10564 0
M  V30 556 C 55.6797 -0.971633 4.3918 0
M  V30 557 C 56.9987 -2.80388 3.39221 0
M  V30 558 H 54.1177 -0.350572 0.648281 0
M  V30 559 H 56.7597 -0.238259 1.885 0
M  V30 560 H 54.9097 -2.44507 3.01908 0
M  V30 561 H 56.5817 -0.367408 4.59835 0
M  V30 562 H 54.8247 -0.276276 4.32919 0
M  V30 563 H 55.4957 -1.60346 5.28198 0
M  V30 564 H 57.9717 -2.28287 3.47885 0
M  V30 565 H 56.8477 -3.3729 4.33044 0
M  V30 566 H 57.1087 -3.57212 2.60484 0
M  V30 567 N 56.1678 -1.49265 -0.50573 0
M  V30 568 C 57.0998 -1.617 -1.62437 0
M  V30 569 C 58.1128 -0.499924 -1.54934 0
M  V30 570 O 59.3018 -0.771785 -1.60953 0
M  V30 571 C 56.4018 -1.5533 -3.01207 0
M  V30 572 C 55.5748 -2.8249 -3.33943 0
M  V30 573 C 54.6338 -2.69238 -4.52103 0
M  V30 574 O 53.6598 -3.43167 -4.5412 0
M  V30 575 N 54.8618 -1.80468 -5.51735 0
M  V30 576 H 57.6268 -2.58177 -1.52199 0
M  V30 577 H 55.1878 -1.46294 -0.693511 0
M  V30 578 H 57.1798 -1.44125 -3.78167 0
M  V30 579 H 55.7498 -0.667297 -3.05395 0
M  V30 580 H 54.9698 -3.08081 -2.45926 0
M  V30 581 H 56.2578 -3.66802 -3.5261 0
M  V30 582 H 55.6558 -1.19653 -5.52901 0
M  V30 583 H 54.2128 -1.75188 -6.27816 0
M  V30 584 N 57.6459 0.756429 -1.3826 0
M  V30 585 C 58.5959 1.86069 -1.31766 0
M  V30 586 C 59.5799 1.59621 -0.202483 0
M  V30 587 O 60.7719 1.7149 -0.438211 0
M  V30 588 C 57.9009 3.23742 -1.1422 0
M  V30 589 C 56.9869 3.56091 -2.30348 0
M  V30 590 N 57.3779 3.59517 -3.55783 0
M  V30 591 C 55.6759 3.86341 -2.22838 0
M  V30 592 C 56.3769 3.89052 -4.32451 0
M  V30 593 N 55.3529 4.05736 -3.61772 0
M  V30 594 H 59.1549 1.86992 -2.26741 0
M  V30 595 H 56.6689 0.953643 -1.31451 0
M  V30 596 H 58.6659 4.02761 -1.07652 0
M  V30 597 H 57.3259 3.24073 -0.201763 0
M  V30 598 H 58.3369 3.41347 -3.89491 0
M  V30 599 H 55.0139 3.94404 -1.36937 0
M  V30 600 H 56.4039 3.98349 -5.4108 0
M  V30 601 N 59.124 1.23083 0.984299 0
M  V30 602 C 60.087 1.00979 2.05757 0
M  V30 603 C 61.087 -0.0269573 1.60777 0
M  V30 604 O 62.277 0.212403 1.729 0
M  V30 605 C 59.409 0.527072 3.36801 0
M  V30 606 H 60.602 1.9622 2.26799 0
M  V30 607 H 58.155 1.05072 1.15714 0
M  V30 608 H 58.89 -0.429294 3.21446 0
M  V30 609 H 58.675 1.27515 3.70786 0
M  V30 610 H 60.165 0.392942 4.15747 0
M  V30 611 N 60.6021 -1.18246 1.0419 0
M  V30 612 C 61.8271 -1.92736 0.765996 0
M  V30 613 C 62.2521 -1.75728 -0.67091 0
M  V30 614 O 61.6101 -1.06825 -1.46486 0
M  V30 615 C 61.6581 -3.42148 1.13875 0
M  V30 616 O 60.7621 -4.11548 0.264954 0
M  V30 617 H 60.1031 -0.601238 0.281797 0
M  V30 618 H 62.6331 -1.49942 1.39207 0
M  V30 619 H 62.6431 -3.92858 1.1012 0
M  V30 620 H 61.3181 -3.53848 2.18551 0
M  V30 621 H 59.8951 -3.71137 0.362226 0
M  V30 622 N 62.0802 -0.821533 -1.34494 0
M  V30 623 C 63.0272 -0.240397 -2.29545 0
M  V30 624 C 63.9972 0.634031 -1.53523 0
M  V30 625 O 65.1822 0.575966 -1.81899 0
M  V30 626 C 62.3222 0.592869 -3.39969 0
M  V30 627 C 61.4352 -0.30365 -4.30932 0
M  V30 628 C 60.5702 0.539049 -5.28458 0
M  V30 629 C 59.6092 -0.356942 -6.11058 0
M  V30 630 N 58.7462 0.446603 -7.00678 0
M  V30 631 H 63.5862 -1.05632 -2.7865 0
M  V30 632 H 61.1232 -0.532413 -1.37127 0
M  V30 633 H 63.0812 1.09129 -4.02675 0
M  V30 634 H 61.7112 1.37392 -2.92102 0
M  V30 635 H 60.7632 -0.920276 -3.691 0
M  V30 636 H 62.0752 -0.992661 -4.88823 0
M  V30 637 H 61.2292 1.102 -5.96608 0
M  V30 638 H 59.9682 1.26157 -4.71101 0
M  V30 639 H 58.9732 -0.932047 -5.41842 0
M  V30 640 H 60.1982 -1.07755 -6.70497 0
M  V30 641 H 58.1442 1.15282 -6.45791 0
M  V30 642 H 58.0612 -0.184048 -7.55776 0
M  V30 643 H 59.3292 0.992352 -7.73158 0
M  V30 644 N 63.5583 1.46682 -0.576371 0
M  V30 645 C 64.4903 2.28341 0.198231 0
M  V30 646 C 65.5033 1.38141 0.861453 0
M  V30 647 O 66.6923 1.62797 0.732082 0
M  V30 648 C 63.7923 3.12986 1.29972 0
M  V30 649 C 62.9653 4.31271 0.729639 0
M  V30 650 C 62.0243 4.97363 1.71803 0
M  V30 651 O 61.0503 5.55156 1.25658 0
M  V30 652 N 62.2523 4.93796 3.05198 0
M  V30 653 H 65.0173 2.9546 -0.502324 0
M  V30 654 H 62.5783 1.56525 -0.413715 0
M  V30 655 H 64.5703 3.54066 1.96008 0
M  V30 656 H 63.1403 2.47984 1.90323 0
M  V30 657 H 62.3603 3.94052 -0.108012 0
M  V30 658 H 63.6483 5.07739 0.328438 0
M  V30 659 H 63.0463 4.48077 3.45317 0
M  V30 660 H 61.6033 5.38837 3.6674 0
M  V30 661 N 65.0364 0.313813 1.54444 0
M  V30 662 C 66.2854 -0.292519 1.99568 0
M  V30 663 C 66.5984 -1.54011 1.20582 0
M  V30 664 O 67.8044 -2.22183 1.56035 0
M  V30 665 C 66.2604 -0.571752 3.55329 0
M  V30 666 C 65.8684 0.658229 4.43138 0
M  V30 667 C 67.6124 -1.13857 4.08946 0
M  V30 668 C 65.5194 0.351439 5.90355 0
M  V30 669 H 64.4494 -0.113079 0.745472 0
M  V30 670 H 67.1004 0.424518 1.78522 0
M  V30 671 H 65.4824 -1.34872 3.72325 0
M  V30 672 H 66.6564 1.43403 4.37918 0
M  V30 673 H 64.9714 1.14458 4.0036 0
M  V30 674 H 67.5684 -1.38257 5.16516 0
M  V30 675 H 67.9114 -2.08489 3.6033 0
M  V30 676 H 68.4444 -0.423015 3.95544 0
M  V30 677 H 65.1834 1.26667 6.43145 0
M  V30 678 H 64.7034 -0.386842 5.98551 0
M  V30 679 H 66.3824 -0.0423134 6.46986 0
M  V30 680 N 66.5145 -1.57545 0.0417849 0
M  V30 681 C 67.7425 -1.96624 -0.643928 0
M  V30 682 C 68.1575 -0.918897 -1.64929 0
M  V30 683 O 67.5145 0.0979323 -1.82237 0
M  V30 684 C 67.5655 -3.35781 -1.33914 0
M  V30 685 O 67.2865 -4.365 -0.374048 0
M  V30 686 C 68.7875 -3.89566 -2.1155 0
M  V30 687 H 66.0075 -0.647316 -0.176702 0
M  V30 688 H 68.5515 -2.04229 0.105304 0
M  V30 689 H 66.7065 -3.29357 -2.03968 0
M  V30 690 H 67.1205 -5.17248 -0.869179 0
M  V30 691 H 68.5945 -4.89242 -2.55628 0
M  V30 692 H 69.0715 -3.24488 -2.9598 0
M  V30 693 H 69.6775 -3.99298 -1.46427 0
M  V30 694 N 67.9926 0.231505 -1.5589 0
M  V30 695 C 68.9556 1.27028 -1.90779 0
M  V30 696 C 69.9556 1.40308 -0.785507 0
M  V30 697 O 71.1456 1.38744 -1.05336 0
M  V30 698 C 68.2776 2.64566 -2.14983 0
M  V30 699 H 69.4706 0.973017 -2.83677 0
M  V30 700 H 67.0236 0.471486 -1.49019 0
M  V30 701 H 67.7586 2.99406 -1.24604 0
M  V30 702 H 67.5436 2.56305 -2.96732 0
M  V30 703 H 69.0336 3.39543 -2.43105 0
M  V30 704 N 69.4707 1.49531 0.497807 0
M  V30 705 C 70.7477 1.49682 1.25915 0
M  V30 706 C 71.1277 0.226339 2.09883 0
M  V30 707 O 70.4757 -0.791189 2.14365 0
M  V30 708 C 70.6857 2.77755 2.11313 0
M  V30 709 C 72.0337 3.27371 2.70395 0
M  V30 710 O 73.0577 2.78894 2.21578 0
M  V30 711 O 71.9167 4.11808 3.59272 0
M  V30 712 H 69.0107 0.599228 0.56996 0
M  V30 713 H 71.5567 1.61798 0.511816 0
M  V30 714 H 70.3287 3.61713 1.49264 0
M  V30 715 H 69.9517 2.68515 2.93233 0
M  V30 716 N 70.9488 -0.749086 1.3866 0
M  V30 717 C 71.8958 -1.86291 1.36251 0
M  V30 718 C 72.8658 -1.64578 0.224347 0
M  V30 719 O 74.0508 -1.86181 0.417279 0
M  V30 720 C 71.1908 -3.23644 1.19786 0
M  V30 721 C 70.3038 -3.57158 2.43027 0
M  V30 722 C 69.4388 -4.83838 2.19258 0
M  V30 723 C 68.4778 -5.10152 3.38247 0
M  V30 724 N 67.6148 -6.28029 3.13884 0
M  V30 725 H 72.4548 -1.87685 2.3147 0
M  V30 726 H 69.9918 -0.917287 1.14997 0
M  V30 727 H 71.9498 -4.0291 1.08254 0
M  V30 728 H 70.5798 -3.21566 0.282031 0
M  V30 729 H 69.6318 -2.72701 2.65214 0
M  V30 730 H 70.9438 -3.7253 3.31697 0
M  V30 731 H 70.0978 -5.71057 2.04888 0
M  V30 732 H 68.8368 -4.70614 1.2796 0
M  V30 733 H 67.8418 -4.21401 3.53131 0
M  V30 734 H 69.0668 -5.25271 4.30427 0
M  V30 735 H 67.0128 -6.1612 2.25238 0
M  V30 736 H 66.9298 -6.43922 3.96106 0
M  V30 737 H 68.1978 -7.18124 3.03179 0
M  V30 738 N 72.4269 -1.23603 -0.977757 0
M  V30 739 C 73.3589 -0.977369 -2.07317 0
M  V30 740 C 74.3719 0.0495845 -1.62724 0
M  V30 741 O 75.5609 -0.186261 -1.77526 0
M  V30 742 C 72.6609 -0.451216 -3.35883 0
M  V30 743 C 71.8339 -1.53896 -4.09432 0
M  V30 744 C 70.8929 -1.01721 -5.16274 0
M  V30 745 O 69.9189 -1.70676 -5.43009 0
M  V30 746 N 71.1209 0.153594 -5.80297 0
M  V30 747 H 73.8859 -1.92047 -2.30082 0
M  V30 748 H 71.4469 -1.14497 -1.14465 0
M  V30 749 H 73.4389 -0.0871574 -4.04606 0
M  V30 750 H 72.0089 0.397368 -3.10064 0
M  V30 751 H 71.2289 -2.07566 -3.35127 0
M  V30 752 H 72.5169 -2.27037 -4.55337 0
M  V30 753 H 71.9149 0.730323 -5.60966 0
M  V30 754 H 70.4719 0.458892 -6.50183 0
M  V30 755 N 73.905 1.17692 -1.04816 0
M  V30 756 C 75.135 1.91508 -0.775128 0
M  V30 757 C 75.543 1.76844 0.67253 0
M  V30 758 O 74.886 1.10057 1.47082 0
M  V30 759 C 74.948 3.43167 -1.0713 0
M  V30 760 C 74.612 3.81612 -2.51438 0
M  V30 761 C 75.609 3.84772 -3.49638 0
M  V30 762 C 73.294 4.12687 -2.86348 0
M  V30 763 C 75.288 4.18469 -4.80794 0
M  V30 764 C 72.975 4.46053 -4.17708 0
M  V30 765 C 73.973 4.48921 -5.14741 0
M  V30 766 O 73.661 4.81504 -6.43746 0
M  V30 767 H 73.393 0.614575 -0.281555 0
M  V30 768 H 75.947 1.50206 -1.40098 0
M  V30 769 H 74.177 3.84745 -0.388342 0
M  V30 770 H 75.866 3.98239 -0.784883 0
M  V30 771 H 76.632 3.60893 -3.24008 0
M  V30 772 H 72.511 4.09627 -2.11486 0
M  V30 773 H 76.055 4.20623 -5.56527 0
M  V30 774 H 71.952 4.69393 -4.43103 0
M  V30 775 H 72.72 4.99377 -6.4851 0
M  V30 776 N 75.3831 0.828654 1.34056 0
M  V30 777 C 76.3301 0.252567 2.29414 0
M  V30 778 C 77.3001 -0.62588 1.53857 0
M  V30 779 O 78.4851 -0.566312 1.82202 0
M  V30 780 C 75.6251 -0.574831 3.40279 0
M  V30 781 C 74.7381 0.326499 4.30764 0
M  V30 782 C 73.8731 -0.511016 5.28736 0
M  V30 783 C 72.9121 0.389342 6.1086 0
M  V30 784 N 72.0491 -0.409439 7.00905 0
M  V30 785 H 76.8891 1.07108 2.78086 0
M  V30 786 H 74.4261 0.539677 1.36843 0
M  V30 787 H 76.3841 -1.06992 4.03248 0
M  V30 788 H 75.0141 -1.35841 2.92826 0
M  V30 789 H 74.0661 0.939837 3.68607 0
M  V30 790 H 75.3781 1.01857 4.88289 0
M  V30 791 H 74.5321 -1.07035 5.97184 0
M  V30 792 H 73.2711 -1.23657 4.71763 0
M  V30 793 H 72.2761 0.960769 5.4134 0
M  V30 794 H 73.5011 1.1131 6.69916 0
M  V30 795 H 71.4471 -1.11856 6.46393 0
M  V30 796 H 71.3641 0.224126 7.55668 0
M  V30 797 H 72.6321 -0.951336 7.73673 0
M  V30 798 N 76.8612 -1.46375 0.584142 0
M  V30 799 C 78.1092 -2.01978 0.0701287 0
M  V30 800 C 78.4302 -1.4579 -1.295 0
M  V30 801 O 77.7002 -0.64314 -1.85042 0
M  V30 802 H 76.2802 -0.746648 0.0229345 0
M  V30 803 H 78.9422 -1.79461 0.760245 0
M  V30 804 H 78.0382 -3.121 0.0022064 0
M  V30 805 N 78.3393 -0.321999 -1.54275 0
M  V30 806 C 79.5883 0.281931 -1.9972 0
M  V30 807 C 79.9013 1.53369 -1.21397 0
M  V30 808 O 81.1073 2.21352 -1.57211 0
M  V30 809 C 79.5633 0.5529 -3.55628 0
M  V30 810 C 79.1713 -0.681721 -4.42783 0
M  V30 811 C 80.9153 1.11687 -4.09544 0
M  V30 812 C 78.8223 -0.382742 -5.9016 0
M  V30 813 H 77.7523 0.109124 -0.746062 0
M  V30 814 H 80.4033 -0.43398 -1.78294 0
M  V30 815 H 78.7853 1.32896 -3.73035 0
M  V30 816 H 79.9593 -1.45723 -4.37151 0
M  V30 817 H 78.2743 -1.1658 -3.99748 0
M  V30 818 H 80.8713 1.35515 -5.17242 0
M  V30 819 H 81.2143 2.06575 -3.61431 0
M  V30 820 H 81.7473 0.402032 -3.95763 0
M  V30 821 H 78.4863 -1.30076 -6.42464 0
M  V30 822 H 78.0063 0.355094 -5.98748 0
M  V30 823 H 79.6853 0.00800157 -6.47 0
M  V30 824 N 79.8174 1.5752 -0.0501392 0
M  V30 825 C 81.0664 1.91827 0.623328 0
M  V30 826 C 81.3794 0.930222 1.72065 0
M  V30 827 O 82.5854 1.1653 2.4522 0
M  V30 828 C 81.0414 3.40692 1.16003 0
M  V30 829 C 80.6494 4.479 0.0948811 0
M  V30 830 C 82.3934 3.84034 1.80881 0
M  V30 831 C 80.3004 5.87879 0.644411 0
M  V30 832 H 79.2304 0.715918 0.236596 0
M  V30 833 H 81.8814 1.83115 -0.118861 0
M  V30 834 H 80.2634 3.44405 1.9545 0
M  V30 835 H 81.4374 4.55775 -0.678675 0
M  V30 836 H 79.7524 4.13892 -0.45637 0
M  V30 837 H 82.3494 4.85984 2.22988 0
M  V30 838 H 82.6924 3.20225 2.6601 0
M  V30 839 H 83.2254 3.82833 1.0809 0
M  V30 840 H 79.9644 6.55282 -0.169229 0
M  V30 841 H 79.4844 5.83567 1.38598 0
M  V30 842 H 81.1634 6.37098 1.12763 0
M  V30 843 N 81.2955 -0.223234 1.56011 0
M  V30 844 C 82.5725 -0.972108 1.69733 0
M  V30 845 C 82.9525 -2.02485 0.59691 0
M  V30 846 O 82.3005 -2.25037 -0.396324 0
M  V30 847 C 82.5105 -1.58407 3.10979 0
M  V30 848 C 83.8585 -2.07696 3.70334 0
M  V30 849 O 84.8825 -1.68304 3.1393 0
M  V30 850 O 83.7415 -2.80096 4.69264 0
M  V30 851 H 80.8355 -0.453993 0.691245 0
M  V30 852 H 83.3815 -0.215149 1.68331 0
M  V30 853 H 82.1535 -0.823831 3.82529 0
M  V30 854 H 81.7765 -2.40661 3.16493 0
M  V30 855 N 82.7736 -1.49793 -0.48987 0
M  V30 856 C 84.0136 -1.61466 -1.25332 0
M  V30 857 C 84.3776 -0.299688 -1.89647 0
M  V30 858 O 85.5786 -0.291687 -2.67213 0
M  V30 859 C 83.8496 -2.74944 -2.28343 0
M  V30 860 S 85.4086 -3.06637 -3.13878 0
M  V30 861 H 82.2266 -0.569411 -0.425784 0
M  V30 862 H 84.8286 -1.875 -0.553541 0
M  V30 863 H 83.5326 -3.68994 -1.79643 0
M  V30 864 H 83.0636 -2.50938 -3.02975 0
M  V30 865 H 85.0786 -2.49015 -4.29192 0
M  V30 866 N 84.2517 0.741722 -1.39055 0
M  V30 867 C 85.4977 1.50336 -1.36113 0
M  V30 868 C 85.8307 1.94148 0.0450796 0
M  V30 869 O 85.1057 1.66301 1.00868 0
M  V30 870 C 85.3887 2.74773 -2.32749 0
M  V30 871 C 85.2417 2.37023 -3.82283 0
M  V30 872 C 86.5607 3.76846 -2.27322 0
M  V30 873 H 83.6797 0.545351 -0.495743 0
M  V30 874 H 86.3217 0.848624 -1.69995 0
M  V30 875 H 84.4717 3.30639 -2.03986 0
M  V30 876 H 86.1437 1.8684 -4.21768 0
M  V30 877 H 84.3867 1.69334 -3.99385 0
M  V30 878 H 85.0577 3.26104 -4.45376 0
M  V30 879 H 87.5337 3.30548 -2.5274 0
M  V30 880 H 86.4097 4.6159 -2.97028 0
M  V30 881 H 86.6707 4.23286 -1.27599 0
M  V30 882 N 85.7298 1.2412 0.971189 0
M  V30 883 C 86.9758 1.08041 1.71625 0
M  V30 884 C 87.3088 -0.380407 1.90438 0
M  V30 885 O 86.5838 -1.28127 1.46334 0
M  V30 886 C 86.8668 1.81682 3.10908 0
M  V30 887 C 86.7198 3.35493 2.99608 0
M  V30 888 C 88.0388 1.58671 4.10501 0
M  V30 889 H 85.1578 0.39388 0.622919 0
M  V30 890 H 87.7998 1.52743 1.13003 0
M  V30 891 H 85.9498 1.43684 3.60953 0
M  V30 892 H 87.6218 3.83068 2.57015 0
M  V30 893 H 85.8648 3.64052 2.35899 0
M  V30 894 H 86.5358 3.82217 3.98264 0
M  V30 895 H 89.0118 1.91719 3.69301 0
M  V30 896 H 87.8878 2.1266 5.06031 0
M  V30 897 H 88.1488 0.524161 4.38982 0
M  V30 898 N 87.2079 -1.17134 1.05439 0
M  V30 899 C 88.6239 -1.39454 0.776201 0
M  V30 900 C 88.8239 -1.91454 -0.628307 0
M  V30 901 O 87.8799 -2.10777 -1.39031 0
M  V30 902 C 89.1929 -2.38305 1.83388 0
M  V30 903 C 90.7409 -2.52006 1.85639 0
M  V30 904 C 91.2159 -3.54133 2.90437 0
M  V30 905 N 92.7069 -3.61653 2.89415 0
M  V30 906 C 93.4419 -4.4044 3.67152 0
M  V30 907 N 92.9379 -5.22721 4.54681 0
M  V30 908 N 94.7309 -4.35337 3.55581 0
M  V30 909 H 86.8819 -0.817134 1.96053 0
M  V30 910 H 89.1449 -0.421626 0.849079 0
M  V30 911 H 88.8509 -2.07173 2.84204 0
M  V30 912 H 88.7249 -3.37841 1.67761 0
M  V30 913 H 91.1119 -2.82447 0.85486 0
M  V30 914 H 91.1929 -1.52537 2.05344 0
M  V30 915 H 90.8369 -3.24431 3.90777 0
M  V30 916 H 90.7669 -4.53313 2.67983 0
M  V30 917 H 93.2579 -3.02909 2.25952 0
M  V30 918 H 93.5709 -5.80027 5.10674 0
M  V30 919 H 91.9159 -5.22093 4.58741 0
M  V30 920 H 95.1069 -3.70112 2.86592 0
M  V30 921 H 95.2799 -4.96494 4.1641 0
M  V30 922 N 88.686 -0.835752 -1.33615 0
M  V30 923 C 89.935 -0.426289 -1.97144 0
M  V30 924 C 90.248 1.01912 -1.66953 0
M  V30 925 O 91.454 1.53311 -2.24072 0
M  V30 926 C 89.91 -0.711321 -3.52801 0
M  V30 927 C 89.518 -2.1712 -3.91871 0
M  V30 928 C 91.262 -0.368654 -4.22896 0
M  V30 929 C 89.169 -2.40044 -5.40493 0
M  V30 930 H 88.099 -0.15567 -0.737755 0
M  V30 931 H 90.75 -1.0239 -1.52278 0
M  V30 932 H 89.132 -0.0433766 -3.95976 0
M  V30 933 H 90.306 -2.87936 -3.59763 0
M  V30 934 H 88.621 -2.47654 -3.34749 0
M  V30 935 H 91.218 -0.517601 -5.32189 0
M  V30 936 H 91.561 0.688078 -4.10574 0
M  V30 937 H 92.094 -0.991702 -3.8524 0
M  V30 938 H 88.833 -3.44271 -5.57815 0
M  V30 939 H 88.353 -1.73785 -5.74072 0
M  V30 940 H 90.032 -2.23042 -6.0734 0
M  V30 941 N 90.1641 1.46063 -0.591896 0
M  V30 942 C 91.5751 1.85944 -0.167822 0
M  V30 943 C 91.9261 1.49429 1.27143 0
M  V30 944 O 91.0511 0.913515 1.96173 0
M  V30 945 C 91.6461 3.37489 -0.297794 0
M  V30 946 C 90.2051 3.76332 0.0714732 0
M  V30 947 C 89.3521 2.7006 -0.629509 0
M  V30 948 H 92.3031 1.37087 -0.799555 0
M  V30 949 H 92.3241 3.77532 0.474349 0
M  V30 950 H 91.8361 3.64034 -1.3454 0
M  V30 951 H 89.9371 3.55405 1.11886 0
M  V30 952 H 90.0501 4.78088 -0.311245 0
M  V30 953 H 88.4141 2.54607 -0.0687867 0
M  V30 954 H 89.1971 2.99444 -1.67894 0
M  V30 955 N 91.6422 0.330177 1.54103 0
M  V30 956 C 92.5892 -0.532762 2.24567 0
M  V30 957 C 93.5592 -1.10635 1.23892 0
M  V30 958 O 94.7442 -1.14546 1.5259 0
M  V30 959 C 91.8842 -1.6845 3.01195 0
M  V30 960 C 90.9972 -1.13951 4.167 0
M  V30 961 C 90.1322 -2.25746 4.80845 0
M  V30 962 C 89.1712 -1.6853 5.88442 0
M  V30 963 N 88.3082 -2.74014 6.46421 0
M  V30 964 H 93.1482 0.0746905 2.97906 0
M  V30 965 H 90.6852 0.048632 1.4702 0
M  V30 966 H 92.6432 -2.36234 3.43874 0
M  V30 967 H 91.2732 -2.26314 2.30178 0
M  V30 968 H 90.3252 -0.35301 3.78758 0
M  V30 969 H 91.6372 -0.680892 4.94131 0
M  V30 970 H 90.7912 -3.01422 5.26526 0
M  V30 971 H 89.5302 -2.74947 4.0281 0
M  V30 972 H 88.5352 -0.913543 5.42157 0
M  V30 973 H 89.7602 -1.20198 6.68378 0
M  V30 974 H 87.7062 -3.22494 5.71256 0
M  V30 975 H 87.6232 -2.32735 7.19285 0
M  V30 976 H 88.8912 -3.49499 6.96757 0
M  V30 977 N 93.1203 -1.57491 0.0584922 0
M  V30 978 C 94.0303 -2.15448 -0.928414 0
M  V30 979 C 95.0463 -1.11416 -1.3365 0
M  V30 980 O 96.2223 -1.4362 -1.41193 0
M  V30 981 C 93.2873 -2.69393 -2.18239 0
M  V30 982 C 92.3483 -3.88249 -1.83196 0
M  V30 983 C 91.5813 -4.39613 -3.02616 0
M  V30 984 O 91.8043 -3.90023 -4.16219 0
M  V30 985 O 90.7383 -5.31111 -2.83204 0
M  V30 986 H 94.5643 -3.00112 -0.465483 0
M  V30 987 H 92.1493 -1.48499 -0.163826 0
M  V30 988 H 94.0313 -3.04026 -2.91798 0
M  V30 989 H 92.7063 -1.87796 -2.63656 0
M  V30 990 H 91.6133 -3.58492 -1.06931 0
M  V30 991 H 92.9463 -4.71098 -1.42573 0
M  V30 992 N 94.5984 0.214957 -1.56127 0
M  V30 993 C 95.5304 1.29004 -1.89448 0
M  V30 994 C 96.5434 1.42716 -0.783326 0
M  V30 995 O 97.7324 1.43496 -1.06166 0
M  V30 996 C 94.8324 2.66482 -2.09381 0
M  V30 997 C 94.0054 2.74633 -3.40434 0
M  V30 998 C 93.0644 3.9317 -3.49719 0
M  V30 999 O 92.0904 3.812 -4.227 0
M  V30 1000 N 93.2924 5.07765 -2.81346 0
M  V30 1001 H 96.0574 1.00743 -2.82261 0
M  V30 1002 H 93.6184 0.40497 -1.56753 0
M  V30 1003 H 95.6104 3.44173 -2.12901 0
M  V30 1004 H 94.1804 2.87314 -1.23163 0
M  V30 1005 H 93.4004 1.83368 -3.48955 0
M  V30 1006 H 94.6884 2.77054 -4.26754 0
M  V30 1007 H 94.0864 5.20386 -2.21843 0
M  V30 1008 H 92.6434 5.83474 -2.90519 0
M  V30 1009 N 96.0765 1.50051 0.48192 0
M  V30 1010 C 97.3245 1.60181 1.23234 0
M  V30 1011 C 97.6455 0.299176 1.92691 0
M  V30 1012 O 96.9155 -0.682708 1.83619 0
M  V30 1013 H 95.4955 0.590232 0.457859 0
M  V30 1014 H 98.1575 1.86775 0.556881 0
M  V30 1015 H 97.2535 2.40753 1.98607 0
M  V30 1016 N 97.5546 -0.734337 1.39446 0
M  V30 1017 C 98.8006 -1.49613 1.36908 0
M  V30 1018 C 99.1336 -1.94169 -0.0347829 0
M  V30 1019 O 98.4086 -1.66833 -0.999847 0
M  V30 1020 C 98.6916 -2.73534 2.34203 0
M  V30 1021 C 98.5446 -2.34993 3.83534 0
M  V30 1022 C 99.8636 -3.75635 2.29317 0
M  V30 1023 H 96.9826 -0.542714 0.498629 0
M  V30 1024 H 99.6246 -0.839597 1.70443 0
M  V30 1025 H 97.7746 -3.29553 2.05736 0
M  V30 1026 H 99.4466 -1.84601 4.22753 0
M  V30 1027 H 97.6896 -1.67213 4.00278 0
M  V30 1028 H 98.3606 -3.23738 4.47099 0
M  V30 1029 H 100.837 -3.29203 2.54489 0
M  V30 1030 H 99.7126 -4.60008 2.99472 0
M  V30 1031 H 99.9736 -4.22603 1.29842 0
M  V30 1032 N 99.0327 -1.24633 -0.964593 0
M  V30 1033 C 99.9627 -1.06611 -2.07741 0
M  V30 1034 C 100.944 0.0218666 -1.70086 0
M  V30 1035 O 102.129 -0.145793 -1.93652 0
M  V30 1036 C 99.2587 -0.673444 -3.40708 0
M  V30 1037 C 98.2127 -1.71054 -3.92332 0
M  V30 1038 C 97.5387 -1.17285 -5.21678 0
M  V30 1039 C 98.8387 -3.10718 -4.19824 0
M  V30 1040 H 100.533 -1.99693 -2.23076 0
M  V30 1041 H 98.0787 -0.96152 -1.07195 0
M  V30 1042 H 100.032 -0.534345 -4.17998 0
M  V30 1043 H 98.7557 0.293073 -3.25282 0
M  V30 1044 H 97.4147 -1.83791 -3.17201 0
M  V30 1045 H 97.0627 -0.196847 -5.02615 0
M  V30 1046 H 96.7627 -1.86592 -5.57187 0
M  V30 1047 H 98.2867 -1.04593 -6.01575 0
M  V30 1048 H 99.7007 -3.01192 -4.87808 0
M  V30 1049 H 98.0977 -3.77406 -4.66567 0
M  V30 1050 H 99.1677 -3.58524 -3.26479 0
M  V30 1051 N 100.511 1.16574 -1.06058 0
M  V30 1052 C 101.736 1.91493 -0.796562 0
M  V30 1053 C 102.161 1.76773 0.642868 0
M  V30 1054 O 101.519 1.09142 1.44768 0
M  V30 1055 C 101.567 3.40293 -1.19303 0
M  V30 1056 O 100.671 4.11074 -0.330394 0
M  V30 1057 H 100.012 0.596678 -0.291326 0
M  V30 1058 H 102.542 1.47708 -1.41575 0
M  V30 1059 H 102.552 3.91057 -1.16356 0
M  V30 1060 H 101.227 3.50326 -2.24153 0
M  V30 1061 H 99.8038 3.70513 -0.421225 0
M  V30 1062 N 101.989 0.842826 1.3317 0
M  V30 1063 C 103.236 0.440447 1.97652 0
M  V30 1064 C 103.564 -1.00123 1.6675 0
M  V30 1065 O 102.819 -1.7155 0.941761 0
M  V30 1066 C 103.118 0.612607 3.52111 0
M  V30 1067 C 102.784 2.02297 4.02972 0
M  V30 1068 C 101.446 2.40874 4.16573 0
M  V30 1069 C 103.798 2.94402 4.30089 0
M  V30 1070 C 101.126 3.70852 4.54627 0
M  V30 1071 C 103.478 4.23865 4.69597 0
M  V30 1072 C 102.142 4.62392 4.81404 0
M  V30 1073 H 101.412 0.161171 0.72326 0
M  V30 1074 H 104.059 1.07061 1.58777 0
M  V30 1075 H 102.364 -0.100849 3.9167 0
M  V30 1076 H 104.061 0.2815 4.00011 0
M  V30 1077 H 100.651 1.71338 3.92863 0
M  V30 1078 H 104.835 2.65835 4.19101 0
M  V30 1079 H 100.091 4.00501 4.61962 0
M  V30 1080 H 104.265 4.95306 4.89536 0
M  V30 1081 H 101.892 5.63154 5.10648 0
M  V30 1082 N 103.467 -1.45747 0.599634 0
M  V30 1083 C 104.713 -2.03153 0.100263 0
M  V30 1084 C 105.068 -1.46073 -1.25221 0
M  V30 1085 O 104.361 -0.622878 -1.81193 0
M  V30 1086 C 104.555 -3.57399 -0.00602758 0
M  V30 1087 C 104.384 -4.2944 1.3346 0
M  V30 1088 C 103.154 -4.6768 1.91321 0
M  V30 1089 C 105.352 -4.61905 2.2616 0
M  V30 1090 N 103.334 -5.24544 3.18946 0
M  V30 1091 C 104.705 -5.19518 3.3838 0
M  V30 1092 C 106.76 -4.43841 2.25631 0
M  V30 1093 C 105.463 -5.60972 4.50226 0
M  V30 1094 C 107.489 -4.86322 3.36518 0
M  V30 1095 C 106.851 -5.44021 4.4746 0
M  V30 1096 H 102.95 -0.777911 0.0798696 0
M  V30 1097 H 105.534 -1.77674 0.796244 0
M  V30 1098 H 103.705 -3.82556 -0.671212 0
M  V30 1099 H 105.437 -4.01457 -0.51133 0
M  V30 1100 H 102.192 -4.5098 1.44617 0
M  V30 1101 H 102.616 -5.57483 3.84112 0
M  V30 1102 H 107.258 -3.98552 1.41123 0
M  V30 1103 H 104.976 -6.0523 5.35464 0
M  V30 1104 H 108.562 -4.74084 3.37247 0
M  V30 1105 H 107.442 -5.76289 5.31846 0
M  V30 1106 N 104.945 -0.338344 -1.53925 0
M  V30 1107 C 106.361 0.0137736 -1.59594 0
M  V30 1108 C 106.561 1.49186 -1.35447 0
M  V30 1109 O 105.617 2.24987 -1.14616 0
M  V30 1110 C 106.93 -0.41773 -2.97784 0
M  V30 1111 C 108.478 -0.369633 -3.1081 0
M  V30 1112 C 108.953 -0.776524 -4.51369 0
M  V30 1113 N 110.444 -0.730506 -4.57403 0
M  V30 1114 C 111.179 -1.01736 -5.64303 0
M  V30 1115 N 110.675 -1.3721 -6.79077 0
M  V30 1116 N 112.468 -0.941942 -5.54151 0
M  V30 1117 H 104.619 -1.3012 -1.67876 0
M  V30 1118 H 106.882 -0.530082 -0.78595 0
M  V30 1119 H 106.588 -1.44811 -3.20504 0
M  V30 1120 H 106.462 0.209729 -3.76616 0
M  V30 1121 H 108.849 0.651568 -2.87817 0
M  V30 1122 H 108.93 -1.03223 -2.34049 0
M  V30 1123 H 108.574 -1.79571 -4.75096 0
M  V30 1124 H 108.504 -0.0914649 -5.26521 0
M  V30 1125 H 110.995 -0.468783 -3.74981 0
M  V30 1126 H 111.308 -1.57597 -7.5656 0
M  V30 1127 H 109.653 -1.4105 -6.80536 0
M  V30 1128 H 112.844 -0.664184 -4.63364 0
M  V30 1129 H 113.017 -1.16884 -6.37371 0
M  V30 1130 N 106.423 1.57458 -0.0668435 0
M  V30 1131 C 107.671 1.92919 0.602214 0
M  V30 1132 C 107.992 0.947215 1.70449 0
M  V30 1133 O 107.262 -0.00544117 1.95899 0
M  V30 1134 H 105.842 0.71217 0.22544 0
M  V30 1135 H 108.504 1.94508 -0.123535 0
M  V30 1136 H 107.6 2.94589 1.03073 0
M  V30 1137 N 107.901 -0.206675 1.56239 0
M  V30 1138 C 108.849 -1.27571 1.94495 0
M  V30 1139 C 109.843 -1.47737 0.828862 0
M  V30 1140 O 111.049 -1.48735 1.0138 0
M  V30 1141 H 107.424 -0.428029 0.6183 0
M  V30 1142 H 109.395 -0.925961 2.8367 0
M  V30 1143 C 108.144 -2.61568 2.29079 0
M  V30 1144 H 107.467 -2.46863 3.14482 0
M  V30 1145 H 108.907 -3.35144 2.5972 0
M  V30 1146 C 107.366 -3.17695 1.12123 0
M  V30 1147 O 107.896 -3.99801 0.390153 0
M  V30 1148 N 106.102 -2.76276 0.901097 0
M  V30 1149 H 105.649 -2.09613 1.49733 0
M  V30 1150 H 105.607 -3.1417 0.120319 0
M  V30 1151 N 109.379 -1.50304 -0.473955 0
M  V30 1152 C 110.309 -1.71886 -1.58042 0
M  V30 1153 C 111.29 -0.567799 -1.60344 0
M  V30 1154 O 112.475 -0.806623 -1.76656 0
M  V30 1155 C 109.605 -1.81036 -2.96384 0
M  V30 1156 C 108.559 -2.962 -3.08949 0
M  V30 1157 C 107.885 -2.9049 -4.48909 0
M  V30 1158 C 109.185 -4.36752 -2.86434 0
M  V30 1159 H 110.879 -2.64527 -1.40234 0
M  V30 1160 H 108.425 -1.27295 -0.673201 0
M  V30 1161 H 110.378 -1.94719 -3.73714 0
M  V30 1162 H 109.102 -0.850147 -3.15341 0
M  V30 1163 H 107.761 -2.82164 -2.3405 0
M  V30 1164 H 107.409 -1.92321 -4.64781 0
M  V30 1165 H 107.109 -3.67802 -4.58253 0
M  V30 1166 H 108.633 -3.06218 -5.28264 0
M  V30 1167 H 110.047 -4.5133 -3.53517 0
M  V30 1168 H 108.444 -5.15493 -3.07225 0
M  V30 1169 H 109.514 -4.49321 -1.82316 0
M  V30 1170 N 110.857 0.726932 -1.39834 0
M  V30 1171 C 111.82 1.82269 -1.38962 0
M  V30 1172 C 112.82 1.58248 -0.285334 0
M  V30 1173 O 114.01 1.65499 -0.54366 0
M  V30 1174 C 111.142 3.20186 -1.17019 0
M  V30 1175 H 112.335 1.84443 -2.36476 0
M  V30 1176 H 109.888 0.931416 -1.25516 0
M  V30 1177 H 110.623 3.23669 -0.202204 0
M  V30 1178 H 110.408 3.3902 -1.96998 0
M  V30 1179 H 111.898 4.00235 -1.1917 0
M  V30 1180 N 112.336 1.25143 0.95797 0
M  V30 1181 C 113.284 1.05019 2.07542 0
M  V30 1182 C 114.278 -0.0178751 1.69391 0
M  V30 1183 O 115.484 0.137472 1.79474 0
M  V30 1184 H 111.859 0.32265 0.679265 0
M  V30 1185 H 113.83 1.99759 2.21673 0
M  V30 1186 C 112.579 0.682074 3.40944 0
M  V30 1187 H 111.902 1.49573 3.70767 0
M  V30 1188 H 113.342 0.580945 4.20001 0
M  V30 1189 C 111.801 -0.611608 3.31302 0
M  V30 1190 O 112.331 -1.65465 3.66038 0
M  V30 1191 N 110.537 -0.595982 2.84423 0
M  V30 1192 H 110.084 0.253192 2.56353 0
M  V30 1193 H 110.042 -1.46173 2.78354 0
M  V30 1194 N 113.814 -1.1601 1.06675 0
M  V30 1195 C 115.06 -1.86909 0.786945 0
M  V30 1196 C 115.393 -1.81717 -0.685018 0
M  V30 1197 O 114.668 -1.23551 -1.50218 0
M  V30 1198 C 114.951 -3.36313 1.28707 0
M  V30 1199 C 114.804 -3.50175 2.82308 0
M  V30 1200 C 116.123 -4.3084 0.898071 0
M  V30 1201 H 113.242 -0.678677 0.287343 0
M  V30 1202 H 115.884 -1.36336 1.32334 0
M  V30 1203 H 114.034 -3.79513 0.830768 0
M  V30 1204 H 115.706 -3.15886 3.36175 0
M  V30 1205 H 113.949 -2.91959 3.20847 0
M  V30 1206 H 114.62 -4.55116 3.12368 0
M  V30 1207 H 117.096 -3.95561 1.29114 0
M  V30 1208 H 115.972 -5.33876 1.27543 0
M  V30 1209 H 116.233 -4.41662 -0.196651 0
M  V30 1210 N 115.292 -0.849877 -1.32721 0
M  V30 1211 C 116.541 -0.447175 -1.96681 0
M  V30 1212 C 116.854 1.00135 -1.68025 0
M  V30 1213 O 118.06 1.50926 -2.25685 0
M  V30 1214 C 116.516 -0.7487 -3.52026 0
M  V30 1215 C 116.124 -2.21264 -3.89546 0
M  V30 1216 C 117.868 -0.413487 -4.22481 0
M  V30 1217 C 115.775 -2.45763 -5.37917 0
M  V30 1218 H 114.705 -0.163486 -0.736063 0
M  V30 1219 H 117.356 -1.03999 -1.51183 0
M  V30 1220 H 115.738 -0.0853727 -3.95908 0
M  V30 1221 H 116.912 -2.91736 -3.56689 0
M  V30 1222 H 115.227 -2.5119 -3.32103 0
M  V30 1223 H 117.824 -0.574017 -5.3161 0
M  V30 1224 H 118.167 0.644492 -4.11281 0
M  V30 1225 H 118.7 -1.03251 -3.84167 0
M  V30 1226 H 115.439 -3.50168 -5.54132 0
M  V30 1227 H 114.959 -1.79864 -5.72197 0
M  V30 1228 H 116.638 -2.29471 -6.0494 0
M  V30 1229 N 116.77 1.45427 -0.607355 0
M  V30 1230 C 118.186 1.57283 -0.270985 0
M  V30 1231 C 118.386 1.59875 1.22647 0
M  V30 1232 O 117.442 1.52893 2.00948 0
M  V30 1233 C 118.755 2.85566 -0.941952 0
M  V30 1234 C 120.303 2.9924 -0.917849 0
M  V30 1235 C 120.778 4.30293 -1.56882 0
M  V30 1236 N 122.269 4.37051 -1.5343 0
M  V30 1237 C 123.004 5.37123 -2.00715 0
M  V30 1238 N 122.5 6.43734 -2.56084 0
M  V30 1239 N 124.293 5.28479 -1.91484 0
M  V30 1240 H 116.444 1.41988 -1.57966 0
M  V30 1241 H 118.707 0.67885 -0.661715 0
M  V30 1242 H 118.413 2.8955 -1.99633 0
M  V30 1243 H 118.287 3.74322 -0.465096 0
M  V30 1244 H 120.674 2.94822 0.127984 0
M  V30 1245 H 120.755 2.11895 -1.43297 0
M  V30 1246 H 120.399 4.35469 -2.61398 0
M  V30 1247 H 120.329 5.16454 -1.02873 0
M  V30 1248 H 122.82 3.60615 -1.12982 0
M  V30 1249 H 123.133 7.16341 -2.89958 0
M  V30 1250 H 121.478 6.44485 -2.60122 0
M  V30 1251 H 124.669 4.44098 -1.47967 0
M  V30 1252 H 124.842 6.0632 -2.28648 0
M  V30 1253 N 118.248 0.346503 1.53744 0
M  V30 1254 C 119.478 -0.250047 2.05081 0
M  V30 1255 C 119.886 -1.44529 1.22098 0
M  V30 1256 O 119.229 -1.81992 0.249917 0
M  V30 1257 C 119.291 -0.725934 3.52094 0
M  V30 1258 C 118.955 0.350053 4.55657 0
M  V30 1259 C 119.952 1.19372 5.0601 0
M  V30 1260 C 117.637 0.504827 4.99757 0
M  V30 1261 C 119.631 2.17768 5.99046 0
M  V30 1262 C 117.318 1.49218 5.92602 0
M  V30 1263 C 118.316 2.32706 6.42135 0
M  V30 1264 O 118.004 3.2976 7.33153 0
M  V30 1265 H 117.736 -0.0515469 0.674032 0
M  V30 1266 H 120.29 0.497559 1.99282 0
M  V30 1267 H 118.52 -1.52483 3.55367 0
M  V30 1268 H 120.209 -1.24336 3.86388 0
M  V30 1269 H 120.975 1.08525 4.72702 0
M  V30 1270 H 116.854 -0.135178 4.60802 0
M  V30 1271 H 120.398 2.82971 6.37631 0
M  V30 1272 H 116.295 1.6012 6.25325 0
M  V30 1273 H 117.063 3.25265 7.51096 0
M  V30 1274 N 119.726 -1.57421 0.075193 0
M  V30 1275 C 120.973 -1.93618 -0.593146 0
M  V30 1276 C 121.301 -0.955484 -1.69413 0
M  V30 1277 O 120.556 0.0283251 -1.9568 0
M  V30 1278 C 120.855 -3.36428 -1.20626 0
M  V30 1279 C 120.521 -4.50307 -0.231078 0
M  V30 1280 C 119.183 -4.81186 0.0371936 0
M  V30 1281 C 121.535 -5.19374 0.435888 0
M  V30 1282 C 118.863 -5.78466 0.979461 0
M  V30 1283 C 121.215 -6.17665 1.3665 0
M  V30 1284 C 119.879 -6.46958 1.6432 0
M  V30 1285 H 119.149 -0.708499 -0.217047 0
M  V30 1286 H 121.796 -1.90937 0.146793 0
M  V30 1287 H 120.101 -3.35592 -2.02201 0
M  V30 1288 H 121.798 -3.61727 -1.73073 0
M  V30 1289 H 118.388 -4.26227 -0.450357 0
M  V30 1290 H 122.572 -4.95711 0.241748 0
M  V30 1291 H 117.828 -5.99487 1.20106 0
M  V30 1292 H 122.002 -6.70284 1.88924 0
M  V30 1293 H 119.629 -7.2215 2.37494 0
M  V30 1294 N 121.204 0.198386 -1.56346 0
M  V30 1295 C 122.615 0.763358 -1.70381 0
M  V30 1296 C 122.966 1.83995 -0.681203 0
M  V30 1297 O 122.091 2.15785 0.16305 0
M  V30 1298 C 122.686 1.39143 -3.08909 0
M  V30 1299 C 121.245 1.90352 -3.2472 0
M  V30 1300 C 120.392 0.772233 -2.6633 0
M  V30 1301 H 123.343 -0.0266377 -1.58678 0
M  V30 1302 H 123.364 2.26076 -3.06055 0
M  V30 1303 H 122.876 0.607638 -3.83314 0
M  V30 1304 H 120.977 2.71461 -2.55225 0
M  V30 1305 H 121.09 2.06757 -4.3219 0
M  V30 1306 H 119.454 1.18566 -2.2542 0
M  V30 1307 H 120.237 0.00073556 -3.433 0
M  V30 1308 N 122.682 1.50554 0.465978 0
M  V30 1309 C 123.91 1.65563 1.24083 0
M  V30 1310 C 124.325 0.341051 1.85694 0
M  V30 1311 O 123.682 -0.677543 1.69457 0
M  V30 1312 C 123.733 2.75051 2.34583 0
M  V30 1313 O 123.454 4.01413 1.75497 0
M  V30 1314 C 124.955 3.01078 3.25372 0
M  V30 1315 H 122.175 0.55638 0.375077 0
M  V30 1316 H 124.719 1.96807 0.555624 0
M  V30 1317 H 122.874 2.46486 2.9887 0
M  V30 1318 H 123.288 4.62002 2.48303 0
M  V30 1319 H 124.762 3.81339 3.99105 0
M  V30 1320 H 125.239 2.12349 3.84453 0
M  V30 1321 H 125.845 3.31194 2.66816 0
M  V30 1322 N 124.16 -0.719506 1.40217 0
M  V30 1323 C 125.092 -1.84428 1.36084 0
M  V30 1324 C 126.105 -1.60597 0.266913 0
M  V30 1325 O 127.294 -1.70544 0.526983 0
M  V30 1326 C 124.394 -3.20757 1.094 0
M  V30 1327 C 123.567 -3.71817 2.30372 0
M  V30 1328 C 122.626 -4.86748 1.99907 0
M  V30 1329 O 121.652 -4.99603 2.72737 0
M  V30 1330 N 122.854 -5.7226 0.974635 0
M  V30 1331 H 125.619 -1.88473 2.33019 0
M  V30 1332 H 123.18 -0.900885 1.3452 0
M  V30 1333 H 125.172 -3.95235 0.870116 0
M  V30 1334 H 123.742 -3.11884 0.211452 0
M  V30 1335 H 122.962 -2.88514 2.68614 0
M  V30 1336 H 124.25 -4.02666 3.11026 0
M  V30 1337 H 123.648 -5.6448 0.371368 0
M  V30 1338 H 122.205 -6.46739 0.810656 0
M  V30 1339 N 125.638 -1.25649 -0.95132 0
M  V30 1340 C 126.601 -1.06399 -2.03007 0
M  V30 1341 C 127.601 -0.0156794 -1.60792 0
M  V30 1342 O 128.791 -0.25817 -1.72276 0
M  V30 1343 C 125.923 -0.616184 -3.35285 0
M  V30 1344 H 127.116 -2.02164 -2.21517 0
M  V30 1345 H 124.669 -1.08103 -1.12887 0
M  V30 1346 H 125.404 0.343917 -3.22471 0
M  V30 1347 H 125.189 -1.37301 -3.67275 0
M  V30 1348 H 126.679 -0.503032 -4.14559 0
M  V30 1349 N 127.117 1.15442 -1.07289 0
M  V30 1350 C 128.047 2.22312 -0.714107 0
M  V30 1351 C 129.028 1.67467 0.298155 0
M  V30 1352 O 130.213 1.93445 0.171048 0
M  V30 1353 C 127.343 3.47124 -0.110448 0
M  V30 1354 C 126.297 4.14926 -1.04979 0
M  V30 1355 C 125.623 5.33807 -0.308924 0
M  V30 1356 C 126.923 4.64762 -2.38314 0
M  V30 1357 H 128.617 2.5258 -1.6076 0
M  V30 1358 H 126.163 1.21404 -0.77441 0
M  V30 1359 H 128.116 4.21124 0.152482 0
M  V30 1360 H 126.84 3.16187 0.81812 0
M  V30 1361 H 125.499 3.42866 -1.29764 0
M  V30 1362 H 125.147 4.99126 0.623084 0
M  V30 1363 H 124.847 5.80113 -0.935036 0
M  V30 1364 H 126.371 6.10576 -0.0537771 0
M  V30 1365 H 127.785 5.30292 -2.1786 0
M  V30 1366 H 126.182 5.21728 -2.96514 0
M  V30 1367 H 127.252 3.80434 -3.00663 0
M  V30 1368 N 128.595 0.856903 1.32268 0
M  V30 1369 C 129.543 0.291987 2.3076 0
M  V30 1370 C 130.537 -0.585857 1.58947 0
M  V30 1371 O 131.743 -0.47341 1.73663 0
M  V30 1372 H 128.118 0.075721 0.748178 0
M  V30 1373 H 130.089 1.13687 2.75895 0
M  V30 1374 C 128.838 -0.502869 3.44044 0
M  V30 1375 H 128.161 0.163328 3.99466 0
M  V30 1376 H 129.601 -0.863691 4.1511 0
M  V30 1377 C 128.06 -1.68898 2.91505 0
M  V30 1378 O 128.59 -2.78811 2.89184 0
M  V30 1379 N 126.796 -1.51679 2.47875 0
M  V30 1380 H 126.343 -0.622666 2.49961 0
M  V30 1381 H 126.301 -2.31184 2.13076 0
M  V30 1382 N 130.073 -1.45103 0.615059 0
M  V30 1383 C 131.32 -2.02183 0.113179 0
M  V30 1384 C 131.648 -1.48249 -1.25906 0
M  V30 1385 O 130.903 -0.650265 -1.84581 0
M  V30 1386 C 131.202 -3.57386 0.0318797 0
M  V30 1387 C 130.868 -4.30505 1.34077 0
M  V30 1388 C 129.53 -4.50197 1.69929 0
M  V30 1389 C 131.882 -4.72238 2.20546 0
M  V30 1390 C 129.21 -5.08881 2.91988 0
M  V30 1391 C 131.562 -5.32272 3.41861 0
M  V30 1392 C 130.226 -5.50187 3.77956 0
M  V30 1393 H 129.496 -0.739842 0.0414151 0
M  V30 1394 H 132.143 -1.74073 0.798168 0
M  V30 1395 H 130.448 -3.84817 -0.736409 0
M  V30 1396 H 132.145 -3.99264 -0.372712 0
M  V30 1397 H 128.735 -4.15496 1.05173 0
M  V30 1398 H 132.919 -4.56751 1.94146 0
M  V30 1399 H 128.175 -5.20939 3.2005 0
M  V30 1400 H 132.349 -5.63563 4.09109 0
M  V30 1401 H 129.976 -5.95427 4.72622 0
M  V30 1402 N 131.551 -0.354651 -1.53558 0
M  V30 1403 C 132.514 0.484566 -2.24019 0
M  V30 1404 C 133.514 1.01861 -1.24422 0
M  V30 1405 O 134.704 0.906097 -1.4878 0
M  V30 1406 C 131.836 1.67615 -2.96847 0
M  V30 1407 H 133.029 -0.131843 -2.9961 0
M  V30 1408 H 130.582 -0.106165 -1.55939 0
M  V30 1409 H 131.317 2.33095 -2.25471 0
M  V30 1410 H 131.102 1.30029 -3.69912 0
M  V30 1411 H 132.592 2.27114 -3.50441 0
M  V30 1412 N 133.029 1.57378 -0.0835403 0
M  V30 1413 C 134.276 1.9393 0.58287 0
M  V30 1414 C 134.604 0.964455 1.68904 0
M  V30 1415 O 133.859 -0.0179474 1.95692 0
M  V30 1416 C 134.158 3.37063 1.1884 0
M  V30 1417 C 133.824 4.50424 0.207194 0
M  V30 1418 C 132.486 4.81159 -0.0627115 0
M  V30 1419 C 134.838 5.19136 -0.463426 0
M  V30 1420 C 132.166 5.77939 -1.01012 0
M  V30 1421 C 134.518 6.16931 -1.39924 0
M  V30 1422 C 133.182 6.46078 -1.67749 0
M  V30 1423 H 132.452 0.70964 0.213287 0
M  V30 1424 H 135.099 1.90856 -0.156916 0
M  V30 1425 H 133.404 3.3666 2.00418 0
M  V30 1426 H 135.101 3.6264 1.71153 0
M  V30 1427 H 131.691 4.2646 0.427747 0
M  V30 1428 H 135.875 4.95576 -0.268034 0
M  V30 1429 H 131.131 5.98842 -1.23283 0
M  V30 1430 H 135.305 6.69273 -1.92476 0
M  V30 1431 H 132.932 7.2088 -2.41321 0
M  V30 1432 N 134.507 -0.190092 1.56449 0
M  V30 1433 C 135.454 -1.23557 1.94942 0
M  V30 1434 C 136.424 -1.44972 0.810696 0
M  V30 1435 O 137.609 -1.58023 1.06927 0
M  V30 1436 C 134.749 -2.57416 2.2985 0
M  V30 1437 C 133.862 -2.43537 3.5681 0
M  V30 1438 C 132.997 -3.70134 3.81017 0
M  V30 1439 C 132.036 -3.51109 5.01387 0
M  V30 1440 N 131.173 -4.6973 5.21822 0
M  V30 1441 H 136.013 -0.900304 2.84075 0
M  V30 1442 H 133.55 -0.43318 1.40577 0
M  V30 1443 H 135.508 -3.35409 2.48106 0
M  V30 1444 H 134.138 -2.88975 1.43852 0
M  V30 1445 H 133.19 -1.56816 3.46573 0
M  V30 1446 H 134.502 -2.25415 4.4496 0
M  V30 1447 H 133.656 -4.56566 3.9954 0
M  V30 1448 H 132.395 -3.91215 2.91207 0
M  V30 1449 H 131.4 -2.63063 4.82782 0
M  V30 1450 H 132.625 -3.31468 5.9271 0
M  V30 1451 H 130.571 -4.91065 4.34961 0
M  V30 1452 H 130.488 -4.54452 6.0416 0
M  V30 1453 H 131.756 -5.57499 5.44808 0
M  V30 1454 N 135.985 -1.50799 -0.457987 0
M  V30 1455 C 137.262 -1.52968 -1.21902 0
M  V30 1456 C 137.642 -0.281906 -2.09209 0
M  V30 1457 O 136.99 0.734076 -2.16388 0
M  V30 1458 C 137.2 -2.8326 -2.03875 0
M  V30 1459 C 138.548 -3.34425 -2.6162 0
M  V30 1460 O 139.572 -2.8467 -2.14106 0
M  V30 1461 O 138.431 -4.21188 -3.48228 0
M  V30 1462 H 135.525 -0.614129 -0.553873 0
M  V30 1463 H 138.071 -1.63098 -0.468739 0
M  V30 1464 H 136.843 -3.65543 -1.39621 0
M  V30 1465 H 136.466 -2.76195 -2.8601 0
M  V30 1466 N 137.463 0.71206 -1.40597 0
M  V30 1467 C 138.41 1.82613 -1.41142 0
M  V30 1468 C 139.38 1.63925 -0.267903 0
M  V30 1469 O 140.565 1.85009 -0.466495 0
M  V30 1470 C 137.705 3.20354 -1.28324 0
M  V30 1471 C 136.818 3.50589 -2.52411 0
M  V30 1472 C 135.953 4.77855 -2.32009 0
M  V30 1473 C 134.992 5.01005 -3.51654 0
M  V30 1474 N 134.129 6.19487 -3.30425 0
M  V30 1475 H 138.969 1.81482 -2.36365 0
M  V30 1476 H 136.506 0.886475 -1.17388 0
M  V30 1477 H 138.464 3.99899 -1.18899 0
M  V30 1478 H 137.094 3.20705 -0.367189 0
M  V30 1479 H 136.146 2.65573 -2.72351 0
M  V30 1480 H 137.458 3.63604 -3.41458 0
M  V30 1481 H 136.612 5.65424 -2.19956 0
M  V30 1482 H 135.351 4.67056 -1.40392 0
M  V30 1483 H 134.356 4.1189 -3.64179 0
M  V30 1484 H 135.581 5.13674 -4.44202 0
M  V30 1485 H 133.527 6.09932 -2.41494 0
M  V30 1486 H 133.444 6.33194 -4.13039 0
M  V30 1487 H 134.712 7.09834 -3.22113 0
M  V30 1488 N 138.941 1.26152 0.944643 0
M  V30 1489 C 140.171 1.14094 1.72239 0
M  V30 1490 C 140.579 -0.306931 1.86694 0
M  V30 1491 O 139.922 -1.22222 1.3714 0
M  V30 1492 C 139.984 1.73316 3.14963 0
M  V30 1493 C 139.648 3.2239 3.23904 0
M  V30 1494 C 140.645 4.19252 3.07447 0
M  V30 1495 C 138.33 3.62788 3.47405 0
M  V30 1496 C 140.324 5.54491 3.14353 0
M  V30 1497 C 138.011 4.98162 3.53947 0
M  V30 1498 C 139.009 5.93823 3.37436 0
M  V30 1499 O 138.697 7.26732 3.43679 0
M  V30 1500 H 138.429 0.398292 0.546205 0
M  V30 1501 H 140.983 1.67201 1.19301 0
M  V30 1502 H 139.213 1.14667 3.69308 0
M  V30 1503 H 140.902 1.56214 3.74636 0
M  V30 1504 H 141.668 3.8938 2.8915 0
M  V30 1505 H 137.547 2.88816 3.59313 0
M  V30 1506 H 141.091 6.29137 3.01384 0
M  V30 1507 H 136.988 5.27695 3.71763 0
M  V30 1508 H 137.756 7.3496 3.60245 0
M  V30 1509 N 140.419 -1.14872 1.07899 0
M  V30 1510 C 141.366 -2.19791 0.704319 0
M  V30 1511 C 142.336 -1.63238 -0.306987 0
M  V30 1512 O 143.521 -1.8983 -0.192171 0
M  V30 1513 C 140.661 -3.44911 0.114244 0
M  V30 1514 C 139.774 -4.15637 1.1777 0
M  V30 1515 C 138.909 -5.28324 0.552037 0
M  V30 1516 C 137.948 -5.90875 1.59789 0
M  V30 1517 N 137.085 -6.95022 0.994404 0
M  V30 1518 H 141.925 -2.5119 1.60336 0
M  V30 1519 H 139.462 -1.23356 0.801352 0
M  V30 1520 H 141.42 -4.16477 -0.245544 0
M  V30 1521 H 140.05 -3.14011 -0.74813 0
M  V30 1522 H 139.102 -3.42512 1.65499 0
M  V30 1523 H 140.414 -4.5823 1.97046 0
M  V30 1524 H 139.568 -6.06538 0.1402 0
M  V30 1525 H 138.307 -4.86939 -0.272431 0
M  V30 1526 H 137.312 -5.11369 2.01945 0
M  V30 1527 H 138.537 -6.34337 2.42474 0
M  V30 1528 H 136.483 -6.55722 0.190939 0
M  V30 1529 H 136.4 -7.36073 1.72432 0
M  V30 1530 H 137.668 -7.77123 0.608253 0
M  V30 1531 N 141.898 -0.863906 -1.31812 0
M  V30 1532 C 142.83 -0.272485 -2.27575 0
M  V30 1533 C 143.843 0.56104 -1.52827 0
M  V30 1534 O 145.032 0.384021 -1.7432 0
M  V30 1535 C 142.132 0.63283 -3.32939 0
M  V30 1536 C 141.305 -0.166902 -4.37081 0
M  V30 1537 C 140.364 0.665608 -5.21973 0
M  V30 1538 O 139.39 0.0958091 -5.69119 0
M  V30 1539 N 140.592 1.9787 -5.45736 0
M  V30 1540 H 143.357 -1.0954 -2.78964 0
M  V30 1541 H 140.918 -0.724791 -1.4477 0
M  V30 1542 H 142.91 1.19532 -3.86645 0
M  V30 1543 H 141.48 1.35642 -2.81638 0
M  V30 1544 H 140.7 -0.910838 -3.83533 0
M  V30 1545 H 141.988 -0.715874 -5.03739 0
M  V30 1546 H 141.386 2.46484 -5.09178 0
M  V30 1547 H 139.943 2.48911 -6.024 0
M  V30 1548 N 143.376 1.44774 -0.622745 0
M  V30 1549 C 144.625 2.01334 -0.121397 0
M  V30 1550 C 144.938 1.49505 1.26125 0
M  V30 1551 O 146.144 1.98139 1.85616 0
M  V30 1552 C 144.6 3.59516 -0.166298 0
M  V30 1553 C 144.208 4.20342 -1.54974 0
M  V30 1554 C 145.952 4.23582 0.279021 0
M  V30 1555 C 143.859 5.70721 -1.55021 0
M  V30 1556 H 142.789 0.752851 -0.0416172 0
M  V30 1557 H 145.44 1.66083 -0.780309 0
M  V30 1558 H 143.822 3.92027 0.559557 0
M  V30 1559 H 144.996 3.99381 -2.29851 0
M  V30 1560 H 143.311 3.68529 -1.93843 0
M  V30 1561 H 145.908 5.33868 0.298083 0
M  V30 1562 H 146.251 3.95327 1.30471 0
M  V30 1563 H 146.784 3.95843 -0.394063 0
M  V30 1564 H 143.523 6.03698 -2.55399 0
M  V30 1565 H 143.043 5.93829 -0.844245 0
M  V30 1566 H 144.722 6.34203 -1.28047 0
M  V30 1567 N 144.854 0.36279 1.53368 0
M  V30 1568 C 146.101 -0.227776 2.01215 0
M  V30 1569 C 146.429 -1.49003 1.25014 0
M  V30 1570 O 145.684 -1.92876 0.331236 0
M  V30 1571 C 145.983 -0.568417 3.52851 0
M  V30 1572 C 145.649 0.59918 4.46901 0
M  V30 1573 C 144.311 0.919559 4.72332 0
M  V30 1574 C 146.663 1.38156 5.02556 0
M  V30 1575 C 143.991 2.02434 5.5067 0
M  V30 1576 C 146.343 2.47674 5.821 0
M  V30 1577 C 145.007 2.8025 6.05819 0
M  V30 1578 H 144.277 -0.083349 0.736297 0
M  V30 1579 H 146.924 0.494677 1.85001 0
M  V30 1580 H 145.229 -1.37185 3.66998 0
M  V30 1581 H 146.926 -1.03756 3.87344 0
M  V30 1582 H 143.516 0.339437 4.27254 0
M  V30 1583 H 147.7 1.14729 4.82857 0
M  V30 1584 H 142.956 2.28075 5.67267 0
M  V30 1585 H 147.13 3.08716 6.24234 0
M  V30 1586 H 144.757 3.65979 6.66306 0
M  V30 1587 N 146.332 -1.57332 0.0918853 0
M  V30 1588 C 147.262 -2.16872 -0.865371 0
M  V30 1589 C 148.243 -1.10118 -1.29646 0
M  V30 1590 O 149.428 -1.38242 -1.36392 0
M  V30 1591 C 146.558 -2.74649 -2.12569 0
M  V30 1592 C 145.512 -3.86747 -1.83333 0
M  V30 1593 C 144.838 -4.31212 -3.16166 0
M  V30 1594 C 146.138 -5.10089 -1.1228 0
M  V30 1595 H 147.832 -2.97114 -0.369307 0
M  V30 1596 H 145.378 -1.42918 -0.176194 0
M  V30 1597 H 147.331 -3.14952 -2.7997 0
M  V30 1598 H 146.055 -1.91657 -2.64452 0
M  V30 1599 H 144.714 -3.46978 -1.18331 0
M  V30 1600 H 144.362 -3.45115 -3.6593 0
M  V30 1601 H 144.062 -5.06788 -2.97388 0
M  V30 1602 H 145.586 -4.74146 -3.84731 0
M  V30 1603 H 147 -5.47582 -1.69785 0
M  V30 1604 H 145.397 -5.91073 -1.03693 0
M  V30 1605 H 146.467 -4.84786 -0.105041 0
M  V30 1606 N 147.81 0.181792 -1.56548 0
M  V30 1607 C 149.058 0.89832 -1.81038 0
M  V30 1608 C 149.379 1.83232 -0.667164 0
M  V30 1609 O 148.649 1.93372 0.313673 0
M  V30 1610 H 147.229 0.33471 -0.667816 0
M  V30 1611 H 149.891 0.184116 -1.94028 0
M  V30 1612 H 148.987 1.4815 -2.74696 0
M  V30 1613 N 149.288 1.51039 0.449983 0
M  V30 1614 C 150.536 1.62759 1.19808 0
M  V30 1615 C 150.857 0.339981 1.92013 0
M  V30 1616 O 150.127 -0.643606 1.85026 0
M  V30 1617 H 148.707 0.599811 0.445237 0
M  V30 1618 H 151.369 1.87914 0.517138 0
M  V30 1619 H 150.465 2.44911 1.93455 0
M  V30 1620 N 150.766 -0.704594 1.40972 0
M  V30 1621 C 152.012 -1.46675 1.40051 0
M  V30 1622 C 152.345 -1.94199 0.00641102 0
M  V30 1623 O 151.62 -1.68916 -0.964235 0
M  V30 1624 C 151.903 -2.68505 2.39952 0
M  V30 1625 C 151.756 -2.26805 3.88432 0
M  V30 1626 C 153.075 -3.70686 2.37233 0
M  V30 1627 H 150.194 -0.532015 0.510028 0
M  V30 1628 H 152.836 -0.803255 1.72185 0
M  V30 1629 H 150.986 -3.25114 2.1268 0
M  V30 1630 H 152.658 -1.75592 4.26574 0
M  V30 1631 H 150.901 -1.58685 4.03734 0
M  V30 1632 H 151.572 -3.14181 4.53866 0
M  V30 1633 H 154.048 -3.23731 2.61415 0
M  V30 1634 H 152.924 -4.53553 3.09162 0
M  V30 1635 H 153.185 -4.19754 1.38777 0
M  V30 1636 N 152.244 -1.26651 -0.937939 0
M  V30 1637 C 153.521 -1.0313 -1.66204 0
M  V30 1638 C 153.901 0.437256 -2.06522 0
M  V30 1639 O 153.249 1.41831 -1.79154 0
M  V30 1640 C 153.459 -1.98314 -2.87181 0
M  V30 1641 C 154.807 -2.27107 -3.58758 0
M  V30 1642 O 155.831 -1.96205 -2.97291 0
M  V30 1643 O 154.69 -2.79736 -4.69479 0
M  V30 1644 H 151.784 -0.392384 -0.727986 0
M  V30 1645 H 154.33 -1.37874 -0.989382 0
M  V30 1646 H 153.102 -2.97399 -2.54302 0
M  V30 1647 H 152.725 -1.64068 -3.6217 0
M  V30 1648 N 153.722 1.14298 -1.08507 0
M  V30 1649 C 154.669 2.19414 -0.715965 0
M  V30 1650 C 155.639 1.63399 0.298326 0
M  V30 1651 O 156.824 1.89929 0.182101 0
M  V30 1652 C 153.964 3.44845 -0.132534 0
M  V30 1653 C 153.077 4.15007 -1.19973 0
M  V30 1654 C 152.212 5.28024 -0.580048 0
M  V30 1655 C 151.251 5.9002 -1.62921 0
M  V30 1656 N 150.388 6.94485 -1.03125 0
M  V30 1657 H 155.228 2.50336 -1.61666 0
M  V30 1658 H 152.765 1.2293 -0.807882 0
M  V30 1659 H 154.723 4.16601 0.223454 0
M  V30 1660 H 153.353 3.14403 0.731467 0
M  V30 1661 H 152.405 3.41629 -1.67313 0
M  V30 1662 H 153.717 4.57178 -1.99473 0
M  V30 1663 H 152.871 6.06455 -0.172364 0
M  V30 1664 H 151.61 4.87076 0.246603 0
M  V30 1665 H 150.615 5.10291 -2.04654 0
M  V30 1666 H 151.84 6.33042 -2.45835 0
M  V30 1667 H 149.786 6.55612 -0.225711 0
M  V30 1668 H 149.703 7.35148 -1.76334 0
M  V30 1669 H 150.971 7.7679 -0.649458 0
M  V30 1670 N 155.201 0.870884 1.31352 0
M  V30 1671 C 156.617 0.562932 1.49343 0
M  V30 1672 C 156.817 -0.902725 1.80148 0
M  V30 1673 O 155.873 -1.68484 1.88067 0
M  V30 1674 C 157.186 1.46393 2.62659 0
M  V30 1675 C 158.734 1.46607 2.76542 0
M  V30 1676 C 159.209 2.35266 3.92955 0
M  V30 1677 N 160.7 2.33151 4.00243 0
M  V30 1678 C 161.435 2.98471 4.89594 0
M  V30 1679 N 160.931 3.72964 5.8384 0
M  V30 1680 N 162.724 2.87775 4.82848 0
M  V30 1681 H 154.875 1.81923 1.09626 0
M  V30 1682 H 157.138 0.777934 0.541777 0
M  V30 1683 H 156.844 2.50689 2.46674 0
M  V30 1684 H 156.718 1.16314 3.58819 0
M  V30 1685 H 159.105 0.43069 2.9194 0
M  V30 1686 H 159.186 1.8071 1.81046 0
M  V30 1687 H 158.83 3.38881 3.78315 0
M  V30 1688 H 158.76 1.98487 4.87761 0
M  V30 1689 H 161.251 1.79006 3.32814 0
M  V30 1690 H 161.564 4.19932 6.4875 0
M  V30 1691 H 159.909 3.77073 5.83816 0
M  V30 1692 H 163.1 2.29116 4.08195 0
M  V30 1693 H 163.273 3.38961 5.52277 0
M  V30 1694 N 156.679 -1.44442 0.630414 0
M  V30 1695 C 157.907 -2.06414 0.141671 0
M  V30 1696 C 158.322 -1.47105 -1.18345 0
M  V30 1697 O 157.679 -0.593662 -1.72574 0
M  V30 1698 C 157.73 -3.61494 0.0199784 0
M  V30 1699 O 157.451 -4.18594 1.29269 0
M  V30 1700 C 158.952 -4.40499 -0.497544 0
M  V30 1701 H 156.172 -0.666292 0.0793452 0
M  V30 1702 H 158.716 -1.85323 0.864614 0
M  V30 1703 H 156.871 -3.8185 -0.653402 0
M  V30 1704 H 157.285 -5.12026 1.13707 0
M  V30 1705 H 158.759 -5.49433 -0.531708 0
M  V30 1706 H 159.236 -4.11895 -1.52445 0
M  V30 1707 H 159.842 -4.25061 0.142562 0
M  V30 1708 N 158.157 -0.370918 -1.53173 0
M  V30 1709 C 159.089 0.507823 -2.23503 0
M  V30 1710 C 160.102 1.04182 -1.251 0
M  V30 1711 O 161.291 0.947286 -1.5129 0
M  V30 1712 C 158.391 1.71447 -2.92334 0
M  V30 1713 C 157.564 1.31105 -4.17289 0
M  V30 1714 C 156.623 2.38035 -4.69282 0
M  V30 1715 O 155.649 2.00204 -5.32829 0
M  V30 1716 N 156.851 3.69697 -4.47554 0
M  V30 1717 H 159.616 -0.0946382 -2.99551 0
M  V30 1718 H 157.177 -0.196358 -1.60705 0
M  V30 1719 H 159.169 2.42469 -3.24023 0
M  V30 1720 H 157.739 2.22368 -2.19707 0
M  V30 1721 H 156.959 0.430462 -3.91843 0
M  V30 1722 H 158.247 1.0179 -4.98514 0
M  V30 1723 H 157.645 4.03205 -3.9679 0
M  V30 1724 H 156.202 4.36807 -4.8378 0
M  V30 1725 N 159.635 1.57281 -0.100228 0
M  V30 1726 C 160.882 1.94537 0.562268 0
M  V30 1727 C 161.21 0.982315 1.67871 0
M  V30 1728 O 160.465 0.00280936 1.957 0
M  V30 1729 C 160.764 3.38305 1.15259 0
M  V30 1730 C 160.43 4.50618 0.159409 0
M  V30 1731 C 159.092 4.81066 -0.113741 0
M  V30 1732 C 161.444 5.18615 -0.518461 0
M  V30 1733 C 158.772 5.76835 -1.07137 0
M  V30 1734 C 161.124 6.15412 -1.46459 0
M  V30 1735 C 159.788 6.44262 -1.74592 0
M  V30 1736 H 159.058 0.711863 0.205748 0
M  V30 1737 H 161.705 1.90679 -0.17715 0
M  V30 1738 H 160.01 3.38766 1.96836 0
M  V30 1739 H 161.707 3.64435 1.67297 0
M  V30 1740 H 158.297 4.2689 0.382491 0
M  V30 1741 H 162.481 4.95264 -0.320581 0
M  V30 1742 H 157.737 5.975 -1.29628 0
M  V30 1743 H 161.911 6.67194 -1.99564 0
M  V30 1744 H 159.538 7.1828 -2.48953 0
M  V30 1745 N 161.113 -0.173488 1.56642 0
M  V30 1746 C 162.359 -0.887108 1.83035 0
M  V30 1747 C 162.714 -1.79965 0.680461 0
M  V30 1748 O 162.007 -1.88854 -0.323225 0
M  V30 1749 C 162.201 -1.72069 3.13252 0
M  V30 1750 C 162.03 -0.89035 4.40798 0
M  V30 1751 C 160.8 -0.566282 5.02117 0
M  V30 1752 C 162.998 -0.232921 5.13772 0
M  V30 1753 N 160.98 0.280427 6.13259 0
M  V30 1754 C 162.351 0.475046 6.18177 0
M  V30 1755 C 164.406 -0.150863 4.97671 0
M  V30 1756 C 163.109 1.25729 7.08227 0
M  V30 1757 C 165.135 0.618039 5.88162 0
M  V30 1758 C 164.497 1.31438 6.92029 0
M  V30 1759 H 160.596 -0.303303 0.720785 0
M  V30 1760 H 163.18 -0.154244 1.94088 0
M  V30 1761 H 161.351 -2.42499 3.03395 0
M  V30 1762 H 163.083 -2.37545 3.2765 0
M  V30 1763 H 159.838 -0.895852 4.6505 0
M  V30 1764 H 160.262 0.694027 6.73433 0
M  V30 1765 H 164.904 -0.674868 4.17379 0
M  V30 1766 H 162.622 1.79265 7.87966 0
M  V30 1767 H 166.208 0.683173 5.77775 0
M  V30 1768 H 165.088 1.89981 7.6084 0
M  V30 1769 N 162.591 -1.51276 -0.441967 0
M  V30 1770 C 163.521 -1.752 -1.54361 0
M  V30 1771 C 164.502 -0.601682 -1.59103 0
M  V30 1772 O 165.687 -0.843913 -1.74905 0
M  V30 1773 C 162.817 -1.87282 -2.92477 0
M  V30 1774 C 161.771 -3.02687 -3.02596 0
M  V30 1775 C 161.097 -2.99947 -4.42647 0
M  V30 1776 C 162.397 -4.4273 -2.77106 0
M  V30 1777 H 164.091 -2.67442 -1.34592 0
M  V30 1778 H 161.637 -1.28694 -0.646048 0
M  V30 1779 H 163.59 -2.02602 -3.695 0
M  V30 1780 H 162.314 -0.916844 -3.13467 0
M  V30 1781 H 160.973 -2.87065 -2.28012 0
M  V30 1782 H 160.621 -2.02136 -4.60597 0
M  V30 1783 H 160.321 -3.77439 -4.50348 0
M  V30 1784 H 161.845 -3.17354 -5.2165 0
M  V30 1785 H 163.259 -4.58727 -3.43864 0
M  V30 1786 H 161.656 -5.21893 -2.96222 0
M  V30 1787 H 162.726 -4.53087 -1.72744 0
M  V30 1788 N 164.069 0.697108 -1.41344 0
M  V30 1789 C 165.299 1.48377 -1.43763 0
M  V30 1790 C 165.707 1.89156 -0.0408726 0
M  V30 1791 O 165.05 1.57239 0.949812 0
M  V30 1792 C 165.112 2.7781 -2.2817 0
M  V30 1793 C 164.776 2.59244 -3.76353 0
M  V30 1794 C 165.773 2.25292 -4.68551 0
M  V30 1795 C 163.458 2.74933 -4.20378 0
M  V30 1796 C 165.452 2.07264 -6.02761 0
M  V30 1797 C 163.139 2.56521 -5.54653 0
M  V30 1798 C 164.137 2.22737 -6.4566 0
M  V30 1799 O 163.825 2.04485 -7.77458 0
M  V30 1800 H 163.557 0.463842 -0.491759 0
M  V30 1801 H 166.111 0.865934 -1.86255 0
M  V30 1802 H 164.341 3.41995 -1.8049 0
M  V30 1803 H 166.03 3.39608 -2.22309 0
M  V30 1804 H 166.796 2.12787 -4.35829 0
M  V30 1805 H 162.675 3.00213 -3.49848 0
M  V30 1806 H 166.219 1.80817 -6.73759 0
M  V30 1807 H 162.116 2.68616 -5.86955 0
M  V30 1808 H 162.884 2.1926 -7.88586 0
M  V30 1809 N 165.547 1.27147 0.931209 0
M  V30 1810 C 166.794 1.13278 1.67852 0
M  V30 1811 C 167.122 -0.32204 1.91815 0
M  V30 1812 O 166.377 -1.25224 1.50391 0
M  V30 1813 C 166.676 1.8579 3.05314 0
M  V30 1814 C 166.342 3.35657 3.01073 0
M  V30 1815 C 165.004 3.76536 2.99623 0
M  V30 1816 C 167.356 4.31299 2.92627 0
M  V30 1817 C 164.684 5.11426 2.87506 0
M  V30 1818 C 167.036 5.66242 2.82051 0
M  V30 1819 C 165.7 6.06418 2.7895 0
M  V30 1820 H 164.97 0.414515 0.614214 0
M  V30 1821 H 167.617 1.57712 1.08624 0
M  V30 1822 H 165.922 1.33854 3.68226 0
M  V30 1823 H 167.619 1.72491 3.62005 0
M  V30 1824 H 164.209 3.03146 3.02986 0
M  V30 1825 H 168.393 4.00692 2.92848 0
M  V30 1826 H 163.649 5.41705 2.83489 0
M  V30 1827 H 167.823 6.40026 2.74481 0
M  V30 1828 H 165.45 7.10895 2.69318 0
M  V30 1829 N 167.025 -1.13721 1.09112 0
M  V30 1830 C 167.988 -2.17222 0.731241 0
M  V30 1831 C 168.988 -1.59035 -0.237566 0
M  V30 1832 O 170.178 -1.74192 -0.0161704 0
M  V30 1833 C 167.31 -3.40804 0.0808443 0
M  V30 1834 H 168.503 -2.50573 1.64783 0
M  V30 1835 H 166.056 -1.28493 0.889897 0
M  V30 1836 H 166.791 -3.1304 -0.847127 0
M  V30 1837 H 166.576 -3.84306 0.777896 0
M  V30 1838 H 168.066 -4.1731 -0.155657 0
M  V30 1839 N 168.503 -0.877838 -1.30888 0
M  V30 1840 C 169.751 -0.491723 -1.96027 0
M  V30 1841 C 170.072 0.960827 -1.69685 0
M  V30 1842 O 169.342 1.67462 -1.01654 0
M  V30 1843 H 167.922 -0.17885 -0.725273 0
M  V30 1844 H 170.584 -1.11935 -1.59551 0
M  V30 1845 H 169.68 -0.656016 -3.05128 0
M  V30 1846 N 169.982 1.44106 -0.638065 0
M  V30 1847 C 170.93 2.3248 0.0748149 0
M  V30 1848 C 171.924 1.47746 0.828702 0
M  V30 1849 O 173.13 1.64049 0.740816 0
M  V30 1850 H 169.505 0.750771 0.0429686 0
M  V30 1851 H 171.476 2.90348 -0.688504 0
M  V30 1852 C 170.225 3.31843 1.03805 0
M  V30 1853 H 169.548 3.97059 0.467375 0
M  V30 1854 H 170.988 3.96345 1.50622 0
M  V30 1855 C 169.447 2.61291 2.1267 0
M  V30 1856 O 169.977 2.41702 3.20847 0
M  V30 1857 N 168.183 2.20915 1.88798 0
M  V30 1858 H 167.73 2.37047 1.00829 0
M  V30 1859 H 167.688 1.74038 2.61836 0
M  V30 1860 N 171.46 0.379036 1.52974 0
M  V30 1861 C 172.39 -0.452706 2.29069 0
M  V30 1862 C 173.371 -1.07237 1.32039 0
M  V30 1863 O 174.556 -1.08708 1.60923 0
M  V30 1864 C 171.686 -1.5856 3.08992 0
M  V30 1865 C 170.64 -1.0925 4.13822 0
M  V30 1866 C 169.966 -2.31668 4.81907 0
M  V30 1867 C 171.266 -0.167702 5.22031 0
M  V30 1868 H 172.96 0.182181 2.98845 0
M  V30 1869 H 170.506 0.0890592 1.43724 0
M  V30 1870 H 172.459 -2.1742 3.6098 0
M  V30 1871 H 171.183 -2.24792 2.36931 0
M  V30 1872 H 169.842 -0.526494 3.628 0
M  V30 1873 H 169.49 -2.96386 4.06404 0
M  V30 1874 H 169.19 -1.9934 5.52754 0
M  V30 1875 H 170.714 -2.91189 5.36695 0
M  V30 1876 H 172.128 -0.664186 5.6944 0
M  V30 1877 H 170.525 0.0653265 6.00064 0
M  V30 1878 H 171.595 0.786347 4.78482 0
M  V30 1879 N 172.938 -1.57226 0.108567 0
M  V30 1880 C 173.901 -2.13602 -0.831082 0
M  V30 1881 C 174.901 -1.06841 -1.20173 0
M  V30 1882 O 176.091 -1.32666 -1.12895 0
M  V30 1883 C 173.223 -2.66769 -2.12243 0
M  V30 1884 H 174.416 -2.97951 -0.341317 0
M  V30 1885 H 171.969 -1.55667 -0.14057 0
M  V30 1886 H 172.704 -1.85977 -2.65675 0
M  V30 1887 H 172.489 -3.44839 -1.86625 0
M  V30 1888 H 173.979 -3.10332 -2.79435 0
M  V30 1889 N 174.416 0.165178 -1.56732 0
M  V30 1890 C 175.641 0.900253 -1.86843 0
M  V30 1891 C 176.066 1.74766 -0.695596 0
M  V30 1892 O 175.424 1.77786 0.35522 0
M  V30 1893 C 175.472 1.74777 -3.15413 0
M  V30 1894 O 174.576 2.85007 -2.98068 0
M  V30 1895 H 173.917 0.251832 -0.614391 0
M  V30 1896 H 176.447 0.161468 -2.03962 0
M  V30 1897 H 176.457 2.14646 -3.46974 0
M  V30 1898 H 175.132 1.12537 -4.00385 0
M  V30 1899 H 173.709 2.48676 -2.77875 0
M  V30 1900 N 175.894 1.51508 0.433938 0
M  V30 1901 C 177.142 1.6402 1.18075 0
M  V30 1902 C 177.463 0.360328 1.91642 0
M  V30 1903 O 176.733 -0.623945 1.85698 0
M  V30 1904 H 175.313 0.6045 0.43885 0
M  V30 1905 H 177.975 1.88452 0.497178 0
M  V30 1906 H 177.071 2.46949 1.90847 0
M  V30 1907 N 177.372 -0.689602 1.41712 0
M  V30 1908 C 178.62 -1.4468 1.4111 0
M  V30 1909 C 178.941 -1.94986 0.0232196 0
M  V30 1910 O 178.211 -1.72097 -0.935913 0
M  V30 1911 H 176.791 -0.536847 0.519427 0
M  V30 1912 H 179.453 -0.815825 1.77004 0
M  V30 1913 H 178.549 -2.30706 2.10193 0
M  V30 1914 N 178.85 -1.27639 -0.924453 0
M  V30 1915 C 179.813 -1.10681 -2.00705 0
M  V30 1916 C 180.813 -0.0497823 -1.60723 0
M  V30 1917 O 182.003 -0.294654 -1.7169 0
M  V30 1918 C 179.135 -0.687164 -3.33902 0
M  V30 1919 H 180.328 -2.06817 -2.17179 0
M  V30 1920 H 177.881 -1.10473 -1.10569 0
M  V30 1921 H 178.616 0.275439 -3.23128 0
M  V30 1922 H 178.401 -1.45061 -3.6428 0
M  V30 1923 H 179.891 -0.590853 -4.13399 0
M  V30 1924 N 180.328 1.1314 -1.09713 0
M  V30 1925 C 181.291 2.16831 -0.742751 0
M  V30 1926 C 182.291 1.59159 0.229129 0
M  V30 1927 O 183.481 1.74199 0.00693237 0
M  V30 1928 C 180.613 3.40756 -0.0989168 0
M  V30 1929 H 181.806 2.49695 -1.66109 0
M  V30 1930 H 179.359 1.2802 -0.896699 0
M  V30 1931 H 180.094 3.13485 0.830514 0
M  V30 1932 H 179.879 3.83888 -0.798265 0
M  V30 1933 H 181.369 4.17386 0.133524 0
M  V30 1934 N 181.806 0.884767 1.30421 0
M  V30 1935 C 183.054 0.502112 1.95763 0
M  V30 1936 C 183.375 -0.951815 1.70192 0
M  V30 1937 O 182.645 -1.6692 1.0254 0
M  V30 1938 H 181.225 0.182694 0.724315 0
M  V30 1939 H 183.887 1.1278 1.58955 0
M  V30 1940 H 182.983 0.672188 3.04775 0
M  V30 1941 N 183.284 -1.43765 0.645699 0
M  V30 1942 C 184.247 -2.29163 -0.0409488 0
M  V30 1943 C 185.247 -1.41813 -0.757996 0
M  V30 1944 O 186.437 -1.63527 -0.600382 0
M  V30 1945 C 183.569 -3.23716 -1.06869 0
M  V30 1946 H 184.762 -2.91366 0.710345 0
M  V30 1947 H 182.315 -1.5092 0.406547 0
M  V30 1948 H 183.05 -2.66393 -1.84947 0
M  V30 1949 H 182.835 -3.88105 -0.558277 0
M  V30 1950 H 184.325 -3.87831 -1.54845 0
M  V30 1951 N 184.763 -0.387143 -1.52771 0
M  V30 1952 C 185.991 0.195869 -2.05971 0
M  V30 1953 C 186.406 1.40691 -1.25903 0
M  V30 1954 O 185.763 1.79931 -0.305134 0
M  V30 1955 C 185.814 0.56812 -3.57008 0
M  V30 1956 O 185.535 -0.594803 -4.34043 0
M  V30 1957 C 187.036 1.20723 -4.26545 0
M  V30 1958 H 184.256 0.0300578 -0.670326 0
M  V30 1959 H 186.8 -0.551749 -1.96916 0
M  V30 1960 H 184.955 1.26564 -3.66143 0
M  V30 1961 H 185.369 -0.289322 -5.23701 0
M  V30 1962 H 186.843 1.41807 -5.33474 0
M  V30 1963 H 187.32 2.17395 -3.81623 0
M  V30 1964 H 187.926 0.550535 -4.21722 0
M  V30 1965 N 186.241 1.57166 -0.116904 0
M  V30 1966 C 187.466 1.999 0.55271 0
M  V30 1967 C 187.891 0.996039 1.59564 0
M  V30 1968 O 187.249 -0.032556 1.81271 0
M  V30 1969 C 187.297 3.4152 1.15742 0
M  V30 1970 O 186.401 3.44106 2.27299 0
M  V30 1971 H 185.742 0.649447 0.138258 0
M  V30 1972 H 188.272 2.03573 -0.204759 0
M  V30 1973 H 188.282 3.79684 1.49346 0
M  V30 1974 H 186.957 4.14034 0.393493 0
M  V30 1975 H 185.534 3.17759 1.9515 0
M  V30 1976 N 187.719 -0.156864 1.56817 0
M  V30 1977 C 188.649 -1.19589 2.00551 0
M  V30 1978 C 189.63 -1.4536 0.883426 0
M  V30 1979 O 190.815 -1.56449 1.15054 0
M  V30 1980 C 187.945 -2.53143 2.37773 0
M  V30 1981 C 186.899 -2.41913 3.53075 0
M  V30 1982 C 186.225 -3.80088 3.76081 0
M  V30 1983 C 187.525 -1.91157 4.86062 0
M  V30 1984 H 189.219 -0.832293 2.87599 0
M  V30 1985 H 186.765 -0.398918 1.38364 0
M  V30 1986 H 188.718 -3.26047 2.66967 0
M  V30 1987 H 187.442 -2.91319 1.4765 0
M  V30 1988 H 186.101 -1.71462 3.24031 0
M  V30 1989 H 185.749 -4.15683 2.83225 0
M  V30 1990 H 185.449 -3.73439 4.53671 0
M  V30 1991 H 186.973 -4.54556 4.0769 0
M  V30 1992 H 188.387 -2.53846 5.14038 0
M  V30 1993 H 186.784 -1.95422 5.67389 0
M  V30 1994 H 187.854 -0.866673 4.77092 0
M  V30 1995 N 189.197 -1.51736 -0.425897 0
M  V30 1996 C 190.437 -1.66636 -1.18371 0
M  V30 1997 C 190.801 -0.379854 -1.88205 0
M  V30 1998 O 192.002 -0.404758 -2.65735 0
M  V30 1999 C 190.273 -2.84382 -2.16476 0
M  V30 2000 S 191.832 -3.19673 -3.0059 0
M  V30 2001 H 188.65 -0.586957 -0.40125 0
M  V30 2002 H 191.252 -1.89679 -0.473518 0
M  V30 2003 H 189.956 -3.76281 -1.63831 0
M  V30 2004 H 189.487 -2.63562 -2.92059 0
M  V30 2005 H 191.502 -2.66994 -4.18245 0
M  V30 2006 N 190.675 0.682077 -1.42076 0
M  V30 2007 C 191.922 1.44215 -1.42156 0
M  V30 2008 C 192.25 1.94468 -0.0354186 0
M  V30 2009 O 191.505 1.70816 0.955002 0
M  V30 2010 C 191.804 2.66036 -2.38662 0
M  V30 2011 C 191.47 2.34366 -3.85206 0
M  V30 2012 C 190.132 2.25439 -4.25124 0
M  V30 2013 C 192.484 2.08513 -4.77673 0
M  V30 2014 C 189.812 1.88775 -5.55501 0
M  V30 2015 C 192.164 1.73354 -6.08384 0
M  V30 2016 C 190.828 1.62933 -6.47309 0
M  V30 2017 H 190.098 0.527718 -0.520187 0
M  V30 2018 H 192.745 0.778387 -1.74967 0
M  V30 2019 H 191.05 3.3741 -1.99152 0
M  V30 2020 H 192.747 3.24205 -2.35991 0
M  V30 2021 H 189.337 2.42213 -3.53597 0
M  V30 2022 H 193.521 2.14346 -4.47626 0
M  V30 2023 H 188.777 1.7927 -5.84527 0
M  V30 2024 H 192.951 1.52373 -6.79526 0
M  V30 2025 H 190.578 1.34292 -7.48244 0
M  V30 2026 N 192.153 1.28127 0.917671 0
M  V30 2027 C 193.399 1.15223 1.66888 0
M  V30 2028 C 193.732 -0.299293 1.9188 0
M  V30 2029 O 193.007 -1.21805 1.51637 0
M  V30 2030 C 193.29 1.94706 3.02922 0
M  V30 2031 C 193.143 3.47898 2.85109 0
M  V30 2032 C 194.462 1.75939 4.03402 0
M  V30 2033 H 191.581 0.419946 0.605652 0
M  V30 2034 H 194.223 1.57398 1.06423 0
M  V30 2035 H 192.373 1.58864 3.54534 0
M  V30 2036 H 194.045 3.93624 2.40537 0
M  V30 2037 H 192.288 3.7373 2.20246 0
M  V30 2038 H 192.959 3.98765 3.81694 0
M  V30 2039 H 195.435 2.07209 3.60837 0
M  V30 2040 H 194.311 2.33931 4.96556 0
M  V30 2041 H 194.572 0.709877 4.36364 0
M  V30 2042 N 193.631 -1.12557 1.10312 0
M  V30 2043 C 194.861 -1.87592 0.865617 0
M  V30 2044 C 195.269 -1.79851 -0.587389 0
M  V30 2045 O 194.612 -1.16949 -1.41664 0
M  V30 2046 C 194.674 -3.37665 1.23381 0
M  V30 2047 C 194.338 -3.69181 2.69359 0
M  V30 2048 C 195.335 -3.67652 3.67597 0
M  V30 2049 C 193.02 -3.98555 3.05711 0
M  V30 2050 C 195.014 -3.95053 5.00212 0
M  V30 2051 C 192.701 -4.25616 4.38514 0
M  V30 2052 C 193.699 -4.23851 5.35574 0
M  V30 2053 O 193.387 -4.50242 6.65986 0
M  V30 2054 H 193.119 -0.600442 0.310557 0
M  V30 2055 H 195.673 -1.4335 1.47105 0
M  V30 2056 H 193.903 -3.82454 0.571467 0
M  V30 2057 H 195.592 -3.94041 0.973994 0
M  V30 2058 H 196.358 -3.45024 3.40857 0
M  V30 2059 H 192.237 -3.99071 2.30789 0
M  V30 2060 H 195.781 -3.93591 5.75962 0
M  V30 2061 H 191.678 -4.47718 4.64994 0
M  V30 2062 H 192.446 -4.67867 6.71597 0
M  V30 2063 N 195.109 -0.891671 -1.2995 0
M  V30 2064 C 196.52 -0.563104 -1.78006 0
M  V30 2065 C 196.871 0.920978 -1.73241 0
M  V30 2066 O 195.996 1.71987 -1.31337 0
M  V30 2067 C 196.591 -1.01539 -3.23226 0
M  V30 2068 C 195.15 -0.738124 -3.69092 0
M  V30 2069 C 194.297 -1.19461 -2.50249 0
M  V30 2070 H 197.248 -1.07522 -1.16725 0
M  V30 2071 H 197.269 -0.347217 -3.78912 0
M  V30 2072 H 196.781 -2.09555 -3.26662 0
M  V30 2073 H 194.882 0.329766 -3.71138 0
M  V30 2074 H 194.995 -1.33037 -4.60259 0
M  V30 2075 H 193.359 -0.613787 -2.47194 0
M  V30 2076 H 194.142 -2.28265 -2.56417 0
M  V30 2077 N 196.587 1.43421 -0.653314 0
M  V30 2078 C 197.517 2.33487 0.0246656 0
M  V30 2079 C 198.498 1.49475 0.811863 0
M  V30 2080 O 199.683 1.78139 0.773322 0
M  V30 2081 C 196.813 3.32841 0.99166 0
M  V30 2082 C 195.767 4.26842 0.314568 0
M  V30 2083 C 195.093 5.16236 1.39302 0
M  V30 2084 C 196.393 5.16243 -0.793095 0
M  V30 2085 H 198.087 2.90427 -0.727481 0
M  V30 2086 H 195.633 1.39649 -0.351287 0
M  V30 2087 H 197.586 3.94747 1.47487 0
M  V30 2088 H 196.31 2.74158 1.77497 0
M  V30 2089 H 194.969 3.663 -0.148199 0
M  V30 2090 H 194.617 4.53891 2.16776 0
M  V30 2091 H 194.317 5.79948 0.945223 0
M  V30 2092 H 195.841 5.81015 1.87759 0
M  V30 2093 H 197.255 5.71958 -0.392039 0
M  V30 2094 H 195.652 5.88676 -1.16536 0
M  V30 2095 H 196.722 4.55927 -1.65103 0
M  V30 2096 N 198.065 0.39524 1.52563 0
M  V30 2097 C 199.342 -0.242908 1.94086 0
M  V30 2098 C 199.722 -1.63841 1.33114 0
M  V30 2099 O 199.07 -2.22928 0.501529 0
M  V30 2100 C 199.28 -0.26327 3.48006 0
M  V30 2101 C 200.628 -0.489354 4.21771 0
M  V30 2102 O 201.652 -0.343226 3.54543 0
M  V30 2103 O 200.511 -0.776169 5.4096 0
M  V30 2104 H 197.605 -0.152536 0.812811 0
M  V30 2105 H 200.151 0.450178 1.6362 0
M  V30 2106 H 198.923 0.713985 3.84731 0
M  V30 2107 H 198.546 -1.00103 3.84792 0
M  V30 2108 N 199.544 -1.57102 0.125237 0
M  V30 2109 C 200.791 -1.95407 -0.531248 0
M  V30 2110 C 201.119 -1.0089 -1.66287 0
M  V30 2111 O 200.374 -0.0339431 -1.95671 0
M  V30 2112 C 200.673 -3.40096 -1.09862 0
M  V30 2113 C 200.339 -4.50815 -0.0876989 0
M  V30 2114 C 199.001 -4.80824 0.19026 0
M  V30 2115 C 201.353 -5.17724 0.600902 0
M  V30 2116 C 198.681 -5.75058 1.163 0
M  V30 2117 C 201.033 -6.13005 1.56231 0
M  V30 2118 C 199.697 -6.41403 1.8482 0
M  V30 2119 H 198.967 -0.715046 -0.194397 0
M  V30 2120 H 201.614 -1.90373 0.207463 0
M  V30 2121 H 199.919 -3.41855 -1.91422 0
M  V30 2122 H 201.616 -3.6705 -1.61478 0
M  V30 2123 H 198.206 -4.27444 -0.314528 0
M  V30 2124 H 202.39 -4.94691 0.399333 0
M  V30 2125 H 197.646 -5.95362 1.39117 0
M  V30 2126 H 201.82 -6.63934 2.10153 0
M  V30 2127 H 199.447 -7.14229 2.60349 0
M  V30 2128 N 201.022 0.148545 -1.56898 0
M  V30 2129 C 201.985 1.16736 -1.97244 0
M  V30 2130 C 202.985 1.35947 -0.858777 0
M  V30 2131 O 204.175 1.32966 -1.12542 0
M  V30 2132 C 201.307 2.52798 -2.28705 0
M  V30 2133 H 202.5 0.821279 -2.88435 0
M  V30 2134 H 200.053 0.391831 -1.51309 0
M  V30 2135 H 200.788 2.92381 -1.403 0
M  V30 2136 H 200.573 2.40216 -3.09901 0
M  V30 2137 H 202.063 3.26179 -2.60762 0
M  V30 2138 N 202.5 1.5196 0.417844 0
M  V30 2139 C 203.916 1.40569 0.755816 0
M  V30 2140 C 204.116 0.503316 1.95113 0
M  V30 2141 O 203.172 -0.0341925 2.52477 0
M  V30 2142 C 204.485 2.82947 1.01791 0
M  V30 2143 C 206.033 2.92231 1.12116 0
M  V30 2144 C 206.508 4.35559 1.41608 0
M  V30 2145 N 207.999 4.38753 1.48491 0
M  V30 2146 C 208.734 5.46705 1.7292 0
M  V30 2147 N 208.23 6.64788 1.95011 0
M  V30 2148 N 210.023 5.34209 1.74863 0
M  V30 2149 H 202.174 2.09168 -0.369098 0
M  V30 2150 H 204.437 0.942409 -0.102809 0
M  V30 2151 H 204.143 3.5106 0.212081 0
M  V30 2152 H 204.017 3.23462 1.94042 0
M  V30 2153 H 206.404 2.24304 1.9176 0
M  V30 2154 H 206.485 2.55185 0.177225 0
M  V30 2155 H 206.129 5.04042 0.624848 0
M  V30 2156 H 206.059 4.70133 2.37239 0
M  V30 2157 H 208.55 3.5363 1.33244 0
M  V30 2158 H 208.863 7.42845 2.13076 0
M  V30 2159 H 207.208 6.67869 1.92293 0
M  V30 2160 H 210.399 4.40937 1.57137 0
M  V30 2161 H 210.572 6.18415 1.93563 0
M  V30 2162 N 203.978 -0.674533 1.42435 0
M  V30 2163 C 205.206 -1.46283 1.46317 0
M  V30 2164 C 205.621 -1.88653 0.0745836 0
M  V30 2165 O 204.978 -1.58151 -0.91074 0
M  V30 2166 C 205.029 -2.71178 2.3905 0
M  V30 2167 O 204.75 -2.30586 3.72507 0
M  V30 2168 C 206.251 -3.64738 2.51955 0
M  V30 2169 H 203.471 -0.450104 0.497642 0
M  V30 2170 H 206.015 -0.828792 1.86953 0
M  V30 2171 H 204.17 -3.3077 2.01667 0
M  V30 2172 H 204.584 -3.11241 4.22172 0
M  V30 2173 H 206.058 -4.49096 3.20962 0
M  V30 2174 H 206.535 -4.10656 1.55752 0
M  V30 2175 H 207.141 -3.11038 2.90061 0
M  V30 2176 N 205.456 -1.28612 -0.910864 0
M  V30 2177 C 206.872 -1.06381 -1.18976 0
M  V30 2178 C 207.072 0.191998 -2.00583 0
M  V30 2179 O 206.128 0.892869 -2.36187 0
M  V30 2180 C 207.441 -2.31295 -1.92154 0
M  V30 2181 C 208.989 -2.36503 -2.05025 0
M  V30 2182 C 209.464 -3.61191 -2.81612 0
M  V30 2183 N 210.955 -3.61847 -2.89172 0
M  V30 2184 C 211.69 -4.55004 -3.4894 0
M  V30 2185 N 211.186 -5.58482 -4.09963 0
M  V30 2186 N 212.979 -4.42594 -3.46506 0
M  V30 2187 H 205.13 -2.09221 -0.366094 0
M  V30 2188 H 207.393 -0.921003 -0.224629 0
M  V30 2189 H 207.099 -3.228 -1.39618 0
M  V30 2190 H 206.973 -2.37934 -2.9269 0
M  V30 2191 H 209.36 -1.45494 -2.5674 0
M  V30 2192 H 209.441 -2.33857 -1.03657 0
M  V30 2193 H 209.085 -4.52545 -2.30576 0
M  V30 2194 H 209.015 -3.61092 -3.83302 0
M  V30 2195 H 211.506 -2.87022 -2.45819 0
M  V30 2196 H 211.819 -6.25704 -4.53557 0
M  V30 2197 H 210.164 -5.62305 -4.08459 0
M  V30 2198 H 213.355 -3.60953 -2.98045 0
M  V30 2199 H 213.528 -5.15381 -3.92793 0
M  V30 2200 N 206.934 1.1197 -1.10907 0
M  V30 2201 C 207.864 2.19928 -0.784473 0
M  V30 2202 C 208.845 1.6833 0.244726 0
M  V30 2203 O 210.03 1.93892 0.109418 0
M  V30 2204 C 207.16 3.46597 -0.220827 0
M  V30 2205 C 206.114 4.11376 -1.18127 0
M  V30 2206 C 205.44 5.32554 -0.478594 0
M  V30 2207 C 206.74 4.56945 -2.52979 0
M  V30 2208 H 208.434 2.47337 -1.68715 0
M  V30 2209 H 205.98 1.18879 -0.812642 0
M  V30 2210 H 207.933 4.21396 0.0184278 0
M  V30 2211 H 206.657 3.1863 0.717113 0
M  V30 2212 H 205.316 3.38564 -1.40606 0
M  V30 2213 H 204.964 5.00856 0.463976 0
M  V30 2214 H 204.664 5.76844 -1.11912 0
M  V30 2215 H 206.188 6.10096 -0.248 0
M  V30 2216 H 207.602 5.23093 -2.3462 0
M  V30 2217 H 205.999 5.1203 -3.12962 0
M  V30 2218 H 207.069 3.70676 -3.12614 0
M  V30 2219 N 208.412 0.89855 1.29475 0
M  V30 2220 C 209.375 0.380272 2.26023 0
M  V30 2221 C 210.375 -0.484891 1.53315 0
M  V30 2222 O 211.565 -0.290108 1.71767 0
M  V30 2223 C 208.697 -0.45651 3.3783 0
M  V30 2224 H 209.89 1.23295 2.73383 0
M  V30 2225 H 207.443 0.676589 1.40897 0
M  V30 2226 H 208.178 -1.32922 2.95808 0
M  V30 2227 H 207.963 0.163393 3.91759 0
M  V30 2228 H 209.453 -0.810466 4.0966 0
M  V30 2229 N 209.89 -1.43072 0.660911 0
M  V30 2230 C 210.853 -2.29194 -0.0166406 0
M  V30 2231 C 211.853 -1.42609 -0.742912 0
M  V30 2232 O 213.043 -1.64155 -0.583004 0
M  V30 2233 C 210.175 -3.24831 -1.0343 0
M  V30 2234 H 211.368 -2.90596 0.741208 0
M  V30 2235 H 208.921 -1.5048 0.422532 0
M  V30 2236 H 209.656 -2.68339 -1.82111 0
M  V30 2237 H 209.441 -3.88676 -0.517082 0
M  V30 2238 H 210.931 -3.89451 -1.50723 0
M  V30 2239 N 211.368 -0.403325 -1.52352 0
M  V30 2240 C 212.645 0.232611 -1.94212 0
M  V30 2241 C 213.025 1.63133 -1.33981 0
M  V30 2242 O 212.373 2.22659 -0.513344 0
M  V30 2243 C 212.583 0.244811 -3.4814 0
M  V30 2244 C 213.931 0.46698 -4.22024 0
M  V30 2245 O 214.955 0.324419 -3.5472 0
M  V30 2246 O 213.814 0.74747 -5.41364 0
M  V30 2247 H 210.908 0.148223 -0.813609 0
M  V30 2248 H 213.454 -0.458848 -1.63379 0
M  V30 2249 H 212.226 -0.734378 -3.84347 0
M  V30 2250 H 211.849 0.980611 -3.85318 0
M  V30 2251 N 212.846 1.57033 -0.133567 0
M  V30 2252 C 214.092 1.95976 0.521649 0
M  V30 2253 C 214.425 1.01779 1.65393 0
M  V30 2254 O 213.7 0.0576581 1.94415 0
M  V30 2255 C 213.983 3.44738 1.04057 0
M  V30 2256 C 213.836 4.49711 -0.0892897 0
M  V30 2257 C 215.155 3.95682 1.92675 0
M  V30 2258 H 212.274 0.712579 0.188149 0
M  V30 2259 H 214.916 1.88813 -0.212076 0
M  V30 2260 H 213.066 3.50973 1.66583 0
M  V30 2261 H 214.738 4.55565 -0.725152 0
M  V30 2262 H 212.981 4.27261 -0.750378 0
M  V30 2263 H 213.652 5.51099 0.315284 0
M  V30 2264 H 216.128 3.91841 1.39998 0
M  V30 2265 H 215.004 5.00262 2.25897 0
M  V30 2266 H 215.265 3.37239 2.85872 0
M  V30 2267 N 214.325 -0.140222 1.56975 0
M  V30 2268 C 215.573 -0.850005 1.83356 0
M  V30 2269 C 215.894 -1.81399 0.71551 0
M  V30 2270 O 215.164 -1.94136 -0.262294 0
M  V30 2271 H 213.744 -0.316886 0.676456 0
M  V30 2272 H 216.406 -0.132608 1.94448 0
M  V30 2273 H 215.502 -1.40814 2.78528 0
M  V30 2274 N 215.803 -1.52179 -0.40978 0
M  V30 2275 C 216.75 -1.75475 -1.49924 0
M  V30 2276 C 217.72 -0.597175 -1.54994 0
M  V30 2277 O 218.905 -0.834655 -1.71575 0
M  V30 2278 C 216.045 -1.9107 -2.87378 0
M  V30 2279 C 215.158 -3.18717 -2.91622 0
M  V30 2280 C 214.293 -3.24747 -4.20372 0
M  V30 2281 C 213.332 -4.46598 -4.18588 0
M  V30 2282 N 212.469 -4.50025 -5.38908 0
M  V30 2283 H 217.309 -2.68458 -1.29361 0
M  V30 2284 H 214.846 -1.33024 -0.627934 0
M  V30 2285 H 216.804 -1.98096 -3.6717 0
M  V30 2286 H 215.434 -1.01469 -3.06437 0
M  V30 2287 H 214.486 -3.20866 -2.04326 0
M  V30 2288 H 215.798 -4.08544 -2.86169 0
M  V30 2289 H 214.952 -3.30841 -5.08556 0
M  V30 2290 H 213.691 -2.32857 -4.28519 0
M  V30 2291 H 212.696 -4.40652 -3.28794 0
M  V30 2292 H 213.921 -5.39783 -4.12081 0
M  V30 2293 H 211.867 -3.61017 -5.47725 0
M  V30 2294 H 211.784 -5.33697 -5.35447 0
M  V30 2295 H 213.052 -4.60347 -6.29048 0
M  V30 2296 N 217.281 0.66697 -1.42791 0
M  V30 2297 C 218.244 1.76211 -1.46568 0
M  V30 2298 C 219.244 1.56896 -0.352196 0
M  V30 2299 O 220.434 1.63044 -0.613364 0
M  V30 2300 C 217.566 3.14935 -1.30494 0
M  V30 2301 H 218.759 1.74247 -2.44086 0
M  V30 2302 H 216.312 0.877342 -1.29354 0
M  V30 2303 H 217.047 3.2252 -0.339301 0
M  V30 2304 H 216.832 3.30359 -2.11199 0
M  V30 2305 H 218.322 3.94821 -1.36038 0
M  V30 2306 N 218.759 1.29093 0.90403 0
M  V30 2307 C 220.007 1.16583 1.65085 0
M  V30 2308 C 220.328 -0.283933 1.92922 0
M  V30 2309 O 219.598 -1.19509 1.55224 0
M  V30 2310 H 218.178 0.428467 0.611903 0
M  V30 2311 H 220.84 1.61959 1.08422 0
M  V30 2312 H 219.936 1.71266 2.6091 0
M  V30 2313 N 220.237 -1.11381 1.11499 0
M  V30 2314 C 221.2 -2.15622 0.777153 0
M  V30 2315 C 222.2 -1.59504 -0.203779 0
M  V30 2316 O 223.39 -1.74188 0.020782 0
M  V30 2317 C 220.522 -3.40556 0.153116 0
M  V30 2318 H 221.715 -2.47021 1.70061 0
M  V30 2319 H 219.268 -1.26577 0.916952 0
M  V30 2320 H 220.003 -3.14767 -0.780536 0
M  V30 2321 H 219.788 -3.8257 0.859238 0
M  V30 2322 H 221.278 -4.17546 -0.0671044 0
M  V30 2323 N 221.715 -0.905404 -1.28997 0
M  V30 2324 C 222.625 -0.392246 -2.31298 0
M  V30 2325 C 223.641 0.515889 -1.66176 0
M  V30 2326 O 224.817 0.404093 -1.97304 0
M  V30 2327 C 221.882 0.36686 -3.44754 0
M  V30 2328 C 220.943 -0.573485 -4.25452 0
M  V30 2329 C 220.176 0.149488 -5.33491 0
M  V30 2330 O 220.399 1.37255 -5.5364 0
M  V30 2331 O 219.333 -0.510919 -5.99728 0
M  V30 2332 H 223.159 -1.2411 -2.77183 0
M  V30 2333 H 220.744 -0.669926 -1.33538 0
M  V30 2334 H 222.626 0.795907 -4.13816 0
M  V30 2335 H 221.301 1.19169 -3.00966 0
M  V30 2336 H 220.208 -1.05176 -3.59011 0
M  V30 2337 H 221.541 -1.36489 -4.72897 0
M  V30 2338 N 223.193 1.4272 -0.668489 0
M  V30 2339 C 224.609 1.55992 -0.33745 0
M  V30 2340 C 224.809 1.64933 1.15756 0
M  V30 2341 O 223.865 1.61278 1.94282 0
M  V30 2342 C 225.178 2.81314 -1.06222 0
M  V30 2343 C 226.726 2.95078 -1.04394 0
M  V30 2344 C 227.201 4.23252 -1.74991 0
M  V30 2345 N 228.692 4.3015 -1.71829 0
M  V30 2346 C 229.427 5.28127 -2.23315 0
M  V30 2347 N 228.923 6.32293 -2.83156 0
M  V30 2348 N 230.716 5.19882 -2.13726 0
M  V30 2349 H 222.867 1.3516 -1.63846 0
M  V30 2350 H 225.13 0.650174 -0.689912 0
M  V30 2351 H 224.836 2.80823 -2.11734 0
M  V30 2352 H 224.71 3.72012 -0.62344 0
M  V30 2353 H 227.097 2.951 0.0028244 0
M  V30 2354 H 227.178 2.05627 -1.52155 0
M  V30 2355 H 226.822 4.2399 -2.79633 0
M  V30 2356 H 226.752 5.11626 -1.24685 0
M  V30 2357 H 229.243 3.55499 -1.28175 0
M  V30 2358 H 229.556 7.03398 -3.20079 0
M  V30 2359 H 227.901 6.32873 -2.87223 0
M  V30 2360 H 231.092 4.37423 -1.66669 0
M  V30 2361 H 231.265 5.96077 -2.54158 0
M  V30 2362 N 224.671 0.411399 1.52136 0
M  V30 2363 C 225.581 -0.419774 2.30814 0
M  V30 2364 C 226.597 -1.0515 1.38634 0
M  V30 2365 O 227.773 -1.05252 1.71709 0
M  V30 2366 C 224.838 -1.52019 3.11594 0
M  V30 2367 C 223.899 -0.91129 4.19516 0
M  V30 2368 C 223.132 -1.95927 4.96436 0
M  V30 2369 O 223.355 -3.17775 4.73683 0
M  V30 2370 O 222.289 -1.56423 5.81219 0
M  V30 2371 H 226.115 0.221805 3.02889 0
M  V30 2372 H 223.7 0.174547 1.48377 0
M  V30 2373 H 225.582 -2.15898 3.61892 0
M  V30 2374 H 224.257 -2.14633 2.42311 0
M  V30 2375 H 223.164 -0.235157 3.7336 0
M  V30 2376 H 224.497 -0.32904 4.91099 0
M  V30 2377 N 226.149 -1.5696 0.141893 0
M  V30 2378 C 227.396 -1.9596 -0.510492 0
M  V30 2379 C 227.724 -1.02648 -1.65208 0
M  V30 2380 O 226.979 -0.0546947 -1.95624 0
M  V30 2381 C 227.278 -3.41242 -1.06249 0
M  V30 2382 C 226.944 -4.50882 -0.0398791 0
M  V30 2383 C 225.606 -4.80595 0.241247 0
M  V30 2384 C 227.958 -5.17058 0.65578 0
M  V30 2385 C 225.286 -5.73792 1.22393 0
M  V30 2386 C 227.638 -6.11313 1.62724 0
M  V30 2387 C 226.302 -6.39407 1.91612 0
M  V30 2388 H 225.572 -0.717068 -0.186802 0
M  V30 2389 H 228.219 -1.90142 0.227643 0
M  V30 2390 H 226.524 -3.43866 -1.87785 0
M  V30 2391 H 228.221 -3.68742 -1.57576 0
M  V30 2392 H 224.811 -4.27754 -0.269174 0
M  V30 2393 H 228.995 -4.94239 0.451779 0
M  V30 2394 H 224.251 -5.93853 1.45424 0
M  V30 2395 H 228.425 -6.61668 2.17183 0
M  V30 2396 H 226.052 -7.11427 2.6791 0
M  V30 2397 N 227.627 0.131896 -1.57047 0
M  V30 2398 C 229.043 0.485031 -1.52051 0
M  V30 2399 C 229.243 1.82563 -0.85281 0
M  V30 2400 O 228.299 2.48817 -0.429694 0
M  V30 2401 C 229.612 0.481409 -2.96821 0
M  V30 2402 C 231.16 0.565868 -3.07842 0
M  V30 2403 C 231.635 0.592762 -4.54148 0
M  V30 2404 N 233.126 0.654564 -4.58552 0
M  V30 2405 C 233.861 0.696608 -5.69153 0
M  V30 2406 N 233.357 0.697078 -6.89284 0
M  V30 2407 N 235.15 0.738639 -5.57226 0
M  V30 2408 H 227.301 -0.746664 -1.98843 0
M  V30 2409 H 229.564 -0.273999 -0.90754 0
M  V30 2410 H 229.27 -0.435731 -3.4899 0
M  V30 2411 H 229.144 1.3139 -3.53577 0
M  V30 2412 H 231.531 1.47343 -2.55684 0
M  V30 2413 H 231.612 -0.29406 -2.54104 0
M  V30 2414 H 231.256 -0.310701 -5.06949 0
M  V30 2415 H 231.186 1.46939 -5.05684 0
M  V30 2416 H 233.677 0.660887 -3.72076 0
M  V30 2417 H 233.99 0.731426 -7.69331 0
M  V30 2418 H 232.335 0.66471 -6.91814 0
M  V30 2419 H 235.526 0.735545 -4.62285 0
M  V30 2420 H 235.699 0.767938 -6.43434 0
M  V30 2421 N 229.106 1.52395 0.401703 0
M  V30 2422 C 230.354 1.66488 1.14569 0
M  V30 2423 C 230.675 0.400897 1.90835 0
M  V30 2424 O 229.945 -0.584415 1.8698 0
M  V30 2425 H 228.525 0.613672 0.425929 0
M  V30 2426 H 231.187 1.89464 0.457093 0
M  V30 2427 H 230.283 2.50942 1.85566 0
M  V30 2428 N 230.584 -0.659388 1.43143 0
M  V30 2429 C 231.514 -1.78422 1.50625 0
M  V30 2430 C 232.495 -1.66216 0.361443 0
M  V30 2431 O 233.68 -1.85404 0.577834 0
M  V30 2432 C 230.81 -3.16815 1.42287 0
M  V30 2433 C 229.764 -3.43777 2.54954 0
M  V30 2434 C 229.09 -4.81905 2.31671 0
M  V30 2435 C 230.39 -3.39134 3.97222 0
M  V30 2436 H 232.084 -1.72417 2.44771 0
M  V30 2437 H 229.63 -0.828084 1.17808 0
M  V30 2438 H 231.583 -3.95253 1.46127 0
M  V30 2439 H 230.307 -3.23534 0.446435 0
M  V30 2440 H 228.966 -2.67707 2.50457 0
M  V30 2441 H 228.614 -4.85294 1.32284 0
M  V30 2442 H 228.314 -5.00906 3.07192 0
M  V30 2443 H 229.838 -5.62609 2.37284 0
M  V30 2444 H 231.252 -4.07518 4.03239 0
M  V30 2445 H 229.649 -3.69671 4.72719 0
M  V30 2446 H 230.719 -2.37426 4.22797 0
M  V30 2447 N 232.062 -1.29571 -0.897171 0
M  V30 2448 C 233.31 -1.17456 -1.64464 0
M  V30 2449 C 233.631 0.273698 -1.9307 0
M  V30 2450 O 232.901 1.18684 -1.55855 0
M  V30 2451 H 231.481 -0.431706 -0.609622 0
M  V30 2452 H 234.143 -1.62531 -1.07562 0
M  V30 2453 H 233.239 -1.72648 -2.59998 0
M  V30 2454 N 233.54 1.10788 -1.12088 0
M  V30 2455 C 234.817 1.79136 -0.785476 0
M  V30 2456 C 235.197 1.98246 0.725377 0
M  V30 2457 O 234.545 1.57258 1.65778 0
M  V30 2458 C 234.755 3.12375 -1.55636 0
M  V30 2459 C 236.103 3.8731 -1.74001 0
M  V30 2460 O 237.127 3.22085 -1.52117 0
M  V30 2461 O 235.986 5.04369 -2.10415 0
M  V30 2462 H 233.08 0.776226 -0.285311 0
M  V30 2463 H 235.626 1.1747 -1.2247 0
M  V30 2464 H 234.398 2.93863 -2.5838 0
M  V30 2465 H 234.021 3.81758 -1.11114 0
M  V30 2466 N 235.018 0.912232 1.28515 0
M  V30 2467 C 236.258 0.551677 1.96814 0
M  V30 2468 C 236.622 -0.887825 1.7024 0
M  V30 2469 O 237.823 -1.35588 2.32098 0
M  V30 2470 C 236.094 0.850555 3.47132 0
M  V30 2471 S 237.653 0.59619 4.34731 0
M  V30 2472 H 234.471 0.204191 0.681049 0
M  V30 2473 H 237.073 1.17736 1.56072 0
M  V30 2474 H 235.777 1.8962 3.63968 0
M  V30 2475 H 235.308 0.213471 3.9282 0
M  V30 2476 H 237.323 -0.553154 4.93107 0
M  V30 2477 N 236.496 -1.42363 0.676048 0
M  V30 2478 C 237.426 -2.33497 0.0124832 0
M  V30 2479 C 238.407 -1.50748 -0.787981 0
M  V30 2480 O 239.592 -1.79346 -0.744884 0
M  V30 2481 C 236.722 -3.34377 -0.938582 0
M  V30 2482 C 235.676 -4.27289 -0.246622 0
M  V30 2483 C 235.002 -5.18386 -1.31071 0
M  V30 2484 C 236.302 -5.14916 0.875125 0
M  V30 2485 H 237.996 -2.89233 0.773593 0
M  V30 2486 H 235.542 -1.39073 0.37346 0
M  V30 2487 H 237.495 -3.97044 -1.41188 0
M  V30 2488 H 236.219 -2.76947 -1.73113 0
M  V30 2489 H 234.878 -3.66018 0.206456 0
M  V30 2490 H 234.526 -4.57282 -2.09528 0
M  V30 2491 H 234.226 -5.81378 -0.852839 0
M  V30 2492 H 235.75 -5.83929 -1.78492 0
M  V30 2493 H 237.164 -5.71262 0.482983 0
M  V30 2494 H 235.561 -5.86747 1.25887 0
M  V30 2495 H 236.631 -4.53242 1.72335 0
M  V30 2496 N 237.974 -0.419461 -1.51915 0
M  V30 2497 C 239.22 0.153166 -2.02221 0
M  V30 2498 C 239.553 1.43907 -1.30401 0
M  V30 2499 O 238.828 1.90055 -0.413438 0
M  V30 2500 C 239.111 0.390291 -3.57979 0
M  V30 2501 C 238.964 -0.913014 -4.40436 0
M  V30 2502 C 240.283 1.16794 -4.2432 0
M  V30 2503 H 237.402 0.0541924 -0.735005 0
M  V30 2504 H 240.044 -0.554955 -1.81715 0
M  V30 2505 H 238.194 0.993491 -3.75582 0
M  V30 2506 H 239.866 -1.54882 -4.34522 0
M  V30 2507 H 238.109 -1.52168 -4.06236 0
M  V30 2508 H 238.78 -0.701361 -5.47526 0
M  V30 2509 H 241.256 0.657161 -4.10878 0
M  V30 2510 H 240.132 1.3026 -5.3322 0
M  V30 2511 H 240.393 2.19132 -3.83971 0
M  V30 2512 N 239.452 1.56882 -0.150215 0
M  V30 2513 C 240.399 2.16922 0.788244 0
M  V30 2514 C 241.369 1.10303 1.24187 0
M  V30 2515 O 242.554 1.38359 1.31383 0
M  V30 2516 C 239.694 2.79754 2.02068 0
M  V30 2517 C 238.807 4.00775 1.61257 0
M  V30 2518 C 237.942 4.51595 2.79705 0
M  V30 2519 C 236.981 5.65074 2.35282 0
M  V30 2520 N 236.118 6.10499 3.4675 0
M  V30 2521 H 240.958 2.96779 0.269444 0
M  V30 2522 H 238.495 1.46599 0.12128 0
M  V30 2523 H 240.453 3.14329 2.74323 0
M  V30 2524 H 239.083 2.02536 2.51354 0
M  V30 2525 H 238.135 3.72158 0.787553 0
M  V30 2526 H 239.447 4.82978 1.24633 0
M  V30 2527 H 238.601 4.88242 3.60145 0
M  V30 2528 H 237.34 3.68406 3.19576 0
M  V30 2529 H 236.345 5.28 1.53283 0
M  V30 2530 H 237.57 6.50052 1.96493 0
M  V30 2531 H 235.516 5.30243 3.86236 0
M  V30 2532 H 235.433 6.87637 3.14152 0
M  V30 2533 H 236.701 6.51791 4.27537 0
M  V30 2534 N 240.93 -0.123565 1.57115 0
M  V30 2535 C 242.179 -0.830704 1.83799 0
M  V30 2536 C 242.492 -1.81259 0.735158 0
M  V30 2537 O 243.698 -2.56558 0.888278 0
M  V30 2538 C 242.154 -1.52802 3.25852 0
M  V30 2539 C 241.762 -0.587356 4.44133 0
M  V30 2540 C 243.506 -2.22056 3.61789 0
M  V30 2541 C 241.413 -1.28764 5.77212 0
M  V30 2542 H 240.343 -0.313967 0.685522 0
M  V30 2543 H 242.994 -0.0834359 1.8331 0
M  V30 2544 H 241.376 -2.32175 3.20797 0
M  V30 2545 H 242.55 0.172829 4.60476 0
M  V30 2546 H 240.865 -0.00201892 4.164 0
M  V30 2547 H 243.462 -2.75131 4.58483 0
M  V30 2548 H 243.805 -2.99644 2.88997 0
M  V30 2549 H 244.338 -1.49576 3.68608 0
M  V30 2550 H 241.077 -0.55314 6.53162 0
M  V30 2551 H 240.597 -2.01995 5.64764 0
M  V30 2552 H 242.276 -1.8221 6.20813 0
M  V30 2553 N 242.408 -1.52605 -0.393616 0
M  V30 2554 C 243.638 -1.71046 -1.15874 0
M  V30 2555 C 244.046 -0.426483 -1.84331 0
M  V30 2556 O 243.389 0.608513 -1.73329 0
M  V30 2557 C 243.451 -2.80118 -2.25332 0
M  V30 2558 C 243.115 -4.21381 -1.76881 0
M  V30 2559 C 244.112 -5.04697 -1.24808 0
M  V30 2560 C 241.797 -4.67683 -1.83244 0
M  V30 2561 C 243.791 -6.32393 -0.797387 0
M  V30 2562 C 241.478 -5.95364 -1.37787 0
M  V30 2563 C 242.476 -6.77549 -0.861208 0
M  V30 2564 O 242.164 -8.02837 -0.413252 0
M  V30 2565 H 241.896 -0.576155 -0.353583 0
M  V30 2566 H 244.45 -2.00018 -0.467123 0
M  V30 2567 H 242.68 -2.46557 -2.97904 0
M  V30 2568 H 244.369 -2.87006 -2.87023 0
M  V30 2569 H 245.135 -4.70111 -1.19252 0
M  V30 2570 H 241.014 -4.03805 -2.22401 0
M  V30 2571 H 244.558 -6.9649 -0.393437 0
M  V30 2572 H 240.455 -6.29455 -1.43026 0
M  V30 2573 H 241.223 -8.16749 -0.53515 0
M  V30 2574 N 243.887 0.651787 -1.4349 0
M  V30 2575 C 244.834 1.76462 -1.4876 0
M  V30 2576 C 245.804 1.62641 -0.337189 0
M  V30 2577 O 246.989 1.82864 -0.544544 0
M  V30 2578 C 244.129 3.14623 -1.41796 0
M  V30 2579 C 243.242 3.39568 -2.67053 0
M  V30 2580 C 242.377 4.67585 -2.52068 0
M  V30 2581 C 241.416 4.85639 -3.72587 0
M  V30 2582 N 240.553 6.04915 -3.56402 0
M  V30 2583 H 245.393 1.71293 -2.43849 0
M  V30 2584 H 242.93 0.835889 -1.21043 0
M  V30 2585 H 244.888 3.94496 -1.35753 0
M  V30 2586 H 243.518 3.18859 -0.50288 0
M  V30 2587 H 242.57 2.53783 -2.8337 0
M  V30 2588 H 243.882 3.48795 -3.56572 0
M  V30 2589 H 243.036 5.55586 -2.4374 0
M  V30 2590 H 241.775 4.60681 -1.60075 0
M  V30 2591 H 240.78 3.96073 -3.81321 0
M  V30 2592 H 242.005 4.94372 -4.65589 0
M  V30 2593 H 239.951 5.9914 -2.67146 0
M  V30 2594 H 239.868 6.15106 -4.39524 0
M  V30 2595 H 241.136 6.95533 -3.51929 0
M  V30 2596 N 245.365 1.30045 0.890287 0
M  V30 2597 C 246.59 1.21598 1.68014 0
M  V30 2598 C 247.015 -0.218678 1.86825 0
M  V30 2599 O 246.373 -1.15756 1.39536 0
M  V30 2600 C 246.421 1.94434 3.03691 0
M  V30 2601 O 245.525 1.2678 3.92429 0
M  V30 2602 H 244.866 0.420856 0.513592 0
M  V30 2603 H 247.396 1.71775 1.11151 0
M  V30 2604 H 247.406 2.03251 3.5377 0
M  V30 2605 H 246.081 2.98777 2.89318 0
M  V30 2606 H 244.658 1.26282 3.50866 0
M  V30 2607 N 246.843 -1.10192 1.12674 0
M  V30 2608 C 248.12 -1.78717 0.794965 0
M  V30 2609 C 248.5 -1.98628 -0.714853 0
M  V30 2610 O 247.848 -1.58135 -1.64941 0
M  V30 2611 C 248.058 -3.11546 1.5729 0
M  V30 2612 C 249.406 -3.86382 1.76052 0
M  V30 2613 O 250.43 -3.21274 1.53823 0
M  V30 2614 O 249.289 -5.03246 2.13087 0
M  V30 2615 H 246.383 -0.774702 0.289423 0
M  V30 2616 H 248.929 -1.16819 1.23091 0
M  V30 2617 H 247.701 -2.92489 2.59935 0
M  V30 2618 H 247.324 -3.81164 1.13137 0
M  V30 2619 N 248.321 -0.919034 -1.28029 0
M  V30 2620 C 249.569 -0.553838 -1.94363 0
M  V30 2621 C 249.89 0.906357 -1.72656 0
M  V30 2622 O 249.16 1.64143 -1.0693 0
M  V30 2623 H 247.74 -0.201834 -0.719216 0
M  V30 2624 H 250.402 -1.16954 -1.55909 0
M  V30 2625 H 249.498 -0.752758 -3.02886 0
M  V30 2626 N 249.799 1.42003 -0.683588 0
M  V30 2627 C 251.048 2.00638 -0.206681 0
M  V30 2628 C 251.361 1.5472 1.19671 0
M  V30 2629 O 252.567 2.05833 1.77045 0
M  V30 2630 C 251.023 3.58487 -0.318632 0
M  V30 2631 C 250.631 4.1339 -1.72663 0
M  V30 2632 C 252.375 4.24384 0.0991141 0
M  V30 2633 C 250.282 5.63633 -1.79087 0
M  V30 2634 H 249.212 0.750408 -0.0735107 0
M  V30 2635 H 251.863 1.62624 -0.850048 0
M  V30 2636 H 250.245 3.94047 0.392781 0
M  V30 2637 H 251.419 3.89273 -2.46583 0
M  V30 2638 H 249.734 3.59976 -2.09299 0
M  V30 2639 H 252.331 5.34652 0.0713833 0
M  V30 2640 H 252.674 4.00505 1.13586 0
M  V30 2641 H 253.207 3.93816 -0.561599 0
M  V30 2642 H 249.946 5.92323 -2.80774 0
M  V30 2643 H 249.466 5.89714 -1.09535 0
M  V30 2644 H 251.145 6.28201 -1.5483 0
M  V30 2645 N 251.277 0.427512 1.51691 0
M  V30 2646 C 252.224 -0.388867 2.275 0
M  V30 2647 C 253.194 -1.02532 1.30677 0
M  V30 2648 O 254.379 -1.0461 1.59566 0
M  V30 2649 C 251.519 -1.48954 3.11298 0
M  V30 2650 C 250.632 -0.872194 4.23104 0
M  V30 2651 C 249.767 -1.94709 4.94228 0
M  V30 2652 C 248.806 -1.30766 5.97969 0
M  V30 2653 N 247.943 -2.32349 6.62539 0
M  V30 2654 H 252.783 0.263997 2.96828 0
M  V30 2655 H 250.32 0.142033 1.46413 0
M  V30 2656 H 252.278 -2.13887 3.58201 0
M  V30 2657 H 250.908 -2.11217 2.44105 0
M  V30 2658 H 249.96 -0.111419 3.80237 0
M  V30 2659 H 251.272 -0.365264 4.97461 0
M  V30 2660 H 250.426 -2.67327 5.44629 0
M  V30 2661 H 249.165 -2.48773 4.1948 0
M  V30 2662 H 248.17 -0.566902 5.4687 0
M  V30 2663 H 249.395 -0.774483 6.74669 0
M  V30 2664 H 247.341 -2.85511 5.90609 0
M  V30 2665 H 247.258 -1.8652 7.3263 0
M  V30 2666 H 248.526 -3.04481 7.17574 0
M  V30 2667 N 252.755 -1.56801 0.158532 0
M  V30 2668 C 254.003 -1.96102 -0.488712 0
M  V30 2669 C 254.324 -1.04498 -1.64636 0
M  V30 2670 O 253.594 -0.108783 -1.95598 0
M  V30 2671 H 252.174 -0.724102 -0.183535 0
M  V30 2672 H 254.836 -1.93457 0.236728 0
M  V30 2673 H 253.932 -3.00097 -0.857219 0
M  V30 2674 N 254.233 0.115231 -1.57178 0
M  V30 2675 C 255.163 1.1423 -2.03651 0
M  V30 2676 C 256.144 1.42967 -0.921655 0
M  V30 2677 O 257.329 1.53343 -1.19162 0
M  V30 2678 C 254.459 2.4675 -2.44401 0
M  V30 2679 C 253.413 2.32467 -3.59365 0
M  V30 2680 C 252.739 3.69984 -3.86026 0
M  V30 2681 C 254.039 1.78203 -4.90959 0
M  V30 2682 H 255.733 0.755749 -2.89705 0
M  V30 2683 H 253.279 0.362093 -1.39373 0
M  V30 2684 H 255.232 3.18854 -2.75517 0
M  V30 2685 H 253.956 2.87302 -1.55322 0
M  V30 2686 H 252.615 1.62811 -3.28463 0
M  V30 2687 H 252.263 4.08028 -2.94147 0
M  V30 2688 H 251.963 3.61279 -4.63412 0
M  V30 2689 H 253.487 4.43587 -4.19599 0
M  V30 2690 H 254.901 2.40128 -5.20587 0
M  V30 2691 H 253.298 1.8031 -5.72371 0
M  V30 2692 H 254.368 0.739876 -4.79222 0
M  V30 2693 N 255.711 1.52812 0.385517 0
M  V30 2694 C 256.941 1.71658 1.14966 0
M  V30 2695 C 257.349 0.436253 1.84102 0
M  V30 2696 O 256.692 -0.599313 1.73649 0
M  V30 2697 C 256.754 2.81309 2.23843 0
M  V30 2698 C 256.418 4.22313 1.74644 0
M  V30 2699 C 257.415 5.05352 1.22129 0
M  V30 2700 C 255.1 4.68648 1.80761 0
M  V30 2701 C 257.094 6.32807 0.763838 0
M  V30 2702 C 254.781 5.96086 1.34627 0
M  V30 2703 C 255.779 6.77996 0.825264 0
M  V30 2704 O 255.467 8.03045 0.370669 0
M  V30 2705 H 255.199 0.578022 0.350523 0
M  V30 2706 H 257.753 2.00263 0.456509 0
M  V30 2707 H 255.983 2.48133 2.96592 0
M  V30 2708 H 257.672 2.88524 2.85497 0
M  V30 2709 H 258.438 4.70736 1.16758 0
M  V30 2710 H 254.317 4.04979 2.20256 0
M  V30 2711 H 257.861 6.96689 0.356494 0
M  V30 2712 H 253.758 6.30205 1.39686 0
M  V30 2713 H 254.526 8.17021 0.491829 0
M  V30 2714 N 257.189 -0.644168 1.43834 0
M  V30 2715 C 258.121 -1.76955 1.45669 0
M  V30 2716 C 259.134 -1.58956 0.351666 0
M  V30 2717 O 260.323 -1.6751 0.616644 0
M  V30 2718 C 257.423 -3.14507 1.26248 0
M  V30 2719 C 256.596 -3.59083 2.49757 0
M  V30 2720 C 255.655 -4.75467 2.25427 0
M  V30 2721 O 254.681 -4.84444 2.98836 0
M  V30 2722 N 255.883 -5.66289 1.27661 0
M  V30 2723 H 258.648 -1.75856 2.42682 0
M  V30 2724 H 256.209 -0.828312 1.39106 0
M  V30 2725 H 258.201 -3.90067 1.0784 0
M  V30 2726 H 256.771 -3.10325 0.376478 0
M  V30 2727 H 255.991 -2.7387 2.8353 0
M  V30 2728 H 257.279 -3.85613 3.31934 0
M  V30 2729 H 256.677 -5.61718 0.670064 0
M  V30 2730 H 255.234 -6.41533 1.15234 0
M  V30 2731 N 258.668 -1.30515 -0.883378 0
M  V30 2732 C 259.916 -1.19194 -1.63209 0
M  V30 2733 C 260.237 0.253205 -1.93349 0
M  V30 2734 O 259.507 1.17025 -1.57105 0
M  V30 2735 H 258.087 -0.438148 -0.605009 0
M  V30 2736 H 260.749 -1.63663 -1.05832 0
M  V30 2737 H 259.845 -1.75396 -2.58153 0
M  V30 2738 N 260.146 1.09593 -1.13257 0
M  V30 2739 C 261.393 1.81734 -0.893257 0
M  V30 2740 C 261.721 1.8563 0.580656 0
M  V30 2741 O 260.976 1.31906 1.44566 0
M  V30 2742 C 261.275 3.27802 -1.42411 0
M  V30 2743 C 260.941 3.44041 -2.91456 0
M  V30 2744 C 259.603 3.48181 -3.3215 0
M  V30 2745 C 261.955 3.48719 -3.87356 0
M  V30 2746 C 259.283 3.54575 -4.67433 0
M  V30 2747 C 261.635 3.56648 -5.2248 0
M  V30 2748 C 260.299 3.59055 -5.62704 0
M  V30 2749 H 259.569 0.665011 -0.326866 0
M  V30 2750 H 262.216 1.2912 -1.41422 0
M  V30 2751 H 260.521 3.83042 -0.823795 0
M  V30 2752 H 262.218 3.82149 -1.21503 0
M  V30 2753 H 258.808 3.41502 -2.58987 0
M  V30 2754 H 262.992 3.44763 -3.57004 0
M  V30 2755 H 258.248 3.54725 -4.97976 0
M  V30 2756 H 262.422 3.59212 -5.96607 0
M  V30 2757 H 260.049 3.63763 -6.67518 0
M  V30 2758 N 261.624 0.925811 1.2754 0
M  V30 2759 C 262.572 0.413897 2.28888 0
M  V30 2760 C 263.566 -0.500779 1.61829 0
M  V30 2761 O 264.772 -0.38069 1.75928 0
M  V30 2762 H 261.147 0.115274 0.743112 0
M  V30 2763 H 263.118 1.28151 2.69481 0
M  V30 2764 C 261.867 -0.319792 3.46226 0
M  V30 2765 H 261.19 0.374846 3.98039 0
M  V30 2766 H 262.63 -0.642435 4.19105 0
M  V30 2767 C 261.089 -1.53209 3.00048 0
M  V30 2768 O 261.619 -2.6309 3.03557 0
M  V30 2769 N 259.825 -1.38326 2.55566 0
M  V30 2770 H 259.372 -0.489292 2.5291 0
M  V30 2771 H 259.33 -2.19564 2.25031 0
M  V30 2772 N 263.102 -1.41638 0.69111 0
M  V30 2773 C 264.348 -2.01598 0.220519 0
M  V30 2774 C 264.681 -1.54594 -1.17535 0
M  V30 2775 O 263.956 -0.755177 -1.79241 0
M  V30 2776 C 264.239 -3.59062 0.273243 0
M  V30 2777 C 264.092 -4.16203 1.70573 0
M  V30 2778 C 265.411 -4.38546 -0.369457 0
M  V30 2779 H 262.53 -0.732468 0.0816045 0
M  V30 2780 H 265.172 -1.68445 0.878986 0
M  V30 2781 H 263.322 -3.87435 -0.287411 0
M  V30 2782 H 264.994 -3.98722 2.31989 0
M  V30 2783 H 263.237 -3.71414 2.2413 0
M  V30 2784 H 263.908 -5.25358 1.69419 0
M  V30 2785 H 266.384 -4.1596 0.107977 0
M  V30 2786 H 265.26 -5.48069 -0.302002 0
M  V30 2787 H 265.521 -4.17662 -1.44951 0
M  V30 2788 N 264.58 -0.43555 -1.51462 0
M  V30 2789 C 265.805 0.132627 -2.06976 0
M  V30 2790 C 266.23 1.35848 -1.30104 0
M  V30 2791 O 265.588 1.78112 -0.338493 0
M  V30 2792 C 265.636 0.43523 -3.57964 0
M  V30 2793 O 264.74 1.52198 -3.83288 0
M  V30 2794 H 264.081 0.00265 -0.663995 0
M  V30 2795 H 266.611 -0.616369 -1.95095 0
M  V30 2796 H 266.621 0.686206 -4.02188 0
M  V30 2797 H 265.296 -0.460739 -4.1334 0
M  V30 2798 H 263.873 1.2611 -3.50928 0
M  V30 2799 N 266.058 1.56714 -0.166846 0
M  V30 2800 C 267.304 1.97039 0.479962 0
M  V30 2801 C 267.637 1.05264 1.63197 0
M  V30 2802 O 266.912 0.0988833 1.94248 0
M  V30 2803 C 267.195 3.46867 0.967212 0
M  V30 2804 C 267.048 4.49421 -0.18466 0
M  V30 2805 C 268.367 3.9968 1.84238 0
M  V30 2806 H 265.486 0.71641 0.172992 0
M  V30 2807 H 268.128 1.8832 -0.252079 0
M  V30 2808 H 266.278 3.54428 1.59101 0
M  V30 2809 H 267.95 4.53924 -0.821621 0
M  V30 2810 H 266.193 4.25573 -0.840837 0
M  V30 2811 H 266.864 5.51644 0.198317 0
M  V30 2812 H 269.34 3.94723 1.31655 0
M  V30 2813 H 268.216 5.04941 2.15234 0
M  V30 2814 H 268.477 3.43226 2.78654 0
M  V30 2815 N 267.536 -0.106894 1.57237 0
M  V30 2816 C 268.468 -1.15646 1.97885 0
M  V30 2817 C 269.481 -1.36981 0.879779 0
M  V30 2818 O 270.67 -1.35841 1.15799 0
M  V30 2819 C 267.77 -2.51425 2.27241 0
M  V30 2820 C 266.943 -2.50529 3.58545 0
M  V30 2821 C 266.002 -3.68145 3.75973 0
M  V30 2822 O 265.028 -3.51176 4.47956 0
M  V30 2823 N 266.23 -4.87177 3.15656 0
M  V30 2824 H 268.995 -0.81059 2.8853 0
M  V30 2825 H 266.556 -0.296024 1.59171 0
M  V30 2826 H 268.548 -3.28689 2.36105 0
M  V30 2827 H 267.118 -2.78147 1.42663 0
M  V30 2828 H 266.338 -1.58894 3.60758 0
M  V30 2829 H 267.626 -2.46997 4.44826 0
M  V30 2830 H 267.024 -5.03868 2.57165 0
M  V30 2831 H 265.581 -5.62075 3.30023 0
M  V30 2832 N 269.014 -1.53014 -0.377408 0
M  V30 2833 C 270.262 -1.6829 -1.11906 0
M  V30 2834 C 270.583 -0.431206 -1.90173 0
M  V30 2835 O 269.853 0.554595 -1.87886 0
M  V30 2836 H 268.433 -0.620371 -0.416112 0
M  V30 2837 H 271.095 -1.90167 -0.426893 0
M  V30 2838 H 270.191 -2.53862 -1.8155 0
M  V30 2839 N 270.492 0.636531 -1.44174 0
M  V30 2840 C 271.741 1.39213 -1.45954 0
M  V30 2841 C 272.054 1.95374 -0.0939119 0
M  V30 2842 O 273.26 2.71498 0.0107767 0
M  V30 2843 C 271.716 2.52025 -2.56927 0
M  V30 2844 C 271.324 2.024 -3.99673 0
M  V30 2845 C 273.068 3.29269 -2.67922 0
M  V30 2846 C 270.975 3.12521 -5.0208 0
M  V30 2847 H 269.905 0.523132 -0.542999 0
M  V30 2848 H 272.556 0.685349 -1.70221 0
M  V30 2849 H 270.938 3.25253 -2.25891 0
M  V30 2850 H 272.112 1.36073 -4.40251 0
M  V30 2851 H 270.427 1.37987 -3.92872 0
M  V30 2852 H 273.024 4.11352 -3.41605 0
M  V30 2853 H 273.367 3.78397 -1.73555 0
M  V30 2854 H 273.9 2.63129 -2.98342 0
M  V30 2855 H 270.639 2.68343 -5.98057 0
M  V30 2856 H 270.159 3.77507 -4.66099 0
M  V30 2857 H 271.838 3.77385 -5.25538 0
M  V30 2858 N 271.97 1.30982 0.876444 0
M  V30 2859 C 273.219 1.19658 1.62373 0
M  V30 2860 C 273.532 -0.245636 1.94052 0
M  V30 2861 O 274.738 -0.48049 2.67214 0
M  V30 2862 C 273.194 2.09433 2.92687 0
M  V30 2863 C 272.802 3.58613 2.68516 0
M  V30 2864 C 274.546 2.06893 3.70669 0
M  V30 2865 C 272.453 4.40416 3.94699 0
M  V30 2866 H 271.383 0.444268 0.609214 0
M  V30 2867 H 274.034 1.55791 0.969605 0
M  V30 2868 H 272.416 1.66191 3.59439 0
M  V30 2869 H 273.59 4.10058 2.10212 0
M  V30 2870 H 271.905 3.63063 2.03898 0
M  V30 2871 H 274.502 2.65258 4.64265 0
M  V30 2872 H 274.845 1.05448 4.02724 0
M  V30 2873 H 275.378 2.48301 3.10792 0
M  V30 2874 H 272.117 5.42591 3.67798 0
M  V30 2875 H 271.637 3.93731 4.52477 0
M  V30 2876 H 273.316 4.52294 4.62644 0
M  V30 2877 N 273.449 -1.08991 1.13837 0
M  V30 2878 C 274.698 -1.80631 0.897509 0
M  V30 2879 C 275.011 -1.86872 -0.57777 0
M  V30 2880 O 276.217 -2.54866 -0.935701 0
M  V30 2881 C 274.673 -3.24517 1.55618 0
M  V30 2882 C 274.281 -3.26529 3.0673 0
M  V30 2883 C 276.025 -4.00882 1.3962 0
M  V30 2884 C 273.932 -4.64965 3.65461 0
M  V30 2885 H 272.862 -0.67691 0.332129 0
M  V30 2886 H 275.513 -1.2246 1.3666 0
M  V30 2887 H 273.895 -3.82778 1.01476 0
M  V30 2888 H 275.069 -2.78008 3.67489 0
M  V30 2889 H 273.384 -2.63656 3.22296 0
M  V30 2890 H 275.981 -5.03167 1.80906 0
M  V30 2891 H 276.324 -4.14896 0.341578 0
M  V30 2892 H 276.857 -3.49075 1.90766 0
M  V30 2893 H 273.596 -4.56153 4.70749 0
M  V30 2894 H 273.116 -5.13792 3.09481 0
M  V30 2895 H 274.795 -5.3394 3.654 0
M  V30 2896 N 274.927 -0.932562 -1.27047 0
M  V30 2897 C 276.157 -0.591173 -1.97961 0
M  V30 2898 C 276.565 0.836219 -1.69717 0
M  V30 2899 O 275.908 1.56801 -0.957036 0
M  V30 2900 C 275.97 -0.743082 -3.51736 0
M  V30 2901 C 275.634 -2.1435 -4.03613 0
M  V30 2902 C 276.631 -3.11815 -4.16014 0
M  V30 2903 C 274.316 -2.46175 -4.37839 0
M  V30 2904 C 276.31 -4.39211 -4.61923 0
M  V30 2905 C 273.997 -3.73806 -4.83438 0
M  V30 2906 C 274.995 -4.70137 -4.95439 0
M  V30 2907 O 274.683 -5.95496 -5.40037 0
M  V30 2908 H 274.415 -0.222375 -0.638377 0
M  V30 2909 H 276.969 -1.25317 -1.62742 0
M  V30 2910 H 275.199 -0.0239739 -3.86693 0
M  V30 2911 H 276.888 -0.40603 -4.03864 0
M  V30 2912 H 277.654 -2.88549 -3.89826 0
M  V30 2913 H 273.533 -1.71936 -4.27737 0
M  V30 2914 H 277.077 -5.14404 -4.71205 0
M  V30 2915 H 272.974 -3.96888 -5.09068 0
M  V30 2916 H 273.742 -5.98554 -5.58279 0
M  V30 2917 N 276.405 1.4127 -0.698611 0
M  V30 2918 C 277.821 1.55241 -0.370462 0
M  V30 2919 C 278.021 1.67351 1.12231 0
M  V30 2920 O 277.077 1.65363 1.90818 0
M  V30 2921 C 278.39 2.78997 -1.12165 0
M  V30 2922 C 279.938 2.92797 -1.1063 0
M  V30 2923 C 280.413 4.19445 -1.8393 0
M  V30 2924 N 281.904 4.26409 -1.80914 0
M  V30 2925 C 282.639 5.23271 -2.34467 0
M  V30 2926 N 282.135 6.26145 -2.96504 0
M  V30 2927 N 283.928 5.15232 -2.24706 0
M  V30 2928 H 276.079 1.31654 -1.66676 0
M  V30 2929 H 278.342 0.635393 -0.703548 0
M  V30 2930 H 278.048 2.76268 -2.17644 0
M  V30 2931 H 277.922 3.70606 -0.702209 0
M  V30 2932 H 280.309 2.95039 -0.0597713 0
M  V30 2933 H 280.39 2.02353 -1.56483 0
M  V30 2934 H 280.034 4.17964 -2.88563 0
M  V30 2935 H 279.964 5.08866 -1.35509 0
M  V30 2936 H 282.455 3.527 -1.35687 0
M  V30 2937 H 282.768 6.96451 -3.34927 0
M  V30 2938 H 281.113 6.26638 -3.00583 0
M  V30 2939 H 284.304 4.33789 -1.7591 0
M  V30 2940 H 284.477 5.90552 -2.66745 0
M  V30 2941 N 277.883 0.443576 1.51229 0
M  V30 2942 C 278.846 -0.353132 2.26463 0
M  V30 2943 C 279.846 -0.944338 1.3015 0
M  V30 2944 O 281.036 -0.817813 1.5381 0
M  V30 2945 C 278.168 -1.50023 3.06114 0
M  V30 2946 H 279.361 0.3063 2.98332 0
M  V30 2947 H 276.914 0.196902 1.55055 0
M  V30 2948 H 277.649 -2.19553 2.38677 0
M  V30 2949 H 277.434 -1.08241 3.76864 0
M  V30 2950 H 278.924 -2.06296 3.63087 0
M  V30 2951 N 279.361 -1.56624 0.175154 0
M  V30 2952 C 280.324 -2.16934 -0.739738 0
M  V30 2953 C 281.324 -1.11842 -1.15533 0
M  V30 2954 O 282.514 -1.37335 -1.07167 0
M  V30 2955 C 279.646 -2.75531 -2.00738 0
M  V30 2956 H 280.839 -2.99131 -0.214639 0
M  V30 2957 H 278.392 -1.56123 -0.0744197 0
M  V30 2958 H 279.127 -1.97078 -2.57548 0
M  V30 2959 H 278.912 -3.52444 -1.71831 0
M  V30 2960 H 280.402 -3.21904 -2.66021 0
M  V30 2961 N 280.839 0.0985539 -1.57292 0
M  V30 2962 C 282.069 0.815135 -1.8984 0
M  V30 2963 C 282.477 1.7297 -0.766679 0
M  V30 2964 O 281.82 1.81698 0.270483 0
M  V30 2965 C 281.882 1.6842 -3.17608 0
M  V30 2966 C 281.546 0.94182 -4.4719 0
M  V30 2967 C 282.543 0.273212 -5.19182 0
M  V30 2968 C 280.228 0.916927 -4.9386 0
M  V30 2969 C 282.222 -0.410361 -6.36078 0
M  V30 2970 C 279.909 0.229567 -6.10669 0
M  V30 2971 C 280.907 -0.432902 -6.81627 0
M  V30 2972 O 280.595 -1.10925 -7.9621 0
M  V30 2973 H 280.327 0.238501 -0.632529 0
M  V30 2974 H 282.881 0.0812659 -2.05239 0
M  V30 2975 H 281.111 2.46022 -2.98345 0
M  V30 2976 H 282.8 2.27704 -3.36015 0
M  V30 2977 H 283.566 0.283927 -4.84168 0
M  V30 2978 H 279.445 1.42201 -4.3852 0
M  V30 2979 H 282.989 -0.928013 -6.914 0
M  V30 2980 H 278.886 0.216686 -6.45136 0
M  V30 2981 H 279.654 -1.01579 -8.12172 0
M  V30 2982 N 282.317 1.53212 0.369288 0
M  V30 2983 C 283.564 1.69215 1.11232 0
M  V30 2984 C 283.892 0.442048 1.8941 0
M  V30 2985 O 283.147 -0.575944 1.87033 0
M  V30 2986 C 283.446 2.89101 2.10132 0
M  V30 2987 C 283.112 4.25758 1.48463 0
M  V30 2988 C 281.774 4.6292 1.31372 0
M  V30 2989 C 284.126 5.10757 1.03811 0
M  V30 2990 C 281.454 5.82722 0.68207 0
M  V30 2991 C 283.806 6.31201 0.420487 0
M  V30 2992 C 282.47 6.67079 0.237038 0
M  V30 2993 H 281.74 0.619201 0.407027 0
M  V30 2994 H 284.387 1.87391 0.394552 0
M  V30 2995 H 282.692 2.65421 2.88199 0
M  V30 2996 H 284.389 2.98676 2.6757 0
M  V30 2997 H 280.979 3.96494 1.62758 0
M  V30 2998 H 285.163 4.82599 1.1581 0
M  V30 2999 H 280.419 6.09113 0.528316 0
M  V30 3000 H 284.593 6.96368 0.0662874 0
M  V30 3001 H 282.22 7.59774 -0.254477 0
M  V30 3002 N 283.795 -0.628877 1.44509 0
M  V30 3003 C 285.043 -1.38565 1.4712 0
M  V30 3004 C 285.364 -1.94712 0.105899 0
M  V30 3005 O 284.634 -1.75912 -0.862079 0
M  V30 3006 H 283.214 -0.514333 0.541729 0
M  V30 3007 H 285.876 -0.740018 1.80305 0
M  V30 3008 H 284.972 -2.21583 2.19789 0
M  V30 3009 N 285.273 -1.31445 -0.869486 0
M  V30 3010 C 286.522 -1.20517 -1.61736 0
M  V30 3011 C 286.835 0.235341 -1.94179 0
M  V30 3012 O 288.041 0.466312 -2.67465 0
M  V30 3013 C 286.497 -2.10982 -2.91573 0
M  V30 3014 C 286.105 -3.60032 -2.66611 0
M  V30 3015 C 287.849 -2.08856 -3.69567 0
M  V30 3016 C 285.756 -4.42503 -3.92358 0
M  V30 3017 H 284.686 -0.447493 -0.606849 0
M  V30 3018 H 287.337 -1.56303 -0.96133 0
M  V30 3019 H 285.719 -1.68095 -3.58553 0
M  V30 3020 H 286.893 -4.11167 -2.08035 0
M  V30 3021 H 285.208 -3.64139 -2.0197 0
M  V30 3022 H 287.805 -2.67716 -4.62852 0
M  V30 3023 H 288.148 -1.07582 -4.02159 0
M  V30 3024 H 288.681 -2.49945 -3.09471 0
M  V30 3025 H 285.42 -5.44533 -3.64916 0
M  V30 3026 H 284.94 -3.96125 -4.50383 0
M  V30 3027 H 286.619 -4.54741 -4.60238 0
M  V30 3028 N 286.751 1.08385 -1.14413 0
M  V30 3029 C 287.981 1.8425 -0.934644 0
M  V30 3030 C 288.389 1.81907 0.520234 0
M  V30 3031 O 287.732 1.22126 1.37226 0
M  V30 3032 C 287.794 3.32853 -1.35828 0
M  V30 3033 C 287.458 3.5893 -2.82875 0
M  V30 3034 C 288.455 3.53756 -3.80989 0
M  V30 3035 C 286.14 3.86934 -3.20293 0
M  V30 3036 C 288.134 3.76216 -5.14529 0
M  V30 3037 C 285.821 4.09047 -4.54008 0
M  V30 3038 C 286.819 4.03682 -5.50936 0
M  V30 3039 O 286.507 4.25214 -6.82238 0
M  V30 3040 H 286.239 0.588502 -0.332628 0
M  V30 3041 H 288.793 1.37792 -1.52324 0
M  V30 3042 H 287.023 3.8007 -0.713019 0
M  V30 3043 H 288.712 3.90154 -1.11957 0
M  V30 3044 H 289.478 3.32135 -3.53428 0
M  V30 3045 H 285.357 3.9023 -2.45442 0
M  V30 3046 H 288.901 3.71943 -5.90173 0
M  V30 3047 H 284.798 4.30151 -4.8129 0
M  V30 3048 H 285.566 4.42619 -6.88499 0
M  V30 3049 N 288.23 0.939286 1.26551 0
M  V30 3050 C 289.507 0.5038 1.89001 0
M  V30 3051 C 289.887 -1.01854 1.84903 0
M  V30 3052 O 289.235 -1.87773 1.30206 0
M  V30 3053 C 289.445 1.063 3.32417 0
M  V30 3054 C 290.793 1.13051 4.09273 0
M  V30 3055 O 291.817 1.01345 3.41479 0
M  V30 3056 O 290.676 1.31233 5.30509 0
M  V30 3057 H 287.77 0.163897 0.810597 0
M  V30 3058 H 290.316 1.03173 1.34735 0
M  V30 3059 H 289.088 2.10665 3.29752 0
M  V30 3060 H 288.711 0.517408 3.94219 0
M  V30 3061 N 289.708 -1.40897 0.706093 0
M  V30 3062 C 290.936 -2.05373 0.250887 0
M  V30 3063 C 291.351 -1.53172 -1.10381 0
M  V30 3064 O 290.708 -0.684305 -1.69185 0
M  V30 3065 C 290.759 -3.6088 0.211571 0
M  V30 3066 O 290.48 -4.11153 1.51276 0
M  V30 3067 C 291.981 -4.42517 -0.263346 0
M  V30 3068 H 289.201 -0.66115 0.114552 0
M  V30 3069 H 291.745 -1.80479 0.961635 0
M  V30 3070 H 289.9 -3.84777 -0.450073 0
M  V30 3071 H 290.314 -5.05279 1.40689 0
M  V30 3072 H 291.788 -5.51479 -0.239718 0
M  V30 3073 H 292.265 -4.19396 -1.30397 0
M  V30 3074 H 292.871 -4.23708 0.367677 0
M  V30 3075 N 291.186 -0.45159 -1.50991 0
M  V30 3076 C 292.149 0.341117 -2.26647 0
M  V30 3077 C 293.149 0.937422 -1.30649 0
M  V30 3078 O 294.339 0.809644 -1.54241 0
M  V30 3079 C 291.471 1.48398 -3.06905 0
M  V30 3080 H 292.664 -0.322117 -2.98165 0
M  V30 3081 H 290.217 -0.205122 -1.54948 0
M  V30 3082 H 290.952 2.18284 -2.39838 0
M  V30 3083 H 290.737 1.06241 -3.77432 0
M  V30 3084 H 292.227 2.04367 -3.64176 0
M  V30 3085 N 292.664 1.56529 -0.183458 0
M  V30 3086 C 293.611 2.18546 0.742055 0
M  V30 3087 C 294.581 1.12912 1.2182 0
M  V30 3088 O 295.766 1.41115 1.28418 0
M  V30 3089 C 292.906 2.83977 1.96089 0
M  V30 3090 C 292.019 4.04105 1.52719 0
M  V30 3091 C 291.154 4.57427 2.70063 0
M  V30 3092 C 290.193 5.69938 2.23243 0
M  V30 3093 N 289.33 6.17717 3.33722 0
M  V30 3094 H 294.17 2.97284 0.206432 0
M  V30 3095 H 291.707 1.46823 0.0901571 0
M  V30 3096 H 293.665 3.20077 2.67594 0
M  V30 3097 H 292.295 2.07822 2.47002 0
M  V30 3098 H 291.347 3.73745 0.708436 0
M  V30 3099 H 292.659 4.85513 1.1436 0
M  V30 3100 H 291.813 4.95772 3.49708 0
M  V30 3101 H 290.552 3.75101 3.11689 0
M  V30 3102 H 289.557 5.31133 1.42048 0
M  V30 3103 H 290.782 6.54073 1.82661 0
M  V30 3104 H 288.728 5.38317 3.74902 0
M  V30 3105 H 288.645 6.94146 2.99495 0
M  V30 3106 H 289.913 6.60713 4.13616 0
M  V30 3107 N 294.142 -0.090211 1.57342 0
M  V30 3108 C 295.39 -0.791241 1.85967 0
M  V30 3109 C 295.711 -1.7903 0.772859 0
M  V30 3110 O 294.981 -1.94872 -0.200398 0
M  V30 3111 H 293.561 -0.295205 0.686195 0
M  V30 3112 H 296.223 -0.0706782 1.94772 0
M  V30 3113 H 295.319 -1.31882 2.82867 0
M  V30 3114 N 295.62 -1.53406 -0.361157 0
M  V30 3115 C 296.553 -1.74946 -1.46524 0
M  V30 3116 C 297.531 -0.59795 -1.51206 0
M  V30 3117 O 298.715 -0.831062 -1.69191 0
M  V30 3118 C 295.842 -1.83224 -2.84863 0
M  V30 3119 C 294.888 -3.05233 -2.97885 0
M  V30 3120 S 295.721 -4.6466 -2.66179 0
M  V30 3121 C 296.877 -4.75793 -4.06659 0
M  V30 3122 H 297.11 -2.68319 -1.28033 0
M  V30 3123 H 294.643 -1.44051 -0.555764 0
M  V30 3124 H 296.601 -1.88679 -3.64569 0
M  V30 3125 H 295.262 -0.908948 -3.00661 0
M  V30 3126 H 294.455 -3.07648 -3.9921 0
M  V30 3127 H 294.057 -2.97913 -2.26106 0
M  V30 3128 H 296.349 -4.5612 -5.0096 0
M  V30 3129 H 297.292 -5.7786 -4.09247 0
M  V30 3130 H 297.7 -4.04389 -3.93865 0
M  V30 3131 N 297.098 0.621204 -1.44841 0
M  V30 3132 C 298.028 1.74366 -1.55303 0
M  V30 3133 C 299.009 1.65199 -0.405385 0
M  V30 3134 O 300.194 1.83807 -0.626787 0
M  V30 3135 C 297.324 3.12931 -1.50637 0
M  V30 3136 C 296.278 3.36896 -2.63979 0
M  V30 3137 C 295.604 4.75594 -2.44366 0
M  V30 3138 C 296.904 3.28483 -4.06074 0
M  V30 3139 H 298.598 1.65867 -2.49256 0
M  V30 3140 H 296.144 0.796558 -1.19962 0
M  V30 3141 H 298.097 3.9124 -1.56555 0
M  V30 3142 H 296.821 3.22237 -0.532057 0
M  V30 3143 H 295.48 2.60972 -2.57467 0
M  V30 3144 H 295.128 4.81616 -1.45105 0
M  V30 3145 H 294.828 4.92586 -3.20364 0
M  V30 3146 H 296.352 5.5612 -2.52117 0
M  V30 3147 H 297.766 3.96684 -4.13902 0
M  V30 3148 H 296.163 3.57008 -4.82354 0
M  V30 3149 H 297.233 2.26133 -4.28943 0
M  V30 3150 N 298.576 1.31904 0.862503 0
M  V30 3151 C 299.987 1.19803 1.43193 0
M  V30 3152 C 300.338 -0.192567 1.95253 0
M  V30 3153 O 299.463 -1.09081 1.86896 0
M  V30 3154 C 300.058 2.16883 2.60283 0
M  V30 3155 C 298.617 2.08692 3.13248 0
M  V30 3156 C 297.764 2.05691 1.85975 0
M  V30 3157 H 300.715 1.43846 0.670365 0
M  V30 3158 H 300.736 1.76278 3.37204 0
M  V30 3159 H 300.248 3.18083 2.22363 0
M  V30 3160 H 298.349 1.10713 3.55771 0
M  V30 3161 H 298.462 2.9815 3.75025 0
M  V30 3162 H 296.826 1.50814 2.05249 0
M  V30 3163 H 297.609 3.08659 1.50282 0
M  V30 3164 N 300.054 -1.07777 1.14986 0
M  V30 3165 C 301.331 -1.7699 0.832695 0
M  V30 3166 C 301.711 -2.001 -0.672561 0
M  V30 3167 O 301.059 -1.61598 -1.6155 0
M  V30 3168 C 301.269 -3.08139 1.63863 0
M  V30 3169 C 302.617 -3.8256 1.84208 0
M  V30 3170 O 303.641 -3.17939 1.60603 0
M  V30 3171 O 302.5 -4.98612 2.23714 0
M  V30 3172 H 299.594 -0.768389 0.305791 0
M  V30 3173 H 302.14 -1.14182 1.25541 0
M  V30 3174 H 300.912 -2.86909 2.6608 0
M  V30 3175 H 300.535 -3.78678 1.21197 0
M  V30 3176 N 301.532 -0.945985 -1.26051 0
M  V30 3177 C 302.943 -0.638096 -1.75457 0
M  V30 3178 C 303.294 0.846672 -1.76991 0
M  V30 3179 O 302.419 1.66262 -1.38513 0
M  V30 3180 C 303.014 -1.15157 -3.18629 0
M  V30 3181 C 301.573 -0.894004 -3.65629 0
M  V30 3182 C 300.72 -1.29967 -2.44957 0
M  V30 3183 H 303.671 -1.12376 -1.1206 0
M  V30 3184 H 303.692 -0.507615 -3.77099 0
M  V30 3185 H 303.204 -2.23222 -3.1748 0
M  V30 3186 H 301.305 0.172057 -3.72203 0
M  V30 3187 H 301.418 -1.52439 -4.54202 0
M  V30 3188 H 299.782 -0.718078 -2.44368 0
M  V30 3189 H 300.565 -2.38935 -2.46505 0
M  V30 3190 N 303.011 1.40521 -0.713556 0
M  V30 3191 C 303.958 2.30723 -0.059684 0
M  V30 3192 C 304.928 1.48079 0.752448 0
M  V30 3193 O 306.113 1.76823 0.71681 0
M  V30 3194 C 303.253 3.34274 0.857594 0
M  V30 3195 C 302.366 4.31986 0.0351536 0
M  V30 3196 C 301.501 5.22605 0.951724 0
M  V30 3197 C 300.54 6.11976 0.123253 0
M  V30 3198 N 299.677 6.9502 0.99459 0
M  V30 3199 H 304.517 2.86074 -0.834596 0
M  V30 3200 H 302.054 1.40879 -0.42326 0
M  V30 3201 H 304.012 3.92879 1.40364 0
M  V30 3202 H 302.642 2.8043 1.59871 0
M  V30 3203 H 301.694 3.7518 -0.628052 0
M  V30 3204 H 303.006 4.95101 -0.606347 0
M  V30 3205 H 302.16 5.86131 1.56638 0
M  V30 3206 H 300.899 4.59759 1.62705 0
M  V30 3207 H 299.904 5.47482 -0.50435 0
M  V30 3208 H 301.129 6.76881 -0.548539 0
M  V30 3209 H 299.075 6.34764 1.6556 0
M  V30 3210 H 298.992 7.54892 0.40908 0
M  V30 3211 H 300.26 7.62997 1.59549 0
M  V30 3212 N 304.489 0.459591 1.5075 0
M  V30 3213 C 305.437 -0.354678 2.2988 0
M  V30 3214 C 306.431 -1.00086 1.36672 0
M  V30 3215 O 307.637 -0.933277 1.53915 0
M  V30 3216 H 304.012 -0.13321 0.740107 0
M  V30 3217 H 305.983 0.333269 2.96533 0
M  V30 3218 C 304.732 -1.43073 3.169 0
M  V30 3219 H 304.055 -0.942882 3.88523 0
M  V30 3220 H 305.495 -1.97328 3.75284 0
M  V30 3221 C 303.954 -2.42633 2.33732 0
M  V30 3222 O 304.484 -3.47658 2.01238 0
M  V30 3223 N 302.69 -2.14066 1.9653 0
M  V30 3224 H 302.237 -1.28685 2.23155 0
M  V30 3225 H 302.195 -2.80917 1.41185 0
M  V30 3226 N 305.967 -1.56429 0.191757 0
M  V30 3227 C 307.195 -2.01867 -0.453586 0
M  V30 3228 C 307.61 -1.07191 -1.5542 0
M  V30 3229 O 306.967 -0.0762108 -1.82341 0
M  V30 3230 C 307.018 -3.47017 -1.013 0
M  V30 3231 O 306.739 -4.38078 0.0437005 0
M  V30 3232 C 308.24 -4.07956 -1.73456 0
M  V30 3233 H 305.46 -0.661211 -0.114199 0
M  V30 3234 H 308.004 -2.02295 0.299483 0
M  V30 3235 H 306.159 -3.47298 -1.71647 0
M  V30 3236 H 306.573 -5.23178 -0.372212 0
M  V30 3237 H 308.047 -5.1138 -2.07833 0
M  V30 3238 H 308.524 -3.51222 -2.63704 0
M  V30 3239 H 309.13 -4.11437 -1.07702 0
M  V30 3240 N 307.445 0.0818655 -1.57387 0
M  V30 3241 C 308.395 1.10501 -1.99433 0
M  V30 3242 C 309.379 1.35041 -0.874798 0
M  V30 3243 O 310.571 1.35511 -1.13868 0
M  V30 3244 C 307.7 2.42159 -2.43339 0
M  V30 3245 C 306.786 2.20937 -3.62005 0
M  V30 3246 N 307.177 1.69616 -4.76512 0
M  V30 3247 C 305.475 2.51451 -3.68359 0
M  V30 3248 C 306.176 1.62973 -5.58404 0
M  V30 3249 N 305.152 2.08664 -5.01956 0
M  V30 3250 H 308.954 0.701373 -2.85408 0
M  V30 3251 H 306.468 0.289096 -1.59806 0
M  V30 3252 H 308.465 3.16208 -2.71695 0
M  V30 3253 H 307.125 2.83249 -1.58746 0
M  V30 3254 H 308.136 1.38624 -4.99003 0
M  V30 3255 H 304.813 2.95975 -2.94457 0
M  V30 3256 H 306.203 1.24233 -6.60315 0
M  V30 3257 N 308.923 1.53595 0.353017 0
M  V30 3258 C 310.172 1.69603 1.09168 0
M  V30 3259 C 310.485 0.460925 1.90092 0
M  V30 3260 O 311.691 0.501774 2.66823 0
M  V30 3261 C 310.147 2.99872 1.9901 0
M  V30 3262 C 309.755 4.30687 1.23339 0
M  V30 3263 C 311.499 3.25246 2.72792 0
M  V30 3264 C 309.406 5.52036 2.12156 0
M  V30 3265 H 308.336 0.631966 0.411261 0
M  V30 3266 H 310.987 1.80096 0.351802 0
M  V30 3267 H 309.369 2.83212 2.7678 0
M  V30 3268 H 310.543 4.58019 0.505456 0
M  V30 3269 H 308.858 4.11853 0.613663 0
M  V30 3270 H 311.455 4.13095 3.39495 0
M  V30 3271 H 311.798 2.41846 3.38846 0
M  V30 3272 H 312.331 3.42638 2.021 0
M  V30 3273 H 309.07 6.37951 1.50659 0
M  V30 3274 H 308.59 5.28966 2.82764 0
M  V30 3275 H 310.269 5.87313 2.71427 0
M  V30 3276 N 310.401 -0.613514 1.45168 0
M  V30 3277 C 311.647 -1.37471 1.49096 0
M  V30 3278 C 311.98 -1.93765 0.129901 0
M  V30 3279 O 311.255 -1.74707 -0.854858 0
M  V30 3280 C 311.538 -2.52701 2.56542 0
M  V30 3281 C 311.391 -2.01643 4.0207 0
M  V30 3282 C 312.71 -3.54849 2.60327 0
M  V30 3283 H 309.829 -0.498502 0.54283 0
M  V30 3284 H 312.471 -0.692125 1.76945 0
M  V30 3285 H 310.621 -3.10931 2.32926 0
M  V30 3286 H 312.293 -1.48108 4.36877 0
M  V30 3287 H 310.536 -1.32688 4.13009 0
M  V30 3288 H 311.207 -2.84681 4.72928 0
M  V30 3289 H 313.683 -3.0645 2.81474 0
M  V30 3290 H 312.559 -4.32973 3.37381 0
M  V30 3291 H 312.82 -4.10079 1.6519 0
M  V30 3292 N 311.879 -1.3236 -0.855495 0
M  V30 3293 C 313.128 -1.22226 -1.60448 0
M  V30 3294 C 313.441 0.214733 -1.94418 0
M  V30 3295 O 314.647 0.437917 -2.67945 0
M  V30 3296 C 313.103 -2.14063 -2.89318 0
M  V30 3297 C 312.711 -3.62839 -2.62777 0
M  V30 3298 C 314.455 -2.12764 -3.67331 0
M  V30 3299 C 312.362 -4.4664 -3.87643 0
M  V30 3300 H 311.292 -0.453904 -0.602069 0
M  V30 3301 H 313.943 -1.57314 -0.944698 0
M  V30 3302 H 312.325 -1.71889 -3.5675 0
M  V30 3303 H 313.499 -4.1335 -2.03662 0
M  V30 3304 H 311.814 -3.66261 -1.98096 0
M  V30 3305 H 314.411 -2.72611 -4.59987 0
M  V30 3306 H 314.754 -1.11841 -4.00995 0
M  V30 3307 H 315.287 -2.53214 -3.06802 0
M  V30 3308 H 312.026 -5.48373 -3.5912 0
M  V30 3309 H 311.546 -4.0088 -4.46156 0
M  V30 3310 H 313.225 -4.59597 -4.55389 0
M  V30 3311 N 313.357 1.07166 -1.15556 0
M  V30 3312 C 314.582 1.84053 -0.955988 0
M  V30 3313 C 315.007 1.81586 0.490739 0
M  V30 3314 O 314.365 1.21018 1.34997 0
M  V30 3315 C 314.413 3.28957 -1.47714 0
M  V30 3316 O 313.517 4.06795 -0.677593 0
M  V30 3317 H 312.858 0.569842 -0.340847 0
M  V30 3318 H 315.388 1.35178 -1.53584 0
M  V30 3319 H 315.398 3.79788 -1.4908 0
M  V30 3320 H 314.073 3.30068 -2.53037 0
M  V30 3321 H 312.65 3.6561 -0.733721 0
M  V30 3322 N 314.835 0.952656 1.25548 0
M  V30 3323 C 316.081 0.616826 1.93822 0
M  V30 3324 C 316.436 -0.836684 1.73255 0
M  V30 3325 O 315.729 -1.59218 1.06584 0
M  V30 3326 C 315.923 0.908818 3.45652 0
M  V30 3327 C 315.752 2.38916 3.80984 0
M  V30 3328 C 314.522 3.04637 4.03143 0
M  V30 3329 C 316.72 3.36838 3.88645 0
M  V30 3330 N 314.702 4.42565 4.25453 0
M  V30 3331 C 316.073 4.60065 4.1562 0
M  V30 3332 C 318.128 3.31704 3.71318 0
M  V30 3333 C 316.831 5.78795 4.2707 0
M  V30 3334 C 318.857 4.4977 3.84006 0
M  V30 3335 C 318.219 5.71783 4.11392 0
M  V30 3336 H 314.318 0.27629 0.731565 0
M  V30 3337 H 316.902 1.22443 1.5138 0
M  V30 3338 H 315.073 0.330166 3.86994 0
M  V30 3339 H 316.805 0.533093 4.01174 0
M  V30 3340 H 313.56 2.55215 3.98952 0
M  V30 3341 H 313.984 5.1399 4.40617 0
M  V30 3342 H 318.626 2.3842 3.49164 0
M  V30 3343 H 316.344 6.72521 4.48041 0
M  V30 3344 H 319.93 4.47342 3.71989 0
M  V30 3345 H 318.81 6.61617 4.2099 0
M  V30 3346 N 316.313 -1.40141 0.720998 0
M  V30 3347 C 317.246 -2.2819 0.020916 0
M  V30 3348 C 318.224 -1.43633 -0.762129 0
M  V30 3349 O 319.408 -1.7304 -0.747633 0
M  V30 3350 C 316.535 -3.24281 -0.977715 0
M  V30 3351 C 315.581 -4.25548 -0.284836 0
M  V30 3352 S 316.414 -5.26247 0.991169 0
M  V30 3353 C 317.57 -6.259 -0.0052214 0
M  V30 3354 H 317.803 -2.87218 0.767649 0
M  V30 3355 H 315.336 -1.45656 0.512233 0
M  V30 3356 H 317.294 -3.80167 -1.54865 0
M  V30 3357 H 315.955 -2.643 -1.69719 0
M  V30 3358 H 315.148 -4.93154 -1.03996 0
M  V30 3359 H 314.75 -3.73389 0.213684 0
M  V30 3360 H 317.042 -6.72143 -0.850279 0
M  V30 3361 H 317.985 -7.05224 0.637599 0
M  V30 3362 H 318.393 -5.63277 -0.371366 0
M  V30 3363 N 317.792 -0.46758 -1.50504 0
M  V30 3364 C 319.041 0.0902868 -2.01498 0
M  V30 3365 C 319.354 1.411 -1.35463 0
M  V30 3366 O 320.56 2.0536 -1.77594 0
M  V30 3367 C 319.016 0.21142 -3.59278 0
M  V30 3368 C 318.624 -1.10065 -4.34269 0
M  V30 3369 C 320.368 0.721433 -4.18325 0
M  V30 3370 C 318.275 -0.943505 -5.83825 0
M  V30 3371 H 317.205 0.037517 -0.753066 0
M  V30 3372 H 319.856 -0.601943 -1.73346 0
M  V30 3373 H 318.238 0.967352 -3.84003 0
M  V30 3374 H 319.412 -1.86726 -4.21272 0
M  V30 3375 H 317.727 -1.5415 -3.86816 0
M  V30 3376 H 320.324 0.85598 -5.27804 0
M  V30 3377 H 320.667 1.71186 -3.79475 0
M  V30 3378 H 321.2 0.0229843 -3.97793 0
M  V30 3379 H 317.939 -1.90719 -6.27141 0
M  V30 3380 H 317.459 -0.217213 -5.99407 0
M  V30 3381 H 319.138 -0.608715 -6.4413 0
M  V30 3382 N 319.27 1.56325 -0.20005 0
M  V30 3383 C 320.233 2.18084 0.705132 0
M  V30 3384 C 321.233 1.13666 1.1374 0
M  V30 3385 O 322.423 1.39023 1.04968 0
M  V30 3386 C 319.555 2.78689 1.96329 0
M  V30 3387 H 320.748 2.99435 0.167023 0
M  V30 3388 H 318.301 1.56221 0.0495725 0
M  V30 3389 H 319.036 2.0115 2.5438 0
M  V30 3390 H 318.821 3.55133 1.66202 0
M  V30 3391 H 320.311 3.26096 2.60866 0
M  V30 3392 N 320.748 -0.0735177 1.57428 0
M  V30 3393 C 321.68 -1.11423 2.00294 0
M  V30 3394 C 322.693 -1.35084 0.908637 0
M  V30 3395 O 323.882 -1.33355 1.18654 0
M  V30 3396 C 320.982 -2.46548 2.32523 0
M  V30 3397 C 320.155 -2.42867 3.63778 0
M  V30 3398 C 319.214 -3.60087 3.83697 0
M  V30 3399 O 318.24 -3.41595 4.55304 0
M  V30 3400 N 319.442 -4.80372 3.25919 0
M  V30 3401 H 322.207 -0.749206 2.90184 0
M  V30 3402 H 319.768 -0.262195 1.59763 0
M  V30 3403 H 321.76 -3.23607 2.43024 0
M  V30 3404 H 320.33 -2.75059 1.48531 0
M  V30 3405 H 319.55 -1.51206 3.64047 0
M  V30 3406 H 320.838 -2.37506 4.49965 0
M  V30 3407 H 320.236 -4.983 2.67795 0
M  V30 3408 H 318.793 -5.54948 3.41871 0
M  V30 3409 N 322.226 -1.5378 -0.344866 0
M  V30 3410 C 323.454 -1.74899 -1.10534 0
M  V30 3411 C 323.869 -0.487534 -1.82397 0
M  V30 3412 O 323.226 0.540741 -1.74305 0
M  V30 3413 C 323.277 -2.92822 -2.11984 0
M  V30 3414 O 322.998 -4.14089 -1.43044 0
M  V30 3415 C 324.499 -3.25982 -3.00417 0
M  V30 3416 H 321.719 -0.584426 -0.329678 0
M  V30 3417 H 324.263 -2.006 -0.397474 0
M  V30 3418 H 322.418 -2.69457 -2.78338 0
M  V30 3419 H 322.832 -4.80272 -2.10805 0
M  V30 3420 H 324.306 -4.11848 -3.67539 0
M  V30 3421 H 324.783 -2.42228 -3.66363 0
M  V30 3422 H 325.389 -3.51349 -2.39654 0
M  V30 3423 N 323.704 0.605807 -1.45491 0
M  V30 3424 C 324.95 1.36679 -1.49823 0
M  V30 3425 C 325.283 1.93693 -0.140175 0
M  V30 3426 O 324.558 1.75158 0.845581 0
M  V30 3427 C 324.841 2.51337 -2.57879 0
M  V30 3428 C 324.694 1.99508 -4.03134 0
M  V30 3429 C 326.013 3.53463 -2.62205 0
M  V30 3430 H 323.132 0.495617 -0.545466 0
M  V30 3431 H 325.774 0.682732 -1.7731 0
M  V30 3432 H 323.924 3.09691 -2.34571 0
M  V30 3433 H 325.596 1.45789 -4.37656 0
M  V30 3434 H 323.839 1.30496 -4.13707 0
M  V30 3435 H 324.51 2.82169 -4.74431 0
M  V30 3436 H 326.986 3.04953 -2.83095 0
M  V30 3437 H 325.862 4.31178 -3.39672 0
M  V30 3438 H 326.123 4.09197 -1.67363 0
M  V30 3439 N 325.182 1.32811 0.848464 0
M  V30 3440 C 326.41 1.26739 1.63538 0
M  V30 3441 C 326.825 -0.163484 1.88091 0
M  V30 3442 O 326.182 -1.10258 1.45429 0
M  V30 3443 C 326.233 2.03013 2.99112 0
M  V30 3444 O 325.954 3.40518 2.75643 0
M  V30 3445 C 327.455 2.04038 3.93552 0
M  V30 3446 H 324.675 0.437024 0.509167 0
M  V30 3447 H 327.219 1.75033 1.05753 0
M  V30 3448 H 325.374 1.58426 3.53525 0
M  V30 3449 H 325.788 3.79635 3.61908 0
M  V30 3450 H 327.262 2.61877 4.85926 0
M  V30 3451 H 327.739 1.0282 4.26995 0
M  V30 3452 H 328.345 2.486 3.45077 0
M  V30 3453 N 326.66 -1.06551 1.16123 0
M  V30 3454 C 327.623 -2.12132 0.867906 0
M  V30 3455 C 328.623 -1.60224 -0.135944 0
M  V30 3456 O 329.813 -1.73943 0.0946422 0
M  V30 3457 C 326.945 -3.396 0.297419 0
M  V30 3458 H 328.138 -2.39586 1.80385 0
M  V30 3459 H 325.691 -1.22574 0.969812 0
M  V30 3460 H 326.426 -3.17794 -0.64633 0
M  V30 3461 H 326.211 -3.78581 1.02073 0
M  V30 3462 H 327.701 -4.17455 0.110052 0
M  V30 3463 N 328.138 -0.959301 -1.25041 0
M  V30 3464 C 329.384 -0.617525 -1.9317 0
M  V30 3465 C 329.717 0.843981 -1.74902 0
M  V30 3466 O 328.992 1.60615 -1.09696 0
M  V30 3467 C 329.275 -0.982736 -3.46431 0
M  V30 3468 C 329.128 -2.50032 -3.73904 0
M  V30 3469 C 330.447 -0.511176 -4.37121 0
M  V30 3470 H 327.566 -0.22582 -0.701552 0
M  V30 3471 H 330.208 -1.19679 -1.4757 0
M  V30 3472 H 328.358 -0.489806 -3.854 0
M  V30 3473 H 330.03 -3.06737 -3.44544 0
M  V30 3474 H 328.273 -2.93598 -3.19348 0
M  V30 3475 H 328.944 -2.70635 -4.81103 0
M  V30 3476 H 331.42 -0.934075 -4.0548 0
M  V30 3477 H 330.296 -0.795361 -5.43107 0
M  V30 3478 H 330.557 0.588834 -4.38161 0
M  V30 3479 N 329.616 1.39756 -0.72842 0
M  V30 3480 C 330.579 2.29012 -0.0927297 0
M  V30 3481 C 331.579 1.45992 0.674025 0
M  V30 3482 O 332.769 1.66749 0.50402 0
M  V30 3483 C 329.901 3.29396 0.878137 0
M  V30 3484 H 331.094 2.86729 -0.879011 0
M  V30 3485 H 328.647 1.48293 -0.493847 0
M  V30 3486 H 329.382 2.76722 1.69101 0
M  V30 3487 H 329.167 3.907 0.331051 0
M  V30 3488 H 330.657 3.96199 1.3197 0
M  V30 3489 N 331.094 0.475555 1.50254 0
M  V30 3490 C 332.342 -0.077738 2.0195 0
M  V30 3491 C 332.663 -1.39813 1.35931 0
M  V30 3492 O 331.933 -1.89249 0.506123 0
M  V30 3493 H 330.513 -0.031719 0.746326 0
M  V30 3494 H 333.175 0.626995 1.84539 0
M  V30 3495 H 332.271 -0.225995 3.11281 0
M  V30 3496 N 332.573 -1.56217 0.208337 0
M  V30 3497 C 333.503 -2.22694 -0.702116 0
M  V30 3498 C 334.484 -1.19432 -1.2112 0
M  V30 3499 O 335.669 -1.47978 -1.25762 0
M  V30 3500 C 332.799 -2.8966 -1.9161 0
M  V30 3501 C 331.753 -3.9928 -1.5414 0
M  V30 3502 C 331.079 -4.53476 -2.83308 0
M  V30 3503 C 332.379 -5.17012 -0.741339 0
M  V30 3504 H 334.073 -2.99034 -0.147898 0
M  V30 3505 H 331.619 -1.43831 -0.0696951 0
M  V30 3506 H 333.572 -3.34852 -2.55836 0
M  V30 3507 H 332.296 -2.10746 -2.49507 0
M  V30 3508 H 330.955 -3.54799 -0.922668 0
M  V30 3509 H 330.603 -3.71308 -3.39322 0
M  V30 3510 H 330.303 -5.27451 -2.58976 0
M  V30 3511 H 331.827 -5.01378 -3.485 0
M  V30 3512 H 333.241 -5.58667 -1.28699 0
M  V30 3513 H 331.638 -5.97137 -0.595627 0
M  V30 3514 H 332.708 -4.8423 0.254851 0
M  V30 3515 N 334.051 0.0651679 -1.57465 0
M  V30 3516 C 335.279 0.775808 -1.91804 0
M  V30 3517 C 335.694 1.70782 -0.804916 0
M  V30 3518 O 335.051 1.81153 0.221311 0
M  V30 3519 C 335.102 1.56381 -3.25925 0
M  V30 3520 O 334.823 0.669248 -4.32958 0
M  V30 3521 C 336.324 2.37485 -3.7432 0
M  V30 3522 H 333.544 0.2202 -0.63384 0
M  V30 3523 H 336.088 0.0334587 -2.04473 0
M  V30 3524 H 334.243 2.25837 -3.14764 0
M  V30 3525 H 334.657 1.21801 -5.10162 0
M  V30 3526 H 336.131 2.88223 -4.70778 0
M  V30 3527 H 336.608 3.17307 -3.03666 0
M  V30 3528 H 337.214 1.73173 -3.88447 0
M  V30 3529 N 335.529 1.53961 0.336706 0
M  V30 3530 C 336.754 1.75797 1.10046 0
M  V30 3531 C 337.179 0.498985 1.81361 0
M  V30 3532 O 336.537 -0.548769 1.72795 0
M  V30 3533 C 336.585 2.94257 2.08436 0
M  V30 3534 O 335.689 2.64883 3.16087 0
M  V30 3535 H 335.03 0.582936 0.317934 0
M  V30 3536 H 337.56 2.00945 0.38501 0
M  V30 3537 H 337.57 3.21237 2.51537 0
M  V30 3538 H 336.245 3.85564 1.55927 0
M  V30 3539 H 334.822 2.48812 2.77753 0
M  V30 3540 N 337.007 -0.598083 1.45811 0
M  V30 3541 C 338.237 -1.38121 1.53643 0
M  V30 3542 C 338.645 -1.88425 0.171081 0
M  V30 3543 O 337.988 -1.63409 -0.839237 0
M  V30 3544 C 338.05 -2.61432 2.46766 0
M  V30 3545 C 337.714 -2.32702 3.93318 0
M  V30 3546 C 338.711 -1.92479 4.82957 0
M  V30 3547 C 336.396 -2.45321 4.38318 0
M  V30 3548 C 338.39 -1.65248 6.15607 0
M  V30 3549 C 336.077 -2.17703 5.71007 0
M  V30 3550 C 337.075 -1.7773 6.5947 0
M  V30 3551 O 336.763 -1.50441 7.89698 0
M  V30 3552 H 336.495 -0.428863 0.522544 0
M  V30 3553 H 339.049 -0.73557 1.91777 0
M  V30 3554 H 337.279 -3.28749 2.0362 0
M  V30 3555 H 338.968 -3.23487 2.45175 0
M  V30 3556 H 339.734 -1.82258 4.49452 0
M  V30 3557 H 335.613 -2.75399 3.69697 0
M  V30 3558 H 339.157 -1.33973 6.84614 0
M  V30 3559 H 335.054 -2.27544 6.04065 0
M  V30 3560 H 335.822 -1.64415 8.01817 0
M  V30 3561 N 338.485 -1.33259 -0.841409 0
M  V30 3562 C 339.896 -1.22066 -1.41269 0
M  V30 3563 C 340.247 0.161479 -1.95534 0
M  V30 3564 O 339.372 1.06094 -1.88608 0
M  V30 3565 C 339.967 -2.20996 -2.568 0
M  V30 3566 C 338.526 -2.13649 -3.09888 0
M  V30 3567 C 337.673 -2.08623 -1.82679 0
M  V30 3568 H 340.624 -1.44895 -0.647395 0
M  V30 3569 H 340.645 -1.81621 -3.34356 0
M  V30 3570 H 340.157 -3.2158 -2.17274 0
M  V30 3571 H 338.258 -1.16359 -3.53965 0
M  V30 3572 H 338.371 -3.04079 -3.70234 0
M  V30 3573 H 336.735 -1.54061 -2.02824 0
M  V30 3574 H 337.518 -3.1101 -1.45353 0
M  V30 3575 N 339.963 1.05934 -1.16686 0
M  V30 3576 C 341.21 1.788 -0.950622 0
M  V30 3577 C 341.538 1.87384 0.521305 0
M  V30 3578 O 340.793 1.36438 1.40297 0
M  V30 3579 C 341.092 3.23105 -1.52767 0
M  V30 3580 C 340.758 3.34594 -3.02254 0
M  V30 3581 C 339.42 3.37437 -3.43059 0
M  V30 3582 C 341.772 3.36219 -3.98254 0
M  V30 3583 C 339.1 3.39525 -4.78477 0
M  V30 3584 C 341.452 3.39845 -5.33562 0
M  V30 3585 C 340.116 3.40971 -5.73842 0
M  V30 3586 H 339.386 0.654275 -0.347857 0
M  V30 3587 H 342.033 1.24555 -1.45459 0
M  V30 3588 H 340.338 3.80227 -0.94524 0
M  V30 3589 H 342.035 3.7809 -1.336 0
M  V30 3590 H 338.625 3.3309 -2.6972 0
M  V30 3591 H 342.809 3.33231 -3.67792 0
M  V30 3592 H 338.065 3.38703 -5.09009 0
M  V30 3593 H 342.239 3.4005 -6.07733 0
M  V30 3594 H 339.866 3.42342 -6.78753 0
M  V30 3595 N 341.441 0.965919 1.2453 0
M  V30 3596 C 342.718 0.543777 1.87889 0
M  V30 3597 C 343.098 -0.97909 1.87021 0
M  V30 3598 O 342.446 -1.84969 1.3416 0
M  V30 3599 C 342.656 1.13327 3.30088 0
M  V30 3600 C 344.004 1.21707 4.06783 0
M  V30 3601 O 345.028 1.08566 3.39252 0
M  V30 3602 O 343.887 1.42456 5.27606 0
M  V30 3603 H 340.981 0.181054 0.806938 0
M  V30 3604 H 343.527 1.06007 1.32516 0
M  V30 3605 H 342.299 2.17612 3.25209 0
M  V30 3606 H 341.922 0.600911 3.93033 0
M  V30 3607 N 342.919 -1.39368 0.735821 0
M  V30 3608 C 344.147 -2.04795 0.294393 0
M  V30 3609 C 344.562 -1.55478 -1.07107 0
M  V30 3610 O 343.919 -0.720038 -1.67695 0
M  V30 3611 C 343.97 -3.6035 0.288071 0
M  V30 3612 O 343.691 -4.07852 1.59963 0
M  V30 3613 C 345.192 -4.42976 -0.169422 0
M  V30 3614 H 342.412 -0.658571 0.128551 0
M  V30 3615 H 344.956 -1.78399 0.999701 0
M  V30 3616 H 343.111 -3.85645 -0.368355 0
M  V30 3617 H 343.525 -5.02181 1.51375 0
M  V30 3618 H 344.999 -5.51864 -0.122687 0
M  V30 3619 H 345.476 -4.22068 -1.21472 0
M  V30 3620 H 346.082 -4.22832 0.457469 0
M  V30 3621 N 344.397 -0.483516 -1.5 0
M  V30 3622 C 345.643 0.0672592 -2.02688 0
M  V30 3623 C 345.976 1.38247 -1.36387 0
M  V30 3624 O 345.251 1.88131 -0.493675 0
M  V30 3625 C 345.534 0.238109 -3.59312 0
M  V30 3626 C 345.387 -1.099 -4.36168 0
M  V30 3627 C 346.706 0.986916 -4.28892 0
M  V30 3628 H 343.825 0.0229696 -0.736642 0
M  V30 3629 H 346.467 -0.631527 -1.79197 0
M  V30 3630 H 344.617 0.8333 -3.79458 0
M  V30 3631 H 346.289 -1.73172 -4.27562 0
M  V30 3632 H 344.532 -1.69261 -3.99416 0
M  V30 3633 H 345.203 -0.932954 -5.44059 0
M  V30 3634 H 347.679 0.482302 -4.13295 0
M  V30 3635 H 346.555 1.07527 -5.38265 0
M  V30 3636 H 346.816 2.0265 -3.92919 0
M  V30 3637 N 345.875 1.56104 -0.216619 0
M  V30 3638 C 347.291 1.58995 0.13886 0
M  V30 3639 C 347.491 1.23333 1.59346 0
M  V30 3640 O 346.547 0.966234 2.33281 0
M  V30 3641 C 347.86 3.00143 -0.182968 0
M  V30 3642 C 349.408 3.12751 -0.124807 0
M  V30 3643 C 349.883 4.56068 -0.420241 0
M  V30 3644 N 351.374 4.61723 -0.369634 0
M  V30 3645 C 352.109 5.70542 -0.571789 0
M  V30 3646 N 351.605 6.87744 -0.835453 0
M  V30 3647 N 353.398 5.59831 -0.504563 0
M  V30 3648 H 345.549 1.77562 -1.16557 0
M  V30 3649 H 347.812 0.825091 -0.466828 0
M  V30 3650 H 347.518 3.30871 -1.19237 0
M  V30 3651 H 347.392 3.73813 0.504367 0
M  V30 3652 H 349.779 2.81822 0.875223 0
M  V30 3653 H 349.86 2.41421 -0.845544 0
M  V30 3654 H 349.504 4.87713 -1.41769 0
M  V30 3655 H 349.434 5.25617 0.321631 0
M  V30 3656 H 351.925 3.77502 -0.173338 0
M  V30 3657 H 352.238 7.66587 -0.977938 0
M  V30 3658 H 350.583 6.895 -0.872592 0
M  V30 3659 H 353.774 4.67145 -0.298842 0
M  V30 3660 H 353.947 6.44573 -0.665519 0
M  V30 3661 N 347.353 -0.0568162 1.57498 0
M  V30 3662 C 348.769 -0.411933 1.54192 0
M  V30 3663 C 348.969 -1.78287 0.938942 0
M  V30 3664 O 348.025 -2.46483 0.547919 0
M  V30 3665 C 349.338 -0.339244 2.9878 0
M  V30 3666 C 350.886 -0.418348 3.10192 0
M  V30 3667 C 351.361 -0.375407 4.56459 0
M  V30 3668 N 352.852 -0.435038 4.61153 0
M  V30 3669 C 353.587 -0.424265 5.71828 0
M  V30 3670 N 353.083 -0.367418 6.91825 0
M  V30 3671 N 354.876 -0.471938 5.60115 0
M  V30 3672 H 347.027 0.840684 1.95055 0
M  V30 3673 H 349.29 0.316987 0.893433 0
M  V30 3674 H 348.996 0.601742 3.46514 0
M  V30 3675 H 348.87 -1.14371 3.59443 0
M  V30 3676 H 351.257 -1.34976 2.62422 0
M  V30 3677 H 351.338 0.414962 2.52412 0
M  V30 3678 H 350.982 0.552219 5.04889 0
M  V30 3679 H 350.912 -1.22645 5.12119 0
M  V30 3680 H 353.403 -0.482612 3.74806 0
M  V30 3681 H 353.716 -0.363535 7.71944 0
M  V30 3682 H 352.061 -0.333879 6.94198 0
M  V30 3683 H 355.252 -0.514145 4.65268 0
M  V30 3684 H 355.425 -0.460073 6.46365 0
M  V30 3685 N 348.832 -1.54138 -0.328536 0
M  V30 3686 C 350.248 -1.44736 -0.672574 0
M  V30 3687 C 350.448 -0.616217 -1.91846 0
M  V30 3688 O 349.504 -0.113067 -2.52247 0
M  V30 3689 C 350.817 -2.884 -0.851217 0
M  V30 3690 C 352.365 -2.98271 -0.948877 0
M  V30 3691 C 352.84 -4.43074 -1.15973 0
M  V30 3692 N 354.331 -4.46665 -1.22658 0
M  V30 3693 C 355.066 -5.55857 -1.40751 0
M  V30 3694 N 354.562 -6.75026 -1.5592 0
M  V30 3695 N 356.355 -5.43495 -1.4342 0
M  V30 3696 H 348.506 -2.06661 0.490421 0
M  V30 3697 H 350.769 -0.934812 0.157579 0
M  V30 3698 H 350.475 -3.51699 -0.00704236 0
M  V30 3699 H 350.349 -3.34225 -1.74853 0
M  V30 3700 H 352.736 -2.35102 -1.78356 0
M  V30 3701 H 352.817 -2.55785 -0.0281435 0
M  V30 3702 H 352.461 -5.06827 -0.329915 0
M  V30 3703 H 352.391 -4.83165 -2.09426 0
M  V30 3704 H 354.882 -3.60797 -1.124 0
M  V30 3705 H 355.195 -7.54004 -1.69404 0
M  V30 3706 H 353.54 -6.77944 -1.53027 0
M  V30 3707 H 356.731 -4.49349 -1.31162 0
M  V30 3708 H 356.904 -6.28649 -1.57178 0
M  V30 3709 N 350.31 0.590341 -1.46126 0
M  V30 3710 C 351.243 1.71434 -1.50617 0
M  V30 3711 C 352.221 1.58543 -0.360948 0
M  V30 3712 O 353.405 1.79865 -0.563985 0
M  V30 3713 C 350.532 3.09422 -1.37753 0
M  V30 3714 C 349.578 3.40854 -2.5636 0
M  V30 3715 S 350.411 3.33773 -4.18755 0
M  V30 3716 C 351.567 4.74312 -4.08386 0
M  V30 3717 H 351.8 1.67364 -2.45717 0
M  V30 3718 H 349.333 0.76845 -1.33919 0
M  V30 3719 H 351.291 3.8903 -1.31018 0
M  V30 3720 H 349.952 3.10989 -0.440949 0
M  V30 3721 H 349.145 4.41368 -2.43332 0
M  V30 3722 H 348.747 2.68798 -2.60046 0
M  V30 3723 H 351.039 5.64522 -3.74595 0
M  V30 3724 H 351.982 4.92397 -5.08872 0
M  V30 3725 H 352.39 4.50803 -3.3976 0
M  V30 3726 N 351.788 1.33704 0.83433 0
M  V30 3727 C 352.721 1.18675 1.94914 0
M  V30 3728 C 353.699 0.0811145 1.62398 0
M  V30 3729 O 354.883 0.244186 1.86912 0
M  V30 3730 C 352.01 0.821231 3.28593 0
M  V30 3731 C 351.056 1.93501 3.80079 0
M  V30 3732 S 351.889 3.54671 4.01209 0
M  V30 3733 C 353.045 3.20136 5.37833 0
M  V30 3734 H 353.278 2.13043 2.07364 0
M  V30 3735 H 350.811 1.18598 0.988624 0
M  V30 3736 H 352.769 0.617123 4.05835 0
M  V30 3737 H 351.43 -0.103927 3.13928 0
M  V30 3738 H 350.623 1.63273 4.76821 0
M  V30 3739 H 350.225 2.09601 3.09747 0
M  V30 3740 H 352.517 2.71242 6.20833 0
M  V30 3741 H 353.46 4.15975 5.73036 0
M  V30 3742 H 353.868 2.56613 5.02802 0
M  V30 3743 N 353.266 -1.05314 1.17247 0
M  V30 3744 C 354.199 -2.12512 0.831507 0
M  V30 3745 C 355.177 -1.61351 -0.201168 0
M  V30 3746 O 356.361 -1.88317 -0.0829831 0
M  V30 3747 C 353.488 -3.37848 0.24015 0
M  V30 3748 C 352.534 -4.07832 1.24801 0
M  V30 3749 S 353.367 -4.56537 2.79882 0
M  V30 3750 C 354.523 -5.85122 2.22223 0
M  V30 3751 H 354.756 -2.41106 1.7394 0
M  V30 3752 H 352.289 -1.17896 0.996988 0
M  V30 3753 H 354.247 -4.10391 -0.0945588 0
M  V30 3754 H 352.908 -3.07392 -0.645668 0
M  V30 3755 H 352.101 -4.97883 0.78287 0
M  V30 3756 H 351.703 -3.41348 1.52831 0
M  V30 3757 H 353.995 -6.58408 1.59703 0
M  V30 3758 H 354.938 -6.36381 3.10523 0
M  V30 3759 H 355.346 -5.39626 1.65722 0
M  V30 3760 N 354.744 -0.972509 -1.24016 0
M  V30 3761 C 355.676 -0.464375 -2.24446 0
M  V30 3762 C 356.689 0.4295 -1.57032 0
M  V30 3763 O 357.878 0.234902 -1.76948 0
M  V30 3764 C 354.978 0.348385 -3.37105 0
M  V30 3765 C 354.151 -0.53673 -4.34094 0
M  V30 3766 C 353.21 0.220838 -5.25736 0
M  V30 3767 O 352.236 -0.386867 -5.67884 0
M  V30 3768 N 353.438 1.50907 -5.60542 0
M  V30 3769 H 356.203 -1.32788 -2.68677 0
M  V30 3770 H 353.764 -0.844877 -1.38107 0
M  V30 3771 H 355.756 0.863341 -3.95384 0
M  V30 3772 H 354.326 1.11285 -2.92121 0
M  V30 3773 H 353.546 -1.23261 -3.74433 0
M  V30 3774 H 354.834 -1.14022 -4.95859 0
M  V30 3775 H 354.232 2.02444 -5.28236 0
M  V30 3776 H 352.789 1.96962 -6.21329 0
M  V30 3777 N 356.222 1.38976 -0.743202 0
M  V30 3778 C 357.447 2.05161 -0.303936 0
M  V30 3779 C 357.872 1.55677 1.05576 0
M  V30 3780 O 357.23 0.704131 1.67068 0
M  V30 3781 C 357.278 3.59138 -0.324373 0
M  V30 3782 O 356.382 4.06668 0.685204 0
M  V30 3783 H 355.723 0.649815 -0.136518 0
M  V30 3784 H 358.253 1.77852 -1.01142 0
M  V30 3785 H 358.263 4.07639 -0.171618 0
M  V30 3786 H 356.938 3.94515 -1.31647 0
M  V30 3787 H 355.515 3.69561 0.497913 0
M  V30 3788 N 357.7 0.491464 1.49741 0
M  V30 3789 C 358.948 -0.0563141 2.02022 0
M  V30 3790 C 359.269 -1.38363 1.37407 0
M  V30 3791 O 358.539 -1.88702 0.526166 0
M  V30 3792 H 357.119 -0.0238014 0.746621 0
M  V30 3793 H 359.781 0.646533 1.83864 0
M  V30 3794 H 358.877 -0.192967 3.11503 0
M  V30 3795 N 359.178 -1.55987 0.224894 0
M  V30 3796 C 360.594 -1.59066 -0.130426 0
M  V30 3797 C 360.794 -1.24176 -1.5869 0
M  V30 3798 O 359.85 -0.978592 -2.32766 0
M  V30 3799 C 361.163 -3.00042 0.198883 0
M  V30 3800 C 362.711 -3.1268 0.141391 0
M  V30 3801 C 363.186 -4.55839 0.444422 0
M  V30 3802 N 364.677 -4.6152 0.394115 0
M  V30 3803 C 365.412 -5.70231 0.602038 0
M  V30 3804 N 364.908 -6.87291 0.871914 0
M  V30 3805 N 366.701 -5.59555 0.534245 0
M  V30 3806 H 358.852 -1.76941 1.17497 0
M  V30 3807 H 361.115 -0.822604 0.471197 0
M  V30 3808 H 360.821 -3.30234 1.2099 0
M  V30 3809 H 360.695 -3.74075 -0.484535 0
M  V30 3810 H 363.082 -2.82283 -0.860265 0
M  V30 3811 H 363.163 -2.40969 0.858335 0
M  V30 3812 H 362.807 -4.86954 1.44353 0
M  V30 3813 H 362.737 -5.2578 -0.293752 0
M  V30 3814 H 365.228 -3.77405 0.193356 0
M  V30 3815 H 365.541 -7.66058 1.01858 0
M  V30 3816 H 363.886 -6.89028 0.909145 0
M  V30 3817 H 367.077 -4.6698 0.323612 0
M  V30 3818 H 367.25 -6.44211 0.699693 0
M  V30 3819 N 360.656 0.0484629 -1.57525 0
M  V30 3820 C 361.603 1.05504 -2.05275 0
M  V30 3821 C 362.573 1.37084 -0.937927 0
M  V30 3822 O 363.758 1.47754 -1.2072 0
M  V30 3823 C 360.898 2.35676 -2.52093 0
M  V30 3824 C 360.011 2.10423 -3.77288 0
M  V30 3825 C 359.146 3.34327 -4.12794 0
M  V30 3826 C 358.185 3.04542 -5.30962 0
M  V30 3827 N 357.322 4.20841 -5.61994 0
M  V30 3828 H 362.162 0.640885 -2.91027 0
M  V30 3829 H 359.699 0.304854 -1.43906 0
M  V30 3830 H 361.657 3.11709 -2.77297 0
M  V30 3831 H 360.287 2.7485 -1.69285 0
M  V30 3832 H 359.339 1.24976 -3.59284 0
M  V30 3833 H 360.651 1.84438 -4.63448 0
M  V30 3834 H 359.805 4.1874 -4.39024 0
M  V30 3835 H 358.544 3.63408 -3.25247 0
M  V30 3836 H 357.549 2.18528 -5.04505 0
M  V30 3837 H 358.774 2.76758 -6.20146 0
M  V30 3838 H 356.72 4.4991 -4.77406 0
M  V30 3839 H 356.637 3.98212 -6.42622 0
M  V30 3840 H 357.905 5.06184 -5.92789 0
M  V30 3841 N 362.134 1.5431 0.320358 0
M  V30 3842 C 363.382 1.72327 1.05583 0
M  V30 3843 C 363.703 0.50149 1.88441 0
M  V30 3844 O 362.973 -0.48448 1.89815 0
M  V30 3845 H 361.553 0.635387 0.3928 0
M  V30 3846 H 364.215 1.91621 0.356019 0
M  V30 3847 H 363.311 2.60426 1.72003 0
M  V30 3848 N 363.613 -0.582584 1.46437 0
M  V30 3849 C 364.841 -1.36682 1.55324 0
M  V30 3850 C 365.256 -1.87796 0.194409 0
M  V30 3851 O 364.613 -1.63623 -0.808318 0
M  V30 3852 C 364.664 -2.55426 2.55812 0
M  V30 3853 O 364.385 -2.0643 3.86417 0
M  V30 3854 C 365.886 -3.47976 2.74641 0
M  V30 3855 H 363.106 -0.417545 0.525259 0
M  V30 3856 H 365.65 -0.708219 1.91845 0
M  V30 3857 H 363.805 -3.17275 2.22295 0
M  V30 3858 H 364.219 -2.83762 4.41111 0
M  V30 3859 H 365.693 -4.27775 3.48874 0
M  V30 3860 H 366.17 -3.99919 1.81553 0
M  V30 3861 H 366.776 -2.91962 3.09255 0
M  V30 3862 N 365.091 -1.34144 -0.827227 0
M  V30 3863 C 366.368 -1.16844 -1.56865 0
M  V30 3864 C 366.748 0.260654 -2.09485 0
M  V30 3865 O 366.096 1.26138 -1.9053 0
M  V30 3866 C 366.306 -2.21939 -2.6934 0
M  V30 3867 C 367.654 -2.56695 -3.3822 0
M  V30 3868 O 368.678 -2.20695 -2.79593 0
M  V30 3869 O 367.537 -3.18518 -4.44082 0
M  V30 3870 H 364.631 -0.452669 -0.692112 0
M  V30 3871 H 367.177 -1.45763 -0.868973 0
M  V30 3872 H 365.949 -3.17882 -2.28182 0
M  V30 3873 H 365.572 -1.94172 -3.46962 0
M  V30 3874 N 366.569 1.04691 -1.17803 0
M  V30 3875 C 367.818 1.77176 -0.963931 0
M  V30 3876 C 368.131 1.88888 0.508015 0
M  V30 3877 O 369.337 2.58164 0.840465 0
M  V30 3878 C 367.793 3.18518 -1.67555 0
M  V30 3879 C 367.401 3.14919 -3.18637 0
M  V30 3880 C 369.145 3.95424 -1.54402 0
M  V30 3881 C 367.052 4.51081 -3.82466 0
M  V30 3882 H 365.982 0.664116 -0.357023 0
M  V30 3883 H 368.633 1.17303 -1.4111 0
M  V30 3884 H 367.015 3.78748 -1.15613 0
M  V30 3885 H 368.189 2.64178 -3.77554 0
M  V30 3886 H 366.504 2.51512 -3.31859 0
M  V30 3887 H 369.101 4.96106 -1.99456 0
M  V30 3888 H 369.444 4.13343 -0.495329 0
M  V30 3889 H 369.977 3.41754 -2.0359 0
M  V30 3890 H 366.716 4.38368 -4.87354 0
M  V30 3891 H 366.236 5.01951 -3.28337 0
M  V30 3892 H 367.915 5.2001 -3.84965 0
M  V30 3893 N 368.047 0.979072 1.23499 0
M  V30 3894 C 368.98 0.463027 2.23453 0
M  V30 3895 C 369.958 -0.469128 1.55685 0
M  V30 3896 O 371.142 -0.397882 1.84253 0
M  V30 3897 C 368.269 -0.330308 3.37086 0
M  V30 3898 C 367.315 0.545795 4.22993 0
M  V30 3899 S 368.148 1.99285 4.97037 0
M  V30 3900 C 369.304 1.20862 6.1412 0
M  V30 3901 H 369.537 1.31005 2.6688 0
M  V30 3902 H 367.07 0.784965 1.32957 0
M  V30 3903 H 369.028 -0.782027 4.02982 0
M  V30 3904 H 367.689 -1.15244 2.92194 0
M  V30 3905 H 366.882 -0.0638928 5.03959 0
M  V30 3906 H 366.484 0.933705 3.62157 0
M  V30 3907 H 368.776 0.469284 6.75873 0
M  V30 3908 H 369.719 1.99307 6.79472 0
M  V30 3909 H 370.127 0.727992 5.59786 0
M  V30 3910 N 369.525 -1.3858 0.750561 0
M  V30 3911 C 370.755 -2.04175 0.31564 0
M  V30 3912 C 371.163 -1.56726 -1.05989 0
M  V30 3913 O 370.506 -0.734225 -1.68389 0
M  V30 3914 C 370.568 -3.58585 0.256389 0
M  V30 3915 C 370.232 -4.29077 1.57296 0
M  V30 3916 C 371.229 -4.54656 2.52159 0
M  V30 3917 C 368.914 -4.67324 1.84156 0
M  V30 3918 C 370.908 -5.17512 3.72103 0
M  V30 3919 C 368.595 -5.29905 3.04374 0
M  V30 3920 C 369.593 -5.54933 3.98168 0
M  V30 3921 O 369.281 -6.16212 5.16273 0
M  V30 3922 H 369.013 -0.662742 0.133226 0
M  V30 3923 H 371.567 -1.78313 1.01948 0
M  V30 3924 H 369.797 -3.83406 -0.503677 0
M  V30 3925 H 371.486 -4.05628 -0.148612 0
M  V30 3926 H 372.252 -4.25539 2.32683 0
M  V30 3927 H 368.131 -4.47191 1.11988 0
M  V30 3928 H 371.675 -5.36963 4.45327 0
M  V30 3929 H 367.572 -5.58444 3.23745 0
M  V30 3930 H 368.34 -6.34701 5.16815 0
M  V30 3931 N 371.003 -0.499398 -1.49478 0
M  V30 3932 C 372.231 0.0425456 -2.06856 0
M  V30 3933 C 372.646 1.30964 -1.35992 0
M  V30 3934 O 372.003 1.77172 -0.437762 0
M  V30 3935 C 372.054 0.301735 -3.60239 0
M  V30 3936 O 371.775 -0.915127 -4.28436 0
M  V30 3937 C 373.276 0.887499 -4.34325 0
M  V30 3938 H 370.496 -0.0197482 -0.670709 0
M  V30 3939 H 373.04 -0.696297 -1.92281 0
M  V30 3940 H 371.195 0.990556 -3.74522 0
M  V30 3941 H 371.609 -0.676993 -5.20113 0
M  V30 3942 H 373.083 1.01845 -5.42523 0
M  V30 3943 H 373.56 1.88488 -3.96698 0
M  V30 3944 H 374.166 0.236196 -4.24644 0
M  V30 3945 N 372.481 1.55866 -0.233164 0
M  V30 3946 C 373.729 1.9821 0.394593 0
M  V30 3947 C 374.05 1.12234 1.59463 0
M  V30 3948 O 373.32 0.201981 1.94856 0
M  V30 3949 H 371.9 0.732034 0.148778 0
M  V30 3950 H 374.562 1.92107 -0.32876 0
M  V30 3951 H 373.658 3.03845 0.713063 0
M  V30 3952 N 373.959 -0.0401083 1.57549 0
M  V30 3953 C 375.187 -0.745196 1.93014 0
M  V30 3954 C 375.602 -1.6948 0.831984 0
M  V30 3955 O 374.959 -1.81482 -0.192463 0
M  V30 3956 C 375.01 -1.51176 3.28372 0
M  V30 3957 O 374.731 -0.600284 4.33968 0
M  V30 3958 C 376.232 -2.315 3.78051 0
M  V30 3959 H 373.452 -0.210088 0.637263 0
M  V30 3960 H 375.996 -0.000924689 2.045 0
M  V30 3961 H 374.151 -2.20801 3.18317 0
M  V30 3962 H 374.565 -1.13669 5.12035 0
M  V30 3963 H 376.039 -2.80697 4.75303 0
M  V30 3964 H 376.516 -3.12436 3.08675 0
M  V30 3965 H 377.122 -1.66971 3.91153 0
M  V30 3966 N 375.437 -1.54477 -0.31217 0
M  V30 3967 C 376.367 -1.87652 -1.38957 0
M  V30 3968 C 377.348 -0.734358 -1.53431 0
M  V30 3969 O 378.533 -0.98911 -1.67123 0
M  V30 3970 C 375.663 -2.11396 -2.75552 0
M  V30 3971 C 374.617 -3.27243 -2.75855 0
M  V30 3972 C 373.943 -3.36382 -4.15633 0
M  V30 3973 C 375.243 -4.64622 -2.38587 0
M  V30 3974 H 376.937 -2.77887 -1.11442 0
M  V30 3975 H 374.483 -1.33707 -0.534655 0
M  V30 3976 H 376.436 -2.33189 -3.51 0
M  V30 3977 H 375.16 -1.17921 -3.04569 0
M  V30 3978 H 373.819 -3.05356 -2.02863 0
M  V30 3979 H 373.467 -2.40445 -4.41809 0
M  V30 3980 H 373.167 -4.14249 -4.1674 0
M  V30 3981 H 374.691 -3.60422 -4.92877 0
M  V30 3982 H 376.105 -4.86219 -3.03749 0
M  V30 3983 H 374.502 -5.45121 -2.50925 0
M  V30 3984 H 375.572 -4.66097 -1.33723 0
M  V30 3985 N 376.915 0.57481 -1.46744 0
M  V30 3986 C 378.192 1.3352 -1.4294 0
M  V30 3987 C 378.572 2.10775 -0.117009 0
M  V30 3988 O 377.92 2.09966 0.901474 0
M  V30 3989 C 378.13 2.25456 -2.66403 0
M  V30 3990 C 379.478 2.87035 -3.12883 0
M  V30 3991 O 380.502 2.35766 -2.67007 0
M  V30 3992 O 379.361 3.80179 -3.92589 0
M  V30 3993 H 376.455 0.600318 -0.568812 0
M  V30 3994 H 379.001 0.595171 -1.58921 0
M  V30 3995 H 377.773 1.67851 -3.53471 0
M  V30 3996 H 377.396 3.06785 -2.52921 0
M  V30 3997 N 378.394 1.34581 0.820102 0
M  V30 3998 C 379.634 1.28448 1.58998 0
M  V30 3999 C 379.998 -0.142883 1.91468 0
M  V30 4000 O 381.199 -0.328422 2.66786 0
M  V30 4001 C 379.47 2.153 2.85273 0
M  V30 4002 S 381.029 2.26548 3.75794 0
M  V30 4003 H 377.847 0.456685 0.54494 0
M  V30 4004 H 380.449 1.69825 0.968487 0
M  V30 4005 H 379.153 3.18008 2.59421 0
M  V30 4006 H 378.684 1.7483 3.52417 0
M  V30 4007 H 380.699 1.44034 4.74835 0
M  V30 4008 N 379.872 -1.04064 1.18357 0
M  V30 4009 C 381.118 -1.77658 0.990412 0
M  V30 4010 C 381.473 -1.86446 -0.474944 0
M  V30 4011 O 380.766 -1.36153 -1.34807 0
M  V30 4012 C 380.96 -3.20634 1.57888 0
M  V30 4013 C 380.789 -3.25782 3.09994 0
M  V30 4014 C 379.559 -3.34411 3.7881 0
M  V30 4015 C 381.757 -3.13791 4.0748 0
M  V30 4016 N 379.739 -3.28809 5.18418 0
M  V30 4017 C 381.11 -3.15689 5.33611 0
M  V30 4018 C 383.165 -2.97833 3.98998 0
M  V30 4019 C 381.868 -3.03268 6.52243 0
M  V30 4020 C 383.894 -2.86759 5.17227 0
M  V30 4021 C 383.256 -2.893 6.4225 0
M  V30 4022 H 379.355 -0.661901 0.416427 0
M  V30 4023 H 381.939 -1.23968 1.50133 0
M  V30 4024 H 380.11 -3.7267 1.09414 0
M  V30 4025 H 381.842 -3.82525 1.32124 0
M  V30 4026 H 378.597 -3.40144 3.29543 0
M  V30 4027 H 379.021 -3.29448 5.91433 0
M  V30 4028 H 383.663 -2.94698 3.03171 0
M  V30 4029 H 381.381 -3.05156 7.48268 0
M  V30 4030 H 384.967 -2.75465 5.12455 0
M  V30 4031 H 383.847 -2.80818 7.32196 0
M  V30 4032 N 381.35 -0.985608 -1.22978 0
M  V30 4033 C 382.766 -0.695104 -1.43668 0
M  V30 4034 C 382.966 0.736866 -1.87543 0
M  V30 4035 O 382.022 1.50868 -2.02473 0
M  V30 4036 C 383.335 -1.69447 -2.48412 0
M  V30 4037 C 384.883 -1.70909 -2.62219 0
M  V30 4038 C 385.358 -2.6969 -3.70178 0
M  V30 4039 N 386.849 -2.6824 -3.77626 0
M  V30 4040 C 387.584 -3.41339 -4.60733 0
M  V30 4041 N 387.08 -4.24015 -5.4789 0
M  V30 4042 N 388.873 -3.30079 -4.54977 0
M  V30 4043 H 381.024 -1.91054 -0.928016 0
M  V30 4044 H 383.287 -0.823553 -0.469536 0
M  V30 4045 H 382.993 -2.7188 -2.23102 0
M  V30 4046 H 382.867 -1.48147 -3.46889 0
M  V30 4047 H 385.254 -0.691785 -2.86877 0
M  V30 4048 H 385.335 -1.96276 -1.6404 0
M  V30 4049 H 384.979 -3.71566 -3.46268 0
M  V30 4050 H 384.909 -2.41595 -4.67909 0
M  V30 4051 H 387.4 -2.08243 -3.15346 0
M  V30 4052 H 387.713 -4.76636 -6.08308 0
M  V30 4053 H 386.058 -4.28104 -5.47496 0
M  V30 4054 H 389.249 -2.64937 -3.85909 0
M  V30 4055 H 389.422 -3.87308 -5.19516 0
M  V30 4056 N 382.828 1.3818 -0.7579 0
M  V30 4057 C 383.775 2.30416 -0.133057 0
M  V30 4058 C 384.745 1.50398 0.704957 0
M  V30 4059 O 385.93 1.79014 0.660192 0
M  V30 4060 C 383.07 3.36834 0.750813 0
M  V30 4061 C 382.183 4.31879 -0.102297 0
M  V30 4062 C 381.318 5.25368 0.784979 0
M  V30 4063 C 380.357 6.12058 -0.0715046 0
M  V30 4064 N 379.494 6.97832 0.772972 0
M  V30 4065 H 384.334 2.83274 -0.925186 0
M  V30 4066 H 381.871 1.39461 -0.467866 0
M  V30 4067 H 383.829 3.97145 1.27794 0
M  V30 4068 H 382.459 2.85374 1.50868 0
M  V30 4069 H 381.511 3.72991 -0.747095 0
M  V30 4070 H 382.823 4.92921 -0.763552 0
M  V30 4071 H 381.977 5.90818 1.37911 0
M  V30 4072 H 380.716 4.64703 1.47996 0
M  V30 4073 H 379.721 5.456 -0.678272 0
M  V30 4074 H 380.946 6.74793 -0.763606 0
M  V30 4075 H 378.892 6.3971 1.45282 0
M  V30 4076 H 378.809 7.55812 0.168709 0
M  V30 4077 H 380.077 7.67687 1.35194 0
M  V30 4078 N 384.306 0.507319 1.49211 0
M  V30 4079 C 385.555 -0.0368315 2.01666 0
M  V30 4080 C 385.868 -1.37459 1.39156 0
M  V30 4081 O 387.074 -2.00579 1.82976 0
M  V30 4082 C 385.53 -0.116089 3.59713 0
M  V30 4083 C 385.138 1.2154 4.31198 0
M  V30 4084 C 386.882 -0.610268 4.2009 0
M  V30 4085 C 384.789 1.09796 5.81119 0
M  V30 4086 H 383.719 -0.0175376 0.753796 0
M  V30 4087 H 386.37 0.647691 1.71689 0
M  V30 4088 H 384.752 -0.8652 3.86433 0
M  V30 4089 H 385.926 1.9783 4.16173 0
M  V30 4090 H 384.241 1.64352 3.82593 0
M  V30 4091 H 386.838 -0.715742 5.29888 0
M  V30 4092 H 387.181 -1.61064 3.8388 0
M  V30 4093 H 387.714 0.0824916 3.97714 0
M  V30 4094 H 384.453 2.0728 6.21864 0
M  V30 4095 H 383.973 0.376058 5.9862 0
M  V30 4096 H 385.652 0.779281 6.4229 0
M  V30 4097 N 385.784 -1.5574 0.241426 0
M  V30 4098 C 386.747 -2.19877 -0.647063 0
M  V30 4099 C 387.747 -1.16642 -1.10686 0
M  V30 4100 O 388.937 -1.41757 -1.01245 0
M  V30 4101 C 386.069 -2.83797 -1.88871 0
M  V30 4102 H 387.262 -2.99772 -0.087574 0
M  V30 4103 H 384.815 -1.56298 -0.00813574 0
M  V30 4104 H 385.55 -2.07824 -2.48957 0
M  V30 4105 H 385.335 -3.59414 -1.56728 0
M  V30 4106 H 386.825 -3.32898 -2.52129 0
M  V30 4107 N 387.262 0.0317525 -1.57568 0
M  V30 4108 C 388.678 0.38735 -1.54828 0
M  V30 4109 C 388.878 1.7677 -0.967187 0
M  V30 4110 O 387.934 2.45581 -0.587063 0
M  V30 4111 C 389.247 0.291667 -2.99282 0
M  V30 4112 C 390.795 0.368946 -3.10818 0
M  V30 4113 C 391.27 0.302741 -4.56998 0
M  V30 4114 N 392.761 0.361617 -4.61786 0
M  V30 4115 C 393.496 0.333238 -5.72431 0
M  V30 4116 N 392.992 0.257308 -6.92322 0
M  V30 4117 N 394.785 0.382769 -5.60795 0
M  V30 4118 H 386.936 -0.871609 -1.93692 0
M  V30 4119 H 389.199 -0.331161 -0.888277 0
M  V30 4120 H 388.905 -0.656794 -3.45513 0
M  V30 4121 H 388.779 1.08638 -3.61217 0
M  V30 4122 H 391.166 1.30784 -2.64536 0
M  V30 4123 H 391.247 -0.455066 -2.5172 0
M  V30 4124 H 390.891 -0.632473 -5.03947 0
M  V30 4125 H 390.821 1.14482 -5.14005 0
M  V30 4126 H 393.312 0.422923 -3.75526 0
M  V30 4127 H 393.625 0.24068 -7.72425 0
M  V30 4128 H 391.97 0.223396 -6.94641 0
M  V30 4129 H 395.161 0.44006 -4.66027 0
M  V30 4130 H 395.334 0.357184 -6.47015 0
M  V30 4131 N 388.74 1.54641 0.303973 0
M  V30 4132 C 390.017 1.64455 1.05896 0
M  V30 4133 C 390.397 0.490923 2.05312 0
M  V30 4134 O 389.745 -0.512685 2.22674 0
M  V30 4135 C 389.955 3.02331 1.74347 0
M  V30 4136 C 391.303 3.59045 2.26653 0
M  V30 4137 O 392.327 3.04764 1.84384 0
M  V30 4138 O 391.186 4.54081 3.04093 0
M  V30 4139 H 388.28 0.666729 0.489287 0
M  V30 4140 H 390.826 1.66986 0.302298 0
M  V30 4141 H 389.598 3.77734 1.02142 0
M  V30 4142 H 389.221 3.03565 2.56777 0
M  V30 4143 N 390.218 -0.567019 1.47046 0
M  V30 4144 C 391.128 -1.70247 1.6141 0
M  V30 4145 C 392.144 -1.66746 0.497157 0
M  V30 4146 O 393.32 -1.86371 0.763389 0
M  V30 4147 C 390.385 -3.06756 1.61561 0
M  V30 4148 C 389.446 -3.21399 2.84607 0
M  V30 4149 C 388.679 -4.51396 2.84741 0
M  V30 4150 O 388.902 -5.36255 1.94388 0
M  V30 4151 O 387.836 -4.69621 3.76483 0
M  V30 4152 H 391.662 -1.61073 2.57467 0
M  V30 4153 H 389.247 -0.735894 1.30019 0
M  V30 4154 H 391.129 -3.8801 1.64396 0
M  V30 4155 H 389.804 -3.16333 0.686684 0
M  V30 4156 H 388.711 -2.39579 2.8732 0
M  V30 4157 H 390.044 -3.16721 3.76761 0
M  V30 4158 N 391.696 -1.35014 -0.812953 0
M  V30 4159 C 392.944 -1.27678 -1.56661 0
M  V30 4160 C 393.265 0.150359 -1.94419 0
M  V30 4161 O 392.535 1.08532 -1.63088 0
M  V30 4162 H 391.115 -0.469602 -0.580933 0
M  V30 4163 H 393.777 -1.69043 -0.970076 0
M  V30 4164 H 392.873 -1.88833 -2.48492 0
M  V30 4165 N 393.175 1.03435 -1.18907 0
M  V30 4166 C 394.423 1.76394 -0.986382 0
M  V30 4167 C 394.744 1.88883 0.484567 0
M  V30 4168 O 394.014 1.41843 1.3512 0
M  V30 4169 H 392.594 0.65344 -0.361975 0
M  V30 4170 H 395.256 1.248 -1.49703 0
M  V30 4171 H 394.352 2.77424 -1.42978 0
M  V30 4172 N 394.653 0.992116 1.22453 0
M  V30 4173 C 395.6 0.541731 2.24352 0
M  V30 4174 C 396.57 -0.425519 1.60557 0
M  V30 4175 O 397.755 -0.330453 1.87917 0
M  V30 4176 C 394.895 -0.138248 3.44823 0
M  V30 4177 C 394.008 0.870649 4.23136 0
M  V30 4178 C 393.143 0.164269 5.30946 0
M  V30 4179 C 392.182 1.16159 6.00977 0
M  V30 4180 N 391.319 0.483568 7.00433 0
M  V30 4181 H 396.159 1.41541 2.62241 0
M  V30 4182 H 393.696 0.709013 1.28885 0
M  V30 4183 H 395.654 -0.5494 4.13567 0
M  V30 4184 H 394.284 -0.975721 3.077 0
M  V30 4185 H 393.336 1.40013 3.53696 0
M  V30 4186 H 394.648 1.63014 4.7141 0
M  V30 4187 H 393.802 -0.303653 6.0594 0
M  V30 4188 H 392.541 -0.627733 4.83643 0
M  V30 4189 H 391.546 1.64015 5.24766 0
M  V30 4190 H 392.771 1.95445 6.50368 0
M  V30 4191 H 390.717 -0.289012 6.55363 0
M  V30 4192 H 390.634 1.18152 7.4671 0
M  V30 4193 H 391.902 0.0384219 7.79491 0
M  V30 4194 N 396.131 -1.37776 0.765217 0
M  V30 4195 C 397.094 -2.28686 0.153416 0
M  V30 4196 C 398.094 -1.47727 -0.635081 0
M  V30 4197 O 399.284 -1.68027 -0.459632 0
M  V30 4198 C 396.416 -3.31608 -0.790495 0
M  V30 4199 H 397.609 -2.84297 0.954723 0
M  V30 4200 H 395.162 -1.46932 0.53299 0
M  V30 4201 H 395.897 -2.81109 -1.61705 0
M  V30 4202 H 395.682 -3.9144 -0.227348 0
M  V30 4203 H 397.172 -3.99559 -1.21419 0
M  V30 4204 N 397.609 -0.515225 -1.4894 0
M  V30 4205 C 398.856 0.024215 -2.02486 0
M  V30 4206 C 399.184 1.35671 -1.39368 0
M  V30 4207 O 398.439 1.88566 -0.523574 0
M  V30 4208 C 398.738 0.210595 -3.56779 0
M  V30 4209 C 398.404 -1.04569 -4.38607 0
M  V30 4210 C 397.066 -1.39002 -4.60686 0
M  V30 4211 C 399.418 -1.88008 -4.86109 0
M  V30 4212 C 396.746 -2.568 -5.27514 0
M  V30 4213 C 399.098 -3.04972 -5.54234 0
M  V30 4214 C 397.762 -3.39768 -5.74555 0
M  V30 4215 H 397.032 0.00886088 -0.740947 0
M  V30 4216 H 399.679 -0.678263 -1.79086 0
M  V30 4217 H 397.984 0.99572 -3.78936 0
M  V30 4218 H 399.681 0.642659 -3.95817 0
M  V30 4219 H 396.271 -0.767497 -4.21672 0
M  V30 4220 H 400.455 -1.62719 -4.68867 0
M  V30 4221 H 395.711 -2.8398 -5.41447 0
M  V30 4222 H 399.885 -3.69943 -5.90013 0
M  V30 4223 H 397.512 -4.31148 -6.26112 0
M  V30 4224 N 399.087 1.5561 -0.249682 0
M  V30 4225 C 400.334 1.99011 0.374287 0
M  V30 4226 C 400.662 1.13785 1.57744 0
M  V30 4227 O 399.917 0.189326 1.94782 0
M  V30 4228 C 400.216 3.4775 0.824887 0
M  V30 4229 C 399.882 4.50086 -0.270819 0
M  V30 4230 C 398.544 4.77791 -0.571746 0
M  V30 4231 C 400.896 5.11312 -1.01041 0
M  V30 4232 C 398.224 5.63997 -1.61629 0
M  V30 4233 C 400.576 5.98651 -2.0445 0
M  V30 4234 C 399.24 6.24688 -2.35204 0
M  V30 4235 H 398.51 0.728233 0.136961 0
M  V30 4236 H 401.157 1.88122 -0.358087 0
M  V30 4237 H 399.462 3.55985 1.63651 0
M  V30 4238 H 401.159 3.78721 1.31799 0
M  V30 4239 H 397.749 4.28592 -0.026136 0
M  V30 4240 H 401.933 4.89953 -0.791177 0
M  V30 4241 H 397.189 5.82425 -1.85988 0
M  V30 4242 H 401.363 6.45135 -2.62248 0
M  V30 4243 H 398.99 6.91281 -3.16282 0
M  V30 4244 N 400.565 -0.0233959 1.57583 0
M  V30 4245 C 401.512 -1.02224 2.06927 0
M  V30 4246 C 402.482 -1.35575 0.959617 0
M  V30 4247 O 403.667 -1.45815 1.23055 0
M  V30 4248 C 400.807 -2.31636 2.5581 0
M  V30 4249 C 399.92 -2.04394 3.80588 0
M  V30 4250 C 399.055 -3.27717 4.18061 0
M  V30 4251 C 398.094 -2.96056 5.3574 0
M  V30 4252 N 397.231 -4.11847 5.68618 0
M  V30 4253 H 402.071 -0.594504 2.9201 0
M  V30 4254 H 399.608 -0.281921 1.44373 0
M  V30 4255 H 401.566 -3.07258 2.82221 0
M  V30 4256 H 400.196 -2.72122 1.73636 0
M  V30 4257 H 399.248 -1.19244 3.61227 0
M  V30 4258 H 400.56 -1.77042 4.66323 0
M  V30 4259 H 399.714 -4.11702 4.4563 0
M  V30 4260 H 398.453 -3.58188 3.30988 0
M  V30 4261 H 397.458 -2.10474 5.07918 0
M  V30 4262 H 398.683 -2.66857 6.24471 0
M  V30 4263 H 396.629 -4.42258 4.84504 0
M  V30 4264 H 396.546 -3.87938 6.48876 0
M  V30 4265 H 397.814 -4.96689 6.00766 0
M  V30 4266 N 402.043 -1.548 -0.295768 0
M  V30 4267 C 403.291 -1.73985 -1.02828 0
M  V30 4268 C 403.612 -0.531406 -1.87619 0
M  V30 4269 O 402.882 0.454221 -1.90561 0
M  V30 4270 H 401.462 -0.641556 -0.382642 0
M  V30 4271 H 404.124 -1.92163 -0.325489 0
M  V30 4272 H 403.22 -2.63129 -1.67838 0
M  V30 4273 N 403.521 0.559213 -1.47345 0
M  V30 4274 C 404.484 1.64854 -1.59235 0
M  V30 4275 C 405.484 1.53851 -0.467607 0
M  V30 4276 O 406.674 1.58045 -0.732617 0
M  V30 4277 C 403.806 3.04388 -1.53496 0
M  V30 4278 H 404.999 1.55662 -2.56339 0
M  V30 4279 H 402.552 0.778973 -1.35505 0
M  V30 4280 H 403.287 3.19115 -0.577604 0
M  V30 4281 H 403.072 3.13783 -2.35123 0
M  V30 4282 H 404.562 3.83642 -1.6495 0
M  V30 4283 N 404.999 1.35443 0.805782 0
M  V30 4284 C 406.245 1.2996 1.56467 0
M  V30 4285 C 406.6 -0.124742 1.91995 0
M  V30 4286 O 405.893 -1.07533 1.58579 0
M  V30 4287 C 406.087 2.14045 2.86216 0
M  V30 4288 C 405.916 3.64512 2.63365 0
M  V30 4289 C 404.686 4.33744 2.59219 0
M  V30 4290 C 406.884 4.58142 2.33688 0
M  V30 4291 N 404.866 5.69953 2.28094 0
M  V30 4292 C 406.237 5.8248 2.12408 0
M  V30 4293 C 408.292 4.46877 2.19558 0
M  V30 4294 C 406.995 6.96818 1.78429 0
M  V30 4295 C 409.021 5.61065 1.86976 0
M  V30 4296 C 408.383 6.84431 1.66532 0
M  V30 4297 H 404.482 0.530817 0.574245 0
M  V30 4298 H 407.066 1.70333 0.943126 0
M  V30 4299 H 405.237 1.75942 3.46264 0
M  V30 4300 H 406.969 2.00075 3.51784 0
M  V30 4301 H 403.724 3.86365 2.73896 0
M  V30 4302 H 404.148 6.41845 2.15323 0
M  V30 4303 H 408.79 3.52102 2.34061 0
M  V30 4304 H 406.508 7.91559 1.62664 0
M  V30 4305 H 410.094 5.54302 1.7675 0
M  V30 4306 H 408.974 7.71294 1.41688 0
M  V30 4307 N 406.477 -1.02803 1.19454 0
M  V30 4308 C 407.702 -1.80378 1.02364 0
M  V30 4309 C 408.127 -1.83282 -0.423007 0
M  V30 4310 O 407.485 -1.25945 -1.30413 0
M  V30 4311 C 407.533 -3.23248 1.59821 0
M  V30 4312 O 406.637 -4.04 0.828105 0
M  V30 4313 H 405.978 -0.556799 0.361761 0
M  V30 4314 H 408.508 -1.29385 1.58495 0
M  V30 4315 H 408.518 -3.73994 1.63073 0
M  V30 4316 H 407.193 -3.2045 2.65113 0
M  V30 4317 H 405.77 -3.62635 0.86891 0
M  V30 4318 N 407.956 -0.998596 -1.21925 0
M  V30 4319 C 408.904 -0.546641 -2.26085 0
M  V30 4320 C 409.898 0.405576 -1.64473 0
M  V30 4321 O 411.104 0.277471 -1.77849 0
M  V30 4322 H 407.479 -0.158403 -0.735127 0
M  V30 4323 H 409.45 -1.43645 -2.61551 0
M  V30 4324 C 408.199 0.117388 -3.47502 0
M  V30 4325 H 407.522 -0.606277 -3.95176 0
M  V30 4326 H 408.962 0.396993 -4.22137 0
M  V30 4327 C 407.421 1.35455 -3.0847 0
M  V30 4328 O 407.951 2.44944 -3.18379 0
M  V30 4329 N 406.157 1.23191 -2.63196 0
M  V30 4330 H 405.704 0.341006 -2.55333 0
M  V30 4331 H 405.662 2.06071 -2.37449 0
M  V30 4332 N 409.434 1.37368 -0.772513 0
M  V30 4333 C 410.68 1.99969 -0.337681 0
M  V30 4334 C 411.013 1.61184 1.08321 0
M  V30 4335 O 410.288 0.858395 1.74533 0
M  V30 4336 C 410.571 3.56858 -0.482121 0
M  V30 4337 C 410.424 4.0555 -1.94549 0
M  V30 4338 C 411.743 4.39955 0.113143 0
M  V30 4339 H 408.862 0.726464 -0.124171 0
M  V30 4340 H 411.504 1.63034 -0.975699 0
M  V30 4341 H 409.654 3.88452 0.0610361 0
M  V30 4342 H 411.326 3.84518 -2.54841 0
M  V30 4343 H 409.569 3.57715 -2.45403 0
M  V30 4344 H 410.24 5.14587 -1.9976 0
M  V30 4345 H 412.716 4.14623 -0.35031 0
M  V30 4346 H 411.592 5.48897 -0.0180514 0
M  V30 4347 H 411.853 4.25403 1.20354 0
M  V30 4348 N 410.912 0.523116 1.48665 0
M  V30 4349 C 411.842 -0.23231 2.32342 0
M  V30 4350 C 412.823 -0.941637 1.41659 0
M  V30 4351 O 414.008 -0.928751 1.70552 0
M  V30 4352 C 411.138 -1.28387 3.22698 0
M  V30 4353 C 410.092 -0.693098 4.22351 0
M  V30 4354 C 409.418 -1.8468 5.01794 0
M  V30 4355 C 410.718 0.33063 5.21252 0
M  V30 4356 H 412.412 0.466192 2.95748 0
M  V30 4357 H 409.958 0.225643 1.42221 0
M  V30 4358 H 411.911 -1.82024 3.80059 0
M  V30 4359 H 410.635 -2.01186 2.57278 0
M  V30 4360 H 409.294 -0.178299 3.66166 0
M  V30 4361 H 408.942 -2.56301 4.32804 0
M  V30 4362 H 408.642 -1.45747 5.69238 0
M  V30 4363 H 410.166 -2.38709 5.62006 0
M  V30 4364 H 411.58 -0.118407 5.73178 0
M  V30 4365 H 409.977 0.636974 5.9671 0
M  V30 4366 H 411.047 1.23883 4.68808 0
M  V30 4367 N 412.39 -1.55475 0.257931 0
M  V30 4368 C 413.806 -1.59307 -0.0966563 0
M  V30 4369 C 414.006 -1.27514 -1.5602 0
M  V30 4370 O 413.062 -1.02774 -2.30637 0
M  V30 4371 C 414.375 -2.99552 0.262481 0
M  V30 4372 C 415.923 -3.1231 0.207683 0
M  V30 4373 C 416.398 -4.54793 0.541012 0
M  V30 4374 N 417.889 -4.6058 0.491921 0
M  V30 4375 C 418.624 -5.68825 0.722857 0
M  V30 4376 N 418.12 -6.85287 1.0175 0
M  V30 4377 N 419.913 -5.58296 0.652815 0
M  V30 4378 H 412.064 -1.74409 1.21224 0
M  V30 4379 H 414.327 -0.812424 0.48854 0
M  V30 4380 H 414.033 -3.27593 1.27967 0
M  V30 4381 H 413.907 -3.75019 -0.40508 0
M  V30 4382 H 416.294 -2.84044 -0.800195 0
M  V30 4383 H 416.375 -2.39095 0.909255 0
M  V30 4384 H 416.019 -4.83783 1.5465 0
M  V30 4385 H 415.949 -5.26285 -0.18216 0
M  V30 4386 H 418.44 -3.7691 0.273366 0
M  V30 4387 H 418.753 -7.63725 1.18084 0
M  V30 4388 H 417.098 -6.86945 1.05509 0
M  V30 4389 H 420.289 -4.66189 0.422592 0
M  V30 4390 H 420.462 -6.42582 0.836182 0
M  V30 4391 N 413.868 0.0150385 -1.57593 0
M  V30 4392 C 415.116 0.701613 -1.8953 0
M  V30 4393 C 415.437 1.75139 -0.857396 0
M  V30 4394 O 414.707 1.95607 0.107194 0
M  V30 4395 H 413.287 0.26213 -0.699498 0
M  V30 4396 H 415.949 -0.0223304 -1.94887 0
M  V30 4397 H 415.045 1.18236 -2.88837 0
M  V30 4398 N 415.346 1.54954 0.287554 0
M  V30 4399 C 416.279 1.81737 1.3801 0
M  V30 4400 C 417.257 0.669412 1.48181 0
M  V30 4401 O 418.441 0.910839 1.65033 0
M  V30 4402 C 415.568 1.96606 2.75796 0
M  V30 4403 C 414.614 3.19098 2.82982 0
M  V30 4404 S 415.447 4.7683 2.43707 0
M  V30 4405 C 416.603 4.94653 3.83496 0
M  V30 4406 H 416.836 2.74122 1.15085 0
M  V30 4407 H 414.369 1.46538 0.486403 0
M  V30 4408 H 416.327 2.05858 3.55152 0
M  V30 4409 H 414.988 1.05136 2.95982 0
M  V30 4410 H 414.181 3.26344 3.84077 0
M  V30 4411 H 413.783 3.08361 2.11635 0
M  V30 4412 H 416.075 4.79502 4.78628 0
M  V30 4413 H 417.018 5.96728 3.8121 0
M  V30 4414 H 417.426 4.2272 3.74123 0
M  V30 4415 N 416.824 -0.551391 1.4764 0
M  V30 4416 C 418.072 -1.30572 1.54258 0
M  V30 4417 C 418.393 -1.93877 0.208963 0
M  V30 4418 O 417.663 -1.80234 -0.767619 0
M  V30 4419 H 416.243 -0.484894 0.568231 0
M  V30 4420 H 418.905 -0.643402 1.83974 0
M  V30 4421 H 418.001 -2.09621 2.31226 0
M  V30 4422 N 418.302 -1.35869 -0.798587 0
M  V30 4423 C 419.55 -1.29332 -1.55298 0
M  V30 4424 C 419.871 0.129729 -1.94568 0
M  V30 4425 O 419.141 1.06796 -1.6423 0
M  V30 4426 H 417.721 -0.475737 -0.57592 0
M  V30 4427 H 420.383 -1.70062 -0.952093 0
M  V30 4428 H 419.479 -1.91458 -2.46476 0
M  V30 4429 N 419.78 1.02168 -1.19998 0
M  V30 4430 C 420.743 2.08765 -0.94604 0
M  V30 4431 C 421.743 1.60618 0.0763846 0
M  V30 4432 O 422.933 1.73472 -0.159135 0
M  V30 4433 C 420.065 3.38262 -0.423255 0
M  V30 4434 H 421.258 2.32726 -1.89153 0
M  V30 4435 H 418.811 1.1889 -1.01464 0
M  V30 4436 H 419.546 3.19974 0.527938 0
M  V30 4437 H 419.331 3.74532 -1.16053 0
M  V30 4438 H 420.821 4.16759 -0.264911 0
M  V30 4439 N 421.258 1.00505 1.21394 0
M  V30 4440 C 422.505 0.687774 1.90462 0
M  V30 4441 C 422.833 -0.78147 1.7811 0
M  V30 4442 O 422.088 -1.58208 1.1519 0
M  V30 4443 C 422.387 1.0546 3.41486 0
M  V30 4444 C 422.053 2.51812 3.74034 0
M  V30 4445 C 420.715 2.91804 3.82628 0
M  V30 4446 C 423.067 3.46614 3.8924 0
M  V30 4447 C 420.395 4.2556 4.03876 0
M  V30 4448 C 422.747 4.80044 4.11995 0
M  V30 4449 C 421.411 5.19759 4.18816 0
M  V30 4450 H 420.681 0.251674 0.696951 0
M  V30 4451 H 423.328 1.26349 1.43903 0
M  V30 4452 H 421.633 0.397133 3.89782 0
M  V30 4453 H 423.33 0.786976 3.93202 0
M  V30 4454 H 419.92 2.1982 3.67936 0
M  V30 4455 H 424.104 3.16883 3.81967 0
M  V30 4456 H 419.36 4.55901 4.07387 0
M  V30 4457 H 423.534 5.53439 4.22704 0
M  V30 4458 H 421.161 6.23418 4.35033 0
M  V30 4459 N 422.737 -1.36956 0.779787 0
M  V30 4460 C 423.983 -1.99787 0.348281 0
M  V30 4461 C 424.316 -1.61756 -1.07465 0
M  V30 4462 O 423.591 -0.867639 -1.74075 0
M  V30 4463 C 423.874 -3.56597 0.50104 0
M  V30 4464 C 423.727 -4.04513 1.96697 0
M  V30 4465 C 425.046 -4.40008 -0.0898097 0
M  V30 4466 H 422.165 -0.725796 0.128022 0
M  V30 4467 H 424.807 -1.62514 0.984331 0
M  V30 4468 H 422.957 -3.88479 -0.0404347 0
M  V30 4469 H 424.629 -3.83161 2.56876 0
M  V30 4470 H 422.872 -3.56408 2.47297 0
M  V30 4471 H 423.543 -5.1352 2.02486 0
M  V30 4472 H 426.019 -4.14431 0.372293 0
M  V30 4473 H 424.895 -5.4888 0.0471605 0
M  V30 4474 H 425.156 -4.26035 -1.18096 0
M  V30 4475 N 424.215 -0.530993 -1.48385 0
M  V30 4476 C 425.145 0.219985 -2.32461 0
M  V30 4477 C 426.126 0.934111 -1.42156 0
M  V30 4478 O 427.311 0.919694 -1.71042 0
M  V30 4479 C 424.441 1.26674 -3.23375 0
M  V30 4480 C 423.395 0.67069 -4.22712 0
M  V30 4481 C 422.721 1.82017 -5.02766 0
M  V30 4482 C 424.021 -0.358268 -5.2107 0
M  V30 4483 H 425.715 -0.48187 -2.95497 0
M  V30 4484 H 423.261 -0.233182 -1.42099 0
M  V30 4485 H 425.214 1.80006 -3.81019 0
M  V30 4486 H 423.938 1.99818 -2.58341 0
M  V30 4487 H 422.597 0.158878 -3.66256 0
M  V30 4488 H 422.245 2.54002 -4.34157 0
M  V30 4489 H 421.945 1.42727 -5.70003 0
M  V30 4490 H 423.469 2.35725 -5.63264 0
M  V30 4491 H 424.883 0.0880081 -5.73232 0
M  V30 4492 H 423.28 -0.66861 -5.96364 0
M  V30 4493 H 424.35 -1.26367 -4.68145 0
M  V30 4494 N 425.693 1.55336 -0.266172 0
M  V30 4495 C 426.939 1.99692 0.353681 0
M  V30 4496 C 427.272 1.1543 1.56172 0
M  V30 4497 O 426.547 0.222218 1.93226 0
M  V30 4498 C 426.83 3.52316 0.74466 0
M  V30 4499 C 426.683 4.47337 -0.470101 0
M  V30 4500 C 428.002 4.10588 1.58447 0
M  V30 4501 H 425.121 0.725961 0.12708 0
M  V30 4502 H 427.763 1.86336 -0.371333 0
M  V30 4503 H 425.913 3.63829 1.36239 0
M  V30 4504 H 427.585 4.4778 -1.10864 0
M  V30 4505 H 425.828 4.19364 -1.10978 0
M  V30 4506 H 426.499 5.51788 -0.15291 0
M  V30 4507 H 428.975 4.02297 1.06286 0
M  V30 4508 H 427.851 5.17607 1.82686 0
M  V30 4509 H 428.112 3.60253 2.56262 0
M  V30 4510 N 427.171 -0.0066808 1.57599 0
M  V30 4511 C 428.101 -0.999296 2.11036 0
M  V30 4512 C 429.082 -1.36278 1.01795 0
M  V30 4513 O 430.267 -1.4477 1.29442 0
M  V30 4514 C 427.397 -2.29328 2.60818 0
M  V30 4515 C 426.351 -2.07159 3.74525 0
M  V30 4516 C 425.677 -3.42512 4.10596 0
M  V30 4517 C 426.977 -1.43959 5.02069 0
M  V30 4518 H 428.671 -0.554382 2.94223 0
M  V30 4519 H 426.217 -0.265221 1.41536 0
M  V30 4520 H 428.17 -2.99117 2.96828 0
M  V30 4521 H 426.894 -2.7592 1.74745 0
M  V30 4522 H 425.553 -1.39797 3.38899 0
M  V30 4523 H 425.201 -3.86795 3.21556 0
M  V30 4524 H 424.901 -3.28498 4.87199 0
M  V30 4525 H 426.425 -4.13628 4.4916 0
M  V30 4526 H 427.839 -2.03696 5.35893 0
M  V30 4527 H 426.236 -1.40452 5.83432 0
M  V30 4528 H 427.306 -0.407992 4.83181 0
M  V30 4529 N 428.649 -1.55105 -0.279332 0
M  V30 4530 C 429.879 -1.7917 -1.02867 0
M  V30 4531 C 430.287 -0.56204 -1.80659 0
M  V30 4532 O 429.63 0.478266 -1.77365 0
M  V30 4533 C 429.692 -2.96061 -2.03932 0
M  V30 4534 C 429.356 -4.33341 -1.45137 0
M  V30 4535 C 430.353 -5.12565 -0.870266 0
M  V30 4536 C 428.038 -4.79987 -1.48048 0
M  V30 4537 C 430.032 -6.36565 -0.326097 0
M  V30 4538 C 427.719 -6.03944 -0.932443 0
M  V30 4539 C 428.717 -6.8207 -0.356247 0
M  V30 4540 O 428.405 -8.03691 0.183412 0
M  V30 4541 H 428.137 -0.600796 -0.309872 0
M  V30 4542 H 430.691 -2.02932 -0.317468 0
M  V30 4543 H 428.921 -2.67975 -2.78794 0
M  V30 4544 H 430.61 -3.07506 -2.64943 0
M  V30 4545 H 431.376 -4.77661 -0.840521 0
M  V30 4546 H 427.255 -4.1919 -1.91835 0
M  V30 4547 H 430.799 -6.97489 0.124286 0
M  V30 4548 H 426.696 -6.3833 -0.959407 0
M  V30 4549 H 427.464 -8.18468 0.0721681 0
M  V30 4550 N 430.127 0.543554 -1.4793 0
M  V30 4551 C 431.404 1.30458 -1.4574 0
M  V30 4552 C 431.784 2.1048 -0.161692 0
M  V30 4553 O 431.132 2.11831 0.856734 0
M  V30 4554 C 431.342 2.19754 -2.71126 0
M  V30 4555 C 432.69 2.80334 -3.18901 0
M  V30 4556 O 433.714 2.30049 -2.71948 0
M  V30 4557 O 432.573 3.71766 -4.00565 0
M  V30 4558 H 429.667 0.588117 -0.581418 0
M  V30 4559 H 432.213 0.561328 -1.60147 0
M  V30 4560 H 430.985 1.60316 -3.56952 0
M  V30 4561 H 430.608 3.01351 -2.59371 0
M  V30 4562 N 431.605 1.3629 0.791371 0
M  V30 4563 C 432.515 1.32606 1.93527 0
M  V30 4564 C 433.531 0.228541 1.72493 0
M  V30 4565 O 434.707 0.460571 1.96063 0
M  V30 4566 C 431.772 1.11271 3.28359 0
M  V30 4567 C 430.833 2.3048 3.62185 0
M  V30 4568 C 430.066 2.10154 4.90583 0
M  V30 4569 O 430.289 1.07572 5.60165 0
M  V30 4570 O 429.223 2.97884 5.23019 0
M  V30 4571 H 433.049 2.28909 1.99585 0
M  V30 4572 H 430.634 1.16818 0.931344 0
M  V30 4573 H 432.516 1.01283 4.09047 0
M  V30 4574 H 431.191 0.180292 3.23198 0
M  V30 4575 H 430.098 2.46036 2.81811 0
M  V30 4576 H 431.431 3.22221 3.72068 0
M  V30 4577 N 433.083 -1.0153 1.20538 0
M  V30 4578 C 434.332 -1.74558 1.01057 0
M  V30 4579 C 434.645 -1.90168 -0.457756 0
M  V30 4580 O 435.851 -2.60301 -0.771722 0
M  V30 4581 C 434.307 -3.13963 1.75941 0
M  V30 4582 C 433.915 -3.06361 3.26875 0
M  V30 4583 C 435.659 -3.91191 1.64832 0
M  V30 4584 C 433.566 -4.40782 3.94291 0
M  V30 4585 H 432.496 -0.654417 0.374505 0
M  V30 4586 H 435.147 -1.13521 1.44171 0
M  V30 4587 H 433.529 -3.75549 1.25614 0
M  V30 4588 H 434.703 -2.54074 3.84425 0
M  V30 4589 H 433.018 -2.42625 3.38411 0
M  V30 4590 H 435.615 -4.90644 2.12539 0
M  V30 4591 H 435.958 -4.11884 0.604745 0
M  V30 4592 H 436.491 -3.36236 2.12579 0
M  V30 4593 H 433.23 -4.25292 4.98805 0
M  V30 4594 H 432.75 -4.9307 3.41529 0
M  V30 4595 H 434.429 -5.09621 3.98617 0
M  V30 4596 N 434.561 -1.01147 -1.20859 0
M  V30 4597 C 435.508 -0.577354 -2.23462 0
M  V30 4598 C 436.478 0.399922 -1.61214 0
M  V30 4599 O 437.663 0.300515 -1.88419 0
M  V30 4600 C 434.803 0.083372 -3.44999 0
M  V30 4601 C 433.916 -0.937856 -4.21697 0
M  V30 4602 C 433.051 -0.248717 -5.30617 0
M  V30 4603 C 432.09 -1.25705 -5.99053 0
M  V30 4604 N 431.227 -0.594939 -6.99575 0
M  V30 4605 H 436.067 -1.45695 -2.59956 0
M  V30 4606 H 433.604 -0.729428 -1.27741 0
M  V30 4607 H 435.562 0.483535 -4.14388 0
M  V30 4608 H 434.192 0.926645 -3.09214 0
M  V30 4609 H 433.244 -1.45622 -3.51423 0
M  V30 4610 H 434.556 -1.70493 -4.68757 0
M  V30 4611 H 433.71 0.207215 -6.06346 0
M  V30 4612 H 432.449 0.55071 -4.84581 0
M  V30 4613 H 431.454 -1.72343 -5.2209 0
M  V30 4614 H 432.679 -2.05767 -6.47176 0
M  V30 4615 H 430.625 0.184713 -6.5574 0
M  V30 4616 H 430.542 -1.30017 -7.44736 0
M  V30 4617 H 431.81 -0.162427 -7.79331 0
M  V30 4618 N 436.039 1.36541 -0.78704 0
M  V30 4619 C 436.986 2.30082 -0.181901 0
M  V30 4620 C 437.956 1.5186 0.672896 0
M  V30 4621 O 439.141 1.80374 0.622072 0
M  V30 4622 C 436.281 3.3835 0.679197 0
M  V30 4623 C 435.394 4.31565 -0.193882 0
M  V30 4624 C 434.529 5.26915 0.673364 0
M  V30 4625 C 433.568 6.11769 -0.201315 0
M  V30 4626 N 432.705 6.99315 0.624777 0
M  V30 4627 H 437.545 2.81248 -0.985064 0
M  V30 4628 H 435.082 1.38437 -0.497342 0
M  V30 4629 H 437.04 3.99767 1.19341 0
M  V30 4630 H 435.67 2.8851 1.44781 0
M  V30 4631 H 434.722 3.71323 -0.826044 0
M  V30 4632 H 436.034 4.91191 -0.867937 0
M  V30 4633 H 435.188 5.9361 1.25348 0
M  V30 4634 H 433.927 4.67737 1.38105 0
M  V30 4635 H 432.932 5.44039 -0.793849 0
M  V30 4636 H 434.157 6.73022 -0.906568 0
M  V30 4637 H 432.103 6.42648 1.3168 0
M  V30 4638 H 432.02 7.56 0.00835237 0
M  V30 4639 H 433.288 7.70382 1.18879 0
M  V30 4640 N 437.518 0.538854 1.48102 0
M  V30 4641 C 438.748 0.0122958 2.06596 0
M  V30 4642 C 439.156 -1.27861 1.39457 0
M  V30 4643 O 438.499 -1.77348 0.478907 0
M  V30 4644 C 438.561 -0.273131 3.58461 0
M  V30 4645 C 438.225 0.92561 4.47528 0
M  V30 4646 C 439.222 1.82637 4.86765 0
M  V30 4647 C 436.907 1.13511 4.89306 0
M  V30 4648 C 438.901 2.92047 5.66558 0
M  V30 4649 C 436.588 2.23233 5.68868 0
M  V30 4650 C 437.586 3.12333 6.07402 0
M  V30 4651 O 437.274 4.20155 6.85365 0
M  V30 4652 H 437.006 0.0344283 0.675123 0
M  V30 4653 H 439.56 0.746494 1.91355 0
M  V30 4654 H 437.79 -1.06141 3.71848 0
M  V30 4655 H 439.479 -0.742842 3.99045 0
M  V30 4656 H 440.245 1.67649 4.55103 0
M  V30 4657 H 436.124 0.450835 4.5879 0
M  V30 4658 H 439.668 3.6162 5.96554 0
M  V30 4659 H 435.565 2.38201 5.99942 0
M  V30 4660 H 436.333 4.17975 7.03732 0
M  V30 4661 N 438.996 -1.55193 0.274407 0
M  V30 4662 C 440.224 -2.03987 -0.345943 0
M  V30 4663 C 440.639 -1.15279 -1.4952 0
M  V30 4664 O 439.996 -0.172759 -1.8168 0
M  V30 4665 C 440.047 -3.51898 -0.827631 0
M  V30 4666 O 439.768 -4.37231 0.275855 0
M  V30 4667 C 441.269 -4.16577 -1.51587 0
M  V30 4668 H 438.489 -0.666335 -0.0789892 0
M  V30 4669 H 441.033 -2.00423 0.406294 0
M  V30 4670 H 439.188 -3.55909 -1.52996 0
M  V30 4671 H 439.602 -5.24415 -0.0943638 0
M  V30 4672 H 441.076 -5.21678 -1.80433 0
M  V30 4673 H 441.553 -3.64707 -2.44716 0
M  V30 4674 H 442.159 -4.16568 -0.857409 0
M  V30 4675 O 440.513 -0.140013 -1.60892 0
M  V30 4676 H 441.204 0.455152 -1.88277 0
M  V30 END ATOM
M  V30 BEGIN BOND
M  V30 END BOND
M  V30 END CTAB
M  END
$$$$
