drugbank_target|P9WNL7 Probable arabinosyltransferase B (DB00330)
 OpenBabel12092119243D

  0  0  0     0  0            999 V3000
M  V30 BEGIN CTAB
M  V30 COUNTS 16804 17037 0 0 0
M  V30 BEGIN ATOM
M  V30 1 H -0.908 1.98254 -0.117106 0
M  V30 2 N 0 1.576 0 0
M  V30 3 C 0.933 2.03868 1.02534 0
M  V30 4 C 1.911 0.928543 1.3348 0
M  V30 5 O 3.095 1.19667 1.45644 0
M  V30 6 C 0.222 2.43627 2.35294 0
M  V30 7 C -0.732 3.65373 2.2001 0
M  V30 8 S 0.101 5.13292 1.52614 0
M  V30 9 C 1.257 5.56322 2.86805 0
M  V30 10 H 1.49 2.90518 0.631377 0
M  V30 11 H -0.977 1.52953 0.210867 0
M  V30 12 H 0.981 2.67203 3.11629 0
M  V30 13 H -0.358 1.57376 2.7183 0
M  V30 14 H -1.165 3.90944 3.18086 0
M  V30 15 H -1.563 3.418 1.51819 0
M  V30 16 H 0.729 5.58782 3.83104 0
M  V30 17 H 1.672 6.56266 2.65933 0
M  V30 18 H 2.08 4.83886 2.90714 0
M  V30 19 N 1.4781 -0.272755 1.55222 0
M  V30 20 C 2.7061 -1.02255 1.79865 0
M  V30 21 C 3.1211 -1.79924 0.572088 0
M  V30 22 O 2.4781 -1.76638 -0.458842 0
M  V30 23 C 2.5291 -1.98094 3.02392 0
M  V30 24 O 2.2501 -1.23572 4.20311 0
M  V30 25 C 3.7511 -2.84884 3.39641 0
M  V30 26 H 0.9711 -0.302057 0.599168 0
M  V30 27 H 3.5151 -0.303465 2.02236 0
M  V30 28 H 1.6701 -2.65465 2.82147 0
M  V30 29 H 2.0841 -1.88172 4.89583 0
M  V30 30 H 3.5581 -3.47927 4.28545 0
M  V30 31 H 4.0351 -3.54665 2.59055 0
M  V30 32 H 4.6411 -2.23003 3.62146 0
M  V30 33 N 2.9562 -1.48159 -0.537278 0
M  V30 34 C 3.8882 -1.58218 -1.65831 0
M  V30 35 C 4.9012 -0.466948 -1.5596 0
M  V30 36 O 6.0902 -0.73747 -1.62553 0
M  V30 37 C 3.1902 -1.48906 -3.04434 0
M  V30 38 C 2.3632 -2.75343 -3.3986 0
M  V30 39 C 1.4222 -2.59588 -4.57712 0
M  V30 40 O 0.4482 -3.33457 -4.61297 0
M  V30 41 N 1.6502 -1.68724 -5.55439 0
M  V30 42 H 4.4152 -2.54891 -1.57641 0
M  V30 43 H 1.9762 -1.4479 -0.724386 0
M  V30 44 H 3.9682 -1.36072 -3.81139 0
M  V30 45 H 2.5382 -0.602368 -3.06741 0
M  V30 46 H 1.7582 -3.02795 -2.52406 0
M  V30 47 H 3.0462 -3.5924 -3.60311 0
M  V30 48 H 2.4442 -1.07898 -5.55315 0
M  V30 49 H 1.0012 -1.61832 -6.3139 0
M  V30 50 N 4.4343 0.785586 -1.36625 0
M  V30 51 C 5.6743 1.55678 -1.32453 0
M  V30 52 C 6.0383 1.91769 0.0941089 0
M  V30 53 O 7.2393 2.67536 0.26042 0
M  V30 54 C 5.5103 2.79701 -2.22491 0
M  V30 55 S 7.0693 3.69907 -2.36038 0
M  V30 56 H 3.8873 0.533141 -0.470405 0
M  V30 57 H 6.4893 0.924953 -1.72235 0
M  V30 58 H 5.1933 2.51244 -3.24507 0
M  V30 59 H 4.7243 3.47854 -1.83742 0
M  V30 60 H 6.7393 4.71016 -1.56072 0
M  V30 61 N 5.9124 1.20967 1.01018 0
M  V30 62 C 6.8754 0.965918 2.07853 0
M  V30 63 C 7.8754 -0.0610545 1.60684 0
M  V30 64 O 9.0654 0.175681 1.73312 0
M  V30 65 C 6.1974 0.455513 3.37843 0
M  V30 66 H 7.3904 1.91365 2.3091 0
M  V30 67 H 4.9434 1.02594 1.17916 0
M  V30 68 H 5.6784 -0.497381 3.20463 0
M  V30 69 H 5.4634 1.19622 3.73407 0
M  V30 70 H 6.9534 0.304667 4.16487 0
M  V30 71 N 7.3905 -1.2043 1.01659 0
M  V30 72 C 8.6155 -1.94318 0.724942 0
M  V30 73 C 9.0405 -1.74266 -0.708034 0
M  V30 74 O 8.3985 -1.03694 -1.48719 0
M  V30 75 C 8.4465 -3.44486 1.06591 0
M  V30 76 O 7.5505 -4.12017 0.177599 0
M  V30 77 H 6.8915 -0.60708 0.26898 0
M  V30 78 H 9.4215 -1.52861 1.35995 0
M  V30 79 H 9.4315 -3.95106 1.01762 0
M  V30 80 H 8.1065 -3.58404 2.10997 0
M  V30 81 H 6.6835 -3.71821 0.283421 0
M  V30 82 N 8.8686 -0.792821 -1.36206 0
M  V30 83 C 10.2846 -0.474903 -1.52371 0
M  V30 84 C 10.4846 1.00622 -1.74578 0
M  V30 85 O 9.5406 1.79162 -1.77924 0
M  V30 86 C 10.8536 -1.3083 -2.70747 0
M  V30 87 C 12.4016 -1.30234 -2.84619 0
M  V30 88 C 12.8766 -2.11956 -4.06004 0
M  V30 89 N 14.3676 -2.09419 -4.13156 0
M  V30 90 C 15.1026 -2.69419 -5.06163 0
M  V30 91 N 14.5986 -3.3829 -6.04592 0
M  V30 92 N 16.3916 -2.59134 -4.98804 0
M  V30 93 H 8.5426 -1.75222 -1.20046 0
M  V30 94 H 10.8056 -0.745024 -0.586211 0
M  V30 95 H 10.5116 -2.35881 -2.6087 0
M  V30 96 H 10.3856 -0.95196 -3.6499 0
M  V30 97 H 12.7726 -0.259748 -2.93955 0
M  V30 98 H 12.8536 -1.69847 -1.91274 0
M  V30 99 H 12.4976 -3.16248 -3.97429 0
M  V30 100 H 12.4276 -1.69711 -4.98503 0
M  V30 101 H 14.9186 -1.59297 -3.42685 0
M  V30 102 H 15.2316 -3.81394 -6.7213 0
M  V30 103 H 13.5766 -3.42393 -6.04807 0
M  V30 104 H 16.7676 -2.04927 -4.20859 0
M  V30 105 H 16.9406 -3.06185 -5.711 0
M  V30 106 N 10.3467 1.47872 -0.545128 0
M  V30 107 C 11.7627 1.5829 -0.204032 0
M  V30 108 C 11.9627 1.54529 1.29317 0
M  V30 109 O 11.0187 1.44232 2.07252 0
M  V30 110 C 12.3317 2.89304 -0.819987 0
M  V30 111 C 13.8797 3.02864 -0.790105 0
M  V30 112 C 14.3547 4.3656 -1.38491 0
M  V30 113 N 15.8457 4.43165 -1.34755 0
M  V30 114 C 16.5807 5.45153 -1.77753 0
M  V30 115 N 16.0767 6.54016 -2.2855 0
M  V30 116 N 17.8697 5.36125 -1.68897 0
M  V30 117 H 10.0207 1.4856 -1.51802 0
M  V30 118 H 12.2837 0.706305 -0.632327 0
M  V30 119 H 11.9897 2.97757 -1.87173 0
M  V30 120 H 11.8637 3.75957 -0.305915 0
M  V30 121 H 14.2507 2.94014 0.252913 0
M  V30 122 H 14.3317 2.17782 -1.34181 0
M  V30 123 H 13.9757 4.46164 -2.42693 0
M  V30 124 H 13.9057 5.20353 -0.808754 0
M  V30 125 H 16.3967 3.65083 -0.975855 0
M  V30 126 H 16.7097 7.27994 -2.59314 0
M  V30 127 H 15.0547 6.54938 -2.32553 0
M  V30 128 H 18.2457 4.49975 -1.28998 0
M  V30 129 H 18.4187 6.15472 -2.02726 0
M  V30 130 N 11.8248 0.280983 1.55075 0
M  V30 131 C 12.7718 -0.603937 2.22758 0
M  V30 132 C 13.7418 -1.1452 1.20309 0
M  V30 133 O 14.9268 -1.19343 1.48869 0
M  V30 134 C 12.0668 -1.77947 2.95684 0
M  V30 135 C 11.1798 -1.2715 4.12864 0
M  V30 136 C 10.3148 -2.4093 4.7342 0
M  V30 137 C 9.3538 -1.87165 5.82783 0
M  V30 138 N 8.4908 -2.94441 6.37377 0
M  V30 139 H 13.3308 -0.020124 2.97993 0
M  V30 140 H 10.8678 0.00183425 1.471 0
M  V30 141 H 12.8258 -2.47055 3.36184 0
M  V30 142 H 11.4558 -2.33522 2.22861 0
M  V30 143 H 10.5078 -0.473331 3.77444 0
M  V30 144 H 11.8198 -0.837751 4.91715 0
M  V30 145 H 10.9738 -3.18021 5.1667 0
M  V30 146 H 9.7128 -2.87623 3.93859 0
M  V30 147 H 8.7178 -1.08556 5.38976 0
M  V30 148 H 9.9428 -1.41401 6.64216 0
M  V30 149 H 7.8888 -3.40505 5.60707 0
M  V30 150 H 7.8058 -2.55501 7.11516 0
M  V30 151 H 9.0738 -3.71489 6.85285 0
M  V30 152 N 13.3029 -1.57598 0.00835791 0
M  V30 153 C 14.5279 -1.95617 -0.689103 0
M  V30 154 C 14.9529 -0.883753 -1.66046 0
M  V30 155 O 14.3109 0.157352 -1.80616 0
M  V30 156 C 14.3589 -3.32736 -1.38994 0
M  V30 157 O 13.4629 -3.27631 -2.50463 0
M  V30 158 H 12.8039 -0.638379 -0.182668 0
M  V30 159 H 15.3339 -2.045 0.064036 0
M  V30 160 H 15.3439 -3.68494 -1.75147 0
M  V30 161 H 14.0189 -4.1034 -0.677778 0
M  V30 162 H 12.5959 -3.03561 -2.16576 0
M  V30 163 N 14.781 0.264519 -1.55364 0
M  V30 164 C 16.009 1.013 -1.80405 0
M  V30 165 C 16.424 1.79618 -0.581622 0
M  V30 166 O 15.781 1.76879 0.449468 0
M  V30 167 C 15.832 1.96487 -3.03439 0
M  V30 168 O 15.553 1.21341 -4.20961 0
M  V30 169 C 17.054 2.83079 -3.41147 0
M  V30 170 H 14.274 0.298875 -0.600762 0
M  V30 171 H 16.818 0.292736 -2.02394 0
M  V30 172 H 14.973 2.63965 -2.83551 0
M  V30 173 H 15.387 1.85573 -4.90574 0
M  V30 174 H 16.861 3.4565 -4.30384 0
M  V30 175 H 17.338 3.53286 -2.60932 0
M  V30 176 H 17.944 2.2108 -3.63323 0
M  V30 177 N 16.2591 1.48442 0.529413 0
M  V30 178 C 17.6701 1.5002 1.11134 0
M  V30 179 C 18.0211 0.27031 1.94329 0
M  V30 180 O 17.1461 -0.622507 2.07253 0
M  V30 181 C 17.7411 2.71834 2.02217 0
M  V30 182 C 16.3001 2.76283 2.55627 0
M  V30 183 C 15.4471 2.43542 1.326 0
M  V30 184 H 18.3981 1.5555 0.314641 0
M  V30 185 H 18.4191 2.50384 2.8651 0
M  V30 186 H 17.9311 3.61331 1.41639 0
M  V30 187 H 16.0321 1.90995 3.19924 0
M  V30 188 H 16.1451 3.77725 2.94721 0
M  V30 189 H 14.5091 1.94709 1.64196 0
M  V30 190 H 15.2921 3.3528 0.737734 0
M  V30 191 N 17.7372 -0.778329 1.37039 0
M  V30 192 C 18.6852 -1.91278 1.32345 0
M  V30 193 C 19.6792 -1.68051 0.213331 0
M  V30 194 O 20.8852 -1.75922 0.38098 0
M  V30 195 H 17.2602 -0.628909 0.412283 0
M  V30 196 H 19.2312 -1.92355 2.28127 0
M  V30 197 C 17.9802 -3.28455 1.14073 0
M  V30 198 H 17.3032 -3.46901 1.98746 0
M  V30 199 H 18.7432 -4.08152 1.14837 0
M  V30 200 C 17.2022 -3.36548 -0.154015 0
M  V30 201 O 17.7322 -3.85186 -1.13993 0
M  V30 202 N 15.9382 -2.89894 -0.202475 0
M  V30 203 H 15.4852 -2.50504 0.600476 0
M  V30 204 H 15.4432 -2.9569 -1.06841 0
M  V30 205 N 19.2153 -1.21501 -1.00376 0
M  V30 206 C 20.6313 -0.972629 -1.26539 0
M  V30 207 C 20.8313 0.340257 -1.98606 0
M  V30 208 O 19.8873 1.06561 -2.28913 0
M  V30 209 C 21.2003 -2.16404 -2.08781 0
M  V30 210 C 22.7483 -2.20643 -2.22004 0
M  V30 211 C 23.2233 -3.39306 -3.07629 0
M  V30 212 N 24.7143 -3.39401 -3.15217 0
M  V30 213 C 25.4493 -4.27867 -3.81729 0
M  V30 214 N 24.9453 -5.26533 -4.5026 0
M  V30 215 N 26.7383 -4.15672 -3.78382 0
M  V30 216 H 18.8893 -2.05929 -0.520281 0
M  V30 217 H 21.1523 -0.901803 -0.292328 0
M  V30 218 H 20.8583 -3.11554 -1.63178 0
M  V30 219 H 20.7323 -2.15567 -3.09533 0
M  V30 220 H 23.1193 -1.26048 -2.66825 0
M  V30 221 H 23.2003 -2.25523 -1.20718 0
M  V30 222 H 22.8443 -4.34195 -2.63509 0
M  V30 223 H 22.7743 -3.31665 -4.09031 0
M  V30 224 H 25.2653 -2.67997 -2.66432 0
M  V30 225 H 25.5783 -5.90337 -4.98721 0
M  V30 226 H 23.9233 -5.30457 -4.49044 0
M  V30 227 H 27.1143 -3.3785 -3.23998 0
M  V30 228 H 27.2873 -4.84825 -4.2994 0
M  V30 229 N 20.6934 1.19889 -1.02296 0
M  V30 230 C 21.6564 2.21116 -0.603351 0
M  V30 231 C 22.6564 1.5738 0.329884 0
M  V30 232 O 23.8464 1.73802 0.117702 0
M  V30 233 C 20.9784 3.40696 0.117992 0
M  V30 234 H 22.1714 2.59754 -1.49893 0
M  V30 235 H 19.7244 1.33463 -0.813468 0
M  V30 236 H 20.4594 3.07569 1.0282 0
M  V30 237 H 20.2444 3.88188 -0.552511 0
M  V30 238 H 21.7344 4.15692 0.398696 0
M  V30 239 N 22.1715 0.800033 1.35784 0
M  V30 240 C 23.4205 0.37387 1.98205 0
M  V30 241 C 23.7335 -1.06302 1.64193 0
M  V30 242 O 24.9395 -1.59198 2.19928 0
M  V30 243 C 23.3955 0.617532 3.54562 0
M  V30 244 C 23.0035 2.06654 3.9749 0
M  V30 245 C 24.7475 0.256401 4.23725 0
M  V30 246 C 22.6545 2.2563 5.46667 0
M  V30 247 H 21.5845 0.136055 0.741623 0
M  V30 248 H 24.2355 0.983166 1.54939 0
M  V30 249 H 22.6175 -0.0616248 3.95952 0
M  V30 250 H 23.7915 2.78296 3.67271 0
M  V30 251 H 22.1065 2.38691 3.41197 0
M  V30 252 H 24.7035 0.376318 5.33374 0
M  V30 253 H 25.0465 -0.796692 4.08606 0
M  V30 254 H 25.5795 0.889214 3.87734 0
M  V30 255 H 22.3185 3.2936 5.66747 0
M  V30 256 H 21.8385 1.58504 5.78478 0
M  V30 257 H 23.5175 2.06861 6.1304 0
M  V30 258 N 23.6496 -1.47581 0.552962 0
M  V30 259 C 24.5796 -2.32762 -0.185451 0
M  V30 260 C 25.5606 -1.43527 -0.912905 0
M  V30 261 O 26.7456 -1.72388 -0.894201 0
M  V30 262 C 23.8756 -3.25219 -1.21859 0
M  V30 263 C 22.8296 -4.23661 -0.607864 0
M  V30 264 C 22.1556 -5.05413 -1.74533 0
M  V30 265 C 23.4556 -5.20481 0.435582 0
M  V30 266 H 25.1496 -2.94749 0.525684 0
M  V30 267 H 22.6956 -1.41738 0.254251 0
M  V30 268 H 24.6486 -3.8365 -1.7433 0
M  V30 269 H 23.3726 -2.61279 -1.95961 0
M  V30 270 H 22.0316 -3.66451 -0.104489 0
M  V30 271 H 21.6796 -4.3788 -2.47529 0
M  V30 272 H 21.3796 -5.72059 -1.34249 0
M  V30 273 H 22.9036 -5.66701 -2.27338 0
M  V30 274 H 24.3176 -5.733 -0.00290157 0
M  V30 275 H 22.7146 -5.95305 0.757067 0
M  V30 276 H 23.7846 -4.66217 1.33303 0
M  V30 277 N 25.1277 -0.289203 -1.54924 0
M  V30 278 C 26.3757 0.322879 -1.99504 0
M  V30 279 C 26.6967 1.55313 -1.1791 0
M  V30 280 O 25.9667 1.94001 -0.272097 0
M  V30 281 H 24.5467 0.122291 -0.736922 0
M  V30 282 H 27.2087 -0.397802 -1.90797 0
M  V30 283 H 26.3047 0.603061 -3.06218 0
M  V30 284 N 26.6058 1.57591 -0.0167156 0
M  V30 285 C 27.5688 2.08393 0.954204 0
M  V30 286 C 28.5688 0.996531 1.26198 0
M  V30 287 O 29.7588 1.25858 1.20438 0
M  V30 288 C 26.8908 2.5394 2.27436 0
M  V30 289 H 28.0838 2.95455 0.514451 0
M  V30 290 H 25.6368 1.54582 0.231089 0
M  V30 291 H 26.3718 1.70171 2.76066 0
M  V30 292 H 26.1568 3.33371 2.06412 0
M  V30 293 H 27.6468 2.93512 2.97053 0
M  V30 294 N 28.0839 -0.256276 1.55502 0
M  V30 295 C 29.3309 -0.985619 1.76895 0
M  V30 296 C 29.6589 -1.85671 0.579355 0
M  V30 297 O 28.9139 -1.90744 -0.437651 0
M  V30 298 C 29.2129 -1.88432 3.03691 0
M  V30 299 C 28.8789 -1.16936 4.35473 0
M  V30 300 C 27.5409 -0.97173 4.71286 0
M  V30 301 C 29.8929 -0.661889 5.1698 0
M  V30 302 C 27.2209 -0.254179 5.86149 0
M  V30 303 C 29.5729 0.042149 6.32586 0
M  V30 304 C 28.2369 0.25134 6.67027 0
M  V30 305 H 27.5069 -0.360663 0.647304 0
M  V30 306 H 30.1539 -0.256483 1.89775 0
M  V30 307 H 28.4589 -2.68021 2.85783 0
M  V30 308 H 30.1559 -2.45015 3.1744 0
M  V30 309 H 26.7459 -1.33332 4.07333 0
M  V30 310 H 30.9299 -0.802145 4.89775 0
M  V30 311 H 26.1859 -0.0815408 6.11346 0
M  V30 312 H 30.3599 0.443049 6.94989 0
M  V30 313 H 27.9869 0.809314 7.5588 0
M  V30 314 N 29.562 -1.4872 -0.521534 0
M  V30 315 C 30.525 -1.63379 -1.60748 0
M  V30 316 C 31.525 -0.50661 -1.52611 0
M  V30 317 O 32.715 -0.772601 -1.5613 0
M  V30 318 C 29.847 -1.61192 -3.00383 0
M  V30 319 H 31.04 -2.60217 -1.49087 0
M  V30 320 H 28.593 -1.37444 -0.744235 0
M  V30 321 H 29.328 -0.65863 -3.17541 0
M  V30 322 H 29.113 -2.43032 -3.07698 0
M  V30 323 H 30.603 -1.7466 -3.7932 0
M  V30 324 N 31.0401 0.771051 -1.3745 0
M  V30 325 C 32.2651 1.56529 -1.36065 0
M  V30 326 C 32.6901 1.88029 0.0515859 0
M  V30 327 O 32.0481 1.49282 1.02882 0
M  V30 328 C 32.0961 2.85187 -2.20683 0
M  V30 329 O 31.2001 3.79593 -1.61193 0
M  V30 330 H 30.5411 0.47411 -0.464883 0
M  V30 331 H 33.0711 0.954269 -1.80983 0
M  V30 332 H 33.0811 3.34283 -2.33921 0
M  V30 333 H 31.7561 2.61588 -3.23334 0
M  V30 334 H 30.3331 3.38239 -1.56999 0
M  V30 335 N 32.5182 1.22032 0.997298 0
M  V30 336 C 33.4812 0.987909 2.06816 0
M  V30 337 C 34.4812 -0.0440084 1.6074 0
M  V30 338 O 35.6712 0.194053 1.73116 0
M  V30 339 C 32.8032 0.49132 3.37341 0
M  V30 340 H 33.9962 1.93803 2.28868 0
M  V30 341 H 31.5492 1.03838 1.16822 0
M  V30 342 H 32.2842 -0.463364 3.20973 0
M  V30 343 H 32.0692 1.23575 3.72118 0
M  V30 344 H 33.5592 0.348824 4.16141 0
M  V30 345 N 33.9963 -1.19345 1.0293 0
M  V30 346 C 35.4123 -1.41069 0.746446 0
M  V30 347 C 35.6123 -1.90078 -0.668776 0
M  V30 348 O 34.6683 -2.0778 -1.4347 0
M  V30 349 C 35.9813 -2.42141 1.78292 0
M  V30 350 C 37.5293 -2.55887 1.80252 0
M  V30 351 C 38.0043 -3.60214 2.8286 0
M  V30 352 N 39.4953 -3.67711 2.81679 0
M  V30 353 C 40.2303 -4.48128 3.57727 0
M  V30 354 N 39.7263 -5.32248 4.43491 0
M  V30 355 N 41.5193 -4.42782 3.46267 0
M  V30 356 H 33.6703 -0.858536 1.94275 0
M  V30 357 H 35.9333 -0.439541 0.839945 0
M  V30 358 H 35.6393 -2.13155 2.79746 0
M  V30 359 H 35.5133 -3.41323 1.60557 0
M  V30 360 H 37.9003 -2.84196 0.794757 0
M  V30 361 H 37.9813 -1.56858 2.02062 0
M  V30 362 H 37.6253 -3.32647 3.83807 0
M  V30 363 H 37.5553 -4.58895 2.58307 0
M  V30 364 H 40.0463 -3.07634 2.19476 0
M  V30 365 H 40.3593 -5.90729 4.98256 0
M  V30 366 H 38.7043 -5.31707 4.47564 0
M  V30 367 H 41.8953 -3.76107 2.78677 0
M  V30 368 H 42.0683 -5.05215 4.05785 0
M  V30 369 N 35.4744 -0.807222 -1.35358 0
M  V30 370 C 36.7224 -0.387122 -1.98358 0
M  V30 371 C 37.0434 1.04942 -1.64354 0
M  V30 372 O 36.3134 1.72615 -0.926339 0
M  V30 373 H 34.8934 -0.140154 -0.733734 0
M  V30 374 H 37.5554 -1.0332 -1.6526 0
M  V30 375 H 36.6514 -0.493352 -3.08176 0
M  V30 376 N 36.9525 1.47285 -0.560781 0
M  V30 377 C 38.1805 2.06855 -0.0430262 0
M  V30 378 C 38.5955 1.41291 1.25229 0
M  V30 379 O 37.9525 0.510648 1.7521 0
M  V30 380 C 38.0035 3.61178 0.152518 0
M  V30 381 O 37.7245 4.24285 -1.0915 0
M  V30 382 C 39.2255 4.37624 0.707145 0
M  V30 383 H 36.4455 0.669319 -0.0474652 0
M  V30 384 H 38.9895 1.89237 -0.77521 0
M  V30 385 H 37.1445 3.78298 0.834843 0
M  V30 386 H 37.5585 5.16868 -0.891482 0
M  V30 387 H 39.0325 5.46271 0.793244 0
M  V30 388 H 39.5095 4.04152 1.71923 0
M  V30 389 H 40.1155 4.25257 0.0604027 0
M  V30 390 N 38.4306 0.297415 1.54768 0
M  V30 391 C 39.8466 -0.0560823 1.59501 0
M  V30 392 C 40.0466 -1.52725 1.31444 0
M  V30 393 O 39.1026 -2.27947 1.08611 0
M  V30 394 C 40.4156 0.338631 2.98787 0
M  V30 395 C 41.9636 0.287097 3.11681 0
M  V30 396 C 42.4386 0.656579 4.53269 0
M  V30 397 N 43.9296 0.608977 4.59179 0
M  V30 398 C 44.6646 0.867385 5.66802 0
M  V30 399 N 44.1606 1.19157 6.82476 0
M  V30 400 N 45.9536 0.794687 5.56454 0
M  V30 401 H 38.1046 1.25624 1.71267 0
M  V30 402 H 40.3676 0.509057 0.799728 0
M  V30 403 H 40.0736 1.36263 3.2423 0
M  V30 404 H 39.9476 -0.309508 3.75928 0
M  V30 405 H 42.3346 -0.727649 2.85988 0
M  V30 406 H 42.4156 0.969809 2.36703 0
M  V30 407 H 42.0596 1.66912 4.7969 0
M  V30 408 H 41.9896 -0.0481649 5.26578 0
M  V30 409 H 44.4806 0.369198 3.76092 0
M  V30 410 H 44.7936 1.37482 7.60473 0
M  V30 411 H 43.1386 1.22958 6.84037 0
M  V30 412 H 46.3296 0.541098 4.64962 0
M  V30 413 H 46.5026 0.999445 6.40246 0
M  V30 414 N 39.9087 -1.5758 0.0250728 0
M  V30 415 C 41.1547 -1.92746 -0.649648 0
M  V30 416 C 41.5097 -0.901588 -1.69968 0
M  V30 417 O 40.8027 0.0829251 -1.9142 0
M  V30 418 C 40.9967 -3.32421 -1.31268 0
M  V30 419 C 40.8257 -4.48499 -0.328394 0
M  V30 420 C 39.5957 -5.05251 0.070284 0
M  V30 421 C 41.7937 -5.12618 0.415665 0
M  V30 422 N 39.7757 -6.04851 1.05016 0
M  V30 423 C 41.1467 -6.0728 1.24943 0
M  V30 424 C 43.2017 -4.95612 0.476803 0
M  V30 425 C 41.9047 -6.86766 2.1388 0
M  V30 426 C 43.9307 -5.75703 1.3535 0
M  V30 427 C 43.2927 -6.69978 2.17504 0
M  V30 428 H 39.3917 -0.753231 -0.210159 0
M  V30 429 H 41.9757 -1.94486 0.0912999 0
M  V30 430 H 40.1467 -3.31508 -2.02379 0
M  V30 431 H 41.8787 -3.54946 -1.94411 0
M  V30 432 H 38.6337 -4.72628 -0.303323 0
M  V30 433 H 39.0577 -6.5934 1.53622 0
M  V30 434 H 43.6997 -4.22554 -0.144105 0
M  V30 435 H 41.4177 -7.59132 2.77027 0
M  V30 436 H 45.0037 -5.64579 1.40504 0
M  V30 437 H 43.8837 -7.30873 2.84244 0
M  V30 438 N 41.3868 0.248026 -1.55636 0
M  V30 439 C 42.6328 0.97767 -1.77678 0
M  V30 440 C 42.9658 1.85016 -0.590135 0
M  V30 441 O 42.2408 1.90095 0.411611 0
M  V30 442 C 42.5238 1.83914 -3.09593 0
M  V30 443 C 42.3768 0.99491 -4.38659 0
M  V30 444 C 43.6958 2.82183 -3.37729 0
M  V30 445 H 40.8148 0.354005 -0.646413 0
M  V30 446 H 43.4568 0.248253 -1.88371 0
M  V30 447 H 41.6068 2.46104 -3.00608 0
M  V30 448 H 43.2788 0.391789 -4.59633 0
M  V30 449 H 41.5218 0.299231 -4.32767 0
M  V30 450 H 42.1928 1.63145 -5.2734 0
M  V30 451 H 44.6688 2.30129 -3.4667 0
M  V30 452 H 43.5448 3.39582 -4.31249 0
M  V30 453 H 43.8058 3.58588 -2.58586 0
M  V30 454 N 42.8649 1.48995 0.513639 0
M  V30 455 C 43.8279 1.64229 1.59879 0
M  V30 456 C 44.8279 0.514696 1.5234 0
M  V30 457 O 46.0179 0.78087 1.55718 0
M  V30 458 C 43.1499 1.62783 2.99524 0
M  V30 459 H 44.3429 2.61004 1.47705 0
M  V30 460 H 41.8959 1.37837 0.736936 0
M  V30 461 H 42.6309 0.675461 3.17188 0
M  V30 462 H 42.4159 2.4466 3.06404 0
M  V30 463 H 43.9059 1.76669 3.78388 0
M  V30 464 N 44.343 -0.763751 1.37857 0
M  V30 465 C 45.571 -1.55293 1.36718 0
M  V30 466 C 45.986 -1.88745 -0.0455434 0
M  V30 467 O 45.343 -1.52039 -1.00947 0
M  V30 468 C 45.394 -2.85831 2.2132 0
M  V30 469 O 45.115 -2.5381 3.57089 0
M  V30 470 C 46.616 -3.80023 2.28249 0
M  V30 471 H 43.836 -0.480841 0.468009 0
M  V30 472 H 46.38 -0.946009 1.81303 0
M  V30 473 H 44.535 -3.42926 1.80223 0
M  V30 474 H 44.949 -3.37459 4.01524 0
M  V30 475 H 46.423 -4.68599 2.91752 0
M  V30 476 H 46.9 -4.1973 1.2932 0
M  V30 477 H 47.506 -3.28855 2.69693 0
M  V30 478 N 45.8211 -1.22559 -0.990812 0
M  V30 479 C 47.0701 -1.04553 -1.72486 0
M  V30 480 C 47.3831 0.419349 -1.91052 0
M  V30 481 O 48.5891 0.719121 -2.61803 0
M  V30 482 C 47.0451 -1.82231 -3.10355 0
M  V30 483 C 46.6531 -3.32981 -2.99713 0
M  V30 484 C 48.3971 -1.7268 -3.87791 0
M  V30 485 C 46.3041 -4.03091 -4.32748 0
M  V30 486 H 45.2341 -0.387614 -0.646739 0
M  V30 487 H 47.8851 -1.46429 -1.10593 0
M  V30 488 H 46.2671 -1.33155 -3.72942 0
M  V30 489 H 47.4411 -3.89466 -2.46278 0
M  V30 490 H 45.7561 -3.43231 -2.35758 0
M  V30 491 H 48.3531 -2.22381 -4.86262 0
M  V30 492 H 48.6961 -0.687607 -4.10582 0
M  V30 493 H 49.2291 -2.1931 -3.31885 0
M  V30 494 H 45.9681 -5.07273 -4.15156 0
M  V30 495 H 45.4881 -3.51394 -4.86089 0
M  V30 496 H 47.1671 -4.08804 -5.01486 0
M  V30 497 N 47.2992 1.18797 -1.03562 0
M  V30 498 C 48.2622 2.20464 -0.626769 0
M  V30 499 C 49.2622 1.57721 0.313173 0
M  V30 500 O 50.4522 1.73917 0.0992615 0
M  V30 501 C 47.5842 3.40802 0.0818498 0
M  V30 502 H 48.7772 2.58149 -1.5264 0
M  V30 503 H 46.3302 1.32593 -0.827578 0
M  V30 504 H 47.0652 3.08642 0.995518 0
M  V30 505 H 46.8502 3.8758 -0.593652 0
M  V30 506 H 48.3402 4.16092 0.354584 0
M  V30 507 N 48.7773 0.814389 1.34928 0
M  V30 508 C 50.0253 0.397636 1.9815 0
M  V30 509 C 50.3463 -1.04069 1.64908 0
M  V30 510 O 49.6163 -1.72121 0.93548 0
M  V30 511 H 48.1963 0.144043 0.732981 0
M  V30 512 H 50.8583 1.04195 1.6471 0
M  V30 513 H 49.9543 0.509688 3.0791 0
M  V30 514 N 50.2554 -1.46986 0.568584 0
M  V30 515 C 51.1854 -2.32946 -0.160753 0
M  V30 516 C 52.1664 -1.44487 -0.897631 0
M  V30 517 O 53.3514 -1.73327 -0.875867 0
M  V30 518 C 50.4814 -3.26494 -1.18403 0
M  V30 519 C 49.4354 -4.24282 -0.562895 0
M  V30 520 C 48.7614 -5.07236 -1.69163 0
M  V30 521 C 50.0614 -5.19989 0.490761 0
M  V30 522 H 51.7554 -2.94175 0.556916 0
M  V30 523 H 49.3014 -1.4146 0.26927 0
M  V30 524 H 51.2544 -3.85477 -1.70251 0
M  V30 525 H 49.9784 -2.63343 -1.93179 0
M  V30 526 H 48.6374 -3.66541 -0.0656164 0
M  V30 527 H 48.2854 -4.4048 -2.42871 0
M  V30 528 H 47.9854 -5.7345 -1.28174 0
M  V30 529 H 49.5094 -5.6908 -2.21314 0
M  V30 530 H 50.9234 -5.73271 0.0579047 0
M  V30 531 H 49.3204 -5.94469 0.820165 0
M  V30 532 H 50.3904 -4.64777 1.3824 0
M  V30 533 N 51.7335 -0.305618 -1.54608 0
M  V30 534 C 52.9825 0.303098 -1.9941 0
M  V30 535 C 53.2955 1.54648 -1.19764 0
M  V30 536 O 54.5015 2.23007 -1.54855 0
M  V30 537 C 52.9575 0.590588 -3.55021 0
M  V30 538 C 52.5655 -0.634719 -4.43481 0
M  V30 539 C 54.3095 1.16025 -4.08336 0
M  V30 540 C 52.2165 -0.320126 -5.90533 0
M  V30 541 H 51.1465 0.117031 -0.744862 0
M  V30 542 H 53.7975 -0.415045 -1.78745 0
M  V30 543 H 52.1795 1.36845 -3.71604 0
M  V30 544 H 53.3535 -1.41079 -4.38672 0
M  V30 545 H 51.6685 -1.12333 -4.00962 0
M  V30 546 H 54.2655 1.40994 -5.15776 0
M  V30 547 H 54.6085 2.10397 -3.5922 0
M  V30 548 H 55.1415 0.443985 -3.95315 0
M  V30 549 H 51.8805 -1.23254 -6.43808 0
M  V30 550 H 51.4005 0.418579 -5.98338 0
M  V30 551 H 53.0795 0.0766241 -6.46955 0
M  V30 552 N 53.2116 1.57565 -0.0334293 0
M  V30 553 C 54.4596 1.91598 0.642999 0
M  V30 554 C 54.7806 0.910847 1.7242 0
M  V30 555 O 54.0506 -0.0469931 1.95844 0
M  V30 556 H 52.6306 0.707228 0.240496 0
M  V30 557 H 55.2926 1.94726 -0.0822488 0
M  V30 558 H 54.3886 2.92336 1.09298 0
M  V30 559 N 54.6897 -0.239769 1.55765 0
M  V30 560 C 55.9367 -0.966801 1.7793 0
M  V30 561 C 56.2647 -1.85046 0.599015 0
M  V30 562 O 55.5197 -1.91197 -0.417395 0
M  V30 563 C 55.8187 -1.852 3.05672 0
M  V30 564 C 55.4847 -1.1231 4.36689 0
M  V30 565 C 54.1467 -0.921689 4.72291 0
M  V30 566 C 56.4987 -0.607019 5.17653 0
M  V30 567 C 53.8267 -0.191996 5.86386 0
M  V30 568 C 56.1787 0.109241 6.32506 0
M  V30 569 C 54.8427 0.322073 6.66723 0
M  V30 570 H 54.1127 -0.353778 0.651093 0
M  V30 571 H 56.7597 -0.23634 1.90036 0
M  V30 572 H 55.0647 -2.64975 2.8861 0
M  V30 573 H 56.7617 -2.41635 3.20021 0
M  V30 574 H 53.3517 -1.29004 4.08725 0
M  V30 575 H 57.5357 -0.750153 4.90598 0
M  V30 576 H 52.7917 -0.0166949 6.11398 0
M  V30 577 H 56.9657 0.516737 6.9448 0
M  V30 578 H 54.5927 0.88944 7.54979 0
M  V30 579 N 56.1678 -1.49265 -0.50573 0
M  V30 580 C 57.4138 -1.58748 -1.26202 0
M  V30 581 C 57.7468 -0.271227 -1.92297 0
M  V30 582 O 57.0218 0.724831 -1.80489 0
M  V30 583 C 57.3048 -2.74332 -2.33268 0
M  V30 584 C 57.1578 -4.15737 -1.71705 0
M  V30 585 C 58.4768 -2.85576 -3.34865 0
M  V30 586 H 55.5958 -0.577826 -0.457478 0
M  V30 587 H 58.2378 -1.81532 -0.560897 0
M  V30 588 H 56.3878 -2.55036 -2.93068 0
M  V30 589 H 58.0598 -4.46537 -1.15769 0
M  V30 590 H 56.3028 -4.21605 -1.02135 0
M  V30 591 H 56.9738 -4.92477 -2.49341 0
M  V30 592 H 59.4498 -3.03127 -2.8505 0
M  V30 593 H 58.3258 -3.68135 -4.07146 0
M  V30 594 H 58.5868 -1.94732 -3.96903 0
M  V30 595 N 57.6459 0.756429 -1.3826 0
M  V30 596 C 58.5759 1.88374 -1.37976 0
M  V30 597 C 59.5569 1.68311 -0.246082 0
M  V30 598 O 60.7419 1.88944 -0.44874 0
M  V30 599 C 57.8719 3.25864 -1.20125 0
M  V30 600 C 56.8259 3.60523 -2.30666 0
M  V30 601 C 56.1519 4.9672 -1.97923 0
M  V30 602 C 57.4519 3.65692 -3.72916 0
M  V30 603 H 59.1459 1.88869 -2.32312 0
M  V30 604 H 56.6919 0.907272 -1.11824 0
M  V30 605 H 58.6449 4.0438 -1.18552 0
M  V30 606 H 57.3689 3.25841 -0.222498 0
M  V30 607 H 56.0279 2.84324 -2.3142 0
M  V30 608 H 55.6759 4.93253 -0.985393 0
M  V30 609 H 55.3759 5.20878 -2.71955 0
M  V30 610 H 56.8999 5.77618 -1.97964 0
M  V30 611 H 58.3139 4.34328 -3.74208 0
M  V30 612 H 56.7109 4.01358 -4.4613 0
M  V30 613 H 57.7809 2.65987 -4.05436 0
M  V30 614 N 59.124 1.23083 0.984299 0
M  V30 615 C 60.349 1.088 1.76571 0
M  V30 616 C 60.774 -0.356657 1.84688 0
M  V30 617 O 60.132 -1.25788 1.30565 0
M  V30 618 C 60.18 1.71371 3.17277 0
M  V30 619 O 59.284 0.973213 4.00752 0
M  V30 620 H 58.625 0.381599 0.543395 0
M  V30 621 H 61.155 1.63057 1.23587 0
M  V30 622 H 61.165 1.76449 3.67872 0
M  V30 623 H 59.84 2.76493 3.10684 0
M  V30 624 H 58.417 0.999078 3.59267 0
M  V30 625 N 60.6021 -1.18246 1.0419 0
M  V30 626 C 61.8481 -1.88536 0.747122 0
M  V30 627 C 62.1811 -1.80223 -0.723409 0
M  V30 628 O 61.4561 -1.20337 -1.52804 0
M  V30 629 C 61.7391 -3.38968 1.21544 0
M  V30 630 C 61.5921 -3.56084 2.74816 0
M  V30 631 C 62.9111 -4.32648 0.806482 0
M  V30 632 H 60.0301 -0.684619 0.272883 0
M  V30 633 H 62.6721 -1.39113 1.29413 0
M  V30 634 H 60.8221 -3.8119 0.750081 0
M  V30 635 H 62.4941 -3.22946 3.29399 0
M  V30 636 H 60.7371 -2.98699 3.14582 0
M  V30 637 H 61.4081 -4.61639 3.02644 0
M  V30 638 H 63.8841 -3.98211 1.20695 0
M  V30 639 H 62.7601 -5.36462 1.1619 0
M  V30 640 H 63.0211 -4.41146 -0.29029 0
M  V30 641 N 62.0802 -0.821533 -1.34494 0
M  V30 642 C 63.0432 -0.247847 -2.27856 0
M  V30 643 C 64.0432 0.573453 -1.50227 0
M  V30 644 O 65.2332 0.389759 -1.69784 0
M  V30 645 C 62.3652 0.652698 -3.34593 0
M  V30 646 H 63.5582 -1.07146 -2.80107 0
M  V30 647 H 61.1112 -0.593291 -1.44602 0
M  V30 648 H 61.8462 1.49943 -2.87555 0
M  V30 649 H 61.6312 0.065292 -3.92046 0
M  V30 650 H 63.1212 1.04793 -4.04238 0
M  V30 651 N 63.5583 1.46682 -0.576371 0
M  V30 652 C 64.7863 2.06798 -0.0649635 0
M  V30 653 C 65.2013 1.42612 1.23723 0
M  V30 654 O 64.5583 0.529203 1.74659 0
M  V30 655 C 64.6093 3.6132 0.114202 0
M  V30 656 O 64.3303 4.23104 -1.13644 0
M  V30 657 C 65.8313 4.38349 0.66069 0
M  V30 658 H 63.0513 0.668778 -0.0545616 0
M  V30 659 H 65.5953 1.88404 -0.795237 0
M  V30 660 H 63.7503 3.79162 0.794673 0
M  V30 661 H 64.1643 5.15894 -0.946253 0
M  V30 662 H 65.6383 5.47081 0.73526 0
M  V30 663 H 66.1153 4.05953 1.67627 0
M  V30 664 H 66.7213 4.25297 0.0152951 0
M  V30 665 N 65.0364 0.313813 1.54444 0
M  V30 666 C 66.4474 -0.176243 1.85866 0
M  V30 667 C 66.7984 -1.52405 1.23561 0
M  V30 668 O 65.9234 -2.09605 0.538016 0
M  V30 669 C 66.5184 -0.32657 3.37222 0
M  V30 670 C 65.0774 -0.760846 3.6863 0
M  V30 671 C 64.2244 0.123247 2.77026 0
M  V30 672 H 67.1754 0.534418 1.49431 0
M  V30 673 H 67.1964 -1.15908 3.62416 0
M  V30 674 H 66.7084 0.654531 3.82541 0
M  V30 675 H 64.8094 -1.75204 3.28838 0
M  V30 676 H 64.9224 -0.571353 4.75681 0
M  V30 677 H 63.2864 -0.399597 2.51546 0
M  V30 678 H 64.0694 1.10094 3.25168 0
M  V30 679 N 66.5145 -1.57545 0.0417849 0
M  V30 680 C 67.4445 -2.14009 -0.933929 0
M  V30 681 C 68.4255 -1.05938 -1.33083 0
M  V30 682 O 69.6105 -1.33833 -1.40721 0
M  V30 683 C 66.7405 -2.67747 -2.21199 0
M  V30 684 C 65.6945 -3.80718 -1.95544 0
M  V30 685 C 65.0205 -4.20935 -3.29724 0
M  V30 686 C 66.3205 -5.06258 -1.28452 0
M  V30 687 H 68.0145 -2.95788 -0.463645 0
M  V30 688 H 65.5605 -1.42285 -0.221573 0
M  V30 689 H 67.5135 -3.05886 -2.89848 0
M  V30 690 H 66.2375 -1.83147 -2.70416 0
M  V30 691 H 64.8965 -3.43037 -1.2931 0
M  V30 692 H 64.5445 -3.33298 -3.76724 0
M  V30 693 H 64.2445 -4.9707 -3.13361 0
M  V30 694 H 65.7685 -4.61666 -3.9962 0
M  V30 695 H 67.1825 -5.41903 -1.8712 0
M  V30 696 H 65.5795 -5.87475 -1.22445 0
M  V30 697 H 66.6495 -4.84207 -0.259219 0
M  V30 698 N 67.9926 0.231505 -1.5589 0
M  V30 699 C 68.9226 1.29022 -1.94617 0
M  V30 700 C 69.9036 1.4941 -0.813067 0
M  V30 701 O 71.0886 1.6176 -1.07459 0
M  V30 702 C 68.2186 2.64199 -2.25424 0
M  V30 703 C 67.1726 2.58484 -3.41131 0
M  V30 704 C 66.4986 3.97599 -3.57518 0
M  V30 705 C 67.7986 2.1413 -4.76388 0
M  V30 706 H 69.4926 0.968563 -2.83301 0
M  V30 707 H 67.0386 0.464479 -1.36303 0
M  V30 708 H 68.9916 3.38413 -2.51107 0
M  V30 709 H 67.7156 2.98032 -1.33583 0
M  V30 710 H 66.3746 1.86727 -3.15481 0
M  V30 711 H 66.0226 4.28723 -2.6307 0
M  V30 712 H 65.7226 3.94659 -4.35337 0
M  V30 713 H 67.2466 4.7349 -3.85538 0
M  V30 714 H 68.6606 2.78083 -5.01341 0
M  V30 715 H 67.0576 2.2227 -5.57419 0
M  V30 716 H 68.1276 1.09331 -4.72414 0
M  V30 717 N 69.4707 1.49531 0.497807 0
M  V30 718 C 70.8817 1.52344 1.07927 0
M  V30 719 C 71.2327 0.311469 1.93712 0
M  V30 720 O 70.3577 -0.578405 2.08527 0
M  V30 721 C 70.9527 2.76062 1.96405 0
M  V30 722 C 69.5117 2.81643 2.49709 0
M  V30 723 C 68.6587 2.46299 1.27404 0
M  V30 724 H 71.6097 1.56182 0.281576 0
M  V30 725 H 71.6307 2.56405 2.81135 0
M  V30 726 H 71.1427 3.64254 1.33943 0
M  V30 727 H 69.2437 1.97739 3.15801 0
M  V30 728 H 69.3567 3.83891 2.86643 0
M  V30 729 H 67.7207 1.98148 1.60029 0
M  V30 730 H 68.5037 3.36769 0.66645 0
M  V30 731 N 70.9488 -0.749086 1.3866 0
M  V30 732 C 72.1948 -1.51056 1.35314 0
M  V30 733 C 72.5278 -1.94121 -0.0553751 0
M  V30 734 O 71.8028 -1.65763 -1.01749 0
M  V30 735 C 72.0858 -2.76003 2.31288 0
M  V30 736 C 71.9388 -2.39047 3.8102 0
M  V30 737 C 73.2578 -3.78046 2.2532 0
M  V30 738 H 70.3768 -0.547972 0.492844 0
M  V30 739 H 73.0188 -0.857628 1.69543 0
M  V30 740 H 71.1688 -3.31716 2.02229 0
M  V30 741 H 72.8408 -1.89074 4.20771 0
M  V30 742 H 71.0838 -1.71449 3.98482 0
M  V30 743 H 71.7548 -3.28462 4.4364 0
M  V30 744 H 74.2308 -3.31884 2.50983 0
M  V30 745 H 73.1068 -4.63159 2.94576 0
M  V30 746 H 73.3678 -4.23957 1.25352 0
M  V30 747 N 72.4269 -1.23603 -0.977757 0
M  V30 748 C 73.6729 -1.07129 -1.72195 0
M  V30 749 C 74.0059 0.390501 -1.90233 0
M  V30 750 O 73.2809 1.28902 -1.45653 0
M  V30 751 C 73.5639 -1.80031 -3.11867 0
M  V30 752 C 73.4169 -3.33899 -3.01383 0
M  V30 753 C 74.7359 -1.56492 -4.11337 0
M  V30 754 H 71.8549 -0.390571 -0.624999 0
M  V30 755 H 74.4969 -1.52142 -1.13811 0
M  V30 756 H 72.6469 -1.41768 -3.6171 0
M  V30 757 H 74.3189 -3.81699 -2.59043 0
M  V30 758 H 72.5619 -3.62796 -2.37827 0
M  V30 759 H 73.2329 -3.801 -4.00285 0
M  V30 760 H 75.7089 -1.89757 -3.70313 0
M  V30 761 H 74.5849 -2.09973 -5.07151 0
M  V30 762 H 74.8459 -0.500874 -4.39254 0
M  V30 763 N 73.905 1.17692 -1.04816 0
M  V30 764 C 74.837 2.21103 -0.603822 0
M  V30 765 C 75.85 1.59411 0.33046 0
M  V30 766 O 77.039 1.7807 0.12379 0
M  V30 767 C 74.139 3.38623 0.136898 0
M  V30 768 C 73.312 4.29888 -0.807137 0
M  V30 769 C 72.371 5.26088 -0.10836 0
M  V30 770 O 71.397 5.64353 -0.741232 0
M  V30 771 N 72.599 5.68882 1.15558 0
M  V30 772 H 75.364 2.59848 -1.49329 0
M  V30 773 H 72.925 1.32553 -0.929587 0
M  V30 774 H 74.917 4.00009 0.614401 0
M  V30 775 H 73.487 2.98508 0.927993 0
M  V30 776 H 72.707 3.65993 -1.46434 0
M  V30 777 H 73.995 4.87759 -1.44807 0
M  V30 778 H 73.393 5.39861 1.69015 0
M  V30 779 H 71.95 6.32429 1.57722 0
M  V30 780 N 75.3831 0.828654 1.34056 0
M  V30 781 C 76.6111 0.43262 2.02326 0
M  V30 782 C 77.0261 -0.963147 1.62385 0
M  V30 783 O 76.3831 -1.62425 0.832121 0
M  V30 784 C 76.4341 0.53182 3.57567 0
M  V30 785 O 76.1551 1.87258 3.96063 0
M  V30 786 C 77.6561 0.131422 4.43105 0
M  V30 787 H 74.8761 0.172923 0.648335 0
M  V30 788 H 77.4201 1.1184 1.71208 0
M  V30 789 H 75.5751 -0.105938 3.87255 0
M  V30 790 H 75.9891 1.85087 4.90758 0
M  V30 791 H 77.4631 0.251904 5.51425 0
M  V30 792 H 77.9401 -0.925645 4.29335 0
M  V30 793 H 78.5461 0.743207 4.18756 0
M  V30 794 N 76.8612 -1.46375 0.584142 0
M  V30 795 C 78.0892 -2.06761 0.0759296 0
M  V30 796 C 78.5042 -1.43266 -1.22965 0
M  V30 797 O 77.8612 -0.538458 -1.74376 0
M  V30 798 C 77.9122 -3.61375 -0.0950384 0
M  V30 799 O 77.6332 -4.22495 1.15887 0
M  V30 800 C 79.1342 -4.38693 -0.637434 0
M  V30 801 H 76.3542 -0.668479 0.0581075 0
M  V30 802 H 78.8982 -1.8798 0.805218 0
M  V30 803 H 77.0532 -3.79578 -0.774554 0
M  V30 804 H 77.4672 -5.15385 0.973598 0
M  V30 805 H 78.9412 -5.47464 -0.706237 0
M  V30 806 H 79.4182 -4.06836 -1.65472 0
M  V30 807 H 80.0242 -4.25299 0.00725967 0
M  V30 808 N 78.3393 -0.321999 -1.54275 0
M  V30 809 C 79.3023 0.531975 -2.22941 0
M  V30 810 C 80.3023 1.04478 -1.22234 0
M  V30 811 O 81.4923 0.937452 -1.46825 0
M  V30 812 C 78.6243 1.73874 -2.93224 0
M  V30 813 H 79.8173 -0.0682612 -2.99822 0
M  V30 814 H 77.3703 -0.0730644 -1.56129 0
M  V30 815 H 78.1053 2.37825 -2.20476 0
M  V30 816 H 77.8903 1.37847 -3.6707 0
M  V30 817 H 79.3803 2.34496 -3.45545 0
M  V30 818 N 79.8174 1.5752 -0.0501392 0
M  V30 819 C 80.7504 2.07026 0.959962 0
M  V30 820 C 81.7284 0.970539 1.30458 0
M  V30 821 O 82.9124 1.2424 1.41763 0
M  V30 822 C 80.0394 2.5099 2.27424 0
M  V30 823 C 79.0854 3.72188 2.08275 0
M  V30 824 S 79.9184 5.17888 1.36207 0
M  V30 825 C 81.0744 5.65165 2.6896 0
M  V30 826 H 81.3074 2.9238 0.538631 0
M  V30 827 H 78.8404 1.53547 0.162099 0
M  V30 828 H 80.7984 2.76982 3.02971 0
M  V30 829 H 79.4594 1.65944 2.66686 0
M  V30 830 H 78.6524 4.00866 3.05487 0
M  V30 831 H 78.2544 3.46457 1.40868 0
M  V30 832 H 80.5464 5.70687 3.65133 0
M  V30 833 H 81.4894 6.64394 2.4492 0
M  V30 834 H 81.8974 4.9289 2.75172 0
M  V30 835 N 81.2955 -0.223234 1.56011 0
M  V30 836 C 82.2255 -1.27988 1.95298 0
M  V30 837 C 83.2065 -1.48976 0.820979 0
M  V30 838 O 84.3915 -1.61188 1.08315 0
M  V30 839 C 81.5215 -2.63 2.26822 0
M  V30 840 C 80.4755 -2.56671 3.42497 0
M  V30 841 C 79.8015 -3.95697 3.59622 0
M  V30 842 C 81.1015 -2.11601 4.77517 0
M  V30 843 H 82.7955 -0.953525 2.8381 0
M  V30 844 H 80.3415 -0.457244 1.36548 0
M  V30 845 H 82.2945 -3.37077 2.52898 0
M  V30 846 H 81.0185 -2.9732 1.35161 0
M  V30 847 H 79.6775 -1.85051 3.16467 0
M  V30 848 H 79.3255 -4.27322 2.6534 0
M  V30 849 H 79.0255 -3.92345 4.37424 0
M  V30 850 H 80.5495 -4.71438 3.88044 0
M  V30 851 H 81.9635 -2.7542 5.02809 0
M  V30 852 H 80.3605 -2.19311 5.5859 0
M  V30 853 H 81.4305 -1.06824 4.72987 0
M  V30 854 N 82.7736 -1.49793 -0.48987 0
M  V30 855 C 84.0506 -1.50348 -1.25119 0
M  V30 856 C 84.4306 -0.237466 -2.0976 0
M  V30 857 O 83.7786 0.77981 -2.14782 0
M  V30 858 C 83.9886 -2.78872 -2.09837 0
M  V30 859 C 85.3366 -3.288 -2.68655 0
M  V30 860 O 86.3606 -2.80065 -2.20096 0
M  V30 861 O 85.2196 -4.13707 -3.57083 0
M  V30 862 H 82.3136 -0.602242 -0.566775 0
M  V30 863 H 84.8596 -1.62067 -0.503229 0
M  V30 864 H 83.6316 -3.62499 -1.47343 0
M  V30 865 H 83.2546 -2.70066 -2.91805 0
M  V30 866 N 84.2517 0.741722 -1.39055 0
M  V30 867 C 85.4977 1.50234 -1.37118 0
M  V30 868 C 85.8527 1.92368 0.0350439 0
M  V30 869 O 85.1457 1.63422 1.00019 0
M  V30 870 C 85.3397 2.7592 -2.27163 0
M  V30 871 C 85.1687 2.46074 -3.76401 0
M  V30 872 C 83.9387 2.38704 -4.45364 0
M  V30 873 C 86.1367 2.12062 -4.68545 0
M  V30 874 N 84.1187 2.01258 -5.79973 0
M  V30 875 C 85.4897 1.85005 -5.91754 0
M  V30 876 C 87.5447 1.98473 -4.56632 0
M  V30 877 C 86.2477 1.4573 -7.04383 0
M  V30 878 C 88.2737 1.60599 -5.69176 0
M  V30 879 C 87.6357 1.34423 -6.91455 0
M  V30 880 H 83.7347 0.548858 -0.557027 0
M  V30 881 H 86.3187 0.862642 -1.74547 0
M  V30 882 H 84.4897 3.3768 -1.91904 0
M  V30 883 H 86.2217 3.42068 -2.16267 0
M  V30 884 H 82.9767 2.55574 -3.98721 0
M  V30 885 H 83.4007 1.85147 -6.51191 0
M  V30 886 H 88.0427 2.17381 -3.62637 0
M  V30 887 H 85.7607 1.25562 -7.98286 0
M  V30 888 H 89.3467 1.507 -5.61944 0
M  V30 889 H 88.2267 1.05555 -7.77064 0
M  V30 890 N 85.7298 1.2412 0.971189 0
M  V30 891 C 87.1408 1.07236 1.52831 0
M  V30 892 C 87.4918 -0.357352 1.92918 0
M  V30 893 O 86.6168 -1.24528 1.76979 0
M  V30 894 C 87.2118 1.94043 2.77728 0
M  V30 895 C 85.7708 1.81394 3.29808 0
M  V30 896 C 84.9178 1.89189 2.02738 0
M  V30 897 H 87.8688 1.37648 0.789864 0
M  V30 898 H 87.8898 1.47066 3.5093 0
M  V30 899 H 87.4018 2.98093 2.4852 0
M  V30 900 H 85.5028 0.801634 3.63874 0
M  V30 901 H 85.6158 2.65294 3.98944 0
M  V30 902 H 83.9798 1.32877 2.17292 0
M  V30 903 H 84.7628 2.94812 1.759 0
M  V30 904 N 87.2079 -1.17134 1.05439 0
M  V30 905 C 88.1399 -2.2078 0.615539 0
M  V30 906 C 89.1529 -1.59584 -0.322001 0
M  V30 907 O 90.3419 -1.78133 -0.114344 0
M  V30 908 C 87.4419 -3.38691 -0.118938 0
M  V30 909 C 86.6149 -4.29454 0.829924 0
M  V30 910 C 85.6739 -5.26024 0.136258 0
M  V30 911 O 84.6999 -5.63952 0.77115 0
M  V30 912 N 85.9019 -5.69487 -1.1254 0
M  V30 913 H 88.6669 -2.59052 1.50705 0
M  V30 914 H 86.2279 -1.32058 0.936603 0
M  V30 915 H 88.2199 -4.00329 -0.593179 0
M  V30 916 H 86.7899 -2.98996 -0.91215 0
M  V30 917 H 86.0099 -3.65211 1.48373 0
M  V30 918 H 87.2979 -4.86984 1.47392 0
M  V30 919 H 86.6959 -5.4075 -1.6615 0
M  V30 920 H 85.2529 -6.33257 -1.54366 0
M  V30 921 N 88.686 -0.835752 -1.33615 0
M  V30 922 C 90.102 -0.523139 -1.50783 0
M  V30 923 C 90.302 0.950171 -1.77691 0
M  V30 924 O 89.358 1.73411 -1.83534 0
M  V30 925 C 90.671 -1.39378 -2.66448 0
M  V30 926 C 92.219 -1.39223 -2.80332 0
M  V30 927 C 92.694 -2.24765 -3.99055 0
M  V30 928 N 94.185 -2.22458 -4.06284 0
M  V30 929 C 94.92 -2.85386 -4.97336 0
M  V30 930 N 94.416 -3.57354 -5.93523 0
M  V30 931 N 96.209 -2.74872 -4.90308 0
M  V30 932 H 88.36 -1.78952 -1.14411 0
M  V30 933 H 90.623 -0.763297 -0.562212 0
M  V30 934 H 90.329 -2.44061 -2.53234 0
M  V30 935 H 90.203 -1.0676 -3.61776 0
M  V30 936 H 92.59 -0.353136 -2.92979 0
M  V30 937 H 92.671 -1.75846 -1.85773 0
M  V30 938 H 92.315 -3.28732 -3.87167 0
M  V30 939 H 92.245 -1.85485 -4.92852 0
M  V30 940 H 94.736 -1.70119 -3.37443 0
M  V30 941 H 95.049 -4.02584 -6.59656 0
M  V30 942 H 93.394 -3.61461 -5.93608 0
M  V30 943 H 96.585 -2.18213 -4.14126 0
M  V30 944 H 96.758 -3.24199 -5.61069 0
M  V30 945 N 90.1641 1.46063 -0.591896 0
M  V30 946 C 91.4121 2.01938 -0.0808391 0
M  V30 947 C 91.7331 1.46475 1.28725 0
M  V30 948 O 91.0031 0.652944 1.84698 0
M  V30 949 H 89.5831 0.746516 -0.0268938 0
M  V30 950 H 92.2451 1.79055 -0.769752 0
M  V30 951 H 91.3411 3.12094 -0.0187578 0
M  V30 952 N 91.6422 0.330177 1.54103 0
M  V30 953 C 92.5742 -0.566902 2.22079 0
M  V30 954 C 93.5872 -1.07462 1.22294 0
M  V30 955 O 94.7762 -0.987065 1.48726 0
M  V30 956 C 91.8762 -1.79138 2.87685 0
M  V30 957 C 91.0492 -1.42123 4.13666 0
M  V30 958 C 90.1082 -2.50394 4.62806 0
M  V30 959 O 89.1342 -2.14261 5.27334 0
M  V30 960 N 90.3362 -3.81433 4.37595 0
M  V30 961 H 93.1012 0.0151844 2.99696 0
M  V30 962 H 90.6622 0.153681 1.61169 0
M  V30 963 H 92.6542 -2.50975 3.1748 0
M  V30 964 H 91.2242 -2.28115 2.13734 0
M  V30 965 H 90.4442 -0.534201 3.90564 0
M  V30 966 H 91.7322 -1.14971 4.9564 0
M  V30 967 H 91.1302 -4.13584 3.8596 0
M  V30 968 H 89.6872 -4.4948 4.72029 0
M  V30 969 N 93.1203 -1.57491 0.0584922 0
M  V30 970 C 94.0503 -2.14988 -0.911178 0
M  V30 971 C 95.0313 -1.07343 -1.31952 0
M  V30 972 O 96.2163 -1.35318 -1.39294 0
M  V30 973 C 93.3463 -2.70078 -2.18347 0
M  V30 974 C 92.3003 -3.82771 -1.91495 0
M  V30 975 C 91.6263 -4.24408 -3.25241 0
M  V30 976 C 92.9263 -5.07592 -1.23075 0
M  V30 977 H 94.6203 -2.96263 -0.432246 0
M  V30 978 H 92.1663 -1.42512 -0.206469 0
M  V30 979 H 94.1193 -3.08943 -2.86587 0
M  V30 980 H 92.8433 -1.86005 -2.68458 0
M  V30 981 H 91.5023 -3.44389 -1.25664 0
M  V30 982 H 91.1503 -3.37275 -3.73168 0
M  V30 983 H 90.8503 -5.00366 -3.08071 0
M  V30 984 H 92.3743 -4.65879 -3.94701 0
M  V30 985 H 93.7883 -5.43857 -1.81362 0
M  V30 986 H 92.1853 -5.88741 -1.16207 0
M  V30 987 H 93.2553 -4.84454 -0.207847 0
M  V30 988 N 94.5984 0.214957 -1.56127 0
M  V30 989 C 95.8464 0.936518 -1.79091 0
M  V30 990 C 96.1674 1.84606 -0.628148 0
M  V30 991 O 95.4374 1.92664 0.35462 0
M  V30 992 H 94.0174 0.3488 -0.660566 0
M  V30 993 H 96.6794 0.22523 -1.93594 0
M  V30 994 H 95.7754 1.53943 -2.71492 0
M  V30 995 N 96.0765 1.50051 0.48192 0
M  V30 996 C 97.3015 1.64508 1.26301 0
M  V30 997 C 97.7265 0.323851 1.85291 0
M  V30 998 O 97.0845 -0.710969 1.66778 0
M  V30 999 C 97.1325 2.7305 2.35533 0
M  V30 1000 O 96.2365 2.3355 3.39895 0
M  V30 1001 H 95.5775 0.549978 0.372048 0
M  V30 1002 H 98.1075 1.9636 0.574786 0
M  V30 1003 H 98.1175 2.95799 2.8101 0
M  V30 1004 H 96.7925 3.68946 1.91967 0
M  V30 1005 H 95.3695 2.21205 3.00204 0
M  V30 1006 N 97.5546 -0.734337 1.39446 0
M  V30 1007 C 98.8006 -1.49613 1.36908 0
M  V30 1008 C 99.1336 -1.94169 -0.0347829 0
M  V30 1009 O 98.4086 -1.66833 -0.999847 0
M  V30 1010 C 98.6916 -2.73534 2.34203 0
M  V30 1011 C 98.5446 -2.34993 3.83534 0
M  V30 1012 C 99.8636 -3.75635 2.29317 0
M  V30 1013 H 96.9826 -0.542714 0.498629 0
M  V30 1014 H 99.6246 -0.839597 1.70443 0
M  V30 1015 H 97.7746 -3.29553 2.05736 0
M  V30 1016 H 99.4466 -1.84601 4.22753 0
M  V30 1017 H 97.6896 -1.67213 4.00278 0
M  V30 1018 H 98.3606 -3.23738 4.47099 0
M  V30 1019 H 100.837 -3.29203 2.54489 0
M  V30 1020 H 99.7126 -4.60008 2.99472 0
M  V30 1021 H 99.9736 -4.22603 1.29842 0
M  V30 1022 N 99.0327 -1.24633 -0.964593 0
M  V30 1023 C 100.261 -1.11501 -1.74285 0
M  V30 1024 C 100.676 0.332165 -1.85855 0
M  V30 1025 O 100.033 1.22903 -1.34911 0
M  V30 1026 C 100.084 -1.75258 -3.16175 0
M  V30 1027 O 99.8047 -3.14318 -3.05182 0
M  V30 1028 C 101.306 -1.67776 -4.10324 0
M  V30 1029 H 98.5257 -0.389407 -0.546446 0
M  V30 1030 H 101.07 -1.64801 -1.21083 0
M  V30 1031 H 99.2247 -1.25954 -3.66353 0
M  V30 1032 H 99.6387 -3.4551 -3.94618 0
M  V30 1033 H 101.113 -2.17064 -5.0753 0
M  V30 1034 H 101.59 -0.639584 -4.34518 0
M  V30 1035 H 102.196 -2.16522 -3.66058 0
M  V30 1036 N 100.511 1.16574 -1.06058 0
M  V30 1037 C 101.474 2.19085 -0.673392 0
M  V30 1038 C 102.474 1.5835 0.279648 0
M  V30 1039 O 103.664 1.74088 0.0623488 0
M  V30 1040 C 100.796 3.40899 0.00954234 0
M  V30 1041 H 101.989 2.54853 -1.58081 0
M  V30 1042 H 99.5418 1.30808 -0.855516 0
M  V30 1043 H 100.277 3.10684 0.929826 0
M  V30 1044 H 100.062 3.86233 -0.67573 0
M  V30 1045 H 101.552 4.1675 0.266245 0
M  V30 1046 N 101.989 0.842826 1.3317 0
M  V30 1047 C 103.4 0.496651 1.79973 0
M  V30 1048 C 103.751 -0.984641 1.69703 0
M  V30 1049 O 102.876 -1.76743 1.24863 0
M  V30 1050 C 103.471 0.894727 3.26772 0
M  V30 1051 C 102.03 0.600629 3.71577 0
M  V30 1052 C 101.177 1.10091 2.5451 0
M  V30 1053 H 104.128 1.03116 1.20635 0
M  V30 1054 H 104.149 0.206347 3.7994 0
M  V30 1055 H 103.661 1.97287 3.34215 0
M  V30 1056 H 101.762 -0.467284 3.69658 0
M  V30 1057 H 101.875 1.15863 4.64879 0
M  V30 1058 H 100.239 0.52162 2.49301 0
M  V30 1059 H 101.022 2.18591 2.64713 0
M  V30 1060 N 103.467 -1.45747 0.599634 0
M  V30 1061 C 104.397 -2.33235 -0.111306 0
M  V30 1062 C 105.378 -1.46359 -0.866781 0
M  V30 1063 O 106.563 -1.75146 -0.838904 0
M  V30 1064 C 103.693 -3.28932 -1.11451 0
M  V30 1065 C 102.647 -4.25381 -0.472772 0
M  V30 1066 C 101.973 -5.1071 -1.58365 0
M  V30 1067 C 103.273 -5.18831 0.600948 0
M  V30 1068 H 104.967 -2.92927 0.61919 0
M  V30 1069 H 102.513 -1.40857 0.299215 0
M  V30 1070 H 104.466 -3.89002 -1.62036 0
M  V30 1071 H 103.19 -2.67381 -1.8755 0
M  V30 1072 H 101.849 -3.66598 0.0121472 0
M  V30 1073 H 101.497 -4.45533 -2.33473 0
M  V30 1074 H 101.197 -5.7604 -1.15982 0
M  V30 1075 H 102.721 -5.73647 -2.09194 0
M  V30 1076 H 104.135 -5.73019 0.179491 0
M  V30 1077 H 102.532 -5.92595 0.946076 0
M  V30 1078 H 103.602 -4.6174 1.48068 0
M  V30 1079 N 104.945 -0.338344 -1.53925 0
M  V30 1080 C 106.194 0.260732 -2.00008 0
M  V30 1081 C 106.507 1.52073 -1.23017 0
M  V30 1082 O 107.713 2.19672 -1.5955 0
M  V30 1083 C 106.169 0.51515 -3.56194 0
M  V30 1084 C 105.777 -0.728645 -4.42035 0
M  V30 1085 C 107.521 1.07337 -4.10706 0
M  V30 1086 C 105.428 -0.445315 -5.89721 0
M  V30 1087 H 104.358 0.101205 -0.747177 0
M  V30 1088 H 107.009 -0.452866 -1.77824 0
M  V30 1089 H 105.391 1.28932 -3.74423 0
M  V30 1090 H 106.565 -1.50352 -4.35581 0
M  V30 1091 H 104.88 -1.20813 -3.98489 0
M  V30 1092 H 107.477 1.30022 -5.18651 0
M  V30 1093 H 107.82 2.0273 -3.63602 0
M  V30 1094 H 108.353 0.360034 -3.96167 0
M  V30 1095 H 105.092 -1.36883 -6.41049 0
M  V30 1096 H 104.612 0.291569 -5.99091 0
M  V30 1097 H 106.291 -0.0606218 -6.46972 0
M  V30 1098 N 106.423 1.57458 -0.0668435 0
M  V30 1099 C 107.648 1.9804 0.616027 0
M  V30 1100 C 108.073 0.944771 1.62652 0
M  V30 1101 O 107.431 -0.0902094 1.81075 0
M  V30 1102 C 107.479 3.37665 1.26549 0
M  V30 1103 O 106.583 3.36701 2.38131 0
M  V30 1104 H 105.924 0.644719 0.158849 0
M  V30 1105 H 108.454 2.04121 -0.139891 0
M  V30 1106 H 108.464 3.7474 1.6135 0
M  V30 1107 H 107.139 4.12573 0.525016 0
M  V30 1108 H 105.716 3.1139 2.0516 0
M  V30 1109 N 107.901 -0.206675 1.56239 0
M  V30 1110 C 108.831 -1.25909 1.96645 0
M  V30 1111 C 109.812 -1.48097 0.836734 0
M  V30 1112 O 110.997 -1.6003 1.10019 0
M  V30 1113 C 108.127 -2.6058 2.29599 0
M  V30 1114 C 107.081 -2.53024 3.452 0
M  V30 1115 C 106.407 -3.91861 3.63798 0
M  V30 1116 C 107.707 -2.06524 4.79734 0
M  V30 1117 H 109.401 -0.923369 2.84806 0
M  V30 1118 H 106.947 -0.442735 1.37025 0
M  V30 1119 H 108.9 -3.34375 2.56459 0
M  V30 1120 H 107.624 -2.95869 1.38307 0
M  V30 1121 H 106.283 -1.81684 3.18412 0
M  V30 1122 H 105.931 -4.24483 2.69857 0
M  V30 1123 H 105.631 -3.87683 4.4156 0
M  V30 1124 H 107.155 -4.67296 3.93022 0
M  V30 1125 H 108.569 -2.70072 5.05702 0
M  V30 1126 H 106.966 -2.13374 5.60885 0
M  V30 1127 H 108.036 -1.01802 4.74093 0
M  V30 1128 N 109.379 -1.50304 -0.473955 0
M  V30 1129 C 110.607 -1.64902 -1.24959 0
M  V30 1130 C 111.022 -0.331198 -1.85872 0
M  V30 1131 O 110.379 0.68652 -1.69095 0
M  V30 1132 C 110.43 -2.73803 -2.36038 0
M  V30 1133 O 110.151 -4.00477 -1.77624 0
M  V30 1134 C 111.652 -2.99349 -3.26964 0
M  V30 1135 H 108.872 -0.554383 -0.378022 0
M  V30 1136 H 111.416 -1.9651 -0.566054 0
M  V30 1137 H 109.571 -2.44898 -3.00173 0
M  V30 1138 H 109.985 -4.60678 -2.5075 0
M  V30 1139 H 111.459 -3.79217 -4.01121 0
M  V30 1140 H 111.936 -2.10307 -3.85574 0
M  V30 1141 H 112.542 -3.29774 -2.68569 0
M  V30 1142 N 110.857 0.726932 -1.39834 0
M  V30 1143 C 112.268 1.30558 -1.3346 0
M  V30 1144 C 112.619 1.962 -0.00273003 0
M  V30 1145 O 111.744 1.96826 0.899371 0
M  V30 1146 C 112.339 2.37404 -2.41713 0
M  V30 1147 C 110.898 2.90921 -2.38835 0
M  V30 1148 C 110.045 1.64578 -2.2318 0
M  V30 1149 H 112.996 0.523862 -1.49804 0
M  V30 1150 H 113.017 3.17984 -2.08966 0
M  V30 1151 H 112.529 1.89599 -3.38635 0
M  V30 1152 H 110.63 3.42985 -1.45575 0
M  V30 1153 H 110.743 3.43487 -3.33997 0
M  V30 1154 H 109.107 1.89219 -1.70494 0
M  V30 1155 H 109.89 1.18814 -3.22084 0
M  V30 1156 N 112.336 1.25143 0.95797 0
M  V30 1157 C 113.582 1.09855 1.70469 0
M  V30 1158 C 113.915 -0.360187 1.90831 0
M  V30 1159 O 113.19 -1.26568 1.47685 0
M  V30 1160 C 113.473 1.8497 3.08963 0
M  V30 1161 C 113.326 3.38652 2.96032 0
M  V30 1162 C 114.645 1.63016 4.08795 0
M  V30 1163 H 111.764 0.400465 0.618706 0
M  V30 1164 H 114.406 1.53933 1.11376 0
M  V30 1165 H 112.556 1.47505 3.59409 0
M  V30 1166 H 114.228 3.85772 2.52938 0
M  V30 1167 H 112.471 3.66534 2.32025 0
M  V30 1168 H 113.142 3.8642 3.94187 0
M  V30 1169 H 115.618 1.95625 3.67247 0
M  V30 1170 H 114.494 2.18015 5.03747 0
M  V30 1171 H 114.755 0.570692 4.38401 0
M  V30 1172 N 113.814 -1.1601 1.06675 0
M  V30 1173 C 115.091 -1.82679 0.699114 0
M  V30 1174 C 115.471 -1.94559 -0.819137 0
M  V30 1175 O 114.819 -1.49169 -1.73092 0
M  V30 1176 C 115.029 -3.19445 1.40555 0
M  V30 1177 C 116.377 -3.95171 1.55323 0
M  V30 1178 O 117.401 -3.28976 1.36577 0
M  V30 1179 O 116.26 -5.13833 1.86112 0
M  V30 1180 H 113.354 -0.788954 0.247951 0
M  V30 1181 H 115.9 -1.23179 1.16726 0
M  V30 1182 H 114.672 -3.05856 2.44065 0
M  V30 1183 H 114.295 -3.86625 0.927733 0
M  V30 1184 N 115.292 -0.849877 -1.32721 0
M  V30 1185 C 116.539 -0.450923 -1.97416 0
M  V30 1186 C 116.867 0.992376 -1.67279 0
M  V30 1187 O 116.122 1.71048 -0.950845 0
M  V30 1188 C 116.421 -0.631272 -3.51781 0
M  V30 1189 C 116.087 -2.04432 -4.01894 0
M  V30 1190 C 114.749 -2.4308 -4.1529 0
M  V30 1191 C 117.101 -2.96679 -4.28522 0
M  V30 1192 C 114.429 -3.73257 -4.52654 0
M  V30 1193 C 116.781 -4.26349 -4.67343 0
M  V30 1194 C 115.445 -4.64939 -4.78945 0
M  V30 1195 H 114.715 -0.165004 -0.722395 0
M  V30 1196 H 117.362 -1.07901 -1.58207 0
M  V30 1197 H 115.667 0.0800767 -3.91718 0
M  V30 1198 H 117.364 -0.302709 -3.99856 0
M  V30 1199 H 113.954 -1.73419 -3.91949 0
M  V30 1200 H 118.138 -2.68054 -4.17685 0
M  V30 1201 H 113.394 -4.02946 -4.59831 0
M  V30 1202 H 117.568 -4.97895 -4.86902 0
M  V30 1203 H 115.195 -5.65855 -5.07654 0
M  V30 1204 N 116.77 1.45427 -0.607355 0
M  V30 1205 C 117.998 2.06614 -0.108814 0
M  V30 1206 C 118.413 1.45204 1.2067 0
M  V30 1207 O 117.77 0.566132 1.73497 0
M  V30 1208 C 117.821 3.61481 0.0375347 0
M  V30 1209 O 117.542 4.20598 -1.22593 0
M  V30 1210 C 119.043 4.39652 0.567561 0
M  V30 1211 H 116.263 0.66747 -0.0687351 0
M  V30 1212 H 118.807 1.86675 -0.835022 0
M  V30 1213 H 116.962 3.80762 0.714068 0
M  V30 1214 H 117.376 5.1377 -1.05547 0
M  V30 1215 H 118.85 5.48518 0.61905 0
M  V30 1216 H 119.327 4.09417 1.58978 0
M  V30 1217 H 119.933 4.25234 -0.0749202 0
M  V30 1218 N 118.248 0.346503 1.53744 0
M  V30 1219 C 119.211 -0.496439 2.23759 0
M  V30 1220 C 120.211 -1.0252 1.2388 0
M  V30 1221 O 121.401 -0.913974 1.48297 0
M  V30 1222 C 118.533 -1.69187 2.95954 0
M  V30 1223 H 119.726 0.115952 2.99676 0
M  V30 1224 H 117.279 0.0978939 1.55993 0
M  V30 1225 H 118.014 -2.34288 2.24231 0
M  V30 1226 H 117.799 -1.31989 3.69217 0
M  V30 1227 H 119.289 -2.28969 3.49232 0
M  V30 1228 N 119.726 -1.57421 0.075193 0
M  V30 1229 C 120.954 -1.97946 -0.602076 0
M  V30 1230 C 121.369 -0.953674 -1.62943 0
M  V30 1231 O 120.726 0.0592551 -1.82404 0
M  V30 1232 C 120.777 -3.38546 -1.26762 0
M  V30 1233 O 120.498 -4.37195 -0.281376 0
M  V30 1234 C 121.999 -3.93966 -2.03239 0
M  V30 1235 H 119.219 -0.650918 -0.162931 0
M  V30 1236 H 121.763 -2.03959 0.148601 0
M  V30 1237 H 119.918 -3.33609 -1.96936 0
M  V30 1238 H 120.332 -5.18975 -0.759267 0
M  V30 1239 H 121.806 -4.94555 -2.45193 0
M  V30 1240 H 122.283 -3.30693 -2.8903 0
M  V30 1241 H 122.889 -4.02315 -1.37924 0
M  V30 1242 N 121.204 0.198386 -1.56346 0
M  V30 1243 C 122.45 0.920648 -1.80698 0
M  V30 1244 C 122.783 1.83045 -0.648697 0
M  V30 1245 O 122.058 1.91308 0.350925 0
M  V30 1246 C 122.341 1.73971 -3.15287 0
M  V30 1247 C 122.194 0.85485 -4.41602 0
M  V30 1248 C 123.513 2.71296 -3.46535 0
M  V30 1249 H 120.632 0.333261 -0.657348 0
M  V30 1250 H 123.274 0.188198 -1.89066 0
M  V30 1251 H 121.424 2.36416 -3.08285 0
M  V30 1252 H 123.096 0.245362 -4.60647 0
M  V30 1253 H 121.339 0.161398 -4.335 0
M  V30 1254 H 122.01 1.46286 -5.32264 0
M  V30 1255 H 124.486 2.18983 -3.53816 0
M  V30 1256 H 123.362 3.2569 -4.41834 0
M  V30 1257 H 123.623 3.5018 -2.69864 0
M  V30 1258 N 122.682 1.50554 0.465978 0
M  V30 1259 C 124.093 1.54599 1.04671 0
M  V30 1260 C 124.444 0.352488 1.93008 0
M  V30 1261 O 123.569 -0.534044 2.09707 0
M  V30 1262 C 124.164 2.80166 1.90505 0
M  V30 1263 C 122.723 2.86876 2.43678 0
M  V30 1264 C 121.87 2.48947 1.22151 0
M  V30 1265 H 124.821 1.56744 0.248384 0
M  V30 1266 H 124.842 2.62311 2.75633 0
M  V30 1267 H 124.354 3.67013 1.26186 0
M  V30 1268 H 122.455 2.04393 3.11536 0
M  V30 1269 H 122.568 3.89885 2.78436 0
M  V30 1270 H 120.932 2.01498 1.5579 0
M  V30 1271 H 121.715 3.38107 0.594866 0
M  V30 1272 N 124.16 -0.719506 1.40217 0
M  V30 1273 C 125.4 -1.49181 1.39729 0
M  V30 1274 C 125.764 -1.92 -0.00250614 0
M  V30 1275 O 126.965 -2.68473 -0.132479 0
M  V30 1276 C 125.236 -2.68767 2.35582 0
M  V30 1277 S 126.795 -3.58224 2.53418 0
M  V30 1278 H 123.613 -0.510091 0.495307 0
M  V30 1279 H 126.215 -0.841724 1.76452 0
M  V30 1280 H 124.919 -2.35475 3.36124 0
M  V30 1281 H 124.45 -3.38691 2.0013 0
M  V30 1282 H 126.465 -4.63033 1.78367 0
M  V30 1283 N 125.638 -1.25649 -0.95132 0
M  V30 1284 C 126.915 -1.01361 -1.67288 0
M  V30 1285 C 127.295 0.459135 -2.06046 0
M  V30 1286 O 126.643 1.43723 -1.7764 0
M  V30 1287 C 126.853 -1.95256 -2.89268 0
M  V30 1288 C 128.201 -2.23289 -3.61147 0
M  V30 1289 O 129.225 -1.93041 -2.99355 0
M  V30 1290 O 128.084 -2.74741 -4.72419 0
M  V30 1291 H 125.178 -0.38464 -0.732107 0
M  V30 1292 H 127.724 -1.36817 -1.00395 0
M  V30 1293 H 126.496 -2.94685 -2.57442 0
M  V30 1294 H 126.119 -1.60218 -3.6389 0
M  V30 1295 N 127.117 1.15442 -1.07289 0
M  V30 1296 C 128.363 1.86489 -0.796846 0
M  V30 1297 C 128.696 1.82078 0.675371 0
M  V30 1298 O 127.971 1.24346 1.4956 0
M  V30 1299 C 128.254 3.35626 -1.30489 0
M  V30 1300 C 128.107 3.48673 -2.84161 0
M  V30 1301 C 129.426 4.30357 -0.920907 0
M  V30 1302 H 126.545 0.677144 -0.290939 0
M  V30 1303 H 129.187 1.35633 -1.33056 0
M  V30 1304 H 127.337 3.79068 -0.850883 0
M  V30 1305 H 129.009 3.14099 -3.37846 0
M  V30 1306 H 127.252 2.90253 -3.22391 0
M  V30 1307 H 127.923 4.53453 -3.14777 0
M  V30 1308 H 130.399 3.94871 -1.3121 0
M  V30 1309 H 129.275 5.33193 -1.30372 0
M  V30 1310 H 129.536 4.4176 0.173226 0
M  V30 1311 N 128.595 0.856903 1.32268 0
M  V30 1312 C 129.841 0.462069 1.97466 0
M  V30 1313 C 130.174 -0.980298 1.67642 0
M  V30 1314 O 129.449 -1.68824 0.965858 0
M  V30 1315 C 129.732 0.704336 3.53145 0
M  V30 1316 C 129.585 2.19529 3.9259 0
M  V30 1317 C 130.904 0.1622 4.39801 0
M  V30 1318 H 128.023 0.169357 0.717278 0
M  V30 1319 H 130.665 1.07574 1.56614 0
M  V30 1320 H 128.815 0.181999 3.88073 0
M  V30 1321 H 130.487 2.78387 3.67829 0
M  V30 1322 H 128.73 2.67292 3.41668 0
M  V30 1323 H 129.401 2.31549 5.01088 0
M  V30 1324 H 131.877 0.608905 4.11621 0
M  V30 1325 H 130.753 0.361265 5.4771 0
M  V30 1326 H 131.014 -0.935158 4.32096 0
M  V30 1327 N 130.073 -1.45103 0.615059 0
M  V30 1328 C 131.489 -1.57137 0.279322 0
M  V30 1329 C 131.689 -1.60523 -1.21797 0
M  V30 1330 O 130.745 -1.53956 -2.00134 0
M  V30 1331 C 132.058 -2.85062 0.957083 0
M  V30 1332 C 133.606 -2.98749 0.933706 0
M  V30 1333 C 134.081 -4.29455 1.59162 0
M  V30 1334 N 135.572 -4.36231 1.55746 0
M  V30 1335 C 136.307 -5.36051 2.0356 0
M  V30 1336 N 135.803 -6.42367 2.59494 0
M  V30 1337 N 137.596 -5.27456 1.94284 0
M  V30 1338 H 129.747 -1.41148 1.58717 0
M  V30 1339 H 132.01 -0.675331 0.665306 0
M  V30 1340 H 131.716 -2.88488 2.01166 0
M  V30 1341 H 131.59 -3.7407 0.48494 0
M  V30 1342 H 133.977 -2.94886 -0.112347 0
M  V30 1343 H 134.058 -2.11132 1.44419 0
M  V30 1344 H 133.702 -4.34077 2.63704 0
M  V30 1345 H 133.632 -5.15901 1.0561 0
M  V30 1346 H 136.123 -3.60011 1.14893 0
M  V30 1347 H 136.436 -7.14793 2.93752 0
M  V30 1348 H 134.781 -6.43097 2.63537 0
M  V30 1349 H 137.972 -4.43308 1.5032 0
M  V30 1350 H 138.145 -6.05099 2.3186 0
M  V30 1351 N 131.551 -0.354651 -1.53558 0
M  V30 1352 C 132.514 0.484566 -2.24019 0
M  V30 1353 C 133.514 1.01861 -1.24422 0
M  V30 1354 O 134.704 0.906097 -1.4878 0
M  V30 1355 C 131.836 1.67615 -2.96847 0
M  V30 1356 H 133.029 -0.131843 -2.9961 0
M  V30 1357 H 130.582 -0.106165 -1.55939 0
M  V30 1358 H 131.317 2.33095 -2.25471 0
M  V30 1359 H 131.102 1.30029 -3.69912 0
M  V30 1360 H 132.592 2.27114 -3.50441 0
M  V30 1361 N 133.029 1.57378 -0.0835403 0
M  V30 1362 C 133.962 2.09016 0.915833 0
M  V30 1363 C 134.94 0.997993 1.2837 0
M  V30 1364 O 136.124 1.27219 1.39096 0
M  V30 1365 C 133.251 2.55757 2.22049 0
M  V30 1366 C 132.297 3.76522 2.00333 0
M  V30 1367 S 133.13 5.20661 1.25191 0
M  V30 1368 C 134.286 5.70743 2.56912 0
M  V30 1369 H 134.519 2.93457 0.476492 0
M  V30 1370 H 132.052 1.53856 0.129493 0
M  V30 1371 H 134.01 2.83346 2.97027 0
M  V30 1372 H 132.671 1.71564 2.63106 0
M  V30 1373 H 131.864 4.07256 2.96916 0
M  V30 1374 H 131.466 3.49367 1.33488 0
M  V30 1375 H 133.758 5.78304 3.52946 0
M  V30 1376 H 134.701 6.6944 2.30772 0
M  V30 1377 H 135.109 4.98616 2.64655 0
M  V30 1378 N 134.507 -0.190092 1.56449 0
M  V30 1379 C 135.918 -0.754312 1.70784 0
M  V30 1380 C 136.269 -1.83631 0.690951 0
M  V30 1381 O 135.394 -2.15868 -0.151604 0
M  V30 1382 C 135.989 -1.37503 3.09642 0
M  V30 1383 C 134.548 -1.88628 3.25725 0
M  V30 1384 C 133.695 -0.758098 2.66736 0
M  V30 1385 H 136.646 0.0350524 1.58661 0
M  V30 1386 H 136.667 -2.2445 3.0725 0
M  V30 1387 H 136.179 -0.587302 3.83631 0
M  V30 1388 H 134.28 -2.70103 2.56661 0
M  V30 1389 H 134.393 -2.04462 4.3328 0
M  V30 1390 H 132.757 -1.17369 2.26046 0
M  V30 1391 H 133.54 0.0174705 3.43296 0
M  V30 1392 N 135.985 -1.50799 -0.457987 0
M  V30 1393 C 137.396 -1.55152 -1.0385 0
M  V30 1394 C 137.747 -0.362719 -1.92818 0
M  V30 1395 O 136.872 0.522915 -2.09987 0
M  V30 1396 C 137.467 -2.81173 -1.89017 0
M  V30 1397 C 136.026 -2.88164 -2.42154 0
M  V30 1398 C 135.173 -2.49591 -1.20829 0
M  V30 1399 H 138.124 -1.56874 -0.240068 0
M  V30 1400 H 138.145 -2.63769 -2.74238 0
M  V30 1401 H 137.657 -3.67677 -1.24238 0
M  V30 1402 H 135.758 -2.06042 -3.10447 0
M  V30 1403 H 135.871 -3.91356 -2.76364 0
M  V30 1404 H 134.235 -2.02322 -1.54719 0
M  V30 1405 H 135.018 -3.38418 -0.576927 0
M  V30 1406 N 137.463 0.71206 -1.40597 0
M  V30 1407 C 138.426 1.80785 -1.40888 0
M  V30 1408 C 139.426 1.57937 -0.302103 0
M  V30 1409 O 140.616 1.64913 -0.561182 0
M  V30 1410 C 137.748 3.18927 -1.20409 0
M  V30 1411 H 138.941 1.81924 -2.38419 0
M  V30 1412 H 136.494 0.91805 -1.26497 0
M  V30 1413 H 137.229 3.23436 -0.236522 0
M  V30 1414 H 137.014 3.36911 -2.00582 0
M  V30 1415 H 138.504 3.98949 -1.23408 0
M  V30 1416 N 138.941 1.26152 0.944643 0
M  V30 1417 C 140.189 1.11271 1.6871 0
M  V30 1418 C 140.51 -0.345166 1.91921 0
M  V30 1419 O 139.78 -1.24387 1.51343 0
M  V30 1420 H 138.36 0.408783 0.625224 0
M  V30 1421 H 141.022 1.58427 1.1352 0
M  V30 1422 H 140.118 1.62879 2.66227 0
M  V30 1423 N 140.419 -1.14872 1.07899 0
M  V30 1424 C 141.667 -1.85422 0.803941 0
M  V30 1425 C 141.988 -1.83051 -0.67211 0
M  V30 1426 O 141.258 -1.27532 -1.48703 0
M  V30 1427 H 139.838 -0.686537 0.294408 0
M  V30 1428 H 142.5 -1.39226 1.3639 0
M  V30 1429 H 141.596 -2.90399 1.14346 0
M  V30 1430 N 141.898 -0.863906 -1.31812 0
M  V30 1431 C 143.144 -0.472535 -1.97218 0
M  V30 1432 C 143.477 0.971394 -1.68159 0
M  V30 1433 O 142.752 1.68309 -0.974798 0
M  V30 1434 C 143.035 -0.723054 -3.52766 0
M  V30 1435 C 142.888 -2.21608 -3.91421 0
M  V30 1436 C 144.207 -0.185522 -4.39709 0
M  V30 1437 H 141.326 -0.173158 -0.71637 0
M  V30 1438 H 143.968 -1.08403 -1.56041 0
M  V30 1439 H 142.118 -0.202577 -3.87971 0
M  V30 1440 H 143.79 -2.80334 -3.66347 0
M  V30 1441 H 142.033 -2.691 -3.40246 0
M  V30 1442 H 142.704 -2.34203 -4.99853 0
M  V30 1443 H 145.18 -0.630726 -4.11292 0
M  V30 1444 H 144.056 -0.390306 -5.47511 0
M  V30 1445 H 144.317 0.912229 -4.32586 0
M  V30 1446 N 143.376 1.44774 -0.622745 0
M  V30 1447 C 144.622 2.0242 -0.124083 0
M  V30 1448 C 144.955 1.4881 1.24777 0
M  V30 1449 O 144.23 0.668799 1.8264 0
M  V30 1450 C 144.513 3.59957 -0.101619 0
M  V30 1451 C 144.366 4.23867 -1.50521 0
M  V30 1452 C 145.685 4.36284 0.578272 0
M  V30 1453 H 142.804 0.735528 -0.0465645 0
M  V30 1454 H 145.446 1.72447 -0.797617 0
M  V30 1455 H 143.596 3.85623 0.471934 0
M  V30 1456 H 145.268 4.09336 -2.12701 0
M  V30 1457 H 143.511 3.81684 -2.06154 0
M  V30 1458 H 144.182 5.32843 -1.4416 0
M  V30 1459 H 146.658 4.16001 0.0906057 0
M  V30 1460 H 145.534 5.46004 0.563149 0
M  V30 1461 H 145.795 4.10271 1.64713 0
M  V30 1462 N 144.854 0.36279 1.53368 0
M  V30 1463 C 145.784 -0.476976 2.28576 0
M  V30 1464 C 146.765 -1.08631 1.30894 0
M  V30 1465 O 147.95 -1.10409 1.59761 0
M  V30 1466 C 145.08 -1.61828 3.07293 0
M  V30 1467 C 144.034 -1.13633 4.1264 0
M  V30 1468 C 143.36 -2.36766 4.79423 0
M  V30 1469 C 144.66 -0.223061 5.21823 0
M  V30 1470 H 146.354 0.150474 2.99022 0
M  V30 1471 H 143.9 0.0738103 1.43811 0
M  V30 1472 H 145.853 -2.21237 3.58653 0
M  V30 1473 H 144.577 -2.27292 2.34533 0
M  V30 1474 H 143.236 -0.564945 3.62221 0
M  V30 1475 H 142.884 -3.0068 4.03238 0
M  V30 1476 H 142.584 -2.05192 5.50609 0
M  V30 1477 H 144.108 -2.96865 5.33576 0
M  V30 1478 H 145.522 -0.724545 5.68703 0
M  V30 1479 H 143.919 0.001678 6.001 0
M  V30 1480 H 144.989 0.735553 4.79289 0
M  V30 1481 N 146.332 -1.57332 0.0918853 0
M  V30 1482 C 147.58 -1.93853 -0.571446 0
M  V30 1483 C 147.901 -0.974212 -1.6892 0
M  V30 1484 O 147.171 -0.0257254 -1.95883 0
M  V30 1485 H 145.751 -0.715666 -0.214082 0
M  V30 1486 H 148.413 -1.94287 0.154464 0
M  V30 1487 H 147.509 -2.96191 -0.983729 0
M  V30 1488 N 147.81 0.181792 -1.56548 0
M  V30 1489 C 149.038 0.915947 -1.85521 0
M  V30 1490 C 149.453 1.76282 -0.676016 0
M  V30 1491 O 148.81 1.79012 0.355077 0
M  V30 1492 C 148.861 1.80126 -3.13427 0
M  V30 1493 O 148.582 0.988562 -4.26801 0
M  V30 1494 C 150.083 2.64597 -3.55673 0
M  V30 1495 H 147.303 0.26661 -0.61576 0
M  V30 1496 H 149.847 0.185039 -2.03661 0
M  V30 1497 H 148.002 2.48563 -2.97145 0
M  V30 1498 H 148.416 1.59308 -4.99721 0
M  V30 1499 H 149.89 3.2235 -4.48101 0
M  V30 1500 H 150.367 3.38958 -2.79292 0
M  V30 1501 H 150.973 2.0151 -3.74532 0
M  V30 1502 N 149.288 1.51039 0.449983 0
M  V30 1503 C 150.251 1.70863 1.5277 0
M  V30 1504 C 151.251 0.578846 1.5002 0
M  V30 1505 O 152.441 0.846213 1.52266 0
M  V30 1506 C 149.573 1.75341 2.9235 0
M  V30 1507 H 150.766 2.67034 1.36502 0
M  V30 1508 H 148.319 1.40838 0.677812 0
M  V30 1509 H 149.054 0.809383 3.14037 0
M  V30 1510 H 148.839 2.57436 2.95752 0
M  V30 1511 H 150.329 1.92559 3.70555 0
M  V30 1512 N 150.766 -0.704594 1.40972 0
M  V30 1513 C 152.177 -1.28418 1.3552 0
M  V30 1514 C 152.528 -1.96171 0.0339434 0
M  V30 1515 O 151.653 -1.98231 -0.867944 0
M  V30 1516 C 152.248 -2.33528 2.45459 0
M  V30 1517 C 150.807 -2.87085 2.43433 0
M  V30 1518 C 149.954 -1.61007 2.2577 0
M  V30 1519 H 152.905 -0.499963 1.50619 0
M  V30 1520 H 152.926 -3.14619 2.13998 0
M  V30 1521 H 152.438 -1.84187 3.41609 0
M  V30 1522 H 150.539 -3.40626 1.51013 0
M  V30 1523 H 150.652 -3.3813 3.39419 0
M  V30 1524 H 149.016 -1.86482 1.73483 0
M  V30 1525 H 149.799 -1.13675 3.23933 0
M  V30 1526 N 152.244 -1.26651 -0.937939 0
M  V30 1527 C 153.191 -1.0849 -2.03712 0
M  V30 1528 C 154.161 0.011033 -1.66096 0
M  V30 1529 O 155.346 -0.149353 -1.90215 0
M  V30 1530 C 152.486 -0.72735 -3.37348 0
M  V30 1531 C 151.599 -1.89986 -3.87981 0
M  V30 1532 C 150.734 -1.48513 -5.10017 0
M  V30 1533 C 149.773 -2.62575 -5.5292 0
M  V30 1534 N 148.91 -2.21762 -6.66158 0
M  V30 1535 H 153.75 -2.02551 -2.18579 0
M  V30 1536 H 151.287 -1.00844 -1.07093 0
M  V30 1537 H 153.245 -0.50092 -4.14182 0
M  V30 1538 H 151.875 0.176298 -3.22318 0
M  V30 1539 H 150.927 -2.23913 -3.07518 0
M  V30 1540 H 152.239 -2.75586 -4.15757 0
M  V30 1541 H 151.393 -1.21934 -5.94321 0
M  V30 1542 H 150.132 -0.60009 -4.83994 0
M  V30 1543 H 149.137 -2.8988 -4.67172 0
M  V30 1544 H 150.362 -3.51685 -5.80943 0
M  V30 1545 H 148.308 -1.35696 -6.41812 0
M  V30 1546 H 148.225 -3.00903 -6.93537 0
M  V30 1547 H 149.493 -1.98403 -7.53828 0
M  V30 1548 N 153.722 1.14298 -1.08507 0
M  V30 1549 C 154.654 2.1907 -0.673859 0
M  V30 1550 C 155.667 1.60381 0.279577 0
M  V30 1551 O 156.856 1.78374 0.0670754 0
M  V30 1552 C 153.956 3.38888 0.0290979 0
M  V30 1553 C 153.129 4.27103 -0.943494 0
M  V30 1554 C 152.188 5.25477 -0.275676 0
M  V30 1555 O 151.214 5.61709 -0.920401 0
M  V30 1556 N 152.416 5.7227 0.974013 0
M  V30 1557 H 155.181 2.54965 -1.57521 0
M  V30 1558 H 152.742 1.29528 -0.971287 0
M  V30 1559 H 154.734 4.01761 0.48683 0
M  V30 1560 H 153.304 3.01309 0.832555 0
M  V30 1561 H 152.524 3.61149 -1.58004 0
M  V30 1562 H 153.812 4.82905 -1.60251 0
M  V30 1563 H 153.21 5.44965 1.51755 0
M  V30 1564 H 151.767 6.37127 1.37522 0
M  V30 1565 N 155.201 0.870884 1.31352 0
M  V30 1566 C 156.449 0.48132 1.96285 0
M  V30 1567 C 156.77 -0.969813 1.69173 0
M  V30 1568 O 156.04 -1.67998 1.00764 0
M  V30 1569 H 154.62 0.175002 0.726212 0
M  V30 1570 H 157.282 1.11087 1.60143 0
M  V30 1571 H 156.378 0.639825 3.05471 0
M  V30 1572 N 156.679 -1.44442 0.630414 0
M  V30 1573 C 157.626 -2.30678 -0.0749355 0
M  V30 1574 C 158.596 -1.4344 -0.837502 0
M  V30 1575 O 159.781 -1.72343 -0.818684 0
M  V30 1576 C 156.921 -3.28706 -1.05103 0
M  V30 1577 C 156.034 -4.31046 -0.286954 0
M  V30 1578 C 155.169 -5.16167 -1.2548 0
M  V30 1579 C 154.208 -6.10216 -0.479843 0
M  V30 1580 N 153.345 -6.88039 -1.39811 0
M  V30 1581 H 158.185 -2.90454 0.666386 0
M  V30 1582 H 155.722 -1.43107 0.340404 0
M  V30 1583 H 157.68 -3.84027 -1.63031 0
M  V30 1584 H 156.31 -2.70632 -1.75949 0
M  V30 1585 H 155.362 -3.78203 0.408243 0
M  V30 1586 H 156.674 -4.97794 0.316657 0
M  V30 1587 H 155.828 -5.76002 -1.90544 0
M  V30 1588 H 154.567 -4.49491 -1.89233 0
M  V30 1589 H 153.572 -5.49491 0.184295 0
M  V30 1590 H 154.797 -6.78928 0.152965 0
M  V30 1591 H 152.743 -6.24032 -2.02287 0
M  V30 1592 H 152.66 -7.51223 -0.848508 0
M  V30 1593 H 153.928 -7.52397 -2.03762 0
M  V30 1594 N 158.157 -0.370918 -1.53173 0
M  V30 1595 C 159.434 0.273754 -1.93675 0
M  V30 1596 C 159.814 1.65938 -1.3049 0
M  V30 1597 O 159.162 2.23698 -0.465999 0
M  V30 1598 C 159.372 0.318602 -3.47543 0
M  V30 1599 C 160.72 0.556392 -4.20939 0
M  V30 1600 O 161.744 0.399587 -3.53952 0
M  V30 1601 O 160.603 0.862133 -5.39657 0
M  V30 1602 H 157.697 0.165448 -0.810281 0
M  V30 1603 H 160.243 -0.42409 -1.64315 0
M  V30 1604 H 159.015 -0.652687 -3.85818 0
M  V30 1605 H 158.638 1.06212 -3.83151 0
M  V30 1606 N 159.635 1.57281 -0.100228 0
M  V30 1607 C 160.598 2.13158 0.842398 0
M  V30 1608 C 161.598 1.06202 1.20738 0
M  V30 1609 O 162.788 1.32066 1.13597 0
M  V30 1610 C 159.92 2.65639 2.13655 0
M  V30 1611 H 161.113 2.97766 0.357114 0
M  V30 1612 H 158.666 1.5559 0.148823 0
M  V30 1613 H 159.401 1.84566 2.66657 0
M  V30 1614 H 159.186 3.43844 1.88451 0
M  V30 1615 H 160.676 3.08846 2.81077 0
M  V30 1616 N 161.113 -0.173488 1.56642 0
M  V30 1617 C 162.061 -1.23417 1.97157 0
M  V30 1618 C 163.055 -1.45946 0.860013 0
M  V30 1619 O 164.261 -1.46551 1.04512 0
M  V30 1620 H 160.636 -0.414818 0.62724 0
M  V30 1621 H 162.607 -0.865582 2.8557 0
M  V30 1622 C 161.356 -2.5665 2.34576 0
M  V30 1623 H 160.679 -2.40137 3.19647 0
M  V30 1624 H 162.119 -3.2956 2.6677 0
M  V30 1625 C 160.578 -3.15245 1.18836 0
M  V30 1626 O 161.108 -3.98883 0.474869 0
M  V30 1627 N 159.314 -2.74303 0.959497 0
M  V30 1628 H 158.861 -2.0639 1.54146 0
M  V30 1629 H 158.819 -3.13844 0.186932 0
M  V30 1630 N 162.591 -1.51276 -0.441967 0
M  V30 1631 C 163.521 -1.752 -1.54361 0
M  V30 1632 C 164.502 -0.601682 -1.59103 0
M  V30 1633 O 165.687 -0.843913 -1.74905 0
M  V30 1634 C 162.817 -1.87282 -2.92477 0
M  V30 1635 C 161.771 -3.02687 -3.02596 0
M  V30 1636 C 161.097 -2.99947 -4.42647 0
M  V30 1637 C 162.397 -4.4273 -2.77106 0
M  V30 1638 H 164.091 -2.67442 -1.34592 0
M  V30 1639 H 161.637 -1.28694 -0.646048 0
M  V30 1640 H 163.59 -2.02602 -3.695 0
M  V30 1641 H 162.314 -0.916844 -3.13467 0
M  V30 1642 H 160.973 -2.87065 -2.28012 0
M  V30 1643 H 160.621 -2.02136 -4.60597 0
M  V30 1644 H 160.321 -3.77439 -4.50348 0
M  V30 1645 H 161.845 -3.17354 -5.2165 0
M  V30 1646 H 163.259 -4.58727 -3.43864 0
M  V30 1647 H 161.656 -5.21893 -2.96222 0
M  V30 1648 H 162.726 -4.53087 -1.72744 0
M  V30 1649 N 164.069 0.697108 -1.41344 0
M  V30 1650 C 165.001 1.8224 -1.39001 0
M  V30 1651 C 166.014 1.60152 -0.292428 0
M  V30 1652 O 167.203 1.69684 -0.554048 0
M  V30 1653 C 164.303 3.18976 -1.14489 0
M  V30 1654 C 163.476 3.68105 -2.36258 0
M  V30 1655 C 162.535 4.83506 -2.07625 0
M  V30 1656 O 161.561 4.95201 -2.8065 0
M  V30 1657 N 162.763 5.70637 -1.06555 0
M  V30 1658 H 165.528 1.84742 -2.35988 0
M  V30 1659 H 163.089 0.87937 -1.35936 0
M  V30 1660 H 165.081 3.93801 -0.932885 0
M  V30 1661 H 163.651 3.11508 -0.261043 0
M  V30 1662 H 162.871 2.84204 -2.7317 0
M  V30 1663 H 164.159 3.97667 -3.17393 0
M  V30 1664 H 163.557 5.63817 -0.461125 0
M  V30 1665 H 162.114 6.45368 -0.913444 0
M  V30 1666 N 165.547 1.27147 0.931209 0
M  V30 1667 C 166.51 1.09615 2.01289 0
M  V30 1668 C 167.51 0.0412581 1.60747 0
M  V30 1669 O 168.7 0.285545 1.71844 0
M  V30 1670 C 165.832 0.669447 3.34262 0
M  V30 1671 H 167.025 2.05662 2.18273 0
M  V30 1672 H 164.578 1.09885 1.11153 0
M  V30 1673 H 165.313 -0.292572 3.22978 0
M  V30 1674 H 165.098 1.43127 3.65044 0
M  V30 1675 H 166.588 0.568921 4.13706 0
M  V30 1676 N 167.025 -1.13721 1.09112 0
M  V30 1677 C 167.955 -2.21148 0.749385 0
M  V30 1678 C 168.936 -1.6792 -0.271475 0
M  V30 1679 O 170.121 -1.93693 -0.140251 0
M  V30 1680 C 167.251 -3.46905 0.165659 0
M  V30 1681 C 166.205 -4.13203 1.11567 0
M  V30 1682 C 165.531 -5.33248 0.393809 0
M  V30 1683 C 166.831 -4.60912 2.45678 0
M  V30 1684 H 168.525 -2.4999 1.64758 0
M  V30 1685 H 166.071 -1.20156 0.793626 0
M  V30 1686 H 168.024 -4.21313 -0.085466 0
M  V30 1687 H 166.748 -3.17449 -0.767714 0
M  V30 1688 H 165.407 -3.40758 1.35202 0
M  V30 1689 H 165.055 -5.00054 -0.543599 0
M  V30 1690 H 164.755 -5.78552 1.02721 0
M  V30 1691 H 166.279 -6.10413 0.150908 0
M  V30 1692 H 167.693 -5.26759 2.26269 0
M  V30 1693 H 166.09 -5.16944 3.04776 0
M  V30 1694 H 167.16 -3.75603 3.06677 0
M  V30 1695 N 168.503 -0.877838 -1.30888 0
M  V30 1696 C 169.75 -0.492696 -1.96415 0
M  V30 1697 C 170.078 0.956671 -1.69346 0
M  V30 1698 O 169.333 1.68993 -0.986913 0
M  V30 1699 C 169.632 -0.705748 -3.50363 0
M  V30 1700 C 169.298 -2.1291 -3.97467 0
M  V30 1701 C 167.96 -2.51834 -4.1004 0
M  V30 1702 C 170.312 -3.05702 -4.22132 0
M  V30 1703 C 167.64 -3.82775 -4.44635 0
M  V30 1704 C 169.992 -4.36166 -4.58194 0
M  V30 1705 C 168.656 -4.74993 -4.68975 0
M  V30 1706 H 167.926 -0.18029 -0.718733 0
M  V30 1707 H 170.573 -1.11233 -1.55883 0
M  V30 1708 H 168.878 -0.00303058 -3.918 0
M  V30 1709 H 170.575 -0.387456 -3.99124 0
M  V30 1710 H 167.165 -1.81694 -3.88182 0
M  V30 1711 H 171.349 -2.76853 -4.11906 0
M  V30 1712 H 166.605 -4.12609 -4.51181 0
M  V30 1713 H 170.779 -5.08111 -4.76231 0
M  V30 1714 H 168.406 -5.76495 -4.95537 0
M  V30 1715 N 169.982 1.44106 -0.638065 0
M  V30 1716 C 171.228 2.02277 -0.145546 0
M  V30 1717 C 171.561 1.50125 1.23191 0
M  V30 1718 O 170.836 0.688133 1.8192 0
M  V30 1719 C 171.119 3.59829 -0.139791 0
M  V30 1720 C 170.972 4.22247 -1.55008 0
M  V30 1721 C 172.291 4.36873 0.531966 0
M  V30 1722 H 169.41 0.734992 -0.0543632 0
M  V30 1723 H 172.052 1.71592 -0.815863 0
M  V30 1724 H 170.202 3.86102 0.431007 0
M  V30 1725 H 171.874 4.07057 -2.1703 0
M  V30 1726 H 170.117 3.79476 -2.10191 0
M  V30 1727 H 170.788 5.31284 -1.49804 0
M  V30 1728 H 173.264 4.16074 0.0464781 0
M  V30 1729 H 172.14 5.4657 0.505206 0
M  V30 1730 H 172.401 4.11995 1.60352 0
M  V30 1731 N 171.46 0.379036 1.52974 0
M  V30 1732 C 172.706 -0.206727 2.01744 0
M  V30 1733 C 173.039 -1.47314 1.26539 0
M  V30 1734 O 172.314 -1.91084 0.362903 0
M  V30 1735 C 172.597 -0.485066 3.56818 0
M  V30 1736 C 172.45 0.795919 4.42702 0
M  V30 1737 C 173.769 -1.28003 4.21074 0
M  V30 1738 H 170.888 -0.0736607 0.73331 0
M  V30 1739 H 173.53 0.506581 1.83122 0
M  V30 1740 H 171.68 -1.09272 3.72816 0
M  V30 1741 H 173.352 1.43307 4.38476 0
M  V30 1742 H 171.595 1.41344 4.10127 0
M  V30 1743 H 172.266 0.555947 5.49193 0
M  V30 1744 H 174.742 -0.765867 4.08991 0
M  V30 1745 H 173.618 -1.44352 5.29579 0
M  V30 1746 H 173.879 -2.29236 3.78026 0
M  V30 1747 N 172.938 -1.57226 0.108567 0
M  V30 1748 C 174.184 -1.95121 -0.552761 0
M  V30 1749 C 174.517 -0.991345 -1.66991 0
M  V30 1750 O 173.792 -0.0267211 -1.94482 0
M  V30 1751 C 174.075 -3.43039 -1.09528 0
M  V30 1752 C 173.928 -4.49797 0.0177332 0
M  V30 1753 C 175.247 -3.92567 -1.98945 0
M  V30 1754 H 172.366 -0.709496 -0.199461 0
M  V30 1755 H 175.008 -1.89126 0.182011 0
M  V30 1756 H 173.158 -3.48279 -1.72146 0
M  V30 1757 H 174.83 -4.56661 0.652584 0
M  V30 1758 H 173.073 -4.284 0.682309 0
M  V30 1759 H 173.744 -5.50528 -0.402919 0
M  V30 1760 H 176.22 -3.89565 -1.46214 0
M  V30 1761 H 175.096 -4.96605 -2.33827 0
M  V30 1762 H 175.357 -3.32648 -2.91201 0
M  V30 1763 N 174.416 0.165178 -1.56732 0
M  V30 1764 C 175.641 0.900253 -1.86843 0
M  V30 1765 C 176.066 1.74766 -0.695596 0
M  V30 1766 O 175.424 1.77786 0.35522 0
M  V30 1767 C 175.472 1.74777 -3.15413 0
M  V30 1768 O 174.576 2.85007 -2.98068 0
M  V30 1769 H 173.917 0.251832 -0.614391 0
M  V30 1770 H 176.447 0.161468 -2.03962 0
M  V30 1771 H 176.457 2.14646 -3.46974 0
M  V30 1772 H 175.132 1.12537 -4.00385 0
M  V30 1773 H 173.709 2.48676 -2.77875 0
M  V30 1774 N 175.894 1.51508 0.433938 0
M  V30 1775 C 176.857 1.72473 1.50949 0
M  V30 1776 C 177.857 0.594725 1.49398 0
M  V30 1777 O 179.047 0.862315 1.5136 0
M  V30 1778 C 176.179 1.78431 2.90474 0
M  V30 1779 H 177.372 2.68467 1.33662 0
M  V30 1780 H 174.925 1.41549 0.662836 0
M  V30 1781 H 175.66 0.842645 3.13161 0
M  V30 1782 H 175.445 2.60558 2.93005 0
M  V30 1783 H 176.935 1.96479 3.68491 0
M  V30 1784 N 177.372 -0.689602 1.41712 0
M  V30 1785 C 178.304 -1.815 1.39966 0
M  V30 1786 C 179.317 -1.59995 0.300917 0
M  V30 1787 O 180.506 -1.69387 0.563039 0
M  V30 1788 C 177.606 -3.18364 1.16179 0
M  V30 1789 C 176.779 -3.66847 2.38206 0
M  V30 1790 C 175.838 -4.82398 2.10186 0
M  V30 1791 O 174.864 -4.93706 2.83272 0
M  V30 1792 N 176.066 -5.70064 1.0958 0
M  V30 1793 H 178.831 -1.83488 2.36965 0
M  V30 1794 H 176.392 -0.872149 1.36401 0
M  V30 1795 H 178.384 -3.93301 0.953756 0
M  V30 1796 H 176.954 -3.11365 0.27756 0
M  V30 1797 H 176.174 -2.82751 2.74673 0
M  V30 1798 H 177.462 -3.95978 3.19498 0
M  V30 1799 H 176.86 -5.63565 0.491019 0
M  V30 1800 H 175.417 -6.44874 0.947656 0
M  V30 1801 N 178.85 -1.27639 -0.924453 0
M  V30 1802 C 180.266 -1.05113 -1.20097 0
M  V30 1803 C 180.466 0.213262 -2.00368 0
M  V30 1804 O 179.522 0.91787 -2.35226 0
M  V30 1805 C 180.835 -2.29244 -1.94596 0
M  V30 1806 C 182.383 -2.34315 -2.07522 0
M  V30 1807 C 182.858 -3.58183 -2.85427 0
M  V30 1808 N 184.349 -3.5876 -2.92994 0
M  V30 1809 C 185.084 -4.51277 -3.53746 0
M  V30 1810 N 184.58 -5.54102 -4.15863 0
M  V30 1811 N 186.373 -4.38894 -3.51181 0
M  V30 1812 H 178.524 -2.08821 -0.388264 0
M  V30 1813 H 180.787 -0.918568 -0.234385 0
M  V30 1814 H 180.493 -3.21301 -1.43034 0
M  V30 1815 H 180.367 -2.34816 -2.95197 0
M  V30 1816 H 182.754 -1.42762 -2.58269 0
M  V30 1817 H 182.835 -2.32744 -1.06131 0
M  V30 1818 H 182.479 -4.50074 -2.35363 0
M  V30 1819 H 182.409 -3.57006 -3.8711 0
M  V30 1820 H 184.9 -2.84398 -2.4885 0
M  V30 1821 H 185.213 -6.20859 -4.60168 0
M  V30 1822 H 183.558 -5.57941 -4.144 0
M  V30 1823 H 186.749 -3.57772 -3.01856 0
M  V30 1824 H 186.922 -5.11186 -3.98237 0
M  V30 1825 N 180.328 1.1314 -1.09713 0
M  V30 1826 C 181.574 1.84757 -0.836224 0
M  V30 1827 C 181.907 1.8347 0.636598 0
M  V30 1828 O 181.182 1.27491 1.46889 0
M  V30 1829 C 181.465 3.32782 -1.37578 0
M  V30 1830 C 181.318 3.42567 -2.91493 0
M  V30 1831 C 182.637 4.28307 -1.01198 0
M  V30 1832 H 179.756 0.67082 -0.305236 0
M  V30 1833 H 182.398 1.3278 -1.35903 0
M  V30 1834 H 180.548 3.77177 -0.931097 0
M  V30 1835 H 182.22 3.06862 -3.44432 0
M  V30 1836 H 180.463 2.83349 -3.28475 0
M  V30 1837 H 181.134 4.46674 -3.24324 0
M  V30 1838 H 183.61 3.91999 -1.39556 0
M  V30 1839 H 182.486 5.30307 -1.41653 0
M  V30 1840 H 182.747 4.42029 0.0794833 0
M  V30 1841 N 181.806 0.884767 1.30421 0
M  V30 1842 C 183.083 0.423185 1.90967 0
M  V30 1843 C 183.463 -1.09605 1.80416 0
M  V30 1844 O 182.811 -1.93126 1.22125 0
M  V30 1845 C 183.021 0.921056 3.36627 0
M  V30 1846 C 184.369 0.955903 4.137 0
M  V30 1847 O 185.393 0.867706 3.4547 0
M  V30 1848 O 184.252 1.08614 5.35598 0
M  V30 1849 H 181.346 0.129369 0.816819 0
M  V30 1850 H 183.892 0.973653 1.3899 0
M  V30 1851 H 182.664 1.96489 3.3839 0
M  V30 1852 H 182.287 0.349741 3.96059 0
M  V30 1853 N 183.284 -1.43765 0.645699 0
M  V30 1854 C 184.53 -2.02197 0.156271 0
M  V30 1855 C 184.863 -1.50776 -1.22393 0
M  V30 1856 O 184.138 -0.697771 -1.81553 0
M  V30 1857 C 184.421 -3.59749 0.158872 0
M  V30 1858 C 184.274 -4.21419 1.57245 0
M  V30 1859 C 185.593 -4.37149 -0.50879 0
M  V30 1860 H 182.712 -0.734694 0.0582602 0
M  V30 1861 H 185.354 -1.71157 0.824951 0
M  V30 1862 H 183.504 -3.86325 -0.410525 0
M  V30 1863 H 185.176 -4.059 2.19186 0
M  V30 1864 H 183.419 -3.78356 2.122 0
M  V30 1865 H 184.09 -5.30482 1.52619 0
M  V30 1866 H 186.566 -4.16093 -0.024412 0
M  V30 1867 H 185.442 -5.4683 -0.476213 0
M  V30 1868 H 185.703 -4.12839 -1.58165 0
M  V30 1869 N 184.763 -0.387143 -1.52771 0
M  V30 1870 C 185.991 0.195869 -2.05971 0
M  V30 1871 C 186.406 1.40691 -1.25903 0
M  V30 1872 O 185.763 1.79931 -0.305134 0
M  V30 1873 C 185.814 0.56812 -3.57008 0
M  V30 1874 O 185.535 -0.594803 -4.34043 0
M  V30 1875 C 187.036 1.20723 -4.26545 0
M  V30 1876 H 184.256 0.0300578 -0.670326 0
M  V30 1877 H 186.8 -0.551749 -1.96916 0
M  V30 1878 H 184.955 1.26564 -3.66143 0
M  V30 1879 H 185.369 -0.289322 -5.23701 0
M  V30 1880 H 186.843 1.41807 -5.33474 0
M  V30 1881 H 187.32 2.17395 -3.81623 0
M  V30 1882 H 187.926 0.550535 -4.21722 0
M  V30 1883 N 186.241 1.57166 -0.116904 0
M  V30 1884 C 187.518 1.86645 0.585049 0
M  V30 1885 C 187.898 1.0177 1.84949 0
M  V30 1886 O 187.246 0.0960379 2.28298 0
M  V30 1887 C 187.456 3.37736 0.879507 0
M  V30 1888 C 188.804 4.06289 1.23348 0
M  V30 1889 O 189.828 3.42743 0.969836 0
M  V30 1890 O 188.687 5.18455 1.7282 0
M  V30 1891 H 185.781 0.772593 0.295007 0
M  V30 1892 H 188.327 1.69025 -0.151249 0
M  V30 1893 H 187.099 3.91296 -0.0166136 0
M  V30 1894 H 186.722 3.6078 1.67103 0
M  V30 1895 N 187.719 -0.156864 1.56817 0
M  V30 1896 C 189.135 -0.50916 1.5126 0
M  V30 1897 C 189.335 -1.83897 0.823658 0
M  V30 1898 O 188.391 -2.49469 0.390055 0
M  V30 1899 C 189.704 -0.52857 2.96018 0
M  V30 1900 C 191.252 -0.614771 3.06903 0
M  V30 1901 C 191.727 -0.664938 4.53147 0
M  V30 1902 N 193.218 -0.727433 4.57452 0
M  V30 1903 C 193.953 -0.787067 5.67973 0
M  V30 1904 N 193.449 -0.806649 6.88088 0
M  V30 1905 N 195.242 -0.827195 5.5598 0
M  V30 1906 H 187.393 0.714935 2.00006 0
M  V30 1907 H 189.656 0.259526 0.911784 0
M  V30 1908 H 189.362 0.380154 3.49639 0
M  V30 1909 H 189.236 -1.36998 3.51442 0
M  V30 1910 H 191.623 -1.51392 2.53307 0
M  V30 1911 H 191.704 0.253597 2.5454 0
M  V30 1912 H 191.348 0.230011 5.07379 0
M  V30 1913 H 191.278 -1.54966 5.03282 0
M  V30 1914 H 193.769 -0.719998 3.70978 0
M  V30 1915 H 194.082 -0.853727 7.6807 0
M  V30 1916 H 192.427 -0.774687 6.90669 0
M  V30 1917 H 195.618 -0.808998 4.61056 0
M  V30 1918 H 195.791 -0.870206 6.4213 0
M  V30 1919 N 189.197 -1.51736 -0.425897 0
M  V30 1920 C 190.145 -1.74464 -1.53834 0
M  V30 1921 C 191.139 -0.611241 -1.57988 0
M  V30 1922 O 192.345 -0.792899 -1.61596 0
M  V30 1923 H 188.72 -0.551437 -0.511293 0
M  V30 1924 H 190.691 -2.67694 -1.31843 0
M  V30 1925 C 189.44 -1.8972 -2.91379 0
M  V30 1926 H 188.763 -2.76344 -2.88919 0
M  V30 1927 H 190.203 -2.09629 -3.68553 0
M  V30 1928 C 188.662 -0.65992 -3.30374 0
M  V30 1929 O 189.192 0.180083 -4.01296 0
M  V30 1930 N 187.398 -0.500677 -2.86254 0
M  V30 1931 H 186.945 -1.18532 -2.28709 0
M  V30 1932 H 186.903 0.325903 -3.12706 0
M  V30 1933 N 190.675 0.682077 -1.42076 0
M  V30 1934 C 191.921 1.44428 -1.42367 0
M  V30 1935 C 192.254 1.94164 -0.0373056 0
M  V30 1936 O 191.529 1.70429 0.937239 0
M  V30 1937 C 191.812 2.64654 -2.44194 0
M  V30 1938 C 191.665 2.20596 -3.91991 0
M  V30 1939 C 192.984 3.66865 -2.431 0
M  V30 1940 H 190.103 0.523834 -0.518428 0
M  V30 1941 H 192.745 0.77576 -1.73442 0
M  V30 1942 H 190.895 3.2169 -2.17826 0
M  V30 1943 H 192.567 1.68783 -4.29313 0
M  V30 1944 H 190.81 1.52242 -4.06208 0
M  V30 1945 H 191.481 3.06921 -4.58807 0
M  V30 1946 H 193.957 3.19531 -2.66532 0
M  V30 1947 H 192.833 4.48577 -3.16339 0
M  V30 1948 H 193.094 4.17493 -1.45437 0
M  V30 1949 N 192.153 1.28127 0.917671 0
M  V30 1950 C 193.399 1.15223 1.66888 0
M  V30 1951 C 193.732 -0.299293 1.9188 0
M  V30 1952 O 193.007 -1.21805 1.51637 0
M  V30 1953 C 193.29 1.94706 3.02922 0
M  V30 1954 C 193.143 3.47898 2.85109 0
M  V30 1955 C 194.462 1.75939 4.03402 0
M  V30 1956 H 191.581 0.419946 0.605652 0
M  V30 1957 H 194.223 1.57398 1.06423 0
M  V30 1958 H 192.373 1.58864 3.54534 0
M  V30 1959 H 194.045 3.93624 2.40537 0
M  V30 1960 H 192.288 3.7373 2.20246 0
M  V30 1961 H 192.959 3.98765 3.81694 0
M  V30 1962 H 195.435 2.07209 3.60837 0
M  V30 1963 H 194.311 2.33931 4.96556 0
M  V30 1964 H 194.572 0.709877 4.36364 0
M  V30 1965 N 193.631 -1.12557 1.10312 0
M  V30 1966 C 194.88 -1.83395 0.839588 0
M  V30 1967 C 195.193 -1.84939 -0.636929 0
M  V30 1968 O 196.399 -2.51761 -1.01631 0
M  V30 1969 C 194.855 -3.29303 1.45215 0
M  V30 1970 C 194.463 -3.36122 2.96186 0
M  V30 1971 C 196.207 -4.05121 1.26796 0
M  V30 1972 C 194.114 -4.76357 3.50483 0
M  V30 1973 H 193.044 -0.687133 0.310425 0
M  V30 1974 H 195.695 -1.26746 1.32694 0
M  V30 1975 H 194.077 -3.85812 0.892469 0
M  V30 1976 H 195.251 -2.89559 3.58458 0
M  V30 1977 H 193.566 -2.73776 3.13745 0
M  V30 1978 H 196.163 -5.08668 1.64806 0
M  V30 1979 H 196.506 -4.15773 0.209409 0
M  V30 1980 H 197.039 -3.54967 1.79563 0
M  V30 1981 H 193.778 -4.70899 4.55998 0
M  V30 1982 H 193.298 -5.23377 2.92978 0
M  V30 1983 H 194.977 -5.45294 3.48228 0
M  V30 1984 N 195.109 -0.891671 -1.2995 0
M  V30 1985 C 196.039 -0.379797 -2.30391 0
M  V30 1986 C 197.02 0.540919 -1.6127 0
M  V30 1987 O 198.205 0.453352 -1.88834 0
M  V30 1988 C 195.335 0.400654 -3.44981 0
M  V30 1989 C 194.289 -0.428905 -4.25846 0
M  V30 1990 C 193.615 0.478557 -5.32554 0
M  V30 1991 C 194.915 -1.67458 -4.94727 0
M  V30 1992 H 196.609 -1.21914 -2.73454 0
M  V30 1993 H 194.155 -0.587675 -1.31462 0
M  V30 1994 H 196.108 0.769434 -4.14316 0
M  V30 1995 H 194.832 1.27371 -3.0074 0
M  V30 1996 H 193.491 -0.779911 -3.58208 0
M  V30 1997 H 193.139 1.34951 -4.84559 0
M  V30 1998 H 192.839 -0.0727433 -5.87555 0
M  V30 1999 H 194.363 0.843705 -6.04743 0
M  V30 2000 H 195.777 -1.376 -5.56542 0
M  V30 2001 H 194.174 -2.16659 -5.59624 0
M  V30 2002 H 195.244 -2.41518 -4.20473 0
M  V30 2003 N 196.587 1.43421 -0.653314 0
M  V30 2004 C 197.812 2.06678 -0.172846 0
M  V30 2005 C 198.237 1.48648 1.15262 0
M  V30 2006 O 197.595 0.596457 1.71208 0
M  V30 2007 C 197.643 3.60474 -0.0953184 0
M  V30 2008 O 196.747 4.01487 0.942442 0
M  V30 2009 H 196.088 0.657181 -0.0949155 0
M  V30 2010 H 198.618 1.83925 -0.896265 0
M  V30 2011 H 198.628 4.07905 0.0879728 0
M  V30 2012 H 197.303 4.02088 -1.06291 0
M  V30 2013 H 195.88 3.65646 0.731932 0
M  V30 2014 N 198.065 0.39524 1.52563 0
M  V30 2015 C 199.311 -0.185318 2.01952 0
M  V30 2016 C 199.644 -1.45964 1.28095 0
M  V30 2017 O 198.919 -1.90689 0.38315 0
M  V30 2018 C 199.202 -0.447193 3.57312 0
M  V30 2019 C 199.055 0.842828 4.41833 0
M  V30 2020 C 200.374 -1.23529 4.22408 0
M  V30 2021 H 197.493 -0.0658788 0.73405 0
M  V30 2022 H 200.135 0.525975 1.82575 0
M  V30 2023 H 198.285 -1.05312 3.73954 0
M  V30 2024 H 199.957 1.4795 4.36931 0
M  V30 2025 H 198.2 1.45686 4.08605 0
M  V30 2026 H 198.871 0.614165 5.48573 0
M  V30 2027 H 201.347 -0.722445 4.0978 0
M  V30 2028 H 200.223 -1.38727 5.3108 0
M  V30 2029 H 200.484 -2.25213 3.80436 0
M  V30 2030 N 199.544 -1.57102 0.125237 0
M  V30 2031 C 200.955 -1.82384 -0.399142 0
M  V30 2032 C 201.306 -1.04276 -1.66195 0
M  V30 2033 O 200.431 -0.281269 -2.14564 0
M  V30 2034 C 201.026 -3.30821 -0.730932 0
M  V30 2035 C 199.585 -3.56762 -1.19992 0
M  V30 2036 C 198.732 -2.7649 -0.211792 0
M  V30 2037 H 201.683 -1.54786 0.350277 0
M  V30 2038 H 201.704 -3.4579 -1.58775 0
M  V30 2039 H 201.216 -3.87643 0.188345 0
M  V30 2040 H 199.317 -3.05305 -2.13588 0
M  V30 2041 H 199.43 -4.65317 -1.14093 0
M  V30 2042 H 197.794 -2.4489 -0.700085 0
M  V30 2043 H 198.577 -3.36073 0.700691 0
M  V30 2044 N 201.022 0.148545 -1.56898 0
M  V30 2045 C 202.438 0.501131 -1.51528 0
M  V30 2046 C 202.638 1.83458 -0.833399 0
M  V30 2047 O 201.694 2.49259 -0.40328 0
M  V30 2048 C 203.007 0.512864 -2.96294 0
M  V30 2049 C 204.555 0.598487 -3.07225 0
M  V30 2050 C 205.03 0.640897 -4.53494 0
M  V30 2051 N 206.521 0.703163 -4.57832 0
M  V30 2052 C 207.256 0.756935 -5.68382 0
M  V30 2053 N 206.752 0.770147 -6.88506 0
M  V30 2054 N 208.545 0.797698 -5.56411 0
M  V30 2055 H 200.696 -0.725532 -1.99624 0
M  V30 2056 H 202.959 -0.264358 -0.910395 0
M  V30 2057 H 202.665 -0.398691 -3.49433 0
M  V30 2058 H 202.539 1.35133 -3.52163 0
M  V30 2059 H 204.926 1.50046 -2.54106 0
M  V30 2060 H 205.007 -0.267093 -2.54402 0
M  V30 2061 H 204.651 -0.256915 -5.0725 0
M  V30 2062 H 204.581 1.52295 -5.04097 0
M  V30 2063 H 207.072 0.700314 -3.71354 0
M  V30 2064 H 207.385 0.812983 -7.68512 0
M  V30 2065 H 205.73 0.738049 -6.9107 0
M  V30 2066 H 208.921 0.784535 -4.61479 0
M  V30 2067 H 209.094 0.83614 -6.42583 0
M  V30 2068 N 202.5 1.5196 0.417844 0
M  V30 2069 C 203.41 1.77554 1.53336 0
M  V30 2070 C 204.426 0.660655 1.6097 0
M  V30 2071 O 205.602 0.945099 1.77848 0
M  V30 2072 C 202.667 1.91291 2.89152 0
M  V30 2073 C 201.728 3.15183 2.91475 0
M  V30 2074 C 200.961 3.28256 4.20813 0
M  V30 2075 O 201.184 2.46798 5.14244 0
M  V30 2076 O 200.118 4.21356 4.29817 0
M  V30 2077 H 203.944 2.7222 1.34647 0
M  V30 2078 H 201.529 1.36698 0.602828 0
M  V30 2079 H 203.411 2.02199 3.69721 0
M  V30 2080 H 202.086 0.998129 3.07927 0
M  V30 2081 H 200.993 3.09739 2.09791 0
M  V30 2082 H 202.326 4.06414 2.77648 0
M  V30 2083 N 203.978 -0.674533 1.42435 0
M  V30 2084 C 204.91 -1.80005 1.41883 0
M  V30 2085 C 205.923 -1.59667 0.31787 0
M  V30 2086 O 207.112 -1.68781 0.580973 0
M  V30 2087 C 204.212 -3.17114 1.19549 0
M  V30 2088 C 203.385 -3.64299 2.42084 0
M  V30 2089 C 202.444 -4.80142 2.15291 0
M  V30 2090 O 201.47 -4.90673 2.88493 0
M  V30 2091 N 202.672 -5.68869 1.1562 0
M  V30 2092 H 205.437 -1.80964 2.38898 0
M  V30 2093 H 202.998 -0.857633 1.37318 0
M  V30 2094 H 204.99 -3.92267 0.995417 0
M  V30 2095 H 203.56 -3.11053 0.310569 0
M  V30 2096 H 202.78 -2.79822 2.77657 0
M  V30 2097 H 204.068 -3.92567 3.23679 0
M  V30 2098 H 203.466 -5.63012 0.550765 0
M  V30 2099 H 202.023 -6.43833 1.016 0
M  V30 2100 N 205.456 -1.28612 -0.910864 0
M  V30 2101 C 206.702 -1.16106 -1.66274 0
M  V30 2102 C 207.035 0.289113 -1.92036 0
M  V30 2103 O 206.31 1.21 -1.52281 0
M  V30 2104 C 206.593 -1.96309 -3.01885 0
M  V30 2105 C 206.446 -3.49405 -2.8326 0
M  V30 2106 C 207.765 -1.78076 -4.02463 0
M  V30 2107 H 204.884 -0.423152 -0.603417 0
M  V30 2108 H 207.526 -1.57961 -1.05586 0
M  V30 2109 H 205.676 -1.60742 -3.53687 0
M  V30 2110 H 207.348 -3.94894 -2.38446 0
M  V30 2111 H 205.591 -3.74893 -2.18261 0
M  V30 2112 H 206.262 -4.00784 -3.79574 0
M  V30 2113 H 208.738 -2.0912 -3.59733 0
M  V30 2114 H 207.614 -2.36561 -4.95308 0
M  V30 2115 H 207.875 -0.733008 -4.35981 0
M  V30 2116 N 206.934 1.1197 -1.10907 0
M  V30 2117 C 208.162 1.87402 -0.876824 0
M  V30 2118 C 208.577 1.79894 0.573025 0
M  V30 2119 O 207.934 1.17629 1.39534 0
M  V30 2120 C 207.985 3.36428 -1.32282 0
M  V30 2121 O 207.706 3.43765 -2.71582 0
M  V30 2122 C 209.207 4.28783 -1.12518 0
M  V30 2123 H 206.427 0.592793 -0.314384 0
M  V30 2124 H 208.971 1.41649 -1.47499 0
M  V30 2125 H 207.126 3.79706 -0.768229 0
M  V30 2126 H 207.54 4.3652 -2.90776 0
M  V30 2127 H 209.014 5.31613 -1.48633 0
M  V30 2128 H 209.491 4.39153 -0.0642394 0
M  V30 2129 H 210.097 3.91291 -1.66648 0
M  V30 2130 N 208.412 0.89855 1.29475 0
M  V30 2131 C 209.637 0.538561 2.00285 0
M  V30 2132 C 210.062 -0.869135 1.66816 0
M  V30 2133 O 209.42 -1.57831 0.892145 0
M  V30 2134 C 209.468 0.736475 3.52999 0
M  V30 2135 O 208.572 -0.211537 4.11857 0
M  V30 2136 H 207.913 0.210563 0.62973 0
M  V30 2137 H 210.443 1.20982 1.64998 0
M  V30 2138 H 210.453 0.640685 4.02938 0
M  V30 2139 H 209.128 1.76276 3.76696 0
M  V30 2140 H 207.705 -0.0682991 3.72837 0
M  V30 2141 N 209.89 -1.43072 0.660911 0
M  V30 2142 C 211.301 -1.84932 0.256348 0
M  V30 2143 C 211.652 -1.55325 -1.19868 0
M  V30 2144 O 210.777 -1.00607 -1.91591 0
M  V30 2145 C 211.372 -3.35684 0.458475 0
M  V30 2146 C 209.931 -3.76245 0.108161 0
M  V30 2147 C 209.078 -2.66749 0.757641 0
M  V30 2148 H 212.029 -1.33116 0.864051 0
M  V30 2149 H 212.05 -3.79365 -0.293683 0
M  V30 2150 H 211.562 -3.572 1.51755 0
M  V30 2151 H 209.663 -3.60338 -0.948014 0
M  V30 2152 H 209.776 -4.76058 0.538992 0
M  V30 2153 H 208.14 -2.53989 0.190185 0
M  V30 2154 H 208.923 -2.91092 1.81989 0
M  V30 2155 N 211.368 -0.403325 -1.52352 0
M  V30 2156 C 212.3 0.4603 -2.2453 0
M  V30 2157 C 213.313 1.01505 -1.27282 0
M  V30 2158 O 214.502 0.914982 -1.53266 0
M  V30 2159 C 211.602 1.65208 -2.95905 0
M  V30 2160 C 210.775 1.22224 -4.19976 0
M  V30 2161 C 209.834 2.28028 -4.74226 0
M  V30 2162 O 208.86 1.88857 -5.36956 0
M  V30 2163 N 210.062 3.6012 -4.55295 0
M  V30 2164 H 212.827 -0.158156 -2.99282 0
M  V30 2165 H 210.388 -0.230402 -1.60252 0
M  V30 2166 H 212.38 2.35541 -3.29093 0
M  V30 2167 H 210.95 2.17658 -2.24374 0
M  V30 2168 H 210.17 0.34725 -3.92668 0
M  V30 2169 H 211.458 0.911924 -5.00561 0
M  V30 2170 H 210.856 3.94698 -4.05253 0
M  V30 2171 H 209.413 4.26447 -4.92936 0
M  V30 2172 N 212.846 1.57033 -0.133567 0
M  V30 2173 C 214.086 1.97575 0.523789 0
M  V30 2174 C 214.45 1.01605 1.62912 0
M  V30 2175 O 215.651 1.3114 2.3464 0
M  V30 2176 C 213.922 3.42256 1.02935 0
M  V30 2177 S 215.481 4.04817 1.69319 0
M  V30 2178 H 212.299 0.690427 0.169799 0
M  V30 2179 H 214.901 1.94234 -0.222101 0
M  V30 2180 H 213.605 4.09842 0.213917 0
M  V30 2181 H 213.136 3.4928 1.81017 0
M  V30 2182 H 215.151 3.96767 2.97977 0
M  V30 2183 N 214.325 -0.140222 1.56975 0
M  V30 2184 C 215.257 -1.19818 1.95388 0
M  V30 2185 C 216.27 -1.38816 0.850525 0
M  V30 2186 O 217.459 -1.38267 1.12891 0
M  V30 2187 C 214.559 -2.56189 2.21857 0
M  V30 2188 C 213.732 -2.58077 3.5315 0
M  V30 2189 C 212.791 -3.76037 3.6808 0
M  V30 2190 O 211.817 -3.60598 4.40406 0
M  V30 2191 N 213.019 -4.93763 3.05251 0
M  V30 2192 H 215.784 -0.871609 2.86746 0
M  V30 2193 H 213.345 -0.32972 1.58507 0
M  V30 2194 H 215.337 -3.33623 2.2908 0
M  V30 2195 H 213.907 -2.81111 1.36731 0
M  V30 2196 H 213.127 -1.6651 3.57307 0
M  V30 2197 H 214.415 -2.56377 4.39486 0
M  V30 2198 H 213.813 -5.09209 2.46419 0
M  V30 2199 H 212.37 -5.68949 3.18026 0
M  V30 2200 N 215.803 -1.52179 -0.40978 0
M  V30 2201 C 217.219 -1.40968 -0.74835 0
M  V30 2202 C 217.419 -0.513657 -1.94843 0
M  V30 2203 O 216.475 0.0208026 -2.52491 0
M  V30 2204 C 217.788 -2.83483 -1.0029 0
M  V30 2205 C 219.336 -2.92821 -1.10565 0
M  V30 2206 C 219.811 -4.36303 -1.39296 0
M  V30 2207 N 221.302 -4.39535 -1.46162 0
M  V30 2208 C 222.037 -5.47614 -1.70018 0
M  V30 2209 N 221.533 -6.65812 -1.91483 0
M  V30 2210 N 223.326 -5.35129 -1.72027 0
M  V30 2211 H 215.477 -2.0897 0.380186 0
M  V30 2212 H 217.74 -0.94185 0.107805 0
M  V30 2213 H 217.446 -3.51168 -0.193461 0
M  V30 2214 H 217.32 -3.24487 -1.92323 0
M  V30 2215 H 219.707 -2.25318 -1.90568 0
M  V30 2216 H 219.788 -2.55276 -0.16369 0
M  V30 2217 H 219.432 -5.04366 -0.598109 0
M  V30 2218 H 219.362 -4.71385 -2.34743 0
M  V30 2219 H 221.853 -3.54332 -1.31367 0
M  V30 2220 H 222.166 -7.43964 -2.09134 0
M  V30 2221 H 220.511 -6.68879 -1.88749 0
M  V30 2222 H 223.702 -4.41764 -1.54796 0
M  V30 2223 H 223.875 -6.19433 -1.9028 0
M  V30 2224 N 217.281 0.66697 -1.42791 0
M  V30 2225 C 218.53 1.42278 -1.42968 0
M  V30 2226 C 218.843 1.9553 -0.0524489 0
M  V30 2227 O 220.049 2.71414 0.068363 0
M  V30 2228 C 218.505 2.57418 -2.51524 0
M  V30 2229 C 218.113 2.10832 -3.9529 0
M  V30 2230 C 219.857 3.34878 -2.60877 0
M  V30 2231 C 217.764 3.23101 -4.95338 0
M  V30 2232 H 216.694 0.534533 -0.531781 0
M  V30 2233 H 219.345 0.721302 -1.68729 0
M  V30 2234 H 217.727 3.29971 -2.18941 0
M  V30 2235 H 218.901 1.4538 -4.37266 0
M  V30 2236 H 217.216 1.46289 -3.89857 0
M  V30 2237 H 219.813 4.18505 -3.32802 0
M  V30 2238 H 220.156 3.81993 -1.6549 0
M  V30 2239 H 220.689 2.69398 -2.92693 0
M  V30 2240 H 217.428 2.80969 -5.9223 0
M  V30 2241 H 216.948 3.87309 -4.57987 0
M  V30 2242 H 218.627 3.88447 -5.17415 0
M  V30 2243 N 218.759 1.29093 0.90403 0
M  V30 2244 C 219.669 1.15727 2.0407 0
M  V30 2245 C 220.685 0.0815308 1.73809 0
M  V30 2246 O 221.861 0.292749 1.99261 0
M  V30 2247 C 218.926 0.830424 3.36608 0
M  V30 2248 C 217.987 1.98955 3.80415 0
M  V30 2249 C 217.22 1.6782 5.06628 0
M  V30 2250 O 217.443 0.597105 5.67266 0
M  V30 2251 O 216.377 2.52486 5.46383 0
M  V30 2252 H 220.203 2.11171 2.18267 0
M  V30 2253 H 217.788 1.08504 1.027 0
M  V30 2254 H 219.67 0.662521 4.16159 0
M  V30 2255 H 218.345 -0.0942678 3.23563 0
M  V30 2256 H 217.252 2.21267 3.01648 0
M  V30 2257 H 218.585 2.89529 3.98037 0
M  V30 2258 N 220.237 -1.11381 1.11499 0
M  V30 2259 C 221.483 -1.83403 0.865512 0
M  V30 2260 C 221.816 -1.84459 -0.607329 0
M  V30 2261 O 221.091 -1.29811 -1.44842 0
M  V30 2262 C 221.374 -3.30552 1.42855 0
M  V30 2263 C 221.227 -3.37886 2.96906 0
M  V30 2264 C 222.546 -4.26643 1.08 0
M  V30 2265 H 219.665 -0.665879 0.31587 0
M  V30 2266 H 222.307 -1.30601 1.37998 0
M  V30 2267 H 220.457 -3.75648 0.990985 0
M  V30 2268 H 222.129 -3.01343 3.49271 0
M  V30 2269 H 220.372 -2.78088 3.32941 0
M  V30 2270 H 221.043 -4.41458 3.31389 0
M  V30 2271 H 223.519 -3.89729 1.45775 0
M  V30 2272 H 222.395 -5.27986 1.50072 0
M  V30 2273 H 222.656 -4.42099 -0.00915037 0
M  V30 2274 N 221.715 -0.905404 -1.28997 0
M  V30 2275 C 222.943 -0.549846 -1.9946 0
M  V30 2276 C 223.358 0.866834 -1.67724 0
M  V30 2277 O 222.715 1.57298 -0.925404 0
M  V30 2278 C 222.766 -0.739387 -3.53858 0
M  V30 2279 O 222.487 -2.10031 -3.84472 0
M  V30 2280 C 223.988 -0.389541 -4.41585 0
M  V30 2281 H 221.208 -0.210429 -0.637151 0
M  V30 2282 H 223.752 -1.21632 -1.64396 0
M  V30 2283 H 221.907 -0.120023 -3.87214 0
M  V30 2284 H 222.321 -2.13385 -4.79132 0
M  V30 2285 H 223.795 -0.572972 -5.49018 0
M  V30 2286 H 224.272 0.673756 -4.34001 0
M  V30 2287 H 224.878 -0.986089 -4.1371 0
M  V30 2288 N 223.193 1.4272 -0.668489 0
M  V30 2289 C 224.418 2.06484 -0.194758 0
M  V30 2290 C 224.843 1.49862 1.13679 0
M  V30 2291 O 224.201 0.614582 1.70565 0
M  V30 2292 C 224.249 3.60353 -0.133546 0
M  V30 2293 O 223.353 4.02464 0.899806 0
M  V30 2294 H 222.694 0.656137 -0.10188 0
M  V30 2295 H 225.224 1.82964 -0.915722 0
M  V30 2296 H 225.234 4.07976 0.0447041 0
M  V30 2297 H 223.909 4.00938 -1.1055 0
M  V30 2298 H 222.486 3.66402 0.693109 0
M  V30 2299 N 224.671 0.411399 1.52136 0
M  V30 2300 C 225.899 -0.163076 2.06256 0
M  V30 2301 C 226.314 -1.3867 1.28125 0
M  V30 2302 O 225.671 -1.79423 0.333721 0
M  V30 2303 C 225.722 -0.511252 3.57867 0
M  V30 2304 O 225.443 0.66378 4.33042 0
M  V30 2305 C 226.944 -1.13921 4.28412 0
M  V30 2306 H 224.164 -0.0193897 0.67072 0
M  V30 2307 H 226.708 0.583007 1.96013 0
M  V30 2308 H 224.863 -1.20723 3.6811 0
M  V30 2309 H 225.277 0.372601 5.23175 0
M  V30 2310 H 226.751 -1.33302 5.35663 0
M  V30 2311 H 227.228 -2.11296 3.85033 0
M  V30 2312 H 227.834 -0.483373 4.22544 0
M  V30 2313 N 226.149 -1.5696 0.141893 0
M  V30 2314 C 227.099 -2.13074 -0.811383 0
M  V30 2315 C 228.083 -1.05726 -1.21288 0
M  V30 2316 O 229.275 -1.31914 -1.18015 0
M  V30 2317 C 226.404 -2.75186 -2.0525 0
M  V30 2318 C 225.49 -3.8965 -1.67432 0
M  V30 2319 N 225.881 -4.95733 -1.0041 0
M  V30 2320 C 224.179 -4.00262 -1.96739 0
M  V30 2321 C 224.88 -5.75858 -0.822345 0
M  V30 2322 N 223.856 -5.26452 -1.3546 0
M  V30 2323 H 227.658 -2.92465 -0.290031 0
M  V30 2324 H 225.172 -1.6229 -0.0598218 0
M  V30 2325 H 227.169 -3.13745 -2.74535 0
M  V30 2326 H 225.829 -1.97266 -2.57907 0
M  V30 2327 H 226.84 -5.13607 -0.665441 0
M  V30 2328 H 223.517 -3.33412 -2.51282 0
M  V30 2329 H 224.907 -6.71254 -0.294496 0
M  V30 2330 N 227.627 0.131896 -1.57047 0
M  V30 2331 C 228.59 1.14638 -1.98471 0
M  V30 2332 C 229.59 1.35029 -0.873148 0
M  V30 2333 O 230.78 1.31764 -1.13946 0
M  V30 2334 C 227.912 2.50358 -2.31373 0
M  V30 2335 H 229.105 0.79064 -2.8929 0
M  V30 2336 H 226.658 0.375761 -1.51716 0
M  V30 2337 H 227.393 2.90876 -1.43393 0
M  V30 2338 H 227.178 2.36915 -3.12432 0
M  V30 2339 H 228.668 3.23395 -2.64207 0
M  V30 2340 N 229.106 1.52395 0.401703 0
M  V30 2341 C 230.354 1.66488 1.14569 0
M  V30 2342 C 230.675 0.400897 1.90835 0
M  V30 2343 O 229.945 -0.584415 1.8698 0
M  V30 2344 H 228.525 0.613672 0.425929 0
M  V30 2345 H 231.187 1.89464 0.457093 0
M  V30 2346 H 230.283 2.50942 1.85566 0
M  V30 2347 N 230.584 -0.659388 1.43143 0
M  V30 2348 C 231.812 -1.44723 1.47861 0
M  V30 2349 C 232.227 -1.88563 0.0945886 0
M  V30 2350 O 231.584 -1.59108 -0.893915 0
M  V30 2351 C 231.635 -2.68627 2.41913 0
M  V30 2352 O 231.356 -2.26623 3.74932 0
M  V30 2353 C 232.857 -3.62045 2.55809 0
M  V30 2354 H 230.077 -0.444801 0.502387 0
M  V30 2355 H 232.621 -0.808916 1.87821 0
M  V30 2356 H 230.776 -3.28613 2.05164 0
M  V30 2357 H 231.19 -3.06745 4.2545 0
M  V30 2358 H 232.664 -4.45666 3.25708 0
M  V30 2359 H 233.141 -4.08981 1.60099 0
M  V30 2360 H 233.747 -3.07944 2.93344 0
M  V30 2361 N 232.062 -1.29571 -0.897171 0
M  V30 2362 C 233.309 -1.17689 -1.6479 0
M  V30 2363 C 233.637 0.27107 -1.92602 0
M  V30 2364 O 232.892 1.21193 -1.53658 0
M  V30 2365 C 233.191 -1.9382 -3.00281 0
M  V30 2366 C 232.857 -3.43522 -2.92068 0
M  V30 2367 C 231.519 -3.84348 -2.89535 0
M  V30 2368 C 233.871 -4.38906 -2.81089 0
M  V30 2369 C 231.199 -5.18869 -2.73846 0
M  V30 2370 C 233.551 -5.73521 -2.66939 0
M  V30 2371 C 232.215 -6.13601 -2.62774 0
M  V30 2372 H 231.485 -0.430654 -0.603008 0
M  V30 2373 H 234.132 -1.60536 -1.04404 0
M  V30 2374 H 232.437 -1.4357 -3.64547 0
M  V30 2375 H 234.134 -1.82028 -3.57305 0
M  V30 2376 H 230.724 -3.11072 -2.94842 0
M  V30 2377 H 234.908 -4.08315 -2.82121 0
M  V30 2378 H 230.164 -5.4903 -2.69027 0
M  V30 2379 H 234.338 -6.47078 -2.57416 0
M  V30 2380 H 231.965 -7.17786 -2.50375 0
M  V30 2381 N 233.54 1.10788 -1.12088 0
M  V30 2382 C 234.503 2.15207 -0.788577 0
M  V30 2383 C 235.503 1.59609 0.195317 0
M  V30 2384 O 236.693 1.74174 -0.0300193 0
M  V30 2385 C 233.825 3.4047 -0.171174 0
M  V30 2386 H 235.018 2.46116 -1.71368 0
M  V30 2387 H 232.571 1.26089 -0.923652 0
M  V30 2388 H 233.306 3.15176 0.763832 0
M  V30 2389 H 233.091 3.82109 -0.879514 0
M  V30 2390 H 234.581 4.17576 0.04496 0
M  V30 2391 N 235.018 0.912232 1.28515 0
M  V30 2392 C 235.966 0.389597 2.29314 0
M  V30 2393 C 236.96 -0.517915 1.61289 0
M  V30 2394 O 238.166 -0.399328 1.75515 0
M  V30 2395 H 234.541 0.107386 0.744293 0
M  V30 2396 H 236.512 1.25286 2.70825 0
M  V30 2397 C 235.261 -0.356496 3.45868 0
M  V30 2398 H 234.584 0.332608 3.98414 0
M  V30 2399 H 236.024 -0.686851 4.184 0
M  V30 2400 C 234.483 -1.56383 2.98406 0
M  V30 2401 O 235.013 -2.66294 3.00749 0
M  V30 2402 N 233.219 -1.41029 2.54085 0
M  V30 2403 H 232.766 -0.516089 2.52377 0
M  V30 2404 H 232.724 -2.21939 2.22689 0
M  V30 2405 N 236.496 -1.42363 0.676048 0
M  V30 2406 C 237.743 -2.01522 0.19883 0
M  V30 2407 C 238.071 -1.53456 -1.19505 0
M  V30 2408 O 237.326 -0.727967 -1.81657 0
M  V30 2409 C 237.625 -3.56929 0.183431 0
M  V30 2410 C 237.291 -4.24431 1.52215 0
M  V30 2411 C 235.953 -4.42585 1.8887 0
M  V30 2412 C 238.305 -4.62459 2.40377 0
M  V30 2413 C 235.633 -4.96039 3.13309 0
M  V30 2414 C 237.985 -5.17294 3.64129 0
M  V30 2415 C 236.649 -5.33661 4.00951 0
M  V30 2416 H 235.919 -0.737419 0.0727571 0
M  V30 2417 H 238.566 -1.70531 0.871281 0
M  V30 2418 H 236.871 -3.87594 -0.572532 0
M  V30 2419 H 238.568 -4.00486 -0.203035 0
M  V30 2420 H 235.158 -4.10661 1.22701 0
M  V30 2421 H 239.342 -4.48105 2.13343 0
M  V30 2422 H 234.598 -5.06896 3.41857 0
M  V30 2423 H 238.772 -5.45704 4.32644 0
M  V30 2424 H 236.399 -5.74845 4.9745 0
M  V30 2425 N 237.974 -0.419461 -1.51915 0
M  V30 2426 C 239.22 0.153166 -2.02221 0
M  V30 2427 C 239.553 1.43907 -1.30401 0
M  V30 2428 O 238.828 1.90055 -0.413438 0
M  V30 2429 C 239.111 0.390291 -3.57979 0
M  V30 2430 C 238.964 -0.913014 -4.40436 0
M  V30 2431 C 240.283 1.16794 -4.2432 0
M  V30 2432 H 237.402 0.0541924 -0.735005 0
M  V30 2433 H 240.044 -0.554955 -1.81715 0
M  V30 2434 H 238.194 0.993491 -3.75582 0
M  V30 2435 H 239.866 -1.54882 -4.34522 0
M  V30 2436 H 238.109 -1.52168 -4.06236 0
M  V30 2437 H 238.78 -0.701361 -5.47526 0
M  V30 2438 H 241.256 0.657161 -4.10878 0
M  V30 2439 H 240.132 1.3026 -5.3322 0
M  V30 2440 H 240.393 2.19132 -3.83971 0
M  V30 2441 N 239.452 1.56882 -0.150215 0
M  V30 2442 C 240.7 1.9584 0.499105 0
M  V30 2443 C 241.021 1.03623 1.65188 0
M  V30 2444 O 240.291 0.0984084 1.95653 0
M  V30 2445 H 238.871 0.723119 0.187373 0
M  V30 2446 H 241.533 1.9358 -0.226466 0
M  V30 2447 H 240.629 2.99638 0.873122 0
M  V30 2448 N 240.93 -0.123565 1.57115 0
M  V30 2449 C 241.86 -1.15309 2.03042 0
M  V30 2450 C 242.841 -1.43454 0.914061 0
M  V30 2451 O 244.026 -1.53973 1.18347 0
M  V30 2452 C 241.156 -2.48043 2.43089 0
M  V30 2453 C 240.11 -2.3437 3.58127 0
M  V30 2454 C 239.436 -3.72026 3.84059 0
M  V30 2455 C 240.736 -1.80804 4.90007 0
M  V30 2456 H 242.43 -0.771102 2.893 0
M  V30 2457 H 239.976 -0.369479 1.39179 0
M  V30 2458 H 241.929 -3.20311 2.73823 0
M  V30 2459 H 240.653 -2.88122 1.53796 0
M  V30 2460 H 239.312 -1.64551 3.27595 0
M  V30 2461 H 238.96 -4.09582 2.91979 0
M  V30 2462 H 238.66 -3.63732 4.6149 0
M  V30 2463 H 240.184 -4.45806 4.1724 0
M  V30 2464 H 241.598 -2.42886 5.19307 0
M  V30 2465 H 239.995 -1.83343 5.71407 0
M  V30 2466 H 241.065 -0.76528 4.78823 0
M  V30 2467 N 242.408 -1.52605 -0.393616 0
M  V30 2468 C 243.355 -1.77055 -1.48054 0
M  V30 2469 C 244.325 -0.61358 -1.54352 0
M  V30 2470 O 245.51 -0.852806 -1.70681 0
M  V30 2471 C 242.65 -1.94108 -2.85335 0
M  V30 2472 C 241.763 -3.21792 -2.88226 0
M  V30 2473 C 240.898 -3.29188 -4.16904 0
M  V30 2474 C 239.937 -4.51013 -4.13828 0
M  V30 2475 N 239.074 -4.55716 -5.34105 0
M  V30 2476 H 243.914 -2.69815 -1.26506 0
M  V30 2477 H 241.451 -1.33683 -0.61379 0
M  V30 2478 H 243.409 -2.01979 -3.65049 0
M  V30 2479 H 242.039 -1.04713 -3.05344 0
M  V30 2480 H 241.091 -3.23015 -2.00911 0
M  V30 2481 H 242.403 -4.11557 -2.8182 0
M  V30 2482 H 241.557 -3.36216 -5.05018 0
M  V30 2483 H 240.296 -2.37389 -4.26026 0
M  V30 2484 H 239.301 -4.44115 -3.24102 0
M  V30 2485 H 240.526 -5.44123 -4.06333 0
M  V30 2486 H 238.472 -3.66807 -5.43865 0
M  V30 2487 H 238.389 -5.39346 -5.29756 0
M  V30 2488 H 239.657 -4.66993 -6.2413 0
M  V30 2489 N 243.887 0.651787 -1.4349 0
M  V30 2490 C 245.164 1.40909 -1.35661 0
M  V30 2491 C 245.544 2.11099 -0.00511733 0
M  V30 2492 O 244.892 2.04892 1.0115 0
M  V30 2493 C 245.102 2.3926 -2.54078 0
M  V30 2494 C 246.45 3.03217 -2.97228 0
M  V30 2495 O 247.474 2.49588 -2.54135 0
M  V30 2496 O 246.333 4.00455 -3.71885 0
M  V30 2497 H 243.427 0.629625 -0.536191 0
M  V30 2498 H 245.973 0.678575 -1.55542 0
M  V30 2499 H 244.745 1.86352 -3.44076 0
M  V30 2500 H 244.368 3.1976 -2.36303 0
M  V30 2501 N 245.365 1.30045 0.890287 0
M  V30 2502 C 246.776 1.16738 1.45702 0
M  V30 2503 C 247.127 -0.233939 1.948 0
M  V30 2504 O 246.252 -1.13021 1.84541 0
M  V30 2505 C 246.847 2.11313 2.64825 0
M  V30 2506 C 245.406 2.02001 3.17604 0
M  V30 2507 C 244.553 2.01699 1.90296 0
M  V30 2508 H 247.504 1.42392 0.700726 0
M  V30 2509 H 247.525 1.69086 3.40867 0
M  V30 2510 H 247.037 3.13294 2.2906 0
M  V30 2511 H 245.138 1.03142 3.5804 0
M  V30 2512 H 245.251 2.90128 3.81264 0
M  V30 2513 H 243.615 1.46427 2.08402 0
M  V30 2514 H 244.398 3.05402 1.56795 0
M  V30 2515 N 246.843 -1.10192 1.12674 0
M  V30 2516 C 248.068 -1.86523 0.906853 0
M  V30 2517 C 248.493 -1.80221 -0.538711 0
M  V30 2518 O 247.851 -1.17396 -1.38158 0
M  V30 2519 C 247.899 -3.32758 1.3894 0
M  V30 2520 O 247.003 -4.08449 0.5695 0
M  V30 2521 H 246.344 -0.578678 0.325619 0
M  V30 2522 H 248.874 -1.39203 1.49946 0
M  V30 2523 H 248.884 -3.83608 1.38958 0
M  V30 2524 H 247.559 -3.36661 2.44197 0
M  V30 2525 H 246.136 -3.67427 0.636528 0
M  V30 2526 N 248.321 -0.919034 -1.28029 0
M  V30 2527 C 249.569 -0.553838 -1.94363 0
M  V30 2528 C 249.89 0.906357 -1.72656 0
M  V30 2529 O 249.16 1.64143 -1.0693 0
M  V30 2530 H 247.74 -0.201834 -0.719216 0
M  V30 2531 H 250.402 -1.16954 -1.55909 0
M  V30 2532 H 249.498 -0.752758 -3.02886 0
M  V30 2533 N 249.799 1.42003 -0.683588 0
M  V30 2534 C 250.762 2.29191 -0.0198243 0
M  V30 2535 C 251.762 1.43773 0.72013 0
M  V30 2536 O 252.952 1.65061 0.556815 0
M  V30 2537 C 250.084 3.26435 0.982487 0
M  V30 2538 H 251.277 2.8938 -0.787345 0
M  V30 2539 H 248.83 1.49789 -0.446418 0
M  V30 2540 H 249.565 2.71203 1.77819 0
M  V30 2541 H 249.35 3.89449 0.455182 0
M  V30 2542 H 250.84 3.918 1.44508 0
M  V30 2543 N 251.277 0.427512 1.51691 0
M  V30 2544 C 252.688 -0.0378867 1.86662 0
M  V30 2545 C 253.039 -1.42819 1.34525 0
M  V30 2546 O 252.164 -2.05037 0.692014 0
M  V30 2547 C 252.759 -0.0755266 3.38716 0
M  V30 2548 C 251.318 -0.485309 3.73258 0
M  V30 2549 C 250.465 0.328399 2.75349 0
M  V30 2550 H 253.416 0.64379 1.45055 0
M  V30 2551 H 253.437 -0.887056 3.70016 0
M  V30 2552 H 252.949 0.936487 3.76632 0
M  V30 2553 H 251.05 -1.50329 3.40928 0
M  V30 2554 H 251.163 -0.21693 4.78609 0
M  V30 2555 H 249.527 -0.211905 2.53817 0
M  V30 2556 H 250.31 1.3391 3.16106 0
M  V30 2557 N 252.755 -1.56801 0.158532 0
M  V30 2558 C 253.685 -2.20347 -0.772609 0
M  V30 2559 C 254.666 -1.15518 -1.24859 0
M  V30 2560 O 255.851 -1.43902 -1.30406 0
M  V30 2561 C 252.981 -2.83417 -2.00729 0
M  V30 2562 C 251.935 -3.94174 -1.66765 0
M  V30 2563 C 251.261 -4.44233 -2.97592 0
M  V30 2564 C 252.561 -5.14392 -0.905447 0
M  V30 2565 H 254.255 -2.98413 -0.242959 0
M  V30 2566 H 251.801 -1.43537 -0.115419 0
M  V30 2567 H 253.754 -3.26543 -2.6636 0
M  V30 2568 H 252.478 -2.02701 -2.56086 0
M  V30 2569 H 251.137 -3.51684 -1.03508 0
M  V30 2570 H 250.785 -3.60325 -3.50963 0
M  V30 2571 H 250.485 -5.18945 -2.75626 0
M  V30 2572 H 252.009 -4.90037 -3.64274 0
M  V30 2573 H 253.423 -5.5429 -1.46408 0
M  V30 2574 H 251.82 -5.9494 -0.7853 0
M  V30 2575 H 252.89 -4.84795 0.100668 0
M  V30 2576 N 254.233 0.115231 -1.57178 0
M  V30 2577 C 255.649 0.468877 -1.52557 0
M  V30 2578 C 255.849 1.81649 -0.872125 0
M  V30 2579 O 254.905 2.48347 -0.45606 0
M  V30 2580 C 256.218 0.4499 -2.97315 0
M  V30 2581 C 257.766 0.533185 -3.08425 0
M  V30 2582 C 258.241 0.54456 -4.54751 0
M  V30 2583 N 259.732 0.605892 -4.5922 0
M  V30 2584 C 260.467 0.636203 -5.6986 0
M  V30 2585 N 259.963 0.623931 -6.89985 0
M  V30 2586 N 261.756 0.679496 -5.57978 0
M  V30 2587 H 253.907 -0.767712 -1.9804 0
M  V30 2588 H 256.17 -0.283609 -0.904583 0
M  V30 2589 H 255.876 -0.472721 -3.48509 0
M  V30 2590 H 255.75 1.27632 -3.5495 0
M  V30 2591 H 258.137 1.44623 -2.57232 0
M  V30 2592 H 258.218 -0.320995 -2.53778 0
M  V30 2593 H 257.862 -0.364452 -5.06591 0
M  V30 2594 H 257.792 1.41568 -5.07214 0
M  V30 2595 H 260.283 0.621386 -3.72756 0
M  V30 2596 H 260.596 0.649787 -7.70063 0
M  V30 2597 H 258.941 0.591296 -6.9248 0
M  V30 2598 H 262.132 0.686472 -4.63039 0
M  V30 2599 H 262.305 0.69965 -6.44212 0
M  V30 2600 N 255.711 1.52812 0.385517 0
M  V30 2601 C 256.936 1.72207 1.15583 0
M  V30 2602 C 257.361 0.441034 1.82857 0
M  V30 2603 O 256.719 -0.603465 1.70962 0
M  V30 2604 C 256.767 2.87476 2.17692 0
M  V30 2605 O 255.871 2.54693 3.24354 0
M  V30 2606 H 255.212 0.572526 0.336319 0
M  V30 2607 H 257.742 1.99618 0.448744 0
M  V30 2608 H 257.752 3.13072 2.6163 0
M  V30 2609 H 256.427 3.80408 1.68115 0
M  V30 2610 H 255.004 2.3985 2.85529 0
M  V30 2611 N 257.189 -0.644168 1.43834 0
M  V30 2612 C 258.437 -1.40117 1.45642 0
M  V30 2613 C 258.758 -1.94814 0.0852413 0
M  V30 2614 O 258.028 -1.74988 -0.880688 0
M  V30 2615 H 256.608 -0.52005 0.536243 0
M  V30 2616 H 259.27 -0.7591 1.7951 0
M  V30 2617 H 258.366 -2.23902 2.17427 0
M  V30 2618 N 258.668 -1.30515 -0.883378 0
M  V30 2619 C 259.915 -1.1943 -1.63532 0
M  V30 2620 C 260.243 0.250627 -1.92878 0
M  V30 2621 O 259.498 1.19556 -1.54935 0
M  V30 2622 C 259.797 -1.96994 -2.98209 0
M  V30 2623 C 259.463 -3.466 -2.88408 0
M  V30 2624 C 258.125 -3.87397 -2.85442 0
M  V30 2625 C 260.477 -4.41863 -2.76418 0
M  V30 2626 C 257.805 -5.21745 -2.68327 0
M  V30 2627 C 260.157 -5.7632 -2.60841 0
M  V30 2628 C 258.821 -6.16354 -2.56251 0
M  V30 2629 H 258.091 -0.437025 -0.598406 0
M  V30 2630 H 260.738 -1.61635 -1.02696 0
M  V30 2631 H 259.043 -1.47429 -3.63004 0
M  V30 2632 H 260.74 -1.85808 -3.55354 0
M  V30 2633 H 257.33 -3.14182 -2.91527 0
M  V30 2634 H 261.514 -4.11285 -2.77775 0
M  V30 2635 H 256.77 -5.51853 -2.63189 0
M  V30 2636 H 260.944 -6.49772 -2.50538 0
M  V30 2637 H 258.571 -7.20401 -2.42748 0
M  V30 2638 N 260.146 1.09593 -1.13257 0
M  V30 2639 C 261.557 1.63229 -0.906274 0
M  V30 2640 C 261.908 1.8811 0.557578 0
M  V30 2641 O 261.033 1.62953 1.42391 0
M  V30 2642 C 261.628 2.96535 -1.63867 0
M  V30 2643 C 260.187 3.47003 -1.45828 0
M  V30 2644 C 259.334 2.2145 -1.66898 0
M  V30 2645 H 262.285 0.92978 -1.28611 0
M  V30 2646 H 262.306 3.64411 -1.09476 0
M  V30 2647 H 261.818 2.78394 -2.70404 0
M  V30 2648 H 259.919 3.70272 -0.415848 0
M  V30 2649 H 260.032 4.24551 -2.2202 0
M  V30 2650 H 258.396 2.30022 -1.09371 0
M  V30 2651 H 259.179 2.0583 -2.74752 0
M  V30 2652 N 261.624 0.925811 1.2754 0
M  V30 2653 C 262.901 0.483726 1.89524 0
M  V30 2654 C 263.281 -1.03809 1.83812 0
M  V30 2655 O 262.629 -1.89143 1.28207 0
M  V30 2656 C 262.839 1.02769 3.33526 0
M  V30 2657 C 264.187 1.08703 4.10449 0
M  V30 2658 O 265.211 0.977175 3.42534 0
M  V30 2659 O 264.07 1.25599 5.31871 0
M  V30 2660 H 261.164 0.15529 0.812289 0
M  V30 2661 H 263.71 1.01738 1.35822 0
M  V30 2662 H 262.482 2.07155 3.31967 0
M  V30 2663 H 262.105 0.475567 3.94746 0
M  V30 2664 N 263.102 -1.41638 0.69111 0
M  V30 2665 C 264.513 -1.84346 0.295517 0
M  V30 2666 C 264.864 -1.57833 -1.16547 0
M  V30 2667 O 263.989 -1.04648 -1.89414 0
M  V30 2668 C 264.584 -3.34636 0.529575 0
M  V30 2669 C 263.143 -3.7593 0.187944 0
M  V30 2670 C 262.29 -2.65082 0.814052 0
M  V30 2671 H 265.241 -1.31253 0.892092 0
M  V30 2672 H 265.262 -3.79903 -0.213148 0
M  V30 2673 H 264.774 -3.53901 1.59297 0
M  V30 2674 H 262.875 -3.62268 -0.871367 0
M  V30 2675 H 262.988 -4.74808 0.63985 0
M  V30 2676 H 261.352 -2.53528 0.244017 0
M  V30 2677 H 262.135 -2.87167 1.88123 0
M  V30 2678 N 264.58 -0.43555 -1.51462 0
M  V30 2679 C 265.528 0.391205 -2.29287 0
M  V30 2680 C 266.522 1.02247 -1.35062 0
M  V30 2681 O 267.728 0.957646 -1.52411 0
M  V30 2682 H 264.103 0.144968 -0.737895 0
M  V30 2683 H 266.074 -0.286051 -2.97026 0
M  V30 2684 C 264.823 1.48096 -3.14583 0
M  V30 2685 H 264.146 1.00457 -3.86973 0
M  V30 2686 H 265.586 2.03273 -3.72097 0
M  V30 2687 C 264.045 2.46321 -2.29843 0
M  V30 2688 O 264.575 3.50815 -1.95682 0
M  V30 2689 N 262.781 2.17166 -1.931 0
M  V30 2690 H 262.328 1.32218 -2.21079 0
M  V30 2691 H 262.286 2.83127 -1.36698 0
M  V30 2692 N 266.058 1.56714 -0.166846 0
M  V30 2693 C 266.988 2.20754 0.760913 0
M  V30 2694 C 267.969 1.16178 1.24244 0
M  V30 2695 O 269.154 1.44592 1.29641 0
M  V30 2696 C 266.284 2.84478 1.99223 0
M  V30 2697 C 265.238 3.95053 1.64672 0
M  V30 2698 C 264.564 4.45805 2.95232 0
M  V30 2699 C 265.864 5.14865 0.878155 0
M  V30 2700 H 267.558 2.98537 0.22713 0
M  V30 2701 H 265.104 1.43596 0.107805 0
M  V30 2702 H 267.057 3.27951 2.64624 0
M  V30 2703 H 265.781 2.04056 2.55007 0
M  V30 2704 H 264.44 3.52228 1.01641 0
M  V30 2705 H 264.088 3.62181 3.49047 0
M  V30 2706 H 263.788 5.204 2.7287 0
M  V30 2707 H 265.312 4.91962 3.6167 0
M  V30 2708 H 266.726 5.55059 1.43466 0
M  V30 2709 H 265.123 5.95348 0.753738 0
M  V30 2710 H 266.193 4.84735 -0.126377 0
M  V30 2711 N 267.536 -0.106894 1.57237 0
M  V30 2712 C 268.952 -0.46078 1.52804 0
M  V30 2713 C 269.152 -1.81184 0.881746 0
M  V30 2714 O 268.208 -2.48102 0.469224 0
M  V30 2715 C 269.521 -0.434127 2.9755 0
M  V30 2716 C 271.069 -0.516821 3.08704 0
M  V30 2717 C 271.544 -0.520436 4.55033 0
M  V30 2718 N 273.035 -0.58153 4.59535 0
M  V30 2719 C 273.77 -0.605973 5.70189 0
M  V30 2720 N 273.266 -0.587331 6.90306 0
M  V30 2721 N 275.059 -0.649895 5.5833 0
M  V30 2722 H 267.21 0.778203 1.9763 0
M  V30 2723 H 269.473 0.288403 0.903066 0
M  V30 2724 H 269.179 0.491197 3.48253 0
M  V30 2725 H 269.053 -1.25748 3.55622 0
M  V30 2726 H 271.44 -1.43256 2.57995 0
M  V30 2727 H 271.521 0.334449 2.53604 0
M  V30 2728 H 271.165 0.391313 5.0639 0
M  V30 2729 H 271.095 -1.38876 5.07958 0
M  V30 2730 H 273.586 -0.60161 3.73081 0
M  V30 2731 H 273.899 -0.60894 7.70397 0
M  V30 2732 H 272.244 -0.554564 6.92784 0
M  V30 2733 H 275.435 -0.661907 4.63397 0
M  V30 2734 H 275.608 -0.665476 6.44574 0
M  V30 2735 N 269.014 -1.53014 -0.377408 0
M  V30 2736 C 270.425 -1.60438 -0.954798 0
M  V30 2737 C 270.776 -0.464418 -1.90624 0
M  V30 2738 O 269.901 0.41087 -2.12464 0
M  V30 2739 C 270.496 -2.90797 -1.73847 0
M  V30 2740 C 269.055 -3.00595 -2.26538 0
M  V30 2741 C 268.202 -2.55645 -1.07429 0
M  V30 2742 H 271.153 -1.57926 -0.156575 0
M  V30 2743 H 271.174 -2.77935 -2.5987 0
M  V30 2744 H 270.686 -3.73746 -1.04574 0
M  V30 2745 H 268.787 -2.22208 -2.99089 0
M  V30 2746 H 268.9 -4.05456 -2.5523 0
M  V30 2747 H 267.264 -2.10239 -1.43777 0
M  V30 2748 H 268.047 -3.41 -0.396728 0
M  V30 2749 N 270.492 0.636531 -1.44174 0
M  V30 2750 C 271.424 1.7618 -1.46606 0
M  V30 2751 C 272.437 1.58768 -0.360091 0
M  V30 2752 O 273.626 1.67181 -0.625518 0
M  V30 2753 C 270.726 3.13833 -1.27915 0
M  V30 2754 C 269.899 3.57753 -2.51658 0
M  V30 2755 C 268.958 4.74265 -2.27945 0
M  V30 2756 O 267.984 4.82852 -3.01401 0
M  V30 2757 N 269.186 5.65604 -1.30662 0
M  V30 2758 H 271.951 1.74567 -2.43612 0
M  V30 2759 H 269.512 0.820924 -1.39544 0
M  V30 2760 H 271.504 3.8949 -1.09907 0
M  V30 2761 H 270.074 3.10121 -0.39293 0
M  V30 2762 H 269.294 2.72362 -2.84978 0
M  V30 2763 H 270.582 3.83847 -3.33974 0
M  V30 2764 H 269.98 5.61354 -0.699844 0
M  V30 2765 H 268.537 6.40913 -1.18634 0
M  V30 2766 N 271.97 1.30982 0.876444 0
M  V30 2767 C 273.219 1.19658 1.62373 0
M  V30 2768 C 273.532 -0.245636 1.94052 0
M  V30 2769 O 274.738 -0.48049 2.67214 0
M  V30 2770 C 273.194 2.09433 2.92687 0
M  V30 2771 C 272.802 3.58613 2.68516 0
M  V30 2772 C 274.546 2.06893 3.70669 0
M  V30 2773 C 272.453 4.40416 3.94699 0
M  V30 2774 H 271.383 0.444268 0.609214 0
M  V30 2775 H 274.034 1.55791 0.969605 0
M  V30 2776 H 272.416 1.66191 3.59439 0
M  V30 2777 H 273.59 4.10058 2.10212 0
M  V30 2778 H 271.905 3.63063 2.03898 0
M  V30 2779 H 274.502 2.65258 4.64265 0
M  V30 2780 H 274.845 1.05448 4.02724 0
M  V30 2781 H 275.378 2.48301 3.10792 0
M  V30 2782 H 272.117 5.42591 3.67798 0
M  V30 2783 H 271.637 3.93731 4.52477 0
M  V30 2784 H 273.316 4.52294 4.62644 0
M  V30 2785 N 273.449 -1.08991 1.13837 0
M  V30 2786 C 274.695 -1.81526 0.90422 0
M  V30 2787 C 275.028 -1.85706 -0.568066 0
M  V30 2788 O 274.303 -1.32855 -1.42056 0
M  V30 2789 C 274.586 -3.27447 1.49835 0
M  V30 2790 C 274.439 -3.31512 3.04006 0
M  V30 2791 C 275.758 -4.24256 1.17025 0
M  V30 2792 H 272.877 -0.659029 0.329923 0
M  V30 2793 H 275.519 -1.27644 1.40737 0
M  V30 2794 H 273.669 -3.73462 1.07044 0
M  V30 2795 H 275.341 -2.93867 3.55584 0
M  V30 2796 H 273.584 -2.70963 3.38765 0
M  V30 2797 H 274.255 -4.34329 3.40679 0
M  V30 2798 H 276.731 -3.86549 1.54009 0
M  V30 2799 H 275.607 -5.24684 1.61237 0
M  V30 2800 H 275.868 -4.42019 0.0846274 0
M  V30 2801 N 274.927 -0.932562 -1.27047 0
M  V30 2802 C 276.175 -0.574422 -1.93765 0
M  V30 2803 C 276.496 0.887993 -1.73608 0
M  V30 2804 O 275.766 1.62999 -1.08665 0
M  V30 2805 H 274.346 -0.209451 -0.717035 0
M  V30 2806 H 277.008 -1.18601 -1.5466 0
M  V30 2807 H 276.104 -0.784841 -3.02071 0
M  V30 2808 N 276.405 1.4127 -0.698611 0
M  V30 2809 C 277.651 2.01478 -0.231207 0
M  V30 2810 C 277.984 1.55215 1.16713 0
M  V30 2811 O 277.259 0.764672 1.78838 0
M  V30 2812 C 277.542 3.58912 -0.292281 0
M  V30 2813 C 277.395 4.15293 -1.72778 0
M  V30 2814 C 278.714 4.38736 0.346194 0
M  V30 2815 H 275.833 0.732025 -0.0854878 0
M  V30 2816 H 278.475 1.67977 -0.887906 0
M  V30 2817 H 276.625 3.87582 0.26686 0
M  V30 2818 H 278.297 3.97486 -2.341 0
M  V30 2819 H 276.54 3.7022 -2.26096 0
M  V30 2820 H 277.211 5.24452 -1.72202 0
M  V30 2821 H 279.687 4.15897 -0.130035 0
M  V30 2822 H 278.563 5.48221 0.272932 0
M  V30 2823 H 278.824 4.18425 1.42734 0
M  V30 2824 N 277.883 0.443576 1.51229 0
M  V30 2825 C 279.13 -0.120796 2.02139 0
M  V30 2826 C 279.458 -1.42166 1.32736 0
M  V30 2827 O 278.713 -1.90849 0.43301 0
M  V30 2828 C 279.012 -0.380579 3.55368 0
M  V30 2829 C 278.678 0.83523 4.43097 0
M  V30 2830 C 277.34 1.16864 4.66794 0
M  V30 2831 C 279.692 1.64601 4.94526 0
M  V30 2832 C 277.02 2.31339 5.39165 0
M  V30 2833 C 279.372 2.78181 5.68153 0
M  V30 2834 C 278.036 3.11969 5.90112 0
M  V30 2835 H 277.306 -0.0442023 0.73968 0
M  V30 2836 H 279.953 0.592046 1.82118 0
M  V30 2837 H 278.258 -1.17538 3.73754 0
M  V30 2838 H 279.955 -0.830777 3.923 0
M  V30 2839 H 276.545 0.565437 4.24854 0
M  V30 2840 H 280.729 1.40163 4.76097 0
M  V30 2841 H 275.985 2.57823 5.5438 0
M  V30 2842 H 280.159 3.41371 6.06992 0
M  V30 2843 H 277.786 4.00784 6.45969 0
M  V30 2844 N 279.361 -1.56624 0.175154 0
M  V30 2845 C 280.589 -2.01374 -0.474971 0
M  V30 2846 C 281.004 -1.05537 -1.56548 0
M  V30 2847 O 280.361 -0.0568668 -1.82411 0
M  V30 2848 C 280.412 -3.45923 -1.04975 0
M  V30 2849 O 280.133 -4.381 -0.00276605 0
M  V30 2850 C 281.634 -4.06093 -1.77773 0
M  V30 2851 H 278.854 -0.659962 -0.121206 0
M  V30 2852 H 281.398 -2.02601 0.27801 0
M  V30 2853 H 279.553 -3.45458 -1.75321 0
M  V30 2854 H 279.967 -5.22753 -0.427681 0
M  V30 2855 H 281.441 -5.09147 -2.13245 0
M  V30 2856 H 281.918 -3.48405 -2.67414 0
M  V30 2857 H 282.524 -4.10272 -1.12059 0
M  V30 2858 N 280.839 0.0985539 -1.57292 0
M  V30 2859 C 282.116 0.834155 -1.76921 0
M  V30 2860 C 282.496 1.97101 -0.755928 0
M  V30 2861 O 281.844 2.27474 0.216245 0
M  V30 2862 C 282.054 1.33194 -3.22584 0
M  V30 2863 C 283.402 1.77611 -3.85668 0
M  V30 2864 O 284.426 1.42825 -3.26312 0
M  V30 2865 O 283.285 2.4192 -4.90038 0
M  V30 2866 H 280.379 0.397628 -0.725135 0
M  V30 2867 H 282.925 0.0807044 -1.69508 0
M  V30 2868 H 281.697 0.517248 -3.87866 0
M  V30 2869 H 281.32 2.1475 -3.34616 0
M  V30 2870 N 282.317 1.53212 0.369288 0
M  V30 2871 C 283.247 1.82365 1.45826 0
M  V30 2872 C 284.228 0.676907 1.56051 0
M  V30 2873 O 285.413 0.926401 1.70679 0
M  V30 2874 C 282.543 2.01023 2.83208 0
M  V30 2875 C 281.497 3.1678 2.8781 0
M  V30 2876 C 280.823 3.20724 4.27832 0
M  V30 2877 C 282.123 4.55447 2.55667 0
M  V30 2878 H 283.817 2.73559 1.21678 0
M  V30 2879 H 281.363 1.3163 0.583911 0
M  V30 2880 H 283.316 2.20001 3.59413 0
M  V30 2881 H 282.04 1.06536 3.08736 0
M  V30 2882 H 280.699 2.97616 2.14056 0
M  V30 2883 H 280.347 2.23882 4.50429 0
M  V30 2884 H 280.047 3.98496 4.31827 0
M  V30 2885 H 281.571 3.41881 5.05915 0
M  V30 2886 H 282.985 4.74611 3.21586 0
M  V30 2887 H 281.382 5.35432 2.70984 0
M  V30 2888 H 282.452 4.60812 1.5093 0
M  V30 2889 N 283.795 -0.628877 1.44509 0
M  V30 2890 C 285.023 -1.41554 1.50897 0
M  V30 2891 C 285.438 -1.8832 0.134564 0
M  V30 2892 O 284.795 -1.60969 -0.859965 0
M  V30 2893 C 284.846 -2.63435 2.47556 0
M  V30 2894 O 284.567 -2.18619 3.79654 0
M  V30 2895 C 286.068 -3.56537 2.63431 0
M  V30 2896 H 283.288 -0.434044 0.511709 0
M  V30 2897 H 285.832 -0.768895 1.89495 0
M  V30 2898 H 283.987 -3.24187 2.12089 0
M  V30 2899 H 284.401 -2.97652 4.31861 0
M  V30 2900 H 285.875 -4.38657 3.35088 0
M  V30 2901 H 286.352 -4.05493 1.68738 0
M  V30 2902 H 286.958 -3.01653 2.9981 0
M  V30 2903 N 285.273 -1.31445 -0.869486 0
M  V30 2904 C 286.521 -1.20918 -1.61936 0
M  V30 2905 C 286.842 0.232683 -1.93607 0
M  V30 2906 O 286.112 1.15352 -1.58338 0
M  V30 2907 H 284.692 -0.44454 -0.600328 0
M  V30 2908 H 287.354 -1.64776 -1.0409 0
M  V30 2909 H 286.45 -1.78124 -2.56278 0
M  V30 2910 N 286.751 1.08385 -1.14413 0
M  V30 2911 C 288.162 1.62258 -0.923535 0
M  V30 2912 C 288.513 1.88691 0.537595 0
M  V30 2913 O 287.638 1.64454 1.40655 0
M  V30 2914 C 288.233 2.94781 -1.67002 0
M  V30 2915 C 286.792 3.45437 -1.495 0
M  V30 2916 C 285.939 2.19668 -1.69238 0
M  V30 2917 H 288.89 0.916086 -1.2959 0
M  V30 2918 H 288.911 3.63229 -1.13334 0
M  V30 2919 H 288.423 2.7551 -2.73342 0
M  V30 2920 H 286.524 3.6981 -0.455097 0
M  V30 2921 H 286.637 4.22173 -2.2651 0
M  V30 2922 H 285.001 2.28849 -1.11804 0
M  V30 2923 H 285.784 2.02905 -2.7692 0
M  V30 2924 N 288.23 0.939286 1.26551 0
M  V30 2925 C 289.193 0.451987 2.24699 0
M  V30 2926 C 290.193 -0.435869 1.5478 0
M  V30 2927 O 291.383 -0.235314 1.72603 0
M  V30 2928 C 288.515 -0.348801 3.39111 0
M  V30 2929 H 289.708 1.3193 2.69322 0
M  V30 2930 H 287.261 0.721072 1.38673 0
M  V30 2931 H 287.996 -1.23444 2.99887 0
M  V30 2932 H 287.781 0.287945 3.91041 0
M  V30 2933 H 289.271 -0.679726 4.12031 0
M  V30 2934 N 289.708 -1.40897 0.706093 0
M  V30 2935 C 291.119 -1.84023 0.315052 0
M  V30 2936 C 291.47 -1.5906 -1.14866 0
M  V30 2937 O 290.595 -1.06651 -1.88293 0
M  V30 2938 C 291.19 -3.34055 0.565038 0
M  V30 2939 C 289.749 -3.7571 0.227806 0
M  V30 2940 C 288.896 -2.64204 0.842122 0
M  V30 2941 H 291.847 -1.303 0.905963 0
M  V30 2942 H 291.868 -3.80107 -0.172843 0
M  V30 2943 H 291.38 -3.52192 1.63042 0
M  V30 2944 H 289.481 -3.63172 -0.832895 0
M  V30 2945 H 289.594 -4.74103 0.690174 0
M  V30 2946 H 287.958 -2.53255 0.270893 0
M  V30 2947 H 288.741 -2.85155 1.91158 0
M  V30 2948 N 291.186 -0.45159 -1.50991 0
M  V30 2949 C 292.597 0.00818571 -1.86698 0
M  V30 2950 C 292.948 1.40661 -1.3678 0
M  V30 2951 O 292.073 2.0391 -0.724546 0
M  V30 2952 C 292.668 0.0216303 -3.38793 0
M  V30 2953 C 291.227 0.425865 -3.73983 0
M  V30 2954 C 290.374 -0.372163 -2.74791 0
M  V30 2955 H 293.325 -0.666785 -1.44013 0
M  V30 2956 H 293.346 0.828078 -3.7138 0
M  V30 2957 H 292.858 -0.996288 -3.75094 0
M  V30 2958 H 290.959 1.44886 -3.43277 0
M  V30 2959 H 291.072 0.140761 -4.78893 0
M  V30 2960 H 289.436 0.171498 -2.54122 0
M  V30 2961 H 290.219 -1.38922 -3.13935 0
M  V30 2962 N 292.664 1.56529 -0.183458 0
M  V30 2963 C 293.912 1.96855 0.457452 0
M  V30 2964 C 294.233 1.07104 1.62953 0
M  V30 2965 O 293.503 0.139887 1.954 0
M  V30 2966 H 292.083 0.72693 0.171992 0
M  V30 2967 H 294.745 1.93056 -0.267476 0
M  V30 2968 H 293.841 3.01423 0.809368 0
M  V30 2969 N 294.142 -0.090211 1.57342 0
M  V30 2970 C 295.072 -1.10976 2.05443 0
M  V30 2971 C 296.053 -1.41482 0.944284 0
M  V30 2972 O 297.238 -1.51428 1.21586 0
M  V30 2973 C 294.368 -2.42831 2.48295 0
M  V30 2974 C 293.322 -2.26721 3.63018 0
M  V30 2975 C 292.648 -3.63796 3.91863 0
M  V30 2976 C 293.948 -1.7037 4.93732 0
M  V30 2977 H 295.642 -0.709564 2.9087 0
M  V30 2978 H 293.188 -0.339874 1.39932 0
M  V30 2979 H 295.141 -3.14431 2.80555 0
M  V30 2980 H 293.865 -2.84795 1.59873 0
M  V30 2981 H 292.524 -1.57565 3.31012 0
M  V30 2982 H 292.172 -4.03297 3.00601 0
M  V30 2983 H 291.872 -3.53861 4.69101 0
M  V30 2984 H 293.396 -4.36855 4.26603 0
M  V30 2985 H 294.81 -2.31816 5.24342 0
M  V30 2986 H 293.207 -1.71181 5.75167 0
M  V30 2987 H 294.277 -0.663542 4.80339 0
M  V30 2988 N 295.62 -1.53406 -0.361157 0
M  V30 2989 C 296.583 -1.79479 -1.42548 0
M  V30 2990 C 297.583 -0.665327 -1.4639 0
M  V30 2991 O 298.773 -0.933549 -1.47073 0
M  V30 2992 C 295.905 -1.92087 -2.8163 0
M  V30 2993 H 297.098 -2.74538 -1.20701 0
M  V30 2994 H 294.651 -1.4455 -0.594546 0
M  V30 2995 H 295.386 -0.991099 -3.08784 0
M  V30 2996 H 295.171 -2.74241 -2.80239 0
M  V30 2997 H 296.661 -2.13836 -3.58697 0
M  V30 2998 N 297.098 0.621204 -1.44841 0
M  V30 2999 C 298.344 1.3826 -1.48365 0
M  V30 3000 C 298.677 1.93831 -0.119624 0
M  V30 3001 O 297.952 1.74251 0.864111 0
M  V30 3002 C 298.235 2.54058 -2.55199 0
M  V30 3003 C 298.088 2.03772 -4.00995 0
M  V30 3004 C 299.407 3.56225 -2.58442 0
M  V30 3005 H 296.526 0.501374 -0.540179 0
M  V30 3006 H 299.168 0.7015 -1.76576 0
M  V30 3007 H 297.318 3.12162 -2.31274 0
M  V30 3008 H 298.99 1.50423 -4.36086 0
M  V30 3009 H 297.233 1.34876 -4.12299 0
M  V30 3010 H 297.904 2.87185 -4.71411 0
M  V30 3011 H 300.38 3.07939 -2.79844 0
M  V30 3012 H 299.256 4.34756 -3.3508 0
M  V30 3013 H 299.517 4.10949 -1.63013 0
M  V30 3014 N 298.576 1.31904 0.862503 0
M  V30 3015 C 299.801 1.25135 1.65397 0
M  V30 3016 C 300.226 -0.179 1.87246 0
M  V30 3017 O 299.584 -1.1277 1.4196 0
M  V30 3018 C 299.632 2.00832 2.99498 0
M  V30 3019 O 298.736 1.35075 3.89652 0
M  V30 3020 H 298.077 0.431655 0.504549 0
M  V30 3021 H 300.607 1.74094 1.07483 0
M  V30 3022 H 300.617 2.10709 3.49379 0
M  V30 3023 H 299.292 3.04847 2.82916 0
M  V30 3024 H 297.869 1.33696 3.48109 0
M  V30 3025 N 300.054 -1.07777 1.14986 0
M  V30 3026 C 301.017 -2.13041 0.845358 0
M  V30 3027 C 302.017 -1.60071 -0.152931 0
M  V30 3028 O 303.207 -1.74033 0.0761879 0
M  V30 3029 C 300.339 -3.39896 0.261383 0
M  V30 3030 H 301.532 -2.41485 1.77834 0
M  V30 3031 H 299.085 -1.23595 0.956757 0
M  V30 3032 H 299.82 -3.17091 -0.68 0
M  V30 3033 H 299.605 -3.79642 0.980514 0
M  V30 3034 H 301.095 -4.17548 0.0657687 0
M  V30 3035 N 301.532 -0.945985 -1.26051 0
M  V30 3036 C 302.76 -0.613025 -1.9761 0
M  V30 3037 C 303.175 0.813035 -1.70397 0
M  V30 3038 O 302.532 1.54274 -0.974979 0
M  V30 3039 C 302.583 -0.85159 -3.51326 0
M  V30 3040 O 302.304 -2.22157 -3.77595 0
M  V30 3041 C 303.805 -0.529831 -4.40122 0
M  V30 3042 H 301.025 -0.230593 -0.630133 0
M  V30 3043 H 303.569 -1.268 -1.60443 0
M  V30 3044 H 301.724 -0.243151 -3.86636 0
M  V30 3045 H 302.138 -2.2852 -4.721 0
M  V30 3046 H 303.612 -0.747348 -5.46917 0
M  V30 3047 H 304.089 0.535341 -4.35925 0
M  V30 3048 H 304.695 -1.11721 -4.10364 0
M  V30 3049 N 303.011 1.40521 -0.713556 0
M  V30 3050 C 304.26 2.00155 -0.249192 0
M  V30 3051 C 304.573 1.57224 1.16362 0
M  V30 3052 O 305.779 2.09542 1.72639 0
M  V30 3053 C 304.235 3.5773 -0.3946 0
M  V30 3054 C 303.843 4.09635 -1.81392 0
M  V30 3055 C 305.587 4.24499 0.00907364 0
M  V30 3056 C 303.494 5.59707 -1.91003 0
M  V30 3057 H 302.424 0.74868 -0.0894114 0
M  V30 3058 H 305.075 1.60784 -0.884352 0
M  V30 3059 H 303.457 3.94792 0.30911 0
M  V30 3060 H 304.631 3.83955 -2.54785 0
M  V30 3061 H 302.946 3.55456 -2.16888 0
M  V30 3062 H 305.543 5.34683 -0.0420404 0
M  V30 3063 H 305.886 4.02824 1.05065 0
M  V30 3064 H 306.419 3.92536 -0.645007 0
M  V30 3065 H 303.158 5.86234 -2.93275 0
M  V30 3066 H 302.678 5.87258 -1.22019 0
M  V30 3067 H 304.357 6.24776 -1.6812 0
M  V30 3068 N 304.489 0.459591 1.5075 0
M  V30 3069 C 305.766 -0.160371 1.94941 0
M  V30 3070 C 306.146 -1.58048 1.39943 0
M  V30 3071 O 305.494 -2.206 0.595629 0
M  V30 3072 C 305.704 -0.115432 3.48809 0
M  V30 3073 C 307.052 -0.310026 4.23467 0
M  V30 3074 O 308.076 -0.192543 3.55679 0
M  V30 3075 O 306.935 -0.546031 5.43765 0
M  V30 3076 H 304.029 -0.117925 0.818549 0
M  V30 3077 H 306.575 0.519169 1.61563 0
M  V30 3078 H 305.347 0.87652 3.81357 0
M  V30 3079 H 304.97 -0.836928 3.88692 0
M  V30 3080 N 305.967 -1.56429 0.191757 0
M  V30 3081 C 307.195 -2.01867 -0.453586 0
M  V30 3082 C 307.61 -1.07191 -1.5542 0
M  V30 3083 O 306.967 -0.0762108 -1.82341 0
M  V30 3084 C 307.018 -3.47017 -1.013 0
M  V30 3085 O 306.739 -4.38078 0.0437005 0
M  V30 3086 C 308.24 -4.07956 -1.73456 0
M  V30 3087 H 305.46 -0.661211 -0.114199 0
M  V30 3088 H 308.004 -2.02295 0.299483 0
M  V30 3089 H 306.159 -3.47298 -1.71647 0
M  V30 3090 H 306.573 -5.23178 -0.372212 0
M  V30 3091 H 308.047 -5.1138 -2.07833 0
M  V30 3092 H 308.524 -3.51222 -2.63704 0
M  V30 3093 H 309.13 -4.11437 -1.07702 0
M  V30 3094 N 307.445 0.0818655 -1.57387 0
M  V30 3095 C 308.861 0.436412 -1.53517 0
M  V30 3096 C 309.061 1.79758 -0.910459 0
M  V30 3097 O 308.117 2.47324 -0.508636 0
M  V30 3098 C 309.43 0.386734 -2.98203 0
M  V30 3099 C 310.978 0.467644 -3.09487 0
M  V30 3100 C 311.453 0.447978 -4.55804 0
M  V30 3101 N 312.944 0.508348 -4.60402 0
M  V30 3102 C 313.679 0.515184 -5.71081 0
M  V30 3103 N 313.175 0.477435 -6.91153 0
M  V30 3104 N 314.968 0.560988 -5.59294 0
M  V30 3105 H 307.119 -0.809546 -1.96367 0
M  V30 3106 H 309.382 -0.302733 -0.898363 0
M  V30 3107 H 309.088 -0.546539 -3.47427 0
M  V30 3108 H 308.962 1.20075 -3.57578 0
M  V30 3109 H 311.349 1.39134 -2.60242 0
M  V30 3110 H 311.43 -0.374753 -2.5304 0
M  V30 3111 H 311.074 -0.471826 -5.05704 0
M  V30 3112 H 311.004 1.30777 -5.10103 0
M  V30 3113 H 313.495 0.54218 -3.7399 0
M  V30 3114 H 313.808 0.486299 -7.71268 0
M  V30 3115 H 312.153 0.444278 -6.93579 0
M  V30 3116 H 315.344 0.5881 -4.64391 0
M  V30 3117 H 315.517 0.562846 -6.45551 0
M  V30 3118 N 308.923 1.53595 0.353017 0
M  V30 3119 C 310.17 1.70385 1.09431 0
M  V30 3120 C 310.498 0.462113 1.88931 0
M  V30 3121 O 309.753 -0.556074 1.87633 0
M  V30 3122 C 310.052 2.91313 2.07054 0
M  V30 3123 C 309.718 4.27308 1.43939 0
M  V30 3124 C 308.38 4.64287 1.26454 0
M  V30 3125 C 310.732 5.11829 0.983883 0
M  V30 3126 C 308.06 5.83412 0.620226 0
M  V30 3127 C 310.412 6.31611 0.353516 0
M  V30 3128 C 309.076 6.67293 0.166272 0
M  V30 3129 H 308.346 0.623484 0.400436 0
M  V30 3130 H 310.993 1.87799 0.374655 0
M  V30 3131 H 309.298 2.68463 2.85368 0
M  V30 3132 H 310.995 3.01497 2.64387 0
M  V30 3133 H 307.585 3.98198 1.58543 0
M  V30 3134 H 311.769 4.838 1.10685 0
M  V30 3135 H 307.025 6.09639 0.463681 0
M  V30 3136 H 311.199 6.964 -0.00757555 0
M  V30 3137 H 308.826 7.59461 -0.335047 0
M  V30 3138 N 310.401 -0.613514 1.45168 0
M  V30 3139 C 311.626 -1.40437 1.52618 0
M  V30 3140 C 312.051 -1.87438 0.157707 0
M  V30 3141 O 311.409 -1.59791 -0.856537 0
M  V30 3142 C 311.457 -2.58894 2.51011 0
M  V30 3143 O 310.561 -3.59326 2.02382 0
M  V30 3144 H 309.902 -0.419506 0.514695 0
M  V30 3145 H 312.432 -0.747215 1.90467 0
M  V30 3146 H 312.442 -3.06214 2.69624 0
M  V30 3147 H 311.117 -2.24032 3.50403 0
M  V30 3148 H 309.694 -3.18695 1.93618 0
M  V30 3149 N 311.879 -1.3236 -0.855495 0
M  V30 3150 C 313.107 -1.2587 -1.64208 0
M  V30 3151 C 313.522 0.173457 -1.88002 0
M  V30 3152 O 312.879 1.11027 -1.44842 0
M  V30 3153 C 312.93 -2.01424 -3.00184 0
M  V30 3154 O 312.651 -3.39051 -2.77445 0
M  V30 3155 C 314.152 -2.01948 -3.94629 0
M  V30 3156 H 311.372 -0.434318 -0.511477 0
M  V30 3157 H 313.916 -1.74469 -1.0668 0
M  V30 3158 H 312.071 -1.56549 -3.5436 0
M  V30 3159 H 312.485 -3.77711 -3.63916 0
M  V30 3160 H 313.959 -2.59297 -4.87308 0
M  V30 3161 H 314.436 -1.00554 -4.27534 0
M  V30 3162 H 315.042 -2.46767 -3.4639 0
M  V30 3163 N 313.357 1.07166 -1.15556 0
M  V30 3164 C 314.773 1.31899 -0.898603 0
M  V30 3165 C 314.973 1.96333 0.453383 0
M  V30 3166 O 314.029 2.22438 1.19489 0
M  V30 3167 C 315.342 2.20826 -2.04099 0
M  V30 3168 C 316.89 2.34269 -2.07574 0
M  V30 3169 C 317.365 3.26546 -3.21141 0
M  V30 3170 N 318.856 3.34127 -3.20801 0
M  V30 3171 C 319.591 4.05595 -4.05315 0
M  V30 3172 N 319.087 4.79661 -4.99897 0
M  V30 3173 N 320.88 4.01555 -3.93332 0
M  V30 3174 H 313.031 0.637302 -2.02613 0
M  V30 3175 H 315.294 0.343468 -0.883591 0
M  V30 3176 H 315 1.80744 -3.01703 0
M  V30 3177 H 314.874 3.21364 -1.97496 0
M  V30 3178 H 317.261 2.73603 -1.10568 0
M  V30 3179 H 317.342 1.33429 -2.18244 0
M  V30 3180 H 316.986 2.87931 -4.184 0
M  V30 3181 H 316.916 4.27345 -3.07708 0
M  V30 3182 H 319.407 2.81336 -2.52306 0
M  V30 3183 H 319.72 5.31694 -5.60822 0
M  V30 3184 H 318.065 4.78671 -5.03884 0
M  V30 3185 H 321.256 3.42806 -3.18751 0
M  V30 3186 H 321.429 4.56987 -4.5942 0
M  V30 3187 N 314.835 0.952656 1.25548 0
M  V30 3188 C 316.246 0.647392 1.75116 0
M  V30 3189 C 316.597 -0.837274 1.77438 0
M  V30 3190 O 315.722 -1.65525 1.39393 0
M  V30 3191 C 316.317 1.16845 3.18014 0
M  V30 3192 C 314.876 0.913382 3.6515 0
M  V30 3193 C 314.023 1.31265 2.44264 0
M  V30 3194 H 316.974 1.12968 1.11462 0
M  V30 3195 H 316.995 0.527606 3.76824 0
M  V30 3196 H 316.507 2.24902 3.16292 0
M  V30 3197 H 314.608 -0.152316 3.72289 0
M  V30 3198 H 314.721 1.54845 4.53387 0
M  V30 3199 H 313.085 0.731028 2.43984 0
M  V30 3200 H 313.868 2.40239 2.45234 0
M  V30 3201 N 316.313 -1.40141 0.720998 0
M  V30 3202 C 317.541 -2.05096 0.272656 0
M  V30 3203 C 317.956 -1.54334 -1.0875 0
M  V30 3204 O 317.313 -0.702211 -1.6845 0
M  V30 3205 C 317.364 -3.60636 0.249835 0
M  V30 3206 O 317.085 -4.09526 1.55629 0
M  V30 3207 C 318.586 -4.42772 -0.216396 0
M  V30 3208 H 315.806 -0.659897 0.121558 0
M  V30 3209 H 318.35 -1.79449 0.980723 0
M  V30 3210 H 316.505 -3.85232 -0.409237 0
M  V30 3211 H 316.919 -5.03758 1.4604 0
M  V30 3212 H 318.393 -5.51702 -0.181212 0
M  V30 3213 H 318.87 -4.20756 -1.25941 0
M  V30 3214 H 319.476 -4.23294 0.412596 0
M  V30 3215 N 317.792 -0.46758 -1.50504 0
M  V30 3216 C 319.02 0.0864133 -2.06719 0
M  V30 3217 C 319.435 1.33819 -1.33184 0
M  V30 3218 O 318.792 1.78061 -0.400083 0
M  V30 3219 C 318.843 0.378079 -3.59517 0
M  V30 3220 O 318.564 -0.824044 -4.3028 0
M  V30 3221 C 320.065 0.979426 -4.32345 0
M  V30 3222 H 317.285 -0.00551697 -0.670977 0
M  V30 3223 H 319.829 -0.655354 -1.93715 0
M  V30 3224 H 317.984 1.06977 -3.72337 0
M  V30 3225 H 318.398 -0.566518 -5.21432 0
M  V30 3226 H 319.872 1.1333 -5.40241 0
M  V30 3227 H 320.349 1.9686 -3.9261 0
M  V30 3228 H 320.955 0.326216 -4.24047 0
M  V30 3229 N 319.27 1.56325 -0.20005 0
M  V30 3230 C 320.2 2.22318 0.713916 0
M  V30 3231 C 321.181 1.18788 1.21752 0
M  V30 3232 O 322.366 1.47309 1.26545 0
M  V30 3233 C 319.496 2.88639 1.93144 0
M  V30 3234 C 318.45 3.98457 1.56255 0
M  V30 3235 C 317.776 4.51967 2.85709 0
M  V30 3236 C 319.076 5.16612 0.768747 0
M  V30 3237 H 320.77 2.98952 0.163755 0
M  V30 3238 H 318.316 1.43792 0.0773219 0
M  V30 3239 H 320.269 3.33491 2.57608 0
M  V30 3240 H 318.993 2.09419 2.50621 0
M  V30 3241 H 317.652 3.54305 0.941471 0
M  V30 3242 H 317.3 3.69503 3.41287 0
M  V30 3243 H 317 5.26071 2.6177 0
M  V30 3244 H 318.524 4.99523 3.51154 0
M  V30 3245 H 319.938 5.57977 1.3166 0
M  V30 3246 H 318.335 5.96812 0.627286 0
M  V30 3247 H 319.405 4.84358 -0.229168 0
M  V30 3248 N 320.748 -0.0735177 1.57428 0
M  V30 3249 C 321.695 -1.08756 2.0357 0
M  V30 3250 C 322.665 -1.38559 0.916 0
M  V30 3251 O 323.85 -1.49656 1.18354 0
M  V30 3252 C 320.99 -2.39657 2.48311 0
M  V30 3253 C 320.103 -2.16399 3.73892 0
M  V30 3254 C 319.238 -3.40852 4.07423 0
M  V30 3255 C 318.277 -3.1295 5.2605 0
M  V30 3256 N 317.414 -4.29729 5.55228 0
M  V30 3257 H 322.254 -0.687104 2.8997 0
M  V30 3258 H 319.791 -0.327709 1.43403 0
M  V30 3259 H 321.749 -3.16081 2.72303 0
M  V30 3260 H 320.379 -2.77508 1.64891 0
M  V30 3261 H 319.431 -1.30676 3.57251 0
M  V30 3262 H 320.743 -1.91788 4.60455 0
M  V30 3263 H 319.897 -4.25671 4.32306 0
M  V30 3264 H 318.636 -3.68537 3.19425 0
M  V30 3265 H 317.641 -2.26526 5.00965 0
M  V30 3266 H 318.866 -2.86589 6.15665 0
M  V30 3267 H 316.812 -4.57448 4.70188 0
M  V30 3268 H 316.729 -4.08385 6.36206 0
M  V30 3269 H 317.997 -5.1555 5.84661 0
M  V30 3270 N 322.226 -1.5378 -0.344866 0
M  V30 3271 C 323.156 -1.84662 -1.42906 0
M  V30 3272 C 324.137 -0.701648 -1.54955 0
M  V30 3273 O 325.322 -0.953438 -1.69184 0
M  V30 3274 C 322.452 -2.05503 -2.79974 0
M  V30 3275 C 321.406 -3.21318 -2.82734 0
M  V30 3276 C 320.732 -3.2749 -4.22675 0
M  V30 3277 C 322.032 -4.59456 -2.48389 0
M  V30 3278 H 323.726 -2.75461 -1.17311 0
M  V30 3279 H 321.272 -1.32542 -0.562896 0
M  V30 3280 H 323.225 -2.25691 -3.55867 0
M  V30 3281 H 321.949 -1.11434 -3.07002 0
M  V30 3282 H 320.608 -3.00984 -2.09294 0
M  V30 3283 H 320.256 -2.31019 -4.4681 0
M  V30 3284 H 319.956 -4.05316 -4.25433 0
M  V30 3285 H 321.48 -3.49887 -5.00412 0
M  V30 3286 H 322.894 -4.79667 -3.13995 0
M  V30 3287 H 321.291 -5.39675 -2.62432 0
M  V30 3288 H 322.361 -4.63155 -1.4358 0
M  V30 3289 N 323.704 0.605807 -1.45491 0
M  V30 3290 C 324.634 1.72709 -1.57143 0
M  V30 3291 C 325.615 1.6476 -0.422884 0
M  V30 3292 O 326.8 1.83132 -0.646247 0
M  V30 3293 C 323.93 3.11316 -1.53948 0
M  V30 3294 C 322.884 3.34077 -2.67537 0
M  V30 3295 C 322.21 4.72975 -2.49397 0
M  V30 3296 C 323.51 3.24158 -4.09535 0
M  V30 3297 H 325.204 1.63214 -2.51001 0
M  V30 3298 H 322.75 0.78379 -1.208 0
M  V30 3299 H 324.703 3.89557 -1.60696 0
M  V30 3300 H 323.427 3.21655 -0.566205 0
M  V30 3301 H 322.086 2.58227 -2.6022 0
M  V30 3302 H 321.734 4.8005 -1.50205 0
M  V30 3303 H 321.434 4.8916 -3.25571 0
M  V30 3304 H 322.958 5.53414 -2.58002 0
M  V30 3305 H 324.372 3.92271 -4.18086 0
M  V30 3306 H 322.769 3.51872 -4.86113 0
M  V30 3307 H 323.839 2.2157 -4.31317 0
M  V30 3308 N 325.182 1.32811 0.848464 0
M  V30 3309 C 326.145 1.22194 1.9391 0
M  V30 3310 C 327.145 0.143404 1.60159 0
M  V30 3311 O 328.335 0.394253 1.6968 0
M  V30 3312 C 325.467 0.88067 3.29328 0
M  V30 3313 H 326.66 2.19127 2.04752 0
M  V30 3314 H 324.213 1.16731 1.0394 0
M  V30 3315 H 324.948 -0.0865776 3.24184 0
M  V30 3316 H 324.733 1.66052 3.55203 0
M  V30 3317 H 326.223 0.830871 4.09251 0
M  V30 3318 N 326.66 -1.06551 1.16123 0
M  V30 3319 C 327.909 -1.78687 0.935622 0
M  V30 3320 C 328.222 -1.88056 -0.538001 0
M  V30 3321 O 329.428 -2.56794 -0.88143 0
M  V30 3322 C 327.884 -3.21143 1.62466 0
M  V30 3323 C 327.492 -3.19949 3.13587 0
M  V30 3324 C 329.236 -3.9783 1.48092 0
M  V30 3325 C 327.143 -4.57108 3.75241 0
M  V30 3326 H 326.073 -0.669712 0.346412 0
M  V30 3327 H 328.724 -1.19534 1.39226 0
M  V30 3328 H 327.106 -3.80539 1.09572 0
M  V30 3329 H 328.28 -2.70151 3.73303 0
M  V30 3330 H 326.595 -2.5676 3.27816 0
M  V30 3331 H 329.192 -4.99217 1.91538 0
M  V30 3332 H 329.535 -4.14078 0.429507 0
M  V30 3333 H 330.068 -3.4495 1.98127 0
M  V30 3334 H 326.807 -4.46065 4.80319 0
M  V30 3335 H 326.327 -5.07111 3.20309 0
M  V30 3336 H 328.006 -5.26069 3.76644 0
M  V30 3337 N 328.138 -0.959301 -1.25041 0
M  V30 3338 C 329.387 -0.612254 -1.92183 0
M  V30 3339 C 329.7 0.855347 -1.75907 0
M  V30 3340 O 330.906 1.31256 -2.37664 0
M  V30 3341 C 329.362 -1.04435 -3.44414 0
M  V30 3342 C 328.97 -2.53482 -3.69393 0
M  V30 3343 C 330.714 -0.770055 -4.17457 0
M  V30 3344 C 328.621 -2.90468 -5.15153 0
M  V30 3345 H 327.551 -0.225279 -0.719559 0
M  V30 3346 H 330.202 -1.16438 -1.41825 0
M  V30 3347 H 328.584 -0.4206 -3.9376 0
M  V30 3348 H 329.758 -3.20916 -3.30681 0
M  V30 3349 H 328.073 -2.78432 -3.0962 0
M  V30 3350 H 330.67 -1.02249 -5.24832 0
M  V30 3351 H 331.013 0.293611 -4.15263 0
M  V30 3352 H 331.546 -1.35437 -3.74034 0
M  V30 3353 H 328.285 -3.95871 -5.22462 0
M  V30 3354 H 327.805 -2.27711 -5.54894 0
M  V30 3355 H 329.484 -2.79914 -5.83315 0
M  V30 3356 N 329.616 1.39756 -0.72842 0
M  V30 3357 C 330.864 2.00248 -0.272946 0
M  V30 3358 C 331.185 1.58077 1.14178 0
M  V30 3359 O 330.455 0.826014 1.77634 0
M  V30 3360 H 329.035 0.740554 -0.0979247 0
M  V30 3361 H 331.697 1.70903 -0.936912 0
M  V30 3362 H 330.793 3.10495 -0.316142 0
M  V30 3363 N 331.094 0.475555 1.50254 0
M  V30 3364 C 332.057 -0.305016 2.27161 0
M  V30 3365 C 333.057 -0.916519 1.32123 0
M  V30 3366 O 334.247 -0.785003 1.5551 0
M  V30 3367 C 331.379 -1.43496 3.09227 0
M  V30 3368 H 332.572 0.369511 2.97615 0
M  V30 3369 H 330.125 0.229747 1.54602 0
M  V30 3370 H 330.86 -2.14441 2.43281 0
M  V30 3371 H 330.645 -1.00223 3.79075 0
M  V30 3372 H 332.135 -1.98548 3.67381 0
M  V30 3373 N 332.573 -1.56217 0.208337 0
M  V30 3374 C 333.822 -1.97124 -0.427204 0
M  V30 3375 C 334.135 -1.09859 -1.61835 0
M  V30 3376 O 335.341 -1.40606 -2.32255 0
M  V30 3377 C 333.797 -3.50633 -0.811442 0
M  V30 3378 C 333.405 -4.46582 0.35615 0
M  V30 3379 C 335.149 -4.00282 -1.41332 0
M  V30 3380 C 333.056 -5.91379 -0.0497852 0
M  V30 3381 H 331.986 -0.736086 -0.163381 0
M  V30 3382 H 334.637 -1.8099 0.302456 0
M  V30 3383 H 333.019 -3.62319 -1.59815 0
M  V30 3384 H 334.193 -4.46636 1.1337 0
M  V30 3385 H 332.508 -4.07202 0.870396 0
M  V30 3386 H 335.105 -5.0595 -1.72972 0
M  V30 3387 H 335.448 -3.45359 -2.32449 0
M  V30 3388 H 335.981 -3.91764 -0.690323 0
M  V30 3389 H 332.72 -6.50255 0.827529 0
M  V30 3390 H 332.24 -5.94549 -0.791926 0
M  V30 3391 H 333.919 -6.45209 -0.481042 0
M  V30 3392 N 334.051 0.0651679 -1.57465 0
M  V30 3393 C 335.297 0.764193 -1.87851 0
M  V30 3394 C 335.63 1.76889 -0.801495 0
M  V30 3395 O 334.905 1.93594 0.187528 0
M  V30 3396 C 335.188 1.46625 -3.28897 0
M  V30 3397 C 335.041 0.477515 -4.47258 0
M  V30 3398 C 336.36 2.4095 -3.68281 0
M  V30 3399 H 333.479 0.276351 -0.683227 0
M  V30 3400 H 336.121 0.0272868 -1.8998 0
M  V30 3401 H 334.271 2.09438 -3.27212 0
M  V30 3402 H 335.943 -0.145922 -4.61069 0
M  V30 3403 H 334.186 -0.206576 -4.33308 0
M  V30 3404 H 334.857 1.0065 -5.42746 0
M  V30 3405 H 337.333 1.88209 -3.71102 0
M  V30 3406 H 336.209 2.87072 -4.67847 0
M  V30 3407 H 336.47 3.26049 -2.98571 0
M  V30 3408 N 335.529 1.53961 0.336706 0
M  V30 3409 C 336.492 1.81724 1.39675 0
M  V30 3410 C 337.492 0.688532 1.45313 0
M  V30 3411 O 338.682 0.956829 1.45569 0
M  V30 3412 C 335.814 1.96543 2.78538 0
M  V30 3413 H 337.007 2.76424 1.16318 0
M  V30 3414 H 334.56 1.45478 0.571474 0
M  V30 3415 H 335.295 1.0401 3.07168 0
M  V30 3416 H 335.08 2.78665 2.75841 0
M  V30 3417 H 336.57 2.19516 3.5525 0
M  V30 3418 N 337.007 -0.598083 1.45811 0
M  V30 3419 C 338.235 -1.38322 1.53866 0
M  V30 3420 C 338.65 -1.87992 0.174479 0
M  V30 3421 O 338.007 -1.62756 -0.825627 0
M  V30 3422 C 338.058 -2.58125 2.53089 0
M  V30 3423 O 337.779 -2.10516 3.84206 0
M  V30 3424 C 339.28 -3.50869 2.70935 0
M  V30 3425 H 336.5 -0.423093 0.520801 0
M  V30 3426 H 339.044 -0.728527 1.91083 0
M  V30 3427 H 337.199 -3.19615 2.18917 0
M  V30 3428 H 337.613 -2.88425 4.38077 0
M  V30 3429 H 339.087 -4.31451 3.44317 0
M  V30 3430 H 339.564 -4.01822 1.77301 0
M  V30 3431 H 340.17 -2.95225 3.06141 0
M  V30 3432 N 338.485 -1.33259 -0.841409 0
M  V30 3433 C 339.731 -1.24757 -1.59886 0
M  V30 3434 C 340.064 0.186913 -1.93298 0
M  V30 3435 O 339.339 1.12757 -1.5848 0
M  V30 3436 C 339.622 -2.12036 -2.91055 0
M  V30 3437 C 339.475 -3.63929 -2.6434 0
M  V30 3438 C 340.794 -1.9916 -3.92458 0
M  V30 3439 H 337.913 -0.454542 -0.580138 0
M  V30 3440 H 340.555 -1.63335 -0.970647 0
M  V30 3441 H 338.705 -1.79265 -3.44669 0
M  V30 3442 H 340.377 -4.06978 -2.17178 0
M  V30 3443 H 338.62 -3.85935 -1.98082 0
M  V30 3444 H 339.291 -4.20341 -3.57796 0
M  V30 3445 H 341.767 -2.27895 -3.48143 0
M  V30 3446 H 340.643 -2.62484 -4.82072 0
M  V30 3447 H 340.904 -0.963082 -4.31482 0
M  V30 3448 N 339.963 1.05934 -1.16686 0
M  V30 3449 C 341.209 1.79065 -0.95203 0
M  V30 3450 C 341.542 1.87147 0.518629 0
M  V30 3451 O 340.817 1.36574 1.38484 0
M  V30 3452 C 341.1 3.23359 -1.58464 0
M  V30 3453 C 340.953 3.23336 -3.12689 0
M  V30 3454 C 342.272 4.21004 -1.28232 0
M  V30 3455 H 339.391 0.65005 -0.34728 0
M  V30 3456 H 342.033 1.23868 -1.44072 0
M  V30 3457 H 340.183 3.70493 -1.16908 0
M  V30 3458 H 341.855 2.84336 -3.6325 0
M  V30 3459 H 340.098 2.61886 -3.4583 0
M  V30 3460 H 340.769 4.25144 -3.52075 0
M  V30 3461 H 343.245 3.8233 -1.64203 0
M  V30 3462 H 342.121 5.20225 -1.75092 0
M  V30 3463 H 342.382 4.41639 -0.201791 0
M  V30 3464 N 341.441 0.965919 1.2453 0
M  V30 3465 C 342.404 0.499547 2.2369 0
M  V30 3466 C 343.404 -0.40294 1.5567 0
M  V30 3467 O 344.594 -0.19865 1.73064 0
M  V30 3468 C 341.726 -0.276792 3.39774 0
M  V30 3469 H 342.919 1.37613 2.66463 0
M  V30 3470 H 340.472 0.750324 1.37112 0
M  V30 3471 H 341.207 -1.17055 3.02438 0
M  V30 3472 H 340.992 0.370826 3.90343 0
M  V30 3473 H 342.482 -0.592175 4.1338 0
M  V30 3474 N 342.919 -1.39368 0.735821 0
M  V30 3475 C 343.849 -2.33234 0.111506 0
M  V30 3476 C 344.83 -1.53954 -0.723334 0
M  V30 3477 O 346.015 -1.82344 -0.668147 0
M  V30 3478 C 343.145 -3.38057 -0.795917 0
M  V30 3479 C 342.099 -4.2795 -0.065172 0
M  V30 3480 C 341.425 -5.23479 -1.08967 0
M  V30 3481 C 342.725 -5.10741 1.09273 0
M  V30 3482 H 344.419 -2.85692 0.895571 0
M  V30 3483 H 341.965 -1.37364 0.432109 0
M  V30 3484 H 343.918 -4.02675 -1.24221 0
M  V30 3485 H 342.642 -2.8404 -1.61211 0
M  V30 3486 H 341.301 -3.64813 0.361511 0
M  V30 3487 H 340.949 -4.65758 -1.89944 0
M  V30 3488 H 340.649 -5.84472 -0.605489 0
M  V30 3489 H 342.173 -5.90974 -1.53565 0
M  V30 3490 H 343.587 -5.68699 0.724841 0
M  V30 3491 H 341.984 -5.8088 1.50659 0
M  V30 3492 H 343.054 -4.45525 1.91404 0
M  V30 3493 N 344.397 -0.483516 -1.5 0
M  V30 3494 C 345.646 0.0689102 -2.01582 0
M  V30 3495 C 345.959 1.39655 -1.36952 0
M  V30 3496 O 347.165 2.03465 -1.79762 0
M  V30 3497 C 345.621 0.173302 -3.59483 0
M  V30 3498 C 345.229 -1.14665 -4.33077 0
M  V30 3499 C 346.973 0.677024 -4.19066 0
M  V30 3500 C 344.88 -1.00537 -5.82792 0
M  V30 3501 H 343.81 0.0295277 -0.753422 0
M  V30 3502 H 346.461 -0.620295 -1.72698 0
M  V30 3503 H 344.843 0.926569 -3.85007 0
M  V30 3504 H 346.017 -1.91184 -4.19268 0
M  V30 3505 H 344.332 -1.58244 -3.85159 0
M  V30 3506 H 346.929 0.799952 -5.28682 0
M  V30 3507 H 347.272 1.67151 -3.81269 0
M  V30 3508 H 347.805 -0.0192083 -3.97795 0
M  V30 3509 H 344.544 -1.9736 -6.25083 0
M  V30 3510 H 344.064 -0.280776 -5.99142 0
M  V30 3511 H 345.743 -0.677 -6.43448 0
M  V30 3512 N 345.875 1.56104 -0.216619 0
M  V30 3513 C 346.838 2.18819 0.681962 0
M  V30 3514 C 347.838 1.14866 1.12528 0
M  V30 3515 O 349.028 1.40128 1.03488 0
M  V30 3516 C 346.16 2.80756 1.93362 0
M  V30 3517 H 347.353 2.99595 0.135254 0
M  V30 3518 H 344.906 1.56265 0.0330003 0
M  V30 3519 H 345.641 2.03837 2.52232 0
M  V30 3520 H 345.426 3.56876 1.62426 0
M  V30 3521 H 346.916 3.28844 2.57393 0
M  V30 3522 N 347.353 -0.0568162 1.57498 0
M  V30 3523 C 348.283 -1.06593 2.0775 0
M  V30 3524 C 349.264 -1.39448 0.974082 0
M  V30 3525 O 350.449 -1.48815 1.24771 0
M  V30 3526 C 347.579 -2.37509 2.5339 0
M  V30 3527 C 346.533 -2.1897 3.67745 0
M  V30 3528 C 345.859 -3.55402 3.99492 0
M  V30 3529 C 347.159 -1.59859 4.97235 0
M  V30 3530 H 348.853 -0.647706 2.9231 0
M  V30 3531 H 346.399 -0.310116 1.40621 0
M  V30 3532 H 348.352 -3.08409 2.87162 0
M  V30 3533 H 347.076 -2.8134 1.65878 0
M  V30 3534 H 345.735 -1.50508 3.3428 0
M  V30 3535 H 345.383 -3.9683 3.09088 0
M  V30 3536 H 345.083 -3.43831 4.76502 0
M  V30 3537 H 346.607 -4.27708 4.35773 0
M  V30 3538 H 348.021 -2.20642 5.29141 0
M  V30 3539 H 346.418 -1.58942 5.78669 0
M  V30 3540 H 347.488 -0.561506 4.81638 0
M  V30 3541 N 348.832 -1.54138 -0.328536 0
M  V30 3542 C 350.078 -1.73297 -1.06488 0
M  V30 3543 C 350.433 -0.497958 -1.85844 0
M  V30 3544 O 349.726 0.509591 -1.84699 0
M  V30 3545 C 349.92 -2.9457 -2.02393 0
M  V30 3546 C 349.749 -4.29747 -1.32467 0
M  V30 3547 C 348.519 -4.93987 -1.06324 0
M  V30 3548 C 350.717 -5.08903 -0.743137 0
M  V30 3549 N 348.699 -6.13005 -0.331359 0
M  V30 3550 C 350.07 -6.19836 -0.142602 0
M  V30 3551 C 352.125 -4.93699 -0.64546 0
M  V30 3552 C 350.828 -7.17224 0.546125 0
M  V30 3553 C 352.854 -5.91393 0.0295558 0
M  V30 3554 C 352.216 -7.01674 0.619056 0
M  V30 3555 H 348.315 -0.687017 -0.373539 0
M  V30 3556 H 350.899 -1.91589 -0.346659 0
M  V30 3557 H 349.07 -2.77752 -2.71493 0
M  V30 3558 H 350.802 -3.0238 -2.68977 0
M  V30 3559 H 347.557 -4.53824 -1.35428 0
M  V30 3560 H 347.981 -6.76997 0.0202939 0
M  V30 3561 H 352.623 -4.08589 -1.08695 0
M  V30 3562 H 350.341 -8.01896 0.999459 0
M  V30 3563 H 353.927 -5.81706 0.104705 0
M  V30 3564 H 352.807 -7.75971 1.13309 0
M  V30 3565 N 350.31 0.590341 -1.46126 0
M  V30 3566 C 351.726 0.912917 -1.30912 0
M  V30 3567 C 351.926 1.99616 -0.274893 0
M  V30 3568 O 350.982 2.50397 0.325197 0
M  V30 3569 C 352.295 1.3375 -2.69317 0
M  V30 3570 C 353.843 1.45077 -2.77348 0
M  V30 3571 C 354.318 1.90904 -4.16317 0
M  V30 3572 N 355.809 1.9811 -4.18696 0
M  V30 3573 C 356.544 2.34828 -5.23109 0
M  V30 3574 N 356.04 2.70393 -6.37856 0
M  V30 3575 N 357.833 2.35317 -5.10473 0
M  V30 3576 H 349.984 -0.125358 -2.1203 0
M  V30 3577 H 352.247 0.00658481 -0.947977 0
M  V30 3578 H 351.953 0.615614 -3.4627 0
M  V30 3579 H 351.827 2.30058 -2.9892 0
M  V30 3580 H 354.214 2.16353 -2.00687 0
M  V30 3581 H 354.295 0.4704 -2.51438 0
M  V30 3582 H 353.939 1.20209 -4.9347 0
M  V30 3583 H 353.869 2.89886 -4.39629 0
M  V30 3584 H 356.36 1.73146 -3.359 0
M  V30 3585 H 356.673 2.97341 -7.13308 0
M  V30 3586 H 355.018 2.68048 -6.41229 0
M  V30 3587 H 358.209 2.0695 -4.19868 0
M  V30 3588 H 358.382 2.63605 -5.9196 0
M  V30 3589 N 351.788 1.33704 0.83433 0
M  V30 3590 C 352.718 1.26967 1.95963 0
M  V30 3591 C 353.699 0.149337 1.69443 0
M  V30 3592 O 354.884 0.339852 1.91203 0
M  V30 3593 C 352.014 1.01275 3.32206 0
M  V30 3594 C 350.968 2.09652 3.73136 0
M  V30 3595 C 350.294 1.69166 5.07235 0
M  V30 3596 C 351.594 3.51372 3.86439 0
M  V30 3597 H 353.288 2.2112 2.01857 0
M  V30 3598 H 350.834 1.06447 0.969793 0
M  V30 3599 H 352.787 0.952106 4.10503 0
M  V30 3600 H 351.511 0.0356203 3.26581 0
M  V30 3601 H 350.17 2.14766 2.97104 0
M  V30 3602 H 349.818 0.701437 4.98085 0
M  V30 3603 H 349.518 2.41694 5.35591 0
M  V30 3604 H 351.042 1.64576 5.88003 0
M  V30 3605 H 352.456 3.48734 4.55036 0
M  V30 3606 H 350.853 4.22425 4.26236 0
M  V30 3607 H 351.923 3.89546 2.88759 0
M  V30 3608 N 353.266 -1.05314 1.17247 0
M  V30 3609 C 354.543 -1.75184 0.87005 0
M  V30 3610 C 354.923 -2.01481 -0.629965 0
M  V30 3611 O 354.271 -1.64988 -1.58086 0
M  V30 3612 C 354.481 -3.04594 1.70363 0
M  V30 3613 C 355.829 -3.78567 1.92281 0
M  V30 3614 O 356.853 -3.14461 1.67311 0
M  V30 3615 O 355.712 -4.93755 2.3424 0
M  V30 3616 H 352.806 -0.761729 0.322021 0
M  V30 3617 H 355.352 -1.11493 1.27935 0
M  V30 3618 H 354.124 -2.81201 2.72106 0
M  V30 3619 H 353.747 -3.76022 1.29202 0
M  V30 3620 N 354.744 -0.972509 -1.24016 0
M  V30 3621 C 355.676 -0.464375 -2.24446 0
M  V30 3622 C 356.689 0.4295 -1.57032 0
M  V30 3623 O 357.878 0.234902 -1.76948 0
M  V30 3624 C 354.978 0.348385 -3.37105 0
M  V30 3625 C 354.151 -0.53673 -4.34094 0
M  V30 3626 C 353.21 0.220838 -5.25736 0
M  V30 3627 O 352.236 -0.386867 -5.67884 0
M  V30 3628 N 353.438 1.50907 -5.60542 0
M  V30 3629 H 356.203 -1.32788 -2.68677 0
M  V30 3630 H 353.764 -0.844877 -1.38107 0
M  V30 3631 H 355.756 0.863341 -3.95384 0
M  V30 3632 H 354.326 1.11285 -2.92121 0
M  V30 3633 H 353.546 -1.23261 -3.74433 0
M  V30 3634 H 354.834 -1.14022 -4.95859 0
M  V30 3635 H 354.232 2.02444 -5.28236 0
M  V30 3636 H 352.789 1.96962 -6.21329 0
M  V30 3637 N 356.222 1.38976 -0.743202 0
M  V30 3638 C 357.152 2.33171 -0.123873 0
M  V30 3639 C 358.133 1.54336 0.71516 0
M  V30 3640 O 359.318 1.82696 0.658467 0
M  V30 3641 C 356.448 3.38474 0.777978 0
M  V30 3642 C 355.402 4.27979 0.0424758 0
M  V30 3643 C 354.728 5.2405 1.06189 0
M  V30 3644 C 356.028 5.10155 -1.1198 0
M  V30 3645 H 357.722 2.85213 -0.910709 0
M  V30 3646 H 355.268 1.37133 -0.439388 0
M  V30 3647 H 357.221 4.03328 1.22084 0
M  V30 3648 H 355.945 2.84891 1.59702 0
M  V30 3649 H 354.604 3.64616 -0.380853 0
M  V30 3650 H 354.252 4.66758 1.87472 0
M  V30 3651 H 353.952 5.84785 0.574485 0
M  V30 3652 H 355.476 5.9178 1.50428 0
M  V30 3653 H 356.89 5.68307 -0.75499 0
M  V30 3654 H 355.287 5.80073 -1.53738 0
M  V30 3655 H 356.357 4.44504 -1.93764 0
M  V30 3656 N 357.7 0.491464 1.49741 0
M  V30 3657 C 358.977 -0.118984 1.95238 0
M  V30 3658 C 359.357 -1.55044 1.43264 0
M  V30 3659 O 358.705 -2.19287 0.642287 0
M  V30 3660 C 358.915 -0.0414187 3.48975 0
M  V30 3661 C 360.263 -0.220133 4.24029 0
M  V30 3662 O 361.287 -0.117055 3.56008 0
M  V30 3663 O 360.146 -0.430567 5.44801 0
M  V30 3664 H 357.24 -0.100536 0.820866 0
M  V30 3665 H 359.786 0.553322 1.60426 0
M  V30 3666 H 358.558 0.957214 3.79412 0
M  V30 3667 H 358.181 -0.754292 3.9038 0
M  V30 3668 N 359.178 -1.55987 0.224894 0
M  V30 3669 C 360.426 -1.97998 -0.405099 0
M  V30 3670 C 360.747 -1.11387 -1.60056 0
M  V30 3671 O 360.017 -0.191645 -1.9496 0
M  V30 3672 H 358.597 -0.731235 -0.152658 0
M  V30 3673 H 361.259 -1.92279 0.318567 0
M  V30 3674 H 360.355 -3.03463 -0.729167 0
M  V30 3675 N 360.656 0.0484629 -1.57525 0
M  V30 3676 C 362.072 0.40375 -1.54409 0
M  V30 3677 C 362.272 1.77786 -0.948384 0
M  V30 3678 O 361.328 2.46189 -0.560983 0
M  V30 3679 C 362.641 0.323394 -2.98956 0
M  V30 3680 C 364.189 0.401892 -3.10409 0
M  V30 3681 C 364.664 0.351195 -4.56652 0
M  V30 3682 N 366.155 0.410576 -4.61377 0
M  V30 3683 C 366.89 0.393933 -5.72045 0
M  V30 3684 N 366.386 0.330724 -6.9201 0
M  V30 3685 N 368.179 0.442227 -5.60358 0
M  V30 3686 H 360.33 -0.851016 -1.94606 0
M  V30 3687 H 362.593 -0.321721 -0.89174 0
M  V30 3688 H 362.299 -0.62011 -3.4619 0
M  V30 3689 H 362.173 1.12463 -3.60044 0
M  V30 3690 H 364.56 1.33582 -2.63134 0
M  V30 3691 H 364.641 -0.428342 -2.52188 0
M  V30 3692 H 364.285 -0.578987 -5.04589 0
M  V30 3693 H 364.215 1.19928 -5.12762 0
M  V30 3694 H 366.706 0.462729 -3.75056 0
M  V30 3695 H 367.019 0.322592 -7.72126 0
M  V30 3696 H 365.364 0.29706 -6.94365 0
M  V30 3697 H 368.555 0.489464 -4.65534 0
M  V30 3698 H 368.728 0.425788 -6.466 0
M  V30 3699 N 362.134 1.5431 0.320358 0
M  V30 3700 C 363.382 1.72327 1.05583 0
M  V30 3701 C 363.703 0.50149 1.88441 0
M  V30 3702 O 362.973 -0.48448 1.89815 0
M  V30 3703 H 361.553 0.635387 0.3928 0
M  V30 3704 H 364.215 1.91621 0.356019 0
M  V30 3705 H 363.311 2.60426 1.72003 0
M  V30 3706 N 363.613 -0.582584 1.46437 0
M  V30 3707 C 364.838 -1.37168 1.55563 0
M  V30 3708 C 365.263 -1.87061 0.19743 0
M  V30 3709 O 364.621 -1.61572 -0.822451 0
M  V30 3710 C 364.669 -2.53511 2.56446 0
M  V30 3711 O 363.773 -3.54953 2.09958 0
M  V30 3712 H 363.114 -0.408494 0.523477 0
M  V30 3713 H 365.644 -0.706646 1.9201 0
M  V30 3714 H 365.654 -3.00426 2.76058 0
M  V30 3715 H 364.329 -2.16549 3.55076 0
M  V30 3716 H 362.906 -3.14516 2.00334 0
M  V30 3717 N 365.091 -1.34144 -0.827227 0
M  V30 3718 C 366.34 -1.25602 -1.5782 0
M  V30 3719 C 366.653 0.173445 -1.94829 0
M  V30 3720 O 367.859 0.380984 -2.68814 0
M  V30 3721 C 366.315 -2.20151 -2.84713 0
M  V30 3722 C 365.923 -3.68331 -2.55021 0
M  V30 3723 C 367.667 -2.20508 -3.62735 0
M  V30 3724 C 365.574 -4.54762 -3.78082 0
M  V30 3725 H 364.504 -0.466573 -0.592306 0
M  V30 3726 H 367.155 -1.59283 -0.911116 0
M  V30 3727 H 365.537 -1.79417 -3.53023 0
M  V30 3728 H 366.711 -4.17577 -1.94849 0
M  V30 3729 H 365.026 -3.7038 -1.90283 0
M  V30 3730 H 367.623 -2.82306 -4.54101 0
M  V30 3731 H 367.966 -1.20322 -3.98533 0
M  V30 3732 H 368.499 -2.59664 -3.01362 0
M  V30 3733 H 365.238 -5.55867 -3.47407 0
M  V30 3734 H 364.758 -4.10254 -4.37552 0
M  V30 3735 H 366.437 -4.69153 -4.45538 0
M  V30 3736 N 366.569 1.04691 -1.17803 0
M  V30 3737 C 367.532 2.10724 -0.901545 0
M  V30 3738 C 368.532 1.6042 0.110437 0
M  V30 3739 O 369.722 1.7377 -0.122303 0
M  V30 3740 C 366.854 3.39084 -0.351409 0
M  V30 3741 H 368.047 2.36686 -1.84174 0
M  V30 3742 H 365.6 1.21015 -0.98919 0
M  V30 3743 H 366.335 3.18782 0.59569 0
M  V30 3744 H 366.12 3.76909 -1.08083 0
M  V30 3745 H 367.61 4.17227 -0.176451 0
M  V30 3746 N 368.047 0.979072 1.23499 0
M  V30 3747 C 368.979 0.476271 2.24197 0
M  V30 3748 C 369.992 -0.421166 1.57258 0
M  V30 3749 O 371.181 -0.225515 1.7707 0
M  V30 3750 C 368.281 -0.330503 3.37285 0
M  V30 3751 C 367.454 0.559744 4.33804 0
M  V30 3752 C 366.513 -0.192954 5.25846 0
M  V30 3753 O 365.539 0.416978 5.67671 0
M  V30 3754 N 366.741 -1.47932 5.61334 0
M  V30 3755 H 369.506 1.34211 2.67969 0
M  V30 3756 H 367.067 0.852189 1.37657 0
M  V30 3757 H 369.059 -0.842361 3.95836 0
M  V30 3758 H 367.629 -1.09734 2.92707 0
M  V30 3759 H 366.849 1.25245 3.73775 0
M  V30 3760 H 368.137 1.1665 4.95248 0
M  V30 3761 H 367.535 -1.9964 5.29302 0
M  V30 3762 H 366.092 -1.93664 6.22364 0
M  V30 3763 N 369.525 -1.3858 0.750561 0
M  V30 3764 C 370.455 -2.33102 0.136237 0
M  V30 3765 C 371.436 -1.54713 -0.706965 0
M  V30 3766 O 372.621 -1.83043 -0.648769 0
M  V30 3767 C 369.751 -3.38882 -0.760017 0
M  V30 3768 C 368.705 -4.27995 -0.0197785 0
M  V30 3769 C 368.031 -5.24605 -1.03408 0
M  V30 3770 C 369.331 -5.09554 1.14684 0
M  V30 3771 H 371.025 -2.84726 0.925822 0
M  V30 3772 H 368.571 -1.36898 0.446654 0
M  V30 3773 H 370.524 -4.0397 -1.19943 0
M  V30 3774 H 369.248 -2.85734 -1.58189 0
M  V30 3775 H 367.907 -3.64409 0.400184 0
M  V30 3776 H 367.555 -4.67746 -1.84994 0
M  V30 3777 H 367.255 -5.85081 -0.543464 0
M  V30 3778 H 368.779 -5.9257 -1.47288 0
M  V30 3779 H 370.193 -5.67899 0.785118 0
M  V30 3780 H 368.59 -5.7925 1.56812 0
M  V30 3781 H 369.66 -4.4347 1.96118 0
M  V30 3782 N 371.003 -0.499398 -1.49478 0
M  V30 3783 C 371.933 0.269244 -2.31943 0
M  V30 3784 C 372.914 0.964054 -1.40143 0
M  V30 3785 O 374.099 0.955767 -1.69052 0
M  V30 3786 C 371.229 1.33504 -3.20615 0
M  V30 3787 C 370.183 0.760202 -4.21195 0
M  V30 3788 C 369.509 1.9264 -4.98792 0
M  V30 3789 C 370.809 -0.247661 -5.21712 0
M  V30 3790 H 372.503 -0.419082 -2.96452 0
M  V30 3791 H 370.049 -0.202988 -1.42562 0
M  V30 3792 H 372.002 1.88048 -3.77115 0
M  V30 3793 H 370.726 2.05253 -2.54045 0
M  V30 3794 H 369.385 0.23653 -3.65836 0
M  V30 3795 H 369.033 2.63154 -4.28671 0
M  V30 3796 H 368.733 1.54785 -5.66847 0
M  V30 3797 H 370.257 2.4762 -5.58137 0
M  V30 3798 H 371.671 0.209579 -5.72917 0
M  V30 3799 H 370.068 -0.541962 -5.97648 0
M  V30 3800 H 371.138 -1.16409 -4.7072 0
M  V30 3801 N 372.481 1.55866 -0.233164 0
M  V30 3802 C 373.411 2.23783 0.666599 0
M  V30 3803 C 374.392 1.21343 1.19205 0
M  V30 3804 O 375.577 1.4996 1.23392 0
M  V30 3805 C 372.707 2.92671 1.86978 0
M  V30 3806 C 371.661 4.01682 1.47768 0
M  V30 3807 C 370.987 4.57926 2.76058 0
M  V30 3808 C 372.287 5.18126 0.658993 0
M  V30 3809 H 373.981 2.99232 0.100306 0
M  V30 3810 H 371.527 1.43924 0.046804 0
M  V30 3811 H 373.48 3.3888 2.50476 0
M  V30 3812 H 372.204 2.14688 2.46123 0
M  V30 3813 H 370.863 3.56222 0.866106 0
M  V30 3814 H 370.511 3.76659 3.33372 0
M  V30 3815 H 370.211 5.31505 2.50552 0
M  V30 3816 H 371.735 5.06859 3.40479 0
M  V30 3817 H 373.149 5.60644 1.19795 0
M  V30 3818 H 371.546 5.98009 0.500552 0
M  V30 3819 H 372.616 4.83763 -0.331856 0
M  V30 3820 N 373.959 -0.0401083 1.57549 0
M  V30 3821 C 375.375 -0.395556 1.54621 0
M  V30 3822 C 375.575 -1.77281 0.957799 0
M  V30 3823 O 374.631 -2.45888 0.574031 0
M  V30 3824 C 375.944 -0.307535 2.99123 0
M  V30 3825 C 377.492 -0.385425 3.10618 0
M  V30 3826 C 377.967 -0.326973 4.56831 0
M  V30 3827 N 379.458 -0.386102 4.61588 0
M  V30 3828 C 380.193 -0.363591 5.72246 0
M  V30 3829 N 379.689 -0.29402 6.92176 0
M  V30 3830 N 381.482 -0.412503 5.60584 0
M  V30 3831 H 373.633 0.861325 1.94152 0
M  V30 3832 H 375.896 0.326445 0.890021 0
M  V30 3833 H 375.602 0.638461 3.45856 0
M  V30 3834 H 375.476 -1.10552 3.60636 0
M  V30 3835 H 377.863 -1.32185 2.63839 0
M  V30 3836 H 377.944 0.44171 2.51957 0
M  V30 3837 H 377.588 0.605738 5.04275 0
M  V30 3838 H 377.518 -1.17207 5.13391 0
M  V30 3839 H 380.009 -0.442832 3.75296 0
M  V30 3840 H 380.322 -0.28164 7.72287 0
M  V30 3841 H 378.667 -0.260232 6.94513 0
M  V30 3842 H 381.858 -0.464769 4.65787 0
M  V30 3843 H 382.031 -0.391492 6.46816 0
M  V30 3844 N 375.437 -1.54477 -0.31217 0
M  V30 3845 C 376.848 -1.64344 -0.885891 0
M  V30 3846 C 377.199 -0.54485 -1.88483 0
M  V30 3847 O 376.324 0.320387 -2.14015 0
M  V30 3848 C 376.919 -2.97908 -1.61357 0
M  V30 3849 C 375.478 -3.09933 -2.13585 0
M  V30 3850 C 374.625 -2.59971 -0.964897 0
M  V30 3851 H 377.576 -1.58448 -0.0894528 0
M  V30 3852 H 377.597 -2.88706 -2.47848 0
M  V30 3853 H 377.109 -3.77845 -0.886277 0
M  V30 3854 H 375.21 -2.34694 -2.89395 0
M  V30 3855 H 375.323 -4.15916 -2.37804 0
M  V30 3856 H 373.687 -2.16147 -1.34731 0
M  V30 3857 H 374.47 -3.42376 -0.251742 0
M  V30 3858 N 376.915 0.57481 -1.46744 0
M  V30 3859 C 378.162 1.33272 -1.52462 0
M  V30 3860 C 378.49 1.93669 -0.179572 0
M  V30 3861 O 377.745 1.7743 0.825664 0
M  V30 3862 C 378.044 2.476 -2.57738 0
M  V30 3863 C 377.71 2.05146 -4.01529 0
M  V30 3864 C 376.372 1.93284 -4.40676 0
M  V30 3865 C 378.724 1.72506 -4.91824 0
M  V30 3866 C 376.052 1.47049 -5.67973 0
M  V30 3867 C 378.404 1.27748 -6.19567 0
M  V30 3868 C 377.068 1.14468 -6.57612 0
M  V30 3869 H 376.338 0.487678 -0.557899 0
M  V30 3870 H 378.985 0.646456 -1.80259 0
M  V30 3871 H 377.29 3.21708 -2.23632 0
M  V30 3872 H 378.987 3.05807 -2.5939 0
M  V30 3873 H 375.577 2.15316 -3.7059 0
M  V30 3874 H 379.761 1.80552 -4.62293 0
M  V30 3875 H 375.017 1.35417 -5.96215 0
M  V30 3876 H 379.191 1.01547 -6.88957 0
M  V30 3877 H 376.818 0.78419 -7.56145 0
M  V30 3878 N 378.394 1.34581 0.820102 0
M  V30 3879 C 379.81 1.14325 1.11364 0
M  V30 3880 C 380.01 -0.0533648 2.01429 0
M  V30 3881 O 379.066 -0.728044 2.41776 0
M  V30 3882 C 380.379 2.43983 1.75764 0
M  V30 3883 C 381.927 2.50065 1.88246 0
M  V30 3884 C 382.402 3.79732 2.56061 0
M  V30 3885 N 383.893 3.80908 2.63558 0
M  V30 3886 C 384.628 4.77961 3.16766 0
M  V30 3887 N 384.124 5.85397 3.70517 0
M  V30 3888 N 385.917 4.65413 3.15194 0
M  V30 3889 H 378.068 2.11246 0.221096 0
M  V30 3890 H 380.331 0.934289 0.160649 0
M  V30 3891 H 380.037 3.31651 1.1705 0
M  V30 3892 H 379.911 2.57531 2.75604 0
M  V30 3893 H 382.298 1.62834 2.46108 0
M  V30 3894 H 382.379 2.40442 0.873006 0
M  V30 3895 H 382.023 4.67354 1.98853 0
M  V30 3896 H 381.953 3.86639 3.57516 0
M  V30 3897 H 384.444 3.03274 2.25463 0
M  V30 3898 H 384.757 6.55463 4.09376 0
M  V30 3899 H 383.102 5.89107 3.68752 0
M  V30 3900 H 386.293 3.80627 2.72471 0
M  V30 3901 H 386.466 5.41216 3.56356 0
M  V30 3902 N 379.872 -1.04064 1.18357 0
M  V30 3903 C 381.283 -1.58719 0.98312 0
M  V30 3904 C 381.634 -1.90556 -0.467193 0
M  V30 3905 O 380.759 -1.69561 -1.34454 0
M  V30 3906 C 381.354 -2.88379 1.77828 0
M  V30 3907 C 379.913 -3.3965 1.62218 0
M  V30 3908 C 379.06 -2.13235 1.77274 0
M  V30 3909 H 382.011 -0.867359 1.32901 0
M  V30 3910 H 382.032 -3.58773 1.26737 0
M  V30 3911 H 381.544 -2.65176 2.83379 0
M  V30 3912 H 379.645 -3.67866 0.592036 0
M  V30 3913 H 379.758 -4.13475 2.42023 0
M  V30 3914 H 378.122 -2.24542 1.20221 0
M  V30 3915 H 378.905 -1.92487 2.8426 0
M  V30 3916 N 381.35 -0.985608 -1.22978 0
M  V30 3917 C 382.313 -0.535071 -2.22867 0
M  V30 3918 C 383.313 0.378123 -1.56291 0
M  V30 3919 O 384.503 0.171092 -1.73358 0
M  V30 3920 C 381.635 0.222702 -3.40172 0
M  V30 3921 H 382.828 -1.41835 -2.6424 0
M  V30 3922 H 380.381 -0.772042 -1.35901 0
M  V30 3923 H 381.116 1.12229 -3.04262 0
M  V30 3924 H 380.901 -0.43288 -3.89703 0
M  V30 3925 H 382.391 0.526335 -4.1427 0
M  V30 3926 N 382.828 1.3818 -0.7579 0
M  V30 3927 C 384.053 2.04827 -0.325679 0
M  V30 3928 C 384.478 1.56788 1.03919 0
M  V30 3929 O 383.836 0.721811 1.66312 0
M  V30 3930 C 383.884 3.58774 -0.362447 0
M  V30 3931 O 382.988 4.07372 0.642033 0
M  V30 3932 H 382.329 0.64833 -0.143402 0
M  V30 3933 H 384.859 1.7677 -1.03023 0
M  V30 3934 H 384.869 4.07434 -0.214844 0
M  V30 3935 H 383.544 3.93096 -1.35824 0
M  V30 3936 H 382.121 3.70068 0.458688 0
M  V30 3937 N 384.306 0.507319 1.49211 0
M  V30 3938 C 385.531 -0.033725 2.07373 0
M  V30 3939 C 385.956 -1.29485 1.36437 0
M  V30 3940 O 385.314 -1.76294 0.423087 0
M  V30 3941 C 385.362 -0.263945 3.59633 0
M  V30 3942 O 384.466 -1.33737 3.90113 0
M  V30 3943 H 383.807 0.0290331 0.663365 0
M  V30 3944 H 386.337 0.708749 1.91932 0
M  V30 3945 H 386.347 -0.493536 4.05004 0
M  V30 3946 H 385.022 0.657424 4.10671 0
M  V30 3947 H 383.599 -1.09224 3.56545 0
M  V30 3948 N 385.784 -1.5574 0.241426 0
M  V30 3949 C 387.195 -1.84842 -0.262755 0
M  V30 3950 C 387.546 -1.16317 -1.58003 0
M  V30 3951 O 386.671 -0.439653 -2.11887 0
M  V30 3952 C 387.266 -3.35332 -0.483523 0
M  V30 3953 C 385.825 -3.6468 -0.931977 0
M  V30 3954 C 384.972 -2.77299 -0.0061151 0
M  V30 3955 H 387.923 -1.51761 0.464129 0
M  V30 3956 H 387.944 -3.56615 -1.32688 0
M  V30 3957 H 387.456 -3.85178 0.47537 0
M  V30 3958 H 385.557 -3.20307 -1.90353 0
M  V30 3959 H 385.67 -4.72498 -0.792628 0
M  V30 3960 H 384.034 -2.49408 -0.516503 0
M  V30 3961 H 384.817 -3.2995 0.948052 0
M  V30 3962 N 387.262 0.0317525 -1.57568 0
M  V30 3963 C 388.51 0.721676 -1.88776 0
M  V30 3964 C 388.831 1.76039 -0.838772 0
M  V30 3965 O 388.101 1.95482 0.127935 0
M  V30 3966 H 386.681 0.269534 -0.696678 0
M  V30 3967 H 389.343 -0.00165879 -1.949 0
M  V30 3968 H 388.439 1.21293 -2.87566 0
M  V30 3969 N 388.74 1.54641 0.303973 0
M  V30 3970 C 389.988 1.73437 1.0375 0
M  V30 3971 C 390.309 0.521449 1.87899 0
M  V30 3972 O 389.579 -0.46432 1.90318 0
M  V30 3973 H 388.159 0.639518 0.386039 0
M  V30 3974 H 390.821 1.91988 0.335675 0
M  V30 3975 H 389.917 2.62235 1.69231 0
M  V30 3976 N 390.218 -0.567019 1.47046 0
M  V30 3977 C 391.151 -1.69016 1.53326 0
M  V30 3978 C 392.129 -1.57949 0.386126 0
M  V30 3979 O 393.313 -1.78945 0.592529 0
M  V30 3980 C 390.44 -3.07191 1.42658 0
M  V30 3981 C 389.486 -3.36733 2.6175 0
M  V30 3982 S 390.319 -3.27069 4.24012 0
M  V30 3983 C 391.475 -4.67755 4.1588 0
M  V30 3984 H 391.708 -1.63434 2.48348 0
M  V30 3985 H 389.241 -0.747048 1.35124 0
M  V30 3986 H 391.199 -3.86897 1.37191 0
M  V30 3987 H 389.86 -3.10249 0.490369 0
M  V30 3988 H 389.053 -4.37441 2.50323 0
M  V30 3989 H 388.655 -2.64627 2.64289 0
M  V30 3990 H 390.947 -5.58491 3.83529 0
M  V30 3991 H 391.89 -4.84239 5.16641 0
M  V30 3992 H 392.298 -4.45341 3.46889 0
M  V30 3993 N 391.696 -1.35014 -0.812953 0
M  V30 3994 C 393.112 -1.14914 -1.10757 0
M  V30 3995 C 393.312 0.0426818 -2.01455 0
M  V30 3996 O 392.368 0.715212 -2.42159 0
M  V30 3997 C 393.681 -2.44911 -1.74468 0
M  V30 3998 C 395.229 -2.5106 -1.86917 0
M  V30 3999 C 395.704 -3.81085 -2.54044 0
M  V30 4000 N 397.195 -3.82301 -2.61535 0
M  V30 4001 C 397.93 -4.79634 -3.14227 0
M  V30 4002 N 397.426 -5.87353 -3.67407 0
M  V30 4003 N 399.219 -4.67078 -3.12721 0
M  V30 4004 H 391.37 -2.1136 -0.20989 0
M  V30 4005 H 393.633 -0.935128 -0.155692 0
M  V30 4006 H 393.339 -3.32267 -1.15289 0
M  V30 4007 H 393.213 -2.58989 -2.74234 0
M  V30 4008 H 395.6 -1.64137 -2.45241 0
M  V30 4009 H 395.681 -2.40901 -0.860242 0
M  V30 4010 H 395.325 -4.68402 -1.96372 0
M  V30 4011 H 395.255 -3.88529 -3.55461 0
M  V30 4012 H 397.746 -3.04465 -2.23851 0
M  V30 4013 H 398.059 -6.57624 -4.05894 0
M  V30 4014 H 396.404 -5.91054 -3.65623 0
M  V30 4015 H 399.595 -3.82067 -2.70449 0
M  V30 4016 H 399.768 -5.43098 -3.53481 0
M  V30 4017 N 393.175 1.03435 -1.18907 0
M  V30 4018 C 394.591 1.28973 -0.940111 0
M  V30 4019 C 394.791 1.97676 0.390691 0
M  V30 4020 O 393.847 2.26127 1.12352 0
M  V30 4021 C 395.16 2.14221 -2.11021 0
M  V30 4022 C 396.708 2.27547 -2.14922 0
M  V30 4023 C 397.183 3.16164 -3.31367 0
M  V30 4024 N 398.674 3.23752 -3.31269 0
M  V30 4025 C 399.409 3.92495 -4.18014 0
M  V30 4026 N 398.905 4.63515 -5.14904 0
M  V30 4027 N 400.698 3.88838 -4.05908 0
M  V30 4028 H 392.849 0.57252 -2.04538 0
M  V30 4029 H 395.112 0.315184 -0.894071 0
M  V30 4030 H 394.818 1.71054 -3.073 0
M  V30 4031 H 394.692 3.14919 -2.0762 0
M  V30 4032 H 397.079 2.69947 -1.19217 0
M  V30 4033 H 397.16 1.26418 -2.22378 0
M  V30 4034 H 396.804 2.74474 -4.27348 0
M  V30 4035 H 396.734 4.17339 -3.21148 0
M  V30 4036 H 399.225 2.73167 -2.61129 0
M  V30 4037 H 399.538 5.13583 -5.77453 0
M  V30 4038 H 397.883 4.62398 -5.18857 0
M  V30 4039 H 401.074 3.32491 -3.29495 0
M  V30 4040 H 401.247 4.4214 -4.73726 0
M  V30 4041 N 394.653 0.992116 1.22453 0
M  V30 4042 C 395.583 0.561677 2.26644 0
M  V30 4043 C 396.564 -0.411055 1.65059 0
M  V30 4044 O 397.749 -0.301861 1.9184 0
M  V30 4045 C 394.879 -0.125247 3.47074 0
M  V30 4046 C 393.833 0.765948 4.21091 0
M  V30 4047 C 393.159 -0.0538484 5.34673 0
M  V30 4048 C 394.459 2.06242 4.79856 0
M  V30 4049 H 396.153 1.43259 2.62902 0
M  V30 4050 H 393.699 0.690283 1.26377 0
M  V30 4051 H 395.652 -0.437764 4.1912 0
M  V30 4052 H 394.376 -1.03069 3.0991 0
M  V30 4053 H 393.035 1.0621 3.50878 0
M  V30 4054 H 392.683 -0.960188 4.9375 0
M  V30 4055 H 392.383 0.539415 5.85119 0
M  V30 4056 H 393.907 -0.360477 6.09535 0
M  V30 4057 H 395.321 1.8139 5.43848 0
M  V30 4058 H 393.718 2.60444 5.40638 0
M  V30 4059 H 394.788 2.74167 3.99951 0
M  V30 4060 N 396.131 -1.37776 0.765217 0
M  V30 4061 C 397.38 -1.99092 0.323307 0
M  V30 4062 C 397.693 -1.61434 -1.10446 0
M  V30 4063 O 398.899 -2.15805 -1.64743 0
M  V30 4064 C 397.355 -3.56019 0.527098 0
M  V30 4065 C 396.963 -4.0262 1.96471 0
M  V30 4066 C 398.707 -4.2424 0.148483 0
M  V30 4067 C 396.614 -5.52233 2.11644 0
M  V30 4068 H 395.544 -0.744846 0.117137 0
M  V30 4069 H 398.195 -1.57391 0.943417 0
M  V30 4070 H 396.577 -3.95667 -0.162372 0
M  V30 4071 H 397.751 -3.74234 2.68859 0
M  V30 4072 H 396.066 -3.47161 2.29931 0
M  V30 4073 H 398.663 -5.34159 0.240456 0
M  V30 4074 H 399.006 -4.06446 -0.900422 0
M  V30 4075 H 399.539 -3.89872 0.79025 0
M  V30 4076 H 396.278 -5.74945 3.1483 0
M  V30 4077 H 395.798 -5.82324 1.4373 0
M  V30 4078 H 397.477 -6.18106 1.91193 0
M  V30 4079 N 397.609 -0.515225 -1.4894 0
M  V30 4080 C 399.02 -0.0710067 -1.86565 0
M  V30 4081 C 399.371 1.34733 -1.42623 0
M  V30 4082 O 398.496 2.00653 -0.810379 0
M  V30 4083 C 399.091 -0.122083 -3.3858 0
M  V30 4084 C 397.65 0.266863 -3.75453 0
M  V30 4085 C 396.797 -0.488376 -2.72966 0
M  V30 4086 H 399.748 -0.727266 -1.41055 0
M  V30 4087 H 399.769 0.669818 -3.74558 0
M  V30 4088 H 399.281 -1.15448 -3.70531 0
M  V30 4089 H 397.382 1.30196 -3.49113 0
M  V30 4090 H 397.495 -0.0624811 -4.79059 0
M  V30 4091 H 395.859 0.0635622 -2.54621 0
M  V30 4092 H 396.642 -1.52113 -3.07761 0
M  V30 4093 N 399.087 1.5561 -0.249682 0
M  V30 4094 C 400.05 2.20217 0.635394 0
M  V30 4095 C 401.05 1.17227 1.10066 0
M  V30 4096 O 402.24 1.42292 1.00492 0
M  V30 4097 C 399.372 2.84794 1.87363 0
M  V30 4098 H 400.565 2.99814 0.0716752 0
M  V30 4099 H 398.118 1.563 -0.000153234 0
M  V30 4100 H 398.853 2.09142 2.47851 0
M  V30 4101 H 398.638 3.60241 1.5482 0
M  V30 4102 H 400.128 3.3423 2.5036 0
M  V30 4103 N 400.565 -0.0233959 1.57583 0
M  V30 4104 C 401.79 -0.728376 1.94189 0
M  V30 4105 C 402.215 -1.67793 0.850119 0
M  V30 4106 O 401.573 -1.80262 -0.19371 0
M  V30 4107 C 401.621 -1.45669 3.29868 0
M  V30 4108 O 400.725 -2.57013 3.22518 0
M  V30 4109 H 400.066 -0.195493 0.63457 0
M  V30 4110 H 402.596 0.0228214 2.04587 0
M  V30 4111 H 402.606 -1.82535 3.6489 0
M  V30 4112 H 401.281 -0.760314 4.08891 0
M  V30 4113 H 399.858 -2.22648 2.99136 0
M  V30 4114 N 402.043 -1.548 -0.295768 0
M  V30 4115 C 403.289 -1.75517 -1.02789 0
M  V30 4116 C 403.644 -0.537266 -1.84746 0
M  V30 4117 O 402.937 0.470299 -1.85738 0
M  V30 4118 C 403.131 -2.98797 -1.961 0
M  V30 4119 C 402.96 -4.3246 -1.23321 0
M  V30 4120 C 401.73 -4.96131 -0.95822 0
M  V30 4121 C 403.928 -5.10365 -0.635024 0
M  V30 4122 N 401.91 -6.1357 -0.201257 0
M  V30 4123 C 403.281 -6.19999 -0.0110937 0
M  V30 4124 C 405.336 -4.94957 -0.540594 0
M  V30 4125 C 404.039 -7.15904 0.698136 0
M  V30 4126 C 406.065 -5.91197 0.154992 0
M  V30 4127 C 405.427 -7.00203 0.767752 0
M  V30 4128 H 401.526 -0.694786 -0.358882 0
M  V30 4129 H 404.11 -1.92281 -0.305943 0
M  V30 4130 H 402.281 -2.83448 -2.6554 0
M  V30 4131 H 404.013 -3.08017 -2.62502 0
M  V30 4132 H 400.768 -4.56595 -1.25771 0
M  V30 4133 H 401.192 -6.76802 0.16389 0
M  V30 4134 H 405.834 -4.10803 -1.00003 0
M  V30 4135 H 403.552 -7.99595 1.16933 0
M  V30 4136 H 407.138 -5.81353 0.228069 0
M  V30 4137 H 406.018 -7.73393 1.29743 0
M  V30 4138 N 403.521 0.559213 -1.47345 0
M  V30 4139 C 404.937 0.884943 -1.32819 0
M  V30 4140 C 405.137 1.98988 -0.317173 0
M  V30 4141 O 404.193 2.51031 0.272011 0
M  V30 4142 C 405.506 1.28007 -2.72093 0
M  V30 4143 C 407.054 1.39161 -2.80363 0
M  V30 4144 C 407.529 1.82031 -4.20272 0
M  V30 4145 N 409.02 1.89185 -4.22804 0
M  V30 4146 C 409.755 2.2368 -5.27973 0
M  V30 4147 N 409.251 2.56802 -6.43447 0
M  V30 4148 N 411.044 2.24436 -5.15349 0
M  V30 4149 H 403.195 -0.170304 -2.11716 0
M  V30 4150 H 405.458 -0.0135247 -0.947904 0
M  V30 4151 H 405.164 0.542027 -3.47498 0
M  V30 4152 H 405.038 2.23665 -3.03733 0
M  V30 4153 H 407.425 2.12048 -2.05231 0
M  V30 4154 H 407.506 0.41696 -2.52379 0
M  V30 4155 H 407.15 1.09715 -4.95908 0
M  V30 4156 H 407.08 2.80495 -4.45679 0
M  V30 4157 H 409.571 1.65982 -3.39497 0
M  V30 4158 H 409.884 2.82144 -7.19454 0
M  V30 4159 H 408.229 2.54387 -6.46771 0
M  V30 4160 H 411.42 1.97998 -4.24163 0
M  V30 4161 H 411.593 2.50989 -5.97418 0
M  V30 4162 N 404.999 1.35443 0.805782 0
M  V30 4163 C 406.227 1.31878 1.59423 0
M  V30 4164 C 406.642 -0.103562 1.88516 0
M  V30 4165 O 405.999 -1.05575 1.48863 0
M  V30 4166 C 406.05 2.12426 2.92502 0
M  V30 4167 O 405.771 3.49115 2.6467 0
M  V30 4168 C 407.272 2.16455 3.86862 0
M  V30 4169 H 404.492 0.453002 0.495005 0
M  V30 4170 H 407.036 1.78309 1.00131 0
M  V30 4171 H 405.191 1.69593 3.48306 0
M  V30 4172 H 405.605 3.90957 3.49647 0
M  V30 4173 H 407.079 2.77204 4.77349 0
M  V30 4174 H 407.556 1.16352 4.23508 0
M  V30 4175 H 408.162 2.59453 3.36993 0
M  V30 4176 N 406.477 -1.02803 1.19454 0
M  V30 4177 C 407.724 -1.76217 0.997693 0
M  V30 4178 C 408.052 -1.887 -0.47144 0
M  V30 4179 O 407.307 -1.4011 -1.3663 0
M  V30 4180 C 407.606 -3.18941 1.6128 0
M  V30 4181 C 407.272 -3.26463 3.11019 0
M  V30 4182 C 405.934 -3.28223 3.51885 0
M  V30 4183 C 408.286 -3.25542 4.07028 0
M  V30 4184 C 405.614 -3.26719 4.8731 0
M  V30 4185 C 407.966 -3.25579 5.42385 0
M  V30 4186 C 406.63 -3.25637 5.82681 0
M  V30 4187 H 405.9 -0.644823 0.365082 0
M  V30 4188 H 408.547 -1.20655 1.4871 0
M  V30 4189 H 406.852 -3.77587 1.04572 0
M  V30 4190 H 408.549 -3.74415 1.43577 0
M  V30 4191 H 405.139 -3.25822 2.78457 0
M  V30 4192 H 409.323 -3.23362 3.76498 0
M  V30 4193 H 404.579 -3.25089 5.1781 0
M  V30 4194 H 408.753 -3.23817 6.16535 0
M  V30 4195 H 406.38 -3.24226 6.87591 0
M  V30 4196 N 407.956 -0.998596 -1.21925 0
M  V30 4197 C 409.184 -0.696286 -1.94832 0
M  V30 4198 C 409.599 0.740032 -1.73692 0
M  V30 4199 O 408.956 1.5 -1.03953 0
M  V30 4200 C 409.007 -0.999833 -3.47398 0
M  V30 4201 O 408.728 -2.37972 -3.67833 0
M  V30 4202 C 410.229 -0.716025 -4.37479 0
M  V30 4203 H 407.449 -0.257111 -0.619786 0
M  V30 4204 H 409.993 -1.33491 -1.54921 0
M  V30 4205 H 408.148 -0.406918 -3.85257 0
M  V30 4206 H 408.562 -2.48338 -4.61983 0
M  V30 4207 H 410.036 -0.978642 -5.43256 0
M  V30 4208 H 410.513 0.349968 -4.37803 0
M  V30 4209 H 411.119 -1.29025 -4.05256 0
M  V30 4210 N 409.434 1.37368 -0.772513 0
M  V30 4211 C 410.364 2.32856 -0.173304 0
M  V30 4212 C 411.345 1.55818 0.682262 0
M  V30 4213 O 412.53 1.84052 0.619566 0
M  V30 4214 C 409.66 3.40048 0.706007 0
M  V30 4215 C 408.614 4.27973 -0.0483144 0
M  V30 4216 C 407.94 5.26184 0.950491 0
M  V30 4217 C 409.24 5.07665 -1.22776 0
M  V30 4218 H 410.934 2.83217 -0.971002 0
M  V30 4219 H 408.48 1.3617 -0.468377 0
M  V30 4220 H 410.433 4.05827 1.13501 0
M  V30 4221 H 409.157 2.88214 1.53623 0
M  V30 4222 H 407.816 3.63726 -0.458107 0
M  V30 4223 H 407.464 4.7063 1.77529 0
M  V30 4224 H 407.164 5.85872 0.450314 0
M  V30 4225 H 408.688 5.94838 1.37842 0
M  V30 4226 H 410.102 5.66578 -0.875366 0
M  V30 4227 H 408.499 5.76681 -1.66007 0
M  V30 4228 H 409.569 4.40294 -2.03149 0
M  V30 4229 N 410.912 0.523116 1.48665 0
M  V30 4230 C 412.14 -0.0096312 2.06898 0
M  V30 4231 C 412.555 -1.28784 1.38059 0
M  V30 4232 O 411.912 -1.76453 0.465893 0
M  V30 4233 C 411.963 -0.244386 3.60673 0
M  V30 4234 O 411.684 0.983172 4.26925 0
M  V30 4235 C 413.185 -0.818289 4.35682 0
M  V30 4236 H 410.405 0.0304161 0.67031 0
M  V30 4237 H 412.949 0.726799 1.91149 0
M  V30 4238 H 411.104 -0.930847 3.76051 0
M  V30 4239 H 411.518 0.759653 5.1897 0
M  V30 4240 H 412.992 -0.93201 5.44075 0
M  V30 4241 H 413.469 -1.82153 3.99646 0
M  V30 4242 H 414.075 -0.168609 4.24966 0
M  V30 4243 N 412.39 -1.55475 0.257931 0
M  V30 4244 C 413.667 -1.91155 -0.414629 0
M  V30 4245 C 414.047 -1.18008 -1.75035 0
M  V30 4246 O 413.395 -0.301193 -2.26506 0
M  V30 4247 C 413.605 -3.44283 -0.571859 0
M  V30 4248 C 414.953 -4.15744 -0.862678 0
M  V30 4249 O 415.977 -3.50083 -0.657314 0
M  V30 4250 O 414.836 -5.31909 -1.2544 0
M  V30 4251 H 411.93 -0.796016 -0.22425 0
M  V30 4252 H 414.476 -1.66976 0.302814 0
M  V30 4253 H 413.248 -3.89558 0.368844 0
M  V30 4254 H 412.871 -3.7436 -1.33943 0
M  V30 4255 N 413.868 0.0150385 -1.57593 0
M  V30 4256 C 414.831 0.995996 -2.06428 0
M  V30 4257 C 415.831 1.2818 -0.970903 0
M  V30 4258 O 417.021 1.22949 -1.23406 0
M  V30 4259 C 414.153 2.32506 -2.49307 0
M  V30 4260 H 415.346 0.573873 -2.94358 0
M  V30 4261 H 412.899 0.262186 -1.54085 0
M  V30 4262 H 413.634 2.79438 -1.64575 0
M  V30 4263 H 413.419 2.13087 -3.29145 0
M  V30 4264 H 414.909 3.02906 -2.87468 0
M  V30 4265 N 415.346 1.54954 0.287554 0
M  V30 4266 C 416.592 1.75132 1.02257 0
M  V30 4267 C 416.925 0.542858 1.86458 0
M  V30 4268 O 416.2 -0.459856 1.88986 0
M  V30 4269 C 416.483 3.04812 1.91733 0
M  V30 4270 C 416.336 4.35985 1.10622 0
M  V30 4271 C 417.655 3.30438 2.90687 0
M  V30 4272 H 414.774 0.637194 0.370341 0
M  V30 4273 H 417.416 1.87678 0.296111 0
M  V30 4274 H 415.566 2.94247 2.53675 0
M  V30 4275 H 417.238 4.58487 0.508636 0
M  V30 4276 H 415.481 4.31865 0.409271 0
M  V30 4277 H 416.152 5.23017 1.76513 0
M  V30 4278 H 418.628 3.40701 2.38877 0
M  V30 4279 H 417.504 4.22467 3.50447 0
M  V30 4280 H 417.765 2.49377 3.65053 0
M  V30 4281 N 416.824 -0.551391 1.4764 0
M  V30 4282 C 418.07 -1.31024 1.54792 0
M  V30 4283 C 418.403 -1.9304 0.211967 0
M  V30 4284 O 417.678 -1.78175 -0.77999 0
M  V30 4285 C 417.961 -2.41593 2.67029 0
M  V30 4286 C 417.814 -1.84408 4.10261 0
M  V30 4287 C 419.133 -3.43488 2.75143 0
M  V30 4288 H 416.252 -0.475031 0.563485 0
M  V30 4289 H 418.894 -0.616454 1.79722 0
M  V30 4290 H 417.044 -3.00772 2.45904 0
M  V30 4291 H 418.716 -1.29445 4.42766 0
M  V30 4292 H 416.959 -1.15051 4.18265 0
M  V30 4293 H 417.63 -2.64367 4.84576 0
M  V30 4294 H 420.106 -2.94236 2.94218 0
M  V30 4295 H 418.982 -4.18274 3.55441 0
M  V30 4296 H 419.243 -4.02703 1.82435 0
M  V30 4297 N 418.302 -1.35869 -0.798587 0
M  V30 4298 C 419.551 -1.28921 -1.5512 0
M  V30 4299 C 419.864 0.13208 -1.95154 0
M  V30 4300 O 421.07 0.323879 -2.69561 0
M  V30 4301 C 419.526 -2.26141 -2.79979 0
M  V30 4302 C 419.134 -3.73658 -2.47151 0
M  V30 4303 C 420.878 -2.28152 -3.57976 0
M  V30 4304 C 418.785 -4.62679 -3.6835 0
M  V30 4305 H 417.715 -0.479031 -0.582276 0
M  V30 4306 H 420.366 -1.61179 -0.877125 0
M  V30 4307 H 418.748 -1.86865 -3.49138 0
M  V30 4308 H 419.922 -4.21616 -1.85947 0
M  V30 4309 H 418.237 -3.74333 -1.82383 0
M  V30 4310 H 420.834 -2.91875 -4.4801 0
M  V30 4311 H 421.177 -1.28748 -3.95891 0
M  V30 4312 H 421.71 -2.65998 -2.95787 0
M  V30 4313 H 418.449 -5.63111 -3.35538 0
M  V30 4314 H 417.969 -4.19442 -4.28752 0
M  V30 4315 H 419.648 -4.78498 -4.35487 0
M  V30 4316 N 419.78 1.02168 -1.19998 0
M  V30 4317 C 421.027 1.75685 -1.00702 0
M  V30 4318 C 421.355 1.88947 0.461426 0
M  V30 4319 O 420.61 1.40832 1.35885 0
M  V30 4320 C 420.909 3.18081 -1.62969 0
M  V30 4321 C 420.575 3.24809 -3.12746 0
M  V30 4322 C 419.237 3.26352 -3.53621 0
M  V30 4323 C 421.589 3.23379 -4.08749 0
M  V30 4324 C 418.917 3.2413 -4.89036 0
M  V30 4325 C 421.269 3.22698 -5.44104 0
M  V30 4326 C 419.933 3.22542 -5.84399 0
M  V30 4327 H 419.203 0.642877 -0.368496 0
M  V30 4328 H 421.85 1.19865 -1.49348 0
M  V30 4329 H 420.155 3.77027 -1.06573 0
M  V30 4330 H 421.852 3.73648 -1.45561 0
M  V30 4331 H 418.442 3.2434 -2.80181 0
M  V30 4332 H 422.626 3.21361 -3.78207 0
M  V30 4333 H 417.882 3.22338 -5.19527 0
M  V30 4334 H 422.056 3.20543 -6.18244 0
M  V30 4335 H 419.683 3.20575 -6.89301 0
M  V30 4336 N 421.258 1.00505 1.21394 0
M  V30 4337 C 422.506 0.686415 1.90086 0
M  V30 4338 C 422.827 -0.785264 1.7849 0
M  V30 4339 O 422.097 -1.56387 1.17983 0
M  V30 4340 H 420.677 0.2509 0.703604 0
M  V30 4341 H 423.339 1.27417 1.47482 0
M  V30 4342 H 422.435 0.959621 2.96981 0
M  V30 4343 N 422.737 -1.36956 0.779787 0
M  V30 4344 C 423.984 -1.99491 0.347766 0
M  V30 4345 C 424.312 -1.61898 -1.07793 0
M  V30 4346 O 423.567 -0.86071 -1.75756 0
M  V30 4347 C 423.866 -3.54585 0.447686 0
M  V30 4348 C 423.532 -4.1197 1.83279 0
M  V30 4349 C 422.194 -4.27356 2.2118 0
M  V30 4350 C 424.546 -4.43354 2.74019 0
M  V30 4351 C 421.874 -4.71432 3.4924 0
M  V30 4352 C 424.226 -4.88858 4.01497 0
M  V30 4353 C 422.89 -5.0245 4.39432 0
M  V30 4354 H 422.16 -0.729991 0.127257 0
M  V30 4355 H 424.807 -1.63599 0.995376 0
M  V30 4356 H 423.112 -3.90773 -0.283447 0
M  V30 4357 H 424.809 -4.00888 0.0945948 0
M  V30 4358 H 421.399 -4.00428 1.52825 0
M  V30 4359 H 425.583 -4.31045 2.45995 0
M  V30 4360 H 420.839 -4.80141 3.78516 0
M  V30 4361 H 425.013 -5.12108 4.71931 0
M  V30 4362 H 422.64 -5.36362 5.38721 0
M  V30 4363 N 424.215 -0.530993 -1.48385 0
M  V30 4364 C 425.145 0.219985 -2.32461 0
M  V30 4365 C 426.126 0.934111 -1.42156 0
M  V30 4366 O 427.311 0.919694 -1.71042 0
M  V30 4367 C 424.441 1.26674 -3.23375 0
M  V30 4368 C 423.395 0.67069 -4.22712 0
M  V30 4369 C 422.721 1.82017 -5.02766 0
M  V30 4370 C 424.021 -0.358268 -5.2107 0
M  V30 4371 H 425.715 -0.48187 -2.95497 0
M  V30 4372 H 423.261 -0.233182 -1.42099 0
M  V30 4373 H 425.214 1.80006 -3.81019 0
M  V30 4374 H 423.938 1.99818 -2.58341 0
M  V30 4375 H 422.597 0.158878 -3.66256 0
M  V30 4376 H 422.245 2.54002 -4.34157 0
M  V30 4377 H 421.945 1.42727 -5.70003 0
M  V30 4378 H 423.469 2.35725 -5.63264 0
M  V30 4379 H 424.883 0.0880081 -5.73232 0
M  V30 4380 H 423.28 -0.66861 -5.96364 0
M  V30 4381 H 424.35 -1.26367 -4.68145 0
M  V30 4382 N 425.693 1.55336 -0.266172 0
M  V30 4383 C 426.623 2.25146 0.618981 0
M  V30 4384 C 427.604 1.23845 1.16604 0
M  V30 4385 O 428.789 1.52544 1.20183 0
M  V30 4386 C 425.919 2.96572 1.80728 0
M  V30 4387 C 424.873 4.04726 1.39215 0
M  V30 4388 C 424.199 4.63678 2.66283 0
M  V30 4389 C 425.499 5.19407 0.548942 0
M  V30 4390 H 427.193 2.99377 0.0368116 0
M  V30 4391 H 424.739 1.43991 0.0162651 0
M  V30 4392 H 426.692 3.44116 2.43232 0
M  V30 4393 H 425.416 2.19861 2.41514 0
M  V30 4394 H 424.075 3.57979 0.790351 0
M  V30 4395 H 423.723 3.83646 3.25308 0
M  V30 4396 H 423.423 5.367 2.39222 0
M  V30 4397 H 424.947 5.13967 3.29651 0
M  V30 4398 H 426.361 5.63059 1.07876 0
M  V30 4399 H 424.758 5.98936 0.373593 0
M  V30 4400 H 425.828 4.8295 -0.434394 0
M  V30 4401 N 427.171 -0.0066808 1.57599 0
M  V30 4402 C 428.417 -0.68835 1.91398 0
M  V30 4403 C 428.772 -1.7175 0.86716 0
M  V30 4404 O 428.065 -1.91215 -0.121475 0
M  V30 4405 C 428.259 -1.37939 3.29708 0
M  V30 4406 C 428.088 -0.418689 4.47747 0
M  V30 4407 C 426.858 -0.031526 5.0529 0
M  V30 4408 C 429.056 0.312301 5.13351 0
M  V30 4409 N 427.038 0.928088 6.06844 0
M  V30 4410 C 428.409 1.12682 6.09674 0
M  V30 4411 C 430.464 0.376853 4.96472 0
M  V30 4412 C 429.167 2 6.90936 0
M  V30 4413 C 431.193 1.23723 5.78314 0
M  V30 4414 C 430.555 2.03962 6.74225 0
M  V30 4415 H 426.654 -0.225292 0.748844 0
M  V30 4416 H 429.238 0.0520973 1.9463 0
M  V30 4417 H 427.409 -2.09017 3.27363 0
M  V30 4418 H 429.141 -2.01522 3.50957 0
M  V30 4419 H 425.896 -0.398485 4.71921 0
M  V30 4420 H 426.32 1.40307 6.62301 0
M  V30 4421 H 430.962 -0.22921 4.22178 0
M  V30 4422 H 428.68 2.61676 7.64559 0
M  V30 4423 H 432.266 1.291 5.67296 0
M  V30 4424 H 431.146 2.69461 7.36451 0
M  V30 4425 N 428.649 -1.55105 -0.279332 0
M  V30 4426 C 429.599 -1.83937 -1.34727 0
M  V30 4427 C 430.583 -0.69785 -1.44979 0
M  V30 4428 O 431.775 -0.95904 -1.48766 0
M  V30 4429 C 428.904 -2.1092 -2.70864 0
M  V30 4430 C 427.99 -3.31314 -2.64748 0
M  V30 4431 N 428.381 -4.51371 -2.2825 0
M  V30 4432 C 426.679 -3.33777 -2.95819 0
M  V30 4433 C 427.38 -5.33447 -2.31969 0
M  V30 4434 N 426.356 -4.71697 -2.7019 0
M  V30 4435 H 430.158 -2.74309 -1.05506 0
M  V30 4436 H 427.672 -1.54896 -0.487959 0
M  V30 4437 H 429.669 -2.2973 -3.47893 0
M  V30 4438 H 428.329 -1.21828 -3.00979 0
M  V30 4439 H 429.34 -4.77584 -2.00335 0
M  V30 4440 H 426.017 -2.54858 -3.30687 0
M  V30 4441 H 427.407 -6.39424 -2.06365 0
M  V30 4442 N 430.127 0.543554 -1.4793 0
M  V30 4443 C 431.373 1.30201 -1.55485 0
M  V30 4444 C 431.706 1.92925 -0.222201 0
M  V30 4445 O 430.981 1.78586 0.77053 0
M  V30 4446 C 431.264 2.40174 -2.68307 0
M  V30 4447 C 431.117 1.8223 -4.11233 0
M  V30 4448 C 432.436 3.42024 -2.76961 0
M  V30 4449 H 429.555 0.472036 -0.565996 0
M  V30 4450 H 432.197 0.606914 -1.80046 0
M  V30 4451 H 430.347 2.99463 -2.47495 0
M  V30 4452 H 432.019 1.27096 -4.43446 0
M  V30 4453 H 430.262 1.12832 -4.18869 0
M  V30 4454 H 430.933 2.61793 -4.85972 0
M  V30 4455 H 433.409 2.92672 -2.95774 0
M  V30 4456 H 432.285 4.16383 -3.57654 0
M  V30 4457 H 432.546 4.0173 -1.84568 0
M  V30 4458 N 431.605 1.3629 0.791371 0
M  V30 4459 C 432.854 1.29742 1.54434 0
M  V30 4460 C 433.167 -0.121729 1.95221 0
M  V30 4461 O 434.373 -0.309579 2.69729 0
M  V30 4462 C 432.829 2.27623 2.78776 0
M  V30 4463 C 432.437 3.74963 2.45166 0
M  V30 4464 C 434.181 2.30047 3.56761 0
M  V30 4465 C 432.088 4.64626 3.65891 0
M  V30 4466 H 431.018 0.482113 0.579727 0
M  V30 4467 H 433.669 1.61642 0.868565 0
M  V30 4468 H 432.051 1.88714 3.48142 0
M  V30 4469 H 433.225 4.22596 1.83709 0
M  V30 4470 H 431.54 3.75295 1.80396 0
M  V30 4471 H 434.137 2.94247 4.46456 0
M  V30 4472 H 434.48 1.30846 3.95203 0
M  V30 4473 H 435.013 2.67563 2.94372 0
M  V30 4474 H 431.752 5.64883 3.32547 0
M  V30 4475 H 431.272 4.2171 4.26521 0
M  V30 4476 H 432.951 4.80801 4.32943 0
M  V30 4477 N 433.083 -1.0153 1.20538 0
M  V30 4478 C 434.331 -1.74803 1.01432 0
M  V30 4479 C 434.652 -1.8963 -0.454456 0
M  V30 4480 O 433.922 -1.43975 -1.32846 0
M  V30 4481 H 432.502 -0.647598 0.372324 0
M  V30 4482 H 435.164 -1.22402 1.5167 0
M  V30 4483 H 434.26 -2.75114 1.47373 0
M  V30 4484 N 434.561 -1.01147 -1.20859 0
M  V30 4485 C 435.524 -0.582224 -2.21682 0
M  V30 4486 C 436.524 0.344887 -1.57058 0
M  V30 4487 O 437.714 0.134281 -1.73682 0
M  V30 4488 C 434.846 0.150496 -3.40568 0
M  V30 4489 H 436.039 -1.47408 -2.61172 0
M  V30 4490 H 433.592 -0.800695 -1.34233 0
M  V30 4491 H 434.327 1.0575 -3.06574 0
M  V30 4492 H 434.112 -0.515444 -3.88697 0
M  V30 4493 H 435.602 0.438344 -4.15293 0
M  V30 4494 N 436.039 1.36541 -0.78704 0
M  V30 4495 C 436.987 2.31965 -0.171724 0
M  V30 4496 C 437.981 1.55689 0.667631 0
M  V30 4497 O 439.187 1.70969 0.562981 0
M  V30 4498 H 435.562 0.751101 -0.0367545 0
M  V30 4499 H 437.533 2.81428 -0.992017 0
M  V30 4500 C 436.282 3.40968 0.680904 0
M  V30 4501 H 435.605 3.99775 0.0443961 0
M  V30 4502 H 437.045 4.10063 1.07815 0
M  V30 4503 C 435.504 2.82338 1.83813 0
M  V30 4504 O 436.034 2.74311 2.93456 0
M  V30 4505 N 434.24 2.39661 1.6435 0
M  V30 4506 H 433.787 2.46389 0.751668 0
M  V30 4507 H 433.745 2.00779 2.4194 0
M  V30 4508 N 437.518 0.538854 1.48102 0
M  V30 4509 C 438.743 0.0102694 2.07397 0
M  V30 4510 C 439.168 -1.26562 1.39153 0
M  V30 4511 O 438.526 -1.75357 0.460387 0
M  V30 4512 C 438.574 -0.187602 3.60112 0
M  V30 4513 O 437.678 -1.25432 3.92862 0
M  V30 4514 H 437.019 0.0430975 0.6626 0
M  V30 4515 H 439.549 0.749301 1.90385 0
M  V30 4516 H 439.559 -0.407517 4.0596 0
M  V30 4517 H 438.234 0.744386 4.09184 0
M  V30 4518 H 436.811 -1.01636 3.58782 0
M  V30 4519 N 438.996 -1.55193 0.274407 0
M  V30 4520 C 440.221 -2.04446 -0.348824 0
M  V30 4521 C 440.646 -1.15149 -1.48735 0
M  V30 4522 O 440.004 -0.149952 -1.80679 0
M  V30 4523 C 440.052 -3.51431 -0.808009 0
M  V30 4524 O 439.156 -3.65225 -1.91531 0
M  V30 4525 H 438.497 -0.66006 -0.0722276 0
M  V30 4526 H 441.027 -2.00481 0.408498 0
M  V30 4527 H 441.037 -3.92781 -1.10395 0
M  V30 4528 H 439.712 -4.15892 0.0249865 0
M  V30 4529 H 438.289 -3.35778 -1.62196 0
M  V30 4530 N 440.474 -0.00167713 -1.576 0
M  V30 4531 C 441.751 0.719951 -1.81868 0
M  V30 4532 C 442.131 1.91895 -0.879747 0
M  V30 4533 O 441.479 2.28389 0.0711423 0
M  V30 4534 C 441.689 1.12409 -3.30402 0
M  V30 4535 C 443.037 1.52724 -3.96182 0
M  V30 4536 O 444.061 1.21784 -3.34734 0
M  V30 4537 O 442.92 2.10265 -5.04431 0
M  V30 4538 H 440.014 0.350707 -0.748955 0
M  V30 4539 H 442.56 -0.0272597 -1.69678 0
M  V30 4540 H 441.332 0.269532 -3.90371 0
M  V30 4541 H 440.955 1.93035 -3.47596 0
M  V30 4542 N 441.952 1.55251 0.271103 0
M  V30 4543 C 443.229 1.66664 1.02384 0
M  V30 4544 C 443.609 0.534363 2.04225 0
M  V30 4545 O 442.957 -0.465337 2.23712 0
M  V30 4546 C 443.167 3.05961 1.67895 0
M  V30 4547 C 444.515 3.63772 2.18986 0
M  V30 4548 O 445.539 3.08606 1.77878 0
M  V30 4549 O 444.398 4.60429 2.94393 0
M  V30 4550 H 441.492 0.676957 0.475035 0
M  V30 4551 H 444.038 1.67589 0.26681 0
M  V30 4552 H 442.81 3.79815 0.941071 0
M  V30 4553 H 442.433 3.08943 2.5028 0
M  V30 4554 N 443.43 -0.535701 1.48216 0
M  V30 4555 C 444.678 -1.28928 1.55634 0
M  V30 4556 C 444.999 -1.93645 0.229514 0
M  V30 4557 O 444.269 -1.81038 -0.74846 0
M  V30 4558 H 442.849 -0.47884 0.573342 0
M  V30 4559 H 445.511 -0.623853 1.84646 0
M  V30 4560 H 444.607 -2.07157 2.33436 0
M  V30 4561 N 444.908 -1.36708 -0.784132 0
M  V30 4562 C 446.138 -1.34203 -1.57077 0
M  V30 4563 C 446.546 0.0774945 -1.89041 0
M  V30 4564 O 445.889 1.04628 -1.50992 0
M  V30 4565 C 445.951 -2.10351 -2.91535 0
M  V30 4566 C 445.615 -3.59405 -2.82272 0
M  V30 4567 C 446.612 -4.53545 -2.54151 0
M  V30 4568 C 444.297 -4.02362 -3.00683 0
M  V30 4569 C 446.291 -5.8862 -2.44551 0
M  V30 4570 C 443.978 -5.37526 -2.90704 0
M  V30 4571 C 444.976 -6.30468 -2.62677 0
M  V30 4572 O 444.664 -7.63149 -2.52702 0
M  V30 4573 H 444.396 -0.461791 -0.493685 0
M  V30 4574 H 446.95 -1.80475 -0.980712 0
M  V30 4575 H 445.18 -1.5875 -3.52612 0
M  V30 4576 H 446.869 -2.00636 -3.52845 0
M  V30 4577 H 447.635 -4.21669 -2.39625 0
M  V30 4578 H 443.514 -3.30389 -3.21503 0
M  V30 4579 H 447.058 -6.61133 -2.22596 0
M  V30 4580 H 442.955 -5.69008 -3.04795 0
M  V30 4581 H 443.723 -7.73331 -2.68144 0
M  V30 4582 N 446.386 1.0089 -1.21074 0
M  V30 4583 C 447.635 1.74019 -1.01981 0
M  V30 4584 C 447.948 1.90408 0.447665 0
M  V30 4585 O 449.154 2.60707 0.757906 0
M  V30 4586 C 447.61 3.13026 -1.77603 0
M  V30 4587 C 447.218 3.04623 -3.28495 0
M  V30 4588 C 448.962 3.90312 -1.66904 0
M  V30 4589 C 446.869 4.38685 -3.96623 0
M  V30 4590 H 445.799 0.652422 -0.377971 0
M  V30 4591 H 448.45 1.12755 -1.44771 0
M  V30 4592 H 446.832 3.74878 -1.27604 0
M  V30 4593 H 448.006 2.52032 -3.85767 0
M  V30 4594 H 446.321 2.40827 -3.39693 0
M  V30 4595 H 448.918 4.8951 -2.15138 0
M  V30 4596 H 449.261 4.11558 -0.62658 0
M  V30 4597 H 449.794 3.35104 -2.14359 0
M  V30 4598 H 446.533 4.22641 -5.01054 0
M  V30 4599 H 446.053 4.91252 -3.4414 0
M  V30 4600 H 447.732 5.075 -4.01314 0
M  V30 4601 N 447.864 1.01787 1.20321 0
M  V30 4602 C 448.794 0.609625 2.25401 0
M  V30 4603 C 449.775 -0.375951 1.65893 0
M  V30 4604 O 450.96 -0.261101 1.92437 0
M  V30 4605 C 448.09 -0.0515995 3.47262 0
M  V30 4606 C 447.044 0.855095 4.19371 0
M  V30 4607 C 446.37 0.0595757 5.34667 0
M  V30 4608 C 447.67 2.16374 4.75373 0
M  V30 4609 H 449.364 1.48803 2.59804 0
M  V30 4610 H 446.91 0.716934 1.24884 0
M  V30 4611 H 448.863 -0.348764 4.19954 0
M  V30 4612 H 447.587 -0.964726 3.12027 0
M  V30 4613 H 446.246 1.13628 3.48546 0
M  V30 4614 H 445.894 -0.85524 4.95676 0
M  V30 4615 H 445.594 0.663406 5.83843 0
M  V30 4616 H 447.118 -0.231105 6.10162 0
M  V30 4617 H 448.532 1.92885 5.39878 0
M  V30 4618 H 446.929 2.71853 5.34991 0
M  V30 4619 H 447.999 2.82589 3.94045 0
M  V30 4620 N 449.342 -1.36122 0.79427 0
M  V30 4621 C 450.59 -1.98718 0.368177 0
M  V30 4622 C 450.911 -1.63345 -1.06506 0
M  V30 4623 O 450.181 -0.909825 -1.73491 0
M  V30 4624 H 448.761 -0.735038 0.133146 0
M  V30 4625 H 451.423 -1.66239 1.01739 0
M  V30 4626 H 450.519 -3.08633 0.463923 0
M  V30 4627 N 450.82 -0.546701 -1.47814 0
M  V30 4628 C 451.753 0.254472 -2.26777 0
M  V30 4629 C 452.731 0.929809 -1.33392 0
M  V30 4630 O 453.915 0.950889 -1.62759 0
M  V30 4631 C 451.042 1.36171 -3.10121 0
M  V30 4632 C 450.088 0.796038 -4.19005 0
M  V30 4633 S 450.921 -0.349191 -5.3436 0
M  V30 4634 C 452.077 0.760122 -6.21267 0
M  V30 4635 H 452.31 -0.415612 -2.94381 0
M  V30 4636 H 449.843 -0.332809 -1.5077 0
M  V30 4637 H 451.801 1.99588 -3.58713 0
M  V30 4638 H 450.462 2.00359 -2.41899 0
M  V30 4639 H 449.655 1.62719 -4.7701 0
M  V30 4640 H 449.257 0.238246 -3.7324 0
M  V30 4641 H 451.549 1.65479 -6.5698 0
M  V30 4642 H 452.492 0.217673 -7.07765 0
M  V30 4643 H 452.9 1.04806 -5.54685 0
M  V30 4644 N 452.299 1.55045 -0.282633 0
M  V30 4645 C 453.262 2.21515 0.588539 0
M  V30 4646 C 454.262 1.19535 1.07554 0
M  V30 4647 O 455.452 1.44391 0.974514 0
M  V30 4648 C 452.584 2.88704 1.8128 0
M  V30 4649 H 453.777 2.99899 0.00806397 0
M  V30 4650 H 451.33 1.56265 -0.0333067 0
M  V30 4651 H 452.065 2.14352 2.43359 0
M  V30 4652 H 451.85 3.63443 1.47144 0
M  V30 4653 H 453.34 3.39465 2.43214 0
M  V30 4654 N 453.777 0.010035 1.57597 0
M  V30 4655 C 455.193 -0.346164 1.55801 0
M  V30 4656 C 455.393 -1.74144 1.01371 0
M  V30 4657 O 454.449 -2.43938 0.651968 0
M  V30 4658 C 455.762 -0.212216 2.9995 0
M  V30 4659 C 457.31 -0.286409 3.11687 0
M  V30 4660 C 457.785 -0.18147 4.5764 0
M  V30 4661 N 459.276 -0.239056 4.62583 0
M  V30 4662 C 460.011 -0.181351 5.73113 0
M  V30 4663 N 459.507 -0.073661 6.92761 0
M  V30 4664 N 461.3 -0.233949 5.61613 0
M  V30 4665 H 453.451 0.922657 1.91313 0
M  V30 4666 H 455.714 0.354595 0.879185 0
M  V30 4667 H 455.42 0.748169 3.4365 0
M  V30 4668 H 455.294 -0.990224 3.6397 0
M  V30 4669 H 457.681 -1.23724 2.67911 0
M  V30 4670 H 457.762 0.521645 2.50425 0
M  V30 4671 H 457.406 0.765863 5.02093 0
M  V30 4672 H 457.336 -1.00814 5.1686 0
M  V30 4673 H 459.827 -0.32321 3.76515 0
M  V30 4674 H 460.14 -0.0358003 7.72792 0
M  V30 4675 H 458.485 -0.0391461 6.94989 0
M  V30 4676 H 461.676 -0.316347 4.6703 0
M  V30 4677 H 461.849 -0.185514 6.47734 0
M  V30 4678 N 455.255 -1.55392 -0.262866 0
M  V30 4679 C 456.501 -1.76737 -0.99458 0
M  V30 4680 C 456.834 -0.572453 -1.85571 0
M  V30 4681 O 456.109 0.429732 -1.89693 0
M  V30 4682 C 456.392 -3.07824 -1.8686 0
M  V30 4683 C 456.245 -4.3769 -1.03672 0
M  V30 4684 C 457.564 -3.35021 -2.85393 0
M  V30 4685 H 454.683 -0.643005 -0.360157 0
M  V30 4686 H 457.325 -1.88126 -0.266216 0
M  V30 4687 H 455.475 -2.98245 -2.48962 0
M  V30 4688 H 457.147 -4.59238 -0.43563 0
M  V30 4689 H 455.39 -4.32461 -0.340513 0
M  V30 4690 H 456.061 -5.25759 -1.6817 0
M  V30 4691 H 458.537 -3.44458 -2.33426 0
M  V30 4692 H 457.413 -4.27989 -3.43681 0
M  V30 4693 H 457.674 -2.55153 -3.61039 0
M  V30 4694 N 456.733 0.527833 -1.48498 0
M  V30 4695 C 457.696 1.61439 -1.62696 0
M  V30 4696 C 458.696 1.52824 -0.500136 0
M  V30 4697 O 459.886 1.56456 -0.765976 0
M  V30 4698 C 457.018 3.01063 -1.59918 0
M  V30 4699 H 458.211 1.50189 -2.59583 0
M  V30 4700 H 455.764 0.750055 -1.37127 0
M  V30 4701 H 456.499 3.17818 -0.645163 0
M  V30 4702 H 456.284 3.08725 -2.41726 0
M  V30 4703 H 457.774 3.80057 -1.73051 0
M  V30 4704 N 458.211 1.37122 0.776871 0
M  V30 4705 C 459.488 1.22586 1.52421 0
M  V30 4706 C 459.868 -0.182726 2.10308 0
M  V30 4707 O 459.216 -1.18979 1.9508 0
M  V30 4708 C 459.426 2.31782 2.60918 0
M  V30 4709 C 460.774 2.69071 3.2846 0
M  V30 4710 O 461.798 2.3092 2.71209 0
M  V30 4711 O 460.657 3.3478 4.31954 0
M  V30 4712 H 457.751 0.478045 0.674835 0
M  V30 4713 H 460.297 1.48888 0.814275 0
M  V30 4714 H 459.069 3.26131 2.16227 0
M  V30 4715 H 458.692 2.06916 3.39517 0
M  V30 4716 N 459.689 -1.00246 1.21608 0
M  V30 4717 C 460.639 -2.07492 0.945051 0
M  V30 4718 C 461.623 -1.60585 -0.100675 0
M  V30 4719 O 462.815 -1.76667 0.10859 0
M  V30 4720 C 459.944 -3.39425 0.514342 0
M  V30 4721 C 459.03 -3.92993 1.59428 0
M  V30 4722 N 459.421 -4.19898 2.81991 0
M  V30 4723 C 457.719 -4.21297 1.46374 0
M  V30 4724 C 458.42 -4.63297 3.51754 0
M  V30 4725 N 457.396 -4.66421 2.79199 0
M  V30 4726 H 461.198 -2.26222 1.87619 0
M  V30 4727 H 458.712 -1.18339 1.11219 0
M  V30 4728 H 460.709 -4.15808 0.301527 0
M  V30 4729 H 459.369 -3.22101 -0.410008 0
M  V30 4730 H 460.38 -4.08377 3.1851 0
M  V30 4731 H 457.057 -4.13095 0.604863 0
M  V30 4732 H 458.447 -4.92816 4.56708 0
M  V30 4733 N 461.167 -1.02423 -1.1978 0
M  V30 4734 C 462.13 -0.605703 -2.21052 0
M  V30 4735 C 463.13 0.328209 -1.57415 0
M  V30 4736 O 464.32 0.115853 -1.73814 0
M  V30 4737 C 461.452 0.114366 -3.40708 0
M  V30 4738 H 462.645 -1.5017 -2.59594 0
M  V30 4739 H 460.198 -0.814888 -1.33376 0
M  V30 4740 H 460.933 1.02492 -3.07678 0
M  V30 4741 H 460.718 -0.556641 -3.88129 0
M  V30 4742 H 462.208 0.394272 -4.15735 0
M  V30 4743 N 462.645 1.35699 -0.801477 0
M  V30 4744 C 463.893 1.9852 -0.37871 0
M  V30 4745 C 464.214 1.63907 1.05638 0
M  V30 4746 O 463.484 0.919013 1.73006 0
M  V30 4747 H 462.064 0.734322 -0.137042 0
M  V30 4748 H 464.726 1.65697 -1.02619 0
M  V30 4749 H 463.822 3.08382 -0.480284 0
M  V30 4750 N 464.123 0.554532 1.47522 0
M  V30 4751 C 465.353 0.0342074 2.06572 0
M  V30 4752 C 465.761 -1.26375 1.40805 0
M  V30 4753 O 465.104 -1.7683 0.49769 0
M  V30 4754 C 465.166 -0.235096 3.5873 0
M  V30 4755 C 464.83 0.973024 4.46521 0
M  V30 4756 C 465.827 1.8779 4.848 0
M  V30 4757 C 463.512 1.18694 4.88075 0
M  V30 4758 C 465.506 2.98039 5.63428 0
M  V30 4759 C 463.193 2.29254 5.66468 0
M  V30 4760 C 464.191 3.18757 6.04055 0
M  V30 4761 O 463.879 4.27401 6.8087 0
M  V30 4762 H 463.611 0.041587 0.67472 0
M  V30 4763 H 466.165 0.766748 1.90552 0
M  V30 4764 H 464.395 -1.02191 3.72953 0
M  V30 4765 H 466.084 -0.700477 3.9981 0
M  V30 4766 H 466.85 1.72467 4.53299 0
M  V30 4767 H 462.729 0.49947 4.58286 0
M  V30 4768 H 466.273 3.67926 5.92685 0
M  V30 4769 H 462.17 2.4455 5.97382 0
M  V30 4770 H 462.938 4.25415 6.9926 0
M  V30 4771 N 465.601 -1.54893 0.290851 0
M  V30 4772 C 466.534 -2.19289 -0.631489 0
M  V30 4773 C 467.512 -1.15893 -1.14051 0
M  V30 4774 O 468.696 -1.4449 -1.21058 0
M  V30 4775 C 465.823 -2.82866 -1.86291 0
M  V30 4776 C 464.869 -3.997 -1.48801 0
M  V30 4777 S 465.702 -5.32641 -0.552644 0
M  V30 4778 C 466.858 -5.99696 -1.79209 0
M  V30 4779 H 467.091 -2.9718 -0.0843791 0
M  V30 4780 H 464.624 -1.54218 0.075031 0
M  V30 4781 H 466.582 -3.20124 -2.56964 0
M  V30 4782 H 465.243 -2.04839 -2.38117 0
M  V30 4783 H 464.436 -4.42932 -2.40473 0
M  V30 4784 H 464.038 -3.63947 -0.861321 0
M  V30 4785 H 466.33 -6.19886 -2.734 0
M  V30 4786 H 467.273 -6.94071 -1.40251 0
M  V30 4787 H 467.681 -5.29226 -1.96419 0
M  V30 4788 N 467.08 -0.0183926 -1.57589 0
M  V30 4789 C 468.305 0.676634 -1.96052 0
M  V30 4790 C 468.73 1.6548 -0.894307 0
M  V30 4791 O 468.088 1.80712 0.145849 0
M  V30 4792 C 468.136 1.36872 -3.33614 0
M  V30 4793 O 467.24 2.48372 -3.29219 0
M  V30 4794 H 466.581 0.1786 -0.63953 0
M  V30 4795 H 469.111 -0.077056 -2.04455 0
M  V30 4796 H 469.121 1.72797 -3.69601 0
M  V30 4797 H 467.796 0.651636 -4.10763 0
M  V30 4798 H 466.373 2.14639 -3.04934 0
M  V30 4799 N 468.558 1.5553 0.254621 0
M  V30 4800 C 469.506 1.9048 1.33492 0
M  V30 4801 C 470.5 0.78304 1.50216 0
M  V30 4802 O 471.706 0.967582 1.51782 0
M  V30 4803 H 468.081 0.604846 0.44684 0
M  V30 4804 H 470.052 2.80688 1.01275 0
M  V30 4805 C 468.801 2.20928 2.68489 0
M  V30 4806 H 468.124 3.06742 2.56417 0
M  V30 4807 H 469.564 2.49291 3.42972 0
M  V30 4808 C 468.023 1.023 3.20993 0
M  V30 4809 O 468.553 0.267027 4.00811 0
M  V30 4810 N 466.759 0.815714 2.78917 0
M  V30 4811 H 466.306 1.43217 2.14119 0
M  V30 4812 H 466.264 0.0236532 3.14391 0
M  V30 4813 N 470.036 -0.519951 1.48776 0
M  V30 4814 C 471.266 -1.29783 1.60748 0
M  V30 4815 C 471.674 -1.87253 0.27072 0
M  V30 4816 O 471.017 -1.67628 -0.751438 0
M  V30 4817 C 471.079 -2.47984 2.60277 0
M  V30 4818 C 470.743 -2.11526 4.051 0
M  V30 4819 C 471.74 -1.66608 4.92481 0
M  V30 4820 C 469.425 -2.21742 4.50706 0
M  V30 4821 C 471.419 -1.32384 6.23501 0
M  V30 4822 C 469.106 -1.87129 5.81744 0
M  V30 4823 C 470.104 -1.42523 6.67964 0
M  V30 4824 O 469.792 -1.0837 7.96562 0
M  V30 4825 H 469.524 -0.400562 0.544542 0
M  V30 4826 H 472.078 -0.632879 1.95407 0
M  V30 4827 H 470.308 -3.17493 2.2076 0
M  V30 4828 H 471.997 -3.10036 2.61978 0
M  V30 4829 H 472.763 -1.58178 4.58481 0
M  V30 4830 H 468.642 -2.55415 3.83776 0
M  V30 4831 H 472.186 -0.974949 6.90754 0
M  V30 4832 H 468.083 -1.95204 6.15277 0
M  V30 4833 H 468.851 -1.21681 8.09405 0
M  V30 4834 N 471.514 -1.37532 -0.769588 0
M  V30 4835 C 472.761 -1.3286 -1.52822 0
M  V30 4836 C 473.089 0.0862597 -1.94309 0
M  V30 4837 O 472.344 1.05995 -1.6451 0
M  V30 4838 C 472.643 -2.21558 -2.8044 0
M  V30 4839 C 472.309 -3.69796 -2.57996 0
M  V30 4840 C 470.971 -4.10194 -2.51583 0
M  V30 4841 C 473.323 -4.63699 -2.37976 0
M  V30 4842 C 470.651 -5.42608 -2.23144 0
M  V30 4843 C 473.003 -5.96353 -2.1106 0
M  V30 4844 C 471.667 -6.35853 -2.03093 0
M  V30 4845 H 470.937 -0.486168 -0.559215 0
M  V30 4846 H 473.584 -1.69757 -0.886277 0
M  V30 4847 H 471.889 -1.77663 -3.49204 0
M  V30 4848 H 473.586 -2.15256 -3.38328 0
M  V30 4849 H 470.176 -3.37759 -2.63851 0
M  V30 4850 H 474.36 -4.33346 -2.41919 0
M  V30 4851 H 469.616 -5.72173 -2.15472 0
M  V30 4852 H 473.79 -6.68667 -1.94568 0
M  V30 4853 H 471.417 -7.38382 -1.8082 0
M  V30 4854 N 472.992 0.995999 -1.22138 0
M  V30 4855 C 474.408 1.25917 -0.980667 0
M  V30 4856 C 474.608 1.98819 0.327604 0
M  V30 4857 O 473.664 2.29587 1.05101 0
M  V30 4858 C 474.977 2.07399 -2.17729 0
M  V30 4859 C 476.525 2.20594 -2.22052 0
M  V30 4860 C 477 3.05462 -3.41258 0
M  V30 4861 N 478.491 3.13049 -3.41401 0
M  V30 4862 C 479.226 3.78997 -4.30289 0
M  V30 4863 N 478.722 4.46899 -5.2939 0
M  V30 4864 N 480.515 3.75728 -4.18073 0
M  V30 4865 H 472.666 0.507158 -2.06256 0
M  V30 4866 H 474.929 0.28658 -0.903646 0
M  V30 4867 H 474.635 1.61191 -3.12586 0
M  V30 4868 H 474.509 3.08154 -2.17534 0
M  V30 4869 H 476.896 2.66017 -1.27745 0
M  V30 4870 H 476.977 1.1928 -2.26287 0
M  V30 4871 H 476.621 2.60739 -4.35864 0
M  V30 4872 H 476.551 4.06911 -3.34262 0
M  V30 4873 H 479.042 2.64721 -2.69688 0
M  V30 4874 H 479.355 4.94952 -5.935 0
M  V30 4875 H 477.7 4.45657 -5.33306 0
M  V30 4876 H 480.891 3.2184 -3.39907 0
M  V30 4877 H 481.064 4.26845 -4.87553 0
M  V30 4878 N 474.47 1.03057 1.19235 0
M  V30 4879 C 475.716 0.738841 1.89506 0
M  V30 4880 C 476.071 -0.724807 1.78225 0
M  V30 4881 O 475.364 -1.52118 1.16494 0
M  V30 4882 C 475.558 1.1268 3.39172 0
M  V30 4883 C 475.387 2.62662 3.65019 0
M  V30 4884 C 474.157 3.29658 3.82954 0
M  V30 4885 C 476.355 3.60873 3.66436 0
M  V30 4886 N 474.337 4.68726 3.96446 0
M  V30 4887 C 475.708 4.85566 3.8552 0
M  V30 4888 C 477.763 3.54647 3.49471 0
M  V30 4889 C 476.466 6.04783 3.89397 0
M  V30 4890 C 478.492 4.73281 3.54625 0
M  V30 4891 C 477.854 5.96789 3.74196 0
M  V30 4892 H 473.953 0.322256 0.712513 0
M  V30 4893 H 476.537 1.31822 1.43287 0
M  V30 4894 H 474.708 0.575612 3.84111 0
M  V30 4895 H 476.44 0.787145 3.96971 0
M  V30 4896 H 473.195 2.8007 3.81913 0
M  V30 4897 H 473.619 5.40971 4.07037 0
M  V30 4898 H 478.261 2.60143 3.33295 0
M  V30 4899 H 475.979 6.99654 4.04364 0
M  V30 4900 H 479.565 4.70094 3.42787 0
M  V30 4901 H 478.445 6.87051 3.78061 0
M  V30 4902 N 475.948 -1.35272 0.808662 0
M  V30 4903 C 477.195 -1.98709 0.390003 0
M  V30 4904 C 477.523 -1.64148 -1.04335 0
M  V30 4905 O 476.778 -0.897797 -1.73891 0
M  V30 4906 C 477.077 -3.53556 0.522798 0
M  V30 4907 C 476.743 -4.0799 1.91977 0
M  V30 4908 C 475.405 -4.22568 2.30195 0
M  V30 4909 C 477.757 -4.37442 2.83361 0
M  V30 4910 C 475.085 -4.63918 3.59162 0
M  V30 4911 C 477.437 -4.80232 4.11776 0
M  V30 4912 C 476.101 -4.93016 4.49991 0
M  V30 4913 H 475.371 -0.727127 0.142712 0
M  V30 4914 H 478.018 -1.6145 1.02985 0
M  V30 4915 H 476.323 -3.91287 -0.200494 0
M  V30 4916 H 478.02 -4.00598 0.179608 0
M  V30 4917 H 474.61 -3.97096 1.61284 0
M  V30 4918 H 478.794 -4.25731 2.55083 0
M  V30 4919 H 474.05 -4.72005 3.88615 0
M  V30 4920 H 478.224 -5.01982 4.82687 0
M  V30 4921 H 475.851 -5.24814 5.49976 0
M  V30 4922 N 477.426 -0.562348 -1.47226 0
M  V30 4923 C 478.674 -0.0401371 -2.0206 0
M  V30 4924 C 478.995 1.3165 -1.43852 0
M  V30 4925 O 478.265 1.85976 -0.615599 0
M  V30 4926 H 476.845 -0.0118479 -0.746906 0
M  V30 4927 H 479.507 -0.73352 -1.8057 0
M  V30 4928 H 478.603 0.0441254 -3.12069 0
M  V30 4929 N 478.904 1.54736 -0.299062 0
M  V30 4930 C 480.129 2.04975 0.316254 0
M  V30 4931 C 480.554 1.17501 1.46885 0
M  V30 4932 O 479.912 0.178678 1.80417 0
M  V30 4933 C 479.96 3.52672 0.751997 0
M  V30 4934 O 479.064 3.68226 1.85697 0
M  V30 4935 H 478.405 0.661126 0.0617175 0
M  V30 4936 H 480.935 1.99805 -0.440341 0
M  V30 4937 H 480.945 3.94488 1.04133 0
M  V30 4938 H 479.62 4.158 -0.0911482 0
M  V30 4939 H 478.197 3.38316 1.56834 0
M  V30 4940 N 480.382 0.0267497 1.57577 0
M  V30 4941 C 481.793 -0.512413 1.79531 0
M  V30 4942 C 482.144 -1.72391 0.936791 0
M  V30 4943 O 481.269 -2.15903 0.146543 0
M  V30 4944 C 481.864 -0.936378 3.25603 0
M  V30 4945 C 480.423 -1.42067 3.4856 0
M  V30 4946 C 479.57 -0.384278 2.74624 0
M  V30 4947 H 482.521 0.252797 1.56674 0
M  V30 4948 H 482.542 -1.80088 3.35184 0
M  V30 4949 H 482.054 -0.0544332 3.88062 0
M  V30 4950 H 480.155 -2.32262 2.9135 0
M  V30 4951 H 480.268 -1.42968 4.57271 0
M  V30 4952 H 478.632 -0.851855 2.40032 0
M  V30 4953 H 479.415 0.489159 3.39797 0
M  V30 4954 N 481.861 -1.55662 -0.24637 0
M  V30 4955 C 482.771 -1.93495 -1.32653 0
M  V30 4956 C 483.787 -0.835462 -1.5263 0
M  V30 4957 O 484.963 -1.1369 -1.66242 0
M  V30 4958 C 482.028 -2.22242 -2.66101 0
M  V30 4959 C 481.089 -3.45625 -2.54641 0
M  V30 4960 C 480.322 -3.72991 -3.81724 0
M  V30 4961 O 480.545 -3.02421 -4.8363 0
M  V30 4962 O 479.479 -4.66515 -3.80325 0
M  V30 4963 H 483.305 -2.85498 -1.03559 0
M  V30 4964 H 480.89 -1.42551 -0.44717 0
M  V30 4965 H 482.772 -2.42037 -3.44958 0
M  V30 4966 H 481.447 -1.33417 -2.94926 0
M  V30 4967 H 480.354 -3.31136 -1.74067 0
M  V30 4968 H 481.687 -4.34754 -2.3076 0
M  V30 4969 N 483.339 0.512053 -1.4905 0
M  V30 4970 C 484.616 1.27337 -1.48474 0
M  V30 4971 C 484.996 2.1009 -0.206301 0
M  V30 4972 O 484.344 2.136 0.811609 0
M  V30 4973 C 484.554 2.13954 -2.75726 0
M  V30 4974 C 485.902 2.73507 -3.24776 0
M  V30 4975 O 486.926 2.24229 -2.76767 0
M  V30 4976 O 485.785 3.63186 -4.08361 0
M  V30 4977 H 482.879 0.575652 -0.593762 0
M  V30 4978 H 485.425 0.527232 -1.61302 0
M  V30 4979 H 484.197 1.52709 -3.60272 0
M  V30 4980 H 483.82 2.95782 -2.65705 0
M  V30 4981 N 484.817 1.37938 0.762283 0
M  V30 4982 C 486.228 1.30094 1.33912 0
M  V30 4983 C 486.579 -0.0472026 1.96143 0
M  V30 4984 O 485.704 -0.94917 1.94473 0
M  V30 4985 C 486.299 2.35592 2.43478 0
M  V30 4986 C 484.858 2.31353 2.96905 0
M  V30 4987 C 484.005 2.18919 1.70205 0
M  V30 4988 H 486.956 1.48423 0.561816 0
M  V30 4989 H 486.977 2.00806 3.23199 0
M  V30 4990 H 486.489 3.33701 1.98155 0
M  V30 4991 H 484.59 1.36799 3.46579 0
M  V30 4992 H 484.703 3.25147 3.51875 0
M  V30 4993 H 483.067 1.65624 1.93496 0
M  V30 4994 H 483.85 3.18956 1.26973 0
M  V30 4995 N 486.295 -0.989507 1.22664 0
M  V30 4996 C 487.542 -1.72953 1.05325 0
M  V30 4997 C 487.87 -1.90104 -0.411168 0
M  V30 4998 O 487.125 -1.44386 -1.32103 0
M  V30 4999 C 487.424 -3.13649 1.71345 0
M  V30 5000 C 487.09 -3.16403 3.21248 0
M  V30 5001 C 485.752 -3.16862 3.62149 0
M  V30 5002 C 488.104 -3.12428 4.17179 0
M  V30 5003 C 485.432 -3.11051 4.97458 0
M  V30 5004 C 487.784 -3.08159 5.52468 0
M  V30 5005 C 486.448 -3.06935 5.92746 0
M  V30 5006 H 485.718 -0.632881 0.385412 0
M  V30 5007 H 488.365 -1.15863 1.52473 0
M  V30 5008 H 486.67 -3.74069 1.16532 0
M  V30 5009 H 488.367 -3.69658 1.55416 0
M  V30 5010 H 484.957 -3.16798 2.88682 0
M  V30 5011 H 489.141 -3.11221 3.86595 0
M  V30 5012 H 484.397 -3.0845 5.27891 0
M  V30 5013 H 488.571 -3.04039 6.26525 0
M  V30 5014 H 486.198 -3.02186 6.97558 0
M  V30 5015 N 487.773 -1.03688 -1.18687 0
M  V30 5016 C 489.021 -0.736572 -1.88199 0
M  V30 5017 C 489.342 0.737665 -1.80509 0
M  V30 5018 O 488.612 1.53204 -1.22088 0
M  V30 5019 H 487.192 -0.269466 -0.696704 0
M  V30 5020 H 489.854 -1.31282 -1.44052 0
M  V30 5021 H 488.95 -1.03802 -2.94332 0
M  V30 5022 N 489.251 1.34841 -0.815825 0
M  V30 5023 C 490.497 1.99219 -0.410288 0
M  V30 5024 C 490.852 1.63532 1.01366 0
M  V30 5025 O 490.145 0.893093 1.69512 0
M  V30 5026 C 490.339 3.53273 -0.541541 0
M  V30 5027 C 490.168 4.03927 -1.9767 0
M  V30 5028 C 488.938 4.32852 -2.60706 0
M  V30 5029 C 491.136 4.21808 -2.9425 0
M  V30 5030 N 489.118 4.69494 -3.95536 0
M  V30 5031 C 490.489 4.6155 -4.13971 0
M  V30 5032 C 492.544 4.04038 -2.9096 0
M  V30 5033 C 491.247 4.85381 -5.30847 0
M  V30 5034 C 493.273 4.29031 -4.07046 0
M  V30 5035 C 492.635 4.69054 -5.25517 0
M  V30 5036 H 488.734 0.756494 -0.198094 0
M  V30 5037 H 491.318 1.63379 -1.05902 0
M  V30 5038 H 489.489 3.88323 0.0772544 0
M  V30 5039 H 491.221 4.04551 -0.109694 0
M  V30 5040 H 487.976 4.23503 -2.11995 0
M  V30 5041 H 488.4 4.92061 -4.64979 0
M  V30 5042 H 493.042 3.7223 -2.00512 0
M  V30 5043 H 490.76 5.16059 -6.21859 0
M  V30 5044 H 494.346 4.16826 -4.05891 0
M  V30 5045 H 493.226 4.88014 -6.1385 0
M  V30 5046 N 490.729 0.570148 1.46925 0
M  V30 5047 C 491.959 0.0561151 2.06524 0
M  V30 5048 C 492.367 -1.24874 1.42137 0
M  V30 5049 O 491.71 -1.76292 0.516417 0
M  V30 5050 C 491.772 -0.197035 3.5896 0
M  V30 5051 C 491.436 1.02033 4.45464 0
M  V30 5052 C 492.433 1.92921 4.82781 0
M  V30 5053 C 490.118 1.23864 4.86788 0
M  V30 5054 C 492.112 3.03999 5.60235 0
M  V30 5055 C 489.799 2.35249 5.64004 0
M  V30 5056 C 490.797 3.25146 6.0064 0
M  V30 5057 O 490.485 4.34598 6.76299 0
M  V30 5058 H 490.217 0.0487409 0.674241 0
M  V30 5059 H 492.771 0.786915 1.89728 0
M  V30 5060 H 491.001 -0.982299 3.74016 0
M  V30 5061 H 492.69 -0.658032 4.00531 0
M  V30 5062 H 493.456 1.77265 4.51444 0
M  V30 5063 H 489.335 0.54805 4.57731 0
M  V30 5064 H 492.879 3.74192 5.8875 0
M  V30 5065 H 488.776 2.50873 5.94755 0
M  V30 5066 H 489.544 4.32808 6.94708 0
M  V30 5067 N 492.207 -1.54576 0.307264 0
M  V30 5068 C 493.437 -2.04378 -0.302158 0
M  V30 5069 C 493.845 -1.18381 -1.47589 0
M  V30 5070 O 493.188 -0.20352 -1.82569 0
M  V30 5071 C 493.25 -3.50133 -0.815305 0
M  V30 5072 C 492.914 -4.56401 0.233977 0
M  V30 5073 C 493.911 -5.08884 1.06456 0
M  V30 5074 C 491.596 -5.0088 0.377478 0
M  V30 5075 C 493.59 -6.04394 2.02452 0
M  V30 5076 C 491.277 -5.96208 1.34088 0
M  V30 5077 C 492.275 -6.47849 2.16288 0
M  V30 5078 O 491.963 -7.41308 3.10994 0
M  V30 5079 H 491.695 -0.672502 -0.0686839 0
M  V30 5080 H 494.249 -2.00484 0.446682 0
M  V30 5081 H 492.479 -3.51371 -1.61478 0
M  V30 5082 H 494.168 -3.83098 -1.34129 0
M  V30 5083 H 494.934 -4.75311 0.964596 0
M  V30 5084 H 490.813 -4.60309 -0.252405 0
M  V30 5085 H 494.357 -6.44626 2.66652 0
M  V30 5086 H 490.254 -6.29198 1.44154 0
M  V30 5087 H 491.022 -7.5913 3.06045 0
M  V30 5088 N 493.685 -0.035106 -1.57561 0
M  V30 5089 C 494.633 0.962707 -2.11742 0
M  V30 5090 C 495.627 1.33296 -1.0454 0
M  V30 5091 O 496.833 1.31449 -1.22968 0
M  V30 5092 H 493.208 0.32826 -0.676572 0
M  V30 5093 H 495.179 0.48048 -2.94506 0
M  V30 5094 C 493.928 2.23388 -2.66445 0
M  V30 5095 H 493.251 1.95774 -3.48587 0
M  V30 5096 H 494.691 2.91402 -3.07995 0
M  V30 5097 C 493.15 2.96769 -1.59467 0
M  V30 5098 O 493.68 3.89105 -0.998 0
M  V30 5099 N 491.886 2.59212 -1.31369 0
M  V30 5100 H 491.433 1.84202 -1.80076 0
M  V30 5101 H 491.391 3.08618 -0.600173 0
M  V30 5102 N 495.163 1.55791 0.238111 0
M  V30 5103 C 496.093 1.94068 1.29846 0
M  V30 5104 C 497.074 0.806726 1.49753 0
M  V30 5105 O 498.259 1.06772 1.62214 0
M  V30 5106 C 495.389 2.24302 2.65153 0
M  V30 5107 C 494.343 3.40032 2.59927 0
M  V30 5108 C 493.669 3.55829 3.99111 0
M  V30 5109 C 494.969 4.75476 2.16148 0
M  V30 5110 H 496.663 2.82887 0.980563 0
M  V30 5111 H 494.209 1.36105 0.470253 0
M  V30 5112 H 496.162 2.4967 3.39475 0
M  V30 5113 H 494.886 1.32318 2.98596 0
M  V30 5114 H 493.545 3.14687 1.88063 0
M  V30 5115 H 493.193 2.6125 4.29834 0
M  V30 5116 H 492.893 4.3366 3.96501 0
M  V30 5117 H 494.417 3.83528 4.7512 0
M  V30 5118 H 495.831 5.00158 2.80205 0
M  V30 5119 H 494.228 5.56472 2.24631 0
M  V30 5120 H 495.298 4.71946 1.11333 0
M  V30 5121 N 496.642 -0.504142 1.49319 0
M  V30 5122 C 497.572 -1.61473 1.68667 0
M  V30 5123 C 498.553 -1.61455 0.535378 0
M  V30 5124 O 499.738 -1.78245 0.770868 0
M  V30 5125 C 496.868 -2.99971 1.75028 0
M  V30 5126 C 495.822 -3.14854 2.89916 0
M  V30 5127 C 495.148 -4.54671 2.81387 0
M  V30 5128 C 496.448 -2.95176 4.30893 0
M  V30 5129 H 498.142 -1.45535 2.61648 0
M  V30 5130 H 495.688 -0.698711 1.25913 0
M  V30 5131 H 497.641 -3.77562 1.8715 0
M  V30 5132 H 496.365 -3.1699 0.786441 0
M  V30 5133 H 495.024 -2.39687 2.77391 0
M  V30 5134 H 494.672 -4.68562 1.82917 0
M  V30 5135 H 494.372 -4.6557 3.58494 0
M  V30 5136 H 495.896 -5.34327 2.95512 0
M  V30 5137 H 497.31 -3.62538 4.44116 0
M  V30 5138 H 495.707 -3.17549 5.09198 0
M  V30 5139 H 496.777 -1.91332 4.45556 0
M  V30 5140 N 498.12 -1.38341 -0.754957 0
M  V30 5141 C 499.083 -1.35262 -1.85032 0
M  V30 5142 C 500.083 -0.253393 -1.58791 0
M  V30 5143 O 501.273 -0.510205 -1.66561 0
M  V30 5144 C 498.405 -1.10544 -3.22479 0
M  V30 5145 H 499.598 -2.32712 -1.8917 0
M  V30 5146 H 497.151 -1.23614 -0.956515 0
M  V30 5147 H 497.886 -0.136952 -3.24011 0
M  V30 5148 H 497.671 -1.90127 -3.4292 0
M  V30 5149 H 499.161 -1.11082 -4.02555 0
M  V30 5150 N 499.598 0.982988 -1.23187 0
M  V30 5151 C 500.528 2.09301 -1.03515 0
M  V30 5152 C 501.509 1.70035 0.0471136 0
M  V30 5153 O 502.694 1.93847 -0.117029 0
M  V30 5154 C 499.824 3.4167 -0.622791 0
M  V30 5155 C 498.778 3.94828 -1.65211 0
M  V30 5156 C 498.104 5.23362 -1.09527 0
M  V30 5157 C 499.404 4.2439 -3.04451 0
M  V30 5158 H 501.098 2.26016 -1.96359 0
M  V30 5159 H 498.644 1.08611 -0.945501 0
M  V30 5160 H 500.597 4.18746 -0.472233 0
M  V30 5161 H 499.321 3.24811 0.341329 0
M  V30 5162 H 497.98 3.19895 -1.79061 0
M  V30 5163 H 497.628 5.02852 -0.122211 0
M  V30 5164 H 497.328 5.59895 -1.783 0
M  V30 5165 H 498.852 6.03062 -0.956511 0
M  V30 5166 H 500.266 4.92225 -2.93917 0
M  V30 5167 H 498.663 4.72118 -3.70438 0
M  V30 5168 H 499.733 3.31765 -3.53638 0
M  V30 5169 N 501.076 1.04316 1.18135 0
M  V30 5170 C 502.009 0.580823 2.20685 0
M  V30 5171 C 502.987 -0.385943 1.57953 0
M  V30 5172 O 504.171 -0.299654 1.86103 0
M  V30 5173 C 501.298 -0.151162 3.38363 0
M  V30 5174 C 500.344 0.769247 4.19505 0
M  V30 5175 S 501.177 2.25352 4.85774 0
M  V30 5176 C 502.333 1.53246 6.0685 0
M  V30 5177 H 502.566 1.44968 2.5956 0
M  V30 5178 H 500.099 0.85434 1.28609 0
M  V30 5179 H 502.057 -0.567315 4.06561 0
M  V30 5180 H 500.718 -0.995936 2.97892 0
M  V30 5181 H 499.911 0.203335 5.0359 0
M  V30 5182 H 499.513 1.12436 3.56699 0
M  V30 5183 H 501.805 0.82689 6.72435 0
M  V30 5184 H 502.748 2.35044 6.67952 0
M  V30 5185 H 503.156 1.0237 5.5514 0
M  V30 5186 N 502.554 -1.34406 0.822964 0
M  V30 5187 C 503.782 -2.02508 0.424039 0
M  V30 5188 C 504.197 -1.61975 -0.970022 0
M  V30 5189 O 503.554 -0.825228 -1.62777 0
M  V30 5190 C 503.605 -3.57789 0.516657 0
M  V30 5191 O 503.326 -3.96853 1.85577 0
M  V30 5192 C 504.827 -4.43157 0.112637 0
M  V30 5193 H 502.047 -0.649063 0.170173 0
M  V30 5194 H 504.591 -1.7168 1.11113 0
M  V30 5195 H 502.746 -3.87207 -0.122353 0
M  V30 5196 H 503.16 -4.91538 1.83005 0
M  V30 5197 H 504.634 -5.51527 0.228526 0
M  V30 5198 H 505.111 -4.28939 -0.943837 0
M  V30 5199 H 505.717 -4.19067 0.725449 0
M  V30 5200 N 504.032 -0.577932 -1.46621 0
M  V30 5201 C 504.982 0.178869 -2.27297 0
M  V30 5202 C 505.966 0.866279 -1.35589 0
M  V30 5203 O 507.158 0.761163 -1.59798 0
M  V30 5204 C 504.287 1.19499 -3.2183 0
M  V30 5205 C 503.373 0.50994 -4.21023 0
M  V30 5206 N 503.764 -0.43177 -5.03954 0
M  V30 5207 C 502.062 0.761287 -4.39455 0
M  V30 5208 C 502.763 -0.831693 -5.75724 0
M  V30 5209 N 501.739 -0.181897 -5.43296 0
M  V30 5210 H 505.541 -0.544859 -2.88805 0
M  V30 5211 H 503.055 -0.399373 -1.57413 0
M  V30 5212 H 505.052 1.75131 -3.78332 0
M  V30 5213 H 503.712 1.91959 -2.61881 0
M  V30 5214 H 504.723 -0.807045 -5.11573 0
M  V30 5215 H 501.4 1.47282 -3.90659 0
M  V30 5216 H 502.79 -1.6067 -6.52407 0
M  V30 5217 N 505.51 1.54411 -0.315457 0
M  V30 5218 C 506.756 2.00716 0.289972 0
M  V30 5219 C 507.089 1.2034 1.5242 0
M  V30 5220 O 506.364 0.283579 1.92422 0
M  V30 5221 C 506.647 3.54507 0.632196 0
M  V30 5222 C 506.5 4.45615 -0.61218 0
M  V30 5223 C 507.819 4.15421 1.45305 0
M  V30 5224 H 504.938 0.729637 0.10392 0
M  V30 5225 H 507.58 1.8506 -0.430427 0
M  V30 5226 H 505.73 3.67979 1.24595 0
M  V30 5227 H 507.402 4.44026 -1.25053 0
M  V30 5228 H 505.645 4.15621 -1.24264 0
M  V30 5229 H 506.316 5.51022 -0.328379 0
M  V30 5230 H 508.792 4.05474 0.934331 0
M  V30 5231 H 507.668 5.23157 1.66127 0
M  V30 5232 H 507.929 3.68223 2.44671 0
M  V30 5233 N 506.988 0.0434614 1.5754 0
M  V30 5234 C 508.213 -0.645358 1.97104 0
M  V30 5235 C 508.638 -1.64037 0.920521 0
M  V30 5236 O 507.996 -1.80922 -0.11708 0
M  V30 5237 C 508.044 -1.31547 3.35749 0
M  V30 5238 O 507.148 -2.43103 3.33129 0
M  V30 5239 H 506.489 -0.168403 0.64229 0
M  V30 5240 H 509.019 0.109573 2.04306 0
M  V30 5241 H 509.029 -1.66895 3.72304 0
M  V30 5242 H 507.704 -0.586205 4.11748 0
M  V30 5243 H 506.281 -2.0976 3.0831 0
M  V30 5244 N 508.466 -1.55915 -0.229846 0
M  V30 5245 C 509.743 -1.6932 -0.979295 0
M  V30 5246 C 510.123 -0.588321 -2.02736 0
M  V30 5247 O 509.471 0.40586 -2.24867 0
M  V30 5248 C 509.681 -3.10305 -1.59724 0
M  V30 5249 C 511.029 -3.6945 -2.09264 0
M  V30 5250 O 512.053 -3.13214 -1.69633 0
M  V30 5251 O 510.912 -4.68072 -2.82082 0
M  V30 5252 H 508.006 -0.689314 -0.456919 0
M  V30 5253 H 510.552 -1.68238 -0.222283 0
M  V30 5254 H 509.324 -3.82177 -0.840039 0
M  V30 5255 H 508.947 -3.1547 -2.42001 0
M  V30 5256 N 509.944 0.496216 -1.49584 0
M  V30 5257 C 510.907 1.57952 -1.66084 0
M  V30 5258 C 511.907 1.51729 -0.53244 0
M  V30 5259 O 513.097 1.54796 -0.79899 0
M  V30 5260 C 510.229 2.97604 -1.66268 0
M  V30 5261 H 511.422 1.44649 -2.6271 0
M  V30 5262 H 508.975 0.7208 -1.38687 0
M  V30 5263 H 509.71 3.16378 -0.712432 0
M  V30 5264 H 509.495 3.03528 -2.4822 0
M  V30 5265 H 510.985 3.76301 -1.81073 0
M  V30 5266 N 511.423 1.38739 0.74761 0
M  V30 5267 C 512.648 1.38702 1.54197 0
M  V30 5268 C 513.073 -0.019664 1.8809 0
M  V30 5269 O 512.431 -1.00333 1.51006 0
M  V30 5270 C 512.479 2.25492 2.814 0
M  V30 5271 O 511.583 1.67613 3.76802 0
M  V30 5272 H 510.924 0.472863 0.466151 0
M  V30 5273 H 513.454 1.82577 0.923413 0
M  V30 5274 H 513.464 2.39561 3.30264 0
M  V30 5275 H 512.139 3.27727 2.56062 0
M  V30 5276 H 510.716 1.62718 3.35526 0
M  V30 5277 N 512.901 -0.976442 1.23707 0
M  V30 5278 C 513.831 -2.08749 1.04624 0
M  V30 5279 C 514.812 -1.70057 -0.0380956 0
M  V30 5280 O 515.997 -1.93782 0.127308 0
M  V30 5281 C 513.127 -3.41335 0.640902 0
M  V30 5282 C 512.081 -3.93947 1.67302 0
M  V30 5283 C 511.407 -5.22774 1.12301 0
M  V30 5284 C 512.707 -4.22769 3.06697 0
M  V30 5285 H 514.401 -2.24972 1.97555 0
M  V30 5286 H 511.947 -1.08108 0.951247 0
M  V30 5287 H 513.9 -4.18489 0.494434 0
M  V30 5288 H 512.624 -3.24988 -0.324099 0
M  V30 5289 H 511.283 -3.18941 1.80755 0
M  V30 5290 H 510.931 -5.0278 0.148877 0
M  V30 5291 H 510.631 -5.58942 1.81267 0
M  V30 5292 H 512.155 -6.02546 0.988479 0
M  V30 5293 H 513.569 -4.90659 2.96524 0
M  V30 5294 H 511.966 -4.70147 3.72937 0
M  V30 5295 H 513.036 -3.29885 3.55392 0
M  V30 5296 N 514.379 -1.04941 -1.1758 0
M  V30 5297 C 515.625 -0.768896 -1.88307 0
M  V30 5298 C 515.98 0.696361 -1.79356 0
M  V30 5299 O 515.273 1.50245 -1.18899 0
M  V30 5300 C 515.467 -1.18062 -3.37337 0
M  V30 5301 C 515.296 -2.68436 -3.60794 0
M  V30 5302 C 514.066 -3.35709 -3.77661 0
M  V30 5303 C 516.264 -3.66657 -3.60649 0
M  V30 5304 N 514.246 -4.74974 -3.88939 0
M  V30 5305 C 515.617 -4.91638 -3.77747 0
M  V30 5306 C 517.672 -3.60162 -3.43785 0
M  V30 5307 C 516.375 -6.10902 -3.79726 0
M  V30 5308 C 518.401 -4.78863 -3.47051 0
M  V30 5309 C 517.763 -6.02666 -3.64654 0
M  V30 5310 H 513.862 -0.33355 -0.707296 0
M  V30 5311 H 516.446 -1.34085 -1.41171 0
M  V30 5312 H 514.617 -0.636648 -3.83147 0
M  V30 5313 H 516.349 -0.8502 -3.95669 0
M  V30 5314 H 513.104 -2.8611 -3.77409 0
M  V30 5315 H 513.528 -5.47378 -3.98379 0
M  V30 5316 H 518.17 -2.65412 -3.29114 0
M  V30 5317 H 515.888 -7.05998 -3.93182 0
M  V30 5318 H 519.474 -4.75488 -3.35265 0
M  V30 5319 H 518.354 -6.92979 -3.67083 0
M  V30 5320 N 515.857 1.33968 -0.830081 0
M  V30 5321 C 516.79 2.27303 -0.202182 0
M  V30 5322 C 517.768 1.49235 0.645581 0
M  V30 5323 O 518.952 1.78433 0.607762 0
M  V30 5324 C 516.079 3.31025 0.716932 0
M  V30 5325 C 515.125 4.26466 -0.0542271 0
M  V30 5326 S 515.958 5.16707 -1.40622 0
M  V30 5327 C 517.114 6.23962 -0.492167 0
M  V30 5328 H 517.347 2.8021 -0.99346 0
M  V30 5329 H 514.88 1.41124 -0.626359 0
M  V30 5330 H 516.838 3.91271 1.24165 0
M  V30 5331 H 515.499 2.76951 1.4818 0
M  V30 5332 H 514.692 4.99858 0.644785 0
M  V30 5333 H 514.294 3.7051 -0.509722 0
M  V30 5334 H 516.586 6.76774 0.31347 0
M  V30 5335 H 517.529 6.97927 -1.19599 0
M  V30 5336 H 517.937 5.64447 -0.0774176 0
M  V30 5337 N 517.335 0.585699 1.46312 0
M  V30 5338 C 518.751 0.247607 1.57668 0
M  V30 5339 C 518.951 -1.25007 1.58037 0
M  V30 5340 O 518.007 -2.03196 1.49893 0
M  V30 5341 C 519.32 0.899456 2.86933 0
M  V30 5342 C 520.868 0.873326 3.00569 0
M  V30 5343 C 521.343 1.50477 4.32574 0
M  V30 5344 N 522.834 1.46925 4.3928 0
M  V30 5345 C 523.569 1.92719 5.40044 0
M  V30 5346 N 523.065 2.46499 6.47464 0
M  V30 5347 N 524.858 1.83617 5.31264 0
M  V30 5348 H 517.009 1.55841 1.44317 0
M  V30 5349 H 519.272 0.651564 0.688599 0
M  V30 5350 H 518.978 1.95313 2.92482 0
M  V30 5351 H 518.852 0.409476 3.74971 0
M  V30 5352 H 521.239 -0.171736 2.946 0
M  V30 5353 H 521.32 1.40136 2.13999 0
M  V30 5354 H 520.964 2.54905 4.39302 0
M  V30 5355 H 520.894 0.951944 5.17924 0
M  V30 5356 H 523.385 1.07616 3.62253 0
M  V30 5357 H 523.698 2.79291 7.20567 0
M  V30 5358 H 522.043 2.50526 6.48276 0
M  V30 5359 H 525.234 1.41358 4.46246 0
M  V30 5360 H 525.407 2.19622 6.09648 0
M  V30 5361 N 518.813 -1.54241 0.323641 0
M  V30 5362 C 519.743 -2.27289 -0.534993 0
M  V30 5363 C 520.724 -1.28087 -1.11927 0
M  V30 5364 O 521.909 -1.56899 -1.14439 0
M  V30 5365 C 519.039 -3.03075 -1.69596 0
M  V30 5366 C 517.993 -4.09614 -1.24098 0
M  V30 5367 C 517.319 -4.73242 -2.4889 0
M  V30 5368 C 518.619 -5.21087 -0.355789 0
M  V30 5369 H 520.313 -2.99308 0.0743257 0
M  V30 5370 H 517.859 -1.43952 0.0371874 0
M  V30 5371 H 519.812 -3.52907 -2.30293 0
M  V30 5372 H 518.536 -2.28673 -2.33187 0
M  V30 5373 H 517.195 -3.60666 -0.656945 0
M  V30 5374 H 516.843 -3.95455 -3.10845 0
M  V30 5375 H 516.543 -5.45209 -2.19138 0
M  V30 5376 H 518.067 -5.25848 -3.10348 0
M  V30 5377 H 519.481 -5.66675 -0.869042 0
M  V30 5378 H 517.878 -5.9991 -0.151045 0
M  V30 5379 H 518.948 -4.81005 0.613339 0
M  V30 5380 N 520.291 -0.0518155 -1.57515 0
M  V30 5381 C 521.702 0.483787 -1.80323 0
M  V30 5382 C 522.053 1.70879 -0.964099 0
M  V30 5383 O 521.178 2.15643 -0.180872 0
M  V30 5384 C 521.773 0.884459 -3.27052 0
M  V30 5385 C 520.332 1.36504 -3.50776 0
M  V30 5386 C 519.479 0.340539 -2.75201 0
M  V30 5387 H 522.43 -0.277691 -1.56252 0
M  V30 5388 H 522.451 1.74733 -3.38007 0
M  V30 5389 H 521.963 -0.00731093 -3.88099 0
M  V30 5390 H 520.064 2.27598 -2.95009 0
M  V30 5391 H 520.177 1.35675 -4.59488 0
M  V30 5392 H 518.541 0.81356 -2.41357 0
M  V30 5393 H 519.324 -0.543156 -3.38976 0
M  V30 5394 N 521.769 1.56035 0.221574 0
M  V30 5395 C 523.046 1.69837 0.970301 0
M  V30 5396 C 523.426 0.599065 2.02421 0
M  V30 5397 O 522.774 -0.393929 2.25079 0
M  V30 5398 C 522.984 3.11148 1.58076 0
M  V30 5399 C 524.332 3.70555 2.07302 0
M  V30 5400 O 525.356 3.14109 1.6797 0
M  V30 5401 O 524.215 4.69562 2.79596 0
M  V30 5402 H 521.309 0.691727 0.453257 0
M  V30 5403 H 523.855 1.68353 0.213358 0
M  V30 5404 H 522.627 3.82617 0.819759 0
M  V30 5405 H 522.25 3.16749 2.40324 0
M  V30 5406 N 523.247 -0.488276 1.49845 0
M  V30 5407 C 524.177 -1.59675 1.70371 0
M  V30 5408 C 525.158 -1.60878 0.552473 0
M  V30 5409 O 526.343 -1.77417 0.78973 0
M  V30 5410 C 523.473 -2.98098 1.782 0
M  V30 5411 C 522.427 -3.11761 2.93239 0
M  V30 5412 C 521.753 -4.51661 2.86193 0
M  V30 5413 C 523.053 -2.90589 4.33999 0
M  V30 5414 H 524.747 -1.42752 2.63177 0
M  V30 5415 H 522.293 -0.685317 1.26647 0
M  V30 5416 H 524.246 -3.75555 1.91144 0
M  V30 5417 H 522.97 -3.16138 0.820018 0
M  V30 5418 H 521.629 -2.36732 2.79917 0
M  V30 5419 H 521.277 -4.66595 1.87877 0
M  V30 5420 H 520.977 -4.61742 3.63412 0
M  V30 5421 H 522.501 -5.31162 3.01163 0
M  V30 5422 H 523.915 -3.57807 4.47936 0
M  V30 5423 H 522.312 -3.1213 5.12538 0
M  V30 5424 H 523.382 -1.86595 4.4756 0
M  V30 5425 N 524.725 -1.39134 -0.740242 0
M  V30 5426 C 525.688 -1.37217 -1.83587 0
M  V30 5427 C 526.688 -0.270221 -1.58513 0
M  V30 5428 O 527.878 -0.527843 -1.6601 0
M  V30 5429 C 525.01 -1.13959 -3.21288 0
M  V30 5430 H 526.203 -2.34705 -1.86691 0
M  V30 5431 H 523.756 -1.24622 -0.94335 0
M  V30 5432 H 524.491 -0.17131 -3.23847 0
M  V30 5433 H 524.276 -1.93754 -3.40884 0
M  V30 5434 H 525.766 -1.15346 -4.01354 0
M  V30 5435 N 526.204 0.969867 -1.24223 0
M  V30 5436 C 527.167 2.04564 -1.03373 0
M  V30 5437 C 528.167 1.60798 0.00819206 0
M  V30 5438 O 529.357 1.72641 -0.232567 0
M  V30 5439 C 526.489 3.36163 -0.566343 0
M  V30 5440 H 527.682 2.24494 -1.98853 0
M  V30 5441 H 525.235 1.1448 -1.06415 0
M  V30 5442 H 525.97 3.21925 0.391751 0
M  V30 5443 H 525.755 3.69273 -1.31834 0
M  V30 5444 H 527.245 4.1526 -0.441435 0
M  V30 5445 N 527.682 1.05563 1.17022 0
M  V30 5446 C 528.93 0.76642 1.87004 0
M  V30 5447 C 529.251 -0.708854 1.8166 0
M  V30 5448 O 528.521 -1.51242 1.2451 0
M  V30 5449 H 527.101 0.280516 0.692329 0
M  V30 5450 H 529.763 1.33557 1.41945 0
M  V30 5451 H 528.859 1.08472 2.92644 0
M  V30 5452 N 529.16 -1.33526 0.837174 0
M  V30 5453 C 530.09 -2.31764 0.284206 0
M  V30 5454 C 531.071 -1.58896 -0.607142 0
M  V30 5455 O 532.256 -1.86798 -0.531047 0
M  V30 5456 C 529.386 -3.43029 -0.542962 0
M  V30 5457 C 528.34 -4.27255 0.252451 0
M  V30 5458 C 527.666 -5.3012 -0.69836 0
M  V30 5459 C 528.966 -5.01229 1.46858 0
M  V30 5460 H 530.66 -2.78262 1.10502 0
M  V30 5461 H 528.206 -1.3378 0.532812 0
M  V30 5462 H 530.159 -4.1078 -0.940096 0
M  V30 5463 H 528.883 -2.95216 -1.39697 0
M  V30 5464 H 527.542 -3.61127 0.631124 0
M  V30 5465 H 527.19 -4.78564 -1.54872 0
M  V30 5466 H 526.89 -5.87353 -0.170274 0
M  V30 5467 H 528.414 -6.00737 -1.09305 0
M  V30 5468 H 529.828 -5.61756 1.14469 0
M  V30 5469 H 528.225 -5.68104 1.93333 0
M  V30 5470 H 529.295 -4.301 2.23924 0
M  V30 5471 N 530.638 -0.59345 -1.46 0
M  V30 5472 C 531.884 -0.0832754 -2.02629 0
M  V30 5473 C 532.217 1.27749 -1.46266 0
M  V30 5474 O 531.492 1.8395 -0.631866 0
M  V30 5475 C 531.775 -0.0290756 -3.60088 0
M  V30 5476 C 531.628 -1.41951 -4.26814 0
M  V30 5477 C 532.947 0.666055 -4.35031 0
M  V30 5478 H 530.066 -0.031736 -0.736316 0
M  V30 5479 H 532.708 -0.762711 -1.74019 0
M  V30 5480 H 530.858 0.549532 -3.84594 0
M  V30 5481 H 532.53 -2.04411 -4.13538 0
M  V30 5482 H 530.773 -1.98422 -3.8576 0
M  V30 5483 H 531.444 -1.33395 -5.3564 0
M  V30 5484 H 533.92 0.174401 -4.15734 0
M  V30 5485 H 532.796 0.673041 -5.44758 0
M  V30 5486 H 533.057 1.72946 -4.06869 0
M  V30 5487 N 532.116 1.54067 -0.331816 0
M  V30 5488 C 533.356 2.02625 0.26876 0
M  V30 5489 C 533.72 1.21462 1.48697 0
M  V30 5490 O 534.921 1.59863 2.16096 0
M  V30 5491 C 533.192 3.52554 0.586577 0
M  V30 5492 S 534.751 4.23035 1.16563 0
M  V30 5493 H 531.569 0.706395 0.0807862 0
M  V30 5494 H 534.171 1.89844 -0.466856 0
M  V30 5495 H 532.875 4.09242 -0.308046 0
M  V30 5496 H 532.406 3.69432 1.35217 0
M  V30 5497 H 534.421 4.31382 2.45203 0
M  V30 5498 N 533.594 0.0601682 1.57485 0
M  V30 5499 C 534.84 -0.606552 1.94146 0
M  V30 5500 C 535.195 -1.67918 0.939225 0
M  V30 5501 O 534.488 -1.91558 -0.0402649 0
M  V30 5502 C 534.682 -1.23831 3.35262 0
M  V30 5503 C 534.511 -0.228408 4.4912 0
M  V30 5504 C 533.281 0.182813 5.04969 0
M  V30 5505 C 535.479 0.52975 5.11564 0
M  V30 5506 N 533.461 1.18464 6.02362 0
M  V30 5507 C 534.832 1.38439 6.04346 0
M  V30 5508 C 536.887 0.587084 4.94427 0
M  V30 5509 C 535.59 2.29125 6.81832 0
M  V30 5510 C 537.616 1.4814 5.72546 0
M  V30 5511 C 536.978 2.32375 6.64967 0
M  V30 5512 H 533.077 -0.193328 0.757726 0
M  V30 5513 H 535.661 0.1346 1.94234 0
M  V30 5514 H 533.832 -1.94944 3.35933 0
M  V30 5515 H 535.564 -1.86456 3.59188 0
M  V30 5516 H 532.319 -0.197968 4.73186 0
M  V30 5517 H 532.743 1.68271 6.55754 0
M  V30 5518 H 537.385 -0.049944 4.22771 0
M  V30 5519 H 535.103 2.93868 7.52773 0
M  V30 5520 H 538.689 1.53045 5.6131 0
M  V30 5521 H 537.569 3.00454 7.2436 0
M  V30 5522 N 535.072 -1.5615 -0.213296 0
M  V30 5523 C 536.002 -1.96109 -1.26742 0
M  V30 5524 C 536.983 -0.830448 -1.48451 0
M  V30 5525 O 538.168 -1.09339 -1.60495 0
M  V30 5526 C 535.298 -2.28492 -2.61551 0
M  V30 5527 C 534.252 -3.44124 -2.54485 0
M  V30 5528 C 533.578 -3.62134 -3.93399 0
M  V30 5529 C 534.878 -4.78855 -2.08556 0
M  V30 5530 H 536.572 -2.84412 -0.935434 0
M  V30 5531 H 534.118 -1.36836 -0.44854 0
M  V30 5532 H 536.071 -2.55039 -3.3546 0
M  V30 5533 H 534.795 -1.37052 -2.96453 0
M  V30 5534 H 533.454 -3.17639 -1.83033 0
M  V30 5535 H 533.102 -2.68055 -4.25623 0
M  V30 5536 H 532.802 -4.39913 -3.89551 0
M  V30 5537 H 534.326 -3.91038 -4.68958 0
M  V30 5538 H 535.74 -5.04552 -2.72213 0
M  V30 5539 H 534.137 -5.59975 -2.1575 0
M  V30 5540 H 535.207 -4.73657 -1.03811 0
M  V30 5541 N 536.55 0.480323 -1.50102 0
M  V30 5542 C 537.48 1.58769 -1.71215 0
M  V30 5543 C 538.461 1.60583 -0.560997 0
M  V30 5544 O 539.646 1.76996 -0.799127 0
M  V30 5545 C 536.776 2.97148 -1.79778 0
M  V30 5546 C 535.73 3.10201 -2.94888 0
M  V30 5547 C 535.056 4.50137 -2.88584 0
M  V30 5548 C 536.356 2.88283 -4.35534 0
M  V30 5549 H 538.05 1.41354 -2.6393 0
M  V30 5550 H 535.596 0.678591 -1.27008 0
M  V30 5551 H 537.549 3.74536 -1.93133 0
M  V30 5552 H 536.273 3.15699 -0.836772 0
M  V30 5553 H 534.932 2.35244 -2.81169 0
M  V30 5554 H 534.58 4.65593 -1.90349 0
M  V30 5555 H 534.28 4.59808 -3.65856 0
M  V30 5556 H 535.804 5.29558 -3.03976 0
M  V30 5557 H 537.218 3.55427 -4.49827 0
M  V30 5558 H 535.615 3.09408 -5.14186 0
M  V30 5559 H 536.685 1.84219 -4.48544 0
M  V30 5560 N 538.028 1.39524 0.732853 0
M  V30 5561 C 538.958 1.41153 1.86005 0
M  V30 5562 C 539.939 0.274614 1.67869 0
M  V30 5563 O 541.124 0.480745 1.88155 0
M  V30 5564 C 538.254 1.25638 3.23778 0
M  V30 5565 C 537.208 2.36752 3.56556 0
M  V30 5566 C 536.534 2.06326 4.93289 0
M  V30 5567 C 537.834 3.79069 3.5931 0
M  V30 5568 H 539.528 2.35484 1.84899 0
M  V30 5569 H 537.074 1.13348 0.888162 0
M  V30 5570 H 539.027 1.25398 4.0231 0
M  V30 5571 H 537.751 0.277772 3.25417 0
M  V30 5572 H 536.41 2.36213 2.80355 0
M  V30 5573 H 536.058 1.06897 4.9151 0
M  V30 5574 H 535.758 2.80757 5.16187 0
M  V30 5575 H 537.282 2.07739 5.74175 0
M  V30 5576 H 538.696 3.81526 4.27914 0
M  V30 5577 H 537.093 4.52878 3.93728 0
M  V30 5578 H 538.163 4.09893 2.59068 0
M  V30 5579 N 539.506 -0.963266 1.24736 0
M  V30 5580 C 540.731 -1.74699 1.11781 0
M  V30 5581 C 541.156 -1.85267 -0.325258 0
M  V30 5582 O 540.514 -1.32681 -1.23553 0
M  V30 5583 C 540.562 -3.14322 1.76731 0
M  V30 5584 O 539.666 -3.99043 1.04109 0
M  V30 5585 H 539.007 -0.53684 0.390767 0
M  V30 5586 H 541.537 -1.20801 1.65131 0
M  V30 5587 H 541.547 -3.64824 1.82668 0
M  V30 5588 H 540.222 -3.05946 2.81726 0
M  V30 5589 H 538.799 -3.5752 1.05991 0
M  V30 5590 N 540.985 -1.06182 -1.16461 0
M  V30 5591 C 542.401 -0.785065 -1.38956 0
M  V30 5592 C 542.601 0.616103 -1.9185 0
M  V30 5593 O 541.657 1.37686 -2.11657 0
M  V30 5594 C 542.97 -1.84902 -2.37132 0
M  V30 5595 C 544.518 -1.8724 -2.50819 0
M  V30 5596 C 544.993 -2.92686 -3.52277 0
M  V30 5597 N 546.484 -2.91712 -3.59803 0
M  V30 5598 C 547.219 -3.69949 -4.38093 0
M  V30 5599 N 546.715 -4.58 -5.19815 0
M  V30 5600 N 548.508 -3.58346 -4.33064 0
M  V30 5601 H 540.659 -1.96569 -0.804634 0
M  V30 5602 H 542.922 -0.851747 -0.416211 0
M  V30 5603 H 542.628 -2.85518 -2.0536 0
M  V30 5604 H 542.502 -1.69908 -3.36766 0
M  V30 5605 H 544.889 -0.872827 -2.81897 0
M  V30 5606 H 544.97 -2.06311 -1.51226 0
M  V30 5607 H 544.614 -3.92835 -3.21937 0
M  V30 5608 H 544.544 -2.70864 -4.51598 0
M  V30 5609 H 547.035 -2.27876 -3.01464 0
M  V30 5610 H 547.348 -5.14357 -5.76764 0
M  V30 5611 H 545.693 -4.62056 -5.19162 0
M  V30 5612 H 548.884 -2.88943 -3.68279 0
M  V30 5613 H 549.057 -4.19563 -4.93833 0
M  V30 5614 N 542.463 1.3308 -0.844243 0
M  V30 5615 C 543.373 2.32876 -0.283922 0
M  V30 5616 C 544.389 1.63589 0.592846 0
M  V30 5617 O 545.565 1.95205 0.495693 0
M  V30 5618 C 542.63 3.42667 0.527283 0
M  V30 5619 C 541.691 4.27664 -0.374394 0
M  V30 5620 C 540.924 5.32212 0.39819 0
M  V30 5621 O 541.147 5.46635 1.62932 0
M  V30 5622 O 540.081 6.01458 -0.2306 0
M  V30 5623 H 543.907 2.82671 -1.11045 0
M  V30 5624 H 541.492 1.36518 -0.606903 0
M  V30 5625 H 543.374 4.09652 0.988078 0
M  V30 5626 H 542.049 2.95079 1.33078 0
M  V30 5627 H 540.956 3.63526 -0.883144 0
M  V30 5628 H 542.289 4.78749 -1.1428 0
M  V30 5629 N 543.941 0.601185 1.45683 0
M  V30 5630 C 545.187 0.0940202 2.02582 0
M  V30 5631 C 545.52 -1.26972 1.46941 0
M  V30 5632 O 544.795 -1.83613 0.641612 0
M  V30 5633 C 545.078 0.0481715 3.60068 0
M  V30 5634 C 544.931 1.44212 4.26055 0
M  V30 5635 C 546.25 -0.642975 4.35378 0
M  V30 5636 H 543.369 0.0356404 0.736138 0
M  V30 5637 H 546.011 0.771929 1.73612 0
M  V30 5638 H 544.161 -0.529128 3.8488 0
M  V30 5639 H 545.833 2.06601 4.12449 0
M  V30 5640 H 544.076 2.00465 3.84703 0
M  V30 5641 H 544.747 1.36234 5.34925 0
M  V30 5642 H 547.223 -0.152351 4.15821 0
M  V30 5643 H 546.099 -0.644141 5.45107 0
M  V30 5644 H 546.36 -1.70785 4.0778 0
M  V30 5645 N 545.419 -1.53889 0.339982 0
M  V30 5646 C 546.349 -2.27843 -0.510856 0
M  V30 5647 C 547.33 -1.29267 -1.10563 0
M  V30 5648 O 548.515 -1.58104 -1.12768 0
M  V30 5649 C 545.645 -3.04857 -1.66372 0
M  V30 5650 C 544.599 -4.10907 -1.19746 0
M  V30 5651 C 543.925 -4.75855 -2.43857 0
M  V30 5652 C 545.225 -5.21435 -0.300501 0
M  V30 5653 H 546.919 -2.99212 0.106067 0
M  V30 5654 H 544.465 -1.43904 0.0524533 0
M  V30 5655 H 546.418 -3.5533 -2.26537 0
M  V30 5656 H 545.142 -2.31133 -2.30749 0
M  V30 5657 H 543.801 -3.61342 -0.618654 0
M  V30 5658 H 543.449 -3.9873 -3.06633 0
M  V30 5659 H 543.149 -5.47502 -2.13343 0
M  V30 5660 H 544.673 -5.2911 -3.04754 0
M  V30 5661 H 546.087 -5.67565 -0.80889 0
M  V30 5662 H 544.484 -6.00036 -0.0874076 0
M  V30 5663 H 545.554 -4.80328 0.664321 0
M  V30 5664 N 546.897 -0.0685191 -1.57451 0
M  V30 5665 C 548.308 0.464634 -1.80826 0
M  V30 5666 C 548.659 1.69847 -0.982169 0
M  V30 5667 O 547.784 2.15439 -0.203734 0
M  V30 5668 C 548.379 0.849721 -3.27971 0
M  V30 5669 C 546.938 1.32776 -3.52204 0
M  V30 5670 C 546.085 0.311332 -2.75547 0
M  V30 5671 H 549.036 -0.294248 -1.55948 0
M  V30 5672 H 549.057 1.71138 -3.39841 0
M  V30 5673 H 548.569 -0.0484736 -3.8807 0
M  V30 5674 H 546.67 2.24456 -2.97406 0
M  V30 5675 H 546.783 1.30794 -4.60901 0
M  V30 5676 H 545.147 0.787915 -2.42206 0
M  V30 5677 H 545.93 -0.579078 -3.38381 0
M  V30 5678 N 548.375 1.56261 0.205012 0
M  V30 5679 C 549.791 1.49623 0.555433 0
M  V30 5680 C 549.991 0.766719 1.86343 0
M  V30 5681 O 549.047 0.313158 2.50551 0
M  V30 5682 C 550.36 2.94253 0.619347 0
M  V30 5683 C 551.908 3.04868 0.708855 0
M  V30 5684 C 552.383 4.50888 0.803969 0
M  V30 5685 N 553.874 4.54999 0.867758 0
M  V30 5686 C 554.609 5.65284 0.96135 0
M  V30 5687 N 554.105 6.85282 1.01786 0
M  V30 5688 N 555.898 5.53174 0.997771 0
M  V30 5689 H 548.049 2.0211 -0.653094 0
M  V30 5690 H 550.312 0.919333 -0.231366 0
M  V30 5691 H 550.018 3.50643 -0.272458 0
M  V30 5692 H 549.892 3.47063 1.47741 0
M  V30 5693 H 552.279 2.48532 1.5911 0
M  V30 5694 H 552.36 2.55199 -0.175205 0
M  V30 5695 H 552.004 5.07846 -0.0738798 0
M  V30 5696 H 551.934 4.98279 1.70369 0
M  V30 5697 H 554.425 3.68588 0.833735 0
M  V30 5698 H 554.738 7.65081 1.08951 0
M  V30 5699 H 553.083 6.8796 0.986706 0
M  V30 5700 H 556.274 4.5835 0.950392 0
M  V30 5701 H 556.447 6.39151 1.06725 0
M  V30 5702 N 549.853 -0.472356 1.50355 0
M  V30 5703 C 550.783 -1.57859 1.72055 0
M  V30 5704 C 551.764 -1.60283 0.569505 0
M  V30 5705 O 552.949 -1.7657 0.808503 0
M  V30 5706 C 550.079 -2.96191 1.81351 0
M  V30 5707 C 549.033 -3.08633 2.96529 0
M  V30 5708 C 548.359 -4.486 2.90968 0
M  V30 5709 C 549.659 -2.85969 4.37057 0
M  V30 5710 H 551.353 -1.39953 2.64676 0
M  V30 5711 H 548.899 -0.671846 1.27367 0
M  V30 5712 H 550.852 -3.73507 1.95117 0
M  V30 5713 H 549.576 -3.15251 0.853502 0
M  V30 5714 H 548.235 -2.33749 2.82413 0
M  V30 5715 H 547.883 -4.64577 1.92815 0
M  V30 5716 H 547.583 -4.57861 3.68289 0
M  V30 5717 H 549.107 -5.27938 3.0678 0
M  V30 5718 H 550.521 -3.53036 4.51706 0
M  V30 5719 H 548.918 -3.06677 5.15819 0
M  V30 5720 H 549.988 -1.81838 4.49514 0
M  V30 5721 N 551.331 -1.39911 -0.725443 0
M  V30 5722 C 552.579 -1.37382 -1.48224 0
M  V30 5723 C 552.9 0.0264107 -1.94982 0
M  V30 5724 O 552.17 0.979408 -1.6966 0
M  V30 5725 H 550.75 -0.505596 -0.549892 0
M  V30 5726 H 553.412 -1.7487 -0.860608 0
M  V30 5727 H 552.508 -2.04254 -2.3598 0
M  V30 5728 N 552.809 0.956637 -1.25245 0
M  V30 5729 C 554.22 1.51569 -1.09012 0
M  V30 5730 C 554.571 1.93322 0.334813 0
M  V30 5731 O 553.696 1.78421 1.22454 0
M  V30 5732 C 554.291 2.75444 -1.97271 0
M  V30 5733 C 552.85 3.27669 -1.8523 0
M  V30 5734 C 551.997 2.00517 -1.91542 0
M  V30 5735 H 554.948 0.773746 -1.3856 0
M  V30 5736 H 554.969 3.4919 -1.51151 0
M  V30 5737 H 554.481 2.45024 -3.00973 0
M  V30 5738 H 552.582 3.62914 -0.844045 0
M  V30 5739 H 552.695 3.9582 -2.69932 0
M  V30 5740 H 551.059 2.15727 -1.35404 0
M  V30 5741 H 551.842 1.72448 -2.96844 0
M  V30 5742 N 554.287 1.06798 1.15896 0
M  V30 5743 C 555.25 0.687328 2.18651 0
M  V30 5744 C 556.25 -0.269559 1.58524 0
M  V30 5745 O 557.44 -0.0512627 1.74125 0
M  V30 5746 C 554.572 0.0121642 3.40898 0
M  V30 5747 H 555.765 1.59701 2.53842 0
M  V30 5748 H 553.318 0.863828 1.3026 0
M  V30 5749 H 554.053 -0.910025 3.1127 0
M  V30 5750 H 553.838 0.700309 3.85795 0
M  V30 5751 H 555.328 -0.239703 4.16911 0
M  V30 5752 N 555.766 -1.3263 0.851289 0
M  V30 5753 C 557.012 -1.9766 0.453694 0
M  V30 5754 C 557.345 -1.67225 -0.987396 0
M  V30 5755 O 556.62 -0.958693 -1.69232 0
M  V30 5756 C 556.903 -3.5344 0.68936 0
M  V30 5757 C 556.756 -3.93517 2.17862 0
M  V30 5758 C 558.075 -4.39866 0.143555 0
M  V30 5759 H 555.194 -0.717989 0.166314 0
M  V30 5760 H 557.836 -1.57068 1.06909 0
M  V30 5761 H 555.986 -3.88147 0.165546 0
M  V30 5762 H 557.658 -3.69006 2.76826 0
M  V30 5763 H 555.901 -3.42798 2.65841 0
M  V30 5764 H 556.572 -5.02065 2.29422 0
M  V30 5765 H 559.048 -4.11875 0.591451 0
M  V30 5766 H 557.924 -5.47858 0.338043 0
M  V30 5767 H 558.185 -4.31696 -0.953466 0
M  V30 5768 N 557.244 -0.608902 -1.45362 0
M  V30 5769 C 558.154 0.110969 -2.34337 0
M  V30 5770 C 559.17 0.859007 -1.51318 0
M  V30 5771 O 560.346 0.816296 -1.84116 0
M  V30 5772 C 557.411 1.09494 -3.28956 0
M  V30 5773 C 556.472 0.348718 -4.27881 0
M  V30 5774 C 555.705 1.28582 -5.17979 0
M  V30 5775 O 555.928 2.52369 -5.11533 0
M  V30 5776 O 554.862 0.782172 -5.96796 0
M  V30 5777 H 558.688 -0.620258 -2.97299 0
M  V30 5778 H 556.273 -0.36916 -1.44767 0
M  V30 5779 H 558.155 1.66163 -3.87257 0
M  V30 5780 H 556.83 1.80717 -2.68557 0
M  V30 5781 H 555.737 -0.260465 -3.73192 0
M  V30 5782 H 557.07 -0.323049 -4.91139 0
M  V30 5783 N 558.722 1.53707 -0.348139 0
M  V30 5784 C 559.685 2.23812 0.494058 0
M  V30 5785 C 560.685 1.23989 1.02388 0
M  V30 5786 O 561.875 1.48395 0.912396 0
M  V30 5787 C 559.007 2.96133 1.68872 0
M  V30 5788 H 560.2 2.99663 -0.119141 0
M  V30 5789 H 557.753 1.55983 -0.0995539 0
M  V30 5790 H 558.488 2.24481 2.34049 0
M  V30 5791 H 558.273 3.69357 1.31596 0
M  V30 5792 H 559.763 3.49475 2.28597 0
M  V30 5793 N 560.2 0.0768682 1.57412 0
M  V30 5794 C 561.425 -0.603404 1.98428 0
M  V30 5795 C 561.85 -1.62047 0.955108 0
M  V30 5796 O 561.208 -1.81129 -0.0786778 0
M  V30 5797 C 561.256 -1.24396 3.38464 0
M  V30 5798 O 560.36 -2.35982 3.3821 0
M  V30 5799 H 559.701 -0.154741 0.645718 0
M  V30 5800 H 562.231 0.152885 2.04028 0
M  V30 5801 H 562.241 -1.5896 3.7576 0
M  V30 5802 H 560.916 -0.498735 4.12899 0
M  V30 5803 H 559.493 -2.03173 3.1269 0
M  V30 5804 N 561.678 -1.56367 -0.196722 0
M  V30 5805 C 562.625 -1.94417 -1.24382 0
M  V30 5806 C 563.595 -0.804543 -1.45315 0
M  V30 5807 O 564.78 -1.06256 -1.58475 0
M  V30 5808 C 561.92 -2.28757 -2.58388 0
M  V30 5809 C 561.033 -3.55775 -2.45047 0
M  V30 5810 C 560.168 -3.79445 -3.71746 0
M  V30 5811 C 559.207 -4.99894 -3.53231 0
M  V30 5812 N 558.344 -5.19826 -4.71938 0
M  V30 5813 H 563.184 -2.83691 -0.912338 0
M  V30 5814 H 560.721 -1.40392 -0.439135 0
M  V30 5815 H 562.679 -2.46682 -3.36457 0
M  V30 5816 H 561.309 -1.42625 -2.89582 0
M  V30 5817 H 560.361 -3.45905 -1.58284 0
M  V30 5818 H 561.673 -4.44 -2.27299 0
M  V30 5819 H 560.827 -3.97601 -4.58256 0
M  V30 5820 H 559.566 -2.89546 -3.92446 0
M  V30 5821 H 558.571 -4.81662 -2.65107 0
M  V30 5822 H 559.796 -5.913 -3.33978 0
M  V30 5823 H 557.742 -4.32875 -4.92905 0
M  V30 5824 H 557.659 -6.02228 -4.57009 0
M  V30 5825 H 558.927 -5.42439 -5.59803 0
M  V30 5826 N 563.156 0.464375 -1.50603 0
M  V30 5827 C 564.567 1.04507 -1.5471 0
M  V30 5828 C 564.918 1.9297 -0.354542 0
M  V30 5829 O 564.043 2.09763 0.531812 0
M  V30 5830 C 564.638 1.90207 -2.80369 0
M  V30 5831 C 563.197 2.43373 -2.87135 0
M  V30 5832 C 562.344 1.21886 -2.49076 0
M  V30 5833 H 565.295 0.246716 -1.56771 0
M  V30 5834 H 565.316 2.75353 -2.62604 0
M  V30 5835 H 564.828 1.25796 -3.67147 0
M  V30 5836 H 562.929 3.11318 -2.04724 0
M  V30 5837 H 563.042 2.7802 -3.90181 0
M  V30 5838 H 561.406 1.55575 -2.01664 0
M  V30 5839 H 562.189 0.591268 -3.3817 0
M  V30 5840 N 564.634 1.40294 0.718013 0
M  V30 5841 C 565.597 1.4012 1.81381 0
M  V30 5842 C 566.597 0.295405 1.58063 0
M  V30 5843 O 567.787 0.554187 1.6515 0
M  V30 5844 C 564.919 1.19056 3.19435 0
M  V30 5845 H 566.112 2.37645 1.82933 0
M  V30 5846 H 563.665 1.26107 0.923405 0
M  V30 5847 H 564.4 0.222809 3.23534 0
M  V30 5848 H 564.185 1.99152 3.37758 0
M  V30 5849 H 565.675 1.21716 3.99468 0
M  V30 5850 N 566.112 -0.949982 1.2575 0
M  V30 5851 C 567.342 -1.72721 1.13363 0
M  V30 5852 C 567.75 -1.86562 -0.314842 0
M  V30 5853 O 567.093 -1.36621 -1.22803 0
M  V30 5854 C 567.155 -3.15695 1.7198 0
M  V30 5855 C 566.819 -3.25268 3.21014 0
M  V30 5856 C 567.816 -3.09222 4.17945 0
M  V30 5857 C 565.501 -3.4894 3.61312 0
M  V30 5858 C 567.495 -3.16701 5.53154 0
M  V30 5859 C 565.182 -3.56055 4.96657 0
M  V30 5860 C 566.18 -3.3995 5.92387 0
M  V30 5861 O 565.868 -3.46757 7.25269 0
M  V30 5862 H 565.6 -0.547888 0.395973 0
M  V30 5863 H 568.154 -1.20009 1.66694 0
M  V30 5864 H 566.384 -3.69791 1.13101 0
M  V30 5865 H 568.073 -3.75295 1.54624 0
M  V30 5866 H 568.839 -2.90798 3.88151 0
M  V30 5867 H 564.718 -3.60534 2.87291 0
M  V30 5868 H 568.262 -3.04048 6.27854 0
M  V30 5869 H 564.159 -3.73997 5.26115 0
M  V30 5870 H 564.927 -3.63358 7.33426 0
M  V30 5871 N 567.59 -1.07411 -1.15328 0
M  V30 5872 C 568.836 -0.808666 -1.86634 0
M  V30 5873 C 569.191 0.65816 -1.80793 0
M  V30 5874 O 568.484 1.47689 -1.22059 0
M  V30 5875 C 568.678 -1.25191 -3.34757 0
M  V30 5876 C 568.507 -2.76028 -3.55019 0
M  V30 5877 C 567.277 -3.43644 -3.70455 0
M  V30 5878 C 569.475 -3.74224 -3.5279 0
M  V30 5879 N 567.457 -4.83117 -3.78776 0
M  V30 5880 C 568.828 -4.9954 -3.67233 0
M  V30 5881 C 570.883 -3.67373 -3.36068 0
M  V30 5882 C 569.586 -6.18819 -3.66682 0
M  V30 5883 C 571.612 -4.86116 -3.36816 0
M  V30 5884 C 570.974 -6.10266 -3.51789 0
M  V30 5885 H 567.073 -0.348478 -0.700062 0
M  V30 5886 H 569.657 -1.37049 -1.38295 0
M  V30 5887 H 567.828 -0.717775 -3.8171 0
M  V30 5888 H 569.56 -0.933936 -3.93776 0
M  V30 5889 H 566.315 -2.94051 -3.71256 0
M  V30 5890 H 566.739 -5.55705 -3.86679 0
M  V30 5891 H 571.381 -2.72334 -3.2341 0
M  V30 5892 H 569.099 -7.14179 -3.78118 0
M  V30 5893 H 572.685 -4.82492 -3.25103 0
M  V30 5894 H 571.565 -7.00609 -3.52301 0
M  V30 5895 N 569.068 1.32177 -0.85831 0
M  V30 5896 C 570.031 2.27086 -0.310588 0
M  V30 5897 C 571.031 1.51751 0.531806 0
M  V30 5898 O 572.221 1.70794 0.34279 0
M  V30 5899 C 569.353 3.36266 0.560179 0
M  V30 5900 H 570.546 2.77045 -1.1483 0
M  V30 5901 H 568.099 1.42911 -0.632942 0
M  V30 5902 H 568.834 2.9158 1.41956 0
M  V30 5903 H 568.619 3.92077 -0.0428473 0
M  V30 5904 H 570.109 4.06974 0.936056 0
M  V30 5905 N 570.547 0.616602 1.45037 0
M  V30 5906 C 571.51 -0.0871112 2.29034 0
M  V30 5907 C 572.51 -0.786414 1.40258 0
M  V30 5908 O 573.7 -0.633207 1.62284 0
M  V30 5909 C 570.832 -1.13369 3.21497 0
M  V30 5910 H 572.025 0.651497 2.92738 0
M  V30 5911 H 569.578 0.376058 1.51709 0
M  V30 5912 H 570.313 -1.90277 2.62612 0
M  V30 5913 H 570.098 -0.636358 3.86902 0
M  V30 5914 H 571.588 -1.62627 3.84633 0
M  V30 5915 N 572.025 -1.5352 0.356285 0
M  V30 5916 C 572.988 -2.24071 -0.482182 0
M  V30 5917 C 573.988 -1.24531 -1.01729 0
M  V30 5918 O 575.178 -1.48876 -0.904513 0
M  V30 5919 C 572.31 -2.97025 -1.67299 0
M  V30 5920 H 573.503 -2.99596 0.135031 0
M  V30 5921 H 571.056 -1.55928 0.107825 0
M  V30 5922 H 571.791 -2.25719 -2.32855 0
M  V30 5923 H 571.576 -3.7005 -1.29636 0
M  V30 5924 H 573.066 -3.50683 -2.26741 0
M  V30 5925 N 573.503 -0.0852151 -1.57369 0
M  V30 5926 C 574.436 0.913608 -2.09113 0
M  V30 5927 C 575.414 1.28264 -0.999358 0
M  V30 5928 O 576.598 1.3896 -1.27367 0
M  V30 5929 C 573.725 2.21777 -2.55993 0
M  V30 5930 C 572.771 1.99932 -3.76735 0
M  V30 5931 S 573.604 1.24637 -5.20794 0
M  V30 5932 C 574.76 2.56304 -5.71016 0
M  V30 5933 H 574.993 0.473369 -2.93507 0
M  V30 5934 H 572.526 0.127856 -1.5387 0
M  V30 5935 H 574.484 2.96726 -2.83662 0
M  V30 5936 H 573.145 2.62923 -1.71843 0
M  V30 5937 H 572.338 2.96482 -4.07571 0
M  V30 5938 H 571.94 1.33116 -3.49509 0
M  V30 5939 H 574.232 3.5233 -5.78679 0
M  V30 5940 H 575.175 2.3006 -6.69685 0
M  V30 5941 H 575.583 2.64125 -4.98897 0
M  V30 5942 N 574.981 1.5647 0.188427 0
M  V30 5943 C 576.227 1.81281 0.909124 0
M  V30 5944 C 576.56 0.66034 1.82628 0
M  V30 5945 O 575.835 -0.338737 1.91528 0
M  V30 5946 C 576.118 3.16388 1.7196 0
M  V30 5947 C 575.971 4.42137 0.826714 0
M  V30 5948 C 577.29 3.48256 2.69083 0
M  V30 5949 H 574.409 0.659457 0.329068 0
M  V30 5950 H 577.051 1.89182 0.176156 0
M  V30 5951 H 575.201 3.09784 2.34448 0
M  V30 5952 H 576.873 4.60794 0.216025 0
M  V30 5953 H 575.116 4.33594 0.133792 0
M  V30 5954 H 575.787 5.33184 1.42893 0
M  V30 5955 H 578.263 3.55203 2.16726 0
M  V30 5956 H 577.139 4.43899 3.2287 0
M  V30 5957 H 577.4 2.72088 3.48455 0
M  V30 5958 N 576.459 -0.456382 1.50847 0
M  V30 5959 C 577.389 -1.56025 1.73719 0
M  V30 5960 C 578.37 -1.5967 0.586473 0
M  V30 5961 O 579.555 -1.75702 0.827185 0
M  V30 5962 C 576.685 -2.94251 1.84483 0
M  V30 5963 C 575.639 -3.05471 2.99786 0
M  V30 5964 C 574.965 -4.45489 2.95709 0
M  V30 5965 C 576.265 -2.81318 4.40065 0
M  V30 5966 H 577.959 -1.37138 2.66146 0
M  V30 5967 H 575.505 -0.658299 1.28072 0
M  V30 5968 H 577.458 -3.71417 1.99067 0
M  V30 5969 H 576.182 -3.14328 0.886891 0
M  V30 5970 H 574.841 -2.30741 2.84876 0
M  V30 5971 H 574.489 -4.62505 1.97732 0
M  V30 5972 H 574.189 -4.53929 3.73125 0
M  V30 5973 H 575.713 -5.24655 3.12362 0
M  V30 5974 H 577.127 -3.48226 4.55425 0
M  V30 5975 H 575.524 -3.01188 5.19043 0
M  V30 5976 H 576.594 -1.7706 4.51418 0
M  V30 5977 N 577.937 -1.40673 -0.710563 0
M  V30 5978 C 578.867 -1.44095 -1.83736 0
M  V30 5979 C 579.848 -0.301286 -1.67411 0
M  V30 5980 O 581.033 -0.510618 -1.87367 0
M  V30 5981 C 578.163 -1.30773 -3.21738 0
M  V30 5982 C 577.117 -2.42395 -3.52745 0
M  V30 5983 C 576.443 -2.14147 -4.89944 0
M  V30 5984 C 577.743 -3.84738 -3.53234 0
M  V30 5985 H 579.437 -2.38396 -1.81129 0
M  V30 5986 H 576.983 -1.14746 -0.870017 0
M  V30 5987 H 578.936 -1.31783 -4.00264 0
M  V30 5988 H 577.66 -0.329507 -3.24934 0
M  V30 5989 H 576.319 -2.40643 -2.76562 0
M  V30 5990 H 575.967 -1.14703 -4.89747 0
M  V30 5991 H 575.667 -2.88934 -5.11655 0
M  V30 5992 H 577.191 -2.16848 -5.70797 0
M  V30 5993 H 578.605 -3.88286 -4.2179 0
M  V30 5994 H 577.002 -4.59085 -3.86473 0
M  V30 5995 H 578.072 -4.13962 -2.52514 0
M  V30 5996 N 579.415 0.9433 -1.26252 0
M  V30 5997 C 580.643 1.72367 -1.14443 0
M  V30 5998 C 581.058 1.86392 0.300572 0
M  V30 5999 O 580.415 1.36978 1.20596 0
M  V30 6000 C 580.466 3.13155 -1.806 0
M  V30 6001 O 580.187 2.99803 -3.19452 0
M  V30 6002 C 581.688 4.07417 -1.74717 0
M  V30 6003 H 578.908 0.539758 -0.398626 0
M  V30 6004 H 581.452 1.18268 -1.66832 0
M  V30 6005 H 579.607 3.64162 -1.32154 0
M  V30 6006 H 580.021 3.88697 -3.52158 0
M  V30 6007 H 581.495 5.03773 -2.25647 0
M  V30 6008 H 581.972 4.3337 -0.713244 0
M  V30 6009 H 582.578 3.6233 -2.22704 0
M  V30 6010 N 580.893 1.08022 1.14757 0
M  V30 6011 C 581.856 0.71048 2.1791 0
M  V30 6012 C 582.856 -0.252731 1.58801 0
M  V30 6013 O 584.046 -0.0327915 1.74169 0
M  V30 6014 C 581.178 0.0483203 3.40866 0
M  V30 6015 H 582.371 1.62384 2.52134 0
M  V30 6016 H 579.924 0.877595 1.29337 0
M  V30 6017 H 580.659 -0.876959 3.12218 0
M  V30 6018 H 580.444 0.741189 3.85031 0
M  V30 6019 H 581.934 -0.195471 4.17142 0
M  V30 6020 N 582.371 -1.3172 0.865308 0
M  V30 6021 C 583.617 -1.97559 0.483944 0
M  V30 6022 C 583.972 -1.67181 -0.95227 0
M  V30 6023 O 583.265 -0.955392 -1.66081 0
M  V30 6024 C 583.459 -3.5102 0.672283 0
M  V30 6025 C 583.288 -3.96312 2.12525 0
M  V30 6026 C 582.058 -4.22877 2.76591 0
M  V30 6027 C 584.256 -4.10596 3.09702 0
M  V30 6028 N 582.238 -4.5449 4.12689 0
M  V30 6029 C 583.609 -4.45867 4.30816 0
M  V30 6030 C 585.664 -3.92961 3.05755 0
M  V30 6031 C 584.367 -4.65344 5.48495 0
M  V30 6032 C 586.393 -4.13628 4.22688 0
M  V30 6033 C 585.755 -4.49227 5.42563 0
M  V30 6034 H 581.854 -0.74862 0.226035 0
M  V30 6035 H 584.438 -1.59336 1.11893 0
M  V30 6036 H 582.609 -3.88342 0.0669224 0
M  V30 6037 H 584.341 -4.03865 0.259765 0
M  V30 6038 H 581.096 -4.15343 2.27567 0
M  V30 6039 H 581.52 -4.74464 4.82921 0
M  V30 6040 H 586.162 -3.64531 2.14188 0
M  V30 6041 H 583.88 -4.92624 6.40584 0
M  V30 6042 H 587.466 -4.01474 4.21082 0
M  V30 6043 H 586.346 -4.64895 6.31539 0
M  V30 6044 N 583.85 -0.624285 -1.44708 0
M  V30 6045 C 584.783 0.133905 -2.27807 0
M  V30 6046 C 585.76 0.857794 -1.38133 0
M  V30 6047 O 586.945 0.863277 -1.6757 0
M  V30 6048 C 584.072 1.19541 -3.16903 0
M  V30 6049 C 583.118 0.572813 -4.22636 0
M  V30 6050 S 583.951 -0.631953 -5.31758 0
M  V30 6051 C 585.106 0.429733 -6.24423 0
M  V30 6052 H 585.34 -0.571072 -2.91764 0
M  V30 6053 H 582.873 -0.412261 -1.48794 0
M  V30 6054 H 584.831 1.80293 -3.68788 0
M  V30 6055 H 583.492 1.87255 -2.5218 0
M  V30 6056 H 582.685 1.37205 -4.84965 0
M  V30 6057 H 582.287 0.0400641 -3.73979 0
M  V30 6058 H 584.579 1.30421 -6.64828 0
M  V30 6059 H 585.522 -0.157804 -7.07924 0
M  V30 6060 H 585.93 0.75256 -5.59461 0
M  V30 6061 N 585.328 1.53329 -0.364422 0
M  V30 6062 C 586.739 1.86345 0.115039 0
M  V30 6063 C 587.09 1.28505 1.4826 0
M  V30 6064 O 586.215 0.606639 2.07723 0
M  V30 6065 C 586.81 3.38114 0.215522 0
M  V30 6066 C 585.369 3.70932 0.639237 0
M  V30 6067 C 584.516 2.76471 -0.214261 0
M  V30 6068 H 587.467 1.47593 -0.583258 0
M  V30 6069 H 587.488 3.66031 1.0393 0
M  V30 6070 H 587 3.80182 -0.779948 0
M  V30 6071 H 585.101 3.3442 1.64298 0
M  V30 6072 H 585.214 4.77302 0.41465 0
M  V30 6073 H 583.578 2.52724 0.316678 0
M  V30 6074 H 584.361 3.21373 -1.20725 0
M  V30 6075 N 586.806 0.0935595 1.57322 0
M  V30 6076 C 588.053 -0.570509 1.94297 0
M  V30 6077 C 588.381 -1.68286 0.97519 0
M  V30 6078 O 587.636 -1.95699 -0.00548655 0
M  V30 6079 C 587.935 -1.16692 3.37813 0
M  V30 6080 C 587.601 -0.178509 4.50547 0
M  V30 6081 C 586.263 0.0933475 4.81109 0
M  V30 6082 C 588.615 0.496472 5.1883 0
M  V30 6083 C 585.943 1.0469 5.77284 0
M  V30 6084 C 588.295 1.43849 6.16028 0
M  V30 6085 C 586.959 1.71859 6.44997 0
M  V30 6086 H 586.229 -0.208764 0.710984 0
M  V30 6087 H 588.876 0.169066 1.90752 0
M  V30 6088 H 587.181 -1.98271 3.37929 0
M  V30 6089 H 588.878 -1.6884 3.63722 0
M  V30 6090 H 585.468 -0.400584 4.26724 0
M  V30 6091 H 589.652 0.299584 4.95395 0
M  V30 6092 H 584.908 1.27094 5.98044 0
M  V30 6093 H 589.082 1.96734 6.68034 0
M  V30 6094 H 586.709 2.45906 7.19329 0
M  V30 6095 N 588.284 -1.56567 -0.180126 0
M  V30 6096 C 589.232 -1.96632 -1.24251 0
M  V30 6097 C 590.226 -0.853818 -1.46309 0
M  V30 6098 O 591.432 -1.0389 -1.46993 0
M  V30 6099 H 587.807 -0.625476 -0.417473 0
M  V30 6100 H 589.778 -2.85201 -0.877679 0
M  V30 6101 C 588.527 -2.33486 -2.57642 0
M  V30 6102 H 587.85 -3.18626 -2.4149 0
M  V30 6103 H 589.29 -2.65371 -3.30688 0
M  V30 6104 C 587.749 -1.17499 -3.15746 0
M  V30 6105 O 588.279 -0.457956 -3.99081 0
M  V30 6106 N 586.485 -0.94786 -2.74707 0
M  V30 6107 H 586.032 -1.53269 -2.07042 0
M  V30 6108 H 585.99 -0.173626 -3.1392 0
M  V30 6109 N 589.762 0.448376 -1.51087 0
M  V30 6110 C 590.71 1.56407 -1.72161 0
M  V30 6111 C 591.704 1.58878 -0.587721 0
M  V30 6112 O 592.91 1.62755 -0.768822 0
M  V30 6113 H 589.285 0.519423 -0.543786 0
M  V30 6114 H 591.256 1.35803 -2.65707 0
M  V30 6115 C 590.005 2.94163 -1.85373 0
M  V30 6116 H 589.328 2.9299 -2.72024 0
M  V30 6117 H 590.768 3.71625 -2.04135 0
M  V30 6118 C 589.227 3.31317 -0.610803 0
M  V30 6119 O 589.757 4.00985 0.239636 0
M  V30 6120 N 587.963 2.86966 -0.458127 0
M  V30 6121 H 587.51 2.30443 -1.15124 0
M  V30 6122 H 587.468 3.12188 0.372289 0
M  V30 6123 N 591.24 1.41047 0.703093 0
M  V30 6124 C 592.488 1.39723 1.4602 0
M  V30 6125 C 592.809 0.00461257 1.94999 0
M  V30 6126 O 592.079 -0.952292 1.71196 0
M  V30 6127 H 590.659 0.514281 0.541779 0
M  V30 6128 H 593.321 1.76217 0.832678 0
M  V30 6129 H 592.417 2.07982 2.32701 0
M  V30 6130 N 592.718 -0.936591 1.26751 0
M  V30 6131 C 593.648 -2.05315 1.11212 0
M  V30 6132 C 594.629 -1.70092 0.0160262 0
M  V30 6133 O 595.814 -1.93279 0.188894 0
M  V30 6134 C 592.944 -3.39123 0.749171 0
M  V30 6135 C 591.898 -3.88425 1.79751 0
M  V30 6136 C 591.224 -5.18936 1.28876 0
M  V30 6137 C 592.524 -4.12798 3.19992 0
M  V30 6138 H 594.218 -2.18573 2.04613 0
M  V30 6139 H 591.764 -1.05027 0.985159 0
M  V30 6140 H 593.717 -4.16704 0.627323 0
M  V30 6141 H 592.441 -3.25855 -0.220543 0
M  V30 6142 H 591.1 -3.13028 1.90811 0
M  V30 6143 H 590.748 -5.02051 0.308757 0
M  V30 6144 H 590.448 -5.52892 1.98958 0
M  V30 6145 H 591.972 -5.99096 1.17967 0
M  V30 6146 H 593.386 -4.80977 3.11983 0
M  V30 6147 H 591.783 -4.58044 3.87705 0
M  V30 6148 H 592.853 -3.18412 3.65707 0
M  V30 6149 N 594.196 -1.08629 -1.14182 0
M  V30 6150 C 595.612 -0.814363 -1.3726 0
M  V30 6151 C 595.812 0.575271 -1.93114 0
M  V30 6152 O 594.868 1.33165 -2.1453 0
M  V30 6153 C 596.181 -1.8989 -2.33157 0
M  V30 6154 C 597.729 -1.92518 -2.46791 0
M  V30 6155 C 598.204 -3.00092 -3.45989 0
M  V30 6156 N 599.695 -2.99279 -3.53534 0
M  V30 6157 C 600.43 -3.79158 -4.30147 0
M  V30 6158 N 599.926 -4.68923 -5.09983 0
M  V30 6159 N 601.719 -3.67451 -4.25366 0
M  V30 6160 H 593.87 -1.98232 -0.762758 0
M  V30 6161 H 596.133 -0.860383 -0.398051 0
M  V30 6162 H 595.839 -2.89809 -1.99257 0
M  V30 6163 H 595.713 -1.77013 -3.33086 0
M  V30 6164 H 598.1 -0.932425 -2.79982 0
M  V30 6165 H 598.181 -2.09473 -1.46816 0
M  V30 6166 H 597.825 -3.99575 -3.13532 0
M  V30 6167 H 597.755 -2.80382 -4.45751 0
M  V30 6168 H 600.246 -2.3422 -2.96563 0
M  V30 6169 H 600.559 -5.26475 -5.65724 0
M  V30 6170 H 598.904 -4.72964 -5.09244 0
M  V30 6171 H 602.095 -2.9669 -3.62067 0
M  V30 6172 H 602.268 -4.29944 -4.84822 0
M  V30 6173 N 595.674 1.31259 -0.872281 0
M  V30 6174 C 597.085 1.78822 -0.536617 0
M  V30 6175 C 597.436 1.71855 0.946594 0
M  V30 6176 O 596.561 1.28769 1.73918 0
M  V30 6177 C 597.156 3.24698 -0.967294 0
M  V30 6178 C 595.715 3.70147 -0.683251 0
M  V30 6179 C 594.862 2.51994 -1.15733 0
M  V30 6180 H 597.813 1.18308 -1.05777 0
M  V30 6181 H 597.834 3.79386 -0.290929 0
M  V30 6182 H 597.346 3.29737 -2.04683 0
M  V30 6183 H 595.447 3.70607 0.384825 0
M  V30 6184 H 595.56 4.62183 -1.2619 0
M  V30 6185 H 593.924 2.48078 -0.577024 0
M  V30 6186 H 594.707 2.59778 -2.24434 0
M  V30 6187 N 597.152 0.631951 1.44375 0
M  V30 6188 C 598.062 -0.073674 2.34484 0
M  V30 6189 C 599.078 -0.834825 1.52665 0
M  V30 6190 O 600.254 -0.786902 1.85391 0
M  V30 6191 C 597.319 -1.04247 3.30656 0
M  V30 6192 C 596.38 -0.280602 4.28382 0
M  V30 6193 C 595.613 -1.20325 5.19959 0
M  V30 6194 O 595.836 -2.44199 5.15484 0
M  V30 6195 O 594.77 -0.687128 5.97965 0
M  V30 6196 H 598.596 0.667477 2.96274 0
M  V30 6197 H 596.181 0.392144 1.44162 0
M  V30 6198 H 598.063 -1.59981 3.89851 0
M  V30 6199 H 596.738 -1.76422 2.71398 0
M  V30 6200 H 595.645 0.319804 3.72731 0
M  V30 6201 H 596.978 0.401144 4.90563 0
M  V30 6202 N 598.631 -1.53133 0.372548 0
M  V30 6203 C 599.879 -2.00958 -0.214534 0
M  V30 6204 C 600.2 -1.26135 -1.48711 0
M  V30 6205 O 599.47 -0.376597 -1.92246 0
M  V30 6206 H 598.05 -0.742456 -0.0822664 0
M  V30 6207 H 600.712 -1.88367 0.500385 0
M  V30 6208 H 599.808 -3.09031 -0.436605 0
M  V30 6209 N 600.109 -0.101901 -1.5727 0
M  V30 6210 C 601.358 0.559922 -1.93772 0
M  V30 6211 C 601.671 1.68913 -0.98629 0
M  V30 6212 O 602.877 2.41256 -1.24529 0
M  V30 6213 C 601.333 1.04739 -3.44322 0
M  V30 6214 C 600.941 -0.05243 -4.47969 0
M  V30 6215 C 602.685 1.68157 -3.89774 0
M  V30 6216 C 600.592 0.450781 -5.8968 0
M  V30 6217 H 599.522 0.212931 -0.723309 0
M  V30 6218 H 602.173 -0.179001 -1.82625 0
M  V30 6219 H 600.555 1.84021 -3.50645 0
M  V30 6220 H 601.729 -0.828157 -4.53297 0
M  V30 6221 H 600.044 -0.592202 -4.12167 0
M  V30 6222 H 602.641 2.0689 -4.93052 0
M  V30 6223 H 602.984 2.55338 -3.28798 0
M  V30 6224 H 603.517 0.954453 -3.8618 0
M  V30 6225 H 600.256 -0.38458 -6.54371 0
M  V30 6226 H 599.776 1.19336 -5.87809 0
M  V30 6227 H 601.455 0.917555 -6.40461 0
M  V30 6228 N 601.587 1.56661 0.17182 0
M  V30 6229 C 602.836 1.81158 0.886831 0
M  V30 6230 C 603.149 0.679072 1.83434 0
M  V30 6231 O 604.355 0.808964 2.59168 0
M  V30 6232 C 602.811 3.20999 1.6275 0
M  V30 6233 C 602.419 4.42117 0.723652 0
M  V30 6234 C 604.163 3.5479 2.33076 0
M  V30 6235 C 602.07 5.7298 1.46452 0
M  V30 6236 H 601 0.675543 0.334899 0
M  V30 6237 H 603.651 1.82967 0.139765 0
M  V30 6238 H 602.033 3.13506 2.4193 0
M  V30 6239 H 603.207 4.60789 -0.0311485 0
M  V30 6240 H 601.522 4.16197 0.130063 0
M  V30 6241 H 604.119 4.49806 2.89099 0
M  V30 6242 H 604.462 2.79646 3.08389 0
M  V30 6243 H 604.995 3.63834 1.6084 0
M  V30 6244 H 601.734 6.51152 0.753729 0
M  V30 6245 H 601.254 5.58285 2.19266 0
M  V30 6246 H 602.933 6.14916 2.01214 0
M  V30 6247 N 603.065 -0.440357 1.51323 0
M  V30 6248 C 604.028 -1.51679 1.71832 0
M  V30 6249 C 605.028 -1.49648 0.588386 0
M  V30 6250 O 606.218 -1.51724 0.855891 0
M  V30 6251 C 603.35 -2.91228 1.77199 0
M  V30 6252 H 604.543 -1.34799 2.67898 0
M  V30 6253 H 602.096 -0.66883 1.41267 0
M  V30 6254 H 602.831 -3.13516 0.829363 0
M  V30 6255 H 602.616 -2.94107 2.59314 0
M  V30 6256 H 604.106 -3.69321 1.94915 0
M  V30 6257 N 604.543 -1.41418 -0.695603 0
M  V30 6258 C 605.473 -1.46035 -1.82197 0
M  V30 6259 C 606.454 -0.319025 -1.67082 0
M  V30 6260 O 607.639 -0.530462 -1.86815 0
M  V30 6261 C 604.769 -1.34179 -3.20333 0
M  V30 6262 C 603.723 -2.46123 -3.50154 0
M  V30 6263 C 603.049 -2.19332 -4.87645 0
M  V30 6264 C 604.349 -3.88463 -3.49133 0
M  V30 6265 H 606.043 -2.40303 -1.78591 0
M  V30 6266 H 603.589 -1.15663 -0.857797 0
M  V30 6267 H 605.542 -1.36021 -3.98844 0
M  V30 6268 H 604.266 -0.363952 -3.24566 0
M  V30 6269 H 602.925 -2.43563 -2.73994 0
M  V30 6270 H 602.573 -1.19891 -4.88503 0
M  V30 6271 H 602.273 -2.94344 -5.08562 0
M  V30 6272 H 603.797 -2.22889 -5.68465 0
M  V30 6273 H 605.211 -3.92738 -4.17648 0
M  V30 6274 H 603.608 -4.63158 -3.81582 0
M  V30 6275 H 604.678 -4.16617 -2.48109 0
M  V30 6276 N 606.021 0.929856 -1.27246 0
M  V30 6277 C 607.269 1.674 -1.13233 0
M  V30 6278 C 607.59 1.92311 0.322744 0
M  V30 6279 O 606.86 1.52784 1.22612 0
M  V30 6280 H 605.44 0.620411 -0.416052 0
M  V30 6281 H 608.102 1.11663 -1.59741 0
M  V30 6282 H 607.198 2.64308 -1.65975 0
M  V30 6283 N 607.499 1.09233 1.13605 0
M  V30 6284 C 608.724 0.849067 1.89224 0
M  V30 6285 C 609.149 -0.593875 1.78479 0
M  V30 6286 O 608.507 -1.41703 1.13092 0
M  V30 6287 C 608.555 1.28642 3.36873 0
M  V30 6288 O 607.659 0.44363 4.10007 0
M  V30 6289 H 607 0.30767 0.588417 0
M  V30 6290 H 609.53 1.45595 1.43748 0
M  V30 6291 H 609.54 1.27096 3.87699 0
M  V30 6292 H 608.215 2.33729 3.44011 0
M  V30 6293 H 606.792 0.523241 3.69211 0
M  V30 6294 N 608.977 -1.30795 0.87923 0
M  V30 6295 C 609.907 -2.30742 0.357796 0
M  V30 6296 C 610.888 -1.60747 -0.556283 0
M  V30 6297 O 612.073 -1.88393 -0.47135 0
M  V30 6298 C 609.203 -3.44583 -0.433555 0
M  V30 6299 C 608.157 -4.26235 0.388251 0
M  V30 6300 C 607.483 -5.32073 -0.529352 0
M  V30 6301 C 608.783 -4.96303 1.62729 0
M  V30 6302 H 610.477 -2.74605 1.19299 0
M  V30 6303 H 608.023 -1.32017 0.575104 0
M  V30 6304 H 609.976 -4.13563 -0.808934 0
M  V30 6305 H 608.7 -2.99511 -1.30234 0
M  V30 6306 H 607.359 -3.58936 0.745695 0
M  V30 6307 H 607.007 -4.83249 -1.39569 0
M  V30 6308 H 606.707 -5.87598 0.0166741 0
M  V30 6309 H 608.231 -6.0391 -0.901373 0
M  V30 6310 H 609.645 -5.5783 1.32283 0
M  V30 6311 H 608.042 -5.61666 2.11309 0
M  V30 6312 H 609.112 -4.22758 2.37494 0
M  V30 6313 N 610.455 -0.639598 -1.44038 0
M  V30 6314 C 611.701 -0.147698 -2.02261 0
M  V30 6315 C 612.034 1.23031 -1.50256 0
M  V30 6316 O 611.309 1.81847 -0.690068 0
M  V30 6317 C 611.592 -0.14362 -3.59813 0
M  V30 6318 C 611.445 -1.55458 -4.22082 0
M  V30 6319 C 612.764 0.527317 -4.36929 0
M  V30 6320 H 609.883 -0.0551453 -0.734934 0
M  V30 6321 H 612.525 -0.817688 -1.71505 0
M  V30 6322 H 610.675 0.426898 -3.86147 0
M  V30 6323 H 612.347 -2.17464 -4.06826 0
M  V30 6324 H 610.59 -2.10594 -3.79253 0
M  V30 6325 H 611.261 -1.50369 -5.31124 0
M  V30 6326 H 613.737 0.0420504 -4.16079 0
M  V30 6327 H 612.613 0.499389 -5.46624 0
M  V30 6328 H 612.874 1.59914 -4.12165 0
M  V30 6329 N 611.933 1.52934 -0.380664 0
M  V30 6330 C 613.161 2.05886 0.204599 0
M  V30 6331 C 613.576 1.25305 1.41223 0
M  V30 6332 O 612.933 0.297504 1.80059 0
M  V30 6333 C 612.984 3.56764 0.583249 0
M  V30 6334 O 612.705 4.34292 -0.576398 0
M  V30 6335 C 614.206 4.2603 1.2253 0
M  V30 6336 H 611.426 0.670193 0.0328991 0
M  V30 6337 H 613.97 1.97148 -0.543397 0
M  V30 6338 H 612.125 3.65603 1.28115 0
M  V30 6339 H 612.539 5.23819 -0.267119 0
M  V30 6340 H 614.013 5.32868 1.44068 0
M  V30 6341 H 614.49 3.80698 2.19011 0
M  V30 6342 H 615.096 4.21485 0.568407 0
M  V30 6343 N 613.412 0.11024 1.57214 0
M  V30 6344 C 614.642 -0.557025 1.98949 0
M  V30 6345 C 615.05 -1.61317 0.988606 0
M  V30 6346 O 614.393 -1.83679 -0.0279159 0
M  V30 6347 C 614.455 -1.24956 3.37085 0
M  V30 6348 C 614.119 -0.342398 4.55716 0
M  V30 6349 C 615.116 0.415511 5.18237 0
M  V30 6350 C 612.801 -0.256029 5.01647 0
M  V30 6351 C 614.795 1.24761 6.25071 0
M  V30 6352 C 612.482 0.579713 6.08344 0
M  V30 6353 C 613.48 1.33017 6.69922 0
M  V30 6354 O 613.168 2.15205 7.74559 0
M  V30 6355 H 612.9 -0.152792 0.658506 0
M  V30 6356 H 615.454 0.19076 2.04512 0
M  V30 6357 H 613.684 -2.04424 3.2825 0
M  V30 6358 H 615.373 -1.81286 3.63167 0
M  V30 6359 H 616.139 0.358605 4.83672 0
M  V30 6360 H 612.018 -0.829831 4.5347 0
M  V30 6361 H 615.562 1.83386 6.73064 0
M  V30 6362 H 611.459 0.638044 6.42339 0
M  V30 6363 H 612.227 2.08052 7.91617 0
M  V30 6364 N 614.89 -1.56749 -0.16351 0
M  V30 6365 C 616.136 -1.82704 -0.880168 0
M  V30 6366 C 616.469 -0.689311 -1.81555 0
M  V30 6367 O 615.744 0.308224 -1.92042 0
M  V30 6368 C 616.027 -3.19084 -1.66905 0
M  V30 6369 C 615.88 -4.43397 -0.756269 0
M  V30 6370 C 617.199 -3.52493 -2.63509 0
M  V30 6371 H 614.318 -0.664608 -0.318535 0
M  V30 6372 H 616.96 -1.89438 -0.146036 0
M  V30 6373 H 615.11 -3.13475 -2.2949 0
M  V30 6374 H 616.782 -4.61079 -0.14269 0
M  V30 6375 H 615.025 -4.33752 -0.0647944 0
M  V30 6376 H 615.696 -5.3539 -1.34393 0
M  V30 6377 H 618.172 -3.58606 -2.11047 0
M  V30 6378 H 617.048 -4.48979 -3.15767 0
M  V30 6379 H 617.309 -2.77597 -3.44082 0
M  V30 6380 N 616.368 0.432326 -1.51554 0
M  V30 6381 C 617.298 1.53242 -1.76179 0
M  V30 6382 C 618.279 1.58717 -0.611801 0
M  V30 6383 O 619.464 1.74364 -0.855033 0
M  V30 6384 C 616.594 2.91278 -1.89141 0
M  V30 6385 C 615.548 3.00663 -3.04608 0
M  V30 6386 C 614.874 4.40728 -3.02759 0
M  V30 6387 C 616.174 2.74281 -4.44485 0
M  V30 6388 H 617.868 1.32886 -2.68294 0
M  V30 6389 H 615.414 0.637841 -1.29103 0
M  V30 6390 H 617.367 3.68203 -2.04951 0
M  V30 6391 H 616.091 3.12877 -0.936785 0
M  V30 6392 H 614.75 2.26179 -2.88511 0
M  V30 6393 H 614.398 4.59301 -2.05065 0
M  V30 6394 H 614.098 4.47936 -3.80299 0
M  V30 6395 H 615.622 5.19619 -3.20669 0
M  V30 6396 H 617.036 3.40936 -4.60907 0
M  V30 6397 H 615.433 2.92893 -5.23769 0
M  V30 6398 H 616.503 1.69856 -4.54177 0
M  V30 6399 N 617.846 1.41785 0.688094 0
M  V30 6400 C 619.095 1.4084 1.44385 0
M  V30 6401 C 619.408 0.0234166 1.95586 0
M  V30 6402 O 620.614 -0.108647 2.71283 0
M  V30 6403 C 619.07 2.47675 2.61123 0
M  V30 6404 C 618.678 3.92116 2.16677 0
M  V30 6405 C 620.422 2.55877 3.38714 0
M  V30 6406 C 618.329 4.90487 3.30419 0
M  V30 6407 H 617.259 0.523787 0.542368 0
M  V30 6408 H 619.91 1.6764 0.74627 0
M  V30 6409 H 618.292 2.14018 3.33185 0
M  V30 6410 H 619.466 4.35059 1.51856 0
M  V30 6411 H 617.781 3.87642 1.5206 0
M  V30 6412 H 620.378 3.26553 4.234 0
M  V30 6413 H 620.721 1.59801 3.84408 0
M  V30 6414 H 621.254 2.88662 2.73714 0
M  V30 6415 H 617.993 5.87994 2.89729 0
M  V30 6416 H 617.513 4.52187 3.94065 0
M  V30 6417 H 619.192 5.11591 3.96085 0
M  V30 6418 N 619.324 -0.923095 1.27737 0
M  V30 6419 C 620.234 -2.05765 1.12685 0
M  V30 6420 C 621.25 -1.73911 0.0557197 0
M  V30 6421 O 622.426 -1.99674 0.263137 0
M  V30 6422 C 619.491 -3.37804 0.780363 0
M  V30 6423 C 618.552 -3.83326 1.93286 0
M  V30 6424 C 617.785 -5.09064 1.60281 0
M  V30 6425 O 618.008 -5.6809 0.512828 0
M  V30 6426 O 616.942 -5.50071 2.44347 0
M  V30 6427 H 620.768 -2.21378 2.07907 0
M  V30 6428 H 618.353 -1.04299 1.06968 0
M  V30 6429 H 620.235 -4.17097 0.600668 0
M  V30 6430 H 618.91 -3.23387 -0.142291 0
M  V30 6431 H 617.817 -3.049 2.16764 0
M  V30 6432 H 619.15 -4.02292 2.83588 0
M  V30 6433 N 620.802 -1.09834 -1.13024 0
M  V30 6434 C 622.218 -0.828875 -1.36388 0
M  V30 6435 C 622.418 0.554756 -1.93713 0
M  V30 6436 O 621.474 1.30882 -2.15931 0
M  V30 6437 C 622.787 -1.92352 -2.3113 0
M  V30 6438 C 624.335 -1.95124 -2.44735 0
M  V30 6439 C 624.81 -3.03745 -3.42787 0
M  V30 6440 N 626.301 -3.03012 -3.5034 0
M  V30 6441 C 627.036 -3.83699 -4.26101 0
M  V30 6442 N 626.532 -4.74306 -5.04981 0
M  V30 6443 N 628.325 -3.71942 -4.21445 0
M  V30 6444 H 620.476 -1.99029 -0.74169 0
M  V30 6445 H 622.739 -0.864557 -0.388903 0
M  V30 6446 H 622.445 -2.91906 -1.96172 0
M  V30 6447 H 622.319 -1.80536 -3.3119 0
M  V30 6448 H 624.706 -0.962069 -2.78977 0
M  V30 6449 H 624.787 -2.11018 -1.44586 0
M  V30 6450 H 624.431 -4.02878 -3.09276 0
M  V30 6451 H 624.361 -2.85094 -4.42752 0
M  V30 6452 H 626.852 -2.37352 -2.94062 0
M  V30 6453 H 627.165 -5.32446 -5.60108 0
M  V30 6454 H 625.51 -4.78339 -5.04199 0
M  V30 6455 H 628.701 -3.00513 -3.589 0
M  V30 6456 H 628.874 -4.35062 -4.80235 0
M  V30 6457 N 622.28 1.30327 -0.886154 0
M  V30 6458 C 623.505 2.0079 -0.519425 0
M  V30 6459 C 623.93 1.65979 0.885013 0
M  V30 6460 O 623.288 0.877043 1.58675 0
M  V30 6461 C 623.336 3.53686 -0.702758 0
M  V30 6462 O 622.44 4.11637 0.250828 0
M  V30 6463 H 621.781 0.63171 -0.204544 0
M  V30 6464 H 624.311 1.66145 -1.19402 0
M  V30 6465 H 624.321 4.03531 -0.602207 0
M  V30 6466 H 622.996 3.78361 -1.72673 0
M  V30 6467 H 621.573 3.72755 0.103873 0
M  V30 6468 N 623.758 0.647228 1.43697 0
M  V30 6469 C 624.691 -0.097646 2.27991 0
M  V30 6470 C 625.669 -0.83571 1.3948 0
M  V30 6471 O 626.853 -0.836509 1.68922 0
M  V30 6472 C 623.98 -1.14484 3.18765 0
M  V30 6473 C 623.026 -0.505503 4.23494 0
M  V30 6474 S 623.859 0.716471 5.30685 0
M  V30 6475 C 625.015 -0.330339 6.25028 0
M  V30 6476 H 625.248 0.617417 2.90818 0
M  V30 6477 H 622.781 0.435881 1.4812 0
M  V30 6478 H 624.739 -1.74403 3.7161 0
M  V30 6479 H 623.4 -1.83219 2.55127 0
M  V30 6480 H 622.593 -1.29473 4.87086 0
M  V30 6481 H 622.195 0.0194377 3.73995 0
M  V30 6482 H 624.487 -1.19828 6.66819 0
M  V30 6483 H 625.43 0.270409 7.07583 0
M  V30 6484 H 625.838 -0.663459 5.60588 0
M  V30 6485 N 625.236 -1.5273 0.388769 0
M  V30 6486 C 626.652 -1.59553 0.0387049 0
M  V30 6487 C 626.852 -1.40278 -1.44652 0
M  V30 6488 O 625.908 -1.21951 -2.21098 0
M  V30 6489 C 627.221 -2.9625 0.515409 0
M  V30 6490 C 628.769 -3.09426 0.471621 0
M  V30 6491 C 629.244 -4.48572 0.924505 0
M  V30 6492 N 630.735 -4.54754 0.880496 0
M  V30 6493 C 631.47 -5.60653 1.20234 0
M  V30 6494 N 630.966 -6.74198 1.59463 0
M  V30 6495 N 632.759 -5.50755 1.12363 0
M  V30 6496 H 624.91 -1.63508 1.35569 0
M  V30 6497 H 627.173 -0.768097 0.555636 0
M  V30 6498 H 626.879 -3.15569 1.5527 0
M  V30 6499 H 626.753 -3.77102 -0.085792 0
M  V30 6500 H 629.14 -2.89804 -0.556588 0
M  V30 6501 H 629.221 -2.30528 1.10862 0
M  V30 6502 H 628.865 -4.68936 1.95094 0
M  V30 6503 H 628.795 -5.25935 0.264524 0
M  V30 6504 H 631.286 -3.73237 0.591815 0
M  V30 6505 H 631.599 -7.5097 1.82385 0
M  V30 6506 H 629.944 -6.75531 1.63349 0
M  V30 6507 H 633.135 -4.6093 0.816169 0
M  V30 6508 H 633.308 -6.33184 1.37777 0
M  V30 6509 N 626.714 -0.118576 -1.57153 0
M  V30 6510 C 627.944 0.546466 -1.99242 0
M  V30 6511 C 628.352 1.60791 -0.997148 0
M  V30 6512 O 627.695 1.83691 0.0181745 0
M  V30 6513 C 627.757 1.23167 -3.37743 0
M  V30 6514 C 627.421 0.318226 -4.55891 0
M  V30 6515 C 628.418 -0.442988 -5.18009 0
M  V30 6516 C 626.103 0.229421 -5.01776 0
M  V30 6517 C 628.097 -1.28074 -6.244 0
M  V30 6518 C 625.784 -0.611966 -6.08028 0
M  V30 6519 C 626.782 -1.36568 -6.69207 0
M  V30 6520 O 626.47 -2.1931 -7.73407 0
M  V30 6521 H 626.202 0.149297 -0.659307 0
M  V30 6522 H 628.756 -0.201603 -2.04408 0
M  V30 6523 H 626.986 2.0268 -3.29329 0
M  V30 6524 H 628.675 1.79358 -3.64123 0
M  V30 6525 H 629.441 -0.38425 -4.83475 0
M  V30 6526 H 625.32 0.805771 -4.53903 0
M  V30 6527 H 628.864 -1.86952 -6.72082 0
M  V30 6528 H 624.761 -0.6721 -6.41991 0
M  V30 6529 H 625.529 -2.12247 -7.90502 0
M  V30 6530 N 628.193 1.56834 0.155195 0
M  V30 6531 C 629.418 1.87412 0.888337 0
M  V30 6532 C 629.843 0.70671 1.74319 0
M  V30 6533 O 629.201 -0.343892 1.78009 0
M  V30 6534 C 629.249 3.1652 1.72765 0
M  V30 6535 O 628.353 2.99877 2.83103 0
M  V30 6536 H 627.694 0.615983 0.247914 0
M  V30 6537 H 630.224 2.04061 0.148478 0
M  V30 6538 H 630.234 3.48334 2.12433 0
M  V30 6539 H 628.909 4.01094 1.09985 0
M  V30 6540 H 627.486 2.79453 2.46902 0
M  V30 6541 N 629.671 -0.424282 1.51781 0
M  V30 6542 C 631.087 -0.761768 1.40247 0
M  V30 6543 C 631.287 -1.95324 0.495041 0
M  V30 6544 O 630.343 -2.5246 -0.0448949 0
M  V30 6545 C 631.656 -1.0299 2.82513 0
M  V30 6546 C 633.204 -1.13354 2.91753 0
M  V30 6547 C 633.679 -1.43453 4.34954 0
M  V30 6548 N 635.17 -1.5035 4.3812 0
M  V30 6549 C 635.905 -1.75236 5.45967 0
M  V30 6550 N 635.401 -1.97827 6.63955 0
M  V30 6551 N 637.194 -1.77126 5.33463 0
M  V30 6552 H 629.345 0.360228 2.09323 0
M  V30 6553 H 631.608 0.0988128 0.942836 0
M  V30 6554 H 631.314 -0.226961 3.50967 0
M  V30 6555 H 631.188 -1.95411 3.22637 0
M  V30 6556 H 633.575 -1.92709 2.23489 0
M  V30 6557 H 633.656 -0.188041 2.55108 0
M  V30 6558 H 633.3 -0.646209 5.03772 0
M  V30 6559 H 633.23 -2.3923 4.69123 0
M  V30 6560 H 635.721 -1.34742 3.53062 0
M  V30 6561 H 636.034 -2.16223 7.41935 0
M  V30 6562 H 634.379 -1.95123 6.67047 0
M  V30 6563 H 637.57 -1.59005 4.40267 0
M  V30 6564 H 637.743 -1.96182 6.17589 0
M  V30 6565 N 631.149 -1.42148 -0.680565 0
M  V30 6566 C 632.079 -1.4796 -1.80638 0
M  V30 6567 C 633.06 -0.336728 -1.66734 0
M  V30 6568 O 634.245 -0.550247 -1.86242 0
M  V30 6569 C 631.375 -1.37569 -3.18892 0
M  V30 6570 C 630.329 -2.49823 -3.47524 0
M  V30 6571 C 629.655 -2.24491 -4.85291 0
M  V30 6572 C 630.955 -3.92144 -3.44994 0
M  V30 6573 H 632.649 -2.42184 -1.76032 0
M  V30 6574 H 630.195 -1.16566 -0.845481 0
M  V30 6575 H 632.148 -1.40243 -3.97379 0
M  V30 6576 H 630.872 -0.398357 -3.24162 0
M  V30 6577 H 629.531 -2.46455 -2.71395 0
M  V30 6578 H 629.179 -1.25066 -4.87204 0
M  V30 6579 H 628.879 -2.99722 -5.05411 0
M  V30 6580 H 630.403 -2.28906 -5.66069 0
M  V30 6581 H 631.817 -3.97145 -4.13459 0
M  V30 6582 H 630.214 -4.67179 -3.76648 0
M  V30 6583 H 631.284 -4.19225 -2.43676 0
M  V30 6584 N 632.627 0.916307 -1.28225 0
M  V30 6585 C 633.855 1.69901 -1.18073 0
M  V30 6586 C 634.27 1.86988 0.260968 0
M  V30 6587 O 633.627 1.39505 1.17663 0
M  V30 6588 C 633.678 3.09254 -1.87201 0
M  V30 6589 O 633.399 2.92959 -3.2574 0
M  V30 6590 C 634.9 4.0362 -1.83319 0
M  V30 6591 H 632.12 0.531181 -0.409985 0
M  V30 6592 H 634.664 1.14703 -1.69303 0
M  V30 6593 H 632.819 3.61277 -1.39848 0
M  V30 6594 H 633.233 3.81139 -3.60324 0
M  V30 6595 H 634.707 4.98873 -2.36282 0
M  V30 6596 H 635.184 4.3176 -0.805007 0
M  V30 6597 H 635.79 3.57524 -2.3034 0
M  V30 6598 N 634.105 1.10431 1.1244 0
M  V30 6599 C 635.516 0.864439 1.65482 0
M  V30 6600 C 635.867 -0.60527 1.8663 0
M  V30 6601 O 634.992 -1.46492 1.59276 0
M  V30 6602 C 635.587 1.56267 3.0061 0
M  V30 6603 C 634.146 1.3695 3.50602 0
M  V30 6604 C 633.293 1.61209 2.25626 0
M  V30 6605 H 636.244 1.26203 0.962209 0
M  V30 6606 H 636.265 1.00166 3.67079 0
M  V30 6607 H 635.777 2.63231 2.85186 0
M  V30 6608 H 633.878 0.321481 3.71211 0
M  V30 6609 H 633.991 2.11143 4.30064 0
M  V30 6610 H 632.355 1.03482 2.32731 0
M  V30 6611 H 633.138 2.69425 2.12756 0
M  V30 6612 N 635.583 -1.29855 0.893053 0
M  V30 6613 C 636.546 -2.26183 0.370687 0
M  V30 6614 C 637.546 -1.53108 -0.491385 0
M  V30 6615 O 638.736 -1.71643 -0.297386 0
M  V30 6616 C 635.868 -3.37633 -0.470827 0
M  V30 6617 H 637.061 -2.73903 1.22135 0
M  V30 6618 H 634.614 -1.41183 0.67061 0
M  V30 6619 H 635.349 -2.95241 -1.34175 0
M  V30 6620 H 635.134 -3.91825 0.146784 0
M  V30 6621 H 636.624 -4.09313 -0.827825 0
M  V30 6622 N 637.061 -0.65484 -1.43351 0
M  V30 6623 C 638.024 0.0263562 -2.29185 0
M  V30 6624 C 639.024 0.748951 -1.42293 0
M  V30 6625 O 640.214 0.589957 -1.63906 0
M  V30 6626 C 637.346 1.04806 -3.2439 0
M  V30 6627 H 638.539 -0.728883 -2.90908 0
M  V30 6628 H 636.092 -0.416149 -1.50658 0
M  V30 6629 H 636.827 1.83247 -2.67565 0
M  V30 6630 H 636.612 0.533554 -3.88453 0
M  V30 6631 H 638.102 1.52372 -3.88809 0
M  V30 6632 N 638.539 1.52521 -0.396863 0
M  V30 6633 C 639.469 2.29582 0.425941 0
M  V30 6634 C 640.45 1.33281 1.05689 0
M  V30 6635 O 641.635 1.62181 1.06823 0
M  V30 6636 C 638.765 3.10821 1.54943 0
M  V30 6637 C 637.719 4.15069 1.04413 0
M  V30 6638 C 637.045 4.84578 2.26028 0
M  V30 6639 C 638.345 5.22191 0.106767 0
M  V30 6640 H 640.039 2.98612 -0.217045 0
M  V30 6641 H 637.585 1.43611 -0.105826 0
M  V30 6642 H 639.538 3.63492 2.13193 0
M  V30 6643 H 638.262 2.39538 2.22011 0
M  V30 6644 H 636.921 3.63389 0.484118 0
M  V30 6645 H 636.569 4.09835 2.91623 0
M  V30 6646 H 636.269 5.55043 1.92876 0
M  V30 6647 H 637.793 5.40056 2.84906 0
M  V30 6648 H 639.207 5.70176 0.597685 0
M  V30 6649 H 637.604 5.99947 -0.135352 0
M  V30 6650 H 638.674 4.77531 -0.842134 0
M  V30 6651 N 640.017 0.126909 1.57088 0
M  V30 6652 C 640.98 -0.806097 2.14557 0
M  V30 6653 C 641.98 -1.18918 1.08236 0
M  V30 6654 O 643.17 -1.11339 1.33975 0
M  V30 6655 C 640.302 -2.09116 2.69227 0
M  V30 6656 H 641.495 -0.306522 2.98329 0
M  V30 6657 H 639.048 -0.122393 1.5582 0
M  V30 6658 H 639.783 -2.63486 1.89065 0
M  V30 6659 H 639.568 -1.82588 3.46993 0
M  V30 6660 H 641.058 -2.75794 3.13572 0
M  V30 6661 N 641.495 -1.56914 -0.146875 0
M  V30 6662 C 642.741 -1.83628 -0.860741 0
M  V30 6663 C 643.074 -0.708528 -1.80813 0
M  V30 6664 O 642.349 0.287838 -1.92358 0
M  V30 6665 C 642.632 -3.20836 -1.63511 0
M  V30 6666 C 642.485 -4.44174 -0.709199 0
M  V30 6667 C 643.804 -3.55268 -2.59756 0
M  V30 6668 H 640.923 -0.667949 -0.311468 0
M  V30 6669 H 643.565 -1.89582 -0.125936 0
M  V30 6670 H 641.715 -3.15891 -2.26153 0
M  V30 6671 H 643.387 -4.61205 -0.0937781 0
M  V30 6672 H 641.63 -4.33796 -0.0187856 0
M  V30 6673 H 642.301 -5.36785 -1.28707 0
M  V30 6674 H 644.777 -3.60824 -2.07232 0
M  V30 6675 H 643.653 -4.52303 -3.10987 0
M  V30 6676 H 643.914 -2.81231 -3.41118 0
M  V30 6677 N 642.974 0.416227 -1.52004 0
M  V30 6678 C 644.22 1.16555 -1.6596 0
M  V30 6679 C 644.553 1.90347 -0.384906 0
M  V30 6680 O 643.828 1.84474 0.616405 0
M  V30 6681 C 644.111 2.1657 -2.87696 0
M  V30 6682 C 643.964 1.46722 -4.25197 0
M  V30 6683 C 645.283 3.17321 -3.04951 0
M  V30 6684 H 642.402 0.422369 -0.603965 0
M  V30 6685 H 645.044 0.452141 -1.84542 0
M  V30 6686 H 643.194 2.77411 -2.71985 0
M  V30 6687 H 644.866 0.89056 -4.52622 0
M  V30 6688 H 643.109 0.769263 -4.26925 0
M  V30 6689 H 643.78 2.19665 -5.0641 0
M  V30 6690 H 646.256 2.66552 -3.19514 0
M  V30 6691 H 645.132 3.84573 -3.91656 0
M  V30 6692 H 645.393 3.84643 -2.17951 0
M  V30 6693 N 644.452 1.42507 0.673017 0
M  V30 6694 C 645.68 1.46473 1.46128 0
M  V30 6695 C 646.095 0.0765912 1.88645 0
M  V30 6696 O 645.452 -0.909057 1.58248 0
M  V30 6697 C 645.503 2.39339 2.70923 0
M  V30 6698 O 645.224 3.72752 2.3019 0
M  V30 6699 C 646.725 2.52343 3.64469 0
M  V30 6700 H 643.945 0.49812 0.449575 0
M  V30 6701 H 646.489 1.87041 0.826802 0
M  V30 6702 H 644.644 2.02019 3.30556 0
M  V30 6703 H 645.058 4.22503 3.10791 0
M  V30 6704 H 646.532 3.2144 4.48754 0
M  V30 6705 H 647.009 1.56189 4.1049 0
M  V30 6706 H 647.615 2.90392 3.10729 0
M  V30 6707 N 645.93 -0.909495 1.28709 0
M  V30 6708 C 646.893 -1.99399 1.13016 0
M  V30 6709 C 647.893 -1.60654 0.068536 0
M  V30 6710 O 649.083 -1.71334 0.314671 0
M  V30 6711 C 646.215 -3.33078 0.726085 0
M  V30 6712 H 647.408 -2.14751 2.09338 0
M  V30 6713 H 644.961 -1.09272 1.11756 0
M  V30 6714 H 645.696 -3.23428 -0.23771 0
M  V30 6715 H 645.481 -3.62562 1.49302 0
M  V30 6716 H 646.971 -4.12681 0.639058 0
M  V30 6717 N 647.408 -1.11026 -1.11852 0
M  V30 6718 C 648.371 -0.768006 -2.1595 0
M  V30 6719 C 649.371 0.210538 -1.59416 0
M  V30 6720 O 650.561 -0.0133978 -1.74195 0
M  V30 6721 C 647.693 -0.138678 -3.40618 0
M  V30 6722 H 648.886 -1.69012 -2.4774 0
M  V30 6723 H 646.439 -0.911578 -1.26964 0
M  V30 6724 H 647.174 0.793872 -3.14433 0
M  V30 6725 H 646.959 -0.843012 -3.8293 0
M  V30 6726 H 648.449 0.0848039 -4.17514 0
M  V30 6727 N 648.886 1.2938 -0.899927 0
M  V30 6728 C 650.133 1.9555 -0.525963 0
M  V30 6729 C 650.461 1.70945 0.927789 0
M  V30 6730 O 649.716 1.01545 1.67293 0
M  V30 6731 C 650.015 3.49114 -0.765113 0
M  V30 6732 C 649.681 3.93796 -2.19626 0
M  V30 6733 C 648.343 4.05707 -2.58758 0
M  V30 6734 C 650.695 4.16883 -3.12823 0
M  V30 6735 C 648.023 4.38074 -3.90267 0
M  V30 6736 C 650.375 4.50725 -4.4388 0
M  V30 6737 C 649.039 4.60845 -4.82885 0
M  V30 6738 H 648.309 0.715569 -0.192463 0
M  V30 6739 H 650.956 1.53972 -1.13863 0
M  V30 6740 H 649.261 3.91738 -0.069531 0
M  V30 6741 H 650.958 3.98409 -0.455144 0
M  V30 6742 H 647.548 3.85042 -1.88256 0
M  V30 6743 H 651.732 4.07147 -2.83804 0
M  V30 6744 H 646.988 4.44112 -4.20207 0
M  V30 6745 H 651.162 4.67538 -5.16121 0
M  V30 6746 H 648.789 4.85681 -5.84823 0
M  V30 6747 N 650.364 0.662433 1.43002 0
M  V30 6748 C 651.592 0.187615 2.06048 0
M  V30 6749 C 652.007 -1.15039 1.49705 0
M  V30 6750 O 651.364 -1.71209 0.631956 0
M  V30 6751 C 651.415 0.100498 3.6136 0
M  V30 6752 O 651.136 1.38562 4.15611 0
M  V30 6753 C 652.637 -0.399298 4.41498 0
M  V30 6754 H 649.857 0.0941675 0.664359 0
M  V30 6755 H 652.401 0.905681 1.83351 0
M  V30 6756 H 650.556 -0.568181 3.83211 0
M  V30 6757 H 650.97 1.25084 5.09366 0
M  V30 6758 H 652.444 -0.409187 5.50481 0
M  V30 6759 H 652.921 -1.43232 4.15188 0
M  V30 6760 H 653.527 0.23721 4.24638 0
M  V30 6761 N 651.842 -1.52309 0.404946 0
M  V30 6762 C 652.772 -2.29805 -0.41376 0
M  V30 6763 C 653.753 -1.3384 -1.0498 0
M  V30 6764 O 654.938 -1.62745 -1.05961 0
M  V30 6765 C 652.068 -3.11639 -1.53292 0
M  V30 6766 C 651.022 -4.15616 -1.02211 0
M  V30 6767 C 650.348 -4.8577 -2.23455 0
M  V30 6768 C 651.648 -5.2224 -0.0790725 0
M  V30 6769 H 653.342 -2.98493 0.232878 0
M  V30 6770 H 650.888 -1.43552 0.113441 0
M  V30 6771 H 652.841 -3.64618 -2.11262 0
M  V30 6772 H 651.565 -2.40712 -2.20738 0
M  V30 6773 H 650.224 -3.63641 -0.46484 0
M  V30 6774 H 649.872 -4.11376 -2.89445 0
M  V30 6775 H 649.572 -5.56058 -1.89929 0
M  V30 6776 H 651.096 -5.4156 -2.82038 0
M  V30 6777 H 652.51 -5.70485 -0.567438 0
M  V30 6778 H 650.907 -5.99867 0.167167 0
M  V30 6779 H 651.977 -4.77078 0.867447 0
M  V30 6780 N 653.32 -0.135238 -1.57019 0
M  V30 6781 C 654.568 0.51777 -1.95355 0
M  V30 6782 C 654.889 1.6617 -1.02042 0
M  V30 6783 O 654.159 1.95738 -0.0797343 0
M  V30 6784 H 652.739 0.194264 -0.721298 0
M  V30 6785 H 655.401 -0.207983 -1.93787 0
M  V30 6786 H 654.497 0.901675 -2.98791 0
M  V30 6787 N 654.798 1.5699 0.138552 0
M  V30 6788 C 656.044 1.84081 0.85099 0
M  V30 6789 C 656.377 0.718107 1.80435 0
M  V30 6790 O 655.652 -0.277633 1.92508 0
M  V30 6791 C 655.935 3.21699 1.61808 0
M  V30 6792 C 655.788 4.44544 0.685633 0
M  V30 6793 C 657.107 3.5664 2.57868 0
M  V30 6794 H 654.226 0.669592 0.307922 0
M  V30 6795 H 656.868 1.89646 0.11588 0
M  V30 6796 H 655.018 3.17086 2.24474 0
M  V30 6797 H 656.69 4.61248 0.0693179 0
M  V30 6798 H 654.933 4.338 -0.00421993 0
M  V30 6799 H 655.604 5.3746 1.25858 0
M  V30 6800 H 658.08 3.61918 2.05316 0
M  V30 6801 H 656.956 4.53946 3.08584 0
M  V30 6802 H 657.217 2.83036 3.39622 0
M  V30 6803 N 656.276 -0.40816 1.52223 0
M  V30 6804 C 657.208 -1.51642 1.71864 0
M  V30 6805 C 658.221 -1.51378 0.599056 0
M  V30 6806 O 659.41 -1.55626 0.874239 0
M  V30 6807 C 656.51 -2.90534 1.74481 0
M  V30 6808 C 655.683 -3.14979 3.03491 0
M  V30 6809 C 654.742 -4.33749 2.97907 0
M  V30 6810 O 653.768 -4.30982 3.71811 0
M  V30 6811 N 654.97 -5.38912 2.15764 0
M  V30 6812 H 657.735 -1.35188 2.67478 0
M  V30 6813 H 655.296 -0.597468 1.50472 0
M  V30 6814 H 657.288 -3.68056 1.68275 0
M  V30 6815 H 655.858 -3.00441 0.863363 0
M  V30 6816 H 655.078 -2.25492 3.23337 0
M  V30 6817 H 656.366 -3.28156 3.88833 0
M  V30 6818 H 655.764 -5.44008 1.55152 0
M  V30 6819 H 654.321 -6.15174 2.15415 0
M  V30 6820 N 657.755 -1.42862 -0.66545 0
M  V30 6821 C 659.166 -1.3901 -1.24632 0
M  V30 6822 C 659.517 -0.0880285 -1.96002 0
M  V30 6823 O 658.642 0.812947 -2.0055 0
M  V30 6824 C 659.237 -2.51806 -2.2667 0
M  V30 6825 C 657.796 -2.51257 -2.80262 0
M  V30 6826 C 656.943 -2.30124 -1.5472 0
M  V30 6827 H 659.894 -1.5194 -0.458237 0
M  V30 6828 H 659.915 -2.22593 -3.08598 0
M  V30 6829 H 659.427 -3.46558 -1.74697 0
M  V30 6830 H 657.528 -1.60349 -3.36332 0
M  V30 6831 H 657.641 -3.48614 -3.28641 0
M  V30 6832 H 656.005 -1.7856 -1.81627 0
M  V30 6833 H 656.788 -3.26945 -1.04699 0
M  V30 6834 N 659.233 0.902656 -1.29189 0
M  V30 6835 C 660.461 1.68639 -1.19869 0
M  V30 6836 C 660.876 1.87254 0.241121 0
M  V30 6837 O 660.233 1.40745 1.16177 0
M  V30 6838 C 660.284 3.07251 -1.90471 0
M  V30 6839 O 660.005 2.89488 -3.28829 0
M  V30 6840 C 661.506 4.01653 -1.8759 0
M  V30 6841 H 658.726 0.526802 -0.415596 0
M  V30 6842 H 661.27 1.12901 -1.7051 0
M  V30 6843 H 659.425 3.59774 -1.43672 0
M  V30 6844 H 659.839 3.77296 -3.64346 0
M  V30 6845 H 661.313 4.96339 -2.4156 0
M  V30 6846 H 661.79 4.30881 -0.850756 0
M  V30 6847 H 662.396 3.55061 -2.34119 0
M  V30 6848 N 660.711 1.11618 1.11262 0
M  V30 6849 C 661.959 0.864469 1.82678 0
M  V30 6850 C 662.28 -0.611564 1.85162 0
M  V30 6851 O 661.55 -1.44429 1.32352 0
M  V30 6852 H 660.13 0.316821 0.676486 0
M  V30 6853 H 662.792 1.40894 1.34666 0
M  V30 6854 H 661.888 1.23832 2.86482 0
M  V30 6855 N 662.189 -1.289 0.906776 0
M  V30 6856 C 663.119 -2.29932 0.406659 0
M  V30 6857 C 664.1 -1.6189 -0.522061 0
M  V30 6858 O 665.285 -1.8935 -0.431283 0
M  V30 6859 C 662.415 -3.45425 -0.360366 0
M  V30 6860 C 661.369 -4.25316 0.478574 0
M  V30 6861 C 660.695 -5.33076 -0.416373 0
M  V30 6862 C 661.995 -4.92739 1.7322 0
M  V30 6863 H 663.689 -2.72013 1.25097 0
M  V30 6864 H 661.235 -1.30768 0.602977 0
M  V30 6865 H 663.188 -4.15186 -0.721029 0
M  V30 6866 H 661.912 -3.02206 -1.23852 0
M  V30 6867 H 660.571 -3.57273 0.821662 0
M  V30 6868 H 660.219 -4.86101 -1.29287 0
M  V30 6869 H 659.919 -5.8743 0.141309 0
M  V30 6870 H 661.443 -6.05686 -0.773072 0
M  V30 6871 H 662.857 -5.54898 1.44086 0
M  V30 6872 H 661.254 -5.57057 2.23175 0
M  V30 6873 H 662.324 -4.17625 2.46408 0
M  V30 6874 N 663.667 -0.670007 -1.42649 0
M  V30 6875 C 664.916 -0.187526 -2.00826 0
M  V30 6876 C 665.229 1.21142 -1.53571 0
M  V30 6877 O 666.435 1.79001 -2.04134 0
M  V30 6878 C 664.891 -0.284409 -3.58774 0
M  V30 6879 C 664.499 -1.6871 -4.15019 0
M  V30 6880 C 666.243 0.139605 -4.2427 0
M  V30 6881 C 664.15 -1.73701 -5.65316 0
M  V30 6882 H 663.08 -0.0663468 -0.751075 0
M  V30 6883 H 665.731 -0.834492 -1.63427 0
M  V30 6884 H 664.113 0.430364 -3.93655 0
M  V30 6885 H 665.287 -2.42857 -3.91608 0
M  V30 6886 H 663.602 -2.05855 -3.61957 0
M  V30 6887 H 666.199 0.122398 -5.3456 0
M  V30 6888 H 666.542 1.17403 -3.99402 0
M  V30 6889 H 667.075 -0.523995 -3.94334 0
M  V30 6890 H 663.814 -2.75109 -5.94975 0
M  V30 6891 H 663.334 -1.03903 -5.90732 0
M  V30 6892 H 665.013 -1.48829 -6.2965 0
M  V30 6893 N 665.145 1.52092 -0.413018 0
M  V30 6894 C 666.108 2.25706 0.398687 0
M  V30 6895 C 667.108 1.28221 0.970368 0
M  V30 6896 O 668.298 1.52131 0.848635 0
M  V30 6897 C 665.43 3.03029 1.5616 0
M  V30 6898 H 666.623 2.98888 -0.246131 0
M  V30 6899 H 664.176 1.5542 -0.165622 0
M  V30 6900 H 664.911 2.34205 2.24317 0
M  V30 6901 H 664.696 3.74606 1.15812 0
M  V30 6902 H 666.186 3.58857 2.13569 0
M  V30 6903 N 666.623 0.143563 1.56945 0
M  V30 6904 C 667.869 -0.50916 1.96304 0
M  V30 6905 C 668.202 -1.64741 1.0283 0
M  V30 6906 O 667.477 -1.94374 0.0700361 0
M  V30 6907 C 667.76 -1.0186 3.45393 0
M  V30 6908 C 667.613 0.117923 4.49645 0
M  V30 6909 C 668.932 -1.90151 3.96901 0
M  V30 6910 H 666.051 -0.183608 0.713763 0
M  V30 6911 H 668.693 0.224095 1.88674 0
M  V30 6912 H 666.843 -1.64345 3.52027 0
M  V30 6913 H 668.515 0.754145 4.55094 0
M  V30 6914 H 666.758 0.777568 4.26774 0
M  V30 6915 H 667.429 -0.280187 5.51288 0
M  V30 6916 H 669.905 -1.375 3.92725 0
M  V30 6917 H 668.781 -2.22707 5.0169 0
M  V30 6918 H 669.042 -2.83718 3.39052 0
M  V30 6919 N 668.101 -1.57061 -0.130224 0
M  V30 6920 C 669.064 -1.98593 -1.14426 0
M  V30 6921 C 670.064 -0.874584 -1.34936 0
M  V30 6922 O 671.254 -1.14086 -1.31643 0
M  V30 6923 C 668.386 -2.31639 -2.50112 0
M  V30 6924 H 669.579 -2.89374 -0.787561 0
M  V30 6925 H 667.132 -1.51756 -0.374146 0
M  V30 6926 H 667.867 -1.43703 -2.90723 0
M  V30 6927 H 667.652 -3.12684 -2.36583 0
M  V30 6928 H 669.142 -2.64551 -3.23114 0
M  V30 6929 N 669.579 0.400081 -1.52437 0
M  V30 6930 C 670.542 1.4707 -1.75793 0
M  V30 6931 C 671.542 1.48036 -0.627856 0
M  V30 6932 O 672.732 1.49401 -0.895817 0
M  V30 6933 C 669.864 2.86427 -1.84858 0
M  V30 6934 H 671.057 1.27649 -2.71377 0
M  V30 6935 H 668.61 0.631141 -1.42991 0
M  V30 6936 H 669.345 3.11207 -0.912194 0
M  V30 6937 H 669.13 2.87128 -2.6702 0
M  V30 6938 H 670.62 3.64023 -2.04638 0
M  V30 6939 N 671.057 1.43213 0.657864 0
M  V30 6940 C 671.987 1.50815 1.78262 0
M  V30 6941 C 672.968 0.363211 1.66177 0
M  V30 6942 O 674.153 0.579806 1.85343 0
M  V30 6943 C 671.283 1.42625 3.16663 0
M  V30 6944 C 670.237 2.5532 3.43505 0
M  V30 6945 C 669.563 2.32184 4.81658 0
M  V30 6946 C 670.863 3.97583 3.38711 0
M  V30 6947 H 672.557 2.44954 1.72157 0
M  V30 6948 H 670.103 1.17896 0.82683 0
M  V30 6949 H 672.056 1.46548 3.95097 0
M  V30 6950 H 670.78 0.449877 3.23487 0
M  V30 6951 H 669.439 2.50742 2.6744 0
M  V30 6952 H 669.087 1.32801 4.85153 0
M  V30 6953 H 668.787 3.07724 5.00579 0
M  V30 6954 H 670.311 2.37883 5.62356 0
M  V30 6955 H 671.725 4.03673 4.07089 0
M  V30 6956 H 670.122 4.73112 3.69168 0
M  V30 6957 H 671.192 4.23049 2.36976 0
M  V30 6958 N 672.536 -0.895792 1.29666 0
M  V30 6959 C 673.782 -1.64908 1.18039 0
M  V30 6960 C 674.115 -1.9236 -0.266682 0
M  V30 6961 O 673.39 -1.53682 -1.19214 0
M  V30 6962 C 673.673 -2.99574 1.99819 0
M  V30 6963 C 673.526 -2.79163 3.52687 0
M  V30 6964 C 674.845 -4.00358 1.82761 0
M  V30 6965 H 671.964 -0.598437 0.430165 0
M  V30 6966 H 674.606 -1.03736 1.59182 0
M  V30 6967 H 672.756 -3.51786 1.64859 0
M  V30 6968 H 674.428 -2.33821 3.9765 0
M  V30 6969 H 672.671 -2.13871 3.77414 0
M  V30 6970 H 673.342 -3.74871 4.05186 0
M  V30 6971 H 675.818 -3.57268 2.13304 0
M  V30 6972 H 674.694 -4.92514 2.42325 0
M  V30 6973 H 674.955 -4.35096 0.783839 0
M  V30 6974 N 674.014 -1.12206 -1.10668 0
M  V30 6975 C 674.977 -0.790867 -2.15123 0
M  V30 6976 C 675.977 0.193618 -1.5963 0
M  V30 6977 O 677.167 -0.0318728 -1.74171 0
M  V30 6978 C 674.299 -0.174797 -3.40452 0
M  V30 6979 H 675.492 -1.7163 -2.45933 0
M  V30 6980 H 673.045 -0.924993 -1.2599 0
M  V30 6981 H 673.78 0.760478 -3.15257 0
M  V30 6982 H 673.565 -0.88358 -3.82015 0
M  V30 6983 H 675.055 0.0405162 -4.1758 0
M  V30 6984 N 675.492 1.28418 -0.913599 0
M  V30 6985 C 676.74 1.94596 -0.545594 0
M  V30 6986 C 677.061 1.7227 0.913668 0
M  V30 6987 O 676.331 1.06233 1.64595 0
M  V30 6988 H 674.911 0.720065 -0.198783 0
M  V30 6989 H 677.573 1.56404 -1.16292 0
M  V30 6990 H 676.669 3.03202 -0.739911 0
M  V30 6991 N 676.97 0.677563 1.42291 0
M  V30 6992 C 678.218 0.200578 2.01102 0
M  V30 6993 C 678.539 -1.19803 1.53858 0
M  V30 6994 O 677.809 -1.80496 0.761439 0
M  V30 6995 H 676.389 0.0711634 0.743603 0
M  V30 6996 H 679.051 0.874691 1.7417 0
M  V30 6997 H 678.147 0.204 3.11433 0
M  V30 6998 N 678.448 -1.51871 0.421078 0
M  V30 6999 C 679.864 -1.59435 0.0725398 0
M  V30 7000 C 680.064 -1.43315 -1.41644 0
M  V30 7001 O 679.12 -1.26614 -2.18461 0
M  V30 7002 C 680.433 -2.9509 0.578132 0
M  V30 7003 C 681.981 -3.08356 0.537149 0
M  V30 7004 C 682.456 -4.4651 1.01945 0
M  V30 7005 N 683.947 -4.52784 0.976758 0
M  V30 7006 C 684.682 -5.57976 1.32099 0
M  V30 7007 N 684.178 -6.70664 1.73727 0
M  V30 7008 N 685.971 -5.48248 1.2402 0
M  V30 7009 H 678.122 -1.60595 1.39007 0
M  V30 7010 H 680.385 -0.756138 0.571803 0
M  V30 7011 H 680.091 -3.12205 1.61929 0
M  V30 7012 H 679.965 -3.772 -0.00578374 0
M  V30 7013 H 682.352 -2.90919 -0.494991 0
M  V30 7014 H 682.433 -2.28125 1.15727 0
M  V30 7015 H 682.077 -4.64692 2.04997 0
M  V30 7016 H 682.007 -5.25256 0.376023 0
M  V30 7017 H 684.498 -3.71898 0.670851 0
M  V30 7018 H 684.811 -7.46932 1.98274 0
M  V30 7019 H 683.156 -6.71914 1.77641 0
M  V30 7020 H 686.347 -4.59095 0.913756 0
M  V30 7021 H 686.52 -6.30119 1.51176 0
M  V30 7022 N 679.926 -0.151884 -1.56866 0
M  V30 7023 C 681.337 0.368128 -1.83035 0
M  V30 7024 C 681.688 1.64402 -1.07082 0
M  V30 7025 O 680.813 2.14056 -0.317647 0
M  V30 7026 C 681.408 0.674676 -3.32014 0
M  V30 7027 C 679.967 1.13919 -3.58747 0
M  V30 7028 C 679.114 0.164833 -2.7681 0
M  V30 7029 H 682.065 -0.376499 -1.54169 0
M  V30 7030 H 682.086 1.52883 -3.48435 0
M  V30 7031 H 681.598 -0.254113 -3.87267 0
M  V30 7032 H 679.699 2.08375 -3.08886 0
M  V30 7033 H 679.812 1.06179 -4.67186 0
M  V30 7034 H 678.176 0.658419 -2.46043 0
M  V30 7035 H 678.959 -0.757633 -3.34836 0
M  V30 7036 N 681.404 1.57128 0.121893 0
M  V30 7037 C 682.337 1.95327 1.17995 0
M  V30 7038 C 683.315 0.822524 1.40262 0
M  V30 7039 O 684.499 1.08044 1.54463 0
M  V30 7040 C 681.626 2.24699 2.53432 0
M  V30 7041 C 680.672 3.47263 2.4761 0
M  V30 7042 S 681.505 4.99951 1.91857 0
M  V30 7043 C 682.661 5.32473 3.28973 0
M  V30 7044 H 682.894 2.84765 0.854182 0
M  V30 7045 H 680.427 1.50864 0.328534 0
M  V30 7046 H 682.385 2.423 3.31362 0
M  V30 7047 H 681.046 1.3588 2.83188 0
M  V30 7048 H 680.239 3.65171 3.4737 0
M  V30 7049 H 679.841 3.29034 1.778 0
M  V30 7050 H 682.133 5.27478 4.25175 0
M  V30 7051 H 683.076 6.33732 3.15895 0
M  V30 7052 H 683.484 4.59952 3.27268 0
M  V30 7053 N 682.882 -0.391992 1.52647 0
M  V30 7054 C 683.812 -1.48517 1.8018 0
M  V30 7055 C 684.793 -1.57039 0.653667 0
M  V30 7056 O 685.978 -1.72036 0.900962 0
M  V30 7057 C 683.108 -2.86161 1.96797 0
M  V30 7058 C 682.062 -2.92481 3.12472 0
M  V30 7059 C 681.388 -4.32546 3.14338 0
M  V30 7060 C 682.688 -2.624 4.51601 0
M  V30 7061 H 684.382 -1.25726 2.71723 0
M  V30 7062 H 681.928 -0.603387 1.30749 0
M  V30 7063 H 683.881 -3.62639 2.14641 0
M  V30 7064 H 682.605 -3.10283 1.01941 0
M  V30 7065 H 681.264 -2.18451 2.94406 0
M  V30 7066 H 680.912 -4.53703 2.1717 0
M  V30 7067 H 680.612 -4.37695 3.92042 0
M  V30 7068 H 682.136 -5.10934 3.34333 0
M  V30 7069 H 683.55 -3.28596 4.69785 0
M  V30 7070 H 681.947 -2.78903 5.3135 0
M  V30 7071 H 683.017 -1.57754 4.58521 0
M  V30 7072 N 684.36 -1.4356 -0.65026 0
M  V30 7073 C 685.776 -1.27025 -0.966269 0
M  V30 7074 C 685.976 -0.192117 -2.00582 0
M  V30 7075 O 685.032 0.428459 -2.48838 0
M  V30 7076 C 686.345 -2.63556 -1.44772 0
M  V30 7077 C 687.893 -2.71111 -1.56421 0
M  V30 7078 C 688.368 -4.08067 -2.07956 0
M  V30 7079 N 689.859 -4.10146 -2.15254 0
M  V30 7080 C 690.594 -5.12952 -2.56258 0
M  V30 7081 N 690.09 -6.26129 -2.96537 0
M  V30 7082 N 691.883 -5.00306 -2.56224 0
M  V30 7083 H 684.034 -2.12367 0.0375758 0
M  V30 7084 H 686.297 -0.946894 -0.0457782 0
M  V30 7085 H 686.003 -3.43429 -0.758271 0
M  V30 7086 H 685.877 -2.89152 -2.42221 0
M  V30 7087 H 688.264 -1.91569 -2.24467 0
M  V30 7088 H 688.345 -2.49277 -0.573967 0
M  V30 7089 H 687.989 -4.88077 -1.40511 0
M  V30 7090 H 687.919 -4.27266 -3.07817 0
M  V30 7091 H 690.41 -3.28453 -1.86887 0
M  V30 7092 H 690.723 -7.00403 -3.26582 0
M  V30 7093 H 689.068 -6.29597 -2.94334 0
M  V30 7094 H 692.259 -4.10952 -2.24135 0
M  V30 7095 H 692.432 -5.80553 -2.87857 0
M  V30 7096 N 685.838 0.888903 -1.30139 0
M  V30 7097 C 687.087 1.63507 -1.18103 0
M  V30 7098 C 687.4 1.93808 0.264141 0
M  V30 7099 O 688.606 2.66744 0.505966 0
M  V30 7100 C 687.062 2.94673 -2.0663 0
M  V30 7101 C 686.67 2.71926 -3.56034 0
M  V30 7102 C 688.414 3.72626 -2.03346 0
M  V30 7103 C 686.321 3.98884 -4.3663 0
M  V30 7104 H 685.251 0.613426 -0.438435 0
M  V30 7105 H 687.902 0.984427 -1.54859 0
M  V30 7106 H 686.284 3.61009 -1.62754 0
M  V30 7107 H 687.458 2.14116 -4.08033 0
M  V30 7108 H 685.773 2.07353 -3.61101 0
M  V30 7109 H 688.37 4.66775 -2.60816 0
M  V30 7110 H 688.713 4.03712 -1.016 0
M  V30 7111 H 689.246 3.13147 -2.45324 0
M  V30 7112 H 685.985 3.72959 -5.39056 0
M  V30 7113 H 685.505 4.56214 -3.89396 0
M  V30 7114 H 687.184 4.66938 -4.47859 0
M  V30 7115 N 687.317 1.12792 1.10072 0
M  V30 7116 C 688.247 0.821688 2.18565 0
M  V30 7117 C 689.228 -0.21612 1.68721 0
M  V30 7118 O 690.413 -0.0764932 1.94049 0
M  V30 7119 C 687.543 0.279624 3.46172 0
M  V30 7120 C 686.497 1.25092 4.09312 0
M  V30 7121 C 685.823 0.568916 5.31665 0
M  V30 7122 C 687.123 2.60699 4.52585 0
M  V30 7123 H 688.817 1.72888 2.44438 0
M  V30 7124 H 686.363 0.832702 1.17482 0
M  V30 7125 H 688.316 0.053099 4.21367 0
M  V30 7126 H 687.04 -0.662929 3.19801 0
M  V30 7127 H 685.699 1.46332 3.36129 0
M  V30 7128 H 685.347 -0.378898 5.01571 0
M  V30 7129 H 685.047 1.21687 5.74862 0
M  V30 7130 H 686.571 0.351517 6.09587 0
M  V30 7131 H 687.985 2.43465 5.19035 0
M  V30 7132 H 686.382 3.21608 5.06644 0
M  V30 7133 H 687.452 3.1886 3.65317 0
M  V30 7134 N 688.795 -1.27931 0.920396 0
M  V30 7135 C 690.041 -1.94977 0.557832 0
M  V30 7136 C 690.374 -1.72224 -0.897365 0
M  V30 7137 O 689.649 -1.04705 -1.63912 0
M  V30 7138 C 689.932 -3.49289 0.875741 0
M  V30 7139 C 689.785 -3.81416 2.38416 0
M  V30 7140 C 691.104 -4.38486 0.376517 0
M  V30 7141 H 688.223 -0.708164 0.20414 0
M  V30 7142 H 690.865 -1.5118 1.15085 0
M  V30 7143 H 689.015 -3.86724 0.371062 0
M  V30 7144 H 690.687 -3.53813 2.95997 0
M  V30 7145 H 688.93 -3.28225 2.83639 0
M  V30 7146 H 689.601 -4.89198 2.55713 0
M  V30 7147 H 692.077 -4.08161 0.808945 0
M  V30 7148 H 690.953 -5.45296 0.627976 0
M  V30 7149 H 691.214 -4.36143 -0.723293 0
M  V30 7150 N 690.273 -0.685099 -1.4193 0
M  V30 7151 C 691.689 -0.355632 -1.55587 0
M  V30 7152 C 691.889 1.13823 -1.66273 0
M  V30 7153 O 690.945 1.92387 -1.63534 0
M  V30 7154 C 692.258 -1.09498 -2.80055 0
M  V30 7155 C 693.806 -1.07831 -2.93839 0
M  V30 7156 C 694.281 -1.79919 -4.21181 0
M  V30 7157 N 695.772 -1.76837 -4.28115 0
M  V30 7158 C 696.507 -2.29463 -5.25485 0
M  V30 7159 N 696.003 -2.90516 -6.28945 0
M  V30 7160 N 697.796 -2.19779 -5.17353 0
M  V30 7161 H 689.947 -1.65412 -1.33239 0
M  V30 7162 H 692.21 -0.697453 -0.642078 0
M  V30 7163 H 691.916 -2.14997 -2.78333 0
M  V30 7164 H 691.79 -0.666813 -3.71259 0
M  V30 7165 H 694.177 -0.0316152 -2.95083 0
M  V30 7166 H 694.258 -1.54545 -2.03837 0
M  V30 7167 H 693.902 -2.84562 -4.20698 0
M  V30 7168 H 693.832 -1.30647 -5.10136 0
M  V30 7169 H 696.323 -1.32315 -3.53979 0
M  V30 7170 H 696.636 -3.28266 -6.99615 0
M  V30 7171 H 694.981 -2.94589 -6.29478 0
M  V30 7172 H 698.172 -1.71763 -4.35448 0
M  V30 7173 H 698.345 -2.61097 -5.9307 0
M  V30 7174 N 691.751 1.51645 -0.429126 0
M  V30 7175 C 693.167 1.59394 -0.080994 0
M  V30 7176 C 693.367 1.44064 1.40882 0
M  V30 7177 O 692.423 1.27771 2.17786 0
M  V30 7178 C 693.736 2.94779 -0.593773 0
M  V30 7179 C 695.284 3.08067 -0.553494 0
M  V30 7180 C 695.759 4.45963 -1.04311 0
M  V30 7181 N 697.25 4.5226 -1.00076 0
M  V30 7182 C 697.985 5.57268 -1.35056 0
M  V30 7183 N 697.481 6.69734 -1.77282 0
M  V30 7184 N 699.274 5.47582 -1.26925 0
M  V30 7185 H 691.425 1.59856 -1.39857 0
M  V30 7186 H 693.688 0.753095 -0.575805 0
M  V30 7187 H 693.394 3.11342 -1.63583 0
M  V30 7188 H 693.268 3.77197 -0.0142202 0
M  V30 7189 H 695.655 2.91177 0.479556 0
M  V30 7190 H 695.736 2.27508 -1.16935 0
M  V30 7191 H 695.38 4.63598 -2.07459 0
M  V30 7192 H 695.31 5.25049 -0.403873 0
M  V30 7193 H 697.801 3.71537 -0.690564 0
M  V30 7194 H 698.114 7.4587 -2.02232 0
M  V30 7195 H 696.459 6.70963 -1.81202 0
M  V30 7196 H 699.65 4.58604 -0.93809 0
M  V30 7197 H 699.823 6.29308 -1.54516 0
M  V30 7198 N 693.229 0.160201 1.56784 0
M  V30 7199 C 694.179 -0.786461 2.14007 0
M  V30 7200 C 695.163 -1.20046 1.07134 0
M  V30 7201 O 696.355 -1.16468 1.33283 0
M  V30 7202 C 693.484 -2.02024 2.77563 0
M  V30 7203 C 692.57 -1.62874 3.91578 0
M  V30 7204 N 692.961 -0.946176 4.96871 0
M  V30 7205 C 691.259 -1.92054 4.02531 0
M  V30 7206 C 691.96 -0.755084 5.76778 0
M  V30 7207 N 690.936 -1.29307 5.27997 0
M  V30 7208 H 694.738 -0.255879 2.92784 0
M  V30 7209 H 692.252 -0.0408778 1.62349 0
M  V30 7210 H 694.249 -2.70855 3.16928 0
M  V30 7211 H 692.909 -2.55587 2.00263 0
M  V30 7212 H 693.92 -0.605455 5.14349 0
M  V30 7213 H 690.597 -2.47374 3.36322 0
M  V30 7214 H 691.987 -0.216138 6.71552 0
M  V30 7215 N 694.707 -1.5719 -0.113559 0
M  V30 7216 C 696.123 -1.52607 -0.467253 0
M  V30 7217 C 696.323 -0.874058 -1.81556 0
M  V30 7218 O 695.379 -0.458703 -2.48299 0
M  V30 7219 C 696.692 -2.97363 -0.446736 0
M  V30 7220 C 698.24 -3.08482 -0.529903 0
M  V30 7221 C 698.715 -4.54809 -0.539721 0
M  V30 7222 N 700.206 -4.59284 -0.601005 0
M  V30 7223 C 700.941 -5.69927 -0.630138 0
M  V30 7224 N 700.437 -6.90051 -0.616589 0
M  V30 7225 N 702.23 -5.5805 -0.673558 0
M  V30 7226 H 694.381 -1.97958 0.769819 0
M  V30 7227 H 696.644 -0.90428 0.284572 0
M  V30 7228 H 696.35 -3.48458 0.47643 0
M  V30 7229 H 696.224 -3.55086 -1.27254 0
M  V30 7230 H 698.611 -2.57386 -1.44349 0
M  V30 7231 H 698.692 -2.53744 0.323695 0
M  V30 7232 H 698.336 -5.06552 0.369843 0
M  V30 7233 H 698.266 -5.07364 -1.41028 0
M  V30 7234 H 700.757 -3.72822 -0.617419 0
M  V30 7235 H 701.07 -7.70132 -0.641592 0
M  V30 7236 H 699.415 -6.92543 -0.583927 0
M  V30 7237 H 702.606 -4.63112 -0.681544 0
M  V30 7238 H 702.779 -6.44286 -0.692794 0
M  V30 7239 N 696.185 0.383891 -1.52853 0
M  V30 7240 C 697.115 1.47559 -1.80965 0
M  V30 7241 C 698.096 1.5669 -0.661986 0
M  V30 7242 O 699.281 1.71556 -0.910072 0
M  V30 7243 C 696.411 2.85114 -1.98312 0
M  V30 7244 C 695.365 2.9082 -3.14019 0
M  V30 7245 C 694.691 4.30873 -3.16627 0
M  V30 7246 C 695.991 2.60001 -4.52986 0
M  V30 7247 H 697.685 1.24283 -2.72386 0
M  V30 7248 H 695.231 0.596445 -1.31067 0
M  V30 7249 H 697.184 3.61496 -2.16561 0
M  V30 7250 H 695.908 3.09738 -1.03585 0
M  V30 7251 H 694.567 2.16886 -2.9556 0
M  V30 7252 H 694.215 4.52545 -2.19573 0
M  V30 7253 H 693.915 4.3561 -3.94357 0
M  V30 7254 H 695.439 5.09154 -3.37038 0
M  V30 7255 H 696.853 3.261 -4.71521 0
M  V30 7256 H 695.25 2.76081 -5.32822 0
M  V30 7257 H 696.32 1.5532 -4.59351 0
M  V30 7258 N 697.663 1.43903 0.642637 0
M  V30 7259 C 698.909 1.46296 1.40447 0
M  V30 7260 C 699.242 0.0908361 1.93987 0
M  V30 7261 O 698.517 -0.889884 1.72949 0
M  V30 7262 C 698.8 2.51399 2.57819 0
M  V30 7263 C 698.653 3.97926 2.09702 0
M  V30 7264 C 699.972 2.53125 3.60022 0
M  V30 7265 H 697.091 0.532676 0.509338 0
M  V30 7266 H 699.733 1.75515 0.727635 0
M  V30 7267 H 697.883 2.26614 3.1556 0
M  V30 7268 H 699.555 4.33804 1.5688 0
M  V30 7269 H 697.798 4.10252 1.40982 0
M  V30 7270 H 698.469 4.67096 2.94152 0
M  V30 7271 H 700.945 2.75242 3.12059 0
M  V30 7272 H 699.821 3.28589 4.39682 0
M  V30 7273 H 700.082 1.56895 4.13324 0
M  V30 7274 N 699.141 -0.881989 1.30609 0
M  V30 7275 C 700.389 -1.63082 1.19368 0
M  V30 7276 C 700.71 -1.93376 -0.251147 0
M  V30 7277 O 699.98 -1.5723 -1.16857 0
M  V30 7278 H 698.56 -0.604542 0.438791 0
M  V30 7279 H 701.222 -1.05658 1.63776 0
M  V30 7280 H 700.318 -2.57966 1.7567 0
M  V30 7281 N 700.619 -1.13374 -1.09472 0
M  V30 7282 C 701.847 -0.918351 -1.85402 0
M  V30 7283 C 702.262 0.53281 -1.81126 0
M  V30 7284 O 701.619 1.36879 -1.20708 0
M  V30 7285 C 701.67 -1.39743 -3.33398 0
M  V30 7286 O 701.391 -2.79172 -3.37631 0
M  V30 7287 C 702.892 -1.22042 -4.2617 0
M  V30 7288 H 700.112 -0.327511 -0.585643 0
M  V30 7289 H 702.656 -1.50617 -1.38328 0
M  V30 7290 H 700.811 -0.852619 -3.77901 0
M  V30 7291 H 701.225 -3.00428 -4.29934 0
M  V30 7292 H 702.699 -1.60438 -5.2817 0
M  V30 7293 H 703.176 -0.162047 -4.38901 0
M  V30 7294 H 703.782 -1.75323 -3.87482 0
M  V30 7295 N 702.098 1.27442 -0.927168 0
M  V30 7296 C 703.028 2.29256 -0.443188 0
M  V30 7297 C 704.009 1.62701 0.49624 0
M  V30 7298 O 705.194 1.90013 0.401105 0
M  V30 7299 C 702.324 3.45955 0.305366 0
M  V30 7300 C 701.278 4.24501 -0.546178 0
M  V30 7301 C 700.604 5.33671 0.331512 0
M  V30 7302 C 701.904 4.89921 -1.81037 0
M  V30 7303 H 703.598 2.69988 -1.29409 0
M  V30 7304 H 701.144 1.29792 -0.623705 0
M  V30 7305 H 703.097 4.1628 0.654885 0
M  V30 7306 H 701.821 3.04138 1.19029 0
M  V30 7307 H 700.48 3.55921 -0.878398 0
M  V30 7308 H 700.128 4.88096 1.21537 0
M  V30 7309 H 699.828 5.87131 -0.234746 0
M  V30 7310 H 701.352 6.0684 0.676614 0
M  V30 7311 H 702.766 5.52536 -1.52895 0
M  V30 7312 H 701.163 5.53436 -2.32009 0
M  V30 7313 H 702.233 4.13652 -2.53021 0
M  V30 7314 N 703.576 0.692616 1.41565 0
M  V30 7315 C 704.987 0.297478 1.84315 0
M  V30 7316 C 705.338 -1.16379 1.57957 0
M  V30 7317 O 704.463 -1.89303 1.0485 0
M  V30 7318 C 705.058 0.533136 3.34579 0
M  V30 7319 C 703.617 0.191944 3.7591 0
M  V30 7320 C 702.764 0.816873 2.64995 0
M  V30 7321 H 705.715 0.893488 1.31158 0
M  V30 7322 H 705.736 -0.209105 3.79925 0
M  V30 7323 H 705.248 1.59674 3.53731 0
M  V30 7324 H 703.349 -0.867512 3.6236 0
M  V30 7325 H 703.462 0.644902 4.7474 0
M  V30 7326 H 701.826 0.246715 2.53502 0
M  V30 7327 H 702.609 1.88429 2.86966 0
M  V30 7328 N 705.054 -1.51416 0.437162 0
M  V30 7329 C 705.984 -2.30631 -0.364922 0
M  V30 7330 C 706.965 -1.36037 -1.02118 0
M  V30 7331 O 708.15 -1.64956 -1.02485 0
M  V30 7332 C 705.28 -3.1482 -1.46648 0
M  V30 7333 C 704.234 -4.17691 -0.933717 0
M  V30 7334 C 703.56 -4.904 -2.13101 0
M  V30 7335 C 704.86 -5.2229 0.0317201 0
M  V30 7336 H 706.554 -2.97932 0.29614 0
M  V30 7337 H 704.1 -1.4328 0.143865 0
M  V30 7338 H 706.053 -3.69017 -2.03481 0
M  V30 7339 H 704.777 -2.4534 -2.15583 0
M  V30 7340 H 703.436 -3.64545 -0.387602 0
M  V30 7341 H 703.084 -4.17423 -2.80654 0
M  V30 7342 H 702.784 -5.59962 -1.78092 0
M  V30 7343 H 704.308 -5.4742 -2.70487 0
M  V30 7344 H 705.722 -5.7156 -0.446302 0
M  V30 7345 H 704.119 -5.99378 0.29437 0
M  V30 7346 H 705.189 -4.75131 0.968447 0
M  V30 7347 N 706.532 -0.168513 -1.56696 0
M  V30 7348 C 707.778 0.477865 -1.9709 0
M  V30 7349 C 708.111 1.63084 -1.05438 0
M  V30 7350 O 707.386 1.94238 -0.10095 0
M  V30 7351 C 707.669 0.963521 -3.4697 0
M  V30 7352 C 707.522 -0.189443 -4.49401 0
M  V30 7353 C 708.841 1.83813 -3.99876 0
M  V30 7354 H 705.96 0.172229 -0.716593 0
M  V30 7355 H 708.602 -0.254083 -1.88293 0
M  V30 7356 H 706.752 1.58724 -3.54597 0
M  V30 7357 H 708.424 -0.826451 -4.53836 0
M  V30 7358 H 706.667 -0.845366 -4.25483 0
M  V30 7359 H 707.338 0.192446 -5.51664 0
M  V30 7360 H 709.814 1.31235 -3.94863 0
M  V30 7361 H 708.69 2.14697 -5.0517 0
M  V30 7362 H 708.951 2.78289 -3.43523 0
M  V30 7363 N 708.01 1.57248 0.105221 0
M  V30 7364 C 709.235 1.90143 0.828264 0
M  V30 7365 C 709.66 0.761811 1.71983 0
M  V30 7366 O 709.018 -0.287086 1.79013 0
M  V30 7367 C 709.066 3.21856 1.62608 0
M  V30 7368 O 708.17 3.08732 2.7342 0
M  V30 7369 H 707.511 0.623558 0.228192 0
M  V30 7370 H 710.041 2.0443 0.0834826 0
M  V30 7371 H 710.051 3.54916 2.01243 0
M  V30 7372 H 708.726 4.0439 0.971687 0
M  V30 7373 H 707.303 2.87167 2.37886 0
M  V30 7374 N 709.488 -0.375779 1.53054 0
M  V30 7375 C 710.899 -0.95309 1.6054 0
M  V30 7376 C 711.25 -1.90575 0.466446 0
M  V30 7377 O 710.375 -2.12507 -0.408609 0
M  V30 7378 C 710.97 -1.73537 2.90982 0
M  V30 7379 C 709.529 -2.26218 3.00836 0
M  V30 7380 C 708.676 -1.07157 2.55759 0
M  V30 7381 H 711.627 -0.154895 1.57942 0
M  V30 7382 H 711.648 -2.59574 2.78211 0
M  V30 7383 H 711.16 -1.04176 3.73857 0
M  V30 7384 H 709.261 -2.98852 2.22527 0
M  V30 7385 H 709.374 -2.54799 4.05727 0
M  V30 7386 H 707.738 -1.43553 2.10391 0
M  V30 7387 H 708.521 -0.393099 3.41042 0
M  V30 7388 N 710.966 -1.44241 -0.634997 0
M  V30 7389 C 711.899 -1.45274 -1.75985 0
M  V30 7390 C 712.877 -0.312025 -1.59578 0
M  V30 7391 O 714.061 -0.508409 -1.81514 0
M  V30 7392 C 711.188 -1.28173 -3.13511 0
M  V30 7393 C 710.234 -2.45757 -3.48576 0
M  V30 7394 S 711.067 -4.08293 -3.46492 0
M  V30 7395 C 712.223 -3.93608 -4.86645 0
M  V30 7396 H 712.456 -2.40454 -1.74841 0
M  V30 7397 H 709.989 -1.31492 -0.809268 0
M  V30 7398 H 711.947 -1.18993 -3.92875 0
M  V30 7399 H 710.608 -0.34511 -3.12198 0
M  V30 7400 H 709.801 -2.29644 -4.48642 0
M  V30 7401 H 709.403 -2.51657 -2.76667 0
M  V30 7402 H 711.695 -3.57059 -5.75774 0
M  V30 7403 H 712.638 -4.9349 -5.07813 0
M  V30 7404 H 713.046 -3.25737 -4.61038 0
M  V30 7405 N 712.444 0.87505 -1.31075 0
M  V30 7406 C 713.374 1.99775 -1.20881 0
M  V30 7407 C 714.355 1.69822 -0.0971612 0
M  V30 7408 O 715.54 1.92158 -0.280895 0
M  V30 7409 C 712.67 3.35163 -0.910118 0
M  V30 7410 C 711.624 3.79406 -1.98078 0
M  V30 7411 C 710.95 5.12197 -1.53488 0
M  V30 7412 C 712.25 3.97061 -3.39323 0
M  V30 7413 H 713.944 2.08562 -2.14808 0
M  V30 7414 H 711.49 1.00207 -1.03415 0
M  V30 7415 H 713.443 4.13237 -0.825423 0
M  V30 7416 H 712.167 3.26536 0.064822 0
M  V30 7417 H 710.826 3.03568 -2.05528 0
M  V30 7418 H 710.474 5.00007 -0.547941 0
M  V30 7419 H 710.174 5.4277 -2.2511 0
M  V30 7420 H 711.698 5.92785 -1.46417 0
M  V30 7421 H 713.112 4.65545 -3.34576 0
M  V30 7422 H 711.509 4.39025 -4.09118 0
M  V30 7423 H 712.579 3.00601 -3.80483 0
M  V30 7424 N 713.922 1.13953 1.08869 0
M  V30 7425 C 714.885 0.824991 2.13838 0
M  V30 7426 C 715.885 -0.168198 1.59918 0
M  V30 7427 O 717.075 0.0595778 1.74098 0
M  V30 7428 C 714.207 0.228938 3.4013 0
M  V30 7429 H 715.4 1.75521 2.43171 0
M  V30 7430 H 712.953 0.94492 1.24503 0
M  V30 7431 H 713.688 -0.710227 3.16427 0
M  V30 7432 H 713.473 0.944243 3.80561 0
M  V30 7433 H 714.963 0.0259223 4.17592 0
M  V30 7434 N 715.4 -1.26948 0.933913 0
M  V30 7435 C 716.363 -2.24889 0.442457 0
M  V30 7436 C 717.363 -1.54594 -0.442426 0
M  V30 7437 O 718.553 -1.72502 -0.242629 0
M  V30 7438 C 715.685 -3.3896 -0.363173 0
M  V30 7439 H 716.878 -2.69879 1.30787 0
M  V30 7440 H 714.431 -1.38978 0.715187 0
M  V30 7441 H 715.166 -2.99361 -1.24714 0
M  V30 7442 H 714.951 -3.9116 0.271366 0
M  V30 7443 H 716.441 -4.11739 -0.697186 0
M  V30 7444 N 716.879 -0.700114 -1.41195 0
M  V30 7445 C 718.127 -0.232546 -2.00758 0
M  V30 7446 C 718.448 1.1734 -1.55745 0
M  V30 7447 O 717.718 1.79262 -0.790058 0
M  V30 7448 H 716.298 -0.0829845 -0.742376 0
M  V30 7449 H 718.96 -0.902289 -1.72756 0
M  V30 7450 H 718.056 -0.253521 -3.11069 0
M  V30 7451 N 718.357 1.51182 -0.445186 0
M  V30 7452 C 719.585 2.06568 0.117091 0
M  V30 7453 C 720 1.31182 1.35781 0
M  V30 7454 O 719.357 0.373605 1.78635 0
M  V30 7455 C 719.408 3.58917 0.431408 0
M  V30 7456 O 719.129 4.31456 -0.760078 0
M  V30 7457 C 720.63 4.30843 1.0435 0
M  V30 7458 H 717.85 0.670985 0.00444436 0
M  V30 7459 H 720.394 1.94666 -0.626525 0
M  V30 7460 H 718.549 3.70708 1.12493 0
M  V30 7461 H 718.963 5.22215 -0.489048 0
M  V30 7462 H 720.437 5.38499 1.21337 0
M  V30 7463 H 720.914 3.89644 2.02667 0
M  V30 7464 H 721.52 4.23516 0.38913 0
M  V30 7465 N 719.835 0.176821 1.56605 0
M  V30 7466 C 721.081 -0.467406 1.9734 0
M  V30 7467 C 721.414 -1.62523 1.06301 0
M  V30 7468 O 720.689 -1.94182 0.11125 0
M  V30 7469 C 720.972 -0.945106 3.47476 0
M  V30 7470 C 720.825 0.213273 4.49294 0
M  V30 7471 C 722.144 -1.8169 4.00845 0
M  V30 7472 H 719.263 -0.168426 0.717497 0
M  V30 7473 H 721.905 0.264065 1.88156 0
M  V30 7474 H 720.055 -1.56841 3.55434 0
M  V30 7475 H 721.727 0.850508 4.53392 0
M  V30 7476 H 719.97 0.867918 4.25029 0
M  V30 7477 H 720.641 -0.163187 5.51759 0
M  V30 7478 H 723.117 -1.29139 3.95553 0
M  V30 7479 H 721.993 -2.12015 5.06301 0
M  V30 7480 H 722.254 -2.76463 3.44994 0
M  V30 7481 N 721.313 -1.57302 -0.09688 0
M  V30 7482 C 722.562 -1.85183 -0.799388 0
M  V30 7483 C 722.875 -0.765818 -1.79985 0
M  V30 7484 O 724.081 -0.931696 -2.55013 0
M  V30 7485 C 722.537 -3.28399 -1.47249 0
M  V30 7486 C 722.145 -4.45066 -0.511888 0
M  V30 7487 C 723.889 -3.65506 -2.15883 0
M  V30 7488 C 721.796 -5.79315 -1.18948 0
M  V30 7489 H 720.726 -0.690752 -0.302287 0
M  V30 7490 H 723.377 -1.83425 -0.0523104 0
M  V30 7491 H 721.759 -3.24692 -2.26697 0
M  V30 7492 H 722.933 -4.60116 0.250962 0
M  V30 7493 H 721.248 -4.16343 0.0686576 0
M  V30 7494 H 723.845 -4.63087 -2.67309 0
M  V30 7495 H 724.188 -2.94041 -2.94696 0
M  V30 7496 H 724.721 -3.71094 -1.43298 0
M  V30 7497 H 721.46 -6.54007 -0.442198 0
M  V30 7498 H 720.98 -5.68111 -1.9238 0
M  V30 7499 H 722.659 -6.23816 -1.71646 0
M  V30 7500 N 722.791 0.367657 -1.53252 0
M  V30 7501 C 723.721 1.45632 -1.8252 0
M  V30 7502 C 724.702 1.55979 -0.678568 0
M  V30 7503 O 725.887 1.70581 -0.928217 0
M  V30 7504 C 723.017 2.82994 -2.01325 0
M  V30 7505 C 721.971 2.87473 -3.17086 0
M  V30 7506 C 721.297 4.2749 -3.21179 0
M  V30 7507 C 722.597 2.55182 -4.55719 0
M  V30 7508 H 724.291 1.21387 -2.73689 0
M  V30 7509 H 721.837 0.58251 -1.31692 0
M  V30 7510 H 723.79 3.59179 -2.20383 0
M  V30 7511 H 722.514 3.08622 -1.06864 0
M  V30 7512 H 721.173 2.13739 -2.97844 0
M  V30 7513 H 720.821 4.5019 -2.24361 0
M  V30 7514 H 720.521 4.31403 -3.98955 0
M  V30 7515 H 722.045 5.0555 -3.42419 0
M  V30 7516 H 723.459 3.21081 -4.74953 0
M  V30 7517 H 721.856 2.70414 -5.3572 0
M  V30 7518 H 722.926 1.5044 -4.60973 0
M  V30 7519 N 724.269 1.44576 0.627338 0
M  V30 7520 C 725.497 1.51048 1.41394 0
M  V30 7521 C 725.912 0.136568 1.88305 0
M  V30 7522 O 725.269 -0.858251 1.6106 0
M  V30 7523 C 725.32 2.47837 2.63172 0
M  V30 7524 O 725.041 3.79887 2.18215 0
M  V30 7525 C 726.542 2.63811 3.56257 0
M  V30 7526 H 723.762 0.512171 0.4335 0
M  V30 7527 H 726.306 1.89576 0.766878 0
M  V30 7528 H 724.461 2.12433 3.23961 0
M  V30 7529 H 724.875 4.32177 2.97192 0
M  V30 7530 H 726.349 3.35554 4.38301 0
M  V30 7531 H 726.826 1.69169 4.05313 0
M  V30 7532 H 727.432 3.0013 3.01333 0
M  V30 7533 N 725.747 -0.868086 1.31537 0
M  V30 7534 C 726.993 -1.62367 1.2151 0
M  V30 7535 C 727.326 -1.92883 -0.225819 0
M  V30 7536 O 726.601 -1.56176 -1.15927 0
M  V30 7537 C 726.884 -2.95268 2.06129 0
M  V30 7538 C 726.737 -2.71619 3.58529 0
M  V30 7539 C 728.056 -3.96391 1.91212 0
M  V30 7540 H 725.175 -0.589178 0.442762 0
M  V30 7541 H 727.817 -1.00336 1.61347 0
M  V30 7542 H 725.967 -3.4821 1.72284 0
M  V30 7543 H 727.639 -2.25334 4.0252 0
M  V30 7544 H 725.882 -2.05817 3.81866 0
M  V30 7545 H 726.553 -3.66192 4.13047 0
M  V30 7546 H 729.029 -3.52663 2.20834 0
M  V30 7547 H 727.905 -4.87263 2.52718 0
M  V30 7548 H 728.166 -4.33335 0.875953 0
M  V30 7549 N 727.225 -1.14528 -1.08264 0
M  V30 7550 C 728.471 -0.91576 -1.80947 0
M  V30 7551 C 728.804 0.55623 -1.86064 0
M  V30 7552 O 728.079 1.41207 -1.33756 0
M  V30 7553 C 728.362 -1.51917 -3.26486 0
M  V30 7554 C 728.215 -3.06111 -3.2957 0
M  V30 7555 C 729.534 -1.19724 -4.23502 0
M  V30 7556 H 726.653 -0.334113 -0.656915 0
M  V30 7557 H 729.295 -1.41547 -1.26746 0
M  V30 7558 H 727.445 -1.0942 -3.72773 0
M  V30 7559 H 729.117 -3.57448 -2.91597 0
M  V30 7560 H 727.36 -3.40483 -2.688 0
M  V30 7561 H 728.031 -3.43438 -4.32151 0
M  V30 7562 H 730.507 -1.56467 -3.85561 0
M  V30 7563 H 729.383 -1.64575 -5.23647 0
M  V30 7564 H 729.644 -0.112771 -4.41956 0
M  V30 7565 N 728.703 1.26451 -0.940633 0
M  V30 7566 C 729.95 1.93778 -0.587909 0
M  V30 7567 C 730.278 1.73811 0.872935 0
M  V30 7568 O 729.533 1.06816 1.63978 0
M  V30 7569 C 729.832 3.46503 -0.875794 0
M  V30 7570 C 729.498 3.86609 -2.32043 0
M  V30 7571 C 728.16 3.97269 -2.71534 0
M  V30 7572 C 730.512 4.0672 -3.25927 0
M  V30 7573 C 727.84 4.25436 -4.04006 0
M  V30 7574 C 730.192 4.36375 -4.57995 0
M  V30 7575 C 728.856 4.45249 -4.97302 0
M  V30 7576 H 728.126 0.709084 -0.215131 0
M  V30 7577 H 730.773 1.50272 -1.18704 0
M  V30 7578 H 729.078 3.91319 -0.194124 0
M  V30 7579 H 730.775 3.96759 -0.581665 0
M  V30 7580 H 727.365 3.78858 -2.00411 0
M  V30 7581 H 731.549 3.97912 -2.96614 0
M  V30 7582 H 726.805 4.30519 -4.34124 0
M  V30 7583 H 730.979 4.50882 -5.30734 0
M  V30 7584 H 728.606 4.66829 -5.99979 0
M  V30 7585 N 730.181 0.707592 1.40822 0
M  V30 7586 C 731.144 0.0587224 2.29125 0
M  V30 7587 C 732.144 -0.695624 1.44975 0
M  V30 7588 O 733.334 -0.528718 1.65983 0
M  V30 7589 C 730.466 -0.926939 3.28056 0
M  V30 7590 H 731.659 0.836349 2.88002 0
M  V30 7591 H 729.212 0.471778 1.4901 0
M  V30 7592 H 729.947 -1.7319 2.74182 0
M  V30 7593 H 729.732 -0.389015 3.90165 0
M  V30 7594 H 731.222 -1.37837 3.94196 0
M  V30 7595 N 731.66 -1.50943 0.453197 0
M  V30 7596 C 732.937 -1.94872 -0.168633 0
M  V30 7597 C 733.317 -1.39272 -1.5864 0
M  V30 7598 O 732.665 -0.586272 -2.20851 0
M  V30 7599 C 732.875 -3.48757 -0.130217 0
M  V30 7600 C 734.223 -4.23331 -0.327975 0
M  V30 7601 O 735.247 -3.55594 -0.207619 0
M  V30 7602 O 734.106 -5.43529 -0.569077 0
M  V30 7603 H 731.2 -0.818042 -0.121394 0
M  V30 7604 H 733.746 -1.61782 0.512316 0
M  V30 7605 H 732.518 -3.81725 0.860346 0
M  V30 7606 H 732.141 -3.88333 -0.853397 0
M  V30 7607 N 733.138 -0.185124 -1.56509 0
M  V30 7608 C 734.07 0.771401 -2.15829 0
M  V30 7609 C 735.083 1.18392 -1.11747 0
M  V30 7610 O 736.272 1.12137 -1.38879 0
M  V30 7611 C 733.372 2.05169 -2.69739 0
M  V30 7612 C 732.545 1.80056 -3.98621 0
M  V30 7613 C 731.604 2.92435 -4.37456 0
M  V30 7614 O 730.63 2.62473 -5.05071 0
M  V30 7615 N 731.832 4.20554 -4.00143 0
M  V30 7616 H 734.597 0.264184 -2.98533 0
M  V30 7617 H 732.158 -0.00281069 -1.619 0
M  V30 7618 H 734.15 2.7947 -2.92709 0
M  V30 7619 H 732.72 2.47041 -1.91545 0
M  V30 7620 H 731.94 0.895862 -3.83885 0
M  V30 7621 H 733.228 1.60662 -4.82768 0
M  V30 7622 H 732.626 4.47753 -3.45736 0
M  V30 7623 H 731.183 4.91514 -4.28085 0
M  V30 7624 N 734.616 1.57351 0.0885366 0
M  V30 7625 C 735.844 1.90631 0.804196 0
M  V30 7626 C 736.259 0.779474 1.71958 0
M  V30 7627 O 735.616 -0.248179 1.80805 0
M  V30 7628 C 735.667 3.23568 1.61202 0
M  V30 7629 O 735.388 4.31917 0.733447 0
M  V30 7630 C 736.889 3.70753 2.43016 0
M  V30 7631 H 734.109 0.630501 0.229585 0
M  V30 7632 H 736.653 2.044 0.0638092 0
M  V30 7633 H 734.808 3.11377 2.30485 0
M  V30 7634 H 735.222 5.08297 1.29361 0
M  V30 7635 H 736.696 4.66447 2.9518 0
M  V30 7636 H 737.173 2.98922 3.2178 0
M  V30 7637 H 737.779 3.85834 1.7892 0
M  V30 7638 N 736.094 -0.359525 1.53444 0
M  V30 7639 C 737.024 -1.44662 1.8329 0
M  V30 7640 C 738.005 -1.55617 0.68683 0
M  V30 7641 O 739.19 -1.70086 0.93725 0
M  V30 7642 C 736.32 -2.81923 2.02822 0
M  V30 7643 C 735.274 -2.85787 3.18606 0
M  V30 7644 C 734.6 -4.25781 3.23442 0
M  V30 7645 C 735.9 -2.52762 4.57065 0
M  V30 7646 H 737.594 -1.19934 2.74329 0
M  V30 7647 H 735.14 -0.575517 1.31999 0
M  V30 7648 H 737.093 -3.58005 2.22285 0
M  V30 7649 H 735.817 -3.08051 1.085 0
M  V30 7650 H 734.476 -2.12157 2.98973 0
M  V30 7651 H 734.124 -4.48994 2.26745 0
M  V30 7652 H 733.824 -4.29281 4.01238 0
M  V30 7653 H 735.348 -5.03727 3.45096 0
M  V30 7654 H 736.762 -3.18557 4.76649 0
M  V30 7655 H 735.159 -2.67569 5.37147 0
M  V30 7656 H 736.229 -1.47993 4.61764 0
M  V30 7657 N 737.572 -1.44907 -0.619662 0
M  V30 7658 C 738.797 -1.52021 -1.41083 0
M  V30 7659 C 739.222 -0.14976 -1.87503 0
M  V30 7660 O 738.58 0.863303 -1.59426 0
M  V30 7661 C 738.628 -2.49911 -2.59955 0
M  V30 7662 O 737.732 -2.00857 -3.60181 0
M  V30 7663 H 737.073 -0.512912 -0.421684 0
M  V30 7664 H 739.603 -1.90149 -0.755282 0
M  V30 7665 H 739.613 -2.68323 -3.07354 0
M  V30 7666 H 738.288 -3.4945 -2.25516 0
M  V30 7667 H 736.865 -1.92265 -3.19513 0
M  V30 7668 N 739.05 0.861098 -1.31996 0
M  V30 7669 C 740.278 1.6474 -1.25173 0
M  V30 7670 C 740.693 1.87926 0.181425 0
M  V30 7671 O 740.05 1.4437 1.1164 0
M  V30 7672 C 740.101 3.01036 -2.0015 0
M  V30 7673 O 739.822 2.7888 -3.37872 0
M  V30 7674 C 741.323 3.95481 -2.00273 0
M  V30 7675 H 738.543 0.513314 -0.432146 0
M  V30 7676 H 741.087 1.07419 -1.74016 0
M  V30 7677 H 739.242 3.55021 -1.55046 0
M  V30 7678 H 739.656 3.65514 -3.76165 0
M  V30 7679 H 741.13 4.88403 -2.57229 0
M  V30 7680 H 741.607 4.27957 -0.987407 0
M  V30 7681 H 742.213 3.47433 -2.45296 0
M  V30 7682 N 740.528 1.15101 1.07655 0
M  V30 7683 C 741.774 0.925343 1.80458 0
M  V30 7684 C 742.107 -0.546354 1.86356 0
M  V30 7685 O 741.382 -1.40496 1.34503 0
M  V30 7686 C 741.665 1.53646 3.25676 0
M  V30 7687 C 741.518 3.07854 3.27942 0
M  V30 7688 C 742.837 1.21968 4.22861 0
M  V30 7689 H 739.956 0.337592 0.655134 0
M  V30 7690 H 742.598 1.42217 1.25993 0
M  V30 7691 H 740.748 1.11395 3.72187 0
M  V30 7692 H 742.42 3.58989 2.89697 0
M  V30 7693 H 740.663 3.41904 2.66991 0
M  V30 7694 H 741.334 3.45725 4.30324 0
M  V30 7695 H 743.81 1.5851 3.84726 0
M  V30 7696 H 742.686 1.67349 5.22767 0
M  V30 7697 H 742.947 0.136207 4.4189 0
M  V30 7698 N 742.006 -1.2595 0.947325 0
M  V30 7699 C 742.936 -2.28521 0.479604 0
M  V30 7700 C 743.917 -1.63469 -0.470293 0
M  V30 7701 O 745.102 -1.90627 -0.370824 0
M  V30 7702 C 742.232 -3.46397 -0.250289 0
M  V30 7703 C 741.186 -4.23578 0.613643 0
M  V30 7704 C 740.512 -5.34131 -0.246568 0
M  V30 7705 C 741.812 -4.86979 1.88809 0
M  V30 7706 H 743.506 -2.67895 1.33688 0
M  V30 7707 H 741.052 -1.28783 0.644274 0
M  V30 7708 H 743.005 -4.17269 -0.588576 0
M  V30 7709 H 741.729 -3.05993 -1.14175 0
M  V30 7710 H 740.388 -3.54478 0.93491 0
M  V30 7711 H 740.036 -4.89968 -1.13756 0
M  V30 7712 H 739.736 -5.86683 0.328123 0
M  V30 7713 H 741.26 -6.07839 -0.579986 0
M  V30 7714 H 742.674 -5.50034 1.61666 0
M  V30 7715 H 741.071 -5.49675 2.40784 0
M  V30 7716 H 742.141 -4.09575 2.5957 0
M  V30 7717 N 743.484 -0.715051 -1.40445 0
M  V30 7718 C 744.394 -0.0631624 -2.34515 0
M  V30 7719 C 745.41 0.744397 -1.57273 0
M  V30 7720 O 746.586 0.677475 -1.89663 0
M  V30 7721 C 743.651 0.847915 -3.36172 0
M  V30 7722 C 742.712 0.0303655 -4.29289 0
M  V30 7723 C 741.945 0.898051 -5.2609 0
M  V30 7724 O 742.168 2.13729 -5.28844 0
M  V30 7725 O 741.102 0.337328 -6.00954 0
M  V30 7726 H 744.928 -0.839078 -2.91879 0
M  V30 7727 H 742.513 -0.475527 -1.4163 0
M  V30 7728 H 744.395 1.3698 -3.98515 0
M  V30 7729 H 743.07 1.60299 -2.81222 0
M  V30 7730 H 741.977 -0.536573 -3.70232 0
M  V30 7731 H 743.31 -0.686474 -4.87389 0
M  V30 7732 N 744.962 1.50701 -0.461195 0
M  V30 7733 C 745.925 2.2686 0.326679 0
M  V30 7734 C 746.925 1.31243 0.929085 0
M  V30 7735 O 748.115 1.54754 0.799807 0
M  V30 7736 C 745.247 3.07844 1.46441 0
M  V30 7737 H 746.44 2.97954 -0.341095 0
M  V30 7738 H 743.993 1.54814 -0.214984 0
M  V30 7739 H 744.728 2.41223 2.16753 0
M  V30 7740 H 744.513 3.78101 1.03836 0
M  V30 7741 H 746.003 3.65469 2.02044 0
M  V30 7742 N 746.441 0.193421 1.56409 0
M  V30 7743 C 747.669 -0.451438 2.01915 0
M  V30 7744 C 748.084 -1.55306 1.07357 0
M  V30 7745 O 747.441 -1.82333 0.0781512 0
M  V30 7746 C 747.492 -1.00931 3.47124 0
M  V30 7747 O 747.213 0.0483623 4.38073 0
M  V30 7748 C 748.714 -1.73021 4.0814 0
M  V30 7749 H 745.934 -0.113495 0.661332 0
M  V30 7750 H 748.478 0.301636 2.02263 0
M  V30 7751 H 746.633 -1.71277 3.47481 0
M  V30 7752 H 747.047 -0.366644 5.23217 0
M  V30 7753 H 748.521 -2.07289 5.11601 0
M  V30 7754 H 748.998 -2.6333 3.51502 0
M  V30 7755 H 749.604 -1.07264 4.11551 0
M  V30 7756 N 747.919 -1.57396 -0.0801906 0
M  V30 7757 C 749.335 -1.53564 -0.434778 0
M  V30 7758 C 749.535 -0.912372 -1.79661 0
M  V30 7759 O 748.591 -0.511268 -2.4727 0
M  V30 7760 C 749.904 -2.98244 -0.383561 0
M  V30 7761 C 751.452 -3.09536 -0.46435 0
M  V30 7762 C 751.927 -4.55851 -0.443128 0
M  V30 7763 N 753.418 -4.60456 -0.503448 0
M  V30 7764 C 754.153 -5.71135 -0.509106 0
M  V30 7765 N 753.649 -6.91203 -0.47008 0
M  V30 7766 N 755.442 -5.59353 -0.555035 0
M  V30 7767 H 747.593 -1.96281 0.811635 0
M  V30 7768 H 749.856 -0.898041 0.303689 0
M  V30 7769 H 749.562 -3.47369 0.550236 0
M  V30 7770 H 749.436 -3.57705 -1.19694 0
M  V30 7771 H 751.823 -2.6039 -1.38857 0
M  V30 7772 H 751.904 -2.53 0.377445 0
M  V30 7773 H 751.548 -5.05653 0.477207 0
M  V30 7774 H 751.478 -5.10242 -1.30234 0
M  V30 7775 H 753.969 -3.74048 -0.538199 0
M  V30 7776 H 754.282 -7.7132 -0.478091 0
M  V30 7777 H 752.627 -6.93625 -0.436897 0
M  V30 7778 H 755.818 -4.64453 -0.583158 0
M  V30 7779 H 755.991 -6.4561 -0.555976 0
M  V30 7780 N 749.397 0.351382 -1.53633 0
M  V30 7781 C 750.643 1.09411 -1.70754 0
M  V30 7782 C 750.976 1.88544 -0.465293 0
M  V30 7783 O 750.251 1.86923 0.537608 0
M  V30 7784 C 750.534 2.04173 -2.96623 0
M  V30 7785 C 750.387 1.28556 -4.31038 0
M  V30 7786 C 751.706 3.04102 -3.18136 0
M  V30 7787 H 748.825 0.396373 -0.621335 0
M  V30 7788 H 751.467 0.373464 -1.86293 0
M  V30 7789 H 749.617 2.65625 -2.83506 0
M  V30 7790 H 751.289 0.697786 -4.55992 0
M  V30 7791 H 749.532 0.587498 -4.29803 0
M  V30 7792 H 750.203 1.97989 -5.15271 0
M  V30 7793 H 752.679 2.5276 -3.30532 0
M  V30 7794 H 751.555 3.67616 -4.07615 0
M  V30 7795 H 751.816 3.75053 -2.34068 0
M  V30 7796 N 750.875 1.45233 0.611969 0
M  V30 7797 C 752.291 1.29542 0.932251 0
M  V30 7798 C 752.491 0.24523 2.00002 0
M  V30 7799 O 751.547 -0.362333 2.49887 0
M  V30 7800 C 752.86 2.67301 1.37733 0
M  V30 7801 C 754.408 2.75163 1.49178 0
M  V30 7802 C 754.883 4.13437 1.97064 0
M  V30 7803 N 756.374 4.15709 2.04304 0
M  V30 7804 C 757.109 5.19566 2.42568 0
M  V30 7805 N 756.605 6.33771 2.79832 0
M  V30 7806 N 758.398 5.06923 2.42869 0
M  V30 7807 H 750.549 2.12192 -0.0938679 0
M  V30 7808 H 752.812 0.947775 0.0206569 0
M  V30 7809 H 752.518 3.45318 0.666951 0
M  V30 7810 H 752.392 2.95472 2.3447 0
M  V30 7811 H 754.779 1.97453 2.19309 0
M  V30 7812 H 754.86 2.50712 0.507674 0
M  V30 7813 H 754.504 4.91631 1.27521 0
M  V30 7814 H 754.434 4.35277 2.9638 0
M  V30 7815 H 756.925 3.33293 1.78113 0
M  V30 7816 H 757.238 7.08815 3.07898 0
M  V30 7817 H 755.583 6.37179 2.77538 0
M  V30 7818 H 758.774 4.1675 2.1316 0
M  V30 7819 H 758.947 5.87981 2.72364 0
M  V30 7820 N 752.353 -0.854086 1.3245 0
M  V30 7821 C 753.316 -1.94427 1.21371 0
M  V30 7822 C 754.316 -1.60219 0.136613 0
M  V30 7823 O 755.506 -1.69846 0.387057 0
M  V30 7824 C 752.638 -3.29698 0.866701 0
M  V30 7825 H 753.831 -2.05679 2.18257 0
M  V30 7826 H 751.384 -1.04434 1.1629 0
M  V30 7827 H 752.119 -3.24145 -0.100319 0
M  V30 7828 H 751.904 -3.55903 1.64545 0
M  V30 7829 H 753.394 -4.09599 0.813515 0
M  V30 7830 N 753.831 -1.1567 -1.07043 0
M  V30 7831 C 754.778 -0.856336 -2.14326 0
M  V30 7832 C 755.748 0.192051 -1.64986 0
M  V30 7833 O 756.933 0.0589148 -1.90709 0
M  V30 7834 C 754.073 -0.355227 -3.43267 0
M  V30 7835 C 753.186 -1.46555 -4.06381 0
M  V30 7836 C 752.321 -0.920245 -5.23168 0
M  V30 7837 C 751.36 -2.00729 -5.78251 0
M  V30 7838 N 750.497 -1.47813 -6.86364 0
M  V30 7839 H 755.337 -1.77514 -2.39359 0
M  V30 7840 H 752.874 -0.885676 -1.17449 0
M  V30 7841 H 754.832 -0.0463804 -4.17174 0
M  V30 7842 H 753.462 0.526649 -3.18475 0
M  V30 7843 H 752.514 -1.89052 -3.30096 0
M  V30 7844 H 753.826 -2.28616 -4.43324 0
M  V30 7845 H 752.98 -0.564127 -6.04072 0
M  V30 7846 H 751.719 -0.0688477 -4.87651 0
M  V30 7847 H 750.724 -2.3722 -4.95991 0
M  V30 7848 H 751.949 -2.86252 -6.15822 0
M  V30 7849 H 749.895 -0.649145 -6.5278 0
M  V30 7850 H 749.812 -2.23498 -7.22208 0
M  V30 7851 H 751.08 -1.15036 -7.70965 0
M  V30 7852 N 755.309 1.25446 -0.953992 0
M  V30 7853 C 756.558 1.92441 -0.604101 0
M  V30 7854 C 756.871 1.75543 0.862796 0
M  V30 7855 O 758.077 2.37106 1.32262 0
M  V30 7856 C 756.533 3.44854 -1.02974 0
M  V30 7857 C 756.141 3.70464 -2.51914 0
M  V30 7858 C 757.885 4.1778 -0.752352 0
M  V30 7859 C 755.792 5.1638 -2.88281 0
M  V30 7860 H 754.722 0.720508 -0.222227 0
M  V30 7861 H 757.373 1.42318 -1.15836 0
M  V30 7862 H 755.755 3.93935 -0.403904 0
M  V30 7863 H 756.929 3.32038 -3.19511 0
M  V30 7864 H 755.244 3.10797 -2.77117 0
M  V30 7865 H 757.841 5.25261 -1.00024 0
M  V30 7866 H 758.184 4.15135 0.311212 0
M  V30 7867 H 758.717 3.74605 -1.33851 0
M  V30 7868 H 755.456 5.24135 -3.93653 0
M  V30 7869 H 754.976 5.55855 -2.25357 0
M  V30 7870 H 756.655 5.84497 -2.77439 0
M  V30 7871 N 756.787 0.722489 1.40064 0
M  V30 7872 C 758.035 0.264455 2.00362 0
M  V30 7873 C 758.356 -1.14847 1.57592 0
M  V30 7874 O 757.626 -1.77982 0.818477 0
M  V30 7875 H 756.206 0.0947846 0.740962 0
M  V30 7876 H 758.868 0.929659 1.71299 0
M  V30 7877 H 757.964 0.302977 3.10626 0
M  V30 7878 N 758.265 -1.50454 0.469181 0
M  V30 7879 C 759.676 -1.86695 0.0136034 0
M  V30 7880 C 760.027 -1.38413 -1.39055 0
M  V30 7881 O 759.152 -0.748294 -2.03051 0
M  V30 7882 C 759.747 -3.38795 0.0179098 0
M  V30 7883 C 758.306 -3.74455 -0.382191 0
M  V30 7884 C 757.453 -2.74338 0.404207 0
M  V30 7885 H 760.404 -1.43225 0.683547 0
M  V30 7886 H 760.425 -3.72321 -0.78468 0
M  V30 7887 H 759.937 -3.73906 1.04 0
M  V30 7888 H 758.038 -3.44944 -1.4087 0
M  V30 7889 H 758.151 -4.79025 -0.084862 0
M  V30 7890 H 756.515 -2.54305 -0.141829 0
M  V30 7891 H 757.298 -3.12293 1.42577 0
M  V30 7892 N 759.743 -0.201713 -1.56304 0
M  V30 7893 C 760.968 0.443815 -2.02596 0
M  V30 7894 C 761.393 1.53945 -1.08086 0
M  V30 7895 O 760.751 1.81182 -0.0655056 0
M  V30 7896 C 760.799 0.971066 -3.47279 0
M  V30 7897 O 759.903 2.0836 -3.55893 0
M  V30 7898 H 759.244 0.10294 -0.655972 0
M  V30 7899 H 761.774 -0.314533 -2.02168 0
M  V30 7900 H 761.784 1.28598 -3.87204 0
M  V30 7901 H 760.459 0.169048 -4.15556 0
M  V30 7902 H 759.036 1.77683 -3.27846 0
M  V30 7903 N 761.222 1.57436 0.0718424 0
M  V30 7904 C 762.154 2.00412 1.1121 0
M  V30 7905 C 763.167 0.910074 1.34987 0
M  V30 7906 O 764.356 1.18796 1.33228 0
M  V30 7907 C 761.456 2.32786 2.46301 0
M  V30 7908 C 760.629 3.64036 2.4248 0
M  V30 7909 C 759.688 3.8408 3.59679 0
M  V30 7910 O 758.714 4.55667 3.4111 0
M  V30 7911 N 759.916 3.2643 4.80025 0
M  V30 7912 H 762.681 2.90264 0.746118 0
M  V30 7913 H 760.242 1.59791 0.260495 0
M  V30 7914 H 762.234 2.43368 3.23348 0
M  V30 7915 H 760.804 1.48824 2.74901 0
M  V30 7916 H 760.024 3.64208 1.50818 0
M  V30 7917 H 761.312 4.50217 2.37027 0
M  V30 7918 H 760.71 2.68325 4.98014 0
M  V30 7919 H 759.267 3.42461 5.54584 0
M  V30 7920 N 762.7 -0.34323 1.53817 0
M  V30 7921 C 763.663 -1.40444 1.8113 0
M  V30 7922 C 764.663 -1.45604 0.682366 0
M  V30 7923 O 765.853 -1.45974 0.950649 0
M  V30 7924 C 762.985 -2.79369 1.95361 0
M  V30 7925 H 764.178 -1.17489 2.75928 0
M  V30 7926 H 761.731 -0.577636 1.45234 0
M  V30 7927 H 762.466 -3.07607 1.02707 0
M  V30 7928 H 762.251 -2.7702 2.77493 0
M  V30 7929 H 763.741 -3.56178 2.18008 0
M  V30 7930 N 764.178 -1.45556 -0.604258 0
M  V30 7931 C 765.424 -1.50958 -1.3632 0
M  V30 7932 C 765.779 -0.15051 -1.9181 0
M  V30 7933 O 765.072 0.838035 -1.72301 0
M  V30 7934 C 765.266 -2.52697 -2.52743 0
M  V30 7935 C 765.095 -3.98364 -2.08654 0
M  V30 7936 C 763.865 -4.66295 -1.94671 0
M  V30 7937 C 766.063 -4.86801 -1.6592 0
M  V30 7938 N 764.045 -5.96669 -1.44428 0
M  V30 7939 C 765.416 -6.06829 -1.27115 0
M  V30 7940 C 767.471 -4.73634 -1.53542 0
M  V30 7941 C 766.174 -7.15149 -0.771676 0
M  V30 7942 C 768.2 -5.82005 -1.04998 0
M  V30 7943 C 767.562 -7.01191 -0.671599 0
M  V30 7944 H 763.661 -0.607329 -0.492621 0
M  V30 7945 H 766.245 -1.82048 -0.69041 0
M  V30 7946 H 764.416 -2.23554 -3.17614 0
M  V30 7947 H 766.148 -2.48227 -3.19633 0
M  V30 7948 H 762.903 -4.21496 -2.15959 0
M  V30 7949 H 763.327 -6.66003 -1.21528 0
M  V30 7950 H 767.969 -3.81898 -1.81421 0
M  V30 7951 H 765.687 -8.06671 -0.480442 0
M  V30 7952 H 769.273 -5.73851 -0.958423 0
M  V30 7953 H 768.153 -7.83619 -0.301752 0
M  V30 7954 N 765.656 0.84705 -1.32902 0
M  V30 7955 C 766.886 1.63166 -1.26729 0
M  V30 7956 C 767.294 1.88474 0.165595 0
M  V30 7957 O 766.637 1.45947 1.11558 0
M  V30 7958 C 766.699 3.0103 -1.96522 0
M  V30 7959 C 766.363 2.9873 -3.45846 0
M  V30 7960 C 767.36 2.75032 -4.41196 0
M  V30 7961 C 765.045 3.19125 -3.87898 0
M  V30 7962 C 767.039 2.71743 -5.76571 0
M  V30 7963 C 764.726 3.15462 -5.2338 0
M  V30 7964 C 765.724 2.91801 -6.17528 0
M  V30 7965 O 765.412 2.88027 -7.5053 0
M  V30 7966 H 765.144 0.51469 -0.438258 0
M  V30 7967 H 767.698 1.06383 -1.75704 0
M  V30 7968 H 765.928 3.59634 -1.42128 0
M  V30 7969 H 767.617 3.61821 -1.83958 0
M  V30 7970 H 768.383 2.59034 -4.10032 0
M  V30 7971 H 764.262 3.36565 -3.15032 0
M  V30 7972 H 767.806 2.53194 -6.5003 0
M  V30 7973 H 763.703 3.31006 -5.54171 0
M  V30 7974 H 764.471 3.03927 -7.59981 0
M  V30 7975 N 767.134 1.16236 1.06428 0
M  V30 7976 C 768.362 0.967184 1.82902 0
M  V30 7977 C 768.777 -0.484601 1.82475 0
M  V30 7978 O 768.134 -1.33631 1.24294 0
M  V30 7979 C 768.185 1.48534 3.29576 0
M  V30 7980 O 767.906 2.88026 3.3011 0
M  V30 7981 C 769.407 1.33298 4.22784 0
M  V30 7982 H 766.627 0.342923 0.576754 0
M  V30 7983 H 769.171 1.54232 1.34286 0
M  V30 7984 H 767.326 0.952513 3.75508 0
M  V30 7985 H 767.74 3.11721 4.21818 0
M  V30 7986 H 769.214 1.74385 5.23731 0
M  V30 7987 H 769.691 0.278356 4.38317 0
M  V30 7988 H 770.297 1.85535 3.82697 0
M  V30 7989 N 768.612 -1.24939 0.960631 0
M  V30 7990 C 769.522 -2.29374 0.492435 0
M  V30 7991 C 770.538 -1.68262 -0.443154 0
M  V30 7992 O 771.714 -1.98875 -0.31793 0
M  V30 7993 C 768.779 -3.46023 -0.216626 0
M  V30 7994 C 767.84 -4.22557 0.757915 0
M  V30 7995 C 767.073 -5.33636 0.0825969 0
M  V30 7996 O 767.296 -5.59084 -1.13054 0
M  V30 7997 O 766.23 -5.96939 0.771177 0
M  V30 7998 H 770.056 -2.71525 1.36044 0
M  V30 7999 H 767.641 -1.30499 0.72735 0
M  V30 8000 H 769.523 -4.16885 -0.615241 0
M  V30 8001 H 768.198 -3.05862 -1.05971 0
M  V30 8002 H 767.105 -3.54099 1.20685 0
M  V30 8003 H 768.438 -4.66516 1.5692 0
M  V30 8004 N 770.09 -0.729906 -1.39679 0
M  V30 8005 C 771.038 -0.0756589 -2.32477 0
M  V30 8006 C 772.032 0.731438 -1.52795 0
M  V30 8007 O 773.238 0.633195 -1.68495 0
M  V30 8008 H 769.613 -0.00566492 -0.751979 0
M  V30 8009 H 771.584 -0.874797 -2.85289 0
M  V30 8010 C 770.333 0.821313 -3.37861 0
M  V30 8011 H 769.656 0.209666 -3.9925 0
M  V30 8012 H 771.096 1.24679 -4.05254 0
M  V30 8013 C 769.555 1.9533 -2.74495 0
M  V30 8014 O 770.085 3.04548 -2.61942 0
M  V30 8015 N 768.291 1.74119 -2.3266 0
M  V30 8016 H 767.838 0.852908 -2.4307 0
M  V30 8017 H 767.796 2.50036 -1.90603 0
M  V30 8018 N 771.568 1.50203 -0.477153 0
M  V30 8019 C 772.498 2.31517 0.303646 0
M  V30 8020 C 773.479 1.38696 0.984753 0
M  V30 8021 O 774.664 1.67615 0.980758 0
M  V30 8022 C 771.794 3.18598 1.38249 0
M  V30 8023 C 770.748 4.2002 0.822645 0
M  V30 8024 C 770.074 4.95878 2.00024 0
M  V30 8025 C 771.374 5.22023 -0.170185 0
M  V30 8026 H 773.068 2.97042 -0.375027 0
M  V30 8027 H 770.614 1.42848 -0.181802 0
M  V30 8028 H 772.567 3.74282 1.93625 0
M  V30 8029 H 771.291 2.5097 2.09002 0
M  V30 8030 H 769.95 3.65445 0.290813 0
M  V30 8031 H 769.598 4.24717 2.69489 0
M  V30 8032 H 769.298 5.64487 1.63183 0
M  V30 8033 H 770.822 5.54399 2.55878 0
M  V30 8034 H 772.236 5.72543 0.294606 0
M  V30 8035 H 770.633 5.98386 -0.453181 0
M  V30 8036 H 771.703 4.72396 -1.09408 0
M  V30 8037 N 773.046 0.209999 1.56195 0
M  V30 8038 C 774.462 -0.145598 1.58934 0
M  V30 8039 C 774.662 -1.59868 1.22656 0
M  V30 8040 O 773.718 -2.33689 0.956336 0
M  V30 8041 C 775.031 0.170243 3.00218 0
M  V30 8042 C 776.579 0.111548 3.12801 0
M  V30 8043 C 777.054 0.400904 4.56242 0
M  V30 8044 N 778.545 0.350058 4.61875 0
M  V30 8045 C 779.28 0.547598 5.70779 0
M  V30 8046 N 778.776 0.806291 6.88092 0
M  V30 8047 N 780.569 0.480827 5.6004 0
M  V30 8048 H 772.72 1.15804 1.78054 0
M  V30 8049 H 774.983 0.463326 0.827063 0
M  V30 8050 H 774.689 1.17833 3.31373 0
M  V30 8051 H 774.563 -0.520208 3.73596 0
M  V30 8052 H 776.95 -0.887162 2.81449 0
M  V30 8053 H 777.031 0.835302 2.41777 0
M  V30 8054 H 776.675 1.397 4.8831 0
M  V30 8055 H 776.605 -0.34391 5.25476 0
M  V30 8056 H 779.096 0.157334 3.77572 0
M  V30 8057 H 779.409 0.945433 7.66995 0
M  V30 8058 H 777.754 0.843355 6.89864 0
M  V30 8059 H 780.945 0.279037 4.67268 0
M  V30 8060 H 781.118 0.638189 6.4485 0
M  V30 8061 N 774.524 -1.57472 -0.0634922 0
M  V30 8062 C 775.754 -1.91608 -0.772645 0
M  V30 8063 C 776.162 -0.805019 -1.71219 0
M  V30 8064 O 775.505 0.229941 -1.82255 0
M  V30 8065 C 775.567 -3.21281 -1.61304 0
M  V30 8066 C 775.231 -4.49177 -0.841973 0
M  V30 8067 C 776.228 -5.19661 -0.157494 0
M  V30 8068 C 773.913 -4.9578 -0.80669 0
M  V30 8069 C 775.907 -6.35006 0.551948 0
M  V30 8070 C 773.594 -6.11028 -0.0934812 0
M  V30 8071 C 774.592 -6.80493 0.58463 0
M  V30 8072 O 774.28 -7.93542 1.28633 0
M  V30 8073 H 774.012 -0.637685 -0.224352 0
M  V30 8074 H 776.566 -2.05369 -0.0355279 0
M  V30 8075 H 774.796 -3.03752 -2.39315 0
M  V30 8076 H 776.485 -3.41003 -2.20162 0
M  V30 8077 H 777.251 -4.84681 -0.176006 0
M  V30 8078 H 773.13 -4.41579 -1.32397 0
M  V30 8079 H 776.674 -6.89161 1.0818 0
M  V30 8080 H 772.571 -6.45459 -0.0729258 0
M  V30 8081 H 773.339 -8.09708 1.19646 0
M  V30 8082 N 776.003 0.335068 -1.53997 0
M  V30 8083 C 777.233 1.0926 -1.75345 0
M  V30 8084 C 777.641 1.82568 -0.496545 0
M  V30 8085 O 776.984 1.75525 0.541897 0
M  V30 8086 C 777.046 2.14473 -2.88516 0
M  V30 8087 C 776.71 1.60665 -4.27827 0
M  V30 8088 C 777.707 1.05448 -5.09094 0
M  V30 8089 C 775.392 1.65255 -4.74337 0
M  V30 8090 C 777.386 0.555372 -6.34976 0
M  V30 8091 C 775.073 1.14956 -6.0019 0
M  V30 8092 C 776.071 0.601907 -6.80343 0
M  V30 8093 O 775.759 0.106445 -8.0383 0
M  V30 8094 H 775.491 0.331329 -0.589234 0
M  V30 8095 H 778.045 0.39042 -2.01655 0
M  V30 8096 H 776.275 2.88274 -2.5775 0
M  V30 8097 H 777.964 2.75857 -2.97755 0
M  V30 8098 H 778.73 1.01218 -4.74321 0
M  V30 8099 H 774.609 2.06822 -4.12002 0
M  V30 8100 H 778.153 0.127245 -6.97484 0
M  V30 8101 H 774.05 1.18891 -6.34457 0
M  V30 8102 H 774.818 0.222944 -8.18196 0
M  V30 8103 N 777.481 1.45874 0.596531 0
M  V30 8104 C 778.711 1.5379 1.37958 0
M  V30 8105 C 779.119 0.173086 1.88407 0
M  V30 8106 O 778.462 -0.837498 1.63498 0
M  V30 8107 C 778.524 2.47044 2.61169 0
M  V30 8108 C 778.188 3.93565 2.32283 0
M  V30 8109 C 779.185 4.83162 1.91965 0
M  V30 8110 C 776.87 4.38579 2.44854 0
M  V30 8111 C 778.864 6.15782 1.64593 0
M  V30 8112 C 776.551 5.71238 2.17095 0
M  V30 8113 C 777.549 6.59659 1.77028 0
M  V30 8114 O 777.237 7.89857 1.49601 0
M  V30 8115 H 776.969 0.523 0.428307 0
M  V30 8116 H 779.523 1.91855 0.733529 0
M  V30 8117 H 777.753 2.0397 3.28532 0
M  V30 8118 H 779.442 2.4552 3.23226 0
M  V30 8119 H 780.208 4.49646 1.8178 0
M  V30 8120 H 776.087 3.6999 2.75006 0
M  V30 8121 H 779.631 6.84757 1.33245 0
M  V30 8122 H 775.528 6.04306 2.26901 0
M  V30 8123 H 776.296 8.01991 1.63561 0
M  V30 8124 N 778.959 -0.83999 1.33349 0
M  V30 8125 C 779.889 -1.965 1.26135 0
M  V30 8126 C 780.87 -1.69505 0.142152 0
M  V30 8127 O 782.055 -1.91346 0.331743 0
M  V30 8128 C 779.185 -3.32632 0.99866 0
M  V30 8129 C 778.139 -3.74021 2.08068 0
M  V30 8130 C 777.465 -5.07947 1.67014 0
M  V30 8131 C 778.765 -3.87925 3.49731 0
M  V30 8132 H 780.459 -2.02793 2.20262 0
M  V30 8133 H 778.005 -0.974297 1.06035 0
M  V30 8134 H 779.958 -4.10903 0.934696 0
M  V30 8135 H 778.682 -3.26593 0.0217759 0
M  V30 8136 H 777.341 -2.98012 2.13505 0
M  V30 8137 H 776.989 -4.98378 0.680316 0
M  V30 8138 H 776.689 -5.36611 2.39422 0
M  V30 8139 H 778.213 -5.88695 1.62082 0
M  V30 8140 H 779.627 -4.5651 3.46802 0
M  V30 8141 H 778.024 -4.28023 4.20614 0
M  V30 8142 H 779.094 -2.90407 3.88319 0
M  V30 8143 N 780.437 -1.16799 -1.0581 0
M  V30 8144 C 781.686 -0.94698 -1.78088 0
M  V30 8145 C 781.999 0.526016 -1.88394 0
M  V30 8146 O 783.205 0.865061 -2.5735 0
M  V30 8147 C 781.661 -1.64508 -3.20102 0
M  V30 8148 C 781.269 -3.15618 -3.17946 0
M  V30 8149 C 783.013 -1.50622 -3.96879 0
M  V30 8150 C 780.92 -3.78144 -4.5471 0
M  V30 8151 H 779.85 -0.35067 -0.667493 0
M  V30 8152 H 782.501 -1.39985 -1.18645 0
M  V30 8153 H 780.883 -1.11993 -3.79834 0
M  V30 8154 H 782.057 -3.75016 -2.67768 0
M  V30 8155 H 780.372 -3.29444 -2.54667 0
M  V30 8156 H 782.969 -1.94713 -4.97987 0
M  V30 8157 H 783.312 -0.455864 -4.13797 0
M  V30 8158 H 783.845 -2.00319 -3.43682 0
M  V30 8159 H 780.584 -4.83149 -4.42998 0
M  V30 8160 H 780.104 -3.23532 -5.05062 0
M  V30 8161 H 781.783 -3.79986 -5.2366 0
M  V30 8162 N 781.915 1.24427 -0.967243 0
M  V30 8163 C 782.845 2.2773 -0.515899 0
M  V30 8164 C 783.826 1.64197 0.444227 0
M  V30 8165 O 785.011 1.91193 0.340451 0
M  V30 8166 C 782.141 3.46751 0.195149 0
M  V30 8167 C 781.095 4.22548 -0.680953 0
M  V30 8168 C 780.421 5.34456 0.161561 0
M  V30 8169 C 781.721 4.83914 -1.96532 0
M  V30 8170 H 783.415 2.65735 -1.37933 0
M  V30 8171 H 780.961 1.27742 -0.664681 0
M  V30 8172 H 782.914 4.18153 0.522117 0
M  V30 8173 H 781.638 3.07771 1.09292 0
M  V30 8174 H 780.297 3.52946 -0.991186 0
M  V30 8175 H 779.945 4.91716 1.05947 0
M  V30 8176 H 779.645 5.86087 -0.421418 0
M  V30 8177 H 781.169 6.08685 0.483211 0
M  V30 8178 H 782.583 5.47392 -1.70396 0
M  V30 8179 H 780.98 5.45775 -2.49499 0
M  V30 8180 H 782.05 4.05393 -2.66053 0
M  V30 8181 N 783.393 0.737304 1.3929 0
M  V30 8182 C 784.804 0.355966 1.83275 0
M  V30 8183 C 785.155 -1.11295 1.6158 0
M  V30 8184 O 784.28 -1.85871 1.10819 0
M  V30 8185 C 784.875 0.63931 3.32713 0
M  V30 8186 C 783.434 0.31144 3.75109 0
M  V30 8187 C 782.581 0.900765 2.62262 0
M  V30 8188 H 785.532 0.934763 1.28249 0
M  V30 8189 H 785.553 -0.0881293 3.80398 0
M  V30 8190 H 785.065 1.70847 3.48472 0
M  V30 8191 H 783.166 -0.751791 3.64937 0
M  V30 8192 H 783.279 0.795611 4.72448 0
M  V30 8193 H 781.643 0.327239 2.52589 0
M  V30 8194 H 782.426 1.97463 2.80826 0
M  V30 8195 N 784.871 -1.49948 0.485112 0
M  V30 8196 C 786.099 -2.06806 -0.0622824 0
M  V30 8197 C 786.514 -1.34736 -1.32256 0
M  V30 8198 O 785.871 -0.420836 -1.77582 0
M  V30 8199 C 785.922 -3.59934 -0.336096 0
M  V30 8200 O 785.643 -4.29289 0.874203 0
M  V30 8201 C 787.144 -4.33459 -0.928903 0
M  V30 8202 H 784.364 -0.670867 0.0133472 0
M  V30 8203 H 786.908 -1.92937 0.677917 0
M  V30 8204 H 785.063 -3.7356 -1.02625 0
M  V30 8205 H 785.477 -5.20735 0.627332 0
M  V30 8206 H 786.951 -5.41527 -1.07017 0
M  V30 8207 H 787.428 -3.94881 -1.92265 0
M  V30 8208 H 788.034 -4.24399 -0.276705 0
M  V30 8209 N 786.349 -0.21828 -1.56081 0
M  V30 8210 C 787.595 0.414921 -1.9851 0
M  V30 8211 C 787.928 1.59648 -1.10573 0
M  V30 8212 O 787.203 1.93818 -0.162695 0
M  V30 8213 C 787.486 0.852647 -3.4986 0
M  V30 8214 C 787.339 -0.33232 -4.48571 0
M  V30 8215 C 788.658 1.70998 -4.05521 0
M  V30 8216 H 785.777 0.149344 -0.72171 0
M  V30 8217 H 788.419 -0.313858 -1.8739 0
M  V30 8218 H 786.569 1.47362 -3.59467 0
M  V30 8219 H 788.241 -0.970418 -4.50977 0
M  V30 8220 H 786.484 -0.980302 -4.22578 0
M  V30 8221 H 787.155 0.0168407 -5.51997 0
M  V30 8222 H 789.631 1.18606 -3.98838 0
M  V30 8223 H 788.507 1.98517 -5.11744 0
M  V30 8224 H 788.768 2.67219 -3.52202 0
M  V30 8225 N 787.827 1.57504 0.0551401 0
M  V30 8226 C 789.104 1.79155 0.785048 0
M  V30 8227 C 789.484 0.809995 1.94942 0
M  V30 8228 O 788.832 -0.153432 2.27984 0
M  V30 8229 C 789.042 3.26134 1.24247 0
M  V30 8230 C 790.39 3.90419 1.66908 0
M  V30 8231 O 791.414 3.30126 1.33772 0
M  V30 8232 O 790.273 4.96523 2.28314 0
M  V30 8233 H 787.367 0.735825 0.377479 0
M  V30 8234 H 789.913 1.69666 0.0339285 0
M  V30 8235 H 788.685 3.89145 0.410089 0
M  V30 8236 H 788.308 3.40411 2.05441 0
M  V30 8237 N 789.305 -0.326896 1.54172 0
M  V30 8238 C 790.553 -1.06313 1.71878 0
M  V30 8239 C 790.874 -1.88652 0.493498 0
M  V30 8240 O 790.144 -1.89608 -0.492522 0
M  V30 8241 H 788.724 -0.39549 0.633716 0
M  V30 8242 H 791.386 -0.364139 1.91468 0
M  V30 8243 H 790.482 -1.73105 2.59694 0
M  V30 8244 N 790.784 -1.46188 -0.588786 0
M  V30 8245 C 792.009 -1.5498 -1.37826 0
M  V30 8246 C 792.434 -0.189498 -1.87143 0
M  V30 8247 O 791.792 0.829293 -1.61222 0
M  V30 8248 C 791.84 -2.55369 -2.54596 0
M  V30 8249 O 790.944 -2.08452 -3.55839 0
M  V30 8250 H 790.285 -0.521741 -0.41071 0
M  V30 8251 H 792.815 -1.91708 -0.714779 0
M  V30 8252 H 792.825 -2.74782 -3.01594 0
M  V30 8253 H 791.5 -3.54155 -2.18052 0
M  V30 8254 H 790.077 -1.98999 -3.15363 0
M  V30 8255 N 792.262 0.832906 -1.33792 0
M  V30 8256 C 793.192 1.95828 -1.27176 0
M  V30 8257 C 794.173 1.69427 -0.15114 0
M  V30 8258 O 795.358 1.91167 -0.341886 0
M  V30 8259 C 792.488 3.32098 -1.01629 0
M  V30 8260 C 791.442 3.72912 -2.10049 0
M  V30 8261 C 790.768 5.07054 -1.69706 0
M  V30 8262 C 792.068 3.86064 -3.51783 0
M  V30 8263 H 793.762 2.01622 -2.21334 0
M  V30 8264 H 791.308 0.96866 -1.0655 0
M  V30 8265 H 793.261 4.10402 -0.956474 0
M  V30 8266 H 791.985 3.26577 -0.0390956 0
M  V30 8267 H 790.644 2.96876 -2.15082 0
M  V30 8268 H 790.292 4.9801 -0.706737 0
M  V30 8269 H 789.992 5.35333 -2.42264 0
M  V30 8270 H 791.516 5.87827 -1.65202 0
M  V30 8271 H 792.93 4.54665 -3.49218 0
M  V30 8272 H 791.327 4.25787 -4.22878 0
M  V30 8273 H 792.397 2.88344 -3.89854 0
M  V30 8274 N 793.74 1.17359 1.05189 0
M  V30 8275 C 794.965 0.98709 1.82404 0
M  V30 8276 C 795.39 -0.459848 1.82392 0
M  V30 8277 O 794.748 -1.32924 1.23292 0
M  V30 8278 C 794.796 1.53276 3.26403 0
M  V30 8279 O 793.9 0.746541 4.05587 0
M  V30 8280 H 793.241 0.35047 0.563974 0
M  V30 8281 H 795.771 1.55856 1.32552 0
M  V30 8282 H 795.781 1.55504 3.77203 0
M  V30 8283 H 794.456 2.58603 3.25726 0
M  V30 8284 H 793.033 0.795671 3.64312 0
M  V30 8285 N 795.218 -1.23913 0.973828 0
M  V30 8286 C 796.634 -1.44325 0.681363 0
M  V30 8287 C 796.834 -1.86832 -0.754728 0
M  V30 8288 O 795.89 -2.01024 -1.52793 0
M  V30 8289 C 797.203 -2.50017 1.67069 0
M  V30 8290 C 798.751 -2.63838 1.68399 0
M  V30 8291 C 799.226 -3.72734 2.66145 0
M  V30 8292 N 800.717 -3.80169 2.64624 0
M  V30 8293 C 801.452 -4.6397 3.36927 0
M  V30 8294 N 800.948 -5.51911 4.18767 0
M  V30 8295 N 802.741 -4.58106 3.25722 0
M  V30 8296 H 794.892 -0.946204 1.9016 0
M  V30 8297 H 797.155 -0.477374 0.819035 0
M  V30 8298 H 796.861 -2.25686 2.69738 0
M  V30 8299 H 796.735 -3.48287 1.4483 0
M  V30 8300 H 799.122 -2.87524 0.664379 0
M  V30 8301 H 799.203 -1.65906 1.94702 0
M  V30 8302 H 798.847 -3.49797 3.68245 0
M  V30 8303 H 798.777 -4.70193 2.3712 0
M  V30 8304 H 801.268 -3.17319 2.05224 0
M  V30 8305 H 801.581 -6.12828 4.70809 0
M  V30 8306 H 799.926 -5.51556 4.2286 0
M  V30 8307 H 803.117 -3.8842 2.61242 0
M  V30 8308 H 803.29 -5.23188 3.82333 0
M  V30 8309 N 796.696 -0.74468 -1.38897 0
M  V30 8310 C 798.112 -0.421302 -1.53939 0
M  V30 8311 C 798.312 1.06668 -1.70951 0
M  V30 8312 O 797.368 1.85278 -1.71547 0
M  V30 8313 C 798.681 -1.21278 -2.75159 0
M  V30 8314 C 800.229 -1.20196 -2.89001 0
M  V30 8315 C 800.704 -1.97621 -4.13171 0
M  V30 8316 N 802.195 -1.94836 -4.2023 0
M  V30 8317 C 802.93 -2.51545 -5.15279 0
M  V30 8318 N 802.426 -3.1693 -6.16058 0
M  V30 8319 N 804.219 -2.41524 -5.07565 0
M  V30 8320 H 796.37 -1.70914 -1.26103 0
M  V30 8321 H 798.633 -0.724058 -0.611919 0
M  V30 8322 H 798.339 -2.26609 -2.68963 0
M  V30 8323 H 798.213 -0.823677 -3.68097 0
M  V30 8324 H 800.6 -0.156742 -2.94683 0
M  V30 8325 H 800.681 -1.63051 -1.97099 0
M  V30 8326 H 800.325 -3.02149 -4.0825 0
M  V30 8327 H 800.255 -1.52166 -5.04136 0
M  V30 8328 H 802.746 -1.4721 -3.48048 0
M  V30 8329 H 803.059 -3.57644 -6.85062 0
M  V30 8330 H 801.404 -3.21023 -6.16417 0
M  V30 8331 H 804.595 -1.90077 -4.27771 0
M  V30 8332 H 804.768 -2.86016 -5.81462 0
M  V30 8333 N 798.174 1.49689 -0.493057 0
M  V30 8334 C 799.421 2.02427 0.0542714 0
M  V30 8335 C 799.749 1.37339 1.37725 0
M  V30 8336 O 799.004 0.495523 1.89323 0
M  V30 8337 C 799.303 3.56427 0.263536 0
M  V30 8338 C 798.969 4.40111 -0.98046 0
M  V30 8339 C 797.631 4.62699 -1.32148 0
M  V30 8340 C 799.983 4.88847 -1.80771 0
M  V30 8341 C 797.311 5.31268 -2.48941 0
M  V30 8342 C 799.663 5.587 -2.96711 0
M  V30 8343 C 798.327 5.79536 -3.31202 0
M  V30 8344 H 797.597 0.740734 0.0198593 0
M  V30 8345 H 800.244 1.80073 -0.651603 0
M  V30 8346 H 798.549 3.77416 1.05186 0
M  V30 8347 H 800.246 3.94819 0.701348 0
M  V30 8348 H 796.836 4.22765 -0.704814 0
M  V30 8349 H 801.02 4.71231 -1.55741 0
M  V30 8350 H 796.276 5.45603 -2.75911 0
M  V30 8351 H 800.45 5.9544 -3.61143 0
M  V30 8352 H 798.077 6.32443 -4.21805 0
M  V30 8353 N 799.652 0.226554 1.55963 0
M  V30 8354 C 800.9 -0.402991 1.98041 0
M  V30 8355 C 801.221 -1.59938 1.11557 0
M  V30 8356 O 800.491 -1.9494 0.193719 0
M  V30 8357 H 799.071 -0.15188 0.731397 0
M  V30 8358 H 801.733 0.320613 1.92245 0
M  V30 8359 H 800.829 -0.725937 3.0354 0
M  V30 8360 N 801.13 -1.57531 -0.0467866 0
M  V30 8361 C 802.377 -1.88451 -0.74112 0
M  V30 8362 C 802.705 -0.821592 -1.76296 0
M  V30 8363 O 801.96 0.179585 -1.94874 0
M  V30 8364 C 802.259 -3.26091 -1.46285 0
M  V30 8365 C 801.925 -4.47171 -0.578669 0
M  V30 8366 C 800.587 -4.80032 -0.335083 0
M  V30 8367 C 802.939 -5.2119 0.0328809 0
M  V30 8368 C 800.267 -5.84309 0.529121 0
M  V30 8369 C 802.619 -6.26383 0.884684 0
M  V30 8370 C 801.283 -6.57729 1.1379 0
M  V30 8371 H 800.553 -0.68959 -0.271195 0
M  V30 8372 H 803.2 -1.915 -0.00132378 0
M  V30 8373 H 801.505 -3.18948 -2.27551 0
M  V30 8374 H 803.202 -3.47258 -2.00532 0
M  V30 8375 H 799.792 -4.21467 -0.778666 0
M  V30 8376 H 803.976 -4.96096 -0.142375 0
M  V30 8377 H 799.232 -6.06981 0.733794 0
M  V30 8378 H 803.406 -6.82888 1.36516 0
M  V30 8379 H 801.033 -7.38355 1.80929 0
M  V30 8380 N 802.608 0.318715 -1.54344 0
M  V30 8381 C 803.538 1.39751 -1.87061 0
M  V30 8382 C 804.519 1.53741 -0.727848 0
M  V30 8383 O 805.704 1.67541 -0.982016 0
M  V30 8384 C 802.834 2.76446 -2.10226 0
M  V30 8385 C 801.788 2.77239 -3.26071 0
M  V30 8386 C 801.114 4.17056 -3.34617 0
M  V30 8387 C 802.414 2.40555 -4.63606 0
M  V30 8388 H 804.108 1.12619 -2.77412 0
M  V30 8389 H 801.654 0.540318 -1.33479 0
M  V30 8390 H 803.607 3.51985 -2.31699 0
M  V30 8391 H 802.331 3.05066 -1.16629 0
M  V30 8392 H 800.99 2.04155 -3.04493 0
M  V30 8393 H 800.638 4.42824 -2.3857 0
M  V30 8394 H 800.338 4.18492 -4.12478 0
M  V30 8395 H 801.862 4.94401 -3.5833 0
M  V30 8396 H 803.276 3.05808 -4.84927 0
M  V30 8397 H 801.673 2.53234 -5.44052 0
M  V30 8398 H 802.743 1.35698 -4.65526 0
M  V30 8399 N 804.086 1.46499 0.581025 0
M  V30 8400 C 805.335 1.51162 1.3354 0
M  V30 8401 C 805.648 0.168433 1.94873 0
M  V30 8402 O 806.854 0.092883 2.71341 0
M  V30 8403 C 805.31 2.66362 2.42032 0
M  V30 8404 C 804.918 4.07109 1.86994 0
M  V30 8405 C 806.662 2.80297 3.188 0
M  V30 8406 C 804.569 5.13645 2.93125 0
M  V30 8407 H 803.499 0.562576 0.502021 0
M  V30 8408 H 806.15 1.72713 0.619863 0
M  V30 8409 H 804.532 2.38143 3.16392 0
M  V30 8410 H 805.706 4.45125 1.19166 0
M  V30 8411 H 804.021 3.97854 1.22887 0
M  V30 8412 H 806.618 3.5706 3.9801 0
M  V30 8413 H 806.961 1.87875 3.71495 0
M  V30 8414 H 807.494 3.0817 2.51547 0
M  V30 8415 H 804.233 6.07866 2.45315 0
M  V30 8416 H 803.753 4.80172 3.59437 0
M  V30 8417 H 805.432 5.39562 3.57046 0
M  V30 8418 N 805.565 -0.825799 1.34232 0
M  V30 8419 C 806.793 -1.61363 1.29497 0
M  V30 8420 C 807.208 -1.88341 -0.131536 0
M  V30 8421 O 806.565 -1.47279 -1.07773 0
M  V30 8422 C 806.616 -2.95623 2.08061 0
M  V30 8423 O 806.337 -2.69824 3.45147 0
M  V30 8424 C 807.838 -3.90032 2.10688 0
M  V30 8425 H 805.058 -0.501676 0.445603 0
M  V30 8426 H 807.602 -1.02767 1.76803 0
M  V30 8427 H 805.757 -3.50785 1.64404 0
M  V30 8428 H 806.171 -3.55412 3.85723 0
M  V30 8429 H 807.645 -4.81411 2.70087 0
M  V30 8430 H 808.122 -4.25188 1.10052 0
M  V30 8431 H 808.728 -3.40807 2.54422 0
M  V30 8432 N 807.043 -1.17915 -1.04565 0
M  V30 8433 C 808.006 -0.903787 -2.10628 0
M  V30 8434 C 809.006 0.10873 -1.60432 0
M  V30 8435 O 810.196 -0.124152 -1.73757 0
M  V30 8436 C 807.328 -0.355017 -3.39046 0
M  V30 8437 H 808.521 -1.84425 -2.3649 0
M  V30 8438 H 806.074 -0.990477 -1.2091 0
M  V30 8439 H 806.809 0.592297 -3.18845 0
M  V30 8440 H 806.594 -1.08484 -3.76794 0
M  V30 8441 H 808.084 -0.180891 -4.17208 0
M  V30 8442 N 808.521 1.23394 -0.980386 0
M  V30 8443 C 809.451 2.2717 -0.540024 0
M  V30 8444 C 810.432 1.64659 0.426787 0
M  V30 8445 O 811.617 1.91543 0.320153 0
M  V30 8446 C 808.747 3.46939 0.15836 0
M  V30 8447 C 807.701 4.21802 -0.725732 0
M  V30 8448 C 807.027 5.34597 0.104866 0
M  V30 8449 C 808.327 4.81802 -2.01654 0
M  V30 8450 H 810.021 2.64257 -1.40743 0
M  V30 8451 H 807.567 1.2703 -0.678193 0
M  V30 8452 H 809.52 4.18683 0.477737 0
M  V30 8453 H 808.244 3.08912 1.06022 0
M  V30 8454 H 806.903 3.51875 -1.02857 0
M  V30 8455 H 806.551 4.92812 1.00726 0
M  V30 8456 H 806.251 5.85607 -0.483557 0
M  V30 8457 H 807.775 6.09163 0.418624 0
M  V30 8458 H 809.189 5.45554 -1.76193 0
M  V30 8459 H 807.586 5.43098 -2.55273 0
M  V30 8460 H 808.656 4.02549 -2.70338 0
M  V30 8461 N 809.999 0.752036 1.385 0
M  V30 8462 C 811.239 0.312408 2.01998 0
M  V30 8463 C 811.603 -1.085 1.58404 0
M  V30 8464 O 812.804 -1.62365 2.14222 0
M  V30 8465 C 811.075 0.429423 3.54811 0
M  V30 8466 S 812.634 0.0721487 4.38741 0
M  V30 8467 H 809.452 0.1213 0.700576 0
M  V30 8468 H 812.054 0.982312 1.69029 0
M  V30 8469 H 810.758 1.44743 3.84028 0
M  V30 8470 H 810.289 -0.257716 3.92555 0
M  V30 8471 H 812.304 -1.13875 4.82957 0
M  V30 8472 N 811.477 -1.49425 0.500989 0
M  V30 8473 C 812.407 -2.31971 -0.266775 0
M  V30 8474 C 813.388 -1.40245 -0.962563 0
M  V30 8475 O 814.573 -1.69154 -0.953968 0
M  V30 8476 C 811.703 -3.20757 -1.33163 0
M  V30 8477 C 810.657 -4.21275 -0.75572 0
M  V30 8478 C 809.983 -4.98997 -1.92109 0
M  V30 8479 C 811.283 -5.21686 0.253213 0
M  V30 8480 H 812.977 -2.96408 0.422237 0
M  V30 8481 H 810.523 -1.4254 0.204505 0
M  V30 8482 H 812.476 -3.77315 -1.87646 0
M  V30 8483 H 811.2 -2.54263 -2.04983 0
M  V30 8484 H 809.859 -3.65861 -0.232637 0
M  V30 8485 H 809.507 -4.28951 -2.62698 0
M  V30 8486 H 809.207 -5.67011 -1.54182 0
M  V30 8487 H 810.731 -5.584 -2.47026 0
M  V30 8488 H 812.145 -5.72939 -0.203483 0
M  V30 8489 H 810.542 -5.9759 0.548322 0
M  V30 8490 H 811.612 -4.70596 1.16909 0
M  V30 8491 N 812.955 -0.234822 -1.55841 0
M  V30 8492 C 814.202 0.39326 -1.98645 0
M  V30 8493 C 814.53 1.58823 -1.12274 0
M  V30 8494 O 813.785 1.94954 -0.170731 0
M  V30 8495 C 814.084 0.858032 -3.46947 0
M  V30 8496 C 813.75 -0.227858 -4.50324 0
M  V30 8497 C 812.412 -0.526128 -4.78315 0
M  V30 8498 C 814.764 -0.961576 -5.12253 0
M  V30 8499 C 812.092 -1.5624 -5.65514 0
M  V30 8500 C 814.444 -1.98728 -6.00575 0
M  V30 8501 C 813.108 -2.29233 -6.26904 0
M  V30 8502 H 812.378 0.143904 -0.726892 0
M  V30 8503 H 815.025 -0.34012 -1.88455 0
M  V30 8504 H 813.33 1.67041 -3.54408 0
M  V30 8505 H 815.027 1.35407 -3.77447 0
M  V30 8506 H 811.617 0.0147624 -4.28597 0
M  V30 8507 H 815.801 -0.744388 -4.90686 0
M  V30 8508 H 811.057 -1.80422 -5.84173 0
M  V30 8509 H 815.231 -2.5608 -6.47608 0
M  V30 8510 H 812.858 -3.09671 -6.94268 0
M  V30 8511 N 814.433 1.57553 0.0384317 0
M  V30 8512 C 815.661 1.93093 0.743141 0
M  V30 8513 C 816.076 0.833787 1.69391 0
M  V30 8514 O 815.433 -0.190532 1.81503 0
M  V30 8515 C 815.484 3.28533 1.50826 0
M  V30 8516 O 815.205 4.34032 0.595665 0
M  V30 8517 C 816.706 3.78297 2.31098 0
M  V30 8518 H 813.926 0.637486 0.20941 0
M  V30 8519 H 816.47 2.045 -0.00125154 0
M  V30 8520 H 814.625 3.18552 2.20462 0
M  V30 8521 H 815.039 5.12155 1.13124 0
M  V30 8522 H 816.513 4.75602 2.80191 0
M  V30 8523 H 816.99 3.09008 3.12107 0
M  V30 8524 H 817.596 3.91331 1.66555 0
M  V30 8525 N 815.911 -0.310526 1.54511 0
M  V30 8526 C 816.874 -1.3657 1.84068 0
M  V30 8527 C 817.874 -1.44123 0.713097 0
M  V30 8528 O 819.064 -1.43924 0.981399 0
M  V30 8529 C 816.196 -2.75162 2.01243 0
M  V30 8530 H 817.389 -1.1161 2.78358 0
M  V30 8531 H 814.942 -0.546699 1.46427 0
M  V30 8532 H 815.677 -3.05359 1.09208 0
M  V30 8533 H 815.462 -2.71071 2.83307 0
M  V30 8534 H 816.952 -3.51473 2.25514 0
M  V30 8535 N 817.389 -1.46805 -0.573248 0
M  V30 8536 C 818.635 -1.5283 -1.33307 0
M  V30 8537 C 818.968 -0.183287 -1.93333 0
M  V30 8538 O 818.243 0.806354 -1.76998 0
M  V30 8539 C 818.526 -2.63414 -2.45531 0
M  V30 8540 C 818.379 -4.07478 -1.90478 0
M  V30 8541 C 819.698 -2.70014 -3.47535 0
M  V30 8542 H 816.817 -0.556371 -0.483343 0
M  V30 8543 H 819.459 -1.78787 -0.643066 0
M  V30 8544 H 817.609 -2.41412 -3.04389 0
M  V30 8545 H 819.281 -4.40795 -1.36004 0
M  V30 8546 H 817.524 -4.16511 -1.21248 0
M  V30 8547 H 818.195 -4.80598 -2.71531 0
M  V30 8548 H 820.671 -2.89817 -2.98572 0
M  V30 8549 H 819.547 -3.49192 -4.23504 0
M  V30 8550 H 819.808 -1.76436 -4.05367 0
M  V30 8551 N 818.867 0.818669 -1.34668 0
M  V30 8552 C 820.114 1.57512 -1.27264 0
M  V30 8553 C 820.442 1.93871 0.156254 0
M  V30 8554 O 819.697 1.60582 1.11857 0
M  V30 8555 C 819.996 2.88245 -2.11304 0
M  V30 8556 C 819.662 2.71159 -3.60255 0
M  V30 8557 C 818.324 2.66207 -4.00858 0
M  V30 8558 C 820.676 2.54538 -4.54819 0
M  V30 8559 C 818.004 2.4256 -5.34211 0
M  V30 8560 C 820.356 2.32421 -5.88356 0
M  V30 8561 C 819.02 2.25884 -6.28118 0
M  V30 8562 H 818.29 0.576378 -0.465692 0
M  V30 8563 H 820.937 0.9469 -1.66451 0
M  V30 8564 H 819.242 3.55381 -1.64958 0
M  V30 8565 H 820.939 3.45869 -2.02919 0
M  V30 8566 H 817.529 2.75856 -3.28027 0
M  V30 8567 H 821.713 2.57384 -4.24343 0
M  V30 8568 H 816.969 2.35959 -5.64033 0
M  V30 8569 H 821.143 2.18548 -6.61218 0
M  V30 8570 H 818.77 2.07322 -7.31383 0
M  V30 8571 N 820.346 1.18468 1.03938 0
M  V30 8572 C 821.595 0.975193 1.76558 0
M  V30 8573 C 821.908 -0.495978 1.89207 0
M  V30 8574 O 823.114 -0.824009 2.58694 0
M  V30 8575 C 821.57 1.69579 3.17444 0
M  V30 8576 C 821.178 3.20636 3.12884 0
M  V30 8577 C 822.922 1.56917 3.94433 0
M  V30 8578 C 820.829 3.8533 4.48636 0
M  V30 8579 H 819.759 0.361244 0.66183 0
M  V30 8580 H 822.41 1.41854 1.16403 0
M  V30 8581 H 820.792 1.18022 3.78004 0
M  V30 8582 H 821.966 3.79228 2.61768 0
M  V30 8583 H 820.281 3.33454 2.49394 0
M  V30 8584 H 822.878 2.02611 4.94826 0
M  V30 8585 H 823.221 0.521638 4.13019 0
M  V30 8586 H 823.754 2.05762 3.40451 0
M  V30 8587 H 820.493 4.90136 4.35255 0
M  V30 8588 H 820.013 3.31526 4.99851 0
M  V30 8589 H 821.692 3.88269 5.17549 0
M  V30 8590 N 821.824 -1.22873 0.986916 0
M  V30 8591 C 822.757 -2.23154 0.477245 0
M  V30 8592 C 823.735 -1.55981 -0.459206 0
M  V30 8593 O 824.919 -1.84503 -0.386141 0
M  V30 8594 C 822.046 -3.37289 -0.308838 0
M  V30 8595 C 821.092 -4.22637 0.572717 0
M  V30 8596 S 821.925 -4.95758 2.02446 0
M  V30 8597 C 823.081 -6.13338 1.2477 0
M  V30 8598 H 823.314 -2.6604 1.32702 0
M  V30 8599 H 820.847 -1.32455 0.793415 0
M  V30 8600 H 822.805 -4.03472 -0.756351 0
M  V30 8601 H 821.466 -2.92922 -1.13381 0
M  V30 8602 H 820.659 -5.0399 -0.0318024 0
M  V30 8603 H 820.261 -3.61555 0.956746 0
M  V30 8604 H 822.553 -6.7556 0.51231 0
M  V30 8605 H 823.496 -6.78189 2.03629 0
M  V30 8606 H 823.904 -5.59311 0.763622 0
M  V30 8607 N 823.302 -0.75937 -1.38099 0
M  V30 8608 C 824.232 -0.151077 -2.33011 0
M  V30 8609 C 825.213 0.697099 -1.5516 0
M  V30 8610 O 826.398 0.637101 -1.83452 0
M  V30 8611 C 823.528 0.738423 -3.39359 0
M  V30 8612 C 822.482 -0.0074741 -4.27999 0
M  V30 8613 C 821.808 1.00066 -5.25253 0
M  V30 8614 C 823.108 -1.17926 -5.08813 0
M  V30 8615 H 824.802 -0.943933 -2.84131 0
M  V30 8616 H 822.348 -0.455362 -1.36611 0
M  V30 8617 H 824.301 1.17369 -4.04725 0
M  V30 8618 H 823.025 1.56366 -2.86735 0
M  V30 8619 H 821.684 -0.423379 -3.64147 0
M  V30 8620 H 821.332 1.82012 -4.68914 0
M  V30 8621 H 821.032 0.506199 -5.85416 0
M  V30 8622 H 822.556 1.43512 -5.93495 0
M  V30 8623 H 823.97 -0.821262 -5.67387 0
M  V30 8624 H 822.367 -1.60497 -5.78239 0
M  V30 8625 H 823.437 -1.98938 -4.42212 0
M  V30 8626 N 824.78 1.49157 -0.508906 0
M  V30 8627 C 826.196 1.58741 -0.165372 0
M  V30 8628 C 826.396 1.5133 1.33047 0
M  V30 8629 O 825.452 1.39135 2.10707 0
M  V30 8630 C 826.765 2.91217 -0.749194 0
M  V30 8631 C 828.313 3.047 -0.716015 0
M  V30 8632 C 828.788 4.39807 -1.27804 0
M  V30 8633 N 830.279 4.46319 -1.23908 0
M  V30 8634 C 831.014 5.49325 -1.64406 0
M  V30 8635 N 830.51 6.59395 -2.12534 0
M  V30 8636 N 832.303 5.40084 -1.55773 0
M  V30 8637 H 824.454 1.52217 -1.48134 0
M  V30 8638 H 826.717 0.721514 -0.614915 0
M  V30 8639 H 826.423 3.02233 -1.79856 0
M  V30 8640 H 826.297 3.76592 -0.214144 0
M  V30 8641 H 828.684 2.9331 0.324535 0
M  V30 8642 H 828.765 2.2099 -1.2883 0
M  V30 8643 H 828.409 4.5195 -2.31741 0
M  V30 8644 H 828.339 5.2217 -0.681623 0
M  V30 8645 H 830.83 3.67354 -0.886537 0
M  V30 8646 H 831.143 7.34102 -2.41485 0
M  V30 8647 H 829.488 6.60414 -2.16513 0
M  V30 8648 H 832.679 4.52986 -1.17987 0
M  V30 8649 H 832.852 6.20233 -1.87657 0
M  V30 8650 N 826.258 0.243083 1.55714 0
M  V30 8651 C 827.674 -0.111853 1.59208 0
M  V30 8652 C 827.874 -1.5723 1.2602 0
M  V30 8653 O 826.93 -2.31608 1.00569 0
M  V30 8654 C 828.243 0.233885 2.99789 0
M  V30 8655 C 829.791 0.177873 3.12494 0
M  V30 8656 C 830.266 0.49759 4.55289 0
M  V30 8657 N 831.757 0.447949 4.61029 0
M  V30 8658 C 832.492 0.668545 5.69489 0
M  V30 8659 N 831.988 0.952064 6.86227 0
M  V30 8660 N 833.781 0.599512 5.58894 0
M  V30 8661 H 825.932 1.19554 1.75558 0
M  V30 8662 H 828.195 0.480765 0.817049 0
M  V30 8663 H 827.901 1.24835 3.28799 0
M  V30 8664 H 827.775 -0.440846 3.74615 0
M  V30 8665 H 830.162 -0.827263 2.83267 0
M  V30 8666 H 830.243 0.886399 2.39951 0
M  V30 8667 H 829.887 1.50026 4.85237 0
M  V30 8668 H 829.817 -0.232371 5.26087 0
M  V30 8669 H 832.308 0.237388 3.77154 0
M  V30 8670 H 832.621 1.10791 7.64817 0
M  V30 8671 H 830.966 0.989496 6.8792 0
M  V30 8672 H 834.157 0.378088 4.66571 0
M  V30 8673 H 834.33 0.774828 6.43351 0
M  V30 8674 N 827.736 -1.57571 -0.0300757 0
M  V30 8675 C 828.683 -2.06492 -1.03101 0
M  V30 8676 C 829.653 -0.953862 -1.3598 0
M  V30 8677 O 830.838 -1.22436 -1.46335 0
M  V30 8678 C 827.978 -2.54826 -2.32718 0
M  V30 8679 C 827.091 -3.79718 -2.06006 0
M  V30 8680 C 826.226 -4.16668 -3.29487 0
M  V30 8681 C 825.265 -5.3448 -2.98324 0
M  V30 8682 N 824.402 -5.66867 -4.14254 0
M  V30 8683 H 829.242 -2.91755 -0.606877 0
M  V30 8684 H 826.779 -1.44252 -0.288038 0
M  V30 8685 H 828.737 -2.80916 -3.08451 0
M  V30 8686 H 827.367 -1.72481 -2.72856 0
M  V30 8687 H 826.419 -3.60718 -1.20774 0
M  V30 8688 H 827.731 -4.65569 -1.79017 0
M  V30 8689 H 826.885 -4.43881 -4.13588 0
M  V30 8690 H 825.624 -3.29466 -3.59588 0
M  V30 8691 H 824.629 -5.07021 -2.12625 0
M  V30 8692 H 825.854 -6.23334 -2.69502 0
M  V30 8693 H 823.8 -4.82625 -4.44308 0
M  V30 8694 H 823.717 -6.47226 -3.90685 0
M  V30 8695 H 824.985 -5.98656 -4.99231 0
M  V30 8696 N 829.214 0.302327 -1.54673 0
M  V30 8697 C 830.63 0.647911 -1.45857 0
M  V30 8698 C 830.83 1.90773 -0.64869 0
M  V30 8699 O 829.886 2.52018 -0.155865 0
M  V30 8700 C 831.199 0.802144 -2.89804 0
M  V30 8701 C 832.747 0.898114 -2.99838 0
M  V30 8702 C 833.222 1.08436 -4.44978 0
M  V30 8703 N 834.713 1.15059 -4.48682 0
M  V30 8704 C 835.448 1.31296 -5.58166 0
M  V30 8705 N 834.944 1.4444 -6.77576 0
M  V30 8706 N 836.737 1.34174 -5.45851 0
M  V30 8707 H 828.888 -0.525428 -2.05798 0
M  V30 8708 H 831.151 -0.173423 -0.932002 0
M  V30 8709 H 830.857 -0.0526531 -3.51661 0
M  V30 8710 H 830.731 1.69155 -3.37145 0
M  V30 8711 H 833.118 1.7434 -2.38096 0
M  V30 8712 H 833.199 -0.0152752 -2.55795 0
M  V30 8713 H 832.843 0.243843 -5.07314 0
M  V30 8714 H 832.773 2.01195 -4.8665 0
M  V30 8715 H 835.264 1.0626 -3.62653 0
M  V30 8716 H 835.577 1.56582 -7.56771 0
M  V30 8717 H 833.922 1.41499 -6.80443 0
M  V30 8718 H 837.113 1.23516 -4.5151 0
M  V30 8719 H 837.286 1.46485 -6.31226 0
M  V30 8720 N 830.692 1.47107 0.565454 0
M  V30 8721 C 831.941 1.5257 1.31929 0
M  V30 8722 C 832.254 0.189092 1.94684 0
M  V30 8723 O 833.46 0.121657 2.71227 0
M  V30 8724 C 831.916 2.68914 2.39193 0
M  V30 8725 C 831.524 4.09069 1.82665 0
M  V30 8726 C 833.268 2.83663 3.1581 0
M  V30 8727 C 831.175 5.16726 2.87661 0
M  V30 8728 H 830.105 0.567869 0.496025 0
M  V30 8729 H 832.756 1.73361 0.60151 0
M  V30 8730 H 831.138 2.41486 3.13848 0
M  V30 8731 H 832.312 4.46364 1.14438 0
M  V30 8732 H 830.627 3.99135 1.1866 0
M  V30 8733 H 833.224 3.61261 3.94201 0
M  V30 8734 H 833.567 1.91804 3.69482 0
M  V30 8735 H 834.1 3.10821 2.48265 0
M  V30 8736 H 830.839 6.10433 2.38854 0
M  V30 8737 H 830.359 4.83957 3.54324 0
M  V30 8738 H 832.038 5.43319 3.51303 0
M  V30 8739 N 832.17 -0.811516 1.35101 0
M  V30 8740 C 833.581 -1.38515 1.25182 0
M  V30 8741 C 833.932 -1.95846 -0.117883 0
M  V30 8742 O 833.057 -1.90925 -1.01866 0
M  V30 8743 C 833.652 -2.51813 2.26662 0
M  V30 8744 C 832.211 -3.05052 2.20499 0
M  V30 8745 C 831.358 -1.77987 2.12641 0
M  V30 8746 H 834.309 -0.614959 1.46301 0
M  V30 8747 H 834.33 -3.30228 1.89023 0
M  V30 8748 H 833.842 -2.10057 3.2634 0
M  V30 8749 H 831.943 -3.51285 1.24215 0
M  V30 8750 H 832.056 -3.63368 3.1225 0
M  V30 8751 H 830.42 -1.99342 1.5854 0
M  V30 8752 H 831.203 -1.38389 3.14171 0
M  V30 8753 N 833.648 -1.19017 -1.03309 0
M  V30 8754 C 834.873 -1.01598 -1.80811 0
M  V30 8755 C 835.298 0.430773 -1.83101 0
M  V30 8756 O 834.656 1.30946 -1.25391 0
M  V30 8757 C 834.704 -1.5845 -3.23923 0
M  V30 8758 O 833.808 -0.810972 -4.04348 0
M  V30 8759 H 833.149 -0.359398 -0.558327 0
M  V30 8760 H 835.679 -1.57945 -1.30055 0
M  V30 8761 H 835.689 -1.61486 -3.74682 0
M  V30 8762 H 834.364 -2.63752 -3.21571 0
M  V30 8763 H 832.941 -0.85353 -3.63 0
M  V30 8764 N 835.127 1.22348 -0.993418 0
M  V30 8765 C 836.373 1.91393 -0.67056 0
M  V30 8766 C 836.706 1.77163 0.795428 0
M  V30 8767 O 835.981 1.14084 1.57528 0
M  V30 8768 C 836.264 3.43589 -1.0779 0
M  V30 8769 C 836.117 3.66867 -2.60248 0
M  V30 8770 C 837.436 4.35545 -0.631527 0
M  V30 8771 H 834.555 0.695057 -0.24508 0
M  V30 8772 H 837.197 1.44213 -1.23703 0
M  V30 8773 H 835.347 3.83903 -0.595902 0
M  V30 8774 H 837.019 3.35954 -3.16121 0
M  V30 8775 H 835.262 3.1113 -3.02293 0
M  V30 8776 H 835.933 4.73457 -2.838 0
M  V30 8777 H 838.409 4.0275 -1.04554 0
M  V30 8778 H 837.285 5.40707 -0.944831 0
M  V30 8779 H 837.546 4.39618 0.467779 0
M  V30 8780 N 836.605 0.766683 1.37694 0
M  V30 8781 C 837.568 0.155849 2.2867 0
M  V30 8782 C 838.568 -0.633509 1.47795 0
M  V30 8783 O 839.758 -0.457844 1.68076 0
M  V30 8784 C 836.89 -0.786965 3.31692 0
M  V30 8785 H 838.083 0.957748 2.84196 0
M  V30 8786 H 835.636 0.534554 1.46875 0
M  V30 8787 H 836.371 -1.61406 2.8128 0
M  V30 8788 H 836.156 -0.223182 3.91464 0
M  V30 8789 H 837.646 -1.20994 3.99688 0
M  V30 8790 N 838.083 -1.48885 0.516809 0
M  V30 8791 C 839.499 -1.58651 0.173788 0
M  V30 8792 C 839.699 -1.52033 -1.32243 0
M  V30 8793 O 838.755 -1.40251 -2.09967 0
M  V30 8794 C 840.068 -2.90816 0.764628 0
M  V30 8795 C 841.616 -3.04316 0.732164 0
M  V30 8796 C 842.091 -4.39123 1.30135 0
M  V30 8797 N 843.582 -4.45656 1.26273 0
M  V30 8798 C 844.317 -5.48446 1.67317 0
M  V30 8799 N 843.813 -6.58258 2.16028 0
M  V30 8800 N 845.606 -5.39251 1.58635 0
M  V30 8801 H 837.757 -1.5143 1.48939 0
M  V30 8802 H 840.02 -0.718243 0.618733 0
M  V30 8803 H 839.726 -3.01275 1.81456 0
M  V30 8804 H 839.6 -3.76473 0.234113 0
M  V30 8805 H 841.987 -2.93478 -0.308975 0
M  V30 8806 H 842.068 -2.20303 1.3 0
M  V30 8807 H 841.712 -4.50714 2.34135 0
M  V30 8808 H 841.642 -5.21801 0.709305 0
M  V30 8809 H 844.133 -3.66879 0.906006 0
M  V30 8810 H 844.446 -7.32811 2.45374 0
M  V30 8811 H 842.791 -6.59257 2.20013 0
M  V30 8812 H 845.982 -4.52354 1.20387 0
M  V30 8813 H 846.155 -6.19229 1.90944 0
M  V30 8814 N 839.561 -0.251338 -1.55583 0
M  V30 8815 C 840.809 0.371434 -1.98657 0
M  V30 8816 C 841.13 1.58143 -1.14087 0
M  V30 8817 O 840.4 1.94607 -0.224708 0
M  V30 8818 H 838.98 0.140225 -0.733721 0
M  V30 8819 H 841.642 -0.351157 -1.9171 0
M  V30 8820 H 840.738 0.677554 -3.04657 0
M  V30 8821 N 841.039 1.57585 0.0217189 0
M  V30 8822 C 842.45 1.7787 0.567377 0
M  V30 8823 C 842.801 0.883337 1.7519 0
M  V30 8824 O 841.926 0.0800819 2.16252 0
M  V30 8825 C 842.521 3.2257 1.03606 0
M  V30 8826 C 841.08 3.44026 1.52718 0
M  V30 8827 C 840.227 2.73313 0.468545 0
M  V30 8828 H 843.178 1.57377 -0.2045 0
M  V30 8829 H 843.199 3.29488 1.9031 0
M  V30 8830 H 842.711 3.87711 0.173739 0
M  V30 8831 H 840.812 2.8407 2.41111 0
M  V30 8832 H 840.925 4.52659 1.56962 0
M  V30 8833 H 839.289 2.37299 0.925263 0
M  V30 8834 H 840.072 3.41141 -0.384438 0
M  V30 8835 N 842.517 -0.29412 1.54831 0
M  V30 8836 C 843.48 -1.3461 1.85507 0
M  V30 8837 C 844.48 -1.43359 0.728343 0
M  V30 8838 O 845.67 -1.42875 0.996609 0
M  V30 8839 C 842.802 -2.73012 2.0415 0
M  V30 8840 H 843.995 -1.08651 2.79526 0
M  V30 8841 H 841.548 -0.531138 1.46999 0
M  V30 8842 H 842.283 -3.04183 1.12441 0
M  V30 8843 H 842.068 -2.68051 2.86166 0
M  V30 8844 H 843.558 -3.49061 2.29229 0
M  V30 8845 N 843.995 -1.47404 -0.557645 0
M  V30 8846 C 845.241 -1.55219 -1.31449 0
M  V30 8847 C 845.596 -0.211457 -1.91234 0
M  V30 8848 O 844.889 0.782795 -1.7488 0
M  V30 8849 C 845.083 -2.6061 -2.44575 0
M  V30 8850 C 844.912 -4.048 -1.95875 0
M  V30 8851 C 843.682 -4.72252 -1.79738 0
M  V30 8852 C 845.88 -4.91833 -1.50348 0
M  V30 8853 N 843.862 -6.00962 -1.25372 0
M  V30 8854 C 845.233 -6.10566 -1.07745 0
M  V30 8855 C 847.288 -4.78279 -1.38396 0
M  V30 8856 C 845.991 -7.17242 -0.543767 0
M  V30 8857 C 848.017 -5.8505 -0.864293 0
M  V30 8858 C 847.379 -7.02973 -0.44818 0
M  V30 8859 H 843.478 -0.622694 -0.47305 0
M  V30 8860 H 846.062 -1.84152 -0.632144 0
M  V30 8861 H 844.233 -2.33545 -3.10341 0
M  V30 8862 H 845.965 -2.5827 -3.11574 0
M  V30 8863 H 842.72 -4.28153 -2.0244 0
M  V30 8864 H 843.144 -6.69532 -1.00278 0
M  V30 8865 H 847.786 -3.87477 -1.69179 0
M  V30 8866 H 845.504 -8.07791 -0.223563 0
M  V30 8867 H 849.09 -5.7661 -0.775371 0
M  V30 8868 H 847.97 -7.84183 -0.0522964 0
M  V30 8869 N 845.473 0.80434 -1.35529 0
M  V30 8870 C 846.889 1.10023 -1.15616 0
M  V30 8871 C 847.089 2.01478 0.0298535 0
M  V30 8872 O 846.145 2.42609 0.699778 0
M  V30 8873 C 847.458 1.72905 -2.46017 0
M  V30 8874 C 849.006 1.85315 -2.52245 0
M  V30 8875 C 849.481 2.51612 -3.82695 0
M  V30 8876 N 850.972 2.59095 -3.83958 0
M  V30 8877 C 851.707 3.11167 -4.81625 0
M  V30 8878 N 851.203 3.63659 -5.89681 0
M  V30 8879 N 852.996 3.09741 -4.6906 0
M  V30 8880 H 845.147 0.196428 -2.1149 0
M  V30 8881 H 847.41 0.149735 -0.9361 0
M  V30 8882 H 847.116 1.13171 -3.32994 0
M  V30 8883 H 846.99 2.72579 -2.6073 0
M  V30 8884 H 849.377 2.44191 -1.65695 0
M  V30 8885 H 849.458 0.844886 -2.41444 0
M  V30 8886 H 849.102 1.93385 -4.69643 0
M  V30 8887 H 849.032 3.5298 -3.90785 0
M  V30 8888 H 851.523 2.21908 -3.05884 0
M  V30 8889 H 851.836 4.01699 -6.60195 0
M  V30 8890 H 850.181 3.61852 -5.9337 0
M  V30 8891 H 853.372 2.68011 -3.83781 0
M  V30 8892 H 853.545 3.50016 -5.45338 0
M  V30 8893 N 846.951 1.19563 1.02676 0
M  V30 8894 C 847.881 0.959024 2.12897 0
M  V30 8895 C 848.862 -0.108382 1.69754 0
M  V30 8896 O 850.047 0.0470698 1.94143 0
M  V30 8897 C 847.177 0.499211 3.43693 0
M  V30 8898 C 846.131 1.5087 4.00528 0
M  V30 8899 C 845.457 0.905884 5.2697 0
M  V30 8900 C 846.757 2.88954 4.3509 0
M  V30 8901 H 848.451 1.88084 2.32948 0
M  V30 8902 H 845.997 0.905731 1.11949 0
M  V30 8903 H 847.95 0.320965 4.20176 0
M  V30 8904 H 846.674 -0.458205 3.2337 0
M  V30 8905 H 845.333 1.67413 3.26142 0
M  V30 8906 H 844.981 -0.0591506 5.02965 0
M  V30 8907 H 844.681 1.58 5.65959 0
M  V30 8908 H 846.205 0.73848 6.06118 0
M  V30 8909 H 847.619 2.75981 5.02501 0
M  V30 8910 H 846.016 3.53177 4.85166 0
M  V30 8911 H 847.086 3.41447 3.44299 0
M  V30 8912 N 848.429 -1.21819 0.999893 0
M  V30 8913 C 849.362 -2.22635 0.500887 0
M  V30 8914 C 850.34 -1.56459 -0.442636 0
M  V30 8915 O 851.524 -1.84902 -0.366551 0
M  V30 8916 C 848.651 -3.37598 -0.273046 0
M  V30 8917 C 847.697 -4.22006 0.617511 0
M  V30 8918 S 848.53 -4.93583 2.07693 0
M  V30 8919 C 849.686 -6.1198 1.31269 0
M  V30 8920 H 849.919 -2.64618 1.35516 0
M  V30 8921 H 847.452 -1.31606 0.807419 0
M  V30 8922 H 849.41 -4.04251 -0.713515 0
M  V30 8923 H 848.071 -2.94108 -1.10268 0
M  V30 8924 H 847.264 -5.03995 0.0216543 0
M  V30 8925 H 846.866 -3.6052 0.99504 0
M  V30 8926 H 849.158 -6.74979 0.583933 0
M  V30 8927 H 850.101 -6.75991 2.10811 0
M  V30 8928 H 850.509 -5.5847 0.822901 0
M  V30 8929 N 849.908 -0.773975 -1.37286 0
M  V30 8930 C 851.156 -0.338636 -1.99243 0
M  V30 8931 C 851.477 1.08919 -1.61746 0
M  V30 8932 O 850.747 1.74822 -0.88397 0
M  V30 8933 H 849.327 -0.12222 -0.736934 0
M  V30 8934 H 851.989 -0.992595 -1.67731 0
M  V30 8935 H 851.085 -0.418055 -3.09287 0
M  V30 8936 N 851.386 1.48609 -0.524698 0
M  V30 8937 C 852.632 2.02797 0.0113382 0
M  V30 8938 C 852.965 1.40147 1.34433 0
M  V30 8939 O 852.24 0.545368 1.86698 0
M  V30 8940 C 852.523 3.59832 0.138931 0
M  V30 8941 C 852.376 4.32971 -1.21886 0
M  V30 8942 C 853.695 4.3145 0.868265 0
M  V30 8943 H 850.814 0.736995 0.00264645 0
M  V30 8944 H 853.456 1.77388 -0.680704 0
M  V30 8945 H 851.606 3.81612 0.72834 0
M  V30 8946 H 853.278 4.22624 -1.84897 0
M  V30 8947 H 851.521 3.94597 -1.80211 0
M  V30 8948 H 852.192 5.41279 -1.08263 0
M  V30 8949 H 854.668 4.14468 0.368145 0
M  V30 8950 H 853.544 5.41025 0.926428 0
M  V30 8951 H 853.805 3.98358 1.91737 0
M  V30 8952 N 852.864 0.259585 1.55447 0
M  V30 8953 C 854.113 -0.362163 1.98422 0
M  V30 8954 C 854.426 -1.58135 1.1512 0
M  V30 8955 O 855.632 -2.27506 1.48166 0
M  V30 8956 C 854.088 -0.695722 3.53111 0
M  V30 8957 C 853.696 0.502784 4.4517 0
M  V30 8958 C 855.44 -1.28096 4.04712 0
M  V30 8959 C 853.347 0.144674 5.91223 0
M  V30 8960 H 852.277 -0.139092 0.74106 0
M  V30 8961 H 854.928 0.361798 1.79898 0
M  V30 8962 H 853.31 -1.47816 3.67378 0
M  V30 8963 H 854.484 1.27994 4.42667 0
M  V30 8964 H 852.799 1.0038 4.0412 0
M  V30 8965 H 855.396 -1.56243 5.11363 0
M  V30 8966 H 855.739 -2.20969 3.52815 0
M  V30 8967 H 856.272 -0.561146 3.93822 0
M  V30 8968 H 853.011 1.04087 6.47183 0
M  V30 8969 H 852.531 -0.596023 5.96831 0
M  V30 8970 H 854.21 -0.268651 6.46442 0
M  V30 8971 N 854.342 -1.57594 -0.0133615 0
M  V30 8972 C 855.589 -1.8998 -0.70098 0
M  V30 8973 C 855.917 -0.858802 -1.74513 0
M  V30 8974 O 855.172 0.138209 -1.95211 0
M  V30 8975 C 855.471 -3.29121 -1.39336 0
M  V30 8976 C 855.137 -4.48298 -0.483687 0
M  V30 8977 C 853.799 -4.80635 -0.233186 0
M  V30 8978 C 856.151 -5.21003 0.143426 0
M  V30 8979 C 853.479 -5.83055 0.652943 0
M  V30 8980 C 855.831 -6.24366 1.01735 0
M  V30 8981 C 854.495 -6.55168 1.27716 0
M  V30 8982 H 853.765 -0.695187 -0.256507 0
M  V30 8983 H 856.412 -1.9146 0.0392965 0
M  V30 8984 H 854.717 -3.23703 -2.20735 0
M  V30 8985 H 856.414 -3.51433 -1.93121 0
M  V30 8986 H 853.004 -4.23024 -0.689092 0
M  V30 8987 H 857.188 -4.96286 -0.0371139 0
M  V30 8988 H 852.444 -6.05288 0.862379 0
M  V30 8989 H 856.618 -6.79839 1.5097 0
M  V30 8990 H 854.245 -7.34351 1.9655 0
M  V30 8991 N 855.82 0.285905 -1.54985 0
M  V30 8992 C 857.068 1.01718 -1.74636 0
M  V30 8993 C 857.389 1.87277 -0.543342 0
M  V30 8994 O 856.659 1.90847 0.442078 0
M  V30 8995 H 855.239 0.378549 -0.643979 0
M  V30 8996 H 857.901 0.313247 -1.92366 0
M  V30 8997 H 856.997 1.66159 -2.64192 0
M  V30 8998 N 857.298 1.47698 0.54982 0
M  V30 8999 C 858.526 1.5833 1.33188 0
M  V30 9000 C 858.941 0.236193 1.87317 0
M  V30 9001 O 858.298 -0.77167 1.65383 0
M  V30 9002 C 858.349 2.61438 2.49664 0
M  V30 9003 O 858.07 3.9092 1.97771 0
M  V30 9004 C 859.571 2.82324 3.41772 0
M  V30 9005 H 856.791 0.53443 0.405741 0
M  V30 9006 H 859.335 1.93375 0.665309 0
M  V30 9007 H 857.49 2.29307 3.12245 0
M  V30 9008 H 857.904 4.47323 2.73866 0
M  V30 9009 H 859.378 3.58316 4.19897 0
M  V30 9010 H 859.855 1.90416 3.95776 0
M  V30 9011 H 860.461 3.15682 2.85 0
M  V30 9012 N 858.776 -0.797141 1.35954 0
M  V30 9013 C 859.709 -1.91567 1.24005 0
M  V30 9014 C 860.687 -1.62112 0.125868 0
M  V30 9015 O 861.871 -1.86167 0.295638 0
M  V30 9016 C 858.998 -3.26204 0.911535 0
M  V30 9017 C 858.044 -3.74598 2.03909 0
M  V30 9018 S 858.877 -3.91276 3.656 0
M  V30 9019 C 860.033 -5.288 3.34846 0
M  V30 9020 H 860.266 -2.0141 2.18681 0
M  V30 9021 H 857.799 -0.955542 1.2128 0
M  V30 9022 H 859.757 -4.03979 0.728805 0
M  V30 9023 H 858.418 -3.14095 -0.0173159 0
M  V30 9024 H 857.611 -4.72137 1.7636 0
M  V30 9025 H 857.213 -3.03849 2.18064 0
M  V30 9026 H 859.505 -6.13117 2.8826 0
M  V30 9027 H 860.448 -5.61347 4.31619 0
M  V30 9028 H 860.856 -4.95534 2.70382 0
M  V30 9029 N 860.254 -1.20106 -1.0204 0
M  V30 9030 C 861.501 -1.00889 -1.75578 0
M  V30 9031 C 861.829 0.459415 -1.88996 0
M  V30 9032 O 861.084 1.35735 -1.40977 0
M  V30 9033 C 861.383 -1.63308 -3.17908 0
M  V30 9034 C 861.049 -3.13091 -3.24476 0
M  V30 9035 C 859.711 -3.53968 -3.25976 0
M  V30 9036 C 862.063 -4.09093 -3.22944 0
M  V30 9037 C 859.391 -4.89381 -3.2361 0
M  V30 9038 C 861.743 -5.44447 -3.22119 0
M  V30 9039 C 860.407 -5.84742 -3.2192 0
M  V30 9040 H 859.677 -0.36918 -0.642485 0
M  V30 9041 H 862.324 -1.49475 -1.19706 0
M  V30 9042 H 860.629 -1.06974 -3.76914 0
M  V30 9043 H 862.326 -1.45958 -3.73493 0
M  V30 9044 H 858.916 -2.80526 -3.24042 0
M  V30 9045 H 863.1 -3.78549 -3.20958 0
M  V30 9046 H 858.356 -5.1987 -3.21785 0
M  V30 9047 H 862.53 -6.18584 -3.19885 0
M  V30 9048 H 860.157 -6.89642 -3.19841 0
M  V30 9049 N 861.732 1.21287 -1.00634 0
M  V30 9050 C 862.979 1.90389 -0.6898 0
M  V30 9051 C 863.307 1.78193 0.779574 0
M  V30 9052 O 862.562 1.15358 1.58085 0
M  V30 9053 C 862.861 3.41374 -1.05824 0
M  V30 9054 C 862.527 3.73766 -2.5221 0
M  V30 9055 C 861.189 3.82317 -2.92211 0
M  V30 9056 C 863.541 3.88871 -3.47028 0
M  V30 9057 C 860.869 4.03423 -4.2599 0
M  V30 9058 C 863.221 4.11484 -4.80483 0
M  V30 9059 C 861.885 4.18263 -5.20204 0
M  V30 9060 H 861.155 0.696683 -0.252416 0
M  V30 9061 H 863.802 1.43769 -1.26502 0
M  V30 9062 H 862.107 3.8974 -0.401281 0
M  V30 9063 H 863.804 3.93118 -0.79116 0
M  V30 9064 H 860.394 3.67702 -2.20212 0
M  V30 9065 H 864.578 3.8163 -3.17289 0
M  V30 9066 H 859.834 4.06902 -4.56334 0
M  V30 9067 H 864.008 4.22115 -5.53888 0
M  V30 9068 H 861.635 4.34369 -6.23881 0
M  V30 9069 N 863.21 0.781244 1.36873 0
M  V30 9070 C 864.14 0.188128 2.32741 0
M  V30 9071 C 865.121 -0.672326 1.56249 0
M  V30 9072 O 866.306 -0.607835 1.84442 0
M  V30 9073 C 863.436 -0.684341 3.40491 0
M  V30 9074 C 862.39 0.0755641 4.27933 0
M  V30 9075 C 861.716 -0.916968 5.26779 0
M  V30 9076 C 863.016 1.26006 5.06873 0
M  V30 9077 H 864.71 0.989016 2.82593 0
M  V30 9078 H 862.256 0.477038 1.35869 0
M  V30 9079 H 864.209 -1.10915 4.06541 0
M  V30 9080 H 862.933 -1.51785 2.89187 0
M  V30 9081 H 861.592 0.481258 3.63427 0
M  V30 9082 H 861.24 -1.74528 4.71751 0
M  V30 9083 H 860.94 -0.413 5.86147 0
M  V30 9084 H 862.464 -1.34052 5.95703 0
M  V30 9085 H 863.878 0.911425 5.66009 0
M  V30 9086 H 862.275 1.69676 5.75613 0
M  V30 9087 H 863.345 2.05948 4.38991 0
M  V30 9088 N 864.689 -1.48329 0.532571 0
M  V30 9089 C 865.622 -2.26524 -0.2761 0
M  V30 9090 C 866.6 -1.32498 -0.942496 0
M  V30 9091 O 867.784 -1.61844 -0.966376 0
M  V30 9092 C 864.911 -3.08808 -1.39124 0
M  V30 9093 C 863.957 -4.18227 -0.835984 0
M  V30 9094 S 864.79 -5.34669 0.298186 0
M  V30 9095 C 865.946 -6.20514 -0.81937 0
M  V30 9096 H 866.179 -2.94764 0.387502 0
M  V30 9097 H 863.712 -1.51081 0.318407 0
M  V30 9098 H 865.67 -3.56792 -2.03002 0
M  V30 9099 H 864.331 -2.39976 -2.02658 0
M  V30 9100 H 863.524 -4.75435 -1.67264 0
M  V30 9101 H 863.126 -3.72996 -0.27385 0
M  V30 9102 H 865.418 -6.55371 -1.7174 0
M  V30 9103 H 866.361 -7.07525 -0.285199 0
M  V30 9104 H 866.769 -5.5366 -1.10094 0
M  V30 9105 N 866.167 -0.267825 -1.55308 0
M  V30 9106 C 867.414 0.351036 -1.99434 0
M  V30 9107 C 867.742 1.56406 -1.15618 0
M  V30 9108 O 866.997 1.94548 -0.212045 0
M  V30 9109 C 867.296 0.784247 -3.48689 0
M  V30 9110 C 866.962 -0.323328 -4.49739 0
M  V30 9111 C 865.624 -0.627467 -4.77091 0
M  V30 9112 C 867.976 -1.07002 -5.10098 0
M  V30 9113 C 865.304 -1.682 -5.62073 0
M  V30 9114 C 867.656 -2.11422 -5.96224 0
M  V30 9115 C 866.32 -2.42479 -6.21901 0
M  V30 9116 H 865.59 0.128453 -0.729781 0
M  V30 9117 H 868.237 -0.380018 -1.87692 0
M  V30 9118 H 866.542 1.59485 -3.57871 0
M  V30 9119 H 868.239 1.2737 -3.80234 0
M  V30 9120 H 864.829 -0.0761528 -4.28532 0
M  V30 9121 H 869.013 -0.848302 -4.88996 0
M  V30 9122 H 864.269 -1.92772 -5.80215 0
M  V30 9123 H 868.443 -2.69759 -6.4203 0
M  V30 9124 H 866.07 -3.24328 -6.87543 0
M  V30 9125 N 867.645 1.57599 0.00500368 0
M  V30 9126 C 868.873 1.94626 0.702016 0
M  V30 9127 C 869.288 0.86953 1.67585 0
M  V30 9128 O 868.645 -0.15199 1.81866 0
M  V30 9129 C 868.696 3.31658 1.43824 0
M  V30 9130 O 868.417 4.35197 0.503467 0
M  V30 9131 C 869.918 3.83114 2.23021 0
M  V30 9132 H 867.138 0.641785 0.195841 0
M  V30 9133 H 869.682 2.04451 -0.0446287 0
M  V30 9134 H 867.837 3.23156 2.13655 0
M  V30 9135 H 868.251 5.1444 1.02235 0
M  V30 9136 H 869.725 4.81438 2.7004 0
M  V30 9137 H 870.202 3.15559 3.05482 0
M  V30 9138 H 870.808 3.94775 1.58216 0
M  V30 9139 N 869.123 -0.277682 1.55134 0
M  V30 9140 C 870.534 -0.849063 1.66276 0
M  V30 9141 C 870.885 -1.87223 0.5867 0
M  V30 9142 O 870.01 -2.14676 -0.272635 0
M  V30 9143 C 870.605 -1.54681 3.01429 0
M  V30 9144 C 869.164 -2.06628 3.14614 0
M  V30 9145 C 868.311 -0.906748 2.62056 0
M  V30 9146 H 871.262 -0.0541357 1.58608 0
M  V30 9147 H 871.283 -2.41356 2.94156 0
M  V30 9148 H 870.795 -0.80189 3.79725 0
M  V30 9149 H 868.896 -2.84095 2.41082 0
M  V30 9150 H 869.009 -2.2848 4.2111 0
M  V30 9151 H 867.373 -1.29882 2.19095 0
M  V30 9152 H 868.156 -0.175414 3.42852 0
M  V30 9153 N 870.601 -1.47988 -0.541979 0
M  V30 9154 C 871.829 -1.59034 -1.32347 0
M  V30 9155 C 872.244 -0.246123 -1.87189 0
M  V30 9156 O 871.601 0.762889 -1.6579 0
M  V30 9157 C 871.652 -2.62759 -2.48274 0
M  V30 9158 O 871.373 -3.91963 -1.95695 0
M  V30 9159 C 872.874 -2.84133 -3.4027 0
M  V30 9160 H 870.094 -0.536574 -0.402901 0
M  V30 9161 H 872.638 -1.93725 -0.655045 0
M  V30 9162 H 870.793 -2.3096 -3.11025 0
M  V30 9163 H 871.207 -4.48769 -2.7149 0
M  V30 9164 H 872.681 -3.60538 -4.17991 0
M  V30 9165 H 873.158 -1.92512 -3.9476 0
M  V30 9166 H 873.764 -3.17188 -2.83322 0
M  V30 9167 N 872.079 0.78992 -1.36375 0
M  V30 9168 C 873.026 1.90254 -1.3066 0
M  V30 9169 C 873.996 1.65171 -0.17539 0
M  V30 9170 O 875.181 1.87338 -0.361824 0
M  V30 9171 C 872.321 3.27057 -1.10125 0
M  V30 9172 C 871.434 3.64215 -2.32317 0
M  V30 9173 C 870.569 4.90134 -2.04798 0
M  V30 9174 C 869.608 5.19969 -3.22953 0
M  V30 9175 N 868.745 6.37071 -2.95102 0
M  V30 9176 H 873.585 1.94474 -2.25796 0
M  V30 9177 H 871.122 0.951022 -1.12223 0
M  V30 9178 H 873.08 4.05947 -0.962453 0
M  V30 9179 H 871.71 3.22261 -0.186444 0
M  V30 9180 H 870.762 2.80454 -2.57002 0
M  V30 9181 H 872.074 3.82212 -3.20492 0
M  V30 9182 H 871.228 5.76888 -1.87845 0
M  V30 9183 H 869.967 4.74205 -1.13932 0
M  V30 9184 H 868.972 4.31699 -3.40465 0
M  V30 9185 H 870.197 5.37817 -4.14644 0
M  V30 9186 H 868.143 6.22535 -2.06848 0
M  V30 9187 H 868.06 6.55398 -3.76815 0
M  V30 9188 H 869.328 7.26808 -2.81727 0
M  V30 9189 N 873.557 1.20646 1.01402 0
M  V30 9190 C 874.803 1.02974 1.75408 0
M  V30 9191 C 875.158 -0.433294 1.87458 0
M  V30 9192 O 874.451 -1.31741 1.39122 0
M  V30 9193 C 874.645 1.64991 3.17037 0
M  V30 9194 C 874.474 3.17174 3.18796 0
M  V30 9195 C 873.244 3.86165 3.2589 0
M  V30 9196 C 875.442 4.14369 3.04636 0
M  V30 9197 N 873.424 5.25614 3.1718 0
M  V30 9198 C 874.795 5.4051 3.03724 0
M  V30 9199 C 876.85 4.05534 2.88872 0
M  V30 9200 C 875.553 6.58836 2.88664 0
M  V30 9201 C 877.579 5.23486 2.75166 0
M  V30 9202 C 876.941 6.48535 2.74922 0
M  V30 9203 H 873.04 0.431068 0.65246 0
M  V30 9204 H 875.624 1.52858 1.20593 0
M  V30 9205 H 873.795 1.17688 3.70141 0
M  V30 9206 H 875.527 1.40612 3.79487 0
M  V30 9207 H 872.282 3.37038 3.32719 0
M  V30 9208 H 872.706 5.98625 3.16192 0
M  V30 9209 H 877.348 3.09661 2.87872 0
M  V30 9210 H 875.066 7.5488 2.88413 0
M  V30 9211 H 878.652 5.18464 2.63982 0
M  V30 9212 H 877.532 7.3827 2.64439 0
M  V30 9213 N 875.035 -1.20752 1.01276 0
M  V30 9214 C 876.281 -1.90302 0.700924 0
M  V30 9215 C 876.614 -1.78406 -0.767142 0
M  V30 9216 O 875.889 -1.16575 -1.55694 0
M  V30 9217 C 876.172 -3.41831 1.13242 0
M  V30 9218 C 876.025 -3.6268 2.66051 0
M  V30 9219 C 877.344 -4.34486 0.700738 0
M  V30 9220 H 874.463 -0.69107 0.256107 0
M  V30 9221 H 877.105 -1.42227 1.25982 0
M  V30 9222 H 875.255 -3.82906 0.656902 0
M  V30 9223 H 876.927 -3.30882 3.21426 0
M  V30 9224 H 875.17 -3.06281 3.07204 0
M  V30 9225 H 875.841 -4.68882 2.91296 0
M  V30 9226 H 878.317 -4.01036 1.10948 0
M  V30 9227 H 877.193 -5.39136 1.03073 0
M  V30 9228 H 877.454 -4.40307 -0.39778 0
M  V30 9229 N 876.513 -0.788492 -1.36457 0
M  V30 9230 C 877.463 -0.159377 -2.27442 0
M  V30 9231 C 878.447 0.656146 -1.46913 0
M  V30 9232 O 879.639 0.516372 -1.693 0
M  V30 9233 C 876.768 0.705703 -3.35968 0
M  V30 9234 C 875.854 -0.11856 -4.23934 0
M  V30 9235 N 876.245 -1.1726 -4.9202 0
M  V30 9236 C 874.543 0.102752 -4.45882 0
M  V30 9237 C 875.244 -1.6743 -5.57083 0
M  V30 9238 N 874.22 -0.983682 -5.34626 0
M  V30 9239 H 878.022 -0.96614 -2.77566 0
M  V30 9240 H 875.536 -0.627864 -1.49772 0
M  V30 9241 H 877.533 1.17231 -4.00078 0
M  V30 9242 H 876.193 1.51102 -2.87399 0
M  V30 9243 H 877.204 -1.55502 -4.94004 0
M  V30 9244 H 873.881 0.878651 -4.08149 0
M  V30 9245 H 875.271 -2.55423 -6.21457 0
M  V30 9246 N 877.991 1.48044 -0.54043 0
M  V30 9247 C 878.941 2.26768 0.236657 0
M  V30 9248 C 879.925 1.33341 0.900505 0
M  V30 9249 O 881.117 1.57809 0.801584 0
M  V30 9250 C 878.246 3.18685 1.27651 0
M  V30 9251 C 877.332 4.19589 0.616923 0
M  V30 9252 N 877.723 5.04889 -0.303377 0
M  V30 9253 C 876.021 4.37375 0.872879 0
M  V30 9254 C 876.722 5.77654 -0.684905 0
M  V30 9255 N 875.698 5.43583 -0.0435728 0
M  V30 9256 H 879.5 2.90098 -0.471183 0
M  V30 9257 H 877.014 1.58378 -0.359183 0
M  V30 9258 H 879.011 3.73752 1.84702 0
M  V30 9259 H 877.671 2.56911 1.98562 0
M  V30 9260 H 878.682 5.13461 -0.676591 0
M  V30 9261 H 875.359 3.86784 1.57177 0
M  V30 9262 H 876.749 6.56285 -1.44015 0
M  V30 9263 N 879.47 0.276058 1.55163 0
M  V30 9264 C 880.717 -0.340455 1.99618 0
M  V30 9265 C 881.045 -1.5579 1.16446 0
M  V30 9266 O 880.3 -1.94433 0.222359 0
M  V30 9267 C 880.599 -0.765744 3.491 0
M  V30 9268 C 880.265 0.347174 4.49561 0
M  V30 9269 C 878.927 0.65276 4.76752 0
M  V30 9270 C 881.279 1.09705 5.09523 0
M  V30 9271 C 878.607 1.71179 5.61173 0
M  V30 9272 C 880.959 2.14581 5.95095 0
M  V30 9273 C 879.623 2.45773 6.20606 0
M  V30 9274 H 878.893 -0.124581 0.730452 0
M  V30 9275 H 881.54 0.389966 1.87487 0
M  V30 9276 H 879.845 -1.57585 3.58712 0
M  V30 9277 H 881.542 -1.25352 3.80904 0
M  V30 9278 H 878.132 0.0988779 4.28486 0
M  V30 9279 H 882.316 0.874223 4.8854 0
M  V30 9280 H 877.572 1.95846 5.79184 0
M  V30 9281 H 881.746 2.7316 6.40591 0
M  V30 9282 H 879.373 3.27969 6.85813 0
M  V30 9283 N 880.948 -1.576 0.00335426 0
M  V30 9284 C 882.196 -1.90336 -0.679446 0
M  V30 9285 C 882.517 -0.877777 -1.74127 0
M  V30 9286 O 881.787 0.0843585 -1.95718 0
M  V30 9287 H 880.367 -0.702509 -0.253948 0
M  V30 9288 H 883.029 -1.94848 0.0450731 0
M  V30 9289 H 882.125 -2.90197 -1.14857 0
M  V30 9290 N 882.426 0.269451 -1.5528 0
M  V30 9291 C 883.356 1.33729 -1.91413 0
M  V30 9292 C 884.337 1.51348 -0.776391 0
M  V30 9293 O 885.522 1.64332 -1.03482 0
M  V30 9294 C 882.652 2.69618 -2.18914 0
M  V30 9295 C 881.606 2.66725 -3.34726 0
M  V30 9296 C 880.932 4.06199 -3.47716 0
M  V30 9297 C 882.232 2.25684 -4.71025 0
M  V30 9298 H 883.926 1.03736 -2.80854 0
M  V30 9299 H 881.472 0.497579 -1.3513 0
M  V30 9300 H 883.425 3.44436 -2.42779 0
M  V30 9301 H 882.149 3.01201 -1.26275 0
M  V30 9302 H 880.808 1.94365 -3.10834 0
M  V30 9303 H 880.456 4.3501 -2.52537 0
M  V30 9304 H 880.156 4.05157 -4.25583 0
M  V30 9305 H 881.68 4.8275 -3.73877 0
M  V30 9306 H 883.094 2.90225 -4.94411 0
M  V30 9307 H 881.491 2.35797 -5.51833 0
M  V30 9308 H 882.561 1.20819 -4.69607 0
M  V30 9309 N 883.904 1.48273 0.534124 0
M  V30 9310 C 885.151 1.56079 1.29017 0
M  V30 9311 C 885.479 0.232912 1.931 0
M  V30 9312 O 884.734 -0.77642 1.79639 0
M  V30 9313 C 885.033 2.64468 2.40398 0
M  V30 9314 C 884.699 4.07034 1.93995 0
M  V30 9315 C 883.361 4.45838 1.81058 0
M  V30 9316 C 885.713 4.96395 1.58877 0
M  V30 9317 C 883.041 5.71812 1.31331 0
M  V30 9318 C 885.393 6.22854 1.10614 0
M  V30 9319 C 884.057 6.60518 0.962895 0
M  V30 9320 H 883.327 0.571135 0.472108 0
M  V30 9321 H 885.974 1.81973 0.5965 0
M  V30 9322 H 884.279 2.32419 3.15418 0
M  V30 9323 H 885.976 2.67725 2.98537 0
M  V30 9324 H 882.566 3.76387 2.05015 0
M  V30 9325 H 886.75 4.67096 1.67734 0
M  V30 9326 H 882.006 5.99722 1.18924 0
M  V30 9327 H 886.18 6.91495 0.825095 0
M  V30 9328 H 883.807 7.58019 0.575369 0
M  V30 9329 N 885.382 -0.782676 1.36792 0
M  V30 9330 C 886.345 -1.8772 1.31507 0
M  V30 9331 C 887.345 -1.59269 0.221349 0
M  V30 9332 O 888.535 -1.67555 0.476544 0
M  V30 9333 C 885.667 -3.24641 1.04025 0
M  V30 9334 H 886.86 -1.9382 2.28853 0
M  V30 9335 H 884.413 -0.981226 1.21662 0
M  V30 9336 H 885.148 -3.24221 0.0716439 0
M  V30 9337 H 884.933 -3.46681 1.8318 0
M  V30 9338 H 886.423 -4.04711 1.02949 0
M  V30 9339 N 886.86 -1.21182 -1.00761 0
M  V30 9340 C 887.823 -0.970339 -2.07646 0
M  V30 9341 C 888.823 0.0576345 -1.60697 0
M  V30 9342 O 890.013 -0.179369 -1.73274 0
M  V30 9343 C 887.145 -0.462703 -3.37745 0
M  V30 9344 H 888.338 -1.91856 -2.30502 0
M  V30 9345 H 885.891 -1.02844 -1.17698 0
M  V30 9346 H 886.626 0.490559 -3.20568 0
M  V30 9347 H 886.411 -1.20416 -3.73152 0
M  V30 9348 H 887.901 -0.313531 -4.16421 0
M  V30 9349 N 888.338 1.20213 -1.01915 0
M  V30 9350 C 889.584 1.89928 -0.711007 0
M  V30 9351 C 889.917 1.7881 0.75767 0
M  V30 9352 O 889.192 1.17399 1.55073 0
M  V30 9353 C 889.475 3.41225 -1.15053 0
M  V30 9354 C 889.328 3.61264 -2.67971 0
M  V30 9355 C 890.647 4.34108 -0.72377 0
M  V30 9356 H 887.766 0.689702 -0.259768 0
M  V30 9357 H 890.408 1.41557 -1.26734 0
M  V30 9358 H 888.558 3.82552 -0.677199 0
M  V30 9359 H 890.23 3.29173 -3.23176 0
M  V30 9360 H 888.473 3.04647 -3.08824 0
M  V30 9361 H 889.144 4.67331 -2.93779 0
M  V30 9362 H 891.62 4.00442 -1.13073 0
M  V30 9363 H 890.496 5.38581 -1.05931 0
M  V30 9364 H 890.757 4.40512 0.374424 0
M  V30 9365 N 889.816 0.795718 1.36037 0
M  V30 9366 C 891.064 0.370291 1.98679 0
M  V30 9367 C 891.385 -1.06332 1.63458 0
M  V30 9368 O 890.655 -1.73394 0.911671 0
M  V30 9369 H 889.235 0.133928 0.734896 0
M  V30 9370 H 891.897 1.01915 1.6613 0
M  V30 9371 H 890.993 0.467207 3.08583 0
M  V30 9372 N 891.294 -1.47756 0.548274 0
M  V30 9373 C 892.257 -2.28379 -0.193857 0
M  V30 9374 C 893.257 -1.36436 -0.850986 0
M  V30 9375 O 894.447 -1.59154 -0.70822 0
M  V30 9376 C 891.579 -3.15858 -1.28243 0
M  V30 9377 H 892.772 -2.95458 0.514231 0
M  V30 9378 H 890.325 -1.53298 0.304879 0
M  V30 9379 H 891.06 -2.5345 -2.0232 0
M  V30 9380 H 890.845 -3.83512 -0.816148 0
M  V30 9381 H 892.335 -3.76627 -1.80393 0
M  V30 9382 N 892.772 -0.284283 -1.55015 0
M  V30 9383 C 893.735 0.586182 -2.21577 0
M  V30 9384 C 894.735 1.07427 -1.1965 0
M  V30 9385 O 895.925 0.972977 -1.44495 0
M  V30 9386 C 893.057 1.80973 -2.88897 0
M  V30 9387 H 894.25 0.00487253 -2.999 0
M  V30 9388 H 891.803 -0.0349696 -1.56261 0
M  V30 9389 H 892.538 2.43131 -2.14611 0
M  V30 9390 H 892.323 1.46757 -3.636 0
M  V30 9391 H 893.813 2.42853 -3.39724 0
M  V30 9392 N 894.251 1.57596 -0.0117121 0
M  V30 9393 C 895.184 2.04624 1.01016 0
M  V30 9394 C 896.162 0.938437 1.32786 0
M  V30 9395 O 897.346 1.20746 1.44751 0
M  V30 9396 C 894.473 2.45369 2.33477 0
M  V30 9397 C 893.519 3.66998 2.17289 0
M  V30 9398 S 894.352 5.14412 1.48795 0
M  V30 9399 C 895.508 5.58438 2.82662 0
M  V30 9400 H 895.741 2.9098 0.60977 0
M  V30 9401 H 893.274 1.53106 0.199494 0
M  V30 9402 H 895.232 2.69511 3.09635 0
M  V30 9403 H 893.893 1.59391 2.70653 0
M  V30 9404 H 893.086 3.93297 3.15172 0
M  V30 9405 H 892.688 3.42918 1.49275 0
M  V30 9406 H 894.98 5.61614 3.78941 0
M  V30 9407 H 895.923 6.58224 2.61049 0
M  V30 9408 H 896.331 4.86033 2.8711 0
M  V30 9409 N 895.729 -0.261212 1.5542 0
M  V30 9410 C 896.692 -1.30645 1.8832 0
M  V30 9411 C 897.692 -1.41782 0.758588 0
M  V30 9412 O 898.882 -1.40729 1.02669 0
M  V30 9413 C 896.014 -2.6862 2.09895 0
M  V30 9414 H 897.207 -1.02698 2.81768 0
M  V30 9415 H 894.76 -0.499838 1.48092 0
M  V30 9416 H 895.495 -3.0173 1.18868 0
M  V30 9417 H 895.28 -2.61921 2.91787 0
M  V30 9418 H 896.77 -3.44121 2.36581 0
M  V30 9419 N 897.207 -1.48554 -0.526253 0
M  V30 9420 C 898.17 -1.62868 -1.61266 0
M  V30 9421 C 899.17 -0.501762 -1.52771 0
M  V30 9422 O 900.36 -0.76764 -1.56374 0
M  V30 9423 C 897.492 -1.60238 -3.00893 0
M  V30 9424 H 898.685 -2.59742 -1.49913 0
M  V30 9425 H 896.238 -1.37207 -0.748595 0
M  V30 9426 H 896.973 -0.648545 -3.17749 0
M  V30 9427 H 896.758 -2.42054 -3.08468 0
M  V30 9428 H 898.248 -1.73455 -3.79872 0
M  V30 9429 N 898.685 0.775411 -1.37205 0
M  V30 9430 C 899.615 1.90258 -1.35367 0
M  V30 9431 C 900.596 1.68634 -0.222864 0
M  V30 9432 O 901.781 1.89545 -0.422659 0
M  V30 9433 C 898.911 3.27488 -1.15623 0
M  V30 9434 C 897.865 3.63668 -2.25676 0
M  V30 9435 C 897.191 4.994 -1.91059 0
M  V30 9436 C 898.491 3.70797 -3.67841 0
M  V30 9437 H 900.185 1.92053 -2.29687 0
M  V30 9438 H 897.731 0.922597 -1.10563 0
M  V30 9439 H 899.684 4.05976 -1.12968 0
M  V30 9440 H 898.408 3.26117 -0.177573 0
M  V30 9441 H 897.067 2.87486 -2.2748 0
M  V30 9442 H 896.715 4.94565 -0.917324 0
M  V30 9443 H 896.415 5.24576 -2.64751 0
M  V30 9444 H 897.939 5.80291 -1.89985 0
M  V30 9445 H 899.353 4.39444 -3.68187 0
M  V30 9446 H 897.75 4.07468 -4.40556 0
M  V30 9447 H 898.82 2.71549 -4.01732 0
M  V30 9448 N 900.163 1.21714 1.00117 0
M  V30 9449 C 901.391 1.06278 1.77518 0
M  V30 9450 C 901.806 -0.387193 1.84787 0
M  V30 9451 O 901.163 -1.26854 1.31203 0
M  V30 9452 C 901.214 1.65795 3.21239 0
M  V30 9453 O 900.935 3.05119 3.14378 0
M  V30 9454 C 902.436 1.55521 4.15124 0
M  V30 9455 H 899.656 0.373013 0.557765 0
M  V30 9456 H 902.2 1.61133 1.25922 0
M  V30 9457 H 900.355 1.15022 3.69931 0
M  V30 9458 H 900.769 3.33643 4.04701 0
M  V30 9459 H 902.243 2.01902 5.13751 0
M  V30 9460 H 902.72 0.510307 4.36225 0
M  V30 9461 H 903.326 2.0556 3.72324 0
M  V30 9462 N 901.641 -1.19671 1.02551 0
M  V30 9463 C 902.869 -1.93233 0.739513 0
M  V30 9464 C 903.284 -1.75298 -0.701158 0
M  V30 9465 O 902.641 -1.07269 -1.47647 0
M  V30 9466 C 902.692 -3.45085 1.07697 0
M  V30 9467 O 902.413 -3.62441 2.46106 0
M  V30 9468 C 903.914 -4.35776 0.813298 0
M  V30 9469 H 901.134 -0.613905 0.270853 0
M  V30 9470 H 903.678 -1.51909 1.36909 0
M  V30 9471 H 901.833 -3.84255 0.492635 0
M  V30 9472 H 902.247 -4.56337 2.58567 0
M  V30 9473 H 903.721 -5.40941 1.09941 0
M  V30 9474 H 904.198 -4.38474 -0.252359 0
M  V30 9475 H 904.804 -4.02282 1.38021 0
M  V30 9476 N 903.119 -0.802921 -1.35613 0
M  V30 9477 C 904.365 -0.382141 -1.99167 0
M  V30 9478 C 904.698 1.04704 -1.63556 0
M  V30 9479 O 903.973 1.72578 -0.89706 0
M  V30 9480 C 904.256 -0.561493 -3.55695 0
M  V30 9481 C 904.109 -2.03534 -4.01116 0
M  V30 9482 C 905.428 0.0151135 -4.40097 0
M  V30 9483 H 902.547 -0.140322 -0.723518 0
M  V30 9484 H 905.189 -1.01177 -1.6082 0
M  V30 9485 H 903.339 -0.0255083 -3.88492 0
M  V30 9486 H 905.011 -2.63343 -3.78746 0
M  V30 9487 H 903.254 -2.5331 -3.52159 0
M  V30 9488 H 903.925 -2.11173 -5.1001 0
M  V30 9489 H 906.401 -0.442582 -4.1374 0
M  V30 9490 H 905.277 -0.140316 -5.48721 0
M  V30 9491 H 905.538 1.10848 -4.27978 0
M  V30 9492 N 904.597 1.47463 -0.556102 0
M  V30 9493 C 905.527 2.32801 0.180497 0
M  V30 9494 C 906.508 1.43721 0.909848 0
M  V30 9495 O 907.693 1.72578 0.89053 0
M  V30 9496 C 904.823 3.25478 1.21167 0
M  V30 9497 C 903.777 4.2379 0.598846 0
M  V30 9498 C 903.103 5.05783 1.73457 0
M  V30 9499 C 904.403 5.20387 -0.446659 0
M  V30 9500 H 906.097 2.94636 -0.531956 0
M  V30 9501 H 903.643 1.41683 -0.257267 0
M  V30 9502 H 905.596 3.8402 1.73513 0
M  V30 9503 H 904.32 2.61695 1.95405 0
M  V30 9504 H 902.979 3.66472 0.0966897 0
M  V30 9505 H 902.627 4.38405 2.46596 0
M  V30 9506 H 902.327 5.72343 1.33031 0
M  V30 9507 H 903.851 5.67183 2.26131 0
M  V30 9508 H 905.265 5.73299 -0.00930019 0
M  V30 9509 H 903.662 5.95143 -0.769735 0
M  V30 9510 H 904.732 4.65932 -1.34295 0
M  V30 9511 N 906.075 0.2925 1.54862 0
M  V30 9512 C 907.321 -0.319736 2.00264 0
M  V30 9513 C 907.654 -1.5419 1.18064 0
M  V30 9514 O 906.929 -1.92821 0.254983 0
M  V30 9515 C 907.212 -0.684753 3.5353 0
M  V30 9516 C 907.065 0.545961 4.46474 0
M  V30 9517 C 908.384 -1.51456 4.13218 0
M  V30 9518 H 905.503 -0.11474 0.728014 0
M  V30 9519 H 908.145 0.402907 1.85679 0
M  V30 9520 H 906.295 -1.30044 3.66089 0
M  V30 9521 H 907.967 1.18448 4.45834 0
M  V30 9522 H 906.21 1.1808 4.1742 0
M  V30 9523 H 906.881 0.246544 5.51449 0
M  V30 9524 H 909.357 -0.994421 4.04043 0
M  V30 9525 H 908.233 -1.73875 5.20633 0
M  V30 9526 H 908.494 -2.5011 3.64551 0
M  V30 9527 N 907.553 -1.57587 0.0200696 0
M  V30 9528 C 908.778 -1.96124 -0.674547 0
M  V30 9529 C 909.203 -0.896068 -1.65385 0
M  V30 9530 O 908.561 0.143925 -1.80728 0
M  V30 9531 C 908.609 -3.3376 -1.36517 0
M  V30 9532 O 907.713 -3.29483 -2.48022 0
M  V30 9533 H 907.054 -0.639719 -0.177919 0
M  V30 9534 H 909.584 -2.04447 0.0792317 0
M  V30 9535 H 909.594 -3.69785 -1.72403 0
M  V30 9536 H 908.269 -4.10832 -0.647265 0
M  V30 9537 H 906.846 -3.05162 -2.14314 0
M  V30 9538 N 909.032 0.252966 -1.55557 0
M  V30 9539 C 910.443 0.822503 -1.67606 0
M  V30 9540 C 910.794 1.86265 -0.616411 0
M  V30 9541 O 909.919 2.15082 0.238447 0
M  V30 9542 C 910.514 1.49866 -3.03852 0
M  V30 9543 C 909.073 2.01597 -3.17861 0
M  V30 9544 C 908.22 0.864943 -2.63465 0
M  V30 9545 H 911.171 0.0288958 -1.58674 0
M  V30 9546 H 911.192 2.36646 -2.97958 0
M  V30 9547 H 910.704 0.741378 -3.80953 0
M  V30 9548 H 908.805 2.80224 -2.45571 0
M  V30 9549 H 908.918 2.21752 -4.24692 0
M  V30 9550 H 907.282 1.2638 -2.21134 0
M  V30 9551 H 908.065 0.120847 -3.43087 0
M  V30 9552 N 910.51 1.48831 0.518367 0
M  V30 9553 C 911.735 1.61379 1.30275 0
M  V30 9554 C 912.16 0.278571 1.86026 0
M  V30 9555 O 911.518 -0.751427 1.64995 0
M  V30 9556 C 911.566 2.67225 2.42122 0
M  V30 9557 O 910.67 2.25192 3.45489 0
M  V30 9558 H 910.011 0.540742 0.385349 0
M  V30 9559 H 912.541 1.949 0.622498 0
M  V30 9560 H 912.551 2.88859 2.8814 0
M  V30 9561 H 911.226 3.64155 2.00907 0
M  V30 9562 H 909.803 2.13819 3.05509 0
M  V30 9563 N 911.988 -0.768124 1.37614 0
M  V30 9564 C 913.234 -1.52907 1.33219 0
M  V30 9565 C 913.567 -1.94026 -0.0821218 0
M  V30 9566 O 912.842 -1.64345 -1.04023 0
M  V30 9567 C 913.125 -2.79164 2.27463 0
M  V30 9568 C 912.978 -2.44276 3.7769 0
M  V30 9569 C 914.297 -3.81115 2.20089 0
M  V30 9570 H 911.416 -0.554712 0.485246 0
M  V30 9571 H 914.058 -0.880911 1.68345 0
M  V30 9572 H 912.208 -3.34472 1.97639 0
M  V30 9573 H 913.88 -1.94855 4.18126 0
M  V30 9574 H 912.123 -1.76925 3.96081 0
M  V30 9575 H 912.794 -3.34544 4.39072 0
M  V30 9576 H 915.27 -3.35311 2.46386 0
M  V30 9577 H 914.146 -4.67174 2.88166 0
M  V30 9578 H 914.407 -4.25644 1.19498 0
M  V30 9579 N 913.466 -1.22244 -0.994698 0
M  V30 9580 C 914.396 -1.01513 -2.10279 0
M  V30 9581 C 915.377 0.0633365 -1.69982 0
M  V30 9582 O 916.562 -0.0985268 -1.9395 0
M  V30 9583 C 913.692 -0.59016 -3.42249 0
M  V30 9584 C 912.646 -1.61436 -3.96387 0
M  V30 9585 C 911.972 -1.04528 -5.24383 0
M  V30 9586 C 913.272 -3.00388 -4.27276 0
M  V30 9587 H 914.966 -1.94194 -2.2788 0
M  V30 9588 H 912.512 -0.935094 -1.09508 0
M  V30 9589 H 914.465 -0.432254 -4.19177 0
M  V30 9590 H 913.189 0.372308 -3.24471 0
M  V30 9591 H 911.848 -1.76001 -3.21589 0
M  V30 9592 H 911.496 -0.0742225 -5.02945 0
M  V30 9593 H 911.196 -1.72949 -5.61571 0
M  V30 9594 H 912.72 -0.898922 -6.03947 0
M  V30 9595 H 914.134 -2.89207 -4.95007 0
M  V30 9596 H 912.531 -3.65916 -4.75631 0
M  V30 9597 H 913.601 -3.50456 -3.35125 0
M  V30 9598 N 914.944 1.19125 -1.03184 0
M  V30 9599 C 916.36 1.40909 -0.749447 0
M  V30 9600 C 916.56 1.9022 0.664729 0
M  V30 9601 O 915.616 2.08085 1.43028 0
M  V30 9602 C 916.929 2.41761 -1.78807 0
M  V30 9603 C 918.477 2.55503 -1.80796 0
M  V30 9604 C 918.952 3.59612 -2.83626 0
M  V30 9605 N 920.443 3.6711 -2.82461 0
M  V30 9606 C 921.178 4.47366 -3.5868 0
M  V30 9607 N 920.674 5.31302 -4.44623 0
M  V30 9608 N 922.467 4.42044 -3.47208 0
M  V30 9609 H 914.618 0.854399 -1.94458 0
M  V30 9610 H 916.881 0.437753 -0.840878 0
M  V30 9611 H 916.587 2.12559 -2.80199 0
M  V30 9612 H 916.461 3.40981 -1.61283 0
M  V30 9613 H 918.848 2.84027 -0.800803 0
M  V30 9614 H 918.929 1.56427 -2.02396 0
M  V30 9615 H 918.573 3.3183 -3.84515 0
M  V30 9616 H 918.503 4.58345 -2.59283 0
M  V30 9617 H 920.994 3.07166 -2.2013 0
M  V30 9618 H 921.307 5.89667 -4.99512 0
M  V30 9619 H 919.652 5.30753 -4.48694 0
M  V30 9620 H 922.843 3.75513 -2.79477 0
M  V30 9621 H 923.016 5.0435 -4.06859 0
M  V30 9622 N 916.422 0.810101 1.35185 0
M  V30 9623 C 917.668 0.401839 1.99391 0
M  V30 9624 C 918.023 -1.02059 1.63101 0
M  V30 9625 O 917.316 -1.69889 0.8859 0
M  V30 9626 C 917.51 0.526561 3.535 0
M  V30 9627 C 917.339 1.95956 4.04761 0
M  V30 9628 C 916.109 2.58869 4.33953 0
M  V30 9629 C 918.307 2.92459 4.23051 0
M  V30 9630 N 916.289 3.93542 4.71166 0
M  V30 9631 C 917.66 4.12011 4.633 0
M  V30 9632 C 919.715 2.89244 4.05268 0
M  V30 9633 C 918.418 5.28784 4.87627 0
M  V30 9634 C 920.444 4.05223 4.30753 0
M  V30 9635 C 919.806 5.23524 4.71277 0
M  V30 9636 H 915.905 0.194886 0.757327 0
M  V30 9637 H 918.489 1.05209 1.63827 0
M  V30 9638 H 916.66 -0.0937151 3.88287 0
M  V30 9639 H 918.392 0.0925434 4.04594 0
M  V30 9640 H 915.147 2.10198 4.24398 0
M  V30 9641 H 915.571 4.62889 4.94027 0
M  V30 9642 H 920.213 1.98932 3.73076 0
M  V30 9643 H 917.931 6.19666 5.18691 0
M  V30 9644 H 921.517 4.04121 4.18542 0
M  V30 9645 H 920.397 6.11776 4.90612 0
M  V30 9646 N 917.9 -1.47166 0.563914 0
M  V30 9647 C 919.125 -2.0735 0.0454698 0
M  V30 9648 C 919.55 -1.41281 -1.24182 0
M  V30 9649 O 918.908 -0.490084 -1.7455 0
M  V30 9650 C 918.956 -3.60378 -0.126453 0
M  V30 9651 O 918.06 -3.94934 -1.18746 0
M  V30 9652 H 917.401 -0.661773 0.0543377 0
M  V30 9653 H 919.931 -1.89086 0.781508 0
M  V30 9654 H 919.941 -4.06593 -0.338554 0
M  V30 9655 H 918.616 -4.07862 0.81373 0
M  V30 9656 H 917.193 -3.60455 -0.955318 0
M  V30 9657 N 919.378 -0.300708 -1.54705 0
M  V30 9658 C 920.794 0.0526874 -1.59513 0
M  V30 9659 C 920.994 1.52444 -1.31769 0
M  V30 9660 O 920.05 2.27716 -1.09096 0
M  V30 9661 C 921.363 -0.344989 -2.98714 0
M  V30 9662 C 922.911 -0.29373 -3.11619 0
M  V30 9663 C 923.386 -0.666225 -4.53129 0
M  V30 9664 N 924.877 -0.618749 -4.59049 0
M  V30 9665 C 925.612 -0.879447 -5.66616 0
M  V30 9666 N 925.108 -1.2061 -6.82221 0
M  V30 9667 N 926.901 -0.806528 -5.56284 0
M  V30 9668 H 919.052 -1.25988 -1.71 0
M  V30 9669 H 921.315 -0.510758 -0.798643 0
M  V30 9670 H 921.021 -1.36953 -3.2394 0
M  V30 9671 H 920.895 0.301507 -3.75993 0
M  V30 9672 H 923.282 0.72156 -2.86142 0
M  V30 9673 H 923.363 -0.974844 -2.36496 0
M  V30 9674 H 923.007 -1.67932 -4.79334 0
M  V30 9675 H 922.937 0.0369575 -5.26587 0
M  V30 9676 H 925.428 -0.377202 -3.76013 0
M  V30 9677 H 925.741 -1.391 -7.60178 0
M  V30 9678 H 924.086 -1.24413 -6.83774 0
M  V30 9679 H 927.277 -0.550993 -4.64846 0
M  V30 9680 H 927.45 -1.01307 -6.40032 0
M  V30 9681 N 920.856 1.57574 -0.0284266 0
M  V30 9682 C 921.804 2.11332 0.971675 0
M  V30 9683 C 922.798 1.03974 1.33738 0
M  V30 9684 O 924.004 1.22409 1.31969 0
M  V30 9685 H 920.379 0.675174 0.331125 0
M  V30 9686 H 922.35 2.943 0.49296 0
M  V30 9687 C 921.099 2.65496 2.24516 0
M  V30 9688 H 920.422 3.47753 1.9725 0
M  V30 9689 H 921.862 3.06757 2.92705 0
M  V30 9690 C 920.321 1.58207 2.97443 0
M  V30 9691 O 920.851 0.981496 3.89525 0
M  V30 9692 N 919.057 1.30269 2.59766 0
M  V30 9693 H 918.604 1.79294 1.84963 0
M  V30 9694 H 918.562 0.587085 3.0887 0
M  V30 9695 N 922.334 -0.244713 1.55689 0
M  V30 9696 C 923.75 -0.593331 1.48161 0
M  V30 9697 C 923.95 -1.88234 0.719047 0
M  V30 9698 O 923.006 -2.51266 0.249292 0
M  V30 9699 C 924.319 -0.694032 2.92581 0
M  V30 9700 C 925.867 -0.786213 3.02965 0
M  V30 9701 C 926.342 -0.918457 4.48696 0
M  V30 9702 N 927.833 -0.983272 4.52643 0
M  V30 9703 C 928.568 -1.1049 5.62654 0
M  V30 9704 N 928.064 -1.19193 6.8247 0
M  V30 9705 N 929.857 -1.13823 5.50455 0
M  V30 9706 H 922.008 0.601446 2.03707 0
M  V30 9707 H 924.271 0.207894 0.924924 0
M  V30 9708 H 923.977 0.183133 3.51223 0
M  V30 9709 H 923.851 -1.56525 3.4319 0
M  V30 9710 H 926.238 -1.65383 2.44402 0
M  V30 9711 H 926.319 0.110202 2.55563 0
M  V30 9712 H 925.963 -0.0553881 5.0787 0
M  V30 9713 H 925.893 -1.82994 4.93782 0
M  V30 9714 H 928.384 -0.927269 3.66347 0
M  V30 9715 H 928.697 -1.28387 7.62061 0
M  V30 9716 H 927.042 -1.16147 6.85226 0
M  V30 9717 H 930.233 -1.06673 4.55783 0
M  V30 9718 H 930.406 -1.22957 6.36228 0
M  V30 9719 N 923.813 -1.49104 -0.510467 0
M  V30 9720 C 924.746 -1.59667 -1.63039 0
M  V30 9721 C 925.724 -0.446145 -1.5636 0
M  V30 9722 O 926.908 -0.660414 -1.76552 0
M  V30 9723 C 924.035 -1.54282 -3.01521 0
M  V30 9724 C 923.081 -2.74415 -3.26494 0
M  V30 9725 S 923.914 -4.3619 -3.10643 0
M  V30 9726 C 925.07 -4.33435 -4.51536 0
M  V30 9727 H 925.303 -2.54407 -1.53833 0
M  V30 9728 H 922.836 -1.37878 -0.694916 0
M  V30 9729 H 924.794 -1.51861 -3.81377 0
M  V30 9730 H 923.455 -0.608458 -3.0815 0
M  V30 9731 H 922.648 -2.66841 -4.27565 0
M  V30 9732 H 922.25 -2.74199 -2.54344 0
M  V30 9733 H 924.542 -4.04571 -5.43441 0
M  V30 9734 H 925.485 -5.34752 -4.64162 0
M  V30 9735 H 925.893 -3.63638 -4.31773 0
M  V30 9736 N 925.291 0.760815 -1.38019 0
M  V30 9737 C 926.254 1.85604 -1.34476 0
M  V30 9738 C 927.254 1.58897 -0.24666 0
M  V30 9739 O 928.444 1.66776 -0.50314 0
M  V30 9740 C 925.576 3.22945 -1.09176 0
M  V30 9741 H 926.769 1.90155 -2.31908 0
M  V30 9742 H 924.322 0.961746 -1.23208 0
M  V30 9743 H 925.057 3.24066 -0.123216 0
M  V30 9744 H 924.842 3.43723 -1.88672 0
M  V30 9745 H 926.332 4.03022 -1.09375 0
M  V30 9746 N 926.769 1.22769 0.988202 0
M  V30 9747 C 928.016 1.05509 1.72841 0
M  V30 9748 C 928.344 -0.409145 1.90148 0
M  V30 9749 O 927.599 -1.3195 1.44526 0
M  V30 9750 C 927.898 1.71679 3.13466 0
M  V30 9751 C 927.564 3.21584 3.16061 0
M  V30 9752 C 926.226 3.62486 3.16476 0
M  V30 9753 C 928.578 4.17511 3.11984 0
M  V30 9754 C 925.906 4.97789 3.10521 0
M  V30 9755 C 928.258 5.52796 3.0757 0
M  V30 9756 C 926.922 5.93072 3.06304 0
M  V30 9757 H 926.192 0.386085 0.632471 0
M  V30 9758 H 928.839 1.52596 1.157 0
M  V30 9759 H 927.144 1.1693 3.73945 0
M  V30 9760 H 928.841 1.55809 3.69492 0
M  V30 9761 H 925.431 2.89019 3.1649 0
M  V30 9762 H 929.615 3.86926 3.10809 0
M  V30 9763 H 924.871 5.28218 3.07888 0
M  V30 9764 H 929.045 6.26848 3.03372 0
M  V30 9765 H 926.672 6.97879 3.01444 0
M  V30 9766 N 928.247 -1.18576 1.03814 0
M  V30 9767 C 929.177 -2.24334 0.647795 0
M  V30 9768 C 930.158 -1.66508 -0.34774 0
M  V30 9769 O 931.343 -1.92852 -0.228401 0
M  V30 9770 C 928.473 -3.47299 0.00734922 0
M  V30 9771 C 927.427 -4.17859 0.926152 0
M  V30 9772 C 926.753 -5.34489 0.150317 0
M  V30 9773 C 928.053 -4.71632 2.24411 0
M  V30 9774 H 929.747 -2.57241 1.53191 0
M  V30 9775 H 927.293 -1.23649 0.738028 0
M  V30 9776 H 929.246 -4.20486 -0.277434 0
M  V30 9777 H 927.97 -3.13619 -0.911626 0
M  V30 9778 H 926.629 -3.46567 1.19528 0
M  V30 9779 H 926.277 -4.97056 -0.770985 0
M  V30 9780 H 925.977 -5.82633 0.762407 0
M  V30 9781 H 927.501 -6.10467 -0.127508 0
M  V30 9782 H 928.915 -5.36526 2.02021 0
M  V30 9783 H 927.312 -5.303 2.80894 0
M  V30 9784 H 928.382 -3.89192 2.89236 0
M  V30 9785 N 929.725 -0.817259 -1.34754 0
M  V30 9786 C 930.688 -0.240611 -2.27934 0
M  V30 9787 C 931.688 0.578219 -1.50044 0
M  V30 9788 O 932.878 0.395148 -1.69659 0
M  V30 9789 C 930.01 0.663318 -3.34384 0
M  V30 9790 H 931.203 -1.06257 -2.80445 0
M  V30 9791 H 928.756 -0.588697 -1.4479 0
M  V30 9792 H 929.491 1.50855 -2.87077 0
M  V30 9793 H 929.276 0.0777388 -3.92023 0
M  V30 9794 H 930.766 1.06076 -4.03903 0
M  V30 9795 N 931.203 1.46865 -0.571711 0
M  V30 9796 C 932.166 2.28658 0.157499 0
M  V30 9797 C 933.166 1.37773 0.829172 0
M  V30 9798 O 934.356 1.6026 0.682811 0
M  V30 9799 C 931.488 3.17859 1.23202 0
M  V30 9800 H 932.681 2.94603 -0.561171 0
M  V30 9801 H 930.234 1.52793 -0.329229 0
M  V30 9802 H 930.969 2.56637 1.98262 0
M  V30 9803 H 930.754 3.84762 0.755031 0
M  V30 9804 H 932.244 3.7945 1.74378 0
M  V30 9805 N 932.681 0.308908 1.54543 0
M  V30 9806 C 933.611 -0.556657 2.26768 0
M  V30 9807 C 934.592 -1.13145 1.27013 0
M  V30 9808 O 935.777 -1.15931 1.558 0
M  V30 9809 C 932.907 -1.72481 3.01443 0
M  V30 9810 C 931.861 -1.28001 4.08411 0
M  V30 9811 C 931.187 -2.53395 4.70845 0
M  V30 9812 C 932.487 -0.405497 5.20724 0
M  V30 9813 H 934.181 0.0457618 2.99365 0
M  V30 9814 H 931.727 0.0234495 1.43981 0
M  V30 9815 H 933.68 -2.3365 3.50693 0
M  V30 9816 H 932.404 -2.35359 2.26437 0
M  V30 9817 H 931.063 -0.69133 3.60022 0
M  V30 9818 H 930.711 -3.14604 3.92471 0
M  V30 9819 H 930.411 -2.2433 5.43093 0
M  V30 9820 H 931.935 -3.15352 5.22863 0
M  V30 9821 H 933.349 -0.923076 5.6582 0
M  V30 9822 H 931.746 -0.208282 5.99738 0
M  V30 9823 H 932.816 0.567412 4.81569 0
M  V30 9824 N 934.159 -1.57557 0.0367827 0
M  V30 9825 C 935.406 -1.92114 -0.640185 0
M  V30 9826 C 935.734 -0.913887 -1.71693 0
M  V30 9827 O 934.989 0.0760343 -1.95552 0
M  V30 9828 C 935.288 -3.33387 -1.28794 0
M  V30 9829 C 934.954 -4.4961 -0.340819 0
M  V30 9830 C 933.616 -4.81133 -0.0801574 0
M  V30 9831 C 935.968 -5.20283 0.309106 0
M  V30 9832 C 933.296 -5.80683 0.838107 0
M  V30 9833 C 935.648 -6.20813 1.21547 0
M  V30 9834 C 934.312 -6.50773 1.48495 0
M  V30 9835 H 933.582 -0.702996 -0.23426 0
M  V30 9836 H 936.229 -1.91238 0.100188 0
M  V30 9837 H 934.534 -3.30561 -2.10324 0
M  V30 9838 H 936.231 -3.57399 -1.81843 0
M  V30 9839 H 932.821 -4.25002 -0.554161 0
M  V30 9840 H 937.005 -4.96153 0.120794 0
M  V30 9841 H 932.261 -6.02238 1.05451 0
M  V30 9842 H 936.435 -6.74692 1.72522 0
M  V30 9843 H 934.062 -7.27727 2.19814 0
M  V30 9844 N 935.637 0.236453 -1.55816 0
M  V30 9845 C 936.884 0.963012 -1.78136 0
M  V30 9846 C 937.212 1.84918 -0.602952 0
M  V30 9847 O 936.467 1.91285 0.413325 0
M  V30 9848 C 936.766 1.84549 -3.06066 0
M  V30 9849 C 936.432 1.11381 -4.36927 0
M  V30 9850 C 935.094 0.911635 -4.72486 0
M  V30 9851 C 937.446 0.596 -5.17781 0
M  V30 9852 C 934.774 0.179515 -5.86425 0
M  V30 9853 C 937.126 -0.122702 -6.32481 0
M  V30 9854 C 935.79 -0.336263 -6.66652 0
M  V30 9855 H 935.06 0.352391 -0.651845 0
M  V30 9856 H 937.707 0.232295 -1.90086 0
M  V30 9857 H 936.012 2.6436 -2.89173 0
M  V30 9858 H 937.709 2.40953 -3.20535 0
M  V30 9859 H 934.299 1.28134 -4.08998 0
M  V30 9860 H 938.483 0.73971 -4.90757 0
M  V30 9861 H 933.739 0.00368224 -6.114 0
M  V30 9862 H 937.913 -0.531516 -6.94369 0
M  V30 9863 H 935.54 -0.905507 -7.54788 0
M  V30 9864 N 937.115 1.49373 0.502552 0
M  V30 9865 C 938.045 1.68839 1.61294 0
M  V30 9866 C 939.026 0.537096 1.61398 0
M  V30 9867 O 940.211 0.772764 1.78163 0
M  V30 9868 C 937.341 1.75347 2.99784 0
M  V30 9869 C 936.295 2.90251 3.14545 0
M  V30 9870 C 935.621 2.8187 4.54371 0
M  V30 9871 C 936.921 4.31207 2.94717 0
M  V30 9872 H 938.615 2.61803 1.45257 0
M  V30 9873 H 936.161 1.25987 0.697371 0
M  V30 9874 H 938.114 1.87552 3.77362 0
M  V30 9875 H 936.838 0.789814 3.16906 0
M  V30 9876 H 935.497 2.77646 2.39392 0
M  V30 9877 H 935.145 1.83416 4.68367 0
M  V30 9878 H 934.845 3.5899 4.65188 0
M  V30 9879 H 936.369 2.96081 5.34012 0
M  V30 9880 H 937.783 4.44501 3.62065 0
M  V30 9881 H 936.18 5.09536 3.17007 0
M  V30 9882 H 937.25 4.45759 1.90857 0
M  V30 9883 N 938.594 -0.753485 1.38421 0
M  V30 9884 C 939.524 -1.8808 1.38377 0
M  V30 9885 C 940.505 -1.68258 0.249664 0
M  V30 9886 O 941.69 -1.88848 0.45276 0
M  V30 9887 C 938.82 -3.25608 1.20818 0
M  V30 9888 C 937.774 -3.60032 2.31433 0
M  V30 9889 C 937.1 -4.96297 1.9898 0
M  V30 9890 C 938.4 -3.64898 3.73694 0
M  V30 9891 H 940.094 -1.88375 2.32713 0
M  V30 9892 H 937.64 -0.90489 1.12017 0
M  V30 9893 H 939.593 -4.04127 1.19412 0
M  V30 9894 H 938.317 -3.25793 0.229433 0
M  V30 9895 H 936.976 -2.83831 2.32025 0
M  V30 9896 H 936.624 -4.93043 0.995889 0
M  V30 9897 H 936.324 -5.20298 2.73063 0
M  V30 9898 H 937.848 -5.77196 1.99193 0
M  V30 9899 H 939.262 -4.33531 3.75132 0
M  V30 9900 H 937.659 -4.00407 4.46983 0
M  V30 9901 H 938.729 -2.65124 4.06002 0
M  V30 9902 N 940.072 -1.23292 -0.981677 0
M  V30 9903 C 941.035 -1.01417 -2.05542 0
M  V30 9904 C 942.035 0.0235354 -1.60783 0
M  V30 9905 O 943.225 -0.216082 -1.72855 0
M  V30 9906 C 940.357 -0.534239 -3.36688 0
M  V30 9907 H 941.55 -1.96702 -2.26381 0
M  V30 9908 H 939.103 -1.05318 -1.1549 0
M  V30 9909 H 939.838 0.422452 -3.21537 0
M  V30 9910 H 939.623 -1.28304 -3.70514 0
M  V30 9911 H 941.113 -0.40179 -4.15663 0
M  V30 9912 N 941.55 1.18024 -1.04442 0
M  V30 9913 C 942.48 2.23988 -0.659683 0
M  V30 9914 C 943.461 1.6669 0.338904 0
M  V30 9915 O 944.646 1.92971 0.21817 0
M  V30 9916 C 941.776 3.4729 -0.0257672 0
M  V30 9917 C 940.73 4.17362 -0.948299 0
M  V30 9918 C 940.056 5.34401 -0.17866 0
M  V30 9919 C 941.356 4.70435 -2.26909 0
M  V30 9920 H 943.05 2.56425 -1.54553 0
M  V30 9921 H 940.596 1.23256 -0.744575 0
M  V30 9922 H 942.549 4.20627 0.255131 0
M  V30 9923 H 941.273 3.14098 0.894981 0
M  V30 9924 H 939.932 3.45928 -1.21364 0
M  V30 9925 H 939.58 4.97458 0.744614 0
M  V30 9926 H 939.28 5.8222 -0.793294 0
M  V30 9927 H 940.804 6.10526 0.0951315 0
M  V30 9928 H 942.218 5.35447 -2.04864 0
M  V30 9929 H 940.615 5.28803 -2.83703 0
M  V30 9930 H 941.685 3.87653 -2.91296 0
M  V30 9931 N 943.028 0.824394 1.34319 0
M  V30 9932 C 944.268 0.419044 2.00058 0
M  V30 9933 C 944.632 -0.999504 1.63933 0
M  V30 9934 O 945.833 -1.50781 2.22527 0
M  V30 9935 C 944.104 0.616897 3.52036 0
M  V30 9936 S 945.663 0.304614 4.37741 0
M  V30 9937 H 942.481 0.158265 0.693162 0
M  V30 9938 H 945.083 1.07053 1.63585 0
M  V30 9939 H 943.787 1.64896 3.75816 0
M  V30 9940 H 943.318 -0.0492693 3.93369 0
M  V30 9941 H 945.333 -0.88114 4.88314 0
M  V30 9942 N 944.506 -1.46559 0.579492 0
M  V30 9943 C 945.752 -2.03272 0.0722569 0
M  V30 9944 C 946.107 -1.44334 -1.27222 0
M  V30 9945 O 945.4 -0.597848 -1.82034 0
M  V30 9946 C 945.594 -3.57357 -0.0552803 0
M  V30 9947 C 945.423 -4.31238 1.27529 0
M  V30 9948 C 944.193 -4.70272 1.84857 0
M  V30 9949 C 946.391 -4.64978 2.19773 0
M  V30 9950 N 944.373 -5.2889 3.11687 0
M  V30 9951 C 945.744 -5.24132 3.31189 0
M  V30 9952 C 947.799 -4.46908 2.19493 0
M  V30 9953 C 946.502 -5.67123 4.42452 0
M  V30 9954 C 948.528 -4.90914 3.29784 0
M  V30 9955 C 947.89 -5.50136 4.3992 0
M  V30 9956 H 943.989 -0.778937 0.0691416 0
M  V30 9957 H 946.573 -1.78754 0.771683 0
M  V30 9958 H 944.744 -3.81595 -0.723868 0
M  V30 9959 H 946.476 -4.00714 -0.566606 0
M  V30 9960 H 943.231 -4.5293 1.38388 0
M  V30 9961 H 943.655 -5.62723 3.76393 0
M  V30 9962 H 948.297 -4.00459 1.35617 0
M  V30 9963 H 946.015 -6.12552 5.27073 0
M  V30 9964 H 949.601 -4.78687 3.30682 0
M  V30 9965 H 948.481 -5.83564 5.23854 0
M  V30 9966 N 945.984 -0.3171 -1.54377 0
M  V30 9967 C 946.947 0.53905 -2.22771 0
M  V30 9968 C 947.947 1.04865 -1.21901 0
M  V30 9969 O 949.137 0.942108 -1.46526 0
M  V30 9970 C 946.269 1.74804 -2.92671 0
M  V30 9971 H 947.462 -0.0587417 -2.99842 0
M  V30 9972 H 945.015 -0.068107 -1.56152 0
M  V30 9973 H 945.75 2.38524 -2.1972 0
M  V30 9974 H 945.535 1.39011 -3.66631 0
M  V30 9975 H 947.025 2.35592 -3.44799 0
M  V30 9976 N 947.462 1.57535 -0.0451378 0
M  V30 9977 C 948.69 1.96761 0.639742 0
M  V30 9978 C 949.105 0.922405 1.64734 0
M  V30 9979 O 948.462 -0.0940535 1.82257 0
M  V30 9980 C 948.513 3.36066 1.33199 0
M  V30 9981 O 948.234 4.36579 0.364757 0
M  V30 9982 C 949.735 3.90015 2.1072 0
M  V30 9983 H 946.955 0.64769 0.175324 0
M  V30 9984 H 949.499 2.04206 -0.109651 0
M  V30 9985 H 947.654 3.2979 2.03266 0
M  V30 9986 H 948.068 5.17432 0.858168 0
M  V30 9987 H 949.542 4.89785 2.54586 0
M  V30 9988 H 950.019 3.25117 2.95288 0
M  V30 9989 H 950.625 3.99609 1.45577 0
M  V30 9990 N 948.94 -0.228186 1.55939 0
M  V30 9991 C 950.168 -0.970618 1.8272 0
M  V30 9992 C 950.583 -1.78212 0.623385 0
M  V30 9993 O 949.94 -1.77879 -0.408063 0
M  V30 9994 C 949.991 -1.89352 3.07942 0
M  V30 9995 O 949.712 -1.11483 4.23678 0
M  V30 9996 C 951.213 -2.75039 3.47661 0
M  V30 9997 H 948.433 -0.284772 0.607574 0
M  V30 9998 H 950.977 -0.245419 2.03022 0
M  V30 9999 H 949.132 -2.57275 2.89635 0
M  V30 10000 H 949.546 -1.74073 4.94772 0
M  V30 10001 H 951.02 -3.35511 4.38334 0
M  V30 10002 H 951.497 -3.471 2.69106 0
M  V30 10003 H 952.103 -2.1254 3.68384 0
M  V30 10004 N 950.418 -1.49637 -0.494624 0
M  V30 10005 C 951.366 -1.6727 -1.61627 0
M  V30 10006 C 952.36 -0.538587 -1.6061 0
M  V30 10007 O 953.566 -0.718411 -1.65042 0
M  V30 10008 H 949.941 -0.527557 -0.535899 0
M  V30 10009 H 951.912 -2.61405 -1.43909 0
M  V30 10010 C 950.661 -1.7624 -2.99725 0
M  V30 10011 H 949.984 -2.62886 -3.01216 0
M  V30 10012 H 951.424 -1.92611 -3.77726 0
M  V30 10013 C 949.883 -0.508632 -3.33038 0
M  V30 10014 O 950.413 0.362828 -4.00058 0
M  V30 10015 N 948.619 -0.369667 -2.88239 0
M  V30 10016 H 948.166 -1.07984 -2.33875 0
M  V30 10017 H 948.124 0.468112 -3.10896 0
M  V30 10018 N 951.896 0.746133 -1.38819 0
M  V30 10019 C 953.144 1.50247 -1.35167 0
M  V30 10020 C 953.465 1.94921 0.0553531 0
M  V30 10021 O 952.735 1.68187 1.00449 0
M  V30 10022 H 951.315 0.557337 -0.497377 0
M  V30 10023 H 953.977 0.886472 -1.73573 0
M  V30 10024 H 953.073 2.38986 -2.00728 0
M  V30 10025 N 953.375 1.23811 0.975125 0
M  V30 10026 C 954.621 1.08502 1.72043 0
M  V30 10027 C 954.976 -0.373437 1.88741 0
M  V30 10028 O 954.269 -1.27248 1.43243 0
M  V30 10029 C 954.463 1.74994 3.11628 0
M  V30 10030 C 954.292 3.27155 3.08544 0
M  V30 10031 C 953.062 3.96338 3.1344 0
M  V30 10032 C 955.26 4.23851 2.91299 0
M  V30 10033 N 953.242 5.35439 3.00297 0
M  V30 10034 C 954.613 5.499 2.86375 0
M  V30 10035 C 956.668 4.14519 2.75824 0
M  V30 10036 C 955.371 6.67687 2.67558 0
M  V30 10037 C 957.397 5.31975 2.58372 0
M  V30 10038 C 956.759 6.56953 2.5415 0
M  V30 10039 H 952.858 0.451607 0.638416 0
M  V30 10040 H 955.442 1.56617 1.15669 0
M  V30 10041 H 953.613 1.29404 3.66209 0
M  V30 10042 H 955.345 1.52614 3.74822 0
M  V30 10043 H 952.1 3.47453 3.21828 0
M  V30 10044 H 952.524 6.08381 2.96987 0
M  V30 10045 H 957.166 3.18662 2.77874 0
M  V30 10046 H 954.884 7.63673 2.64251 0
M  V30 10047 H 958.47 5.266 2.47354 0
M  V30 10048 H 957.35 7.46309 2.40817 0
M  V30 10049 N 954.853 -1.17469 1.05066 0
M  V30 10050 C 956.099 -1.88225 0.7709 0
M  V30 10051 C 956.454 -1.7943 -0.694452 0
M  V30 10052 O 955.747 -1.19059 -1.50118 0
M  V30 10053 C 955.941 -3.37211 1.18421 0
M  V30 10054 C 955.77 -3.60508 2.68819 0
M  V30 10055 C 954.54 -3.77303 3.36111 0
M  V30 10056 C 956.738 -3.60258 3.6704 0
M  V30 10057 N 954.72 -3.88433 4.75387 0
M  V30 10058 C 956.091 -3.77223 4.92039 0
M  V30 10059 C 958.146 -3.43401 3.60527 0
M  V30 10060 C 956.849 -3.79075 6.11305 0
M  V30 10061 C 958.875 -3.46541 4.79232 0
M  V30 10062 C 958.237 -3.64013 6.03054 0
M  V30 10063 H 954.336 -0.706941 0.334303 0
M  V30 10064 H 956.92 -1.41029 1.34235 0
M  V30 10065 H 955.091 -3.83079 0.640724 0
M  V30 10066 H 956.823 -3.95578 0.854411 0
M  V30 10067 H 953.578 -3.77105 2.86512 0
M  V30 10068 H 954.002 -3.97797 5.47802 0
M  V30 10069 H 958.644 -3.28831 2.65762 0
M  V30 10070 H 956.362 -3.92431 7.06416 0
M  V30 10071 H 959.948 -3.34758 4.75845 0
M  V30 10072 H 958.828 -3.66345 6.93369 0
M  V30 10073 N 956.331 -0.831506 -1.3388 0
M  V30 10074 C 957.561 -0.436292 -2.01941 0
M  V30 10075 C 957.969 0.964979 -1.62741 0
M  V30 10076 O 957.312 1.63733 -0.832894 0
M  V30 10077 C 957.374 -0.468811 -3.5643 0
M  V30 10078 C 957.038 -1.82491 -4.18982 0
M  V30 10079 C 958.035 -2.78705 -4.38885 0
M  V30 10080 C 955.72 -2.11574 -4.55568 0
M  V30 10081 C 957.714 -4.02168 -4.94509 0
M  V30 10082 C 955.401 -3.35296 -5.10901 0
M  V30 10083 C 956.399 -4.3041 -5.30317 0
M  V30 10084 O 956.087 -5.51944 -5.84477 0
M  V30 10085 H 955.819 -0.172335 -0.653664 0
M  V30 10086 H 958.373 -1.12354 -1.71947 0
M  V30 10087 H 956.603 0.275179 -3.8572 0
M  V30 10088 H 958.292 -0.0924518 -4.05795 0
M  V30 10089 H 959.058 -2.57534 -4.10976 0
M  V30 10090 H 954.937 -1.38338 -4.39754 0
M  V30 10091 H 958.481 -4.76418 -5.09579 0
M  V30 10092 H 954.378 -3.56326 -5.3824 0
M  V30 10093 H 955.146 -5.53582 -6.029 0
M  V30 10094 N 957.809 1.4625 -0.587256 0
M  V30 10095 C 959.055 2.02662 -0.0746851 0
M  V30 10096 C 959.388 1.45723 1.28368 0
M  V30 10097 O 958.663 0.624062 1.84216 0
M  V30 10098 C 958.946 3.60097 -0.0138109 0
M  V30 10099 C 958.799 4.27412 -1.4014 0
M  V30 10100 C 960.118 4.34744 0.684491 0
M  V30 10101 H 957.237 0.736444 -0.0286144 0
M  V30 10102 H 959.879 1.74341 -0.755328 0
M  V30 10103 H 958.029 3.84357 0.56583 0
M  V30 10104 H 959.701 4.14401 -2.02656 0
M  V30 10105 H 957.944 3.86598 -1.96785 0
M  V30 10106 H 958.615 5.362 -1.31124 0
M  V30 10107 H 961.091 4.15657 0.192023 0
M  V30 10108 H 959.967 5.44468 0.696127 0
M  V30 10109 H 960.228 4.06132 1.74669 0
M  V30 10110 N 959.287 0.325282 1.54207 0
M  V30 10111 C 960.512 -0.281418 2.05482 0
M  V30 10112 C 960.937 -1.44869 1.19977 0
M  V30 10113 O 960.295 -1.80088 0.209275 0
M  V30 10114 C 960.343 -0.692029 3.53897 0
M  V30 10115 O 959.447 -1.7942 3.71325 0
M  V30 10116 H 958.788 -0.0504872 0.662078 0
M  V30 10117 H 961.318 0.474191 1.99029 0
M  V30 10118 H 961.328 -0.974219 3.96198 0
M  V30 10119 H 960.003 0.161709 4.15586 0
M  V30 10120 H 958.58 -1.51069 3.40929 0
M  V30 10121 N 960.765 -1.57509 0.0534917 0
M  V30 10122 C 961.99 -1.97511 -0.632794 0
M  V30 10123 C 962.415 -0.930947 -1.63447 0
M  V30 10124 O 961.773 0.105558 -1.80992 0
M  V30 10125 C 961.821 -3.3658 -1.29407 0
M  V30 10126 O 960.925 -3.3467 -2.40977 0
M  V30 10127 H 960.266 -0.643349 -0.16431 0
M  V30 10128 H 962.796 -2.04232 0.12258 0
M  V30 10129 H 962.806 -3.73359 -1.64521 0
M  V30 10130 H 961.481 -4.12113 -0.559976 0
M  V30 10131 H 960.058 -3.09639 -2.07793 0
M  V30 10132 N 962.243 0.219913 -1.56058 0
M  V30 10133 C 963.473 0.959521 -1.82967 0
M  V30 10134 C 963.881 1.78382 -0.630602 0
M  V30 10135 O 963.224 1.79062 0.410203 0
M  V30 10136 C 963.286 1.92481 -3.0363 0
M  V30 10137 C 962.95 1.28487 -4.38566 0
M  V30 10138 C 963.947 0.673946 -5.15513 0
M  V30 10139 C 961.632 1.29615 -4.85289 0
M  V30 10140 C 963.626 0.0828324 -6.37346 0
M  V30 10141 C 961.313 0.701191 -6.07064 0
M  V30 10142 C 962.311 0.0955877 -6.82933 0
M  V30 10143 O 961.999 -0.490109 -8.02405 0
M  V30 10144 H 961.731 0.286709 -0.612188 0
M  V30 10145 H 964.285 0.239761 -2.03996 0
M  V30 10146 H 962.515 2.6836 -2.78424 0
M  V30 10147 H 964.204 2.5301 -3.17397 0
M  V30 10148 H 964.97 0.657548 -4.80522 0
M  V30 10149 H 960.849 1.75691 -4.26208 0
M  V30 10150 H 964.393 -0.390482 -6.96506 0
M  V30 10151 H 960.29 0.715007 -6.41528 0
M  V30 10152 H 961.058 -0.384588 -8.17596 0
M  V30 10153 N 963.721 1.49897 0.486681 0
M  V30 10154 C 964.969 1.59789 1.23742 0
M  V30 10155 C 965.29 0.293056 1.92785 0
M  V30 10156 O 964.56 -0.688534 1.83401 0
M  V30 10157 H 963.14 0.588775 0.459731 0
M  V30 10158 H 965.802 1.86597 0.562808 0
M  V30 10159 H 964.898 2.40121 1.9937 0
M  V30 10160 N 965.199 -0.738761 1.39212 0
M  V30 10161 C 966.445 -1.50046 1.36433 0
M  V30 10162 C 966.778 -1.94157 -0.0409474 0
M  V30 10163 O 966.053 -1.66515 -1.00514 0
M  V30 10164 C 966.336 -2.74277 2.33333 0
M  V30 10165 C 966.189 -2.36209 3.82786 0
M  V30 10166 C 967.508 -3.76361 2.28123 0
M  V30 10167 H 964.627 -0.544294 0.496903 0
M  V30 10168 H 967.269 -0.845005 1.70175 0
M  V30 10169 H 965.419 -3.30204 2.04689 0
M  V30 10170 H 967.091 -1.85942 4.22165 0
M  V30 10171 H 965.334 -1.68483 3.99745 0
M  V30 10172 H 966.005 -3.25156 4.46069 0
M  V30 10173 H 968.481 -3.30009 2.53443 0
M  V30 10174 H 967.357 -4.60957 2.9801 0
M  V30 10175 H 967.618 -4.23013 1.28499 0
M  V30 10176 N 966.677 -1.24326 -0.968545 0
M  V30 10177 C 968.088 -1.07561 -1.52603 0
M  V30 10178 C 968.439 0.353245 -1.92994 0
M  V30 10179 O 967.564 1.24151 -1.77244 0
M  V30 10180 C 968.159 -1.94634 -2.77314 0
M  V30 10181 C 966.718 -1.82095 -3.29421 0
M  V30 10182 C 965.865 -1.8962 -2.02335 0
M  V30 10183 H 968.816 -1.37815 -0.786932 0
M  V30 10184 H 968.837 -1.47812 -3.50616 0
M  V30 10185 H 968.349 -2.98621 -2.47885 0
M  V30 10186 H 966.45 -0.809376 -3.63703 0
M  V30 10187 H 966.563 -2.66142 -3.98378 0
M  V30 10188 H 964.927 -1.33339 -2.17009 0
M  V30 10189 H 965.71 -2.95185 -1.75273 0
M  V30 10190 N 968.156 1.1691 -1.05688 0
M  V30 10191 C 969.403 1.87292 -0.76993 0
M  V30 10192 C 969.731 1.81339 0.703295 0
M  V30 10193 O 968.986 1.21959 1.5305 0
M  V30 10194 C 969.285 3.36578 -1.20207 0
M  V30 10195 C 968.951 3.62732 -2.67836 0
M  V30 10196 C 967.613 3.69579 -3.08163 0
M  V30 10197 C 969.965 3.73803 -3.63209 0
M  V30 10198 C 967.293 3.84992 -4.42717 0
M  V30 10199 C 969.645 3.90735 -4.97503 0
M  V30 10200 C 968.309 3.95823 -5.37476 0
M  V30 10201 H 967.579 0.68535 -0.281737 0
M  V30 10202 H 970.226 1.38274 -1.32486 0
M  V30 10203 H 968.531 3.87687 -0.566222 0
M  V30 10204 H 970.228 3.89409 -0.957183 0
M  V30 10205 H 966.818 3.58031 -2.35609 0
M  V30 10206 H 971.002 3.67829 -3.3319 0
M  V30 10207 H 966.258 3.87181 -4.73182 0
M  V30 10208 H 970.432 3.98243 -5.71293 0
M  V30 10209 H 968.059 4.07518 -6.41742 0
M  V30 10210 N 969.634 0.838594 1.33437 0
M  V30 10211 C 970.582 0.260158 2.31141 0
M  V30 10212 C 971.576 -0.607706 1.58124 0
M  V30 10213 O 972.782 -0.497298 1.72994 0
M  V30 10214 H 969.157 0.0654031 0.74915 0
M  V30 10215 H 971.128 1.09874 2.77435 0
M  V30 10216 C 969.877 -0.550234 3.43319 0
M  V30 10217 H 969.2 0.108262 3.99653 0
M  V30 10218 H 970.64 -0.920815 4.1388 0
M  V30 10219 C 969.099 -1.729 2.89149 0
M  V30 10220 O 969.629 -2.82769 2.85315 0
M  V30 10221 N 967.835 -1.5508 2.45761 0
M  V30 10222 H 967.382 -0.657055 2.49079 0
M  V30 10223 H 967.34 -2.34099 2.0987 0
M  V30 10224 N 971.112 -1.45937 0.595003 0
M  V30 10225 C 972.337 -2.07207 0.0894416 0
M  V30 10226 C 972.762 -1.43884 -1.21157 0
M  V30 10227 O 972.12 -0.526998 -1.73472 0
M  V30 10228 C 972.168 -3.60565 -0.0499828 0
M  V30 10229 O 971.272 -3.97364 -1.10342 0
M  V30 10230 H 970.613 -0.660471 0.0683627 0
M  V30 10231 H 973.143 -1.87386 0.82144 0
M  V30 10232 H 973.153 -4.0722 -0.252234 0
M  V30 10233 H 971.828 -4.06044 0.90006 0
M  V30 10234 H 970.405 -3.62401 -0.878645 0
M  V30 10235 N 972.59 -0.333456 -1.54032 0
M  V30 10236 C 973.553 0.515392 -2.2333 0
M  V30 10237 C 974.553 1.03566 -1.23007 0
M  V30 10238 O 975.743 0.926514 -1.47517 0
M  V30 10239 C 972.875 1.7169 -2.94508 0
M  V30 10240 H 974.068 -0.0905407 -2.99763 0
M  V30 10241 H 971.621 -0.0846651 -1.56071 0
M  V30 10242 H 972.356 2.3618 -2.22237 0
M  V30 10243 H 972.141 1.35115 -3.68085 0
M  V30 10244 H 973.631 2.31922 -3.47278 0
M  V30 10245 N 974.068 1.57479 -0.061844 0
M  V30 10246 C 975.001 2.07734 0.94455 0
M  V30 10247 C 975.979 0.980207 1.29733 0
M  V30 10248 O 977.163 1.2529 1.40836 0
M  V30 10249 C 974.29 2.52673 2.25553 0
M  V30 10250 C 973.336 3.73725 2.05503 0
M  V30 10251 S 974.169 5.18886 1.32354 0
M  V30 10252 C 975.325 5.67148 2.64753 0
M  V30 10253 H 975.558 2.92772 0.516888 0
M  V30 10254 H 973.091 1.53663 0.150684 0
M  V30 10255 H 975.049 2.79226 3.00904 0
M  V30 10256 H 973.71 1.67921 2.65445 0
M  V30 10257 H 972.903 4.03125 3.025 0
M  V30 10258 H 972.505 3.47494 1.3829 0
M  V30 10259 H 974.797 5.73385 3.60882 0
M  V30 10260 H 975.74 6.66196 2.39976 0
M  V30 10261 H 976.148 4.94921 2.71502 0
M  V30 10262 N 975.546 -0.211634 1.56173 0
M  V30 10263 C 976.957 -0.777776 1.69728 0
M  V30 10264 C 977.308 -1.84566 0.66558 0
M  V30 10265 O 976.433 -2.15639 -0.181338 0
M  V30 10266 C 977.028 -1.41757 3.07718 0
M  V30 10267 C 975.587 -1.93098 3.23094 0
M  V30 10268 C 974.734 -0.794785 2.65666 0
M  V30 10269 H 977.685 0.0131839 1.58695 0
M  V30 10270 H 977.706 -2.28662 3.04128 0
M  V30 10271 H 977.218 -0.640114 3.82785 0
M  V30 10272 H 975.319 -2.73615 2.52914 0
M  V30 10273 H 975.432 -2.10414 4.30422 0
M  V30 10274 H 973.796 -1.20473 2.24407 0
M  V30 10275 H 974.579 -0.0298408 3.43287 0
M  V30 10276 N 977.024 -1.50153 -0.478725 0
M  V30 10277 C 977.971 -1.68458 -1.57767 0
M  V30 10278 C 978.941 -0.5259 -1.57555 0
M  V30 10279 O 980.126 -0.755574 -1.75202 0
M  V30 10280 C 977.266 -1.77772 -2.95789 0
M  V30 10281 C 976.379 -3.05092 -3.05848 0
M  V30 10282 C 975.514 -3.05247 -4.34739 0
M  V30 10283 C 974.553 -4.27053 -4.38512 0
M  V30 10284 N 973.69 -4.24991 -5.58862 0
M  V30 10285 H 978.53 -2.62282 -1.41464 0
M  V30 10286 H 976.067 -1.30023 -0.687921 0
M  V30 10287 H 978.025 -1.81152 -3.75819 0
M  V30 10288 H 976.655 -0.873944 -3.10744 0
M  V30 10289 H 975.707 -3.11219 -2.1874 0
M  V30 10290 H 977.019 -3.95075 -3.04495 0
M  V30 10291 H 976.173 -3.07314 -5.23109 0
M  V30 10292 H 974.912 -2.13081 -4.38689 0
M  V30 10293 H 973.917 -4.25206 -3.4854 0
M  V30 10294 H 975.142 -5.20437 -4.36259 0
M  V30 10295 H 973.088 -3.35674 -5.63612 0
M  V30 10296 H 973.005 -5.08734 -5.59219 0
M  V30 10297 H 974.273 -4.31193 -6.49379 0
M  V30 10298 N 978.502 0.731368 -1.39602 0
M  V30 10299 C 979.751 1.48647 -1.36334 0
M  V30 10300 C 980.064 1.95565 0.0367383 0
M  V30 10301 O 981.27 2.7082 0.192017 0
M  V30 10302 C 979.726 2.68616 -2.39528 0
M  V30 10303 C 979.334 2.28632 -3.85268 0
M  V30 10304 C 981.078 3.46422 -2.45341 0
M  V30 10305 C 978.985 3.45345 -4.80095 0
M  V30 10306 H 977.915 0.558218 -0.506861 0
M  V30 10307 H 980.566 0.797467 -1.65266 0
M  V30 10308 H 978.948 3.39609 -2.03671 0
M  V30 10309 H 980.122 1.65162 -4.30184 0
M  V30 10310 H 978.437 1.63909 -3.82783 0
M  V30 10311 H 981.034 4.33241 -3.13379 0
M  V30 10312 H 981.377 3.8914 -1.47904 0
M  V30 10313 H 981.91 2.82461 -2.80108 0
M  V30 10314 H 978.649 3.07674 -5.78807 0
M  V30 10315 H 978.169 4.07784 -4.39855 0
M  V30 10316 H 979.848 4.1163 -4.99169 0
M  V30 10317 N 979.98 1.24838 0.961938 0
M  V30 10318 C 981.257 0.99939 1.68141 0
M  V30 10319 C 981.637 -0.476588 2.0565 0
M  V30 10320 O 980.985 -1.45224 1.76415 0
M  V30 10321 C 981.195 1.92797 2.90913 0
M  V30 10322 C 982.543 2.20219 3.63027 0
M  V30 10323 O 983.567 1.90496 3.00981 0
M  V30 10324 O 982.426 2.70725 4.74731 0
M  V30 10325 H 979.52 0.37842 0.735342 0
M  V30 10326 H 982.066 1.35961 1.01551 0
M  V30 10327 H 980.838 2.92492 2.59931 0
M  V30 10328 H 980.461 1.57127 3.65235 0
M  V30 10329 N 981.458 -1.16348 1.06306 0
M  V30 10330 C 982.706 -1.86512 0.778311 0
M  V30 10331 C 983.027 -1.82107 -0.697273 0
M  V30 10332 O 982.297 -1.2547 -1.50446 0
M  V30 10333 H 980.877 -0.690529 0.284919 0
M  V30 10334 H 983.539 -1.41092 1.34458 0
M  V30 10335 H 982.635 -2.91947 1.10333 0
M  V30 10336 N 982.937 -0.845659 -1.3299 0
M  V30 10337 C 984.186 -0.440928 -1.96822 0
M  V30 10338 C 984.499 1.00668 -1.67706 0
M  V30 10339 O 985.705 1.51641 -2.25205 0
M  V30 10340 C 984.161 -0.73752 -3.52262 0
M  V30 10341 C 983.769 -2.20026 -3.90247 0
M  V30 10342 C 985.513 -0.400072 -4.22611 0
M  V30 10343 C 983.42 -2.44054 -5.38694 0
M  V30 10344 H 982.35 -0.161148 -0.736578 0
M  V30 10345 H 985.001 -1.03519 -1.51513 0
M  V30 10346 H 983.383 -0.0728025 -3.95933 0
M  V30 10347 H 984.557 -2.90602 -3.57613 0
M  V30 10348 H 982.872 -2.50135 -3.32899 0
M  V30 10349 H 985.469 -0.557136 -5.3179 0
M  V30 10350 H 985.812 0.657547 -4.11074 0
M  V30 10351 H 986.345 -1.0203 -3.84493 0
M  V30 10352 H 983.084 -3.48407 -5.55241 0
M  V30 10353 H 982.604 -1.78047 -5.72765 0
M  V30 10354 H 984.283 -2.27549 -6.05665 0
M  V30 10355 N 984.415 1.45619 -0.602734 0
M  V30 10356 C 985.643 2.06647 -0.102253 0
M  V30 10357 C 986.058 1.4482 1.21131 0
M  V30 10358 O 985.415 0.560621 1.73676 0
M  V30 10359 C 985.466 3.61467 0.0490113 0
M  V30 10360 O 985.187 4.20985 -1.21257 0
M  V30 10361 C 986.688 4.39469 0.581517 0
M  V30 10362 H 983.908 0.667685 -0.0666155 0
M  V30 10363 H 986.452 1.86939 -0.829091 0
M  V30 10364 H 984.607 3.80534 0.726153 0
M  V30 10365 H 985.021 5.14103 -1.03915 0
M  V30 10366 H 986.495 5.48318 0.636462 0
M  V30 10367 H 986.972 4.0891 1.60277 0
M  V30 10368 H 987.578 4.25256 -0.061419 0
M  V30 10369 N 985.893 0.34162 1.53853 0
M  V30 10370 C 987.139 -0.255862 2.01179 0
M  V30 10371 C 987.472 -1.50356 1.22909 0
M  V30 10372 O 986.747 -1.91913 0.316198 0
M  V30 10373 C 987.03 -0.571934 3.55529 0
M  V30 10374 C 986.883 0.687727 4.44511 0
M  V30 10375 C 988.202 -1.38233 4.17827 0
M  V30 10376 H 985.321 -0.091521 0.731295 0
M  V30 10377 H 987.963 0.461775 1.84303 0
M  V30 10378 H 986.113 -1.18331 3.70041 0
M  V30 10379 H 987.785 1.32572 4.4184 0
M  V30 10380 H 986.028 1.313 4.13452 0
M  V30 10381 H 986.699 0.421858 5.50386 0
M  V30 10382 H 989.175 -0.865374 4.07002 0
M  V30 10383 H 988.051 -1.57223 5.25901 0
M  V30 10384 H 988.312 -2.38386 3.72323 0
M  V30 10385 N 987.371 -1.57444 0.0701946 0
M  V30 10386 C 988.596 -1.98171 -0.61181 0
M  V30 10387 C 989.021 -0.94823 -1.62451 0
M  V30 10388 O 988.379 0.0863553 -1.81094 0
M  V30 10389 C 988.427 -3.37934 -1.2583 0
M  V30 10390 O 987.531 -3.37207 -2.37414 0
M  V30 10391 H 986.872 -0.645056 -0.157477 0
M  V30 10392 H 989.402 -2.04091 0.144235 0
M  V30 10393 H 989.412 -3.75083 -1.60552 0
M  V30 10394 H 988.087 -4.12684 -0.516234 0
M  V30 10395 H 986.664 -3.11826 -2.04497 0
M  V30 10396 N 988.849 0.203349 -1.56283 0
M  V30 10397 C 990.077 0.941426 -1.84241 0
M  V30 10398 C 990.492 1.77197 -0.651658 0
M  V30 10399 O 989.849 1.78506 0.379713 0
M  V30 10400 C 989.9 1.84429 -3.10915 0
M  V30 10401 O 989.621 1.04729 -4.25398 0
M  V30 10402 C 991.122 2.69474 -3.51993 0
M  V30 10403 H 988.342 0.27507 -0.612027 0
M  V30 10404 H 990.886 0.213088 -2.03387 0
M  V30 10405 H 989.041 2.52635 -2.93691 0
M  V30 10406 H 989.455 1.66179 -4.97478 0
M  V30 10407 H 990.929 3.28495 -4.43616 0
M  V30 10408 H 991.406 3.42775 -2.74594 0
M  V30 10409 H 992.012 2.06652 -3.71719 0
M  V30 10410 N 990.327 1.50405 0.470755 0
M  V30 10411 C 991.576 1.60652 1.21959 0
M  V30 10412 C 991.889 0.312521 1.93087 0
M  V30 10413 O 993.095 0.293901 2.69905 0
M  V30 10414 C 991.551 2.83581 2.21607 0
M  V30 10415 C 991.159 4.19858 1.5628 0
M  V30 10416 C 992.903 3.03173 2.9713 0
M  V30 10417 C 990.81 5.33974 2.54217 0
M  V30 10418 H 989.74 0.598264 0.458907 0
M  V30 10419 H 992.391 1.76836 0.490041 0
M  V30 10420 H 990.773 2.60957 2.97855 0
M  V30 10421 H 991.947 4.52738 0.85819 0
M  V30 10422 H 990.262 4.05873 0.930366 0
M  V30 10423 H 992.859 3.856 3.70428 0
M  V30 10424 H 993.202 2.14914 3.56536 0
M  V30 10425 H 993.735 3.2598 2.27995 0
M  V30 10426 H 990.474 6.24388 1.99549 0
M  V30 10427 H 989.994 5.05511 3.22829 0
M  V30 10428 H 991.673 5.64561 3.16039 0
M  V30 10429 N 991.805 -0.723954 1.39988 0
M  V30 10430 C 993.052 -1.48371 1.37812 0
M  V30 10431 C 993.38 -1.94487 -0.0223285 0
M  V30 10432 O 992.635 -1.67906 -1.00529 0
M  V30 10433 C 992.934 -2.73004 2.30659 0
M  V30 10434 C 992.6 -2.45698 3.78078 0
M  V30 10435 C 991.262 -2.37961 4.18244 0
M  V30 10436 C 993.614 -2.22601 4.71273 0
M  V30 10437 C 990.942 -2.05183 5.49652 0
M  V30 10438 C 993.294 -1.91339 6.0297 0
M  V30 10439 C 991.958 -1.82078 6.42187 0
M  V30 10440 H 991.228 -0.542929 0.504291 0
M  V30 10441 H 993.875 -0.829986 1.72579 0
M  V30 10442 H 992.18 -3.43174 1.89048 0
M  V30 10443 H 993.877 -3.31068 2.26263 0
M  V30 10444 H 990.467 -2.52603 3.46251 0
M  V30 10445 H 994.651 -2.2754 4.41066 0
M  V30 10446 H 989.907 -1.96544 5.78948 0
M  V30 10447 H 994.081 -1.72479 6.74703 0
M  V30 10448 H 991.708 -1.56446 7.43928 0
M  V30 10449 N 993.283 -1.25346 -0.955304 0
M  V30 10450 C 994.53 -1.10055 -1.69983 0
M  V30 10451 C 994.858 0.358586 -1.91166 0
M  V30 10452 O 994.113 1.28071 -1.47974 0
M  V30 10453 C 994.412 -1.7993 -3.08804 0
M  V30 10454 C 994.078 -3.29851 -3.07424 0
M  V30 10455 C 992.74 -3.7075 -3.06754 0
M  V30 10456 C 995.092 -4.25636 -3.00805 0
M  V30 10457 C 992.42 -5.05847 -2.97214 0
M  V30 10458 C 994.772 -5.60756 -2.92806 0
M  V30 10459 C 993.436 -6.00984 -2.90472 0
M  V30 10460 H 992.706 -0.402718 -0.622012 0
M  V30 10461 H 995.353 -1.5561 -1.11614 0
M  V30 10462 H 993.658 -1.26803 -3.70713 0
M  V30 10463 H 995.355 -1.65551 -3.65231 0
M  V30 10464 H 991.945 -2.97308 -3.08716 0
M  V30 10465 H 996.129 -3.9503 -3.00441 0
M  V30 10466 H 991.385 -5.36196 -2.93775 0
M  V30 10467 H 995.559 -6.34671 -2.86645 0
M  V30 10468 H 993.186 -7.05626 -2.82835 0
M  V30 10469 N 994.761 1.15782 -1.06922 0
M  V30 10470 C 995.724 2.18578 -0.689654 0
M  V30 10471 C 996.724 1.58553 0.267872 0
M  V30 10472 O 997.914 1.7413 0.0494097 0
M  V30 10473 C 995.046 3.40896 -0.0157919 0
M  V30 10474 H 996.239 2.53672 -1.59971 0
M  V30 10475 H 993.792 1.30168 -0.865214 0
M  V30 10476 H 994.527 3.11367 0.906712 0
M  V30 10477 H 994.312 3.85721 -0.704415 0
M  V30 10478 H 995.802 4.16937 0.235266 0
M  V30 10479 N 996.239 0.8527 1.3254 0
M  V30 10480 C 997.169 0.311234 2.31416 0
M  V30 10481 C 998.15 -0.588557 1.59593 0
M  V30 10482 O 999.335 -0.509211 1.87405 0
M  V30 10483 C 996.465 -0.502892 3.4364 0
M  V30 10484 C 995.419 0.302296 4.26931 0
M  V30 10485 C 994.745 -0.636445 5.30899 0
M  V30 10486 C 996.045 1.52697 4.99481 0
M  V30 10487 H 997.739 1.13742 2.76953 0
M  V30 10488 H 995.285 0.548389 1.33149 0
M  V30 10489 H 997.238 -0.892092 4.11849 0
M  V30 10490 H 995.962 -1.36242 2.96826 0
M  V30 10491 H 994.621 0.673226 3.60365 0
M  V30 10492 H 994.269 -1.49277 4.80339 0
M  V30 10493 H 993.969 -0.101716 5.87512 0
M  V30 10494 H 995.493 -1.02286 6.01972 0
M  V30 10495 H 996.907 1.21017 5.60382 0
M  V30 10496 H 995.304 1.9995 5.65809 0
M  V30 10497 H 996.374 2.28929 4.27457 0
M  V30 10498 N 997.718 -1.45297 0.610449 0
M  V30 10499 C 998.965 -2.02218 0.106759 0
M  V30 10500 C 999.293 -1.47849 -1.26376 0
M  V30 10501 O 998.548 -0.644402 -1.84786 0
M  V30 10502 C 998.847 -3.57394 0.0205329 0
M  V30 10503 C 998.513 -4.30928 1.32709 0
M  V30 10504 C 997.175 -4.50735 1.68498 0
M  V30 10505 C 999.527 -4.72936 2.19046 0
M  V30 10506 C 996.855 -5.09806 2.90371 0
M  V30 10507 C 999.207 -5.33355 3.40169 0
M  V30 10508 C 997.871 -5.51384 3.76207 0
M  V30 10509 H 997.141 -0.739969 0.039066 0
M  V30 10510 H 999.788 -1.74326 0.792638 0
M  V30 10511 H 998.093 -3.84581 -0.748623 0
M  V30 10512 H 999.79 -3.99144 -0.385386 0
M  V30 10513 H 996.38 -4.15827 1.03854 0
M  V30 10514 H 1000.56 -4.57365 1.92695 0
M  V30 10515 H 995.82 -5.21953 3.18395 0
M  V30 10516 H 999.994 -5.64859 4.07318 0
M  V30 10517 H 997.621 -5.96924 4.70729 0
M  V30 10518 N 999.196 -0.349774 -1.5367 0
M  V30 10519 C 1000.16 0.491676 -2.23864 0
M  V30 10520 C 1001.16 1.02256 -1.24098 0
M  V30 10521 O 1002.35 0.910816 -1.48492 0
M  V30 10522 C 999.481 1.68557 -2.96313 0
M  V30 10523 H 1000.67 -0.12233 -2.9965 0
M  V30 10524 H 998.227 -0.101214 -1.55972 0
M  V30 10525 H 998.962 2.3381 -2.2473 0
M  V30 10526 H 998.747 1.31203 -3.69497 0
M  V30 10527 H 1000.24 2.28225 -3.49718 0
M  V30 10528 N 1000.67 1.57404 -0.0785433 0
M  V30 10529 C 1001.92 1.9292 0.588626 0
M  V30 10530 C 1002.24 0.961106 1.70359 0
M  V30 10531 O 1003.44 1.20934 2.43079 0
M  V30 10532 C 1001.9 3.42729 1.09839 0
M  V30 10533 C 1001.51 4.47998 0.0140773 0
M  V30 10534 C 1003.25 3.87235 1.73924 0
M  V30 10535 C 1001.16 5.88945 0.538269 0
M  V30 10536 H 1000.09 0.720069 0.223645 0
M  V30 10537 H 1002.74 1.8287 -0.15187 0
M  V30 10538 H 1001.12 3.47875 1.89207 0
M  V30 10539 H 1002.29 4.54476 -0.760773 0
M  V30 10540 H 1000.61 4.13001 -0.53095 0
M  V30 10541 H 1003.21 4.89927 2.14186 0
M  V30 10542 H 1003.55 3.24971 2.60191 0
M  V30 10543 H 1004.08 3.84721 1.01168 0
M  V30 10544 H 1000.82 6.5487 -0.287395 0
M  V30 10545 H 1000.34 5.85972 1.28049 0
M  V30 10546 H 1002.02 6.39028 1.01253 0
M  V30 10547 N 1002.15 -0.195058 1.56388 0
M  V30 10548 C 1003.11 -1.2254 1.93692 0
M  V30 10549 C 1004.11 -1.38437 0.81804 0
M  V30 10550 O 1005.3 -1.36248 1.08545 0
M  V30 10551 C 1002.44 -2.59476 2.21099 0
M  V30 10552 H 1003.63 -0.906544 2.8587 0
M  V30 10553 H 1001.18 -0.436577 1.50079 0
M  V30 10554 H 1001.92 -2.96417 1.31558 0
M  V30 10555 H 1001.7 -2.4931 3.02634 0
M  V30 10556 H 1003.19 -3.33777 2.50964 0
M  V30 10557 N 1003.63 -1.50653 -0.462772 0
M  V30 10558 C 1004.59 -1.69561 -1.54213 0
M  V30 10559 C 1005.59 -0.566106 -1.50505 0
M  V30 10560 O 1006.78 -0.833273 -1.52978 0
M  V30 10561 C 1003.91 -1.72856 -2.93826 0
M  V30 10562 H 1005.11 -2.65867 -1.38761 0
M  V30 10563 H 1002.66 -1.40259 -0.689728 0
M  V30 10564 H 1003.4 -0.78273 -3.14712 0
M  V30 10565 H 1003.18 -2.54919 -2.97924 0
M  V30 10566 H 1004.67 -1.89411 -3.72174 0
M  V30 10567 N 1005.11 0.71652 -1.4037 0
M  V30 10568 C 1006.36 1.47347 -1.38324 0
M  V30 10569 C 1006.68 1.94995 0.0139949 0
M  V30 10570 O 1005.95 1.7028 0.968585 0
M  V30 10571 H 1004.53 0.546662 -0.509087 0
M  V30 10572 H 1007.19 0.849455 -1.75415 0
M  V30 10573 H 1006.29 2.34675 -2.05752 0
M  V30 10574 N 1006.59 1.25851 0.948643 0
M  V30 10575 C 1007.82 1.13546 1.726 0
M  V30 10576 C 1008.22 -0.312857 1.86595 0
M  V30 10577 O 1007.57 -1.22657 1.36751 0
M  V30 10578 C 1007.63 1.72315 3.15512 0
M  V30 10579 C 1007.29 3.2136 3.24926 0
M  V30 10580 C 1008.29 4.18274 3.08777 0
M  V30 10581 C 1005.98 3.61683 3.48555 0
M  V30 10582 C 1007.97 5.53491 3.16112 0
M  V30 10583 C 1005.66 4.97035 3.55526 0
M  V30 10584 C 1006.65 5.92749 3.3932 0
M  V30 10585 O 1006.34 7.25637 3.45985 0
M  V30 10586 H 1006.07 0.396555 0.547467 0
M  V30 10587 H 1008.63 1.66822 1.19832 0
M  V30 10588 H 1006.86 1.13494 3.6967 0
M  V30 10589 H 1008.55 1.55024 3.7513 0
M  V30 10590 H 1009.31 3.88461 2.90385 0
M  V30 10591 H 1005.19 2.87674 3.60229 0
M  V30 10592 H 1008.74 6.28177 3.0338 0
M  V30 10593 H 1004.63 5.26512 3.73437 0
M  V30 10594 H 1005.4 7.33812 3.62577 0
M  V30 10595 N 1008.06 -1.15214 1.07534 0
M  V30 10596 C 1009.03 -2.18209 0.701237 0
M  V30 10597 C 1010.03 -1.58693 -0.25946 0
M  V30 10598 O 1011.22 -1.74154 -0.0401744 0
M  V30 10599 C 1008.35 -3.40883 0.0338703 0
M  V30 10600 H 1009.54 -2.5282 1.61314 0
M  V30 10601 H 1007.1 -1.29707 0.872105 0
M  V30 10602 H 1007.83 -3.11843 -0.890187 0
M  V30 10603 H 1007.62 -3.85342 0.72486 0
M  V30 10604 H 1009.11 -4.17056 -0.213152 0
M  V30 10605 N 1009.54 -0.859717 -1.32086 0
M  V30 10606 C 1010.51 -0.313005 -2.27053 0
M  V30 10607 C 1011.51 0.530191 -1.51808 0
M  V30 10608 O 1012.7 0.340972 -1.7083 0
M  V30 10609 C 1009.83 0.5566 -3.36325 0
M  V30 10610 H 1011.02 -1.15125 -2.76923 0
M  V30 10611 H 1008.57 -0.634463 -1.42843 0
M  V30 10612 H 1009.31 1.41645 -2.91731 0
M  V30 10613 H 1009.09 -0.0470197 -3.92072 0
M  V30 10614 H 1010.58 0.931725 -4.07073 0
M  V30 10615 N 1011.02 1.44971 -0.618145 0
M  V30 10616 C 1012.27 2.03009 -0.126125 0
M  V30 10617 C 1012.62 1.47656 1.23351 0
M  V30 10618 O 1011.91 0.645901 1.80385 0
M  V30 10619 C 1012.11 3.57378 -0.0394861 0
M  V30 10620 C 1011.94 4.27706 -1.38918 0
M  V30 10621 C 1010.71 4.65206 -1.97261 0
M  V30 10622 C 1012.91 4.58987 -2.32024 0
M  V30 10623 N 1010.89 5.2044 -3.256 0
M  V30 10624 C 1012.26 5.15167 -3.44969 0
M  V30 10625 C 1014.31 4.40932 -2.31265 0
M  V30 10626 C 1013.02 5.55193 -4.57333 0
M  V30 10627 C 1015.04 4.81997 -3.42684 0
M  V30 10628 C 1014.4 5.38279 -4.54352 0
M  V30 10629 H 1010.5 0.77683 -0.0897695 0
M  V30 10630 H 1013.09 1.76646 -0.818805 0
M  V30 10631 H 1011.26 3.8338 0.622441 0
M  V30 10632 H 1012.99 4.02075 0.460165 0
M  V30 10633 H 1009.75 4.49102 -1.50348 0
M  V30 10634 H 1010.17 5.52546 -3.9118 0
M  V30 10635 H 1014.81 3.96723 -1.46187 0
M  V30 10636 H 1012.53 5.98362 -5.43128 0
M  V30 10637 H 1016.12 4.69751 -3.43257 0
M  V30 10638 H 1015 5.6947 -5.39142 0
M  V30 10639 N 1012.5 0.357919 1.53482 0
M  V30 10640 C 1013.43 -0.484231 2.28424 0
M  V30 10641 C 1014.41 -1.09046 1.30548 0
M  V30 10642 O 1015.59 -1.10916 1.59409 0
M  V30 10643 C 1012.72 -1.62803 3.06778 0
M  V30 10644 C 1011.68 -1.14943 4.12277 0
M  V30 10645 C 1011 -2.38287 4.78669 0
M  V30 10646 C 1012.3 -0.239627 5.2175 0
M  V30 10647 H 1014 0.140979 2.99068 0
M  V30 10648 H 1011.54 0.069244 1.43833 0
M  V30 10649 H 1013.5 -2.22374 3.57949 0
M  V30 10650 H 1012.22 -2.28036 2.3381 0
M  V30 10651 H 1010.88 -0.576442 3.6204 0
M  V30 10652 H 1010.53 -3.01959 4.02281 0
M  V30 10653 H 1010.23 -2.06939 5.49955 0
M  V30 10654 H 1011.75 -2.98558 5.32631 0
M  V30 10655 H 1013.17 -0.742597 5.6847 0
M  V30 10656 H 1011.56 -0.0173747 6.00097 0
M  V30 10657 H 1012.63 0.720333 4.7952 0
M  V30 10658 N 1013.98 -1.5736 0.0868897 0
M  V30 10659 C 1014.93 -2.10105 -0.885435 0
M  V30 10660 C 1015.91 -1.01417 -1.24913 0
M  V30 10661 O 1017.1 -1.27704 -1.22558 0
M  V30 10662 C 1014.23 -2.67837 -2.14752 0
M  V30 10663 C 1013.32 -3.83553 -1.80963 0
M  V30 10664 N 1013.71 -4.91917 -1.17693 0
M  V30 10665 C 1012.01 -3.93134 -2.10622 0
M  V30 10666 C 1012.71 -5.72628 -1.02332 0
M  V30 10667 N 1011.68 -5.2139 -1.53796 0
M  V30 10668 H 1015.49 -2.91272 -0.392179 0
M  V30 10669 H 1013 -1.61981 -0.116566 0
M  V30 10670 H 1015 -3.03948 -2.85344 0
M  V30 10671 H 1013.66 -1.88122 -2.64651 0
M  V30 10672 H 1014.67 -5.10964 -0.844731 0
M  V30 10673 H 1011.34 -3.24416 -2.62793 0
M  V30 10674 H 1012.73 -6.69813 -0.529171 0
M  V30 10675 N 1015.45 0.186762 -1.56489 0
M  V30 10676 C 1016.7 0.905852 -1.81109 0
M  V30 10677 C 1017.03 1.82906 -0.661477 0
M  V30 10678 O 1016.28 1.92504 0.35226 0
M  V30 10679 C 1016.58 1.74719 -3.11782 0
M  V30 10680 C 1016.25 0.974238 -4.40249 0
M  V30 10681 C 1014.91 0.760856 -4.75147 0
M  V30 10682 C 1017.26 0.430971 -5.19415 0
M  V30 10683 C 1014.59 -0.00714216 -5.867 0
M  V30 10684 C 1016.94 -0.323859 -6.3177 0
M  V30 10685 C 1015.61 -0.548183 -6.65245 0
M  V30 10686 H 1014.88 0.331475 -0.662726 0
M  V30 10687 H 1017.52 0.171703 -1.90729 0
M  V30 10688 H 1015.83 2.55027 -2.97437 0
M  V30 10689 H 1017.53 2.30634 -3.28038 0
M  V30 10690 H 1014.12 1.15057 -4.12868 0
M  V30 10691 H 1018.3 0.583205 -4.92861 0
M  V30 10692 H 1013.56 -0.190832 -6.11102 0
M  V30 10693 H 1017.73 -0.752155 -6.92326 0
M  V30 10694 H 1015.36 -1.14518 -7.51525 0
M  V30 10695 N 1016.93 1.50896 0.454776 0
M  V30 10696 C 1017.9 1.70377 1.53312 0
M  V30 10697 C 1018.9 0.57408 1.50203 0
M  V30 10698 O 1020.09 0.841374 1.52534 0
M  V30 10699 C 1017.22 1.74411 2.92905 0
M  V30 10700 H 1018.41 2.66599 1.37349 0
M  V30 10701 H 1015.96 1.40622 0.68228 0
M  V30 10702 H 1016.7 0.799408 3.14293 0
M  V30 10703 H 1016.48 2.56496 2.96568 0
M  V30 10704 H 1017.97 1.91382 3.71164 0
M  V30 10705 N 1018.41 -0.709066 1.40748 0
M  V30 10706 C 1019.82 -1.28847 1.35112 0
M  V30 10707 C 1020.17 -1.9618 0.0277149 0
M  V30 10708 O 1019.3 -1.97955 -0.874233 0
M  V30 10709 C 1019.89 -2.34306 2.44716 0
M  V30 10710 C 1018.45 -2.87856 2.4252 0
M  V30 10711 C 1017.6 -1.61723 2.25257 0
M  V30 10712 H 1020.55 -0.504742 1.50459 0
M  V30 10713 H 1020.57 -3.15297 2.12998 0
M  V30 10714 H 1020.08 -1.85271 3.41022 0
M  V30 10715 H 1018.18 -3.41103 1.49931 0
M  V30 10716 H 1018.3 -3.39205 3.38344 0
M  V30 10717 H 1016.66 -1.87032 1.7289 0
M  V30 10718 H 1017.44 -1.14703 3.23571 0
M  V30 10719 N 1019.89 -1.26353 -0.941956 0
M  V30 10720 C 1021.31 -1.03448 -1.21534 0
M  V30 10721 C 1021.51 0.240855 -2.00055 0
M  V30 10722 O 1020.56 0.950199 -2.33939 0
M  V30 10723 C 1021.87 -2.2654 -1.97737 0
M  V30 10724 C 1023.42 -2.31433 -2.10731 0
M  V30 10725 C 1023.9 -3.54216 -2.90336 0
M  V30 10726 N 1025.39 -3.54688 -2.9791 0
M  V30 10727 C 1026.12 -4.4636 -3.59931 0
M  V30 10728 N 1025.62 -5.48319 -4.2346 0
M  V30 10729 N 1027.41 -4.34013 -3.57196 0
M  V30 10730 H 1019.56 -2.08266 -0.417005 0
M  V30 10731 H 1021.83 -0.915251 -0.247021 0
M  V30 10732 H 1021.53 -3.19299 -1.47449 0
M  V30 10733 H 1021.41 -2.30726 -2.98405 0
M  V30 10734 H 1023.79 -1.3919 -2.60212 0
M  V30 10735 H 1023.87 -2.31259 -1.09329 0
M  V30 10736 H 1023.52 -4.46788 -2.41543 0
M  V30 10737 H 1023.45 -3.51637 -3.91993 0
M  V30 10738 H 1025.94 -2.80942 -2.52745 0
M  V30 10739 H 1026.25 -6.14458 -4.6868 0
M  V30 10740 H 1024.6 -5.52177 -4.22049 0
M  V30 10741 H 1027.79 -3.53578 -3.06758 0
M  V30 10742 H 1027.96 -5.0565 -4.05244 0
M  V30 10743 N 1021.37 1.14642 -1.08144 0
M  V30 10744 C 1022.62 1.8525 -0.807885 0
M  V30 10745 C 1022.94 1.83194 0.668213 0
M  V30 10746 O 1022.21 1.27848 1.48431 0
M  V30 10747 H 1020.79 0.685909 -0.295868 0
M  V30 10748 H 1023.45 1.38935 -1.36686 0
M  V30 10749 H 1022.54 2.90155 -1.14964 0
M  V30 10750 N 1022.85 0.866709 1.31628 0
M  V30 10751 C 1023.81 0.325041 2.26883 0
M  V30 10752 C 1024.81 -0.522133 1.52087 0
M  V30 10753 O 1026 -0.331908 1.71009 0
M  V30 10754 C 1023.13 -0.538756 3.36616 0
M  V30 10755 H 1024.32 1.16592 2.76308 0
M  V30 10756 H 1021.88 0.642029 1.42505 0
M  V30 10757 H 1022.61 -1.40096 2.92478 0
M  V30 10758 H 1022.4 0.0678115 3.92041 0
M  V30 10759 H 1023.89 -0.910123 4.07562 0
M  V30 10760 N 1024.32 -1.44642 0.625825 0
M  V30 10761 C 1025.57 -2.01695 0.127948 0
M  V30 10762 C 1025.89 -1.49439 -1.25271 0
M  V30 10763 O 1025.16 -0.695873 -1.83124 0
M  V30 10764 H 1023.74 -0.745685 0.0443096 0
M  V30 10765 H 1026.4 -1.7721 0.811332 0
M  V30 10766 H 1025.5 -3.11966 0.0915933 0
M  V30 10767 N 1025.8 -0.366053 -1.5329 0
M  V30 10768 C 1026.71 0.488111 -2.29466 0
M  V30 10769 C 1027.73 1.09219 -1.35452 0
M  V30 10770 O 1028.9 1.10303 -1.68509 0
M  V30 10771 C 1025.97 1.61202 -3.06944 0
M  V30 10772 C 1025.03 1.03543 -4.16626 0
M  V30 10773 C 1024.26 2.10578 -4.904 0
M  V30 10774 O 1024.49 3.31697 -4.6404 0
M  V30 10775 O 1023.42 1.73609 -5.76319 0
M  V30 10776 H 1027.25 -0.131789 -3.03414 0
M  V30 10777 H 1024.83 -0.130421 -1.4883 0
M  V30 10778 H 1026.71 2.26546 -3.55324 0
M  V30 10779 H 1025.39 2.21732 -2.35832 0
M  V30 10780 H 1024.29 0.345892 -3.72498 0
M  V30 10781 H 1025.63 0.474687 -4.89906 0
M  V30 10782 N 1027.28 1.57312 -0.0952337 0
M  V30 10783 C 1028.53 1.93974 0.567319 0
M  V30 10784 C 1028.85 0.977805 1.68713 0
M  V30 10785 O 1028.12 0.0298944 1.95877 0
M  V30 10786 H 1026.7 0.71612 0.212558 0
M  V30 10787 H 1029.36 1.94254 -0.158598 0
M  V30 10788 H 1028.46 2.964 0.977423 0
M  V30 10789 N 1028.76 -0.17846 1.56586 0
M  V30 10790 C 1030.17 -0.529957 1.50544 0
M  V30 10791 C 1030.37 -1.85015 0.798237 0
M  V30 10792 O 1029.43 -2.49983 0.355639 0
M  V30 10793 C 1030.74 -0.569314 2.95261 0
M  V30 10794 C 1032.29 -0.657008 3.06027 0
M  V30 10795 C 1032.77 -0.727323 4.52188 0
M  V30 10796 N 1034.26 -0.790406 4.56406 0
M  V30 10797 C 1034.99 -0.865265 5.66834 0
M  V30 10798 N 1034.49 -0.901398 6.86911 0
M  V30 10799 N 1036.28 -0.903736 5.54787 0
M  V30 10800 H 1028.43 0.687304 2.00972 0
M  V30 10801 H 1030.69 0.246936 0.915274 0
M  V30 10802 H 1030.4 0.331934 3.5013 0
M  V30 10803 H 1030.27 -1.41828 3.4952 0
M  V30 10804 H 1032.66 -1.54868 2.51197 0
M  V30 10805 H 1032.74 0.218495 2.54865 0
M  V30 10806 H 1032.39 0.160067 5.07648 0
M  V30 10807 H 1032.32 -1.61887 5.01099 0
M  V30 10808 H 1034.81 -0.771054 3.6995 0
M  V30 10809 H 1035.12 -0.959494 7.6682 0
M  V30 10810 H 1033.47 -0.869795 6.89536 0
M  V30 10811 H 1036.66 -0.872459 4.59898 0
M  V30 10812 H 1036.83 -0.958615 6.4087 0
M  V30 10813 N 1030.24 -1.51135 -0.446768 0
M  V30 10814 C 1031.17 -1.74709 -1.54916 0
M  V30 10815 C 1032.15 -0.596628 -1.59293 0
M  V30 10816 O 1033.33 -0.838356 -1.75172 0
M  V30 10817 C 1030.46 -1.86353 -2.9307 0
M  V30 10818 C 1029.42 -3.01725 -3.03556 0
M  V30 10819 C 1028.74 -2.9854 -4.43597 0
M  V30 10820 C 1030.04 -4.41848 -2.7851 0
M  V30 10821 H 1031.74 -2.67014 -1.3544 0
M  V30 10822 H 1029.28 -1.28489 -0.650131 0
M  V30 10823 H 1031.23 -2.01428 -3.70141 0
M  V30 10824 H 1029.96 -0.906887 -3.13756 0
M  V30 10825 H 1028.62 -2.86339 -2.28922 0
M  V30 10826 H 1028.27 -2.00673 -4.61237 0
M  V30 10827 H 1027.97 -3.76008 -4.51544 0
M  V30 10828 H 1029.49 -3.15696 -5.22655 0
M  V30 10829 H 1030.9 -4.57633 -3.45319 0
M  V30 10830 H 1029.3 -5.2095 -2.97877 0
M  V30 10831 H 1030.37 -4.52536 -1.74182 0
M  V30 10832 N 1031.71 0.701592 -1.41122 0
M  V30 10833 C 1032.96 1.45722 -1.39456 0
M  V30 10834 C 1033.28 1.95599 -0.00475228 0
M  V30 10835 O 1034.48 2.71166 0.134529 0
M  V30 10836 C 1032.94 2.63475 -2.45172 0
M  V30 10837 C 1032.55 2.20409 -3.90031 0
M  V30 10838 C 1034.29 3.4114 -2.52633 0
M  V30 10839 C 1032.2 3.35084 -4.87312 0
M  V30 10840 H 1031.13 0.547341 -0.518588 0
M  V30 10841 H 1033.78 0.762233 -1.6692 0
M  V30 10842 H 1032.16 3.35212 -2.10829 0
M  V30 10843 H 1033.33 1.56 -4.3359 0
M  V30 10844 H 1031.65 1.55752 -3.86174 0
M  V30 10845 H 1034.25 4.26496 -3.22498 0
M  V30 10846 H 1034.59 3.85915 -1.56125 0
M  V30 10847 H 1035.12 2.76456 -2.86037 0
M  V30 10848 H 1031.86 2.95327 -5.85203 0
M  V30 10849 H 1031.38 3.98362 -4.48406 0
M  V30 10850 H 1033.06 4.00949 -5.07788 0
M  V30 10851 N 1033.19 1.2685 0.935242 0
M  V30 10852 C 1034.61 1.04091 1.20984 0
M  V30 10853 C 1034.81 -0.230242 2.0018 0
M  V30 10854 O 1033.86 -0.93778 2.3444 0
M  V30 10855 C 1035.18 2.27586 1.96533 0
M  V30 10856 C 1036.72 2.32547 2.09501 0
M  V30 10857 C 1037.2 3.55751 2.88454 0
M  V30 10858 N 1038.69 3.56263 2.96025 0
M  V30 10859 C 1039.43 4.48262 3.57559 0
M  V30 10860 N 1038.92 5.50557 4.20546 0
M  V30 10861 N 1040.71 4.35901 3.5489 0
M  V30 10862 H 1032.87 2.08484 0.405954 0
M  V30 10863 H 1035.13 0.916548 0.242164 0
M  V30 10864 H 1034.83 3.20076 1.45753 0
M  V30 10865 H 1034.71 2.32305 2.97177 0
M  V30 10866 H 1037.1 1.40568 2.5947 0
M  V30 10867 H 1037.18 2.31836 1.08101 0
M  V30 10868 H 1036.82 4.48063 2.3917 0
M  V30 10869 H 1036.75 3.53711 3.90123 0
M  V30 10870 H 1039.24 2.82278 2.51252 0
M  V30 10871 H 1039.55 6.16935 4.65415 0
M  V30 10872 H 1037.9 5.54407 4.19115 0
M  V30 10873 H 1041.09 3.552 3.04879 0
M  V30 10874 H 1041.26 5.07792 4.02557 0
M  V30 10875 N 1034.67 -1.14067 1.0875 0
M  V30 10876 C 1035.63 -2.17453 0.724341 0
M  V30 10877 C 1036.63 -1.58959 -0.242614 0
M  V30 10878 O 1037.82 -1.74186 -0.0217008 0
M  V30 10879 C 1034.96 -3.40828 0.0700236 0
M  V30 10880 H 1036.15 -2.51094 1.63987 0
M  V30 10881 H 1033.7 -1.28775 0.885813 0
M  V30 10882 H 1034.44 -3.1277 -0.857061 0
M  V30 10883 H 1034.22 -3.84551 0.76569 0
M  V30 10884 H 1035.71 -4.17258 -0.168905 0
M  V30 10885 N 1036.15 -0.873678 -1.31166 0
M  V30 10886 C 1037.08 -0.348011 -2.30892 0
M  V30 10887 C 1038.06 0.563092 -1.60509 0
M  V30 10888 O 1039.24 0.479332 -1.88192 0
M  V30 10889 C 1036.37 0.448158 -3.44396 0
M  V30 10890 C 1035.33 -0.370179 -4.26396 0
M  V30 10891 C 1034.65 0.551903 -5.31844 0
M  V30 10892 C 1035.95 -1.60624 -4.96988 0
M  V30 10893 H 1037.65 -1.18134 -2.75109 0
M  V30 10894 H 1035.19 -0.569502 -1.3226 0
M  V30 10895 H 1037.15 0.826458 -4.13216 0
M  V30 10896 H 1035.87 1.31503 -2.98956 0
M  V30 10897 H 1034.53 -0.730472 -3.59249 0
M  V30 10898 H 1034.18 1.41616 -4.82653 0
M  V30 10899 H 1033.88 0.00823478 -5.87599 0
M  V30 10900 H 1035.4 0.926965 -6.03523 0
M  V30 10901 H 1036.82 -1.29917 -5.58386 0
M  V30 10902 H 1035.21 -2.08926 -5.62557 0
M  V30 10903 H 1036.28 -2.357 -4.23761 0
M  V30 10904 N 1037.63 1.44308 -0.633487 0
M  V30 10905 C 1038.85 2.06384 -0.146063 0
M  V30 10906 C 1039.27 1.47357 1.18031 0
M  V30 10907 O 1038.63 0.597334 1.72448 0
M  V30 10908 C 1038.68 3.61489 -0.0276722 0
M  V30 10909 O 1038.4 4.18318 -1.3016 0
M  V30 10910 C 1039.9 4.40604 0.488168 0
M  V30 10911 H 1037.12 0.666122 -0.0807632 0
M  V30 10912 H 1039.66 1.85139 -0.868557 0
M  V30 10913 H 1037.82 3.81988 0.645273 0
M  V30 10914 H 1038.23 5.11783 -1.14797 0
M  V30 10915 H 1039.71 5.49545 0.520013 0
M  V30 10916 H 1040.18 4.12218 1.51568 0
M  V30 10917 H 1040.79 4.2503 -0.151608 0
M  V30 10918 N 1039.1 0.374177 1.53094 0
M  V30 10919 C 1040.33 -0.213325 2.05797 0
M  V30 10920 C 1040.75 -1.41753 1.24706 0
M  V30 10921 O 1040.1 -1.80183 0.289868 0
M  V30 10922 C 1040.16 -0.598367 3.56513 0
M  V30 10923 O 1039.88 0.557983 4.34532 0
M  V30 10924 C 1041.38 -1.24334 4.25507 0
M  V30 10925 H 1038.6 -0.0357398 0.670048 0
M  V30 10926 H 1041.14 0.535035 1.97377 0
M  V30 10927 H 1039.3 -1.29663 3.65056 0
M  V30 10928 H 1039.71 0.244911 5.23928 0
M  V30 10929 H 1041.18 -1.46325 5.32253 0
M  V30 10930 H 1041.66 -2.20622 3.79766 0
M  V30 10931 H 1042.27 -0.586269 4.2124 0
M  V30 10932 N 1040.58 -1.57259 0.103575 0
M  V30 10933 C 1041.55 -2.13337 -0.837859 0
M  V30 10934 C 1042.55 -1.06459 -1.20512 0
M  V30 10935 O 1043.74 -1.32307 -1.13316 0
M  V30 10936 C 1040.87 -2.66093 -2.13089 0
M  V30 10937 H 1042.06 -2.97842 -0.350775 0
M  V30 10938 H 1039.61 -1.55621 -0.145511 0
M  V30 10939 H 1040.35 -1.85133 -2.66264 0
M  V30 10940 H 1040.13 -3.44244 -1.87719 0
M  V30 10941 H 1041.62 -3.09443 -2.80419 0
M  V30 10942 N 1042.06 0.170153 -1.56679 0
M  V30 10943 C 1043.47 0.732502 -1.7173 0
M  V30 10944 C 1043.82 1.82736 -0.71428 0
M  V30 10945 O 1042.95 2.16044 0.124102 0
M  V30 10946 C 1043.54 1.33548 -3.11368 0
M  V30 10947 C 1042.1 1.84464 -3.281 0
M  V30 10948 C 1041.25 0.724069 -2.6768 0
M  V30 10949 H 1044.2 -0.0552543 -1.58604 0
M  V30 10950 H 1044.22 2.20519 -3.10083 0
M  V30 10951 H 1043.73 0.5384 -3.84347 0
M  V30 10952 H 1041.83 2.66813 -2.6008 0
M  V30 10953 H 1041.95 1.98928 -4.35849 0
M  V30 10954 H 1040.31 1.14481 -2.27522 0
M  V30 10955 H 1041.09 -0.0611861 -3.43245 0
M  V30 10956 N 1043.54 1.5137 0.438746 0
M  V30 10957 C 1044.78 1.64211 1.19006 0
M  V30 10958 C 1045.12 0.356607 1.90898 0
M  V30 10959 O 1044.39 -0.643722 1.83539 0
M  V30 10960 C 1044.68 2.8445 2.20817 0
M  V30 10961 C 1044.53 4.22972 1.53018 0
M  V30 10962 C 1045.85 3.00207 3.21813 0
M  V30 10963 H 1042.97 0.597628 0.431288 0
M  V30 10964 H 1045.61 1.8385 0.479487 0
M  V30 10965 H 1043.76 2.67836 2.81418 0
M  V30 10966 H 1045.43 4.5125 0.957654 0
M  V30 10967 H 1043.67 4.25736 0.832556 0
M  V30 10968 H 1044.34 5.03094 2.27158 0
M  V30 10969 H 1046.82 3.15522 2.71266 0
M  V30 10970 H 1045.7 3.85904 3.90345 0
M  V30 10971 H 1045.96 2.12216 3.87836 0
M  V30 10972 N 1045.02 -0.694098 1.41492 0
M  V30 10973 C 1046.43 -1.27407 1.36471 0
M  V30 10974 C 1046.78 -1.9614 0.0485209 0
M  V30 10975 O 1045.9 -1.98871 -0.853188 0
M  V30 10976 C 1046.5 -2.31698 2.47188 0
M  V30 10977 C 1045.06 -2.85268 2.45559 0
M  V30 10978 C 1044.2 -1.59325 2.2696 0
M  V30 10979 H 1047.16 -0.488756 1.50986 0
M  V30 10980 H 1047.18 -3.1302 2.1633 0
M  V30 10981 H 1046.69 -1.81644 3.42968 0
M  V30 10982 H 1044.79 -3.39494 1.5354 0
M  V30 10983 H 1044.9 -3.35598 3.41922 0
M  V30 10984 H 1043.27 -1.85188 1.74864 0
M  V30 10985 H 1044.05 -1.11265 3.24769 0
M  V30 10986 N 1046.49 -1.27344 -0.928501 0
M  V30 10987 C 1047.74 -1.13019 -1.67061 0
M  V30 10988 C 1048.06 0.323614 -1.92904 0
M  V30 10989 O 1049.26 0.587752 -2.65062 0
M  V30 10990 C 1047.72 -1.97471 -3.00887 0
M  V30 10991 C 1047.33 -3.47504 -2.82746 0
M  V30 10992 C 1049.07 -1.91792 -3.78703 0
M  V30 10993 C 1046.98 -4.24158 -4.12122 0
M  V30 10994 H 1045.91 -0.419364 -0.626618 0
M  V30 10995 H 1048.56 -1.51759 -1.03158 0
M  V30 10996 H 1046.94 -1.51576 -3.65843 0
M  V30 10997 H 1048.11 -4.01256 -2.26562 0
M  V30 10998 H 1046.43 -3.54554 -2.18359 0
M  V30 10999 H 1049.03 -2.46339 -4.74575 0
M  V30 11000 H 1049.37 -0.891375 -4.06645 0
M  V30 11001 H 1049.9 -2.35578 -3.20543 0
M  V30 11002 H 1046.64 -5.27333 -3.89359 0
M  V30 11003 H 1046.16 -3.75183 -4.67972 0
M  V30 11004 H 1047.84 -4.33288 -4.80489 0
M  V30 11005 N 1047.97 1.13488 -1.09353 0
M  V30 11006 C 1049.22 1.85022 -0.830354 0
M  V30 11007 C 1049.55 1.83266 0.64242 0
M  V30 11008 O 1048.83 1.27024 1.47293 0
M  V30 11009 C 1049.11 3.33218 -1.36521 0
M  V30 11010 C 1048.96 3.43491 -2.90404 0
M  V30 11011 C 1050.28 4.28626 -0.998381 0
M  V30 11012 H 1047.4 0.671786 -0.303105 0
M  V30 11013 H 1050.04 1.33211 -1.3548 0
M  V30 11014 H 1048.19 3.77471 -0.919117 0
M  V30 11015 H 1049.86 3.07954 -3.43456 0
M  V30 11016 H 1048.11 2.84391 -3.27573 0
M  V30 11017 H 1048.78 4.47702 -3.22905 0
M  V30 11018 H 1051.25 3.9244 -1.38311 0
M  V30 11019 H 1050.13 5.30754 -1.39968 0
M  V30 11020 H 1050.39 4.42001 0.093517 0
M  V30 11021 N 1049.45 0.880621 1.30701 0
M  V30 11022 C 1050.41 0.349087 2.26526 0
M  V30 11023 C 1051.41 -0.505973 1.52632 0
M  V30 11024 O 1052.6 -0.313751 1.71351 0
M  V30 11025 C 1049.74 -0.503023 3.37168 0
M  V30 11026 H 1050.93 1.19516 2.75056 0
M  V30 11027 H 1048.48 0.657107 1.41816 0
M  V30 11028 H 1049.22 -1.36986 2.93948 0
M  V30 11029 H 1049 0.109389 3.91947 0
M  V30 11030 H 1050.49 -0.866845 4.08504 0
M  V30 11031 N 1050.93 -1.4397 0.641131 0
M  V30 11032 C 1052.18 -2.01548 0.149333 0
M  V30 11033 C 1052.5 -1.50759 -1.23679 0
M  V30 11034 O 1051.77 -0.715257 -1.82376 0
M  V30 11035 H 1050.35 -0.745173 0.0522161 0
M  V30 11036 H 1053.01 -1.7634 0.830082 0
M  V30 11037 H 1052.11 -3.11851 0.124676 0
M  V30 11038 N 1052.41 -0.382291 -1.52893 0
M  V30 11039 C 1053.65 0.202133 -2.01489 0
M  V30 11040 C 1053.98 1.47399 -1.26901 0
M  V30 11041 O 1053.24 1.92439 -0.355771 0
M  V30 11042 C 1053.54 0.523437 -3.53546 0
M  V30 11043 C 1053.2 -0.656042 -4.46102 0
M  V30 11044 C 1051.86 -0.979633 -4.71123 0
M  V30 11045 C 1054.22 -1.44545 -5.00756 0
M  V30 11046 C 1051.54 -2.0943 -5.48047 0
M  V30 11047 C 1053.9 -2.55066 -5.78899 0
M  V30 11048 C 1052.56 -2.87942 -6.02201 0
M  V30 11049 H 1051.83 0.0739659 -0.737299 0
M  V30 11050 H 1054.48 -0.518196 -1.84356 0
M  V30 11051 H 1052.78 1.325 -3.68715 0
M  V30 11052 H 1054.48 0.988148 -3.88634 0
M  V30 11053 H 1051.07 -0.393818 -4.26787 0
M  V30 11054 H 1055.25 -1.20869 -4.81357 0
M  V30 11055 H 1050.51 -2.3528 -5.64317 0
M  V30 11056 H 1054.68 -3.1664 -6.20252 0
M  V30 11057 H 1052.31 -3.74435 -6.61591 0
M  V30 11058 N 1053.89 1.57202 -0.111913 0
M  V30 11059 C 1054.82 2.10634 0.877983 0
M  V30 11060 C 1055.8 1.02098 1.26549 0
M  V30 11061 O 1056.98 1.29707 1.36779 0
M  V30 11062 C 1054.11 2.59721 2.174 0
M  V30 11063 C 1053.15 3.80074 1.93509 0
M  V30 11064 S 1053.99 5.22834 1.1578 0
M  V30 11065 C 1055.14 5.75284 2.46576 0
M  V30 11066 H 1055.38 2.94268 0.423483 0
M  V30 11067 H 1052.91 1.54065 0.101721 0
M  V30 11068 H 1054.87 2.88657 2.91868 0
M  V30 11069 H 1053.53 1.76281 2.59969 0
M  V30 11070 H 1052.72 4.12545 2.89522 0
M  V30 11071 H 1052.32 3.51718 1.27164 0
M  V30 11072 H 1054.61 5.84576 3.42457 0
M  V30 11073 H 1055.56 6.73493 2.1866 0
M  V30 11074 H 1055.97 5.03308 2.55619 0
M  V30 11075 N 1055.36 -0.161842 1.56767 0
M  V30 11076 C 1056.33 -1.18404 1.96247 0
M  V30 11077 C 1057.33 -1.3667 0.84722 0
M  V30 11078 O 1058.52 -1.33915 1.11411 0
M  V30 11079 C 1055.65 -2.54728 2.26553 0
M  V30 11080 H 1056.84 -0.845703 2.87729 0
M  V30 11081 H 1054.39 -0.404645 1.50971 0
M  V30 11082 H 1055.13 -2.93559 1.37816 0
M  V30 11083 H 1054.91 -2.42834 3.07854 0
M  V30 11084 H 1056.4 -3.28378 2.57987 0
M  V30 11085 N 1056.84 -1.516 -0.430713 0
M  V30 11086 C 1057.8 -1.72794 -1.50582 0
M  V30 11087 C 1058.8 -0.597903 -1.49271 0
M  V30 11088 O 1059.99 -0.865535 -1.51176 0
M  V30 11089 C 1057.13 -1.79049 -2.90093 0
M  V30 11090 H 1058.32 -2.68751 -1.33091 0
M  V30 11091 H 1055.87 -1.4169 -0.659822 0
M  V30 11092 H 1056.61 -0.849309 -3.12981 0
M  V30 11093 H 1056.39 -2.61181 -2.92449 0
M  V30 11094 H 1057.88 -1.97262 -3.68072 0
M  V30 11095 N 1058.32 0.686584 -1.41858 0
M  V30 11096 C 1059.57 1.44879 -1.41908 0
M  V30 11097 C 1059.9 1.94175 -0.0311408 0
M  V30 11098 O 1059.17 1.70131 0.942646 0
M  V30 11099 C 1059.46 2.65428 -2.43352 0
M  V30 11100 C 1059.31 2.2184 -3.91289 0
M  V30 11101 C 1060.63 3.67635 -2.41934 0
M  V30 11102 H 1057.75 0.525477 -0.516762 0
M  V30 11103 H 1060.39 0.781263 -1.73194 0
M  V30 11104 H 1058.54 3.2238 -2.16803 0
M  V30 11105 H 1060.21 1.70146 -4.28775 0
M  V30 11106 H 1058.45 1.53531 -4.05722 0
M  V30 11107 H 1059.13 3.08376 -4.5783 0
M  V30 11108 H 1061.6 3.20376 -2.65516 0
M  V30 11109 H 1060.48 4.49579 -3.14913 0
M  V30 11110 H 1060.74 4.17953 -1.44111 0
M  V30 11111 N 1059.8 1.27835 0.921735 0
M  V30 11112 C 1061.04 1.14523 1.67005 0
M  V30 11113 C 1061.37 -0.307776 1.92049 0
M  V30 11114 O 1060.63 -1.24103 1.51317 0
M  V30 11115 C 1060.93 1.88054 3.03925 0
M  V30 11116 C 1060.59 3.37886 2.9857 0
M  V30 11117 C 1059.25 3.78752 2.96817 0
M  V30 11118 C 1061.61 4.33462 2.89414 0
M  V30 11119 C 1058.93 5.13549 2.83698 0
M  V30 11120 C 1061.29 5.68322 2.77836 0
M  V30 11121 C 1059.95 6.08475 2.74436 0
M  V30 11122 H 1059.22 0.419068 0.611116 0
M  V30 11123 H 1061.87 1.58515 1.07449 0
M  V30 11124 H 1060.17 1.36587 3.67221 0
M  V30 11125 H 1061.87 1.75176 3.60714 0
M  V30 11126 H 1058.46 3.05389 3.00725 0
M  V30 11127 H 1062.64 4.02857 2.89862 0
M  V30 11128 H 1057.9 5.43796 2.79456 0
M  V30 11129 H 1062.07 6.42048 2.69717 0
M  V30 11130 H 1059.7 7.12877 2.64027 0
M  V30 11131 N 1061.28 -1.12907 1.09954 0
M  V30 11132 C 1062.52 -1.84579 0.840155 0
M  V30 11133 C 1062.85 -1.83605 -0.632692 0
M  V30 11134 O 1062.13 -1.27803 -1.46617 0
M  V30 11135 C 1062.41 -3.32489 1.38286 0
M  V30 11136 C 1062.27 -3.41946 2.92221 0
M  V30 11137 C 1063.58 -4.28091 1.0211 0
M  V30 11138 H 1060.7 -0.670169 0.306663 0
M  V30 11139 H 1063.35 -1.3249 1.36185 0
M  V30 11140 H 1061.5 -3.76978 0.939123 0
M  V30 11141 H 1063.17 -3.06128 3.45085 0
M  V30 11142 H 1061.41 -2.8265 3.29077 0
M  V30 11143 H 1062.08 -4.45983 3.25274 0
M  V30 11144 H 1064.56 -3.91701 1.4039 0
M  V30 11145 H 1063.43 -5.30005 1.42781 0
M  V30 11146 H 1063.69 -4.42044 -0.0700753 0
M  V30 11147 N 1062.75 -0.88754 -1.30232 0
M  V30 11148 C 1063.72 -0.361095 -2.26338 0
M  V30 11149 C 1064.72 0.497871 -1.52898 0
M  V30 11150 O 1065.91 0.30466 -1.71515 0
M  V30 11151 C 1063.04 0.485135 -3.3743 0
M  V30 11152 H 1064.23 -1.20973 -2.74419 0
M  V30 11153 H 1061.78 -0.664619 -1.41466 0
M  V30 11154 H 1062.52 1.35425 -2.9467 0
M  V30 11155 H 1062.3 -0.130173 -3.91884 0
M  V30 11156 H 1063.79 0.845169 -4.08958 0
M  V30 11157 N 1064.23 1.43628 -0.648757 0
M  V30 11158 C 1065.46 2.06732 -0.166284 0
M  V30 11159 C 1065.88 1.48281 1.15734 0
M  V30 11160 O 1065.24 0.591018 1.71396 0
M  V30 11161 C 1065.29 3.60502 -0.0838732 0
M  V30 11162 O 1064.39 4.01186 0.955185 0
M  V30 11163 H 1063.73 0.657479 -0.0928285 0
M  V30 11164 H 1066.26 1.84208 -0.890421 0
M  V30 11165 H 1066.27 4.07875 0.100923 0
M  V30 11166 H 1064.95 4.02424 -1.05014 0
M  V30 11167 H 1063.53 3.65412 0.743537 0
M  V30 11168 N 1065.71 0.390394 1.52688 0
M  V30 11169 C 1066.64 -0.48838 2.22913 0
M  V30 11170 C 1067.62 -1.06319 1.23025 0
M  V30 11171 O 1068.81 -1.11462 1.52015 0
M  V30 11172 C 1065.93 -1.67612 2.9432 0
M  V30 11173 C 1064.98 -1.22646 4.08485 0
M  V30 11174 S 1065.81 -0.207092 5.35099 0
M  V30 11175 C 1066.97 -1.40058 6.10028 0
M  V30 11176 H 1067.2 0.107949 2.97104 0
M  V30 11177 H 1064.73 0.174588 1.5341 0
M  V30 11178 H 1066.69 -2.35728 3.36069 0
M  V30 11179 H 1065.35 -2.24375 2.19806 0
M  V30 11180 H 1064.55 -2.11331 4.57554 0
M  V30 11181 H 1064.15 -0.624197 3.68754 0
M  V30 11182 H 1066.44 -2.32747 6.36266 0
M  V30 11183 H 1067.38 -0.950804 7.01687 0
M  V30 11184 H 1067.79 -1.61789 5.40818 0
M  V30 11185 N 1067.19 -1.57141 0.120249 0
M  V30 11186 C 1068.43 -1.95527 -0.538245 0
M  V30 11187 C 1068.77 -1.00373 -1.6625 0
M  V30 11188 O 1068.04 -0.0411734 -1.94456 0
M  V30 11189 C 1068.33 -3.43843 -1.06976 0
M  V30 11190 C 1068.18 -4.49771 0.0511596 0
M  V30 11191 C 1069.5 -3.94035 -1.96022 0
M  V30 11192 H 1066.62 -0.710958 -0.194183 0
M  V30 11193 H 1069.26 -1.88986 0.196061 0
M  V30 11194 H 1067.41 -3.49548 -1.69553 0
M  V30 11195 H 1069.08 -4.56163 0.686503 0
M  V30 11196 H 1067.32 -4.27882 0.714127 0
M  V30 11197 H 1067.99 -5.50812 -0.361995 0
M  V30 11198 H 1070.47 -3.9064 -1.43315 0
M  V30 11199 H 1069.35 -4.98329 -2.3013 0
M  V30 11200 H 1069.61 -3.34803 -2.8872 0
M  V30 11201 N 1068.67 0.153526 -1.5685 0
M  V30 11202 C 1069.63 1.17362 -1.96873 0
M  V30 11203 C 1070.63 1.36219 -0.854456 0
M  V30 11204 O 1071.82 1.33322 -1.1212 0
M  V30 11205 C 1068.95 2.53523 -2.27901 0
M  V30 11206 H 1070.14 0.830432 -2.88173 0
M  V30 11207 H 1067.7 0.396633 -1.51184 0
M  V30 11208 H 1068.43 2.92824 -1.39371 0
M  V30 11209 H 1068.22 2.41198 -3.09137 0
M  V30 11210 H 1069.71 3.27006 -2.59725 0
M  V30 11211 N 1070.14 1.51827 0.422667 0
M  V30 11212 C 1071.39 1.64893 1.16853 0
M  V30 11213 C 1071.71 0.37456 1.91369 0
M  V30 11214 O 1070.98 -0.610128 1.86157 0
M  V30 11215 H 1069.56 0.607744 0.434345 0
M  V30 11216 H 1072.23 1.88816 0.483159 0
M  V30 11217 H 1071.32 2.48361 1.89006 0
M  V30 11218 N 1071.62 -0.679052 1.4222 0
M  V30 11219 C 1072.87 -1.43485 1.41757 0
M  V30 11220 C 1073.18 -1.95567 0.0358698 0
M  V30 11221 O 1074.39 -2.71346 -0.0913713 0
M  V30 11222 C 1072.85 -2.59541 2.49332 0
M  V30 11223 C 1072.45 -2.14176 3.93488 0
M  V30 11224 C 1074.2 -3.37078 2.58029 0
M  V30 11225 C 1072.11 -3.27289 4.92581 0
M  V30 11226 H 1071.04 -0.539022 0.52723 0
M  V30 11227 H 1073.69 -0.735581 1.68111 0
M  V30 11228 H 1072.07 -3.31815 2.16135 0
M  V30 11229 H 1073.24 -1.49082 4.36017 0
M  V30 11230 H 1071.56 -1.49589 3.88603 0
M  V30 11231 H 1074.15 -4.21312 3.29242 0
M  V30 11232 H 1074.5 -3.83383 1.62245 0
M  V30 11233 H 1075.03 -2.7187 2.90399 0
M  V30 11234 H 1071.77 -2.8598 5.89827 0
M  V30 11235 H 1071.29 -3.91178 4.54687 0
M  V30 11236 H 1072.97 -3.9282 5.14103 0
M  V30 11237 N 1073.1 -1.28322 -0.914942 0
M  V30 11238 C 1074.35 -1.15578 -1.66642 0
M  V30 11239 C 1074.68 0.295209 -1.91943 0
M  V30 11240 O 1073.95 1.21482 -1.51896 0
M  V30 11241 C 1074.24 -1.9535 -3.02507 0
M  V30 11242 C 1074.09 -3.48504 -2.84367 0
M  V30 11243 C 1075.41 -1.76798 -4.03027 0
M  V30 11244 H 1072.53 -0.421234 -0.604757 0
M  V30 11245 H 1075.17 -1.57625 -1.06087 0
M  V30 11246 H 1073.32 -1.59619 -3.54195 0
M  V30 11247 H 1074.99 -3.94135 -2.39699 0
M  V30 11248 H 1073.24 -3.74198 -2.1945 0
M  V30 11249 H 1073.91 -3.99576 -3.80845 0
M  V30 11250 H 1076.38 -2.07977 -3.60395 0
M  V30 11251 H 1075.26 -2.34987 -4.96057 0
M  V30 11252 H 1075.52 -0.719162 -4.36211 0
M  V30 11253 N 1074.58 1.12322 -1.10551 0
M  V30 11254 C 1075.99 1.35858 -0.837543 0
M  V30 11255 C 1076.19 1.94062 0.54241 0
M  V30 11256 O 1075.25 2.1676 1.29505 0
M  V30 11257 C 1076.56 2.299 -1.9382 0
M  V30 11258 C 1078.11 2.43488 -1.96679 0
M  V30 11259 C 1078.59 3.40846 -3.05922 0
M  V30 11260 N 1080.08 3.48404 -3.05236 0
M  V30 11261 C 1080.81 4.2365 -3.86405 0
M  V30 11262 N 1080.31 5.01951 -4.77512 0
M  V30 11263 N 1082.1 4.19068 -3.74618 0
M  V30 11264 H 1074.25 0.729002 -1.99498 0
M  V30 11265 H 1076.52 0.38339 -0.867016 0
M  V30 11266 H 1076.22 1.94309 -2.9315 0
M  V30 11267 H 1076.1 3.30033 -1.82641 0
M  V30 11268 H 1078.48 2.78359 -0.979813 0
M  V30 11269 H 1078.56 1.43239 -2.11934 0
M  V30 11270 H 1078.21 3.06704 -4.04839 0
M  V30 11271 H 1078.14 4.40927 -2.87907 0
M  V30 11272 H 1080.63 2.92545 -2.39219 0
M  V30 11273 H 1080.94 5.56707 -5.36002 0
M  V30 11274 H 1079.29 5.01143 -4.8154 0
M  V30 11275 H 1082.48 3.5698 -3.02792 0
M  V30 11276 H 1082.65 4.77455 -4.38111 0
M  V30 11277 N 1076.06 0.894434 1.2976 0
M  V30 11278 C 1076.99 0.325525 2.26877 0
M  V30 11279 C 1078 -0.525218 1.54095 0
M  V30 11280 O 1079.19 -0.343231 1.75169 0
M  V30 11281 C 1076.29 -0.554952 3.34325 0
M  V30 11282 C 1075.46 0.268868 4.36573 0
M  V30 11283 C 1074.52 -0.543601 5.23385 0
M  V30 11284 O 1073.55 0.0370454 5.69188 0
M  V30 11285 N 1074.75 -1.85079 5.50205 0
M  V30 11286 H 1077.52 1.16021 2.76332 0
M  V30 11287 H 1075.08 0.758382 1.43039 0
M  V30 11288 H 1077.07 -1.10476 3.89329 0
M  V30 11289 H 1075.64 -1.29031 2.84727 0
M  V30 11290 H 1074.86 1.0001 3.81302 0
M  V30 11291 H 1076.15 0.833248 5.01931 0
M  V30 11292 H 1075.54 -2.34533 5.14792 0
M  V30 11293 H 1074.1 -2.34784 6.08046 0
M  V30 11294 N 1077.53 -1.43282 0.656365 0
M  V30 11295 C 1078.76 -2.05826 0.178619 0
M  V30 11296 C 1079.17 -1.493 -1.16216 0
M  V30 11297 O 1078.52 -0.620163 -1.72915 0
M  V30 11298 C 1078.58 -3.59496 0.0164101 0
M  V30 11299 C 1078.24 -4.38621 1.28298 0
M  V30 11300 C 1079.24 -4.70477 2.21241 0
M  V30 11301 C 1076.92 -4.78577 1.52544 0
M  V30 11302 C 1078.92 -5.412 3.36721 0
M  V30 11303 C 1076.6 -5.49044 2.68316 0
M  V30 11304 C 1077.6 -5.80279 3.6023 0
M  V30 11305 O 1077.29 -6.49306 4.7398 0
M  V30 11306 H 1077.02 -0.670158 0.0886814 0
M  V30 11307 H 1079.58 -1.84722 0.89816 0
M  V30 11308 H 1077.81 -3.79188 -0.758532 0
M  V30 11309 H 1079.5 -4.03731 -0.419096 0
M  V30 11310 H 1080.26 -4.40125 2.03753 0
M  V30 11311 H 1076.14 -4.5367 0.818816 0
M  V30 11312 H 1079.68 -5.65497 4.08483 0
M  V30 11313 H 1075.58 -5.78813 2.85738 0
M  V30 11314 H 1076.35 -6.67789 4.73286 0
M  V30 11315 N 1079.01 -0.398486 -1.52479 0
M  V30 11316 C 1080.42 0.0735015 -1.86555 0
M  V30 11317 C 1080.78 1.45361 -1.31775 0
M  V30 11318 O 1079.9 2.0632 -0.652759 0
M  V30 11319 C 1080.5 0.140152 -3.3851 0
M  V30 11320 C 1079.05 0.556451 -3.72264 0
M  V30 11321 C 1078.2 -0.275792 -2.75925 0
M  V30 11322 H 1081.15 -0.615991 -1.46257 0
M  V30 11323 H 1081.17 0.957507 -3.68255 0
M  V30 11324 H 1080.69 -0.864442 -3.7835 0
M  V30 11325 H 1078.79 1.56808 -3.37997 0
M  V30 11326 H 1078.9 0.308227 -4.78107 0
M  V30 11327 H 1077.26 0.260304 -2.53366 0
M  V30 11328 H 1078.05 -1.27854 -3.18604 0
M  V30 11329 N 1080.49 1.57075 -0.12858 0
M  V30 11330 C 1081.72 1.99876 0.534544 0
M  V30 11331 C 1082.13 1.00843 1.59612 0
M  V30 11332 O 1081.49 0.00268947 1.825 0
M  V30 11333 C 1081.54 3.42654 1.15198 0
M  V30 11334 O 1081.26 4.37899 0.132823 0
M  V30 11335 C 1082.76 4.00637 1.8975 0
M  V30 11336 H 1079.98 0.656073 0.140744 0
M  V30 11337 H 1082.53 2.03337 -0.217742 0
M  V30 11338 H 1080.68 3.40101 1.85499 0
M  V30 11339 H 1081.1 5.21253 0.582682 0
M  V30 11340 H 1082.57 5.02592 2.28266 0
M  V30 11341 H 1083.05 3.40313 2.7764 0
M  V30 11342 H 1083.65 4.06764 1.2419 0
M  V30 11343 N 1081.97 -0.145205 1.5693 0
M  V30 11344 C 1083.2 -0.871133 1.87336 0
M  V30 11345 C 1083.61 -1.7517 0.714992 0
M  V30 11346 O 1082.95 -1.80815 -0.324304 0
M  V30 11347 C 1083.01 -1.77775 3.12468 0
M  V30 11348 C 1082.68 -1.07416 4.44197 0
M  V30 11349 C 1083.67 -0.42722 5.18142 0
M  V30 11350 C 1081.36 -1.06313 4.9092 0
M  V30 11351 C 1083.35 0.221348 6.37016 0
M  V30 11352 C 1081.04 -0.410755 6.09718 0
M  V30 11353 C 1082.04 0.230357 6.82611 0
M  V30 11354 O 1081.73 0.872389 7.99152 0
M  V30 11355 H 1081.46 -0.257174 0.62517 0
M  V30 11356 H 1084.01 -0.142159 2.04907 0
M  V30 11357 H 1082.24 -2.54771 2.9091 0
M  V30 11358 H 1083.93 -2.37579 3.29107 0
M  V30 11359 H 1084.7 -0.427536 4.83112 0
M  V30 11360 H 1080.58 -1.55156 4.34105 0
M  V30 11361 H 1084.12 0.722349 6.9385 0
M  V30 11362 H 1080.02 -0.408112 6.44209 0
M  V30 11363 H 1080.78 0.774236 8.1483 0
M  V30 11364 N 1083.45 -1.52049 -0.414609 0
M  V30 11365 C 1084.67 -1.6997 -1.18848 0
M  V30 11366 C 1085.1 -0.406058 -1.83665 0
M  V30 11367 O 1084.46 0.635981 -1.69779 0
M  V30 11368 C 1084.5 -2.8327 -2.23138 0
M  V30 11369 O 1083.61 -2.48457 -3.29155 0
M  V30 11370 H 1082.95 -0.566003 -0.347183 0
M  V30 11371 H 1085.48 -1.98726 -0.486757 0
M  V30 11372 H 1085.49 -3.08022 -2.67557 0
M  V30 11373 H 1084.16 -3.7713 -1.75344 0
M  V30 11374 H 1082.74 -2.34357 -2.90054 0
M  V30 11375 N 1084.93 0.6715 -1.42579 0
M  V30 11376 C 1085.87 1.80623 -1.46554 0
M  V30 11377 C 1086.87 1.65934 -0.340932 0
M  V30 11378 O 1088.07 1.72502 -0.514098 0
M  V30 11379 H 1084.45 0.595619 -0.459067 0
M  V30 11380 H 1086.42 1.74388 -2.42139 0
M  V30 11381 C 1085.17 3.18794 -1.38801 0
M  V30 11382 H 1084.49 3.30725 -2.24635 0
M  V30 11383 H 1085.93 3.98201 -1.45645 0
M  V30 11384 C 1084.39 3.36742 -0.103219 0
M  V30 11385 O 1084.92 3.92761 0.842715 0
M  V30 11386 N 1083.13 2.90594 -0.0193034 0
M  V30 11387 H 1082.67 2.45192 -0.78986 0
M  V30 11388 H 1082.63 3.0298 0.839686 0
M  V30 11389 N 1086.4 1.28806 0.908124 0
M  V30 11390 C 1087.65 1.16058 1.65454 0
M  V30 11391 C 1087.97 -0.290057 1.92831 0
M  V30 11392 O 1087.24 -1.20001 1.54843 0
M  V30 11393 H 1085.82 0.426522 0.61326 0
M  V30 11394 H 1088.48 1.61614 1.08936 0
M  V30 11395 H 1087.58 1.70437 2.61453 0
M  V30 11396 N 1087.88 -1.11734 1.11145 0
M  V30 11397 C 1089.13 -1.83874 0.86959 0
M  V30 11398 C 1089.48 -1.82859 -0.598363 0
M  V30 11399 O 1088.78 -1.26849 -1.43596 0
M  V30 11400 C 1088.97 -3.3046 1.36129 0
M  V30 11401 C 1088.8 -3.45752 2.87551 0
M  V30 11402 C 1087.57 -3.58956 3.55638 0
M  V30 11403 C 1089.77 -3.40296 3.85621 0
M  V30 11404 N 1087.75 -3.62688 4.95309 0
M  V30 11405 C 1089.12 -3.50611 5.11343 0
M  V30 11406 C 1091.17 -3.23808 3.78223 0
M  V30 11407 C 1089.88 -3.46138 6.3054 0
M  V30 11408 C 1091.9 -3.20651 4.96927 0
M  V30 11409 C 1091.27 -3.31534 6.21502 0
M  V30 11410 H 1087.36 -0.688226 0.371306 0
M  V30 11411 H 1089.95 -1.33715 1.41522 0
M  V30 11412 H 1088.12 -3.79144 0.842885 0
M  V30 11413 H 1089.85 -3.90493 1.0629 0
M  V30 11414 H 1086.61 -3.61387 3.06098 0
M  V30 11415 H 1087.03 -3.68199 5.68118 0
M  V30 11416 H 1091.67 -3.14282 2.8282 0
M  V30 11417 H 1089.39 -3.54433 7.26225 0
M  V30 11418 H 1092.98 -3.09064 4.9292 0
M  V30 11419 H 1091.86 -3.29076 7.11814 0
M  V30 11420 N 1089.36 -0.901303 -1.29284 0
M  V30 11421 C 1090.58 -0.542823 -2.0017 0
M  V30 11422 C 1091.01 0.865583 -1.67001 0
M  V30 11423 O 1090.37 1.5764 -0.895502 0
M  V30 11424 C 1090.42 -0.743987 -3.52842 0
M  V30 11425 O 1089.52 0.202771 -4.11901 0
M  V30 11426 H 1088.86 -0.211903 -0.62928 0
M  V30 11427 H 1091.39 -1.21333 -1.64741 0
M  V30 11428 H 1091.4 -0.64926 -4.02801 0
M  V30 11429 H 1090.08 -1.77077 -3.7632 0
M  V30 11430 H 1088.65 0.0603637 -3.72851 0
M  V30 11431 N 1090.84 1.42931 -0.663954 0
M  V30 11432 C 1091.79 2.32577 0.03287 0
M  V30 11433 C 1092.78 1.49217 0.801918 0
M  V30 11434 O 1093.99 1.65358 0.711106 0
M  V30 11435 H 1090.36 0.751424 0.0294198 0
M  V30 11436 H 1092.33 2.89059 -0.740763 0
M  V30 11437 C 1091.08 3.33661 0.978025 0
M  V30 11438 H 1090.4 3.97837 0.395681 0
M  V30 11439 H 1091.84 3.98997 1.43448 0
M  V30 11440 C 1090.3 2.65085 2.07922 0
M  V30 11441 O 1090.83 2.4745 3.16435 0
M  V30 11442 N 1089.04 2.24285 1.84783 0
M  V30 11443 H 1088.59 2.38827 0.965368 0
M  V30 11444 H 1088.54 1.78732 2.58655 0
M  V30 11445 N 1092.32 0.406567 1.52266 0
M  V30 11446 C 1093.56 -0.170305 2.02084 0
M  V30 11447 C 1093.89 -1.45008 1.29176 0
M  V30 11448 O 1093.17 -1.90399 0.39731 0
M  V30 11449 C 1093.45 -0.420627 3.57635 0
M  V30 11450 C 1093.31 0.87564 4.41194 0
M  V30 11451 C 1094.62 -1.20387 4.23314 0
M  V30 11452 H 1091.74 -0.0604219 0.734519 0
M  V30 11453 H 1094.39 0.539529 1.82179 0
M  V30 11454 H 1092.54 -1.0253 3.74726 0
M  V30 11455 H 1094.21 1.51192 4.35819 0
M  V30 11456 H 1092.45 1.48718 4.07511 0
M  V30 11457 H 1093.12 0.654916 5.48101 0
M  V30 11458 H 1095.6 -0.691972 4.10306 0
M  V30 11459 H 1094.47 -1.34776 5.32096 0
M  V30 11460 H 1094.73 -2.2238 3.82099 0
M  V30 11461 N 1093.79 -1.57004 0.136909 0
M  V30 11462 C 1095.21 -1.58082 -0.21958 0
M  V30 11463 C 1095.41 -1.15065 -1.65415 0
M  V30 11464 O 1094.47 -0.846284 -2.37896 0
M  V30 11465 C 1095.78 -3.00685 0.0300112 0
M  V30 11466 C 1097.33 -3.12981 -0.0344899 0
M  V30 11467 C 1097.8 -4.57615 0.187639 0
M  V30 11468 N 1099.29 -4.63005 0.134219 0
M  V30 11469 C 1100.03 -5.72712 0.280743 0
M  V30 11470 N 1099.52 -6.91104 0.48443 0
M  V30 11471 N 1101.32 -5.61673 0.219055 0
M  V30 11472 H 1093.47 -1.83262 1.07372 0
M  V30 11473 H 1095.73 -0.847776 0.424241 0
M  V30 11474 H 1095.44 -3.36509 1.02247 0
M  V30 11475 H 1095.31 -3.70762 -0.693918 0
M  V30 11476 H 1097.7 -2.77004 -1.01749 0
M  V30 11477 H 1097.78 -2.45411 0.721608 0
M  V30 11478 H 1097.42 -4.94295 1.16769 0
M  V30 11479 H 1097.35 -5.23299 -0.588661 0
M  V30 11480 H 1099.84 -3.77895 -0.0189681 0
M  V30 11481 H 1100.16 -7.7057 0.586613 0
M  V30 11482 H 1098.5 -6.93047 0.520627 0
M  V30 11483 H 1101.69 -4.68061 0.0607606 0
M  V30 11484 H 1101.87 -6.47125 0.336683 0
M  V30 11485 N 1095.27 0.136881 -1.57004 0
M  V30 11486 C 1096.24 1.15267 -1.98106 0
M  V30 11487 C 1097.24 1.35305 -0.868856 0
M  V30 11488 O 1098.43 1.32126 -1.13527 0
M  V30 11489 C 1095.56 2.51092 -2.30577 0
M  V30 11490 H 1096.75 0.799821 -2.89038 0
M  V30 11491 H 1094.3 0.380576 -1.51596 0
M  V30 11492 H 1095.04 2.9133 -1.42469 0
M  V30 11493 H 1094.82 2.37906 -3.11678 0
M  V30 11494 H 1096.31 3.24232 -2.63179 0
M  V30 11495 N 1096.75 1.52266 0.40654 0
M  V30 11496 C 1098 1.66452 1.15325 0
M  V30 11497 C 1098.33 0.395728 1.90432 0
M  V30 11498 O 1097.58 -0.621382 1.85573 0
M  V30 11499 C 1097.88 2.8389 2.1712 0
M  V30 11500 C 1097.55 4.22011 1.58801 0
M  V30 11501 C 1096.21 4.59579 1.42621 0
M  V30 11502 C 1098.56 5.08074 1.16236 0
M  V30 11503 C 1095.89 5.80885 0.823967 0
M  V30 11504 C 1098.24 6.29988 0.574284 0
M  V30 11505 C 1096.9 6.66303 0.399638 0
M  V30 11506 H 1096.17 0.609092 0.422005 0
M  V30 11507 H 1098.82 1.86374 0.440131 0
M  V30 11508 H 1097.13 2.58314 2.94586 0
M  V30 11509 H 1098.82 2.92063 2.74774 0
M  V30 11510 H 1095.41 3.92408 1.72378 0
M  V30 11511 H 1099.6 4.79631 1.27544 0
M  V30 11512 H 1094.85 6.07644 0.676694 0
M  V30 11513 H 1099.03 6.96 0.236081 0
M  V30 11514 H 1096.65 7.60169 -0.0691262 0
M  V30 11515 N 1098.23 -0.663929 1.42933 0
M  V30 11516 C 1099.47 -1.42603 1.44195 0
M  V30 11517 C 1099.81 -1.94101 0.0620284 0
M  V30 11518 O 1099.08 -1.71609 -0.91546 0
M  V30 11519 C 1099.37 -2.61522 2.47544 0
M  V30 11520 C 1099.22 -2.15587 3.94769 0
M  V30 11521 C 1100.54 -3.6374 2.47753 0
M  V30 11522 H 1097.66 -0.517189 0.525056 0
M  V30 11523 H 1100.3 -0.75361 1.74415 0
M  V30 11524 H 1098.45 -3.1889 2.21904 0
M  V30 11525 H 1100.12 -1.63303 4.31428 0
M  V30 11526 H 1098.36 -1.47057 4.08114 0
M  V30 11527 H 1099.03 -3.01053 4.62678 0
M  V30 11528 H 1101.51 -3.16111 2.70579 0
M  V30 11529 H 1100.39 -4.44512 3.22025 0
M  V30 11530 H 1100.65 -4.15607 1.50742 0
M  V30 11531 N 1099.71 -1.29285 -0.901281 0
M  V30 11532 C 1100.95 -1.16934 -1.64836 0
M  V30 11533 C 1101.28 0.279826 -1.92982 0
M  V30 11534 O 1100.55 1.19179 -1.55478 0
M  V30 11535 H 1099.13 -0.429768 -0.61099 0
M  V30 11536 H 1101.79 -1.62189 -1.08077 0
M  V30 11537 H 1100.88 -1.71821 -2.60545 0
M  V30 11538 N 1101.18 1.11143 -1.11736 0
M  V30 11539 C 1102.43 1.82586 -0.866412 0
M  V30 11540 C 1102.75 1.85227 0.609593 0
M  V30 11541 O 1102.02 1.32505 1.44288 0
M  V30 11542 H 1100.6 0.676149 -0.31754 0
M  V30 11543 H 1103.27 1.34516 -1.41037 0
M  V30 11544 H 1102.36 2.8635 -1.24136 0
M  V30 11545 N 1102.66 0.908147 1.28804 0
M  V30 11546 C 1103.9 0.545425 1.96989 0
M  V30 11547 C 1104.27 -0.893226 1.69957 0
M  V30 11548 O 1105.47 -1.36324 2.31666 0
M  V30 11549 C 1103.74 0.83953 3.474 0
M  V30 11550 S 1105.3 0.582385 4.34918 0
M  V30 11551 H 1102.12 0.202027 0.681693 0
M  V30 11552 H 1104.72 1.1724 1.56445 0
M  V30 11553 H 1103.42 1.88463 3.64568 0
M  V30 11554 H 1102.95 0.200999 3.92886 0
M  V30 11555 H 1104.97 -0.568807 4.92929 0
M  V30 11556 N 1104.14 -1.42577 0.671525 0
M  V30 11557 C 1105.39 -2.01185 0.192051 0
M  V30 11558 C 1105.71 -1.53349 -1.20454 0
M  V30 11559 O 1104.98 -0.753781 -1.80817 0
M  V30 11560 H 1103.56 -0.743898 0.0680106 0
M  V30 11561 H 1106.22 -1.74539 0.8673 0
M  V30 11562 H 1105.32 -3.11516 0.190796 0
M  V30 11563 N 1105.62 -0.414636 -1.52048 0
M  V30 11564 C 1106.55 0.399119 -2.30064 0
M  V30 11565 C 1107.53 1.04126 -1.34506 0
M  V30 11566 O 1108.71 1.04923 -1.63416 0
M  V30 11567 C 1105.84 1.51305 -3.12608 0
M  V30 11568 C 1104.8 0.995621 -4.16259 0
M  V30 11569 C 1104.12 2.20357 -4.87183 0
M  V30 11570 C 1105.42 0.0458178 -5.2228 0
M  V30 11571 H 1107.12 -0.251879 -2.98339 0
M  V30 11572 H 1104.66 -0.122579 -1.43477 0
M  V30 11573 H 1106.62 2.08936 -3.65956 0
M  V30 11574 H 1105.34 2.19201 -2.42113 0
M  V30 11575 H 1104 0.441676 -3.6393 0
M  V30 11576 H 1103.65 2.8682 -4.13211 0
M  V30 11577 H 1103.35 1.86385 -5.57256 0
M  V30 11578 H 1104.87 2.78584 -5.43345 0
M  V30 11579 H 1106.29 0.531102 -5.70835 0
M  V30 11580 H 1104.68 -0.20536 -5.99749 0
M  V30 11581 H 1105.75 -0.897807 -4.76516 0
M  V30 11582 N 1107.1 1.56929 -0.145233 0
M  V30 11583 C 1108.06 2.15483 0.781002 0
M  V30 11584 C 1109.06 1.09617 1.17647 0
M  V30 11585 O 1110.25 1.35265 1.09768 0
M  V30 11586 C 1107.38 2.7165 2.05959 0
M  V30 11587 H 1108.57 2.98667 0.271685 0
M  V30 11588 H 1106.13 1.55952 0.1042 0
M  V30 11589 H 1106.86 1.92127 2.61262 0
M  V30 11590 H 1106.65 3.491 1.78526 0
M  V30 11591 H 1108.14 3.16769 2.72116 0
M  V30 11592 N 1108.58 -0.128553 1.57075 0
M  V30 11593 C 1109.85 -0.867766 1.75297 0
M  V30 11594 C 1110.23 -1.98508 0.718176 0
M  V30 11595 O 1109.58 -2.2702 -0.259616 0
M  V30 11596 C 1109.79 -1.39326 3.19983 0
M  V30 11597 C 1111.14 -1.84939 3.82208 0
M  V30 11598 O 1112.16 -1.49027 3.23527 0
M  V30 11599 O 1111.02 -2.51227 4.85332 0
M  V30 11600 H 1108.12 -0.411393 0.717415 0
M  V30 11601 H 1110.66 -0.113038 1.69323 0
M  V30 11602 H 1109.43 -0.591172 3.86809 0
M  V30 11603 H 1109.06 -2.21097 3.30457 0
M  V30 11604 N 1110.05 -1.5248 -0.398459 0
M  V30 11605 C 1111.33 -1.57634 -1.15805 0
M  V30 11606 C 1111.71 -0.363785 -2.07942 0
M  V30 11607 O 1111.06 0.648598 -2.19101 0
M  V30 11608 C 1111.27 -2.91042 -1.92602 0
M  V30 11609 C 1112.62 -3.44433 -2.48296 0
M  V30 11610 O 1113.64 -2.92853 -2.0277 0
M  V30 11611 O 1112.5 -4.34529 -3.31432 0
M  V30 11612 H 1109.59 -0.63539 -0.529347 0
M  V30 11613 H 1112.14 -1.64812 -0.404376 0
M  V30 11614 H 1110.91 -3.7074 -1.25169 0
M  V30 11615 H 1110.53 -2.87206 -2.74952 0
M  V30 11616 N 1111.53 0.65634 -1.43283 0
M  V30 11617 C 1112.78 1.41837 -1.44949 0
M  V30 11618 C 1113.11 1.94065 -0.0723212 0
M  V30 11619 O 1112.39 1.72092 0.906346 0
M  V30 11620 C 1112.67 2.60206 -2.48927 0
M  V30 11621 C 1112.52 2.1349 -3.95907 0
M  V30 11622 C 1113.84 3.62421 -2.49678 0
M  V30 11623 H 1110.96 0.514398 -0.527792 0
M  V30 11624 H 1113.6 0.74435 -1.74813 0
M  V30 11625 H 1111.75 3.17708 -2.23592 0
M  V30 11626 H 1113.42 1.61012 -4.32288 0
M  V30 11627 H 1111.67 1.4489 -4.08888 0
M  V30 11628 H 1112.34 2.98596 -4.64268 0
M  V30 11629 H 1114.81 3.14671 -2.72252 0
M  V30 11630 H 1113.69 4.42798 -3.24378 0
M  V30 11631 H 1113.95 4.14802 -1.52944 0
M  V30 11632 N 1113.01 1.29761 0.894412 0
M  V30 11633 C 1113.94 1.17902 2.01547 0
M  V30 11634 C 1114.92 0.0719402 1.69948 0
M  V30 11635 O 1116.11 0.252338 1.92554 0
M  V30 11636 C 1113.24 0.860262 3.36477 0
M  V30 11637 C 1112.19 1.92424 3.82305 0
M  V30 11638 C 1111.52 1.45868 5.14419 0
M  V30 11639 C 1112.82 3.33391 4.02054 0
M  V30 11640 H 1114.51 2.11688 2.11727 0
M  V30 11641 H 1112.06 1.01916 1.01731 0
M  V30 11642 H 1114.01 0.763987 4.14417 0
M  V30 11643 H 1112.73 -0.113289 3.26403 0
M  V30 11644 H 1111.39 2.00999 3.06586 0
M  V30 11645 H 1111.04 0.473654 5.00765 0
M  V30 11646 H 1110.74 2.17028 5.46052 0
M  V30 11647 H 1112.26 1.37601 5.94894 0
M  V30 11648 H 1113.68 3.27628 4.7046 0
M  V30 11649 H 1112.07 4.02555 4.4505 0
M  V30 11650 H 1113.14 3.75978 3.06216 0
M  V30 11651 N 1114.49 -1.10549 1.12324 0
M  V30 11652 C 1115.73 -1.82755 0.879117 0
M  V30 11653 C 1116.07 -1.84905 -0.593604 0
M  V30 11654 O 1115.34 -1.30884 -1.43873 0
M  V30 11655 C 1115.62 -3.29481 1.45308 0
M  V30 11656 C 1115.48 -3.3567 2.99408 0
M  V30 11657 C 1116.8 -4.25828 1.11167 0
M  V30 11658 H 1113.92 -0.663513 0.32081 0
M  V30 11659 H 1116.56 -1.29572 1.38965 0
M  V30 11660 H 1114.71 -3.74902 1.01887 0
M  V30 11661 H 1116.38 -2.98739 3.515 0
M  V30 11662 H 1114.62 -2.75606 3.34998 0
M  V30 11663 H 1115.29 -4.38983 3.34661 0
M  V30 11664 H 1117.77 -3.88635 1.48667 0
M  V30 11665 H 1116.65 -5.26857 1.53991 0
M  V30 11666 H 1116.91 -4.42094 0.0237046 0
M  V30 11667 N 1115.97 -0.914965 -1.28321 0
M  V30 11668 C 1116.88 -0.409424 -2.31 0
M  V30 11669 C 1117.89 0.503526 -1.66555 0
M  V30 11670 O 1119.07 0.38942 -1.97599 0
M  V30 11671 C 1116.13 0.34123 -3.45017 0
M  V30 11672 C 1115.19 -0.605087 -4.25014 0
M  V30 11673 C 1114.43 0.109837 -5.33587 0
M  V30 11674 O 1114.65 1.33136 -5.54645 0
M  V30 11675 O 1113.58 -0.555474 -5.99331 0
M  V30 11676 H 1117.41 -1.26167 -2.76253 0
M  V30 11677 H 1114.99 -0.679831 -1.33036 0
M  V30 11678 H 1116.88 0.765132 -4.14396 0
M  V30 11679 H 1115.55 1.16929 -3.01843 0
M  V30 11680 H 1114.46 -1.07841 -3.58219 0
M  V30 11681 H 1115.79 -1.39999 -4.7187 0
M  V30 11682 N 1117.44 1.42219 -0.679077 0
M  V30 11683 C 1118.85 1.8459 -0.279877 0
M  V30 11684 C 1119.21 1.56839 1.17881 0
M  V30 11685 O 1118.33 1.03039 1.90294 0
M  V30 11686 C 1118.93 3.35072 -0.501185 0
M  V30 11687 C 1117.48 3.76076 -0.156065 0
M  V30 11688 C 1116.63 2.65763 -0.791549 0
M  V30 11689 H 1119.58 1.32005 -0.880932 0
M  V30 11690 H 1119.6 3.79708 0.245349 0
M  V30 11691 H 1119.12 3.55239 -1.56291 0
M  V30 11692 H 1117.22 3.61516 0.90205 0
M  V30 11693 H 1117.33 4.75334 -0.599572 0
M  V30 11694 H 1115.69 2.53726 -0.222514 0
M  V30 11695 H 1116.48 2.88751 -1.85682 0
M  V30 11696 N 1118.92 0.422693 1.51826 0
M  V30 11697 C 1120.2 -0.20786 1.94492 0
M  V30 11698 C 1120.58 -1.61414 1.36047 0
M  V30 11699 O 1119.93 -2.21987 0.541657 0
M  V30 11700 C 1120.14 -0.200457 3.48424 0
M  V30 11701 C 1121.48 -0.413199 4.22585 0
M  V30 11702 O 1122.51 -0.27922 3.55104 0
M  V30 11703 O 1121.37 -0.678469 5.42272 0
M  V30 11704 H 1118.46 -0.137851 0.81543 0
M  V30 11705 H 1121.01 0.479617 1.62781 0
M  V30 11706 H 1119.78 0.783263 3.83381 0
M  V30 11707 H 1119.4 -0.931464 3.86535 0
M  V30 11708 N 1120.4 -1.5685 0.153553 0
M  V30 11709 C 1121.63 -2.00701 -0.502678 0
M  V30 11710 C 1122.04 -1.0337 -1.57988 0
M  V30 11711 O 1121.4 -0.0317233 -1.82472 0
M  V30 11712 C 1121.45 -3.44443 -1.09732 0
M  V30 11713 O 1121.17 -4.38054 -0.0631405 0
M  V30 11714 C 1122.67 -4.03605 -1.83352 0
M  V30 11715 H 1119.89 -0.658229 -0.130289 0
M  V30 11716 H 1122.44 -2.02965 0.250063 0
M  V30 11717 H 1120.59 -3.43009 -1.80065 0
M  V30 11718 H 1121.01 -5.22114 -0.499681 0
M  V30 11719 H 1122.48 -5.0616 -2.20241 0
M  V30 11720 H 1122.96 -3.44687 -2.7219 0
M  V30 11721 H 1123.56 -4.08688 -1.17703 0
M  V30 11722 N 1121.88 0.120221 -1.57141 0
M  V30 11723 C 1122.83 1.16654 -2.01233 0
M  V30 11724 C 1123.82 1.42943 -0.909053 0
M  V30 11725 O 1125.03 1.4292 -1.09426 0
M  V30 11726 H 1121.4 0.393289 -0.640958 0
M  V30 11727 H 1123.37 0.768156 -2.88343 0
M  V30 11728 C 1122.12 2.4854 -2.43152 0
M  V30 11729 H 1121.44 2.29149 -3.27614 0
M  V30 11730 H 1122.88 3.20315 -2.77802 0
M  V30 11731 C 1121.34 3.1103 -1.29468 0
M  V30 11732 O 1121.87 3.97042 -0.609982 0
M  V30 11733 N 1120.08 2.70888 -1.05205 0
M  V30 11734 H 1119.63 2.01039 -1.61062 0
M  V30 11735 H 1119.58 3.13028 -0.293347 0
M  V30 11736 N 1123.36 1.52689 0.390367 0
M  V30 11737 C 1124.32 1.76726 1.45947 0
M  V30 11738 C 1125.32 0.637269 1.47633 0
M  V30 11739 O 1126.51 0.905312 1.48828 0
M  V30 11740 C 1123.64 1.86678 2.85244 0
M  V30 11741 H 1124.83 2.72185 1.25918 0
M  V30 11742 H 1122.39 1.4339 0.622023 0
M  V30 11743 H 1123.12 0.931991 3.10619 0
M  V30 11744 H 1122.91 2.68843 2.85422 0
M  V30 11745 H 1124.4 2.06952 3.62713 0
M  V30 11746 N 1124.83 -0.648732 1.43629 0
M  V30 11747 C 1126.08 -1.40579 1.45196 0
M  V30 11748 C 1126.4 -1.9484 0.0790556 0
M  V30 11749 O 1125.67 -1.74707 -0.886239 0
M  V30 11750 H 1124.25 -0.52175 0.53459 0
M  V30 11751 H 1126.92 -0.764796 1.79268 0
M  V30 11752 H 1126.01 -2.24591 2.16715 0
M  V30 11753 N 1126.31 -1.30234 -0.887518 0
M  V30 11754 C 1127.56 -1.1891 -1.6391 0
M  V30 11755 C 1127.89 0.256749 -1.92798 0
M  V30 11756 O 1127.14 1.20047 -1.54555 0
M  V30 11757 C 1127.44 -1.96046 -2.98832 0
M  V30 11758 C 1127.11 -3.45683 -2.89507 0
M  V30 11759 C 1125.77 -3.86489 -2.8667 0
M  V30 11760 C 1128.12 -4.40983 -2.7782 0
M  V30 11761 C 1125.45 -5.2089 -2.69982 0
M  V30 11762 C 1127.8 -5.75489 -2.6267 0
M  V30 11763 C 1126.47 -6.15537 -2.58207 0
M  V30 11764 H 1125.74 -0.435123 -0.599791 0
M  V30 11765 H 1128.38 -1.61308 -1.03209 0
M  V30 11766 H 1126.69 -1.46275 -3.6347 0
M  V30 11767 H 1128.38 -1.84678 -3.55942 0
M  V30 11768 H 1124.97 -3.13255 -2.92523 0
M  V30 11769 H 1129.16 -4.10401 -2.79079 0
M  V30 11770 H 1124.41 -5.51014 -2.6494 0
M  V30 11771 H 1128.59 -6.48973 -2.526 0
M  V30 11772 H 1126.22 -7.19627 -2.45034 0
M  V30 11773 N 1127.79 1.09952 -1.12909 0
M  V30 11774 C 1128.72 2.15689 -0.745217 0
M  V30 11775 C 1129.7 1.60409 0.266007 0
M  V30 11776 O 1130.89 1.8783 0.158783 0
M  V30 11777 C 1128.01 3.38541 -0.103846 0
M  V30 11778 C 1127.06 4.12529 -1.0827 0
M  V30 11779 S 1127.89 4.67442 -2.61262 0
M  V30 11780 C 1129.05 5.936 -1.9847 0
M  V30 11781 H 1129.28 2.47918 -1.64086 0
M  V30 11782 H 1126.81 1.21817 -0.948682 0
M  V30 11783 H 1128.77 4.09677 0.259816 0
M  V30 11784 H 1127.43 3.04541 0.768982 0
M  V30 11785 H 1126.63 5.00632 -0.581653 0
M  V30 11786 H 1126.23 3.47228 -1.38955 0
M  V30 11787 H 1128.52 6.64308 -1.33048 0
M  V30 11788 H 1129.46 6.48374 -2.84634 0
M  V30 11789 H 1129.87 5.45864 -1.43848 0
M  V30 11790 N 1129.27 0.921757 1.27833 0
M  V30 11791 C 1130.22 0.414838 2.27041 0
M  V30 11792 C 1131.19 -0.515045 1.57913 0
M  V30 11793 O 1132.37 -0.435499 1.85763 0
M  V30 11794 C 1129.51 -0.331744 3.43502 0
M  V30 11795 C 1128.62 0.631565 4.27358 0
M  V30 11796 C 1127.76 -0.134265 5.3103 0
M  V30 11797 C 1126.8 0.822138 6.06554 0
M  V30 11798 N 1125.93 0.0893149 7.02043 0
M  V30 11799 H 1130.77 1.26585 2.69778 0
M  V30 11800 H 1128.31 0.635488 1.32665 0
M  V30 11801 H 1130.27 -0.780866 4.09827 0
M  V30 11802 H 1128.9 -1.14704 3.01733 0
M  V30 11803 H 1127.95 1.19922 3.61003 0
M  V30 11804 H 1129.26 1.36274 4.79824 0
M  V30 11805 H 1128.42 -0.643579 6.03277 0
M  V30 11806 H 1127.16 -0.898443 4.79353 0
M  V30 11807 H 1126.16 1.34275 5.33151 0
M  V30 11808 H 1127.39 1.586 6.6032 0
M  V30 11809 H 1125.33 -0.656725 6.52704 0
M  V30 11810 H 1125.25 0.760167 7.52169 0
M  V30 11811 H 1126.52 -0.399541 7.78475 0
M  V30 11812 N 1130.75 -1.41857 0.686609 0
M  V30 11813 C 1132.16 -1.84439 0.289662 0
M  V30 11814 C 1132.51 -1.57462 -1.17047 0
M  V30 11815 O 1131.63 -1.04046 -1.89745 0
M  V30 11816 C 1132.23 -3.34802 0.518948 0
M  V30 11817 C 1130.79 -3.75988 0.176007 0
M  V30 11818 C 1129.93 -2.65339 0.805632 0
M  V30 11819 H 1132.89 -1.31536 0.88792 0
M  V30 11820 H 1132.91 -3.79833 -0.225209 0
M  V30 11821 H 1132.42 -3.54405 1.58173 0
M  V30 11822 H 1130.52 -3.61989 -0.882865 0
M  V30 11823 H 1130.63 -4.75009 0.624772 0
M  V30 11824 H 1129 -2.53605 0.235966 0
M  V30 11825 H 1129.78 -2.87762 1.8721 0
M  V30 11826 N 1132.22 -0.430739 -1.51599 0
M  V30 11827 C 1133.15 0.374695 -2.30474 0
M  V30 11828 C 1134.14 1.02694 -1.35602 0
M  V30 11829 O 1135.32 1.03184 -1.6452 0
M  V30 11830 C 1132.45 1.47981 -3.14196 0
M  V30 11831 C 1131.4 0.951415 -4.17291 0
M  V30 11832 C 1130.73 2.15177 -4.89492 0
M  V30 11833 C 1132.03 -0.00957951 -5.22299 0
M  V30 11834 H 1133.72 -0.283508 -2.98055 0
M  V30 11835 H 1131.27 -0.13779 -1.43339 0
M  V30 11836 H 1133.22 2.05043 -3.68151 0
M  V30 11837 H 1131.95 2.16621 -2.44424 0
M  V30 11838 H 1130.61 0.403052 -3.64378 0
M  V30 11839 H 1130.25 2.82421 -4.1623 0
M  V30 11840 H 1129.95 1.80464 -5.59202 0
M  V30 11841 H 1131.48 2.72806 -5.46269 0
M  V30 11842 H 1132.89 0.470527 -5.71366 0
M  V30 11843 H 1131.29 -0.268959 -5.99497 0
M  V30 11844 H 1132.36 -0.948297 -4.75537 0
M  V30 11845 N 1133.7 1.56767 -0.161869 0
M  V30 11846 C 1134.98 1.88245 0.531352 0
M  V30 11847 C 1135.36 1.07025 1.81958 0
M  V30 11848 O 1134.71 0.161385 2.27929 0
M  V30 11849 C 1134.92 3.40117 0.782416 0
M  V30 11850 C 1136.27 4.09655 1.11661 0
M  V30 11851 O 1137.29 3.4538 0.871274 0
M  V30 11852 O 1136.15 5.23192 1.57901 0
M  V30 11853 H 1133.24 0.780725 0.272759 0
M  V30 11854 H 1135.79 1.68522 -0.199597 0
M  V30 11855 H 1134.56 3.91088 -0.128677 0
M  V30 11856 H 1134.18 3.65418 1.56702 0
M  V30 11857 N 1135.18 -0.111886 1.57202 0
M  V30 11858 C 1136.43 -0.816794 1.84859 0
M  V30 11859 C 1136.75 -1.80079 0.748113 0
M  V30 11860 O 1136.02 -1.94578 -0.227235 0
M  V30 11861 H 1134.6 -0.304633 0.682061 0
M  V30 11862 H 1137.26 -0.097513 1.94656 0
M  V30 11863 H 1136.36 -1.35768 2.81022 0
M  V30 11864 N 1136.66 -1.52894 -0.382264 0
M  V30 11865 C 1137.94 -1.58853 -1.14127 0
M  V30 11866 C 1138.32 -0.38582 -2.07544 0
M  V30 11867 O 1137.66 0.625323 -2.19777 0
M  V30 11868 C 1137.87 -2.93068 -1.89504 0
M  V30 11869 C 1139.22 -3.47048 -2.44629 0
M  V30 11870 O 1140.25 -2.94987 -1.99652 0
M  V30 11871 O 1139.1 -4.3802 -3.26804 0
M  V30 11872 H 1136.2 -0.640969 -0.522578 0
M  V30 11873 H 1138.74 -1.65231 -0.386873 0
M  V30 11874 H 1137.52 -3.72047 -1.2123 0
M  V30 11875 H 1137.14 -2.90106 -2.7189 0
M  V30 11876 N 1138.14 0.641106 -1.43971 0
M  V30 11877 C 1139.36 1.43324 -1.4991 0
M  V30 11878 C 1139.79 1.87705 -0.121908 0
M  V30 11879 O 1139.15 1.58127 0.886875 0
M  V30 11880 C 1139.19 2.63637 -2.46025 0
M  V30 11881 O 1138.3 3.63123 -1.95488 0
M  V30 11882 H 1137.64 0.429252 -0.506595 0
M  V30 11883 H 1140.17 0.783427 -1.89007 0
M  V30 11884 H 1140.18 3.11304 -2.63731 0
M  V30 11885 H 1138.85 2.30678 -3.46064 0
M  V30 11886 H 1137.43 3.22332 -1.87501 0
M  V30 11887 N 1139.62 1.30703 0.880598 0
M  V30 11888 C 1140.86 1.19541 1.62955 0
M  V30 11889 C 1141.18 -0.249089 1.93403 0
M  V30 11890 O 1140.45 -1.1669 1.57354 0
M  V30 11891 H 1139.03 0.439434 0.604075 0
M  V30 11892 H 1141.7 1.63888 1.05483 0
M  V30 11893 H 1140.79 1.75945 2.57779 0
M  V30 11894 N 1141.09 -1.09351 1.1349 0
M  V30 11895 C 1142.32 -1.85844 0.92069 0
M  V30 11896 C 1142.74 -1.80616 -0.525303 0
M  V30 11897 O 1142.1 -1.1842 -1.37282 0
M  V30 11898 C 1142.15 -3.31716 1.4141 0
M  V30 11899 O 1141.25 -4.08014 0.599838 0
M  V30 11900 H 1140.59 -0.576242 0.32991 0
M  V30 11901 H 1143.12 -1.38084 1.50976 0
M  V30 11902 H 1143.13 -3.82564 1.41805 0
M  V30 11903 H 1141.81 -3.34837 2.46692 0
M  V30 11904 H 1140.39 -3.66944 0.663816 0
M  V30 11905 N 1142.57 -0.928524 -1.27343 0
M  V30 11906 C 1143.82 -0.579726 -1.94963 0
M  V30 11907 C 1144.17 0.869595 -1.71627 0
M  V30 11908 O 1143.47 1.61223 -1.03526 0
M  V30 11909 C 1143.66 -0.84269 -3.47323 0
M  V30 11910 C 1143.49 -2.31602 -3.85474 0
M  V30 11911 C 1142.26 -2.96888 -4.08884 0
M  V30 11912 C 1144.46 -3.2936 -3.95002 0
M  V30 11913 N 1142.44 -4.34365 -4.33821 0
M  V30 11914 C 1143.81 -4.5205 -4.24324 0
M  V30 11915 C 1145.86 -3.24557 -3.7758 0
M  V30 11916 C 1144.57 -5.70539 -4.38038 0
M  V30 11917 C 1146.59 -4.4236 -3.9252 0
M  V30 11918 C 1145.96 -5.63828 -4.22229 0
M  V30 11919 H 1142.05 -0.262279 -0.736705 0
M  V30 11920 H 1144.64 -1.19531 -1.53689 0
M  V30 11921 H 1142.81 -0.256254 -3.87554 0
M  V30 11922 H 1144.54 -0.456438 -4.02118 0
M  V30 11923 H 1141.3 -2.47555 -4.03749 0
M  V30 11924 H 1141.72 -5.05488 -4.50345 0
M  V30 11925 H 1146.36 -2.31713 -3.53651 0
M  V30 11926 H 1144.08 -6.63849 -4.60793 0
M  V30 11927 H 1147.67 -4.40162 -3.80458 0
M  V30 11928 H 1146.55 -6.53463 -4.33539 0
M  V30 11929 N 1144.05 1.41491 -0.694123 0
M  V30 11930 C 1145.3 2.00854 -0.224033 0
M  V30 11931 C 1145.62 1.55246 1.17999 0
M  V30 11932 O 1144.89 0.782452 1.79595 0
M  V30 11933 H 1143.47 0.742721 -0.0798368 0
M  V30 11934 H 1146.13 1.73137 -0.894958 0
M  V30 11935 H 1145.23 3.11173 -0.240332 0
M  V30 11936 N 1145.53 0.438773 1.51369 0
M  V30 11937 C 1146.94 -0.0240139 1.86685 0
M  V30 11938 C 1147.29 -1.41816 1.35583 0
M  V30 11939 O 1146.41 -2.04517 0.707232 0
M  V30 11940 C 1147.01 -0.0503527 3.38763 0
M  V30 11941 C 1145.57 -0.457556 3.73609 0
M  V30 11942 C 1144.72 0.348852 2.75097 0
M  V30 11943 H 1147.67 0.654552 1.44573 0
M  V30 11944 H 1147.69 -0.859534 3.70665 0
M  V30 11945 H 1147.2 0.964451 3.75925 0
M  V30 11946 H 1145.3 -1.47791 3.42036 0
M  V30 11947 H 1145.41 -0.181357 4.78757 0
M  V30 11948 H 1143.78 -0.193037 2.53967 0
M  V30 11949 H 1144.56 1.36256 3.15102 0
M  V30 11950 N 1147.01 -1.56678 0.170181 0
M  V30 11951 C 1147.94 -2.20916 -0.756213 0
M  V30 11952 C 1148.92 -1.16442 -1.23997 0
M  V30 11953 O 1150.1 -1.44867 -1.29333 0
M  V30 11954 C 1147.23 -2.84901 -1.98617 0
M  V30 11955 C 1146.19 -3.95403 -1.63831 0
M  V30 11956 C 1145.51 -4.46432 -2.94282 0
M  V30 11957 C 1146.81 -5.15051 -0.867195 0
M  V30 11958 H 1148.51 -2.98585 -0.220776 0
M  V30 11959 H 1146.05 -1.43619 -0.104748 0
M  V30 11960 H 1148 -3.28514 -2.63926 0
M  V30 11961 H 1146.73 -2.04598 -2.54572 0
M  V30 11962 H 1145.39 -3.52444 -1.00891 0
M  V30 11963 H 1145.04 -3.62923 -3.48276 0
M  V30 11964 H 1144.74 -5.20979 -2.71762 0
M  V30 11965 H 1146.26 -4.92731 -3.60622 0
M  V30 11966 H 1147.67 -5.55363 -1.42285 0
M  V30 11967 H 1146.07 -5.95507 -0.741065 0
M  V30 11968 H 1147.14 -4.84707 0.136693 0
M  V30 11969 N 1148.48 0.103547 -1.57259 0
M  V30 11970 C 1149.73 0.806979 -1.8529 0
M  V30 11971 C 1150.05 1.79679 -0.757653 0
M  V30 11972 O 1149.32 1.94695 0.216913 0
M  V30 11973 H 1147.9 0.301012 -0.683667 0
M  V30 11974 H 1150.56 0.0871886 -1.94705 0
M  V30 11975 H 1149.66 1.34275 -2.81738 0
M  V30 11976 N 1149.96 1.53094 0.37415 0
M  V30 11977 C 1151.37 1.60641 0.951381 0
M  V30 11978 C 1151.72 0.468474 1.90525 0
M  V30 11979 O 1150.85 -0.406347 2.12551 0
M  V30 11980 C 1151.44 2.91166 1.73228 0
M  V30 11981 C 1150 3.01077 2.25898 0
M  V30 11982 C 1149.15 2.55873 1.06885 0
M  V30 11983 H 1152.1 1.57959 0.153214 0
M  V30 11984 H 1152.12 2.78487 2.59278 0
M  V30 11985 H 1151.63 3.73968 1.03778 0
M  V30 11986 H 1149.73 2.22844 2.98615 0
M  V30 11987 H 1149.85 4.05998 2.54367 0
M  V30 11988 H 1148.21 2.10544 1.43329 0
M  V30 11989 H 1148.99 3.41084 0.38947 0
M  V30 11990 N 1151.44 -0.633461 1.44309 0
M  V30 11991 C 1152.37 -1.75676 1.53819 0
M  V30 11992 C 1153.35 -1.65537 0.391365 0
M  V30 11993 O 1154.54 -1.84332 0.611181 0
M  V30 11994 C 1151.67 -3.14197 1.47979 0
M  V30 11995 C 1150.62 -3.39122 2.61113 0
M  V30 11996 C 1149.95 -4.77648 2.40325 0
M  V30 11997 C 1151.25 -3.31914 4.03274 0
M  V30 11998 H 1152.94 -1.67974 2.47841 0
M  V30 11999 H 1150.49 -0.8067 1.19283 0
M  V30 12000 H 1152.44 -3.92553 1.53233 0
M  V30 12001 H 1151.16 -3.22677 0.504718 0
M  V30 12002 H 1149.82 -2.63145 2.55245 0
M  V30 12003 H 1149.47 -4.82829 1.41016 0
M  V30 12004 H 1149.17 -4.95284 3.16177 0
M  V30 12005 H 1150.69 -5.58237 2.47394 0
M  V30 12006 H 1152.11 -4.00178 4.10524 0
M  V30 12007 H 1150.5 -3.61085 4.7931 0
M  V30 12008 H 1151.57 -2.29761 4.2701 0
M  V30 12009 N 1152.92 -1.31168 -0.873655 0
M  V30 12010 C 1154.17 -1.20404 -1.62319 0
M  V30 12011 C 1154.49 0.238829 -1.93532 0
M  V30 12012 O 1153.76 1.15854 -1.57971 0
M  V30 12013 H 1152.34 -0.442632 -0.601736 0
M  V30 12014 H 1155 -1.64445 -1.04613 0
M  V30 12015 H 1154.1 -1.77309 -2.56842 0
M  V30 12016 N 1154.4 1.08748 -1.14068 0
M  V30 12017 C 1155.64 1.80707 -0.904947 0
M  V30 12018 C 1155.97 1.86478 0.570167 0
M  V30 12019 O 1155.24 1.35536 1.41445 0
M  V30 12020 H 1153.82 0.669261 -0.331811 0
M  V30 12021 H 1156.48 1.31494 -1.43859 0
M  V30 12022 H 1155.57 2.83653 -1.30182 0
M  V30 12023 N 1155.87 0.935264 1.26849 0
M  V30 12024 C 1157.12 0.580548 1.94313 0
M  V30 12025 C 1157.45 -0.877205 1.73259 0
M  V30 12026 O 1156.73 -1.62679 1.06611 0
M  V30 12027 C 1157.01 0.916445 3.48243 0
M  V30 12028 C 1156.86 2.42851 3.78607 0
M  V30 12029 C 1158.18 0.427665 4.38017 0
M  V30 12030 H 1155.3 0.21239 0.705733 0
M  V30 12031 H 1157.94 1.16841 1.49827 0
M  V30 12032 H 1156.09 0.416169 3.86265 0
M  V30 12033 H 1157.77 3.00106 3.50335 0
M  V30 12034 H 1156.01 2.8745 3.24892 0
M  V30 12035 H 1156.68 2.61405 4.8618 0
M  V30 12036 H 1159.16 0.856525 4.07189 0
M  V30 12037 H 1158.03 0.691571 5.44526 0
M  V30 12038 H 1158.29 -0.672344 4.36958 0
M  V30 12039 N 1157.35 -1.41121 0.701616 0
M  V30 12040 C 1158.3 -2.32582 0.0288052 0
M  V30 12041 C 1159.29 -1.5129 -0.762074 0
M  V30 12042 O 1160.5 -1.67185 -0.667014 0
M  V30 12043 H 1156.88 -0.75194 -0.00948675 0
M  V30 12044 H 1158.85 -2.86994 0.817141 0
M  V30 12045 C 1157.6 -3.36137 -0.889217 0
M  V30 12046 H 1156.92 -3.98746 -0.290062 0
M  V30 12047 H 1158.36 -4.0266 -1.32819 0
M  V30 12048 C 1156.82 -2.70504 -2.00821 0
M  V30 12049 O 1157.35 -2.55753 -3.09763 0
M  V30 12050 N 1155.55 -2.29105 -1.78772 0
M  V30 12051 H 1155.1 -2.41303 -0.901708 0
M  V30 12052 H 1155.06 -1.85527 -2.53825 0
M  V30 12053 N 1158.83 -0.446794 -1.51134 0
M  V30 12054 C 1160.24 0.0141132 -1.86695 0
M  V30 12055 C 1160.59 1.41095 -1.36333 0
M  V30 12056 O 1159.72 2.04139 -0.718068 0
M  V30 12057 C 1160.31 0.0323866 -3.38785 0
M  V30 12058 C 1158.87 0.437737 -3.73846 0
M  V30 12059 C 1158.02 -0.363436 -2.74908 0
M  V30 12060 H 1160.97 -0.66221 -1.44224 0
M  V30 12061 H 1160.99 0.839865 -3.71115 0
M  V30 12062 H 1160.5 -0.984374 -3.75409 0
M  V30 12063 H 1158.6 1.45975 -3.42815 0
M  V30 12064 H 1158.72 0.155964 -4.78846 0
M  V30 12065 H 1157.08 0.179566 -2.54066 0
M  V30 12066 H 1157.86 -1.37925 -3.14375 0
M  V30 12067 N 1160.31 1.56586 -0.178487 0
M  V30 12068 C 1161.55 1.9739 0.465306 0
M  V30 12069 C 1161.89 1.06474 1.6241 0
M  V30 12070 O 1161.16 0.113316 1.9417 0
M  V30 12071 C 1161.45 3.47577 0.941408 0
M  V30 12072 C 1161.3 4.49271 -0.218054 0
M  V30 12073 C 1162.62 4.01038 1.81263 0
M  V30 12074 H 1159.74 0.717676 0.167663 0
M  V30 12075 H 1162.38 1.88128 -0.266067 0
M  V30 12076 H 1160.53 3.556 1.56463 0
M  V30 12077 H 1162.2 4.53301 -0.855332 0
M  V30 12078 H 1160.44 4.24936 -0.872441 0
M  V30 12079 H 1161.11 5.51776 0.157315 0
M  V30 12080 H 1163.59 3.9569 1.28718 0
M  V30 12081 H 1162.47 5.06526 2.11476 0
M  V30 12082 H 1162.73 3.45288 2.76096 0
M  V30 12083 N 1161.79 -0.095206 1.57312 0
M  V30 12084 C 1163.03 -0.797142 1.85715 0
M  V30 12085 C 1163.36 -1.79275 0.767171 0
M  V30 12086 O 1162.63 -1.94808 -0.206584 0
M  V30 12087 H 1161.21 -0.297382 0.685254 0
M  V30 12088 H 1163.87 -0.0768617 1.94748 0
M  V30 12089 H 1162.96 -1.32779 2.82447 0
M  V30 12090 N 1163.26 -1.53291 -0.366026 0
M  V30 12091 C 1164.51 -1.69451 -1.10872 0
M  V30 12092 C 1164.84 -0.446078 -1.89316 0
M  V30 12093 O 1164.09 0.571962 -1.87155 0
M  V30 12094 C 1164.39 -2.89547 -2.09517 0
M  V30 12095 C 1164.06 -4.26073 -1.47556 0
M  V30 12096 C 1162.72 -4.63199 -1.30386 0
M  V30 12097 C 1165.07 -5.10977 -1.02724 0
M  V30 12098 C 1162.4 -5.82866 -0.669666 0
M  V30 12099 C 1164.75 -6.31289 -0.407052 0
M  V30 12100 C 1163.42 -6.67128 -0.222839 0
M  V30 12101 H 1162.69 -0.620066 -0.405708 0
M  V30 12102 H 1165.33 -1.87475 -0.390563 0
M  V30 12103 H 1163.64 -2.66034 -2.87634 0
M  V30 12104 H 1165.34 -2.99245 -2.66933 0
M  V30 12105 H 1161.93 -3.9684 -1.61914 0
M  V30 12106 H 1166.11 -4.82844 -1.14783 0
M  V30 12107 H 1161.37 -6.09224 -0.515351 0
M  V30 12108 H 1165.54 -6.96381 -0.0514661 0
M  V30 12109 H 1163.17 -7.59718 0.270647 0
M  V30 12110 N 1164.74 0.6258 -1.44643 0
M  V30 12111 C 1165.97 1.41233 -1.51198 0
M  V30 12112 C 1166.39 1.88291 -0.138572 0
M  V30 12113 O 1165.74 1.61151 0.856537 0
M  V30 12114 C 1165.79 2.62908 -2.48117 0
M  V30 12115 O 1165.51 2.1781 -3.80119 0
M  V30 12116 C 1167.02 3.55976 -2.6419 0
M  V30 12117 H 1164.24 0.432954 -0.512632 0
M  V30 12118 H 1166.78 0.76486 -1.89658 0
M  V30 12119 H 1164.93 3.23735 -2.12778 0
M  V30 12120 H 1165.35 2.96732 -4.32493 0
M  V30 12121 H 1166.82 4.37943 -3.3602 0
M  V30 12122 H 1167.3 4.05133 -1.696 0
M  V30 12123 H 1167.91 3.01014 -3.00451 0
M  V30 12124 N 1166.22 1.31629 0.866686 0
M  V30 12125 C 1167.63 1.19347 1.43573 0
M  V30 12126 C 1167.98 -0.198765 1.95191 0
M  V30 12127 O 1167.11 -1.09674 1.86549 0
M  V30 12128 C 1167.7 2.16055 2.6097 0
M  V30 12129 C 1166.26 2.07697 3.13909 0
M  V30 12130 C 1165.41 2.05099 1.86627 0
M  V30 12131 H 1168.36 1.43633 0.674929 0
M  V30 12132 H 1168.38 1.75207 3.37761 0
M  V30 12133 H 1167.89 3.17375 2.23371 0
M  V30 12134 H 1165.99 1.09583 3.56121 0
M  V30 12135 H 1166.11 2.96958 3.75969 0
M  V30 12136 H 1164.47 1.50162 2.05727 0
M  V30 12137 H 1165.25 3.0818 1.51261 0
M  V30 12138 N 1167.7 -1.08142 1.14644 0
M  V30 12139 C 1168.65 -2.17229 0.831513 0
M  V30 12140 C 1169.64 -1.68311 -0.19173 0
M  V30 12141 O 1170.85 -1.79937 -0.0475596 0
M  V30 12142 H 1167.22 -0.708807 0.25119 0
M  V30 12143 H 1169.19 -2.41014 1.75939 0
M  V30 12144 C 1167.94 -3.46146 0.328347 0
M  V30 12145 H 1167.27 -3.84166 1.10708 0
M  V30 12146 H 1168.71 -4.23747 0.146568 0
M  V30 12147 C 1167.16 -3.2327 -0.948594 0
M  V30 12148 O 1167.69 -3.47111 -2.0218 0
M  V30 12149 N 1165.9 -2.76799 -0.884909 0
M  V30 12150 H 1165.45 -2.57597 -0.011399 0
M  V30 12151 H 1165.41 -2.61871 -1.73985 0
M  V30 12152 N 1169.18 -0.941978 -1.26351 0
M  V30 12153 C 1170.43 -0.588806 -1.93333 0
M  V30 12154 C 1170.75 0.875067 -1.74263 0
M  V30 12155 O 1170.02 1.62187 -1.09873 0
M  V30 12156 H 1168.6 -0.214774 -0.715459 0
M  V30 12157 H 1171.26 -1.19747 -1.53774 0
M  V30 12158 H 1170.35 -0.807267 -3.01479 0
M  V30 12159 N 1170.66 1.40747 -0.709091 0
M  V30 12160 C 1171.9 2.013 -0.246174 0
M  V30 12161 C 1172.23 1.56078 1.15556 0
M  V30 12162 O 1171.51 0.777941 1.78265 0
M  V30 12163 C 1171.79 3.58685 -0.318945 0
M  V30 12164 C 1171.65 4.13997 -1.75859 0
M  V30 12165 C 1172.96 4.38981 0.31358 0
M  V30 12166 H 1170.08 0.73137 -0.0909255 0
M  V30 12167 H 1172.73 1.67312 -0.900365 0
M  V30 12168 H 1170.88 3.8777 0.23805 0
M  V30 12169 H 1172.55 3.95735 -2.37047 0
M  V30 12170 H 1170.79 3.6853 -2.28841 0
M  V30 12171 H 1171.46 5.23158 -1.76095 0
M  V30 12172 H 1173.94 4.15789 -0.160939 0
M  V30 12173 H 1172.81 5.48409 0.232184 0
M  V30 12174 H 1173.07 4.19474 1.39621 0
M  V30 12175 N 1172.13 0.454803 1.50895 0
M  V30 12176 C 1173.54 -0.00421212 1.867 0
M  V30 12177 C 1173.9 -1.4037 1.3708 0
M  V30 12178 O 1173.02 -2.03755 0.728884 0
M  V30 12179 C 1173.62 -0.0144196 3.38797 0
M  V30 12180 C 1172.17 -0.417905 3.74073 0
M  V30 12181 C 1171.32 0.37801 2.74711 0
M  V30 12182 H 1174.27 0.669849 1.4387 0
M  V30 12183 H 1174.29 -0.820172 3.71555 0
M  V30 12184 H 1173.81 1.00427 3.74881 0
M  V30 12185 H 1171.91 -1.44155 3.43584 0
M  V30 12186 H 1172.02 -0.130568 4.78922 0
M  V30 12187 H 1170.38 -0.166089 2.54158 0
M  V30 12188 H 1171.17 1.3959 3.13639 0
M  V30 12189 N 1173.61 -1.56489 0.186789 0
M  V30 12190 C 1174.52 -2.22304 -0.749543 0
M  V30 12191 C 1175.54 -1.21949 -1.24115 0
M  V30 12192 O 1176.71 -1.5466 -1.29005 0
M  V30 12193 C 1173.78 -2.863 -1.95533 0
M  V30 12194 C 1172.84 -4.01901 -1.5091 0
M  V30 12195 C 1172.07 -4.62837 -2.6574 0
M  V30 12196 O 1172.3 -4.22681 -3.8301 0
M  V30 12197 O 1171.23 -5.52446 -2.38929 0
M  V30 12198 H 1175.06 -3.02909 -0.21908 0
M  V30 12199 H 1172.64 -1.49341 -0.0421249 0
M  V30 12200 H 1174.52 -3.2682 -2.6602 0
M  V30 12201 H 1173.2 -2.08681 -2.47455 0
M  V30 12202 H 1172.1 -3.66021 -0.773261 0
M  V30 12203 H 1173.44 -4.8116 -1.03663 0
M  V30 12204 N 1175.09 0.086862 -1.5736 0
M  V30 12205 C 1176.04 1.11134 -1.99081 0
M  V30 12206 C 1177.02 1.35318 -0.870506 0
M  V30 12207 O 1178.22 1.35871 -1.13437 0
M  V30 12208 C 1175.34 2.42931 -2.42569 0
M  V30 12209 C 1174.43 2.22085 -3.61302 0
M  V30 12210 N 1174.82 1.71128 -4.75971 0
M  V30 12211 C 1173.12 2.52619 -3.67559 0
M  V30 12212 C 1173.82 1.64745 -5.57883 0
M  V30 12213 N 1172.8 2.10257 -5.01291 0
M  V30 12214 H 1176.6 0.710431 -2.85184 0
M  V30 12215 H 1174.11 0.294168 -1.59714 0
M  V30 12216 H 1176.11 3.17069 -2.7069 0
M  V30 12217 H 1174.77 2.83751 -1.57846 0
M  V30 12218 H 1175.78 1.40207 -4.9856 0
M  V30 12219 H 1172.46 2.96908 -2.93516 0
M  V30 12220 H 1173.85 1.26329 -6.59917 0
M  V30 12221 N 1176.57 1.53483 0.357892 0
M  V30 12222 C 1177.8 1.73956 1.12013 0
M  V30 12223 C 1178.21 0.472053 1.82803 0
M  V30 12224 O 1177.57 -0.555499 1.7384 0
M  V30 12225 C 1177.62 2.91015 2.14459 0
M  V30 12226 O 1177.34 4.12862 1.4655 0
M  V30 12227 C 1178.84 3.23423 3.0317 0
M  V30 12228 H 1176.06 0.58161 0.334621 0
M  V30 12229 H 1178.6 2.00256 0.414467 0
M  V30 12230 H 1176.76 2.67087 2.80612 0
M  V30 12231 H 1177.17 4.78468 2.14869 0
M  V30 12232 H 1178.65 4.08717 3.71018 0
M  V30 12233 H 1179.12 2.39114 3.68404 0
M  V30 12234 H 1179.73 3.49305 2.42624 0
M  V30 12235 N 1178.05 -0.61812 1.44973 0
M  V30 12236 C 1179.29 -1.37944 1.48658 0
M  V30 12237 C 1179.62 -1.93805 0.123749 0
M  V30 12238 O 1178.9 -1.74434 -0.860401 0
M  V30 12239 C 1179.18 -2.53515 2.55739 0
M  V30 12240 C 1179.04 -2.02918 4.01428 0
M  V30 12241 C 1180.35 -3.55674 2.59199 0
M  V30 12242 H 1177.47 -0.500223 0.541244 0
M  V30 12243 H 1180.12 -0.69774 1.76725 0
M  V30 12244 H 1178.27 -3.11669 2.31937 0
M  V30 12245 H 1179.94 -1.49494 4.36405 0
M  V30 12246 H 1178.18 -1.33999 4.12586 0
M  V30 12247 H 1178.85 -2.86181 4.72021 0
M  V30 12248 H 1181.33 -3.07343 2.80499 0
M  V30 12249 H 1180.2 -4.34042 3.36004 0
M  V30 12250 H 1180.46 -4.10601 1.63888 0
M  V30 12251 N 1179.52 -1.32087 -0.859693 0
M  V30 12252 C 1180.49 -1.20546 -1.94939 0
M  V30 12253 C 1181.49 -0.12982 -1.60275 0
M  V30 12254 O 1182.68 -0.379853 -1.70008 0
M  V30 12255 C 1179.81 -0.852717 -3.30063 0
M  V30 12256 H 1181 -2.17384 -2.06602 0
M  V30 12257 H 1178.55 -1.15846 -1.04926 0
M  V30 12258 H 1179.29 0.114059 -3.24099 0
M  V30 12259 H 1179.07 -1.63035 -3.56598 0
M  V30 12260 H 1180.56 -0.796145 -4.09941 0
M  V30 12261 N 1181 1.07532 -1.15215 0
M  V30 12262 C 1181.91 2.18222 -0.861192 0
M  V30 12263 C 1182.93 1.73246 0.161798 0
M  V30 12264 O 1184.1 2.01397 -0.0118386 0
M  V30 12265 C 1181.17 3.44902 -0.352601 0
M  V30 12266 C 1180.23 4.04455 -1.43926 0
M  V30 12267 C 1179.46 5.25089 -0.954841 0
M  V30 12268 O 1179.69 5.70048 0.200294 0
M  V30 12269 O 1178.62 5.76269 -1.73774 0
M  V30 12270 H 1182.45 2.45599 -1.78648 0
M  V30 12271 H 1180.03 1.16835 -0.93112 0
M  V30 12272 H 1181.91 4.21333 -0.0753347 0
M  V30 12273 H 1180.59 3.19082 0.544841 0
M  V30 12274 H 1179.49 3.29573 -1.7701 0
M  V30 12275 H 1180.83 4.34544 -2.31155 0
M  V30 12276 N 1182.48 0.948665 1.2585 0
M  V30 12277 C 1183.44 0.468673 2.24357 0
M  V30 12278 C 1184.44 -0.424355 1.551 0
M  V30 12279 O 1185.63 -0.222481 1.72773 0
M  V30 12280 C 1182.77 -0.32359 3.39361 0
M  V30 12281 H 1183.96 1.33928 2.68334 0
M  V30 12282 H 1181.51 0.731357 1.38133 0
M  V30 12283 H 1182.25 -1.21212 3.00796 0
M  V30 12284 H 1182.03 0.316998 3.90816 0
M  V30 12285 H 1183.52 -0.649087 4.12525 0
M  V30 12286 N 1183.96 -1.40369 0.716545 0
M  V30 12287 C 1185.21 -2.00101 0.253452 0
M  V30 12288 C 1185.52 -1.57471 -1.16027 0
M  V30 12289 O 1186.73 -2.09909 -1.72193 0
M  V30 12290 C 1185.18 -3.57645 0.402213 0
M  V30 12291 C 1184.79 -4.09248 1.82264 0
M  V30 12292 C 1186.53 -4.245 -3.88526e-05 0
M  V30 12293 C 1184.44 -5.59299 1.92193 0
M  V30 12294 H 1183.37 -0.748488 0.0910047 0
M  V30 12295 H 1186.02 -1.60595 0.887772 0
M  V30 12296 H 1184.4 -3.94857 -0.300706 0
M  V30 12297 H 1185.58 -3.83412 2.55601 0
M  V30 12298 H 1183.89 -3.54993 2.17644 0
M  V30 12299 H 1186.49 -5.34673 0.0534202 0
M  V30 12300 H 1186.83 -4.03046 -1.04208 0
M  V30 12301 H 1187.37 -3.92398 0.65336 0
M  V30 12302 H 1184.11 -5.85608 2.94522 0
M  V30 12303 H 1183.63 -5.86997 1.23268 0
M  V30 12304 H 1185.3 -6.24416 1.6945 0
M  V30 12305 N 1185.44 -0.462799 -1.50652 0
M  V30 12306 C 1186.68 0.0951853 -2.02576 0
M  V30 12307 C 1187.02 1.40113 -1.34469 0
M  V30 12308 O 1186.29 1.88793 -0.467702 0
M  V30 12309 C 1186.57 0.287603 -3.5895 0
M  V30 12310 C 1186.43 -1.03878 -4.37641 0
M  V30 12311 C 1187.75 1.04593 -4.27491 0
M  V30 12312 H 1184.86 0.0331191 -0.736255 0
M  V30 12313 H 1187.51 -0.606772 -1.80051 0
M  V30 12314 H 1185.66 0.885514 -3.78274 0
M  V30 12315 H 1187.33 -1.67263 -4.29908 0
M  V30 12316 H 1185.57 -1.6374 -4.01711 0
M  V30 12317 H 1186.24 -0.857889 -5.45293 0
M  V30 12318 H 1188.72 0.539213 -4.12591 0
M  V30 12319 H 1187.59 1.14935 -5.36732 0
M  V30 12320 H 1187.86 2.08045 -3.90089 0
M  V30 12321 N 1186.91 1.56388 -0.195085 0
M  V30 12322 C 1187.85 2.14992 0.765096 0
M  V30 12323 C 1188.83 1.08663 1.20959 0
M  V30 12324 O 1190.01 1.36775 1.29711 0
M  V30 12325 C 1187.14 2.7088 2.03327 0
M  V30 12326 C 1186.18 3.89797 1.7309 0
M  V30 12327 S 1187.02 5.28236 0.879025 0
M  V30 12328 C 1188.17 5.87545 2.15734 0
M  V30 12329 H 1188.4 2.961 0.266902 0
M  V30 12330 H 1185.94 1.54387 0.0199116 0
M  V30 12331 H 1187.9 3.03723 2.76157 0
M  V30 12332 H 1186.56 1.89814 2.50259 0
M  V30 12333 H 1185.75 4.27312 2.67246 0
M  V30 12334 H 1185.35 3.57964 1.08342 0
M  V30 12335 H 1187.64 6.01907 3.10989 0
M  V30 12336 H 1188.59 6.84137 1.82652 0
M  V30 12337 H 1188.99 5.16151 2.2858 0
M  V30 12338 N 1188.39 -0.0785156 1.57404 0
M  V30 12339 C 1189.34 -1.09402 2.03224 0
M  V30 12340 C 1190.31 -1.38849 0.911596 0
M  V30 12341 O 1191.49 -1.50031 1.17878 0
M  V30 12342 C 1188.63 -2.40444 2.47549 0
M  V30 12343 C 1187.75 -2.17585 3.73203 0
M  V30 12344 C 1186.88 -3.42143 4.06339 0
M  V30 12345 C 1185.92 -3.14619 5.25054 0
M  V30 12346 N 1185.06 -4.31489 5.5386 0
M  V30 12347 H 1189.9 -0.696307 2.89751 0
M  V30 12348 H 1187.44 -0.332261 1.43298 0
M  V30 12349 H 1189.39 -3.16944 2.71298 0
M  V30 12350 H 1188.02 -2.78031 1.64009 0
M  V30 12351 H 1187.08 -1.3181 3.56834 0
M  V30 12352 H 1188.39 -1.93249 4.59844 0
M  V30 12353 H 1187.54 -4.27042 4.30953 0
M  V30 12354 H 1186.28 -3.69549 3.18253 0
M  V30 12355 H 1185.29 -2.28116 5.00243 0
M  V30 12356 H 1186.51 -2.88543 6.14752 0
M  V30 12357 H 1184.46 -4.58939 4.68734 0
M  V30 12358 H 1184.37 -4.10403 6.34906 0
M  V30 12359 H 1185.64 -5.17404 5.83021 0
M  V30 12360 N 1189.87 -1.5367 -0.349747 0
M  V30 12361 C 1191.28 -1.62135 -0.925704 0
M  V30 12362 C 1191.63 -0.498725 -1.89756 0
M  V30 12363 O 1190.76 0.372481 -2.1317 0
M  V30 12364 C 1191.35 -2.93885 -1.68573 0
M  V30 12365 C 1189.91 -3.04632 -2.2108 0
M  V30 12366 C 1189.06 -2.57541 -1.02801 0
M  V30 12367 H 1192.01 -1.58182 -0.128065 0
M  V30 12368 H 1192.03 -2.82577 -2.54815 0
M  V30 12369 H 1191.54 -3.75571 -0.978153 0
M  V30 12370 H 1189.64 -2.27567 -2.95032 0
M  V30 12371 H 1189.76 -4.09993 -2.47876 0
M  V30 12372 H 1188.12 -2.12798 -1.39962 0
M  V30 12373 H 1188.9 -3.4166 -0.335157 0
M  V30 12374 N 1191.35 0.610423 -1.45298 0
M  V30 12375 C 1192.3 1.74245 -1.54083 0
M  V30 12376 C 1193.29 1.64338 -0.411003 0
M  V30 12377 O 1194.5 1.70167 -0.586799 0
M  V30 12378 H 1190.87 0.575612 -0.483916 0
M  V30 12379 H 1192.84 1.63961 -2.49318 0
M  V30 12380 C 1191.59 3.1262 -1.52198 0
M  V30 12381 H 1190.91 3.209 -2.3846 0
M  V30 12382 H 1192.35 3.91665 -1.62403 0
M  V30 12383 C 1190.81 3.36001 -0.24595 0
M  V30 12384 O 1191.34 3.95982 0.675374 0
M  V30 12385 N 1189.55 2.9025 -0.142537 0
M  V30 12386 H 1189.1 2.41621 -0.893143 0
M  V30 12387 H 1189.05 3.06268 0.710427 0
M  V30 12388 N 1192.83 1.32541 0.852676 0
M  V30 12389 C 1193.76 1.17471 1.96807 0
M  V30 12390 C 1194.77 0.109198 1.62433 0
M  V30 12391 O 1195.96 0.358342 1.74866 0
M  V30 12392 C 1193.06 0.776328 3.29888 0
M  V30 12393 C 1192.23 1.93055 3.9249 0
M  V30 12394 C 1191.29 1.51539 5.03907 0
M  V30 12395 O 1190.32 2.22771 5.23796 0
M  V30 12396 N 1191.52 0.412533 5.79032 0
M  V30 12397 H 1194.29 2.13551 2.10276 0
M  V30 12398 H 1191.85 1.25104 1.02764 0
M  V30 12399 H 1193.84 0.48096 4.01832 0
M  V30 12400 H 1192.41 -0.0933749 3.12461 0
M  V30 12401 H 1191.63 2.39231 3.13309 0
M  V30 12402 H 1192.92 2.70321 4.3105 0
M  V30 12403 H 1192.31 -0.180286 5.65413 0
M  V30 12404 H 1190.87 0.17678 6.5156 0
M  V30 12405 N 1194.3 -1.0692 1.15784 0
M  V30 12406 C 1195.72 -1.61069 0.944123 0
M  V30 12407 C 1196.07 -1.8936 -0.513522 0
M  V30 12408 O 1195.19 -1.66232 -1.38549 0
M  V30 12409 C 1195.79 -2.9263 1.70743 0
M  V30 12410 C 1194.35 -3.43505 1.53887 0
M  V30 12411 C 1193.49 -2.17495 1.72021 0
M  V30 12412 H 1196.44 -0.89951 1.30746 0
M  V30 12413 H 1196.46 -3.61757 1.17951 0
M  V30 12414 H 1195.98 -2.72007 2.76828 0
M  V30 12415 H 1194.08 -3.69201 0.502153 0
M  V30 12416 H 1194.19 -4.19254 2.31868 0
M  V30 12417 H 1192.55 -2.27407 1.1471 0
M  V30 12418 H 1193.34 -1.99362 2.79481 0
M  V30 12419 N 1195.78 -0.955326 -1.25345 0
M  V30 12420 C 1197.03 -0.609278 -1.92697 0
M  V30 12421 C 1197.35 0.856535 -1.75181 0
M  V30 12422 O 1196.62 1.61013 -1.11587 0
M  V30 12423 H 1195.2 -0.22235 -0.713141 0
M  V30 12424 H 1197.86 -1.21372 -1.52496 0
M  V30 12425 H 1196.96 -0.839198 -3.00606 0
M  V30 12426 N 1197.26 1.39987 -0.723979 0
M  V30 12427 C 1198.49 2.05037 -0.27702 0
M  V30 12428 C 1198.9 1.54565 1.08421 0
M  V30 12429 O 1198.26 0.705795 1.683 0
M  V30 12430 C 1198.31 3.60582 -0.25751 0
M  V30 12431 O 1198.03 4.09194 -1.565 0
M  V30 12432 C 1199.53 4.42817 0.206972 0
M  V30 12433 H 1196.75 0.659637 -0.122963 0
M  V30 12434 H 1199.3 1.7924 -0.98454 0
M  V30 12435 H 1197.45 3.85319 0.401037 0
M  V30 12436 H 1197.87 5.03447 -1.47112 0
M  V30 12437 H 1199.34 5.5174 0.16947 0
M  V30 12438 H 1199.82 4.21023 1.25045 0
M  V30 12439 H 1200.42 4.23205 -0.421604 0
M  V30 12440 N 1198.74 0.470782 1.50404 0
M  V30 12441 C 1200.02 -0.145879 1.95055 0
M  V30 12442 C 1200.4 -1.57004 1.41114 0
M  V30 12443 O 1199.74 -2.20152 0.612006 0
M  V30 12444 C 1199.95 -0.0895071 3.48885 0
M  V30 12445 C 1201.3 -0.278548 4.23685 0
M  V30 12446 O 1202.33 -0.166105 3.55812 0
M  V30 12447 O 1201.19 -0.505606 5.44156 0
M  V30 12448 H 1198.28 -0.111838 0.819403 0
M  V30 12449 H 1200.83 0.531162 1.61173 0
M  V30 12450 H 1199.6 0.904836 3.80695 0
M  V30 12451 H 1199.22 -0.808019 3.89303 0
M  V30 12452 N 1200.22 -1.56282 0.203376 0
M  V30 12453 C 1201.45 -2.01905 -0.437936 0
M  V30 12454 C 1201.86 -1.08263 -1.55164 0
M  V30 12455 O 1201.2 -0.0811746 -1.83521 0
M  V30 12456 C 1201.26 -3.43908 -1.04725 0
M  V30 12457 C 1200.92 -4.56944 -0.0712582 0
M  V30 12458 C 1201.92 -5.14856 0.72243 0
M  V30 12459 C 1199.61 -5.02282 0.0422267 0
M  V30 12460 C 1201.6 -6.16562 1.61649 0
M  V30 12461 C 1199.29 -6.0383 0.939835 0
M  V30 12462 C 1200.29 -6.60844 1.72552 0
M  V30 12463 O 1199.97 -7.60417 2.60808 0
M  V30 12464 H 1199.71 -0.666416 -0.11343 0
M  V30 12465 H 1202.26 -2.03019 0.311833 0
M  V30 12466 H 1200.49 -3.39806 -1.84577 0
M  V30 12467 H 1202.18 -3.73288 -1.59407 0
M  V30 12468 H 1202.94 -4.80691 0.645105 0
M  V30 12469 H 1198.82 -4.57596 -0.559165 0
M  V30 12470 H 1202.37 -6.6099 2.23019 0
M  V30 12471 H 1198.26 -6.37418 1.01824 0
M  V30 12472 H 1199.03 -7.77869 2.54679 0
M  V30 12473 N 1201.7 0.070167 -1.57444 0
M  V30 12474 C 1202.97 0.802108 -1.78397 0
M  V30 12475 C 1203.35 1.95706 -0.791356 0
M  V30 12476 O 1202.7 2.27827 0.17518 0
M  V30 12477 C 1202.91 1.27354 -3.24934 0
M  V30 12478 C 1204.26 1.70626 -3.88808 0
M  V30 12479 O 1205.28 1.36916 -3.28835 0
M  V30 12480 O 1204.14 2.33041 -4.94322 0
M  V30 12481 H 1201.24 0.384483 -0.73219 0
M  V30 12482 H 1203.78 0.0501168 -1.69626 0
M  V30 12483 H 1202.55 0.447204 -3.88736 0
M  V30 12484 H 1202.18 2.0868 -3.38435 0
M  V30 12485 N 1203.17 1.53854 0.341593 0
M  V30 12486 C 1204.42 1.72388 1.07954 0
M  V30 12487 C 1204.77 0.482184 1.8626 0
M  V30 12488 O 1204.07 -0.525232 1.8426 0
M  V30 12489 C 1204.26 2.92844 2.04884 0
M  V30 12490 C 1204.09 4.28609 1.36105 0
M  V30 12491 C 1202.86 4.93068 1.10508 0
M  V30 12492 C 1205.06 5.08254 0.786255 0
M  V30 12493 N 1203.04 6.12702 0.383319 0
M  V30 12494 C 1204.41 6.19693 0.195147 0
M  V30 12495 C 1206.47 4.93134 0.687293 0
M  V30 12496 C 1205.17 7.17661 -0.485298 0
M  V30 12497 C 1207.2 5.91396 0.0205841 0
M  V30 12498 C 1206.56 7.02174 -0.559545 0
M  V30 12499 H 1202.66 0.683826 0.37935 0
M  V30 12500 H 1205.24 1.91288 0.36289 0
M  V30 12501 H 1203.41 2.7544 2.73838 0
M  V30 12502 H 1205.14 3.00088 2.71531 0
M  V30 12503 H 1201.9 4.52659 1.39271 0
M  V30 12504 H 1202.32 6.7699 0.0371033 0
M  V30 12505 H 1206.96 4.07653 1.12155 0
M  V30 12506 H 1204.68 8.02714 -0.931438 0
M  V30 12507 H 1208.27 5.81774 -0.0553832 0
M  V30 12508 H 1207.15 7.76904 -1.06726 0
M  V30 12509 N 1204.65 -0.602709 1.4562 0
M  V30 12510 C 1205.93 -1.36224 1.40366 0
M  V30 12511 C 1206.31 -2.1096 0.0767645 0
M  V30 12512 O 1205.66 -2.08207 -0.941378 0
M  V30 12513 C 1205.87 -2.30499 2.62052 0
M  V30 12514 C 1207.21 -2.92954 3.07348 0
M  V30 12515 O 1208.24 -2.40818 2.62459 0
M  V30 12516 O 1207.1 -3.87601 3.85263 0
M  V30 12517 H 1204.19 -0.611064 0.557253 0
M  V30 12518 H 1206.74 -0.625391 1.57756 0
M  V30 12519 H 1205.51 -1.74566 3.50203 0
M  V30 12520 H 1205.13 -3.11556 2.4702 0
M  V30 12521 N 1206.13 -1.32992 -0.845635 0
M  V30 12522 C 1207.09 -1.22607 -1.9365 0
M  V30 12523 C 1208.09 -0.146812 -1.60128 0
M  V30 12524 O 1209.28 -0.397863 -1.69596 0
M  V30 12525 C 1206.41 -0.887677 -3.2914 0
M  V30 12526 H 1207.61 -2.19563 -2.04285 0
M  V30 12527 H 1205.16 -1.16952 -1.03691 0
M  V30 12528 H 1205.9 0.0796777 -3.24202 0
M  V30 12529 H 1205.68 -1.66808 -3.54849 0
M  V30 12530 H 1207.17 -0.83958 -4.09073 0
M  V30 12531 N 1207.61 1.06304 -1.1635 0
M  V30 12532 C 1209.02 1.60566 -0.952652 0
M  V30 12533 C 1209.37 1.8963 0.503473 0
M  V30 12534 O 1208.49 1.66964 1.37666 0
M  V30 12535 C 1209.09 2.9172 -1.72292 0
M  V30 12536 C 1207.65 3.42684 -1.55707 0
M  V30 12537 C 1206.8 2.16579 -1.73172 0
M  V30 12538 H 1209.75 0.892563 -1.31221 0
M  V30 12539 H 1209.77 3.61126 -1.19868 0
M  V30 12540 H 1209.28 2.70535 -2.78267 0
M  V30 12541 H 1207.38 3.68929 -0.521726 0
M  V30 12542 H 1207.49 4.18018 -2.34088 0
M  V30 12543 H 1205.86 2.26795 -1.15914 0
M  V30 12544 H 1206.64 1.97877 -2.80535 0
M  V30 12545 N 1209.09 0.96196 1.24836 0
M  V30 12546 C 1210.31 0.63814 1.96813 0
M  V30 12547 C 1210.73 -0.79127 1.71419 0
M  V30 12548 O 1210.09 -1.5302 0.994546 0
M  V30 12549 C 1210.14 0.89626 3.50213 0
M  V30 12550 O 1209.86 2.26947 3.74735 0
M  V30 12551 C 1211.36 0.585836 4.39412 0
M  V30 12552 H 1208.58 0.238598 0.627146 0
M  V30 12553 H 1211.12 1.28833 1.58815 0
M  V30 12554 H 1209.28 0.292368 3.86295 0
M  V30 12555 H 1209.69 2.34514 4.69152 0
M  V30 12556 H 1211.17 0.816935 5.45921 0
M  V30 12557 H 1211.64 -0.479784 4.36572 0
M  V30 12558 H 1212.25 1.16938 4.08908 0
M  V30 12559 N 1210.56 -1.39601 0.731392 0
M  V30 12560 C 1211.51 -2.30628 0.0890606 0
M  V30 12561 C 1212.48 -1.49025 -0.73353 0
M  V30 12562 O 1213.67 -1.77722 -0.694234 0
M  V30 12563 C 1210.81 -3.35339 -0.814956 0
M  V30 12564 C 1209.92 -4.31995 0.0198606 0
M  V30 12565 C 1209.05 -5.23774 -0.885095 0
M  V30 12566 C 1208.09 -6.12083 -0.045311 0
M  V30 12567 N 1207.23 -6.9623 -0.906002 0
M  V30 12568 H 1212.07 -2.84988 0.870958 0
M  V30 12569 H 1209.61 -1.40329 0.441166 0
M  V30 12570 H 1211.56 -3.94634 -1.3535 0
M  V30 12571 H 1210.19 -2.82443 -1.56287 0
M  V30 12572 H 1209.25 -3.74349 0.675778 0
M  V30 12573 H 1210.56 -4.94289 0.669346 0
M  V30 12574 H 1209.71 -5.88078 -1.49161 0
M  V30 12575 H 1208.45 -4.61794 -1.56837 0
M  V30 12576 H 1207.46 -5.46795 0.574028 0
M  V30 12577 H 1208.68 -6.76128 0.634692 0
M  V30 12578 H 1206.63 -6.36821 -1.57463 0
M  V30 12579 H 1206.54 -7.55352 -0.312914 0
M  V30 12580 H 1207.81 -7.64967 -1.49819 0
M  V30 12581 N 1212.04 -0.478751 -1.50152 0
M  V30 12582 C 1212.97 0.301182 -2.31549 0
M  V30 12583 C 1213.95 0.983276 -1.38801 0
M  V30 12584 O 1215.14 0.978973 -1.67719 0
M  V30 12585 C 1212.27 1.3791 -3.18745 0
M  V30 12586 C 1211.22 0.818175 -4.20107 0
M  V30 12587 C 1210.55 1.99496 -4.9609 0
M  V30 12588 C 1211.85 -0.17574 -5.22004 0
M  V30 12589 H 1213.54 -0.378188 -2.97002 0
M  V30 12590 H 1211.09 -0.183323 -1.42828 0
M  V30 12591 H 1213.04 1.93227 -3.74488 0
M  V30 12592 H 1211.77 2.08735 -2.51192 0
M  V30 12593 H 1210.42 0.286924 -3.65475 0
M  V30 12594 H 1210.07 2.69036 -4.25004 0
M  V30 12595 H 1209.77 1.62582 -5.6466 0
M  V30 12596 H 1211.3 2.55288 -5.54671 0
M  V30 12597 H 1212.71 0.288513 -5.72574 0
M  V30 12598 H 1211.11 -0.459549 -5.98338 0
M  V30 12599 H 1212.18 -1.09911 -4.72279 0
M  V30 12600 N 1213.52 1.56172 -0.211661 0
M  V30 12601 C 1214.75 2.02428 0.427843 0
M  V30 12602 C 1215.16 1.09162 1.54043 0
M  V30 12603 O 1214.52 0.0994249 1.82229 0
M  V30 12604 C 1214.57 3.48279 0.968728 0
M  V30 12605 O 1214.29 4.37987 -0.0994841 0
M  V30 12606 C 1215.79 4.10132 1.68246 0
M  V30 12607 H 1213.01 0.662611 0.10577 0
M  V30 12608 H 1215.56 2.01897 -0.32522 0
M  V30 12609 H 1213.71 3.49456 1.6721 0
M  V30 12610 H 1214.13 5.23609 0.305558 0
M  V30 12611 H 1215.6 5.13985 2.01304 0
M  V30 12612 H 1216.08 3.54552 2.5921 0
M  V30 12613 H 1216.68 4.12775 1.02453 0
M  V30 12614 N 1215 -0.0618163 1.57479 0
M  V30 12615 C 1216.22 -0.775513 1.92355 0
M  V30 12616 C 1216.65 -1.69816 0.808949 0
M  V30 12617 O 1216.01 -1.79736 -0.23761 0
M  V30 12618 C 1216.05 -1.5367 3.26218 0
M  V30 12619 O 1215.16 -2.64802 3.16155 0
M  V30 12620 H 1214.5 -0.210909 0.629614 0
M  V30 12621 H 1217.03 -0.0270752 2.04582 0
M  V30 12622 H 1217.04 -1.91379 3.6033 0
M  V30 12623 H 1215.71 -0.859798 4.06916 0
M  V30 12624 H 1214.29 -2.29876 2.93618 0
M  V30 12625 N 1216.48 -1.54033 -0.333429 0
M  V30 12626 C 1217.89 -1.63107 -0.908455 0
M  V30 12627 C 1218.24 -0.518823 -1.89216 0
M  V30 12628 O 1217.36 0.34985 -2.13553 0
M  V30 12629 C 1217.96 -2.95657 -1.65447 0
M  V30 12630 C 1216.52 -3.0696 -2.17836 0
M  V30 12631 C 1215.66 -2.58617 -1.00063 0
M  V30 12632 H 1218.62 -1.58309 -0.11128 0
M  V30 12633 H 1218.64 -2.85263 -2.51804 0
M  V30 12634 H 1218.15 -3.76588 -0.938263 0
M  V30 12635 H 1216.25 -2.30683 -2.92602 0
M  V30 12636 H 1216.36 -4.12599 -2.43513 0
M  V30 12637 H 1214.73 -2.1427 -1.37697 0
M  V30 12638 H 1215.51 -3.41996 -0.298901 0
M  V30 12639 N 1217.95 0.594978 -1.45938 0
M  V30 12640 C 1219.2 1.35093 -1.50314 0
M  V30 12641 C 1219.52 1.94412 -0.151315 0
M  V30 12642 O 1218.79 1.77876 0.820787 0
M  V30 12643 H 1217.37 0.501549 -0.553586 0
M  V30 12644 H 1220.04 0.697735 -1.81983 0
M  V30 12645 H 1219.13 2.16393 -2.24901 0
M  V30 12646 N 1219.43 1.33438 0.838571 0
M  V30 12647 C 1220.68 1.24259 1.58879 0
M  V30 12648 C 1220.99 -0.189957 1.94675 0
M  V30 12649 O 1222.2 -0.40376 2.68481 0
M  V30 12650 C 1220.66 2.1773 2.86569 0
M  V30 12651 C 1220.26 3.66156 2.58135 0
M  V30 12652 C 1222.01 2.17424 3.64591 0
M  V30 12653 C 1219.92 4.5154 3.81923 0
M  V30 12654 H 1218.85 0.461534 0.59624 0
M  V30 12655 H 1221.5 1.58504 0.924588 0
M  V30 12656 H 1219.88 1.76418 3.54532 0
M  V30 12657 H 1221.05 4.1591 1.98382 0
M  V30 12658 H 1219.37 3.68754 1.93416 0
M  V30 12659 H 1221.96 2.78446 4.56478 0
M  V30 12660 H 1222.31 1.16939 3.99539 0
M  V30 12661 H 1222.84 2.571 3.03553 0
M  V30 12662 H 1219.58 5.52902 3.52107 0
M  V30 12663 H 1219.1 4.06529 4.41015 0
M  V30 12664 H 1220.78 4.65359 4.495 0
M  V30 12665 N 1220.91 -1.05686 1.16912 0
M  V30 12666 C 1221.86 -2.15417 0.877404 0
M  V30 12667 C 1222.85 -1.6868 -0.155986 0
M  V30 12668 O 1224.06 -1.79998 -0.00938156 0
M  V30 12669 H 1220.43 -0.70332 0.266168 0
M  V30 12670 H 1222.4 -2.37228 1.81012 0
M  V30 12671 C 1221.15 -3.45372 0.401696 0
M  V30 12672 H 1220.48 -3.81732 1.18832 0
M  V30 12673 H 1221.92 -4.2334 0.236418 0
M  V30 12674 C 1220.38 -3.25209 -0.87981 0
M  V30 12675 O 1220.91 -3.51322 -1.94771 0
M  V30 12676 N 1219.11 -2.78614 -0.825997 0
M  V30 12677 H 1218.66 -2.57564 0.0432439 0
M  V30 12678 H 1218.62 -2.65503 -1.68391 0
M  V30 12679 N 1222.39 -0.968567 -1.24324 0
M  V30 12680 C 1223.64 -0.629682 -1.9204 0
M  V30 12681 C 1223.96 0.837906 -1.7608 0
M  V30 12682 O 1223.23 1.5982 -1.13289 0
M  V30 12683 H 1221.81 -0.229901 -0.710742 0
M  V30 12684 H 1224.47 -1.22982 -1.512 0
M  V30 12685 H 1223.57 -0.871034 -2.99699 0
M  V30 12686 N 1223.87 1.39211 -0.738786 0
M  V30 12687 C 1225.09 2.05256 -0.297421 0
M  V30 12688 C 1225.52 1.55341 1.06069 0
M  V30 12689 O 1224.87 0.698823 1.67291 0
M  V30 12690 C 1224.92 3.59239 -0.312969 0
M  V30 12691 O 1224.03 4.06448 0.698112 0
M  V30 12692 H 1223.37 0.650245 -0.134454 0
M  V30 12693 H 1225.9 1.78173 -1.00577 0
M  V30 12694 H 1225.91 4.07691 -0.158675 0
M  V30 12695 H 1224.58 3.94931 -1.30394 0
M  V30 12696 H 1223.16 3.69401 0.509643 0
M  V30 12697 N 1225.34 0.486708 1.49896 0
M  V30 12698 C 1226.57 -0.0600816 2.06813 0
M  V30 12699 C 1226.99 -1.32112 1.34877 0
M  V30 12700 O 1226.34 -1.77537 0.422725 0
M  V30 12701 C 1226.4 -0.332266 3.5997 0
M  V30 12702 O 1226.12 0.878771 4.29196 0
M  V30 12703 C 1227.62 -0.924289 4.33557 0
M  V30 12704 H 1224.84 0.0140611 0.670853 0
M  V30 12705 H 1227.38 0.67997 1.92864 0
M  V30 12706 H 1225.54 -1.02227 3.73669 0
M  V30 12707 H 1225.95 0.632873 5.20668 0
M  V30 12708 H 1227.42 -1.06441 5.4164 0
M  V30 12709 H 1227.9 -1.91844 3.95085 0
M  V30 12710 H 1228.51 -0.272189 4.24428 0
M  V30 12711 N 1226.82 -1.56058 0.219941 0
M  V30 12712 C 1228.07 -1.98554 -0.412808 0
M  V30 12713 C 1228.4 -1.10742 -1.5953 0
M  V30 12714 O 1227.68 -0.164757 -1.93801 0
M  V30 12715 C 1227.96 -3.4995 -0.848923 0
M  V30 12716 C 1227.81 -4.48535 0.337094 0
M  V30 12717 C 1229.13 -4.05703 -1.70567 0
M  V30 12718 H 1226.25 -0.721869 -0.148576 0
M  V30 12719 H 1228.89 -1.87356 0.315852 0
M  V30 12720 H 1227.04 -3.59624 -1.46979 0
M  V30 12721 H 1228.72 -4.50874 0.975216 0
M  V30 12722 H 1226.96 -4.22474 0.984798 0
M  V30 12723 H 1227.63 -5.51999 -0.0109665 0
M  V30 12724 H 1230.11 -3.98964 -1.18182 0
M  V30 12725 H 1228.98 -5.11955 -1.97972 0
M  V30 12726 H 1229.24 -3.52487 -2.66844 0
M  V30 12727 N 1228.3 0.053464 -1.57509 0
M  V30 12728 C 1229.71 0.603099 -1.76691 0
M  V30 12729 C 1230.06 1.76934 -0.847861 0
M  V30 12730 O 1229.19 2.16369 -0.0364962 0
M  V30 12731 C 1229.78 1.10084 -3.20417 0
M  V30 12732 C 1228.34 1.59618 -3.4088 0
M  V30 12733 C 1227.49 0.523516 -2.72313 0
M  V30 12734 H 1230.44 -0.172751 -1.57757 0
M  V30 12735 H 1230.46 1.9691 -3.25587 0
M  V30 12736 H 1229.97 0.251818 -3.87282 0
M  V30 12737 H 1228.07 2.46786 -2.79155 0
M  V30 12738 H 1228.19 1.6605 -4.49404 0
M  V30 12739 H 1226.55 0.972886 -2.35387 0
M  V30 12740 H 1227.33 -0.315629 -3.41846 0
M  V30 12741 N 1229.78 1.54207 0.325255 0
M  V30 12742 C 1230.71 1.86467 1.40543 0
M  V30 12743 C 1231.69 0.721324 1.54048 0
M  V30 12744 O 1232.88 0.974905 1.67956 0
M  V30 12745 C 1230.01 2.09052 2.77335 0
M  V30 12746 C 1228.96 3.24893 2.78619 0
M  V30 12747 C 1228.29 3.32846 4.1847 0
M  V30 12748 C 1229.59 4.62582 2.42518 0
M  V30 12749 H 1231.28 2.76932 1.13794 0
M  V30 12750 H 1228.83 1.33248 0.545971 0
M  V30 12751 H 1230.78 2.30204 3.52964 0
M  V30 12752 H 1229.5 1.15335 3.05558 0
M  V30 12753 H 1228.16 3.03625 2.05444 0
M  V30 12754 H 1227.81 2.3669 4.43832 0
M  V30 12755 H 1227.51 4.10701 4.20237 0
M  V30 12756 H 1229.03 3.56231 4.95915 0
M  V30 12757 H 1230.45 4.83627 3.07861 0
M  V30 12758 H 1228.84 5.42974 2.55538 0
M  V30 12759 H 1229.91 4.64946 1.3767 0
M  V30 12760 N 1231.26 -0.58723 1.46251 0
M  V30 12761 C 1232.67 -1.16933 1.45546 0
M  V30 12762 C 1233.02 -1.9524 0.193879 0
M  V30 12763 O 1232.14 -2.04652 -0.70332 0
M  V30 12764 C 1232.74 -2.12723 2.63693 0
M  V30 12765 C 1231.3 -2.66267 2.66043 0
M  V30 12766 C 1230.45 -1.42051 2.38153 0
M  V30 12767 H 1233.4 -0.375411 1.54196 0
M  V30 12768 H 1233.42 -2.96111 2.38953 0
M  V30 12769 H 1232.93 -1.55703 3.55497 0
M  V30 12770 H 1231.03 -3.2717 1.783 0
M  V30 12771 H 1231.14 -3.0931 3.65874 0
M  V30 12772 H 1229.51 -1.71707 1.88119 0
M  V30 12773 H 1230.29 -0.868675 3.32128 0
M  V30 12774 N 1232.74 -1.33881 -0.831482 0
M  V30 12775 C 1233.97 -1.28625 -1.61676 0
M  V30 12776 C 1234.37 0.143588 -1.88654 0
M  V30 12777 O 1233.72 1.09847 -1.47239 0
M  V30 12778 C 1233.78 -2.00022 -2.98716 0
M  V30 12779 C 1233.44 -3.49309 -2.94674 0
M  V30 12780 C 1234.44 -4.44375 -2.69864 0
M  V30 12781 C 1232.12 -3.91596 -3.14576 0
M  V30 12782 C 1234.12 -5.79703 -2.64996 0
M  V30 12783 C 1231.81 -5.27026 -3.09333 0
M  V30 12784 C 1232.8 -6.20892 -2.84575 0
M  V30 12785 O 1232.49 -7.53841 -2.79248 0
M  V30 12786 H 1232.22 -0.444235 -0.50954 0
M  V30 12787 H 1234.78 -1.76933 -1.04326 0
M  V30 12788 H 1233.01 -1.46316 -3.57951 0
M  V30 12789 H 1234.7 -1.88168 -3.59649 0
M  V30 12790 H 1235.46 -4.13027 -2.54231 0
M  V30 12791 H 1231.34 -3.18938 -3.32865 0
M  V30 12792 H 1234.89 -6.5294 -2.45591 0
M  V30 12793 H 1230.78 -5.57996 -3.24516 0
M  V30 12794 H 1231.55 -7.63476 -2.95037 0
M  V30 12795 N 1234.21 1.05064 -1.1747 0
M  V30 12796 C 1235.46 1.77737 -0.961979 0
M  V30 12797 C 1235.78 1.88198 0.510551 0
M  V30 12798 O 1235.05 1.39968 1.37062 0
M  V30 12799 H 1233.63 0.658366 -0.352935 0
M  V30 12800 H 1236.29 1.26851 -1.47969 0
M  V30 12801 H 1235.39 2.79368 -1.39141 0
M  V30 12802 N 1235.69 0.975146 1.23809 0
M  V30 12803 C 1236.62 0.530389 2.27396 0
M  V30 12804 C 1237.6 -0.433763 1.64476 0
M  V30 12805 O 1238.79 -0.32827 1.91405 0
M  V30 12806 C 1235.92 -0.173066 3.46869 0
M  V30 12807 C 1234.87 0.707844 4.22106 0
M  V30 12808 C 1234.2 -0.127527 5.34548 0
M  V30 12809 C 1235.5 1.99609 4.82652 0
M  V30 12810 H 1237.19 1.39622 2.64851 0
M  V30 12811 H 1234.74 0.672802 1.27316 0
M  V30 12812 H 1236.69 -0.495481 4.18477 0
M  V30 12813 H 1235.41 -1.0733 3.0846 0
M  V30 12814 H 1234.07 1.01364 3.52308 0
M  V30 12815 H 1233.72 -1.02814 4.9238 0
M  V30 12816 H 1233.42 0.458728 5.85807 0
M  V30 12817 H 1234.95 -0.444443 6.0898 0
M  V30 12818 H 1236.36 1.73878 5.46296 0
M  V30 12819 H 1234.76 2.52969 5.44175 0
M  V30 12820 H 1235.83 2.68629 4.03691 0
M  V30 12821 N 1237.17 -1.38817 0.746158 0
M  V30 12822 C 1238.45 -1.94303 0.224841 0
M  V30 12823 C 1238.83 -1.68207 -1.27552 0
M  V30 12824 O 1238.17 -1.01647 -2.04646 0
M  V30 12825 C 1238.38 -3.44306 0.5705 0
M  V30 12826 C 1239.73 -4.21329 0.526015 0
M  V30 12827 O 1240.76 -3.52554 0.508351 0
M  V30 12828 O 1239.62 -5.4392 0.530383 0
M  V30 12829 H 1236.71 -0.825785 0.0448047 0
M  V30 12830 H 1239.26 -1.48253 0.825775 0
M  V30 12831 H 1238.03 -3.56779 1.60701 0
M  V30 12832 H 1237.65 -3.97556 -0.0588271 0
M  V30 12833 N 1238.65 -0.49465 -1.49636 0
M  V30 12834 C 1240.06 -0.0452894 -1.86645 0
M  V30 12835 C 1240.41 1.36686 -1.40753 0
M  V30 12836 O 1239.53 2.01751 -0.78265 0
M  V30 12837 C 1240.13 -0.0754115 -3.38716 0
M  V30 12838 C 1238.69 0.318579 -3.75049 0
M  V30 12839 C 1237.84 -0.450712 -2.73613 0
M  V30 12840 H 1240.79 -0.707758 -1.42044 0
M  V30 12841 H 1240.81 0.721372 -3.73599 0
M  V30 12842 H 1240.32 -1.10331 -3.72087 0
M  V30 12843 H 1238.42 1.34995 -3.47285 0
M  V30 12844 H 1238.53 0.00354416 -4.791 0
M  V30 12845 H 1236.9 0.0986455 -2.54509 0
M  V30 12846 H 1237.68 -1.47857 -3.09828 0
M  V30 12847 N 1240.13 1.55939 -0.228214 0
M  V30 12848 C 1241.09 2.1932 0.665681 0
M  V30 12849 C 1242.09 1.15699 1.11671 0
M  V30 12850 O 1243.28 1.40893 1.02444 0
M  V30 12851 C 1240.41 2.82185 1.9127 0
M  V30 12852 H 1241.6 2.99687 0.112986 0
M  V30 12853 H 1239.16 1.56285 0.0213865 0
M  V30 12854 H 1239.89 2.05706 2.5071 0
M  V30 12855 H 1239.68 3.58073 1.5977 0
M  V30 12856 H 1241.17 3.30748 2.54942 0
M  V30 12857 N 1241.6 -0.0451101 1.57535 0
M  V30 12858 C 1243.02 -0.400463 1.54494 0
M  V30 12859 C 1243.22 -1.77584 0.952166 0
M  V30 12860 O 1242.28 -2.46069 0.566221 0
M  V30 12861 C 1243.59 -0.31703 2.99024 0
M  V30 12862 C 1245.14 -0.395284 3.10494 0
M  V30 12863 C 1245.61 -0.341475 4.56725 0
M  V30 12864 N 1247.1 -0.400755 4.61463 0
M  V30 12865 C 1247.84 -0.381757 5.72128 0
M  V30 12866 N 1247.33 -0.315995 6.92079 0
M  V30 12867 N 1249.13 -0.4303 5.60451 0
M  V30 12868 H 1241.28 0.855156 1.94424 0
M  V30 12869 H 1243.54 0.323618 0.891053 0
M  V30 12870 H 1243.25 0.627477 3.46057 0
M  V30 12871 H 1243.12 -1.11696 3.60283 0
M  V30 12872 H 1245.51 -1.33022 2.63418 0
M  V30 12873 H 1245.59 0.433709 2.52096 0
M  V30 12874 H 1245.23 0.589725 5.04465 0
M  V30 12875 H 1245.16 -1.18836 5.13016 0
M  V30 12876 H 1247.65 -0.454745 3.75154 0
M  V30 12877 H 1247.97 -0.306158 7.72193 0
M  V30 12878 H 1246.31 -0.282281 6.94427 0
M  V30 12879 H 1249.5 -0.479555 4.65637 0
M  V30 12880 H 1249.68 -0.412025 6.46689 0
M  V30 12881 N 1243.08 -1.54377 -0.317073 0
M  V30 12882 C 1244.33 -1.73149 -1.05581 0
M  V30 12883 C 1244.66 -0.507176 -1.8746 0
M  V30 12884 O 1243.94 0.495837 -1.88074 0
M  V30 12885 C 1244.22 -3.01098 -1.97515 0
M  V30 12886 C 1244.07 -4.33794 -1.18922 0
M  V30 12887 C 1245.39 -3.24831 -2.9694 0
M  V30 12888 H 1242.51 -0.630011 -0.382434 0
M  V30 12889 H 1245.15 -1.87079 -0.331873 0
M  V30 12890 H 1243.3 -2.89352 -2.59244 0
M  V30 12891 H 1244.97 -4.57433 -0.596039 0
M  V30 12892 H 1243.22 -4.31005 -0.491612 0
M  V30 12893 H 1243.89 -5.19554 -1.86462 0
M  V30 12894 H 1246.36 -3.3608 -2.45335 0
M  V30 12895 H 1245.24 -4.15702 -3.58445 0
M  V30 12896 H 1245.5 -2.42365 -3.69745 0
M  V30 12897 N 1244.56 0.579466 -1.4656 0
M  V30 12898 C 1245.97 1.1616 -1.46164 0
M  V30 12899 C 1246.32 1.95134 -0.20423 0
M  V30 12900 O 1245.45 2.05022 0.692457 0
M  V30 12901 C 1246.04 2.11322 -2.64818 0
M  V30 12902 C 1244.6 2.64852 -2.67452 0
M  V30 12903 C 1243.75 1.40786 -2.38903 0
M  V30 12904 H 1246.7 0.367229 -1.54393 0
M  V30 12905 H 1246.72 2.94839 -2.4052 0
M  V30 12906 H 1246.23 1.53815 -3.56318 0
M  V30 12907 H 1244.33 3.26219 -1.80032 0
M  V30 12908 H 1244.45 3.07366 -3.67509 0
M  V30 12909 H 1242.81 1.70707 -1.89027 0
M  V30 12910 H 1243.59 0.851049 -3.32584 0
M  V30 12911 N 1246.04 1.3432 0.824371 0
M  V30 12912 C 1246.97 1.2842 1.95014 0
M  V30 12913 C 1247.95 0.161925 1.69328 0
M  V30 12914 O 1249.13 0.354052 1.90945 0
M  V30 12915 C 1246.26 1.03741 3.31444 0
M  V30 12916 C 1245.22 2.12419 3.71567 0
M  V30 12917 C 1244.54 1.72931 5.05963 0
M  V30 12918 C 1245.84 3.54235 3.83817 0
M  V30 12919 H 1247.54 2.22614 2.00209 0
M  V30 12920 H 1245.08 1.07165 0.961856 0
M  V30 12921 H 1247.04 0.982586 4.09784 0
M  V30 12922 H 1245.76 0.0598892 3.26545 0
M  V30 12923 H 1244.42 2.16968 2.955 0
M  V30 12924 H 1244.07 0.738433 4.9755 0
M  V30 12925 H 1243.77 2.45668 5.3378 0
M  V30 12926 H 1245.29 1.68941 5.86763 0
M  V30 12927 H 1246.71 3.52106 4.52432 0
M  V30 12928 H 1245.1 4.25581 4.23085 0
M  V30 12929 H 1246.17 3.91682 2.85856 0
M  V30 12930 N 1247.52 -1.0444 1.18026 0
M  V30 12931 C 1248.48 -2.10532 0.906028 0
M  V30 12932 C 1249.48 -1.60443 -0.107022 0
M  V30 12933 O 1250.67 -1.73744 0.126001 0
M  V30 12934 C 1247.8 -3.39008 0.358625 0
M  V30 12935 H 1248.99 -2.36293 1.84677 0
M  V30 12936 H 1246.55 -1.20805 0.991763 0
M  V30 12937 H 1247.28 -3.18908 -0.588904 0
M  V30 12938 H 1247.07 -3.76678 1.08884 0
M  V30 12939 H 1248.56 -4.17189 0.185331 0
M  V30 12940 N 1248.99 -0.981699 -1.2329 0
M  V30 12941 C 1250.24 -0.650015 -1.91361 0
M  V30 12942 C 1250.56 0.819184 -1.76959 0
M  V30 12943 O 1249.83 1.5861 -1.14977 0
M  V30 12944 H 1248.41 -0.237427 -0.708264 0
M  V30 12945 H 1251.08 -1.24579 -1.49887 0
M  V30 12946 H 1250.17 -0.902772 -2.98758 0
M  V30 12947 N 1250.47 1.3842 -0.753509 0
M  V30 12948 C 1251.7 2.04403 -0.320449 0
M  V30 12949 C 1252.12 1.5683 1.05118 0
M  V30 12950 O 1251.47 0.741335 1.66765 0
M  V30 12951 C 1251.52 3.59954 -0.333937 0
M  V30 12952 O 1251.24 4.05782 -1.65144 0
M  V30 12953 C 1252.75 4.43156 0.112997 0
M  V30 12954 H 1249.97 0.656881 -0.136927 0
M  V30 12955 H 1252.51 1.77112 -1.02234 0
M  V30 12956 H 1250.66 3.86083 0.319215 0
M  V30 12957 H 1251.08 5.00213 -1.57757 0
M  V30 12958 H 1252.55 5.51975 0.0523995 0
M  V30 12959 H 1253.03 4.23581 1.16087 0
M  V30 12960 H 1253.64 4.22216 -0.511278 0
M  V30 12961 N 1251.95 0.502579 1.49372 0
M  V30 12962 C 1253.18 -0.0380876 2.06565 0
M  V30 12963 C 1253.59 -1.31224 1.36297 0
M  V30 12964 O 1252.93 -1.78463 0.435517 0
M  V30 12965 C 1252.99 -0.360462 3.57688 0
M  V30 12966 C 1252.66 0.816203 4.49652 0
M  V30 12967 C 1253.65 1.70713 4.91073 0
M  V30 12968 C 1251.34 1.01545 4.91929 0
M  V30 12969 C 1253.33 2.78144 5.73511 0
M  V30 12970 C 1251.02 2.09294 5.74142 0
M  V30 12971 C 1252.02 2.97428 6.14838 0
M  V30 12972 O 1251.71 4.03317 6.95407 0
M  V30 12973 H 1251.44 0.0179548 0.675762 0
M  V30 12974 H 1253.99 0.699609 1.93118 0
M  V30 12975 H 1252.22 -1.15177 3.69149 0
M  V30 12976 H 1253.91 -0.839931 3.97115 0
M  V30 12977 H 1254.68 1.56502 4.59056 0
M  V30 12978 H 1250.56 0.338822 4.59753 0
M  V30 12979 H 1254.1 3.46965 6.05195 0
M  V30 12980 H 1250 2.235 6.05572 0
M  V30 12981 H 1250.77 4.00689 7.13716 0
M  V30 12982 N 1253.43 -1.55816 0.23648 0
M  V30 12983 C 1254.66 -2.03083 -0.395584 0
M  V30 12984 C 1255.07 -1.11599 -1.52286 0
M  V30 12985 O 1254.43 -0.128403 -1.82048 0
M  V30 12986 C 1254.48 -3.49776 -0.913197 0
M  V30 12987 O 1254.2 -4.37773 0.169151 0
M  V30 12988 C 1255.7 -4.12756 -1.617 0
M  V30 12989 H 1252.92 -0.66421 -0.0952146 0
M  V30 12990 H 1255.47 -2.01354 0.357299 0
M  V30 12991 H 1253.62 -3.52072 -1.6163 0
M  V30 12992 H 1254.03 -5.24029 -0.222217 0
M  V30 12993 H 1255.51 -5.17123 -1.93101 0
M  V30 12994 H 1255.99 -3.58631 -2.53537 0
M  V30 12995 H 1256.59 -4.14353 -0.958736 0
M  V30 12996 N 1254.91 0.036755 -1.57557 0
M  V30 12997 C 1256.13 0.741086 -1.93172 0
M  V30 12998 C 1256.55 1.69303 -0.835589 0
M  V30 12999 O 1255.91 1.81523 0.1886 0
M  V30 13000 C 1255.96 1.50477 -3.28693 0
M  V30 13001 O 1255.68 0.591046 -4.34095 0
M  V30 13002 C 1257.18 2.30695 -3.78543 0
M  V30 13003 H 1254.4 0.208731 -0.637709 0
M  V30 13004 H 1256.94 -0.00342776 -2.045 0
M  V30 13005 H 1255.1 2.20123 -3.18786 0
M  V30 13006 H 1255.51 1.12579 -5.12276 0
M  V30 13007 H 1256.99 2.79685 -4.759 0
M  V30 13008 H 1257.46 3.11778 -3.0934 0
M  V30 13009 H 1258.07 1.66138 -3.91508 0
M  V30 13010 N 1256.39 1.54543 0.308881 0
M  V30 13011 C 1257.63 1.73107 1.043 0
M  V30 13012 C 1257.95 0.515481 1.88063 0
M  V30 13013 O 1257.22 -0.47036 1.90169 0
M  V30 13014 H 1255.8 0.638289 0.388068 0
M  V30 13015 H 1258.47 1.9188 0.341769 0
M  V30 13016 H 1257.56 2.61697 1.70063 0
M  V30 13017 N 1257.86 -0.571685 1.46866 0
M  V30 13018 C 1258.83 -1.66198 1.57832 0
M  V30 13019 C 1259.83 -1.54242 0.454547 0
M  V30 13020 O 1261.02 -1.58661 0.719191 0
M  V30 13021 C 1258.15 -3.05678 1.5091 0
M  V30 13022 H 1259.34 -1.57829 2.5501 0
M  V30 13023 H 1256.89 -0.790433 1.3484 0
M  V30 13024 H 1257.63 -3.19593 0.550529 0
M  V30 13025 H 1257.41 -3.15765 2.32454 0
M  V30 13026 H 1258.9 -3.85027 1.61692 0
M  V30 13027 N 1259.34 -1.34755 -0.817236 0
M  V30 13028 C 1260.27 -1.22648 -1.93624 0
M  V30 13029 C 1261.29 -0.152226 -1.62087 0
M  V30 13030 O 1262.48 -0.404578 -1.73855 0
M  V30 13031 C 1259.58 -0.863519 -3.27714 0
M  V30 13032 C 1258.75 -2.03394 -3.87233 0
M  V30 13033 C 1257.81 -1.64846 -4.99712 0
M  V30 13034 O 1256.83 -2.3658 -5.17705 0
M  V30 13035 N 1258.04 -0.565909 -5.77735 0
M  V30 13036 H 1260.8 -2.19051 -2.0454 0
M  V30 13037 H 1258.36 -1.27785 -0.994113 0
M  V30 13038 H 1260.35 -0.58733 -4.00415 0
M  V30 13039 H 1258.92 0.0104987 -3.12598 0
M  V30 13040 H 1258.14 -2.47454 -3.06856 0
M  V30 13041 H 1259.43 -2.81655 -4.23731 0
M  V30 13042 H 1258.83 0.030313 -5.65692 0
M  V30 13043 H 1257.39 -0.349467 -6.50862 0
M  V30 13044 N 1260.82 1.03812 -1.18578 0
M  V30 13045 C 1261.75 2.11928 -0.872871 0
M  V30 13046 C 1262.76 1.62275 0.130592 0
M  V30 13047 O 1263.95 1.78233 -0.0975869 0
M  V30 13048 C 1261.05 3.37714 -0.283321 0
M  V30 13049 C 1260.23 4.16591 -1.33307 0
M  V30 13050 C 1259.29 5.20701 -0.758746 0
M  V30 13051 O 1258.31 5.50837 -1.43412 0
M  V30 13052 N 1259.51 5.78811 0.442505 0
M  V30 13053 H 1262.28 2.39364 -1.80346 0
M  V30 13054 H 1259.84 1.20027 -1.08652 0
M  V30 13055 H 1261.83 4.04538 0.114524 0
M  V30 13056 H 1260.4 3.07699 0.551347 0
M  V30 13057 H 1259.62 3.45051 -1.90613 0
M  V30 13058 H 1260.91 4.66082 -2.04071 0
M  V30 13059 H 1260.31 5.56631 1.00889 0
M  V30 13060 H 1258.86 6.47089 0.78224 0
M  V30 13061 N 1262.3 0.988223 1.22768 0
M  V30 13062 C 1263.23 0.492919 2.23837 0
M  V30 13063 C 1264.24 -0.409467 1.57567 0
M  V30 13064 O 1265.43 -0.21235 1.77232 0
M  V30 13065 C 1262.53 -0.305428 3.37521 0
M  V30 13066 C 1261.7 0.591966 4.33376 0
M  V30 13067 C 1260.76 -0.15387 5.25975 0
M  V30 13068 O 1259.79 0.459153 5.67345 0
M  V30 13069 N 1260.99 -1.43756 5.62418 0
M  V30 13070 H 1263.76 1.36199 2.66965 0
M  V30 13071 H 1261.32 0.862395 1.3702 0
M  V30 13072 H 1263.31 -0.812921 3.96451 0
M  V30 13073 H 1261.88 -1.07556 2.93514 0
M  V30 13074 H 1261.1 1.28019 3.72833 0
M  V30 13075 H 1262.39 1.20327 4.94367 0
M  V30 13076 H 1261.79 -1.95701 5.30771 0
M  V30 13077 H 1260.34 -1.89034 6.23786 0
M  V30 13078 N 1263.78 -1.38018 0.760839 0
M  V30 13079 C 1265 -2.04757 0.330038 0
M  V30 13080 C 1265.43 -1.57009 -1.03585 0
M  V30 13081 O 1264.78 -0.725349 -1.66158 0
M  V30 13082 C 1264.83 -3.58696 0.370082 0
M  V30 13083 O 1263.94 -4.07507 -0.633361 0
M  V30 13084 H 1263.28 -0.648023 0.144782 0
M  V30 13085 H 1265.81 -1.7655 1.03399 0
M  V30 13086 H 1265.82 -4.07387 0.223515 0
M  V30 13087 H 1264.49 -3.92806 1.36661 0
M  V30 13088 H 1263.07 -3.70165 -0.45081 0
M  V30 13089 N 1265.25 -0.510493 -1.49103 0
M  V30 13090 C 1266.48 0.0271718 -2.06882 0
M  V30 13091 C 1266.9 1.2995 -1.36962 0
M  V30 13092 O 1266.25 1.76842 -0.450916 0
M  V30 13093 C 1266.3 0.274956 -3.60453 0
M  V30 13094 O 1266.03 -0.946941 -4.27744 0
M  V30 13095 C 1267.53 0.855197 -4.34973 0
M  V30 13096 H 1264.75 -0.024732 -0.670544 0
M  V30 13097 H 1267.29 -0.710567 -1.91758 0
M  V30 13098 H 1265.45 0.962696 -3.75248 0
M  V30 13099 H 1265.86 -0.715627 -5.19595 0
M  V30 13100 H 1267.33 0.978103 -5.43265 0
M  V30 13101 H 1267.81 1.85535 -3.98087 0
M  V30 13102 H 1268.42 0.204632 -4.24807 0
M  V30 13103 N 1266.73 1.55688 -0.24474 0
M  V30 13104 C 1267.66 2.24272 0.64995 0
M  V30 13105 C 1268.64 1.22226 1.183 0
M  V30 13106 O 1269.83 1.50873 1.22274 0
M  V30 13107 C 1266.96 2.94053 1.84798 0
M  V30 13108 C 1265.91 4.02769 1.44779 0
M  V30 13109 C 1265.24 4.59965 2.72647 0
M  V30 13110 C 1266.54 5.18601 0.62047 0
M  V30 13111 H 1268.23 2.99298 0.0780654 0
M  V30 13112 H 1265.78 1.43955 0.0361069 0
M  V30 13113 H 1267.73 3.40732 2.47951 0
M  V30 13114 H 1266.45 2.16511 2.44521 0
M  V30 13115 H 1265.11 3.56856 0.839609 0
M  V30 13116 H 1264.76 3.79126 3.30564 0
M  V30 13117 H 1264.46 5.33352 2.46596 0
M  V30 13118 H 1265.99 5.09376 3.36703 0
M  V30 13119 H 1267.4 5.61519 1.15625 0
M  V30 13120 H 1265.8 5.98364 0.456097 0
M  V30 13121 H 1266.87 4.83503 -0.367798 0
M  V30 13122 N 1268.21 -0.0283989 1.57574 0
M  V30 13123 C 1269.46 -0.720142 1.89583 0
M  V30 13124 C 1269.79 -1.7497 0.842562 0
M  V30 13125 O 1269.06 -1.93979 -0.142294 0
M  V30 13126 C 1269.35 -1.38909 3.32229 0
M  V30 13127 C 1269.2 -0.372998 4.48251 0
M  V30 13128 C 1270.52 -2.32289 3.73804 0
M  V30 13129 H 1267.64 -0.26033 0.689491 0
M  V30 13130 H 1270.28 0.0170607 1.89992 0
M  V30 13131 H 1268.43 -2.01744 3.32011 0
M  V30 13132 H 1270.1 0.253492 4.60603 0
M  V30 13133 H 1268.34 0.30765 4.32708 0
M  V30 13134 H 1269.02 -0.879549 5.44948 0
M  V30 13135 H 1271.49 -1.79497 3.75393 0
M  V30 13136 H 1270.37 -2.76075 4.74419 0
M  V30 13137 H 1270.63 -3.18992 3.06099 0
M  V30 13138 N 1269.69 -1.54705 -0.300681 0
M  V30 13139 C 1270.91 -1.78318 -1.05913 0
M  V30 13140 C 1271.34 -0.541177 -1.80147 0
M  V30 13141 O 1270.7 0.508291 -1.74029 0
M  V30 13142 C 1270.74 -2.99041 -2.01511 0
M  V30 13143 O 1269.85 -2.72188 -3.09818 0
M  V30 13144 H 1269.19 -0.590197 -0.304242 0
M  V30 13145 H 1271.72 -2.01789 -0.338006 0
M  V30 13146 H 1271.73 -3.2702 -2.43971 0
M  V30 13147 H 1270.4 -3.89098 -1.46886 0
M  V30 13148 H 1268.98 -2.55227 -2.71871 0
M  V30 13149 N 1271.17 0.563888 -1.47167 0
M  V30 13150 C 1272.13 1.65359 -1.58711 0
M  V30 13151 C 1273.13 1.53999 -0.46272 0
M  V30 13152 O 1274.32 1.58277 -0.727595 0
M  V30 13153 C 1271.45 3.04874 -1.52529 0
M  V30 13154 H 1272.64 1.56475 -2.55843 0
M  V30 13155 H 1270.2 0.783271 -1.35257 0
M  V30 13156 H 1270.93 3.19297 -0.56747 0
M  V30 13157 H 1270.72 3.14528 -2.34125 0
M  V30 13158 H 1272.21 3.84164 -1.63731 0
M  V30 13159 N 1272.64 1.35187 0.810078 0
M  V30 13160 C 1273.89 1.29463 1.56879 0
M  V30 13161 C 1274.25 -0.130837 1.91955 0
M  V30 13162 O 1273.54 -1.08036 1.58236 0
M  V30 13163 C 1273.73 2.13135 2.86894 0
M  V30 13164 C 1273.56 3.63674 2.64521 0
M  V30 13165 C 1272.33 4.32918 2.60595 0
M  V30 13166 C 1274.53 4.57398 2.35141 0
M  V30 13167 N 1272.51 5.69226 2.29902 0
M  V30 13168 C 1273.88 5.81802 2.14257 0
M  V30 13169 C 1275.94 4.46177 2.20976 0
M  V30 13170 C 1274.64 6.96248 1.80641 0
M  V30 13171 C 1276.67 5.60469 1.88756 0
M  V30 13172 C 1276.03 6.83899 1.68704 0
M  V30 13173 H 1272.13 0.528991 0.575927 0
M  V30 13174 H 1274.71 1.70032 0.948529 0
M  V30 13175 H 1272.88 1.74842 3.46821 0
M  V30 13176 H 1274.61 1.98957 3.52418 0
M  V30 13177 H 1271.37 3.85494 2.75121 0
M  V30 13178 H 1271.79 6.41158 2.1736 0
M  V30 13179 H 1276.44 3.51357 2.35177 0
M  V30 13180 H 1274.15 7.91039 1.65176 0
M  V30 13181 H 1277.74 5.53738 1.78509 0
M  V30 13182 H 1276.62 7.7084 1.44136 0
M  V30 13183 N 1274.12 -1.03182 1.19127 0
M  V30 13184 C 1275.35 -1.79904 1.01578 0
M  V30 13185 C 1275.76 -1.84044 -0.438697 0
M  V30 13186 O 1275.1 -1.28117 -1.3165 0
M  V30 13187 C 1275.17 -3.26473 1.50519 0
M  V30 13188 C 1274.83 -3.45975 2.98581 0
M  V30 13189 C 1275.83 -3.36436 3.96367 0
M  V30 13190 C 1273.51 -3.72284 3.37209 0
M  V30 13191 C 1275.51 -3.52925 5.30775 0
M  V30 13192 C 1273.19 -3.8842 4.71777 0
M  V30 13193 C 1274.19 -3.78742 5.68369 0
M  V30 13194 O 1273.88 -3.94405 7.005 0
M  V30 13195 H 1273.61 -0.573103 0.35851 0
M  V30 13196 H 1276.16 -1.30871 1.5831 0
M  V30 13197 H 1274.39 -3.76517 0.881593 0
M  V30 13198 H 1276.08 -3.84781 1.29223 0
M  V30 13199 H 1276.85 -3.16064 3.6787 0
M  V30 13200 H 1272.73 -3.78911 2.62579 0
M  V30 13201 H 1276.27 -3.45288 6.06153 0
M  V30 13202 H 1272.17 -4.08288 4.99971 0
M  V30 13203 H 1272.94 -4.11514 7.0753 0
M  V30 13204 N 1275.6 -0.99472 -1.22242 0
M  V30 13205 C 1276.53 -0.566499 -2.26524 0
M  V30 13206 C 1277.51 0.407541 -1.65146 0
M  V30 13207 O 1278.7 0.297777 -1.91903 0
M  V30 13208 C 1275.83 0.11786 -3.471 0
M  V30 13209 C 1274.78 -0.774908 -4.20927 0
M  V30 13210 C 1274.11 0.0424687 -5.34683 0
M  V30 13211 C 1275.41 -2.07263 -4.79416 0
M  V30 13212 H 1277.1 -1.43818 -2.62596 0
M  V30 13213 H 1274.65 -0.692971 -1.2623 0
M  V30 13214 H 1276.6 0.428842 -4.19212 0
M  V30 13215 H 1275.32 1.0241 -3.10129 0
M  V30 13216 H 1273.98 -1.06956 -3.50651 0
M  V30 13217 H 1273.63 0.949677 -4.93954 0
M  V30 13218 H 1273.33 -0.551867 -5.85003 0
M  V30 13219 H 1274.85 0.347504 -6.0961 0
M  V30 13220 H 1276.27 -1.82548 -5.4346 0
M  V30 13221 H 1274.67 -2.61594 -5.40082 0
M  V30 13222 H 1275.74 -2.75017 -3.99366 0
M  V30 13223 N 1277.08 1.37613 -0.768148 0
M  V30 13224 C 1278.01 2.3291 -0.165911 0
M  V30 13225 C 1278.99 1.556 0.687205 0
M  V30 13226 O 1280.17 1.83854 0.625407 0
M  V30 13227 C 1277.3 3.39822 0.7168 0
M  V30 13228 C 1276.26 4.27986 -0.0347264 0
M  V30 13229 C 1275.58 5.2588 0.967192 0
M  V30 13230 C 1276.88 5.08052 -1.21164 0
M  V30 13231 H 1278.58 2.83524 -0.962006 0
M  V30 13232 H 1276.12 1.36318 -0.464051 0
M  V30 13233 H 1278.08 4.05464 1.14789 0
M  V30 13234 H 1276.8 2.87725 1.54538 0
M  V30 13235 H 1275.46 3.6387 -0.446557 0
M  V30 13236 H 1275.11 4.70064 1.79022 0
M  V30 13237 H 1274.81 5.85726 0.468913 0
M  V30 13238 H 1276.33 5.94397 1.3973 0
M  V30 13239 H 1277.75 5.66853 -0.857373 0
M  V30 13240 H 1276.14 5.77206 -1.64176 0
M  V30 13241 H 1277.21 4.40936 -2.0175 0
M  V30 13242 N 1278.56 0.518393 1.4883 0
M  V30 13243 C 1279.97 0.0749773 1.86549 0
M  V30 13244 C 1280.32 -1.34429 1.4291 0
M  V30 13245 O 1279.44 -2.00481 0.814648 0
M  V30 13246 C 1280.04 0.129289 3.38553 0
M  V30 13247 C 1278.6 -0.258871 3.75509 0
M  V30 13248 C 1277.74 0.494185 2.72861 0
M  V30 13249 H 1280.7 0.730266 1.409 0
M  V30 13250 H 1280.72 -0.661844 3.747 0
M  V30 13251 H 1280.23 1.16237 3.70285 0
M  V30 13252 H 1278.33 -1.29453 3.49389 0
M  V30 13253 H 1278.44 0.0726769 4.79045 0
M  V30 13254 H 1276.81 -0.0581428 2.54634 0
M  V30 13255 H 1277.59 1.52767 3.07436 0
M  V30 13256 N 1280.03 -1.55556 0.252993 0
M  V30 13257 C 1280.98 -2.21634 -0.643979 0
M  V30 13258 C 1281.95 -1.18226 -1.1667 0
M  V30 13259 O 1283.14 -1.46694 -1.22006 0
M  V30 13260 C 1280.28 -2.92429 -1.83246 0
M  V30 13261 C 1279.39 -4.10506 -1.34569 0
M  V30 13262 C 1278.52 -4.69001 -2.49421 0
M  V30 13263 C 1277.56 -5.79315 -1.97636 0
M  V30 13264 N 1276.7 -6.31967 -3.05878 0
M  V30 13265 H 1281.54 -2.97909 -0.0738178 0
M  V30 13266 H 1279.08 -1.47079 -0.0246728 0
M  V30 13267 H 1281.04 -3.31678 -2.53072 0
M  V30 13268 H 1279.67 -2.18617 -2.375 0
M  V30 13269 H 1278.72 -3.76529 -0.541268 0
M  V30 13270 H 1280.03 -4.90125 -0.92622 0
M  V30 13271 H 1279.18 -5.10855 -3.27279 0
M  V30 13272 H 1277.92 -3.88612 -2.94673 0
M  V30 13273 H 1276.93 -5.36933 -1.18251 0
M  V30 13274 H 1278.15 -6.6156 -1.53347 0
M  V30 13275 H 1276.1 -5.5448 -3.50553 0
M  V30 13276 H 1276.02 -7.06797 -2.68281 0
M  V30 13277 H 1277.28 -6.7848 -3.83777 0
M  V30 13278 N 1281.51 0.0200419 -1.57587 0
M  V30 13279 C 1282.92 0.565484 -1.7793 0
M  V30 13280 C 1283.27 1.75096 -0.885201 0
M  V30 13281 O 1282.4 2.16243 -0.0823831 0
M  V30 13282 C 1282.99 1.03263 -3.2268 0
M  V30 13283 C 1281.55 1.52352 -3.44189 0
M  V30 13284 C 1280.7 0.465637 -2.73363 0
M  V30 13285 H 1283.65 -0.206174 -1.57355 0
M  V30 13286 H 1283.67 1.89959 -3.2969 0
M  V30 13287 H 1283.18 0.169613 -3.87729 0
M  V30 13288 H 1281.29 2.40809 -2.84327 0
M  V30 13289 H 1281.4 1.5648 -4.52825 0
M  V30 13290 H 1279.76 0.922738 -2.37398 0
M  V30 13291 H 1280.55 -0.388068 -3.411 0
M  V30 13292 N 1282.99 1.54862 0.292472 0
M  V30 13293 C 1284.27 1.65237 1.04671 0
M  V30 13294 C 1284.65 0.506168 2.04942 0
M  V30 13295 O 1284 -0.496123 2.23049 0
M  V30 13296 C 1284.21 3.03618 1.72095 0
M  V30 13297 C 1285.55 3.6072 2.23979 0
M  V30 13298 O 1286.58 3.06126 1.82114 0
M  V30 13299 O 1285.44 4.56328 3.0071 0
M  V30 13300 H 1282.53 0.670347 0.484319 0
M  V30 13301 H 1285.08 1.67206 0.28988 0
M  V30 13302 H 1283.85 3.78482 0.993324 0
M  V30 13303 H 1283.47 3.05464 2.54514 0
M  V30 13304 N 1284.47 -0.556076 1.47464 0
M  V30 13305 C 1285.75 -1.31689 1.44628 0
M  V30 13306 C 1286.13 -2.10609 0.143841 0
M  V30 13307 O 1285.47 -2.11097 -0.874662 0
M  V30 13308 C 1285.68 -2.22045 2.69253 0
M  V30 13309 C 1287.03 -2.83028 3.16513 0
M  V30 13310 O 1288.06 -2.32346 2.69988 0
M  V30 13311 O 1286.91 -3.75148 3.97399 0
M  V30 13312 H 1284.01 -0.593026 0.576411 0
M  V30 13313 H 1286.55 -0.574885 1.59666 0
M  V30 13314 H 1285.33 -1.63337 3.5558 0
M  V30 13315 H 1284.95 -3.03539 2.56807 0
M  V30 13316 N 1285.95 -1.35615 -0.802897 0
M  V30 13317 C 1287.2 -1.28839 -1.55708 0
M  V30 13318 C 1287.52 0.135906 -1.94526 0
M  V30 13319 O 1286.79 1.07317 -1.6389 0
M  V30 13320 H 1285.37 -0.473906 -0.577427 0
M  V30 13321 H 1288.03 -1.69759 -0.957487 0
M  V30 13322 H 1287.12 -1.90675 -2.47082 0
M  V30 13323 N 1287.43 1.02549 -1.19673 0
M  V30 13324 C 1288.38 2.09257 -0.905282 0
M  V30 13325 C 1289.36 1.60363 0.131302 0
M  V30 13326 O 1290.55 1.76842 -0.0748563 0
M  V30 13327 C 1287.68 3.40345 -0.449474 0
M  V30 13328 C 1286.77 3.95964 -1.51899 0
M  V30 13329 N 1287.16 4.25203 -2.73926 0
M  V30 13330 C 1285.46 4.24013 -1.38307 0
M  V30 13331 C 1286.16 4.69925 -3.42849 0
M  V30 13332 N 1285.13 4.71664 -2.70248 0
M  V30 13333 H 1288.93 2.29761 -1.83268 0
M  V30 13334 H 1286.45 1.2044 -1.0894 0
M  V30 13335 H 1288.45 4.16308 -0.222121 0
M  V30 13336 H 1287.11 3.2126 0.471402 0
M  V30 13337 H 1288.12 4.14381 -3.10658 0
M  V30 13338 H 1284.79 4.14174 -0.52592 0
M  V30 13339 H 1286.18 5.01442 -4.4722 0
M  V30 13340 N 1288.9 1.00119 1.21713 0
M  V30 13341 C 1290.31 0.715611 1.72441 0
M  V30 13342 C 1290.67 -0.767 1.80587 0
M  V30 13343 O 1289.79 -1.59928 1.45781 0
M  V30 13344 C 1290.39 1.29234 3.13184 0
M  V30 13345 C 1288.94 1.05597 3.61284 0
M  V30 13346 C 1288.09 1.40749 2.38925 0
M  V30 13347 H 1291.04 1.17255 1.06943 0
M  V30 13348 H 1291.06 0.67507 3.74464 0
M  V30 13349 H 1290.58 2.37141 3.07223 0
M  V30 13350 H 1288.68 -0.00610816 3.72599 0
M  V30 13351 H 1288.79 1.72517 4.46961 0
M  V30 13352 H 1287.15 0.826207 2.40927 0
M  V30 13353 H 1287.94 2.49678 2.35618 0
M  V30 13354 N 1290.38 -1.37203 0.775435 0
M  V30 13355 C 1291.31 -2.32819 0.17826 0
M  V30 13356 C 1292.29 -1.55963 -0.678944 0
M  V30 13357 O 1293.48 -1.84183 -0.615648 0
M  V30 13358 C 1290.61 -3.40198 -0.698768 0
M  V30 13359 C 1289.56 -4.27961 0.057423 0
M  V30 13360 C 1288.89 -5.26385 -0.93929 0
M  V30 13361 C 1290.19 -5.07402 1.23856 0
M  V30 13362 H 1291.88 -2.8301 0.977028 0
M  V30 13363 H 1289.43 -1.3607 0.471274 0
M  V30 13364 H 1291.38 -4.06067 -1.12637 0
M  V30 13365 H 1290.1 -2.88541 -1.53009 0
M  V30 13366 H 1288.76 -3.63628 0.465848 0
M  V30 13367 H 1288.41 -4.71007 -1.76527 0
M  V30 13368 H 1288.11 -5.85966 -0.437844 0
M  V30 13369 H 1289.64 -5.9513 -1.36576 0
M  V30 13370 H 1291.05 -5.6639 0.887423 0
M  V30 13371 H 1289.45 -5.76327 1.67234 0
M  V30 13372 H 1290.52 -4.3986 2.04085 0
M  V30 13373 N 1291.86 -0.526279 -1.48553 0
M  V30 13374 C 1293.11 0.00918008 -2.02798 0
M  V30 13375 C 1293.44 1.34284 -1.4029 0
M  V30 13376 O 1292.71 1.86639 -0.547355 0
M  V30 13377 C 1293 0.135102 -3.59846 0
M  V30 13378 C 1292.85 -1.22347 -4.32841 0
M  V30 13379 C 1294.17 0.863673 -4.31542 0
M  V30 13380 H 1291.29 0.00186216 -0.736998 0
M  V30 13381 H 1293.93 -0.682591 -1.77315 0
M  V30 13382 H 1292.08 0.724279 -3.81689 0
M  V30 13383 H 1293.75 -1.85347 -4.22427 0
M  V30 13384 H 1291.99 -1.80631 -3.94405 0
M  V30 13385 H 1292.67 -1.08839 -5.41164 0
M  V30 13386 H 1295.14 0.363734 -4.14507 0
M  V30 13387 H 1294.02 0.92067 -5.41124 0
M  V30 13388 H 1294.28 1.91313 -3.98562 0
M  V30 13389 N 1293.34 1.5542 -0.261239 0
M  V30 13390 C 1294.58 1.99579 0.36002 0
M  V30 13391 C 1294.92 1.14933 1.56538 0
M  V30 13392 O 1294.19 0.216082 1.93296 0
M  V30 13393 C 1294.47 3.52078 0.755842 0
M  V30 13394 C 1294.33 4.47484 -0.455896 0
M  V30 13395 C 1295.65 4.10083 1.5975 0
M  V30 13396 H 1292.77 0.725554 0.129385 0
M  V30 13397 H 1295.41 1.86453 -0.365415 0
M  V30 13398 H 1293.56 3.63394 1.37393 0
M  V30 13399 H 1295.23 4.4813 -1.09441 0
M  V30 13400 H 1293.47 4.19714 -1.09646 0
M  V30 13401 H 1294.14 5.51834 -0.13539 0
M  V30 13402 H 1296.62 4.01957 1.07562 0
M  V30 13403 H 1295.5 5.17024 1.84329 0
M  V30 13404 H 1295.76 3.59438 2.57404 0
M  V30 13405 N 1294.82 -0.0116844 1.57596 0
M  V30 13406 C 1296.06 -0.699994 1.90336 0
M  V30 13407 C 1296.39 -1.74067 0.861072 0
M  V30 13408 O 1295.67 -1.94119 -0.121712 0
M  V30 13409 C 1295.95 -1.35377 3.33684 0
M  V30 13410 C 1295.81 -0.325434 4.48621 0
M  V30 13411 C 1297.12 -2.28312 3.76247 0
M  V30 13412 H 1294.24 -0.253002 0.692213 0
M  V30 13413 H 1296.89 0.037211 1.89964 0
M  V30 13414 H 1295.04 -1.98212 3.34132 0
M  V30 13415 H 1296.71 0.302331 4.60308 0
M  V30 13416 H 1294.95 0.353527 4.32357 0
M  V30 13417 H 1295.62 -0.8217 5.4585 0
M  V30 13418 H 1298.1 -1.75505 3.77276 0
M  V30 13419 H 1296.97 -2.71028 4.77321 0
M  V30 13420 H 1297.23 -3.15727 3.09465 0
M  V30 13421 N 1296.29 -1.55015 -0.284256 0
M  V30 13422 C 1297.52 -1.79102 -1.03586 0
M  V30 13423 C 1297.94 -0.558733 -1.80343 0
M  V30 13424 O 1297.29 0.471925 -1.76293 0
M  V30 13425 C 1297.34 -3.00915 -2.0033 0
M  V30 13426 O 1297.07 -4.19384 -1.26685 0
M  V30 13427 C 1298.57 -3.3752 -2.87394 0
M  V30 13428 H 1295.79 -0.596912 -0.306491 0
M  V30 13429 H 1298.33 -2.02005 -0.31845 0
M  V30 13430 H 1296.49 -2.80171 -2.67549 0
M  V30 13431 H 1296.9 -4.88175 -1.91796 0
M  V30 13432 H 1298.37 -4.25953 -3.51095 0
M  V30 13433 H 1298.85 -2.56418 -3.56576 0
M  V30 13434 H 1299.46 -3.60483 -2.25682 0
M  V30 13435 N 1297.77 0.548248 -1.47757 0
M  V30 13436 C 1298.73 1.63666 -1.60456 0
M  V30 13437 C 1299.73 1.53499 -0.479028 0
M  V30 13438 O 1300.92 1.57497 -0.744342 0
M  V30 13439 C 1298.06 3.03239 -1.55754 0
M  V30 13440 H 1299.25 1.53752 -2.57488 0
M  V30 13441 H 1296.8 0.768881 -1.36081 0
M  V30 13442 H 1297.54 3.18677 -0.601303 0
M  V30 13443 H 1297.32 3.12027 -2.37448 0
M  V30 13444 H 1298.81 3.82406 -1.67797 0
M  V30 13445 N 1299.25 1.36039 0.795694 0
M  V30 13446 C 1300.21 1.29709 1.88966 0
M  V30 13447 C 1301.21 0.206142 1.59473 0
M  V30 13448 O 1302.4 0.460534 1.68002 0
M  V30 13449 C 1299.53 1.00922 3.25619 0
M  V30 13450 H 1300.73 2.26993 1.95995 0
M  V30 13451 H 1298.28 1.2072 0.992791 0
M  V30 13452 H 1299.02 0.0407027 3.24274 0
M  V30 13453 H 1298.8 1.79863 3.48413 0
M  V30 13454 H 1300.29 0.990826 4.05675 0
M  V30 13455 N 1300.73 -1.01913 1.20215 0
M  V30 13456 C 1301.98 -1.75124 1.00876 0
M  V30 13457 C 1302.3 -1.89485 -0.460475 0
M  V30 13458 O 1301.57 -1.43552 -1.33302 0
M  V30 13459 H 1300.15 -0.648777 0.370266 0
M  V30 13460 H 1302.81 -1.22883 1.5128 0
M  V30 13461 H 1301.91 -2.7558 1.46499 0
M  V30 13462 N 1302.21 -1.00763 -1.2118 0
M  V30 13463 C 1303.15 -0.570257 -2.23644 0
M  V30 13464 C 1304.12 0.405039 -1.61086 0
M  V30 13465 O 1305.31 0.306496 -1.88322 0
M  V30 13466 C 1302.45 0.094325 -3.44971 0
M  V30 13467 C 1301.56 -0.924463 -4.21993 0
M  V30 13468 C 1300.7 -0.231869 -5.30694 0
M  V30 13469 C 1299.74 -1.23803 -5.99449 0
M  V30 13470 N 1298.87 -0.572725 -6.9976 0
M  V30 13471 H 1303.71 -1.44869 -2.60417 0
M  V30 13472 H 1301.25 -0.725369 -1.27972 0
M  V30 13473 H 1303.21 0.496689 -4.14233 0
M  V30 13474 H 1301.84 0.936457 -3.08918 0
M  V30 13475 H 1300.89 -1.44505 -3.51884 0
M  V30 13476 H 1302.2 -1.69004 -4.69296 0
M  V30 13477 H 1301.36 0.226465 -6.06277 0
M  V30 13478 H 1300.09 0.566092 -4.84403 0
M  V30 13479 H 1299.1 -1.70684 -5.22635 0
M  V30 13480 H 1300.32 -2.03711 -6.47826 0
M  V30 13481 H 1298.27 0.205531 -6.55678 0
M  V30 13482 H 1298.19 -1.27651 -7.45145 0
M  V30 13483 H 1299.46 -0.137683 -7.79378 0
M  V30 13484 N 1303.68 1.3679 -0.7827 0
M  V30 13485 C 1304.93 1.98664 -0.348634 0
M  V30 13486 C 1305.25 1.62827 1.08382 0
M  V30 13487 O 1306.45 2.17886 1.61982 0
M  V30 13488 C 1304.91 3.55319 -0.572392 0
M  V30 13489 C 1304.52 4.00086 -2.01582 0
M  V30 13490 C 1306.26 4.24017 -0.202496 0
M  V30 13491 C 1304.17 5.49493 -2.18659 0
M  V30 13492 H 1303.1 0.743294 -0.126612 0
M  V30 13493 H 1305.75 1.56177 -0.963383 0
M  V30 13494 H 1304.13 3.95842 0.111973 0
M  V30 13495 H 1305.3 3.7078 -2.73603 0
M  V30 13496 H 1303.62 3.44205 -2.34333 0
M  V30 13497 H 1306.22 5.3381 -0.308459 0
M  V30 13498 H 1306.56 4.07559 0.84859 0
M  V30 13499 H 1307.09 3.88834 -0.839834 0
M  V30 13500 H 1303.83 5.7089 -3.22126 0
M  V30 13501 H 1303.35 5.80447 -1.51134 0
M  V30 13502 H 1305.03 6.15621 -1.99048 0
M  V30 13503 N 1305.16 0.53415 1.48272 0
M  V30 13504 C 1306.13 -0.215641 2.28183 0
M  V30 13505 C 1307.13 -0.863966 1.35618 0
M  V30 13506 O 1308.32 -0.723375 1.58471 0
M  V30 13507 C 1305.45 -1.31251 3.1462 0
M  V30 13508 H 1306.64 0.486014 2.95936 0
M  V30 13509 H 1304.19 0.290237 1.53582 0
M  V30 13510 H 1304.93 -2.04729 2.51508 0
M  V30 13511 H 1304.71 -0.852706 3.82716 0
M  V30 13512 H 1306.2 -1.83978 3.74889 0
M  V30 13513 N 1306.64 -1.55279 0.269478 0
M  V30 13514 C 1307.89 -1.99077 -0.348224 0
M  V30 13515 C 1308.21 -1.15925 -1.568 0
M  V30 13516 O 1307.48 -0.247404 -1.94331 0
M  V30 13517 H 1306.06 -0.735307 -0.131653 0
M  V30 13518 H 1308.72 -1.91288 0.373506 0
M  V30 13519 H 1307.82 -3.05427 -0.641953 0
M  V30 13520 N 1308.12 0.00332656 -1.576 0
M  V30 13521 C 1309.07 1.01406 -2.09331 0
M  V30 13522 C 1310.06 1.35806 -1.01258 0
M  V30 13523 O 1311.27 1.34409 -1.19726 0
M  V30 13524 H 1307.64 0.344661 -0.668366 0
M  V30 13525 H 1309.61 0.552154 -2.93247 0
M  V30 13526 C 1308.36 2.29819 -2.60918 0
M  V30 13527 H 1307.68 2.04216 -3.43709 0
M  V30 13528 H 1309.12 2.98826 -3.00797 0
M  V30 13529 C 1307.58 3.0057 -1.52182 0
M  V30 13530 O 1308.11 3.91423 -0.902817 0
M  V30 13531 N 1306.32 2.62338 -1.25009 0
M  V30 13532 H 1305.87 1.88538 -1.75531 0
M  V30 13533 H 1305.82 3.0999 -0.524736 0
M  V30 13534 N 1309.6 1.55164 0.276031 0
M  V30 13535 C 1310.82 1.7998 1.03063 0
M  V30 13536 C 1311.25 0.569769 1.79263 0
M  V30 13537 O 1310.6 -0.48054 1.74816 0
M  V30 13538 C 1310.65 3.02209 1.96728 0
M  V30 13539 O 1309.76 2.77083 3.05449 0
M  V30 13540 H 1309.1 0.594963 0.294814 0
M  V30 13541 H 1311.63 2.02301 0.305861 0
M  V30 13542 H 1311.64 3.3086 2.38738 0
M  V30 13543 H 1310.31 3.91386 1.40677 0
M  V30 13544 H 1308.89 2.5952 2.67776 0
M  V30 13545 N 1311.07 -0.540404 1.48045 0
M  V30 13546 C 1312.32 -1.2987 1.55762 0
M  V30 13547 C 1312.65 -1.92877 0.226307 0
M  V30 13548 O 1311.93 -1.7875 -0.766727 0
M  V30 13549 C 1312.21 -2.39602 2.68817 0
M  V30 13550 C 1312.06 -1.81354 4.1162 0
M  V30 13551 C 1313.38 -3.41434 2.77688 0
M  V30 13552 H 1310.5 -0.47083 0.566999 0
M  V30 13553 H 1313.14 -0.603081 1.80175 0
M  V30 13554 H 1311.29 -2.98936 2.48132 0
M  V30 13555 H 1312.97 -1.26151 4.43716 0
M  V30 13556 H 1311.21 -1.1194 4.19108 0
M  V30 13557 H 1311.88 -2.60758 4.86528 0
M  V30 13558 H 1314.36 -2.92042 2.96396 0
M  V30 13559 H 1313.23 -4.15621 3.5854 0
M  V30 13560 H 1313.49 -4.01336 1.85422 0
M  V30 13561 N 1312.55 -1.36459 -0.788468 0
M  V30 13562 C 1313.48 -1.33545 -1.91541 0
M  V30 13563 C 1314.46 -0.206762 -1.68839 0
M  V30 13564 O 1315.65 -0.404553 -1.89939 0
M  V30 13565 C 1312.78 -1.12492 -3.28577 0
M  V30 13566 C 1311.73 -2.22196 -3.65805 0
M  V30 13567 C 1311.06 -1.86285 -5.01201 0
M  V30 13568 C 1312.36 -3.64286 -3.7429 0
M  V30 13569 H 1314.05 -2.27844 -1.94236 0
M  V30 13570 H 1311.6 -1.09677 -0.933105 0
M  V30 13571 H 1313.55 -1.09089 -4.07035 0
M  V30 13572 H 1312.28 -0.146446 -3.26272 0
M  V30 13573 H 1310.93 -2.24727 -2.89644 0
M  V30 13574 H 1310.58 -0.87009 -4.95417 0
M  V30 13575 H 1310.28 -2.59734 -5.27079 0
M  V30 13576 H 1311.81 -1.84439 -5.82078 0
M  V30 13577 H 1313.22 -3.63977 -4.42937 0
M  V30 13578 H 1311.62 -4.36648 -4.11653 0
M  V30 13579 H 1312.69 -3.99123 -2.75371 0
M  V30 13580 N 1314.03 1.01274 -1.20754 0
M  V30 13581 C 1314.98 2.08285 -0.927426 0
M  V30 13582 C 1315.96 1.60494 0.114286 0
M  V30 13583 O 1317.16 1.76752 -0.0936086 0
M  V30 13584 C 1314.29 3.39849 -0.485546 0
M  V30 13585 C 1313.37 3.94331 -1.5609 0
M  V30 13586 N 1313.76 4.22274 -2.78421 0
M  V30 13587 C 1312.06 4.22522 -1.42797 0
M  V30 13588 C 1312.76 4.66262 -3.47813 0
M  V30 13589 N 1311.74 4.68771 -2.75235 0
M  V30 13590 H 1315.54 2.27804 -1.85695 0
M  V30 13591 H 1313.05 1.19278 -1.10211 0
M  V30 13592 H 1315.05 4.16049 -0.266263 0
M  V30 13593 H 1313.71 3.21742 0.437301 0
M  V30 13594 H 1314.72 4.11063 -3.15036 0
M  V30 13595 H 1311.4 4.13593 -0.569819 0
M  V30 13596 H 1312.79 4.9667 -4.52513 0
M  V30 13597 N 1315.51 1.01404 1.20644 0
M  V30 13598 C 1316.76 0.700523 1.89571 0
M  V30 13599 C 1317.08 -0.771978 1.79068 0
M  V30 13600 O 1316.35 -1.55506 1.19142 0
M  V30 13601 H 1314.93 0.256122 0.70172 0
M  V30 13602 H 1317.59 1.28509 1.46531 0
M  V30 13603 H 1316.69 0.981665 2.9626 0
M  V30 13604 N 1316.99 -1.36373 0.789944 0
M  V30 13605 C 1318.22 -2.03187 0.373987 0
M  V30 13606 C 1318.63 -1.59697 -1.01457 0
M  V30 13607 O 1317.97 -0.782151 -1.66217 0
M  V30 13608 C 1318.03 -3.57703 0.358985 0
M  V30 13609 C 1317.69 -4.24396 1.69521 0
M  V30 13610 C 1318.69 -4.47247 2.65077 0
M  V30 13611 C 1316.38 -4.61858 1.97465 0
M  V30 13612 C 1318.37 -5.06642 3.86772 0
M  V30 13613 C 1316.06 -5.2097 3.19426 0
M  V30 13614 C 1317.06 -5.43302 4.13899 0
M  V30 13615 O 1316.74 -6.01173 5.3371 0
M  V30 13616 H 1316.48 -0.658654 0.152153 0
M  V30 13617 H 1319.03 -1.7532 1.07014 0
M  V30 13618 H 1317.26 -3.84691 -0.39366 0
M  V30 13619 H 1318.95 -4.05887 -0.0323762 0
M  V30 13620 H 1319.71 -4.18701 2.44775 0
M  V30 13621 H 1315.59 -4.438 1.2475 0
M  V30 13622 H 1319.14 -5.23989 4.60523 0
M  V30 13623 H 1315.03 -5.48943 3.39606 0
M  V30 13624 H 1315.8 -6.19638 5.34781 0
M  V30 13625 N 1318.47 -0.542005 -1.47987 0
M  V30 13626 C 1319.69 -0.016717 -2.06893 0
M  V30 13627 C 1320.11 1.27015 -1.39687 0
M  V30 13628 O 1319.47 1.75845 -0.488326 0
M  V30 13629 C 1319.52 0.198437 -3.60955 0
M  V30 13630 O 1319.24 -1.03746 -4.25639 0
M  V30 13631 C 1320.74 0.762741 -4.36689 0
M  V30 13632 H 1317.96 -0.0389497 -0.669869 0
M  V30 13633 H 1320.5 -0.751082 -1.90208 0
M  V30 13634 H 1318.66 0.882884 -3.77205 0
M  V30 13635 H 1319.07 -0.82568 -5.1796 0
M  V30 13636 H 1320.55 0.862649 -5.45218 0
M  V30 13637 H 1321.02 1.77049 -4.01933 0
M  V30 13638 H 1321.63 0.114478 -4.25146 0
M  V30 13639 N 1319.94 1.55134 -0.277709 0
M  V30 13640 C 1321.35 1.85405 0.219543 0
M  V30 13641 C 1321.71 1.19973 1.55245 0
M  V30 13642 O 1320.83 0.488986 2.10803 0
M  V30 13643 C 1321.43 3.36369 0.405127 0
M  V30 13644 C 1319.98 3.66755 0.846609 0
M  V30 13645 C 1319.13 2.77238 -0.0586063 0
M  V30 13646 H 1322.08 1.50637 -0.499422 0
M  V30 13647 H 1322.1 3.59615 1.24329 0
M  V30 13648 H 1321.62 3.83963 -0.565138 0
M  V30 13649 H 1319.72 3.24662 1.82825 0
M  V30 13650 H 1319.83 4.74219 0.682135 0
M  V30 13651 H 1318.19 2.50546 0.458153 0
M  V30 13652 H 1318.98 3.27647 -1.0248 0
M  V30 13653 N 1321.42 0.00503138 1.57599 0
M  V30 13654 C 1322.67 -0.67742 1.90409 0
M  V30 13655 C 1322.99 -1.74033 0.87963 0
M  V30 13656 O 1322.26 -1.95727 -0.0822757 0
M  V30 13657 H 1320.84 -0.2532 0.702779 0
M  V30 13658 H 1323.5 0.0471466 1.94843 0
M  V30 13659 H 1322.6 -1.14548 2.90319 0
M  V30 13660 N 1322.9 -1.55308 -0.267798 0
M  V30 13661 C 1323.83 -1.84963 -1.35356 0
M  V30 13662 C 1324.84 -0.73446 -1.45291 0
M  V30 13663 O 1326.03 -1.01237 -1.47015 0
M  V30 13664 C 1323.13 -2.00221 -2.73432 0
M  V30 13665 C 1322.31 -3.30922 -2.86024 0
M  V30 13666 C 1321.37 -3.3618 -4.04808 0
M  V30 13667 O 1320.39 -4.09525 -3.9532 0
M  V30 13668 N 1321.59 -2.63958 -5.17017 0
M  V30 13669 H 1324.36 -2.7868 -1.1026 0
M  V30 13670 H 1321.92 -1.55289 -0.457914 0
M  V30 13671 H 1323.91 -2.01103 -3.51197 0
M  V30 13672 H 1322.48 -1.13346 -2.91327 0
M  V30 13673 H 1321.7 -3.42534 -1.951 0
M  V30 13674 H 1322.99 -4.17109 -2.91371 0
M  V30 13675 H 1322.39 -2.04062 -5.27613 0
M  V30 13676 H 1320.94 -2.70558 -5.92994 0
M  V30 13677 N 1324.38 0.532545 -1.4833 0
M  V30 13678 C 1325.61 1.31331 -1.59874 0
M  V30 13679 C 1326.02 1.87028 -0.258037 0
M  V30 13680 O 1325.38 1.66272 0.752317 0
M  V30 13681 C 1325.43 2.46596 -2.64334 0
M  V30 13682 O 1325.15 1.93195 -3.93201 0
M  V30 13683 C 1326.65 3.38454 -2.86294 0
M  V30 13684 H 1323.87 0.399476 -0.539129 0
M  V30 13685 H 1326.41 0.642696 -1.94138 0
M  V30 13686 H 1324.57 3.09548 -2.32936 0
M  V30 13687 H 1324.98 2.68627 -4.50489 0
M  V30 13688 H 1326.46 4.15687 -3.63192 0
M  V30 13689 H 1326.93 3.93526 -1.95022 0
M  V30 13690 H 1327.54 2.81297 -3.18986 0
M  V30 13691 N 1325.86 1.36875 0.78122 0
M  V30 13692 C 1327.1 1.31754 1.54171 0
M  V30 13693 C 1327.43 -0.100632 1.93939 0
M  V30 13694 O 1326.71 -1.05587 1.63345 0
M  V30 13695 C 1326.99 2.24789 2.81322 0
M  V30 13696 C 1326.85 3.75342 2.47868 0
M  V30 13697 C 1328.16 2.16442 3.83198 0
M  V30 13698 H 1325.28 0.479931 0.559317 0
M  V30 13699 H 1327.93 1.67497 0.896935 0
M  V30 13700 H 1326.08 1.94438 3.36342 0
M  V30 13701 H 1327.75 4.16247 1.98836 0
M  V30 13702 H 1325.99 3.94375 1.80696 0
M  V30 13703 H 1326.66 4.3586 3.38719 0
M  V30 13704 H 1329.14 2.43175 3.37647 0
M  V30 13705 H 1328.01 2.83695 4.69903 0
M  V30 13706 H 1328.27 1.15431 4.26765 0
M  V30 13707 N 1327.33 -1.00632 1.21289 0
M  V30 13708 C 1328.58 -1.74647 1.03084 0
M  V30 13709 C 1328.91 -1.89271 -0.43476 0
M  V30 13710 O 1328.19 -1.42607 -1.32263 0
M  V30 13711 C 1328.47 -3.15981 1.72709 0
M  V30 13712 C 1328.32 -3.09088 3.2678 0
M  V30 13713 C 1329.64 -4.14875 1.46857 0
M  V30 13714 H 1326.76 -0.633938 0.375889 0
M  V30 13715 H 1329.4 -1.17328 1.49446 0
M  V30 13716 H 1327.55 -3.64918 1.33294 0
M  V30 13717 H 1329.23 -2.67875 3.75554 0
M  V30 13718 H 1327.47 -2.46223 3.57151 0
M  V30 13719 H 1328.14 -4.09041 3.70661 0
M  V30 13720 H 1330.62 -3.74637 1.81069 0
M  V30 13721 H 1329.49 -5.1191 1.98088 0
M  V30 13722 H 1329.75 -4.40302 0.398296 0
M  V30 13723 N 1328.81 -1.02043 -1.20104 0
M  V30 13724 C 1329.74 -0.614421 -2.25271 0
M  V30 13725 C 1330.72 0.37242 -1.65973 0
M  V30 13726 O 1331.91 0.257005 -1.92492 0
M  V30 13727 C 1329.04 0.0442085 -3.47272 0
M  V30 13728 C 1327.99 -0.864019 -4.19188 0
M  V30 13729 C 1327.32 -0.0709551 -5.34653 0
M  V30 13730 C 1328.62 -2.17385 -4.74912 0
M  V30 13731 H 1330.31 -1.49355 -2.59487 0
M  V30 13732 H 1327.86 -0.719591 -1.24731 0
M  V30 13733 H 1329.81 0.339825 -4.20028 0
M  V30 13734 H 1328.53 0.958082 -3.12231 0
M  V30 13735 H 1327.19 -1.1437 -3.48303 0
M  V30 13736 H 1326.84 0.844688 -4.95857 0
M  V30 13737 H 1326.54 -0.67583 -5.83701 0
M  V30 13738 H 1328.07 0.218118 -6.1021 0
M  V30 13739 H 1329.48 -1.94034 -5.39466 0
M  V30 13740 H 1327.88 -2.72991 -5.34412 0
M  V30 13741 H 1328.95 -2.83427 -3.93443 0
M  V30 13742 N 1330.29 1.35952 -0.797165 0
M  V30 13743 C 1331.2 2.33726 -0.202271 0
M  V30 13744 C 1332.22 1.61415 0.649719 0
M  V30 13745 O 1333.39 1.93351 0.563686 0
M  V30 13746 C 1330.46 3.40612 0.64685 0
M  V30 13747 C 1329.52 4.28712 -0.224536 0
M  V30 13748 C 1328.75 5.30493 0.584153 0
M  V30 13749 O 1328.97 5.40599 1.81957 0
M  V30 13750 O 1327.91 6.01897 -0.0200239 0
M  V30 13751 H 1331.73 2.86383 -1.01087 0
M  V30 13752 H 1329.32 1.38557 -0.558768 0
M  V30 13753 H 1331.2 4.05944 1.1308 0
M  V30 13754 H 1329.88 2.90243 1.43321 0
M  V30 13755 H 1328.78 3.66394 -0.755415 0
M  V30 13756 H 1330.12 4.82454 -0.974603 0
M  V30 13757 N 1331.77 0.549846 1.47697 0
M  V30 13758 C 1333 0.0276487 2.06581 0
M  V30 13759 C 1333.41 -1.26821 1.40403 0
M  V30 13760 O 1332.75 -1.76987 0.492073 0
M  V30 13761 C 1332.81 -0.246484 3.58654 0
M  V30 13762 C 1332.48 0.958843 4.46828 0
M  V30 13763 C 1333.47 1.86249 4.85394 0
M  V30 13764 C 1331.16 1.17144 4.88449 0
M  V30 13765 C 1333.15 2.96249 5.64372 0
M  V30 13766 C 1330.84 2.27454 5.67193 0
M  V30 13767 C 1331.84 3.16838 6.05064 0
M  V30 13768 O 1331.52 4.25237 6.82224 0
M  V30 13769 H 1331.26 0.0394446 0.674848 0
M  V30 13770 H 1333.81 0.760694 1.90795 0
M  V30 13771 H 1332.04 -1.03375 3.72627 0
M  V30 13772 H 1333.73 -0.713167 3.99586 0
M  V30 13773 H 1334.5 1.71027 4.53844 0
M  V30 13774 H 1330.37 0.484917 4.58443 0
M  V30 13775 H 1333.92 3.66043 5.9385 0
M  V30 13776 H 1329.82 2.42653 5.98155 0
M  V30 13777 H 1330.58 4.23193 7.00607 0
M  V30 13778 N 1333.25 -1.54984 0.285932 0
M  V30 13779 C 1334.21 -2.2164 -0.583824 0
M  V30 13780 C 1335.21 -1.19764 -1.073 0
M  V30 13781 O 1336.4 -1.44598 -0.971439 0
M  V30 13782 C 1333.53 -2.8909 -1.80665 0
M  V30 13783 H 1334.72 -2.999 -0.00168109 0
M  V30 13784 H 1332.28 -1.56257 0.0366325 0
M  V30 13785 H 1333.01 -2.14869 -2.42903 0
M  V30 13786 H 1332.8 -3.63756 -1.4637 0
M  V30 13787 H 1334.29 -3.39982 -2.42491 0
M  V30 13788 N 1334.72 -0.0133892 -1.57594 0
M  V30 13789 C 1335.66 1.00798 -2.04731 0
M  V30 13790 C 1336.64 1.32686 -0.93985 0
M  V30 13791 O 1337.82 1.44622 -1.209 0
M  V30 13792 C 1334.95 2.33216 -2.45618 0
M  V30 13793 C 1333.99 2.16898 -3.67229 0
M  V30 13794 S 1334.83 1.48248 -5.14571 0
M  V30 13795 C 1335.98 2.82068 -5.58738 0
M  V30 13796 H 1336.21 0.606673 -2.91044 0
M  V30 13797 H 1333.75 0.197865 -1.53127 0
M  V30 13798 H 1335.71 3.09348 -2.69841 0
M  V30 13799 H 1334.37 2.70483 -1.59679 0
M  V30 13800 H 1333.56 3.14753 -3.93632 0
M  V30 13801 H 1333.16 1.4891 -3.43077 0
M  V30 13802 H 1335.45 3.78343 -5.62017 0
M  V30 13803 H 1336.4 2.60348 -6.58502 0
M  V30 13804 H 1336.8 2.86592 -4.86338 0
M  V30 13805 N 1336.2 1.55448 0.259558 0
M  V30 13806 C 1337.61 1.67256 0.8296 0
M  V30 13807 C 1337.96 0.60851 1.86525 0
M  V30 13808 O 1337.09 -0.247563 2.14979 0
M  V30 13809 C 1337.68 3.03213 1.51152 0
M  V30 13810 C 1336.24 3.17004 2.02943 0
M  V30 13811 C 1335.39 2.63096 0.876103 0
M  V30 13812 H 1338.34 1.5866 0.0356218 0
M  V30 13813 H 1338.36 2.96952 2.37906 0
M  V30 13814 H 1337.87 3.80635 0.75752 0
M  V30 13815 H 1335.98 2.44381 2.81263 0
M  V30 13816 H 1336.09 4.23748 2.2355 0
M  V30 13817 H 1334.45 2.20596 1.27317 0
M  V30 13818 H 1335.24 3.43033 0.13539 0
M  V30 13819 N 1337.68 -0.524672 1.4861 0
M  V30 13820 C 1338.93 -1.27768 1.56588 0
M  V30 13821 C 1339.25 -1.93469 0.243899 0
M  V30 13822 O 1338.52 -1.8159 -0.734985 0
M  V30 13823 H 1337.1 -0.474566 0.576885 0
M  V30 13824 H 1339.76 -0.610114 1.85104 0
M  V30 13825 H 1338.86 -2.05416 2.34969 0
M  V30 13826 N 1339.16 -1.37287 -0.77395 0
M  V30 13827 C 1340.57 -1.28954 -1.3501 0
M  V30 13828 C 1340.92 0.0638301 -1.96096 0
M  V30 13829 O 1340.05 0.965624 -1.93661 0
M  V30 13830 C 1340.64 -2.3352 -2.45467 0
M  V30 13831 C 1339.2 -2.28828 -2.98856 0
M  V30 13832 C 1338.35 -2.17468 -1.72055 0
M  V30 13833 H 1341.3 -1.47941 -0.57438 0
M  V30 13834 H 1341.32 -1.98058 -3.24889 0
M  V30 13835 H 1340.83 -3.32009 -2.00977 0
M  V30 13836 H 1338.93 -1.33855 -3.47726 0
M  V30 13837 H 1339.04 -3.22152 -3.54619 0
M  V30 13838 H 1337.41 -1.63977 -1.94894 0
M  V30 13839 H 1338.19 -3.17868 -1.29672 0
M  V30 13840 N 1340.64 0.999871 -1.21821 0
M  V30 13841 C 1341.88 1.73497 -1.0365 0
M  V30 13842 C 1342.21 1.90194 0.430271 0
M  V30 13843 O 1341.48 1.45655 1.31002 0
M  V30 13844 H 1340.06 0.642804 -0.380541 0
M  V30 13845 H 1342.72 1.20461 -1.53216 0
M  V30 13846 H 1341.81 2.73215 -1.50864 0
M  V30 13847 N 1342.11 1.02678 1.19562 0
M  V30 13848 C 1343.08 0.610407 2.20922 0
M  V30 13849 C 1344.08 -0.324858 1.57484 0
M  V30 13850 O 1345.27 -0.112153 1.73839 0
M  V30 13851 C 1342.4 -0.107115 3.40732 0
M  V30 13852 H 1343.59 1.50722 2.59274 0
M  V30 13853 H 1341.15 0.817725 1.33203 0
M  V30 13854 H 1341.88 -1.01837 3.07896 0
M  V30 13855 H 1341.67 0.564901 3.88009 0
M  V30 13856 H 1343.16 -0.385423 4.15818 0
M  V30 13857 N 1343.59 -1.35528 0.804364 0
M  V30 13858 C 1344.52 -2.32388 0.227604 0
M  V30 13859 C 1345.5 -1.57368 -0.645709 0
M  V30 13860 O 1346.69 -1.85448 -0.576441 0
M  V30 13861 C 1343.82 -3.41603 -0.62645 0
M  V30 13862 C 1342.77 -4.27743 0.148187 0
M  V30 13863 C 1342.1 -5.28259 -0.827425 0
M  V30 13864 C 1343.4 -5.04661 1.34591 0
M  V30 13865 H 1345.09 -2.80874 1.03684 0
M  V30 13866 H 1342.64 -1.3504 0.500031 0
M  V30 13867 H 1344.59 -4.08365 -1.03999 0
M  V30 13868 H 1343.32 -2.91721 -1.46855 0
M  V30 13869 H 1341.97 -3.62558 0.542874 0
M  V30 13870 H 1341.62 -4.74645 -1.66496 0
M  V30 13871 H 1341.32 -5.86763 -0.313453 0
M  V30 13872 H 1342.85 -5.97893 -1.23921 0
M  V30 13873 H 1344.26 -5.6438 1.00736 0
M  V30 13874 H 1342.66 -5.7265 1.79422 0
M  V30 13875 H 1343.73 -4.35432 2.1337 0
M  V30 13876 N 1345.07 -0.557671 -1.47404 0
M  V30 13877 C 1346.32 -0.0338384 -2.02772 0
M  V30 13878 C 1346.65 1.31278 -1.43107 0
M  V30 13879 O 1345.93 1.85436 -0.58682 0
M  V30 13880 C 1346.21 0.0587427 -3.60052 0
M  V30 13881 C 1346.06 -1.315 -4.30148 0
M  V30 13882 C 1347.38 0.771942 -4.33277 0
M  V30 13883 H 1344.5 -0.0137711 -0.736871 0
M  V30 13884 H 1347.14 -0.720049 -1.75827 0
M  V30 13885 H 1345.29 0.643154 -3.83139 0
M  V30 13886 H 1346.96 -1.94265 -4.184 0
M  V30 13887 H 1345.21 -1.88956 -3.90484 0
M  V30 13888 H 1345.88 -1.20294 -5.38733 0
M  V30 13889 H 1348.35 0.275729 -4.15185 0
M  V30 13890 H 1347.23 0.805683 -5.42955 0
M  V30 13891 H 1347.49 1.82816 -4.0253 0
M  V30 13892 N 1346.55 1.54831 -0.294147 0
M  V30 13893 C 1347.96 1.85627 0.199866 0
M  V30 13894 C 1348.31 1.21613 1.53964 0
M  V30 13895 O 1347.44 0.511317 2.10272 0
M  V30 13896 C 1348.03 3.3678 0.369428 0
M  V30 13897 C 1346.59 3.67633 0.807663 0
M  V30 13898 C 1345.74 2.7716 -0.0880078 0
M  V30 13899 H 1348.69 1.50099 -0.515371 0
M  V30 13900 H 1348.71 3.60913 1.20508 0
M  V30 13901 H 1348.22 3.83342 -0.605831 0
M  V30 13902 H 1346.32 3.26583 1.79372 0
M  V30 13903 H 1346.44 4.74916 0.631799 0
M  V30 13904 H 1344.8 2.51017 0.431553 0
M  V30 13905 H 1345.58 3.26542 -1.0595 0
M  V30 13906 N 1348.03 0.0217466 1.57585 0
M  V30 13907 C 1348.99 -0.947546 2.08696 0
M  V30 13908 C 1349.99 -1.25879 1.00055 0
M  V30 13909 O 1351.18 -1.20035 1.26242 0
M  V30 13910 C 1348.31 -2.26624 2.54665 0
M  V30 13911 H 1349.51 -0.505016 2.95617 0
M  V30 13912 H 1347.06 -0.226152 1.54655 0
M  V30 13913 H 1347.79 -2.75521 1.71052 0
M  V30 13914 H 1347.58 -2.05347 3.34028 0
M  V30 13915 H 1349.07 -2.96114 2.94459 0
M  V30 13916 N 1349.51 -1.55583 -0.251311 0
M  V30 13917 C 1350.75 -1.76859 -0.978031 0
M  V30 13918 C 1351.07 -0.584924 -1.86021 0
M  V30 13919 O 1350.34 0.399456 -1.91784 0
M  V30 13920 H 1348.92 -0.652252 -0.364111 0
M  V30 13921 H 1351.59 -1.93016 -0.270319 0
M  V30 13922 H 1350.68 -2.67828 -1.60233 0
M  V30 13923 N 1350.98 0.516783 -1.48886 0
M  V30 13924 C 1352.4 0.84654 -1.35299 0
M  V30 13925 C 1352.6 1.97998 -0.374035 0
M  V30 13926 O 1351.66 2.51707 0.200003 0
M  V30 13927 C 1352.97 1.20162 -2.75648 0
M  V30 13928 C 1354.52 1.31074 -2.84233 0
M  V30 13929 C 1354.99 1.69919 -4.25313 0
M  V30 13930 N 1356.48 1.76998 -4.28049 0
M  V30 13931 C 1357.22 2.08466 -5.34162 0
M  V30 13932 N 1356.71 2.38268 -6.50538 0
M  V30 13933 N 1358.51 2.09584 -5.21566 0
M  V30 13934 H 1350.66 -0.230871 -2.11142 0
M  V30 13935 H 1352.92 -0.0406678 -0.947127 0
M  V30 13936 H 1352.63 0.442278 -3.48908 0
M  V30 13937 H 1352.5 2.14875 -3.10014 0
M  V30 13938 H 1354.89 2.06083 -2.1122 0
M  V30 13939 H 1354.97 0.344506 -2.5347 0
M  V30 13940 H 1354.61 0.954667 -4.98847 0
M  V30 13941 H 1354.54 2.67616 -4.5353 0
M  V30 13942 H 1357.03 1.56191 -3.44112 0
M  V30 13943 H 1357.35 2.61423 -7.2724 0
M  V30 13944 H 1355.69 2.35758 -6.53791 0
M  V30 13945 H 1358.88 1.85768 -4.2966 0
M  V30 13946 H 1359.06 2.33776 -6.04362 0
M  V30 13947 N 1352.46 1.37696 0.766659 0
M  V30 13948 C 1353.39 1.28241 1.88758 0
M  V30 13949 C 1354.37 0.161948 1.61791 0
M  V30 13950 O 1355.56 0.337034 1.85462 0
M  V30 13951 C 1352.68 0.983972 3.24092 0
M  V30 13952 C 1351.73 2.12202 3.69963 0
M  V30 13953 S 1352.56 3.74225 3.83035 0
M  V30 13954 C 1353.72 3.46542 5.2121 0
M  V30 13955 H 1353.95 2.23113 1.96489 0
M  V30 13956 H 1351.48 1.23378 0.92829 0
M  V30 13957 H 1353.44 0.818612 4.02255 0
M  V30 13958 H 1352.1 0.0526544 3.14056 0
M  V30 13959 H 1351.3 1.86834 4.68091 0
M  V30 13960 H 1350.9 2.24778 2.98916 0
M  V30 13961 H 1353.19 3.01845 6.06544 0
M  V30 13962 H 1354.13 4.44016 5.51593 0
M  V30 13963 H 1354.54 2.81353 4.89388 0
M  V30 13964 N 1353.94 -0.993397 1.22349 0
M  V30 13965 C 1355.19 -1.73544 1.04931 0
M  V30 13966 C 1355.52 -1.89721 -0.414661 0
M  V30 13967 O 1354.79 -1.44001 -1.30743 0
M  V30 13968 C 1355.08 -3.14131 1.7605 0
M  V30 13969 C 1354.93 -3.05604 3.30039 0
M  V30 13970 C 1356.25 -4.13294 1.51249 0
M  V30 13971 H 1353.37 -0.629915 0.382591 0
M  V30 13972 H 1356.01 -1.15737 1.50682 0
M  V30 13973 H 1354.16 -3.63483 1.37157 0
M  V30 13974 H 1355.83 -2.63876 3.78374 0
M  V30 13975 H 1354.07 -2.42421 3.59742 0
M  V30 13976 H 1354.75 -4.05086 3.74979 0
M  V30 13977 H 1357.22 -3.72696 1.85033 0
M  V30 13978 H 1356.1 -5.09781 2.03507 0
M  V30 13979 H 1356.36 -4.39855 0.444973 0
M  V30 13980 N 1355.42 -1.03311 -1.19015 0
M  V30 13981 C 1356.83 -0.761079 -1.70483 0
M  V30 13982 C 1357.18 0.718851 -1.82557 0
M  V30 13983 O 1356.3 1.56006 -1.4997 0
M  V30 13984 C 1356.9 -1.37492 -3.09647 0
M  V30 13985 C 1355.46 -1.15138 -3.58358 0
M  V30 13986 C 1354.61 -1.47034 -2.35109 0
M  V30 13987 H 1357.56 -1.2005 -1.03797 0
M  V30 13988 H 1357.58 -0.774115 -3.72542 0
M  V30 13989 H 1357.09 -2.45203 -3.00828 0
M  V30 13990 H 1355.19 -0.0926822 -3.72485 0
M  V30 13991 H 1355.3 -1.84307 -4.4223 0
M  V30 13992 H 1353.67 -0.889794 -2.38652 0
M  V30 13993 H 1354.45 -2.55837 -2.28916 0
M  V30 13994 N 1356.9 1.35099 -0.81154 0
M  V30 13995 C 1358.17 1.93009 -0.317289 0
M  V30 13996 C 1358.55 1.74101 1.19382 0
M  V30 13997 O 1357.9 1.11295 1.99564 0
M  V30 13998 C 1358.11 3.41191 -0.734123 0
M  V30 13999 C 1359.46 4.1834 -0.726437 0
M  V30 14000 O 1360.48 3.49727 -0.67598 0
M  V30 14001 O 1359.34 5.4077 -0.789291 0
M  V30 14002 H 1356.44 0.822707 -0.084153 0
M  V30 14003 H 1358.98 1.44145 -0.895569 0
M  V30 14004 H 1357.75 3.48705 -1.7754 0
M  V30 14005 H 1357.38 3.97384 -0.130919 0
M  V30 14006 N 1358.37 0.56548 1.47106 0
M  V30 14007 C 1359.65 -0.0215358 1.95588 0
M  V30 14008 C 1360.03 -1.47712 1.50813 0
M  V30 14009 O 1359.38 -2.15814 0.750776 0
M  V30 14010 C 1359.59 0.132552 3.48748 0
M  V30 14011 C 1360.94 -0.00853591 4.24599 0
M  V30 14012 O 1361.96 0.0605142 3.56149 0
M  V30 14013 O 1360.82 -0.158519 5.4627 0
M  V30 14014 H 1357.91 -0.0595011 0.824857 0
M  V30 14015 H 1360.46 0.632586 1.57469 0
M  V30 14016 H 1359.23 1.14511 3.7417 0
M  V30 14017 H 1358.85 -0.558801 3.93654 0
M  V30 14018 N 1359.85 -1.54672 0.302354 0
M  V30 14019 C 1360.78 -2.2653 -0.566265 0
M  V30 14020 C 1361.76 -1.26532 -1.13682 0
M  V30 14021 O 1362.95 -1.55307 -1.1659 0
M  V30 14022 C 1360.08 -3.00709 -1.73757 0
M  V30 14023 C 1359.03 -4.07865 -1.29731 0
M  V30 14024 C 1358.36 -4.69767 -2.55388 0
M  V30 14025 C 1359.66 -5.20547 -0.427567 0
M  V30 14026 H 1361.35 -2.99382 0.033071 0
M  V30 14027 H 1358.9 -1.4399 0.0173458 0
M  V30 14028 H 1360.85 -3.497 -2.35134 0
M  V30 14029 H 1359.58 -2.25437 -2.36317 0
M  V30 14030 H 1358.23 -3.59726 -0.706586 0
M  V30 14031 H 1357.88 -3.91134 -3.16265 0
M  V30 14032 H 1357.58 -5.42137 -2.26631 0
M  V30 14033 H 1359.11 -5.21521 -3.17566 0
M  V30 14034 H 1360.52 -5.65424 -0.947053 0
M  V30 14035 H 1358.92 -5.99645 -0.233704 0
M  V30 14036 H 1359.99 -4.81805 0.546993 0
M  V30 14037 N 1361.33 -0.0301034 -1.57571 0
M  V30 14038 C 1362.56 0.657533 -1.95857 0
M  V30 14039 C 1362.97 1.66138 -0.905244 0
M  V30 14040 O 1362.31 1.83299 0.12134 0
M  V30 14041 C 1362.37 1.41946 -3.3029 0
M  V30 14042 C 1362.04 0.573834 -4.53383 0
M  V30 14043 C 1363.03 -0.151282 -5.1968 0
M  V30 14044 C 1360.72 0.510947 -4.99695 0
M  V30 14045 C 1362.71 -0.927947 -6.30609 0
M  V30 14046 C 1360.4 -0.269422 -6.10506 0
M  V30 14047 C 1361.4 -0.987575 -6.75822 0
M  V30 14048 O 1361.09 -1.75515 -7.84506 0
M  V30 14049 H 1360.82 0.1861 -0.649879 0
M  V30 14050 H 1363.37 -0.0864526 -2.05218 0
M  V30 14051 H 1361.6 2.20861 -3.17423 0
M  V30 14052 H 1363.29 1.9953 -3.53472 0
M  V30 14053 H 1364.06 -0.112036 -4.84871 0
M  V30 14054 H 1359.94 1.05949 -4.4866 0
M  V30 14055 H 1363.48 -1.48901 -6.81524 0
M  V30 14056 H 1359.38 -0.310381 -6.44753 0
M  V30 14057 H 1360.15 -1.67503 -8.01177 0
M  V30 14058 N 1362.81 1.55714 0.243056 0
M  V30 14059 C 1364.06 1.77375 0.968638 0
M  V30 14060 C 1364.38 0.594781 1.85708 0
M  V30 14061 O 1363.65 -0.38928 1.91993 0
M  V30 14062 H 1362.23 0.654174 0.360646 0
M  V30 14063 H 1364.89 1.93157 0.260079 0
M  V30 14064 H 1363.99 2.68674 1.5881 0
M  V30 14065 N 1364.29 -0.50888 1.49158 0
M  V30 14066 C 1365.2 -1.63782 1.67966 0
M  V30 14067 C 1366.21 -1.64667 0.562207 0
M  V30 14068 O 1367.39 -1.83232 0.835935 0
M  V30 14069 C 1364.45 -3.00179 1.73474 0
M  V30 14070 C 1363.51 -3.09983 2.97 0
M  V30 14071 C 1362.75 -4.39875 3.02235 0
M  V30 14072 O 1362.97 -5.28214 2.15282 0
M  V30 14073 O 1361.9 -4.54486 3.94621 0
M  V30 14074 H 1365.73 -1.50846 2.63589 0
M  V30 14075 H 1363.32 -0.684306 1.32807 0
M  V30 14076 H 1365.2 -3.8126 1.79495 0
M  V30 14077 H 1363.87 -3.13394 0.810287 0
M  V30 14078 H 1362.78 -2.28119 2.965 0
M  V30 14079 H 1364.11 -3.01693 3.88899 0
M  V30 14080 N 1365.76 -1.381 -0.759346 0
M  V30 14081 C 1366.7 -1.3075 -1.88248 0
M  V30 14082 C 1367.71 -0.220835 -1.61295 0
M  V30 14083 O 1368.9 -0.477952 -1.71982 0
M  V30 14084 C 1366 -1.00174 -3.23757 0
M  V30 14085 C 1365.17 -2.19635 -3.78258 0
M  V30 14086 C 1364.23 -1.85892 -4.92271 0
M  V30 14087 O 1363.26 -2.58325 -5.07205 0
M  V30 14088 N 1364.46 -0.810436 -5.74815 0
M  V30 14089 H 1367.22 -2.27529 -1.95065 0
M  V30 14090 H 1364.78 -1.31886 -0.93902 0
M  V30 14091 H 1366.78 -0.756631 -3.97564 0
M  V30 14092 H 1365.35 -0.122094 -3.12361 0
M  V30 14093 H 1364.57 -2.60246 -2.96084 0
M  V30 14094 H 1365.85 -2.99373 -4.11404 0
M  V30 14095 H 1365.25 -0.209644 -5.65311 0
M  V30 14096 H 1363.81 -0.625206 -6.48795 0
M  V30 14097 N 1367.24 0.986894 -1.22875 0
M  V30 14098 C 1368.65 1.54182 -1.05284 0
M  V30 14099 C 1369 1.92448 0.381856 0
M  V30 14100 O 1368.13 1.75381 1.26769 0
M  V30 14101 C 1368.72 2.80173 -1.90496 0
M  V30 14102 C 1367.28 3.32088 -1.77185 0
M  V30 14103 C 1366.43 2.05128 -1.86596 0
M  V30 14104 H 1369.38 0.807304 -1.36632 0
M  V30 14105 H 1369.4 3.52772 -1.42591 0
M  V30 14106 H 1368.91 2.52291 -2.94908 0
M  V30 14107 H 1367.02 3.64864 -0.755295 0
M  V30 14108 H 1367.13 4.02285 -2.60199 0
M  V30 14109 H 1365.49 2.18964 -1.30103 0
M  V30 14110 H 1366.28 1.79635 -2.92551 0
M  V30 14111 N 1368.72 1.0394 1.18466 0
M  V30 14112 C 1369.67 0.629352 2.22054 0
M  V30 14113 C 1370.64 -0.362187 1.62103 0
M  V30 14114 O 1371.82 -0.256457 1.89069 0
M  V30 14115 C 1368.96 -0.00282888 3.451 0
M  V30 14116 C 1368.08 1.03602 4.19393 0
M  V30 14117 C 1367.21 0.372492 5.29892 0
M  V30 14118 C 1366.25 1.39652 5.95956 0
M  V30 14119 N 1365.39 0.758053 6.97996 0
M  V30 14120 H 1370.23 1.51722 2.56485 0
M  V30 14121 H 1367.76 0.759043 1.26004 0
M  V30 14122 H 1369.72 -0.386688 4.15404 0
M  V30 14123 H 1368.35 -0.854224 3.11292 0
M  V30 14124 H 1367.4 1.53784 3.47929 0
M  V30 14125 H 1368.72 1.81387 4.64651 0
M  V30 14126 H 1367.87 -0.065642 6.06664 0
M  V30 14127 H 1366.61 -0.437462 4.85734 0
M  V30 14128 H 1365.61 1.84481 5.17926 0
M  V30 14129 H 1366.84 2.20816 6.42197 0
M  V30 14130 H 1364.78 -0.0316173 6.55992 0
M  V30 14131 H 1364.7 1.47363 7.41499 0
M  V30 14132 H 1365.97 0.344273 7.78739 0
M  V30 14133 N 1370.2 -1.34667 0.818693 0
M  V30 14134 C 1371.16 -2.27908 0.243037 0
M  V30 14135 C 1372.16 -1.50106 -0.576622 0
M  V30 14136 O 1373.35 -1.69701 -0.393342 0
M  V30 14137 C 1370.48 -3.34455 -0.659759 0
M  V30 14138 H 1371.68 -2.80332 1.06555 0
M  V30 14139 H 1369.23 -1.44727 0.590237 0
M  V30 14140 H 1369.96 -2.87238 -1.50549 0
M  V30 14141 H 1369.75 -3.92031 -0.073567 0
M  V30 14142 H 1371.24 -4.04016 -1.05646 0
M  V30 14143 N 1371.68 -0.573274 -1.46804 0
M  V30 14144 C 1372.92 -0.0636394 -2.033 0
M  V30 14145 C 1373.28 1.27833 -1.43793 0
M  V30 14146 O 1372.57 1.82286 -0.590126 0
M  V30 14147 C 1372.76 0.0704285 -3.57331 0
M  V30 14148 C 1372.59 -1.257 -4.31775 0
M  V30 14149 C 1371.36 -1.82862 -4.71051 0
M  V30 14150 C 1373.56 -2.178 -4.65905 0
M  V30 14151 N 1371.54 -3.09442 -5.30206 0
M  V30 14152 C 1372.91 -3.28964 -5.25531 0
M  V30 14153 C 1374.97 -2.17597 -4.47835 0
M  V30 14154 C 1373.67 -4.40044 -5.68993 0
M  V30 14155 C 1375.7 -3.277 -4.92307 0
M  V30 14156 C 1375.06 -4.37584 -5.51996 0
M  V30 14157 H 1371.16 -0.065839 -0.779223 0
M  V30 14158 H 1373.74 -0.764099 -1.7908 0
M  V30 14159 H 1371.91 0.740038 -3.81285 0
M  V30 14160 H 1373.65 0.583588 -4.0047 0
M  V30 14161 H 1370.4 -1.36467 -4.53513 0
M  V30 14162 H 1370.83 -3.74004 -5.64314 0
M  V30 14163 H 1375.47 -1.33919 -4.01031 0
M  V30 14164 H 1373.19 -5.24471 -6.14781 0
M  V30 14165 H 1376.77 -3.2865 -4.80084 0
M  V30 14166 H 1375.65 -5.21375 -5.85779 0
M  V30 14167 N 1373.15 1.5451 -0.310553 0
M  V30 14168 C 1374.57 1.59543 0.0425296 0
M  V30 14169 C 1374.77 1.32737 1.51602 0
M  V30 14170 O 1373.83 1.10543 2.27016 0
M  V30 14171 C 1375.14 2.98489 -0.364002 0
M  V30 14172 C 1376.69 3.11425 -0.313566 0
M  V30 14173 C 1377.16 4.52695 -0.695064 0
M  V30 14174 N 1378.65 4.58645 -0.647966 0
M  V30 14175 C 1379.39 5.66044 -0.915508 0
M  V30 14176 N 1378.88 6.81439 -1.24951 0
M  V30 14177 N 1380.68 5.55759 -0.841933 0
M  V30 14178 H 1372.83 1.70194 -1.27074 0
M  V30 14179 H 1375.09 0.795374 -0.515833 0
M  V30 14180 H 1374.8 3.23061 -1.39012 0
M  V30 14181 H 1374.67 3.76177 0.27756 0
M  V30 14182 H 1377.06 2.86596 0.703326 0
M  V30 14183 H 1377.14 2.35871 -0.989883 0
M  V30 14184 H 1376.78 4.78255 -1.70981 0
M  V30 14185 H 1376.71 5.266 0.00342684 0
M  V30 14186 H 1379.2 3.75765 -0.401137 0
M  V30 14187 H 1379.52 7.59277 -1.43938 0
M  V30 14188 H 1377.86 6.82968 -1.28764 0
M  V30 14189 H 1381.05 4.64486 -0.58058 0
M  V30 14190 H 1381.23 6.39374 -1.0538 0
M  V30 14191 N 1374.63 0.0384594 1.57553 0
M  V30 14192 C 1375.58 -0.958199 2.11946 0
M  V30 14193 C 1376.58 -1.33073 1.04823 0
M  V30 14194 O 1377.78 -1.31187 1.23247 0
M  V30 14195 H 1374.16 -0.326819 0.677269 0
M  V30 14196 H 1376.13 -0.474211 2.94608 0
M  V30 14197 C 1374.88 -2.22821 2.6692 0
M  V30 14198 H 1374.2 -1.95032 3.49002 0
M  V30 14199 H 1375.64 -2.90746 3.08614 0
M  V30 14200 C 1374.1 -2.96429 1.60098 0
M  V30 14201 O 1374.63 -3.88892 1.00628 0
M  V30 14202 N 1372.83 -2.58931 1.3192 0
M  V30 14203 H 1372.38 -1.83818 1.80468 0
M  V30 14204 H 1372.34 -3.0849 0.60674 0
M  V30 14205 N 1376.11 -1.55841 -0.234795 0
M  V30 14206 C 1377.04 -1.94344 -1.29432 0
M  V30 14207 C 1378.02 -0.809912 -1.49581 0
M  V30 14208 O 1379.21 -1.07117 -1.61986 0
M  V30 14209 C 1376.34 -2.24866 -2.64675 0
M  V30 14210 C 1375.29 -3.40584 -2.59203 0
M  V30 14211 C 1374.62 -3.56678 -3.98353 0
M  V30 14212 C 1375.92 -4.75935 -2.15135 0
M  V30 14213 H 1377.61 -2.83096 -0.97454 0
M  V30 14214 H 1375.16 -1.36205 -0.467355 0
M  V30 14215 H 1377.11 -2.50392 -3.38942 0
M  V30 14216 H 1375.83 -1.32953 -2.98314 0
M  V30 14217 H 1374.49 -3.15087 -1.87393 0
M  V30 14218 H 1374.14 -2.62164 -4.29277 0
M  V30 14219 H 1373.84 -4.34503 -3.95577 0
M  V30 14220 H 1375.37 -3.84538 -4.74302 0
M  V30 14221 H 1376.78 -5.00753 -2.7914 0
M  V30 14222 H 1375.18 -5.56949 -2.23446 0
M  V30 14223 H 1376.25 -4.72182 -1.10328 0
M  V30 14224 N 1377.59 0.500963 -1.49426 0
M  V30 14225 C 1379.01 0.832142 -1.36189 0
M  V30 14226 C 1379.21 1.9759 -0.395014 0
M  V30 14227 O 1378.26 2.51905 0.173294 0
M  V30 14228 C 1379.57 1.17232 -2.76907 0
M  V30 14229 C 1381.12 1.28052 -2.85607 0
M  V30 14230 C 1381.6 1.65399 -4.27092 0
M  V30 14231 N 1383.09 1.72448 -4.29902 0
M  V30 14232 C 1383.82 2.02789 -5.36343 0
M  V30 14233 N 1383.32 2.31354 -6.53029 0
M  V30 14234 N 1385.11 2.0404 -5.23759 0
M  V30 14235 H 1377.26 -0.253253 -2.10885 0
M  V30 14236 H 1379.53 -0.0507111 -0.946643 0
M  V30 14237 H 1379.23 0.405247 -3.49357 0
M  V30 14238 H 1379.11 2.11574 -3.12276 0
M  V30 14239 H 1381.49 2.03831 -2.13394 0
M  V30 14240 H 1381.57 0.317603 -2.53821 0
M  V30 14241 H 1381.22 0.901704 -4.99832 0
M  V30 14242 H 1381.15 2.6279 -4.56343 0
M  V30 14243 H 1383.64 1.52532 -3.45749 0
M  V30 14244 H 1383.95 2.53695 -7.29972 0
M  V30 14245 H 1382.3 2.28811 -6.56255 0
M  V30 14246 H 1385.49 1.812 -4.31606 0
M  V30 14247 H 1385.66 2.27353 -6.06807 0
M  V30 14248 N 1379.07 1.38501 0.752011 0
M  V30 14249 C 1380.31 1.34795 1.51118 0
M  V30 14250 C 1380.64 -0.0615084 1.94403 0
M  V30 14251 O 1379.9 -1.03892 1.65846 0
M  V30 14252 C 1380.2 2.25111 2.77596 0
M  V30 14253 C 1379.86 3.73052 2.53265 0
M  V30 14254 C 1378.52 4.13365 2.46339 0
M  V30 14255 C 1380.88 4.66692 2.32051 0
M  V30 14256 C 1378.2 5.45406 2.16216 0
M  V30 14257 C 1380.56 5.98992 2.03448 0
M  V30 14258 C 1379.22 6.38388 1.94979 0
M  V30 14259 H 1378.49 0.49325 0.552979 0
M  V30 14260 H 1381.14 1.70872 0.864588 0
M  V30 14261 H 1379.44 1.82096 3.46913 0
M  V30 14262 H 1381.14 2.19547 3.3556 0
M  V30 14263 H 1377.73 3.41091 2.59528 0
M  V30 14264 H 1381.91 4.36392 2.3638 0
M  V30 14265 H 1377.17 5.7487 2.08168 0
M  V30 14266 H 1381.34 6.71091 1.86037 0
M  V30 14267 H 1378.97 7.40625 1.71402 0
M  V30 14268 N 1380.55 -0.980364 1.23396 0
M  V30 14269 C 1381.51 -2.05433 1.01635 0
M  V30 14270 C 1382.51 -1.60785 -0.0218244 0
M  V30 14271 O 1383.7 -1.72832 0.217922 0
M  V30 14272 C 1380.83 -3.36631 0.537822 0
M  V30 14273 H 1382.02 -2.26172 1.96943 0
M  V30 14274 H 1379.58 -1.15378 1.05441 0
M  V30 14275 H 1380.31 -3.21581 -0.41903 0
M  V30 14276 H 1380.1 -3.70377 1.28698 0
M  V30 14277 H 1381.59 -4.1562 0.406213 0
M  V30 14278 N 1382.02 -1.04567 -1.17913 0
M  V30 14279 C 1383.44 -0.76584 -1.40025 0
M  V30 14280 C 1383.64 0.642484 -1.90983 0
M  V30 14281 O 1382.7 1.40589 -2.0974 0
M  V30 14282 C 1384.01 -1.81616 -2.39658 0
M  V30 14283 C 1385.56 -1.83765 -2.53376 0
M  V30 14284 C 1386.03 -2.87803 -3.56277 0
M  V30 14285 N 1387.52 -2.86726 -3.63789 0
M  V30 14286 C 1388.26 -3.63876 -4.4315 0
M  V30 14287 N 1387.75 -4.50793 -5.26077 0
M  V30 14288 N 1389.55 -3.52344 -4.37962 0
M  V30 14289 H 1381.7 -1.95442 -0.831647 0
M  V30 14290 H 1383.96 -0.84593 -0.42791 0
M  V30 14291 H 1383.67 -2.8266 -2.09275 0
M  V30 14292 H 1383.54 -1.65251 -3.39075 0
M  V30 14293 H 1385.93 -0.833896 -2.83073 0
M  V30 14294 H 1386.01 -2.04208 -1.54055 0
M  V30 14295 H 1385.65 -3.88361 -3.2732 0
M  V30 14296 H 1385.58 -2.64614 -4.55288 0
M  V30 14297 H 1388.07 -2.237 -3.04576 0
M  V30 14298 H 1388.39 -5.0636 -5.83798 0
M  V30 14299 H 1386.73 -4.54858 -5.2548 0
M  V30 14300 H 1389.92 -2.8384 -3.72226 0
M  V30 14301 H 1390.1 -4.12718 -4.99568 0
M  V30 14302 N 1383.5 1.34231 -0.825823 0
M  V30 14303 C 1384.46 2.27776 -0.25512 0
M  V30 14304 C 1385.46 1.50409 0.568654 0
M  V30 14305 O 1386.65 1.69907 0.384337 0
M  V30 14306 C 1383.79 3.348 0.642013 0
M  V30 14307 H 1384.98 2.79763 -1.0804 0
M  V30 14308 H 1382.53 1.44412 -0.597904 0
M  V30 14309 H 1383.27 2.88032 1.49024 0
M  V30 14310 H 1383.05 3.92064 0.0527756 0
M  V30 14311 H 1384.54 4.0457 1.03502 0
M  V30 14312 N 1384.98 0.581051 1.46498 0
M  V30 14313 C 1385.93 -0.153147 2.30291 0
M  V30 14314 C 1386.9 -0.885681 1.40517 0
M  V30 14315 O 1388.08 -0.876678 1.69467 0
M  V30 14316 C 1385.22 -1.16193 3.24951 0
M  V30 14317 C 1384.33 -0.433016 4.29824 0
M  V30 14318 C 1383.47 -1.42918 5.11613 0
M  V30 14319 C 1382.51 -0.686576 6.08237 0
M  V30 14320 N 1381.65 -1.63072 6.829 0
M  V30 14321 H 1386.49 0.56747 2.92547 0
M  V30 14322 H 1384.02 0.29166 1.4418 0
M  V30 14323 H 1385.98 -1.75965 3.78275 0
M  V30 14324 H 1384.61 -1.85028 2.64508 0
M  V30 14325 H 1383.66 0.279707 3.7937 0
M  V30 14326 H 1384.97 0.147604 4.98582 0
M  V30 14327 H 1384.13 -2.09975 5.69206 0
M  V30 14328 H 1382.87 -2.04373 4.42813 0
M  V30 14329 H 1381.87 -0.00222013 5.498 0
M  V30 14330 H 1383.1 -0.0774416 6.79056 0
M  V30 14331 H 1381.04 -2.2334 6.1681 0
M  V30 14332 H 1380.96 -1.10286 7.47912 0
M  V30 14333 H 1382.23 -2.29169 7.45052 0
M  V30 14334 N 1386.46 -1.54343 0.318742 0
M  V30 14335 C 1387.39 -2.20392 -0.591833 0
M  V30 14336 C 1388.37 -1.17931 -1.11942 0
M  V30 14337 O 1389.55 -1.4665 -1.18432 0
M  V30 14338 C 1386.68 -2.8618 -1.81159 0
M  V30 14339 C 1385.73 -4.02319 -1.41568 0
M  V30 14340 S 1386.56 -5.33551 -0.456481 0
M  V30 14341 C 1387.71 -6.02831 -1.68363 0
M  V30 14342 H 1387.95 -2.97284 -0.0307625 0
M  V30 14343 H 1385.48 -1.54057 0.102835 0
M  V30 14344 H 1387.44 -3.24707 -2.51148 0
M  V30 14345 H 1386.1 -2.091 -2.34384 0
M  V30 14346 H 1385.29 -4.47197 -2.32445 0
M  V30 14347 H 1384.89 -3.65441 -0.795535 0
M  V30 14348 H 1387.19 -6.24716 -2.62175 0
M  V30 14349 H 1388.13 -6.96488 -1.27709 0
M  V30 14350 H 1388.54 -5.32682 -1.86841 0
M  V30 14351 N 1387.94 -0.0468143 -1.5753 0
M  V30 14352 C 1389.35 0.489509 -1.80169 0
M  V30 14353 C 1389.7 1.71184 -0.958669 0
M  V30 14354 O 1388.82 2.15699 -0.174025 0
M  V30 14355 C 1389.42 0.894838 -3.26769 0
M  V30 14356 C 1387.98 1.37617 -3.50341 0
M  V30 14357 C 1387.12 0.349275 -2.75092 0
M  V30 14358 H 1390.07 -0.272728 -1.56339 0
M  V30 14359 H 1390.1 1.75805 -3.3745 0
M  V30 14360 H 1389.61 0.00501096 -3.881 0
M  V30 14361 H 1387.71 2.28533 -2.94285 0
M  V30 14362 H 1387.82 1.37133 -4.59055 0
M  V30 14363 H 1386.19 0.821219 -2.41098 0
M  V30 14364 H 1386.97 -0.532391 -3.39147 0
M  V30 14365 N 1389.41 1.55964 0.226527 0
M  V30 14366 C 1390.38 1.91184 1.26418 0
M  V30 14367 C 1391.38 0.789982 1.40057 0
M  V30 14368 O 1392.57 1.05778 1.38407 0
M  V30 14369 C 1389.7 2.15826 2.63878 0
M  V30 14370 H 1390.89 2.83986 0.963956 0
M  V30 14371 H 1388.45 1.49169 0.466726 0
M  V30 14372 H 1389.18 1.2556 2.99007 0
M  V30 14373 H 1388.97 2.97549 2.55356 0
M  V30 14374 H 1390.46 2.44188 3.38765 0
M  V30 14375 N 1390.89 -0.493031 1.4969 0
M  V30 14376 C 1392.17 -1.25436 1.50084 0
M  V30 14377 C 1392.55 -2.0981 0.233038 0
M  V30 14378 O 1391.9 -2.14617 -0.784342 0
M  V30 14379 C 1392.11 -2.10425 2.78428 0
M  V30 14380 C 1393.46 -2.69349 3.28232 0
M  V30 14381 O 1394.48 -2.20686 2.796 0
M  V30 14382 O 1393.34 -3.57956 4.12953 0
M  V30 14383 H 1390.43 -0.568044 0.601045 0
M  V30 14384 H 1392.98 -0.506648 1.6196 0
M  V30 14385 H 1391.75 -1.48108 3.62187 0
M  V30 14386 H 1391.37 -2.92374 2.6945 0
M  V30 14387 N 1392.37 -1.38898 -0.744656 0
M  V30 14388 C 1393.33 -1.36633 -1.84022 0
M  V30 14389 C 1394.33 -0.265187 -1.58598 0
M  V30 14390 O 1395.52 -0.522569 -1.66177 0
M  V30 14391 C 1392.66 -1.12938 -3.21649 0
M  V30 14392 H 1393.85 -2.34111 -1.87435 0
M  V30 14393 H 1391.4 -1.24322 -0.947302 0
M  V30 14394 H 1392.14 -0.161027 -3.239 0
M  V30 14395 H 1391.92 -1.9267 -3.41498 0
M  V30 14396 H 1393.41 -1.14071 -4.01718 0
M  V30 14397 N 1393.85 0.973806 -1.23914 0
M  V30 14398 C 1395.09 1.71852 -1.07678 0
M  V30 14399 C 1395.43 1.90357 0.384425 0
M  V30 14400 O 1394.7 1.46063 1.28436 0
M  V30 14401 C 1394.99 3.1129 -1.81026 0
M  V30 14402 C 1394.84 3.00315 -3.3486 0
M  V30 14403 C 1396.16 4.10835 -1.57805 0
M  V30 14404 H 1393.28 0.623749 -0.392564 0
M  V30 14405 H 1395.92 1.13325 -1.52504 0
M  V30 14406 H 1394.07 3.61255 -1.42922 0
M  V30 14407 H 1395.74 2.57823 -3.82524 0
M  V30 14408 H 1393.98 2.36667 -3.63553 0
M  V30 14409 H 1394.65 3.9907 -3.81376 0
M  V30 14410 H 1397.13 3.69705 -1.90939 0
M  V30 14411 H 1396.01 5.06478 -2.11591 0
M  V30 14412 H 1396.27 4.39091 -0.514894 0
M  V30 14413 N 1395.33 1.05191 1.17357 0
M  V30 14414 C 1396.29 0.65713 2.19578 0
M  V30 14415 C 1397.29 -0.29138 1.58138 0
M  V30 14416 O 1398.48 -0.075254 1.74037 0
M  V30 14417 C 1395.61 -0.0348162 3.40882 0
M  V30 14418 H 1396.8 1.56188 2.56018 0
M  V30 14419 H 1394.36 0.845795 1.31438 0
M  V30 14420 H 1395.09 -0.952835 3.09986 0
M  V30 14421 H 1394.88 0.647076 3.86724 0
M  V30 14422 H 1396.37 -0.297135 4.16542 0
M  V30 14423 N 1396.8 -1.33791 0.83293 0
M  V30 14424 C 1398.05 -1.98266 0.426412 0
M  V30 14425 C 1398.38 -1.65848 -1.01035 0
M  V30 14426 O 1397.66 -0.93528 -1.70537 0
M  V30 14427 C 1397.94 -3.54356 0.640586 0
M  V30 14428 C 1397.79 -3.96482 2.12419 0
M  V30 14429 C 1399.11 -4.40022 0.0829237 0
M  V30 14430 H 1396.23 -0.720213 0.156404 0
M  V30 14431 H 1398.87 -1.58527 1.04735 0
M  V30 14432 H 1397.02 -3.88338 0.11204 0
M  V30 14433 H 1398.7 -3.72786 2.71714 0
M  V30 14434 H 1396.94 -3.46429 2.61092 0
M  V30 14435 H 1397.61 -5.05179 2.22482 0
M  V30 14436 H 1400.09 -4.12651 0.534634 0
M  V30 14437 H 1398.96 -5.48272 0.262511 0
M  V30 14438 H 1399.22 -4.30341 -1.01287 0
M  V30 14439 N 1398.28 -0.588812 -1.46187 0
M  V30 14440 C 1399.7 -0.250962 -1.57615 0
M  V30 14441 C 1399.9 1.2467 -1.58302 0
M  V30 14442 O 1398.95 2.02876 -1.50325 0
M  V30 14443 C 1400.27 -0.905561 -2.8674 0
M  V30 14444 C 1401.82 -0.879721 -3.00383 0
M  V30 14445 C 1402.29 -1.51398 -4.32253 0
M  V30 14446 N 1403.78 -1.4786 -4.38967 0
M  V30 14447 C 1404.52 -1.93868 -5.39632 0
M  V30 14448 N 1404.01 -2.47876 -6.46938 0
M  V30 14449 N 1405.81 -1.84748 -5.30872 0
M  V30 14450 H 1397.96 -1.56148 -1.43985 0
M  V30 14451 H 1400.22 -0.653028 -0.68721 0
M  V30 14452 H 1399.93 -1.95935 -2.92066 0
M  V30 14453 H 1399.8 -0.417456 -3.74883 0
M  V30 14454 H 1402.19 0.165466 -2.94636 0
M  V30 14455 H 1402.27 -1.40591 -2.137 0
M  V30 14456 H 1401.91 -2.55839 -4.38758 0
M  V30 14457 H 1401.84 -0.962965 -5.17721 0
M  V30 14458 H 1404.33 -1.08387 -3.62023 0
M  V30 14459 H 1404.65 -2.80824 -7.1997 0
M  V30 14460 H 1402.99 -2.51905 -6.47741 0
M  V30 14461 H 1406.18 -1.42307 -4.45944 0
M  V30 14462 H 1406.35 -2.20919 -6.09179 0
M  V30 14463 N 1399.76 1.54172 -0.326923 0
M  V30 14464 C 1401.01 2.00926 0.275047 0
M  V30 14465 C 1401.34 1.21469 1.51522 0
M  V30 14466 O 1400.61 0.297871 1.92206 0
M  V30 14467 C 1400.9 3.54967 0.605833 0
M  V30 14468 C 1400.75 4.45147 -0.645279 0
M  V30 14469 C 1402.07 4.16489 1.42213 0
M  V30 14470 H 1399.19 0.730389 0.098495 0
M  V30 14471 H 1401.83 1.84735 -0.444168 0
M  V30 14472 H 1399.98 3.68895 1.21857 0
M  V30 14473 H 1401.65 4.43085 -1.2835 0
M  V30 14474 H 1399.9 4.14686 -1.27349 0
M  V30 14475 H 1400.57 5.50763 -0.36932 0
M  V30 14476 H 1403.04 4.06158 0.904172 0
M  V30 14477 H 1401.92 5.24377 1.62234 0
M  V30 14478 H 1402.18 3.70032 2.41928 0
M  V30 14479 N 1401.24 0.0551678 1.57503 0
M  V30 14480 C 1402.48 -0.618636 1.93134 0
M  V30 14481 C 1402.82 -1.70258 0.934125 0
M  V30 14482 O 1402.09 -1.9446 -0.0392699 0
M  V30 14483 C 1402.38 -1.21103 3.39126 0
M  V30 14484 C 1402.23 -0.134865 4.49598 0
M  V30 14485 C 1403.55 -2.12148 3.85592 0
M  V30 14486 H 1400.67 -0.223416 0.702321 0
M  V30 14487 H 1403.31 0.117748 1.89635 0
M  V30 14488 H 1401.46 -1.83862 3.42238 0
M  V30 14489 H 1403.13 0.497292 4.58612 0
M  V30 14490 H 1401.37 0.536587 4.30469 0
M  V30 14491 H 1402.04 -0.589447 5.48844 0
M  V30 14492 H 1404.52 -1.59346 3.8438 0
M  V30 14493 H 1403.4 -2.50539 4.88387 0
M  V30 14494 H 1403.66 -3.02318 3.22578 0
M  V30 14495 N 1402.72 -1.56081 -0.218252 0
M  V30 14496 C 1403.68 -1.91851 -1.25402 0
M  V30 14497 C 1404.68 -0.797399 -1.39636 0
M  V30 14498 O 1405.87 -1.06511 -1.37844 0
M  V30 14499 C 1403 -2.17223 -2.6273 0
M  V30 14500 H 1404.19 -2.84493 -0.948882 0
M  V30 14501 H 1401.75 -1.49414 -0.458809 0
M  V30 14502 H 1402.48 -1.27144 -2.98337 0
M  V30 14503 H 1402.27 -2.98899 -2.53775 0
M  V30 14504 H 1403.76 -2.45981 -3.37466 0
M  V30 14505 N 1404.2 0.485086 -1.49949 0
M  V30 14506 C 1405.11 1.61089 -1.70551 0
M  V30 14507 C 1406.12 1.63752 -0.588333 0
M  V30 14508 O 1407.3 1.81879 -0.86498 0
M  V30 14509 C 1404.36 2.97382 -1.78227 0
M  V30 14510 C 1403.42 3.05219 -3.01894 0
M  V30 14511 C 1402.66 4.35011 -3.09195 0
M  V30 14512 O 1402.88 5.24722 -2.23658 0
M  V30 14513 O 1401.81 4.48151 -4.01802 0
M  V30 14514 H 1405.64 1.46633 -2.65956 0
M  V30 14515 H 1403.22 0.663091 -1.33879 0
M  V30 14516 H 1405.11 3.78356 -1.85538 0
M  V30 14517 H 1403.78 3.12066 -0.860043 0
M  V30 14518 H 1402.69 2.23373 -3.00092 0
M  V30 14519 H 1404.02 2.95467 -3.93649 0
M  V30 14520 N 1405.67 1.39291 0.737279 0
M  V30 14521 C 1406.95 1.26901 1.48847 0
M  V30 14522 C 1407.33 -0.122417 2.10745 0
M  V30 14523 O 1406.68 -1.13343 1.98408 0
M  V30 14524 C 1406.89 2.3916 2.54172 0
M  V30 14525 C 1408.24 2.78368 3.20619 0
M  V30 14526 O 1409.26 2.38593 2.64484 0
M  V30 14527 O 1408.12 3.47014 4.22189 0
M  V30 14528 H 1405.21 0.497176 0.660867 0
M  V30 14529 H 1407.76 1.51159 0.771299 0
M  V30 14530 H 1406.53 3.3219 2.06797 0
M  V30 14531 H 1406.15 2.16555 3.33451 0
M  V30 14532 N 1407.15 -0.967221 1.24429 0
M  V30 14533 C 1408.08 -2.07966 1.06172 0
M  V30 14534 C 1409.06 -1.70081 -0.0254566 0
M  V30 14535 O 1410.25 -1.93682 0.141705 0
M  V30 14536 C 1407.38 -3.4085 0.666251 0
M  V30 14537 C 1406.33 -3.92692 1.70225 0
M  V30 14538 C 1405.66 -5.21925 1.16183 0
M  V30 14539 C 1406.96 -4.20478 3.09831 0
M  V30 14540 H 1408.65 -2.23497 1.99222 0
M  V30 14541 H 1406.2 -1.07398 0.959255 0
M  V30 14542 H 1408.15 -4.1811 0.52552 0
M  V30 14543 H 1406.87 -3.2522 -0.299939 0
M  V30 14544 H 1405.53 -3.17588 1.83121 0
M  V30 14545 H 1405.18 -5.02655 0.186237 0
M  V30 14546 H 1404.88 -5.57579 1.85416 0
M  V30 14547 H 1406.41 -6.01795 1.03323 0
M  V30 14548 H 1407.82 -4.88442 3.00162 0
M  V30 14549 H 1406.22 -4.67362 3.7642 0
M  V30 14550 H 1407.29 -3.27235 3.57834 0
M  V30 14551 N 1408.63 -1.05812 -1.16797 0
M  V30 14552 C 1409.85 -0.792518 -1.91661 0
M  V30 14553 C 1410.28 0.646598 -1.76637 0
M  V30 14554 O 1409.64 1.44998 -1.08836 0
M  V30 14555 C 1409.69 -1.18585 -3.40544 0
M  V30 14556 O 1408.79 -0.321716 -4.11143 0
M  V30 14557 H 1408.13 -0.290066 -0.597292 0
M  V30 14558 H 1410.66 -1.41263 -1.48007 0
M  V30 14559 H 1410.67 -1.1553 -3.91301 0
M  V30 14560 H 1409.35 -2.23413 -3.50798 0
M  V30 14561 H 1407.92 -0.413403 -3.70601 0
M  V30 14562 N 1410.11 1.33347 -0.840014 0
M  V30 14563 C 1411.04 2.31703 -0.289138 0
M  V30 14564 C 1412.02 1.59024 0.603759 0
M  V30 14565 O 1413.2 1.86911 0.527071 0
M  V30 14566 C 1410.33 3.43144 0.53566 0
M  V30 14567 C 1409.29 4.272 -0.261544 0
M  V30 14568 C 1408.61 5.30267 0.687075 0
M  V30 14569 C 1409.91 5.00915 -1.47924 0
M  V30 14570 H 1411.61 2.78026 -1.11094 0
M  V30 14571 H 1409.15 1.33666 -0.535658 0
M  V30 14572 H 1411.11 4.10979 0.931351 0
M  V30 14573 H 1409.83 2.95512 1.39069 0
M  V30 14574 H 1408.49 3.60991 -0.638809 0
M  V30 14575 H 1408.14 4.78893 1.53853 0
M  V30 14576 H 1407.84 5.87388 0.157773 0
M  V30 14577 H 1409.36 6.00968 1.08026 0
M  V30 14578 H 1410.78 5.61511 -1.15664 0
M  V30 14579 H 1409.17 5.67692 -1.94541 0
M  V30 14580 H 1410.24 4.29622 -2.24839 0
M  V30 14581 N 1411.59 0.596556 1.45873 0
M  V30 14582 C 1412.81 0.0934926 2.06689 0
M  V30 14583 C 1413.23 -1.21743 1.44305 0
M  V30 14584 O 1412.59 -1.73912 0.553253 0
M  V30 14585 C 1412.64 -0.0643337 3.61443 0
M  V30 14586 O 1412.36 1.19472 4.21495 0
M  V30 14587 C 1413.86 -0.600141 4.39219 0
M  V30 14588 H 1411.08 0.0637846 0.667961 0
M  V30 14589 H 1413.62 0.821159 1.87289 0
M  V30 14590 H 1411.78 -0.742278 3.80222 0
M  V30 14591 H 1412.19 1.01735 5.14539 0
M  V30 14592 H 1413.67 -0.6597 5.48044 0
M  V30 14593 H 1414.14 -1.62009 4.08227 0
M  V30 14594 H 1414.75 0.0433915 4.25278 0
M  V30 14595 N 1413.06 -1.53996 0.335095 0
M  V30 14596 C 1414.47 -1.86092 -0.15058 0
M  V30 14597 C 1414.83 -1.25652 -1.50685 0
M  V30 14598 O 1413.95 -0.566887 -2.08843 0
M  V30 14599 C 1414.55 -3.37641 -0.280007 0
M  V30 14600 C 1413.1 -3.69645 -0.709907 0
M  V30 14601 C 1412.25 -2.7683 0.161461 0
M  V30 14602 H 1415.2 -1.4868 0.554986 0
M  V30 14603 H 1415.22 -3.63981 -1.10896 0
M  V30 14604 H 1414.74 -3.81601 0.707254 0
M  V30 14605 H 1412.84 -3.31224 -1.7065 0
M  V30 14606 H 1412.95 -4.76424 -0.505661 0
M  V30 14607 H 1411.31 -2.52073 -0.364849 0
M  V30 14608 H 1412.1 -3.23618 1.1457 0
M  V30 14609 N 1414.54 -0.0635198 -1.57472 0
M  V30 14610 C 1415.45 0.921531 -2.15743 0
M  V30 14611 C 1416.47 1.33294 -1.11842 0
M  V30 14612 O 1417.64 1.40733 -1.4407 0
M  V30 14613 C 1414.71 2.17378 -2.70088 0
M  V30 14614 C 1413.77 1.81956 -3.88832 0
M  V30 14615 C 1413 3.01211 -4.40577 0
M  V30 14616 O 1413.23 4.14971 -3.9135 0
M  V30 14617 O 1412.16 2.81507 -5.32012 0
M  V30 14618 H 1415.99 0.455899 -3.00259 0
M  V30 14619 H 1413.57 0.159085 -1.48551 0
M  V30 14620 H 1415.45 2.90826 -3.04956 0
M  V30 14621 H 1414.13 2.63055 -1.88637 0
M  V30 14622 H 1413.03 1.05786 -3.58832 0
M  V30 14623 H 1414.37 1.41069 -4.71551 0
M  V30 14624 N 1416.02 1.56195 0.209972 0
M  V30 14625 C 1417.3 1.70553 0.957653 0
M  V30 14626 C 1417.68 0.614091 2.01971 0
M  V30 14627 O 1417.02 -0.377192 2.25365 0
M  V30 14628 C 1417.23 3.12314 1.55759 0
M  V30 14629 C 1418.58 3.72085 2.04543 0
M  V30 14630 O 1419.61 3.15349 1.65631 0
M  V30 14631 O 1418.47 4.71627 2.76099 0
M  V30 14632 H 1415.56 0.695077 0.448104 0
M  V30 14633 H 1418.11 1.68507 0.20084 0
M  V30 14634 H 1416.88 3.83215 0.791302 0
M  V30 14635 H 1416.5 3.18526 2.37964 0
M  V30 14636 N 1417.5 -0.477127 1.50204 0
M  V30 14637 C 1418.74 -1.22864 1.62099 0
M  V30 14638 C 1419.1 -1.89811 0.314549 0
M  V30 14639 O 1418.39 -1.78856 -0.687092 0
M  V30 14640 C 1418.59 -2.30126 2.73453 0
M  V30 14641 C 1418.41 -1.73701 4.14799 0
M  V30 14642 C 1417.18 -1.5394 4.8128 0
M  V30 14643 C 1419.38 -1.23535 4.99243 0
M  V30 14644 N 1417.36 -0.926941 6.06862 0
M  V30 14645 C 1418.74 -0.745736 6.15499 0
M  V30 14646 C 1420.79 -1.12333 4.85063 0
M  V30 14647 C 1419.49 -0.155155 7.19133 0
M  V30 14648 C 1421.52 -0.546689 5.88868 0
M  V30 14649 C 1420.88 -0.0674239 7.04368 0
M  V30 14650 H 1416.98 -0.438688 0.647361 0
M  V30 14651 H 1419.56 -0.531647 1.87301 0
M  V30 14652 H 1417.74 -2.97259 2.49984 0
M  V30 14653 H 1419.47 -2.97154 2.74739 0
M  V30 14654 H 1416.22 -1.78993 4.38473 0
M  V30 14655 H 1416.65 -0.639298 6.73975 0
M  V30 14656 H 1421.29 -1.4798 3.96058 0
M  V30 14657 H 1419.01 0.21354 8.07818 0
M  V30 14658 H 1422.59 -0.462461 5.79959 0
M  V30 14659 H 1421.47 0.371791 7.83318 0
M  V30 14660 N 1418.98 -1.3968 -0.729882 0
M  V30 14661 C 1420.23 -1.36492 -1.48502 0
M  V30 14662 C 1420.54 0.0346572 -1.95569 0
M  V30 14663 O 1421.74 0.189135 -2.7084 0
M  V30 14664 C 1420.2 -2.39813 -2.68361 0
M  V30 14665 C 1419.81 -3.85511 -2.28222 0
M  V30 14666 C 1421.55 -2.45709 -3.46161 0
M  V30 14667 C 1419.46 -4.80462 -3.44834 0
M  V30 14668 H 1418.39 -0.507455 -0.557679 0
M  V30 14669 H 1421.04 -1.6535 -0.795708 0
M  V30 14670 H 1419.42 -2.04033 -3.39392 0
M  V30 14671 H 1420.6 -4.30359 -1.64704 0
M  V30 14672 H 1418.91 -3.82957 -1.63501 0
M  V30 14673 H 1421.51 -3.1384 -4.32907 0
M  V30 14674 H 1421.85 -1.48318 -3.88983 0
M  V30 14675 H 1422.38 -2.80409 -2.82163 0
M  V30 14676 H 1419.12 -5.79134 -3.07057 0
M  V30 14677 H 1418.64 -4.40289 -4.07315 0
M  V30 14678 H 1420.32 -4.99607 -4.11098 0
M  V30 14679 N 1420.45 0.960609 -1.2494 0
M  V30 14680 C 1421.42 2.03791 -1.04891 0
M  V30 14681 C 1422.42 1.608 -0.00375792 0
M  V30 14682 O 1423.61 1.72463 -0.24539 0
M  V30 14683 C 1420.74 3.35733 -0.591309 0
M  V30 14684 H 1421.93 2.2301 -2.00516 0
M  V30 14685 H 1419.49 1.13686 -1.07263 0
M  V30 14686 H 1420.22 3.22207 0.367816 0
M  V30 14687 H 1420.01 3.68283 -1.34574 0
M  V30 14688 H 1421.5 4.14921 -0.472283 0
M  V30 14689 N 1421.93 1.0643 1.16234 0
M  V30 14690 C 1423.18 0.782998 1.87075 0
M  V30 14691 C 1423.51 -0.688852 1.81572 0
M  V30 14692 O 1422.79 -1.50478 1.23234 0
M  V30 14693 C 1423.07 1.27997 3.36584 0
M  V30 14694 C 1422.92 2.81568 3.5077 0
M  V30 14695 C 1424.24 0.888975 4.31028 0
M  V30 14696 H 1421.36 0.28591 0.679282 0
M  V30 14697 H 1424 1.32046 1.36615 0
M  V30 14698 H 1422.15 0.822756 3.79688 0
M  V30 14699 H 1423.82 3.35508 3.16595 0
M  V30 14700 H 1422.07 3.2023 2.92635 0
M  V30 14701 H 1422.74 3.11406 4.55774 0
M  V30 14702 H 1425.21 1.28279 3.95833 0
M  V30 14703 H 1424.09 1.26416 5.34144 0
M  V30 14704 H 1424.35 -0.205973 4.4162 0
M  V30 14705 N 1423.41 -1.329 0.847073 0
M  V30 14706 C 1424.64 -2.0171 0.460497 0
M  V30 14707 C 1425.05 -1.63699 -0.940649 0
M  V30 14708 O 1424.41 -0.854454 -1.61262 0
M  V30 14709 C 1424.46 -3.56799 0.581108 0
M  V30 14710 O 1424.18 -3.93442 1.92705 0
M  V30 14711 C 1425.68 -4.42882 0.192552 0
M  V30 14712 H 1422.9 -0.645887 0.181853 0
M  V30 14713 H 1425.45 -1.69648 1.14192 0
M  V30 14714 H 1423.6 -3.87364 -0.0524924 0
M  V30 14715 H 1424.02 -4.88157 1.91841 0
M  V30 14716 H 1425.49 -5.51025 0.327969 0
M  V30 14717 H 1425.97 -4.30571 -0.866315 0
M  V30 14718 H 1426.57 -4.17691 0.800918 0
M  V30 14719 N 1424.89 -0.604284 -1.45555 0
M  V30 14720 C 1426.3 -0.183613 -1.85795 0
M  V30 14721 C 1426.65 1.25869 -1.50504 0
M  V30 14722 O 1425.78 1.9539 -0.930148 0
M  V30 14723 C 1426.37 -0.326455 -3.37224 0
M  V30 14724 C 1424.93 0.0394987 -3.76379 0
M  V30 14725 C 1424.08 -0.65243 -2.69516 0
M  V30 14726 H 1427.03 -0.811173 -1.36403 0
M  V30 14727 H 1427.05 0.442258 -3.77921 0
M  V30 14728 H 1426.56 -1.37627 -3.62878 0
M  V30 14729 H 1424.66 1.08862 -3.56342 0
M  V30 14730 H 1424.77 -0.35185 -4.77806 0
M  V30 14731 H 1423.14 -0.0904148 -2.54539 0
M  V30 14732 H 1423.92 -1.70432 -2.98007 0
M  V30 14733 N 1426.37 1.53816 -0.343257 0
M  V30 14734 C 1427.78 1.86169 0.140709 0
M  V30 14735 C 1428.13 1.26449 1.50017 0
M  V30 14736 O 1427.25 0.577955 2.08539 0
M  V30 14737 C 1427.85 3.37785 0.262097 0
M  V30 14738 C 1426.41 3.70016 0.690294 0
M  V30 14739 C 1425.55 2.7674 -0.17614 0
M  V30 14740 H 1428.51 1.48383 -0.562863 0
M  V30 14741 H 1428.53 3.64564 1.08964 0
M  V30 14742 H 1428.04 3.81221 -0.727481 0
M  V30 14743 H 1426.14 3.32124 1.68891 0
M  V30 14744 H 1426.25 4.76686 0.480388 0
M  V30 14745 H 1424.62 2.52263 0.351476 0
M  V30 14746 H 1425.4 3.23006 -1.16285 0
M  V30 14747 N 1427.84 0.0718701 1.57436 0
M  V30 14748 C 1429.26 -0.28476 1.57039 0
M  V30 14749 C 1429.46 -1.70032 1.08127 0
M  V30 14750 O 1428.52 -2.41191 0.747189 0
M  V30 14751 C 1429.83 -0.0943482 3.00552 0
M  V30 14752 C 1431.38 -0.163879 3.12571 0
M  V30 14753 C 1431.85 -0.00174658 4.58 0
M  V30 14754 N 1433.34 -0.0573489 4.63164 0
M  V30 14755 C 1434.08 0.0436849 5.73383 0
M  V30 14756 N 1433.57 0.198243 6.92516 0
M  V30 14757 N 1435.37 -0.0133856 5.62098 0
M  V30 14758 H 1427.52 0.99702 1.87545 0
M  V30 14759 H 1429.78 0.388822 0.864593 0
M  V30 14760 H 1429.49 0.882445 3.40449 0
M  V30 14761 H 1429.36 -0.846636 3.67576 0
M  V30 14762 H 1431.75 -1.13116 2.7256 0
M  V30 14763 H 1431.83 0.619513 2.48185 0
M  V30 14764 H 1431.47 0.9623 4.98701 0
M  V30 14765 H 1431.4 -0.804543 5.20418 0
M  V30 14766 H 1433.89 -0.175212 3.77494 0
M  V30 14767 H 1434.21 0.267479 7.72337 0
M  V30 14768 H 1432.55 0.233606 6.94607 0
M  V30 14769 H 1435.74 -0.132835 4.67911 0
M  V30 14770 H 1435.92 0.0688076 6.47963 0
M  V30 14771 N 1429.32 -1.56304 -0.201686 0
M  V30 14772 C 1430.57 -1.80504 -0.92446 0
M  V30 14773 C 1430.9 -0.644832 -1.83182 0
M  V30 14774 O 1430.18 0.354963 -1.91234 0
M  V30 14775 C 1430.46 -3.14919 -1.74636 0
M  V30 14776 C 1430.31 -4.41421 -0.864169 0
M  V30 14777 C 1431.63 -3.45962 -2.72026 0
M  V30 14778 H 1428.75 -0.656643 -0.334648 0
M  V30 14779 H 1431.39 -1.89025 -0.192188 0
M  V30 14780 H 1429.54 -3.07785 -2.37066 0
M  V30 14781 H 1431.21 -4.60594 -0.255084 0
M  V30 14782 H 1429.46 -4.33465 -0.170548 0
M  V30 14783 H 1430.13 -5.31954 -1.47409 0
M  V30 14784 H 1432.6 -3.53353 -2.1973 0
M  V30 14785 H 1431.48 -4.41146 -3.26622 0
M  V30 14786 H 1431.74 -2.69124 -3.50749 0
M  V30 14787 N 1430.8 0.469154 -1.50455 0
M  V30 14788 C 1432.21 1.04997 -1.54378 0
M  V30 14789 C 1432.56 1.93082 -0.348414 0
M  V30 14790 O 1431.69 2.09594 0.538469 0
M  V30 14791 C 1432.28 1.91096 -2.79764 0
M  V30 14792 C 1430.84 2.44283 -2.86361 0
M  V30 14793 C 1429.99 1.22676 -2.48688 0
M  V30 14794 H 1432.94 0.251692 -1.56691 0
M  V30 14795 H 1432.96 2.76186 -2.61728 0
M  V30 14796 H 1432.47 1.26961 -3.66746 0
M  V30 14797 H 1430.57 3.11966 -2.03735 0
M  V30 14798 H 1430.69 2.79258 -3.89297 0
M  V30 14799 H 1429.05 1.56215 -2.01169 0
M  V30 14800 H 1429.83 0.602002 -3.37981 0
M  V30 14801 N 1432.28 1.40065 0.722464 0
M  V30 14802 C 1433.56 1.28473 1.47493 0
M  V30 14803 C 1433.94 -0.100058 2.10863 0
M  V30 14804 O 1433.28 -1.11232 1.99599 0
M  V30 14805 C 1433.49 2.41842 2.51621 0
M  V30 14806 C 1434.84 2.81753 3.17648 0
M  V30 14807 O 1435.87 2.41385 2.61939 0
M  V30 14808 O 1434.72 3.51473 4.18484 0
M  V30 14809 H 1431.82 0.504158 0.655556 0
M  V30 14810 H 1434.36 1.51969 0.755223 0
M  V30 14811 H 1433.14 3.34365 2.03263 0
M  V30 14812 H 1432.76 2.20079 3.31136 0
M  V30 14813 N 1433.76 -0.95397 1.25448 0
M  V30 14814 C 1434.69 -2.06828 1.08372 0
M  V30 14815 C 1435.67 -1.70098 -0.00741585 0
M  V30 14816 O 1436.85 -1.93521 0.16224 0
M  V30 14817 C 1433.98 -3.40124 0.702365 0
M  V30 14818 C 1432.94 -3.90865 1.74381 0
M  V30 14819 C 1432.26 -5.20663 1.21712 0
M  V30 14820 C 1433.56 -4.17169 3.14273 0
M  V30 14821 H 1435.26 -2.21372 2.01581 0
M  V30 14822 H 1432.8 -1.06374 0.970592 0
M  V30 14823 H 1434.76 -4.17529 0.569837 0
M  V30 14824 H 1433.48 -3.2552 -0.265428 0
M  V30 14825 H 1432.14 -3.15628 1.86479 0
M  V30 14826 H 1431.79 -5.02429 0.23954 0
M  V30 14827 H 1431.49 -5.55581 1.91319 0
M  V30 14828 H 1433.01 -6.00665 1.097 0
M  V30 14829 H 1434.43 -4.85231 3.05325 0
M  V30 14830 H 1432.82 -4.63344 3.81356 0
M  V30 14831 H 1433.89 -3.23421 3.61285 0
M  V30 14832 N 1435.24 -1.07045 -1.15668 0
M  V30 14833 C 1436.65 -0.795369 -1.38369 0
M  V30 14834 C 1436.85 0.601829 -1.92303 0
M  V30 14835 O 1435.91 1.36109 -2.12675 0
M  V30 14836 C 1437.22 -1.86659 -2.35752 0
M  V30 14837 C 1438.77 -1.89098 -2.49421 0
M  V30 14838 C 1439.24 -2.95296 -3.50092 0
M  V30 14839 N 1440.73 -2.94378 -3.57625 0
M  V30 14840 C 1441.47 -3.73194 -4.35331 0
M  V30 14841 N 1440.97 -4.61851 -5.16397 0
M  V30 14842 N 1442.76 -3.61554 -4.30389 0
M  V30 14843 H 1434.91 -1.97162 -0.790004 0
M  V30 14844 H 1437.17 -0.854816 -0.40987 0
M  V30 14845 H 1436.88 -2.87036 -2.03232 0
M  V30 14846 H 1436.75 -1.72406 -3.35494 0
M  V30 14847 H 1439.14 -0.893752 -2.8124 0
M  V30 14848 H 1439.22 -2.07429 -1.49689 0
M  V30 14849 H 1438.86 -3.95217 -3.19008 0
M  V30 14850 H 1438.79 -2.74212 -4.49572 0
M  V30 14851 H 1441.29 -2.3011 -2.99763 0
M  V30 14852 H 1441.6 -5.18629 -5.72926 0
M  V30 14853 H 1439.94 -4.65902 -5.15714 0
M  V30 14854 H 1443.13 -2.91672 -3.66122 0
M  V30 14855 H 1443.31 -4.23221 -4.90701 0
M  V30 14856 N 1436.71 1.32449 -0.85411 0
M  V30 14857 C 1437.94 2.01997 -0.470307 0
M  V30 14858 C 1438.36 1.63772 0.925225 0
M  V30 14859 O 1437.72 0.838089 1.60766 0
M  V30 14860 C 1437.77 3.55294 -0.616301 0
M  V30 14861 O 1436.87 4.10902 0.351133 0
M  V30 14862 H 1436.21 0.63651 -0.189079 0
M  V30 14863 H 1438.74 1.69008 -1.15315 0
M  V30 14864 H 1438.75 4.0488 -0.503624 0
M  V30 14865 H 1437.43 3.82459 -1.63396 0
M  V30 14866 H 1436.01 3.72391 0.194741 0
M  V30 14867 N 1438.19 0.611994 1.45232 0
M  V30 14868 C 1439.12 -0.0914869 2.33321 0
M  V30 14869 C 1440.1 -0.854315 1.4709 0
M  V30 14870 O 1441.29 -0.823994 1.75852 0
M  V30 14871 C 1438.42 -1.08652 3.29867 0
M  V30 14872 C 1437.37 -0.436615 4.25767 0
M  V30 14873 C 1436.7 -1.54021 5.12037 0
M  V30 14874 C 1438 0.645005 5.18302 0
M  V30 14875 H 1439.69 0.644053 2.92391 0
M  V30 14876 H 1437.24 0.311171 1.40598 0
M  V30 14877 H 1439.19 -1.58726 3.90364 0
M  V30 14878 H 1437.91 -1.85271 2.68965 0
M  V30 14879 H 1436.57 0.0432918 3.66574 0
M  V30 14880 H 1436.22 -2.29679 4.475 0
M  V30 14881 H 1435.92 -1.11084 5.77005 0
M  V30 14882 H 1437.45 -2.04313 5.75403 0
M  V30 14883 H 1438.86 0.228166 5.72846 0
M  V30 14884 H 1437.26 0.996387 5.9177 0
M  V30 14885 H 1438.33 1.51985 4.60466 0
M  V30 14886 N 1439.67 -1.53632 0.351409 0
M  V30 14887 C 1440.6 -2.2284 -0.536204 0
M  V30 14888 C 1441.61 -1.23765 -1.05764 0
M  V30 14889 O 1442.8 -1.50073 -0.966449 0
M  V30 14890 C 1439.9 -2.9013 -1.75151 0
M  V30 14891 C 1439.08 -4.15588 -1.36401 0
M  V30 14892 C 1438.14 -4.66217 -2.43984 0
M  V30 14893 O 1437.16 -5.3024 -2.06964 0
M  V30 14894 N 1438.36 -4.42817 -3.75358 0
M  V30 14895 H 1441.13 -2.99647 0.0565368 0
M  V30 14896 H 1438.69 -1.60942 0.175905 0
M  V30 14897 H 1440.68 -3.20913 -2.4657 0
M  V30 14898 H 1439.25 -2.16862 -2.25144 0
M  V30 14899 H 1438.47 -3.91264 -0.480258 0
M  V30 14900 H 1439.76 -4.97179 -1.08121 0
M  V30 14901 H 1439.16 -3.9163 -4.08218 0
M  V30 14902 H 1437.71 -4.78186 -4.42924 0
M  V30 14903 N 1441.15 -0.0802183 -1.57396 0
M  V30 14904 C 1442.06 0.898597 -2.16708 0
M  V30 14905 C 1443.07 1.321 -1.1325 0
M  V30 14906 O 1444.25 1.39197 -1.45554 0
M  V30 14907 C 1441.31 2.14501 -2.72379 0
M  V30 14908 C 1440.38 1.77822 -3.9074 0
M  V30 14909 C 1439.61 2.96521 -4.43747 0
M  V30 14910 O 1439.83 4.10797 -3.9573 0
M  V30 14911 O 1438.77 2.75849 -5.34968 0
M  V30 14912 H 1442.59 0.424027 -3.00725 0
M  V30 14913 H 1440.18 0.14332 -1.48711 0
M  V30 14914 H 1442.06 2.87575 -3.08024 0
M  V30 14915 H 1440.73 2.61039 -1.91416 0
M  V30 14916 H 1439.64 1.01974 -3.59934 0
M  V30 14917 H 1440.97 1.36059 -4.73021 0
M  V30 14918 N 1442.63 1.56409 0.193394 0
M  V30 14919 C 1443.86 1.84569 0.928328 0
M  V30 14920 C 1444.26 0.660788 1.77286 0
M  V30 14921 O 1443.61 -0.379752 1.79732 0
M  V30 14922 C 1443.67 3.06854 1.87299 0
M  V30 14923 C 1443.33 4.40684 1.21025 0
M  V30 14924 C 1444.33 5.16583 0.58635 0
M  V30 14925 C 1442.01 4.87419 1.21359 0
M  V30 14926 C 1444.01 6.37395 -0.0253573 0
M  V30 14927 C 1441.7 6.08167 0.598052 0
M  V30 14928 C 1442.69 6.82997 -0.0203414 0
M  V30 14929 O 1442.38 8.01457 -0.626232 0
M  V30 14930 H 1442.11 0.616966 0.276277 0
M  V30 14931 H 1444.67 2.04373 0.205102 0
M  V30 14932 H 1442.9 2.82938 2.63596 0
M  V30 14933 H 1444.59 3.21645 2.47587 0
M  V30 14934 H 1445.35 4.81569 0.575894 0
M  V30 14935 H 1441.23 4.29129 1.68432 0
M  V30 14936 H 1444.78 6.95743 -0.508644 0
M  V30 14937 H 1440.67 6.42649 0.606017 0
M  V30 14938 H 1441.44 8.16825 -0.523305 0
M  V30 14939 N 1444.1 -0.461169 1.50702 0
M  V30 14940 C 1445.35 -1.21431 1.62427 0
M  V30 14941 C 1445.68 -1.91406 0.328228 0
M  V30 14942 O 1444.96 -1.82563 -0.670898 0
M  V30 14943 C 1445.24 -2.25016 2.8114 0
M  V30 14944 C 1445.09 -1.5928 4.20654 0
M  V30 14945 C 1446.41 -3.26234 2.95397 0
M  V30 14946 H 1443.53 -0.440113 0.59116 0
M  V30 14947 H 1446.17 -0.506726 1.83118 0
M  V30 14948 H 1444.32 -2.85363 2.63629 0
M  V30 14949 H 1446 -1.02454 4.49779 0
M  V30 14950 H 1444.24 -0.895665 4.24453 0
M  V30 14951 H 1444.91 -2.34602 4.99666 0
M  V30 14952 H 1447.39 -2.7592 3.1146 0
M  V30 14953 H 1446.26 -3.96031 3.80067 0
M  V30 14954 H 1446.52 -3.90943 2.06436 0
M  V30 14955 N 1445.58 -1.40446 -0.715026 0
M  V30 14956 C 1446.83 -1.3848 -1.47199 0
M  V30 14957 C 1447.15 0.0119198 -1.94996 0
M  V30 14958 O 1446.42 0.966772 -1.70383 0
M  V30 14959 H 1445 -0.509669 -0.54612 0
M  V30 14960 H 1447.66 -1.75505 -0.847588 0
M  V30 14961 H 1446.76 -2.06002 -2.34456 0
M  V30 14962 N 1447.06 0.947303 -1.25952 0
M  V30 14963 C 1448.28 1.73261 -1.13997 0
M  V30 14964 C 1448.71 1.85666 0.301639 0
M  V30 14965 O 1448.07 1.34244 1.21854 0
M  V30 14966 C 1448.12 3.12046 -1.8072 0
M  V30 14967 O 1447.22 3.97684 -1.09182 0
M  V30 14968 H 1446.56 0.53182 -0.397572 0
M  V30 14969 H 1449.09 1.18689 -1.66656 0
M  V30 14970 H 1449.1 3.62468 -1.87299 0
M  V30 14971 H 1447.78 3.02334 -2.856 0
M  V30 14972 H 1446.35 3.56141 -1.10536 0
M  V30 14973 N 1448.54 1.07657 1.15099 0
M  V30 14974 C 1449.77 0.822825 1.89835 0
M  V30 14975 C 1450.18 -0.624281 1.7818 0
M  V30 14976 O 1449.54 -1.42844 1.13587 0
M  V30 14977 C 1449.59 1.22598 3.40076 0
M  V30 14978 O 1449.31 2.61631 3.51398 0
M  V30 14979 C 1450.81 1.00199 4.31828 0
M  V30 14980 H 1448.03 0.297288 0.601549 0
M  V30 14981 H 1450.58 1.43384 1.45813 0
M  V30 14982 H 1448.73 0.65923 3.8175 0
M  V30 14983 H 1449.14 2.78163 4.44664 0
M  V30 14984 H 1450.62 1.33355 5.35649 0
M  V30 14985 H 1451.1 -0.0614865 4.39157 0
M  V30 14986 H 1451.7 1.5538 3.959 0
M  V30 14987 N 1450.02 -1.31994 0.861122 0
M  V30 14988 C 1450.95 -2.27632 0.267681 0
M  V30 14989 C 1451.96 -1.52709 -0.564265 0
M  V30 14990 O 1453.15 -1.74239 -0.3877 0
M  V30 14991 C 1450.25 -3.32805 -0.639856 0
M  V30 14992 C 1449.42 -4.37116 0.157676 0
M  V30 14993 C 1448.48 -5.21832 -0.676624 0
M  V30 14994 O 1447.51 -5.69098 -0.107822 0
M  V30 14995 N 1448.71 -5.45317 -1.99022 0
M  V30 14996 H 1451.48 -2.79195 1.0895 0
M  V30 14997 H 1449.04 -1.44923 0.721733 0
M  V30 14998 H 1451.03 -3.86391 -1.20348 0
M  V30 14999 H 1449.6 -2.81351 -1.36236 0
M  V30 15000 H 1448.82 -3.83724 0.902741 0
M  V30 15001 H 1450.11 -5.03889 0.70524 0
M  V30 15002 H 1449.5 -5.08656 -2.47558 0
M  V30 15003 H 1448.06 -6.01874 -2.50182 0
M  V30 15004 N 1451.49 -0.619688 -1.44906 0
M  V30 15005 C 1452.91 -0.203309 -1.8559 0
M  V30 15006 C 1453.26 1.24265 -1.51831 0
M  V30 15007 O 1452.38 1.94392 -0.950819 0
M  V30 15008 C 1452.98 -0.362204 -3.36858 0
M  V30 15009 C 1451.54 -0.000423575 -3.764 0
M  V30 15010 C 1450.68 -0.680979 -2.68808 0
M  V30 15011 H 1453.63 -0.825595 -1.35535 0
M  V30 15012 H 1453.65 0.402149 -3.78369 0
M  V30 15013 H 1453.17 -1.41468 -3.61398 0
M  V30 15014 H 1451.27 1.05077 -3.57477 0
M  V30 15015 H 1451.38 -0.402508 -4.77406 0
M  V30 15016 H 1449.74 -0.117407 -2.54429 0
M  V30 15017 H 1450.53 -1.73583 -2.96182 0
M  V30 15018 N 1452.97 1.53444 -0.359552 0
M  V30 15019 C 1454.22 2.01464 0.232366 0
M  V30 15020 C 1454.55 1.24656 1.48911 0
M  V30 15021 O 1453.83 0.338574 1.9153 0
M  V30 15022 C 1454.11 3.56172 0.530403 0
M  V30 15023 C 1453.96 4.43678 -0.739556 0
M  V30 15024 C 1455.28 4.19412 1.33347 0
M  V30 15025 H 1452.4 0.732314 0.0829802 0
M  V30 15026 H 1455.04 1.83752 -0.483253 0
M  V30 15027 H 1453.19 3.71396 1.14004 0
M  V30 15028 H 1454.86 4.40263 -1.37719 0
M  V30 15029 H 1453.11 4.11892 -1.36117 0
M  V30 15030 H 1453.78 5.49856 -0.486062 0
M  V30 15031 H 1456.25 4.07984 0.817816 0
M  V30 15032 H 1455.13 5.277 1.51075 0
M  V30 15033 H 1455.39 3.7508 2.34024 0
M  V30 15034 N 1454.45 0.0885642 1.57351 0
M  V30 15035 C 1455.38 -0.869946 2.16689 0
M  V30 15036 C 1456.36 -1.29878 1.09844 0
M  V30 15037 O 1457.55 -1.36684 1.37954 0
M  V30 15038 C 1454.68 -2.13148 2.74199 0
M  V30 15039 C 1453.63 -1.84149 3.86359 0
M  V30 15040 C 1452.96 -3.17075 4.30543 0
M  V30 15041 C 1454.26 -1.13357 5.09851 0
M  V30 15042 H 1455.95 -0.375578 2.97035 0
M  V30 15043 H 1453.5 -0.17921 1.42881 0
M  V30 15044 H 1455.45 -2.80634 3.14361 0
M  V30 15045 H 1454.17 -2.64856 1.91098 0
M  V30 15046 H 1452.83 -1.19063 3.46727 0
M  V30 15047 H 1452.48 -3.66658 3.44342 0
M  V30 15048 H 1452.18 -2.98457 5.06159 0
M  V30 15049 H 1453.7 -3.85731 4.73333 0
M  V30 15050 H 1455.12 -1.70941 5.47222 0
M  V30 15051 H 1453.52 -1.0494 5.90853 0
M  V30 15052 H 1454.59 -0.115273 4.84763 0
M  V30 15053 N 1455.93 -1.56509 -0.185096 0
M  V30 15054 C 1456.86 -1.98363 -1.23184 0
M  V30 15055 C 1457.84 -0.85709 -1.46929 0
M  V30 15056 O 1459.02 -1.12216 -1.58497 0
M  V30 15057 C 1456.15 -2.33172 -2.57387 0
M  V30 15058 C 1455.11 -3.48658 -2.48236 0
M  V30 15059 C 1454.43 -3.69171 -3.86804 0
M  V30 15060 C 1455.73 -4.82538 -1.99885 0
M  V30 15061 H 1457.43 -2.86053 -0.883982 0
M  V30 15062 H 1454.97 -1.37623 -0.423786 0
M  V30 15063 H 1456.93 -2.61048 -3.30805 0
M  V30 15064 H 1455.65 -1.42377 -2.93933 0
M  V30 15065 H 1454.31 -3.20889 -1.77273 0
M  V30 15066 H 1453.96 -2.75689 -4.20719 0
M  V30 15067 H 1453.66 -4.46868 -3.81553 0
M  V30 15068 H 1455.18 -3.99433 -4.61829 0
M  V30 15069 H 1456.6 -5.0938 -2.63068 0
M  V30 15070 H 1454.99 -5.63775 -2.05614 0
M  V30 15071 H 1456.06 -4.75453 -0.952503 0
M  V30 15072 N 1457.41 0.45317 -1.50944 0
M  V30 15073 C 1458.68 1.21413 -1.53357 0
M  V30 15074 C 1459.06 2.09118 -0.288584 0
M  V30 15075 O 1458.41 2.16621 0.727164 0
M  V30 15076 C 1458.62 2.02969 -2.83909 0
M  V30 15077 C 1459.97 2.60551 -3.35258 0
M  V30 15078 O 1460.99 2.13196 -2.85353 0
M  V30 15079 O 1459.85 3.46881 -4.22298 0
M  V30 15080 H 1456.95 0.551909 -0.615894 0
M  V30 15081 H 1459.49 0.463529 -1.63247 0
M  V30 15082 H 1458.26 1.38453 -3.65987 0
M  V30 15083 H 1457.89 2.85127 -2.77107 0
M  V30 15084 N 1458.88 1.40823 0.707568 0
M  V30 15085 C 1460.13 1.40743 1.46843 0
M  V30 15086 C 1460.49 0.0119104 1.92396 0
M  V30 15087 O 1459.78 -0.960008 1.65814 0
M  V30 15088 C 1459.97 2.33829 2.70294 0
M  V30 15089 C 1459.8 3.82294 2.36816 0
M  V30 15090 C 1458.57 4.51056 2.27764 0
M  V30 15091 C 1460.77 4.7358 2.00565 0
M  V30 15092 N 1458.75 5.84711 1.87045 0
M  V30 15093 C 1460.12 5.96093 1.7051 0
M  V30 15094 C 1462.18 4.6134 1.8727 0
M  V30 15095 C 1460.88 7.07729 1.28497 0
M  V30 15096 C 1462.91 5.72926 1.46662 0
M  V30 15097 C 1462.27 6.94529 1.1751 0
M  V30 15098 H 1458.37 0.570255 0.535101 0
M  V30 15099 H 1460.95 1.766 0.81979 0
M  V30 15100 H 1459.12 2.00087 3.32896 0
M  V30 15101 H 1460.85 2.2455 3.36689 0
M  V30 15102 H 1457.61 4.04839 2.45768 0
M  V30 15103 H 1458.03 6.55515 1.69201 0
M  V30 15104 H 1462.68 3.67834 2.08467 0
M  V30 15105 H 1460.39 8.01112 1.06044 0
M  V30 15106 H 1463.98 5.65454 1.36942 0
M  V30 15107 H 1462.86 7.79408 0.865604 0
M  V30 15108 N 1460.36 -0.94061 1.26453 0
M  V30 15109 C 1461.33 -2.02096 1.0812 0
M  V30 15110 C 1462.33 -1.60773 0.0293393 0
M  V30 15111 O 1463.52 -1.72051 0.272796 0
M  V30 15112 C 1460.65 -3.34749 0.644646 0
M  V30 15113 H 1461.84 -2.19792 2.04038 0
M  V30 15114 H 1459.39 -1.11965 1.09058 0
M  V30 15115 H 1460.13 -3.22752 -0.316509 0
M  V30 15116 H 1459.91 -3.66095 1.40416 0
M  V30 15117 H 1461.4 -4.14117 0.538233 0
M  V30 15118 N 1461.84 -1.08266 -1.14527 0
M  V30 15119 C 1463.09 -0.812661 -1.85805 0
M  V30 15120 C 1463.42 0.659878 -1.82645 0
M  V30 15121 O 1462.69 1.48498 -1.25612 0
M  V30 15122 C 1462.98 -1.33335 -3.34505 0
M  V30 15123 C 1462.83 -2.87113 -3.46246 0
M  V30 15124 C 1464.15 -0.957435 -4.29559 0
M  V30 15125 H 1461.27 -0.296681 -0.674648 0
M  V30 15126 H 1463.91 -1.34203 -1.34497 0
M  V30 15127 H 1462.06 -0.883056 -3.78331 0
M  V30 15128 H 1463.73 -3.40502 -3.11217 0
M  V30 15129 H 1461.98 -3.24845 -2.87504 0
M  V30 15130 H 1462.65 -3.18618 -4.50762 0
M  V30 15131 H 1465.12 -1.3456 -3.93742 0
M  V30 15132 H 1464 -1.34897 -5.32066 0
M  V30 15133 H 1464.26 0.135689 -4.41892 0
M  V30 15134 N 1463.32 1.31536 -0.86811 0
M  V30 15135 C 1464.57 1.96386 -0.477176 0
M  V30 15136 C 1464.89 1.68968 0.973381 0
M  V30 15137 O 1464.16 1.00409 1.68211 0
M  V30 15138 H 1462.74 0.726579 -0.173468 0
M  V30 15139 H 1465.4 1.60377 -1.10749 0
M  V30 15140 H 1464.5 3.05606 -0.633376 0
M  V30 15141 N 1464.8 0.627364 1.44575 0
M  V30 15142 C 1465.73 -0.066735 2.33405 0
M  V30 15143 C 1466.71 -0.838666 1.47988 0
M  V30 15144 O 1467.89 -0.805296 1.76716 0
M  V30 15145 C 1465.02 -1.05148 3.31 0
M  V30 15146 C 1463.98 -0.391433 4.26206 0
M  V30 15147 C 1463.3 -1.48581 5.13642 0
M  V30 15148 C 1464.6 0.699942 5.17589 0
M  V30 15149 H 1466.3 0.675029 2.91691 0
M  V30 15150 H 1463.84 0.326066 1.4026 0
M  V30 15151 H 1465.8 -1.54576 3.92026 0
M  V30 15152 H 1464.52 -1.82408 2.70915 0
M  V30 15153 H 1463.18 0.0821694 3.66508 0
M  V30 15154 H 1462.83 -2.2492 4.49911 0
M  V30 15155 H 1462.53 -1.04957 5.7815 0
M  V30 15156 H 1464.05 -1.98198 5.77538 0
M  V30 15157 H 1465.47 0.288911 5.72572 0
M  V30 15158 H 1463.86 1.0591 5.9068 0
M  V30 15159 H 1464.93 1.5686 4.58828 0
M  V30 15160 N 1466.28 -1.53251 0.367684 0
M  V30 15161 C 1467.24 -2.24423 -0.465516 0
M  V30 15162 C 1468.24 -1.25283 -1.00801 0
M  V30 15163 O 1469.43 -1.49545 -0.893424 0
M  V30 15164 C 1466.56 -2.9826 -1.65087 0
M  V30 15165 H 1467.75 -2.99487 0.157292 0
M  V30 15166 H 1465.31 -1.55843 0.119409 0
M  V30 15167 H 1466.04 -2.27443 -2.31171 0
M  V30 15168 H 1465.83 -3.71003 -1.26882 0
M  V30 15169 H 1467.32 -3.52358 -2.24128 0
M  V30 15170 N 1467.75 -0.0969077 -1.57302 0
M  V30 15171 C 1469 0.566373 -1.94418 0
M  V30 15172 C 1469.33 1.68078 -0.978769 0
M  V30 15173 O 1468.58 1.957 0.0013214 0
M  V30 15174 C 1468.88 1.15972 -3.38061 0
M  V30 15175 C 1468.55 0.16892 -4.50583 0
M  V30 15176 C 1467.21 -0.103587 -4.81088 0
M  V30 15177 C 1469.56 -0.507513 -5.18723 0
M  V30 15178 C 1466.89 -1.05919 -5.7706 0
M  V30 15179 C 1469.24 -1.4516 -6.1572 0
M  V30 15180 C 1467.91 -1.73232 -6.44629 0
M  V30 15181 H 1467.18 0.207251 -0.711427 0
M  V30 15182 H 1469.82 -0.173125 -1.90716 0
M  V30 15183 H 1468.13 1.97551 -3.3835 0
M  V30 15184 H 1469.83 1.68066 -3.64081 0
M  V30 15185 H 1466.42 0.391501 -4.26808 0
M  V30 15186 H 1470.6 -0.310127 -4.9533 0
M  V30 15187 H 1465.86 -1.28366 -5.97773 0
M  V30 15188 H 1470.03 -1.98155 -6.67613 0
M  V30 15189 H 1467.66 -2.47436 -7.18804 0
M  V30 15190 N 1469.23 1.56605 0.176793 0
M  V30 15191 C 1470.64 1.71418 0.739775 0
M  V30 15192 C 1470.99 0.706527 1.83037 0
M  V30 15193 O 1470.12 -0.133259 2.15989 0
M  V30 15194 C 1470.71 3.10799 1.34867 0
M  V30 15195 C 1469.27 3.27315 1.85854 0
M  V30 15196 C 1468.42 2.67371 0.73541 0
M  V30 15197 H 1471.37 1.58626 -0.0485305 0
M  V30 15198 H 1471.39 3.09146 2.21831 0
M  V30 15199 H 1470.9 3.84116 0.554688 0
M  V30 15200 H 1469 2.58947 2.67913 0
M  V30 15201 H 1469.12 4.35002 2.00774 0
M  V30 15202 H 1467.48 2.27035 1.15444 0
M  V30 15203 H 1468.26 3.43268 -0.0466351 0
M  V30 15204 N 1470.71 -0.445159 1.51182 0
M  V30 15205 C 1471.95 -1.2048 1.65118 0
M  V30 15206 C 1472.31 -1.88673 0.35589 0
M  V30 15207 O 1473.51 -2.66228 0.370932 0
M  V30 15208 C 1471.79 -2.20075 2.81606 0
M  V30 15209 S 1473.34 -3.04631 3.15825 0
M  V30 15210 H 1470.16 -0.408682 0.581807 0
M  V30 15211 H 1472.76 -0.497601 1.89061 0
M  V30 15212 H 1471.47 -1.68603 3.74167 0
M  V30 15213 H 1471 -2.95387 2.59827 0
M  V30 15214 H 1473.01 -4.21606 2.61654 0
M  V30 15215 N 1472.19 -1.41197 -0.700089 0
M  V30 15216 C 1473.12 -1.38616 -1.82533 0
M  V30 15217 C 1474.13 -0.289047 -1.60213 0
M  V30 15218 O 1475.32 -0.550465 -1.698 0
M  V30 15219 C 1472.42 -1.13815 -3.19217 0
M  V30 15220 C 1471.59 -2.3548 -3.68603 0
M  V30 15221 C 1470.65 -2.06604 -4.83943 0
M  V30 15222 O 1469.68 -2.79604 -4.95792 0
M  V30 15223 N 1470.88 -1.05351 -5.7086 0
M  V30 15224 H 1473.65 -2.35598 -1.8524 0
M  V30 15225 H 1471.21 -1.3575 -0.882238 0
M  V30 15226 H 1473.2 -0.924571 -3.93997 0
M  V30 15227 H 1471.77 -0.254468 -3.11563 0
M  V30 15228 H 1470.99 -2.72569 -2.8478 0
M  V30 15229 H 1472.28 -3.16553 -3.98336 0
M  V30 15230 H 1471.68 -0.449223 -5.63914 0
M  V30 15231 H 1470.23 -0.899819 -6.45559 0
M  V30 15232 N 1473.67 0.933891 -1.2695 0
M  V30 15233 C 1474.6 2.03768 -1.04934 0
M  V30 15234 C 1475.61 1.62798 -0.00740752 0
M  V30 15235 O 1476.8 1.76765 -0.248289 0
M  V30 15236 C 1473.9 3.34097 -0.568515 0
M  V30 15237 C 1473.07 4.03794 -1.68133 0
M  V30 15238 C 1472.13 5.12397 -1.19731 0
M  V30 15239 O 1471.16 5.36701 -1.89579 0
M  V30 15240 N 1472.36 5.80479 -0.0496327 0
M  V30 15241 H 1475.12 2.23219 -1.99984 0
M  V30 15242 H 1472.69 1.10386 -1.18433 0
M  V30 15243 H 1474.68 4.04053 -0.228736 0
M  V30 15244 H 1473.25 3.11265 0.288587 0
M  V30 15245 H 1472.47 3.27655 -2.1917 0
M  V30 15246 H 1473.76 4.4711 -2.42837 0
M  V30 15247 H 1473.15 5.63179 0.533509 0
M  V30 15248 H 1471.71 6.5139 0.231014 0
M  V30 15249 N 1475.14 1.08871 1.13951 0
M  V30 15250 C 1476.55 0.841552 1.66658 0
M  V30 15251 C 1476.91 -0.630932 1.85779 0
M  V30 15252 O 1476.03 -1.48673 1.57243 0
M  V30 15253 C 1476.63 1.52109 3.02735 0
M  V30 15254 C 1475.18 1.32105 3.52456 0
M  V30 15255 C 1474.33 1.58084 2.27826 0
M  V30 15256 H 1477.28 1.24865 0.97951 0
M  V30 15257 H 1477.3 0.950978 3.68425 0
M  V30 15258 H 1476.82 2.59276 2.88786 0
M  V30 15259 H 1474.92 0.270294 3.71618 0
M  V30 15260 H 1475.03 2.05197 4.32933 0
M  V30 15261 H 1473.39 1.00264 2.34135 0
M  V30 15262 H 1474.18 2.66467 2.16449 0
M  V30 15263 N 1476.62 -1.31073 0.875073 0
M  V30 15264 C 1477.55 -2.26485 0.279215 0
M  V30 15265 C 1478.53 -1.5134 -0.594556 0
M  V30 15266 O 1479.72 -1.80393 -0.546849 0
M  V30 15267 C 1476.84 -3.33268 -0.604165 0
M  V30 15268 C 1475.89 -4.26036 0.198944 0
M  V30 15269 S 1476.72 -5.11636 1.58079 0
M  V30 15270 C 1477.88 -6.21932 0.703665 0
M  V30 15271 H 1478.11 -2.76677 1.088 0
M  V30 15272 H 1475.64 -1.38917 0.673898 0
M  V30 15273 H 1477.6 -3.9526 -1.10813 0
M  V30 15274 H 1476.26 -2.8182 -1.38694 0
M  V30 15275 H 1475.46 -5.01759 -0.474755 0
M  V30 15276 H 1475.06 -3.68567 0.635185 0
M  V30 15277 H 1477.35 -6.77448 -0.0835828 0
M  V30 15278 H 1478.29 -6.93465 1.43219 0
M  V30 15279 H 1478.7 -5.63859 0.268954 0
M  V30 15280 N 1478.1 -0.635022 -1.4424 0
M  V30 15281 C 1479.03 0.0543561 -2.33437 0
M  V30 15282 C 1480.01 0.830807 -1.48431 0
M  V30 15283 O 1481.2 0.795913 -1.77141 0
M  V30 15284 C 1478.33 1.03391 -3.31553 0
M  V30 15285 C 1477.28 0.368824 -4.26408 0
M  V30 15286 C 1476.61 1.45855 -5.14422 0
M  V30 15287 C 1477.91 -0.727381 -5.1721 0
M  V30 15288 H 1479.6 -0.690489 -2.91329 0
M  V30 15289 H 1477.15 -0.3335 -1.40085 0
M  V30 15290 H 1479.1 1.52495 -3.9284 0
M  V30 15291 H 1477.82 1.80969 -2.71878 0
M  V30 15292 H 1476.48 -0.101605 -3.66459 0
M  V30 15293 H 1476.13 2.22531 -4.51098 0
M  V30 15294 H 1475.83 1.0189 -5.78699 0
M  V30 15295 H 1477.35 1.95132 -5.78581 0
M  V30 15296 H 1478.77 -0.319272 -5.7241 0
M  V30 15297 H 1477.17 -1.09041 -5.9011 0
M  V30 15298 H 1478.24 -1.59292 -4.57989 0
M  V30 15299 N 1479.58 1.53054 -0.375806 0
M  V30 15300 C 1480.53 2.22837 0.482477 0
M  V30 15301 C 1481.51 1.22728 1.04051 0
M  V30 15302 O 1482.7 1.48129 0.968854 0
M  V30 15303 C 1479.83 3.02869 1.61634 0
M  V30 15304 C 1478.92 4.10362 1.07069 0
M  V30 15305 N 1479.31 5.05187 0.248878 0
M  V30 15306 C 1477.61 4.25251 1.34452 0
M  V30 15307 C 1478.31 5.81678 -0.0510458 0
M  V30 15308 N 1477.29 5.40817 0.549318 0
M  V30 15309 H 1481.09 2.93506 -0.1521 0
M  V30 15310 H 1478.6 1.6135 -0.184373 0
M  V30 15311 H 1480.6 3.51387 2.24349 0
M  V30 15312 H 1479.26 2.33732 2.25387 0
M  V30 15313 H 1480.27 5.17777 -0.112766 0
M  V30 15314 H 1476.95 3.67342 1.98408 0
M  V30 15315 H 1478.34 6.68073 -0.716061 0
M  V30 15316 N 1481.06 0.105248 1.57248 0
M  V30 15317 C 1482.02 -0.835589 2.13426 0
M  V30 15318 C 1483.02 -1.20398 1.06587 0
M  V30 15319 O 1484.21 -1.13175 1.32428 0
M  V30 15320 C 1481.34 -2.12806 2.6632 0
M  V30 15321 H 1482.53 -0.347606 2.97879 0
M  V30 15322 H 1480.09 -0.143855 1.55637 0
M  V30 15323 H 1480.82 -2.66066 1.85416 0
M  V30 15324 H 1480.61 -1.87352 3.44444 0
M  V30 15325 H 1482.1 -2.80089 3.09741 0
M  V30 15326 N 1482.53 -1.56697 -0.168486 0
M  V30 15327 C 1483.48 -1.9755 -1.22787 0
M  V30 15328 C 1484.48 -0.864668 -1.4567 0
M  V30 15329 O 1485.68 -1.04979 -1.46217 0
M  V30 15330 H 1482.06 -0.628561 -0.412813 0
M  V30 15331 H 1484.03 -2.85845 -0.85646 0
M  V30 15332 C 1482.78 -2.35394 -2.559 0
M  V30 15333 H 1482.1 -3.20412 -2.39115 0
M  V30 15334 H 1483.54 -2.67821 -3.28706 0
M  V30 15335 C 1482 -1.19842 -3.14864 0
M  V30 15336 O 1482.53 -0.487601 -3.9873 0
M  V30 15337 N 1480.74 -0.968249 -2.73995 0
M  V30 15338 H 1480.28 -1.54804 -2.05897 0
M  V30 15339 H 1480.24 -0.196951 -3.13783 0
M  V30 15340 N 1484.01 0.437135 -1.51416 0
M  V30 15341 C 1485.26 1.18421 -1.63771 0
M  V30 15342 C 1485.58 1.91718 -0.356282 0
M  V30 15343 O 1484.85 1.85566 0.627863 0
M  V30 15344 H 1483.43 0.440125 -0.603572 0
M  V30 15345 H 1486.09 0.501155 -1.88347 0
M  V30 15346 H 1485.19 1.91367 -2.46546 0
M  V30 15347 N 1485.49 1.41566 0.692592 0
M  V30 15348 C 1486.74 1.40381 1.44831 0
M  V30 15349 C 1487.05 0.0172068 1.95592 0
M  V30 15350 O 1488.26 -0.11726 2.71247 0
M  V30 15351 C 1486.71 2.46844 2.61908 0
M  V30 15352 C 1486.32 3.91426 2.17921 0
M  V30 15353 C 1488.07 2.548 3.39525 0
M  V30 15354 C 1485.97 4.89436 3.31974 0
M  V30 15355 H 1484.9 0.522062 0.544028 0
M  V30 15356 H 1487.55 1.67402 0.751589 0
M  V30 15357 H 1485.94 2.12959 3.33863 0
M  V30 15358 H 1487.11 4.34575 1.53236 0
M  V30 15359 H 1485.43 3.87158 1.5329 0
M  V30 15360 H 1488.02 3.25207 4.24434 0
M  V30 15361 H 1488.37 1.58579 3.84913 0
M  V30 15362 H 1488.9 2.87791 2.74629 0
M  V30 15363 H 1485.64 5.87071 2.91595 0
M  V30 15364 H 1485.16 4.50933 3.95499 0
M  V30 15365 H 1486.84 5.10331 3.97708 0
M  V30 15366 N 1486.97 -0.927146 1.27443 0
M  V30 15367 C 1487.93 -2.00938 1.10257 0
M  V30 15368 C 1488.93 -1.60733 0.0463898 0
M  V30 15369 O 1490.12 -1.71752 0.291029 0
M  V30 15370 C 1487.25 -3.34047 0.680115 0
M  V30 15371 H 1488.45 -2.17615 2.06358 0
M  V30 15372 H 1486 -1.10802 1.10239 0
M  V30 15373 H 1486.73 -3.23069 -0.282259 0
M  V30 15374 H 1486.52 -3.64585 1.44291 0
M  V30 15375 H 1488.01 -4.13523 0.582126 0
M  V30 15376 N 1488.45 -1.09474 -1.13372 0
M  V30 15377 C 1489.36 -0.746674 -2.224 0
M  V30 15378 C 1490.37 0.251572 -1.72172 0
M  V30 15379 O 1491.55 0.092793 -2.01186 0
M  V30 15380 C 1488.61 -0.172965 -3.46268 0
M  V30 15381 C 1487.67 -1.22722 -4.11385 0
M  V30 15382 C 1486.91 -0.680794 -5.2934 0
M  V30 15383 O 1487.13 0.496135 -5.68238 0
M  V30 15384 O 1486.06 -1.43605 -5.84518 0
M  V30 15385 H 1489.89 -1.65649 -2.54547 0
M  V30 15386 H 1487.48 -0.869172 -1.21514 0
M  V30 15387 H 1489.36 0.143629 -4.21155 0
M  V30 15388 H 1488.03 0.709853 -3.15821 0
M  V30 15389 H 1486.94 -1.59652 -3.38323 0
M  V30 15390 H 1488.27 -2.0827 -4.45965 0
M  V30 15391 N 1489.92 1.30607 -0.882012 0
M  V30 15392 C 1491.17 1.95531 -0.495038 0
M  V30 15393 C 1491.49 1.70418 0.96005 0
M  V30 15394 O 1492.69 2.29301 1.45373 0
M  V30 15395 C 1491.15 3.50094 -0.834382 0
M  V30 15396 C 1490.76 3.84031 -2.30704 0
M  V30 15397 C 1492.5 4.21347 -0.516463 0
M  V30 15398 C 1490.41 5.31759 -2.58817 0
M  V30 15399 H 1489.34 0.731854 -0.181399 0
M  V30 15400 H 1491.99 1.486 -1.07658 0
M  V30 15401 H 1490.37 3.95582 -0.181961 0
M  V30 15402 H 1491.54 3.49463 -3.00353 0
M  V30 15403 H 1489.86 3.25874 -2.5922 0
M  V30 15404 H 1492.46 5.30051 -0.703576 0
M  V30 15405 H 1492.8 4.12731 0.543935 0
M  V30 15406 H 1493.33 3.81533 -1.12595 0
M  V30 15407 H 1490.07 5.45422 -3.63586 0
M  V30 15408 H 1489.59 5.67637 -1.93774 0
M  V30 15409 H 1491.27 5.9916 -2.44165 0
M  V30 15410 N 1491.4 0.642663 1.43901 0
M  V30 15411 C 1492.81 0.232809 1.85243 0
M  V30 15412 C 1493.16 -1.21834 1.53789 0
M  V30 15413 O 1492.29 -1.92855 0.981625 0
M  V30 15414 C 1492.88 0.415749 3.36239 0
M  V30 15415 C 1491.44 0.0603055 3.76352 0
M  V30 15416 C 1490.59 0.723658 2.67691 0
M  V30 15417 H 1493.54 0.847052 1.34204 0
M  V30 15418 H 1493.56 -0.341903 3.78961 0
M  V30 15419 H 1493.07 1.472 3.59101 0
M  V30 15420 H 1491.18 -0.993761 3.59103 0
M  V30 15421 H 1491.29 0.478408 4.76705 0
M  V30 15422 H 1489.65 0.15787 2.5421 0
M  V30 15423 H 1490.44 1.78273 2.93383 0
M  V30 15424 N 1492.88 -1.52852 0.383918 0
M  V30 15425 C 1493.83 -2.26294 -0.453826 0
M  V30 15426 C 1494.8 -1.27688 -1.0623 0
M  V30 15427 O 1495.98 -1.56507 -1.09134 0
M  V30 15428 C 1493.12 -3.06907 -1.57803 0
M  V30 15429 C 1492.24 -4.20434 -0.992943 0
M  V30 15430 C 1491.37 -4.88453 -2.08776 0
M  V30 15431 C 1490.41 -5.93981 -1.47828 0
M  V30 15432 N 1489.55 -6.55617 -2.51218 0
M  V30 15433 H 1494.39 -2.97462 0.178927 0
M  V30 15434 H 1491.92 -1.46759 0.100066 0
M  V30 15435 H 1493.88 -3.51933 -2.24052 0
M  V30 15436 H 1492.51 -2.37959 -2.18118 0
M  V30 15437 H 1491.56 -3.79762 -0.22021 0
M  V30 15438 H 1492.88 -4.96211 -0.507504 0
M  V30 15439 H 1492.03 -5.36755 -2.82806 0
M  V30 15440 H 1490.77 -4.12187 -2.60678 0
M  V30 15441 H 1489.77 -5.45023 -0.723202 0
M  V30 15442 H 1491 -6.72176 -0.967278 0
M  V30 15443 H 1488.95 -5.82195 -3.02299 0
M  V30 15444 H 1488.86 -7.26991 -2.07414 0
M  V30 15445 H 1490.13 -7.08564 -3.24895 0
M  V30 15446 N 1494.36 -0.113586 -1.5719 0
M  V30 15447 C 1495.61 0.54572 -1.95008 0
M  V30 15448 C 1495.93 1.67031 -0.996541 0
M  V30 15449 O 1495.19 1.9569 -0.0194353 0
M  V30 15450 C 1495.49 1.1238 -3.39272 0
M  V30 15451 C 1495.15 0.12112 -4.50737 0
M  V30 15452 C 1493.82 -0.154607 -4.80952 0
M  V30 15453 C 1496.17 -0.562502 -5.18156 0
M  V30 15454 C 1493.5 -1.12033 -5.75904 0
M  V30 15455 C 1495.85 -1.51682 -6.14146 0
M  V30 15456 C 1494.51 -1.80059 -6.42756 0
M  V30 15457 H 1493.78 0.199693 -0.713585 0
M  V30 15458 H 1496.43 -0.193344 -1.90521 0
M  V30 15459 H 1494.73 1.93951 -3.40426 0
M  V30 15460 H 1496.43 1.64195 -3.65843 0
M  V30 15461 H 1493.02 0.34621 -4.27199 0
M  V30 15462 H 1497.21 -0.362645 -4.94973 0
M  V30 15463 H 1492.46 -1.34699 -5.96377 0
M  V30 15464 H 1496.64 -2.05225 -6.65474 0
M  V30 15465 H 1494.26 -2.55046 -7.16139 0
M  V30 15466 N 1495.84 1.56784 0.160173 0
M  V30 15467 C 1497.25 1.51153 0.512352 0
M  V30 15468 C 1497.45 0.819774 1.84071 0
M  V30 15469 O 1496.51 0.384789 2.49551 0
M  V30 15470 C 1497.82 2.95906 0.534817 0
M  V30 15471 C 1499.37 3.06773 0.621248 0
M  V30 15472 C 1499.85 4.53006 0.674501 0
M  V30 15473 N 1501.34 4.57298 0.737087 0
M  V30 15474 C 1502.07 5.67805 0.799054 0
M  V30 15475 N 1501.57 6.87916 0.821171 0
M  V30 15476 N 1503.36 5.55804 0.838928 0
M  V30 15477 H 1495.51 2.00157 -0.710712 0
M  V30 15478 H 1497.77 0.91233 -0.257601 0
M  V30 15479 H 1497.48 3.49719 -0.372773 0
M  V30 15480 H 1497.35 3.51152 1.3774 0
M  V30 15481 H 1499.74 2.52987 1.51926 0
M  V30 15482 H 1499.82 2.54593 -0.248224 0
M  V30 15483 H 1499.47 5.07426 -0.219301 0
M  V30 15484 H 1499.4 5.02954 1.56028 0
M  V30 15485 H 1501.89 3.70825 0.727827 0
M  V30 15486 H 1502.2 7.67888 0.869938 0
M  V30 15487 H 1500.55 6.90504 0.789264 0
M  V30 15488 H 1503.74 4.60884 0.818728 0
M  V30 15489 H 1503.91 6.41945 0.883757 0
M  V30 15490 N 1497.32 -0.429099 1.51646 0
M  V30 15491 C 1498.56 -1.17482 1.63954 0
M  V30 15492 C 1498.88 -1.92152 0.36565 0
M  V30 15493 O 1500.08 -2.68991 0.368221 0
M  V30 15494 C 1498.54 -2.13703 2.89585 0
M  V30 15495 C 1498.15 -1.44642 4.24008 0
M  V30 15496 C 1499.89 -2.88657 3.11252 0
M  V30 15497 C 1497.8 -2.39395 5.40781 0
M  V30 15498 H 1496.73 -0.442234 0.610692 0
M  V30 15499 H 1499.38 -0.441088 1.7812 0
M  V30 15500 H 1497.76 -2.90545 2.69071 0
M  V30 15501 H 1498.94 -0.733012 4.54932 0
M  V30 15502 H 1497.25 -0.818084 4.08285 0
M  V30 15503 H 1499.85 -3.59653 3.95669 0
M  V30 15504 H 1500.19 -3.50473 2.24664 0
M  V30 15505 H 1500.72 -2.18919 3.32144 0
M  V30 15506 H 1497.46 -1.82255 6.29653 0
M  V30 15507 H 1496.98 -3.08766 5.14222 0
M  V30 15508 H 1498.66 -3.0035 5.73061 0
M  V30 15509 N 1498.79 -1.41931 -0.685074 0
M  V30 15510 C 1500.02 -1.45229 -1.47364 0
M  V30 15511 C 1500.44 -0.060595 -1.88703 0
M  V30 15512 O 1499.79 0.92244 -1.57472 0
M  V30 15513 C 1499.84 -2.37033 -2.72942 0
M  V30 15514 O 1499.57 -3.70787 -2.33342 0
M  V30 15515 C 1501.07 -2.49244 -3.66596 0
M  V30 15516 H 1498.29 -0.494291 -0.453781 0
M  V30 15517 H 1500.83 -1.86333 -0.84263 0
M  V30 15518 H 1498.99 -1.9921 -3.32256 0
M  V30 15519 H 1499.4 -4.19853 -3.14362 0
M  V30 15520 H 1500.87 -3.17624 -4.51463 0
M  V30 15521 H 1501.35 -1.52703 -4.11799 0
M  V30 15522 H 1501.96 -2.87747 -3.1318 0
M  V30 15523 N 1500.27 0.920374 -1.27933 0
M  V30 15524 C 1501.68 1.48385 -1.13309 0
M  V30 15525 C 1502.03 1.94202 0.279307 0
M  V30 15526 O 1501.16 1.81855 1.17294 0
M  V30 15527 C 1501.75 2.69681 -2.05079 0
M  V30 15528 C 1500.31 3.22229 -1.94539 0
M  V30 15529 C 1499.46 1.94948 -1.97207 0
M  V30 15530 H 1502.41 0.733744 -1.40719 0
M  V30 15531 H 1502.43 3.44717 -1.6109 0
M  V30 15532 H 1501.94 2.36304 -3.07867 0
M  V30 15533 H 1500.04 3.60348 -0.94764 0
M  V30 15534 H 1500.16 3.87927 -2.81157 0
M  V30 15535 H 1498.52 2.1176 -1.41527 0
M  V30 15536 H 1499.3 1.63875 -3.01662 0
M  V30 15537 N 1501.75 1.10074 1.1279 0
M  V30 15538 C 1503.03 0.753069 1.80522 0
M  V30 15539 C 1503.41 -0.760982 1.96907 0
M  V30 15540 O 1502.75 -1.68584 1.54245 0
M  V30 15541 C 1502.96 1.49982 3.15129 0
M  V30 15542 C 1504.31 1.66993 3.90382 0
M  V30 15543 O 1505.34 1.46289 3.24774 0
M  V30 15544 O 1504.2 2.01293 5.08078 0
M  V30 15545 H 1501.29 0.271277 0.781241 0
M  V30 15546 H 1503.84 1.20333 1.19658 0
M  V30 15547 H 1502.61 2.53043 2.98471 0
M  V30 15548 H 1502.23 1.04217 3.83699 0
M  V30 15549 N 1503.23 -1.30138 0.888926 0
M  V30 15550 C 1504.46 -1.99853 0.523676 0
M  V30 15551 C 1504.87 -1.66783 -0.893312 0
M  V30 15552 O 1504.21 -0.903292 -1.59957 0
M  V30 15553 C 1504.27 -3.54055 0.623332 0
M  V30 15554 C 1503.93 -4.10652 2.00534 0
M  V30 15555 C 1504.93 -4.26353 2.97522 0
M  V30 15556 C 1502.62 -4.45938 2.3118 0
M  V30 15557 C 1504.61 -4.76557 4.23288 0
M  V30 15558 C 1502.3 -4.95841 3.57191 0
M  V30 15559 C 1503.3 -5.11103 4.53059 0
M  V30 15560 O 1502.98 -5.59927 5.76833 0
M  V30 15561 H 1502.72 -0.645553 0.200591 0
M  V30 15562 H 1505.27 -1.66899 1.19724 0
M  V30 15563 H 1503.5 -3.86551 -0.107221 0
M  V30 15564 H 1505.19 -4.05009 0.26879 0
M  V30 15565 H 1505.95 -3.9939 2.75159 0
M  V30 15566 H 1501.83 -4.33324 1.57326 0
M  V30 15567 H 1505.38 -4.88385 4.98123 0
M  V30 15568 H 1501.27 -5.22239 3.7939 0
M  V30 15569 H 1502.04 -5.78263 5.79271 0
M  V30 15570 N 1504.71 -0.650285 -1.43559 0
M  V30 15571 C 1505.93 -0.168483 -2.06715 0
M  V30 15572 C 1506.36 1.15576 -1.48404 0
M  V30 15573 O 1505.71 1.71333 -0.592842 0
M  V30 15574 C 1505.76 -0.0877095 -3.60493 0
M  V30 15575 O 1504.87 0.950915 -4.01287 0
M  V30 15576 H 1504.21 -0.0935281 -0.65738 0
M  V30 15577 H 1506.74 -0.892381 -1.84113 0
M  V30 15578 H 1506.75 0.0965825 -4.07886 0
M  V30 15579 H 1505.42 -1.05442 -4.02312 0
M  V30 15580 H 1504 0.739648 -3.65491 0
M  V30 15581 N 1506.18 1.52647 -0.392018 0
M  V30 15582 C 1507.15 2.25135 0.429754 0
M  V30 15583 C 1508.15 1.26871 0.987946 0
M  V30 15584 O 1509.34 1.50947 0.86952 0
M  V30 15585 C 1506.47 3.00849 1.60321 0
M  V30 15586 H 1507.66 2.99199 -0.204918 0
M  V30 15587 H 1505.21 1.55634 -0.144188 0
M  V30 15588 H 1505.95 2.31092 2.27524 0
M  V30 15589 H 1505.73 3.72975 1.20964 0
M  V30 15590 H 1507.22 3.55879 2.18494 0
M  V30 15591 N 1507.66 0.121921 1.57128 0
M  V30 15592 C 1508.61 -0.827205 2.15467 0
M  V30 15593 C 1509.58 -1.26155 1.08047 0
M  V30 15594 O 1510.76 -1.33855 1.35969 0
M  V30 15595 C 1507.9 -2.07077 2.76067 0
M  V30 15596 C 1507.02 -1.68452 3.97804 0
M  V30 15597 C 1506.15 -2.87797 4.46482 0
M  V30 15598 C 1505.19 -2.45426 5.60743 0
M  V30 15599 N 1504.33 -3.57695 6.04151 0
M  V30 15600 H 1509.17 -0.322879 2.96246 0
M  V30 15601 H 1506.71 -0.147677 1.46357 0
M  V30 15602 H 1508.66 -2.79943 3.09335 0
M  V30 15603 H 1507.29 -2.54963 1.97974 0
M  V30 15604 H 1506.35 -0.854487 3.70679 0
M  V30 15605 H 1507.66 -1.33316 4.80654 0
M  V30 15606 H 1506.81 -3.68885 4.81673 0
M  V30 15607 H 1505.55 -3.26162 3.62587 0
M  V30 15608 H 1504.56 -1.62772 5.25153 0
M  V30 15609 H 1505.78 -2.08175 6.46405 0
M  V30 15610 H 1503.73 -3.95728 5.23197 0
M  V30 15611 H 1503.64 -3.26491 6.81865 0
M  V30 15612 H 1504.91 -4.39213 6.43981 0
M  V30 15613 N 1509.14 -1.56867 -0.151857 0
M  V30 15614 C 1510.09 -1.97899 -1.18763 0
M  V30 15615 C 1511.06 -0.845833 -1.42951 0
M  V30 15616 O 1512.24 -1.10751 -1.55367 0
M  V30 15617 C 1509.38 -2.36063 -2.5173 0
M  V30 15618 C 1508.5 -3.62647 -2.34757 0
M  V30 15619 C 1507.63 -3.89936 -3.60726 0
M  V30 15620 C 1506.67 -5.09806 -3.38769 0
M  V30 15621 N 1505.81 -5.33129 -4.56856 0
M  V30 15622 H 1510.65 -2.86187 -0.830713 0
M  V30 15623 H 1508.18 -1.41592 -0.398745 0
M  V30 15624 H 1510.14 -2.56218 -3.29254 0
M  V30 15625 H 1508.77 -1.50861 -2.85379 0
M  V30 15626 H 1507.82 -3.50297 -1.48312 0
M  V30 15627 H 1509.14 -4.50328 -2.1449 0
M  V30 15628 H 1508.29 -4.10563 -4.4668 0
M  V30 15629 H 1507.03 -3.00668 -3.83993 0
M  V30 15630 H 1506.03 -4.89057 -2.51203 0
M  V30 15631 H 1507.26 -6.00623 -3.16906 0
M  V30 15632 H 1505.2 -4.46815 -4.80305 0
M  V30 15633 H 1505.12 -6.1507 -4.39574 0
M  V30 15634 H 1506.39 -5.5825 -5.44038 0
M  V30 15635 N 1510.62 0.421051 -1.51871 0
M  V30 15636 C 1511.55 1.51928 -1.77313 0
M  V30 15637 C 1512.53 1.58258 -0.623579 0
M  V30 15638 O 1513.71 1.73724 -0.867967 0
M  V30 15639 C 1510.84 2.89865 -1.913 0
M  V30 15640 C 1509.8 2.98391 -3.06834 0
M  V30 15641 C 1509.12 4.38466 -3.06026 0
M  V30 15642 C 1510.42 2.7097 -4.46511 0
M  V30 15643 H 1512.12 1.30889 -2.69274 0
M  V30 15644 H 1509.66 0.628229 -1.29573 0
M  V30 15645 H 1511.62 3.66669 -2.07682 0
M  V30 15646 H 1510.34 3.12172 -0.960011 0
M  V30 15647 H 1509 2.24029 -2.90184 0
M  V30 15648 H 1508.65 4.57764 -2.08472 0
M  V30 15649 H 1508.35 4.45097 -3.83618 0
M  V30 15650 H 1509.87 5.17221 -3.24522 0
M  V30 15651 H 1511.29 3.37501 -4.63428 0
M  V30 15652 H 1509.68 2.88992 -5.25931 0
M  V30 15653 H 1510.75 1.66476 -4.55427 0
M  V30 15654 N 1512.1 1.42293 0.677538 0
M  V30 15655 C 1513.37 1.331 1.43331 0
M  V30 15656 C 1513.75 -0.0329227 2.11074 0
M  V30 15657 O 1513.1 -1.04826 2.03036 0
M  V30 15658 C 1513.31 2.49725 2.438 0
M  V30 15659 C 1514.66 2.91716 3.08524 0
M  V30 15660 O 1515.68 2.49596 2.54127 0
M  V30 15661 O 1514.54 3.64609 4.07091 0
M  V30 15662 H 1511.64 0.524758 0.639185 0
M  V30 15663 H 1514.18 1.54294 0.706493 0
M  V30 15664 H 1512.95 3.40663 1.92522 0
M  V30 15665 H 1512.58 2.30503 3.23966 0
M  V30 15666 N 1513.57 -0.913576 1.28419 0
M  V30 15667 C 1514.8 -1.69649 1.18435 0
M  V30 15668 C 1515.22 -1.87043 -0.256987 0
M  V30 15669 O 1514.57 -1.39755 -1.17366 0
M  V30 15670 C 1514.63 -3.08855 1.87859 0
M  V30 15671 O 1514.35 -2.92265 3.26363 0
M  V30 15672 C 1515.85 -4.03229 1.84178 0
M  V30 15673 H 1513.07 -0.530307 0.411115 0
M  V30 15674 H 1515.61 -1.14342 1.69547 0
M  V30 15675 H 1513.77 -3.60979 1.40617 0
M  V30 15676 H 1514.18 -3.80372 3.61134 0
M  V30 15677 H 1515.65 -4.98369 2.37344 0
M  V30 15678 H 1516.13 -4.31587 0.814195 0
M  V30 15679 H 1516.74 -3.57033 2.311 0
M  V30 15680 N 1515.05 -1.1067 -1.12204 0
M  V30 15681 C 1516.33 -0.762632 -1.8012 0
M  V30 15682 C 1516.71 0.750529 -1.97308 0
M  V30 15683 O 1516.06 1.67764 -1.55137 0
M  V30 15684 C 1516.27 -1.51651 -3.14329 0
M  V30 15685 C 1517.62 -1.69061 -3.89491 0
M  V30 15686 O 1518.64 -1.48009 -3.23994 0
M  V30 15687 O 1517.5 -2.03984 -5.07004 0
M  V30 15688 H 1514.59 -0.275417 -0.779791 0
M  V30 15689 H 1517.14 -1.20966 -1.19018 0
M  V30 15690 H 1515.91 -2.54622 -2.97125 0
M  V30 15691 H 1515.53 -1.0625 -3.83141 0
M  V30 15692 N 1516.53 1.29665 -0.895815 0
M  V30 15693 C 1517.76 1.99862 -0.535043 0
M  V30 15694 C 1518.17 1.67077 0.879245 0
M  V30 15695 O 1517.53 0.913717 1.57979 0
M  V30 15696 C 1517.58 3.54396 -0.713132 0
M  V30 15697 O 1517.3 3.86018 -2.07175 0
M  V30 15698 C 1518.8 4.41862 -0.356792 0
M  V30 15699 H 1516.02 0.638693 -0.205699 0
M  V30 15700 H 1518.57 1.65293 -1.20409 0
M  V30 15701 H 1516.72 3.87292 -0.0913116 0
M  V30 15702 H 1517.14 4.80701 -2.09827 0
M  V30 15703 H 1518.61 5.49428 -0.532252 0
M  V30 15704 H 1519.09 4.3349 0.705914 0
M  V30 15705 H 1519.69 4.1443 -0.95539 0
M  V30 15706 N 1518.01 0.657889 1.43212 0
M  V30 15707 C 1519.25 0.182061 2.02584 0
M  V30 15708 C 1519.61 -1.19232 1.51002 0
M  V30 15709 O 1518.9 -1.78535 0.6954 0
M  V30 15710 C 1519.1 0.138025 3.57133 0
M  V30 15711 C 1518.93 1.5066 4.23712 0
M  V30 15712 C 1517.7 2.10015 4.59589 0
M  V30 15713 C 1519.89 2.44593 4.52414 0
M  V30 15714 N 1517.88 3.39828 5.11263 0
M  V30 15715 C 1519.25 3.59044 5.05457 0
M  V30 15716 C 1521.3 2.43337 4.34387 0
M  V30 15717 C 1520 4.7247 5.4237 0
M  V30 15718 C 1522.03 3.55846 4.72364 0
M  V30 15719 C 1521.39 4.69023 5.25544 0
M  V30 15720 H 1517.49 0.111158 0.774059 0
M  V30 15721 H 1520.08 0.867208 1.7432 0
M  V30 15722 H 1518.25 -0.516479 3.84951 0
M  V30 15723 H 1519.98 -0.34911 4.03191 0
M  V30 15724 H 1516.73 1.62676 4.44785 0
M  V30 15725 H 1517.16 4.06269 5.41548 0
M  V30 15726 H 1521.8 1.57072 3.92541 0
M  V30 15727 H 1519.52 5.59423 5.83157 0
M  V30 15728 H 1523.1 3.56081 4.60106 0
M  V30 15729 H 1521.98 5.54641 5.54385 0
M  V30 15730 N 1519.49 -1.52437 0.400108 0
M  V30 15731 C 1520.4 -2.30496 -0.436875 0
M  V30 15732 C 1521.41 -1.37851 -1.06175 0
M  V30 15733 O 1522.59 -1.70924 -1.06522 0
M  V30 15734 C 1519.65 -3.10459 -1.54325 0
M  V30 15735 C 1518.71 -4.18829 -0.942367 0
M  V30 15736 C 1517.95 -4.94969 -1.99602 0
M  V30 15737 O 1518.17 -4.71314 -3.21278 0
M  V30 15738 O 1517.1 -5.80043 -1.60728 0
M  V30 15739 H 1520.93 -3.03045 0.199343 0
M  V30 15740 H 1518.52 -1.48502 0.163541 0
M  V30 15741 H 1520.4 -3.60282 -2.18575 0
M  V30 15742 H 1519.07 -2.40713 -2.16423 0
M  V30 15743 H 1517.98 -3.73176 -0.262831 0
M  V30 15744 H 1519.31 -4.90841 -0.365441 0
M  V30 15745 N 1520.96 -0.130252 -1.57061 0
M  V30 15746 C 1522.24 0.569171 -1.87136 0
M  V30 15747 C 1522.62 1.84078 -1.03337 0
M  V30 15748 O 1521.97 2.28208 -0.11543 0
M  V30 15749 C 1522.18 0.850782 -3.38471 0
M  V30 15750 C 1523.53 1.19892 -4.07322 0
M  V30 15751 O 1524.55 0.940682 -3.43554 0
M  V30 15752 O 1523.41 1.6841 -5.19904 0
M  V30 15753 H 1520.5 0.288433 -0.775071 0
M  V30 15754 H 1523.05 -0.165603 -1.6889 0
M  V30 15755 H 1521.82 -0.0498562 -3.91268 0
M  V30 15756 H 1521.45 1.64032 -3.62187 0
M  V30 15757 N 1522.44 1.56945 0.143535 0
M  V30 15758 C 1523.69 1.83176 0.853873 0
M  V30 15759 C 1524.01 0.71168 1.81549 0
M  V30 15760 O 1523.28 -0.266391 1.9408 0
M  V30 15761 H 1521.86 0.675785 0.318313 0
M  V30 15762 H 1524.52 1.9442 0.136712 0
M  V30 15763 H 1523.62 2.7823 1.41402 0
M  V30 15764 N 1523.92 -0.412991 1.52093 0
M  V30 15765 C 1525.15 -1.18212 1.69805 0
M  V30 15766 C 1525.56 -1.84386 0.405844 0
M  V30 15767 O 1524.92 -1.71725 -0.617809 0
M  V30 15768 C 1524.97 -2.24811 2.83094 0
M  V30 15769 O 1524.69 -1.61338 4.0731 0
M  V30 15770 C 1526.19 -3.14633 3.12283 0
M  V30 15771 H 1523.41 -0.355371 0.569168 0
M  V30 15772 H 1525.96 -0.486392 1.98632 0
M  V30 15773 H 1524.11 -2.90058 2.56797 0
M  V30 15774 H 1524.53 -2.31979 4.7041 0
M  V30 15775 H 1526 -3.85511 3.95076 0
M  V30 15776 H 1526.48 -3.76785 2.25677 0
M  V30 15777 H 1527.08 -2.55059 3.40331 0
M  V30 15778 N 1525.4 -1.4265 -0.669982 0
M  V30 15779 C 1526.35 -1.46746 -1.80467 0
M  V30 15780 C 1527.34 -0.342698 -1.65897 0
M  V30 15781 O 1528.55 -0.515933 -1.72447 0
M  V30 15782 H 1524.92 -0.4597 -0.59513 0
M  V30 15783 H 1526.89 -2.42325 -1.7413 0
M  V30 15784 C 1525.64 -1.39141 -3.18646 0
M  V30 15785 H 1524.97 -2.24987 -3.30486 0
M  V30 15786 H 1526.41 -1.46068 -3.98045 0
M  V30 15787 C 1524.86 -0.106802 -3.36731 0
M  V30 15788 O 1525.39 0.838535 -3.9285 0
M  V30 15789 N 1523.6 -0.0223958 -2.90591 0
M  V30 15790 H 1523.15 -0.792469 -2.45108 0
M  V30 15791 H 1523.11 0.836462 -3.03069 0
M  V30 15792 N 1526.88 0.906753 -1.28902 0
M  V30 15793 C 1528.13 1.6533 -1.16234 0
M  V30 15794 C 1528.45 1.92861 0.288004 0
M  V30 15795 O 1527.72 1.54971 1.19837 0
M  V30 15796 H 1526.3 0.612806 -0.427174 0
M  V30 15797 H 1528.96 1.08764 -1.6173 0
M  V30 15798 H 1528.05 2.61271 -1.70715 0
M  V30 15799 N 1528.36 1.11264 1.11616 0
M  V30 15800 C 1529.6 0.858664 1.82952 0
M  V30 15801 C 1529.92 -0.617439 1.84967 0
M  V30 15802 O 1529.19 -1.44849 1.31893 0
M  V30 15803 H 1527.77 0.314671 0.677489 0
M  V30 15804 H 1530.44 1.40466 1.35113 0
M  V30 15805 H 1529.53 1.22921 2.86874 0
M  V30 15806 N 1529.83 -1.29188 0.902679 0
M  V30 15807 C 1530.76 -2.3006 0.399357 0
M  V30 15808 C 1531.74 -1.61724 -0.527199 0
M  V30 15809 O 1532.93 -1.89213 -0.437293 0
M  V30 15810 C 1530.06 -3.45309 -0.371331 0
M  V30 15811 C 1529.01 -4.25466 0.465068 0
M  V30 15812 C 1528.34 -5.32941 -0.433295 0
M  V30 15813 C 1529.64 -4.93287 1.71655 0
M  V30 15814 H 1531.33 -2.72409 1.24233 0
M  V30 15815 H 1528.88 -1.30958 0.598822 0
M  V30 15816 H 1530.83 -4.14955 -0.734207 0
M  V30 15817 H 1529.56 -3.01811 -1.24811 0
M  V30 15818 H 1528.22 -3.57532 0.810315 0
M  V30 15819 H 1527.86 -4.85688 -1.3083 0
M  V30 15820 H 1527.56 -5.87472 0.122657 0
M  V30 15821 H 1529.09 -6.05438 -0.792298 0
M  V30 15822 H 1530.5 -5.55353 1.42323 0
M  V30 15823 H 1528.9 -5.57763 2.21405 0
M  V30 15824 H 1529.97 -4.18406 2.45081 0
M  V30 15825 N 1531.31 -0.665475 -1.42861 0
M  V30 15826 C 1532.24 0.00482845 -2.335 0
M  V30 15827 C 1533.22 0.799135 -1.50159 0
M  V30 15828 O 1534.41 0.75816 -1.78789 0
M  V30 15829 C 1531.54 0.963347 -3.33672 0
M  V30 15830 C 1530.49 0.278294 -4.27094 0
M  V30 15831 C 1529.82 1.34911 -5.174 0
M  V30 15832 C 1531.12 -0.836925 -5.15551 0
M  V30 15833 H 1532.81 -0.752129 -2.89799 0
M  V30 15834 H 1530.36 -0.363139 -1.39346 0
M  V30 15835 H 1532.31 1.44128 -3.95986 0
M  V30 15836 H 1531.03 1.75161 -2.75656 0
M  V30 15837 H 1529.69 -0.179314 -3.66161 0
M  V30 15838 H 1529.34 2.12912 -4.55716 0
M  V30 15839 H 1529.04 0.895919 -5.8073 0
M  V30 15840 H 1530.57 1.82816 -5.8259 0
M  V30 15841 H 1531.98 -0.440617 -5.71604 0
M  V30 15842 H 1530.38 -1.21533 -5.87665 0
M  V30 15843 H 1531.45 -1.6897 -4.54507 0
M  V30 15844 N 1532.79 1.52222 -0.408187 0
M  V30 15845 C 1534.04 2.01404 0.167574 0
M  V30 15846 C 1534.36 1.29572 1.45726 0
M  V30 15847 O 1533.63 0.421363 1.91315 0
M  V30 15848 H 1532.21 0.744174 0.0649156 0
M  V30 15849 H 1534.87 1.87148 -0.544212 0
M  V30 15850 H 1533.97 3.09966 0.36436 0
M  V30 15851 N 1534.27 0.138579 1.5699 0
M  V30 15852 C 1535.52 -0.514545 1.95026 0
M  V30 15853 C 1535.83 -1.66565 1.02544 0
M  V30 15854 O 1537.04 -2.38284 1.30126 0
M  V30 15855 C 1535.49 -0.966746 3.46673 0
M  V30 15856 C 1535.1 0.156969 4.47725 0
M  V30 15857 C 1536.84 -1.59014 3.93592 0
M  V30 15858 C 1534.75 -0.313031 5.90571 0
M  V30 15859 H 1533.68 -0.195991 0.728082 0
M  V30 15860 H 1536.33 0.221575 1.82157 0
M  V30 15861 H 1534.71 -1.75788 3.54845 0
M  V30 15862 H 1535.89 0.933728 4.51241 0
M  V30 15863 H 1534.2 0.688238 4.10673 0
M  V30 15864 H 1536.8 -1.95326 4.97747 0
M  V30 15865 H 1537.14 -2.47595 3.34668 0
M  V30 15866 H 1537.68 -0.864061 3.88302 0
M  V30 15867 H 1534.41 0.5372 6.53295 0
M  V30 15868 H 1533.93 -1.05585 5.90434 0
M  V30 15869 H 1535.61 -0.767826 6.42428 0
M  V30 15870 N 1535.75 -1.57019 -0.13521 0
M  V30 15871 C 1536.97 -1.8816 -0.860434 0
M  V30 15872 C 1537.39 -0.728081 -1.74196 0
M  V30 15873 O 1536.75 0.301745 -1.79988 0
M  V30 15874 C 1536.8 -3.1864 -1.70737 0
M  V30 15875 O 1536.52 -4.29549 -0.861347 0
M  V30 15876 C 1538.02 -3.63376 -2.53915 0
M  V30 15877 H 1535.24 -0.623408 -0.248201 0
M  V30 15878 H 1537.78 -2.04121 -0.124461 0
M  V30 15879 H 1535.94 -3.04397 -2.39627 0
M  V30 15880 H 1536.35 -5.04233 -1.44393 0
M  V30 15881 H 1537.83 -4.57478 -3.08897 0
M  V30 15882 H 1538.3 -2.89238 -3.30512 0
M  V30 15883 H 1538.91 -3.80352 -1.90296 0
M  V30 15884 N 1537.22 0.404919 -1.52309 0
M  V30 15885 C 1538.5 1.16473 -1.57142 0
M  V30 15886 C 1538.88 2.08094 -0.354967 0
M  V30 15887 O 1538.23 2.18825 0.65788 0
M  V30 15888 C 1538.44 1.93834 -2.90223 0
M  V30 15889 C 1539.79 2.49754 -3.43378 0
M  V30 15890 O 1540.81 2.04009 -2.91991 0
M  V30 15891 O 1539.67 3.33271 -4.3312 0
M  V30 15892 H 1536.76 0.532036 -0.633141 0
M  V30 15893 H 1539.31 0.411359 -1.64639 0
M  V30 15894 H 1538.08 1.2674 -3.70206 0
M  V30 15895 H 1537.71 2.76167 -2.86038 0
M  V30 15896 N 1538.7 1.43003 0.662408 0
M  V30 15897 C 1539.63 1.50248 1.78739 0
M  V30 15898 C 1540.61 0.357934 1.66291 0
M  V30 15899 O 1541.8 0.573919 1.85526 0
M  V30 15900 C 1538.93 1.41618 3.17114 0
M  V30 15901 C 1537.88 2.54228 3.44314 0
M  V30 15902 C 1537.21 2.30653 4.82393 0
M  V30 15903 C 1538.51 3.96505 3.39972 0
M  V30 15904 H 1540.2 2.44406 1.72934 0
M  V30 15905 H 1537.75 1.17633 0.830569 0
M  V30 15906 H 1539.7 1.45293 3.9556 0
M  V30 15907 H 1538.43 0.439605 3.23628 0
M  V30 15908 H 1537.08 2.49891 2.68235 0
M  V30 15909 H 1536.73 1.3126 4.85572 0
M  V30 15910 H 1536.43 3.06134 5.01554 0
M  V30 15911 H 1537.96 2.36096 5.63108 0
M  V30 15912 H 1539.37 4.02378 4.08368 0
M  V30 15913 H 1537.77 4.71937 3.70668 0
M  V30 15914 H 1538.84 4.22295 2.38318 0
M  V30 15915 N 1540.18 -0.899904 1.29381 0
M  V30 15916 C 1541.11 -2.02045 1.17047 0
M  V30 15917 C 1542.09 -1.69977 0.0647354 0
M  V30 15918 O 1543.28 -1.92659 0.244173 0
M  V30 15919 C 1540.41 -3.36839 0.845991 0
M  V30 15920 C 1539.36 -3.83117 1.90802 0
M  V30 15921 C 1538.69 -5.15032 1.43686 0
M  V30 15922 C 1539.99 -4.03464 3.31684 0
M  V30 15923 H 1541.68 -2.12623 2.10789 0
M  V30 15924 H 1539.23 -1.02162 1.01484 0
M  V30 15925 H 1541.18 -4.14737 0.746413 0
M  V30 15926 H 1539.9 -3.26352 -0.127125 0
M  V30 15927 H 1538.56 -3.07435 1.99698 0
M  V30 15928 H 1538.21 -5.00961 0.452422 0
M  V30 15929 H 1537.91 -5.46967 2.14711 0
M  V30 15930 H 1539.43 -5.95472 1.35078 0
M  V30 15931 H 1540.85 -4.71845 3.25631 0
M  V30 15932 H 1539.25 -4.46752 4.00665 0
M  V30 15933 H 1540.32 -3.07807 3.74677 0
M  V30 15934 N 1541.66 -1.11854 -1.11024 0
M  V30 15935 C 1542.59 -0.803129 -2.19253 0
M  V30 15936 C 1543.57 0.230417 -1.68532 0
M  V30 15937 O 1544.75 0.0929421 -1.93977 0
M  V30 15938 C 1541.88 -0.250265 -3.46397 0
M  V30 15939 C 1540.84 -1.21617 -4.10357 0
M  V30 15940 C 1540.16 -0.523821 -5.32128 0
M  V30 15941 C 1541.46 -2.56852 -4.54779 0
M  V30 15942 H 1543.16 -1.7081 -2.45895 0
M  V30 15943 H 1540.7 -0.822712 -1.18184 0
M  V30 15944 H 1542.66 -0.0173732 -4.21396 0
M  V30 15945 H 1541.38 0.690018 -3.19228 0
M  V30 15946 H 1540.04 -1.43477 -3.37357 0
M  V30 15947 H 1539.69 0.421408 -5.01232 0
M  V30 15948 H 1539.39 -1.16809 -5.75873 0
M  V30 15949 H 1540.91 -0.299823 -6.09863 0
M  V30 15950 H 1542.33 -2.39056 -5.21081 0
M  V30 15951 H 1540.72 -3.17301 -5.09353 0
M  V30 15952 H 1541.79 -3.15751 -3.68007 0
M  V30 15953 N 1543.14 1.28707 -0.909517 0
M  V30 15954 C 1544.55 1.47605 -0.607045 0
M  V30 15955 C 1544.75 1.8275 0.848815 0
M  V30 15956 O 1543.81 1.92989 1.62823 0
M  V30 15957 C 1545.12 2.58194 -1.54131 0
M  V30 15958 C 1546.67 2.72065 -1.54757 0
M  V30 15959 C 1547.14 3.85793 -2.46835 0
M  V30 15960 N 1548.64 3.93141 -2.44937 0
M  V30 15961 C 1549.37 4.80512 -3.12883 0
M  V30 15962 N 1548.87 5.72504 -3.90142 0
M  V30 15963 N 1550.66 4.74086 -3.01991 0
M  V30 15964 H 1542.81 1.04174 -1.85099 0
M  V30 15965 H 1545.07 0.51843 -0.793684 0
M  V30 15966 H 1544.78 2.39119 -2.57905 0
M  V30 15967 H 1544.65 3.55205 -1.26921 0
M  V30 15968 H 1547.04 2.90532 -0.517219 0
M  V30 15969 H 1547.12 1.75598 -1.86008 0
M  V30 15970 H 1546.77 3.68082 -3.49969 0
M  V30 15971 H 1546.7 4.8165 -2.12888 0
M  V30 15972 H 1549.19 3.2735 -1.88813 0
M  V30 15973 H 1549.5 6.3599 -4.39017 0
M  V30 15974 H 1547.84 5.72358 -3.94248 0
M  V30 15975 H 1551.04 4.01209 -2.4114 0
M  V30 15976 H 1551.21 5.41964 -3.55217 0
M  V30 15977 N 1544.61 0.673042 1.42506 0
M  V30 15978 C 1545.58 0.00283156 2.292 0
M  V30 15979 C 1546.58 -0.73077 1.43235 0
M  V30 15980 O 1547.77 -0.569037 1.64644 0
M  V30 15981 C 1544.9 -1.00666 3.25698 0
M  V30 15982 H 1546.09 0.765869 2.89956 0
M  V30 15983 H 1543.65 0.435301 1.50116 0
M  V30 15984 H 1544.38 -1.79825 2.69877 0
M  V30 15985 H 1544.17 -0.484043 3.89101 0
M  V30 15986 H 1545.66 -1.47409 3.90718 0
M  V30 15987 N 1546.09 -1.52004 0.416254 0
M  V30 15988 C 1547.04 -2.24037 -0.423226 0
M  V30 15989 C 1548.03 -1.25444 -1.0076 0
M  V30 15990 O 1549.22 -1.50646 -0.92924 0
M  V30 15991 C 1546.35 -3.07048 -1.53547 0
M  V30 15992 C 1545.43 -4.13056 -0.961518 0
M  V30 15993 N 1545.82 -5.0567 -0.114849 0
M  V30 15994 C 1544.12 -4.28667 -1.2313 0
M  V30 15995 C 1544.82 -5.81338 0.205249 0
M  V30 15996 N 1543.8 -5.42084 -0.405736 0
M  V30 15997 H 1547.6 -2.93 0.229864 0
M  V30 15998 H 1545.12 -1.60804 0.227087 0
M  V30 15999 H 1547.11 -3.57212 -2.14954 0
M  V30 16000 H 1545.77 -2.39626 -2.19111 0
M  V30 16001 H 1546.78 -5.17296 0.250006 0
M  V30 16002 H 1543.46 -3.72474 -1.88599 0
M  V30 16003 H 1544.85 -6.6594 0.892938 0
M  V30 16004 N 1547.57 -0.146903 -1.56914 0
M  V30 16005 C 1548.82 0.504981 -1.96412 0
M  V30 16006 C 1549.15 1.64522 -1.0318 0
M  V30 16007 O 1548.42 1.94359 -0.0741728 0
M  V30 16008 C 1548.71 1.01125 -3.45609 0
M  V30 16009 C 1548.56 -0.127493 -4.49619 0
M  V30 16010 C 1549.88 1.89306 -3.97305 0
M  V30 16011 H 1547 0.182088 -0.714152 0
M  V30 16012 H 1549.64 -0.22811 -1.88626 0
M  V30 16013 H 1547.79 1.63595 -3.52376 0
M  V30 16014 H 1549.46 -0.763829 -4.54932 0
M  V30 16015 H 1547.71 -0.786649 -4.26608 0
M  V30 16016 H 1548.38 0.268453 -5.51347 0
M  V30 16017 H 1550.85 1.36664 -3.93017 0
M  V30 16018 H 1549.73 2.21638 -5.02163 0
M  V30 16019 H 1549.99 2.82996 -3.39655 0
M  V30 16020 N 1549.05 1.57088 0.126881 0
M  V30 16021 C 1549.98 1.94951 1.18614 0
M  V30 16022 C 1550.96 0.818067 1.40522 0
M  V30 16023 O 1552.14 1.07553 1.54805 0
M  V30 16024 C 1549.27 2.23893 2.54144 0
M  V30 16025 C 1548.32 3.46475 2.48712 0
M  V30 16026 S 1549.15 4.9934 1.93443 0
M  V30 16027 C 1550.31 5.31426 3.30662 0
M  V30 16028 H 1550.54 2.84492 0.863219 0
M  V30 16029 H 1548.07 1.50759 0.333323 0
M  V30 16030 H 1550.03 2.41247 3.3213 0
M  V30 16031 H 1548.69 1.3498 2.83618 0
M  V30 16032 H 1547.88 3.64067 3.48528 0
M  V30 16033 H 1547.49 3.28467 1.78844 0
M  V30 16034 H 1549.78 5.26125 4.26847 0
M  V30 16035 H 1550.72 6.32726 3.17905 0
M  V30 16036 H 1551.13 4.5891 3.28727 0
M  V30 16037 N 1550.53 -0.396836 1.52522 0
M  V30 16038 C 1551.49 -1.46695 1.76106 0
M  V30 16039 C 1552.49 -1.47902 0.631005 0
M  V30 16040 O 1553.68 -1.4921 0.898995 0
M  V30 16041 C 1550.81 -2.86033 1.85467 0
M  V30 16042 H 1552 -1.27071 2.71649 0
M  V30 16043 H 1549.56 -0.628096 1.43125 0
M  V30 16044 H 1550.29 -3.11012 0.918816 0
M  V30 16045 H 1550.08 -2.86559 2.67631 0
M  V30 16046 H 1551.57 -3.63587 2.05412 0
M  V30 16047 N 1552.01 -1.43353 -0.654814 0
M  V30 16048 C 1553.23 -1.48322 -1.4425 0
M  V30 16049 C 1553.65 -0.100608 -1.88532 0
M  V30 16050 O 1553.01 0.888831 -1.59393 0
M  V30 16051 C 1553.06 -2.42769 -2.67853 0
M  V30 16052 O 1552.78 -3.75653 -2.25424 0
M  V30 16053 C 1554.28 -2.56964 -3.61226 0
M  V30 16054 H 1551.5 -0.503805 -0.443195 0
M  V30 16055 H 1554.04 -1.88078 -0.802916 0
M  V30 16056 H 1552.2 -2.06212 -3.27956 0
M  V30 16057 H 1552.61 -4.26427 -3.05386 0
M  V30 16058 H 1554.09 -3.27129 -4.44624 0
M  V30 16059 H 1554.56 -1.61404 -4.08467 0
M  V30 16060 H 1555.17 -2.94325 -3.07006 0
M  V30 16061 N 1553.48 0.89303 -1.29857 0
M  V30 16062 C 1554.71 1.675 -1.20943 0
M  V30 16063 C 1555.12 1.87779 0.231435 0
M  V30 16064 O 1554.46 1.41955 1.16596 0
M  V30 16065 C 1554.53 3.07722 -1.8587 0
M  V30 16066 C 1554.19 3.10647 -3.35182 0
M  V30 16067 C 1555.19 2.903 -4.31303 0
M  V30 16068 C 1552.87 3.32501 -3.76495 0
M  V30 16069 C 1554.87 2.91749 -5.66711 0
M  V30 16070 C 1552.55 3.33581 -5.12022 0
M  V30 16071 C 1553.55 3.13228 -6.06941 0
M  V30 16072 O 1553.24 3.14109 -7.39994 0
M  V30 16073 H 1552.97 0.529708 -0.419982 0
M  V30 16074 H 1555.53 1.12466 -1.71874 0
M  V30 16075 H 1553.76 3.64386 -1.29459 0
M  V30 16076 H 1555.44 3.68035 -1.71187 0
M  V30 16077 H 1556.21 2.73221 -4.00718 0
M  V30 16078 H 1552.09 3.47381 -3.03064 0
M  V30 16079 H 1555.63 2.75782 -6.40773 0
M  V30 16080 H 1551.53 3.50193 -5.4225 0
M  V30 16081 H 1552.3 3.3033 -7.48882 0
M  V30 16082 N 1554.96 1.12442 1.10429 0
M  V30 16083 C 1555.89 0.814745 2.18824 0
M  V30 16084 C 1556.87 -0.221476 1.68652 0
M  V30 16085 O 1558.06 -0.0826537 1.94024 0
M  V30 16086 C 1555.19 0.268632 3.4626 0
M  V30 16087 C 1554.14 1.23792 4.09707 0
M  V30 16088 C 1553.47 0.552034 5.31843 0
M  V30 16089 C 1554.77 2.5926 4.53411 0
M  V30 16090 H 1556.46 1.72111 2.44986 0
M  V30 16091 H 1554.01 0.828968 1.17746 0
M  V30 16092 H 1555.96 0.0397207 4.21381 0
M  V30 16093 H 1554.68 -0.673079 3.19589 0
M  V30 16094 H 1553.34 1.45264 3.36592 0
M  V30 16095 H 1552.99 -0.394821 5.01448 0
M  V30 16096 H 1552.69 1.19861 5.75245 0
M  V30 16097 H 1554.22 0.332161 6.09696 0
M  V30 16098 H 1555.63 2.41816 5.19806 0
M  V30 16099 H 1554.03 3.19997 5.07663 0
M  V30 16100 H 1555.1 3.17699 3.66327 0
M  V30 16101 N 1556.44 -1.28223 0.91633 0
M  V30 16102 C 1557.66 -1.99523 0.566147 0
M  V30 16103 C 1558.09 -1.68 -0.846034 0
M  V30 16104 O 1557.45 -0.913838 -1.56584 0
M  V30 16105 C 1557.5 -3.51949 0.785114 0
M  V30 16106 O 1556.6 -4.1211 -0.154686 0
M  V30 16107 H 1555.94 -0.626764 0.219232 0
M  V30 16108 H 1558.47 -1.63313 1.23247 0
M  V30 16109 H 1558.48 -4.02016 0.696224 0
M  V30 16110 H 1557.16 -3.74227 1.81457 0
M  V30 16111 H 1555.73 -3.72896 -0.0168463 0
M  V30 16112 N 1557.92 -0.68059 -1.42147 0
M  V30 16113 C 1559.33 -0.350691 -1.55699 0
M  V30 16114 C 1559.53 1.1435 -1.6591 0
M  V30 16115 O 1558.59 1.92905 -1.62923 0
M  V30 16116 C 1559.9 -1.08608 -2.80401 0
M  V30 16117 C 1561.45 -1.06897 -2.9418 0
M  V30 16118 C 1561.93 -1.78581 -4.2175 0
M  V30 16119 N 1563.42 -1.75477 -4.28675 0
M  V30 16120 C 1564.15 -2.27794 -5.26211 0
M  V30 16121 N 1563.65 -2.88518 -6.29865 0
M  V30 16122 N 1565.44 -2.18135 -5.18048 0
M  V30 16123 H 1557.59 -1.64988 -1.33763 0
M  V30 16124 H 1559.85 -0.695411 -0.644289 0
M  V30 16125 H 1559.56 -2.14113 -2.79014 0
M  V30 16126 H 1559.43 -0.655022 -3.71469 0
M  V30 16127 H 1561.82 -0.0222464 -2.95092 0
M  V30 16128 H 1561.9 -1.53897 -2.04327 0
M  V30 16129 H 1561.55 -2.83225 -4.21599 0
M  V30 16130 H 1561.48 -1.29027 -5.10548 0
M  V30 16131 H 1563.97 -1.31191 -3.54397 0
M  V30 16132 H 1564.28 -3.26043 -7.00654 0
M  V30 16133 H 1562.63 -2.92589 -6.3041 0
M  V30 16134 H 1565.82 -1.7038 -4.35991 0
M  V30 16135 H 1565.99 -2.59213 -5.93896 0
M  V30 16136 N 1559.4 1.51781 -0.424309 0
M  V30 16137 C 1560.67 1.94514 0.205791 0
M  V30 16138 C 1561.05 1.36219 1.61269 0
M  V30 16139 O 1560.4 0.544019 2.21929 0
M  V30 16140 C 1560.61 3.48445 0.196749 0
M  V30 16141 C 1561.96 4.22628 0.408702 0
M  V30 16142 O 1562.98 3.55133 0.275441 0
M  V30 16143 O 1561.84 5.42344 0.672698 0
M  V30 16144 H 1558.94 0.815576 0.136983 0
M  V30 16145 H 1561.48 1.6273 -0.481349 0
M  V30 16146 H 1560.25 3.83297 -0.787342 0
M  V30 16147 H 1559.88 3.86634 0.92735 0
M  V30 16148 N 1560.87 0.155222 1.56834 0
M  V30 16149 C 1562.12 -0.488126 1.97456 0
M  V30 16150 C 1562.47 -1.61935 1.03898 0
M  V30 16151 O 1561.77 -1.91451 0.0755621 0
M  V30 16152 C 1561.96 -1.03346 3.42132 0
M  V30 16153 C 1561.79 0.0434014 4.49679 0
M  V30 16154 C 1560.56 0.487619 5.02942 0
M  V30 16155 C 1562.76 0.837907 5.07428 0
M  V30 16156 N 1560.74 1.54646 5.94102 0
M  V30 16157 C 1562.11 1.74705 5.94877 0
M  V30 16158 C 1564.17 0.884781 4.89976 0
M  V30 16159 C 1562.87 2.69907 6.6674 0
M  V30 16160 C 1564.9 1.82467 5.62548 0
M  V30 16161 C 1564.26 2.72132 6.4971 0
M  V30 16162 H 1560.36 -0.147187 0.768023 0
M  V30 16163 H 1562.94 0.251725 1.93066 0
M  V30 16164 H 1561.11 -1.74288 3.471 0
M  V30 16165 H 1562.84 -1.6441 3.69799 0
M  V30 16166 H 1559.6 0.0883276 4.73518 0
M  V30 16167 H 1560.02 2.07589 6.44388 0
M  V30 16168 H 1564.66 0.205617 4.223 0
M  V30 16169 H 1562.38 3.3882 7.33639 0
M  V30 16170 H 1565.97 1.86684 5.51036 0
M  V30 16171 H 1564.85 3.43676 7.0488 0
M  V30 16172 N 1562.35 -1.57153 -0.118549 0
M  V30 16173 C 1563.31 -1.99438 -1.12947 0
M  V30 16174 C 1564.31 -0.884588 -1.34282 0
M  V30 16175 O 1565.5 -1.15062 -1.30792 0
M  V30 16176 C 1562.64 -2.33492 -2.48384 0
M  V30 16177 H 1563.83 -2.89952 -0.766034 0
M  V30 16178 H 1561.38 -1.5203 -0.362858 0
M  V30 16179 H 1562.12 -1.45859 -2.89647 0
M  V30 16180 H 1561.9 -3.14433 -2.34252 0
M  V30 16181 H 1563.39 -2.66945 -3.21139 0
M  V30 16182 N 1563.83 0.388742 -1.5273 0
M  V30 16183 C 1565.25 0.728828 -1.41987 0
M  V30 16184 C 1565.45 1.94116 -0.540493 0
M  V30 16185 O 1564.5 2.52496 -0.0140397 0
M  V30 16186 C 1565.81 0.963683 -2.8484 0
M  V30 16187 C 1567.36 1.06514 -2.94319 0
M  V30 16188 C 1567.84 1.33262 -4.38184 0
M  V30 16189 N 1569.33 1.40083 -4.4151 0
M  V30 16190 C 1570.06 1.62446 -5.49908 0
M  V30 16191 N 1569.56 1.82277 -6.68391 0
M  V30 16192 N 1571.35 1.64627 -5.37452 0
M  V30 16193 H 1563.5 -0.408984 -2.08425 0
M  V30 16194 H 1565.77 -0.120791 -0.940273 0
M  V30 16195 H 1565.47 0.144986 -3.51401 0
M  V30 16196 H 1565.35 1.87828 -3.27109 0
M  V30 16197 H 1567.73 1.8744 -2.27926 0
M  V30 16198 H 1567.81 0.12845 -2.55477 0
M  V30 16199 H 1567.46 0.528457 -5.05143 0
M  V30 16200 H 1567.39 2.28216 -4.74579 0
M  V30 16201 H 1569.88 1.26465 -3.56111 0
M  V30 16202 H 1570.19 1.98848 -7.46779 0
M  V30 16203 H 1568.54 1.79501 -6.7142 0
M  V30 16204 H 1571.73 1.48686 -4.43858 0
M  V30 16205 H 1571.9 1.81715 -6.22 0
M  V30 16206 N 1565.31 1.43698 0.647203 0
M  V30 16207 C 1566.58 1.3611 1.40476 0
M  V30 16208 C 1566.96 0.0118567 2.11097 0
M  V30 16209 O 1566.31 -1.00496 2.05214 0
M  V30 16210 C 1566.52 2.5484 2.38448 0
M  V30 16211 C 1567.87 2.98195 3.02267 0
M  V30 16212 O 1568.89 2.5493 2.48775 0
M  V30 16213 O 1567.75 3.73162 3.99265 0
M  V30 16214 H 1564.85 0.538198 0.62791 0
M  V30 16215 H 1567.39 1.55758 0.673606 0
M  V30 16216 H 1566.17 3.4467 1.85253 0
M  V30 16217 H 1565.79 2.37323 3.19004 0
M  V30 16218 N 1566.79 -0.886131 1.30328 0
M  V30 16219 C 1568.03 -1.64032 1.20271 0
M  V30 16220 C 1568.39 -1.90891 -0.240498 0
M  V30 16221 O 1567.68 -1.51793 -1.16916 0
M  V30 16222 C 1567.87 -2.98624 1.96364 0
M  V30 16223 C 1567.7 -2.84904 3.47936 0
M  V30 16224 C 1566.47 -2.84948 4.17292 0
M  V30 16225 C 1568.67 -2.60937 4.43189 0
M  V30 16226 N 1566.65 -2.62108 5.55133 0
M  V30 16227 C 1568.02 -2.47208 5.68584 0
M  V30 16228 C 1570.08 -2.46153 4.32797 0
M  V30 16229 C 1568.78 -2.20198 6.84767 0
M  V30 16230 C 1570.81 -2.20528 5.48745 0
M  V30 16231 C 1570.17 -2.07574 6.73121 0
M  V30 16232 H 1566.27 -0.605263 0.495158 0
M  V30 16233 H 1568.85 -1.0443 1.64324 0
M  V30 16234 H 1567.02 -3.5626 1.54703 0
M  V30 16235 H 1568.76 -3.63228 1.78458 0
M  V30 16236 H 1565.51 -2.96736 3.69114 0
M  V30 16237 H 1565.94 -2.53703 6.27665 0
M  V30 16238 H 1570.58 -2.54904 3.37319 0
M  V30 16239 H 1568.3 -2.10185 7.80287 0
M  V30 16240 H 1571.88 -2.09912 5.42612 0
M  V30 16241 H 1570.76 -1.88023 7.61326 0
M  V30 16242 N 1568.26 -1.13026 -1.09832 0
M  V30 16243 C 1569.51 -0.887662 -1.81563 0
M  V30 16244 C 1569.83 0.587935 -1.85926 0
M  V30 16245 O 1569.1 1.42732 -1.3418 0
M  V30 16246 H 1567.68 -0.32541 -0.672397 0
M  V30 16247 H 1570.35 -1.42597 -1.32861 0
M  V30 16248 H 1569.44 -1.2747 -2.84882 0
M  V30 16249 N 1569.74 1.27735 -0.923117 0
M  V30 16250 C 1570.97 1.9922 -0.57672 0
M  V30 16251 C 1571.39 1.68446 0.837113 0
M  V30 16252 O 1570.75 0.922129 1.56098 0
M  V30 16253 C 1570.8 3.51528 -0.803768 0
M  V30 16254 O 1569.9 4.12186 0.132829 0
M  V30 16255 H 1569.24 0.625593 -0.222553 0
M  V30 16256 H 1571.77 1.62657 -1.24112 0
M  V30 16257 H 1571.78 4.01641 -0.717534 0
M  V30 16258 H 1570.46 3.7326 -1.83439 0
M  V30 16259 H 1569.04 3.729 -0.00292957 0
M  V30 16260 N 1571.22 0.688118 1.41784 0
M  V30 16261 C 1572.15 0.0323199 2.33478 0
M  V30 16262 C 1573.13 -0.775145 1.51412 0
M  V30 16263 O 1574.32 -0.72962 1.79973 0
M  V30 16264 C 1571.45 -0.910141 3.35162 0
M  V30 16265 C 1570.4 -0.210312 4.27483 0
M  V30 16266 C 1569.73 -1.26662 5.19481 0
M  V30 16267 C 1571.03 0.918839 5.14154 0
M  V30 16268 H 1572.72 0.798138 2.88566 0
M  V30 16269 H 1570.27 0.385262 1.38751 0
M  V30 16270 H 1572.22 -1.3781 3.98229 0
M  V30 16271 H 1570.94 -1.70754 2.78408 0
M  V30 16272 H 1569.6 0.237544 3.6583 0
M  V30 16273 H 1569.25 -2.05635 4.59046 0
M  V30 16274 H 1568.95 -0.803416 5.82082 0
M  V30 16275 H 1570.47 -1.73524 5.85424 0
M  V30 16276 H 1571.89 0.531499 5.70831 0
M  V30 16277 H 1570.29 1.30867 5.85657 0
M  V30 16278 H 1571.36 1.7618 4.51762 0
M  V30 16279 N 1572.7 -1.51554 0.432352 0
M  V30 16280 C 1574.11 -1.59377 0.0843863 0
M  V30 16281 C 1574.31 -1.44364 -1.40575 0
M  V30 16282 O 1573.37 -1.28234 -2.17514 0
M  V30 16283 C 1574.68 -2.94652 0.600046 0
M  V30 16284 C 1576.23 -3.07949 0.560049 0
M  V30 16285 C 1576.71 -4.4574 1.0526 0
M  V30 16286 N 1578.2 -4.52046 1.01038 0
M  V30 16287 C 1578.93 -5.56979 1.36242 0
M  V30 16288 N 1578.43 -6.69355 1.78707 0
M  V30 16289 N 1580.22 -5.47311 1.2809 0
M  V30 16290 H 1572.37 -1.59558 1.40197 0
M  V30 16291 H 1574.64 -0.751868 0.577406 0
M  V30 16292 H 1574.34 -3.10993 1.64245 0
M  V30 16293 H 1574.22 -3.77193 0.0222482 0
M  V30 16294 H 1576.6 -2.91279 -0.473357 0
M  V30 16295 H 1576.68 -2.27259 1.17419 0
M  V30 16296 H 1576.33 -4.63156 2.08445 0
M  V30 16297 H 1576.26 -5.24962 0.415047 0
M  V30 16298 H 1578.75 -3.71389 0.69847 0
M  V30 16299 H 1579.06 -7.45438 2.03819 0
M  V30 16300 H 1577.41 -6.70576 1.82629 0
M  V30 16301 H 1580.6 -4.58403 0.947848 0
M  V30 16302 H 1580.77 -6.28978 1.55855 0
M  V30 16303 N 1574.18 -0.163538 -1.56749 0
M  V30 16304 C 1575.12 0.769787 -2.17584 0
M  V30 16305 C 1576.09 1.23246 -1.11354 0
M  V30 16306 O 1577.28 1.30203 -1.3947 0
M  V30 16307 C 1574.42 1.99685 -2.81461 0
M  V30 16308 C 1573.53 1.57846 -4.0213 0
M  V30 16309 C 1572.67 2.75858 -4.53955 0
M  V30 16310 C 1571.71 2.30473 -5.67053 0
M  V30 16311 N 1570.84 3.41551 -6.13423 0
M  V30 16312 H 1575.68 0.244221 -2.96998 0
M  V30 16313 H 1573.22 0.108821 -1.46697 0
M  V30 16314 H 1575.18 2.71643 -3.16648 0
M  V30 16315 H 1573.81 2.49624 -2.04664 0
M  V30 16316 H 1572.86 0.755907 -3.72814 0
M  V30 16317 H 1574.17 1.20525 -4.8402 0
M  V30 16318 H 1573.33 3.55984 -4.91284 0
M  V30 16319 H 1572.06 3.16434 -3.71107 0
M  V30 16320 H 1571.07 1.48791 -5.29284 0
M  V30 16321 H 1572.29 1.90964 -6.51698 0
M  V30 16322 H 1570.24 3.81717 -5.33506 0
M  V30 16323 H 1570.16 3.08298 -6.90281 0
M  V30 16324 H 1571.43 4.21985 -6.554 0
M  V30 16325 N 1575.65 1.57214 0.110213 0
M  V30 16326 C 1576.9 1.85312 0.816439 0
M  V30 16327 C 1577.23 0.749901 1.79462 0
M  V30 16328 O 1576.48 -0.257948 1.93993 0
M  V30 16329 C 1576.78 3.19933 1.59304 0
M  V30 16330 C 1576.45 4.44477 0.75835 0
M  V30 16331 C 1575.11 4.78292 0.528201 0
M  V30 16332 C 1577.46 5.20899 0.177117 0
M  V30 16333 C 1574.79 5.85966 -0.293292 0
M  V30 16334 C 1577.14 6.29439 -0.631615 0
M  V30 16335 C 1575.81 6.6178 -0.871998 0
M  V30 16336 H 1575.08 0.678104 0.298756 0
M  V30 16337 H 1577.72 1.91339 0.0784721 0
M  V30 16338 H 1576.03 3.09522 2.40216 0
M  V30 16339 H 1577.73 3.38897 2.14359 0
M  V30 16340 H 1574.32 4.17988 0.94783 0
M  V30 16341 H 1578.5 4.95119 0.342121 0
M  V30 16342 H 1573.76 6.09444 -0.488665 0
M  V30 16343 H 1577.93 6.87834 -1.08894 0
M  V30 16344 H 1575.56 7.45045 -1.51037 0
M  V30 16345 N 1577.13 -0.380637 1.52934 0
M  V30 16346 C 1578.41 -1.13958 1.58975 0
M  V30 16347 C 1578.79 -2.07503 0.388028 0
M  V30 16348 O 1578.14 -2.19844 -0.622984 0
M  V30 16349 C 1578.35 -1.89192 2.9327 0
M  V30 16350 C 1579.7 -2.44259 3.47308 0
M  V30 16351 O 1580.72 -1.99338 2.95199 0
M  V30 16352 O 1579.58 -3.26338 4.38367 0
M  V30 16353 H 1576.67 -0.521896 0.641525 0
M  V30 16354 H 1579.22 -0.385114 1.65272 0
M  V30 16355 H 1577.99 -1.20834 3.72176 0
M  V30 16356 H 1577.61 -2.71581 2.90395 0
M  V30 16357 N 1578.61 -1.44039 -0.639573 0
M  V30 16358 C 1579.84 -1.49844 -1.42669 0
M  V30 16359 C 1580.25 -0.120599 -1.88414 0
M  V30 16360 O 1579.61 0.871875 -1.60327 0
M  V30 16361 C 1579.66 -2.45597 -2.65263 0
M  V30 16362 O 1579.38 -3.78023 -2.21427 0
M  V30 16363 C 1580.88 -2.60781 -3.5848 0
M  V30 16364 H 1578.1 -0.508477 -0.437826 0
M  V30 16365 H 1580.65 -1.88919 -0.782923 0
M  V30 16366 H 1578.8 -2.09679 -3.2575 0
M  V30 16367 H 1579.22 -4.29642 -3.00846 0
M  V30 16368 H 1580.69 -3.31826 -4.4113 0
M  V30 16369 H 1581.17 -1.65727 -4.06732 0
M  V30 16370 H 1581.77 -2.97565 -3.03867 0
M  V30 16371 N 1580.09 0.879207 -1.30796 0
M  V30 16372 C 1581.02 2.00158 -1.20246 0
M  V30 16373 C 1582 1.69852 -0.091769 0
M  V30 16374 O 1583.18 1.92246 -0.274792 0
M  V30 16375 C 1580.31 3.3545 -0.899472 0
M  V30 16376 C 1579.27 3.80033 -1.96873 0
M  V30 16377 C 1578.59 5.12681 -1.51861 0
M  V30 16378 C 1579.89 3.98136 -3.38061 0
M  V30 16379 H 1581.59 2.09242 -2.14145 0
M  V30 16380 H 1579.13 1.00535 -1.03096 0
M  V30 16381 H 1581.09 4.13497 -0.812299 0
M  V30 16382 H 1579.81 3.26513 0.075189 0
M  V30 16383 H 1578.47 3.04219 -2.04564 0
M  V30 16384 H 1578.12 5.00178 -0.532063 0
M  V30 16385 H 1577.82 5.43482 -2.23386 0
M  V30 16386 H 1579.34 5.93247 -1.44534 0
M  V30 16387 H 1580.76 4.66604 -3.33096 0
M  V30 16388 H 1579.15 4.40321 -4.07722 0
M  V30 16389 H 1580.22 3.01807 -3.79526 0
M  V30 16390 N 1581.57 1.13606 1.09231 0
M  V30 16391 C 1582.81 0.900386 1.81717 0
M  V30 16392 C 1583.15 -0.571984 1.85586 0
M  V30 16393 O 1582.42 -1.42336 1.32554 0
M  V30 16394 C 1582.7 1.49143 3.27763 0
M  V30 16395 C 1582.56 3.03306 3.32153 0
M  V30 16396 C 1583.88 1.16129 4.24502 0
M  V30 16397 H 1581 0.328531 0.659724 0
M  V30 16398 H 1583.64 1.40467 1.27941 0
M  V30 16399 H 1581.79 1.06256 3.73687 0
M  V30 16400 H 1583.46 3.54963 2.94617 0
M  V30 16401 H 1581.7 3.38192 2.71677 0
M  V30 16402 H 1582.37 3.39761 4.35047 0
M  V30 16403 H 1584.85 1.53193 3.86874 0
M  V30 16404 H 1583.73 1.60129 5.25024 0
M  V30 16405 H 1583.99 0.0752973 4.42036 0
M  V30 16406 N 1583.05 -1.27244 0.929878 0
M  V30 16407 C 1584.32 -1.89369 0.489774 0
M  V30 16408 C 1584.7 -1.84142 -1.03222 0
M  V30 16409 O 1584.05 -1.2881 -1.88733 0
M  V30 16410 C 1584.26 -3.33196 1.03833 0
M  V30 16411 C 1585.61 -4.101 1.10013 0
M  V30 16412 O 1586.63 -3.42221 0.988106 0
M  V30 16413 O 1585.49 -5.31468 1.27296 0
M  V30 16414 H 1582.59 -0.811789 0.157882 0
M  V30 16415 H 1585.13 -1.35496 1.02171 0
M  V30 16416 H 1583.9 -3.31304 2.08214 0
M  V30 16417 H 1583.53 -3.94592 0.488167 0
M  V30 16418 N 1584.52 -0.695628 -1.41417 0
M  V30 16419 C 1585.49 -0.0392949 -2.29166 0
M  V30 16420 C 1586.49 0.70789 -1.4438 0
M  V30 16421 O 1587.68 0.542771 -1.65528 0
M  V30 16422 C 1584.81 0.954719 -3.27258 0
M  V30 16423 H 1586 -0.811902 -2.88701 0
M  V30 16424 H 1583.55 -0.459128 -1.49405 0
M  V30 16425 H 1584.29 1.75509 -2.72703 0
M  V30 16426 H 1584.07 0.422079 -3.89822 0
M  V30 16427 H 1585.56 1.41174 -3.93014 0
M  V30 16428 N 1586 1.51322 -0.440383 0
M  V30 16429 C 1587.41 1.86687 0.0220272 0
M  V30 16430 C 1587.76 1.35734 1.41671 0
M  V30 16431 O 1586.89 0.709408 2.04442 0
M  V30 16432 C 1587.48 3.38768 0.0467477 0
M  V30 16433 C 1586.04 3.73657 0.45358 0
M  V30 16434 C 1585.19 2.7506 -0.351779 0
M  V30 16435 H 1588.14 1.44503 -0.65609 0
M  V30 16436 H 1588.16 3.70756 0.855589 0
M  V30 16437 H 1587.67 3.75823 -0.968451 0
M  V30 16438 H 1585.77 3.42193 1.47427 0
M  V30 16439 H 1585.89 4.78776 0.176262 0
M  V30 16440 H 1584.25 2.53988 0.190334 0
M  V30 16441 H 1585.03 3.14957 -1.36591 0
M  V30 16442 N 1587.48 0.171848 1.5666 0
M  V30 16443 C 1588.89 -0.34479 1.83489 0
M  V30 16444 C 1589.24 -1.63025 1.09167 0
M  V30 16445 O 1588.37 -2.13634 0.34488 0
M  V30 16446 C 1588.96 -0.63234 3.32847 0
M  V30 16447 C 1587.52 -1.09342 3.60169 0
M  V30 16448 C 1586.67 -0.129569 2.76997 0
M  V30 16449 H 1589.62 0.396101 1.53677 0
M  V30 16450 H 1589.64 -1.48434 3.50354 0
M  V30 16451 H 1589.15 0.303409 3.86912 0
M  V30 16452 H 1587.25 -2.04425 3.11514 0
M  V30 16453 H 1587.37 -1.00221 4.685 0
M  V30 16454 H 1585.73 -0.627033 2.46861 0
M  V30 16455 H 1586.51 0.800211 3.33844 0
M  V30 16456 N 1588.96 -1.5727 -0.101874 0
M  V30 16457 C 1589.92 -2.00625 -1.10826 0
M  V30 16458 C 1590.92 -0.89878 -1.33336 0
M  V30 16459 O 1592.11 -1.16442 -1.29564 0
M  V30 16460 C 1589.24 -2.36113 -2.45893 0
M  V30 16461 H 1590.44 -2.90748 -0.735238 0
M  V30 16462 H 1587.99 -1.52406 -0.346713 0
M  V30 16463 H 1588.72 -1.48923 -2.88084 0
M  V30 16464 H 1588.51 -3.169 -2.30904 0
M  V30 16465 H 1590 -2.70336 -3.1829 0
M  V30 16466 N 1590.44 0.372521 -1.53134 0
M  V30 16467 C 1591.37 1.4759 -1.75357 0
M  V30 16468 C 1592.38 1.49938 -0.634223 0
M  V30 16469 O 1593.57 1.53543 -0.910322 0
M  V30 16470 C 1590.67 2.86382 -1.81214 0
M  V30 16471 C 1589.84 3.0781 -3.1076 0
M  V30 16472 C 1588.9 4.26677 -3.07949 0
M  V30 16473 O 1587.93 4.22186 -3.81769 0
M  V30 16474 N 1589.13 5.33729 -2.28283 0
M  V30 16475 H 1591.89 1.28908 -2.7056 0
M  V30 16476 H 1589.46 0.562186 -1.51826 0
M  V30 16477 H 1591.45 3.64029 -1.7682 0
M  V30 16478 H 1590.02 2.98344 -0.933249 0
M  V30 16479 H 1589.24 2.17884 -3.28512 0
M  V30 16480 H 1590.53 3.18991 -3.96386 0
M  V30 16481 H 1589.92 5.40238 -1.67806 0
M  V30 16482 H 1588.48 6.09979 -2.29714 0
M  V30 16483 N 1591.91 1.44376 0.631925 0
M  V30 16484 C 1592.84 1.54005 1.75512 0
M  V30 16485 C 1593.82 0.393126 1.65495 0
M  V30 16486 O 1595.01 0.613143 1.84267 0
M  V30 16487 C 1592.14 1.48313 3.14039 0
M  V30 16488 C 1591.09 2.61474 3.38844 0
M  V30 16489 C 1590.42 2.40834 4.77392 0
M  V30 16490 C 1591.72 4.03627 3.31485 0
M  V30 16491 H 1593.41 2.48019 1.6771 0
M  V30 16492 H 1590.96 1.19368 0.80543 0
M  V30 16493 H 1592.91 1.5365 3.9239 0
M  V30 16494 H 1591.64 0.508152 3.22623 0
M  V30 16495 H 1590.3 2.55525 2.62874 0
M  V30 16496 H 1589.94 1.4153 4.82678 0
M  V30 16497 H 1589.64 3.16703 4.94947 0
M  V30 16498 H 1591.17 2.47988 5.57974 0
M  V30 16499 H 1592.58 4.1095 3.99741 0
M  V30 16500 H 1590.98 4.79694 3.60574 0
M  V30 16501 H 1592.05 4.27255 2.29307 0
M  V30 16502 N 1593.39 -0.872258 1.31261 0
M  V30 16503 C 1594.3 -2.01185 1.20673 0
M  V30 16504 C 1595.32 -1.73558 0.123921 0
M  V30 16505 O 1596.49 -1.98487 0.341288 0
M  V30 16506 C 1593.56 -3.34481 0.91232 0
M  V30 16507 C 1592.62 -3.75446 2.08179 0
M  V30 16508 C 1591.85 -5.02382 1.80134 0
M  V30 16509 O 1592.08 -5.6564 0.735358 0
M  V30 16510 O 1591.01 -5.40059 2.65744 0
M  V30 16511 H 1594.84 -2.13049 2.16434 0
M  V30 16512 H 1592.42 -1.00021 1.10978 0
M  V30 16513 H 1594.3 -4.14419 0.763879 0
M  V30 16514 H 1592.98 -3.23696 -0.0152802 0
M  V30 16515 H 1591.88 -2.96159 2.28562 0
M  V30 16516 H 1593.22 -3.90853 2.99156 0
M  V30 16517 N 1594.87 -1.14184 -1.08627 0
M  V30 16518 C 1595.8 -0.849455 -2.17501 0
M  V30 16519 C 1596.78 0.194617 -1.68983 0
M  V30 16520 O 1597.97 0.0517757 -1.94131 0
M  V30 16521 C 1595.1 -0.323685 -3.45788 0
M  V30 16522 C 1594.05 -1.30294 -4.07685 0
M  V30 16523 C 1593.38 -0.636575 -5.30897 0
M  V30 16524 C 1594.68 -2.66441 -4.49229 0
M  V30 16525 H 1596.37 -1.75987 -2.42217 0
M  V30 16526 H 1593.92 -0.847595 -1.16412 0
M  V30 16527 H 1595.87 -0.106754 -4.21265 0
M  V30 16528 H 1594.59 0.62215 -3.20619 0
M  V30 16529 H 1593.25 -1.50601 -3.34238 0
M  V30 16530 H 1592.9 0.314995 -5.02013 0
M  V30 16531 H 1592.6 -1.28998 -5.73266 0
M  V30 16532 H 1594.12 -0.429117 -6.0909 0
M  V30 16533 H 1595.54 -2.50055 -5.15893 0
M  V30 16534 H 1593.93 -3.28033 -5.02508 0
M  V30 16535 H 1595 -3.23486 -3.61226 0
M  V30 16536 N 1596.35 1.26749 -0.936613 0
M  V30 16537 C 1597.6 1.9358 -0.580605 0
M  V30 16538 C 1597.92 1.7389 0.882446 0
M  V30 16539 O 1597.19 1.09185 1.62652 0
M  V30 16540 H 1595.77 0.716363 -0.211739 0
M  V30 16541 H 1598.43 1.54281 -1.19095 0
M  V30 16542 H 1597.53 3.01819 -0.79448 0
M  V30 16543 N 1597.83 0.703118 1.41046 0
M  V30 16544 C 1599.05 0.246552 2.05426 0
M  V30 16545 C 1599.47 -1.10704 1.52938 0
M  V30 16546 O 1598.83 -1.69329 0.680733 0
M  V30 16547 C 1598.88 0.203953 3.60924 0
M  V30 16548 O 1598.6 1.50408 4.11472 0
M  V30 16549 C 1600.1 -0.272686 4.42461 0
M  V30 16550 H 1597.32 0.113157 0.66139 0
M  V30 16551 H 1599.86 0.957823 1.80682 0
M  V30 16552 H 1598.02 -0.458194 3.84681 0
M  V30 16553 H 1598.43 1.39622 5.05575 0
M  V30 16554 H 1599.91 -0.251357 5.51427 0
M  V30 16555 H 1600.38 -1.31282 4.1912 0
M  V30 16556 H 1600.99 0.358733 4.23784 0
M  V30 16557 N 1599.3 -1.51086 0.448402 0
M  V30 16558 C 1600.27 -2.26575 -0.3459 0
M  V30 16559 C 1601.27 -1.3045 -0.940178 0
M  V30 16560 O 1602.46 -1.5407 -0.812898 0
M  V30 16561 C 1599.59 -3.06591 -1.49045 0
M  V30 16562 H 1600.78 -2.98232 0.315822 0
M  V30 16563 H 1598.34 -1.54991 0.201851 0
M  V30 16564 H 1599.07 -2.39377 -2.1879 0
M  V30 16565 H 1598.86 -3.77207 -1.07038 0
M  V30 16566 H 1600.35 -3.63743 -2.05135 0
M  V30 16567 N 1600.78 -0.180154 -1.56567 0
M  V30 16568 C 1602.01 0.46854 -2.01525 0
M  V30 16569 C 1602.43 1.56211 -1.06036 0
M  V30 16570 O 1601.78 1.82392 -0.06269 0
M  V30 16571 C 1601.83 1.0387 -3.46256 0
M  V30 16572 O 1601.55 -0.0112203 -4.38099 0
M  V30 16573 C 1603.06 1.76475 -4.06659 0
M  V30 16574 H 1600.28 0.119098 -0.660346 0
M  V30 16575 H 1602.82 -0.284477 -2.02512 0
M  V30 16576 H 1600.97 1.74217 -3.46016 0
M  V30 16577 H 1601.39 0.41099 -5.22887 0
M  V30 16578 H 1602.86 2.11618 -5.09825 0
M  V30 16579 H 1603.34 2.66301 -3.49257 0
M  V30 16580 H 1603.95 1.10749 -4.10627 0
M  V30 16581 N 1602.26 1.57322 0.0935319 0
M  V30 16582 C 1603.68 1.5319 0.447781 0
M  V30 16583 C 1603.88 0.897107 1.80428 0
M  V30 16584 O 1602.93 0.490285 2.47694 0
M  V30 16585 C 1604.25 2.97908 0.408832 0
M  V30 16586 C 1605.79 3.09132 0.490576 0
M  V30 16587 C 1606.27 4.55459 0.481759 0
M  V30 16588 N 1607.76 4.60013 0.542468 0
M  V30 16589 C 1608.49 5.70683 0.557509 0
M  V30 16590 N 1607.99 6.9078 0.528664 0
M  V30 16591 N 1609.78 5.58862 0.602438 0
M  V30 16592 H 1601.93 1.96962 -0.794965 0
M  V30 16593 H 1604.2 0.900583 -0.296064 0
M  V30 16594 H 1603.9 3.47823 -0.520766 0
M  V30 16595 H 1603.78 3.56678 1.22722 0
M  V30 16596 H 1606.16 2.59203 1.41059 0
M  V30 16597 H 1606.25 2.53311 -0.355982 0
M  V30 16598 H 1605.89 5.0604 -0.43432 0
M  V30 16599 H 1605.82 5.09119 1.34555 0
M  V30 16600 H 1608.31 3.73578 0.569892 0
M  V30 16601 H 1608.62 7.70887 0.543467 0
M  V30 16602 H 1606.97 6.9323 0.495687 0
M  V30 16603 H 1610.16 4.63942 0.622514 0
M  V30 16604 H 1610.33 6.45116 0.610691 0
M  V30 16605 N 1603.74 -0.364395 1.53329 0
M  V30 16606 C 1604.96 -1.13196 1.73786 0
M  V30 16607 C 1605.39 -1.82231 0.466224 0
M  V30 16608 O 1604.75 -1.71778 -0.579817 0
M  V30 16609 C 1604.79 -2.13704 2.90453 0
M  V30 16610 O 1603.9 -3.20808 2.59144 0
M  V30 16611 H 1603.24 -0.328387 0.577112 0
M  V30 16612 H 1605.77 -0.421157 2.00218 0
M  V30 16613 H 1605.78 -2.57285 3.16652 0
M  V30 16614 H 1604.45 -1.6285 3.82691 0
M  V30 16615 H 1603.03 -2.82192 2.43767 0
M  V30 16616 N 1605.22 -1.44709 -0.62426 0
M  V30 16617 C 1606.46 -1.47561 -1.38094 0
M  V30 16618 C 1606.79 -0.112115 -1.94677 0
M  V30 16619 O 1606.06 0.856458 -1.76186 0
M  V30 16620 H 1604.64 -0.543368 -0.512601 0
M  V30 16621 H 1607.3 -1.8054 -0.734258 0
M  V30 16622 H 1606.39 -2.20496 -2.2088 0
M  V30 16623 N 1606.69 0.865285 -1.31722 0
M  V30 16624 C 1607.62 1.98871 -1.22362 0
M  V30 16625 C 1608.61 1.69745 -0.109779 0
M  V30 16626 O 1609.79 1.91944 -0.295167 0
M  V30 16627 C 1606.92 3.34477 -0.935 0
M  V30 16628 C 1605.87 3.77924 -2.00892 0
M  V30 16629 C 1605.2 5.11042 -1.57291 0
M  V30 16630 C 1606.5 3.94528 -3.42264 0
M  V30 16631 H 1608.19 2.06959 -2.16352 0
M  V30 16632 H 1605.74 0.994355 -1.04157 0
M  V30 16633 H 1607.69 4.12612 -0.856111 0
M  V30 16634 H 1606.42 3.26575 0.0405536 0
M  V30 16635 H 1605.08 3.02032 -2.07779 0
M  V30 16636 H 1604.72 4.99586 -0.585084 0
M  V30 16637 H 1604.42 5.41082 -2.29138 0
M  V30 16638 H 1605.95 5.91681 -1.50818 0
M  V30 16639 H 1607.36 4.63045 -3.38027 0
M  V30 16640 H 1605.76 4.35972 -4.12369 0
M  V30 16641 H 1606.83 2.97765 -3.82706 0
M  V30 16642 N 1608.17 1.14759 1.0802 0
M  V30 16643 C 1609.42 0.929574 1.80916 0
M  V30 16644 C 1609.77 -0.53792 1.84727 0
M  V30 16645 O 1609.07 -1.39348 1.31501 0
M  V30 16646 C 1609.26 1.4692 3.25805 0
M  V30 16647 C 1609.09 2.98763 3.36111 0
M  V30 16648 C 1607.86 3.67248 3.47069 0
M  V30 16649 C 1610.06 3.966 3.27433 0
M  V30 16650 N 1608.04 5.06965 3.46207 0
M  V30 16651 C 1609.41 5.22594 3.33609 0
M  V30 16652 C 1611.47 3.88665 3.11197 0
M  V30 16653 C 1610.17 6.41579 3.25221 0
M  V30 16654 C 1612.19 5.07201 3.0414 0
M  V30 16655 C 1611.56 6.32066 3.10921 0
M  V30 16656 H 1607.66 0.393733 0.675647 0
M  V30 16657 H 1610.24 1.45842 1.2899 0
M  V30 16658 H 1608.41 0.967084 3.76168 0
M  V30 16659 H 1610.14 1.19071 3.86787 0
M  V30 16660 H 1606.9 3.17815 3.51128 0
M  V30 16661 H 1607.32 5.79917 3.49322 0
M  V30 16662 H 1611.96 2.93 3.04813 0
M  V30 16663 H 1609.68 7.37485 3.30365 0
M  V30 16664 H 1613.27 5.02815 2.92691 0
M  V30 16665 H 1612.15 7.22248 3.05495 0
M  V30 16666 N 1609.65 -1.26251 0.943322 0
M  V30 16667 C 1610.88 -1.98278 0.608341 0
M  V30 16668 C 1611.3 -1.69756 -0.810208 0
M  V30 16669 O 1610.66 -0.946846 -1.54611 0
M  V30 16670 C 1610.71 -3.50205 0.859591 0
M  V30 16671 O 1609.81 -4.12345 -0.0672371 0
M  V30 16672 H 1609.15 -0.621973 0.232477 0
M  V30 16673 H 1611.68 -1.60662 1.26684 0
M  V30 16674 H 1611.69 -4.00449 0.781341 0
M  V30 16675 H 1610.37 -3.70294 1.89354 0
M  V30 16676 H 1608.94 -3.72848 0.0622543 0
M  V30 16677 N 1611.13 -0.710588 -1.40671 0
M  V30 16678 C 1612.54 -0.320926 -1.83921 0
M  V30 16679 C 1612.89 1.14358 -1.59426 0
M  V30 16680 O 1612.02 1.87952 -1.07252 0
M  V30 16681 C 1612.61 -0.5757 -3.33873 0
M  V30 16682 C 1611.17 -0.239799 -3.75635 0
M  V30 16683 C 1610.32 -0.850552 -2.63934 0
M  V30 16684 H 1613.27 -0.910118 -1.3001 0
M  V30 16685 H 1613.29 0.160707 -3.8016 0
M  V30 16686 H 1612.8 -1.64166 -3.51669 0
M  V30 16687 H 1610.9 0.821297 -3.63436 0
M  V30 16688 H 1611.02 -0.705306 -4.7388 0
M  V30 16689 H 1609.38 -0.278977 -2.53168 0
M  V30 16690 H 1610.16 -1.92068 -2.84543 0
M  V30 16691 N 1612.61 1.50847 -0.456408 0
M  V30 16692 C 1613.86 2.01835 0.103414 0
M  V30 16693 C 1614.18 1.34142 1.4153 0
M  V30 16694 O 1613.45 0.482015 1.89877 0
M  V30 16695 H 1612.03 0.745863 0.0412074 0
M  V30 16696 H 1614.69 1.85322 -0.603477 0
M  V30 16697 H 1613.78 3.10968 0.265562 0
M  V30 16698 N 1614.09 0.188454 1.56469 0
M  V30 16699 C 1615.03 -0.735074 2.18781 0
M  V30 16700 C 1616 -1.21459 1.133 0
M  V30 16701 O 1617.19 -1.27967 1.41524 0
M  V30 16702 C 1614.33 -1.95181 2.84602 0
M  V30 16703 C 1613.44 -1.51428 4.0459 0
M  V30 16704 C 1612.58 -2.68601 4.58287 0
M  V30 16705 C 1611.61 -2.21422 5.70648 0
M  V30 16706 N 1610.75 -3.31749 6.18779 0
M  V30 16707 H 1615.59 -0.19694 2.97349 0
M  V30 16708 H 1613.13 -0.0854693 1.46851 0
M  V30 16709 H 1615.09 -2.66571 3.2093 0
M  V30 16710 H 1613.72 -2.46337 2.0861 0
M  V30 16711 H 1612.77 -0.6965 3.73969 0
M  V30 16712 H 1614.08 -1.1281 4.85876 0
M  V30 16713 H 1613.23 -3.48123 4.96885 0
M  V30 16714 H 1611.97 -3.1049 3.76095 0
M  V30 16715 H 1610.98 -1.40352 5.31584 0
M  V30 16716 H 1612.2 -1.80572 6.54653 0
M  V30 16717 H 1610.15 -3.73181 5.39511 0
M  V30 16718 H 1610.07 -2.97277 6.95099 0
M  V30 16719 H 1611.33 -4.11504 6.62031 0
M  V30 16720 N 1615.56 -1.5737 -0.0851874 0
M  V30 16721 C 1616.81 -1.85772 -0.785604 0
M  V30 16722 C 1617.13 -0.779172 -1.79411 0
M  V30 16723 O 1618.33 -0.950621 -2.54314 0
M  V30 16724 C 1616.79 -3.29484 -1.44805 0
M  V30 16725 C 1616.4 -4.45434 -0.478799 0
M  V30 16726 C 1618.14 -3.671 -2.13161 0
M  V30 16727 C 1616.05 -5.80183 -1.1464 0
M  V30 16728 H 1614.98 -0.69298 -0.297145 0
M  V30 16729 H 1617.63 -1.83459 -0.0386776 0
M  V30 16730 H 1616.01 -3.26367 -2.24278 0
M  V30 16731 H 1617.18 -4.59917 0.285148 0
M  V30 16732 H 1615.5 -4.16281 0.0995964 0
M  V30 16733 H 1618.1 -4.65061 -2.6386 0
M  V30 16734 H 1618.44 -2.96223 -2.92503 0
M  V30 16735 H 1618.97 -3.72148 -1.40536 0
M  V30 16736 H 1615.71 -6.54317 -0.393583 0
M  V30 16737 H 1615.23 -5.69525 -1.88153 0
M  V30 16738 H 1616.91 -6.25074 -1.67006 0
M  V30 16739 N 1617.04 0.356258 -1.53521 0
M  V30 16740 C 1618.46 0.698546 -1.43501 0
M  V30 16741 C 1618.66 1.92926 -0.581547 0
M  V30 16742 O 1617.71 2.5241 -0.0675947 0
M  V30 16743 C 1619.03 0.903047 -2.8682 0
M  V30 16744 C 1620.57 1.00247 -2.96512 0
M  V30 16745 C 1621.05 1.23938 -4.40912 0
M  V30 16746 N 1622.54 1.30687 -4.44382 0
M  V30 16747 C 1623.28 1.50745 -5.5323 0
M  V30 16748 N 1622.77 1.68058 -6.72107 0
M  V30 16749 N 1624.56 1.5319 -5.40823 0
M  V30 16750 H 1616.72 -0.453102 -2.07511 0
M  V30 16751 H 1618.98 -0.140708 -0.937499 0
M  V30 16752 H 1618.68 0.070416 -3.5163 0
M  V30 16753 H 1618.56 1.80847 -3.3102 0
M  V30 16754 H 1620.95 1.82564 -2.3185 0
M  V30 16755 H 1621.03 0.0742303 -2.55692 0
M  V30 16756 H 1620.67 0.421189 -5.06151 0
M  V30 16757 H 1620.6 2.18098 -4.79313 0
M  V30 16758 H 1623.09 1.18883 -3.58713 0
M  V30 16759 H 1623.4 1.82963 -7.50829 0
M  V30 16760 H 1621.75 1.65219 -6.75076 0
M  V30 16761 H 1624.94 1.39237 -4.46912 0
M  V30 16762 H 1625.11 1.6848 -6.25714 0
M  V30 16763 N 1618.52 1.45038 0.616577 0
M  V30 16764 C 1619.77 1.47861 1.37186 0
M  V30 16765 C 1620.08 0.120862 1.95226 0
M  V30 16766 O 1621.29 0.0266872 2.71487 0
M  V30 16767 C 1619.74 2.6038 2.48455 0
M  V30 16768 C 1619.35 4.02428 1.96866 0
M  V30 16769 C 1621.1 2.7244 3.25541 0
M  V30 16770 C 1619 5.06345 3.05563 0
M  V30 16771 H 1617.93 0.550166 0.51559 0
M  V30 16772 H 1620.58 1.71151 0.661796 0
M  V30 16773 H 1618.97 2.30357 3.22105 0
M  V30 16774 H 1620.14 4.42087 1.29985 0
M  V30 16775 H 1618.45 3.94739 1.32552 0
M  V30 16776 H 1621.05 3.47248 4.06599 0
M  V30 16777 H 1621.39 1.7876 3.75966 0
M  V30 16778 H 1621.93 3.01944 2.58988 0
M  V30 16779 H 1618.67 6.01703 2.60065 0
M  V30 16780 H 1618.19 4.71264 3.7104 0
M  V30 16781 H 1619.87 5.30695 3.70097 0
M  V30 16782 N 1620 -0.858287 1.32179 0
M  V30 16783 C 1621.25 -1.60902 1.2229 0
M  V30 16784 C 1621.57 -1.93797 -0.216227 0
M  V30 16785 O 1620.84 -1.59312 -1.14002 0
M  V30 16786 H 1619.42 -0.596529 0.449624 0
M  V30 16787 H 1622.08 -1.02686 1.65655 0
M  V30 16788 H 1621.17 -2.54755 1.80295 0
M  V30 16789 N 1621.48 -1.1533 -1.07409 0
M  V30 16790 C 1622.89 -0.937287 -1.61468 0
M  V30 16791 C 1623.24 0.521545 -1.89141 0
M  V30 16792 O 1622.36 1.39253 -1.65643 0
M  V30 16793 C 1622.96 -1.69501 -2.93351 0
M  V30 16794 C 1621.52 -1.52429 -3.44154 0
M  V30 16795 C 1620.66 -1.71098 -2.18222 0
M  V30 16796 H 1623.61 -1.30364 -0.905044 0
M  V30 16797 H 1623.64 -1.16416 -3.62253 0
M  V30 16798 H 1623.15 -2.75672 -2.73178 0
M  V30 16799 H 1621.25 -0.486498 -3.6941 0
M  V30 16800 H 1621.36 -2.30089 -4.20233 0
M  V30 16801 H 1619.73 -1.13745 -2.27891 0
M  V30 16802 H 1620.51 -2.78634 -2.00545 0
M  V30 16803 O 1622.99 1.2005 -1.08029 0
M  V30 16804 H 1623.68 1.77744 -0.769865 0
M  V30 END ATOM
M  V30 BEGIN BOND
M  V30 END BOND
M  V30 END CTAB
M  END
$$$$
