drugbank_target|Q9NRX3 NADH dehydrogenase [ubiquinone] 1 alpha subcomplex subunit 4-like 2 (DB00157)
 OpenBabel12092119293D

  0  0  0     0  0            999 V3000
M  V30 BEGIN CTAB
M  V30 COUNTS 1423 1441 0 0 0
M  V30 BEGIN ATOM
M  V30 1 H -0.908 1.98254 -0.117106 0
M  V30 2 N 0 1.576 0 0
M  V30 3 C 0.933 2.03868 1.02534 0
M  V30 4 C 1.911 0.928543 1.3348 0
M  V30 5 O 3.095 1.19667 1.45644 0
M  V30 6 C 0.222 2.43627 2.35294 0
M  V30 7 C -0.732 3.65373 2.2001 0
M  V30 8 S 0.101 5.13292 1.52614 0
M  V30 9 C 1.257 5.56322 2.86805 0
M  V30 10 H 1.49 2.90518 0.631377 0
M  V30 11 H -0.977 1.52953 0.210867 0
M  V30 12 H 0.981 2.67203 3.11629 0
M  V30 13 H -0.358 1.57376 2.7183 0
M  V30 14 H -1.165 3.90944 3.18086 0
M  V30 15 H -1.563 3.418 1.51819 0
M  V30 16 H 0.729 5.58782 3.83104 0
M  V30 17 H 1.672 6.56266 2.65933 0
M  V30 18 H 2.08 4.83886 2.90714 0
M  V30 19 N 1.4781 -0.272755 1.55222 0
M  V30 20 C 2.4411 -1.32041 1.87344 0
M  V30 21 C 3.4411 -1.42342 0.74803 0
M  V30 22 O 4.6311 -1.41488 1.0162 0
M  V30 23 C 1.7631 -2.70173 2.07893 0
M  V30 24 H 2.9561 -1.04789 2.80997 0
M  V30 25 H 0.5091 -0.51083 1.47717 0
M  V30 26 H 1.2441 -3.02605 1.16622 0
M  V30 27 H 1.0291 -2.64082 2.89833 0
M  V30 28 H 2.5191 -3.45869 2.34017 0
M  V30 29 N 2.9562 -1.48159 -0.537278 0
M  V30 30 C 4.2042 -1.55497 -1.29094 0
M  V30 31 C 4.5252 -0.227454 -1.93669 0
M  V30 32 O 3.7952 0.750386 -1.80959 0
M  V30 33 H 2.3752 -0.572832 -0.47945 0
M  V30 34 H 5.0372 -1.84579 -0.625818 0
M  V30 35 H 4.1332 -2.33216 -2.07405 0
M  V30 36 N 4.4343 0.785586 -1.36625 0
M  V30 37 C 5.3973 1.87999 -1.31107 0
M  V30 38 C 6.3973 1.59316 -0.217959 0
M  V30 39 O 7.5873 1.67656 -0.472977 0
M  V30 40 C 4.7193 3.24861 -1.03334 0
M  V30 41 H 5.9123 1.94307 -2.2844 0
M  V30 42 H 3.4653 0.983813 -1.21453 0
M  V30 43 H 4.2003 3.24235 -0.0647432 0
M  V30 44 H 3.9853 3.4707 -1.82441 0
M  V30 45 H 5.4753 4.04929 -1.02088 0
M  V30 46 N 5.9124 1.20967 1.01018 0
M  V30 47 C 7.1374 1.0503 1.78839 0
M  V30 48 C 7.5624 -0.395752 1.8389 0
M  V30 49 O 6.9204 -1.28529 1.27867 0
M  V30 50 C 6.9684 1.64602 3.2084 0
M  V30 51 O 6.0724 0.887988 4.02726 0
M  V30 52 H 5.4134 0.369987 0.551367 0
M  V30 53 H 7.9434 1.60399 1.27018 0
M  V30 54 H 7.9534 1.68607 3.71532 0
M  V30 55 H 6.6284 2.69841 3.16479 0
M  V30 56 H 5.2054 0.922648 3.61305 0
M  V30 57 N 7.3905 -1.2043 1.01659 0
M  V30 58 C 8.3205 -2.25466 0.607226 0
M  V30 59 C 9.3015 -1.65853 -0.377716 0
M  V30 60 O 10.4865 -1.92409 -0.263149 0
M  V30 61 C 7.6165 -3.47256 -0.0552949 0
M  V30 62 C 6.5705 -4.19462 0.850632 0
M  V30 63 C 5.8965 -5.34673 0.0538859 0
M  V30 64 C 7.1965 -4.75603 2.15868 0
M  V30 65 H 8.8905 -2.59962 1.48526 0
M  V30 66 H 6.4365 -1.2496 0.715605 0
M  V30 67 H 8.3895 -4.19917 -0.353233 0
M  V30 68 H 7.1135 -3.11924 -0.968045 0
M  V30 69 H 5.7725 -3.48667 1.13257 0
M  V30 70 H 5.4205 -4.95585 -0.860514 0
M  V30 71 H 5.1205 -5.83913 0.657192 0
M  V30 72 H 6.6445 -6.10138 -0.237598 0
M  V30 73 H 8.0585 -5.40083 1.92311 0
M  V30 74 H 6.4555 -5.3528 2.71284 0
M  V30 75 H 7.5255 -3.94346 2.82169 0
M  V30 76 N 8.8686 -0.792821 -1.36206 0
M  V30 77 C 10.1166 -0.366062 -1.98757 0
M  V30 78 C 10.4376 1.0668 -1.63231 0
M  V30 79 O 9.7076 1.73587 -0.907978 0
M  V30 80 H 8.2876 -0.132364 -0.735179 0
M  V30 81 H 10.9496 -1.01562 -1.66347 0
M  V30 82 H 10.0456 -0.460638 -3.08682 0
M  V30 83 N 10.3467 1.47872 -0.545128 0
M  V30 84 C 11.3097 2.28337 0.198717 0
M  V30 85 C 12.3097 1.36255 0.853888 0
M  V30 86 O 13.4997 1.59003 0.711606 0
M  V30 87 C 10.6317 3.15585 1.28915 0
M  V30 88 H 11.8247 2.95567 -0.507941 0
M  V30 89 H 9.3777 1.53362 -0.301616 0
M  V30 90 H 10.1127 2.53019 2.02859 0
M  V30 91 H 9.8977 3.83337 0.824309 0
M  V30 92 H 11.3877 3.76243 1.81194 0
M  V30 93 N 11.8248 0.280983 1.55075 0
M  V30 94 C 13.2408 -0.0729964 1.59433 0
M  V30 95 C 13.4408 -1.5411 1.29817 0
M  V30 96 O 12.4968 -2.29086 1.06187 0
M  V30 97 C 13.8098 0.306921 2.9913 0
M  V30 98 C 15.3578 0.254023 3.11968 0
M  V30 99 C 15.8328 0.608467 4.5394 0
M  V30 100 N 17.3238 0.560241 4.59799 0
M  V30 101 C 18.0588 0.80722 5.6769 0
M  V30 102 N 17.5548 1.11912 6.83701 0
M  V30 103 N 19.3478 0.735623 5.57266 0
M  V30 104 H 11.4988 1.238 1.7259 0
M  V30 105 H 13.7618 0.500547 0.805082 0
M  V30 106 H 13.4678 1.32816 3.25657 0
M  V30 107 H 13.3418 -0.349363 3.75579 0
M  V30 108 H 15.7288 -0.75794 2.852 0
M  V30 109 H 15.8098 0.944649 2.37718 0
M  V30 110 H 15.4538 1.61814 4.81434 0
M  V30 111 H 15.3838 -0.104013 5.26497 0
M  V30 112 H 17.8748 0.329288 3.76463 0
M  V30 113 H 18.1878 1.29409 7.61888 0
M  V30 114 H 16.5328 1.15695 6.85303 0
M  V30 115 H 19.7238 0.491752 4.6551 0
M  V30 116 H 19.8968 0.931482 6.4127 0
M  V30 117 N 13.3029 -1.57598 0.00835791 0
M  V30 118 C 14.5499 -1.90928 -0.674732 0
M  V30 119 C 14.8779 -0.88277 -1.73313 0
M  V30 120 O 14.1329 0.111294 -1.95383 0
M  V30 121 C 14.4319 -3.3101 -1.34787 0
M  V30 122 C 14.0979 -4.48922 -0.421861 0
M  V30 123 C 12.7599 -4.8091 -0.166927 0
M  V30 124 C 15.1119 -5.20755 0.215211 0
M  V30 125 C 12.4399 -5.821 0.733232 0
M  V30 126 C 14.7919 -6.22905 1.1033 0
M  V30 127 C 13.4559 -6.53346 1.36733 0
M  V30 128 H 12.7259 -0.698656 -0.246902 0
M  V30 129 H 15.3729 -1.91387 0.0656779 0
M  V30 130 H 13.6779 -3.26714 -2.16253 0
M  V30 131 H 15.3749 -3.54061 -1.8826 0
M  V30 132 H 11.9649 -4.23934 -0.630729 0
M  V30 133 H 16.1489 -4.9629 0.0312829 0
M  V30 134 H 11.4049 -6.04042 0.945712 0
M  V30 135 H 15.5789 -6.77694 1.60325 0
M  V30 136 H 13.2059 -7.31573 2.06652 0
M  V30 137 N 14.781 0.264519 -1.55364 0
M  V30 138 C 16.011 1.01153 -1.80143 0
M  V30 139 C 16.419 1.80115 -0.579253 0
M  V30 140 O 15.762 1.77813 0.46132 0
M  V30 141 C 15.824 2.01098 -2.97993 0
M  V30 142 C 15.488 1.40995 -4.34706 0
M  V30 143 C 16.485 0.821316 -5.13372 0
M  V30 144 C 14.17 1.43461 -4.81378 0
M  V30 145 C 16.164 0.265339 -6.36847 0
M  V30 146 C 13.851 0.874771 -6.04807 0
M  V30 147 C 14.849 0.291146 -6.82379 0
M  V30 148 O 14.537 -0.260093 -8.03479 0
M  V30 149 H 14.269 0.304125 -0.603725 0
M  V30 150 H 16.823 0.298089 -2.03225 0
M  V30 151 H 15.053 2.76224 -2.70623 0
M  V30 152 H 16.742 2.61997 -3.1002 0
M  V30 153 H 17.508 0.794903 -4.78442 0
M  V30 154 H 13.387 1.87826 -4.21002 0
M  V30 155 H 16.931 -0.190837 -6.97339 0
M  V30 156 H 12.828 0.898452 -6.39217 0
M  V30 157 H 13.596 -0.150265 -8.18362 0
M  V30 158 N 16.2591 1.48442 0.529413 0
M  V30 159 C 17.6751 1.34575 0.858004 0
M  V30 160 C 17.8751 0.3572 1.98309 0
M  V30 161 O 16.9311 -0.221379 2.51528 0
M  V30 162 C 18.2441 2.74617 1.22499 0
M  V30 163 C 19.7921 2.83109 1.33484 0
M  V30 164 C 20.2671 4.23854 1.73526 0
M  V30 165 N 21.7581 4.2653 1.80628 0
M  V30 166 C 22.4931 5.32372 2.12997 0
M  V30 167 N 21.9891 6.48491 2.43786 0
M  V30 168 N 23.7821 5.19766 2.14008 0
M  V30 169 H 15.9331 2.1133 -0.212925 0
M  V30 170 H 18.1961 0.947439 -0.0326199 0
M  V30 171 H 17.9021 3.4852 0.471905 0
M  V30 172 H 17.7761 3.08177 2.17501 0
M  V30 173 H 20.1631 2.09462 2.0787 0
M  V30 174 H 20.2441 2.53168 0.366027 0
M  V30 175 H 19.8881 4.98018 0.997013 0
M  V30 176 H 19.8181 4.5124 2.71459 0
M  V30 177 H 22.3091 3.42772 1.59108 0
M  V30 178 H 22.6221 7.24993 2.67592 0
M  V30 179 H 20.9671 6.51765 2.41304 0
M  V30 180 H 24.1581 4.28066 1.89412 0
M  V30 181 H 24.3311 6.02354 2.38902 0
M  V30 182 N 17.7372 -0.778329 1.37039 0
M  V30 183 C 18.6692 -1.90034 1.2814 0
M  V30 184 C 19.6822 -1.61585 0.198558 0
M  V30 185 O 20.8712 -1.72625 0.454175 0
M  V30 186 C 17.9712 -3.25108 0.956968 0
M  V30 187 C 17.1442 -3.81253 2.14394 0
M  V30 188 C 16.2032 -4.94789 1.79082 0
M  V30 189 O 15.2292 -5.10721 2.51301 0
M  V30 190 N 16.4312 -5.75878 0.731043 0
M  V30 191 H 19.1962 -1.98186 2.24816 0
M  V30 192 H 16.7572 -0.957129 1.30578 0
M  V30 193 H 18.7492 -3.9857 0.701701 0
M  V30 194 H 17.3192 -3.125 0.0789812 0
M  V30 195 H 16.5392 -2.99647 2.56135 0
M  V30 196 H 17.8272 -4.15495 2.93668 0
M  V30 197 H 17.2252 -5.65547 0.131618 0
M  V30 198 H 15.7822 -6.49596 0.535622 0
M  V30 199 N 19.2153 -1.21501 -1.00376 0
M  V30 200 C 20.4643 -1.02718 -1.73586 0
M  V30 201 C 20.7773 0.439589 -1.90596 0
M  V30 202 O 21.9833 0.746848 -2.61026 0
M  V30 203 C 20.4393 -1.78929 -3.1227 0
M  V30 204 C 20.0473 -3.29783 -3.03228 0
M  V30 205 C 21.7913 -1.68557 -3.89601 0
M  V30 206 C 19.6983 -3.98479 -4.36999 0
M  V30 207 H 18.6283 -0.380733 -0.650814 0
M  V30 208 H 21.2793 -1.45248 -1.1214 0
M  V30 209 H 19.6613 -1.29192 -3.74333 0
M  V30 210 H 20.8353 -3.86832 -2.50395 0
M  V30 211 H 19.1503 -3.40711 -2.39385 0
M  V30 212 H 21.7473 -2.17211 -4.88593 0
M  V30 213 H 22.0903 -0.644021 -4.11288 0
M  V30 214 H 22.6233 -2.15778 -3.34193 0
M  V30 215 H 19.3623 -5.02841 -4.20513 0
M  V30 216 H 18.8823 -3.46219 -4.89788 0
M  V30 217 H 20.5613 -4.03462 -5.05794 0
M  V30 218 N 20.6934 1.19889 -1.02296 0
M  V30 219 C 21.6404 2.22901 -0.598651 0
M  V30 220 C 22.6104 1.61588 0.384521 0
M  V30 221 O 23.7954 1.88697 0.282522 0
M  V30 222 C 20.9354 3.45063 0.0504476 0
M  V30 223 C 20.0484 4.20783 -0.978053 0
M  V30 224 C 19.1834 5.30356 -0.299338 0
M  V30 225 C 18.2224 5.97826 -1.31416 0
M  V30 226 N 17.3594 6.98975 -0.661667 0
M  V30 227 H 22.1994 2.58554 -1.48169 0
M  V30 228 H 19.7364 1.27039 -0.741584 0
M  V30 229 H 21.6944 4.14831 0.443971 0
M  V30 230 H 20.3244 3.10084 0.897097 0
M  V30 231 H 19.3764 3.50018 -1.48969 0
M  V30 232 H 20.6884 4.67109 -1.74958 0
M  V30 233 H 19.8424 6.06516 0.149347 0
M  V30 234 H 18.5814 4.85084 0.504445 0
M  V30 235 H 17.5864 5.20422 -1.77317 0
M  V30 236 H 18.8114 6.45183 -2.11933 0
M  V30 237 H 16.7574 6.55886 0.122132 0
M  V30 238 H 16.6744 7.43461 -1.37117 0
M  V30 239 H 17.9424 7.7914 -0.236785 0
M  V30 240 N 22.1715 0.800033 1.35784 0
M  V30 241 C 23.5875 0.482977 1.52117 0
M  V30 242 C 23.7875 -0.996948 1.75109 0
M  V30 243 O 22.8435 -1.78216 1.78872 0
M  V30 244 C 24.1565 1.32264 2.70049 0
M  V30 245 C 25.7045 1.31742 2.83924 0
M  V30 246 C 26.1795 2.14106 4.04874 0
M  V30 247 N 27.6705 2.11607 4.12039 0
M  V30 248 C 28.4055 2.72099 5.04727 0
M  V30 249 N 27.9015 3.41492 6.02789 0
M  V30 250 N 29.6945 2.61776 4.97423 0
M  V30 251 H 21.8455 1.75856 1.19115 0
M  V30 252 H 24.1085 0.748122 0.582252 0
M  V30 253 H 23.8145 2.37261 2.59616 0
M  V30 254 H 23.6885 0.971303 3.6448 0
M  V30 255 H 26.0755 0.275333 2.93813 0
M  V30 256 H 26.1565 1.70859 1.9037 0
M  V30 257 H 25.8005 3.18351 3.95746 0
M  V30 258 H 25.7305 1.72353 4.97596 0
M  V30 259 H 28.2215 1.61112 3.41835 0
M  V30 260 H 28.5345 3.84953 6.70098 0
M  V30 261 H 26.8795 3.45596 6.02983 0
M  V30 262 H 30.0705 2.07157 4.19766 0
M  V30 263 H 30.2435 3.0921 5.69468 0
M  V30 264 N 23.6496 -1.47581 0.552962 0
M  V30 265 C 24.5996 -2.26961 -0.217423 0
M  V30 266 C 25.5836 -1.34099 -0.889168 0
M  V30 267 O 26.7756 -1.58483 -0.788176 0
M  V30 268 C 23.9046 -3.19756 -1.24944 0
M  V30 269 C 22.9906 -4.20097 -0.581327 0
M  V30 270 N 23.3816 -5.04614 0.346171 0
M  V30 271 C 21.6796 -4.38099 -0.835767 0
M  V30 272 C 22.3806 -5.77052 0.733854 0
M  V30 273 N 21.3566 -5.43526 0.0896567 0
M  V30 274 H 25.1586 -2.89688 0.495761 0
M  V30 275 H 22.6726 -1.58068 0.372597 0
M  V30 276 H 24.6696 -3.75305 -1.81527 0
M  V30 277 H 23.3296 -2.58585 -1.96376 0
M  V30 278 H 24.3406 -5.12869 0.720098 0
M  V30 279 H 21.0176 -3.88102 -1.53892 0
M  V30 280 H 22.4076 -6.5504 1.49574 0
M  V30 281 N 25.1277 -0.289203 -1.54924 0
M  V30 282 C 26.5387 0.205791 -1.85562 0
M  V30 283 C 26.8897 1.54351 -1.2112 0
M  V30 284 O 26.0147 2.10435 -0.504601 0
M  V30 285 C 26.6097 0.380177 -3.3666 0
M  V30 286 C 25.1687 0.819395 -3.67373 0
M  V30 287 C 24.3157 -0.079159 -2.77187 0
M  V30 288 H 27.2667 -0.510577 -1.50262 0
M  V30 289 H 27.2877 1.21659 -3.60526 0
M  V30 290 H 26.7997 -0.593589 -3.83534 0
M  V30 291 H 24.9007 1.80413 -3.26009 0
M  V30 292 H 25.0137 0.646957 -4.74712 0
M  V30 293 H 23.3777 0.439565 -2.50878 0
M  V30 294 H 24.1607 -1.04906 -3.26878 0
M  V30 295 N 26.6058 1.57591 -0.0167156 0
M  V30 296 C 27.8538 1.90906 0.663285 0
M  V30 297 C 28.1748 0.892509 1.73376 0
M  V30 298 O 27.4448 -0.0677623 1.95783 0
M  V30 299 H 26.0248 0.704637 0.247983 0
M  V30 300 H 28.6868 1.94803 -0.0615909 0
M  V30 301 H 27.7828 2.9116 1.12393 0
M  V30 302 N 28.0839 -0.256276 1.55502 0
M  V30 303 C 29.3329 -0.983486 1.76098 0
M  V30 304 C 29.6459 -1.86837 0.578896 0
M  V30 305 O 30.8519 -2.63163 0.667648 0
M  V30 306 C 29.3079 -1.79868 3.1173 0
M  V30 307 C 28.9159 -0.961648 4.37557 0
M  V30 308 C 30.6599 -2.51919 3.41668 0
M  V30 309 C 28.5669 -1.77219 5.64223 0
M  V30 310 H 27.4969 -0.370936 0.656447 0
M  V30 311 H 30.1479 -0.238492 1.81944 0
M  V30 312 H 28.5299 -2.58527 2.99966 0
M  V30 313 H 29.7039 -0.218048 4.60284 0
M  V30 314 H 28.0189 -0.354913 4.14885 0
M  V30 315 H 30.6159 -3.12998 4.33516 0
M  V30 316 H 30.9589 -3.23059 2.62562 0
M  V30 317 H 31.4919 -1.80278 3.54605 0
M  V30 318 H 28.2309 -1.10471 6.46124 0
M  V30 319 H 27.7509 -2.49132 5.45613 0
M  V30 320 H 29.4299 -2.34169 6.03137 0
M  V30 321 N 29.562 -1.4872 -0.521534 0
M  V30 322 C 30.811 -1.56419 -1.27341 0
M  V30 323 C 31.124 -0.246805 -1.94037 0
M  V30 324 O 32.33 -0.202122 -2.70747 0
M  V30 325 C 30.786 -2.75896 -2.31105 0
M  V30 326 C 30.394 -4.14311 -1.70441 0
M  V30 327 C 32.138 -2.92913 -3.07249 0
M  V30 328 C 30.045 -5.25038 -2.72194 0
M  V30 329 H 28.975 -0.582344 -0.478949 0
M  V30 330 H 31.626 -1.75071 -0.549779 0
M  V30 331 H 30.008 -2.50697 -3.06541 0
M  V30 332 H 31.182 -4.49564 -1.01136 0
M  V30 333 H 29.497 -4.02482 -1.06759 0
M  V30 334 H 32.094 -3.72805 -3.83302 0
M  V30 335 H 32.437 -2.02689 -3.63625 0
M  V30 336 H 32.97 -3.18054 -2.38928 0
M  V30 337 H 29.709 -6.17255 -2.20627 0
M  V30 338 H 29.229 -4.94263 -3.39801 0
M  V30 339 H 30.908 -5.53508 -3.35019 0
M  V30 340 N 31.0401 0.771051 -1.3745 0
M  V30 341 C 32.4511 1.34737 -1.29239 0
M  V30 342 C 32.8021 1.96109 0.0596908 0
M  V30 343 O 31.9271 1.93865 0.961534 0
M  V30 344 C 32.5221 2.44973 -2.34037 0
M  V30 345 C 31.0811 2.98372 -2.29458 0
M  V30 346 C 30.2281 1.71595 -2.17831 0
M  V30 347 H 33.1791 0.571256 -1.48062 0
M  V30 348 H 33.2001 3.24471 -1.98744 0
M  V30 349 H 32.7121 2.00276 -3.32432 0
M  V30 350 H 30.8131 3.47443 -1.34589 0
M  V30 351 H 30.9261 3.53939 -3.229 0
M  V30 352 H 29.2901 1.94547 -1.64388 0
M  V30 353 H 30.0731 1.29001 -3.18141 0
M  V30 354 N 32.5182 1.22032 0.997298 0
M  V30 355 C 33.4512 0.929735 2.08401 0
M  V30 356 C 34.4292 -0.125681 1.62114 0
M  V30 357 O 35.6132 0.00495409 1.88499 0
M  V30 358 C 32.7402 0.397488 3.3636 0
M  V30 359 C 31.7862 1.4369 4.01566 0
M  V30 360 S 32.6192 3.00874 4.42984 0
M  V30 361 C 33.7752 2.49276 5.74119 0
M  V30 362 H 34.0082 1.84998 2.32729 0
M  V30 363 H 31.5412 1.0509 1.13117 0
M  V30 364 H 33.4992 0.0969846 4.10385 0
M  V30 365 H 32.1602 -0.501571 3.10069 0
M  V30 366 H 31.3532 1.01427 4.93689 0
M  V30 367 H 30.9552 1.68588 3.33847 0
M  V30 368 H 33.2472 1.90242 6.50242 0
M  V30 369 H 34.1902 3.39872 6.21203 0
M  V30 370 H 34.5982 1.90714 5.31308 0
M  V30 371 N 33.9963 -1.19345 1.0293 0
M  V30 372 C 35.2453 -1.88363 0.721256 0
M  V30 373 C 35.5583 -1.80514 -0.753254 0
M  V30 374 O 36.7643 -2.44788 -1.17436 0
M  V30 375 C 35.2203 -3.37872 1.23978 0
M  V30 376 C 34.8283 -3.54278 2.74211 0
M  V30 377 C 36.5723 -4.12365 1.00775 0
M  V30 378 C 34.4793 -4.97682 3.19479 0
M  V30 379 H 33.4093 -0.705484 0.266098 0
M  V30 380 H 36.0603 -1.34928 1.24365 0
M  V30 381 H 34.4423 -3.90707 0.6453 0
M  V30 382 H 35.6163 -3.11769 3.39318 0
M  V30 383 H 33.9313 -2.93174 2.95699 0
M  V30 384 H 36.5283 -5.18119 1.32123 0
M  V30 385 H 36.8713 -4.16263 -0.0554308 0
M  V30 386 H 37.4043 -3.65668 1.56625 0
M  V30 387 H 34.1433 -4.98945 4.25128 0
M  V30 388 H 33.6633 -5.4095 2.591 0
M  V30 389 H 35.3423 -5.66337 3.12845 0
M  V30 390 N 35.4744 -0.807222 -1.35358 0
M  V30 391 C 36.7224 -0.387122 -1.98358 0
M  V30 392 C 37.0434 1.04942 -1.64354 0
M  V30 393 O 36.3134 1.72615 -0.926339 0
M  V30 394 H 34.8934 -0.140154 -0.733734 0
M  V30 395 H 37.5554 -1.0332 -1.6526 0
M  V30 396 H 36.6514 -0.493352 -3.08176 0
M  V30 397 N 36.9525 1.47285 -0.560781 0
M  V30 398 C 37.8825 2.32857 0.173105 0
M  V30 399 C 38.8635 1.44009 0.905281 0
M  V30 400 O 40.0485 1.7286 0.885046 0
M  V30 401 C 37.1785 3.25861 1.20133 0
M  V30 402 C 36.1325 4.23978 0.585388 0
M  V30 403 C 35.4585 5.06332 1.7185 0
M  V30 404 C 36.7585 5.20242 -0.463178 0
M  V30 405 H 38.4525 2.94466 -0.541307 0
M  V30 406 H 35.9985 1.41601 -0.261764 0
M  V30 407 H 37.9515 3.84569 1.72293 0
M  V30 408 H 36.6755 2.62315 1.94573 0
M  V30 409 H 35.3345 3.66501 0.085054 0
M  V30 410 H 34.9825 4.39186 2.45203 0
M  V30 411 H 34.6825 5.72762 1.31213 0
M  V30 412 H 36.2065 5.67899 2.24329 0
M  V30 413 H 37.6205 5.73293 -0.027502 0
M  V30 414 H 36.0175 5.94896 -0.788627 0
M  V30 415 H 37.0875 4.65504 -1.35773 0
M  V30 416 N 38.4306 0.297415 1.54768 0
M  V30 417 C 39.6796 -0.313669 1.99246 0
M  V30 418 C 39.9926 -1.55281 1.18942 0
M  V30 419 O 41.1986 -2.23825 1.5367 0
M  V30 420 C 39.6546 -0.609407 3.54703 0
M  V30 421 C 39.2626 0.611192 4.43811 0
M  V30 422 C 41.0066 -1.18188 4.07715 0
M  V30 423 C 38.9136 0.288805 5.90694 0
M  V30 424 H 37.8436 -0.120979 0.744231 0
M  V30 425 H 40.4946 0.40556 1.78962 0
M  V30 426 H 38.8766 -1.38813 3.70873 0
M  V30 427 H 40.0506 1.3875 4.39414 0
M  V30 428 H 38.3656 1.10205 4.01552 0
M  V30 429 H 40.9626 -1.43727 5.15021 0
M  V30 430 H 41.3056 -2.12299 3.58099 0
M  V30 431 H 41.8386 -0.464944 3.95074 0
M  V30 432 H 38.5776 1.19838 6.44453 0
M  V30 433 H 38.0976 -0.450305 5.98107 0
M  V30 434 H 39.7766 -0.110933 6.46905 0
M  V30 435 N 39.9087 -1.5758 0.0250728 0
M  V30 436 C 41.1487 -1.93497 -0.65865 0
M  V30 437 C 41.5127 -0.901409 -1.69525 0
M  V30 438 O 42.7137 -1.14664 -2.43116 0
M  V30 439 C 40.9847 -3.34352 -1.26267 0
M  V30 440 S 42.5437 -3.92191 -1.96803 0
M  V30 441 H 39.3617 -0.67709 -0.216958 0
M  V30 442 H 41.9637 -1.95303 0.0877692 0
M  V30 443 H 40.6677 -4.07395 -0.495741 0
M  V30 444 H 40.1987 -3.3598 -2.04648 0
M  V30 445 H 42.2137 -3.75298 -3.24601 0
M  V30 446 N 41.3868 0.248026 -1.55636 0
M  V30 447 C 42.3168 1.31079 -1.93237 0
M  V30 448 C 43.2978 1.50264 -0.797174 0
M  V30 449 O 44.4828 1.62891 -1.05737 0
M  V30 450 C 41.6128 2.66575 -2.22609 0
M  V30 451 C 40.5668 2.62087 -3.3837 0
M  V30 452 C 39.8928 4.01369 -3.53281 0
M  V30 453 C 41.1928 2.19171 -4.7409 0
M  V30 454 H 42.8868 0.998556 -2.82257 0
M  V30 455 H 40.4328 0.47891 -1.35803 0
M  V30 456 H 42.3858 3.41057 -2.47503 0
M  V30 457 H 41.1098 2.99432 -1.30414 0
M  V30 458 H 39.7688 1.90063 -3.13483 0
M  V30 459 H 39.4168 4.31489 -2.58508 0
M  V30 460 H 39.1168 3.99254 -4.31127 0
M  V30 461 H 40.6408 4.77552 -3.80495 0
M  V30 462 H 42.0548 2.83384 -4.98363 0
M  V30 463 H 40.4518 2.2817 -5.5503 0
M  V30 464 H 41.5218 1.14336 -4.71227 0
M  V30 465 N 42.8649 1.48995 0.513639 0
M  V30 466 C 44.1129 1.57531 1.26604 0
M  V30 467 C 44.4339 0.258236 1.93283 0
M  V30 468 O 43.7039 -0.721502 1.8213 0
M  V30 469 H 42.2839 0.580387 0.470276 0
M  V30 470 H 44.9459 1.85552 0.596373 0
M  V30 471 H 44.0419 2.36486 2.03669 0
M  V30 472 N 44.343 -0.763751 1.37857 0
M  V30 473 C 45.276 -1.88486 1.28639 0
M  V30 474 C 46.254 -1.61757 0.165363 0
M  V30 475 O 47.438 -1.85391 0.340948 0
M  V30 476 C 44.565 -3.23884 0.990811 0
M  V30 477 C 43.611 -3.69514 2.12983 0
M  V30 478 S 44.444 -3.82244 3.75033 0
M  V30 479 C 45.6 -5.20477 3.47641 0
M  V30 480 H 45.833 -1.96017 2.23527 0
M  V30 481 H 43.366 -0.925684 1.23574 0
M  V30 482 H 45.324 -4.02081 0.827101 0
M  V30 483 H 43.985 -3.14044 0.0592832 0
M  V30 484 H 43.178 -4.67696 1.87821 0
M  V30 485 H 42.78 -2.98441 2.25408 0
M  V30 486 H 45.072 -6.05905 3.03125 0
M  V30 487 H 46.015 -5.50655 4.4518 0
M  V30 488 H 46.423 -4.88793 2.82385 0
M  V30 489 N 45.8211 -1.22559 -0.990812 0
M  V30 490 C 47.0691 -1.04933 -1.72724 0
M  V30 491 C 47.3901 0.416158 -1.90508 0
M  V30 492 O 46.6601 1.29918 -1.46622 0
M  V30 493 H 45.2401 -0.385296 -0.639965 0
M  V30 494 H 47.9021 -1.54105 -1.19322 0
M  V30 495 H 46.9981 -1.52886 -2.72089 0
M  V30 496 N 47.2992 1.18797 -1.03562 0
M  V30 497 C 48.5242 1.9314 -0.755764 0
M  V30 498 C 48.9492 1.7537 0.68022 0
M  V30 499 O 48.3072 1.06046 1.47051 0
M  V30 500 C 48.3552 3.42747 -1.12058 0
M  V30 501 O 47.4592 4.11683 -0.243124 0
M  V30 502 H 46.8002 0.602724 -0.278604 0
M  V30 503 H 49.3302 1.50678 -1.3841 0
M  V30 504 H 49.3402 3.93437 -1.08035 0
M  V30 505 H 48.0152 3.55002 -2.16672 0
M  V30 506 H 46.5922 3.71323 -0.342539 0
M  V30 507 N 48.7773 0.814389 1.34928 0
M  V30 508 C 49.7403 0.235759 2.27984 0
M  V30 509 C 50.7403 -0.581412 1.49921 0
M  V30 510 O 51.9303 -0.398758 1.69575 0
M  V30 511 C 49.0623 -0.670433 3.34242 0
M  V30 512 H 50.2553 1.05659 2.80671 0
M  V30 513 H 47.8083 0.585614 1.44915 0
M  V30 514 H 48.5433 -1.51466 2.86755 0
M  V30 515 H 48.3283 -0.0860822 3.92005 0
M  V30 516 H 49.8183 -1.06935 4.03676 0
M  V30 517 N 50.2554 -1.46986 0.568584 0
M  V30 518 C 51.2184 -2.28624 -0.162366 0
M  V30 519 C 52.2184 -1.37596 -0.832103 0
M  V30 520 O 53.4084 -1.60115 -0.68622 0
M  V30 521 C 50.5404 -3.17596 -1.23878 0
M  V30 522 H 51.7334 -2.94722 0.554899 0
M  V30 523 H 49.2864 -1.52863 0.325976 0
M  V30 524 H 50.0214 -2.56214 -1.98808 0
M  V30 525 H 49.8064 -3.846 -0.763219 0
M  V30 526 H 51.2964 -3.79078 -1.75185 0
M  V30 527 N 51.7335 -0.305618 -1.54608 0
M  V30 528 C 52.6635 0.561482 -2.26649 0
M  V30 529 C 53.6445 1.13415 -1.26772 0
M  V30 530 O 54.8295 1.16262 -1.55553 0
M  V30 531 C 51.9595 1.73122 -3.01075 0
M  V30 532 C 50.9135 1.2887 -4.08138 0
M  V30 533 C 50.2395 2.54396 -4.70305 0
M  V30 534 C 51.5395 0.416578 -5.20636 0
M  V30 535 H 53.2335 -0.0393902 -2.99374 0
M  V30 536 H 50.7795 -0.020385 -1.43986 0
M  V30 537 H 52.7325 2.34396 -3.50195 0
M  V30 538 H 51.4565 2.3584 -2.25936 0
M  V30 539 H 50.1155 0.698991 -3.59875 0
M  V30 540 H 49.7635 3.15439 -3.918 0
M  V30 541 H 49.4635 2.25486 -5.42614 0
M  V30 542 H 50.9875 3.16464 -5.2219 0
M  V30 543 H 52.4015 0.935116 -5.65622 0
M  V30 544 H 50.7985 0.221046 -5.99693 0
M  V30 545 H 51.8685 -0.557162 -4.81688 0
M  V30 546 N 53.2116 1.57565 -0.0334293 0
M  V30 547 C 54.4416 1.95996 0.653398 0
M  V30 548 C 54.8496 0.908749 1.65947 0
M  V30 549 O 54.1926 -0.117471 1.83324 0
M  V30 550 C 54.2546 3.30589 1.41249 0
M  V30 551 C 53.9186 4.53503 0.564263 0
M  V30 552 C 54.9156 5.19647 -0.16225 0
M  V30 553 C 52.6006 4.99801 0.500398 0
M  V30 554 C 54.5946 6.30412 -0.941255 0
M  V30 555 C 52.2816 6.10448 -0.282308 0
M  V30 556 C 53.2796 6.75612 -1.00184 0
M  V30 557 O 52.9676 7.84134 -1.77171 0
M  V30 558 H 52.6996 0.65027 0.184728 0
M  V30 559 H 55.2536 2.05199 -0.0907841 0
M  V30 560 H 53.4836 3.17888 2.20191 0
M  V30 561 H 55.1726 3.53892 1.98784 0
M  V30 562 H 55.9386 4.84846 -0.12227 0
M  V30 563 H 51.8176 4.48883 1.05002 0
M  V30 564 H 55.3616 6.81208 -1.50339 0
M  V30 565 H 51.2586 6.44686 -0.323989 0
M  V30 566 H 52.0266 8.00822 -1.69194 0
M  V30 567 N 54.6897 -0.239769 1.55765 0
M  V30 568 C 55.6197 -1.30052 1.9393 0
M  V30 569 C 56.6007 -1.49839 0.805132 0
M  V30 570 O 57.7857 -1.62328 1.06599 0
M  V30 571 C 54.9157 -2.65391 2.2402 0
M  V30 572 C 53.8697 -2.60289 3.39755 0
M  V30 573 C 53.1957 -3.99489 3.55405 0
M  V30 574 C 54.4957 -2.16654 4.75246 0
M  V30 575 H 56.1897 -0.983573 2.82783 0
M  V30 576 H 53.7357 -0.471701 1.36055 0
M  V30 577 H 55.6887 -3.3974 2.49308 0
M  V30 578 H 54.4127 -2.98736 1.32 0
M  V30 579 H 53.0717 -1.88398 3.14487 0
M  V30 580 H 52.7197 -4.30112 2.60793 0
M  V30 581 H 52.4197 -3.96962 4.33238 0
M  V30 582 H 53.9437 -4.75528 3.83022 0
M  V30 583 H 55.3577 -2.80737 4.99859 0
M  V30 584 H 53.7547 -2.25223 5.56232 0
M  V30 585 H 54.8247 -1.11835 4.71827 0
M  V30 586 N 56.1678 -1.49265 -0.50573 0
M  V30 587 C 57.0978 -1.68495 -1.61653 0
M  V30 588 C 58.0788 -0.53366 -1.61512 0
M  V30 589 O 59.2638 -0.76897 -1.78327 0
M  V30 590 C 56.3938 -1.74709 -3.00157 0
M  V30 591 C 55.3478 -2.89581 -3.15162 0
M  V30 592 C 54.6738 -2.80903 -4.5497 0
M  V30 593 C 55.9738 -4.30578 -2.95634 0
M  V30 594 H 57.6678 -2.61493 -1.45814 0
M  V30 595 H 55.2138 -1.25838 -0.70005 0
M  V30 596 H 57.1668 -1.86748 -3.77761 0
M  V30 597 H 55.8908 -0.783067 -3.17074 0
M  V30 598 H 54.5498 -2.77136 -2.39982 0
M  V30 599 H 54.1978 -1.82419 -4.68756 0
M  V30 600 H 53.8978 -3.57999 -4.65951 0
M  V30 601 H 55.4218 -2.94944 -5.34641 0
M  V30 602 H 56.8358 -4.4373 -3.63011 0
M  V30 603 H 55.2328 -5.0886 -3.18091 0
M  V30 604 H 56.3028 -4.45352 -1.91806 0
M  V30 605 N 57.6459 0.756429 -1.3826 0
M  V30 606 C 59.0619 1.0591 -1.19395 0
M  V30 607 C 59.2619 2.01459 -0.0406567 0
M  V30 608 O 58.3179 2.44909 0.614467 0
M  V30 609 C 59.6309 1.64191 -2.51916 0
M  V30 610 C 61.1789 1.76376 -2.58574 0
M  V30 611 C 61.6539 2.38069 -3.91264 0
M  V30 612 N 63.1449 2.45503 -3.92788 0
M  V30 613 C 63.8799 2.94126 -4.92217 0
M  V30 614 N 63.3759 3.42805 -6.02043 0
M  V30 615 N 65.1689 2.9314 -4.7961 0
M  V30 616 H 57.3199 0.122313 -2.12048 0
M  V30 617 H 59.5829 0.116892 -0.940766 0
M  V30 618 H 59.2889 1.01451 -3.3675 0
M  V30 619 H 59.1629 2.6329 -2.70108 0
M  V30 620 H 61.5499 2.38244 -1.74137 0
M  V30 621 H 61.6309 0.759894 -2.44252 0
M  V30 622 H 61.2749 1.76835 -4.76121 0
M  V30 623 H 61.2049 3.39091 -4.02895 0
M  V30 624 H 63.6959 2.1107 -3.13461 0
M  V30 625 H 64.0089 3.78354 -6.73846 0
M  V30 626 H 62.3539 3.4087 -6.05667 0
M  V30 627 H 65.5449 2.54419 -3.92923 0
M  V30 628 H 65.7179 3.30721 -5.5725 0
M  V30 629 N 59.124 1.23083 0.984299 0
M  V30 630 C 60.054 1.03292 2.09411 0
M  V30 631 C 61.035 -0.048923 1.7003 0
M  V30 632 O 62.22 0.114967 1.93859 0
M  V30 633 C 59.35 0.619155 3.41736 0
M  V30 634 C 58.304 1.64791 3.95004 0
M  V30 635 C 57.63 1.0897 5.23478 0
M  V30 636 C 58.93 3.03999 4.24714 0
M  V30 637 H 60.624 1.96119 2.26225 0
M  V30 638 H 58.17 0.944344 1.08711 0
M  V30 639 H 60.123 0.467777 4.18796 0
M  V30 640 H 58.847 -0.344786 3.24775 0
M  V30 641 H 57.506 1.78721 3.20085 0
M  V30 642 H 57.154 0.11686 5.02864 0
M  V30 643 H 56.854 1.77704 5.60085 0
M  V30 644 H 58.378 0.950093 6.03163 0
M  V30 645 H 59.792 2.93393 4.92538 0
M  V30 646 H 58.189 3.69936 4.72512 0
M  V30 647 H 59.259 3.53285 3.32142 0
M  V30 648 N 60.6021 -1.18246 1.0419 0
M  V30 649 C 61.5651 -2.20128 0.638452 0
M  V30 650 C 62.5651 -1.57885 -0.304805 0
M  V30 651 O 63.7551 -1.73967 -0.0900369 0
M  V30 652 C 60.8871 -3.4084 -0.0637751 0
M  V30 653 H 62.0801 -2.57336 1.54007 0
M  V30 654 H 59.6331 -1.32152 0.834598 0
M  V30 655 H 60.3681 -3.09166 -0.979136 0
M  V30 656 H 60.1531 -3.8726 0.614198 0
M  V30 657 H 61.6431 -4.16274 -0.332512 0
M  V30 658 N 62.0802 -0.821533 -1.34494 0
M  V30 659 C 63.0102 -0.257138 -2.3208 0
M  V30 660 C 63.9912 0.625645 -1.58176 0
M  V30 661 O 65.1762 0.552811 -1.86166 0
M  V30 662 C 62.3062 0.582958 -3.42372 0
M  V30 663 C 61.2602 -0.202571 -4.2752 0
M  V30 664 C 60.5862 0.760179 -5.29269 0
M  V30 665 C 61.8862 -1.40998 -5.02908 0
M  V30 666 H 63.5802 -1.07247 -2.79532 0
M  V30 667 H 61.1262 -0.517163 -1.34393 0
M  V30 668 H 63.0792 0.987972 -4.09655 0
M  V30 669 H 61.8032 1.43133 -2.93565 0
M  V30 670 H 60.4622 -0.588936 -3.61838 0
M  V30 671 H 60.1102 1.60447 -4.76724 0
M  V30 672 H 59.8102 0.238809 -5.87115 0
M  V30 673 H 61.3342 1.16308 -5.9942 0
M  V30 674 H 62.7482 -1.07905 -5.63054 0
M  V30 675 H 61.1452 -1.86689 -5.70322 0
M  V30 676 H 62.2152 -2.1889 -4.32684 0
M  V30 677 N 63.5583 1.46682 -0.576371 0
M  V30 678 C 64.9743 1.57822 -0.237562 0
M  V30 679 C 65.1743 1.57237 1.26011 0
M  V30 680 O 64.2303 1.48596 2.04146 0
M  V30 681 C 65.5433 2.87499 -0.881168 0
M  V30 682 C 67.0913 3.01119 -0.85417 0
M  V30 683 C 67.5663 4.33524 -1.4772 0
M  V30 684 N 69.0573 4.40207 -1.44125 0
M  V30 685 C 69.7923 5.4126 -1.89276 0
M  V30 686 N 69.2883 6.49021 -2.42371 0
M  V30 687 N 71.0813 5.32422 -1.80231 0
M  V30 688 H 63.2323 1.45306 -1.54919 0
M  V30 689 H 65.4953 0.692733 -0.647167 0
M  V30 690 H 65.2013 2.9372 -1.93447 0
M  V30 691 H 65.0753 3.75224 -0.385592 0
M  V30 692 H 67.4623 2.94485 0.190491 0
M  V30 693 H 67.5433 2.14887 -1.3877 0
M  V30 694 H 67.1873 4.40916 -2.52103 0
M  V30 695 H 67.1173 5.1852 -0.918947 0
M  V30 696 H 69.6083 3.62931 -1.05307 0
M  V30 697 H 69.9213 7.2233 -2.74698 0
M  V30 698 H 68.2663 6.49858 -2.46393 0
M  V30 699 H 71.4573 4.47137 -1.38514 0
M  V30 700 H 71.6303 6.11034 -2.15735 0
M  V30 701 N 65.0364 0.313813 1.54444 0
M  V30 702 C 66.2614 -0.296681 2.05267 0
M  V30 703 C 66.6864 -1.45757 1.18897 0
M  V30 704 O 66.0444 -1.80239 0.195886 0
M  V30 705 C 66.0924 -0.71831 3.53373 0
M  V30 706 O 65.1964 -1.82175 3.69981 0
M  V30 707 H 64.5374 -0.0554061 0.661684 0
M  V30 708 H 67.0674 0.459387 1.99376 0
M  V30 709 H 67.0774 -1.00364 3.95463 0
M  V30 710 H 65.7524 0.130821 4.15694 0
M  V30 711 H 64.3294 -1.53598 3.39797 0
M  V30 712 N 66.5145 -1.57545 0.0417849 0
M  V30 713 C 67.9255 -1.80011 -0.495259 0
M  V30 714 C 68.2765 -0.953199 -1.71489 0
M  V30 715 O 67.4015 -0.167138 -2.15754 0
M  V30 716 C 67.9965 -3.26482 -0.905265 0
M  V30 717 C 66.5555 -3.499 -1.38734 0
M  V30 718 C 65.7025 -2.74979 -0.358056 0
M  V30 719 H 68.6535 -1.56425 0.267736 0
M  V30 720 H 68.6745 -3.36887 -1.76882 0
M  V30 721 H 68.1865 -3.88096 -0.017401 0
M  V30 722 H 66.2875 -2.93553 -2.29471 0
M  V30 723 H 66.4005 -4.58615 -1.38598 0
M  V30 724 H 64.7645 -2.40834 -0.828912 0
M  V30 725 H 65.5475 -3.39315 0.521561 0
M  V30 726 N 67.9926 0.231505 -1.5589 0
M  V30 727 C 69.2696 0.981096 -1.69215 0
M  V30 728 C 69.6496 2.02799 -0.586164 0
M  V30 729 O 68.9976 2.24823 0.408253 0
M  V30 730 C 69.2076 1.60054 -3.10135 0
M  V30 731 C 70.5556 2.09658 -3.69227 0
M  V30 732 O 71.5796 1.69967 -3.13033 0
M  V30 733 O 70.4386 2.8258 -4.67772 0
M  V30 734 H 67.5326 0.457653 -0.688827 0
M  V30 735 H 70.0786 0.224073 -1.68214 0
M  V30 736 H 68.8506 0.844105 -3.82087 0
M  V30 737 H 68.4736 2.42336 -3.15212 0
M  V30 738 N 69.4707 1.49531 0.497807 0
M  V30 739 C 70.7167 1.59415 1.25358 0
M  V30 740 C 71.0497 0.281422 1.9215 0
M  V30 741 O 70.3247 -0.715249 1.80871 0
M  V30 742 C 70.6077 2.75566 2.3181 0
M  V30 743 C 70.4607 4.16642 1.69498 0
M  V30 744 C 71.7797 2.87347 3.33346 0
M  V30 745 H 68.8987 0.580244 0.454408 0
M  V30 746 H 71.5407 1.81827 0.551262 0
M  V30 747 H 69.6907 2.56587 2.91711 0
M  V30 748 H 71.3627 4.47145 1.13399 0
M  V30 749 H 69.6057 4.22141 0.998978 0
M  V30 750 H 70.2767 4.93792 2.46725 0
M  V30 751 H 72.7527 3.04634 2.83438 0
M  V30 752 H 71.6287 3.70289 4.05188 0
M  V30 753 H 71.8897 1.96834 3.95865 0
M  V30 754 N 70.9488 -0.749086 1.3866 0
M  V30 755 C 72.1888 -1.52112 1.36534 0
M  V30 756 C 72.5528 -1.91951 -0.0432316 0
M  V30 757 O 73.7538 -2.68132 -0.189396 0
M  V30 758 C 72.0248 -2.73704 2.29828 0
M  V30 759 S 73.5838 -3.63519 2.45763 0
M  V30 760 H 70.4018 -0.520482 0.484375 0
M  V30 761 H 73.0038 -0.878963 1.74627 0
M  V30 762 H 71.7078 -2.42552 3.31054 0
M  V30 763 H 71.2388 -3.4286 1.929 0
M  V30 764 H 73.2538 -4.66712 1.68505 0
M  V30 765 N 72.4269 -1.23603 -0.977757 0
M  V30 766 C 73.6729 -1.08136 -1.72274 0
M  V30 767 C 74.0279 0.377453 -1.88661 0
M  V30 768 O 73.3209 1.27552 -1.42972 0
M  V30 769 C 73.5149 -1.7433 -3.11999 0
M  V30 770 C 73.3439 -3.26498 -3.0924 0
M  V30 771 C 72.1139 -3.9567 -3.14282 0
M  V30 772 C 74.3119 -4.2323 -2.92201 0
M  V30 773 N 72.2939 -5.34799 -3.01436 0
M  V30 774 C 73.6649 -5.49289 -2.87544 0
M  V30 775 C 75.7199 -4.13931 -2.76705 0
M  V30 776 C 74.4229 -6.67116 -2.68978 0
M  V30 777 C 76.4489 -5.31424 -2.59504 0
M  V30 778 C 75.8109 -6.5641 -2.55548 0
M  V30 779 H 71.9099 -0.450247 -0.639376 0
M  V30 780 H 74.4939 -1.5637 -1.16002 0
M  V30 781 H 72.6649 -1.28624 -3.66484 0
M  V30 782 H 74.3969 -1.51815 -3.75146 0
M  V30 783 H 71.1519 -3.46767 -3.22567 0
M  V30 784 H 71.5759 -6.07748 -2.98281 0
M  V30 785 H 76.2179 -3.1807 -2.78552 0
M  V30 786 H 73.9359 -7.63109 -2.65876 0
M  V30 787 H 77.5219 -5.26072 -2.48474 0
M  V30 788 H 76.4019 -7.45795 -2.42405 0
M  V30 789 N 73.905 1.17692 -1.04816 0
M  V30 790 C 75.182 1.83768 -0.669963 0
M  V30 791 C 75.562 1.93232 0.849986 0
M  V30 792 O 74.91 1.46397 1.75443 0
M  V30 793 C 75.12 3.21641 -1.35455 0
M  V30 794 C 76.468 3.97592 -1.49017 0
M  V30 795 O 77.492 3.31107 -1.31326 0
M  V30 796 O 76.351 5.16729 -1.77914 0
M  V30 797 H 73.445 0.792799 -0.235368 0
M  V30 798 H 75.991 1.25021 -1.14751 0
M  V30 799 H 74.763 3.097 -2.39168 0
M  V30 800 H 74.386 3.88052 -0.866107 0
M  V30 801 N 75.3831 0.828654 1.34056 0
M  V30 802 C 76.7991 0.515135 1.51058 0
M  V30 803 C 76.9991 -0.959581 1.77184 0
M  V30 804 O 76.0551 -1.74382 1.82612 0
M  V30 805 C 77.3681 1.37963 2.67183 0
M  V30 806 C 78.9161 1.37735 2.81066 0
M  V30 807 C 79.3911 2.22645 4.00241 0
M  V30 808 N 80.8821 2.203 4.07458 0
M  V30 809 C 81.6171 2.82744 4.98842 0
M  V30 810 N 81.1131 3.54201 5.9541 0
M  V30 811 N 82.9061 2.72268 4.91759 0
M  V30 812 H 75.0571 1.78343 1.15358 0
M  V30 813 H 77.3201 0.760304 0.566252 0
M  V30 814 H 77.0261 2.42714 2.54525 0
M  V30 815 H 76.9001 1.0484 3.62338 0
M  V30 816 H 79.2871 0.337593 2.93163 0
M  V30 817 H 79.3681 1.74859 1.86703 0
M  V30 818 H 79.0121 3.26674 3.88905 0
M  V30 819 H 78.9421 1.82869 4.93829 0
M  V30 820 H 81.4331 1.68327 3.38341 0
M  V30 821 H 81.7461 3.9908 6.61782 0
M  V30 822 H 80.0911 3.58308 5.95517 0
M  V30 823 H 83.2821 2.16014 4.15278 0
M  V30 824 H 83.4551 3.21219 5.62781 0
M  V30 825 N 76.8612 -1.46375 0.584142 0
M  V30 826 C 77.8082 -2.30323 -0.148286 0
M  V30 827 C 78.7782 -1.40703 -0.882713 0
M  V30 828 O 79.9632 -1.69651 -0.873099 0
M  V30 829 C 77.1032 -3.25196 -1.15507 0
M  V30 830 C 76.2162 -4.29915 -0.423943 0
M  V30 831 C 75.3512 -5.11914 -1.41838 0
M  V30 832 C 74.3902 -6.08381 -0.673736 0
M  V30 833 N 73.5272 -6.83242 -1.6163 0
M  V30 834 H 78.3672 -2.92427 0.573644 0
M  V30 835 H 75.9042 -1.44118 0.294703 0
M  V30 836 H 77.8622 -3.78646 -1.75166 0
M  V30 837 H 76.4922 -2.64898 -1.8447 0
M  V30 838 H 75.5442 -3.7931 0.287714 0
M  V30 839 H 76.8562 -4.98549 0.158128 0
M  V30 840 H 76.0102 -5.69648 -2.08773 0
M  V30 841 H 74.7492 -4.43243 -2.03438 0
M  V30 842 H 73.7542 -5.49799 0.00938483 0
M  V30 843 H 74.9792 -6.79071 -0.0631082 0
M  V30 844 H 72.9252 -6.1728 -2.22038 0
M  V30 845 H 72.8422 -7.48144 -1.08707 0
M  V30 846 H 74.1102 -7.45534 -2.27596 0
M  V30 847 N 78.3393 -0.321999 -1.54275 0
M  V30 848 C 79.2873 0.560206 -2.25753 0
M  V30 849 C 80.2813 1.11984 -1.27106 0
M  V30 850 O 81.4873 1.06806 -1.44888 0
M  V30 851 H 77.8623 0.199304 -0.725108 0
M  V30 852 H 79.8333 -0.0649365 -2.98329 0
M  V30 853 C 78.5823 1.71023 -3.02731 0
M  V30 854 H 77.9053 1.28885 -3.78456 0
M  V30 855 H 79.3453 2.30314 -3.55993 0
M  V30 856 C 77.8043 2.62692 -2.10938 0
M  V30 857 O 78.3343 3.64364 -1.6912 0
M  V30 858 N 76.5403 2.30891 -1.76459 0
M  V30 859 H 76.0873 1.48253 -2.10663 0
M  V30 860 H 76.0453 2.92487 -1.1532 0
M  V30 861 N 79.8174 1.5752 -0.0501392 0
M  V30 862 C 80.7654 2.12651 0.942459 0
M  V30 863 C 81.7594 1.05807 1.32292 0
M  V30 864 O 82.9654 1.24217 1.3027 0
M  V30 865 H 79.3404 0.679673 0.321789 0
M  V30 866 H 81.3114 2.94951 0.452356 0
M  V30 867 C 80.0604 2.68565 2.20836 0
M  V30 868 H 79.3834 3.50439 1.92439 0
M  V30 869 H 80.8234 3.10761 2.8845 0
M  V30 870 C 79.2824 1.62291 2.95234 0
M  V30 871 O 79.8124 1.03508 3.88135 0
M  V30 872 N 78.0184 1.33836 2.57946 0
M  V30 873 H 77.5654 1.81826 1.82475 0
M  V30 874 H 77.5234 0.629595 3.08032 0
M  V30 875 N 81.2955 -0.223234 1.56011 0
M  V30 876 C 82.7065 -0.790368 1.69145 0
M  V30 877 C 83.0575 -1.85055 0.651845 0
M  V30 878 O 82.1825 -2.15498 -0.197359 0
M  V30 879 C 82.7775 -1.4404 3.06656 0
M  V30 880 C 81.3365 -1.95494 3.2165 0
M  V30 881 C 80.4835 -0.814506 2.65068 0
M  V30 882 H 83.4345 0.00139011 1.587 0
M  V30 883 H 83.4555 -2.30916 3.0242 0
M  V30 884 H 82.9675 -0.668543 3.82298 0
M  V30 885 H 81.0685 -2.75487 2.50874 0
M  V30 886 H 81.1815 -2.13607 4.28846 0
M  V30 887 H 79.5455 -1.22137 2.23505 0
M  V30 888 H 80.3285 -0.0553515 3.43255 0
M  V30 889 N 82.7736 -1.49793 -0.48987 0
M  V30 890 C 83.6836 -1.70036 -1.61632 0
M  V30 891 C 84.6996 -0.583102 -1.63939 0
M  V30 892 O 85.8756 -0.859169 -1.82154 0
M  V30 893 C 82.9406 -1.77277 -2.97949 0
M  V30 894 C 82.0016 -3.00918 -3.06181 0
M  V30 895 C 81.2346 -3.07804 -4.35996 0
M  V30 896 O 81.4576 -2.21982 -5.25433 0
M  V30 897 O 80.3916 -4.00369 -4.49431 0
M  V30 898 H 84.2176 -2.65486 -1.47482 0
M  V30 899 H 81.8026 -1.33666 -0.667362 0
M  V30 900 H 83.6846 -1.84329 -3.78947 0
M  V30 901 H 82.3596 -0.850076 -3.12339 0
M  V30 902 H 81.2666 -2.99377 -2.2433 0
M  V30 903 H 82.5996 -3.92704 -2.96723 0
M  V30 904 N 84.2517 0.741722 -1.39055 0
M  V30 905 C 85.6627 1.31966 -1.32068 0
M  V30 906 C 86.0137 1.96192 0.0180797 0
M  V30 907 O 85.1387 1.95861 0.920196 0
M  V30 908 C 85.7337 2.39954 -2.39181 0
M  V30 909 C 84.2927 2.93438 -2.35735 0
M  V30 910 C 83.4397 1.66936 -2.21422 0
M  V30 911 H 86.3907 0.539721 -1.4924 0
M  V30 912 H 86.4117 3.20182 -2.05581 0
M  V30 913 H 85.9237 1.9318 -3.36605 0
M  V30 914 H 84.0247 3.4451 -1.41929 0
M  V30 915 H 84.1377 3.4701 -3.30335 0
M  V30 916 H 82.5017 1.91016 -1.68478 0
M  V30 917 H 83.2847 1.22224 -3.20806 0
M  V30 918 N 85.7298 1.2412 0.971189 0
M  V30 919 C 86.9758 1.09048 1.71698 0
M  V30 920 C 87.3308 -0.367442 1.88859 0
M  V30 921 O 86.6238 -1.26792 1.43646 0
M  V30 922 C 86.8178 1.75983 3.11071 0
M  V30 923 C 86.6468 3.28133 3.07504 0
M  V30 924 C 85.4168 3.97331 3.1218 0
M  V30 925 C 87.6148 4.24773 2.89952 0
M  V30 926 N 85.5968 5.3639 2.98596 0
M  V30 927 C 86.9678 5.50806 2.84627 0
M  V30 928 C 89.0228 4.15392 2.74506 0
M  V30 929 C 87.7258 6.68533 2.65437 0
M  V30 930 C 89.7518 5.32793 2.56682 0
M  V30 931 C 89.1138 6.57756 2.52063 0
M  V30 932 H 85.2128 0.453632 0.636979 0
M  V30 933 H 87.7968 1.56983 1.15171 0
M  V30 934 H 85.9678 1.30566 3.65796 0
M  V30 935 H 87.6998 1.53803 3.74335 0
M  V30 936 H 84.4548 3.48473 3.20724 0
M  V30 937 H 84.8788 6.09321 2.95054 0
M  V30 938 H 89.5208 3.19543 2.76861 0
M  V30 939 H 87.2388 7.64509 2.61825 0
M  V30 940 H 90.8248 5.27383 2.4568 0
M  V30 941 H 89.7048 7.4707 2.38446 0
M  V30 942 N 87.2079 -1.17134 1.05439 0
M  V30 943 C 88.1559 -2.23289 0.651511 0
M  V30 944 C 89.1499 -1.66186 -0.328411 0
M  V30 945 O 90.3559 -1.78949 -0.194206 0
M  V30 946 H 86.7309 -0.726938 0.192523 0
M  V30 947 H 88.7019 -2.54565 1.55689 0
M  V30 948 C 87.4509 -3.47671 0.0448436 0
M  V30 949 H 86.7739 -3.91918 0.78996 0
M  V30 950 H 88.2139 -4.2353 -0.19964 0
M  V30 951 C 86.6729 -3.14453 -1.20918 0
M  V30 952 O 87.2029 -3.29459 -2.29825 0
M  V30 953 N 85.4089 -2.68657 -1.10779 0
M  V30 954 H 84.9559 -2.56646 -0.221526 0
M  V30 955 H 84.9139 -2.46804 -1.9477 0
M  V30 956 N 88.686 -0.835752 -1.33615 0
M  V30 957 C 90.102 -0.523139 -1.50783 0
M  V30 958 C 90.302 0.950171 -1.77691 0
M  V30 959 O 89.358 1.73411 -1.83534 0
M  V30 960 C 90.671 -1.39378 -2.66448 0
M  V30 961 C 92.219 -1.39223 -2.80332 0
M  V30 962 C 92.694 -2.24765 -3.99055 0
M  V30 963 N 94.185 -2.22458 -4.06284 0
M  V30 964 C 94.92 -2.85386 -4.97336 0
M  V30 965 N 94.416 -3.57354 -5.93523 0
M  V30 966 N 96.209 -2.74872 -4.90308 0
M  V30 967 H 88.36 -1.78952 -1.14411 0
M  V30 968 H 90.623 -0.763297 -0.562212 0
M  V30 969 H 90.329 -2.44061 -2.53234 0
M  V30 970 H 90.203 -1.0676 -3.61776 0
M  V30 971 H 92.59 -0.353136 -2.92979 0
M  V30 972 H 92.671 -1.75846 -1.85773 0
M  V30 973 H 92.315 -3.28732 -3.87167 0
M  V30 974 H 92.245 -1.85485 -4.92852 0
M  V30 975 H 94.736 -1.70119 -3.37443 0
M  V30 976 H 95.049 -4.02584 -6.59656 0
M  V30 977 H 93.394 -3.61461 -5.93608 0
M  V30 978 H 96.585 -2.18213 -4.14126 0
M  V30 979 H 96.758 -3.24199 -5.61069 0
M  V30 980 N 90.1641 1.46063 -0.591896 0
M  V30 981 C 91.0941 2.33172 0.123673 0
M  V30 982 C 92.0751 1.45897 0.87453 0
M  V30 983 O 93.2601 1.74698 0.848181 0
M  V30 984 C 90.3901 3.28336 1.13194 0
M  V30 985 C 89.3441 4.25124 0.495324 0
M  V30 986 C 88.6701 5.09863 1.61071 0
M  V30 987 C 89.9701 5.19143 -0.573425 0
M  V30 988 H 91.6641 2.93252 -0.603646 0
M  V30 989 H 89.2101 1.41014 -0.291741 0
M  V30 990 H 91.1631 3.88137 1.64097 0
M  V30 991 H 89.8871 2.66383 1.88965 0
M  V30 992 H 88.5461 3.66599 0.00729452 0
M  V30 993 H 88.1941 4.44288 2.35832 0
M  V30 994 H 87.8941 5.75417 1.19035 0
M  V30 995 H 89.4181 5.72529 2.12233 0
M  V30 996 H 90.8321 5.73106 -0.1491 0
M  V30 997 H 89.2291 5.93089 -0.914636 0
M  V30 998 H 90.2991 4.62519 -1.45617 0
M  V30 999 N 91.6422 0.330177 1.54103 0
M  V30 1000 C 92.8672 -0.274893 2.0557 0
M  V30 1001 C 93.2922 -1.44487 1.20437 0
M  V30 1002 O 92.6502 -1.80021 0.214991 0
M  V30 1003 C 92.6982 -0.68079 3.54115 0
M  V30 1004 O 91.8022 -1.7824 3.71893 0
M  V30 1005 H 91.1432 -0.0483849 0.662235 0
M  V30 1006 H 93.6732 0.480508 1.98878 0
M  V30 1007 H 93.6832 -0.961635 3.96505 0
M  V30 1008 H 92.3582 0.174903 4.15532 0
M  V30 1009 H 90.9352 -1.49985 3.41407 0
M  V30 1010 N 93.1203 -1.57491 0.0584922 0
M  V30 1011 C 94.5313 -1.80526 -0.476138 0
M  V30 1012 C 94.8823 -0.971334 -1.70469 0
M  V30 1013 O 94.0073 -0.190012 -2.15564 0
M  V30 1014 C 94.6023 -3.27424 -0.870587 0
M  V30 1015 C 93.1613 -3.51351 -1.35015 0
M  V30 1016 C 92.3083 -2.75343 -0.32887 0
M  V30 1017 H 95.2593 -1.56133 0.284312 0
M  V30 1018 H 95.2803 -3.38745 -1.73299 0
M  V30 1019 H 94.7923 -3.88093 0.0237627 0
M  V30 1020 H 92.8933 -2.95971 -2.26345 0
M  V30 1021 H 93.0063 -4.60059 -1.33726 0
M  V30 1022 H 91.3703 -2.417 -0.803321 0
M  V30 1023 H 92.1533 -3.38743 0.557521 0
M  V30 1024 N 94.5984 0.214957 -1.56127 0
M  V30 1025 C 95.5464 1.28601 -1.93816 0
M  V30 1026 C 96.5404 1.48175 -0.821016 0
M  V30 1027 O 97.7464 1.49271 -1.0059 0
M  V30 1028 H 94.1214 0.431302 -0.616022 0
M  V30 1029 H 96.0924 0.940991 -2.83175 0
M  V30 1030 C 94.8414 2.62779 -2.27689 0
M  V30 1031 H 94.1644 2.48527 -3.13168 0
M  V30 1032 H 95.6044 3.36517 -2.57939 0
M  V30 1033 C 94.0634 3.18285 -1.10436 0
M  V30 1034 O 94.5934 4.00002 -0.368945 0
M  V30 1035 N 92.7994 2.7675 -0.886433 0
M  V30 1036 H 92.3464 2.10404 -1.48619 0
M  V30 1037 H 92.3044 3.14229 -0.103656 0
M  V30 1038 N 96.0765 1.50051 0.48192 0
M  V30 1039 C 97.3535 1.51009 1.2432 0
M  V30 1040 C 97.7335 0.248587 2.09631 0
M  V30 1041 O 97.0815 -0.768409 2.15192 0
M  V30 1042 C 97.2915 2.79981 2.08355 0
M  V30 1043 C 98.6395 3.3022 2.66908 0
M  V30 1044 O 99.6635 2.81228 2.18607 0
M  V30 1045 O 98.5225 4.15595 3.54884 0
M  V30 1046 H 95.6165 0.605239 0.563573 0
M  V30 1047 H 98.1625 1.62332 0.494627 0
M  V30 1048 H 96.9345 3.63275 1.45419 0
M  V30 1049 H 96.5575 2.7161 2.90368 0
M  V30 1050 N 97.5546 -0.734337 1.39446 0
M  V30 1051 C 98.4866 -1.85861 1.34121 0
M  V30 1052 C 99.4996 -1.60871 0.249864 0
M  V30 1053 O 100.689 -1.71093 0.508865 0
M  V30 1054 C 97.7886 -3.21899 1.05991 0
M  V30 1055 C 96.9616 -3.74239 2.26415 0
M  V30 1056 C 96.0206 -4.88841 1.94733 0
M  V30 1057 O 95.0466 -5.02468 2.67422 0
M  V30 1058 N 96.2486 -5.73261 0.913884 0
M  V30 1059 H 99.0136 -1.90934 2.31007 0
M  V30 1060 H 96.5746 -0.915102 1.33557 0
M  V30 1061 H 98.5666 -3.96136 0.828147 0
M  V30 1062 H 97.1366 -3.12091 0.178361 0
M  V30 1063 H 96.3566 -2.91347 2.65539 0
M  V30 1064 H 97.6446 -4.05942 3.06738 0
M  V30 1065 H 97.0426 -5.64842 0.311476 0
M  V30 1066 H 95.5996 -6.47563 0.742015 0
M  V30 1067 N 99.0327 -1.24633 -0.964593 0
M  V30 1068 C 100.263 -1.11339 -1.74032 0
M  V30 1069 C 100.671 0.336593 -1.86182 0
M  V30 1070 O 100.014 1.24389 -1.35178 0
M  V30 1071 C 100.076 -1.68284 -3.1768 0
M  V30 1072 C 99.7397 -3.17196 -3.28992 0
M  V30 1073 C 100.737 -4.14308 -3.14078 0
M  V30 1074 C 98.4217 -3.57215 -3.53133 0
M  V30 1075 C 100.416 -5.4942 -3.23135 0
M  V30 1076 C 98.1027 -4.92468 -3.61827 0
M  V30 1077 C 99.1007 -5.8838 -3.46841 0
M  V30 1078 O 98.7887 -7.21173 -3.55197 0
M  V30 1079 H 98.5207 -0.389551 -0.552472 0
M  V30 1080 H 101.075 -1.65282 -1.21946 0
M  V30 1081 H 99.3047 -1.08777 -3.71085 0
M  V30 1082 H 100.994 -1.50234 -3.77074 0
M  V30 1083 H 101.76 -3.84731 -2.95308 0
M  V30 1084 H 97.6387 -2.83063 -3.63863 0
M  V30 1085 H 101.183 -6.24263 -3.11355 0
M  V30 1086 H 97.0797 -5.21714 -3.80111 0
M  V30 1087 H 97.8477 -7.29135 -3.71892 0
M  V30 1088 N 100.511 1.16574 -1.06058 0
M  V30 1089 C 101.458 2.20883 -0.669263 0
M  V30 1090 C 102.428 1.62729 0.332918 0
M  V30 1091 O 103.613 1.895 0.222346 0
M  V30 1092 C 100.753 3.45049 -0.0593572 0
M  V30 1093 C 99.8658 4.17458 -1.11143 0
M  V30 1094 C 99.0008 5.29135 -0.467916 0
M  V30 1095 C 98.0398 5.93343 -1.50369 0
M  V30 1096 N 97.1768 6.96516 -0.883706 0
M  V30 1097 H 102.017 2.53709 -1.5632 0
M  V30 1098 H 99.5538 1.24616 -0.781625 0
M  V30 1099 H 101.512 4.16033 0.311771 0
M  V30 1100 H 100.142 3.12781 0.797992 0
M  V30 1101 H 99.1938 3.45101 -1.60029 0
M  V30 1102 H 100.506 4.61307 -1.89731 0
M  V30 1103 H 99.6598 6.06684 -0.0436871 0
M  V30 1104 H 98.3988 4.86443 0.349864 0
M  V30 1105 H 97.4038 5.14517 -1.93784 0
M  V30 1106 H 98.6288 6.38114 -2.32352 0
M  V30 1107 H 96.5748 6.55943 -0.086595 0
M  V30 1108 H 96.4918 7.38723 -1.607 0
M  V30 1109 H 97.7598 7.77993 -0.484543 0
M  V30 1110 N 101.989 0.842826 1.3317 0
M  V30 1111 C 103.236 0.440447 1.97652 0
M  V30 1112 C 103.564 -1.00123 1.6675 0
M  V30 1113 O 102.819 -1.7155 0.941761 0
M  V30 1114 C 103.118 0.612607 3.52111 0
M  V30 1115 C 102.784 2.02297 4.02972 0
M  V30 1116 C 101.446 2.40874 4.16573 0
M  V30 1117 C 103.798 2.94402 4.30089 0
M  V30 1118 C 101.126 3.70852 4.54627 0
M  V30 1119 C 103.478 4.23865 4.69597 0
M  V30 1120 C 102.142 4.62392 4.81404 0
M  V30 1121 H 101.412 0.161171 0.72326 0
M  V30 1122 H 104.059 1.07061 1.58777 0
M  V30 1123 H 102.364 -0.100849 3.9167 0
M  V30 1124 H 104.061 0.2815 4.00011 0
M  V30 1125 H 100.651 1.71338 3.92863 0
M  V30 1126 H 104.835 2.65835 4.19101 0
M  V30 1127 H 100.091 4.00501 4.61962 0
M  V30 1128 H 104.265 4.95306 4.89536 0
M  V30 1129 H 101.892 5.63154 5.10648 0
M  V30 1130 N 103.467 -1.45747 0.599634 0
M  V30 1131 C 104.397 -2.33235 -0.111306 0
M  V30 1132 C 105.378 -1.46359 -0.866781 0
M  V30 1133 O 106.563 -1.75146 -0.838904 0
M  V30 1134 C 103.693 -3.28932 -1.11451 0
M  V30 1135 C 102.647 -4.25381 -0.472772 0
M  V30 1136 C 101.973 -5.1071 -1.58365 0
M  V30 1137 C 103.273 -5.18831 0.600948 0
M  V30 1138 H 104.967 -2.92927 0.61919 0
M  V30 1139 H 102.513 -1.40857 0.299215 0
M  V30 1140 H 104.466 -3.89002 -1.62036 0
M  V30 1141 H 103.19 -2.67381 -1.8755 0
M  V30 1142 H 101.849 -3.66598 0.0121472 0
M  V30 1143 H 101.497 -4.45533 -2.33473 0
M  V30 1144 H 101.197 -5.7604 -1.15982 0
M  V30 1145 H 102.721 -5.73647 -2.09194 0
M  V30 1146 H 104.135 -5.73019 0.179491 0
M  V30 1147 H 102.532 -5.92595 0.946076 0
M  V30 1148 H 103.602 -4.6174 1.48068 0
M  V30 1149 N 104.945 -0.338344 -1.53925 0
M  V30 1150 C 105.908 0.508299 -2.23493 0
M  V30 1151 C 106.908 1.03175 -1.23335 0
M  V30 1152 O 108.098 0.921826 -1.47811 0
M  V30 1153 C 105.23 1.70754 -2.95052 0
M  V30 1154 H 106.423 -0.100058 -2.99733 0
M  V30 1155 H 103.976 -0.0896198 -1.56043 0
M  V30 1156 H 104.711 2.35474 -2.22986 0
M  V30 1157 H 104.496 1.33946 -3.68512 0
M  V30 1158 H 105.986 2.30818 -3.48013 0
M  V30 1159 N 106.423 1.57458 -0.0668435 0
M  V30 1160 C 107.669 1.93587 0.6043 0
M  V30 1161 C 108.002 0.946722 1.69561 0
M  V30 1162 O 107.277 -0.0248516 1.94484 0
M  V30 1163 C 107.56 3.40014 1.18585 0
M  V30 1164 C 107.413 4.49685 0.101529 0
M  V30 1165 C 108.732 3.87154 2.09284 0
M  V30 1166 H 105.851 0.703958 0.218202 0
M  V30 1167 H 108.493 1.89542 -0.131804 0
M  V30 1168 H 106.643 3.43592 1.81319 0
M  V30 1169 H 108.315 4.5823 -0.531279 0
M  V30 1170 H 106.558 4.30059 -0.568487 0
M  V30 1171 H 107.229 5.49266 0.54874 0
M  V30 1172 H 109.705 3.85551 1.56491 0
M  V30 1173 H 108.581 4.90231 2.46911 0
M  V30 1174 H 108.842 3.2481 2.99918 0
M  V30 1175 N 107.901 -0.206675 1.56239 0
M  V30 1176 C 109.126 -0.949474 1.8439 0
M  V30 1177 C 109.551 -1.76549 0.649016 0
M  V30 1178 O 108.909 -1.76782 -0.402231 0
M  V30 1179 C 108.957 -1.83078 3.10668 0
M  V30 1180 O 108.061 -2.9281 2.90407 0
M  V30 1181 H 107.402 -0.268033 0.607499 0
M  V30 1182 H 109.932 -0.215488 2.03462 0
M  V30 1183 H 109.942 -2.2377 3.41161 0
M  V30 1184 H 108.617 -1.23112 3.97261 0
M  V30 1185 H 107.194 -2.55956 2.71184 0
M  V30 1186 N 109.379 -1.50304 -0.473955 0
M  V30 1187 C 110.607 -1.64902 -1.24959 0
M  V30 1188 C 111.022 -0.331198 -1.85872 0
M  V30 1189 O 110.379 0.68652 -1.69095 0
M  V30 1190 C 110.43 -2.73803 -2.36038 0
M  V30 1191 O 110.151 -4.00477 -1.77624 0
M  V30 1192 C 111.652 -2.99349 -3.26964 0
M  V30 1193 H 108.872 -0.554383 -0.378022 0
M  V30 1194 H 111.416 -1.9651 -0.566054 0
M  V30 1195 H 109.571 -2.44898 -3.00173 0
M  V30 1196 H 109.985 -4.60678 -2.5075 0
M  V30 1197 H 111.459 -3.79217 -4.01121 0
M  V30 1198 H 111.936 -2.10307 -3.85574 0
M  V30 1199 H 112.542 -3.29774 -2.68569 0
M  V30 1200 N 110.857 0.726932 -1.39834 0
M  V30 1201 C 112.134 1.47902 -1.28001 0
M  V30 1202 C 112.514 2.1083 0.106789 0
M  V30 1203 O 111.862 1.99242 1.11869 0
M  V30 1204 C 112.072 2.52392 -2.41038 0
M  V30 1205 C 113.42 3.18546 -2.80737 0
M  V30 1206 O 114.444 2.62708 -2.40547 0
M  V30 1207 O 113.303 4.19604 -3.50135 0
M  V30 1208 H 110.397 0.657163 -0.502062 0
M  V30 1209 H 112.943 0.760071 -1.51727 0
M  V30 1210 H 111.715 2.04329 -3.33715 0
M  V30 1211 H 111.338 3.31837 -2.19021 0
M  V30 1212 N 112.336 1.25143 0.95797 0
M  V30 1213 C 113.566 1.12261 1.73439 0
M  V30 1214 C 113.974 -0.326715 1.86358 0
M  V30 1215 O 113.317 -1.2367 1.35836 0
M  V30 1216 C 113.379 1.69966 3.16784 0
M  V30 1217 C 113.043 3.18936 3.27305 0
M  V30 1218 C 114.04 4.15968 3.11877 0
M  V30 1219 C 111.725 3.59083 3.51234 0
M  V30 1220 C 113.719 5.51126 3.20217 0
M  V30 1221 C 111.406 4.9438 3.5921 0
M  V30 1222 C 112.404 5.90211 3.43716 0
M  V30 1223 O 112.092 7.23046 3.51368 0
M  V30 1224 H 111.824 0.392476 0.550399 0
M  V30 1225 H 114.378 1.65927 1.21068 0
M  V30 1226 H 112.608 1.10744 3.70503 0
M  V30 1227 H 114.297 1.52232 3.76272 0
M  V30 1228 H 115.063 3.86292 2.93264 0
M  V30 1229 H 110.942 2.84989 3.62356 0
M  V30 1230 H 114.486 6.25905 3.0804 0
M  V30 1231 H 110.383 5.23723 3.77339 0
M  V30 1232 H 111.151 7.31097 3.6802 0
M  V30 1233 N 113.814 -1.1601 1.06675 0
M  V30 1234 C 114.761 -2.20525 0.680967 0
M  V30 1235 C 115.731 -1.62904 -0.324283 0
M  V30 1236 O 116.916 -1.89615 -0.212294 0
M  V30 1237 C 114.056 -3.45013 0.0776551 0
M  V30 1238 C 113.169 -4.16863 1.13355 0
M  V30 1239 C 112.304 -5.2888 0.49597 0
M  V30 1240 C 111.343 -5.92537 1.53513 0
M  V30 1241 N 110.48 -6.96038 0.920631 0
M  V30 1242 H 115.32 -2.52876 1.57663 0
M  V30 1243 H 112.857 -1.24199 0.788223 0
M  V30 1244 H 114.815 -4.16193 -0.289704 0
M  V30 1245 H 113.445 -3.132 -0.781393 0
M  V30 1246 H 112.497 -3.44248 1.61857 0
M  V30 1247 H 113.809 -4.60294 1.92174 0
M  V30 1248 H 112.963 -6.06653 0.0758604 0
M  V30 1249 H 111.702 -4.86622 -0.324062 0
M  V30 1250 H 110.707 -5.13482 1.9651 0
M  V30 1251 H 111.932 -6.36873 2.35733 0
M  V30 1252 H 109.878 -6.55888 0.12138 0
M  V30 1253 H 109.795 -7.3786 1.64616 0
M  V30 1254 H 111.063 -7.77725 0.525795 0
M  V30 1255 N 115.292 -0.849877 -1.32721 0
M  V30 1256 C 116.239 -0.289033 -2.28983 0
M  V30 1257 C 117.209 0.601324 -1.54833 0
M  V30 1258 O 118.394 0.537253 -1.8308 0
M  V30 1259 C 115.534 0.520623 -3.4115 0
M  V30 1260 C 114.647 -0.394989 -4.3019 0
M  V30 1261 C 113.782 0.426834 -5.29482 0
M  V30 1262 C 112.821 -0.486476 -6.10164 0
M  V30 1263 N 111.958 0.297879 -7.01468 0
M  V30 1264 H 116.798 -1.11519 -2.76347 0
M  V30 1265 H 114.335 -0.56138 -1.35967 0
M  V30 1266 H 116.293 1.00563 -4.04899 0
M  V30 1267 H 114.923 1.31165 -2.9495 0
M  V30 1268 H 113.975 -0.99836 -3.67065 0
M  V30 1269 H 115.287 -1.09612 -4.86607 0
M  V30 1270 H 114.441 0.975205 -5.98811 0
M  V30 1271 H 113.18 1.16136 -4.73671 0
M  V30 1272 H 112.185 -1.04677 -5.39743 0
M  V30 1273 H 113.41 -1.21953 -6.6806 0
M  V30 1274 H 111.356 1.01558 -6.48091 0
M  V30 1275 H 111.273 -0.344318 -7.55216 0
M  V30 1276 H 112.541 0.828131 -7.75089 0
M  V30 1277 N 116.77 1.45427 -0.607355 0
M  V30 1278 C 117.7 2.3329 0.0989352 0
M  V30 1279 C 118.681 1.46816 0.859007 0
M  V30 1280 O 119.866 1.75588 0.829604 0
M  V30 1281 C 116.996 3.29518 1.09705 0
M  V30 1282 C 115.95 4.25626 0.450206 0
M  V30 1283 C 115.276 5.11542 1.55655 0
M  V30 1284 C 116.576 5.18505 -0.628455 0
M  V30 1285 H 118.27 2.92595 -0.634716 0
M  V30 1286 H 115.816 1.40696 -0.306681 0
M  V30 1287 H 117.769 3.89855 1.59971 0
M  V30 1288 H 116.493 2.68372 1.86129 0
M  V30 1289 H 115.152 3.66586 -0.0315886 0
M  V30 1290 H 114.8 4.46765 2.31107 0
M  V30 1291 H 114.5 5.76647 1.12925 0
M  V30 1292 H 116.024 5.74748 2.06148 0
M  V30 1293 H 117.438 5.72916 -0.209877 0
M  V30 1294 H 115.835 5.92085 -0.977489 0
M  V30 1295 H 116.905 4.60948 -1.50514 0
M  V30 1296 N 118.248 0.346503 1.53744 0
M  V30 1297 C 119.195 -0.508914 2.25119 0
M  V30 1298 C 120.165 -1.09315 1.25058 0
M  V30 1299 O 121.35 -1.12921 1.53797 0
M  V30 1300 C 118.49 -1.65246 3.02965 0
M  V30 1301 C 117.603 -1.09525 4.17886 0
M  V30 1302 C 116.738 -2.20634 4.83212 0
M  V30 1303 C 115.777 -1.62279 5.90196 0
M  V30 1304 N 114.914 -2.67143 6.49291 0
M  V30 1305 H 119.754 0.106283 2.9781 0
M  V30 1306 H 117.291 0.0642227 1.4696 0
M  V30 1307 H 119.249 -2.32574 3.4636 0
M  V30 1308 H 117.879 -2.2386 2.32565 0
M  V30 1309 H 116.931 -0.312818 3.79112 0
M  V30 1310 H 118.243 -0.628444 4.94825 0
M  V30 1311 H 117.397 -2.95821 5.29693 0
M  V30 1312 H 116.136 -2.70659 4.05703 0
M  V30 1313 H 115.141 -0.855989 5.43096 0
M  V30 1314 H 116.366 -1.13102 6.69615 0
M  V30 1315 H 114.312 -3.16417 5.74645 0
M  V30 1316 H 114.229 -2.25093 7.21713 0
M  V30 1317 H 115.497 -3.4209 7.00425 0
M  V30 1318 N 119.726 -1.57421 0.075193 0
M  V30 1319 C 120.673 -2.12915 -0.890843 0
M  V30 1320 C 121.643 -1.04252 -1.29309 0
M  V30 1321 O 122.828 -1.31933 -1.37834 0
M  V30 1322 C 119.968 -2.69795 -2.15186 0
M  V30 1323 C 119.081 -3.92624 -1.80194 0
M  V30 1324 C 118.216 -4.37736 -3.00933 0
M  V30 1325 C 117.255 -5.53205 -2.61974 0
M  V30 1326 N 116.392 -5.9326 -3.75483 0
M  V30 1327 H 121.232 -2.95156 -0.410735 0
M  V30 1328 H 118.769 -1.45854 -0.191086 0
M  V30 1329 H 120.727 -3.00883 -2.89008 0
M  V30 1330 H 119.357 -1.90313 -2.60731 0
M  V30 1331 H 118.409 -3.67977 -0.964218 0
M  V30 1332 H 119.721 -4.76482 -1.47534 0
M  V30 1333 H 118.875 -4.70503 -3.8303 0
M  V30 1334 H 117.614 -3.52739 -3.36789 0
M  V30 1335 H 116.619 -5.20086 -1.783 0
M  V30 1336 H 117.844 -6.39936 -2.27284 0
M  V30 1337 H 115.79 -5.11212 -4.11094 0
M  V30 1338 H 115.707 -6.71865 -3.46602 0
M  V30 1339 H 116.975 -6.30651 -4.58148 0
M  V30 1340 N 121.204 0.198386 -1.56346 0
M  V30 1341 C 122.481 0.944982 -1.71258 0
M  V30 1342 C 122.861 2.0151 -0.629048 0
M  V30 1343 O 122.209 2.25639 0.360473 0
M  V30 1344 C 122.419 1.5344 -3.1346 0
M  V30 1345 C 123.767 2.01778 -3.73591 0
M  V30 1346 O 124.791 1.63288 -3.16568 0
M  V30 1347 O 123.65 2.72594 -4.73661 0
M  V30 1348 H 120.744 0.442939 -0.69838 0
M  V30 1349 H 123.29 0.188342 -1.68652 0
M  V30 1350 H 122.062 0.762869 -3.83792 0
M  V30 1351 H 121.685 2.35596 -3.20282 0
M  V30 1352 N 122.682 1.50554 0.465978 0
M  V30 1353 C 124.098 1.38093 0.800154 0
M  V30 1354 C 124.298 0.440988 1.96615 0
M  V30 1355 O 123.354 -0.114499 2.5224 0
M  V30 1356 C 124.667 2.79565 1.10742 0
M  V30 1357 C 126.215 2.88516 1.21357 0
M  V30 1358 C 126.69 4.30833 1.55393 0
M  V30 1359 N 128.181 4.33807 1.62375 0
M  V30 1360 C 128.916 5.40927 1.90225 0
M  V30 1361 N 128.412 6.58247 2.16062 0
M  V30 1362 N 130.205 5.28376 1.9177 0
M  V30 1363 H 122.356 2.10237 -0.302366 0
M  V30 1364 H 124.619 0.945203 -0.0727746 0
M  V30 1365 H 124.325 3.50208 0.323661 0
M  V30 1366 H 124.199 3.17125 2.04234 0
M  V30 1367 H 126.586 2.1809 1.98799 0
M  V30 1368 H 126.667 2.54492 0.258321 0
M  V30 1369 H 126.311 5.01799 0.784889 0
M  V30 1370 H 126.241 4.62347 2.52076 0
M  V30 1371 H 128.732 3.49212 1.44427 0
M  V30 1372 H 129.045 7.3569 2.36601 0
M  V30 1373 H 127.39 6.61413 2.13444 0
M  V30 1374 H 130.581 4.35715 1.71085 0
M  V30 1375 H 130.754 6.11944 2.13139 0
M  V30 1376 N 124.16 -0.719506 1.40217 0
M  V30 1377 C 125.571 -1.29848 1.34151 0
M  V30 1378 C 125.922 -1.96196 0.0131349 0
M  V30 1379 O 125.047 -1.973 -0.88892 0
M  V30 1380 C 125.642 -2.36118 2.42968 0
M  V30 1381 C 124.201 -2.8965 2.40374 0
M  V30 1382 C 123.348 -1.63393 2.24049 0
M  V30 1383 H 126.299 -0.51591 1.5008 0
M  V30 1384 H 126.32 -3.16871 2.10649 0
M  V30 1385 H 125.832 -1.878 3.39636 0
M  V30 1386 H 123.933 -3.42208 1.47392 0
M  V30 1387 H 124.046 -3.4171 3.35814 0
M  V30 1388 H 122.41 -1.88312 1.71495 0
M  V30 1389 H 123.193 -1.17104 3.2271 0
M  V30 1390 N 125.638 -1.25649 -0.95132 0
M  V30 1391 C 126.915 -1.01361 -1.67288 0
M  V30 1392 C 127.295 0.459135 -2.06046 0
M  V30 1393 O 126.643 1.43723 -1.7764 0
M  V30 1394 C 126.853 -1.95256 -2.89268 0
M  V30 1395 C 128.201 -2.23289 -3.61147 0
M  V30 1396 O 129.225 -1.93041 -2.99355 0
M  V30 1397 O 128.084 -2.74741 -4.72419 0
M  V30 1398 H 125.178 -0.38464 -0.732107 0
M  V30 1399 H 127.724 -1.36817 -1.00395 0
M  V30 1400 H 126.496 -2.94685 -2.57442 0
M  V30 1401 H 126.119 -1.60218 -3.6389 0
M  V30 1402 N 127.117 1.15442 -1.07289 0
M  V30 1403 C 128.364 1.86213 -0.795668 0
M  V30 1404 C 128.692 1.82291 0.678238 0
M  V30 1405 O 127.947 1.24057 1.51355 0
M  V30 1406 C 128.246 3.3489 -1.24834 0
M  V30 1407 C 127.912 3.59007 -2.72809 0
M  V30 1408 C 126.574 3.65298 -3.13227 0
M  V30 1409 C 128.926 3.68762 -3.68326 0
M  V30 1410 C 126.254 3.78854 -4.4798 0
M  V30 1411 C 128.606 3.83842 -5.0284 0
M  V30 1412 C 127.27 3.88378 -5.4288 0
M  V30 1413 H 126.54 0.681403 -0.291155 0
M  V30 1414 H 129.187 1.36435 -1.34379 0
M  V30 1415 H 127.492 3.8687 -0.619595 0
M  V30 1416 H 129.189 3.88052 -1.01076 0
M  V30 1417 H 125.779 3.5475 -2.40521 0
M  V30 1418 H 129.963 3.63202 -3.38227 0
M  V30 1419 H 125.219 3.80623 -4.78472 0
M  V30 1420 H 129.393 3.90332 -5.76727 0
M  V30 1421 H 127.02 3.98635 -6.47298 0
M  V30 1422 O 128.634 0.990954 1.27524 0
M  V30 1423 H 129.325 0.639759 1.8283 0
M  V30 END ATOM
M  V30 BEGIN BOND
M  V30 END BOND
M  V30 END CTAB
M  END
$$$$
