drugbank_target|P00973 2'-5'-oligoadenylate synthase 1 (DB02987)
 OpenBabel12092120553D

  0  0  0     0  0            999 V3000
M  V30 BEGIN CTAB
M  V30 COUNTS 6456 6540 0 0 0
M  V30 BEGIN ATOM
M  V30 1 H -0.908 1.98254 -0.117106 0
M  V30 2 N 0 1.576 0 0
M  V30 3 C 0.933 2.03868 1.02534 0
M  V30 4 C 1.911 0.928543 1.3348 0
M  V30 5 O 3.095 1.19667 1.45644 0
M  V30 6 C 0.222 2.43627 2.35294 0
M  V30 7 C -0.732 3.65373 2.2001 0
M  V30 8 S 0.101 5.13292 1.52614 0
M  V30 9 C 1.257 5.56322 2.86805 0
M  V30 10 H 1.49 2.90518 0.631377 0
M  V30 11 H -0.977 1.52953 0.210867 0
M  V30 12 H 0.981 2.67203 3.11629 0
M  V30 13 H -0.358 1.57376 2.7183 0
M  V30 14 H -1.165 3.90944 3.18086 0
M  V30 15 H -1.563 3.418 1.51819 0
M  V30 16 H 0.729 5.58782 3.83104 0
M  V30 17 H 1.672 6.56266 2.65933 0
M  V30 18 H 2.08 4.83886 2.90714 0
M  V30 19 N 1.4781 -0.272755 1.55222 0
M  V30 20 C 2.4111 -1.3627 1.83046 0
M  V30 21 C 3.3891 -1.47536 0.683521 0
M  V30 22 O 4.5731 -1.64157 0.926545 0
M  V30 23 C 1.7001 -2.73908 1.99229 0
M  V30 24 C 0.7461 -2.79925 3.21783 0
M  V30 25 S 1.5791 -2.39146 4.79134 0
M  V30 26 C 2.7351 -3.78758 4.9829 0
M  V30 27 H 2.9681 -1.12464 2.75207 0
M  V30 28 H 0.5011 -0.472398 1.46996 0
M  V30 29 H 2.4591 -3.53171 2.09238 0
M  V30 30 H 1.1201 -2.94965 1.07956 0
M  V30 31 H 0.3131 -3.80946 3.29994 0
M  V30 32 H -0.0849 -2.08683 3.10367 0
M  V30 33 H 2.2071 -4.7403 4.84047 0
M  V30 34 H 3.1501 -3.75499 6.00338 0
M  V30 35 H 3.5581 -3.70072 4.26271 0
M  V30 36 N 2.9562 -1.48159 -0.537278 0
M  V30 37 C 4.2332 -1.46291 -1.29839 0
M  V30 38 C 4.6132 -0.170613 -2.10409 0
M  V30 39 O 3.9612 0.847746 -2.12192 0
M  V30 40 C 4.1712 -2.72055 -2.18603 0
M  V30 41 C 5.5192 -3.20087 -2.7898 0
M  V30 42 O 6.5432 -2.72921 -2.28894 0
M  V30 43 O 5.4022 -4.02138 -3.70064 0
M  V30 44 H 2.4962 -0.583906 -0.585647 0
M  V30 45 H 5.0422 -1.60384 -0.554534 0
M  V30 46 H 3.8142 -3.57628 -1.58801 0
M  V30 47 H 3.4372 -2.60646 -3.00249 0
M  V30 48 N 4.4343 0.785586 -1.36625 0
M  V30 49 C 5.3643 1.91259 -1.33949 0
M  V30 50 C 6.3453 1.68795 -0.210325 0
M  V30 51 O 7.5303 1.89854 -0.408561 0
M  V30 52 C 4.6603 3.28339 -1.13186 0
M  V30 53 C 3.6143 3.65335 -2.22967 0
M  V30 54 C 2.9403 5.00806 -1.87342 0
M  V30 55 C 4.2403 3.7352 -3.65075 0
M  V30 56 H 5.9343 1.93755 -2.28253 0
M  V30 57 H 3.4803 0.930788 -1.09874 0
M  V30 58 H 5.4333 4.06804 -1.09948 0
M  V30 59 H 4.1573 3.2624 -0.153332 0
M  V30 60 H 2.8163 2.89169 -2.25337 0
M  V30 61 H 2.4643 4.95233 -0.880545 0
M  V30 62 H 2.1643 5.26529 -2.60846 0
M  V30 63 H 3.6883 5.81687 -1.85667 0
M  V30 64 H 5.1023 4.42168 -3.64911 0
M  V30 65 H 3.4993 4.10731 -4.37516 0
M  V30 66 H 4.5693 2.74527 -3.99703 0
M  V30 67 N 5.9124 1.20967 1.01018 0
M  V30 68 C 7.3284 0.965905 1.27053 0
M  V30 69 C 7.5284 -0.350785 1.98423 0
M  V30 70 O 6.5844 -1.07773 2.28344 0
M  V30 71 C 7.8974 2.15294 2.09926 0
M  V30 72 C 9.4454 2.19463 2.23171 0
M  V30 73 C 9.9204 3.3767 3.09424 0
M  V30 74 N 11.4114 3.37724 3.17012 0
M  V30 75 C 12.1464 4.25837 3.83993 0
M  V30 76 N 11.6424 5.24138 4.53047 0
M  V30 77 N 13.4354 4.1366 3.80581 0
M  V30 78 H 5.5864 2.0565 0.531194 0
M  V30 79 H 7.8494 0.90024 0.297106 0
M  V30 80 H 7.5554 3.10684 1.64828 0
M  V30 81 H 7.4294 2.13923 3.10672 0
M  V30 82 H 9.8164 1.24632 2.6749 0
M  V30 83 H 9.8974 2.2488 1.21912 0
M  V30 84 H 9.5414 4.32791 2.65808 0
M  V30 85 H 9.4714 3.29491 4.10784 0
M  V30 86 H 11.9624 2.6658 2.6785 0
M  V30 87 H 12.2754 5.87684 5.01844 0
M  V30 88 H 10.6204 5.28068 4.5185 0
M  V30 89 H 13.8114 3.36127 3.25785 0
M  V30 90 H 13.9844 4.82538 4.32505 0
M  V30 91 N 7.3905 -1.2043 1.01659 0
M  V30 92 C 8.3385 -2.25249 0.580143 0
M  V30 93 C 9.3325 -1.65057 -0.381115 0
M  V30 94 O 10.5385 -1.78241 -0.251039 0
M  V30 95 H 6.9135 -0.732695 0.169299 0
M  V30 96 H 8.8845 -2.59389 1.47512 0
M  V30 97 C 7.6335 -3.47638 -0.065788 0
M  V30 98 H 6.9565 -3.94233 0.664874 0
M  V30 99 H 8.3965 -4.2268 -0.334282 0
M  V30 100 C 6.8555 -3.10447 -1.3086 0
M  V30 101 O 7.3855 -3.21981 -2.4019 0
M  V30 102 N 5.5915 -2.64996 -1.1927 0
M  V30 103 H 5.1385 -2.55811 -0.303064 0
M  V30 104 H 5.0965 -2.40482 -2.02523 0
M  V30 105 N 8.8686 -0.792821 -1.36206 0
M  V30 106 C 10.0966 -0.378825 -2.03402 0
M  V30 107 C 10.5116 1.00586 -1.59774 0
M  V30 108 O 9.8686 1.64574 -0.788764 0
M  V30 109 C 9.9196 -0.43683 -3.58851 0
M  V30 110 O 9.6406 -1.76691 -4.00889 0
M  V30 111 C 11.1416 -0.0138943 -4.43298 0
M  V30 112 H 8.3616 -0.155673 -0.652692 0
M  V30 113 H 10.9056 -1.07261 -1.74113 0
M  V30 114 H 9.0606 0.208575 -3.86838 0
M  V30 115 H 9.4746 -1.72011 -4.95492 0
M  V30 116 H 10.9486 -0.105615 -5.51899 0
M  V30 117 H 11.4256 1.03915 -4.2673 0
M  V30 118 H 12.0316 -0.63192 -4.20579 0
M  V30 119 N 10.3467 1.47872 -0.545128 0
M  V30 120 C 11.7577 1.86384 -0.108581 0
M  V30 121 C 12.1087 1.45309 1.31832 0
M  V30 122 O 11.2337 0.850641 1.9898 0
M  V30 123 C 11.8287 3.38265 -0.190274 0
M  V30 124 C 10.3877 3.75914 0.191164 0
M  V30 125 C 9.5347 2.71926 -0.543273 0
M  V30 126 H 12.4857 1.39561 -0.755537 0
M  V30 127 H 12.5067 3.75831 0.594217 0
M  V30 128 H 12.0187 3.6813 -1.2289 0
M  V30 129 H 10.1197 3.51665 1.23136 0
M  V30 130 H 10.2327 4.78836 -0.158987 0
M  V30 131 H 8.5967 2.54697 0.0122495 0
M  V30 132 H 9.3797 3.04634 -1.58282 0
M  V30 133 N 11.8248 0.280983 1.55075 0
M  V30 134 C 12.7878 -0.590896 2.21452 0
M  V30 135 C 13.7878 -1.07682 1.19421 0
M  V30 136 O 14.9778 -0.97605 1.44288 0
M  V30 137 C 12.1098 -1.81587 2.88511 0
M  V30 138 H 13.3028 -0.0112554 2.99898 0
M  V30 139 H 10.8558 0.0316438 1.56268 0
M  V30 140 H 11.5908 -2.43587 2.14093 0
M  V30 141 H 11.3758 -1.4753 3.63287 0
M  V30 142 H 12.8658 -2.43575 3.39206 0
M  V30 143 N 13.3029 -1.57598 0.00835791 0
M  V30 144 C 14.2499 -2.08945 -0.980346 0
M  V30 145 C 15.2199 -0.986738 -1.33614 0
M  V30 146 O 16.4049 -1.25968 -1.43306 0
M  V30 147 C 13.5449 -2.60425 -2.26435 0
M  V30 148 C 12.6579 -3.84628 -1.96685 0
M  V30 149 C 11.7929 -4.24579 -3.19228 0
M  V30 150 C 10.8319 -5.41596 -2.85202 0
M  V30 151 N 9.9689 -5.768 -4.00307 0
M  V30 152 H 14.8089 -2.93148 -0.535551 0
M  V30 153 H 12.3459 -1.44912 -0.252776 0
M  V30 154 H 14.3039 -2.88354 -3.01509 0
M  V30 155 H 12.9339 -1.79083 -2.68568 0
M  V30 156 H 11.9859 -3.63556 -1.11942 0
M  V30 157 H 13.2979 -4.69796 -1.67611 0
M  V30 158 H 12.4519 -4.53834 -4.02641 0
M  V30 159 H 11.1909 -3.38137 -3.51447 0
M  V30 160 H 10.1959 -5.12056 -2.00198 0
M  V30 161 H 11.4209 -6.29721 -2.54222 0
M  V30 162 H 9.3669 -4.93316 -4.32407 0
M  V30 163 H 9.2839 -6.5656 -3.74786 0
M  V30 164 H 10.5519 -6.10652 -4.84484 0
M  V30 165 N 14.781 0.264519 -1.55364 0
M  V30 166 C 16.006 1.01726 -1.80739 0
M  V30 167 C 16.431 1.78836 -0.583044 0
M  V30 168 O 15.789 1.75167 0.467566 0
M  V30 169 C 15.837 1.94482 -3.03659 0
M  V30 170 O 14.941 3.03386 -2.7934 0
M  V30 171 H 14.282 0.290395 -0.597132 0
M  V30 172 H 16.812 0.290854 -2.02522 0
M  V30 173 H 16.822 2.36278 -3.32621 0
M  V30 174 H 15.497 1.37772 -3.92418 0
M  V30 175 H 14.074 2.65844 -2.61498 0
M  V30 176 N 16.2591 1.48442 0.529413 0
M  V30 177 C 17.1891 1.65902 1.64313 0
M  V30 178 C 18.1701 0.507897 1.6234 0
M  V30 179 O 19.3551 0.740503 1.79528 0
M  V30 180 C 16.4851 1.69911 3.02898 0
M  V30 181 C 15.4391 2.8453 3.19729 0
M  V30 182 C 14.7651 2.73629 4.59381 0
M  V30 183 C 16.0651 4.25821 3.02447 0
M  V30 184 H 17.7591 2.5914 1.49955 0
M  V30 185 H 15.3051 1.24709 0.719982 0
M  V30 186 H 17.2581 1.80715 3.80684 0
M  V30 187 H 15.9821 0.732524 3.18279 0
M  V30 188 H 14.6411 2.73283 2.44361 0
M  V30 189 H 14.2891 1.74938 4.71599 0
M  V30 190 H 13.9891 3.50541 4.71588 0
M  V30 191 H 15.5131 2.86401 5.39265 0
M  V30 192 H 16.9271 4.37898 3.70024 0
M  V30 193 H 15.3241 5.03735 3.26146 0
M  V30 194 H 16.3941 4.42244 1.98867 0
M  V30 195 N 17.7372 -0.778329 1.37039 0
M  V30 196 C 19.0142 -1.52551 1.22424 0
M  V30 197 C 19.3942 -2.10288 -0.184964 0
M  V30 198 O 18.7422 -1.94953 -1.19187 0
M  V30 199 C 18.9522 -2.61164 2.31504 0
M  V30 200 C 20.3002 -3.28746 2.68721 0
M  V30 201 O 21.3242 -2.71455 2.30631 0
M  V30 202 O 20.1832 -4.3231 3.3432 0
M  V30 203 H 17.2772 -0.675343 0.477326 0
M  V30 204 H 19.8232 -0.815859 1.48801 0
M  V30 205 H 18.5952 -2.16574 3.25901 0
M  V30 206 H 18.2182 -3.39737 2.06554 0
M  V30 207 N 19.2153 -1.21501 -1.00376 0
M  V30 208 C 20.1623 -0.975387 -2.09177 0
M  V30 209 C 21.1323 0.0990615 -1.65804 0
M  V30 210 O 22.3173 -0.0483147 -1.90739 0
M  V30 211 C 19.4573 -0.547507 -3.40729 0
M  V30 212 C 18.5703 -1.69153 -3.97506 0
M  V30 213 C 17.7053 -1.2127 -5.17172 0
M  V30 214 C 16.7443 -2.32897 -5.66061 0
M  V30 215 N 15.8813 -1.86138 -6.76976 0
M  V30 216 H 20.7213 -1.9068 -2.29009 0
M  V30 217 H 18.2583 -0.950257 -1.12288 0
M  V30 218 H 20.2163 -0.280667 -4.16255 0
M  V30 219 H 18.8463 0.346904 -3.20931 0
M  V30 220 H 17.8983 -2.07298 -3.18954 0
M  V30 221 H 19.2103 -2.5316 -4.29781 0
M  V30 222 H 18.3643 -0.902591 -5.99948 0
M  V30 223 H 17.1033 -0.342692 -4.86495 0
M  V30 224 H 16.1083 -2.64709 -4.81881 0
M  V30 225 H 17.3333 -3.20396 -5.98768 0
M  V30 226 H 15.2793 -1.01484 -6.48103 0
M  V30 227 H 15.1963 -2.63717 -7.08512 0
M  V30 228 H 16.4643 -1.58165 -7.63285 0
M  V30 229 N 20.6934 1.19889 -1.02296 0
M  V30 230 C 21.9404 1.8942 -0.715972 0
M  V30 231 C 22.2684 1.79251 0.754944 0
M  V30 232 O 21.5234 1.17526 1.56481 0
M  V30 233 C 21.8224 3.39883 -1.10518 0
M  V30 234 C 21.4884 3.70254 -2.57337 0
M  V30 235 C 20.1504 3.78254 -2.97452 0
M  V30 236 C 22.5024 3.84052 -3.52354 0
M  V30 237 C 19.8304 3.97514 -4.31509 0
M  V30 238 C 22.1824 4.04824 -4.86108 0
M  V30 239 C 20.8464 4.11054 -5.25919 0
M  V30 240 H 20.1164 0.693138 -0.261993 0
M  V30 241 H 22.7634 1.42012 -1.28472 0
M  V30 242 H 21.0684 3.8915 -0.454953 0
M  V30 243 H 22.7654 3.9199 -0.845261 0
M  V30 244 H 19.3554 3.64632 -2.25258 0
M  V30 245 H 23.5394 3.77221 -3.22518 0
M  V30 246 H 18.7954 4.00574 -4.61898 0
M  V30 247 H 22.9694 4.14442 -5.59653 0
M  V30 248 H 20.5964 4.2573 -6.29808 0
M  V30 249 N 22.1715 0.800033 1.35784 0
M  V30 250 C 23.4205 0.37387 1.98205 0
M  V30 251 C 23.7335 -1.06302 1.64193 0
M  V30 252 O 24.9395 -1.59198 2.19928 0
M  V30 253 C 23.3955 0.617532 3.54562 0
M  V30 254 C 23.0035 2.06654 3.9749 0
M  V30 255 C 24.7475 0.256401 4.23725 0
M  V30 256 C 22.6545 2.2563 5.46667 0
M  V30 257 H 21.5845 0.136055 0.741623 0
M  V30 258 H 24.2355 0.983166 1.54939 0
M  V30 259 H 22.6175 -0.0616248 3.95952 0
M  V30 260 H 23.7915 2.78296 3.67271 0
M  V30 261 H 22.1065 2.38691 3.41197 0
M  V30 262 H 24.7035 0.376318 5.33374 0
M  V30 263 H 25.0465 -0.796692 4.08606 0
M  V30 264 H 25.5795 0.889214 3.87734 0
M  V30 265 H 22.3185 3.2936 5.66747 0
M  V30 266 H 21.8385 1.58504 5.78478 0
M  V30 267 H 23.5175 2.06861 6.1304 0
M  V30 268 N 23.6496 -1.47581 0.552962 0
M  V30 269 C 24.5596 -2.33743 -0.200353 0
M  V30 270 C 25.5756 -1.47928 -0.916151 0
M  V30 271 O 26.7516 -1.80865 -0.885993 0
M  V30 272 C 23.8166 -3.24536 -1.21973 0
M  V30 273 C 22.8776 -4.26238 -0.511819 0
M  V30 274 C 22.1106 -5.12693 -1.48263 0
M  V30 275 O 22.3336 -5.01525 -2.71714 0
M  V30 276 O 21.2676 -5.93375 -1.00945 0
M  V30 277 H 25.0936 -2.9945 0.506304 0
M  V30 278 H 22.6786 -1.46071 0.313622 0
M  V30 279 H 24.5606 -3.80631 -1.80827 0
M  V30 280 H 23.2356 -2.61462 -1.90839 0
M  V30 281 H 22.1426 -3.73914 0.117799 0
M  V30 282 H 23.4756 -4.92014 0.135308 0
M  V30 283 N 25.1277 -0.289203 -1.54924 0
M  V30 284 C 26.4047 0.376032 -1.91951 0
M  V30 285 C 26.7847 1.72622 -1.21511 0
M  V30 286 O 26.1327 2.25853 -0.346767 0
M  V30 287 C 26.3427 0.502378 -3.45365 0
M  V30 288 C 27.6907 0.778741 -4.17398 0
M  V30 289 O 28.7147 0.586647 -3.51336 0
M  V30 290 O 27.5737 1.14698 -5.34328 0
M  V30 291 H 24.6677 0.208167 -0.800372 0
M  V30 292 H 27.2137 -0.336394 -1.66332 0
M  V30 293 H 25.9857 -0.447255 -3.88736 0
M  V30 294 H 25.6087 1.26373 -3.76982 0
M  V30 295 N 26.6058 1.57591 -0.0167156 0
M  V30 296 C 27.8358 1.95292 0.674149 0
M  V30 297 C 28.2438 0.891097 1.66901 0
M  V30 298 O 27.5868 -0.136908 1.83189 0
M  V30 299 C 27.6488 3.29072 1.44747 0
M  V30 300 C 27.3128 4.52879 0.612331 0
M  V30 301 C 28.3098 5.1979 -0.107126 0
M  V30 302 C 25.9948 4.99242 0.553381 0
M  V30 303 C 27.9888 6.31375 -0.874339 0
M  V30 304 C 25.6758 6.10713 -0.217546 0
M  V30 305 C 26.6738 6.76637 -0.930123 0
M  V30 306 O 26.3618 7.85969 -1.68844 0
M  V30 307 H 26.0938 0.648275 0.191615 0
M  V30 308 H 28.6478 2.05284 -0.0690148 0
M  V30 309 H 26.8778 3.15535 2.2355 0
M  V30 310 H 28.5668 3.51764 2.02526 0
M  V30 311 H 29.3328 4.84948 -0.0708392 0
M  V30 312 H 25.2118 4.47744 1.09757 0
M  V30 313 H 28.7558 6.82764 -1.43106 0
M  V30 314 H 24.6528 6.44994 -0.255593 0
M  V30 315 H 25.4208 8.02571 -1.6069 0
M  V30 316 N 28.0839 -0.256276 1.55502 0
M  V30 317 C 29.0139 -1.32102 1.92539 0
M  V30 318 C 29.9949 -1.50684 0.789194 0
M  V30 319 O 31.1799 -1.63449 1.04872 0
M  V30 320 C 28.3099 -2.67752 2.21192 0
M  V30 321 C 27.2639 -2.63878 3.36975 0
M  V30 322 C 26.5899 -4.03236 3.51147 0
M  V30 323 C 27.8899 -2.21682 4.72921 0
M  V30 324 H 29.5839 -1.01351 2.81724 0
M  V30 325 H 27.1299 -0.486105 1.35547 0
M  V30 326 H 29.0829 -3.42365 2.45691 0
M  V30 327 H 27.8069 -3.0012 1.28824 0
M  V30 328 H 26.4659 -1.91722 3.12471 0
M  V30 329 H 26.1139 -4.32854 2.56216 0
M  V30 330 H 25.8139 -4.01535 4.29003 0
M  V30 331 H 27.3379 -4.79563 3.77957 0
M  V30 332 H 28.7519 -2.86023 4.96854 0
M  V30 333 H 27.1489 -2.3111 5.53812 0
M  V30 334 H 28.2189 -1.16833 4.70615 0
M  V30 335 N 29.562 -1.4872 -0.521534 0
M  V30 336 C 30.492 -1.66771 -1.63431 0
M  V30 337 C 31.473 -0.516499 -1.62069 0
M  V30 338 O 32.658 -0.750013 -1.79132 0
M  V30 339 C 29.788 -1.71515 -3.01993 0
M  V30 340 C 28.742 -2.86222 -3.18216 0
M  V30 341 C 28.068 -2.76061 -4.57924 0
M  V30 342 C 29.368 -4.27419 -3.00184 0
M  V30 343 H 31.062 -2.59932 -1.48579 0
M  V30 344 H 28.608 -1.25089 -0.713358 0
M  V30 345 H 30.561 -1.82731 -3.7972 0
M  V30 346 H 29.285 -0.749393 -3.17886 0
M  V30 347 H 27.944 -2.74575 -2.42908 0
M  V30 348 H 27.592 -1.77437 -4.70665 0
M  V30 349 H 27.292 -3.53037 -4.69722 0
M  V30 350 H 28.816 -2.89256 -5.37739 0
M  V30 351 H 30.23 -4.39855 -3.67697 0
M  V30 352 H 28.627 -5.05458 -3.2347 0
M  V30 353 H 29.697 -4.43293 -1.96518 0
M  V30 354 N 31.0401 0.771051 -1.3745 0
M  V30 355 C 32.4511 1.34737 -1.29239 0
M  V30 356 C 32.8021 1.96109 0.0596908 0
M  V30 357 O 31.9271 1.93865 0.961534 0
M  V30 358 C 32.5221 2.44973 -2.34037 0
M  V30 359 C 31.0811 2.98372 -2.29458 0
M  V30 360 C 30.2281 1.71595 -2.17831 0
M  V30 361 H 33.1791 0.571256 -1.48062 0
M  V30 362 H 33.2001 3.24471 -1.98744 0
M  V30 363 H 32.7121 2.00276 -3.32432 0
M  V30 364 H 30.8131 3.47443 -1.34589 0
M  V30 365 H 30.9261 3.53939 -3.229 0
M  V30 366 H 29.2901 1.94547 -1.64388 0
M  V30 367 H 30.0731 1.29001 -3.18141 0
M  V30 368 N 32.5182 1.22032 0.997298 0
M  V30 369 C 33.7952 0.950823 1.70935 0
M  V30 370 C 34.1752 -0.535292 2.042 0
M  V30 371 O 33.5232 -1.50217 1.72183 0
M  V30 372 C 33.7332 1.84386 2.96315 0
M  V30 373 C 35.0812 2.09732 3.69185 0
M  V30 374 O 36.1052 1.81798 3.06314 0
M  V30 375 O 34.9642 2.57018 4.82291 0
M  V30 376 H 32.0582 0.357204 0.745878 0
M  V30 377 H 34.6042 1.32997 1.05404 0
M  V30 378 H 33.3762 2.84928 2.68201 0
M  V30 379 H 32.9992 1.46602 3.69586 0
M  V30 380 N 33.9963 -1.19345 1.0293 0
M  V30 381 C 35.2243 -1.92997 0.745644 0
M  V30 382 C 35.6393 -1.75519 -0.695589 0
M  V30 383 O 34.9963 -1.07737 -1.47306 0
M  V30 384 C 35.0473 -3.44741 1.08792 0
M  V30 385 O 34.7683 -3.61658 2.47256 0
M  V30 386 C 36.2693 -4.35515 0.827129 0
M  V30 387 H 33.4893 -0.613042 0.272801 0
M  V30 388 H 36.0333 -1.51473 1.3739 0
M  V30 389 H 34.1883 -3.84097 0.504832 0
M  V30 390 H 34.6023 -4.55514 2.60015 0
M  V30 391 H 36.0763 -5.40589 1.11658 0
M  V30 392 H 36.5533 -4.38552 -0.238436 0
M  V30 393 H 37.1593 -4.01841 1.39297 0
M  V30 394 N 35.4744 -0.807222 -1.35358 0
M  V30 395 C 36.7144 -0.393534 -2.00576 0
M  V30 396 C 37.0784 1.0203 -1.62647 0
M  V30 397 O 38.2794 1.53603 -2.20589 0
M  V30 398 C 36.5504 -0.572017 -3.52793 0
M  V30 399 S 38.1094 -0.248845 -4.38094 0
M  V30 400 H 34.9274 -0.149425 -0.695121 0
M  V30 401 H 37.5294 -1.04961 -1.64935 0
M  V30 402 H 36.2334 -1.60097 -3.77885 0
M  V30 403 H 35.7644 0.099359 -3.93275 0
M  V30 404 H 37.7794 0.943253 -4.87152 0
M  V30 405 N 36.9525 1.47285 -0.560781 0
M  V30 406 C 38.1995 2.02464 -0.038062 0
M  V30 407 C 38.5275 1.43474 1.31322 0
M  V30 408 O 37.7825 0.581311 1.86867 0
M  V30 409 C 38.0815 3.57258 0.100784 0
M  V30 410 C 37.7475 4.35184 -1.18007 0
M  V30 411 C 36.4095 4.56194 -1.53103 0
M  V30 412 C 38.7615 4.80098 -2.02867 0
M  V30 413 C 36.0895 5.19367 -2.729 0
M  V30 414 C 38.4415 5.44593 -3.21871 0
M  V30 415 C 37.1055 5.63835 -3.57276 0
M  V30 416 H 36.3755 0.740869 -0.0139279 0
M  V30 417 H 39.0225 1.76916 -0.733012 0
M  V30 418 H 37.3275 3.81819 0.878724 0
M  V30 419 H 39.0245 3.97606 0.520639 0
M  V30 420 H 35.6145 4.19113 -0.8968 0
M  V30 421 H 39.7985 4.63642 -1.7706 0
M  V30 422 H 35.0545 5.32459 -3.00496 0
M  V30 423 H 39.2285 5.78358 -3.87911 0
M  V30 424 H 36.8555 6.12557 -4.50197 0
M  V30 425 N 38.4306 0.297415 1.54768 0
M  V30 426 C 39.8466 -0.0560823 1.59501 0
M  V30 427 C 40.0466 -1.52725 1.31444 0
M  V30 428 O 39.1026 -2.27947 1.08611 0
M  V30 429 C 40.4156 0.338631 2.98787 0
M  V30 430 C 41.9636 0.287097 3.11681 0
M  V30 431 C 42.4386 0.656579 4.53269 0
M  V30 432 N 43.9296 0.608977 4.59179 0
M  V30 433 C 44.6646 0.867385 5.66802 0
M  V30 434 N 44.1606 1.19157 6.82476 0
M  V30 435 N 45.9536 0.794687 5.56454 0
M  V30 436 H 38.1046 1.25624 1.71267 0
M  V30 437 H 40.3676 0.509057 0.799728 0
M  V30 438 H 40.0736 1.36263 3.2423 0
M  V30 439 H 39.9476 -0.309508 3.75928 0
M  V30 440 H 42.3346 -0.727649 2.85988 0
M  V30 441 H 42.4156 0.969809 2.36703 0
M  V30 442 H 42.0596 1.66912 4.7969 0
M  V30 443 H 41.9896 -0.0481649 5.26578 0
M  V30 444 H 44.4806 0.369198 3.76092 0
M  V30 445 H 44.7936 1.37482 7.60473 0
M  V30 446 H 43.1386 1.22958 6.84037 0
M  V30 447 H 46.3296 0.541098 4.64962 0
M  V30 448 H 46.5026 0.999445 6.40246 0
M  V30 449 N 39.9087 -1.5758 0.0250728 0
M  V30 450 C 40.8417 -2.05473 -0.992777 0
M  V30 451 C 41.8197 -0.949661 -1.31986 0
M  V30 452 O 43.0037 -1.21969 -1.43722 0
M  V30 453 C 40.1307 -2.4734 -2.31389 0
M  V30 454 C 39.1767 -3.68827 -2.1417 0
M  V30 455 S 40.0097 -5.15655 -1.44429 0
M  V30 456 C 41.1657 -5.60814 -2.77918 0
M  V30 457 H 41.3987 -2.91486 -0.585078 0
M  V30 458 H 38.9317 -1.53269 -0.186507 0
M  V30 459 H 40.8897 -2.72127 -3.07339 0
M  V30 460 H 39.5507 -1.6168 -2.69292 0
M  V30 461 H 38.7437 -3.95955 -3.11826 0
M  V30 462 H 38.3457 -3.44172 -1.46362 0
M  V30 463 H 40.6377 -5.64806 -3.74166 0
M  V30 464 H 41.5807 -6.60414 -2.55459 0
M  V30 465 H 41.9887 -4.8845 -2.82979 0
M  V30 466 N 41.3868 0.248026 -1.55636 0
M  V30 467 C 42.3188 1.32993 -1.8667 0
M  V30 468 C 43.3318 1.44345 -0.752877 0
M  V30 469 O 44.5208 1.45715 -1.03098 0
M  V30 470 C 41.6208 2.70863 -2.03682 0
M  V30 471 C 40.7938 2.81792 -3.34532 0
M  V30 472 C 39.8528 4.005 -3.41301 0
M  V30 473 O 38.8788 3.9008 -4.14519 0
M  V30 474 N 40.0808 5.13618 -2.70512 0
M  V30 475 H 42.8458 1.06707 -2.8006 0
M  V30 476 H 40.4068 0.438129 -1.55859 0
M  V30 477 H 42.3988 3.48612 -2.05553 0
M  V30 478 H 40.9688 2.89862 -1.17041 0
M  V30 479 H 40.1888 1.90729 -3.44987 0
M  V30 480 H 41.4768 2.86043 -4.20781 0
M  V30 481 H 40.8748 5.24975 -2.10755 0
M  V30 482 H 39.4318 5.89505 -2.78077 0
M  V30 483 N 42.8649 1.48995 0.513639 0
M  V30 484 C 44.1139 1.57093 1.2651 0
M  V30 485 C 44.4269 0.257091 1.93903 0
M  V30 486 O 45.6329 0.216478 2.70636 0
M  V30 487 C 44.0889 2.77118 2.29638 0
M  V30 488 C 43.6969 4.15209 1.68241 0
M  V30 489 C 45.4409 2.94538 3.05692 0
M  V30 490 C 43.3479 5.26474 2.69406 0
M  V30 491 H 42.2779 0.584876 0.475854 0
M  V30 492 H 44.9289 1.7536 0.540487 0
M  V30 493 H 43.3109 2.52319 3.05207 0
M  V30 494 H 44.4849 4.50094 0.987505 0
M  V30 495 H 42.7999 4.03042 1.04623 0
M  V30 496 H 45.3969 3.74832 3.8132 0
M  V30 497 H 45.7399 2.04614 3.62545 0
M  V30 498 H 46.2729 3.19316 2.37238 0
M  V30 499 H 43.0119 6.18417 2.17351 0
M  V30 500 H 42.5319 4.96058 3.37175 0
M  V30 501 H 44.2109 5.55277 3.32078 0
M  V30 502 N 44.343 -0.763751 1.37857 0
M  V30 503 C 45.291 -1.89864 1.34367 0
M  V30 504 C 46.285 -1.67816 0.231143 0
M  V30 505 O 47.491 -1.75508 0.399617 0
M  V30 506 H 43.866 -0.624501 0.41893 0
M  V30 507 H 45.837 -1.89925 2.30155 0
M  V30 508 C 44.586 -3.27227 1.1755 0
M  V30 509 H 43.909 -3.44773 2.02414 0
M  V30 510 H 45.349 -4.06911 1.1916 0
M  V30 511 C 43.808 -3.36692 -0.118311 0
M  V30 512 O 44.338 -3.86374 -1.09902 0
M  V30 513 N 42.544 -2.90092 -0.171717 0
M  V30 514 H 42.091 -2.49853 0.627012 0
M  V30 515 H 42.049 -2.96806 -1.03699 0
M  V30 516 N 45.8211 -1.22559 -0.990812 0
M  V30 517 C 46.7711 -0.964807 -2.0658 0
M  V30 518 C 47.7551 0.0853472 -1.60673 0
M  V30 519 O 48.9471 -0.125443 -1.76555 0
M  V30 520 C 46.0761 -0.546707 -3.38919 0
M  V30 521 C 45.1621 -1.6317 -3.91454 0
M  V30 522 N 45.5531 -2.85985 -4.17189 0
M  V30 523 C 43.8511 -1.50387 -4.19881 0
M  V30 524 C 44.5521 -3.56159 -4.59919 0
M  V30 525 N 43.5281 -2.83637 -4.63736 0
M  V30 526 H 47.3301 -1.89769 -2.24421 0
M  V30 527 H 44.8441 -1.12343 -1.17273 0
M  V30 528 H 46.8411 -0.34119 -4.15502 0
M  V30 529 H 45.5011 0.379254 -3.22478 0
M  V30 530 H 46.5121 -3.22392 -4.05319 0
M  V30 531 H 43.1891 -0.644254 -4.12499 0
M  V30 532 H 44.5791 -4.6139 -4.88435 0
M  V30 533 N 47.2992 1.18797 -1.03562 0
M  V30 534 C 48.2622 2.20464 -0.626769 0
M  V30 535 C 49.2622 1.57721 0.313173 0
M  V30 536 O 50.4522 1.73917 0.0992615 0
M  V30 537 C 47.5842 3.40802 0.0818498 0
M  V30 538 H 48.7772 2.58149 -1.5264 0
M  V30 539 H 46.3302 1.32593 -0.827578 0
M  V30 540 H 47.0652 3.08642 0.995518 0
M  V30 541 H 46.8502 3.8758 -0.593652 0
M  V30 542 H 48.3402 4.16092 0.354584 0
M  V30 543 N 48.7773 0.814389 1.34928 0
M  V30 544 C 50.0263 0.394871 1.97797 0
M  V30 545 C 50.3393 -1.04555 1.65311 0
M  V30 546 O 51.5453 -1.56856 2.21604 0
M  V30 547 C 50.0013 0.655103 3.53888 0
M  V30 548 C 49.6093 2.10858 3.95276 0
M  V30 549 C 51.3533 0.301329 4.23429 0
M  V30 550 C 49.2603 2.31415 5.44244 0
M  V30 551 H 48.1903 0.143913 0.740139 0
M  V30 552 H 50.8413 0.999544 1.53888 0
M  V30 553 H 49.2233 -0.0196253 3.95995 0
M  V30 554 H 50.3973 2.82176 3.64298 0
M  V30 555 H 48.7123 2.42297 3.38646 0
M  V30 556 H 51.3093 0.432869 5.32945 0
M  V30 557 H 51.6523 -0.75331 4.09428 0
M  V30 558 H 52.1853 0.930288 3.86769 0
M  V30 559 H 48.9243 3.35353 5.63222 0
M  V30 560 H 48.4443 1.6463 5.76764 0
M  V30 561 H 50.1233 2.13352 6.10811 0
M  V30 562 N 50.2554 -1.46986 0.568584 0
M  V30 563 C 51.5324 -1.95592 -0.0174074 0
M  V30 564 C 51.9124 -1.51124 -1.47393 0
M  V30 565 O 51.2604 -0.755329 -2.15655 0
M  V30 566 C 51.4704 -3.48719 0.139913 0
M  V30 567 C 52.8184 -4.246 0.000426376 0
M  V30 568 O 53.8424 -3.56135 0.0680316 0
M  V30 569 O 52.7014 -5.46302 -0.146988 0
M  V30 570 H 49.7954 -0.82498 -0.0577599 0
M  V30 571 H 52.3414 -1.57335 0.635909 0
M  V30 572 H 51.1134 -3.73927 1.15301 0
M  V30 573 H 50.7364 -3.93771 -0.550491 0
M  V30 574 N 51.7335 -0.305618 -1.54608 0
M  V30 575 C 52.9825 0.303098 -1.9941 0
M  V30 576 C 53.2955 1.54648 -1.19764 0
M  V30 577 O 54.5015 2.23007 -1.54855 0
M  V30 578 C 52.9575 0.590588 -3.55021 0
M  V30 579 C 52.5655 -0.634719 -4.43481 0
M  V30 580 C 54.3095 1.16025 -4.08336 0
M  V30 581 C 52.2165 -0.320126 -5.90533 0
M  V30 582 H 51.1465 0.117031 -0.744862 0
M  V30 583 H 53.7975 -0.415045 -1.78745 0
M  V30 584 H 52.1795 1.36845 -3.71604 0
M  V30 585 H 53.3535 -1.41079 -4.38672 0
M  V30 586 H 51.6685 -1.12333 -4.00962 0
M  V30 587 H 54.2655 1.40994 -5.15776 0
M  V30 588 H 54.6085 2.10397 -3.5922 0
M  V30 589 H 55.1415 0.443985 -3.95315 0
M  V30 590 H 51.8805 -1.23254 -6.43808 0
M  V30 591 H 51.4005 0.418579 -5.98338 0
M  V30 592 H 53.0795 0.0766241 -6.46955 0
M  V30 593 N 53.2116 1.57565 -0.0334293 0
M  V30 594 C 54.4606 1.91155 0.643639 0
M  V30 595 C 54.7736 0.91192 1.73042 0
M  V30 596 O 55.9796 1.13923 2.46442 0
M  V30 597 C 54.4356 3.39443 1.1961 0
M  V30 598 C 54.0436 4.47774 0.142381 0
M  V30 599 C 55.7876 3.82094 1.84944 0
M  V30 600 C 53.6946 5.87162 0.706727 0
M  V30 601 H 52.6246 0.713368 0.244176 0
M  V30 602 H 55.2756 1.8323 -0.0994323 0
M  V30 603 H 53.6576 3.42313 1.99092 0
M  V30 604 H 54.8316 4.56469 -0.630296 0
M  V30 605 H 53.1466 4.14352 -0.412446 0
M  V30 606 H 55.7436 4.83591 2.2813 0
M  V30 607 H 56.0866 3.17386 2.69392 0
M  V30 608 H 56.6196 3.81665 1.12145 0
M  V30 609 H 53.3586 6.55424 -0.0997178 0
M  V30 610 H 52.8786 5.82064 1.44779 0
M  V30 611 H 54.5576 6.35866 1.19514 0
M  V30 612 N 54.6897 -0.239769 1.55765 0
M  V30 613 C 55.9297 -0.974076 1.79697 0
M  V30 614 C 56.2937 -1.82249 0.604088 0
M  V30 615 O 57.4947 -2.58913 0.722324 0
M  V30 616 C 55.7657 -1.80595 3.08416 0
M  V30 617 S 57.3247 -2.59838 3.53596 0
M  V30 618 H 54.1427 -0.327524 0.63107 0
M  V30 619 H 56.7447 -0.241277 1.94005 0
M  V30 620 H 55.4487 -1.17249 3.93295 0
M  V30 621 H 54.9797 -2.58137 2.96865 0
M  V30 622 H 56.9947 -3.82987 3.15492 0
M  V30 623 N 56.1678 -1.49265 -0.50573 0
M  V30 624 C 57.4158 -1.582 -1.25766 0
M  V30 625 C 57.7368 -0.268482 -1.93143 0
M  V30 626 O 57.0068 0.711833 -1.8251 0
M  V30 627 H 55.5868 -0.582873 -0.467191 0
M  V30 628 H 58.2488 -1.85865 -0.586525 0
M  V30 629 H 57.3448 -2.37563 -2.02412 0
M  V30 630 N 57.6459 0.756429 -1.3826 0
M  V30 631 C 58.8929 1.51547 -1.34312 0
M  V30 632 C 59.2209 1.94382 0.0677144 0
M  V30 633 O 58.4759 1.65514 1.04421 0
M  V30 634 C 58.7749 2.78313 -2.24224 0
M  V30 635 C 58.4409 2.54455 -3.72241 0
M  V30 636 C 57.1029 2.47657 -4.12576 0
M  V30 637 C 59.4549 2.3354 -4.65949 0
M  V30 638 C 56.7829 2.17956 -5.44713 0
M  V30 639 C 59.1349 2.05359 -5.9834 0
M  V30 640 C 57.7989 1.97016 -6.37762 0
M  V30 641 H 57.0689 0.55455 -0.491482 0
M  V30 642 H 59.7159 0.870039 -1.70595 0
M  V30 643 H 58.0209 3.47492 -1.80987 0
M  V30 644 H 59.7179 3.36259 -2.18474 0
M  V30 645 H 56.3079 2.60616 -3.40261 0
M  V30 646 H 60.4919 2.37772 -4.35635 0
M  V30 647 H 55.7479 2.10003 -5.74203 0
M  V30 648 H 59.9219 1.88179 -6.70494 0
M  V30 649 H 57.5489 1.73766 -7.40074 0
M  V30 650 N 59.124 1.23083 0.984299 0
M  V30 651 C 60.054 1.03292 2.09411 0
M  V30 652 C 61.035 -0.048923 1.7003 0
M  V30 653 O 62.22 0.114967 1.93859 0
M  V30 654 C 59.35 0.619155 3.41736 0
M  V30 655 C 58.304 1.64791 3.95004 0
M  V30 656 C 57.63 1.0897 5.23478 0
M  V30 657 C 58.93 3.03999 4.24714 0
M  V30 658 H 60.624 1.96119 2.26225 0
M  V30 659 H 58.17 0.944344 1.08711 0
M  V30 660 H 60.123 0.467777 4.18796 0
M  V30 661 H 58.847 -0.344786 3.24775 0
M  V30 662 H 57.506 1.78721 3.20085 0
M  V30 663 H 57.154 0.11686 5.02864 0
M  V30 664 H 56.854 1.77704 5.60085 0
M  V30 665 H 58.378 0.950093 6.03163 0
M  V30 666 H 59.792 2.93393 4.92538 0
M  V30 667 H 58.189 3.69936 4.72512 0
M  V30 668 H 59.259 3.53285 3.32142 0
M  V30 669 N 60.6021 -1.18246 1.0419 0
M  V30 670 C 61.5491 -2.2192 0.634037 0
M  V30 671 C 62.5191 -1.62179 -0.358765 0
M  V30 672 O 63.7041 -1.89122 -0.252466 0
M  V30 673 C 60.8441 -3.451 0.00445535 0
M  V30 674 C 59.9571 -4.19174 1.04487 0
M  V30 675 C 59.0921 -5.29813 0.383676 0
M  V30 676 C 58.1311 -5.9566 1.4091 0
M  V30 677 N 57.2681 -6.97834 0.772784 0
M  V30 678 H 62.1081 -2.56164 1.52263 0
M  V30 679 H 59.6451 -1.25843 0.761701 0
M  V30 680 H 61.6031 -4.15485 -0.377919 0
M  V30 681 H 60.2331 -3.11472 -0.847652 0
M  V30 682 H 59.2851 -3.47604 1.54518 0
M  V30 683 H 60.5971 -4.64267 1.82368 0
M  V30 684 H 59.7511 -6.06677 -0.0528366 0
M  V30 685 H 58.4901 -4.85825 -0.427208 0
M  V30 686 H 57.4951 -5.17535 1.85574 0
M  V30 687 H 58.7201 -6.4173 2.22171 0
M  V30 688 H 56.6661 -6.55998 -0.0177708 0
M  V30 689 H 56.5831 -7.41186 1.48928 0
M  V30 690 H 57.8511 -7.78665 0.36071 0
M  V30 691 N 62.0802 -0.821533 -1.34494 0
M  V30 692 C 62.9902 -0.244355 -2.33324 0
M  V30 693 C 64.0062 0.620527 -1.62559 0
M  V30 694 O 65.1822 0.528754 -1.94335 0
M  V30 695 C 62.2472 0.585368 -3.41723 0
M  V30 696 C 61.3082 -0.301752 -4.28238 0
M  V30 697 C 60.5412 0.488466 -5.3146 0
M  V30 698 O 60.7642 1.72186 -5.4379 0
M  V30 699 O 59.6982 -0.12848 -6.01763 0
M  V30 700 H 63.5242 -1.06231 -2.84515 0
M  V30 701 H 61.1092 -0.583645 -1.37528 0
M  V30 702 H 62.9912 1.05747 -4.07916 0
M  V30 703 H 61.6662 1.38068 -2.92778 0
M  V30 704 H 60.5732 -0.821315 -3.64973 0
M  V30 705 H 61.9062 -1.06138 -4.8062 0
M  V30 706 N 63.5583 1.46682 -0.576371 0
M  V30 707 C 64.9743 1.57822 -0.237562 0
M  V30 708 C 65.1743 1.57237 1.26011 0
M  V30 709 O 64.2303 1.48596 2.04146 0
M  V30 710 C 65.5433 2.87499 -0.881168 0
M  V30 711 C 67.0913 3.01119 -0.85417 0
M  V30 712 C 67.5663 4.33524 -1.4772 0
M  V30 713 N 69.0573 4.40207 -1.44125 0
M  V30 714 C 69.7923 5.4126 -1.89276 0
M  V30 715 N 69.2883 6.49021 -2.42371 0
M  V30 716 N 71.0813 5.32422 -1.80231 0
M  V30 717 H 63.2323 1.45306 -1.54919 0
M  V30 718 H 65.4953 0.692733 -0.647167 0
M  V30 719 H 65.2013 2.9372 -1.93447 0
M  V30 720 H 65.0753 3.75224 -0.385592 0
M  V30 721 H 67.4623 2.94485 0.190491 0
M  V30 722 H 67.5433 2.14887 -1.3877 0
M  V30 723 H 67.1873 4.40916 -2.52103 0
M  V30 724 H 67.1173 5.1852 -0.918947 0
M  V30 725 H 69.6083 3.62931 -1.05307 0
M  V30 726 H 69.9213 7.2233 -2.74698 0
M  V30 727 H 68.2663 6.49858 -2.46393 0
M  V30 728 H 71.4573 4.47137 -1.38514 0
M  V30 729 H 71.6303 6.11034 -2.15735 0
M  V30 730 N 65.0364 0.313813 1.54444 0
M  V30 731 C 66.2764 -0.292389 2.02298 0
M  V30 732 C 66.6404 -1.50105 1.19719 0
M  V30 733 O 67.8414 -2.17947 1.5733 0
M  V30 734 C 66.1124 -0.627682 3.51845 0
M  V30 735 S 67.6714 -1.21493 4.21646 0
M  V30 736 H 64.4894 -0.0890247 0.705405 0
M  V30 737 H 67.0914 0.444668 1.90376 0
M  V30 738 H 65.7954 0.260265 4.09574 0
M  V30 739 H 65.3264 -1.39519 3.67829 0
M  V30 740 H 67.3414 -2.5022 4.28491 0
M  V30 741 N 66.5145 -1.57545 0.0417849 0
M  V30 742 C 67.7615 -1.92317 -0.634082 0
M  V30 743 C 68.0895 -0.919334 -1.71402 0
M  V30 744 O 67.3445 0.0698253 -1.95575 0
M  V30 745 C 67.6435 -3.33794 -1.27735 0
M  V30 746 C 67.3095 -4.49716 -0.326543 0
M  V30 747 C 65.9715 -4.81156 -0.0648814 0
M  V30 748 C 68.3235 -5.20182 0.325623 0
M  V30 749 C 65.6515 -5.80414 0.856539 0
M  V30 750 C 68.0035 -6.20424 1.23518 0
M  V30 751 C 66.6675 -6.50298 1.5056 0
M  V30 752 H 65.9375 -0.703736 -0.232027 0
M  V30 753 H 68.5845 -1.91205 0.106259 0
M  V30 754 H 66.8895 -3.31228 -2.09274 0
M  V30 755 H 68.5865 -3.57975 -1.80707 0
M  V30 756 H 65.1765 -4.25176 -0.540665 0
M  V30 757 H 69.3605 -4.96112 0.136546 0
M  V30 758 H 64.6165 -6.019 1.07363 0
M  V30 759 H 68.7905 -6.74141 1.74664 0
M  V30 760 H 66.4175 -7.27025 2.22123 0
M  V30 761 N 67.9926 0.231505 -1.5589 0
M  V30 762 C 69.4086 0.580748 -1.48659 0
M  V30 763 C 69.6086 1.87617 -0.73498 0
M  V30 764 O 68.6646 2.51046 -0.270586 0
M  V30 765 C 69.9776 0.669202 -2.93159 0
M  V30 766 C 71.5256 0.760499 -3.03621 0
M  V30 767 C 72.0006 0.880383 -4.49459 0
M  V30 768 N 73.4916 0.944861 -4.53461 0
M  V30 769 C 74.2266 1.05716 -5.63571 0
M  V30 770 N 73.7226 1.13403 -6.83456 0
M  V30 771 N 75.5156 1.09152 -5.514 0
M  V30 772 H 67.6666 -0.618695 -2.03189 0
M  V30 773 H 69.9296 -0.215728 -0.923128 0
M  V30 774 H 69.6356 -0.212904 -3.51055 0
M  V30 775 H 69.5096 1.5361 -3.44505 0
M  V30 776 H 71.8966 1.63305 -2.45796 0
M  V30 777 H 71.9776 -0.131864 -2.5546 0
M  V30 778 H 71.6216 0.0123284 -5.07899 0
M  V30 779 H 71.5516 1.78802 -4.95316 0
M  V30 780 H 74.0426 0.896176 -3.6712 0
M  V30 781 H 74.3556 1.21921 -7.63122 0
M  V30 782 H 72.7006 1.10333 -6.86186 0
M  V30 783 H 75.8916 1.02805 -4.56671 0
M  V30 784 H 76.0646 1.17558 -6.37247 0
M  V30 785 N 69.4707 1.49531 0.497807 0
M  V30 786 C 70.7187 1.58865 1.24926 0
M  V30 787 C 71.0397 0.278721 1.92998 0
M  V30 788 O 70.3097 -0.702144 1.82885 0
M  V30 789 H 68.8897 0.585343 0.464094 0
M  V30 790 H 71.5517 1.86174 0.57666 0
M  V30 791 H 70.6477 2.38633 2.01149 0
M  V30 792 N 70.9488 -0.749086 1.3866 0
M  V30 793 C 72.1738 -1.54344 1.38538 0
M  V30 794 C 72.5988 -1.88088 -0.0216655 0
M  V30 795 O 71.9568 -1.50899 -1.00494 0
M  V30 796 C 72.0048 -2.8164 2.25192 0
M  V30 797 O 71.1088 -3.7698 1.67212 0
M  V30 798 H 70.4498 -0.466654 0.472367 0
M  V30 799 H 72.9798 -0.925355 1.82478 0
M  V30 800 H 72.9898 -3.30519 2.3921 0
M  V30 801 H 71.6648 -2.56411 3.27454 0
M  V30 802 H 70.2418 -3.35699 1.6236 0
M  V30 803 N 72.4269 -1.23603 -0.977757 0
M  V30 804 C 73.6519 -1.09735 -1.75991 0
M  V30 805 C 74.0769 0.346858 -1.84874 0
M  V30 806 O 73.4349 1.25093 -1.3123 0
M  V30 807 C 73.4829 -1.73051 -3.16363 0
M  V30 808 O 72.5869 -0.994452 -4.0023 0
M  V30 809 H 71.9279 -0.384476 -0.541364 0
M  V30 810 H 74.4579 -1.6371 -1.2272 0
M  V30 811 H 74.4679 -1.78398 -3.66931 0
M  V30 812 H 73.1429 -2.78137 -3.09213 0
M  V30 813 H 71.7199 -1.01812 -3.58732 0
M  V30 814 N 73.905 1.17692 -1.04816 0
M  V30 815 C 75.135 1.91508 -0.775128 0
M  V30 816 C 75.543 1.76844 0.67253 0
M  V30 817 O 74.886 1.10057 1.47082 0
M  V30 818 C 74.948 3.43167 -1.0713 0
M  V30 819 C 74.612 3.81612 -2.51438 0
M  V30 820 C 75.609 3.84772 -3.49638 0
M  V30 821 C 73.294 4.12687 -2.86348 0
M  V30 822 C 75.288 4.18469 -4.80794 0
M  V30 823 C 72.975 4.46053 -4.17708 0
M  V30 824 C 73.973 4.48921 -5.14741 0
M  V30 825 O 73.661 4.81504 -6.43746 0
M  V30 826 H 73.393 0.614575 -0.281555 0
M  V30 827 H 75.947 1.50206 -1.40098 0
M  V30 828 H 74.177 3.84745 -0.388342 0
M  V30 829 H 75.866 3.98239 -0.784883 0
M  V30 830 H 76.632 3.60893 -3.24008 0
M  V30 831 H 72.511 4.09627 -2.11486 0
M  V30 832 H 76.055 4.20623 -5.56527 0
M  V30 833 H 71.952 4.69393 -4.43103 0
M  V30 834 H 72.72 4.99377 -6.4851 0
M  V30 835 N 75.3831 0.828654 1.34056 0
M  V30 836 C 76.7941 0.477534 1.8049 0
M  V30 837 C 77.1451 -1.00258 1.6865 0
M  V30 838 O 76.2701 -1.78057 1.22982 0
M  V30 839 C 76.8651 0.860018 3.27703 0
M  V30 840 C 75.4241 0.561185 3.72193 0
M  V30 841 C 74.5711 1.07385 2.55663 0
M  V30 842 H 77.5221 1.0183 1.21722 0
M  V30 843 H 77.5431 0.166038 3.80138 0
M  V30 844 H 77.0551 1.93731 3.36288 0
M  V30 845 H 75.1561 -0.506465 3.69142 0
M  V30 846 H 75.2691 1.10926 4.66082 0
M  V30 847 H 73.6331 0.495149 2.49841 0
M  V30 848 H 74.4161 2.15771 2.67016 0
M  V30 849 N 76.8612 -1.46375 0.584142 0
M  V30 850 C 78.1072 -2.02678 0.0703716 0
M  V30 851 C 78.4402 -1.4545 -1.28678 0
M  V30 852 O 77.7152 -0.62014 -1.84349 0
M  V30 853 C 77.9982 -3.60099 0.00614674 0
M  V30 854 C 77.8512 -4.27709 1.3923 0
M  V30 855 C 79.1702 -4.34598 -0.693742 0
M  V30 856 H 76.2892 -0.736504 0.027047 0
M  V30 857 H 78.9312 -1.74501 0.751615 0
M  V30 858 H 77.0812 -3.84236 -0.574009 0
M  V30 859 H 78.7532 -4.14832 2.01773 0
M  V30 860 H 76.9962 -3.87016 1.95962 0
M  V30 861 H 77.6672 -5.36478 1.29982 0
M  V30 862 H 80.1432 -4.15615 -0.200869 0
M  V30 863 H 79.0192 -5.44318 -0.707714 0
M  V30 864 H 79.2802 -4.05759 -1.75533 0
M  V30 865 N 78.3393 -0.321999 -1.54275 0
M  V30 866 C 79.5793 0.281657 -2.0245 0
M  V30 867 C 79.9433 1.49468 -1.20513 0
M  V30 868 O 81.1443 2.17109 -1.58484 0
M  V30 869 C 79.4153 0.609014 -3.52173 0
M  V30 870 S 80.9743 1.19255 -4.22284 0
M  V30 871 H 77.7923 0.0852825 -0.705867 0
M  V30 872 H 80.3943 -0.454758 -1.90137 0
M  V30 873 H 79.0983 -0.281982 -4.0943 0
M  V30 874 H 78.6293 1.37567 -3.68563 0
M  V30 875 H 80.6443 2.47944 -4.29812 0
M  V30 876 N 79.8174 1.5752 -0.0501392 0
M  V30 877 C 81.0634 1.92936 0.624798 0
M  V30 878 C 81.3964 0.928685 1.70555 0
M  V30 879 O 80.6714 -0.0454779 1.94447 0
M  V30 880 C 80.9544 3.38737 1.22185 0
M  V30 881 C 80.8074 4.49552 0.149218 0
M  V30 882 C 82.1264 3.84913 2.13378 0
M  V30 883 H 79.2454 0.701604 0.225657 0
M  V30 884 H 81.8874 1.89671 -0.111693 0
M  V30 885 H 80.0374 3.4165 1.84953 0
M  V30 886 H 81.7094 4.58768 -0.482648 0
M  V30 887 H 79.9524 4.30638 -0.522841 0
M  V30 888 H 80.6234 5.48653 0.606966 0
M  V30 889 H 83.0994 3.8387 1.60572 0
M  V30 890 H 81.9754 4.87584 2.52097 0
M  V30 891 H 82.2364 3.21611 3.03346 0
M  V30 892 N 81.2955 -0.223234 1.56011 0
M  V30 893 C 82.5205 -0.968978 1.83373 0
M  V30 894 C 82.9455 -1.77227 0.630254 0
M  V30 895 O 82.3035 -1.76345 -0.420959 0
M  V30 896 C 82.3515 -1.86363 3.08709 0
M  V30 897 O 81.4555 -2.95873 2.87285 0
M  V30 898 H 80.7965 -0.274461 0.604622 0
M  V30 899 H 83.3265 -0.237056 2.03222 0
M  V30 900 H 83.3365 -2.27376 3.38768 0
M  V30 901 H 82.0115 -1.27319 3.95933 0
M  V30 902 H 80.5885 -2.58818 2.68454 0
M  V30 903 N 82.7736 -1.49793 -0.48987 0
M  V30 904 C 83.7206 -1.67281 -1.59014 0
M  V30 905 C 84.6906 -0.514177 -1.57941 0
M  V30 906 O 85.8756 -0.742533 -1.75759 0
M  V30 907 C 83.0156 -1.75569 -2.97102 0
M  V30 908 C 82.1286 -3.0281 -3.08107 0
M  V30 909 C 81.2636 -3.02008 -4.36995 0
M  V30 910 C 80.3026 -4.23782 -4.41673 0
M  V30 911 N 79.4396 -4.20826 -5.62005 0
M  V30 912 H 84.2796 -2.61224 -1.43409 0
M  V30 913 H 81.8166 -1.29508 -0.697565 0
M  V30 914 H 83.7746 -1.78354 -3.77155 0
M  V30 915 H 82.4046 -0.850827 -3.11385 0
M  V30 916 H 81.4566 -3.09584 -2.21047 0
M  V30 917 H 82.7686 -3.92801 -3.07423 0
M  V30 918 H 81.9226 -3.03418 -5.25378 0
M  V30 919 H 80.6616 -2.09815 -4.4026 0
M  V30 920 H 79.6666 -4.22604 -3.5169 0
M  V30 921 H 80.8916 -5.17181 -4.40115 0
M  V30 922 H 78.8376 -3.31476 -5.66091 0
M  V30 923 H 78.7546 -5.04564 -5.62984 0
M  V30 924 H 80.0226 -4.26355 -6.52565 0
M  V30 925 N 84.2517 0.741722 -1.39055 0
M  V30 926 C 85.4977 1.50336 -1.36113 0
M  V30 927 C 85.8307 1.94148 0.0450796 0
M  V30 928 O 85.1057 1.66301 1.00868 0
M  V30 929 C 85.3887 2.74773 -2.32749 0
M  V30 930 C 85.2417 2.37023 -3.82283 0
M  V30 931 C 86.5607 3.76846 -2.27322 0
M  V30 932 H 83.6797 0.545351 -0.495743 0
M  V30 933 H 86.3217 0.848624 -1.69995 0
M  V30 934 H 84.4717 3.30639 -2.03986 0
M  V30 935 H 86.1437 1.8684 -4.21768 0
M  V30 936 H 84.3867 1.69334 -3.99385 0
M  V30 937 H 85.0577 3.26104 -4.45376 0
M  V30 938 H 87.5337 3.30548 -2.5274 0
M  V30 939 H 86.4097 4.6159 -2.97028 0
M  V30 940 H 86.6707 4.23286 -1.27599 0
M  V30 941 N 85.7298 1.2412 0.971189 0
M  V30 942 C 86.9758 1.08041 1.71625 0
M  V30 943 C 87.3088 -0.380407 1.90438 0
M  V30 944 O 86.5838 -1.28127 1.46334 0
M  V30 945 C 86.8668 1.81682 3.10908 0
M  V30 946 C 86.7198 3.35493 2.99608 0
M  V30 947 C 88.0388 1.58671 4.10501 0
M  V30 948 H 85.1578 0.39388 0.622919 0
M  V30 949 H 87.7998 1.52743 1.13003 0
M  V30 950 H 85.9498 1.43684 3.60953 0
M  V30 951 H 87.6218 3.83068 2.57015 0
M  V30 952 H 85.8648 3.64052 2.35899 0
M  V30 953 H 86.5358 3.82217 3.98264 0
M  V30 954 H 89.0118 1.91719 3.69301 0
M  V30 955 H 87.8878 2.1266 5.06031 0
M  V30 956 H 88.1488 0.524161 4.38982 0
M  V30 957 N 87.2079 -1.17134 1.05439 0
M  V30 958 C 88.1549 -2.21235 0.657539 0
M  V30 959 C 89.1249 -1.62551 -0.341543 0
M  V30 960 O 90.3099 -1.89379 -0.232393 0
M  V30 961 C 87.4499 -3.45076 0.0410575 0
M  V30 962 C 86.5629 -4.18042 1.08927 0
M  V30 963 C 85.6979 -5.29376 0.439848 0
M  V30 964 C 84.7369 -5.94132 1.4722 0
M  V30 965 N 83.8739 -6.96975 0.846756 0
M  V30 966 H 88.7139 -2.54534 1.54972 0
M  V30 967 H 86.2509 -1.25028 0.775006 0
M  V30 968 H 88.2089 -4.15862 -0.33383 0
M  V30 969 H 86.8389 -3.12353 -0.814568 0
M  V30 970 H 85.8909 -3.45945 1.58196 0
M  V30 971 H 87.2029 -4.62306 1.87282 0
M  V30 972 H 86.3569 -6.06699 0.0115125 0
M  V30 973 H 85.0959 -4.86251 -0.375656 0
M  V30 974 H 84.1009 -5.15538 1.91052 0
M  V30 975 H 85.3259 -6.39337 2.28965 0
M  V30 976 H 83.2719 -6.5598 0.0518075 0
M  V30 977 H 83.1889 -7.39565 1.5678 0
M  V30 978 H 84.4569 -7.78239 0.443277 0
M  V30 979 N 88.686 -0.835752 -1.33615 0
M  V30 980 C 89.934 -0.429109 -1.97492 0
M  V30 981 C 90.255 1.01433 -1.66543 0
M  V30 982 O 89.525 1.70611 -0.962744 0
M  V30 983 H 88.105 -0.155686 -0.730596 0
M  V30 984 H 90.767 -1.06802 -1.63031 0
M  V30 985 H 89.863 -0.55861 -3.0706 0
M  V30 986 N 90.1641 1.46063 -0.591896 0
M  V30 987 C 91.4121 2.01938 -0.0808391 0
M  V30 988 C 91.7331 1.46475 1.28725 0
M  V30 989 O 91.0031 0.652944 1.84698 0
M  V30 990 H 89.5831 0.746516 -0.0268938 0
M  V30 991 H 92.2451 1.79055 -0.769752 0
M  V30 992 H 91.3411 3.12094 -0.0187578 0
M  V30 993 N 91.6422 0.330177 1.54103 0
M  V30 994 C 92.8672 -0.274893 2.0557 0
M  V30 995 C 93.2922 -1.44487 1.20437 0
M  V30 996 O 92.6502 -1.80021 0.214991 0
M  V30 997 C 92.6982 -0.68079 3.54115 0
M  V30 998 O 91.8022 -1.7824 3.71893 0
M  V30 999 H 91.1432 -0.0483849 0.662235 0
M  V30 1000 H 93.6732 0.480508 1.98878 0
M  V30 1001 H 93.6832 -0.961635 3.96505 0
M  V30 1002 H 92.3582 0.174903 4.15532 0
M  V30 1003 H 90.9352 -1.49985 3.41407 0
M  V30 1004 N 93.1203 -1.57491 0.0584922 0
M  V30 1005 C 94.3453 -1.97711 -0.62652 0
M  V30 1006 C 94.7703 -0.936132 -1.63151 0
M  V30 1007 O 94.1283 0.099811 -1.81025 0
M  V30 1008 C 94.1763 -3.36989 -1.28338 0
M  V30 1009 O 93.2803 -3.35433 -2.39913 0
M  V30 1010 H 92.6213 -0.643868 -0.162266 0
M  V30 1011 H 95.1513 -2.04193 0.129064 0
M  V30 1012 H 95.1613 -3.73879 -1.63335 0
M  V30 1013 H 93.8363 -4.12289 -0.546889 0
M  V30 1014 H 92.4133 -3.10298 -2.06809 0
M  V30 1015 N 94.5984 0.214957 -1.56127 0
M  V30 1016 C 95.8464 0.936518 -1.79091 0
M  V30 1017 C 96.1674 1.84606 -0.628148 0
M  V30 1018 O 95.4374 1.92664 0.35462 0
M  V30 1019 H 94.0174 0.3488 -0.660566 0
M  V30 1020 H 96.6794 0.22523 -1.93594 0
M  V30 1021 H 95.7754 1.53943 -2.71492 0
M  V30 1022 N 96.0765 1.50051 0.48192 0
M  V30 1023 C 97.0235 1.68122 1.58125 0
M  V30 1024 C 97.9935 0.522545 1.57666 0
M  V30 1025 O 99.1785 0.751844 1.75362 0
M  V30 1026 C 96.3185 1.77142 2.96167 0
M  V30 1027 C 95.4315 3.0444 3.06497 0
M  V30 1028 C 94.5665 3.04321 4.35387 0
M  V30 1029 C 93.6055 4.26118 4.3942 0
M  V30 1030 N 92.7425 4.238 5.59766 0
M  V30 1031 H 97.5825 2.6198 1.42022 0
M  V30 1032 H 95.1195 1.29877 0.690687 0
M  V30 1033 H 97.0775 1.80352 3.76203 0
M  V30 1034 H 95.7075 0.867329 3.1093 0
M  V30 1035 H 94.7595 3.10752 2.19402 0
M  V30 1036 H 96.0715 3.94426 3.05336 0
M  V30 1037 H 95.2255 3.062 5.23762 0
M  V30 1038 H 93.9645 2.12147 4.39141 0
M  V30 1039 H 92.9695 4.24463 3.49444 0
M  V30 1040 H 94.1945 5.19507 4.37366 0
M  V30 1041 H 92.1405 3.34474 5.64326 0
M  V30 1042 H 92.0575 5.07542 5.60301 0
M  V30 1043 H 93.3255 4.2981 6.50295 0
M  V30 1044 N 97.5546 -0.734337 1.39446 0
M  V30 1045 C 98.8026 -1.49096 1.36436 0
M  V30 1046 C 99.1236 -1.94961 -0.0388255 0
M  V30 1047 O 98.3936 -1.69033 -0.990191 0
M  V30 1048 H 96.9736 -0.5531 0.502085 0
M  V30 1049 H 99.6356 -0.871725 1.74319 0
M  V30 1050 H 98.7316 -2.37276 2.02747 0
M  V30 1051 N 99.0327 -1.24633 -0.964593 0
M  V30 1052 C 100.261 -1.11501 -1.74285 0
M  V30 1053 C 100.676 0.332165 -1.85855 0
M  V30 1054 O 100.033 1.22903 -1.34911 0
M  V30 1055 C 100.084 -1.75258 -3.16175 0
M  V30 1056 O 99.8047 -3.14318 -3.05182 0
M  V30 1057 C 101.306 -1.67776 -4.10324 0
M  V30 1058 H 98.5257 -0.389407 -0.546446 0
M  V30 1059 H 101.07 -1.64801 -1.21083 0
M  V30 1060 H 99.2247 -1.25954 -3.66353 0
M  V30 1061 H 99.6387 -3.4551 -3.94618 0
M  V30 1062 H 101.113 -2.17064 -5.0753 0
M  V30 1063 H 101.59 -0.639584 -4.34518 0
M  V30 1064 H 102.196 -2.16522 -3.66058 0
M  V30 1065 N 100.511 1.16574 -1.06058 0
M  V30 1066 C 101.739 1.90952 -0.796552 0
M  V30 1067 C 102.154 1.77302 0.648808 0
M  V30 1068 O 101.511 1.11605 1.44397 0
M  V30 1069 C 101.562 3.41736 -1.17894 0
M  V30 1070 O 101.283 3.54975 -2.56758 0
M  V30 1071 C 102.784 4.33169 -0.942308 0
M  V30 1072 H 100.004 0.605594 -0.288959 0
M  V30 1073 H 102.548 1.47777 -1.41358 0
M  V30 1074 H 100.703 3.82623 -0.606491 0
M  V30 1075 H 101.117 4.4846 -2.72 0
M  V30 1076 H 102.591 5.37439 -1.25952 0
M  V30 1077 H 103.068 4.3903 0.122078 0
M  V30 1078 H 103.674 3.98007 -1.49902 0
M  V30 1079 N 101.989 0.842826 1.3317 0
M  V30 1080 C 102.919 0.294028 2.31641 0
M  V30 1081 C 103.9 -0.600401 1.59151 0
M  V30 1082 O 105.085 -0.523124 1.87022 0
M  V30 1083 C 102.215 -0.528416 3.43257 0
M  V30 1084 C 101.169 0.27056 4.27144 0
M  V30 1085 C 100.495 -0.675881 5.30411 0
M  V30 1086 C 101.795 1.48981 5.00602 0
M  V30 1087 H 103.489 1.11681 2.77791 0
M  V30 1088 H 101.035 0.538478 1.33553 0
M  V30 1089 H 102.988 -0.922674 4.11175 0
M  V30 1090 H 101.712 -1.38445 2.95805 0
M  V30 1091 H 100.371 0.646427 3.60856 0
M  V30 1092 H 100.019 -1.52842 4.79216 0
M  V30 1093 H 99.7189 -0.145374 5.8742 0
M  V30 1094 H 101.243 -1.06757 6.01195 0
M  V30 1095 H 102.657 1.16849 5.61266 0
M  V30 1096 H 101.054 1.95739 5.6728 0
M  V30 1097 H 102.124 2.25746 4.29147 0
M  V30 1098 N 103.467 -1.45747 0.599634 0
M  V30 1099 C 104.883 -1.57424 0.26264 0
M  V30 1100 C 105.083 -1.59222 -1.23493 0
M  V30 1101 O 104.139 -1.51825 -2.01756 0
M  V30 1102 C 105.452 -2.86061 0.926795 0
M  V30 1103 C 107 -2.99722 0.901967 0
M  V30 1104 C 107.475 -4.31119 1.54598 0
M  V30 1105 N 108.966 -4.37858 1.5111 0
M  V30 1106 C 109.701 -5.3818 1.97863 0
M  V30 1107 N 109.197 -6.45083 2.52666 0
M  V30 1108 N 110.99 -5.29487 1.88679 0
M  V30 1109 H 103.141 -1.42823 1.57211 0
M  V30 1110 H 105.404 -0.68235 0.658105 0
M  V30 1111 H 105.11 -2.90605 1.98095 0
M  V30 1112 H 104.984 -3.74563 0.445238 0
M  V30 1113 H 107.371 -2.9475 -0.143617 0
M  V30 1114 H 107.452 -2.12652 1.42171 0
M  V30 1115 H 107.096 -4.36849 2.59085 0
M  V30 1116 H 107.026 -5.16992 1.00132 0
M  V30 1117 H 109.517 -3.61209 1.11068 0
M  V30 1118 H 109.83 -7.17869 2.86155 0
M  V30 1119 H 108.175 -6.45856 2.56701 0
M  V30 1120 H 111.366 -4.44877 1.4561 0
M  V30 1121 H 111.539 -6.07524 2.25429 0
M  V30 1122 N 104.945 -0.338344 -1.53925 0
M  V30 1123 C 106.193 0.259245 -2.0043 0
M  V30 1124 C 106.514 1.51484 -1.22791 0
M  V30 1125 O 105.784 1.93037 -0.33368 0
M  V30 1126 H 104.364 0.0987845 -0.740439 0
M  V30 1127 H 107.026 -0.458302 -1.89435 0
M  V30 1128 H 106.122 0.505334 -3.07982 0
M  V30 1129 N 106.423 1.57458 -0.0668435 0
M  V30 1130 C 107.839 1.56947 0.289772 0
M  V30 1131 C 108.039 1.07584 1.70376 0
M  V30 1132 O 107.095 0.739486 2.41429 0
M  V30 1133 C 108.408 3.0052 0.103943 0
M  V30 1134 C 109.956 3.12517 0.173857 0
M  V30 1135 C 110.431 4.57997 0.0163682 0
M  V30 1136 N 111.922 4.63144 0.0721352 0
M  V30 1137 C 112.657 5.73394 -0.0253794 0
M  V30 1138 N 112.153 6.92576 -0.176133 0
M  V30 1139 N 113.946 5.62091 0.0313305 0
M  V30 1140 H 106.097 1.87863 -0.991027 0
M  V30 1141 H 108.36 0.86583 -0.38606 0
M  V30 1142 H 108.066 3.40729 -0.871572 0
M  V30 1143 H 107.94 3.67304 0.858366 0
M  V30 1144 H 110.327 2.72197 1.13985 0
M  V30 1145 H 110.408 2.48381 -0.611586 0
M  V30 1146 H 110.052 4.99005 -0.946374 0
M  V30 1147 H 109.982 5.20158 0.821153 0
M  V30 1148 H 112.473 3.77436 0.187263 0
M  V30 1149 H 112.786 7.72418 -0.242821 0
M  V30 1150 H 111.131 6.94678 -0.211429 0
M  V30 1151 H 114.322 4.67867 0.147773 0
M  V30 1152 H 114.495 6.47982 -0.048121 0
M  V30 1153 N 107.901 -0.206675 1.56239 0
M  V30 1154 C 109.126 -0.949474 1.8439 0
M  V30 1155 C 109.551 -1.76549 0.649016 0
M  V30 1156 O 108.909 -1.76782 -0.402231 0
M  V30 1157 C 108.957 -1.83078 3.10668 0
M  V30 1158 O 108.061 -2.9281 2.90407 0
M  V30 1159 H 107.402 -0.268033 0.607499 0
M  V30 1160 H 109.932 -0.215488 2.03462 0
M  V30 1161 H 109.942 -2.2377 3.41161 0
M  V30 1162 H 108.617 -1.23112 3.97261 0
M  V30 1163 H 107.194 -2.55956 2.71184 0
M  V30 1164 N 109.379 -1.50304 -0.473955 0
M  V30 1165 C 110.656 -1.51667 -1.23518 0
M  V30 1166 C 111.036 -0.259701 -2.09496 0
M  V30 1167 O 110.384 0.756986 -2.15597 0
M  V30 1168 C 110.594 -2.81082 -2.06868 0
M  V30 1169 C 111.942 -3.31631 -2.65153 0
M  V30 1170 O 112.966 -2.82384 -2.17113 0
M  V30 1171 O 111.825 -4.17471 -3.52675 0
M  V30 1172 H 108.919 -0.60822 -0.560355 0
M  V30 1173 H 111.465 -1.62592 -0.486011 0
M  V30 1174 H 110.237 -3.64041 -1.4349 0
M  V30 1175 H 109.86 -2.73146 -2.88924 0
M  V30 1176 N 110.857 0.726932 -1.39834 0
M  V30 1177 C 111.82 1.82269 -1.38962 0
M  V30 1178 C 112.82 1.58248 -0.285334 0
M  V30 1179 O 114.01 1.65499 -0.54366 0
M  V30 1180 C 111.142 3.20186 -1.17019 0
M  V30 1181 H 112.335 1.84443 -2.36476 0
M  V30 1182 H 109.888 0.931416 -1.25516 0
M  V30 1183 H 110.623 3.23669 -0.202204 0
M  V30 1184 H 110.408 3.3902 -1.96998 0
M  V30 1185 H 111.898 4.00235 -1.1917 0
M  V30 1186 N 112.336 1.25143 0.95797 0
M  V30 1187 C 113.613 1.00472 1.67823 0
M  V30 1188 C 113.993 -0.470056 2.058 0
M  V30 1189 O 113.341 -1.44663 1.76875 0
M  V30 1190 C 113.551 1.9372 2.90299 0
M  V30 1191 C 114.899 2.21371 3.62326 0
M  V30 1192 O 115.923 1.91451 3.00375 0
M  V30 1193 O 114.782 2.72231 4.7387 0
M  V30 1194 H 111.876 0.380752 0.734137 0
M  V30 1195 H 114.422 1.36283 1.01119 0
M  V30 1196 H 113.194 2.93316 2.59001 0
M  V30 1197 H 112.817 1.58286 3.64735 0
M  V30 1198 N 113.814 -1.1601 1.06675 0
M  V30 1199 C 114.744 -2.22688 0.702307 0
M  V30 1200 C 115.725 -1.67306 -0.307032 0
M  V30 1201 O 116.91 -1.93352 -0.181305 0
M  V30 1202 C 114.04 -3.47178 0.092038 0
M  V30 1203 C 112.994 -4.15477 1.02777 0
M  V30 1204 C 112.32 -5.33963 0.28061 0
M  V30 1205 C 113.62 -4.66019 2.35846 0
M  V30 1206 H 115.314 -2.53429 1.59419 0
M  V30 1207 H 112.86 -1.21813 0.767961 0
M  V30 1208 H 114.813 -4.21037 -0.174814 0
M  V30 1209 H 113.537 -3.15749 -0.834877 0
M  V30 1210 H 112.196 -3.43549 1.27944 0
M  V30 1211 H 111.844 -4.98788 -0.649545 0
M  V30 1212 H 111.544 -5.806 0.904258 0
M  V30 1213 H 113.068 -6.10596 0.021396 0
M  V30 1214 H 114.482 -5.3144 2.15045 0
M  V30 1215 H 112.879 -5.23293 2.93743 0
M  V30 1216 H 113.949 -3.82023 2.98641 0
M  V30 1217 N 115.292 -0.849877 -1.32721 0
M  V30 1218 C 116.538 -0.451591 -1.97708 0
M  V30 1219 C 116.871 0.989175 -1.6712 0
M  V30 1220 O 116.146 1.69334 -0.956891 0
M  V30 1221 C 116.429 -0.685598 -3.53513 0
M  V30 1222 C 116.282 -2.17444 -3.93749 0
M  V30 1223 C 117.601 -0.138874 -4.39881 0
M  V30 1224 H 114.72 -0.16555 -0.718166 0
M  V30 1225 H 117.362 -1.06742 -1.57182 0
M  V30 1226 H 115.512 -0.161416 -3.88165 0
M  V30 1227 H 117.184 -2.76433 -3.693 0
M  V30 1228 H 115.427 -2.65476 -3.43081 0
M  V30 1229 H 116.098 -2.28888 -5.02309 0
M  V30 1230 H 118.574 -0.587068 -4.11938 0
M  V30 1231 H 117.45 -0.332213 -5.47894 0
M  V30 1232 H 117.711 0.95806 -4.31594 0
M  V30 1233 N 116.77 1.45427 -0.607355 0
M  V30 1234 C 118.016 2.0254 -0.102607 0
M  V30 1235 C 118.349 1.47478 1.26348 0
M  V30 1236 O 117.624 0.64939 1.83339 0
M  V30 1237 C 117.907 3.60044 -0.0634347 0
M  V30 1238 C 117.76 4.2544 -1.46017 0
M  V30 1239 C 119.079 4.35646 0.624514 0
M  V30 1240 H 116.198 0.73598 -0.0387607 0
M  V30 1241 H 118.84 1.73284 -0.779282 0
M  V30 1242 H 116.99 3.85101 0.512808 0
M  V30 1243 H 118.662 4.11569 -2.08347 0
M  V30 1244 H 116.905 3.83849 -2.02094 0
M  V30 1245 H 117.576 5.34342 -1.385 0
M  V30 1246 H 120.052 4.15882 0.134723 0
M  V30 1247 H 118.928 5.45376 0.621028 0
M  V30 1248 H 119.189 4.08501 1.69055 0
M  V30 1249 N 118.248 0.346503 1.53744 0
M  V30 1250 C 119.495 -0.249104 2.00962 0
M  V30 1251 C 119.823 -1.5032 1.23426 0
M  V30 1252 O 119.078 -1.93217 0.310761 0
M  V30 1253 C 119.377 -0.605809 3.52228 0
M  V30 1254 C 119.043 0.551747 4.47512 0
M  V30 1255 C 117.705 0.86941 4.73281 0
M  V30 1256 C 120.057 1.32818 5.03993 0
M  V30 1257 C 117.385 1.96582 5.52786 0
M  V30 1258 C 119.737 2.41486 5.84694 0
M  V30 1259 C 118.401 2.73808 6.08757 0
M  V30 1260 H 117.671 -0.0911538 0.735372 0
M  V30 1261 H 120.318 0.475027 1.85515 0
M  V30 1262 H 118.623 -1.4107 3.65522 0
M  V30 1263 H 120.32 -1.07858 3.86222 0
M  V30 1264 H 116.91 0.294102 4.2759 0
M  V30 1265 H 121.094 1.09602 4.84047 0
M  V30 1266 H 116.35 2.22045 5.69654 0
M  V30 1267 H 120.524 3.02078 6.27473 0
M  V30 1268 H 118.151 3.58892 6.7015 0
M  V30 1269 N 119.726 -1.57421 0.075193 0
M  V30 1270 C 120.656 -2.15942 -0.888324 0
M  V30 1271 C 121.637 -1.08737 -1.30806 0
M  V30 1272 O 122.822 -1.36787 -1.37851 0
M  V30 1273 C 119.952 -2.72379 -2.1547 0
M  V30 1274 C 118.906 -3.8478 -1.87425 0
M  V30 1275 C 118.232 -4.27834 -3.20721 0
M  V30 1276 C 119.532 -5.08869 -1.17684 0
M  V30 1277 H 121.226 -2.96705 -0.400799 0
M  V30 1278 H 118.772 -1.42723 -0.191342 0
M  V30 1279 H 120.725 -3.11965 -2.83295 0
M  V30 1280 H 119.449 -1.88841 -2.6647 0
M  V30 1281 H 118.108 -3.45703 -1.22004 0
M  V30 1282 H 117.756 -3.41214 -3.6957 0
M  V30 1283 H 117.456 -5.03605 -3.02746 0
M  V30 1284 H 118.98 -4.70039 -3.89738 0
M  V30 1285 H 120.394 -5.4575 -1.75584 0
M  V30 1286 H 118.791 -5.8994 -1.09956 0
M  V30 1287 H 119.861 -4.84648 -0.156453 0
M  V30 1288 N 121.204 0.198386 -1.56346 0
M  V30 1289 C 122.429 0.939682 -1.84891 0
M  V30 1290 C 122.854 1.76202 -0.658369 0
M  V30 1291 O 122.212 1.76993 0.392851 0
M  V30 1292 C 122.26 1.81428 -3.11635 0
M  V30 1293 O 121.364 2.91265 -2.91956 0
M  V30 1294 H 120.705 0.264807 -0.608912 0
M  V30 1295 H 123.235 0.204695 -2.03573 0
M  V30 1296 H 123.245 2.21958 -3.42343 0
M  V30 1297 H 121.92 1.21004 -3.97908 0
M  V30 1298 H 120.497 2.54514 -2.72538 0
M  V30 1299 N 122.682 1.50554 0.465978 0
M  V30 1300 C 124.093 1.54599 1.04671 0
M  V30 1301 C 124.444 0.352488 1.93008 0
M  V30 1302 O 123.569 -0.534044 2.09707 0
M  V30 1303 C 124.164 2.80166 1.90505 0
M  V30 1304 C 122.723 2.86876 2.43678 0
M  V30 1305 C 121.87 2.48947 1.22151 0
M  V30 1306 H 124.821 1.56744 0.248384 0
M  V30 1307 H 124.842 2.62311 2.75633 0
M  V30 1308 H 124.354 3.67013 1.26186 0
M  V30 1309 H 122.455 2.04393 3.11536 0
M  V30 1310 H 122.568 3.89885 2.78436 0
M  V30 1311 H 120.932 2.01498 1.5579 0
M  V30 1312 H 121.715 3.38107 0.594866 0
M  V30 1313 N 124.16 -0.719506 1.40217 0
M  V30 1314 C 125.09 -1.8465 1.42922 0
M  V30 1315 C 126.071 -1.67599 0.29062 0
M  V30 1316 O 127.256 -1.87688 0.498677 0
M  V30 1317 C 124.386 -3.22565 1.28722 0
M  V30 1318 C 123.34 -3.54281 2.40144 0
M  V30 1319 C 122.666 -4.91298 2.11023 0
M  V30 1320 C 123.966 -3.55676 3.82481 0
M  V30 1321 H 125.66 -1.82644 2.37237 0
M  V30 1322 H 123.206 -0.877305 1.1419 0
M  V30 1323 H 125.159 -4.01095 1.29232 0
M  V30 1324 H 123.883 -3.25137 0.308811 0
M  V30 1325 H 122.542 -2.78088 2.38877 0
M  V30 1326 H 122.19 -4.90468 1.11582 0
M  V30 1327 H 121.89 -5.13485 2.8567 0
M  V30 1328 H 123.414 -5.72166 2.13209 0
M  V30 1329 H 124.828 -4.24254 3.85592 0
M  V30 1330 H 123.225 -3.89388 4.56614 0
M  V30 1331 H 124.295 -2.55144 4.12346 0
M  V30 1332 N 125.638 -1.25649 -0.95132 0
M  V30 1333 C 126.866 -1.13343 -1.73092 0
M  V30 1334 C 127.281 0.312434 -1.86197 0
M  V30 1335 O 126.638 1.21465 -1.36207 0
M  V30 1336 C 126.689 -1.78602 -3.14299 0
M  V30 1337 O 126.41 -3.17537 -3.01831 0
M  V30 1338 C 127.911 -1.72119 -4.08522 0
M  V30 1339 H 125.131 -0.395181 -0.542285 0
M  V30 1340 H 127.675 -1.66076 -1.19328 0
M  V30 1341 H 125.83 -1.29832 -3.64996 0
M  V30 1342 H 126.244 -3.49676 -3.90931 0
M  V30 1343 H 127.718 -2.22435 -5.052 0
M  V30 1344 H 128.195 -0.685635 -4.33815 0
M  V30 1345 H 128.801 -2.20393 -3.63741 0
M  V30 1346 N 127.117 1.15442 -1.07289 0
M  V30 1347 C 128.345 1.90096 -0.81676 0
M  V30 1348 C 128.76 1.7798 0.629966 0
M  V30 1349 O 128.117 1.1313 1.43206 0
M  V30 1350 C 128.168 3.40466 -1.21512 0
M  V30 1351 O 127.889 3.52232 -2.60508 0
M  V30 1352 C 129.39 4.32145 -0.988198 0
M  V30 1353 H 126.61 0.602495 -0.295366 0
M  V30 1354 H 129.154 1.4627 -1.42918 0
M  V30 1355 H 127.309 3.81958 -0.647039 0
M  V30 1356 H 127.723 4.45549 -2.76742 0
M  V30 1357 H 129.197 5.36072 -1.31645 0
M  V30 1358 H 129.674 4.39135 0.0755063 0
M  V30 1359 H 130.28 3.96395 -1.54115 0
M  V30 1360 N 128.595 0.856903 1.32268 0
M  V30 1361 C 129.842 0.461386 1.97174 0
M  V30 1362 C 130.17 -0.983491 1.67803 0
M  V30 1363 O 129.425 -1.70541 0.959903 0
M  V30 1364 C 129.724 0.649919 3.51441 0
M  V30 1365 C 129.39 2.0656 4.00804 0
M  V30 1366 C 128.052 2.45279 4.13995 0
M  V30 1367 C 130.404 2.98947 4.26943 0
M  V30 1368 C 127.732 3.75653 4.50668 0
M  V30 1369 C 130.084 4.28822 4.65075 0
M  V30 1370 C 128.748 4.67472 4.76472 0
M  V30 1371 H 128.018 0.168833 0.72151 0
M  V30 1372 H 130.665 1.08739 1.57633 0
M  V30 1373 H 128.97 -0.0593018 3.91755 0
M  V30 1374 H 130.667 0.32391 3.9969 0
M  V30 1375 H 127.257 1.75495 3.91024 0
M  V30 1376 H 131.441 2.70265 4.16258 0
M  V30 1377 H 126.697 4.05379 4.57688 0
M  V30 1378 H 130.871 5.0047 4.84255 0
M  V30 1379 H 128.498 5.68539 5.04646 0
M  V30 1380 N 130.073 -1.45103 0.615059 0
M  V30 1381 C 131.005 -2.28786 -0.13762 0
M  V30 1382 C 132.018 -1.40376 -0.824525 0
M  V30 1383 O 133.207 -1.64681 -0.688662 0
M  V30 1384 C 130.307 -3.16322 -1.21628 0
M  V30 1385 C 129.48 -4.33054 -0.615039 0
M  V30 1386 C 128.539 -5.01743 -1.58556 0
M  V30 1387 O 127.565 -5.58293 -1.10895 0
M  V30 1388 N 128.767 -5.01714 -2.91998 0
M  V30 1389 H 131.532 -2.94025 0.580483 0
M  V30 1390 H 129.093 -1.55373 0.45507 0
M  V30 1391 H 131.085 -3.59139 -1.86552 0
M  V30 1392 H 129.655 -2.52943 -1.83681 0
M  V30 1393 H 128.875 -3.93627 0.21245 0
M  V30 1394 H 130.163 -5.08431 -0.193704 0
M  V30 1395 H 129.561 -4.57075 -3.33316 0
M  V30 1396 H 128.118 -5.48371 -3.52325 0
M  V30 1397 N 131.551 -0.354651 -1.53558 0
M  V30 1398 C 132.828 0.294281 -1.93374 0
M  V30 1399 C 133.208 1.67313 -1.28723 0
M  V30 1400 O 132.556 2.24179 -0.442247 0
M  V30 1401 C 132.766 0.355445 -3.47185 0
M  V30 1402 C 134.114 0.601007 -4.20325 0
M  V30 1403 O 135.138 0.437106 -3.53508 0
M  V30 1404 O 133.997 0.919322 -5.38712 0
M  V30 1405 H 131.091 0.174033 -0.808481 0
M  V30 1406 H 133.637 -0.406638 -1.64756 0
M  V30 1407 H 132.409 -0.611729 -3.86489 0
M  V30 1408 H 132.032 1.1027 -3.82003 0
M  V30 1409 N 133.029 1.57378 -0.0835403 0
M  V30 1410 C 133.961 2.10389 0.909338 0
M  V30 1411 C 134.974 1.03858 1.25369 0
M  V30 1412 O 136.163 1.31338 1.20882 0
M  V30 1413 C 133.263 2.55908 2.2218 0
M  V30 1414 C 132.436 3.86145 2.05453 0
M  V30 1415 C 131.495 4.17633 3.20108 0
M  V30 1416 O 130.521 4.87043 2.94581 0
M  V30 1417 N 131.723 3.72113 4.45547 0
M  V30 1418 H 134.488 2.962 0.456657 0
M  V30 1419 H 132.049 1.61579 0.101877 0
M  V30 1420 H 134.041 2.74027 2.97811 0
M  V30 1421 H 132.611 1.75171 2.58909 0
M  V30 1422 H 131.831 3.7729 1.1422 0
M  V30 1423 H 133.119 4.7137 1.91541 0
M  V30 1424 H 132.517 3.16062 4.69171 0
M  V30 1425 H 131.074 3.95409 5.18165 0
M  V30 1426 N 134.507 -0.190092 1.56449 0
M  V30 1427 C 135.437 -1.23816 1.97969 0
M  V30 1428 C 136.418 -1.47201 0.852395 0
M  V30 1429 O 137.603 -1.58854 1.1171 0
M  V30 1430 C 134.733 -2.5813 2.3235 0
M  V30 1431 C 133.687 -2.49348 3.47864 0
M  V30 1432 C 133.013 -3.8798 3.67934 0
M  V30 1433 C 134.313 -2.01424 4.81898 0
M  V30 1434 H 136.007 -0.89311 2.85769 0
M  V30 1435 H 133.553 -0.428177 1.37487 0
M  V30 1436 H 135.506 -3.31637 2.59991 0
M  V30 1437 H 134.23 -2.94386 1.41438 0
M  V30 1438 H 132.889 -1.78297 3.20321 0
M  V30 1439 H 132.537 -4.21597 2.74344 0
M  V30 1440 H 132.237 -3.82978 4.45648 0
M  V30 1441 H 133.761 -4.63101 3.97957 0
M  V30 1442 H 135.175 -2.64693 5.08538 0
M  V30 1443 H 133.572 -2.07413 5.63116 0
M  V30 1444 H 134.642 -0.967677 4.75146 0
M  V30 1445 N 135.985 -1.50799 -0.457987 0
M  V30 1446 C 136.933 -1.71162 -1.575 0
M  V30 1447 C 137.927 -0.577592 -1.59249 0
M  V30 1448 O 139.133 -0.758443 -1.63241 0
M  V30 1449 H 135.508 -0.540468 -0.522875 0
M  V30 1450 H 137.479 -2.64837 -1.37492 0
M  V30 1451 C 136.228 -1.83496 -2.95338 0
M  V30 1452 H 135.551 -2.70153 -2.94716 0
M  V30 1453 H 136.991 -2.01765 -3.72917 0
M  V30 1454 C 135.45 -0.589694 -3.31699 0
M  V30 1455 O 135.98 0.265163 -4.00824 0
M  V30 1456 N 134.186 -0.439845 -2.87252 0
M  V30 1457 H 133.733 -1.13655 -2.31172 0
M  V30 1458 H 133.691 0.392159 -3.11945 0
M  V30 1459 N 137.463 0.71206 -1.40597 0
M  V30 1460 C 138.879 1.02058 -1.22704 0
M  V30 1461 C 139.079 2.01228 -0.104729 0
M  V30 1462 O 138.135 2.4674 0.53624 0
M  V30 1463 C 139.448 1.56094 -2.57012 0
M  V30 1464 C 140.996 1.6806 -2.64054 0
M  V30 1465 C 141.471 2.25501 -3.9864 0
M  V30 1466 N 142.962 2.32882 -4.004 0
M  V30 1467 C 143.697 2.78317 -5.01325 0
M  V30 1468 N 143.193 3.23478 -6.12645 0
M  V30 1469 N 144.986 2.77733 -4.88693 0
M  V30 1470 H 137.137 0.0547896 -2.12329 0
M  V30 1471 H 139.4 0.0869027 -0.944008 0
M  V30 1472 H 139.106 0.906865 -3.39807 0
M  V30 1473 H 138.98 2.54564 -2.78347 0
M  V30 1474 H 141.367 2.32583 -1.81629 0
M  V30 1475 H 141.448 0.681802 -2.46546 0
M  V30 1476 H 141.092 1.61598 -4.81506 0
M  V30 1477 H 141.022 3.26102 -4.13479 0
M  V30 1478 H 143.513 2.00991 -3.20017 0
M  V30 1479 H 143.826 3.56725 -6.85542 0
M  V30 1480 H 142.171 3.21429 -6.16205 0
M  V30 1481 H 145.362 2.4179 -4.00818 0
M  V30 1482 H 145.535 3.12826 -5.67489 0
M  V30 1483 N 138.941 1.26152 0.944643 0
M  V30 1484 C 140.357 1.03189 1.21754 0
M  V30 1485 C 140.557 -0.245112 2.00004 0
M  V30 1486 O 139.613 -0.955176 2.33736 0
M  V30 1487 C 140.926 2.26119 1.98219 0
M  V30 1488 C 142.474 2.30984 2.11224 0
M  V30 1489 C 142.949 3.53597 2.91089 0
M  V30 1490 N 144.44 3.54053 2.98664 0
M  V30 1491 C 145.175 4.45593 3.60881 0
M  V30 1492 N 144.671 5.47416 4.24626 0
M  V30 1493 N 146.464 4.33252 3.58119 0
M  V30 1494 H 138.615 2.08177 0.421437 0
M  V30 1495 H 140.878 0.914723 0.248969 0
M  V30 1496 H 140.584 3.18984 1.48128 0
M  V30 1497 H 140.458 2.3009 2.98895 0
M  V30 1498 H 142.845 1.38635 2.60508 0
M  V30 1499 H 142.926 2.31026 1.09821 0
M  V30 1500 H 142.57 4.46273 2.42493 0
M  V30 1501 H 142.5 3.50802 3.92741 0
M  V30 1502 H 144.991 2.80403 2.53343 0
M  V30 1503 H 145.304 6.13459 4.69987 0
M  V30 1504 H 143.649 5.51278 4.23223 0
M  V30 1505 H 146.84 3.52924 3.0751 0
M  V30 1506 H 147.013 5.04786 4.06319 0
M  V30 1507 N 140.419 -1.14872 1.07899 0
M  V30 1508 C 141.667 -1.85422 0.803941 0
M  V30 1509 C 141.988 -1.83051 -0.67211 0
M  V30 1510 O 141.258 -1.27532 -1.48703 0
M  V30 1511 H 139.838 -0.686537 0.294408 0
M  V30 1512 H 142.5 -1.39226 1.3639 0
M  V30 1513 H 141.596 -2.90399 1.14346 0
M  V30 1514 N 141.898 -0.863906 -1.31812 0
M  V30 1515 C 142.808 -0.318461 -2.32428 0
M  V30 1516 C 143.824 0.568496 -1.64451 0
M  V30 1517 O 145 0.46666 -1.95919 0
M  V30 1518 C 142.065 0.476355 -3.43412 0
M  V30 1519 C 141.126 -0.43784 -4.27061 0
M  V30 1520 C 140.359 0.319138 -5.32745 0
M  V30 1521 O 140.582 1.54799 -5.48993 0
M  V30 1522 O 139.516 -0.319861 -6.01049 0
M  V30 1523 H 143.342 -1.15229 -2.80991 0
M  V30 1524 H 140.927 -0.627103 -1.35602 0
M  V30 1525 H 142.809 0.927156 -4.11074 0
M  V30 1526 H 141.484 1.28683 -2.97022 0
M  V30 1527 H 140.391 -0.937013 -3.62175 0
M  V30 1528 H 141.724 -1.21375 -4.77 0
M  V30 1529 N 143.376 1.44774 -0.622745 0
M  V30 1530 C 144.623 2.02121 -0.1239 0
M  V30 1531 C 144.951 1.48915 1.25118 0
M  V30 1532 O 144.206 0.660045 1.84233 0
M  V30 1533 C 144.505 3.57364 -0.0508323 0
M  V30 1534 C 144.171 4.29787 -1.36358 0
M  V30 1535 C 142.833 4.4929 -1.72314 0
M  V30 1536 C 145.185 4.71062 -2.23048 0
M  V30 1537 C 142.513 5.07325 -2.94682 0
M  V30 1538 C 144.865 5.30452 -3.44679 0
M  V30 1539 C 143.529 5.48175 -3.80868 0
M  V30 1540 H 142.799 0.739612 -0.0453381 0
M  V30 1541 H 145.446 1.73648 -0.807389 0
M  V30 1542 H 143.751 3.85202 0.715991 0
M  V30 1543 H 145.448 3.99456 0.351533 0
M  V30 1544 H 142.038 4.14932 -1.07375 0
M  V30 1545 H 146.222 4.55715 -1.96565 0
M  V30 1546 H 141.478 5.19235 -3.22809 0
M  V30 1547 H 145.652 5.61385 -4.12092 0
M  V30 1548 H 143.279 5.92912 -4.75773 0
M  V30 1549 N 144.854 0.36279 1.53368 0
M  V30 1550 C 146.103 -0.22888 2.00397 0
M  V30 1551 C 146.416 -1.50096 1.25421 0
M  V30 1552 O 147.622 -2.17106 1.63025 0
M  V30 1553 C 146.078 -0.458417 3.56969 0
M  V30 1554 C 145.686 0.798877 4.4082 0
M  V30 1555 C 147.43 -1.00789 4.12361 0
M  V30 1556 C 145.337 0.539078 5.88938 0
M  V30 1557 H 144.267 -0.089305 0.748693 0
M  V30 1558 H 146.918 0.481099 1.77081 0
M  V30 1559 H 145.3 -1.22959 3.76427 0
M  V30 1560 H 146.474 1.57262 4.33134 0
M  V30 1561 H 144.789 1.27137 3.96516 0
M  V30 1562 H 147.386 -1.21754 5.20653 0
M  V30 1563 H 147.729 -1.9692 3.66781 0
M  V30 1564 H 148.262 -0.296961 3.9669 0
M  V30 1565 H 145.001 1.47064 6.3879 0
M  V30 1566 H 144.521 -0.196222 5.99479 0
M  V30 1567 H 146.2 0.163542 6.46793 0
M  V30 1568 N 146.332 -1.57332 0.0918853 0
M  V30 1569 C 147.264 -2.10869 -0.898168 0
M  V30 1570 C 148.277 -1.04521 -1.24817 0
M  V30 1571 O 149.466 -1.31977 -1.20184 0
M  V30 1572 C 146.566 -2.57083 -2.2082 0
M  V30 1573 C 145.739 -3.87229 -2.03402 0
M  V30 1574 C 144.798 -4.19324 -3.17889 0
M  V30 1575 O 143.824 -4.88598 -2.91994 0
M  V30 1576 N 145.026 -3.74471 -4.43567 0
M  V30 1577 H 147.791 -2.96439 -0.440943 0
M  V30 1578 H 145.352 -1.61631 -0.0933064 0
M  V30 1579 H 147.344 -2.75602 -2.96354 0
M  V30 1580 H 145.914 -1.76541 -2.57977 0
M  V30 1581 H 145.134 -3.7789 -1.12218 0
M  V30 1582 H 146.422 -4.72379 -1.89038 0
M  V30 1583 H 145.82 -3.18546 -4.67488 0
M  V30 1584 H 144.377 -3.98151 -5.16061 0
M  V30 1585 N 147.81 0.181792 -1.56548 0
M  V30 1586 C 148.72 1.24538 -1.98815 0
M  V30 1587 C 149.736 1.49045 -0.897861 0
M  V30 1588 O 150.912 1.61399 -1.20467 0
M  V30 1589 C 147.977 2.56683 -2.33055 0
M  V30 1590 C 147.038 2.40131 -3.55859 0
M  V30 1591 C 146.271 3.65975 -3.88456 0
M  V30 1592 O 146.494 4.70711 -3.22161 0
M  V30 1593 O 145.428 3.6071 -4.81842 0
M  V30 1594 H 149.254 0.916647 -2.89536 0
M  V30 1595 H 146.839 0.387842 -1.44278 0
M  V30 1596 H 148.721 3.34655 -2.56094 0
M  V30 1597 H 147.396 2.89157 -1.45498 0
M  V30 1598 H 146.303 1.60226 -3.38051 0
M  V30 1599 H 147.636 2.12585 -4.43924 0
M  V30 1600 N 149.288 1.51039 0.449983 0
M  V30 1601 C 150.537 1.62317 1.19733 0
M  V30 1602 C 150.85 0.339101 1.92638 0
M  V30 1603 O 152.056 0.331069 2.69474 0
M  V30 1604 C 150.512 2.86608 2.17678 0
M  V30 1605 C 150.12 4.21972 1.50479 0
M  V30 1606 C 151.864 3.07239 2.92924 0
M  V30 1607 C 149.771 5.37426 2.46834 0
M  V30 1608 H 148.701 0.604532 0.450619 0
M  V30 1609 H 151.352 1.77494 0.465625 0
M  V30 1610 H 149.734 2.65037 2.94231 0
M  V30 1611 H 150.908 4.53878 0.795716 0
M  V30 1612 H 149.223 4.07117 0.874344 0
M  V30 1613 H 151.82 3.90668 3.65079 0
M  V30 1614 H 152.163 2.19807 3.5354 0
M  V30 1615 H 152.696 3.29091 2.23481 0
M  V30 1616 H 149.435 6.27079 1.90926 0
M  V30 1617 H 148.955 5.09912 3.15832 0
M  V30 1618 H 150.634 5.68862 3.08228 0
M  V30 1619 N 150.766 -0.704594 1.40972 0
M  V30 1620 C 152.182 -1.01406 1.23244 0
M  V30 1621 C 152.382 -2.01169 0.115399 0
M  V30 1622 O 151.438 -2.47021 -0.523147 0
M  V30 1623 C 152.751 -1.54728 2.57836 0
M  V30 1624 C 154.299 -1.66658 2.64942 0
M  V30 1625 C 154.774 -2.23383 3.9983 0
M  V30 1626 N 156.265 -2.30756 4.01629 0
M  V30 1627 C 157 -2.75655 5.02794 0
M  V30 1628 N 156.496 -3.20225 6.14352 0
M  V30 1629 N 158.289 -2.75138 4.90159 0
M  V30 1630 H 150.44 -0.0435285 2.12355 0
M  V30 1631 H 152.703 -0.0818951 0.944456 0
M  V30 1632 H 152.409 -0.888832 3.40283 0
M  V30 1633 H 152.283 -2.53084 2.79693 0
M  V30 1634 H 154.67 -2.31617 1.8286 0
M  V30 1635 H 154.751 -0.668717 2.46904 0
M  V30 1636 H 154.395 -1.59043 4.82357 0
M  V30 1637 H 154.325 -3.23904 4.15203 0
M  V30 1638 H 156.816 -1.99291 3.21079 0
M  V30 1639 H 157.129 -3.53084 6.87424 0
M  V30 1640 H 155.474 -3.18156 6.17901 0
M  V30 1641 H 158.665 -2.39661 4.02095 0
M  V30 1642 H 158.838 -3.09812 5.6914 0
M  V30 1643 N 152.244 -1.26651 -0.937939 0
M  V30 1644 C 153.66 -1.03834 -1.21205 0
M  V30 1645 C 153.86 0.234502 -2.00131 0
M  V30 1646 O 152.916 0.942767 -2.3424 0
M  V30 1647 C 154.229 -2.27167 -1.97017 0
M  V30 1648 C 155.777 -2.32101 -2.09996 0
M  V30 1649 C 156.252 -3.55136 -2.8921 0
M  V30 1650 N 157.743 -3.55632 -2.96783 0
M  V30 1651 C 158.478 -4.475 -3.58512 0
M  V30 1652 N 157.974 -5.4966 -4.21717 0
M  V30 1653 N 159.767 -4.35145 -3.55816 0
M  V30 1654 H 151.918 -2.08398 -0.410391 0
M  V30 1655 H 154.181 -0.916031 -0.244114 0
M  V30 1656 H 153.887 -3.19765 -1.46434 0
M  V30 1657 H 153.761 -2.31672 -2.97671 0
M  V30 1658 H 156.148 -1.40015 -2.59769 0
M  V30 1659 H 156.229 -2.31605 -1.08594 0
M  V30 1660 H 155.873 -4.47553 -2.40123 0
M  V30 1661 H 155.803 -3.5288 -3.90875 0
M  V30 1662 H 158.294 -2.81743 -2.51852 0
M  V30 1663 H 158.607 -6.15943 -4.66727 0
M  V30 1664 H 156.952 -5.53514 -4.20294 0
M  V30 1665 H 160.143 -3.5455 -3.05634 0
M  V30 1666 H 160.316 -5.06934 -4.03636 0
M  V30 1667 N 153.722 1.14298 -1.08507 0
M  V30 1668 C 154.654 2.1907 -0.673859 0
M  V30 1669 C 155.667 1.60381 0.279577 0
M  V30 1670 O 156.856 1.78374 0.0670754 0
M  V30 1671 C 153.956 3.38888 0.0290979 0
M  V30 1672 C 153.129 4.27103 -0.943494 0
M  V30 1673 C 152.188 5.25477 -0.275676 0
M  V30 1674 O 151.214 5.61709 -0.920401 0
M  V30 1675 N 152.416 5.7227 0.974013 0
M  V30 1676 H 155.181 2.54965 -1.57521 0
M  V30 1677 H 152.742 1.29528 -0.971287 0
M  V30 1678 H 154.734 4.01761 0.48683 0
M  V30 1679 H 153.304 3.01309 0.832555 0
M  V30 1680 H 152.524 3.61149 -1.58004 0
M  V30 1681 H 153.812 4.82905 -1.60251 0
M  V30 1682 H 153.21 5.44965 1.51755 0
M  V30 1683 H 151.767 6.37127 1.37522 0
M  V30 1684 N 155.201 0.870884 1.31352 0
M  V30 1685 C 156.131 0.343096 2.30966 0
M  V30 1686 C 157.112 -0.566507 1.60389 0
M  V30 1687 O 158.297 -0.483336 1.88089 0
M  V30 1688 C 155.427 -0.455487 3.443 0
M  V30 1689 C 154.381 0.361103 4.26474 0
M  V30 1690 C 153.707 -0.563221 5.31725 0
M  V30 1691 C 155.007 1.59566 4.97329 0
M  V30 1692 H 156.701 1.17548 2.75359 0
M  V30 1693 H 154.247 0.566686 1.32381 0
M  V30 1694 H 156.2 -0.83525 4.13039 0
M  V30 1695 H 154.924 -1.32139 2.98675 0
M  V30 1696 H 153.583 0.722825 3.59403 0
M  V30 1697 H 153.231 -1.42643 4.82351 0
M  V30 1698 H 152.931 -0.0207409 5.87596 0
M  V30 1699 H 154.455 -0.939808 6.03324 0
M  V30 1700 H 155.869 1.28728 5.58661 0
M  V30 1701 H 154.266 2.07728 5.63 0
M  V30 1702 H 155.336 2.34798 4.24262 0
M  V30 1703 N 156.679 -1.44442 0.630414 0
M  V30 1704 C 157.589 -2.34476 -0.0761693 0
M  V30 1705 C 158.605 -1.52576 -0.836449 0
M  V30 1706 O 159.781 -1.85307 -0.788874 0
M  V30 1707 C 156.846 -3.30545 -1.04599 0
M  V30 1708 C 155.907 -4.28352 -0.28516 0
M  V30 1709 C 155.14 -5.19831 -1.20878 0
M  V30 1710 O 155.363 -5.15223 -2.44747 0
M  V30 1711 O 154.297 -5.97892 -0.693491 0
M  V30 1712 H 158.123 -2.96345 0.664324 0
M  V30 1713 H 155.708 -1.44203 0.39061 0
M  V30 1714 H 157.59 -3.89681 -1.60396 0
M  V30 1715 H 156.265 -2.7121 -1.76711 0
M  V30 1716 H 155.172 -3.72764 0.315837 0
M  V30 1717 H 156.505 -4.90605 0.395924 0
M  V30 1718 N 158.157 -0.370918 -1.53173 0
M  V30 1719 C 159.12 0.460778 -2.24521 0
M  V30 1720 C 160.12 1.00536 -1.25496 0
M  V30 1721 O 161.31 0.890266 -1.49733 0
M  V30 1722 C 158.442 1.64457 -2.98608 0
M  V30 1723 H 159.635 -0.163613 -2.99453 0
M  V30 1724 H 157.188 -0.122699 -1.55818 0
M  V30 1725 H 157.923 2.30691 -2.2793 0
M  V30 1726 H 157.708 1.26099 -3.7127 0
M  V30 1727 H 159.198 2.23384 -3.5283 0
M  V30 1728 N 159.635 1.57281 -0.100228 0
M  V30 1729 C 160.875 1.96419 0.56558 0
M  V30 1730 C 161.239 0.981265 1.65031 0
M  V30 1731 O 162.44 1.26133 2.37369 0
M  V30 1732 C 160.711 3.39996 1.10171 0
M  V30 1733 S 162.27 4.01134 1.77867 0
M  V30 1734 H 159.088 0.68667 0.184406 0
M  V30 1735 H 161.69 1.94662 -0.180851 0
M  V30 1736 H 160.394 4.09296 0.300803 0
M  V30 1737 H 159.925 3.45361 1.88385 0
M  V30 1738 H 161.94 3.90358 3.06326 0
M  V30 1739 N 161.113 -0.173488 1.56642 0
M  V30 1740 C 162.045 -1.23935 1.92802 0
M  V30 1741 C 163.058 -1.40589 0.820889 0
M  V30 1742 O 164.247 -1.40631 1.09933 0
M  V30 1743 C 161.347 -2.60837 2.16373 0
M  V30 1744 C 160.52 -2.6551 3.47596 0
M  V30 1745 C 159.579 -3.8376 3.60021 0
M  V30 1746 O 158.605 -3.69859 4.32658 0
M  V30 1747 N 159.807 -5.00127 2.94709 0
M  V30 1748 H 162.572 -0.932236 2.84832 0
M  V30 1749 H 160.133 -0.363268 1.57772 0
M  V30 1750 H 162.125 -3.38407 2.21952 0
M  V30 1751 H 160.695 -2.83948 1.30738 0
M  V30 1752 H 159.915 -1.74052 3.53694 0
M  V30 1753 H 161.203 -2.65641 4.33949 0
M  V30 1754 H 160.601 -5.14322 2.35563 0
M  V30 1755 H 159.158 -5.75567 3.05886 0
M  V30 1756 N 162.591 -1.51276 -0.441967 0
M  V30 1757 C 164.007 -1.39349 -0.778083 0
M  V30 1758 C 164.207 -0.472212 -1.95889 0
M  V30 1759 O 163.263 0.0743551 -2.5239 0
M  V30 1760 C 164.576 -2.81292 -1.0628 0
M  V30 1761 C 166.124 -2.9041 -1.16751 0
M  V30 1762 C 166.599 -4.33251 -1.48519 0
M  V30 1763 N 168.09 -4.36336 -1.55453 0
M  V30 1764 C 168.825 -5.43885 -1.81596 0
M  V30 1765 N 168.321 -6.61601 -2.05562 0
M  V30 1766 N 170.114 -5.3136 -1.8334 0
M  V30 1767 H 162.265 -2.09729 0.335774 0
M  V30 1768 H 164.528 -0.943925 0.0878028 0
M  V30 1769 H 164.234 -3.50678 -0.267905 0
M  V30 1770 H 164.108 -3.20334 -1.99163 0
M  V30 1771 H 166.495 -2.21225 -1.95304 0
M  V30 1772 H 166.576 -2.54871 -0.217801 0
M  V30 1773 H 166.22 -5.02984 -0.704958 0
M  V30 1774 H 166.15 -4.66299 -2.44689 0
M  V30 1775 H 168.641 -3.51466 -1.38853 0
M  V30 1776 H 168.954 -7.39361 -2.24867 0
M  V30 1777 H 167.299 -6.64725 -2.02894 0
M  V30 1778 H 170.49 -4.38382 -1.64132 0
M  V30 1779 H 170.663 -6.15258 -2.03377 0
M  V30 1780 N 164.069 0.697108 -1.41344 0
M  V30 1781 C 164.979 1.84088 -1.45427 0
M  V30 1782 C 165.995 1.70545 -0.34501 0
M  V30 1783 O 167.171 1.92488 -0.592492 0
M  V30 1784 C 164.236 3.20056 -1.33286 0
M  V30 1785 C 163.297 3.45718 -2.54514 0
M  V30 1786 C 162.53 4.75199 -2.42944 0
M  V30 1787 O 162.753 5.51579 -1.45318 0
M  V30 1788 O 161.687 5.0161 -3.32672 0
M  V30 1789 H 165.513 1.836 -2.41919 0
M  V30 1790 H 163.098 0.849966 -1.22866 0
M  V30 1791 H 164.98 4.01236 -1.28794 0
M  V30 1792 H 163.655 3.2123 -0.39909 0
M  V30 1793 H 162.562 2.64474 -2.64583 0
M  V30 1794 H 163.895 3.49356 -3.46715 0
M  V30 1795 N 165.547 1.27147 0.931209 0
M  V30 1796 C 166.963 1.04475 1.20653 0
M  V30 1797 C 167.163 -0.223885 2.00252 0
M  V30 1798 O 166.219 -0.930332 2.34736 0
M  V30 1799 C 167.532 2.28209 1.95809 0
M  V30 1800 C 169.08 2.33211 2.08762 0
M  V30 1801 C 169.555 3.56665 2.87323 0
M  V30 1802 N 171.046 3.57201 2.94892 0
M  V30 1803 C 171.781 4.49395 3.56134 0
M  V30 1804 N 171.277 5.51889 4.18796 0
M  V30 1805 N 173.07 4.37026 3.53504 0
M  V30 1806 H 165.221 2.08612 0.399333 0
M  V30 1807 H 167.484 0.917312 0.239253 0
M  V30 1808 H 167.19 3.20538 1.44736 0
M  V30 1809 H 167.064 2.33247 2.96438 0
M  V30 1810 H 169.451 1.41391 2.59023 0
M  V30 1811 H 169.532 2.32178 1.07364 0
M  V30 1812 H 169.176 4.4882 2.37746 0
M  V30 1813 H 169.106 3.54948 3.88998 0
M  V30 1814 H 171.597 2.83074 2.50354 0
M  V30 1815 H 171.91 6.18409 4.63454 0
M  V30 1816 H 170.255 5.55735 4.17353 0
M  V30 1817 H 173.446 3.56166 3.03749 0
M  V30 1818 H 173.619 5.09067 4.00942 0
M  V30 1819 N 167.025 -1.13721 1.09112 0
M  V30 1820 C 167.988 -2.17222 0.731241 0
M  V30 1821 C 168.988 -1.59035 -0.237566 0
M  V30 1822 O 170.178 -1.74192 -0.0161704 0
M  V30 1823 C 167.31 -3.40804 0.0808443 0
M  V30 1824 H 168.503 -2.50573 1.64783 0
M  V30 1825 H 166.056 -1.28493 0.889897 0
M  V30 1826 H 166.791 -3.1304 -0.847127 0
M  V30 1827 H 166.576 -3.84306 0.777896 0
M  V30 1828 H 168.066 -4.1731 -0.155657 0
M  V30 1829 N 168.503 -0.877838 -1.30888 0
M  V30 1830 C 169.75 -0.492696 -1.96415 0
M  V30 1831 C 170.078 0.956671 -1.69346 0
M  V30 1832 O 169.333 1.68993 -0.986913 0
M  V30 1833 C 169.632 -0.705748 -3.50363 0
M  V30 1834 C 169.298 -2.1291 -3.97467 0
M  V30 1835 C 167.96 -2.51834 -4.1004 0
M  V30 1836 C 170.312 -3.05702 -4.22132 0
M  V30 1837 C 167.64 -3.82775 -4.44635 0
M  V30 1838 C 169.992 -4.36166 -4.58194 0
M  V30 1839 C 168.656 -4.74993 -4.68975 0
M  V30 1840 H 167.926 -0.18029 -0.718733 0
M  V30 1841 H 170.573 -1.11233 -1.55883 0
M  V30 1842 H 168.878 -0.00303058 -3.918 0
M  V30 1843 H 170.575 -0.387456 -3.99124 0
M  V30 1844 H 167.165 -1.81694 -3.88182 0
M  V30 1845 H 171.349 -2.76853 -4.11906 0
M  V30 1846 H 166.605 -4.12609 -4.51181 0
M  V30 1847 H 170.779 -5.08111 -4.76231 0
M  V30 1848 H 168.406 -5.76495 -4.95537 0
M  V30 1849 N 169.982 1.44106 -0.638065 0
M  V30 1850 C 171.207 2.0685 -0.150916 0
M  V30 1851 C 171.632 1.47417 1.16833 0
M  V30 1852 O 170.99 0.578264 1.71831 0
M  V30 1853 C 171.038 3.60555 -0.05708 0
M  V30 1854 O 170.142 4.00465 0.984972 0
M  V30 1855 H 169.483 0.658151 -0.0879399 0
M  V30 1856 H 172.013 1.84865 -0.876707 0
M  V30 1857 H 172.023 4.07789 0.131232 0
M  V30 1858 H 170.698 4.03193 -1.02021 0
M  V30 1859 H 169.275 3.64849 0.770672 0
M  V30 1860 N 171.46 0.379036 1.52974 0
M  V30 1861 C 172.706 -0.206727 2.01744 0
M  V30 1862 C 173.039 -1.47314 1.26539 0
M  V30 1863 O 172.314 -1.91084 0.362903 0
M  V30 1864 C 172.597 -0.485066 3.56818 0
M  V30 1865 C 172.45 0.795919 4.42702 0
M  V30 1866 C 173.769 -1.28003 4.21074 0
M  V30 1867 H 170.888 -0.0736607 0.73331 0
M  V30 1868 H 173.53 0.506581 1.83122 0
M  V30 1869 H 171.68 -1.09272 3.72816 0
M  V30 1870 H 173.352 1.43307 4.38476 0
M  V30 1871 H 171.595 1.41344 4.10127 0
M  V30 1872 H 172.266 0.555947 5.49193 0
M  V30 1873 H 174.742 -0.765867 4.08991 0
M  V30 1874 H 173.618 -1.44352 5.29579 0
M  V30 1875 H 173.879 -2.29236 3.78026 0
M  V30 1876 N 172.938 -1.57226 0.108567 0
M  V30 1877 C 173.885 -2.14756 -0.845481 0
M  V30 1878 C 174.855 -1.06971 -1.27068 0
M  V30 1879 O 176.04 -1.34827 -1.35005 0
M  V30 1880 C 173.18 -2.74298 -2.09415 0
M  V30 1881 C 172.293 -3.96358 -1.71826 0
M  V30 1882 C 171.428 -4.44021 -2.9158 0
M  V30 1883 C 170.467 -5.58637 -2.50181 0
M  V30 1884 N 169.604 -6.01091 -3.62814 0
M  V30 1885 H 174.444 -2.95961 -0.348035 0
M  V30 1886 H 171.981 -1.46226 -0.160106 0
M  V30 1887 H 173.939 -3.06945 -2.82561 0
M  V30 1888 H 172.569 -1.95801 -2.56636 0
M  V30 1889 H 171.621 -3.69939 -0.885947 0
M  V30 1890 H 172.933 -4.79504 -1.37394 0
M  V30 1891 H 172.087 -4.78522 -3.72963 0
M  V30 1892 H 170.826 -3.59803 -3.29231 0
M  V30 1893 H 169.831 -5.23751 -1.67228 0
M  V30 1894 H 171.056 -6.44613 -2.13659 0
M  V30 1895 H 169.002 -5.19817 -4.00158 0
M  V30 1896 H 168.919 -6.79066 -3.32273 0
M  V30 1897 H 170.187 -6.40227 -4.44668 0
M  V30 1898 N 174.416 0.165178 -1.56732 0
M  V30 1899 C 175.663 0.880807 -1.8234 0
M  V30 1900 C 175.991 1.81977 -0.686621 0
M  V30 1901 O 175.246 1.92971 0.325697 0
M  V30 1902 C 175.545 1.70405 -3.1416 0
M  V30 1903 C 175.211 0.913475 -4.4155 0
M  V30 1904 C 173.873 0.695303 -4.7615 0
M  V30 1905 C 176.225 0.359349 -5.1996 0
M  V30 1906 C 173.553 -0.0879947 -5.86634 0
M  V30 1907 C 175.905 -0.410893 -6.31264 0
M  V30 1908 C 174.569 -0.639808 -6.64427 0
M  V30 1909 H 173.839 0.32231 -0.667231 0
M  V30 1910 H 176.486 0.145402 -1.90947 0
M  V30 1911 H 174.791 2.50903 -3.00923 0
M  V30 1912 H 176.488 2.26091 -3.31186 0
M  V30 1913 H 173.078 1.09357 -4.14414 0
M  V30 1914 H 177.262 0.515228 -4.93618 0
M  V30 1915 H 172.518 -0.27503 -6.10781 0
M  V30 1916 H 176.692 -0.847494 -6.91224 0
M  V30 1917 H 174.319 -1.24864 -7.49875 0
M  V30 1918 N 175.894 1.51508 0.433938 0
M  V30 1919 C 176.804 1.75917 1.5521 0
M  V30 1920 C 177.82 0.643545 1.61662 0
M  V30 1921 O 178.996 0.926183 1.7884 0
M  V30 1922 C 176.061 1.88213 2.91164 0
M  V30 1923 C 175.122 3.12074 2.94802 0
M  V30 1924 C 174.355 3.23774 4.24271 0
M  V30 1925 O 174.578 2.4133 5.16833 0
M  V30 1926 O 173.512 4.16774 4.34262 0
M  V30 1927 H 177.338 2.70777 1.37527 0
M  V30 1928 H 174.923 1.36051 0.617293 0
M  V30 1929 H 176.805 1.98267 3.71845 0
M  V30 1930 H 175.48 0.965413 3.08968 0
M  V30 1931 H 174.387 3.07497 2.13065 0
M  V30 1932 H 175.72 4.03446 2.81943 0
M  V30 1933 N 177.372 -0.689602 1.41712 0
M  V30 1934 C 178.618 -1.45181 1.41599 0
M  V30 1935 C 178.951 -1.94181 0.0270081 0
M  V30 1936 O 178.226 -1.6993 -0.946265 0
M  V30 1937 C 178.509 -2.65945 2.42787 0
M  V30 1938 C 178.362 -2.22672 3.90816 0
M  V30 1939 C 179.681 -3.68149 2.41151 0
M  V30 1940 H 176.8 -0.526576 0.515642 0
M  V30 1941 H 179.442 -0.784947 1.73028 0
M  V30 1942 H 177.592 -3.2284 2.16116 0
M  V30 1943 H 179.264 -1.71058 4.28412 0
M  V30 1944 H 177.507 -1.54394 4.05395 0
M  V30 1945 H 178.178 -3.0935 4.57172 0
M  V30 1946 H 180.654 -3.2094 2.64834 0
M  V30 1947 H 179.53 -4.50248 3.13955 0
M  V30 1948 H 179.791 -4.18259 1.43221 0
M  V30 1949 N 178.85 -1.27639 -0.924453 0
M  V30 1950 C 179.782 -1.06442 -2.02985 0
M  V30 1951 C 180.795 -0.0194771 -1.62788 0
M  V30 1952 O 181.984 -0.261388 -1.76576 0
M  V30 1953 C 179.084 -0.59327 -3.33667 0
M  V30 1954 C 178.257 -1.71123 -4.02537 0
M  V30 1955 C 177.316 -1.23527 -5.11495 0
M  V30 1956 O 176.342 -1.93553 -5.35281 0
M  V30 1957 N 177.544 -0.0926678 -5.80426 0
M  V30 1958 H 180.309 -2.01633 -2.2173 0
M  V30 1959 H 177.87 -1.19248 -1.09505 0
M  V30 1960 H 179.862 -0.258686 -4.03872 0
M  V30 1961 H 178.432 0.265502 -3.1147 0
M  V30 1962 H 177.652 -2.21593 -3.26022 0
M  V30 1963 H 178.94 -2.46145 -4.45298 0
M  V30 1964 H 178.338 0.491741 -5.63559 0
M  V30 1965 H 176.895 0.182714 -6.51544 0
M  V30 1966 N 180.328 1.1314 -1.09713 0
M  V30 1967 C 181.291 2.16831 -0.742751 0
M  V30 1968 C 182.291 1.59159 0.229129 0
M  V30 1969 O 183.481 1.74199 0.00693237 0
M  V30 1970 C 180.613 3.40756 -0.0989168 0
M  V30 1971 H 181.806 2.49695 -1.66109 0
M  V30 1972 H 179.359 1.2802 -0.896699 0
M  V30 1973 H 180.094 3.13485 0.830514 0
M  V30 1974 H 179.879 3.83888 -0.798265 0
M  V30 1975 H 181.369 4.17386 0.133524 0
M  V30 1976 N 181.806 0.884767 1.30421 0
M  V30 1977 C 183.217 0.553656 1.78302 0
M  V30 1978 C 183.568 -0.930153 1.7275 0
M  V30 1979 O 182.693 -1.72681 1.30423 0
M  V30 1980 C 183.288 0.998234 3.2376 0
M  V30 1981 C 181.847 0.71854 3.69478 0
M  V30 1982 C 180.994 1.18132 2.50879 0
M  V30 1983 H 183.945 1.06901 1.17294 0
M  V30 1984 H 183.966 0.327118 3.79091 0
M  V30 1985 H 183.478 2.0782 3.27769 0
M  V30 1986 H 181.579 -0.349444 3.70958 0
M  V30 1987 H 181.692 1.30595 4.60958 0
M  V30 1988 H 180.056 0.600669 2.47516 0
M  V30 1989 H 180.839 2.26902 2.57624 0
M  V30 1990 N 183.284 -1.43765 0.645699 0
M  V30 1991 C 184.7 -1.56509 0.312591 0
M  V30 1992 C 184.9 -1.6307 -1.18365 0
M  V30 1993 O 183.956 -1.58167 -1.96824 0
M  V30 1994 C 185.269 -2.82968 1.01733 0
M  V30 1995 C 186.817 -2.96701 0.996865 0
M  V30 1996 C 187.292 -4.25982 1.68236 0
M  V30 1997 N 188.783 -4.32829 1.64964 0
M  V30 1998 C 189.518 -5.31613 2.14885 0
M  V30 1999 N 189.014 -6.36718 2.73061 0
M  V30 2000 N 190.807 -5.23217 2.05428 0
M  V30 2001 H 182.958 -1.3775 1.61675 0
M  V30 2002 H 185.221 -0.661067 0.679481 0
M  V30 2003 H 184.927 -2.84156 2.0724 0
M  V30 2004 H 184.801 -3.72957 0.564177 0
M  V30 2005 H 187.188 -2.95058 -0.0497719 0
M  V30 2006 H 187.269 -2.08022 1.48865 0
M  V30 2007 H 186.913 -4.28386 2.72852 0
M  V30 2008 H 186.843 -5.13545 1.16529 0
M  V30 2009 H 189.334 -3.57493 1.22503 0
M  V30 2010 H 189.647 -7.08401 3.08848 0
M  V30 2011 H 187.992 -6.37362 2.77118 0
M  V30 2012 H 191.183 -4.40019 1.59689 0
M  V30 2013 H 191.356 -6.00045 2.44643 0
M  V30 2014 N 184.763 -0.387143 -1.52771 0
M  V30 2015 C 186.009 0.188506 -2.02525 0
M  V30 2016 C 186.364 1.44649 -1.26864 0
M  V30 2017 O 185.657 1.88189 -0.359945 0
M  V30 2018 C 185.851 0.512209 -3.53711 0
M  V30 2019 C 185.68 -0.712855 -4.44014 0
M  V30 2020 C 184.45 -1.23147 -4.90064 0
M  V30 2021 C 186.648 -1.58453 -4.89282 0
M  V30 2022 N 184.63 -2.41431 -5.64433 0
M  V30 2023 C 186.001 -2.61381 -5.6221 0
M  V30 2024 C 188.056 -1.60488 -4.71326 0
M  V30 2025 C 186.759 -3.66227 -6.19088 0
M  V30 2026 C 188.785 -2.6424 -5.29085 0
M  V30 2027 C 188.147 -3.6589 -6.01917 0
M  V30 2028 H 184.246 0.0311236 -0.78138 0
M  V30 2029 H 186.83 -0.536548 -1.87161 0
M  V30 2030 H 185.001 1.20632 -3.69192 0
M  V30 2031 H 186.733 1.07482 -3.90166 0
M  V30 2032 H 183.488 -0.792795 -4.66917 0
M  V30 2033 H 183.912 -3.01274 -6.0627 0
M  V30 2034 H 188.554 -0.83247 -4.14524 0
M  V30 2035 H 186.272 -4.44337 -6.74974 0
M  V30 2036 H 189.858 -2.66695 -5.17074 0
M  V30 2037 H 188.738 -4.44855 -6.45813 0
M  V30 2038 N 186.241 1.57166 -0.116904 0
M  V30 2039 C 187.489 1.94737 0.540533 0
M  V30 2040 C 187.81 1.00096 1.67349 0
M  V30 2041 O 187.08 0.0568854 1.95817 0
M  V30 2042 H 185.66 0.718981 0.202669 0
M  V30 2043 H 188.322 1.94017 -0.185353 0
M  V30 2044 H 187.418 2.97719 0.936483 0
M  V30 2045 N 187.719 -0.156864 1.56817 0
M  V30 2046 C 188.667 -1.21319 1.98455 0
M  V30 2047 C 189.661 -1.45025 0.875444 0
M  V30 2048 O 190.867 -1.45435 1.0606 0
M  V30 2049 H 187.242 -0.408142 0.631605 0
M  V30 2050 H 189.213 -0.835244 2.86472 0
M  V30 2051 C 187.962 -2.54148 2.37285 0
M  V30 2052 H 187.285 -2.36733 3.22176 0
M  V30 2053 H 188.725 -3.26712 2.70251 0
M  V30 2054 C 187.184 -3.13967 1.22173 0
M  V30 2055 O 187.714 -3.98357 0.517149 0
M  V30 2056 N 185.92 -2.7327 0.988536 0
M  V30 2057 H 185.467 -2.04744 1.56326 0
M  V30 2058 H 185.425 -3.13628 0.220209 0
M  V30 2059 N 189.197 -1.51736 -0.425897 0
M  V30 2060 C 190.608 -1.5732 -1.00536 0
M  V30 2061 C 190.959 -0.403537 -1.92005 0
M  V30 2062 O 190.084 0.478256 -2.11049 0
M  V30 2063 C 190.679 -2.85119 -1.8301 0
M  V30 2064 C 189.238 -2.93236 -2.35987 0
M  V30 2065 C 188.385 -2.52098 -1.15508 0
M  V30 2066 H 191.336 -1.57348 -0.206739 0
M  V30 2067 H 191.357 -2.69526 -2.68581 0
M  V30 2068 H 190.869 -3.7023 -1.16411 0
M  V30 2069 H 188.97 -2.12581 -3.06007 0
M  V30 2070 H 189.083 -3.9713 -2.68001 0
M  V30 2071 H 187.447 -2.05558 -1.50393 0
M  V30 2072 H 188.23 -3.39565 -0.505014 0
M  V30 2073 N 190.675 0.682077 -1.42076 0
M  V30 2074 C 192.091 0.994324 -1.24841 0
M  V30 2075 C 192.291 2.0096 -0.147389 0
M  V30 2076 O 191.347 2.47822 0.483782 0
M  V30 2077 C 192.66 1.50607 -2.60265 0
M  V30 2078 C 194.208 1.62421 -2.6756 0
M  V30 2079 C 194.683 2.16994 -4.03333 0
M  V30 2080 N 196.174 2.24337 -4.0525 0
M  V30 2081 C 196.909 2.67621 -5.07116 0
M  V30 2082 N 196.405 3.1041 -6.19368 0
M  V30 2083 N 198.198 2.67305 -4.94474 0
M  V30 2084 H 190.349 0.00973908 -2.12398 0
M  V30 2085 H 192.612 0.0668593 -0.945639 0
M  V30 2086 H 192.318 0.834583 -3.41654 0
M  V30 2087 H 192.192 2.48602 -2.83684 0
M  V30 2088 H 194.579 2.28678 -1.86521 0
M  V30 2089 H 194.66 0.629352 -2.47937 0
M  V30 2090 H 194.304 1.51349 -4.84826 0
M  V30 2091 H 194.234 3.17258 -4.20304 0
M  V30 2092 H 196.725 1.94158 -3.24209 0
M  V30 2093 H 197.038 3.42103 -6.92954 0
M  V30 2094 H 195.383 3.08286 -6.22884 0
M  V30 2095 H 198.574 2.33233 -4.05857 0
M  V30 2096 H 198.747 3.00718 -5.73997 0
M  V30 2097 N 192.153 1.28127 0.917671 0
M  V30 2098 C 193.116 1.11744 2.00115 0
M  V30 2099 C 194.116 0.0583052 1.60694 0
M  V30 2100 O 195.306 0.303755 1.71531 0
M  V30 2101 C 192.438 0.704862 3.33533 0
M  V30 2102 H 193.631 2.07966 2.16079 0
M  V30 2103 H 191.184 1.11058 1.09981 0
M  V30 2104 H 191.919 -0.258299 3.2327 0
M  V30 2105 H 191.704 1.4699 3.63505 0
M  V30 2106 H 193.194 0.612768 4.1308 0
M  V30 2107 N 193.631 -1.12557 1.10312 0
M  V30 2108 C 194.561 -2.20341 0.772798 0
M  V30 2109 C 195.542 -1.68198 -0.25365 0
M  V30 2110 O 196.727 -1.93831 -0.119699 0
M  V30 2111 C 193.857 -3.46709 0.202443 0
M  V30 2112 C 192.811 -4.11996 1.15943 0
M  V30 2113 C 192.137 -5.328 0.450345 0
M  V30 2114 C 193.437 -4.5828 2.50552 0
M  V30 2115 H 195.131 -2.48229 1.674 0
M  V30 2116 H 192.677 -1.19308 0.806326 0
M  V30 2117 H 194.63 -4.2138 -0.0407752 0
M  V30 2118 H 193.354 -3.18245 -0.734001 0
M  V30 2119 H 192.013 -3.39305 1.38808 0
M  V30 2120 H 191.661 -5.00602 -0.490531 0
M  V30 2121 H 191.361 -5.7743 1.08851 0
M  V30 2122 H 192.885 -6.10219 0.215642 0
M  V30 2123 H 194.299 -5.2433 2.31843 0
M  V30 2124 H 192.696 -5.13683 3.10242 0
M  V30 2125 H 193.766 -3.72329 3.10643 0
M  V30 2126 N 195.109 -0.891671 -1.2995 0
M  V30 2127 C 196.334 -0.527932 -2.00568 0
M  V30 2128 C 196.759 0.877969 -1.66353 0
M  V30 2129 O 196.117 1.58301 -0.883762 0
M  V30 2130 C 196.165 -0.717745 -3.53385 0
M  V30 2131 O 195.269 0.233376 -4.11739 0
M  V30 2132 H 194.61 -0.20722 -0.630837 0
M  V30 2133 H 197.14 -1.20105 -1.65638 0
M  V30 2134 H 197.15 -0.619307 -4.03272 0
M  V30 2135 H 195.825 -1.74276 -3.77625 0
M  V30 2136 H 194.402 0.0880706 -3.72796 0
M  V30 2137 N 196.587 1.43421 -0.653314 0
M  V30 2138 C 197.834 2.01812 -0.166745 0
M  V30 2139 C 198.162 1.51535 1.21931 0
M  V30 2140 O 197.417 0.698975 1.82792 0
M  V30 2141 C 197.716 3.57176 -0.126623 0
M  V30 2142 C 197.382 4.26798 -1.45444 0
M  V30 2143 C 196.044 4.45534 -1.81805 0
M  V30 2144 C 198.396 4.66225 -2.32989 0
M  V30 2145 C 195.724 5.00961 -3.05377 0
M  V30 2146 C 198.076 5.23021 -3.55853 0
M  V30 2147 C 196.74 5.39973 -3.9241 0
M  V30 2148 H 196.01 0.738484 -0.0610162 0
M  V30 2149 H 198.657 1.71896 -0.84404 0
M  V30 2150 H 196.962 3.86634 0.634123 0
M  V30 2151 H 198.659 4.00112 0.266723 0
M  V30 2152 H 195.249 4.12561 -1.16153 0
M  V30 2153 H 199.433 4.51443 -2.06187 0
M  V30 2154 H 194.689 5.12271 -3.3375 0
M  V30 2155 H 198.863 5.52518 -4.23907 0
M  V30 2156 H 196.49 5.82687 -4.88242 0
M  V30 2157 N 198.065 0.39524 1.52563 0
M  V30 2158 C 199.311 -0.185318 2.01952 0
M  V30 2159 C 199.644 -1.45964 1.28095 0
M  V30 2160 O 198.919 -1.90689 0.38315 0
M  V30 2161 C 199.202 -0.447193 3.57312 0
M  V30 2162 C 199.055 0.842828 4.41833 0
M  V30 2163 C 200.374 -1.23529 4.22408 0
M  V30 2164 H 197.493 -0.0658788 0.73405 0
M  V30 2165 H 200.135 0.525975 1.82575 0
M  V30 2166 H 198.285 -1.05312 3.73954 0
M  V30 2167 H 199.957 1.4795 4.36931 0
M  V30 2168 H 198.2 1.45686 4.08605 0
M  V30 2169 H 198.871 0.614165 5.48573 0
M  V30 2170 H 201.347 -0.722445 4.0978 0
M  V30 2171 H 200.223 -1.38727 5.3108 0
M  V30 2172 H 200.484 -2.25213 3.80436 0
M  V30 2173 N 199.544 -1.57102 0.125237 0
M  V30 2174 C 200.474 -2.18659 -0.819174 0
M  V30 2175 C 201.455 -1.12843 -1.27281 0
M  V30 2176 O 202.64 -1.41104 -1.33429 0
M  V30 2177 C 199.77 -2.79096 -2.06695 0
M  V30 2178 C 198.724 -3.90548 -1.75088 0
M  V30 2179 C 198.05 -4.37821 -3.06948 0
M  V30 2180 C 199.35 -5.12356 -1.01435 0
M  V30 2181 H 201.044 -2.9783 -0.306202 0
M  V30 2182 H 198.59 -1.4326 -0.145839 0
M  V30 2183 H 200.543 -3.2082 -2.73226 0
M  V30 2184 H 199.267 -1.97223 -2.60328 0
M  V30 2185 H 197.926 -3.49409 -1.10944 0
M  V30 2186 H 197.574 -3.52799 -3.58527 0
M  V30 2187 H 197.274 -5.12982 -2.86571 0
M  V30 2188 H 198.798 -4.822 -3.74587 0
M  V30 2189 H 200.212 -5.5106 -1.58132 0
M  V30 2190 H 198.609 -5.9314 -0.911319 0
M  V30 2191 H 199.679 -4.849 -0.00218681 0
M  V30 2192 N 201.022 0.148545 -1.56898 0
M  V30 2193 C 202.247 0.880385 -1.87787 0
M  V30 2194 C 202.672 1.74018 -0.714093 0
M  V30 2195 O 202.03 1.78153 0.336343 0
M  V30 2196 C 202.078 1.71422 -3.17249 0
M  V30 2197 O 201.182 2.8183 -3.01074 0
M  V30 2198 H 200.523 0.245301 -0.617028 0
M  V30 2199 H 203.053 0.139826 -2.04122 0
M  V30 2200 H 203.063 2.10954 -3.49231 0
M  V30 2201 H 201.738 1.08284 -4.01556 0
M  V30 2202 H 200.315 2.45715 -2.80497 0
M  V30 2203 N 202.5 1.5196 0.417844 0
M  V30 2204 C 203.725 1.69717 1.1921 0
M  V30 2205 C 204.15 0.402148 1.83751 0
M  V30 2206 O 203.508 -0.639593 1.69643 0
M  V30 2207 C 203.556 2.82794 2.2374 0
M  V30 2208 O 202.66 2.47756 3.29683 0
M  V30 2209 H 202.001 0.565263 0.348387 0
M  V30 2210 H 204.531 1.98621 0.490985 0
M  V30 2211 H 204.541 3.07452 2.68212 0
M  V30 2212 H 203.216 3.76756 1.76146 0
M  V30 2213 H 201.793 2.33739 2.90552 0
M  V30 2214 N 203.978 -0.674533 1.42435 0
M  V30 2215 C 204.908 -1.80009 1.48724 0
M  V30 2216 C 205.889 -1.6659 0.343793 0
M  V30 2217 O 207.074 -1.86007 0.558137 0
M  V30 2218 C 204.204 -3.18306 1.38919 0
M  V30 2219 C 203.158 -3.46461 2.51294 0
M  V30 2220 C 202.484 -4.84335 2.26547 0
M  V30 2221 C 203.784 -3.43328 3.93603 0
M  V30 2222 H 205.478 -1.75004 2.42928 0
M  V30 2223 H 203.024 -0.840533 1.16923 0
M  V30 2224 H 204.977 -3.9678 1.41927 0
M  V30 2225 H 203.701 -3.2399 0.412094 0
M  V30 2226 H 202.36 -2.70348 2.47604 0
M  V30 2227 H 202.008 -4.86669 1.2713 0
M  V30 2228 H 201.708 -5.04136 3.01861 0
M  V30 2229 H 203.232 -5.65094 2.31304 0
M  V30 2230 H 204.646 -4.11772 3.98894 0
M  V30 2231 H 203.043 -3.74664 4.68771 0
M  V30 2232 H 204.113 -2.41897 4.20255 0
M  V30 2233 N 205.456 -1.28612 -0.910864 0
M  V30 2234 C 206.388 -1.08589 -2.01844 0
M  V30 2235 C 207.401 -0.0367419 -1.62759 0
M  V30 2236 O 208.59 -0.280101 -1.76289 0
M  V30 2237 C 205.69 -0.628626 -3.33019 0
M  V30 2238 C 204.863 -1.75382 -4.00699 0
M  V30 2239 C 203.922 -1.28945 -5.10156 0
M  V30 2240 O 202.948 -1.9922 -5.33198 0
M  V30 2241 N 204.15 -0.154224 -5.80295 0
M  V30 2242 H 206.915 -2.03973 -2.19579 0
M  V30 2243 H 204.476 -1.20403 -1.08234 0
M  V30 2244 H 206.468 -0.301508 -4.03575 0
M  V30 2245 H 205.038 0.232451 -3.11735 0
M  V30 2246 H 204.258 -2.25039 -3.23653 0
M  V30 2247 H 205.546 -2.50854 -4.42662 0
M  V30 2248 H 204.944 0.43194 -5.64049 0
M  V30 2249 H 203.501 0.113599 -6.51701 0
M  V30 2250 N 206.934 1.1197 -1.10907 0
M  V30 2251 C 207.864 2.19928 -0.784473 0
M  V30 2252 C 208.845 1.6833 0.244726 0
M  V30 2253 O 210.03 1.93892 0.109418 0
M  V30 2254 C 207.16 3.46597 -0.220827 0
M  V30 2255 C 206.114 4.11376 -1.18127 0
M  V30 2256 C 205.44 5.32554 -0.478594 0
M  V30 2257 C 206.74 4.56945 -2.52979 0
M  V30 2258 H 208.434 2.47337 -1.68715 0
M  V30 2259 H 205.98 1.18879 -0.812642 0
M  V30 2260 H 207.933 4.21396 0.0184278 0
M  V30 2261 H 206.657 3.1863 0.717113 0
M  V30 2262 H 205.316 3.38564 -1.40606 0
M  V30 2263 H 204.964 5.00856 0.463976 0
M  V30 2264 H 204.664 5.76844 -1.11912 0
M  V30 2265 H 206.188 6.10096 -0.248 0
M  V30 2266 H 207.602 5.23093 -2.3462 0
M  V30 2267 H 205.999 5.1203 -3.12962 0
M  V30 2268 H 207.069 3.70676 -3.12614 0
M  V30 2269 N 208.412 0.89855 1.29475 0
M  V30 2270 C 209.66 0.522847 1.9522 0
M  V30 2271 C 209.981 -0.93371 1.71192 0
M  V30 2272 O 209.251 -1.65823 1.04305 0
M  V30 2273 H 207.831 0.190366 0.722336 0
M  V30 2274 H 210.493 1.14459 1.5775 0
M  V30 2275 H 209.589 0.704476 3.04045 0
M  V30 2276 N 209.89 -1.43072 0.660911 0
M  V30 2277 C 210.8 -2.34585 -0.0264163 0
M  V30 2278 C 211.816 -1.54316 -0.803898 0
M  V30 2279 O 212.992 -1.86939 -0.749391 0
M  V30 2280 C 210.057 -3.32689 -0.975639 0
M  V30 2281 C 209.118 -4.2886 -0.194236 0
M  V30 2282 C 208.351 -5.22278 -1.09825 0
M  V30 2283 O 208.574 -5.20299 -2.33763 0
M  V30 2284 O 207.508 -5.99228 -0.566513 0
M  V30 2285 H 211.334 -2.94869 0.727034 0
M  V30 2286 H 208.919 -1.43342 0.42111 0
M  V30 2287 H 210.801 -3.92995 -1.52094 0
M  V30 2288 H 209.476 -2.74898 -1.70918 0
M  V30 2289 H 208.383 -3.72011 0.394835 0
M  V30 2290 H 209.716 -4.89655 0.499899 0
M  V30 2291 N 211.368 -0.403325 -1.52352 0
M  V30 2292 C 212.616 0.174003 -2.0135 0
M  V30 2293 C 212.937 1.46139 -1.29106 0
M  V30 2294 O 212.207 1.91448 -0.415253 0
M  V30 2295 H 210.787 0.0672911 -0.743963 0
M  V30 2296 H 213.449 -0.538235 -1.87321 0
M  V30 2297 H 212.545 0.374254 -3.09848 0
M  V30 2298 N 212.846 1.57033 -0.133567 0
M  V30 2299 C 214.092 1.95976 0.521649 0
M  V30 2300 C 214.425 1.01779 1.65393 0
M  V30 2301 O 213.7 0.0576581 1.94415 0
M  V30 2302 C 213.983 3.44738 1.04057 0
M  V30 2303 C 213.836 4.49711 -0.0892897 0
M  V30 2304 C 215.155 3.95682 1.92675 0
M  V30 2305 H 212.274 0.712579 0.188149 0
M  V30 2306 H 214.916 1.88813 -0.212076 0
M  V30 2307 H 213.066 3.50973 1.66583 0
M  V30 2308 H 214.738 4.55565 -0.725152 0
M  V30 2309 H 212.981 4.27261 -0.750378 0
M  V30 2310 H 213.652 5.51099 0.315284 0
M  V30 2311 H 216.128 3.91841 1.39998 0
M  V30 2312 H 215.004 5.00262 2.25897 0
M  V30 2313 H 215.265 3.37239 2.85872 0
M  V30 2314 N 214.325 -0.140222 1.56975 0
M  V30 2315 C 215.235 -1.19223 2.02047 0
M  V30 2316 C 216.251 -1.46612 0.937062 0
M  V30 2317 O 217.427 -1.58148 1.24704 0
M  V30 2318 C 214.492 -2.50414 2.39778 0
M  V30 2319 C 213.553 -2.30612 3.621 0
M  V30 2320 C 212.786 -3.55547 3.98023 0
M  V30 2321 O 213.009 -4.62004 3.34528 0
M  V30 2322 O 211.943 -3.47808 4.91237 0
M  V30 2323 H 215.769 -0.839559 2.91865 0
M  V30 2324 H 213.354 -0.349453 1.45256 0
M  V30 2325 H 215.236 -3.27747 2.64877 0
M  V30 2326 H 213.911 -2.85198 1.53114 0
M  V30 2327 H 212.818 -1.51207 3.4218 0
M  V30 2328 H 214.151 -2.00741 4.49404 0
M  V30 2329 N 215.803 -1.52179 -0.40978 0
M  V30 2330 C 217.05 -1.66206 -1.15679 0
M  V30 2331 C 217.378 -0.391674 -1.90516 0
M  V30 2332 O 216.633 0.62533 -1.8544 0
M  V30 2333 C 216.932 -2.83428 -2.17723 0
M  V30 2334 C 216.598 -4.21672 -1.59699 0
M  V30 2335 C 215.26 -4.59274 -1.43599 0
M  V30 2336 C 217.612 -5.07825 -1.17317 0
M  V30 2337 C 214.94 -5.80709 -0.836328 0
M  V30 2338 C 217.292 -6.29864 -0.587691 0
M  V30 2339 C 215.956 -6.66216 -0.413818 0
M  V30 2340 H 215.226 -0.608192 -0.423301 0
M  V30 2341 H 217.873 -1.86279 -0.444097 0
M  V30 2342 H 216.178 -2.57687 -2.95135 0
M  V30 2343 H 217.875 -2.91477 -2.75394 0
M  V30 2344 H 214.465 -3.9204 -1.73213 0
M  V30 2345 H 218.649 -4.79359 -1.28565 0
M  V30 2346 H 213.905 -6.07498 -0.689626 0
M  V30 2347 H 218.079 -6.95948 -0.250894 0
M  V30 2348 H 215.706 -7.60182 0.0529471 0
M  V30 2349 N 217.281 0.66697 -1.42791 0
M  V30 2350 C 218.558 1.4234 -1.34159 0
M  V30 2351 C 218.938 2.11093 0.0172729 0
M  V30 2352 O 218.286 2.03808 1.03318 0
M  V30 2353 C 218.496 2.41942 -2.51526 0
M  V30 2354 C 219.844 3.06353 -2.93995 0
M  V30 2355 O 220.868 2.52269 -2.51473 0
M  V30 2356 O 219.727 4.04376 -3.67617 0
M  V30 2357 H 216.821 0.635277 -0.529483 0
M  V30 2358 H 219.367 0.695034 -1.54814 0
M  V30 2359 H 218.139 1.89991 -3.42081 0
M  V30 2360 H 217.762 3.22249 -2.32898 0
M  V30 2361 N 218.759 1.29093 0.90403 0
M  V30 2362 C 220.005 1.16986 1.65656 0
M  V30 2363 C 220.338 -0.278925 1.92186 0
M  V30 2364 O 219.613 -1.2019 1.5292 0
M  V30 2365 C 219.896 1.97908 3.0084 0
M  V30 2366 C 219.749 3.50903 2.81403 0
M  V30 2367 C 221.068 1.80208 4.01513 0
M  V30 2368 H 218.187 0.426346 0.601164 0
M  V30 2369 H 220.829 1.58518 1.04747 0
M  V30 2370 H 218.979 1.62616 3.52829 0
M  V30 2371 H 220.651 3.96153 2.36348 0
M  V30 2372 H 218.894 3.76045 2.1627 0
M  V30 2373 H 219.565 4.02791 3.77443 0
M  V30 2374 H 222.041 2.11025 3.58619 0
M  V30 2375 H 220.917 2.39184 4.94047 0
M  V30 2376 H 221.178 0.756119 4.35586 0
M  V30 2377 N 220.237 -1.11381 1.11499 0
M  V30 2378 C 221.167 -2.19509 0.796125 0
M  V30 2379 C 222.148 -1.68458 -0.235796 0
M  V30 2380 O 223.333 -1.93947 -0.0991344 0
M  V30 2381 C 220.463 -3.46475 0.239205 0
M  V30 2382 C 219.417 -4.10744 1.20307 0
M  V30 2383 C 218.743 -5.32293 0.50683 0
M  V30 2384 C 220.043 -4.55597 2.55399 0
M  V30 2385 H 221.737 -2.46439 1.70024 0
M  V30 2386 H 219.283 -1.18446 0.818935 0
M  V30 2387 H 221.236 -4.214 0.00392006 0
M  V30 2388 H 219.96 -3.19006 -0.700206 0
M  V30 2389 H 218.619 -3.37813 1.42399 0
M  V30 2390 H 218.267 -5.01095 -0.437408 0
M  V30 2391 H 217.967 -5.76243 1.1497 0
M  V30 2392 H 219.491 -6.09956 0.280351 0
M  V30 2393 H 220.905 -5.21841 2.37391 0
M  V30 2394 H 219.302 -5.10363 3.15673 0
M  V30 2395 H 220.372 -3.69013 3.14575 0
M  V30 2396 N 221.715 -0.905404 -1.28997 0
M  V30 2397 C 223.126 -0.581953 -1.77398 0
M  V30 2398 C 223.477 0.902552 -1.74208 0
M  V30 2399 O 222.602 1.70584 -1.33154 0
M  V30 2400 C 223.197 -1.04961 -3.22131 0
M  V30 2401 C 221.756 -0.777229 -3.68288 0
M  V30 2402 C 220.903 -1.22109 -2.48967 0
M  V30 2403 H 223.854 -1.08754 -1.15578 0
M  V30 2404 H 223.875 -0.387387 -3.78523 0
M  V30 2405 H 223.387 -2.13008 -3.24421 0
M  V30 2406 H 221.488 0.290383 -3.71467 0
M  V30 2407 H 221.601 -1.37911 -4.58822 0
M  V30 2408 H 219.965 -0.639971 -2.46529 0
M  V30 2409 H 220.748 -2.30972 -2.53982 0
M  V30 2410 N 223.193 1.4272 -0.668489 0
M  V30 2411 C 224.156 2.292 0.00448567 0
M  V30 2412 C 225.156 1.43001 0.735339 0
M  V30 2413 O 226.346 1.64461 0.57429 0
M  V30 2414 C 223.478 3.25375 1.01705 0
M  V30 2415 H 224.671 2.90199 -0.756608 0
M  V30 2416 H 222.224 1.50254 -0.430506 0
M  V30 2417 H 222.959 2.69301 1.80686 0
M  V30 2418 H 222.744 3.88944 0.496463 0
M  V30 2419 H 224.234 3.90245 1.48655 0
M  V30 2420 N 224.671 0.411399 1.52136 0
M  V30 2421 C 225.918 -0.163645 2.01838 0
M  V30 2422 C 226.246 -1.4495 1.29691 0
M  V30 2423 O 225.501 -1.91725 0.392431 0
M  V30 2424 C 225.8 -0.455872 3.54481 0
M  V30 2425 C 225.466 0.741055 4.44769 0
M  V30 2426 C 224.128 1.06936 4.69167 0
M  V30 2427 C 226.48 1.54075 4.97906 0
M  V30 2428 C 223.808 2.19851 5.43951 0
M  V30 2429 C 226.16 2.66067 5.73926 0
M  V30 2430 C 224.824 2.99381 5.96596 0
M  V30 2431 H 224.094 -0.0598821 0.738576 0
M  V30 2432 H 226.741 0.553283 1.83333 0
M  V30 2433 H 225.046 -1.2544 3.71177 0
M  V30 2434 H 226.743 -0.913802 3.90449 0
M  V30 2435 H 223.333 0.475192 4.25958 0
M  V30 2436 H 227.517 1.30033 4.78963 0
M  V30 2437 H 222.773 2.46006 5.59724 0
M  V30 2438 H 226.947 3.28419 6.14096 0
M  V30 2439 H 224.574 3.86992 6.54325 0
M  V30 2440 N 226.149 -1.5696 0.141893 0
M  V30 2441 C 227.426 -1.87553 -0.555281 0
M  V30 2442 C 227.806 -1.04699 -1.83306 0
M  V30 2443 O 227.154 -0.132346 -2.28116 0
M  V30 2444 C 227.364 -3.39093 -0.825664 0
M  V30 2445 C 228.712 -4.08199 -1.16869 0
M  V30 2446 O 229.736 -3.44242 -0.915185 0
M  V30 2447 O 228.595 -5.21139 -1.6455 0
M  V30 2448 H 225.689 -0.777188 -0.282679 0
M  V30 2449 H 228.235 -1.68763 0.17812 0
M  V30 2450 H 227.007 -3.91221 0.0788633 0
M  V30 2451 H 226.63 -3.63393 -1.61343 0
M  V30 2452 N 227.627 0.131896 -1.57047 0
M  V30 2453 C 228.59 1.14638 -1.98471 0
M  V30 2454 C 229.59 1.35029 -0.873148 0
M  V30 2455 O 230.78 1.31764 -1.13946 0
M  V30 2456 C 227.912 2.50358 -2.31373 0
M  V30 2457 H 229.105 0.79064 -2.8929 0
M  V30 2458 H 226.658 0.375761 -1.51716 0
M  V30 2459 H 227.393 2.90876 -1.43393 0
M  V30 2460 H 227.178 2.36915 -3.12432 0
M  V30 2461 H 228.668 3.23395 -2.64207 0
M  V30 2462 N 229.106 1.52395 0.401703 0
M  V30 2463 C 230.036 1.79231 1.49661 0
M  V30 2464 C 231.017 0.643654 1.57452 0
M  V30 2465 O 232.202 0.889989 1.72606 0
M  V30 2466 C 229.332 1.94971 2.87409 0
M  V30 2467 C 228.286 3.10604 2.94465 0
M  V30 2468 C 227.612 3.11577 4.34538 0
M  V30 2469 C 228.912 4.49921 2.6527 0
M  V30 2470 H 230.606 2.70917 1.27454 0
M  V30 2471 H 228.152 1.30362 0.6117 0
M  V30 2472 H 230.105 2.12328 3.63999 0
M  V30 2473 H 228.829 0.999632 3.10926 0
M  V30 2474 H 227.488 2.93009 2.20321 0
M  V30 2475 H 227.136 2.14277 4.55076 0
M  V30 2476 H 226.836 3.89247 4.40183 0
M  V30 2477 H 228.36 3.31073 5.13053 0
M  V30 2478 H 229.774 4.67683 3.31581 0
M  V30 2479 H 228.171 5.29564 2.82281 0
M  V30 2480 H 229.241 4.57507 1.60671 0
M  V30 2481 N 230.584 -0.659388 1.43143 0
M  V30 2482 C 231.832 -1.41654 1.44147 0
M  V30 2483 C 232.153 -1.94893 0.0645739 0
M  V30 2484 O 231.423 -1.74044 -0.899198 0
M  V30 2485 H 230.003 -0.525708 0.530697 0
M  V30 2486 H 232.665 -0.778097 1.78694 0
M  V30 2487 H 231.761 -2.26195 2.1504 0
M  V30 2488 N 232.062 -1.29571 -0.897171 0
M  V30 2489 C 232.994 -1.10724 -2.00681 0
M  V30 2490 C 234.007 -0.0540026 -1.6271 0
M  V30 2491 O 235.196 -0.298783 -1.75982 0
M  V30 2492 C 232.296 -0.663912 -3.32333 0
M  V30 2493 C 231.469 -1.79622 -3.98816 0
M  V30 2494 C 230.528 -1.34349 -5.0876 0
M  V30 2495 O 229.554 -2.04864 -5.31055 0
M  V30 2496 N 230.756 -0.215764 -5.80099 0
M  V30 2497 H 233.521 -2.06291 -2.17403 0
M  V30 2498 H 231.082 -1.21544 -1.06951 0
M  V30 2499 H 233.074 -0.344295 -4.03233 0
M  V30 2500 H 231.644 0.199375 -3.11964 0
M  V30 2501 H 230.864 -2.28459 -3.21248 0
M  V30 2502 H 232.152 -2.55535 -4.39976 0
M  V30 2503 H 231.55 0.372091 -5.64475 0
M  V30 2504 H 230.107 0.0444707 -6.51785 0
M  V30 2505 N 233.54 1.10788 -1.12088 0
M  V30 2506 C 234.47 2.19083 -0.807755 0
M  V30 2507 C 235.451 1.6858 0.226859 0
M  V30 2508 O 236.636 1.93997 0.0888475 0
M  V30 2509 C 233.766 3.46344 -0.257576 0
M  V30 2510 C 232.72 4.101 -1.22483 0
M  V30 2511 C 232.046 5.32016 -0.535052 0
M  V30 2512 C 233.346 4.54236 -2.57811 0
M  V30 2513 H 235.04 2.45534 -1.71328 0
M  V30 2514 H 232.586 1.1801 -0.825205 0
M  V30 2515 H 234.539 4.21392 -0.0262679 0
M  V30 2516 H 233.263 3.19373 0.683278 0
M  V30 2517 H 231.922 3.37054 -1.44189 0
M  V30 2518 H 231.57 5.01319 0.410827 0
M  V30 2519 H 231.27 5.75625 -1.18024 0
M  V30 2520 H 232.794 6.09799 -0.312695 0
M  V30 2521 H 234.208 5.20575 -2.40155 0
M  V30 2522 H 232.605 5.08682 -3.18375 0
M  V30 2523 H 233.675 3.6734 -3.16528 0
M  V30 2524 N 235.018 0.912232 1.28515 0
M  V30 2525 C 236.246 0.560416 1.99166 0
M  V30 2526 C 236.661 -0.857927 1.68182 0
M  V30 2527 O 236.018 -1.56805 0.933733 0
M  V30 2528 C 236.069 0.758142 3.53461 0
M  V30 2529 O 235.79 2.12067 3.83352 0
M  V30 2530 C 237.291 0.412954 4.41372 0
M  V30 2531 H 234.511 0.213805 0.636026 0
M  V30 2532 H 237.055 1.22502 1.63749 0
M  V30 2533 H 235.21 0.140556 3.87145 0
M  V30 2534 H 235.624 2.15923 4.77993 0
M  V30 2535 H 237.098 0.60208 5.48707 0
M  V30 2536 H 237.575 -0.65073 4.34353 0
M  V30 2537 H 238.181 1.00802 4.13182 0
M  V30 2538 N 236.496 -1.42363 0.676048 0
M  V30 2539 C 237.744 -2.01123 0.198437 0
M  V30 2540 C 238.065 -1.53731 -1.19966 0
M  V30 2541 O 237.335 -0.759518 -1.80577 0
M  V30 2542 H 235.915 -0.743678 0.0703721 0
M  V30 2543 H 238.577 -1.74263 0.872837 0
M  V30 2544 H 237.673 -3.11454 0.200686 0
M  V30 2545 N 237.974 -0.419461 -1.51915 0
M  V30 2546 C 239.222 0.152637 -2.01523 0
M  V30 2547 C 239.543 1.44762 -1.30649 0
M  V30 2548 O 238.813 1.90997 -0.435535 0
M  V30 2549 H 237.393 0.0593966 -0.744635 0
M  V30 2550 H 240.055 -0.558073 -1.86739 0
M  V30 2551 H 239.151 0.341369 -3.10227 0
M  V30 2552 N 239.452 1.56882 -0.150215 0
M  V30 2553 C 240.682 2.00302 0.506213 0
M  V30 2554 C 241.09 1.02934 1.58749 0
M  V30 2555 O 240.433 0.0188384 1.8369 0
M  V30 2556 C 240.495 3.40156 1.16337 0
M  V30 2557 C 240.159 4.56439 0.226311 0
M  V30 2558 C 241.156 5.17012 -0.547265 0
M  V30 2559 C 238.841 5.02136 0.128279 0
M  V30 2560 C 240.835 6.21693 -1.40629 0
M  V30 2561 C 238.522 6.06672 -0.734345 0
M  V30 2562 C 239.52 6.6632 -1.50023 0
M  V30 2563 O 239.208 7.68831 -2.34848 0
M  V30 2564 H 238.94 0.662182 0.135984 0
M  V30 2565 H 241.494 2.03961 -0.242746 0
M  V30 2566 H 239.724 3.33346 1.96004 0
M  V30 2567 H 241.413 3.67663 1.71985 0
M  V30 2568 H 242.179 4.82603 -0.48158 0
M  V30 2569 H 238.058 4.55435 0.714157 0
M  V30 2570 H 241.602 6.68179 -2.00455 0
M  V30 2571 H 237.499 6.40507 -0.801309 0
M  V30 2572 H 238.267 7.86065 -2.28131 0
M  V30 2573 N 240.93 -0.123565 1.57115 0
M  V30 2574 C 241.877 -1.15177 2.00007 0
M  V30 2575 C 242.847 -1.41403 0.871454 0
M  V30 2576 O 244.032 -1.53346 1.13533 0
M  V30 2577 C 241.172 -2.47436 2.40561 0
M  V30 2578 C 240.285 -2.28184 3.66819 0
M  V30 2579 C 239.42 -3.53641 3.96373 0
M  V30 2580 C 238.459 -3.29528 5.15827 0
M  V30 2581 N 237.596 -4.47175 5.41275 0
M  V30 2582 H 242.436 -0.779008 2.87638 0
M  V30 2583 H 239.973 -0.373166 1.42288 0
M  V30 2584 H 241.931 -3.24584 2.62109 0
M  V30 2585 H 240.561 -2.82614 1.55978 0
M  V30 2586 H 239.613 -1.41976 3.52912 0
M  V30 2587 H 240.925 -2.0634 4.5412 0
M  V30 2588 H 240.079 -4.39209 4.18545 0
M  V30 2589 H 238.818 -3.78512 3.07538 0
M  V30 2590 H 237.823 -2.42349 4.93505 0
M  V30 2591 H 239.048 -3.06031 6.06236 0
M  V30 2592 H 236.994 -4.72175 4.55397 0
M  V30 2593 H 236.911 -4.28419 6.22891 0
M  V30 2594 H 238.179 -5.3389 5.67963 0
M  V30 2595 N 242.408 -1.52605 -0.393616 0
M  V30 2596 C 243.819 -1.59417 -0.971761 0
M  V30 2597 C 244.17 -0.444173 -1.91106 0
M  V30 2598 O 243.295 0.433382 -2.12016 0
M  V30 2599 C 243.89 -2.88936 -1.76921 0
M  V30 2600 C 242.449 -2.98175 -2.29714 0
M  V30 2601 C 241.596 -2.54491 -1.10135 0
M  V30 2602 H 244.547 -1.57751 -0.173317 0
M  V30 2603 H 244.568 -2.75163 -2.62804 0
M  V30 2604 H 244.08 -3.72616 -1.08532 0
M  V30 2605 H 242.181 -2.19024 -3.01429 0
M  V30 2606 H 242.294 -4.02726 -2.59517 0
M  V30 2607 H 240.658 -2.08702 -1.45999 0
M  V30 2608 H 241.441 -3.4056 -0.432874 0
M  V30 2609 N 243.887 0.651787 -1.4349 0
M  V30 2610 C 244.835 1.78586 -1.49029 0
M  V30 2611 C 245.829 1.65448 -0.363767 0
M  V30 2612 O 247.035 1.71777 -0.537821 0
M  V30 2613 H 243.41 0.589236 -0.467231 0
M  V30 2614 H 245.381 1.71035 -2.44519 0
M  V30 2615 C 244.13 3.16851 -1.43181 0
M  V30 2616 H 243.453 3.27598 -2.29171 0
M  V30 2617 H 244.893 3.96156 -1.51118 0
M  V30 2618 C 243.352 3.36568 -0.149616 0
M  V30 2619 O 243.882 3.93885 0.788509 0
M  V30 2620 N 242.088 2.90539 -0.0593484 0
M  V30 2621 H 241.635 2.4408 -0.823575 0
M  V30 2622 H 241.593 3.04108 0.797853 0
M  V30 2623 N 245.365 1.30045 0.890287 0
M  V30 2624 C 246.776 1.16738 1.45702 0
M  V30 2625 C 247.127 -0.233939 1.948 0
M  V30 2626 O 246.252 -1.13021 1.84541 0
M  V30 2627 C 246.847 2.11313 2.64825 0
M  V30 2628 C 245.406 2.02001 3.17604 0
M  V30 2629 C 244.553 2.01699 1.90296 0
M  V30 2630 H 247.504 1.42392 0.700726 0
M  V30 2631 H 247.525 1.69086 3.40867 0
M  V30 2632 H 247.037 3.13294 2.2906 0
M  V30 2633 H 245.138 1.03142 3.5804 0
M  V30 2634 H 245.251 2.90128 3.81264 0
M  V30 2635 H 243.615 1.46427 2.08402 0
M  V30 2636 H 244.398 3.05402 1.56795 0
M  V30 2637 N 246.843 -1.10192 1.12674 0
M  V30 2638 C 247.775 -2.16418 0.754701 0
M  V30 2639 C 248.788 -1.61309 -0.21986 0
M  V30 2640 O 249.977 -1.785 -0.000826841 0
M  V30 2641 C 247.077 -3.38762 0.096698 0
M  V30 2642 C 246.25 -4.23307 1.10136 0
M  V30 2643 C 245.309 -5.24092 0.470513 0
M  V30 2644 O 244.335 -5.57906 1.12824 0
M  V30 2645 N 245.537 -5.75491 -0.760948 0
M  V30 2646 H 248.302 -2.48943 1.66875 0
M  V30 2647 H 245.863 -1.25834 1.01869 0
M  V30 2648 H 247.855 -4.03291 -0.337384 0
M  V30 2649 H 246.425 -3.04192 -0.720153 0
M  V30 2650 H 245.645 -3.55036 1.71299 0
M  V30 2651 H 246.933 -4.76624 1.78064 0
M  V30 2652 H 246.331 -5.50222 -1.31424 0
M  V30 2653 H 244.888 -6.41792 -1.13781 0
M  V30 2654 N 248.321 -0.919034 -1.28029 0
M  V30 2655 C 249.57 -0.550802 -1.94034 0
M  V30 2656 C 249.883 0.910877 -1.73096 0
M  V30 2657 O 251.089 1.3875 -2.33368 0
M  V30 2658 C 249.545 -0.934249 -3.47563 0
M  V30 2659 C 249.153 -2.41602 -3.7727 0
M  V30 2660 C 250.897 -0.636854 -4.19696 0
M  V30 2661 C 248.804 -2.73932 -5.24133 0
M  V30 2662 H 247.734 -0.202273 -0.726362 0
M  V30 2663 H 250.385 -1.11867 -1.45458 0
M  V30 2664 H 248.767 -0.295115 -3.94899 0
M  V30 2665 H 249.941 -3.10233 -3.40723 0
M  V30 2666 H 248.256 -2.68441 -3.18321 0
M  V30 2667 H 250.853 -0.855005 -5.2782 0
M  V30 2668 H 251.196 0.425575 -4.14119 0
M  V30 2669 H 251.729 -1.23469 -3.78154 0
M  V30 2670 H 248.468 -3.79049 -5.34792 0
M  V30 2671 H 247.988 -2.09942 -5.61858 0
M  V30 2672 H 249.667 -2.61215 -5.91925 0
M  V30 2673 N 249.799 1.42003 -0.683588 0
M  V30 2674 C 251.029 2.05448 -0.217866 0
M  V30 2675 C 251.437 1.51491 1.13346 0
M  V30 2676 O 250.78 0.653048 1.717 0
M  V30 2677 C 250.842 3.59399 -0.0850118 0
M  V30 2678 C 250.506 4.36093 -1.36645 0
M  V30 2679 C 251.503 4.66169 -2.30179 0
M  V30 2680 C 249.188 4.75578 -1.61649 0
M  V30 2681 C 251.182 5.34676 -3.46988 0
M  V30 2682 C 248.869 5.43824 -2.78745 0
M  V30 2683 C 249.867 5.73299 -3.71238 0
M  V30 2684 O 249.555 6.40142 -4.86285 0
M  V30 2685 H 249.287 0.668344 -0.101454 0
M  V30 2686 H 251.841 1.82974 -0.933248 0
M  V30 2687 H 250.071 3.80566 0.686031 0
M  V30 2688 H 251.76 4.04457 0.341973 0
M  V30 2689 H 252.526 4.36156 -2.12115 0
M  V30 2690 H 248.405 4.52025 -0.905243 0
M  V30 2691 H 251.949 5.57599 -4.19201 0
M  V30 2692 H 247.846 5.73254 -2.96732 0
M  V30 2693 H 248.614 6.58636 -4.85944 0
M  V30 2694 N 251.277 0.427512 1.51691 0
M  V30 2695 C 252.523 -0.142439 2.02299 0
M  V30 2696 C 252.856 -1.43214 1.31162 0
M  V30 2697 O 252.131 -1.89833 0.423511 0
M  V30 2698 C 252.414 -0.371301 3.58181 0
M  V30 2699 C 252.267 0.936358 4.39946 0
M  V30 2700 C 253.586 -1.14542 4.24933 0
M  V30 2701 H 250.705 -0.0502937 0.735282 0
M  V30 2702 H 253.347 0.564584 1.81418 0
M  V30 2703 H 251.497 -0.973559 3.76104 0
M  V30 2704 H 253.169 1.57184 4.33694 0
M  V30 2705 H 251.412 1.5432 4.05423 0
M  V30 2706 H 252.083 0.730388 5.47147 0
M  V30 2707 H 254.559 -0.635362 4.11221 0
M  V30 2708 H 253.435 -1.27431 5.33903 0
M  V30 2709 H 253.696 -2.17093 3.85127 0
M  V30 2710 N 252.755 -1.56801 0.158532 0
M  V30 2711 C 253.702 -2.17337 -0.776729 0
M  V30 2712 C 254.672 -1.1096 -1.23601 0
M  V30 2713 O 255.857 -1.39054 -1.30647 0
M  V30 2714 C 252.997 -2.80822 -2.00582 0
M  V30 2715 C 252.11 -4.01624 -1.59129 0
M  V30 2716 C 251.245 -4.53072 -2.77306 0
M  V30 2717 C 250.284 -5.66314 -2.32282 0
M  V30 2718 N 249.421 -6.12329 -3.43508 0
M  V30 2719 H 254.261 -2.96918 -0.253701 0
M  V30 2720 H 251.798 -1.46661 -0.113504 0
M  V30 2721 H 253.756 -3.15779 -2.72652 0
M  V30 2722 H 252.386 -2.03866 -2.50277 0
M  V30 2723 H 251.438 -3.72571 -0.767806 0
M  V30 2724 H 252.75 -4.83633 -1.2207 0
M  V30 2725 H 251.904 -4.90145 -3.57551 0
M  V30 2726 H 250.643 -3.70095 -3.17617 0
M  V30 2727 H 249.648 -5.28806 -1.5048 0
M  V30 2728 H 250.873 -6.51085 -1.93043 0
M  V30 2729 H 248.819 -5.32284 -3.83418 0
M  V30 2730 H 248.736 -6.89293 -3.105 0
M  V30 2731 H 250.004 -6.5405 -4.24075 0
M  V30 2732 N 254.233 0.115231 -1.57178 0
M  V30 2733 C 255.163 1.1423 -2.03651 0
M  V30 2734 C 256.144 1.42967 -0.921655 0
M  V30 2735 O 257.329 1.53343 -1.19162 0
M  V30 2736 C 254.459 2.4675 -2.44401 0
M  V30 2737 C 253.413 2.32467 -3.59365 0
M  V30 2738 C 252.739 3.69984 -3.86026 0
M  V30 2739 C 254.039 1.78203 -4.90959 0
M  V30 2740 H 255.733 0.755749 -2.89705 0
M  V30 2741 H 253.279 0.362093 -1.39373 0
M  V30 2742 H 255.232 3.18854 -2.75517 0
M  V30 2743 H 253.956 2.87302 -1.55322 0
M  V30 2744 H 252.615 1.62811 -3.28463 0
M  V30 2745 H 252.263 4.08028 -2.94147 0
M  V30 2746 H 251.963 3.61279 -4.63412 0
M  V30 2747 H 253.487 4.43587 -4.19599 0
M  V30 2748 H 254.901 2.40128 -5.20587 0
M  V30 2749 H 253.298 1.8031 -5.72371 0
M  V30 2750 H 254.368 0.739876 -4.79222 0
M  V30 2751 N 255.711 1.52812 0.385517 0
M  V30 2752 C 256.96 1.67249 1.12741 0
M  V30 2753 C 257.273 0.4205 1.91027 0
M  V30 2754 O 258.479 0.445064 2.67827 0
M  V30 2755 C 256.935 2.95583 2.05326 0
M  V30 2756 C 256.543 4.27974 1.32447 0
M  V30 2757 C 258.287 3.19386 2.7963 0
M  V30 2758 C 256.194 5.47412 2.23818 0
M  V30 2759 H 255.124 0.6231 0.424573 0
M  V30 2760 H 257.775 1.79309 0.389924 0
M  V30 2761 H 256.157 2.77277 2.82725 0
M  V30 2762 H 257.331 4.56844 0.602495 0
M  V30 2763 H 255.646 4.10459 0.700885 0
M  V30 2764 H 258.243 4.05801 3.48181 0
M  V30 2765 H 258.586 2.34604 3.43899 0
M  V30 2766 H 259.119 3.38274 2.09322 0
M  V30 2767 H 255.858 6.34612 1.64157 0
M  V30 2768 H 255.378 5.22849 2.93921 0
M  V30 2769 H 257.057 5.81423 2.83824 0
M  V30 2770 N 257.189 -0.644168 1.43834 0
M  V30 2771 C 258.099 -1.78563 1.52159 0
M  V30 2772 C 259.115 -1.69147 0.408069 0
M  V30 2773 O 260.291 -1.90156 0.663524 0
M  V30 2774 C 257.356 -3.14888 1.45073 0
M  V30 2775 C 256.417 -3.36034 2.6717 0
M  V30 2776 C 255.65 -4.65855 2.60413 0
M  V30 2777 O 255.873 -5.45805 1.65689 0
M  V30 2778 O 254.807 -4.88918 3.5106 0
M  V30 2779 H 258.633 -1.74494 2.48567 0
M  V30 2780 H 256.218 -0.80378 1.25935 0
M  V30 2781 H 258.1 -3.96179 1.43597 0
M  V30 2782 H 256.775 -3.19528 0.518037 0
M  V30 2783 H 255.682 -2.54472 2.74217 0
M  V30 2784 H 257.015 -3.36247 3.59442 0
M  V30 2785 N 258.668 -1.30515 -0.883378 0
M  V30 2786 C 259.578 -1.18959 -2.02203 0
M  V30 2787 C 260.594 -0.109172 -1.73657 0
M  V30 2788 O 261.77 -0.324413 -1.9877 0
M  V30 2789 C 258.835 -0.883871 -3.35244 0
M  V30 2790 C 257.896 -2.04982 -3.77201 0
M  V30 2791 C 257.129 -1.75859 -5.03894 0
M  V30 2792 O 257.352 -0.687276 -5.66244 0
M  V30 2793 O 256.286 -2.61146 -5.42297 0
M  V30 2794 H 260.112 -2.14616 -2.1488 0
M  V30 2795 H 257.697 -1.10124 -1.0096 0
M  V30 2796 H 259.579 -0.728644 -4.15053 0
M  V30 2797 H 258.254 0.0427798 -3.23672 0
M  V30 2798 H 257.161 -2.26038 -2.9809 0
M  V30 2799 H 258.494 -2.95825 -3.93381 0
M  V30 2800 N 260.146 1.09593 -1.13257 0
M  V30 2801 C 261.386 1.83349 -0.903472 0
M  V30 2802 C 261.75 1.83641 0.560351 0
M  V30 2803 O 262.951 2.53037 0.906947 0
M  V30 2804 C 261.222 3.25629 -1.47311 0
M  V30 2805 S 262.781 4.16408 -1.38382 0
M  V30 2806 H 259.599 0.632014 -0.325699 0
M  V30 2807 H 262.201 1.31817 -1.44376 0
M  V30 2808 H 260.905 3.22991 -2.53189 0
M  V30 2809 H 260.436 3.82233 -0.930689 0
M  V30 2810 H 262.451 4.94884 -0.361113 0
M  V30 2811 N 261.624 0.925811 1.2754 0
M  V30 2812 C 262.852 0.581509 1.9856 0
M  V30 2813 C 263.267 -0.840041 1.69082 0
M  V30 2814 O 262.624 -1.55805 0.950312 0
M  V30 2815 C 262.675 0.795589 3.52637 0
M  V30 2816 O 262.396 2.16121 3.81082 0
M  V30 2817 C 263.897 0.459744 4.4091 0
M  V30 2818 H 261.117 0.220538 0.633722 0
M  V30 2819 H 263.661 1.24232 1.6244 0
M  V30 2820 H 261.816 0.18161 3.86974 0
M  V30 2821 H 262.23 2.2098 4.75676 0
M  V30 2822 H 263.704 0.660244 5.48037 0
M  V30 2823 H 264.181 -0.604625 4.35018 0
M  V30 2824 H 264.787 1.05178 4.12089 0
M  V30 2825 N 263.102 -1.41638 0.69111 0
M  V30 2826 C 264.379 -1.95036 0.148421 0
M  V30 2827 C 264.759 -1.63072 -1.34055 0
M  V30 2828 O 264.107 -0.93538 -2.08478 0
M  V30 2829 C 264.317 -3.46279 0.434951 0
M  V30 2830 C 265.665 -4.23069 0.360275 0
M  V30 2831 O 266.689 -3.54277 0.369613 0
M  V30 2832 O 265.548 -5.45583 0.316534 0
M  V30 2833 H 262.642 -0.826908 0.0123654 0
M  V30 2834 H 265.188 -1.5138 0.766963 0
M  V30 2835 H 263.96 -3.6281 1.46576 0
M  V30 2836 H 263.583 -3.97019 -0.214787 0
M  V30 2837 N 264.58 -0.43555 -1.51462 0
M  V30 2838 C 265.51 0.367376 -2.30592 0
M  V30 2839 C 266.491 1.02263 -1.35928 0
M  V30 2840 O 267.676 1.02661 -1.64847 0
M  V30 2841 C 264.806 1.46983 -3.14664 0
M  V30 2842 C 263.76 0.938161 -4.17591 0
M  V30 2843 C 263.086 2.13622 -4.90173 0
M  V30 2844 C 264.386 -0.0261621 -5.22293 0
M  V30 2845 H 266.08 -0.292969 -2.97963 0
M  V30 2846 H 263.626 -0.14234 -1.43295 0
M  V30 2847 H 265.579 2.03873 -3.688 0
M  V30 2848 H 264.303 2.15843 -2.4511 0
M  V30 2849 H 262.962 0.391481 -3.64504 0
M  V30 2850 H 262.61 2.81098 -4.17124 0
M  V30 2851 H 262.31 1.78688 -5.59772 0
M  V30 2852 H 263.834 2.7107 -5.47132 0
M  V30 2853 H 265.248 0.452384 -5.71512 0
M  V30 2854 H 263.645 -0.287992 -5.99409 0
M  V30 2855 H 264.715 -0.963391 -4.75233 0
M  V30 2856 N 266.058 1.56714 -0.166846 0
M  V30 2857 C 266.99 2.14914 0.796537 0
M  V30 2858 C 268.003 1.10357 1.19688 0
M  V30 2859 O 269.192 1.37561 1.13751 0
M  V30 2860 C 266.292 2.67326 2.08303 0
M  V30 2861 C 265.465 3.96493 1.84696 0
M  V30 2862 C 264.524 4.34014 2.97521 0
M  V30 2863 O 263.55 5.01973 2.6835 0
M  V30 2864 N 264.752 3.95208 4.25196 0
M  V30 2865 H 267.517 2.98205 0.299006 0
M  V30 2866 H 265.078 1.61892 0.0160839 0
M  V30 2867 H 267.07 2.89428 2.82867 0
M  V30 2868 H 265.64 1.88649 2.4926 0
M  V30 2869 H 264.86 3.82814 0.940602 0
M  V30 2870 H 266.148 4.8086 1.66285 0
M  V30 2871 H 265.546 3.40487 4.51758 0
M  V30 2872 H 264.103 4.2232 4.96477 0
M  V30 2873 N 267.536 -0.106894 1.57237 0
M  V30 2874 C 268.483 -1.13049 2.01217 0
M  V30 2875 C 269.453 -1.40471 0.886403 0
M  V30 2876 O 270.638 -1.52133 1.15153 0
M  V30 2877 C 267.778 -2.4487 2.43172 0
M  V30 2878 C 266.891 -2.24281 3.69218 0
M  V30 2879 C 266.026 -3.49417 4.00101 0
M  V30 2880 C 265.065 -3.24038 5.19294 0
M  V30 2881 N 264.202 -4.41409 5.45988 0
M  V30 2882 H 269.042 -0.748456 2.88448 0
M  V30 2883 H 266.579 -0.358054 1.42676 0
M  V30 2884 H 268.537 -3.21786 2.65537 0
M  V30 2885 H 267.167 -2.80944 1.58967 0
M  V30 2886 H 266.219 -1.38224 3.54398 0
M  V30 2887 H 267.531 -2.01512 4.56283 0
M  V30 2888 H 266.685 -4.34746 4.2318 0
M  V30 2889 H 265.424 -3.75229 3.11535 0
M  V30 2890 H 264.429 -2.37102 4.96047 0
M  V30 2891 H 265.654 -2.99584 6.09447 0
M  V30 2892 H 263.6 -4.67319 4.60379 0
M  V30 2893 H 263.517 -4.21788 6.274 0
M  V30 2894 H 264.785 -5.27836 5.73593 0
M  V30 2895 N 269.014 -1.53014 -0.377408 0
M  V30 2896 C 269.924 -1.81557 -1.48574 0
M  V30 2897 C 270.94 -0.703102 -1.59162 0
M  V30 2898 O 272.116 -0.99192 -1.75279 0
M  V30 2899 C 269.181 -1.9889 -2.83978 0
M  V30 2900 C 268.242 -3.22801 -2.83016 0
M  V30 2901 C 267.475 -3.39298 -4.11962 0
M  V30 2902 O 267.698 -2.60345 -5.0752 0
M  V30 2903 O 266.632 -4.32604 -4.18494 0
M  V30 2904 H 270.458 -2.75695 -1.27382 0
M  V30 2905 H 268.043 -1.38248 -0.566373 0
M  V30 2906 H 269.925 -2.11931 -3.6423 0
M  V30 2907 H 268.6 -1.07942 -3.05172 0
M  V30 2908 H 267.507 -3.15193 -2.01505 0
M  V30 2909 H 268.84 -4.13632 -2.66775 0
M  V30 2910 N 270.492 0.636531 -1.44174 0
M  V30 2911 C 271.74 1.39343 -1.46383 0
M  V30 2912 C 272.061 1.94766 -0.0955715 0
M  V30 2913 O 271.331 1.75452 0.871395 0
M  V30 2914 H 269.911 0.517199 -0.538994 0
M  V30 2915 H 272.573 0.74957 -1.7991 0
M  V30 2916 H 271.669 2.22746 -2.18611 0
M  V30 2917 N 271.97 1.30982 0.876444 0
M  V30 2918 C 272.88 1.2003 2.01569 0
M  V30 2919 C 273.896 0.11838 1.73597 0
M  V30 2920 O 275.072 0.33495 1.98595 0
M  V30 2921 C 272.137 0.901637 3.34771 0
M  V30 2922 C 271.198 2.06979 3.76109 0
M  V30 2923 C 270.431 1.78529 5.02954 0
M  V30 2924 O 270.654 0.717296 5.65872 0
M  V30 2925 O 269.588 2.64019 5.40905 0
M  V30 2926 H 273.414 2.15753 2.13739 0
M  V30 2927 H 270.999 1.10658 1.00375 0
M  V30 2928 H 272.881 0.750645 4.1466 0
M  V30 2929 H 271.556 -0.0256141 3.2369 0
M  V30 2930 H 270.463 2.27616 2.96887 0
M  V30 2931 H 271.796 2.97907 3.91807 0
M  V30 2932 N 273.449 -1.08991 1.13837 0
M  V30 2933 C 274.696 -1.81258 0.902882 0
M  V30 2934 C 275.024 -1.85936 -0.570803 0
M  V30 2935 O 274.279 -1.3267 -1.43865 0
M  V30 2936 C 274.578 -3.27042 1.44147 0
M  V30 2937 C 274.244 -3.4249 2.93276 0
M  V30 2938 C 272.906 -3.46414 3.33992 0
M  V30 2939 C 275.258 -3.4666 3.892 0
M  V30 2940 C 272.586 -3.52091 4.69307 0
M  V30 2941 C 274.938 -3.53872 5.24364 0
M  V30 2942 C 273.602 -3.56066 5.646 0
M  V30 2943 H 272.872 -0.663268 0.330388 0
M  V30 2944 H 275.519 -1.28368 1.42105 0
M  V30 2945 H 273.824 -3.82599 0.844097 0
M  V30 2946 H 275.521 -3.81499 1.23528 0
M  V30 2947 H 272.111 -3.40124 2.60794 0
M  V30 2948 H 276.295 -3.42865 3.58828 0
M  V30 2949 H 271.551 -3.52079 4.9985 0
M  V30 2950 H 275.725 -3.56043 5.98503 0
M  V30 2951 H 273.352 -3.60218 6.69438 0
M  V30 2952 N 274.927 -0.932562 -1.27047 0
M  V30 2953 C 276.152 -0.591474 -1.98787 0
M  V30 2954 C 276.577 0.824601 -1.69062 0
M  V30 2955 O 275.935 1.5541 -0.933677 0
M  V30 2956 C 275.983 -0.829808 -3.50922 0
M  V30 2957 O 275.087 0.102266 -4.12273 0
M  V30 2958 H 274.428 -0.227185 -0.623926 0
M  V30 2959 H 276.958 -1.25314 -1.61733 0
M  V30 2960 H 276.968 -0.747292 -4.01098 0
M  V30 2961 H 275.643 -1.86201 -3.7189 0
M  V30 2962 H 274.22 -0.0305761 -3.72887 0
M  V30 2963 N 276.405 1.4127 -0.698611 0
M  V30 2964 C 277.633 2.05503 -0.239992 0
M  V30 2965 C 278.048 1.52584 1.11191 0
M  V30 2966 O 277.405 0.675323 1.69545 0
M  V30 2967 C 277.456 3.60987 -0.192429 0
M  V30 2968 O 277.177 4.1195 -1.49094 0
M  V30 2969 C 278.678 4.42371 0.28681 0
M  V30 2970 H 275.898 0.661748 -0.111045 0
M  V30 2971 H 278.442 1.80987 -0.95205 0
M  V30 2972 H 276.597 3.84533 0.470472 0
M  V30 2973 H 277.011 5.06018 -1.38007 0
M  V30 2974 H 278.485 5.51344 0.26896 0
M  V30 2975 H 278.962 4.18699 1.32619 0
M  V30 2976 H 279.568 4.23897 -0.345201 0
M  V30 2977 N 277.883 0.443576 1.51229 0
M  V30 2978 C 279.123 -0.119889 2.04048 0
M  V30 2979 C 279.487 -1.39418 1.32009 0
M  V30 2980 O 280.688 -2.03829 1.75235 0
M  V30 2981 C 278.959 -0.327233 3.55899 0
M  V30 2982 S 280.518 -0.853208 4.30425 0
M  V30 2983 H 277.336 -0.028921 0.710412 0
M  V30 2984 H 279.938 0.604413 1.85922 0
M  V30 2985 H 278.642 0.606445 4.05895 0
M  V30 2986 H 278.173 -1.07844 3.7833 0
M  V30 2987 H 280.188 -2.13005 4.48155 0
M  V30 2988 N 279.361 -1.56624 0.175154 0
M  V30 2989 C 280.608 -1.96999 -0.468811 0
M  V30 2990 C 280.936 -1.06129 -1.62994 0
M  V30 2991 O 280.191 -0.0961771 -1.95464 0
M  V30 2992 C 280.49 -3.43419 -0.989864 0
M  V30 2993 C 280.156 -4.50866 0.0557687 0
M  V30 2994 C 278.818 -4.79975 0.343134 0
M  V30 2995 C 281.17 -5.15551 0.765308 0
M  V30 2996 C 278.498 -5.71066 1.34536 0
M  V30 2997 C 280.85 -6.07724 1.75654 0
M  V30 2998 C 279.514 -6.35199 2.05132 0
M  V30 2999 H 278.784 -0.720869 -0.17155 0
M  V30 3000 H 281.431 -1.89616 0.267924 0
M  V30 3001 H 279.736 -3.47772 -1.80449 0
M  V30 3002 H 281.433 -3.72002 -1.49719 0
M  V30 3003 H 278.023 -4.28229 -0.178381 0
M  V30 3004 H 282.207 -4.9317 0.556513 0
M  V30 3005 H 277.463 -5.90635 1.57988 0
M  V30 3006 H 281.637 -6.56912 2.31169 0
M  V30 3007 H 279.264 -7.05584 2.8294 0
M  V30 3008 N 280.839 0.0985539 -1.57292 0
M  V30 3009 C 282.067 0.816318 -1.90115 0
M  V30 3010 C 282.482 1.72451 -0.768509 0
M  V30 3011 O 281.839 1.80643 0.259687 0
M  V30 3012 C 281.89 1.63259 -3.22535 0
M  V30 3013 O 281.611 0.760934 -4.31441 0
M  V30 3014 C 283.112 2.45372 -3.69199 0
M  V30 3015 H 280.332 0.233595 -0.629027 0
M  V30 3016 H 282.876 0.0768229 -2.04356 0
M  V30 3017 H 281.031 2.32463 -3.09903 0
M  V30 3018 H 281.445 1.32595 -5.07463 0
M  V30 3019 H 282.919 2.98144 -4.64558 0
M  V30 3020 H 283.396 3.23677 -2.96867 0
M  V30 3021 H 284.002 1.81373 -3.84687 0
M  V30 3022 N 282.317 1.53212 0.369288 0
M  V30 3023 C 283.227 1.82342 1.47609 0
M  V30 3024 C 284.243 0.711532 1.58787 0
M  V30 3025 O 285.419 1.0012 1.74751 0
M  V30 3026 C 282.484 2.00393 2.8292 0
M  V30 3027 C 281.545 3.24297 2.81301 0
M  V30 3028 C 280.778 3.41478 4.10157 0
M  V30 3029 O 281.001 2.63033 5.06132 0
M  V30 3030 O 279.935 4.34817 4.16194 0
M  V30 3031 H 283.761 2.76366 1.25918 0
M  V30 3032 H 281.346 1.38547 0.559034 0
M  V30 3033 H 283.228 2.13859 3.63101 0
M  V30 3034 H 281.903 1.09559 3.04596 0
M  V30 3035 H 280.81 3.16257 1.99831 0
M  V30 3036 H 282.143 4.15041 2.64578 0
M  V30 3037 N 283.795 -0.628877 1.44509 0
M  V30 3038 C 284.725 -1.75187 1.54376 0
M  V30 3039 C 285.706 -1.65411 0.396618 0
M  V30 3040 O 286.891 -1.84137 0.617031 0
M  V30 3041 C 284.021 -3.13725 1.48976 0
M  V30 3042 C 282.975 -3.38291 2.62189 0
M  V30 3043 C 282.301 -4.76883 2.41841 0
M  V30 3044 C 283.601 -3.30632 4.04326 0
M  V30 3045 H 285.295 -1.67187 2.48373 0
M  V30 3046 H 282.841 -0.802909 1.19538 0
M  V30 3047 H 284.794 -3.92064 1.54478 0
M  V30 3048 H 283.518 -3.22515 0.514961 0
M  V30 3049 H 282.177 -2.62334 2.56079 0
M  V30 3050 H 281.825 -4.82378 1.42548 0
M  V30 3051 H 281.525 -4.94278 3.17747 0
M  V30 3052 H 283.049 -5.57449 2.49165 0
M  V30 3053 H 284.463 -3.98873 4.11793 0
M  V30 3054 H 282.86 -3.59561 4.80454 0
M  V30 3055 H 283.93 -2.28404 4.27738 0
M  V30 3056 N 285.273 -1.31445 -0.869486 0
M  V30 3057 C 286.205 -1.14955 -1.98287 0
M  V30 3058 C 287.218 -0.0885037 -1.62559 0
M  V30 3059 O 288.407 -0.336044 -1.75308 0
M  V30 3060 C 285.507 -0.734255 -3.3085 0
M  V30 3061 C 284.68 -1.88042 -3.94917 0
M  V30 3062 C 283.739 -1.4511 -5.05796 0
M  V30 3063 O 282.765 -2.16082 -5.2659 0
M  V30 3064 N 283.967 -0.338763 -5.79511 0
M  V30 3065 H 286.732 -2.10856 -2.12979 0
M  V30 3066 H 284.293 -1.23786 -1.04349 0
M  V30 3067 H 286.285 -0.42975 -4.02412 0
M  V30 3068 H 284.855 0.133158 -3.12316 0
M  V30 3069 H 284.075 -2.35222 -3.1633 0
M  V30 3070 H 285.363 -2.6481 -4.34457 0
M  V30 3071 H 284.761 0.252274 -5.65137 0
M  V30 3072 H 283.318 -0.0937925 -6.51733 0
M  V30 3073 N 286.751 1.08385 -1.14413 0
M  V30 3074 C 288.167 1.32844 -0.884563 0
M  V30 3075 C 288.367 1.95841 0.474181 0
M  V30 3076 O 287.423 2.21158 1.21842 0
M  V30 3077 C 288.736 2.22978 -2.01745 0
M  V30 3078 C 290.284 2.36458 -2.05077 0
M  V30 3079 C 290.759 3.29934 -3.1766 0
M  V30 3080 N 292.25 3.37511 -3.17239 0
M  V30 3081 C 292.985 4.09871 -4.0099 0
M  V30 3082 N 292.481 4.84936 -4.94781 0
M  V30 3083 N 294.274 4.05704 -3.89051 0
M  V30 3084 H 286.425 0.658756 -2.01926 0
M  V30 3085 H 288.688 0.352821 -0.879899 0
M  V30 3086 H 288.394 1.83934 -2.99769 0
M  V30 3087 H 288.268 3.23441 -1.94077 0
M  V30 3088 H 290.655 2.7476 -1.0766 0
M  V30 3089 H 290.736 1.35736 -2.16816 0
M  V30 3090 H 290.38 2.92352 -4.15322 0
M  V30 3091 H 290.31 4.30584 -3.03158 0
M  V30 3092 H 292.801 2.83996 -2.49308 0
M  V30 3093 H 293.114 5.37612 -5.55151 0
M  V30 3094 H 291.459 4.83988 -4.98779 0
M  V30 3095 H 294.65 3.46167 -3.15097 0
M  V30 3096 H 294.823 4.61834 -4.54547 0
M  V30 3097 N 288.23 0.939286 1.26551 0
M  V30 3098 C 289.507 0.5038 1.89001 0
M  V30 3099 C 289.887 -1.01854 1.84903 0
M  V30 3100 O 289.235 -1.87773 1.30206 0
M  V30 3101 C 289.445 1.063 3.32417 0
M  V30 3102 C 290.793 1.13051 4.09273 0
M  V30 3103 O 291.817 1.01345 3.41479 0
M  V30 3104 O 290.676 1.31233 5.30509 0
M  V30 3105 H 287.77 0.163897 0.810597 0
M  V30 3106 H 290.316 1.03173 1.34735 0
M  V30 3107 H 289.088 2.10665 3.29752 0
M  V30 3108 H 288.711 0.517408 3.94219 0
M  V30 3109 N 289.708 -1.40897 0.706093 0
M  V30 3110 C 290.955 -2.01054 0.241531 0
M  V30 3111 C 291.283 -1.55956 -1.16223 0
M  V30 3112 O 290.538 -0.766336 -1.80072 0
M  V30 3113 C 290.837 -3.5646 0.259099 0
M  V30 3114 C 290.503 -4.21106 1.61184 0
M  V30 3115 C 289.165 -4.38479 1.98216 0
M  V30 3116 C 291.517 -4.57256 2.50132 0
M  V30 3117 C 288.845 -4.89282 3.2376 0
M  V30 3118 C 291.197 -5.09454 3.7502 0
M  V30 3119 C 289.861 -5.25037 4.12181 0
M  V30 3120 H 289.131 -0.73571 0.0883825 0
M  V30 3121 H 291.778 -1.68645 0.907257 0
M  V30 3122 H 290.083 -3.88721 -0.490189 0
M  V30 3123 H 291.78 -4.00826 -0.11804 0
M  V30 3124 H 288.37 -4.07966 1.31384 0
M  V30 3125 H 292.554 -4.43479 2.228 0
M  V30 3126 H 287.81 -4.99531 3.52532 0
M  V30 3127 H 291.984 -5.36404 4.44121 0
M  V30 3128 H 289.611 -5.64164 5.09532 0
M  V30 3129 N 291.186 -0.45159 -1.50991 0
M  V30 3130 C 292.116 0.342898 -2.30969 0
M  V30 3131 C 293.097 1.00815 -1.37005 0
M  V30 3132 O 294.282 1.00907 -1.65926 0
M  V30 3133 C 291.412 1.43637 -3.16205 0
M  V30 3134 C 290.366 0.893818 -4.18563 0
M  V30 3135 C 289.692 2.08411 -4.92411 0
M  V30 3136 C 290.992 -0.0815568 -5.22236 0
M  V30 3137 H 292.686 -0.324556 -2.97636 0
M  V30 3138 H 290.232 -0.157531 -1.43136 0
M  V30 3139 H 292.185 1.9995 -3.70942 0
M  V30 3140 H 290.909 2.13232 -2.47386 0
M  V30 3141 H 289.568 0.352798 -3.64898 0
M  V30 3142 H 289.216 2.76658 -4.20082 0
M  V30 3143 H 288.916 1.72741 -5.61636 0
M  V30 3144 H 290.44 2.65251 -5.49976 0
M  V30 3145 H 291.854 0.391742 -5.7196 0
M  V30 3146 H 290.251 -0.351551 -5.99069 0
M  V30 3147 H 291.321 -1.01374 -4.74185 0
M  V30 3148 N 292.664 1.56529 -0.183458 0
M  V30 3149 C 293.611 2.18546 0.742055 0
M  V30 3150 C 294.581 1.12912 1.2182 0
M  V30 3151 O 295.766 1.41115 1.28418 0
M  V30 3152 C 292.906 2.83977 1.96089 0
M  V30 3153 C 292.019 4.04105 1.52719 0
M  V30 3154 C 291.154 4.57427 2.70063 0
M  V30 3155 C 290.193 5.69938 2.23243 0
M  V30 3156 N 289.33 6.17717 3.33722 0
M  V30 3157 H 294.17 2.97284 0.206432 0
M  V30 3158 H 291.707 1.46823 0.0901571 0
M  V30 3159 H 293.665 3.20077 2.67594 0
M  V30 3160 H 292.295 2.07822 2.47002 0
M  V30 3161 H 291.347 3.73745 0.708436 0
M  V30 3162 H 292.659 4.85513 1.1436 0
M  V30 3163 H 291.813 4.95772 3.49708 0
M  V30 3164 H 290.552 3.75101 3.11689 0
M  V30 3165 H 289.557 5.31133 1.42048 0
M  V30 3166 H 290.782 6.54073 1.82661 0
M  V30 3167 H 288.728 5.38317 3.74902 0
M  V30 3168 H 288.645 6.94146 2.99495 0
M  V30 3169 H 289.913 6.60713 4.13616 0
M  V30 3170 N 294.142 -0.090211 1.57342 0
M  V30 3171 C 295.074 -1.13541 1.99101 0
M  V30 3172 C 296.087 -1.3604 0.894258 0
M  V30 3173 O 297.276 -1.34606 1.17233 0
M  V30 3174 C 294.376 -2.49001 2.29895 0
M  V30 3175 C 293.549 -2.46712 3.61182 0
M  V30 3176 C 292.608 -3.64136 3.79857 0
M  V30 3177 O 291.634 -3.46405 4.51655 0
M  V30 3178 N 292.836 -4.83802 3.20806 0
M  V30 3179 H 295.601 -0.779942 2.89373 0
M  V30 3180 H 293.162 -0.279125 1.59476 0
M  V30 3181 H 295.154 -3.26166 2.39578 0
M  V30 3182 H 293.724 -2.76619 1.45605 0
M  V30 3183 H 292.944 -1.55058 3.62423 0
M  V30 3184 H 294.232 -2.42265 4.4742 0
M  V30 3185 H 293.63 -5.01112 2.62494 0
M  V30 3186 H 292.187 -5.58543 3.35966 0
M  V30 3187 N 295.62 -1.53406 -0.361157 0
M  V30 3188 C 297.036 -1.43277 -0.703124 0
M  V30 3189 C 297.236 -0.575384 -1.9311 0
M  V30 3190 O 296.292 -0.0595362 -2.5243 0
M  V30 3191 C 297.605 -2.8653 -0.9122 0
M  V30 3192 C 299.153 -2.96191 -1.01193 0
M  V30 3193 C 299.628 -4.40514 -1.25345 0
M  V30 3194 N 301.119 -4.43962 -1.32105 0
M  V30 3195 C 301.854 -5.52746 -1.5251 0
M  V30 3196 N 301.35 -6.71567 -1.70203 0
M  V30 3197 N 303.143 -5.40331 -1.54916 0
M  V30 3198 H 295.294 -2.07654 0.446475 0
M  V30 3199 H 297.557 -0.937944 0.137715 0
M  V30 3200 H 297.263 -3.51605 -0.0816414 0
M  V30 3201 H 297.137 -3.30441 -1.81903 0
M  V30 3202 H 299.524 -2.31266 -1.83303 0
M  V30 3203 H 299.605 -2.55667 -0.0823929 0
M  V30 3204 H 299.249 -5.06014 -0.437346 0
M  V30 3205 H 299.179 -4.78614 -2.19627 0
M  V30 3206 H 301.67 -3.58332 -1.20028 0
M  V30 3207 H 301.983 -7.50241 -1.85359 0
M  V30 3208 H 300.328 -6.74545 -1.67373 0
M  V30 3209 H 303.519 -4.46465 -1.40663 0
M  V30 3210 H 303.692 -6.25173 -1.70477 0
M  V30 3211 N 297.098 0.621204 -1.44841 0
M  V30 3212 C 298.509 1.20298 -1.42777 0
M  V30 3213 C 298.86 1.95639 -0.148259 0
M  V30 3214 O 297.985 2.02955 0.750892 0
M  V30 3215 C 298.58 2.1882 -2.58657 0
M  V30 3216 C 297.139 2.72403 -2.59756 0
M  V30 3217 C 296.286 1.4757 -2.34773 0
M  V30 3218 H 299.237 0.411297 -1.53278 0
M  V30 3219 H 299.258 3.01607 -2.31977 0
M  V30 3220 H 298.77 1.63957 -3.51766 0
M  V30 3221 H 296.871 3.31242 -1.70615 0
M  V30 3222 H 296.984 3.17765 -3.58556 0
M  V30 3223 H 295.348 1.76051 -1.8406 0
M  V30 3224 H 296.131 0.945954 -3.3001 0
M  V30 3225 N 298.576 1.31904 0.862503 0
M  V30 3226 C 299.804 1.24998 1.64873 0
M  V30 3227 C 300.219 -0.183425 1.87907 0
M  V30 3228 O 299.576 -1.11794 1.44251 0
M  V30 3229 C 299.627 1.99829 3.01248 0
M  V30 3230 O 299.348 3.37575 2.79239 0
M  V30 3231 C 300.849 1.99852 3.95694 0
M  V30 3232 H 298.069 0.431599 0.513773 0
M  V30 3233 H 300.613 1.73901 1.07604 0
M  V30 3234 H 298.768 1.54668 3.55185 0
M  V30 3235 H 299.182 3.75776 3.65914 0
M  V30 3236 H 300.656 2.56709 4.88676 0
M  V30 3237 H 301.133 0.982852 4.28062 0
M  V30 3238 H 301.739 2.44926 3.47694 0
M  V30 3239 N 300.054 -1.07777 1.14986 0
M  V30 3240 C 301.001 -2.14867 0.842672 0
M  V30 3241 C 301.971 -1.6486 -0.202552 0
M  V30 3242 O 303.156 -1.90668 -0.0710568 0
M  V30 3243 C 300.296 -3.43486 0.333363 0
M  V30 3244 C 299.409 -4.07306 1.43965 0
M  V30 3245 C 298.544 -5.23744 0.886914 0
M  V30 3246 C 297.583 -5.79517 1.97043 0
M  V30 3247 N 296.72 -6.87291 1.4344 0
M  V30 3248 H 301.56 -2.40485 1.75986 0
M  V30 3249 H 299.097 -1.1801 0.878179 0
M  V30 3250 H 301.055 -4.17195 0.0198163 0
M  V30 3251 H 299.685 -3.18133 -0.546916 0
M  V30 3252 H 298.737 -3.31293 1.86946 0
M  V30 3253 H 300.049 -4.44771 2.25788 0
M  V30 3254 H 299.203 -6.04419 0.525651 0
M  V30 3255 H 297.942 -4.87685 0.0377957 0
M  V30 3256 H 296.947 -4.97491 2.34057 0
M  V30 3257 H 298.172 -6.17632 2.82325 0
M  V30 3258 H 296.118 -6.5318 0.607567 0
M  V30 3259 H 296.035 -7.23617 2.18895 0
M  V30 3260 H 297.303 -7.71682 1.10124 0
M  V30 3261 N 301.532 -0.945985 -1.26051 0
M  V30 3262 C 302.462 -0.477172 -2.28572 0
M  V30 3263 C 303.443 0.472032 -1.63419 0
M  V30 3264 O 304.628 0.372853 -1.90587 0
M  V30 3265 C 301.758 0.253975 -3.4637 0
M  V30 3266 C 300.712 -0.609135 -4.23643 0
M  V30 3267 C 300.038 0.252252 -5.34105 0
M  V30 3268 C 301.338 -1.8829 -4.8718 0
M  V30 3269 H 303.032 -1.33402 -2.68038 0
M  V30 3270 H 300.578 -0.642904 -1.28852 0
M  V30 3271 H 302.531 0.593016 -4.17207 0
M  V30 3272 H 301.255 1.145 -3.05871 0
M  V30 3273 H 299.914 -0.931138 -3.54578 0
M  V30 3274 H 299.562 1.14278 -4.89846 0
M  V30 3275 H 299.262 -0.32188 -5.86718 0
M  V30 3276 H 300.786 0.586454 -6.07777 0
M  V30 3277 H 302.2 -1.61081 -5.50205 0
M  V30 3278 H 300.597 -2.40199 -5.49931 0
M  V30 3279 H 301.667 -2.59134 -4.09851 0
M  V30 3280 N 303.011 1.40521 -0.713556 0
M  V30 3281 C 303.958 2.30723 -0.059684 0
M  V30 3282 C 304.928 1.48079 0.752448 0
M  V30 3283 O 306.113 1.76823 0.71681 0
M  V30 3284 C 303.253 3.34274 0.857594 0
M  V30 3285 C 302.366 4.31986 0.0351536 0
M  V30 3286 C 301.501 5.22605 0.951724 0
M  V30 3287 C 300.54 6.11976 0.123253 0
M  V30 3288 N 299.677 6.9502 0.99459 0
M  V30 3289 H 304.517 2.86074 -0.834596 0
M  V30 3290 H 302.054 1.40879 -0.42326 0
M  V30 3291 H 304.012 3.92879 1.40364 0
M  V30 3292 H 302.642 2.8043 1.59871 0
M  V30 3293 H 301.694 3.7518 -0.628052 0
M  V30 3294 H 303.006 4.95101 -0.606347 0
M  V30 3295 H 302.16 5.86131 1.56638 0
M  V30 3296 H 300.899 4.59759 1.62705 0
M  V30 3297 H 299.904 5.47482 -0.50435 0
M  V30 3298 H 301.129 6.76881 -0.548539 0
M  V30 3299 H 299.075 6.34764 1.6556 0
M  V30 3300 H 298.992 7.54892 0.40908 0
M  V30 3301 H 300.26 7.62997 1.59549 0
M  V30 3302 N 304.489 0.459591 1.5075 0
M  V30 3303 C 305.714 -0.0996819 2.0716 0
M  V30 3304 C 306.139 -1.33761 1.32249 0
M  V30 3305 O 305.497 -1.77551 0.366786 0
M  V30 3306 C 305.545 -0.378226 3.58611 0
M  V30 3307 O 304.649 -1.46081 3.85661 0
M  V30 3308 H 303.99 0.00791392 0.663953 0
M  V30 3309 H 306.52 0.647329 1.9409 0
M  V30 3310 H 306.53 -0.622135 4.03229 0
M  V30 3311 H 305.205 0.526439 4.12555 0
M  V30 3312 H 303.782 -1.20511 3.5289 0
M  V30 3313 N 305.967 -1.56429 0.191757 0
M  V30 3314 C 306.897 -2.21937 -0.725696 0
M  V30 3315 C 307.878 -1.1814 -1.2238 0
M  V30 3316 O 309.063 -1.46636 -1.27325 0
M  V30 3317 C 306.193 -2.87611 -1.94672 0
M  V30 3318 C 305.147 -3.97623 -1.58366 0
M  V30 3319 C 304.473 -4.50446 -2.88102 0
M  V30 3320 C 305.773 -5.16197 -0.796133 0
M  V30 3321 H 307.467 -2.98861 -0.179606 0
M  V30 3322 H 305.013 -1.43749 -0.0849464 0
M  V30 3323 H 306.966 -3.3212 -2.59373 0
M  V30 3324 H 305.69 -2.08087 -2.51728 0
M  V30 3325 H 304.349 -3.53801 -0.960247 0
M  V30 3326 H 303.997 -3.67688 -3.43241 0
M  V30 3327 H 303.697 -5.24675 -2.64556 0
M  V30 3328 H 305.221 -4.97654 -3.53798 0
M  V30 3329 H 306.635 -5.57271 -1.34618 0
M  V30 3330 H 305.032 -5.96471 -0.658928 0
M  V30 3331 H 306.102 -4.84473 0.203478 0
M  V30 3332 N 307.445 0.0818655 -1.57387 0
M  V30 3333 C 308.694 0.781681 -1.85937 0
M  V30 3334 C 309.007 1.79246 -0.782957 0
M  V30 3335 O 310.213 2.54112 -0.955987 0
M  V30 3336 C 308.669 1.44109 -3.29789 0
M  V30 3337 C 308.277 0.469396 -4.45534 0
M  V30 3338 C 310.021 2.12386 -3.67549 0
M  V30 3339 C 307.928 1.13415 -5.80423 0
M  V30 3340 H 306.858 0.295682 -0.693605 0
M  V30 3341 H 309.509 0.0348051 -1.83467 0
M  V30 3342 H 307.891 2.23588 -3.2684 0
M  V30 3343 H 309.065 -0.294856 -4.59856 0
M  V30 3344 H 307.38 -0.108383 -4.16259 0
M  V30 3345 H 309.977 2.62878 -4.65617 0
M  V30 3346 H 310.32 2.91877 -2.96839 0
M  V30 3347 H 310.853 1.39751 -3.72444 0
M  V30 3348 H 307.592 0.379771 -6.54399 0
M  V30 3349 H 307.112 1.8695 -5.69921 0
M  V30 3350 H 308.791 1.65686 -6.25426 0
M  V30 3351 N 308.923 1.53595 0.353017 0
M  V30 3352 C 310.339 1.43648 0.695516 0
M  V30 3353 C 310.539 0.585617 1.92802 0
M  V30 3354 O 309.595 0.0729223 2.52395 0
M  V30 3355 C 310.908 2.8701 0.896991 0
M  V30 3356 C 312.456 2.96723 0.996209 0
M  V30 3357 C 312.931 4.41173 1.23007 0
M  V30 3358 N 314.422 4.44657 1.29749 0
M  V30 3359 C 315.157 5.53547 1.49577 0
M  V30 3360 N 314.653 6.72461 1.66639 0
M  V30 3361 N 316.446 5.41145 1.52048 0
M  V30 3362 H 308.597 2.07415 -0.457481 0
M  V30 3363 H 310.86 0.9372 -0.142687 0
M  V30 3364 H 310.566 3.51644 0.0629938 0
M  V30 3365 H 310.44 3.31401 1.80148 0
M  V30 3366 H 312.827 2.32235 1.82074 0
M  V30 3367 H 312.908 2.55707 0.0688331 0
M  V30 3368 H 312.552 5.06238 0.410505 0
M  V30 3369 H 312.482 4.79772 2.17086 0
M  V30 3370 H 314.973 3.58963 1.18126 0
M  V30 3371 H 315.286 7.51214 1.81378 0
M  V30 3372 H 313.631 6.75423 1.63794 0
M  V30 3373 H 316.822 4.47205 1.38294 0
M  V30 3374 H 316.995 6.26068 1.67159 0
M  V30 3375 N 310.401 -0.613514 1.45168 0
M  V30 3376 C 311.331 -1.7354 1.56225 0
M  V30 3377 C 312.312 -1.64981 0.41414 0
M  V30 3378 O 313.497 -1.83472 0.636526 0
M  V30 3379 C 310.627 -3.12128 1.52295 0
M  V30 3380 C 309.581 -3.35491 2.65762 0
M  V30 3381 C 308.907 -4.74291 2.46885 0
M  V30 3382 C 310.207 -3.26325 4.0781 0
M  V30 3383 H 311.901 -1.64543 2.50132 0
M  V30 3384 H 309.447 -0.790185 1.20383 0
M  V30 3385 H 311.4 -3.90404 1.58628 0
M  V30 3386 H 310.124 -3.2195 0.549139 0
M  V30 3387 H 308.783 -2.59603 2.58847 0
M  V30 3388 H 308.431 -4.80839 1.47657 0
M  V30 3389 H 308.131 -4.9088 3.22972 0
M  V30 3390 H 309.655 -5.54775 2.55063 0
M  V30 3391 H 311.069 -3.94483 4.16 0
M  V30 3392 H 309.466 -3.54445 4.8424 0
M  V30 3393 H 310.536 -2.23855 4.30136 0
M  V30 3394 N 311.879 -1.3236 -0.855495 0
M  V30 3395 C 313.125 -1.23054 -1.612 0
M  V30 3396 C 313.458 0.207404 -1.93089 0
M  V30 3397 O 312.733 1.14432 -1.57275 0
M  V30 3398 C 313.016 -2.08937 -2.93287 0
M  V30 3399 C 312.869 -3.61105 -2.68185 0
M  V30 3400 C 314.188 -1.94986 -3.94549 0
M  V30 3401 H 311.307 -0.448364 -0.584926 0
M  V30 3402 H 313.949 -1.62297 -0.987917 0
M  V30 3403 H 312.099 -1.75599 -3.46551 0
M  V30 3404 H 313.771 -4.04652 -2.21483 0
M  V30 3405 H 312.014 -3.83813 -2.02164 0
M  V30 3406 H 312.685 -4.16522 -3.62234 0
M  V30 3407 H 315.161 -2.24189 -3.5054 0
M  V30 3408 H 314.037 -2.57356 -4.84829 0
M  V30 3409 H 314.298 -0.917263 -4.3248 0
M  V30 3410 N 313.357 1.07166 -1.15556 0
M  V30 3411 C 314.304 2.14417 -0.854055 0
M  V30 3412 C 315.274 1.64965 0.193806 0
M  V30 3413 O 316.459 1.90703 0.0609443 0
M  V30 3414 C 313.599 3.43304 -0.351574 0
M  V30 3415 C 312.712 4.06537 -1.46123 0
M  V30 3416 C 311.847 5.23266 -0.914677 0
M  V30 3417 C 310.886 5.78464 -2.00114 0
M  V30 3418 N 310.023 6.86521 -1.47083 0
M  V30 3419 H 314.863 2.39548 -1.77259 0
M  V30 3420 H 312.4 1.17543 -0.884425 0
M  V30 3421 H 314.358 4.17179 -0.0419409 0
M  V30 3422 H 312.988 3.18419 0.530037 0
M  V30 3423 H 312.04 3.30297 -1.88701 0
M  V30 3424 H 313.352 4.43567 -2.28144 0
M  V30 3425 H 312.506 6.04131 -0.557698 0
M  V30 3426 H 311.245 4.87658 -0.0636583 0
M  V30 3427 H 310.25 4.96243 -2.36692 0
M  V30 3428 H 311.475 6.16126 -2.85597 0
M  V30 3429 H 309.421 6.52849 -0.642198 0
M  V30 3430 H 309.338 7.22446 -2.22729 0
M  V30 3431 H 310.606 7.71087 -1.14215 0
M  V30 3432 N 314.835 0.952656 1.25548 0
M  V30 3433 C 315.785 0.442033 2.23674 0
M  V30 3434 C 316.769 -0.467632 1.53955 0
M  V30 3435 O 317.961 -0.301006 1.74422 0
M  V30 3436 C 315.09 -0.280816 3.4215 0
M  V30 3437 C 314.176 0.646803 4.19139 0
M  V30 3438 N 314.567 1.77759 4.73535 0
M  V30 3439 C 312.865 0.454617 4.43677 0
M  V30 3440 C 313.566 2.35658 5.31827 0
M  V30 3441 N 312.542 1.64333 5.18166 0
M  V30 3442 H 316.344 1.30505 2.63336 0
M  V30 3443 H 313.858 0.809904 1.40763 0
M  V30 3444 H 315.855 -0.663747 4.11582 0
M  V30 3445 H 314.515 -1.14046 3.04012 0
M  V30 3446 H 315.526 2.15949 4.7073 0
M  V30 3447 H 312.203 -0.362312 4.15925 0
M  V30 3448 H 313.593 3.30998 5.84713 0
M  V30 3449 N 316.313 -1.40141 0.720998 0
M  V30 3450 C 317.559 -2.01572 0.272075 0
M  V30 3451 C 317.914 -1.5616 -1.12391 0
M  V30 3452 O 317.207 -0.774198 -1.75262 0
M  V30 3453 C 317.401 -3.56165 0.296892 0
M  V30 3454 C 317.23 -4.16584 1.69375 0
M  V30 3455 C 316 -4.49783 2.30269 0
M  V30 3456 C 318.198 -4.41076 2.64493 0
M  V30 3457 N 316.18 -4.95626 3.62254 0
M  V30 3458 C 317.551 -4.88971 3.81192 0
M  V30 3459 C 319.606 -4.23122 2.62435 0
M  V30 3460 C 318.309 -5.20796 4.96149 0
M  V30 3461 C 320.335 -4.56052 3.76524 0
M  V30 3462 C 319.697 -5.04141 4.91956 0
M  V30 3463 H 315.796 -0.768343 0.145511 0
M  V30 3464 H 318.38 -1.70287 0.943959 0
M  V30 3465 H 316.551 -3.86868 -0.344578 0
M  V30 3466 H 318.283 -4.04346 -0.169254 0
M  V30 3467 H 315.038 -4.37101 1.82318 0
M  V30 3468 H 315.462 -5.22923 4.29977 0
M  V30 3469 H 320.104 -3.85158 1.74393 0
M  V30 3470 H 317.822 -5.57672 5.84831 0
M  V30 3471 H 321.408 -4.43796 3.76213 0
M  V30 3472 H 320.288 -5.29142 5.78774 0
M  V30 3473 N 317.792 -0.46758 -1.50504 0
M  V30 3474 C 319.022 0.086288 -2.0642 0
M  V30 3475 C 319.43 1.34369 -1.33197 0
M  V30 3476 O 318.773 1.79431 -0.393747 0
M  V30 3477 C 318.835 0.443846 -3.5675 0
M  V30 3478 C 318.499 -0.711035 -4.51435 0
M  V30 3479 C 319.496 -1.59205 -4.94924 0
M  V30 3480 C 317.181 -0.900363 -4.94165 0
M  V30 3481 C 319.175 -2.64683 -5.79846 0
M  V30 3482 C 316.862 -1.95837 -5.7887 0
M  V30 3483 C 317.86 -2.82997 -6.21612 0
M  V30 3484 O 317.548 -3.86977 -7.0463 0
M  V30 3485 H 317.28 -0.00217814 -0.675996 0
M  V30 3486 H 319.834 -0.654346 -1.94698 0
M  V30 3487 H 318.064 1.23762 -3.6636 0
M  V30 3488 H 319.753 0.932386 -3.95046 0
M  V30 3489 H 320.519 -1.45745 -4.62583 0
M  V30 3490 H 316.398 -0.231427 -4.60419 0
M  V30 3491 H 319.942 -3.32745 -6.13128 0
M  V30 3492 H 315.839 -2.09305 -6.10624 0
M  V30 3493 H 316.607 -3.83923 -7.22873 0
M  V30 3494 N 319.27 1.56325 -0.20005 0
M  V30 3495 C 320.202 2.16555 0.750771 0
M  V30 3496 C 321.215 1.12871 1.1732 0
M  V30 3497 O 322.404 1.39943 1.10807 0
M  V30 3498 C 319.504 2.71684 2.02586 0
M  V30 3499 C 318.677 4.00321 1.76244 0
M  V30 3500 C 317.736 4.40227 2.88248 0
M  V30 3501 O 316.762 5.07552 2.57642 0
M  V30 3502 N 317.964 4.04138 4.16717 0
M  V30 3503 H 320.729 2.98772 0.235685 0
M  V30 3504 H 318.29 1.6189 -0.0182594 0
M  V30 3505 H 320.282 2.95363 2.76664 0
M  V30 3506 H 318.852 1.93893 2.45202 0
M  V30 3507 H 318.072 3.84723 0.85919 0
M  V30 3508 H 319.36 4.84279 1.56048 0
M  V30 3509 H 318.758 3.49993 4.44434 0
M  V30 3510 H 317.315 4.32756 4.87407 0
M  V30 3511 N 320.748 -0.0735177 1.57428 0
M  V30 3512 C 321.696 -1.10628 2.04607 0
M  V30 3513 C 322.69 -1.40181 0.951088 0
M  V30 3514 O 323.896 -1.39608 1.1362 0
M  V30 3515 H 320.271 -0.374088 0.652351 0
M  V30 3516 H 322.242 -0.682218 2.90497 0
M  V30 3517 C 320.991 -2.41212 2.50423 0
M  V30 3518 H 320.314 -2.19322 3.34272 0
M  V30 3519 H 321.754 -3.11927 2.87189 0
M  V30 3520 C 320.213 -3.0705 1.38644 0
M  V30 3521 O 320.743 -3.95056 0.727582 0
M  V30 3522 N 318.949 -2.67645 1.132 0
M  V30 3523 H 318.496 -1.96169 1.66959 0
M  V30 3524 H 318.454 -3.1202 0.386147 0
M  V30 3525 N 322.226 -1.5378 -0.344866 0
M  V30 3526 C 323.466 -1.72677 -1.09371 0
M  V30 3527 C 323.83 -0.479084 -1.85927 0
M  V30 3528 O 325.031 -0.54505 -2.63216 0
M  V30 3529 C 323.302 -2.95457 -2.01097 0
M  V30 3530 S 324.861 -3.35158 -2.83222 0
M  V30 3531 H 321.679 -0.607402 -0.369573 0
M  V30 3532 H 324.281 -1.91922 -0.372307 0
M  V30 3533 H 322.985 -3.84437 -1.43655 0
M  V30 3534 H 322.516 -2.78673 -2.77678 0
M  V30 3535 H 324.531 -2.88789 -4.03504 0
M  V30 3536 N 323.704 0.605807 -1.45491 0
M  V30 3537 C 324.651 1.7164 -1.54299 0
M  V30 3538 C 325.621 1.61486 -0.388761 0
M  V30 3539 O 326.806 1.81039 -0.602445 0
M  V30 3540 C 323.946 3.09953 -1.51734 0
M  V30 3541 C 323.059 3.309 -2.77721 0
M  V30 3542 C 322.194 4.59329 -2.66816 0
M  V30 3543 C 321.233 4.7354 -3.87848 0
M  V30 3544 N 320.37 5.9327 -3.75467 0
M  V30 3545 H 325.21 1.63449 -2.49176 0
M  V30 3546 H 322.747 0.796957 -1.23641 0
M  V30 3547 H 324.705 3.89977 -1.48235 0
M  V30 3548 H 323.335 3.17098 -0.604068 0
M  V30 3549 H 322.387 2.44639 -2.913 0
M  V30 3550 H 323.699 3.37274 -3.67488 0
M  V30 3551 H 322.853 5.4755 -2.61292 0
M  V30 3552 H 321.592 4.55355 -1.74651 0
M  V30 3553 H 320.597 3.83741 -3.93729 0
M  V30 3554 H 321.822 4.79309 -4.81082 0
M  V30 3555 H 319.768 5.90338 -2.86072 0
M  V30 3556 H 319.685 6.00811 -4.5887 0
M  V30 3557 H 320.953 6.83984 -3.73879 0
M  V30 3558 N 325.182 1.32811 0.848464 0
M  V30 3559 C 326.129 1.22265 1.95755 0
M  V30 3560 C 327.099 0.103413 1.65778 0
M  V30 3561 O 328.284 0.280033 1.88734 0
M  V30 3562 C 325.424 0.958014 3.31536 0
M  V30 3563 C 324.537 2.16262 3.73971 0
M  V30 3564 C 323.672 1.83295 4.98575 0
M  V30 3565 C 322.711 3.00041 5.33518 0
M  V30 3566 N 321.848 2.67125 6.49299 0
M  V30 3567 H 326.688 2.17128 2.04107 0
M  V30 3568 H 324.225 1.07982 0.998913 0
M  V30 3569 H 326.183 0.785052 4.09747 0
M  V30 3570 H 324.813 0.046159 3.22767 0
M  V30 3571 H 323.865 2.44565 2.91362 0
M  V30 3572 H 325.177 3.03572 3.95785 0
M  V30 3573 H 324.331 1.62586 5.84509 0
M  V30 3574 H 323.07 0.932078 4.7871 0
M  V30 3575 H 322.075 3.21374 4.46093 0
M  V30 3576 H 323.3 3.90869 5.55336 0
M  V30 3577 H 321.246 1.79586 6.3094 0
M  V30 3578 H 321.163 3.47965 6.71161 0
M  V30 3579 H 322.431 2.49861 7.3837 0
M  V30 3580 N 326.66 -1.06551 1.16123 0
M  V30 3581 C 327.607 -2.13961 0.865414 0
M  V30 3582 C 328.577 -1.65066 -0.185055 0
M  V30 3583 O 329.762 -1.90732 -0.05083 0
M  V30 3584 C 326.902 -3.43113 0.369776 0
M  V30 3585 C 326.015 -4.05756 1.48276 0
M  V30 3586 C 325.15 -5.22773 0.942414 0
M  V30 3587 C 324.189 -5.77395 2.03179 0
M  V30 3588 N 323.326 -6.85731 1.50721 0
M  V30 3589 H 328.166 -2.38605 1.78527 0
M  V30 3590 H 325.703 -1.17072 0.890646 0
M  V30 3591 H 327.661 -4.17151 0.0640643 0
M  V30 3592 H 326.291 -3.18695 -0.513143 0
M  V30 3593 H 325.343 -3.29292 1.9045 0
M  V30 3594 H 326.655 -4.42351 2.30493 0
M  V30 3595 H 325.809 -6.03827 0.589729 0
M  V30 3596 H 324.548 -4.87618 0.0895191 0
M  V30 3597 H 323.553 -4.94981 2.3932 0
M  V30 3598 H 324.778 -6.14603 2.8886 0
M  V30 3599 H 322.724 -6.52499 0.676811 0
M  V30 3600 H 322.641 -7.21254 2.26557 0
M  V30 3601 H 323.909 -7.7047 1.18303 0
M  V30 3602 N 328.138 -0.959301 -1.25041 0
M  V30 3603 C 329.068 -0.501388 -2.28053 0
M  V30 3604 C 330.049 0.454673 -1.63911 0
M  V30 3605 O 331.234 0.352618 -1.90972 0
M  V30 3606 C 328.364 0.217224 -3.4662 0
M  V30 3607 C 327.318 -0.654034 -4.22973 0
M  V30 3608 C 326.644 0.195589 -5.34342 0
M  V30 3609 C 327.944 -1.93447 -4.85155 0
M  V30 3610 H 329.638 -1.36238 -2.66608 0
M  V30 3611 H 327.184 -0.656534 -1.28163 0
M  V30 3612 H 329.137 0.548732 -4.17812 0
M  V30 3613 H 327.861 1.1125 -3.07068 0
M  V30 3614 H 326.52 -0.968693 -3.5357 0
M  V30 3615 H 326.168 1.09076 -4.91031 0
M  V30 3616 H 325.868 -0.384091 -5.86343 0
M  V30 3617 H 327.392 0.521958 -6.08365 0
M  V30 3618 H 328.806 -1.66908 -5.48466 0
M  V30 3619 H 327.203 -2.46018 -5.47353 0
M  V30 3620 H 328.273 -2.63466 -4.07079 0
M  V30 3621 N 329.616 1.39756 -0.72842 0
M  V30 3622 C 330.864 2.00248 -0.272946 0
M  V30 3623 C 331.185 1.58077 1.14178 0
M  V30 3624 O 330.455 0.826014 1.77634 0
M  V30 3625 H 329.035 0.740554 -0.0979247 0
M  V30 3626 H 331.697 1.70903 -0.936912 0
M  V30 3627 H 330.793 3.10495 -0.316142 0
M  V30 3628 N 331.094 0.475555 1.50254 0
M  V30 3629 C 332.041 -0.316293 2.28622 0
M  V30 3630 C 333.011 -0.983227 1.33873 0
M  V30 3631 O 334.196 -0.994805 1.62814 0
M  V30 3632 C 331.336 -1.38975 3.1588 0
M  V30 3633 C 330.449 -0.737146 4.25664 0
M  V30 3634 C 329.584 -1.78887 5.00173 0
M  V30 3635 C 328.623 -1.11676 6.01826 0
M  V30 3636 N 327.76 -2.11154 6.69596 0
M  V30 3637 H 332.6 0.358297 2.95838 0
M  V30 3638 H 330.137 0.188541 1.45887 0
M  V30 3639 H 332.095 -2.02383 3.64825 0
M  V30 3640 H 330.725 -2.03344 2.50701 0
M  V30 3641 H 329.777 0.0096065 3.80399 0
M  V30 3642 H 331.089 -0.206816 4.98371 0
M  V30 3643 H 330.243 -2.49865 5.52859 0
M  V30 3644 H 328.982 -2.35302 4.27182 0
M  V30 3645 H 327.987 -0.392633 5.48396 0
M  V30 3646 H 329.212 -0.55945 6.76792 0
M  V30 3647 H 327.158 -2.66577 5.99394 0
M  V30 3648 H 327.075 -1.63118 7.38193 0
M  V30 3649 H 328.343 -2.81497 7.26897 0
M  V30 3650 N 332.573 -1.56217 0.208337 0
M  V30 3651 C 333.503 -2.22694 -0.702116 0
M  V30 3652 C 334.484 -1.19432 -1.2112 0
M  V30 3653 O 335.669 -1.47978 -1.25762 0
M  V30 3654 C 332.799 -2.8966 -1.9161 0
M  V30 3655 C 331.753 -3.9928 -1.5414 0
M  V30 3656 C 331.079 -4.53476 -2.83308 0
M  V30 3657 C 332.379 -5.17012 -0.741339 0
M  V30 3658 H 334.073 -2.99034 -0.147898 0
M  V30 3659 H 331.619 -1.43831 -0.0696951 0
M  V30 3660 H 333.572 -3.34852 -2.55836 0
M  V30 3661 H 332.296 -2.10746 -2.49507 0
M  V30 3662 H 330.955 -3.54799 -0.922668 0
M  V30 3663 H 330.603 -3.71308 -3.39322 0
M  V30 3664 H 330.303 -5.27451 -2.58976 0
M  V30 3665 H 331.827 -5.01378 -3.485 0
M  V30 3666 H 333.241 -5.58667 -1.28699 0
M  V30 3667 H 331.638 -5.97137 -0.595627 0
M  V30 3668 H 332.708 -4.8423 0.254851 0
M  V30 3669 N 334.051 0.0651679 -1.57465 0
M  V30 3670 C 335.462 0.616213 -1.76238 0
M  V30 3671 C 335.813 1.7756 -0.834689 0
M  V30 3672 O 334.938 2.1639 -0.0204156 0
M  V30 3673 C 335.533 1.12462 -3.1959 0
M  V30 3674 C 334.092 1.62147 -3.39684 0
M  V30 3675 C 333.239 0.543739 -2.71917 0
M  V30 3676 H 336.19 -0.161022 -1.57881 0
M  V30 3677 H 336.211 1.99324 -3.24114 0
M  V30 3678 H 335.723 0.280592 -3.87084 0
M  V30 3679 H 333.824 2.48854 -2.77313 0
M  V30 3680 H 333.937 1.69385 -4.48158 0
M  V30 3681 H 332.301 0.990352 -2.34657 0
M  V30 3682 H 333.084 -0.290216 -3.42071 0
M  V30 3683 N 335.529 1.53961 0.336706 0
M  V30 3684 C 336.94 1.62914 0.911925 0
M  V30 3685 C 337.291 0.514795 1.89326 0
M  V30 3686 O 336.416 -0.354395 2.13478 0
M  V30 3687 C 337.011 2.95304 1.66076 0
M  V30 3688 C 335.57 3.06496 2.18489 0
M  V30 3689 C 334.717 2.58403 1.00613 0
M  V30 3690 H 337.668 1.58285 0.114649 0
M  V30 3691 H 337.689 2.84727 2.5241 0
M  V30 3692 H 337.201 3.76387 0.946276 0
M  V30 3693 H 335.302 2.3006 2.93092 0
M  V30 3694 H 335.415 4.1208 2.44391 0
M  V30 3695 H 333.779 2.13977 1.38152 0
M  V30 3696 H 334.562 3.41932 0.306179 0
M  V30 3697 N 337.007 -0.598083 1.45811 0
M  V30 3698 C 337.939 -1.72231 1.51225 0
M  V30 3699 C 338.952 -1.57757 0.402059 0
M  V30 3700 O 340.141 -1.65464 0.669624 0
M  V30 3701 C 337.241 -3.10331 1.3619 0
M  V30 3702 C 336.414 -3.50955 2.61054 0
M  V30 3703 C 335.473 -4.68055 2.40439 0
M  V30 3704 O 334.499 -4.74691 3.14097 0
M  V30 3705 N 335.701 -5.61941 1.45612 0
M  V30 3706 H 338.466 -1.68046 2.48154 0
M  V30 3707 H 336.027 -0.783637 1.41671 0
M  V30 3708 H 338.019 -3.86439 1.20195 0
M  V30 3709 H 336.589 -3.0897 0.475015 0
M  V30 3710 H 335.809 -2.64711 2.92099 0
M  V30 3711 H 337.097 -3.74858 3.44034 0
M  V30 3712 H 336.495 -5.59301 0.848431 0
M  V30 3713 H 335.052 -6.37542 1.35585 0
M  V30 3714 N 338.485 -1.33259 -0.841409 0
M  V30 3715 C 339.715 -1.2742 -1.62628 0
M  V30 3716 C 340.123 0.157604 -1.88542 0
M  V30 3717 O 339.466 1.10938 -1.46419 0
M  V30 3718 C 339.528 -1.97797 -3.00194 0
M  V30 3719 C 339.192 -3.47109 -2.97261 0
M  V30 3720 C 340.189 -4.42358 -2.73159 0
M  V30 3721 C 337.874 -3.89247 -3.17478 0
M  V30 3722 C 339.868 -5.77718 -2.69296 0
M  V30 3723 C 337.555 -5.24713 -3.13241 0
M  V30 3724 C 338.553 -6.1876 -2.89181 0
M  V30 3725 O 338.241 -7.51745 -2.84843 0
M  V30 3726 H 337.973 -0.440436 -0.512827 0
M  V30 3727 H 340.527 -1.76153 -1.05638 0
M  V30 3728 H 338.757 -1.43652 -3.59028 0
M  V30 3729 H 340.446 -1.8549 -3.61038 0
M  V30 3730 H 341.212 -4.11127 -2.57294 0
M  V30 3731 H 337.091 -3.16456 -3.35226 0
M  V30 3732 H 340.635 -6.51097 -2.50436 0
M  V30 3733 H 336.532 -5.55569 -3.28654 0
M  V30 3734 H 337.3 -7.61262 -3.00702 0
M  V30 3735 N 339.963 1.05934 -1.16686 0
M  V30 3736 C 340.926 2.11669 -0.879144 0
M  V30 3737 C 341.926 1.60294 0.127445 0
M  V30 3738 O 343.116 1.7389 -0.103865 0
M  V30 3739 C 340.248 3.39438 -0.315425 0
M  V30 3740 H 341.441 2.38626 -1.81653 0
M  V30 3741 H 338.994 1.22058 -0.976299 0
M  V30 3742 H 339.729 3.18132 0.629468 0
M  V30 3743 H 339.514 3.78034 -1.04079 0
M  V30 3744 H 341.004 4.17391 -0.132189 0
M  V30 3745 N 341.441 0.965919 1.2453 0
M  V30 3746 C 342.371 0.513476 2.27784 0
M  V30 3747 C 343.352 -0.445974 1.6415 0
M  V30 3748 O 344.537 -0.342485 1.91156 0
M  V30 3749 C 341.667 -0.198839 3.4673 0
M  V30 3750 C 340.621 0.676456 4.2262 0
M  V30 3751 C 339.947 -0.167248 5.34438 0
M  V30 3752 C 341.247 1.96017 4.84123 0
M  V30 3753 H 342.941 1.3765 2.65881 0
M  V30 3754 H 340.487 0.663321 1.27813 0
M  V30 3755 H 342.44 -0.526567 4.18097 0
M  V30 3756 H 341.164 -1.0962 3.07654 0
M  V30 3757 H 339.823 0.98743 3.53052 0
M  V30 3758 H 339.471 -1.0647 4.91603 0
M  V30 3759 H 339.171 0.415181 5.86131 0
M  V30 3760 H 340.695 -0.489688 6.08633 0
M  V30 3761 H 342.109 1.69814 5.47573 0
M  V30 3762 H 340.506 2.48918 5.4604 0
M  V30 3763 H 341.576 2.65622 4.05676 0
M  V30 3764 N 342.919 -1.39368 0.735821 0
M  V30 3765 C 343.829 -2.34395 0.0979693 0
M  V30 3766 C 344.845 -1.58361 -0.720968 0
M  V30 3767 O 346.021 -1.90648 -0.649245 0
M  V30 3768 C 343.086 -3.37393 -0.797916 0
M  V30 3769 C 342.147 -4.29287 0.0333662 0
M  V30 3770 C 341.38 -5.27365 -0.819854 0
M  V30 3771 O 341.603 -5.31959 -2.05855 0
M  V30 3772 O 340.537 -6.01389 -0.248079 0
M  V30 3773 H 344.363 -2.90601 0.882315 0
M  V30 3774 H 341.948 -1.40909 0.4965 0
M  V30 3775 H 343.83 -4.00505 -1.31048 0
M  V30 3776 H 342.505 -2.83571 -1.56106 0
M  V30 3777 H 341.412 -3.69395 0.591475 0
M  V30 3778 H 342.745 -4.86317 0.758752 0
M  V30 3779 N 344.397 -0.483516 -1.5 0
M  V30 3780 C 345.327 0.293829 -2.31644 0
M  V30 3781 C 346.308 0.978864 -1.39112 0
M  V30 3782 O 347.493 0.973644 -1.68029 0
M  V30 3783 C 344.623 1.36897 -3.19181 0
M  V30 3784 C 343.577 0.804833 -4.20365 0
M  V30 3785 C 342.903 1.9792 -4.96721 0
M  V30 3786 C 344.203 -0.192313 -5.21946 0
M  V30 3787 H 345.897 -0.387616 -2.9688 0
M  V30 3788 H 343.443 -0.187856 -1.42769 0
M  V30 3789 H 345.396 1.92037 -3.751 0
M  V30 3790 H 344.12 2.07936 -2.51853 0
M  V30 3791 H 342.779 0.275319 -3.65565 0
M  V30 3792 H 342.427 2.67686 -4.25856 0
M  V30 3793 H 342.127 1.60789 -5.65173 0
M  V30 3794 H 343.651 2.53526 -5.55479 0
M  V30 3795 H 345.065 0.270333 -5.72662 0
M  V30 3796 H 343.462 -0.478543 -5.98189 0
M  V30 3797 H 344.532 -1.11409 -4.71928 0
M  V30 3798 N 345.875 1.56104 -0.216619 0
M  V30 3799 C 346.805 2.23063 0.690296 0
M  V30 3800 C 347.786 1.20072 1.20485 0
M  V30 3801 O 348.971 1.48643 1.24976 0
M  V30 3802 C 346.101 2.90672 1.90072 0
M  V30 3803 C 345.055 4.00092 1.5202 0
M  V30 3804 C 344.381 4.54972 2.80899 0
M  V30 3805 C 345.681 5.17398 0.71391 0
M  V30 3806 H 347.375 2.99109 0.132038 0
M  V30 3807 H 344.921 1.43866 0.0620664 0
M  V30 3808 H 346.874 3.36204 2.54057 0
M  V30 3809 H 345.598 2.12066 2.48386 0
M  V30 3810 H 344.257 3.55283 0.903839 0
M  V30 3811 H 343.905 3.73102 3.37348 0
M  V30 3812 H 343.605 5.28817 2.56176 0
M  V30 3813 H 345.129 5.0322 3.45836 0
M  V30 3814 H 346.543 5.59342 1.25735 0
M  V30 3815 H 344.94 5.97444 0.563951 0
M  V30 3816 H 346.01 4.84088 -0.280527 0
M  V30 3817 N 347.353 -0.0568162 1.57498 0
M  V30 3818 C 348.581 -0.765626 1.92213 0
M  V30 3819 C 348.996 -1.70353 0.813961 0
M  V30 3820 O 348.353 -1.81268 -0.211701 0
M  V30 3821 C 348.404 -1.5465 3.2675 0
M  V30 3822 O 348.125 -0.646278 4.33307 0
M  V30 3823 C 349.626 -2.35497 3.75574 0
M  V30 3824 H 346.846 -0.216835 0.634999 0
M  V30 3825 H 349.39 -0.0226146 2.04487 0
M  V30 3826 H 347.545 -2.24165 3.15957 0
M  V30 3827 H 347.959 -1.19093 5.108 0
M  V30 3828 H 349.433 -2.85722 4.72299 0
M  V30 3829 H 349.91 -3.15692 3.05344 0
M  V30 3830 H 350.516 -1.7111 3.8936 0
M  V30 3831 N 348.832 -1.54138 -0.328536 0
M  V30 3832 C 350.078 -1.7236 -1.06865 0
M  V30 3833 C 350.411 -0.493231 -1.87832 0
M  V30 3834 O 349.686 0.5098 -1.877 0
M  V30 3835 C 349.969 -2.99621 -1.99747 0
M  V30 3836 C 349.822 -4.32899 -1.22143 0
M  V30 3837 C 351.141 -3.22615 -2.99345 0
M  V30 3838 H 348.26 -0.627151 -0.387105 0
M  V30 3839 H 350.902 -1.86827 -0.345767 0
M  V30 3840 H 349.052 -2.87418 -2.61387 0
M  V30 3841 H 350.724 -4.56978 -0.630017 0
M  V30 3842 H 348.967 -4.30628 -0.523628 0
M  V30 3843 H 349.638 -5.18154 -1.90318 0
M  V30 3844 H 352.114 -3.34248 -2.47826 0
M  V30 3845 H 350.99 -4.13027 -3.61524 0
M  V30 3846 H 351.251 -2.3961 -3.71536 0
M  V30 3847 N 350.31 0.590341 -1.46126 0
M  V30 3848 C 351.54 1.37304 -1.54373 0
M  V30 3849 C 351.948 1.88332 -0.181071 0
M  V30 3850 O 351.291 1.63852 0.830559 0
M  V30 3851 C 351.353 2.6012 -2.48149 0
M  V30 3852 C 351.017 2.30613 -3.94546 0
M  V30 3853 C 352.014 1.89915 -4.83971 0
M  V30 3854 C 349.699 2.42993 -4.39613 0
M  V30 3855 C 351.693 1.61981 -6.16475 0
M  V30 3856 C 349.38 2.14672 -5.72153 0
M  V30 3857 C 350.378 1.7423 -6.60404 0
M  V30 3858 O 350.066 1.46251 -7.90485 0
M  V30 3859 H 349.798 0.426086 -0.524811 0
M  V30 3860 H 352.352 0.72539 -1.92165 0
M  V30 3861 H 350.582 3.27664 -2.05361 0
M  V30 3862 H 352.271 3.22182 -2.46887 0
M  V30 3863 H 353.037 1.79872 -4.50412 0
M  V30 3864 H 348.916 2.73435 -3.71153 0
M  V30 3865 H 352.46 1.30341 -6.85315 0
M  V30 3866 H 348.357 2.24337 -6.05263 0
M  V30 3867 H 349.125 1.6016 -8.02677 0
M  V30 3868 N 351.788 1.33704 0.83433 0
M  V30 3869 C 352.751 1.24244 1.92603 0
M  V30 3870 C 353.751 0.160383 1.59998 0
M  V30 3871 O 354.941 0.412228 1.69252 0
M  V30 3872 C 352.073 0.91555 3.28376 0
M  V30 3873 H 353.266 2.21287 2.02416 0
M  V30 3874 H 350.819 1.17827 1.02696 0
M  V30 3875 H 351.554 -0.0521886 3.24258 0
M  V30 3876 H 351.339 1.69811 3.53422 0
M  V30 3877 H 352.829 0.874231 4.08347 0
M  V30 3878 N 353.266 -1.05314 1.17247 0
M  V30 3879 C 354.512 -1.78699 0.971513 0
M  V30 3880 C 354.867 -1.85932 -0.494692 0
M  V30 3881 O 354.16 -1.34716 -1.36243 0
M  V30 3882 C 354.354 -3.2229 1.54479 0
M  V30 3883 C 354.183 -3.29052 3.06521 0
M  V30 3884 C 352.953 -3.3841 3.75242 0
M  V30 3885 C 355.151 -3.18095 4.04129 0
M  V30 3886 N 353.133 -3.34289 5.14902 0
M  V30 3887 C 354.504 -3.21331 5.30232 0
M  V30 3888 C 356.559 -3.02049 3.95817 0
M  V30 3889 C 355.262 -3.10169 6.4899 0
M  V30 3890 C 357.288 -2.92228 5.14156 0
M  V30 3891 C 356.65 -2.96096 6.39145 0
M  V30 3892 H 352.749 -0.66628 0.409383 0
M  V30 3893 H 355.333 -1.25553 1.4881 0
M  V30 3894 H 353.504 -3.7381 1.05455 0
M  V30 3895 H 355.236 -3.83905 1.28059 0
M  V30 3896 H 351.991 -3.43621 3.25917 0
M  V30 3897 H 352.415 -3.35702 5.87906 0
M  V30 3898 H 357.057 -2.97897 3.00029 0
M  V30 3899 H 354.775 -3.13076 7.44989 0
M  V30 3900 H 358.361 -2.80885 5.09505 0
M  V30 3901 H 357.241 -2.88568 7.29176 0
M  V30 3902 N 354.744 -0.972509 -1.24016 0
M  V30 3903 C 355.654 -0.5143 -2.28893 0
M  V30 3904 C 356.67 0.427078 -1.68677 0
M  V30 3905 O 357.846 0.298939 -1.99169 0
M  V30 3906 C 354.911 0.183598 -3.46214 0
M  V30 3907 C 353.972 -0.798202 -4.21814 0
M  V30 3908 C 353.205 -0.133514 -5.33533 0
M  V30 3909 O 353.428 1.07714 -5.60137 0
M  V30 3910 O 352.362 -0.828103 -5.96176 0
M  V30 3911 H 356.188 -1.38629 -2.70214 0
M  V30 3912 H 353.773 -0.739769 -1.29799 0
M  V30 3913 H 355.655 0.575433 -4.17453 0
M  V30 3914 H 354.33 1.03048 -3.0686 0
M  V30 3915 H 353.237 -1.24059 -3.52931 0
M  V30 3916 H 354.57 -1.61364 -4.64997 0
M  V30 3917 N 356.222 1.38976 -0.743202 0
M  V30 3918 C 357.638 1.53984 -0.419664 0
M  V30 3919 C 357.838 1.70837 1.0685 0
M  V30 3920 O 356.894 1.7135 1.8546 0
M  V30 3921 C 358.207 2.75287 -1.20985 0
M  V30 3922 C 359.755 2.89129 -1.19889 0
M  V30 3923 C 360.23 4.13381 -1.97181 0
M  V30 3924 N 361.721 4.20437 -1.94389 0
M  V30 3925 C 362.456 5.15547 -2.50996 0
M  V30 3926 N 361.952 6.16395 -3.16274 0
M  V30 3927 N 363.745 5.07822 -2.40984 0
M  V30 3928 H 355.896 1.26285 -1.7078 0
M  V30 3929 H 358.159 0.612689 -0.723406 0
M  V30 3930 H 357.865 2.69204 -2.26323 0
M  V30 3931 H 357.739 3.68184 -0.819759 0
M  V30 3932 H 360.126 2.947 -0.153606 0
M  V30 3933 H 360.207 1.97272 -1.62841 0
M  V30 3934 H 359.851 4.08572 -3.01714 0
M  V30 3935 H 359.781 5.04298 -1.51629 0
M  V30 3936 H 362.272 3.48205 -1.46839 0
M  V30 3937 H 362.585 6.85443 -3.56915 0
M  V30 3938 H 360.93 6.16758 -3.20367 0
M  V30 3939 H 364.121 4.27973 -1.89622 0
M  V30 3940 H 364.294 5.81767 -2.85397 0
M  V30 3941 N 357.7 0.491464 1.49741 0
M  V30 3942 C 358.948 -0.0563141 2.02022 0
M  V30 3943 C 359.269 -1.38363 1.37407 0
M  V30 3944 O 358.539 -1.88702 0.526166 0
M  V30 3945 H 357.119 -0.0238014 0.746621 0
M  V30 3946 H 359.781 0.646533 1.83864 0
M  V30 3947 H 358.877 -0.192967 3.11503 0
M  V30 3948 N 359.178 -1.55987 0.224894 0
M  V30 3949 C 360.403 -2.03232 -0.41369 0
M  V30 3950 C 360.828 -1.10359 -1.52323 0
M  V30 3951 O 360.186 -0.092395 -1.81064 0
M  V30 3952 C 360.234 -3.48682 -0.919405 0
M  V30 3953 O 359.338 -3.58947 -2.03054 0
M  V30 3954 H 358.679 -0.657428 -0.0931903 0
M  V30 3955 H 361.209 -2.01679 0.34451 0
M  V30 3956 H 361.219 -3.8907 -1.22835 0
M  V30 3957 H 359.894 -4.15761 -0.107339 0
M  V30 3958 H 358.471 -3.30448 -1.72796 0
M  V30 3959 N 360.656 0.0484629 -1.57525 0
M  V30 3960 C 361.589 1.08755 -2.00618 0
M  V30 3961 C 362.567 1.36272 -0.887058 0
M  V30 3962 O 363.751 1.49255 -1.15131 0
M  V30 3963 C 360.878 2.42675 -2.36277 0
M  V30 3964 C 359.924 2.31142 -3.58435 0
M  V30 3965 S 360.757 1.68326 -5.08357 0
M  V30 3966 C 361.913 3.03776 -5.47239 0
M  V30 3967 H 362.146 0.720415 -2.88439 0
M  V30 3968 H 359.679 0.257801 -1.52233 0
M  V30 3969 H 361.637 3.19699 -2.57494 0
M  V30 3970 H 360.298 2.76541 -1.48942 0
M  V30 3971 H 359.491 3.29957 -3.80978 0
M  V30 3972 H 359.093 1.62258 -3.36969 0
M  V30 3973 H 361.385 4.00106 -5.46737 0
M  V30 3974 H 362.328 2.85988 -6.47778 0
M  V30 3975 H 362.736 3.05456 -4.74718 0
M  V30 3976 N 362.134 1.5431 0.320358 0
M  V30 3977 C 363.081 1.83918 1.39438 0
M  V30 3978 C 364.051 0.686525 1.51248 0
M  V30 3979 O 365.236 0.933269 1.66417 0
M  V30 3980 C 362.376 2.075 2.75749 0
M  V30 3981 C 361.489 3.35177 2.72544 0
M  V30 3982 C 360.624 3.48704 4.00723 0
M  V30 3983 C 359.663 4.70244 3.91838 0
M  V30 3984 N 358.8 4.80679 5.11754 0
M  V30 3985 H 363.64 2.75544 1.13489 0
M  V30 3986 H 361.177 1.36459 0.549309 0
M  V30 3987 H 363.135 2.19166 3.54996 0
M  V30 3988 H 361.765 1.19163 3 0
M  V30 3989 H 360.817 3.32233 1.85271 0
M  V30 3990 H 362.129 4.24534 2.61863 0
M  V30 3991 H 361.283 3.59928 4.88402 0
M  V30 3992 H 360.022 2.57445 4.14214 0
M  V30 3993 H 359.027 4.59072 3.02544 0
M  V30 3994 H 360.252 5.6289 3.7991 0
M  V30 3995 H 358.198 3.92337 5.25745 0
M  V30 3996 H 358.115 5.64007 5.0342 0
M  V30 3997 H 359.383 4.96239 6.01138 0
M  V30 3998 N 363.613 -0.582584 1.46437 0
M  V30 3999 C 364.841 -1.36682 1.55324 0
M  V30 4000 C 365.256 -1.87796 0.194409 0
M  V30 4001 O 364.613 -1.63623 -0.808318 0
M  V30 4002 C 364.664 -2.55426 2.55812 0
M  V30 4003 O 364.385 -2.0643 3.86417 0
M  V30 4004 C 365.886 -3.47976 2.74641 0
M  V30 4005 H 363.106 -0.417545 0.525259 0
M  V30 4006 H 365.65 -0.708219 1.91845 0
M  V30 4007 H 363.805 -3.17275 2.22295 0
M  V30 4008 H 364.219 -2.83762 4.41111 0
M  V30 4009 H 365.693 -4.27775 3.48874 0
M  V30 4010 H 366.17 -3.99919 1.81553 0
M  V30 4011 H 366.776 -2.91962 3.09255 0
M  V30 4012 N 365.091 -1.34144 -0.827227 0
M  V30 4013 C 366.041 -1.21923 -1.92663 0
M  V30 4014 C 367.025 -0.119294 -1.60457 0
M  V30 4015 O 368.217 -0.348539 -1.73534 0
M  V30 4016 C 365.346 -0.972492 -3.29238 0
M  V30 4017 C 364.432 -2.1154 -3.67576 0
M  V30 4018 N 364.823 -3.36627 -3.77512 0
M  V30 4019 C 363.121 -2.02468 -3.97395 0
M  V30 4020 C 363.822 -4.11658 -4.1099 0
M  V30 4021 N 362.798 -3.40207 -4.23981 0
M  V30 4022 H 366.6 -2.16721 -1.98517 0
M  V30 4023 H 364.114 -1.2632 -1.02064 0
M  V30 4024 H 366.111 -0.865847 -4.0781 0
M  V30 4025 H 364.771 -0.0331509 -3.24683 0
M  V30 4026 H 365.782 -3.71234 -3.61118 0
M  V30 4027 H 362.459 -1.16265 -4.00985 0
M  V30 4028 H 363.849 -5.19657 -4.25918 0
M  V30 4029 N 366.569 1.04691 -1.17803 0
M  V30 4030 C 367.816 1.77782 -0.969532 0
M  V30 4031 C 368.144 1.87926 0.501401 0
M  V30 4032 O 367.399 1.37918 1.38842 0
M  V30 4033 C 367.698 3.21467 -1.56186 0
M  V30 4034 C 367.364 3.3137 -3.05786 0
M  V30 4035 C 366.026 3.3378 -3.46619 0
M  V30 4036 C 368.378 3.31976 -4.01797 0
M  V30 4037 C 365.706 3.34431 -4.82051 0
M  V30 4038 C 368.058 3.34167 -5.37136 0
M  V30 4039 C 366.722 3.34866 -5.77426 0
M  V30 4040 H 365.992 0.650549 -0.354777 0
M  V30 4041 H 368.639 1.23006 -1.46772 0
M  V30 4042 H 366.944 3.79203 -0.985515 0
M  V30 4043 H 368.641 3.76652 -1.37602 0
M  V30 4044 H 365.231 3.3021 -2.73238 0
M  V30 4045 H 369.415 3.29311 -3.71306 0
M  V30 4046 H 364.671 3.33285 -5.12573 0
M  V30 4047 H 368.845 3.33585 -6.11305 0
M  V30 4048 H 366.472 3.35124 -6.82346 0
M  V30 4049 N 368.047 0.979072 1.23499 0
M  V30 4050 C 368.995 0.510604 2.26926 0
M  V30 4051 C 369.989 -0.431691 1.63807 0
M  V30 4052 O 371.195 -0.30573 1.77385 0
M  V30 4053 H 367.57 0.146688 0.737554 0
M  V30 4054 H 369.541 1.39466 2.63803 0
M  V30 4055 C 368.29 -0.172658 3.47271 0
M  V30 4056 H 367.613 0.543331 3.96091 0
M  V30 4057 H 369.053 -0.464101 4.21452 0
M  V30 4058 C 367.512 -1.40345 3.06276 0
M  V30 4059 O 368.042 -2.49978 3.14442 0
M  V30 4060 N 366.248 -1.27362 2.61203 0
M  V30 4061 H 365.795 -0.381584 2.54758 0
M  V30 4062 H 365.753 -2.09822 2.34141 0
M  V30 4063 N 369.525 -1.3858 0.750561 0
M  V30 4064 C 370.753 -2.04471 0.316098 0
M  V30 4065 C 371.168 -1.56606 -1.05452 0
M  V30 4066 O 370.525 -0.737784 -1.66922 0
M  V30 4067 C 370.576 -3.60025 0.326275 0
M  V30 4068 O 370.297 -4.06133 1.6428 0
M  V30 4069 C 371.798 -4.43131 -0.122429 0
M  V30 4070 H 369.018 -0.65717 0.135528 0
M  V30 4071 H 371.562 -1.77329 1.01857 0
M  V30 4072 H 369.717 -3.86014 -0.327431 0
M  V30 4073 H 370.131 -5.00547 1.56693 0
M  V30 4074 H 371.605 -5.51963 -0.0641473 0
M  V30 4075 H 372.082 -4.23333 -1.16988 0
M  V30 4076 H 372.688 -4.22323 0.50229 0
M  V30 4077 N 371.003 -0.499398 -1.49478 0
M  V30 4078 C 371.966 0.268838 -2.27618 0
M  V30 4079 C 372.966 0.895383 -1.33565 0
M  V30 4080 O 374.156 0.760164 -1.56739 0
M  V30 4081 C 371.288 1.38559 -3.11471 0
M  V30 4082 H 372.481 -0.416812 -2.96989 0
M  V30 4083 H 370.034 -0.254313 -1.54217 0
M  V30 4084 H 370.769 2.10544 -2.46661 0
M  V30 4085 H 370.554 0.941797 -3.80621 0
M  V30 4086 H 372.044 1.92678 -3.70493 0
M  V30 4087 N 372.481 1.55866 -0.233164 0
M  V30 4088 C 373.413 2.18099 0.704668 0
M  V30 4089 C 374.426 1.15334 1.14899 0
M  V30 4090 O 375.615 1.42262 1.07814 0
M  V30 4091 C 372.715 2.7592 1.96777 0
M  V30 4092 C 371.888 4.03969 1.67713 0
M  V30 4093 C 370.947 4.46242 2.78845 0
M  V30 4094 O 369.973 5.12903 2.46818 0
M  V30 4095 N 371.175 4.12886 4.08051 0
M  V30 4096 H 373.94 2.99205 0.172258 0
M  V30 4097 H 371.501 1.61815 -0.0525945 0
M  V30 4098 H 373.493 3.01165 2.70337 0
M  V30 4099 H 372.063 1.99051 2.41034 0
M  V30 4100 H 371.283 3.86459 0.777391 0
M  V30 4101 H 372.571 4.8748 1.4574 0
M  V30 4102 H 371.969 3.59342 4.3691 0
M  V30 4103 H 370.526 4.42997 4.78118 0
M  V30 4104 N 373.959 -0.0401083 1.57549 0
M  V30 4105 C 375.207 -0.731677 1.8839 0
M  V30 4106 C 375.528 -1.76481 0.829425 0
M  V30 4107 O 374.798 -1.95411 -0.1383 0
M  V30 4108 H 373.378 -0.273225 0.695239 0
M  V30 4109 H 376.04 -0.00867725 1.94898 0
M  V30 4110 H 375.136 -1.22816 2.86919 0
M  V30 4111 N 375.437 -1.54477 -0.31217 0
M  V30 4112 C 376.684 -1.73227 -1.04875 0
M  V30 4113 C 377.012 -0.512042 -1.87639 0
M  V30 4114 O 376.267 0.506131 -1.89042 0
M  V30 4115 C 376.566 -2.967 -1.99258 0
M  V30 4116 C 376.232 -4.30974 -1.32559 0
M  V30 4117 C 374.894 -4.67477 -1.141 0
M  V30 4118 C 377.246 -5.14258 -0.847835 0
M  V30 4119 C 374.574 -5.84852 -0.465326 0
M  V30 4120 C 376.926 -6.32327 -0.185931 0
M  V30 4121 C 375.59 -6.67499 0.0107077 0
M  V30 4122 H 374.86 -0.633881 -0.383765 0
M  V30 4123 H 377.507 -1.88727 -0.324731 0
M  V30 4124 H 375.812 -2.75935 -2.7815 0
M  V30 4125 H 377.509 -3.08401 -2.563 0
M  V30 4126 H 374.099 -4.02262 -1.4793 0
M  V30 4127 H 378.283 -4.86565 -0.978192 0
M  V30 4128 H 373.539 -6.10654 -0.301883 0
M  V30 4129 H 377.713 -6.96135 0.192211 0
M  V30 4130 H 375.34 -7.58306 0.536287 0
M  V30 4131 N 376.915 0.57481 -1.46744 0
M  V30 4132 C 378.331 0.898981 -1.31873 0
M  V30 4133 C 378.531 1.99313 -0.29605 0
M  V30 4134 O 377.587 2.50728 0.298621 0
M  V30 4135 C 378.9 1.30886 -2.7072 0
M  V30 4136 C 380.448 1.42127 -2.78871 0
M  V30 4137 C 380.923 1.86478 -4.18318 0
M  V30 4138 N 382.414 1.93658 -4.20774 0
M  V30 4139 C 383.149 2.29267 -5.2557 0
M  V30 4140 N 382.645 2.63612 -6.40688 0
M  V30 4141 N 384.438 2.29889 -5.1294 0
M  V30 4142 H 376.589 -0.147839 -2.11885 0
M  V30 4143 H 378.852 -0.00347013 -0.947994 0
M  V30 4144 H 378.558 0.578853 -3.46904 0
M  V30 4145 H 378.432 2.26874 -3.01343 0
M  V30 4146 H 380.819 2.14213 -2.0297 0
M  V30 4147 H 380.9 0.443705 -2.51922 0
M  V30 4148 H 380.544 1.14968 -4.94717 0
M  V30 4149 H 380.474 2.85207 -4.42679 0
M  V30 4150 H 382.965 1.69574 -3.37718 0
M  V30 4151 H 383.278 2.89759 -7.16421 0
M  V30 4152 H 381.623 2.61232 -6.44036 0
M  V30 4153 H 384.814 2.02485 -4.22039 0
M  V30 4154 H 384.987 2.57312 -5.94722 0
M  V30 4155 N 378.394 1.34581 0.820102 0
M  V30 4156 C 379.622 1.3018 1.60813 0
M  V30 4157 C 380.037 -0.123551 1.88395 0
M  V30 4158 O 379.394 -1.07148 1.47735 0
M  V30 4159 C 379.445 2.09312 2.94739 0
M  V30 4160 O 379.166 3.46288 2.68358 0
M  V30 4161 C 380.667 2.1234 3.89136 0
M  V30 4162 H 377.887 0.447726 0.499782 0
M  V30 4163 H 380.431 1.77237 1.02017 0
M  V30 4164 H 378.586 1.65889 3.50085 0
M  V30 4165 H 379 3.87227 3.53774 0
M  V30 4166 H 380.474 2.72126 4.80262 0
M  V30 4167 H 380.951 1.11854 4.24718 0
M  V30 4168 H 381.557 2.55864 3.39726 0
M  V30 4169 N 379.872 -1.04064 1.18357 0
M  V30 4170 C 381.118 -1.77528 0.980397 0
M  V30 4171 C 381.451 -1.87948 -0.48879 0
M  V30 4172 O 380.726 -1.3876 -1.36293 0
M  V30 4173 C 381.009 -3.20797 1.63588 0
M  V30 4174 C 380.862 -3.1832 3.17793 0
M  V30 4175 C 382.181 -4.18911 1.34914 0
M  V30 4176 H 379.3 -0.644443 0.357578 0
M  V30 4177 H 381.942 -1.2156 1.46024 0
M  V30 4178 H 380.092 -3.68586 1.22788 0
M  V30 4179 H 381.764 -2.78521 3.67728 0
M  V30 4180 H 380.007 -2.56351 3.49952 0
M  V30 4181 H 380.678 -4.19489 3.58794 0
M  V30 4182 H 383.154 -3.7967 1.70265 0
M  V30 4183 H 382.03 -5.17374 1.83346 0
M  V30 4184 H 382.291 -4.41262 0.272027 0
M  V30 4185 N 381.35 -0.985608 -1.22978 0
M  V30 4186 C 382.28 -0.549649 -2.26939 0
M  V30 4187 C 383.261 0.419803 -1.64838 0
M  V30 4188 O 384.446 0.31203 -1.91677 0
M  V30 4189 C 381.576 0.143652 -3.47003 0
M  V30 4190 C 380.53 -0.743606 -4.21491 0
M  V30 4191 C 379.856 0.0822027 -5.34637 0
M  V30 4192 C 381.156 -2.03694 -4.80943 0
M  V30 4193 H 382.85 -1.41862 -2.63658 0
M  V30 4194 H 380.396 -0.683571 -1.26741 0
M  V30 4195 H 382.349 0.459985 -4.18882 0
M  V30 4196 H 381.073 1.04711 -3.09359 0
M  V30 4197 H 379.732 -1.04347 -3.51436 0
M  V30 4198 H 379.38 0.986359 -4.93234 0
M  V30 4199 H 379.08 -0.508377 -5.85397 0
M  V30 4200 H 380.604 0.392797 -6.09335 0
M  V30 4201 H 382.018 -1.78504 -5.44802 0
M  V30 4202 H 380.415 -2.57573 -5.42011 0
M  V30 4203 H 381.485 -2.72042 -4.01399 0
M  V30 4204 N 382.828 1.3818 -0.7579 0
M  V30 4205 C 383.738 2.3421 -0.135247 0
M  V30 4206 C 384.754 1.59487 0.695683 0
M  V30 4207 O 385.93 1.91657 0.618832 0
M  V30 4208 C 382.995 3.3862 0.744139 0
M  V30 4209 C 382.056 4.2918 -0.101658 0
M  V30 4210 C 381.289 5.28603 0.735851 0
M  V30 4211 O 381.512 5.35166 1.97366 0
M  V30 4212 O 380.446 6.01707 0.152372 0
M  V30 4213 H 384.272 2.8916 -0.928436 0
M  V30 4214 H 381.857 1.40101 -0.518855 0
M  V30 4215 H 383.739 4.02539 1.2466 0
M  V30 4216 H 382.414 2.86019 1.51575 0
M  V30 4217 H 381.321 3.68407 -0.650167 0
M  V30 4218 H 382.654 4.85048 -0.836024 0
M  V30 4219 N 384.306 0.507319 1.49211 0
M  V30 4220 C 385.236 -0.256939 2.32082 0
M  V30 4221 C 386.217 -0.956609 1.40652 0
M  V30 4222 O 387.402 -0.946788 1.69557 0
M  V30 4223 C 384.532 -1.31802 3.21318 0
M  V30 4224 C 383.486 -0.737855 4.21592 0
M  V30 4225 C 382.812 -1.89992 4.99807 0
M  V30 4226 C 384.112 0.275325 5.21574 0
M  V30 4227 H 385.806 0.434798 2.96226 0
M  V30 4228 H 383.352 0.210546 1.42452 0
M  V30 4229 H 385.305 -1.86045 3.78107 0
M  V30 4230 H 384.029 -2.03903 2.5513 0
M  V30 4231 H 382.688 -0.217126 3.65956 0
M  V30 4232 H 382.336 -2.60877 4.30061 0
M  V30 4233 H 382.036 -1.51777 5.6766 0
M  V30 4234 H 383.56 -2.44657 5.59442 0
M  V30 4235 H 384.974 -0.179193 5.7302 0
M  V30 4236 H 383.371 0.573649 5.97352 0
M  V30 4237 H 384.441 1.18903 4.70096 0
M  V30 4238 N 385.784 -1.5574 0.241426 0
M  V30 4239 C 387.03 -1.99104 -0.385406 0
M  V30 4240 C 387.363 -1.1293 -1.57988 0
M  V30 4241 O 386.638 -0.191449 -1.93555 0
M  V30 4242 C 386.921 -3.51087 -0.800616 0
M  V30 4243 C 386.774 -4.48028 0.398874 0
M  V30 4244 C 388.093 -4.08015 -1.64959 0
M  V30 4245 H 385.212 -0.723848 -0.138614 0
M  V30 4246 H 387.854 -1.86903 0.341642 0
M  V30 4247 H 386.004 -3.61615 -1.4201 0
M  V30 4248 H 387.676 -4.49487 1.03726 0
M  V30 4249 H 385.919 -4.21077 1.04293 0
M  V30 4250 H 386.59 -5.51962 0.0651056 0
M  V30 4251 H 389.066 -4.00555 -1.12672 0
M  V30 4252 H 387.942 -5.14635 -1.90898 0
M  V30 4253 H 388.203 -3.56131 -2.61961 0
M  V30 4254 N 387.262 0.0317525 -1.57568 0
M  V30 4255 C 388.511 0.722131 -1.8833 0
M  V30 4256 C 388.824 1.76664 -0.839587 0
M  V30 4257 O 390.03 2.50942 -1.03635 0
M  V30 4258 C 388.486 1.33544 -3.34207 0
M  V30 4259 C 388.094 0.327415 -4.46802 0
M  V30 4260 C 389.838 2.00585 -3.7412 0
M  V30 4261 C 387.745 0.948915 -5.83738 0
M  V30 4262 H 386.675 0.273466 -0.702661 0
M  V30 4263 H 389.326 -0.0235811 -1.83485 0
M  V30 4264 H 387.708 2.13077 -3.33788 0
M  V30 4265 H 388.882 -0.441006 -4.58685 0
M  V30 4266 H 387.197 -0.240758 -4.15703 0
M  V30 4267 H 389.794 2.47932 -4.73744 0
M  V30 4268 H 390.137 2.82285 -3.05975 0
M  V30 4269 H 390.67 1.27831 -3.76702 0
M  V30 4270 H 387.409 0.171387 -6.55276 0
M  V30 4271 H 386.929 1.68724 -5.7558 0
M  V30 4272 H 388.608 1.45705 -6.3038 0
M  V30 4273 N 388.74 1.54641 0.303973 0
M  V30 4274 C 389.688 1.86137 1.39484 0
M  V30 4275 C 390.682 0.734854 1.52631 0
M  V30 4276 O 391.888 0.918803 1.54784 0
M  V30 4277 H 388.263 0.590324 0.465856 0
M  V30 4278 H 390.234 2.77324 1.10154 0
M  V30 4279 C 388.983 2.12274 2.75382 0
M  V30 4280 H 388.306 2.98429 2.66046 0
M  V30 4281 H 389.746 2.38254 3.5073 0
M  V30 4282 C 388.205 0.920365 3.24085 0
M  V30 4283 O 388.735 0.139377 4.01458 0
M  V30 4284 N 386.941 0.726566 2.81371 0
M  V30 4285 H 386.488 1.36332 2.18567 0
M  V30 4286 H 386.446 -0.0763799 3.14307 0
M  V30 4287 N 390.218 -0.567019 1.47046 0
M  V30 4288 C 391.448 -1.34831 1.56538 0
M  V30 4289 C 391.856 -1.8802 0.21101 0
M  V30 4290 O 391.199 -1.65152 -0.804387 0
M  V30 4291 C 391.261 -2.56139 2.52256 0
M  V30 4292 C 390.925 -2.24307 3.98165 0
M  V30 4293 C 391.922 -1.82192 4.86931 0
M  V30 4294 C 389.607 -2.35968 4.43423 0
M  V30 4295 C 391.601 -1.52153 6.18973 0
M  V30 4296 C 389.288 -2.05542 5.75496 0
M  V30 4297 C 390.286 -1.63701 6.63092 0
M  V30 4298 O 389.974 -1.33657 7.92711 0
M  V30 4299 H 389.706 -0.417683 0.531523 0
M  V30 4300 H 392.26 -0.694726 1.93294 0
M  V30 4301 H 390.49 -3.24356 2.10548 0
M  V30 4302 H 392.179 -3.18214 2.51982 0
M  V30 4303 H 392.945 -1.72684 4.53217 0
M  V30 4304 H 388.824 -2.67495 3.75456 0
M  V30 4305 H 392.368 -1.19421 6.87302 0
M  V30 4306 H 388.265 -2.14679 6.08755 0
M  V30 4307 H 389.033 -1.4737 8.05124 0
M  V30 4308 N 391.696 -1.35014 -0.812953 0
M  V30 4309 C 392.628 -1.23262 -1.93233 0
M  V30 4310 C 393.641 -0.157371 -1.62038 0
M  V30 4311 O 394.83 -0.410096 -1.73725 0
M  V30 4312 C 391.93 -0.87392 -3.27438 0
M  V30 4313 C 391.103 -2.04622 -3.86586 0
M  V30 4314 C 390.162 -1.66432 -4.99186 0
M  V30 4315 O 389.188 -2.38222 -5.16951 0
M  V30 4316 N 390.39 -0.584248 -5.77552 0
M  V30 4317 H 393.155 -2.19699 -2.03844 0
M  V30 4318 H 390.716 -1.281 -0.99005 0
M  V30 4319 H 392.708 -0.600039 -4.00227 0
M  V30 4320 H 391.278 0.00057392 -3.126 0
M  V30 4321 H 390.498 -2.48427 -3.06068 0
M  V30 4322 H 391.786 -2.82999 -4.22835 0
M  V30 4323 H 391.184 0.0123526 -5.65699 0
M  V30 4324 H 389.741 -0.37013 -6.50748 0
M  V30 4325 N 393.175 1.03435 -1.18907 0
M  V30 4326 C 394.107 2.1165 -0.879595 0
M  V30 4327 C 395.12 1.62316 0.125439 0
M  V30 4328 O 396.309 1.78201 -0.103245 0
M  V30 4329 C 393.409 3.37622 -0.294042 0
M  V30 4330 C 392.582 4.16166 -1.34629 0
M  V30 4331 C 391.641 5.20457 -0.775274 0
M  V30 4332 O 390.667 5.50379 -1.4516 0
M  V30 4333 N 391.869 5.78949 0.424126 0
M  V30 4334 H 394.634 2.38791 -1.81105 0
M  V30 4335 H 392.195 1.19681 -1.09032 0
M  V30 4336 H 394.187 4.04572 0.101679 0
M  V30 4337 H 392.757 3.07873 0.541575 0
M  V30 4338 H 391.977 3.44444 -1.91707 0
M  V30 4339 H 393.265 4.65432 -2.05549 0
M  V30 4340 H 392.663 5.56948 0.991209 0
M  V30 4341 H 391.22 6.47334 0.761691 0
M  V30 4342 N 394.653 0.992116 1.22453 0
M  V30 4343 C 395.583 0.561677 2.26644 0
M  V30 4344 C 396.564 -0.411055 1.65059 0
M  V30 4345 O 397.749 -0.301861 1.9184 0
M  V30 4346 C 394.879 -0.125247 3.47074 0
M  V30 4347 C 393.833 0.765948 4.21091 0
M  V30 4348 C 393.159 -0.0538484 5.34673 0
M  V30 4349 C 394.459 2.06242 4.79856 0
M  V30 4350 H 396.153 1.43259 2.62902 0
M  V30 4351 H 393.699 0.690283 1.26377 0
M  V30 4352 H 395.652 -0.437764 4.1912 0
M  V30 4353 H 394.376 -1.03069 3.0991 0
M  V30 4354 H 393.035 1.0621 3.50878 0
M  V30 4355 H 392.683 -0.960188 4.9375 0
M  V30 4356 H 392.383 0.539415 5.85119 0
M  V30 4357 H 393.907 -0.360477 6.09535 0
M  V30 4358 H 395.321 1.8139 5.43848 0
M  V30 4359 H 393.718 2.60444 5.40638 0
M  V30 4360 H 394.788 2.74167 3.99951 0
M  V30 4361 N 396.131 -1.37776 0.765217 0
M  V30 4362 C 397.371 -2.01691 0.331669 0
M  V30 4363 C 397.735 -1.59432 -1.06983 0
M  V30 4364 O 398.936 -2.15761 -1.60314 0
M  V30 4365 C 397.207 -3.54385 0.463261 0
M  V30 4366 S 398.766 -4.38652 0.114011 0
M  V30 4367 H 395.584 -0.699387 0.127979 0
M  V30 4368 H 398.186 -1.68084 0.998396 0
M  V30 4369 H 396.89 -3.82629 1.48401 0
M  V30 4370 H 396.421 -3.92783 -0.220246 0
M  V30 4371 H 398.436 -4.84021 -1.09261 0
M  V30 4372 N 397.609 -0.515225 -1.4894 0
M  V30 4373 C 398.858 0.0261361 -2.01683 0
M  V30 4374 C 399.171 1.36719 -1.39883 0
M  V30 4375 O 400.377 1.99606 -1.84037 0
M  V30 4376 C 398.833 0.0970111 -3.59769 0
M  V30 4377 C 398.441 -1.23825 -4.30548 0
M  V30 4378 C 400.185 0.587981 -4.20408 0
M  V30 4379 C 398.092 -1.12877 -5.80528 0
M  V30 4380 H 397.022 0.0135398 -0.753878 0
M  V30 4381 H 399.673 -0.656787 -1.71343 0
M  V30 4382 H 398.055 0.844694 -3.86886 0
M  V30 4383 H 399.229 -2.00034 -4.15118 0
M  V30 4384 H 397.544 -1.66379 -3.81716 0
M  V30 4385 H 400.141 0.68763 -5.3026 0
M  V30 4386 H 400.484 1.59026 -3.84729 0
M  V30 4387 H 401.017 -0.103582 -3.97665 0
M  V30 4388 H 397.756 -2.10575 -6.20756 0
M  V30 4389 H 397.276 -0.407799 -5.98412 0
M  V30 4390 H 398.955 -0.813332 -6.41868 0
M  V30 4391 N 399.087 1.5561 -0.249682 0
M  V30 4392 C 400.317 2.03116 0.377803 0
M  V30 4393 C 400.725 1.12822 1.51881 0
M  V30 4394 O 400.068 0.13562 1.83199 0
M  V30 4395 C 400.13 3.46866 0.944693 0
M  V30 4396 C 399.794 4.56955 -0.0644259 0
M  V30 4397 C 400.791 5.12485 -0.874957 0
M  V30 4398 C 398.476 5.01936 -0.19132 0
M  V30 4399 C 400.47 6.11491 -1.79881 0
M  V30 4400 C 398.157 6.00773 -1.11868 0
M  V30 4401 C 399.155 6.5543 -1.92095 0
M  V30 4402 O 398.843 7.5234 -2.83267 0
M  V30 4403 H 398.575 0.669489 0.0935961 0
M  V30 4404 H 401.129 2.02004 -0.371966 0
M  V30 4405 H 399.359 3.45136 1.74407 0
M  V30 4406 H 401.048 3.77856 1.48255 0
M  V30 4407 H 401.814 4.78564 -0.787523 0
M  V30 4408 H 397.693 4.59055 0.423072 0
M  V30 4409 H 401.237 6.54078 -2.42543 0
M  V30 4410 H 397.134 6.34114 -1.20703 0
M  V30 4411 H 397.902 7.69966 -2.7766 0
M  V30 4412 N 400.565 -0.0233959 1.57583 0
M  V30 4413 C 401.811 -0.708611 1.90657 0
M  V30 4414 C 402.166 -1.7266 0.848895 0
M  V30 4415 O 401.459 -1.91075 -0.141749 0
M  V30 4416 C 401.653 -1.41428 3.28227 0
M  V30 4417 C 401.482 -0.466155 4.47277 0
M  V30 4418 C 400.252 -0.085117 5.05228 0
M  V30 4419 C 402.45 0.257836 5.13653 0
M  V30 4420 N 400.432 0.863672 6.07794 0
M  V30 4421 C 401.803 1.06209 6.10835 0
M  V30 4422 C 403.858 0.324174 4.96844 0
M  V30 4423 C 402.561 1.9266 6.93018 0
M  V30 4424 C 404.587 1.17583 5.79593 0
M  V30 4425 C 403.949 1.96799 6.7635 0
M  V30 4426 H 400.048 -0.233222 0.746412 0
M  V30 4427 H 402.632 0.0314512 1.94675 0
M  V30 4428 H 400.803 -2.12477 3.25128 0
M  V30 4429 H 402.535 -2.05233 3.488 0
M  V30 4430 H 399.29 -0.448516 4.71471 0
M  V30 4431 H 399.714 1.33274 6.63752 0
M  V30 4432 H 404.356 -0.273975 4.21911 0
M  V30 4433 H 402.074 2.53552 7.67292 0
M  V30 4434 H 405.66 1.23076 5.68633 0
M  V30 4435 H 404.54 2.61635 7.39268 0
M  V30 4436 N 402.043 -1.548 -0.295768 0
M  V30 4437 C 403.271 -1.78327 -1.04914 0
M  V30 4438 C 403.686 -0.545316 -1.80753 0
M  V30 4439 O 403.043 0.485013 -1.75937 0
M  V30 4440 C 403.094 -2.99418 -2.02561 0
M  V30 4441 O 402.815 -4.18431 -1.29798 0
M  V30 4442 C 404.316 -3.35375 -2.89895 0
M  V30 4443 H 401.536 -0.594618 -0.310918 0
M  V30 4444 H 404.08 -2.01763 -0.333454 0
M  V30 4445 H 402.235 -2.78175 -2.69624 0
M  V30 4446 H 402.649 -4.86736 -1.95419 0
M  V30 4447 H 404.123 -4.23332 -3.54251 0
M  V30 4448 H 404.6 -2.53761 -3.58472 0
M  V30 4449 H 405.206 -3.58796 -2.28355 0
M  V30 4450 N 403.521 0.559213 -1.47345 0
M  V30 4451 C 404.468 1.66645 -1.59682 0
M  V30 4452 C 405.438 1.60168 -0.43994 0
M  V30 4453 O 406.623 1.79031 -0.659736 0
M  V30 4454 C 403.763 3.04969 -1.61518 0
M  V30 4455 C 402.876 3.21897 -2.88108 0
M  V30 4456 C 402.011 4.50608 -2.81294 0
M  V30 4457 C 401.05 4.60961 -4.02717 0
M  V30 4458 N 400.187 5.81024 -3.94151 0
M  V30 4459 H 405.027 1.55439 -2.54249 0
M  V30 4460 H 402.564 0.757219 -1.26113 0
M  V30 4461 H 404.522 3.85064 -1.60566 0
M  V30 4462 H 403.152 3.15015 -0.704645 0
M  V30 4463 H 402.204 2.35248 -2.98936 0
M  V30 4464 H 403.516 3.25412 -3.78032 0
M  V30 4465 H 402.67 5.3896 -2.7858 0
M  V30 4466 H 401.409 4.49568 -1.89049 0
M  V30 4467 H 400.414 3.71021 -4.05738 0
M  V30 4468 H 401.639 4.63761 -4.96087 0
M  V30 4469 H 399.585 5.80938 -3.04708 0
M  V30 4470 H 399.502 5.85909 -4.77752 0
M  V30 4471 H 400.77 6.71744 -3.9545 0
M  V30 4472 N 404.999 1.35443 0.805782 0
M  V30 4473 C 406.229 1.31687 1.59192 0
M  V30 4474 C 406.637 -0.10756 1.88894 0
M  V30 4475 O 405.98 -1.07017 1.49309 0
M  V30 4476 C 406.042 2.05686 2.94845 0
M  V30 4477 C 405.706 3.54868 2.87954 0
M  V30 4478 C 406.703 4.49444 2.61335 0
M  V30 4479 C 404.388 3.97528 3.07046 0
M  V30 4480 C 406.382 5.84655 2.53885 0
M  V30 4481 C 404.069 5.32833 2.99219 0
M  V30 4482 C 405.067 6.26209 2.72674 0
M  V30 4483 O 404.755 7.59032 2.64811 0
M  V30 4484 H 404.487 0.453878 0.50097 0
M  V30 4485 H 407.041 1.78892 1.0093 0
M  V30 4486 H 405.271 1.5312 3.55093 0
M  V30 4487 H 406.96 1.94998 3.55993 0
M  V30 4488 H 407.726 4.17804 2.46303 0
M  V30 4489 H 403.605 3.25233 3.26718 0
M  V30 4490 H 407.149 6.57508 2.33086 0
M  V30 4491 H 403.046 5.64087 3.13809 0
M  V30 4492 H 403.814 7.68967 2.80413 0
M  V30 4493 N 406.477 -1.02803 1.19454 0
M  V30 4494 C 407.707 -1.79581 1.02149 0
M  V30 4495 C 408.115 -1.84182 -0.432851 0
M  V30 4496 O 407.458 -1.28534 -1.31243 0
M  V30 4497 C 407.52 -3.25993 1.51554 0
M  V30 4498 C 407.184 -3.45025 2.99678 0
M  V30 4499 C 408.181 -3.35175 3.97434 0
M  V30 4500 C 405.866 -3.71212 3.38389 0
M  V30 4501 C 407.86 -3.51238 5.31893 0
M  V30 4502 C 405.547 -3.8692 4.73008 0
M  V30 4503 C 406.545 -3.76936 5.69569 0
M  V30 4504 O 406.233 -3.92179 7.01748 0
M  V30 4505 H 405.965 -0.571962 0.360327 0
M  V30 4506 H 408.519 -1.30367 1.58725 0
M  V30 4507 H 406.749 -3.76235 0.893543 0
M  V30 4508 H 408.438 -3.84368 1.30444 0
M  V30 4509 H 409.204 -3.14895 3.68872 0
M  V30 4510 H 405.083 -3.78075 2.6378 0
M  V30 4511 H 408.627 -3.43362 6.07247 0
M  V30 4512 H 404.524 -4.06699 5.01265 0
M  V30 4513 H 405.292 -4.09265 7.08833 0
M  V30 4514 N 407.956 -0.998596 -1.21925 0
M  V30 4515 C 409.233 -0.593401 -1.86382 0
M  V30 4516 C 409.613 0.92916 -1.89552 0
M  V30 4517 O 408.961 1.81347 -1.39017 0
M  V30 4518 C 409.171 -1.22039 -3.26967 0
M  V30 4519 C 410.519 -1.32449 -4.03413 0
M  V30 4520 O 411.543 -1.17522 -3.36254 0
M  V30 4521 O 410.402 -1.56395 -5.23644 0
M  V30 4522 H 407.496 -0.202385 -0.801854 0
M  V30 4523 H 410.042 -1.09484 -1.29659 0
M  V30 4524 H 408.814 -2.26158 -3.19325 0
M  V30 4525 H 408.437 -0.704906 -3.91301 0
M  V30 4526 N 409.434 1.37368 -0.772513 0
M  V30 4527 C 410.681 1.99673 -0.337182 0
M  V30 4528 C 411.009 1.61324 1.0865 0
M  V30 4529 O 410.264 0.851377 1.7621 0
M  V30 4530 C 410.563 3.54817 -0.428876 0
M  V30 4531 C 410.229 4.12936 -1.81092 0
M  V30 4532 C 408.891 4.28523 -2.1891 0
M  V30 4533 C 411.243 4.44801 -2.71664 0
M  V30 4534 C 408.571 4.73277 -3.46735 0
M  V30 4535 C 410.923 4.90981 -3.98899 0
M  V30 4536 C 409.587 5.04773 -4.36761 0
M  V30 4537 H 408.857 0.730656 -0.123384 0
M  V30 4538 H 411.504 1.64124 -0.986686 0
M  V30 4539 H 409.809 3.90618 0.304167 0
M  V30 4540 H 411.506 4.00933 -0.0733334 0
M  V30 4541 H 408.096 4.01233 -1.50699 0
M  V30 4542 H 412.28 4.32344 -2.43706 0
M  V30 4543 H 407.536 4.82142 -3.75964 0
M  V30 4544 H 411.71 5.14603 -4.69208 0
M  V30 4545 H 409.337 5.39211 -5.35868 0
M  V30 4546 N 410.912 0.523116 1.48665 0
M  V30 4547 C 411.859 -0.243398 2.29513 0
M  V30 4548 C 412.829 -0.940139 1.36933 0
M  V30 4549 O 414.014 -0.942503 1.65896 0
M  V30 4550 C 411.154 -1.28855 3.20141 0
M  V30 4551 C 410.267 -0.60135 4.27794 0
M  V30 4552 C 409.402 -1.62884 5.05611 0
M  V30 4553 C 408.441 -0.924726 6.05075 0
M  V30 4554 N 407.578 -1.89744 6.75975 0
M  V30 4555 H 412.418 0.452234 2.94549 0
M  V30 4556 H 409.955 0.234858 1.45213 0
M  V30 4557 H 411.913 -1.90674 3.71079 0
M  V30 4558 H 410.543 -1.95266 2.57043 0
M  V30 4559 H 409.595 0.130623 3.80176 0
M  V30 4560 H 410.907 -0.0481585 4.98777 0
M  V30 4561 H 410.061 -2.32149 5.60528 0
M  V30 4562 H 408.8 -2.21592 4.34452 0
M  V30 4563 H 407.805 -0.217966 5.49368 0
M  V30 4564 H 409.03 -0.343851 6.78229 0
M  V30 4565 H 406.976 -2.47373 6.07571 0
M  V30 4566 H 406.893 -1.3955 7.43009 0
M  V30 4567 H 408.161 -2.58229 7.35485 0
M  V30 4568 N 412.39 -1.55475 0.257931 0
M  V30 4569 C 413.338 -2.23244 -0.653076 0
M  V30 4570 C 414.332 -1.22366 -1.17144 0
M  V30 4571 O 415.538 -1.40347 -1.12706 0
M  V30 4572 H 411.913 -0.716247 -0.229117 0
M  V30 4573 H 413.884 -2.98343 -0.0584788 0
M  V30 4574 C 412.633 -2.95401 -1.83395 0
M  V30 4575 H 411.956 -3.72802 -1.44424 0
M  V30 4576 H 413.396 -3.46165 -2.44838 0
M  V30 4577 C 411.855 -1.99895 -2.71189 0
M  V30 4578 O 412.385 -1.53909 -3.71046 0
M  V30 4579 N 410.591 -1.6676 -2.3799 0
M  V30 4580 H 410.138 -2.04352 -1.56837 0
M  V30 4581 H 410.096 -1.03127 -2.97005 0
M  V30 4582 N 413.868 0.0150385 -1.57593 0
M  V30 4583 C 415.279 0.559832 -1.78109 0
M  V30 4584 C 415.63 1.74814 -0.890756 0
M  V30 4585 O 414.755 2.16216 -0.0892482 0
M  V30 4586 C 415.35 1.02238 -3.23006 0
M  V30 4587 C 413.909 1.51258 -3.44671 0
M  V30 4588 C 413.056 0.456955 -2.73509 0
M  V30 4589 H 416.007 -0.211169 -1.57289 0
M  V30 4590 H 416.028 1.88912 -3.30292 0
M  V30 4591 H 415.54 0.157302 -3.87781 0
M  V30 4592 H 413.641 2.39905 -2.8509 0
M  V30 4593 H 413.754 1.55042 -4.5332 0
M  V30 4594 H 412.118 0.915196 -2.37689 0
M  V30 4595 H 412.901 -0.398896 -3.40975 0
M  V30 4596 N 415.346 1.54954 0.287554 0
M  V30 4597 C 416.595 1.74081 1.01877 0
M  V30 4598 C 416.908 0.541135 1.87966 0
M  V30 4599 O 418.114 0.614491 2.64455 0
M  V30 4600 C 416.57 3.08042 1.86113 0
M  V30 4601 C 416.178 4.35531 1.04961 0
M  V30 4602 C 417.922 3.36523 2.58752 0
M  V30 4603 C 415.829 5.60538 1.88551 0
M  V30 4604 H 414.759 0.64884 0.384087 0
M  V30 4605 H 417.41 1.81426 0.275101 0
M  V30 4606 H 415.792 2.94696 2.64519 0
M  V30 4607 H 416.966 4.59751 0.31074 0
M  V30 4608 H 415.281 4.14085 0.43843 0
M  V30 4609 H 417.878 4.27122 3.21668 0
M  V30 4610 H 418.221 2.56 3.28283 0
M  V30 4611 H 418.754 3.50901 1.87386 0
M  V30 4612 H 415.493 6.43767 1.23466 0
M  V30 4613 H 415.013 5.40483 2.60074 0
M  V30 4614 H 416.692 5.98297 2.46273 0
M  V30 4615 N 416.824 -0.551391 1.4764 0
M  V30 4616 C 418.073 -1.30467 1.53822 0
M  V30 4617 C 418.386 -1.94495 0.207661 0
M  V30 4618 O 419.592 -2.71099 0.147533 0
M  V30 4619 C 418.048 -2.36616 2.71184 0
M  V30 4620 C 417.656 -1.78754 4.10793 0
M  V30 4621 C 419.4 -3.13088 2.86663 0
M  V30 4622 C 417.307 -2.82717 5.19447 0
M  V30 4623 H 416.237 -0.490584 0.572576 0
M  V30 4624 H 418.888 -0.58494 1.73927 0
M  V30 4625 H 417.27 -3.11529 2.4447 0
M  V30 4626 H 418.444 -1.10173 4.47435 0
M  V30 4627 H 416.759 -1.14846 4.00249 0
M  V30 4628 H 419.356 -3.90736 3.65007 0
M  V30 4629 H 419.699 -3.67635 1.95321 0
M  V30 4630 H 420.232 -2.45288 3.13175 0
M  V30 4631 H 416.971 -2.33018 6.12685 0
M  V30 4632 H 416.491 -3.4969 4.87316 0
M  V30 4633 H 418.17 -3.46102 5.46646 0
M  V30 4634 N 418.302 -1.35869 -0.798587 0
M  V30 4635 C 419.212 -1.31578 -1.94228 0
M  V30 4636 C 420.228 -0.21939 -1.72611 0
M  V30 4637 O 421.404 -0.450167 -1.96305 0
M  V30 4638 C 418.469 -1.09528 -3.28944 0
M  V30 4639 C 417.53 -2.28556 -3.63402 0
M  V30 4640 C 416.763 -2.07549 -4.9169 0
M  V30 4641 O 416.986 -1.046 -5.60727 0
M  V30 4642 O 415.92 -2.95106 -5.24591 0
M  V30 4643 H 419.746 -2.27847 -2.00796 0
M  V30 4644 H 417.331 -1.16322 -0.937526 0
M  V30 4645 H 419.213 -0.991127 -4.09579 0
M  V30 4646 H 417.888 -0.16315 -3.23289 0
M  V30 4647 H 416.795 -2.44538 -2.83112 0
M  V30 4648 H 418.128 -3.20244 -3.73771 0
M  V30 4649 N 419.78 1.02168 -1.19998 0
M  V30 4650 C 420.727 2.10601 -0.944228 0
M  V30 4651 C 421.697 1.65639 0.123664 0
M  V30 4652 O 422.882 1.9079 -0.0199941 0
M  V30 4653 C 420.022 3.41504 -0.496865 0
M  V30 4654 C 419.135 3.99973 -1.63234 0
M  V30 4655 C 418.27 5.18915 -1.13579 0
M  V30 4656 C 417.309 5.69456 -2.24468 0
M  V30 4657 N 416.446 6.79665 -1.76068 0
M  V30 4658 H 421.286 2.31814 -1.8726 0
M  V30 4659 H 418.823 1.13686 -0.933483 0
M  V30 4660 H 420.781 4.16626 -0.218843 0
M  V30 4661 H 419.411 3.2038 0.394508 0
M  V30 4662 H 418.463 3.21997 -2.0254 0
M  V30 4663 H 419.775 4.33492 -2.46752 0
M  V30 4664 H 418.929 6.01222 -0.813429 0
M  V30 4665 H 417.668 4.8695 -0.270434 0
M  V30 4666 H 416.673 4.85757 -2.57526 0
M  V30 4667 H 417.898 6.03459 -3.11472 0
M  V30 4668 H 415.844 6.49538 -0.918516 0
M  V30 4669 H 415.761 7.12349 -2.5317 0
M  V30 4670 H 417.029 7.65549 -1.46817 0
M  V30 4671 N 421.258 1.00505 1.21394 0
M  V30 4672 C 422.488 0.705584 1.94178 0
M  V30 4673 C 422.896 -0.735846 1.74304 0
M  V30 4674 O 422.239 -1.50954 1.04683 0
M  V30 4675 C 422.301 0.94689 3.46806 0
M  V30 4676 C 421.965 2.37517 3.90429 0
M  V30 4677 C 422.962 3.35539 3.97127 0
M  V30 4678 C 420.647 2.71284 4.22742 0
M  V30 4679 C 422.641 4.65395 4.3553 0
M  V30 4680 C 420.328 4.01356 4.60822 0
M  V30 4681 C 421.326 4.98223 4.67186 0
M  V30 4682 O 421.014 6.25969 5.04399 0
M  V30 4683 H 420.746 0.259216 0.624326 0
M  V30 4684 H 423.3 1.34592 1.55159 0
M  V30 4685 H 421.53 0.249386 3.85895 0
M  V30 4686 H 423.219 0.640804 4.0081 0
M  V30 4687 H 423.985 3.10786 3.7234 0
M  V30 4688 H 419.864 1.96581 4.16985 0
M  V30 4689 H 423.408 5.41002 4.40412 0
M  V30 4690 H 419.305 4.25893 4.85063 0
M  V30 4691 H 420.073 6.30085 5.22431 0
M  V30 4692 N 422.737 -1.36956 0.779787 0
M  V30 4693 C 423.667 -2.32761 0.185651 0
M  V30 4694 C 424.648 -1.56177 -0.673989 0
M  V30 4695 O 425.833 -1.84378 -0.609797 0
M  V30 4696 C 422.963 -3.40418 -0.687964 0
M  V30 4697 C 421.917 -4.27941 0.0710102 0
M  V30 4698 C 421.243 -5.26681 -0.922573 0
M  V30 4699 C 422.543 -5.07006 1.25467 0
M  V30 4700 H 424.237 -2.82698 0.986008 0
M  V30 4701 H 421.783 -1.3592 0.475592 0
M  V30 4702 H 423.736 -4.06423 -1.11348 0
M  V30 4703 H 422.46 -2.89025 -1.52093 0
M  V30 4704 H 421.119 -3.63478 0.47739 0
M  V30 4705 H 420.767 -4.71565 -1.7503 0
M  V30 4706 H 420.467 -5.86103 -0.419237 0
M  V30 4707 H 421.991 -5.9556 -1.34686 0
M  V30 4708 H 423.405 -5.66105 0.905401 0
M  V30 4709 H 421.802 -5.75793 1.69063 0
M  V30 4710 H 422.872 -4.3921 2.05481 0
M  V30 4711 N 424.215 -0.530993 -1.48385 0
M  V30 4712 C 425.631 -0.188919 -1.58478 0
M  V30 4713 C 425.831 1.30786 -1.53288 0
M  V30 4714 O 424.887 2.08619 -1.42248 0
M  V30 4715 C 426.2 -0.792343 -2.90073 0
M  V30 4716 C 427.748 -0.76117 -3.03604 0
M  V30 4717 C 428.223 -1.34319 -4.37861 0
M  V30 4718 N 429.714 -1.3052 -4.44431 0
M  V30 4719 C 430.449 -1.72543 -5.46824 0
M  V30 4720 N 429.945 -2.22299 -6.56167 0
M  V30 4721 N 431.738 -1.63773 -5.37712 0
M  V30 4722 H 423.889 -1.50377 -1.50002 0
M  V30 4723 H 426.152 -0.625559 -0.712306 0
M  V30 4724 H 425.858 -1.84323 -2.99529 0
M  V30 4725 H 425.732 -0.270026 -3.76232 0
M  V30 4726 H 428.119 0.280957 -2.93759 0
M  V30 4727 H 428.2 -1.32097 -2.19053 0
M  V30 4728 H 427.844 -2.38425 -4.4846 0
M  V30 4729 H 427.774 -0.759064 -5.21101 0
M  V30 4730 H 430.265 -0.940973 -3.65997 0
M  V30 4731 H 430.578 -2.52356 -7.30436 0
M  V30 4732 H 428.923 -2.26293 -6.57127 0
M  V30 4733 H 432.114 -1.24698 -4.51185 0
M  V30 4734 H 432.287 -1.96844 -6.17379 0
M  V30 4735 N 425.693 1.55336 -0.266172 0
M  V30 4736 C 427.109 1.59356 0.0882065 0
M  V30 4737 C 427.309 1.2834 1.55342 0
M  V30 4738 O 426.365 1.03996 2.30089 0
M  V30 4739 C 427.678 2.99409 -0.278364 0
M  V30 4740 C 429.226 3.12196 -0.224243 0
M  V30 4741 C 429.701 4.545 -0.565123 0
M  V30 4742 N 431.192 4.60313 -0.51634 0
M  V30 4743 C 431.927 5.68434 -0.753013 0
M  V30 4744 N 431.423 6.84738 -1.05383 0
M  V30 4745 N 433.216 5.57942 -0.682414 0
M  V30 4746 H 425.367 1.73764 -1.22147 0
M  V30 4747 H 427.63 0.809822 -0.492841 0
M  V30 4748 H 427.336 3.2691 -1.29703 0
M  V30 4749 H 427.21 3.75228 0.385186 0
M  V30 4750 H 429.597 2.84464 0.78512 0
M  V30 4751 H 429.678 2.38609 -0.921922 0
M  V30 4752 H 429.322 4.82956 -1.57213 0
M  V30 4753 H 429.252 5.26374 0.154248 0
M  V30 4754 H 431.743 3.7676 -0.29335 0
M  V30 4755 H 432.056 7.63088 -1.22133 0
M  V30 4756 H 430.401 6.86375 -1.09151 0
M  V30 4757 H 433.592 4.65958 -0.44731 0
M  V30 4758 H 433.765 6.4213 -0.870248 0
M  V30 4759 N 427.171 -0.0066808 1.57599 0
M  V30 4760 C 428.103 -1.02827 2.04839 0
M  V30 4761 C 429.116 -1.31108 0.965113 0
M  V30 4762 O 430.305 -1.28202 1.24203 0
M  V30 4763 C 427.405 -2.36464 2.42771 0
M  V30 4764 C 426.578 -2.27219 3.73751 0
M  V30 4765 C 425.637 -3.43489 3.98625 0
M  V30 4766 O 424.663 -3.21976 4.69382 0
M  V30 4767 N 425.865 -4.66116 3.46 0
M  V30 4768 H 428.63 -0.625455 2.93101 0
M  V30 4769 H 426.191 -0.194198 1.60731 0
M  V30 4770 H 428.183 -3.13008 2.56531 0
M  V30 4771 H 426.753 -2.68512 1.60063 0
M  V30 4772 H 425.973 -1.35629 3.70133 0
M  V30 4773 H 427.261 -2.18208 4.59633 0
M  V30 4774 H 426.659 -4.86493 2.88688 0
M  V30 4775 H 425.216 -5.39949 3.65101 0
M  V30 4776 N 428.649 -1.55105 -0.279332 0
M  V30 4777 C 429.579 -1.90557 -1.34945 0
M  V30 4778 C 430.56 -0.766738 -1.51839 0
M  V30 4779 O 431.745 -1.02434 -1.64988 0
M  V30 4780 C 428.875 -2.17193 -2.71006 0
M  V30 4781 C 427.829 -3.33021 -2.68851 0
M  V30 4782 C 427.155 -3.45123 -4.08405 0
M  V30 4783 C 428.455 -4.69578 -2.28678 0
M  V30 4784 H 430.149 -2.80188 -1.05522 0
M  V30 4785 H 427.695 -1.34811 -0.506173 0
M  V30 4786 H 429.648 -2.40581 -3.45975 0
M  V30 4787 H 428.372 -1.24355 -3.01999 0
M  V30 4788 H 427.031 -3.0959 -1.9634 0
M  V30 4789 H 426.679 -2.49762 -4.3661 0
M  V30 4790 H 426.379 -4.22995 -4.07859 0
M  V30 4791 H 427.903 -3.70796 -4.85121 0
M  V30 4792 H 429.317 -4.92553 -2.93368 0
M  V30 4793 H 427.714 -5.5032 -2.39306 0
M  V30 4794 H 428.784 -4.68828 -1.23807 0
M  V30 4795 N 430.127 0.543554 -1.4793 0
M  V30 4796 C 431.355 1.32516 -1.58894 0
M  V30 4797 C 431.77 1.87215 -0.244131 0
M  V30 4798 O 431.127 1.65709 0.764652 0
M  V30 4799 C 431.178 2.48554 -2.62494 0
M  V30 4800 O 430.899 1.96112 -3.91755 0
M  V30 4801 C 432.4 3.40572 -2.8377 0
M  V30 4802 H 429.62 0.403472 -0.536145 0
M  V30 4803 H 432.164 0.657106 -1.93655 0
M  V30 4804 H 430.319 3.1127 -2.30629 0
M  V30 4805 H 430.733 2.71967 -4.4848 0
M  V30 4806 H 432.207 4.18375 -3.60093 0
M  V30 4807 H 432.684 3.94965 -1.92092 0
M  V30 4808 H 433.29 2.8366 -3.16887 0
M  V30 4809 N 431.605 1.3629 0.791371 0
M  V30 4810 C 432.552 1.30458 1.90393 0
M  V30 4811 C 433.522 0.173632 1.6519 0
M  V30 4812 O 434.707 0.35983 1.87376 0
M  V30 4813 C 431.847 1.09777 3.27174 0
M  V30 4814 C 430.96 2.31929 3.64462 0
M  V30 4815 C 430.095 2.04276 4.90352 0
M  V30 4816 C 429.134 3.224 5.20312 0
M  V30 4817 N 428.271 2.94424 6.37385 0
M  V30 4818 H 433.111 2.25589 1.94714 0
M  V30 4819 H 430.648 1.12122 0.952216 0
M  V30 4820 H 432.606 0.958133 4.06049 0
M  V30 4821 H 431.236 0.183014 3.22281 0
M  V30 4822 H 430.288 2.56703 2.80727 0
M  V30 4823 H 431.6 3.20085 3.82553 0
M  V30 4824 H 430.754 1.87231 5.77087 0
M  V30 4825 H 429.493 1.13428 4.74326 0
M  V30 4826 H 428.498 3.40005 4.32061 0
M  V30 4827 H 429.723 4.14071 5.38258 0
M  V30 4828 H 427.669 2.06185 6.22755 0
M  V30 4829 H 427.586 3.76118 6.55798 0
M  V30 4830 H 428.854 2.80953 7.27108 0
M  V30 4831 N 433.083 -1.0153 1.20538 0
M  V30 4832 C 434.494 -1.56598 1.01657 0
M  V30 4833 C 434.845 -1.91505 -0.426668 0
M  V30 4834 O 433.97 -1.72375 -1.30827 0
M  V30 4835 C 434.565 -2.84542 1.83905 0
M  V30 4836 C 433.124 -3.36133 1.69386 0
M  V30 4837 C 432.271 -2.09427 1.81757 0
M  V30 4838 H 435.222 -0.838974 1.34711 0
M  V30 4839 H 435.243 -3.56004 1.34319 0
M  V30 4840 H 434.755 -2.59105 2.8894 0
M  V30 4841 H 432.856 -3.66528 0.669933 0
M  V30 4842 H 432.969 -4.08248 2.50739 0
M  V30 4843 H 431.333 -2.21941 1.24957 0
M  V30 4844 H 432.116 -1.86414 2.88279 0
M  V30 4845 N 434.561 -1.01147 -1.20859 0
M  V30 4846 C 435.977 -0.725422 -1.42161 0
M  V30 4847 C 436.177 0.696919 -1.89064 0
M  V30 4848 O 435.233 1.46539 -2.05627 0
M  V30 4849 C 436.546 -1.74678 -2.44761 0
M  V30 4850 C 438.094 -1.76433 -2.58535 0
M  V30 4851 C 438.569 -2.77481 -3.64374 0
M  V30 4852 N 440.06 -2.76189 -3.71852 0
M  V30 4853 C 440.795 -3.51035 -4.53389 0
M  V30 4854 N 440.291 -4.35541 -5.38773 0
M  V30 4855 N 442.084 -3.39655 -4.47873 0
M  V30 4856 H 434.235 -1.92979 -0.887282 0
M  V30 4857 H 436.498 -0.833327 -0.451962 0
M  V30 4858 H 436.204 -2.76551 -2.17285 0
M  V30 4859 H 436.078 -1.55472 -3.43669 0
M  V30 4860 H 438.465 -0.75248 -2.85345 0
M  V30 4861 H 438.546 -1.99712 -1.5984 0
M  V30 4862 H 438.19 -3.78827 -3.38308 0
M  V30 4863 H 438.12 -2.51466 -4.6268 0
M  V30 4864 H 440.611 -2.14885 -3.10858 0
M  V30 4865 H 440.924 -4.89432 -5.98061 0
M  V30 4866 H 439.269 -4.39621 -5.38292 0
M  V30 4867 H 442.46 -2.73063 -3.80203 0
M  V30 4868 H 442.633 -3.9824 -5.11184 0
M  V30 4869 N 436.039 1.36541 -0.78704 0
M  V30 4870 C 437.45 1.81873 -0.421807 0
M  V30 4871 C 437.801 1.65487 1.05397 0
M  V30 4872 O 436.926 1.17448 1.81755 0
M  V30 4873 C 437.521 3.30192 -0.758841 0
M  V30 4874 C 436.08 3.73743 -0.446468 0
M  V30 4875 C 435.227 2.58844 -0.994728 0
M  V30 4876 H 438.178 1.24796 -0.98039 0
M  V30 4877 H 438.199 3.80468 -0.0490648 0
M  V30 4878 H 437.711 3.42087 -1.83299 0
M  V30 4879 H 435.812 3.6741 0.619739 0
M  V30 4880 H 435.925 4.69272 -0.965415 0
M  V30 4881 H 434.289 2.51245 -0.418087 0
M  V30 4882 H 435.072 2.73525 -2.07458 0
M  V30 4883 N 437.518 0.538854 1.48102 0
M  V30 4884 C 438.764 0.00801365 2.02798 0
M  V30 4885 C 439.097 -1.3309 1.41424 0
M  V30 4886 O 438.372 -1.86169 0.563158 0
M  V30 4887 C 438.655 -0.104589 3.59948 0
M  V30 4888 C 438.508 1.26012 4.31788 0
M  V30 4889 C 439.827 -0.827055 4.32259 0
M  V30 4890 H 436.946 0.00438624 0.736987 0
M  V30 4891 H 439.588 0.6976 1.7673 0
M  V30 4892 H 437.738 -0.691893 3.82289 0
M  V30 4893 H 439.41 1.88922 4.2084 0
M  V30 4894 H 437.653 1.83968 3.92859 0
M  V30 4895 H 438.324 1.13424 5.40221 0
M  V30 4896 H 440.8 -0.328578 4.14801 0
M  V30 4897 H 439.676 -0.87476 5.41885 0
M  V30 4898 H 439.937 -1.87927 4.0017 0
M  V30 4899 N 438.996 -1.55193 0.274407 0
M  V30 4900 C 440.245 -1.98758 -0.343213 0
M  V30 4901 C 440.558 -1.16624 -1.5703 0
M  V30 4902 O 441.764 -1.5033 -2.26082 0
M  V30 4903 C 440.22 -3.53759 -0.661996 0
M  V30 4904 C 439.828 -4.4467 0.54524 0
M  V30 4905 C 441.572 -4.05916 -1.24228 0
M  V30 4906 C 439.479 -5.91058 0.201084 0
M  V30 4907 H 438.409 -0.742353 -0.132014 0
M  V30 4908 H 441.06 -1.79545 0.378948 0
M  V30 4909 H 439.442 -3.68772 -1.44304 0
M  V30 4910 H 440.616 -4.41426 1.32212 0
M  V30 4911 H 438.931 -4.03143 1.04232 0
M  V30 4912 H 441.528 -5.12831 -1.51357 0
M  V30 4913 H 441.871 -3.54908 -2.17592 0
M  V30 4914 H 442.404 -3.9434 -0.523542 0
M  V30 4915 H 439.143 -6.46161 1.10258 0
M  V30 4916 H 438.663 -5.97373 -0.539045 0
M  V30 4917 H 440.342 -6.46669 -0.206954 0
M  V30 4918 N 440.474 -0.00167713 -1.576 0
M  V30 4919 C 441.404 0.988091 -2.11563 0
M  V30 4920 C 442.385 1.35736 -1.02517 0
M  V30 4921 O 443.57 1.44082 -1.30208 0
M  V30 4922 C 440.7 2.27941 -2.62031 0
M  V30 4923 C 439.654 2.0517 -3.75619 0
M  V30 4924 C 438.98 3.4033 -4.12407 0
M  V30 4925 C 440.28 1.41294 -5.02825 0
M  V30 4926 H 441.974 0.538771 -2.94513 0
M  V30 4927 H 439.52 0.257712 -1.41675 0
M  V30 4928 H 441.473 2.97539 -2.9841 0
M  V30 4929 H 440.197 2.74989 -1.76205 0
M  V30 4930 H 438.856 1.37998 -3.39635 0
M  V30 4931 H 438.504 3.85085 -3.23603 0
M  V30 4932 H 438.204 3.25909 -4.88935 0
M  V30 4933 H 439.728 4.1124 -4.51347 0
M  V30 4934 H 441.142 2.00851 -5.36965 0
M  V30 4935 H 439.539 1.37356 -5.84169 0
M  V30 4936 H 440.609 0.382362 -4.8339 0
M  V30 4937 N 441.952 1.55251 0.271103 0
M  V30 4938 C 443.229 1.66664 1.02384 0
M  V30 4939 C 443.609 0.534363 2.04225 0
M  V30 4940 O 442.957 -0.465337 2.23712 0
M  V30 4941 C 443.167 3.05961 1.67895 0
M  V30 4942 C 444.515 3.63772 2.18986 0
M  V30 4943 O 445.539 3.08606 1.77878 0
M  V30 4944 O 444.398 4.60429 2.94393 0
M  V30 4945 H 441.492 0.676957 0.475035 0
M  V30 4946 H 444.038 1.67589 0.26681 0
M  V30 4947 H 442.81 3.79815 0.941071 0
M  V30 4948 H 442.433 3.08943 2.5028 0
M  V30 4949 N 443.43 -0.535701 1.48216 0
M  V30 4950 C 444.841 -1.11769 1.49548 0
M  V30 4951 C 445.192 -1.94442 0.26207 0
M  V30 4952 O 444.317 -2.06987 -0.631287 0
M  V30 4953 C 444.912 -2.03367 2.70975 0
M  V30 4954 C 443.471 -2.56795 2.75196 0
M  V30 4955 C 442.618 -1.33631 2.42977 0
M  V30 4956 H 445.569 -0.321232 1.55415 0
M  V30 4957 H 445.59 -2.87569 2.49167 0
M  V30 4958 H 445.102 -1.43169 3.60727 0
M  V30 4959 H 443.203 -3.20731 1.89638 0
M  V30 4960 H 443.316 -2.9632 3.76472 0
M  V30 4961 H 441.68 -1.6502 1.94012 0
M  V30 4962 H 442.463 -0.75194 3.34964 0
M  V30 4963 N 444.908 -1.36708 -0.784132 0
M  V30 4964 C 445.871 -1.31307 -1.87859 0
M  V30 4965 C 446.871 -0.219654 -1.59293 0
M  V30 4966 O 448.061 -0.47476 -1.67606 0
M  V30 4967 C 445.193 -1.03679 -3.24751 0
M  V30 4968 H 446.386 -2.28647 -1.94064 0
M  V30 4969 H 443.939 -1.21558 -0.98252 0
M  V30 4970 H 444.674 -0.0681936 -3.24228 0
M  V30 4971 H 444.459 -1.82811 -3.46876 0
M  V30 4972 H 445.949 -1.02518 -4.04821 0
M  V30 4973 N 446.386 1.0089 -1.21074 0
M  V30 4974 C 447.663 1.71834 -0.934469 0
M  V30 4975 C 448.043 2.0368 0.554753 0
M  V30 4976 O 447.391 1.70742 1.51854 0
M  V30 4977 C 447.601 2.98061 -1.8155 0
M  V30 4978 C 448.949 3.7117 -2.06199 0
M  V30 4979 O 449.973 3.08034 -1.78867 0
M  V30 4980 O 448.832 4.84721 -2.52404 0
M  V30 4981 H 445.926 0.749253 -0.35007 0
M  V30 4982 H 448.472 1.06668 -1.31985 0
M  V30 4983 H 447.244 2.70908 -2.82355 0
M  V30 4984 H 446.867 3.70968 -1.43068 0
M  V30 4985 N 447.864 1.01787 1.20321 0
M  V30 4986 C 449.275 0.739307 1.71438 0
M  V30 4987 C 449.626 -0.742041 1.81627 0
M  V30 4988 O 448.751 -1.57903 1.47971 0
M  V30 4989 C 449.346 1.33538 3.11373 0
M  V30 4990 C 447.905 1.10566 3.59795 0
M  V30 4991 C 447.052 1.44028 2.36962 0
M  V30 4992 H 450.003 1.18718 1.05317 0
M  V30 4993 H 450.024 0.726611 3.73498 0
M  V30 4994 H 449.536 2.41352 3.03926 0
M  V30 4995 H 447.637 0.0452405 3.72573 0
M  V30 4996 H 447.75 1.78661 4.44542 0
M  V30 4997 H 446.114 0.85933 2.39766 0
M  V30 4998 H 446.897 2.52901 2.32155 0
M  V30 4999 N 449.342 -1.36122 0.79427 0
M  V30 5000 C 450.57 -2.03362 0.380989 0
M  V30 5001 C 450.985 -1.59881 -1.00416 0
M  V30 5002 O 450.342 -0.790515 -1.6449 0
M  V30 5003 C 450.393 -3.58804 0.440649 0
M  V30 5004 O 450.114 -4.007 1.77118 0
M  V30 5005 C 451.615 -4.43296 0.0186117 0
M  V30 5006 H 448.835 -0.652526 0.156367 0
M  V30 5007 H 451.379 -1.73998 1.07447 0
M  V30 5008 H 449.534 -3.8686 -0.204458 0
M  V30 5009 H 449.948 -4.95309 1.72538 0
M  V30 5010 H 451.422 -5.51887 0.111488 0
M  V30 5011 H 451.899 -4.2684 -1.03461 0
M  V30 5012 H 452.505 -4.20512 0.636395 0
M  V30 5013 N 450.82 -0.546701 -1.47814 0
M  V30 5014 C 452.068 -0.0187037 -2.02091 0
M  V30 5015 C 452.389 1.33168 -1.42447 0
M  V30 5016 O 451.659 1.86619 -0.595839 0
M  V30 5017 H 450.239 -0.00392531 -0.74699 0
M  V30 5018 H 452.901 -0.714327 -1.81338 0
M  V30 5019 H 451.997 0.0772219 -3.12004 0
M  V30 5020 N 452.299 1.55045 -0.282633 0
M  V30 5021 C 453.247 2.24254 0.617478 0
M  V30 5022 C 454.241 1.24215 1.15183 0
M  V30 5023 O 455.447 1.42123 1.10459 0
M  V30 5024 H 451.822 0.719801 0.217693 0
M  V30 5025 H 453.793 2.98398 0.0110076 0
M  V30 5026 C 452.542 2.98281 1.78672 0
M  V30 5027 H 451.865 3.75053 1.38475 0
M  V30 5028 H 453.305 3.50017 2.393 0
M  V30 5029 C 451.764 2.04184 2.67975 0
M  V30 5030 O 452.294 1.59792 3.6855 0
M  V30 5031 N 450.5 1.70526 2.35307 0
M  V30 5032 H 450.047 2.06821 1.53567 0
M  V30 5033 H 450.005 1.07839 2.95327 0
M  V30 5034 N 453.777 0.010035 1.57597 0
M  V30 5035 C 454.707 -0.976857 2.12084 0
M  V30 5036 C 455.688 -1.35191 1.03235 0
M  V30 5037 O 456.873 -1.43389 1.3097 0
M  V30 5038 C 454.003 -2.26548 2.63236 0
M  V30 5039 C 452.957 -2.03175 3.76701 0
M  V30 5040 C 452.283 -3.38138 4.14206 0
M  V30 5041 C 453.583 -1.38625 5.03568 0
M  V30 5042 H 455.277 -0.523145 2.94794 0
M  V30 5043 H 452.823 -0.250195 1.4181 0
M  V30 5044 H 454.776 -2.95952 2.99984 0
M  V30 5045 H 453.5 -2.74051 1.77661 0
M  V30 5046 H 452.159 -1.36195 3.40362 0
M  V30 5047 H 451.807 -3.83363 3.25641 0
M  V30 5048 H 451.507 -3.23312 4.90656 0
M  V30 5049 H 453.031 -4.08841 4.53521 0
M  V30 5050 H 454.445 -1.98 5.38023 0
M  V30 5051 H 452.842 -1.34256 5.84889 0
M  V30 5052 H 453.912 -0.356722 4.83586 0
M  V30 5053 N 455.255 -1.55392 -0.262866 0
M  V30 5054 C 456.503 -1.76127 -0.991147 0
M  V30 5055 C 456.824 -0.571083 -1.8645 0
M  V30 5056 O 456.094 0.413698 -1.91482 0
M  V30 5057 H 454.674 -0.649528 -0.368948 0
M  V30 5058 H 457.336 -1.9281 -0.284655 0
M  V30 5059 H 456.432 -2.6663 -1.62219 0
M  V30 5060 N 456.733 0.527833 -1.48498 0
M  V30 5061 C 457.981 1.28101 -1.56316 0
M  V30 5062 C 458.302 1.9352 -0.239781 0
M  V30 5063 O 457.572 1.81433 0.738849 0
M  V30 5064 H 456.152 0.475793 -0.575873 0
M  V30 5065 H 458.814 0.614052 -1.84974 0
M  V30 5066 H 457.91 2.05916 -2.34532 0
M  V30 5067 N 458.211 1.37122 0.776871 0
M  V30 5068 C 459.459 1.31787 1.53221 0
M  V30 5069 C 459.78 -0.0987589 1.9475 0
M  V30 5070 O 459.05 -1.0417 1.65908 0
M  V30 5071 H 457.63 0.484839 0.568278 0
M  V30 5072 H 460.292 1.71556 0.924917 0
M  V30 5073 H 459.388 1.95355 2.43398 0
M  V30 5074 N 459.689 -1.00246 1.21608 0
M  V30 5075 C 460.966 -1.71336 0.943568 0
M  V30 5076 C 461.346 -2.03972 -0.543943 0
M  V30 5077 O 460.694 -1.71545 -1.50946 0
M  V30 5078 C 460.904 -2.97094 1.83128 0
M  V30 5079 C 462.252 -3.70071 2.08165 0
M  V30 5080 O 463.276 -3.07081 1.80498 0
M  V30 5081 O 462.135 -4.83376 2.54971 0
M  V30 5082 H 459.229 -0.747386 0.354039 0
M  V30 5083 H 461.775 -1.05967 1.32549 0
M  V30 5084 H 460.547 -2.69407 2.83788 0
M  V30 5085 H 460.17 -3.70204 1.45034 0
M  V30 5086 N 461.167 -1.02423 -1.1978 0
M  V30 5087 C 462.578 -0.748389 -1.71044 0
M  V30 5088 C 462.929 0.732398 -1.82017 0
M  V30 5089 O 462.054 1.57116 -1.48807 0
M  V30 5090 C 462.649 -1.35187 -3.1066 0
M  V30 5091 C 461.208 -1.12472 -3.59203 0
M  V30 5092 C 460.355 -1.45283 -2.36195 0
M  V30 5093 H 463.306 -1.19275 -1.04686 0
M  V30 5094 H 463.327 -0.746408 -3.73107 0
M  V30 5095 H 462.839 -2.4296 -3.02642 0
M  V30 5096 H 460.94 -0.0649983 -3.72543 0
M  V30 5097 H 461.053 -1.81016 -4.43588 0
M  V30 5098 H 459.417 -0.872034 -2.39307 0
M  V30 5099 H 460.2 -2.54129 -2.30811 0
M  V30 5100 N 462.645 1.35699 -0.801477 0
M  V30 5101 C 463.592 2.29876 -0.206294 0
M  V30 5102 C 464.562 1.52565 0.656752 0
M  V30 5103 O 465.747 1.81024 0.602906 0
M  V30 5104 C 462.887 3.39052 0.643272 0
M  V30 5105 C 462 4.31335 -0.239644 0
M  V30 5106 C 461.135 5.27599 0.61744 0
M  V30 5107 C 460.174 6.11521 -0.26619 0
M  V30 5108 N 459.311 6.99938 0.550571 0
M  V30 5109 H 464.151 2.80187 -1.01484 0
M  V30 5110 H 461.688 1.37902 -0.511997 0
M  V30 5111 H 463.646 4.0101 1.15094 0
M  V30 5112 H 462.276 2.9003 1.41713 0
M  V30 5113 H 461.328 3.70426 -0.865381 0
M  V30 5114 H 462.64 4.90243 -0.919985 0
M  V30 5115 H 461.794 5.94906 1.19045 0
M  V30 5116 H 460.533 4.69176 1.33137 0
M  V30 5117 H 459.538 5.43166 -0.851507 0
M  V30 5118 H 460.763 6.72022 -0.9779 0
M  V30 5119 H 458.709 6.44008 1.24856 0
M  V30 5120 H 458.626 7.55966 -0.071832 0
M  V30 5121 H 459.894 7.71599 1.10702 0
M  V30 5122 N 464.123 0.554532 1.47522 0
M  V30 5123 C 465.371 0.0294208 2.02079 0
M  V30 5124 C 465.692 -1.32411 1.43151 0
M  V30 5125 O 464.962 -1.863 0.605728 0
M  V30 5126 H 463.542 0.00788672 0.746958 0
M  V30 5127 H 466.204 0.723934 1.80956 0
M  V30 5128 H 465.3 -0.0606745 3.12041 0
M  V30 5129 N 465.601 -1.54893 0.290851 0
M  V30 5130 C 466.847 -2.00949 -0.314784 0
M  V30 5131 C 467.202 -1.1757 -1.52299 0
M  V30 5132 O 466.495 -0.241558 -1.90071 0
M  V30 5133 C 466.689 -3.49815 -0.732397 0
M  V30 5134 C 466.518 -4.47603 0.433799 0
M  V30 5135 C 465.288 -4.96806 0.922599 0
M  V30 5136 C 467.486 -4.98233 1.27546 0
M  V30 5137 N 465.468 -5.78426 2.05662 0
M  V30 5138 C 466.839 -5.77455 2.25712 0
M  V30 5139 C 468.894 -4.80439 1.307 0
M  V30 5140 C 467.597 -6.40778 3.26796 0
M  V30 5141 C 469.623 -5.44574 2.30637 0
M  V30 5142 C 468.985 -6.23619 3.27533 0
M  V30 5143 H 465.084 -0.777905 -0.0799257 0
M  V30 5144 H 467.668 -1.9015 0.418458 0
M  V30 5145 H 465.839 -3.60925 -1.43483 0
M  V30 5146 H 467.571 -3.82681 -1.31671 0
M  V30 5147 H 464.326 -4.70961 0.49926 0
M  V30 5148 H 464.75 -6.23923 2.62772 0
M  V30 5149 H 469.392 -4.18918 0.571622 0
M  V30 5150 H 467.11 -7.01439 4.01258 0
M  V30 5151 H 470.696 -5.32739 2.33838 0
M  V30 5152 H 469.576 -6.72367 4.03599 0
M  V30 5153 N 467.08 -0.0183926 -1.57589 0
M  V30 5154 C 468.496 0.337897 -1.55982 0
M  V30 5155 C 468.696 1.73604 -1.02294 0
M  V30 5156 O 467.752 2.43589 -0.664895 0
M  V30 5157 C 469.065 0.196305 -3.00059 0
M  V30 5158 C 470.613 0.269875 -3.11834 0
M  V30 5159 C 471.088 0.157197 -4.5773 0
M  V30 5160 N 472.579 0.214521 -4.62703 0
M  V30 5161 C 473.314 0.150955 -5.73201 0
M  V30 5162 N 472.81 0.0369212 -6.9279 0
M  V30 5163 N 474.603 0.204162 -5.61729 0
M  V30 5164 H 466.754 -0.93279 -1.90821 0
M  V30 5165 H 469.017 -0.359253 -0.877292 0
M  V30 5166 H 468.723 -0.766383 -3.43248 0
M  V30 5167 H 468.597 0.970908 -3.6449 0
M  V30 5168 H 470.984 1.22302 -2.68563 0
M  V30 5169 H 471.065 -0.534918 -2.50144 0
M  V30 5170 H 470.709 -0.792479 -5.01679 0
M  V30 5171 H 470.639 0.980717 -5.17387 0
M  V30 5172 H 473.13 0.303238 -3.76681 0
M  V30 5173 H 473.443 -0.00518321 -7.728 0
M  V30 5174 H 471.788 0.0022886 -6.95 0
M  V30 5175 H 474.979 0.291575 -4.67191 0
M  V30 5176 H 475.152 0.15116 -6.47824 0
M  V30 5177 N 468.558 1.5553 0.254621 0
M  V30 5178 C 469.49 1.86104 1.33783 0
M  V30 5179 C 470.503 0.746752 1.44663 0
M  V30 5180 O 471.692 1.0248 1.46151 0
M  V30 5181 C 468.792 2.02532 2.71724 0
M  V30 5182 C 467.965 3.33335 2.83208 0
M  V30 5183 C 467.024 3.396 4.01943 0
M  V30 5184 O 466.05 4.12862 3.91834 0
M  V30 5185 N 467.252 2.68332 5.1476 0
M  V30 5186 H 470.017 2.79605 1.07893 0
M  V30 5187 H 467.578 1.55672 0.444732 0
M  V30 5188 H 469.57 2.04074 3.4948 0
M  V30 5189 H 468.14 1.15811 2.90356 0
M  V30 5190 H 467.36 3.44176 1.92189 0
M  V30 5191 H 468.648 4.19565 2.87824 0
M  V30 5192 H 468.046 2.08528 5.25864 0
M  V30 5193 H 466.603 2.75575 5.90679 0
M  V30 5194 N 470.036 -0.519951 1.48776 0
M  V30 5195 C 470.966 -1.63253 1.66945 0
M  V30 5196 C 471.947 -1.62014 0.518224 0
M  V30 5197 O 473.132 -1.79053 0.751919 0
M  V30 5198 C 470.262 -3.0181 1.71836 0
M  V30 5199 C 469.216 -3.17911 2.8656 0
M  V30 5200 C 468.542 -4.5763 2.76548 0
M  V30 5201 C 469.842 -2.99729 4.27738 0
M  V30 5202 H 471.536 -1.48302 2.6009 0
M  V30 5203 H 469.082 -0.712026 1.25165 0
M  V30 5204 H 471.035 -3.79525 1.83135 0
M  V30 5205 H 469.759 -3.17806 0.752775 0
M  V30 5206 H 468.418 -2.42616 2.74833 0
M  V30 5207 H 468.066 -4.70476 1.77937 0
M  V30 5208 H 467.766 -4.69346 3.53536 0
M  V30 5209 H 469.29 -5.37431 2.89828 0
M  V30 5210 H 470.704 -3.67228 4.40246 0
M  V30 5211 H 469.101 -3.22932 5.05801 0
M  V30 5212 H 470.171 -1.96047 4.43502 0
M  V30 5213 N 471.514 -1.37532 -0.769588 0
M  V30 5214 C 472.477 -1.33292 -1.86456 0
M  V30 5215 C 473.477 -0.236537 -1.59051 0
M  V30 5216 O 474.667 -0.492511 -1.67093 0
M  V30 5217 C 471.799 -1.07118 -3.23633 0
M  V30 5218 H 472.992 -2.30692 -1.91628 0
M  V30 5219 H 470.545 -1.22593 -0.969572 0
M  V30 5220 H 471.28 -0.102578 -3.24138 0
M  V30 5221 H 471.065 -1.86479 -3.44917 0
M  V30 5222 H 472.555 -1.06806 -4.03711 0
M  V30 5223 N 472.992 0.995999 -1.22138 0
M  V30 5224 C 473.924 2.08745 -0.946485 0
M  V30 5225 C 474.937 1.62633 0.0737356 0
M  V30 5226 O 476.126 1.77782 -0.159886 0
M  V30 5227 C 473.226 3.36516 -0.401305 0
M  V30 5228 C 472.399 4.11672 -1.47801 0
M  V30 5229 C 471.458 5.17728 -0.940461 0
M  V30 5230 O 470.484 5.45482 -1.62596 0
M  V30 5231 N 471.686 5.80005 0.239723 0
M  V30 5232 H 474.451 2.32908 -1.88611 0
M  V30 5233 H 472.012 1.16152 -1.12785 0
M  V30 5234 H 474.004 4.04691 -0.0270837 0
M  V30 5235 H 472.574 3.0944 0.443354 0
M  V30 5236 H 471.794 3.38171 -2.02568 0
M  V30 5237 H 473.082 4.58657 -2.20253 0
M  V30 5238 H 472.48 5.5982 0.813518 0
M  V30 5239 H 471.037 6.4943 0.555361 0
M  V30 5240 N 474.47 1.03057 1.19235 0
M  V30 5241 C 475.38 0.622922 2.26179 0
M  V30 5242 C 476.396 -0.346113 1.70523 0
M  V30 5243 O 477.572 -0.203572 2.00369 0
M  V30 5244 C 474.637 -0.0182063 3.46695 0
M  V30 5245 C 473.698 0.998546 4.17526 0
M  V30 5246 C 472.931 0.387917 5.32288 0
M  V30 5247 O 473.154 -0.808668 5.64639 0
M  V30 5248 O 472.088 1.1116 5.91546 0
M  V30 5249 H 475.914 1.51363 2.63292 0
M  V30 5250 H 473.499 0.800856 1.26122 0
M  V30 5251 H 475.381 -0.375606 4.19723 0
M  V30 5252 H 474.056 -0.882895 3.11427 0
M  V30 5253 H 472.963 1.40756 3.4661 0
M  V30 5254 H 474.296 1.83366 4.56769 0
M  V30 5255 N 475.948 -1.35272 0.808662 0
M  V30 5256 C 476.911 -2.28082 0.226093 0
M  V30 5257 C 477.911 -1.49673 -0.587762 0
M  V30 5258 O 479.101 -1.69404 -0.405943 0
M  V30 5259 C 476.233 -3.33955 -0.684596 0
M  V30 5260 H 477.426 -2.81116 1.04469 0
M  V30 5261 H 474.979 -1.45162 0.579466 0
M  V30 5262 H 475.714 -2.86111 -1.5268 0
M  V30 5263 H 475.499 -3.91965 -0.102699 0
M  V30 5264 H 476.989 -4.03219 -1.08646 0
M  V30 5265 N 477.426 -0.562348 -1.47226 0
M  V30 5266 C 478.336 0.185466 -2.33866 0
M  V30 5267 C 479.352 0.906713 -1.48508 0
M  V30 5268 O 480.528 0.874458 -1.81425 0
M  V30 5269 C 477.593 1.19904 -3.25306 0
M  V30 5270 C 476.654 0.484669 -4.26555 0
M  V30 5271 C 475.887 1.44996 -5.13626 0
M  V30 5272 O 476.11 2.68515 -5.03245 0
M  V30 5273 O 475.044 0.971642 -5.94006 0
M  V30 5274 H 478.87 -0.525361 -2.99121 0
M  V30 5275 H 476.455 -0.322916 -1.45868 0
M  V30 5276 H 478.337 1.78399 -3.81774 0
M  V30 5277 H 477.012 1.8917 -2.62672 0
M  V30 5278 H 475.919 -0.141605 -3.73832 0
M  V30 5279 H 477.252 -0.166634 -4.91918 0
M  V30 5280 N 478.904 1.54736 -0.299062 0
M  V30 5281 C 479.867 2.22127 0.565012 0
M  V30 5282 C 480.867 1.20669 1.06281 0
M  V30 5283 O 482.057 1.45417 0.959145 0
M  V30 5284 C 479.189 2.90611 1.78208 0
M  V30 5285 H 480.382 2.99891 -0.0237448 0
M  V30 5286 H 477.935 1.5622 -0.0498788 0
M  V30 5287 H 478.67 2.16921 2.41072 0
M  V30 5288 H 478.455 3.64984 1.43281 0
M  V30 5289 H 479.945 3.42026 2.396 0
M  V30 5290 N 480.382 0.0267497 1.57577 0
M  V30 5291 C 481.628 -0.647596 1.92815 0
M  V30 5292 C 481.983 -1.69872 0.903396 0
M  V30 5293 O 481.276 -1.91429 -0.0808881 0
M  V30 5294 C 481.47 -1.30914 3.3256 0
M  V30 5295 C 481.299 -0.323621 4.48534 0
M  V30 5296 C 480.069 0.0756607 5.05243 0
M  V30 5297 C 482.267 0.42112 5.12573 0
M  V30 5298 N 480.249 1.0566 6.04739 0
M  V30 5299 C 481.62 1.25589 6.07147 0
M  V30 5300 C 483.675 0.482077 4.95561 0
M  V30 5301 C 482.378 2.1461 6.86538 0
M  V30 5302 C 484.404 1.35962 5.75559 0
M  V30 5303 C 483.766 2.18217 6.69747 0
M  V30 5304 H 479.865 -0.209357 0.753454 0
M  V30 5305 H 482.449 0.0933695 1.94476 0
M  V30 5306 H 480.62 -2.02026 3.31723 0
M  V30 5307 H 482.352 -1.94033 3.55153 0
M  V30 5308 H 479.107 -0.298294 4.7266 0
M  V30 5309 H 479.531 1.54324 6.59176 0
M  V30 5310 H 484.173 -0.139609 4.22569 0
M  V30 5311 H 481.891 2.77835 7.58837 0
M  V30 5312 H 485.477 1.41105 5.6443 0
M  V30 5313 H 484.357 2.85022 7.3057 0
M  V30 5314 N 481.861 -1.55662 -0.24637 0
M  V30 5315 C 482.791 -1.93377 -1.30873 0
M  V30 5316 C 483.772 -0.798773 -1.50179 0
M  V30 5317 O 484.957 -1.0591 -1.62778 0
M  V30 5318 C 482.087 -2.22893 -2.66338 0
M  V30 5319 C 481.041 -3.38649 -2.61727 0
M  V30 5320 C 480.367 -3.53708 -4.00992 0
M  V30 5321 C 481.667 -4.74323 -2.18666 0
M  V30 5322 H 483.361 -2.82363 -0.995552 0
M  V30 5323 H 480.907 -1.35854 -0.477464 0
M  V30 5324 H 482.86 -2.47866 -3.40794 0
M  V30 5325 H 481.584 -1.30733 -2.99293 0
M  V30 5326 H 480.243 -3.13685 -1.89729 0
M  V30 5327 H 479.891 -2.58967 -4.31214 0
M  V30 5328 H 479.591 -4.31551 -3.98795 0
M  V30 5329 H 481.115 -3.81003 -4.77147 0
M  V30 5330 H 482.529 -4.98665 -2.82854 0
M  V30 5331 H 480.926 -5.55273 -2.27579 0
M  V30 5332 H 481.996 -4.71349 -1.13834 0
M  V30 5333 N 483.339 0.512053 -1.4905 0
M  V30 5334 C 484.287 1.63568 -1.65373 0
M  V30 5335 C 485.281 1.61228 -0.519806 0
M  V30 5336 O 486.487 1.65869 -0.699101 0
M  V30 5337 H 482.862 0.542019 -0.521267 0
M  V30 5338 H 484.833 1.4695 -2.59708 0
M  V30 5339 C 483.582 3.01761 -1.7273 0
M  V30 5340 H 482.905 3.04263 -2.59353 0
M  V30 5341 H 484.345 3.79948 -1.8819 0
M  V30 5342 C 482.804 3.33609 -0.46973 0
M  V30 5343 O 483.334 3.99607 0.409492 0
M  V30 5344 N 481.54 2.88651 -0.336003 0
M  V30 5345 H 481.087 2.35119 -1.05247 0
M  V30 5346 H 481.045 3.10328 0.504363 0
M  V30 5347 N 484.817 1.37938 0.762283 0
M  V30 5348 C 486.047 1.36685 1.54922 0
M  V30 5349 C 486.455 -0.0474099 1.89141 0
M  V30 5350 O 485.798 -1.02213 1.52638 0
M  V30 5351 C 485.86 2.14963 2.88152 0
M  V30 5352 C 485.524 3.6385 2.76518 0
M  V30 5353 C 486.521 4.57531 2.46904 0
M  V30 5354 C 484.206 4.07095 2.94243 0
M  V30 5355 C 486.2 5.92436 2.35156 0
M  V30 5356 C 483.887 5.42083 2.82116 0
M  V30 5357 C 484.885 6.34567 2.52614 0
M  V30 5358 O 484.573 7.67073 2.40529 0
M  V30 5359 H 484.305 0.469586 0.486276 0
M  V30 5360 H 486.859 1.82012 0.951876 0
M  V30 5361 H 485.089 1.6434 3.50042 0
M  V30 5362 H 486.778 2.06224 3.49609 0
M  V30 5363 H 487.544 4.25428 2.32886 0
M  V30 5364 H 483.423 3.35462 3.16206 0
M  V30 5365 H 486.967 6.64591 2.12049 0
M  V30 5366 H 482.864 5.73785 2.95704 0
M  V30 5367 H 483.632 7.77499 2.55807 0
M  V30 5368 N 486.295 -0.989507 1.22664 0
M  V30 5369 C 487.706 -1.54406 1.04955 0
M  V30 5370 C 488.057 -1.92366 -0.385951 0
M  V30 5371 O 487.182 -1.75111 -1.27142 0
M  V30 5372 C 487.777 -2.80578 1.89899 0
M  V30 5373 C 486.336 -3.32464 1.76478 0
M  V30 5374 C 485.483 -2.05524 1.86159 0
M  V30 5375 H 488.434 -0.810211 1.3646 0
M  V30 5376 H 488.455 -3.53075 1.4184 0
M  V30 5377 H 487.967 -2.52918 2.94371 0
M  V30 5378 H 486.068 -3.65024 0.747528 0
M  V30 5379 H 486.181 -4.02838 2.59342 0
M  V30 5380 H 484.545 -2.19241 1.29636 0
M  V30 5381 H 485.328 -1.80258 2.92168 0
M  V30 5382 N 487.773 -1.03688 -1.18687 0
M  V30 5383 C 489.013 -0.746858 -1.90267 0
M  V30 5384 C 489.377 0.712075 -1.78307 0
M  V30 5385 O 490.578 1.11553 -2.44559 0
M  V30 5386 C 488.849 -1.19543 -3.36815 0
M  V30 5387 S 490.408 -1.03047 -4.26529 0
M  V30 5388 H 487.226 -0.271663 -0.657054 0
M  V30 5389 H 489.828 -1.32838 -1.43437 0
M  V30 5390 H 488.532 -2.2527 -3.43047 0
M  V30 5391 H 488.063 -0.607533 -3.88681 0
M  V30 5392 H 490.078 0.0543232 -4.9617 0
M  V30 5393 N 489.251 1.34841 -0.815825 0
M  V30 5394 C 490.498 1.98499 -0.400535 0
M  V30 5395 C 490.826 1.64699 1.03463 0
M  V30 5396 O 490.081 0.907006 1.73412 0
M  V30 5397 C 490.38 3.53273 -0.541541 0
M  V30 5398 C 490.046 4.06966 -1.94138 0
M  V30 5399 C 488.708 4.21341 -2.32433 0
M  V30 5400 C 491.06 4.35933 -2.85677 0
M  V30 5401 C 488.388 4.62007 -3.61617 0
M  V30 5402 C 490.74 4.78042 -4.14317 0
M  V30 5403 C 489.404 4.90622 -4.52599 0
M  V30 5404 H 488.674 0.72636 -0.146566 0
M  V30 5405 H 491.321 1.60902 -1.0384 0
M  V30 5406 H 489.626 3.91387 0.179741 0
M  V30 5407 H 491.323 4.00497 -0.20085 0
M  V30 5408 H 487.913 3.96235 -1.63388 0
M  V30 5409 H 492.097 4.24372 -2.57337 0
M  V30 5410 H 487.353 4.69937 -3.91113 0
M  V30 5411 H 491.527 4.99415 -4.85342 0
M  V30 5412 H 489.154 5.2189 -5.52752 0
M  V30 5413 N 490.729 0.570148 1.46925 0
M  V30 5414 C 491.676 -0.170257 2.30171 0
M  V30 5415 C 492.646 -0.896099 1.39855 0
M  V30 5416 O 493.831 -0.889248 1.68811 0
M  V30 5417 C 490.971 -1.18605 3.24079 0
M  V30 5418 C 490.084 -0.464947 4.29491 0
M  V30 5419 C 489.219 -1.46716 5.10537 0
M  V30 5420 C 488.258 -0.731758 6.0771 0
M  V30 5421 N 487.395 -1.68142 6.81669 0
M  V30 5422 H 492.235 0.545713 2.92961 0
M  V30 5423 H 489.772 0.280938 1.44392 0
M  V30 5424 H 491.73 -1.78771 3.76957 0
M  V30 5425 H 490.36 -1.86989 2.63125 0
M  V30 5426 H 489.412 0.251506 3.79568 0
M  V30 5427 H 490.724 0.110548 4.98677 0
M  V30 5428 H 489.878 -2.14199 5.6763 0
M  V30 5429 H 488.617 -2.07658 4.41282 0
M  V30 5430 H 487.622 -0.0430787 5.49783 0
M  V30 5431 H 488.847 -0.127904 6.7898 0
M  V30 5432 H 486.793 -2.27918 6.15134 0
M  V30 5433 H 486.71 -1.15841 7.47072 0
M  V30 5434 H 487.978 -2.347 7.43328 0
M  V30 5435 N 492.207 -1.54576 0.307264 0
M  V30 5436 C 493.155 -2.25208 -0.581723 0
M  V30 5437 C 494.149 -1.26031 -1.13192 0
M  V30 5438 O 495.355 -1.43862 -1.08184 0
M  V30 5439 H 491.73 -0.723173 -0.206214 0
M  V30 5440 H 493.701 -2.98378 0.0364663 0
M  V30 5441 C 492.45 -3.01086 -1.73904 0
M  V30 5442 H 491.773 -3.77208 -1.32491 0
M  V30 5443 H 493.213 -3.5378 -2.33701 0
M  V30 5444 C 491.672 -2.08422 -2.64692 0
M  V30 5445 O 492.202 -1.65636 -3.65961 0
M  V30 5446 N 490.408 -1.74247 -2.32564 0
M  V30 5447 H 489.955 -2.09238 -1.50257 0
M  V30 5448 H 489.913 -1.12524 -2.93574 0
M  V30 5449 N 493.685 -0.035106 -1.57561 0
M  V30 5450 C 494.931 0.637362 -1.93156 0
M  V30 5451 C 495.286 1.69391 -0.912392 0
M  V30 5452 O 494.579 1.91469 0.070735 0
M  V30 5453 C 494.773 1.29149 -3.3325 0
M  V30 5454 C 494.602 0.29983 -4.48699 0
M  V30 5455 C 493.372 -0.102454 -5.05196 0
M  V30 5456 C 495.57 -0.448297 -5.12342 0
M  V30 5457 N 493.552 -1.08866 -6.0417 0
M  V30 5458 C 494.923 -1.28807 -6.06472 0
M  V30 5459 C 496.978 -0.508351 -4.95298 0
M  V30 5460 C 495.681 -2.18248 -6.85391 0
M  V30 5461 C 497.707 -1.39013 -5.7483 0
M  V30 5462 C 497.069 -2.21766 -6.6858 0
M  V30 5463 H 493.168 0.205358 -0.754554 0
M  V30 5464 H 495.752 -0.103682 -1.94424 0
M  V30 5465 H 493.923 2.00264 -3.3279 0
M  V30 5466 H 495.655 1.92147 -3.56177 0
M  V30 5467 H 492.41 0.273223 -4.72811 0
M  V30 5468 H 492.834 -1.57817 -6.58348 0
M  V30 5469 H 497.476 0.117197 -4.22638 0
M  V30 5470 H 495.194 -2.81855 -7.57353 0
M  V30 5471 H 498.78 -1.44096 -5.63673 0
M  V30 5472 H 497.66 -2.88892 -7.29048 0
M  V30 5473 N 495.163 1.55791 0.238111 0
M  V30 5474 C 496.44 1.68798 0.98826 0
M  V30 5475 C 496.82 0.577562 2.03045 0
M  V30 5476 O 496.168 -0.41778 2.24648 0
M  V30 5477 C 496.378 3.09454 1.61367 0
M  V30 5478 C 497.726 3.68335 2.11221 0
M  V30 5479 O 498.75 3.1231 1.71292 0
M  V30 5480 O 497.609 4.6657 2.84561 0
M  V30 5481 H 494.703 0.686881 0.460568 0
M  V30 5482 H 497.249 1.68118 0.231202 0
M  V30 5483 H 496.021 3.81726 0.860295 0
M  V30 5484 H 495.644 3.14182 2.4367 0
M  V30 5485 N 496.642 -0.504142 1.49319 0
M  V30 5486 C 497.89 -1.25598 1.58334 0
M  V30 5487 C 498.211 -1.93114 0.270538 0
M  V30 5488 O 497.481 -1.82585 -0.709891 0
M  V30 5489 H 496.061 -0.466571 0.58337 0
M  V30 5490 H 498.723 -0.584547 1.85928 0
M  V30 5491 H 497.819 -2.02159 2.37778 0
M  V30 5492 N 498.12 -1.38341 -0.754957 0
M  V30 5493 C 499.345 -1.37882 -1.5493 0
M  V30 5494 C 499.77 0.0296385 -1.88077 0
M  V30 5495 O 499.128 1.01133 -1.50472 0
M  V30 5496 C 499.176 -2.23996 -2.82592 0
M  V30 5497 O 498.28 -1.65612 -3.77686 0
M  V30 5498 H 497.621 -0.470384 -0.468652 0
M  V30 5499 H 500.151 -1.82084 -0.933082 0
M  V30 5500 H 500.161 -2.37806 -3.3153 0
M  V30 5501 H 498.836 -3.26365 -2.57796 0
M  V30 5502 H 497.413 -1.60936 -3.36384 0
M  V30 5503 N 499.598 0.982988 -1.23187 0
M  V30 5504 C 501.009 1.53847 -1.05773 0
M  V30 5505 C 501.36 1.92568 0.375744 0
M  V30 5506 O 500.485 1.75783 1.26211 0
M  V30 5507 C 501.08 2.79567 -1.91384 0
M  V30 5508 C 499.639 3.31524 -1.78238 0
M  V30 5509 C 498.786 2.04534 -1.87246 0
M  V30 5510 H 501.737 0.802962 -1.36888 0
M  V30 5511 H 501.758 3.52317 -1.43711 0
M  V30 5512 H 501.27 2.51353 -2.95708 0
M  V30 5513 H 499.371 3.64623 -0.766875 0
M  V30 5514 H 499.484 4.01457 -2.61475 0
M  V30 5515 H 497.848 2.1855 -1.30797 0
M  V30 5516 H 498.631 1.78706 -2.9312 0
M  V30 5517 N 501.076 1.04316 1.18135 0
M  V30 5518 C 502.322 0.749128 1.88457 0
M  V30 5519 C 502.655 -0.72149 1.803 0
M  V30 5520 O 501.93 -1.52676 1.205 0
M  V30 5521 C 502.213 1.21905 3.38838 0
M  V30 5522 C 502.066 2.75195 3.55792 0
M  V30 5523 C 503.385 0.811085 4.32561 0
M  V30 5524 H 500.504 0.273611 0.684329 0
M  V30 5525 H 503.146 1.29561 1.38975 0
M  V30 5526 H 501.296 0.754137 3.8111 0
M  V30 5527 H 502.968 3.29743 3.22595 0
M  V30 5528 H 501.211 3.14899 2.98364 0
M  V30 5529 H 501.882 3.03135 4.61317 0
M  V30 5530 H 504.358 1.21118 3.98082 0
M  V30 5531 H 503.234 1.16761 5.36338 0
M  V30 5532 H 503.495 -0.285596 4.41177 0
M  V30 5533 N 502.554 -1.34406 0.822964 0
M  V30 5534 C 503.779 -2.0304 0.423034 0
M  V30 5535 C 504.204 -1.61568 -0.963196 0
M  V30 5536 O 503.562 -0.800339 -1.62678 0
M  V30 5537 C 503.61 -3.56636 0.53321 0
M  V30 5538 O 502.714 -4.09971 -0.446939 0
M  V30 5539 H 502.055 -0.64075 0.174171 0
M  V30 5540 H 504.585 -1.71653 1.11339 0
M  V30 5541 H 504.595 -4.05945 0.408991 0
M  V30 5542 H 503.27 -3.86168 1.54425 0
M  V30 5543 H 501.847 -3.71835 -0.281601 0
M  V30 5544 N 504.032 -0.577932 -1.46621 0
M  V30 5545 C 505.257 -0.0652536 -2.07297 0
M  V30 5546 C 505.682 1.22828 -1.4246 0
M  V30 5547 O 505.04 1.74075 -0.506718 0
M  V30 5548 C 505.088 0.0920589 -3.60482 0
M  V30 5549 O 504.192 1.14972 -3.96049 0
M  V30 5550 H 503.533 -0.06065 -0.661224 0
M  V30 5551 H 506.063 -0.799515 -1.88332 0
M  V30 5552 H 506.073 0.299741 -4.06897 0
M  V30 5553 H 504.748 -0.852612 -4.07067 0
M  V30 5554 H 503.325 0.920879 -3.61351 0
M  V30 5555 N 505.51 1.54411 -0.315457 0
M  V30 5556 C 506.756 2.01425 0.282775 0
M  V30 5557 C 507.111 1.19978 1.5041 0
M  V30 5558 O 506.404 0.271766 1.89663 0
M  V30 5559 C 506.598 3.50936 0.676652 0
M  V30 5560 C 506.427 4.46856 -0.504954 0
M  V30 5561 C 505.197 4.95275 -1.00152 0
M  V30 5562 C 507.395 4.96141 -1.35456 0
M  V30 5563 N 505.377 5.75081 -2.14838 0
M  V30 5564 C 506.748 5.73791 -2.3487 0
M  V30 5565 C 508.803 4.78299 -1.38327 0
M  V30 5566 C 507.506 6.35498 -3.36949 0
M  V30 5567 C 509.532 5.40836 -2.39271 0
M  V30 5568 C 508.894 6.1833 -3.37413 0
M  V30 5569 H 504.993 0.779078 0.0675398 0
M  V30 5570 H 507.577 1.8946 -0.448656 0
M  V30 5571 H 505.748 3.63162 1.37723 0
M  V30 5572 H 507.48 3.84728 1.25566 0
M  V30 5573 H 504.235 4.70107 -0.574123 0
M  V30 5574 H 504.659 6.19664 -2.72665 0
M  V30 5575 H 509.301 4.17956 -0.638196 0
M  V30 5576 H 507.019 6.94967 -4.12367 0
M  V30 5577 H 510.605 5.28952 -2.42284 0
M  V30 5578 H 509.485 6.65861 -4.14244 0
M  V30 5579 N 506.988 0.0434614 1.5754 0
M  V30 5580 C 508.237 -0.631454 1.91561 0
M  V30 5581 C 508.55 -1.72457 0.92292 0
M  V30 5582 O 509.756 -2.45712 1.15489 0
M  V30 5583 C 508.212 -1.17447 3.40197 0
M  V30 5584 C 507.82 -0.113867 4.47855 0
M  V30 5585 C 509.564 -1.82507 3.83264 0
M  V30 5586 C 507.471 -0.669326 5.876 0
M  V30 5587 H 506.401 -0.239629 0.714908 0
M  V30 5588 H 509.052 0.111097 1.83163 0
M  V30 5589 H 507.434 -1.96909 3.43574 0
M  V30 5590 H 508.608 0.659348 4.56058 0
M  V30 5591 H 506.923 0.438821 4.14081 0
M  V30 5592 H 509.52 -2.25047 4.85034 0
M  V30 5593 H 509.863 -2.67365 3.19095 0
M  V30 5594 H 510.396 -1.09712 3.82372 0
M  V30 5595 H 507.135 0.141449 6.55347 0
M  V30 5596 H 506.655 -1.4107 5.82974 0
M  V30 5597 H 508.334 -1.15463 6.36614 0
M  V30 5598 N 508.466 -1.55915 -0.229846 0
M  V30 5599 C 509.396 -1.94754 -1.28815 0
M  V30 5600 C 510.377 -0.814657 -1.49323 0
M  V30 5601 O 511.562 -1.07631 -1.61645 0
M  V30 5602 C 508.692 -2.25705 -2.63959 0
M  V30 5603 C 507.646 -3.41406 -2.5812 0
M  V30 5604 C 506.972 -3.57941 -3.97218 0
M  V30 5605 C 508.272 -4.76616 -2.13623 0
M  V30 5606 H 509.966 -2.83404 -0.965547 0
M  V30 5607 H 507.512 -1.36353 -0.463028 0
M  V30 5608 H 509.465 -2.51467 -3.38146 0
M  V30 5609 H 508.189 -1.339 -2.9789 0
M  V30 5610 H 506.848 -3.1568 -1.86391 0
M  V30 5611 H 506.496 -2.63526 -4.28443 0
M  V30 5612 H 506.196 -4.35757 -3.94195 0
M  V30 5613 H 507.72 -3.86042 -4.73079 0
M  V30 5614 H 509.134 -5.01637 -2.77549 0
M  V30 5615 H 507.531 -5.57655 -2.21677 0
M  V30 5616 H 508.601 -4.7253 -1.08829 0
M  V30 5617 N 509.944 0.496216 -1.49584 0
M  V30 5618 C 510.874 1.60576 -1.69521 0
M  V30 5619 C 511.855 1.61169 -0.543933 0
M  V30 5620 O 513.04 1.77834 -0.78031 0
M  V30 5621 C 510.17 2.99038 -1.76616 0
M  V30 5622 C 509.124 3.13312 -2.91581 0
M  V30 5623 C 508.45 4.53172 -2.83794 0
M  V30 5624 C 509.75 2.92886 -4.32452 0
M  V30 5625 H 511.444 1.44146 -2.62416 0
M  V30 5626 H 508.99 0.692024 -1.26282 0
M  V30 5627 H 510.943 3.76564 -1.8915 0
M  V30 5628 H 509.667 3.16568 -0.80324 0
M  V30 5629 H 508.326 2.38213 -2.78658 0
M  V30 5630 H 507.974 4.67585 -1.854 0
M  V30 5631 H 507.674 4.63662 -3.60958 0
M  V30 5632 H 509.198 5.32752 -2.98342 0
M  V30 5633 H 510.612 3.60178 -4.46032 0
M  V30 5634 H 509.009 3.14844 -5.10875 0
M  V30 5635 H 510.079 1.88966 -4.46565 0
M  V30 5636 N 511.423 1.38739 0.74761 0
M  V30 5637 C 512.386 1.36241 1.84312 0
M  V30 5638 C 513.386 0.261811 1.58654 0
M  V30 5639 O 514.576 0.519031 1.66288 0
M  V30 5640 C 511.708 1.12253 3.21888 0
M  V30 5641 H 512.901 2.33712 1.87933 0
M  V30 5642 H 510.454 1.2412 0.949946 0
M  V30 5643 H 511.189 0.154133 3.23934 0
M  V30 5644 H 510.974 1.91943 3.41907 0
M  V30 5645 H 512.464 1.13215 4.0196 0
M  V30 5646 N 512.901 -0.976442 1.23707 0
M  V30 5647 C 513.811 -2.10359 1.03856 0
M  V30 5648 C 514.827 -1.73991 -0.0180919 0
M  V30 5649 O 516.003 -2.0061 0.178211 0
M  V30 5650 C 513.068 -3.40809 0.636387 0
M  V30 5651 C 512.129 -3.91179 1.76854 0
M  V30 5652 C 511.362 -5.15404 1.38546 0
M  V30 5653 O 511.585 -5.69754 0.27142 0
M  V30 5654 O 510.519 -5.5994 2.20797 0
M  V30 5655 H 514.345 -2.29997 1.98331 0
M  V30 5656 H 511.93 -1.08742 1.02448 0
M  V30 5657 H 513.812 -4.19269 0.423223 0
M  V30 5658 H 512.487 -3.22493 -0.279322 0
M  V30 5659 H 511.394 -3.13819 2.03638 0
M  V30 5660 H 512.727 -4.13958 2.6627 0
M  V30 5661 N 514.379 -1.04941 -1.1758 0
M  V30 5662 C 515.604 -0.778253 -1.92245 0
M  V30 5663 C 516.029 0.659707 -1.76152 0
M  V30 5664 O 515.387 1.45803 -1.07755 0
M  V30 5665 C 515.435 -1.16051 -3.41416 0
M  V30 5666 O 514.539 -0.291153 -4.11371 0
M  V30 5667 H 513.88 -0.285619 -0.599431 0
M  V30 5668 H 516.41 -1.40159 -1.49052 0
M  V30 5669 H 516.42 -1.12619 -3.92149 0
M  V30 5670 H 515.095 -2.208 -3.52449 0
M  V30 5671 H 513.672 -0.385851 -3.70898 0
M  V30 5672 N 515.857 1.33968 -0.830081 0
M  V30 5673 C 516.805 2.31301 -0.245435 0
M  V30 5674 C 517.799 1.57734 0.617762 0
M  V30 5675 O 519.005 1.72674 0.508303 0
M  V30 5676 H 515.38 0.749552 -0.0606316 0
M  V30 5677 H 517.351 2.78129 -1.08105 0
M  V30 5678 C 516.1 3.42961 0.572084 0
M  V30 5679 H 515.423 3.99714 -0.0828118 0
M  V30 5680 H 516.863 4.13286 0.94715 0
M  V30 5681 C 515.322 2.88043 1.74737 0
M  V30 5682 O 515.852 2.83508 2.8458 0
M  V30 5683 N 514.058 2.44768 1.56642 0
M  V30 5684 H 513.605 2.48656 0.672901 0
M  V30 5685 H 513.563 2.08375 2.3543 0
M  V30 5686 N 517.335 0.585699 1.46312 0
M  V30 5687 C 518.56 0.0762461 2.0726 0
M  V30 5688 C 518.985 -1.22071 1.43109 0
M  V30 5689 O 518.343 -1.73804 0.515942 0
M  V30 5690 C 518.391 -0.0729404 3.60526 0
M  V30 5691 O 517.495 -1.1287 3.96654 0
M  V30 5692 H 516.836 0.0641558 0.660893 0
M  V30 5693 H 519.366 0.809492 1.87905 0
M  V30 5694 H 519.376 -0.278158 4.07051 0
M  V30 5695 H 518.051 0.874188 4.06609 0
M  V30 5696 H 516.628 -0.901703 3.61834 0
M  V30 5697 N 518.813 -1.54241 0.323641 0
M  V30 5698 C 519.776 -2.22997 -0.529602 0
M  V30 5699 C 520.776 -1.22345 -1.04347 0
M  V30 5700 O 521.966 -1.46924 -0.935889 0
M  V30 5701 C 519.098 -2.93409 -1.73562 0
M  V30 5702 H 520.291 -2.99815 0.0714518 0
M  V30 5703 H 517.844 -1.56121 0.0747258 0
M  V30 5704 H 518.579 -2.20729 -2.37591 0
M  V30 5705 H 518.364 -3.67217 -1.37456 0
M  V30 5706 H 519.854 -3.45794 -2.34128 0
M  V30 5707 N 520.291 -0.0518155 -1.57515 0
M  V30 5708 C 521.568 0.661727 -1.84067 0
M  V30 5709 C 521.948 1.88999 -0.940351 0
M  V30 5710 O 521.296 2.285 -0.00155404 0
M  V30 5711 C 521.506 1.01841 -3.3381 0
M  V30 5712 C 522.854 1.40043 -4.00841 0
M  V30 5713 O 523.878 1.11073 -3.38439 0
M  V30 5714 O 522.737 1.94111 -5.10865 0
M  V30 5715 H 519.831 0.326702 -0.759733 0
M  V30 5716 H 522.377 -0.0812277 -1.69505 0
M  V30 5717 H 521.149 0.145202 -3.91031 0
M  V30 5718 H 520.772 1.81879 -3.53562 0
M  V30 5719 N 521.769 1.56035 0.221574 0
M  V30 5720 C 523.046 1.69837 0.970301 0
M  V30 5721 C 523.426 0.599065 2.02421 0
M  V30 5722 O 522.774 -0.393929 2.25079 0
M  V30 5723 C 522.984 3.11148 1.58076 0
M  V30 5724 C 524.332 3.70555 2.07302 0
M  V30 5725 O 525.356 3.14109 1.6797 0
M  V30 5726 O 524.215 4.69562 2.79596 0
M  V30 5727 H 521.309 0.691727 0.453257 0
M  V30 5728 H 523.855 1.68353 0.213358 0
M  V30 5729 H 522.627 3.82617 0.819759 0
M  V30 5730 H 522.25 3.16749 2.40324 0
M  V30 5731 N 523.247 -0.488276 1.49845 0
M  V30 5732 C 524.157 -1.61451 1.70207 0
M  V30 5733 C 525.173 -1.63877 0.584846 0
M  V30 5734 O 526.349 -1.82063 0.861107 0
M  V30 5735 C 523.414 -2.9776 1.77594 0
M  V30 5736 C 522.475 -3.05861 3.01243 0
M  V30 5737 C 521.708 -4.35668 3.08268 0
M  V30 5738 O 521.931 -5.25197 2.22541 0
M  V30 5739 O 520.865 -4.49005 4.00847 0
M  V30 5740 H 524.691 -1.47199 2.65643 0
M  V30 5741 H 522.276 -0.665939 1.33737 0
M  V30 5742 H 524.158 -3.7875 1.84732 0
M  V30 5743 H 522.833 -3.12248 0.8534 0
M  V30 5744 H 521.74 -2.24012 2.99616 0
M  V30 5745 H 523.073 -2.96304 3.9302 0
M  V30 5746 N 524.725 -1.39134 -0.740242 0
M  V30 5747 C 525.953 -1.39334 -1.5295 0
M  V30 5748 C 526.368 0.0135008 -1.88795 0
M  V30 5749 O 525.725 0.983524 -1.5373 0
M  V30 5750 C 525.776 -2.2614 -2.82034 0
M  V30 5751 O 525.497 -3.61345 -2.47712 0
M  V30 5752 C 526.998 -2.34666 -3.76094 0
M  V30 5753 H 524.218 -0.476103 -0.472828 0
M  V30 5754 H 526.762 -1.82883 -0.9151 0
M  V30 5755 H 524.917 -1.86018 -3.39818 0
M  V30 5756 H 525.331 -4.07194 -3.30595 0
M  V30 5757 H 526.805 -2.99663 -4.63579 0
M  V30 5758 H 527.282 -1.36426 -4.17474 0
M  V30 5759 H 527.888 -2.75236 -3.2423 0
M  V30 5760 N 526.204 0.969867 -1.24223 0
M  V30 5761 C 527.481 1.68774 -0.988664 0
M  V30 5762 C 527.861 2.05342 0.489673 0
M  V30 5763 O 527.209 1.75486 1.46345 0
M  V30 5764 C 527.419 2.92135 -1.90941 0
M  V30 5765 C 528.767 3.64422 -2.17903 0
M  V30 5766 O 529.791 3.02188 -1.88576 0
M  V30 5767 O 528.65 4.76446 -2.67697 0
M  V30 5768 H 525.744 0.737736 -0.37373 0
M  V30 5769 H 528.29 1.02415 -1.35312 0
M  V30 5770 H 527.062 2.61788 -2.90831 0
M  V30 5771 H 526.685 3.66228 -1.54798 0
M  V30 5772 N 527.682 1.05563 1.17022 0
M  V30 5773 C 528.959 0.68165 1.83338 0
M  V30 5774 C 529.339 -0.837665 1.93769 0
M  V30 5775 O 528.687 -1.74507 1.47511 0
M  V30 5776 C 528.897 1.375 3.20772 0
M  V30 5777 C 530.245 1.51545 3.96635 0
M  V30 5778 O 531.269 1.33431 3.30264 0
M  V30 5779 O 530.128 1.812 5.15586 0
M  V30 5780 H 527.222 0.240412 0.791285 0
M  V30 5781 H 529.768 1.15545 1.24288 0
M  V30 5782 H 528.54 2.41135 3.08171 0
M  V30 5783 H 528.163 0.890798 3.87493 0
M  V30 5784 N 529.16 -1.33526 0.837174 0
M  V30 5785 C 530.571 -1.80182 0.489017 0
M  V30 5786 C 530.922 -1.69285 -0.991826 0
M  V30 5787 O 530.047 -1.24113 -1.77271 0
M  V30 5788 C 530.642 -3.27149 0.880866 0
M  V30 5789 C 529.201 -3.71828 0.584872 0
M  V30 5790 C 528.348 -2.54974 1.09011 0
M  V30 5791 H 531.299 -1.21071 1.02603 0
M  V30 5792 H 531.32 -3.80024 0.190239 0
M  V30 5793 H 530.832 -3.35048 1.95869 0
M  V30 5794 H 528.933 -3.69457 -0.48295 0
M  V30 5795 H 529.046 -4.65366 1.13892 0
M  V30 5796 H 527.41 -2.4952 0.511047 0
M  V30 5797 H 528.193 -2.65637 2.17467 0
M  V30 5798 N 530.638 -0.59345 -1.46 0
M  V30 5799 C 532.054 -0.255965 -1.57534 0
M  V30 5800 C 532.254 1.24167 -1.58697 0
M  V30 5801 O 531.31 2.02398 -1.50968 0
M  V30 5802 C 532.623 -0.91466 -2.86451 0
M  V30 5803 C 534.171 -0.889253 -3.00102 0
M  V30 5804 C 534.646 -1.52769 -4.3177 0
M  V30 5805 N 536.137 -1.49253 -4.38495 0
M  V30 5806 C 536.872 -1.9558 -5.39014 0
M  V30 5807 N 536.368 -2.49929 -6.46148 0
M  V30 5808 N 538.161 -1.86432 -5.30282 0
M  V30 5809 H 530.312 -1.56604 -1.43489 0
M  V30 5810 H 532.575 -0.655207 -0.685133 0
M  V30 5811 H 532.281 -1.96861 -2.91442 0
M  V30 5812 H 532.155 -0.429356 -3.74748 0
M  V30 5813 H 534.542 0.156111 -2.94687 0
M  V30 5814 H 534.623 -1.41268 -2.13253 0
M  V30 5815 H 534.267 -2.57231 -4.37944 0
M  V30 5816 H 534.197 -0.979398 -5.17412 0
M  V30 5817 H 536.688 -1.09536 -3.61677 0
M  V30 5818 H 537.001 -2.83109 -7.19075 0
M  V30 5819 H 535.346 -2.53961 -6.46938 0
M  V30 5820 H 538.537 -1.43722 -4.4549 0
M  V30 5821 H 538.71 -2.22852 -6.08474 0
M  V30 5822 N 532.116 1.54067 -0.331816 0
M  V30 5823 C 533.532 1.59587 0.0205388 0
M  V30 5824 C 533.732 1.34813 1.49759 0
M  V30 5825 O 532.788 1.13661 2.25471 0
M  V30 5826 C 534.101 2.97959 -0.405103 0
M  V30 5827 C 535.649 3.10964 -0.356454 0
M  V30 5828 C 536.124 4.51694 -0.757384 0
M  V30 5829 N 537.615 4.57709 -0.71111 0
M  V30 5830 C 538.35 5.64729 -0.993427 0
M  V30 5831 N 537.846 6.79652 -1.3433 0
M  V30 5832 N 539.639 5.54546 -0.918442 0
M  V30 5833 H 531.79 1.68426 -1.29407 0
M  V30 5834 H 534.053 0.78819 -0.526745 0
M  V30 5835 H 533.759 3.21115 -1.43451 0
M  V30 5836 H 533.633 3.76524 0.225692 0
M  V30 5837 H 536.02 2.87538 0.663763 0
M  V30 5838 H 536.101 2.34484 -1.02229 0
M  V30 5839 H 535.745 4.75853 -1.77555 0
M  V30 5840 H 535.675 5.26555 -0.0691444 0
M  V30 5841 H 538.166 3.75176 -0.452883 0
M  V30 5842 H 538.479 7.57221 -1.54388 0
M  V30 5843 H 536.824 6.81128 -1.38164 0
M  V30 5844 H 540.015 4.63641 -0.644536 0
M  V30 5845 H 540.188 6.37861 -1.14181 0
M  V30 5846 N 533.594 0.0601682 1.57485 0
M  V30 5847 C 534.824 -0.620037 1.97076 0
M  V30 5848 C 535.232 -1.64381 0.936784 0
M  V30 5849 O 534.575 -1.83497 -0.0863377 0
M  V30 5850 C 534.637 -1.35617 3.32939 0
M  V30 5851 C 534.301 -0.487208 4.54396 0
M  V30 5852 C 535.298 0.250428 5.19297 0
M  V30 5853 C 532.983 -0.415494 5.00579 0
M  V30 5854 C 534.977 1.04812 6.28723 0
M  V30 5855 C 532.664 0.385879 6.0988 0
M  V30 5856 C 533.662 1.11637 6.73815 0
M  V30 5857 O 533.35 1.90454 7.81014 0
M  V30 5858 H 533.082 -0.173664 0.653312 0
M  V30 5859 H 535.636 0.1256 2.05016 0
M  V30 5860 H 533.866 -2.14763 3.2158 0
M  V30 5861 H 535.555 -1.92749 3.57215 0
M  V30 5862 H 536.321 0.204546 4.84568 0
M  V30 5863 H 532.2 -0.973679 4.506 0
M  V30 5864 H 535.744 1.6188 6.78558 0
M  V30 5865 H 531.641 0.433366 6.44044 0
M  V30 5866 H 532.409 1.82762 7.97835 0
M  V30 5867 N 535.072 -1.5615 -0.213296 0
M  V30 5868 C 536.004 -1.89586 -1.28802 0
M  V30 5869 C 537.017 -0.784844 -1.42633 0
M  V30 5870 O 538.206 -1.06319 -1.43383 0
M  V30 5871 C 535.306 -2.09665 -2.66259 0
M  V30 5872 C 534.479 -3.40726 -2.7427 0
M  V30 5873 C 533.538 -3.50137 -3.92798 0
M  V30 5874 O 532.564 -4.23105 -3.8075 0
M  V30 5875 N 533.766 -2.81886 -5.07465 0
M  V30 5876 H 536.531 -2.82368 -1.00442 0
M  V30 5877 H 534.092 -1.56796 -0.403302 0
M  V30 5878 H 536.084 -2.13268 -3.43946 0
M  V30 5879 H 534.654 -1.23469 -2.87183 0
M  V30 5880 H 533.874 -3.4915 -1.82997 0
M  V30 5881 H 535.162 -4.27048 -2.76599 0
M  V30 5882 H 534.56 -2.22397 -5.2015 0
M  V30 5883 H 533.117 -2.91139 -5.83165 0
M  V30 5884 N 536.55 0.480323 -1.50102 0
M  V30 5885 C 537.497 1.57946 -1.6829 0
M  V30 5886 C 538.467 1.57611 -0.524223 0
M  V30 5887 O 539.652 1.75282 -0.753709 0
M  V30 5888 C 536.792 2.95978 -1.77457 0
M  V30 5889 C 535.905 3.06173 -3.04766 0
M  V30 5890 C 535.04 4.35063 -3.04784 0
M  V30 5891 C 534.079 4.38966 -4.26586 0
M  V30 5892 N 533.216 5.59314 -4.24396 0
M  V30 5893 H 538.056 1.41743 -2.62131 0
M  V30 5894 H 535.593 0.689304 -1.2995 0
M  V30 5895 H 537.551 3.76011 -1.80752 0
M  V30 5896 H 536.181 3.10837 -0.870637 0
M  V30 5897 H 535.233 2.19071 -3.10986 0
M  V30 5898 H 536.545 3.04916 -3.9475 0
M  V30 5899 H 535.699 5.23436 -3.06757 0
M  V30 5900 H 534.438 4.38915 -2.12614 0
M  V30 5901 H 533.443 3.48992 -4.24835 0
M  V30 5902 H 534.668 4.36813 -5.19972 0
M  V30 5903 H 532.614 5.63969 -3.35074 0
M  V30 5904 H 532.531 5.5976 -5.08138 0
M  V30 5905 H 533.799 6.49837 -4.30502 0
M  V30 5906 N 538.028 1.39524 0.732853 0
M  V30 5907 C 539.258 1.3994 1.51988 0
M  V30 5908 C 539.666 -0.00727973 1.89199 0
M  V30 5909 O 539.009 -0.989521 1.54771 0
M  V30 5910 C 539.071 2.21026 2.83527 0
M  V30 5911 C 538.735 3.69633 2.68738 0
M  V30 5912 C 539.732 4.62665 2.37143 0
M  V30 5913 C 537.417 4.13244 2.85542 0
M  V30 5914 C 539.411 5.97291 2.22536 0
M  V30 5915 C 537.098 5.47945 2.70554 0
M  V30 5916 C 538.096 6.39783 2.39097 0
M  V30 5917 O 537.784 7.72002 2.24204 0
M  V30 5918 H 537.516 0.479795 0.476206 0
M  V30 5919 H 540.07 1.8399 0.913054 0
M  V30 5920 H 538.3 1.71728 3.46477 0
M  V30 5921 H 539.989 2.13594 3.45156 0
M  V30 5922 H 540.755 4.30272 2.2381 0
M  V30 5923 H 536.634 3.42094 3.09019 0
M  V30 5924 H 540.178 6.68939 1.97905 0
M  V30 5925 H 536.075 5.79928 2.83466 0
M  V30 5926 H 536.843 7.8275 2.39258 0
M  V30 5927 N 539.506 -0.963266 1.24736 0
M  V30 5928 C 540.754 -1.70343 1.08755 0
M  V30 5929 C 541.075 -1.91387 -0.373619 0
M  V30 5930 O 540.345 -1.4948 -1.2662 0
M  V30 5931 H 538.925 -0.631224 0.399456 0
M  V30 5932 H 541.587 -1.15859 1.56725 0
M  V30 5933 H 540.683 -2.68616 1.58909 0
M  V30 5934 N 540.985 -1.06182 -1.16461 0
M  V30 5935 C 542.215 -0.797425 -1.9059 0
M  V30 5936 C 542.623 0.651845 -1.77616 0
M  V30 5937 O 541.966 1.45788 -1.11766 0
M  V30 5938 C 542.028 -1.11128 -3.41893 0
M  V30 5939 C 541.692 -2.55874 -3.78652 0
M  V30 5940 C 542.689 -3.54104 -3.80665 0
M  V30 5941 C 540.374 -2.91144 -4.09317 0
M  V30 5942 C 542.368 -4.85645 -4.12829 0
M  V30 5943 C 540.055 -4.22885 -4.41148 0
M  V30 5944 C 541.053 -5.19945 -4.42883 0
M  V30 5945 O 540.741 -6.49322 -4.73959 0
M  V30 5946 H 540.473 -0.288709 -0.611247 0
M  V30 5947 H 543.027 -1.41841 -1.4856 0
M  V30 5948 H 541.257 -0.433217 -3.84266 0
M  V30 5949 H 542.946 -0.831306 -3.97296 0
M  V30 5950 H 543.712 -3.28197 -3.57088 0
M  V30 5951 H 539.591 -2.16252 -4.07131 0
M  V30 5952 H 543.135 -5.61398 -4.14099 0
M  V30 5953 H 539.032 -4.48551 -4.6419 0
M  V30 5954 H 539.8 -6.54294 -4.91774 0
M  V30 5955 N 542.463 1.3308 -0.844243 0
M  V30 5956 C 543.712 1.96868 -0.438833 0
M  V30 5957 C 544.025 1.67599 1.00846 0
M  V30 5958 O 545.231 2.25043 1.51881 0
M  V30 5959 C 543.687 3.5234 -0.73377 0
M  V30 5960 C 543.295 3.90481 -2.1961 0
M  V30 5961 C 545.039 4.22653 -0.395574 0
M  V30 5962 C 542.946 5.38954 -2.43481 0
M  V30 5963 H 541.876 0.736749 -0.160364 0
M  V30 5964 H 544.527 1.51623 -1.03358 0
M  V30 5965 H 542.909 3.95941 -0.068589 0
M  V30 5966 H 544.083 3.57922 -2.90221 0
M  V30 5967 H 542.398 3.33165 -2.4978 0
M  V30 5968 H 544.995 5.31848 -0.551477 0
M  V30 5969 H 545.338 4.11004 0.661921 0
M  V30 5970 H 545.871 3.84601 -1.01621 0
M  V30 5971 H 542.61 5.55612 -3.47816 0
M  V30 5972 H 542.13 5.72954 -1.77437 0
M  V30 5973 H 543.809 6.05907 -2.26905 0
M  V30 5974 N 543.941 0.601185 1.45683 0
M  V30 5975 C 545.189 0.0936957 2.01883 0
M  V30 5976 C 545.51 -1.2779 1.47291 0
M  V30 5977 O 544.78 -1.84279 0.664691 0
M  V30 5978 H 543.36 0.0316466 0.746329 0
M  V30 5979 H 546.022 0.781137 1.78562 0
M  V30 5980 H 545.118 0.0386297 3.12076 0
M  V30 5981 N 545.419 -1.53889 0.339982 0
M  V30 5982 C 546.647 -2.05271 -0.259114 0
M  V30 5983 C 547.062 -1.21517 -1.44496 0
M  V30 5984 O 546.419 -0.24966 -1.80784 0
M  V30 5985 C 546.47 -3.55092 -0.677634 0
M  V30 5986 O 546.191 -4.35667 0.461051 0
M  V30 5987 C 547.692 -4.22631 -1.33782 0
M  V30 5988 H 544.912 -0.669085 -0.0506566 0
M  V30 5989 H 547.456 -1.9852 0.490935 0
M  V30 5990 H 545.611 -3.62077 -1.37763 0
M  V30 5991 H 546.025 -5.24343 0.128144 0
M  V30 5992 H 547.499 -5.28861 -1.58145 0
M  V30 5993 H 547.976 -3.74758 -2.29027 0
M  V30 5994 H 548.582 -4.19829 -0.679957 0
M  V30 5995 N 546.897 -0.0685191 -1.57451 0
M  V30 5996 C 547.847 0.909895 -2.09057 0
M  V30 5997 C 548.831 1.26088 -0.999528 0
M  V30 5998 O 550.023 1.24041 -1.26265 0
M  V30 5999 C 547.152 2.17863 -2.65312 0
M  V30 6000 C 546.238 1.85427 -3.81415 0
M  V30 6001 N 546.629 1.23426 -4.9051 0
M  V30 6002 C 544.927 2.15196 -3.90649 0
M  V30 6003 C 545.628 1.09008 -5.71395 0
M  V30 6004 N 544.604 1.59871 -5.1956 0
M  V30 6005 H 548.406 0.426145 -2.90794 0
M  V30 6006 H 545.92 0.135462 -1.61834 0
M  V30 6007 H 547.917 2.88872 -3.00597 0
M  V30 6008 H 546.577 2.66829 -1.85021 0
M  V30 6009 H 547.588 0.904305 -5.09944 0
M  V30 6010 H 544.265 2.66562 -3.21327 0
M  V30 6011 H 545.655 0.607305 -6.6915 0
M  V30 6012 N 548.375 1.56261 0.205012 0
M  V30 6013 C 549.285 1.96944 1.27476 0
M  V30 6014 C 550.301 0.875636 1.50362 0
M  V30 6015 O 551.477 1.18058 1.6317 0
M  V30 6016 C 548.542 2.29219 2.60115 0
M  V30 6017 C 547.603 3.52255 2.45387 0
M  V30 6018 C 546.836 3.8298 3.71701 0
M  V30 6019 O 547.059 3.15138 4.75441 0
M  V30 6020 O 545.993 4.76435 3.67823 0
M  V30 6021 H 549.819 2.88144 0.959527 0
M  V30 6022 H 547.404 1.43686 0.409217 0
M  V30 6023 H 549.286 2.51098 3.3842 0
M  V30 6024 H 547.961 1.4119 2.91285 0
M  V30 6025 H 546.868 3.35635 1.65227 0
M  V30 6026 H 548.201 4.40719 2.19152 0
M  V30 6027 N 549.853 -0.472356 1.50355 0
M  V30 6028 C 551.083 -1.24603 1.64796 0
M  V30 6029 C 551.491 -1.86297 0.330156 0
M  V30 6030 O 550.834 -1.69934 -0.697728 0
M  V30 6031 C 550.896 -2.39578 2.68035 0
M  V30 6032 C 550.56 -1.98531 4.11624 0
M  V30 6033 C 551.557 -1.50856 4.97532 0
M  V30 6034 C 549.242 -2.0729 4.57532 0
M  V30 6035 C 551.236 -1.12481 6.27397 0
M  V30 6036 C 548.923 -1.68527 5.87403 0
M  V30 6037 C 549.921 -1.212 6.7216 0
M  V30 6038 O 549.609 -0.829728 7.99607 0
M  V30 6039 H 549.341 -0.383035 0.55701 0
M  V30 6040 H 551.895 -0.570392 1.97321 0
M  V30 6041 H 550.125 -3.10309 2.30749 0
M  V30 6042 H 551.814 -3.01544 2.71709 0
M  V30 6043 H 552.58 -1.43511 4.63281 0
M  V30 6044 H 548.459 -2.43076 3.91708 0
M  V30 6045 H 552.003 -0.754698 6.93506 0
M  V30 6046 H 547.9 -1.7553 6.21176 0
M  V30 6047 H 548.668 -0.958689 8.12866 0
M  V30 6048 N 551.331 -1.39911 -0.725443 0
M  V30 6049 C 552.742 -1.33599 -1.30415 0
M  V30 6050 C 553.093 -0.00481792 -1.96199 0
M  V30 6051 O 552.218 0.897275 -1.96921 0
M  V30 6052 C 552.813 -2.41965 -2.37146 0
M  V30 6053 C 551.372 -2.39144 -2.90667 0
M  V30 6054 C 550.519 -2.23355 -1.64341 0
M  V30 6055 H 553.47 -1.4986 -0.522267 0
M  V30 6056 H 553.491 -2.09304 -3.17761 0
M  V30 6057 H 553.003 -3.38837 -1.89238 0
M  V30 6058 H 551.104 -1.4594 -3.4283 0
M  V30 6059 H 551.217 -3.34362 -3.43131 0
M  V30 6060 H 549.581 -1.70696 -1.89037 0
M  V30 6061 H 550.364 -3.2221 -1.18471 0
M  V30 6062 N 552.809 0.956637 -1.25245 0
M  V30 6063 C 553.759 2.03841 -1.02141 0
M  V30 6064 C 554.743 1.60848 0.0410058 0
M  V30 6065 O 555.935 1.76142 -0.174084 0
M  V30 6066 C 553.064 3.37282 -0.639963 0
M  V30 6067 C 552.15 3.86805 -1.73903 0
M  V30 6068 N 552.541 4.09143 -2.97381 0
M  V30 6069 C 550.839 4.15574 -1.61909 0
M  V30 6070 C 551.54 4.49923 -3.68707 0
M  V30 6071 N 550.516 4.55737 -2.96318 0
M  V30 6072 H 554.318 2.19102 -1.95886 0
M  V30 6073 H 551.832 1.1413 -1.15534 0
M  V30 6074 H 553.829 4.14403 -0.455643 0
M  V30 6075 H 552.489 3.23401 0.29018 0
M  V30 6076 H 553.5 3.96275 -3.33447 0
M  V30 6077 H 550.177 4.10566 -0.757764 0
M  V30 6078 H 551.567 4.75526 -4.74684 0
M  V30 6079 N 554.287 1.06798 1.15896 0
M  V30 6080 C 555.534 0.787767 1.86549 0
M  V30 6081 C 555.862 -0.685959 1.82002 0
M  V30 6082 O 555.117 -1.5188 1.23414 0
M  V30 6083 C 555.416 1.23414 3.35416 0
M  V30 6084 C 555.082 2.71285 3.6016 0
M  V30 6085 C 553.744 3.11676 3.66622 0
M  V30 6086 C 556.096 3.6676 3.7032 0
M  V30 6087 C 553.424 4.4637 3.8075 0
M  V30 6088 C 555.776 5.01209 3.8597 0
M  V30 6089 C 554.44 5.41229 3.90676 0
M  V30 6090 H 553.71 0.288264 0.682631 0
M  V30 6091 H 556.357 1.338 1.37003 0
M  V30 6092 H 554.662 0.60319 3.87129 0
M  V30 6093 H 556.359 0.994298 3.88477 0
M  V30 6094 H 552.949 2.39015 3.55767 0
M  V30 6095 H 557.133 3.36685 3.64633 0
M  V30 6096 H 552.389 4.76855 3.82648 0
M  V30 6097 H 556.563 5.75067 3.92773 0
M  V30 6098 H 554.19 6.45602 4.01375 0
M  V30 6099 N 555.766 -1.3263 0.851289 0
M  V30 6100 C 556.991 -2.02097 0.466006 0
M  V30 6101 C 557.416 -1.63574 -0.928709 0
M  V30 6102 O 556.774 -0.834665 -1.60944 0
M  V30 6103 C 556.822 -3.55425 0.608737 0
M  V30 6104 O 555.926 -4.10827 -0.359878 0
M  V30 6105 H 555.267 -0.636911 0.187724 0
M  V30 6106 H 557.797 -1.69253 1.14955 0
M  V30 6107 H 557.807 -4.04986 0.495006 0
M  V30 6108 H 556.482 -3.82806 1.62581 0
M  V30 6109 H 555.059 -3.72349 -0.202666 0
M  V30 6110 N 557.244 -0.608902 -1.45362 0
M  V30 6111 C 558.194 0.130616 -2.27626 0
M  V30 6112 C 559.178 0.837323 -1.37396 0
M  V30 6113 O 560.37 0.727096 -1.61376 0
M  V30 6114 C 557.499 1.12646 -3.24293 0
M  V30 6115 C 556.585 0.42052 -4.2201 0
M  V30 6116 N 556.976 -0.538569 -5.02925 0
M  V30 6117 C 555.274 0.667901 -4.40971 0
M  V30 6118 C 555.975 -0.953625 -5.7383 0
M  V30 6119 N 554.951 -0.297097 -5.42788 0
M  V30 6120 H 558.753 -0.605996 -2.87585 0
M  V30 6121 H 556.267 -0.432672 -1.5653 0
M  V30 6122 H 558.264 1.67066 -3.81961 0
M  V30 6123 H 556.924 1.86361 -2.65894 0
M  V30 6124 H 557.935 -0.915375 -5.09746 0
M  V30 6125 H 554.612 1.38963 -3.93695 0
M  V30 6126 H 556.002 -1.74473 -6.48852 0
M  V30 6127 N 558.722 1.53707 -0.348139 0
M  V30 6128 C 560.138 1.596 0.00361134 0
M  V30 6129 C 560.338 1.36394 1.4832 0
M  V30 6130 O 559.394 1.16046 2.24253 0
M  V30 6131 C 560.707 2.97512 -0.436682 0
M  V30 6132 C 562.255 3.10568 -0.389416 0
M  V30 6133 C 562.73 4.50866 -0.805249 0
M  V30 6134 N 564.221 4.56929 -0.759616 0
M  V30 6135 C 564.956 5.63643 -1.05327 0
M  V30 6136 N 564.452 6.78189 -1.41531 0
M  V30 6137 N 566.245 5.5354 -0.977207 0
M  V30 6138 H 558.396 1.67044 -1.31187 0
M  V30 6139 H 560.659 0.782559 -0.535075 0
M  V30 6140 H 560.365 3.19575 -1.46849 0
M  V30 6141 H 560.239 3.76742 0.185744 0
M  V30 6142 H 562.626 2.88226 0.633228 0
M  V30 6143 H 562.707 2.33387 -1.04711 0
M  V30 6144 H 562.351 4.73943 -1.82593 0
M  V30 6145 H 562.281 5.26452 -0.124989 0
M  V30 6146 H 564.772 3.74675 -0.49265 0
M  V30 6147 H 565.085 7.55541 -1.62411 0
M  V30 6148 H 563.43 6.79624 -1.45381 0
M  V30 6149 H 566.621 4.62932 -0.693675 0
M  V30 6150 H 566.794 6.36614 -1.2094 0
M  V30 6151 N 560.2 0.0768682 1.57412 0
M  V30 6152 C 561.611 -0.455037 1.8107 0
M  V30 6153 C 561.962 -1.69323 0.991162 0
M  V30 6154 O 561.087 -2.15328 0.215156 0
M  V30 6155 C 561.682 -0.832316 3.28417 0
M  V30 6156 C 560.241 -1.30906 3.52903 0
M  V30 6157 C 559.388 -0.296714 2.75708 0
M  V30 6158 H 562.339 0.302514 1.5579 0
M  V30 6159 H 562.36 -1.69333 3.40744 0
M  V30 6160 H 561.872 0.0690532 3.88039 0
M  V30 6161 H 559.973 -2.22875 2.98592 0
M  V30 6162 H 560.086 -1.28348 4.61588 0
M  V30 6163 H 558.45 -0.775059 2.42621 0
M  V30 6164 H 559.233 0.597015 3.38069 0
M  V30 6165 N 561.678 -1.56367 -0.196722 0
M  V30 6166 C 562.903 -1.84991 -0.937714 0
M  V30 6167 C 563.328 -0.660244 -1.76132 0
M  V30 6168 O 562.686 0.390967 -1.77034 0
M  V30 6169 C 562.734 -3.11828 -1.81096 0
M  V30 6170 O 561.838 -2.92266 -2.90955 0
M  V30 6171 H 561.179 -0.609193 -0.264159 0
M  V30 6172 H 563.709 -2.03595 -0.202529 0
M  V30 6173 H 563.719 -3.42579 -2.21594 0
M  V30 6174 H 562.394 -3.98037 -1.2058 0
M  V30 6175 H 560.971 -2.72809 -2.54224 0
M  V30 6176 N 563.156 0.464375 -1.50603 0
M  V30 6177 C 564.384 1.23907 -1.65695 0
M  V30 6178 C 564.799 1.85658 -0.343027 0
M  V30 6179 O 564.156 1.69529 0.675739 0
M  V30 6180 C 564.207 2.3429 -2.75301 0
M  V30 6181 O 563.928 1.7507 -4.01599 0
M  V30 6182 C 565.429 3.25051 -3.01424 0
M  V30 6183 H 562.649 0.374485 -0.556778 0
M  V30 6184 H 565.193 0.55353 -1.96866 0
M  V30 6185 H 563.348 2.98607 -2.46804 0
M  V30 6186 H 563.762 2.47812 -4.62266 0
M  V30 6187 H 565.236 3.98699 -3.81763 0
M  V30 6188 H 565.713 3.84227 -2.12758 0
M  V30 6189 H 566.319 2.66463 -3.31477 0
M  V30 6190 N 564.634 1.40294 0.718013 0
M  V30 6191 C 565.564 1.43118 1.84498 0
M  V30 6192 C 566.545 0.292403 1.67568 0
M  V30 6193 O 567.73 0.500675 1.87635 0
M  V30 6194 C 564.86 1.29065 3.22427 0
M  V30 6195 C 563.814 2.40521 3.54025 0
M  V30 6196 C 563.14 2.11546 4.91073 0
M  V30 6197 C 564.44 3.82859 3.55269 0
M  V30 6198 H 566.134 2.37432 1.82391 0
M  V30 6199 H 563.68 1.14283 0.87609 0
M  V30 6200 H 565.633 1.29658 4.00957 0
M  V30 6201 H 564.357 0.312271 3.25104 0
M  V30 6202 H 563.016 2.39173 2.77834 0
M  V30 6203 H 562.664 1.12104 4.90348 0
M  V30 6204 H 562.364 2.86216 5.1318 0
M  V30 6205 H 563.888 2.13817 5.71939 0
M  V30 6206 H 565.302 3.86044 4.23843 0
M  V30 6207 H 563.699 4.57029 3.88902 0
M  V30 6208 H 564.769 4.12617 2.54706 0
M  V30 6209 N 566.112 -0.949982 1.2575 0
M  V30 6210 C 567.044 -2.05088 1.02331 0
M  V30 6211 C 568.057 -1.62795 -0.0133247 0
M  V30 6212 O 569.246 -1.77067 0.225759 0
M  V30 6213 C 566.346 -3.34794 0.525924 0
M  V30 6214 C 565.519 -4.05903 1.62978 0
M  V30 6215 C 564.578 -5.1388 1.13196 0
M  V30 6216 O 563.604 -5.39072 1.82729 0
M  V30 6217 N 564.806 -5.80495 -0.0242926 0
M  V30 6218 H 567.571 -2.25747 1.97125 0
M  V30 6219 H 565.132 -1.11886 1.17018 0
M  V30 6220 H 567.124 -4.04312 0.177263 0
M  V30 6221 H 565.694 -3.10872 -0.328202 0
M  V30 6222 H 564.914 -3.3042 2.1498 0
M  V30 6223 H 566.202 -4.50166 2.37124 0
M  V30 6224 H 565.6 -5.62454 -0.605184 0
M  V30 6225 H 564.157 -6.51043 -0.313947 0
M  V30 6226 N 567.59 -1.07411 -1.15328 0
M  V30 6227 C 568.553 -0.698914 -2.18284 0
M  V30 6228 C 569.553 0.261149 -1.58665 0
M  V30 6229 O 570.743 0.0420277 -1.74149 0
M  V30 6230 C 567.875 -0.0302427 -3.40887 0
M  V30 6231 H 569.068 -1.61045 -2.52991 0
M  V30 6232 H 566.621 -0.870724 -1.298 0
M  V30 6233 H 567.356 0.893505 -3.11748 0
M  V30 6234 H 567.141 -0.720759 -3.85419 0
M  V30 6235 H 568.631 0.21759 -4.17033 0
M  V30 6236 N 569.068 1.32177 -0.85831 0
M  V30 6237 C 570.031 2.27086 -0.310588 0
M  V30 6238 C 571.031 1.51751 0.531806 0
M  V30 6239 O 572.221 1.70794 0.34279 0
M  V30 6240 C 569.353 3.36266 0.560179 0
M  V30 6241 H 570.546 2.77045 -1.1483 0
M  V30 6242 H 568.099 1.42911 -0.632942 0
M  V30 6243 H 568.834 2.9158 1.41956 0
M  V30 6244 H 568.619 3.92077 -0.0428473 0
M  V30 6245 H 570.109 4.06974 0.936056 0
M  V30 6246 N 570.547 0.616602 1.45037 0
M  V30 6247 C 571.772 0.120192 2.07051 0
M  V30 6248 C 572.197 -1.19008 1.45666 0
M  V30 6249 O 571.555 -1.7267 0.552692 0
M  V30 6250 C 571.603 0.00354901 3.606 0
M  V30 6251 O 570.707 -1.04431 3.98958 0
M  V30 6252 H 570.048 0.0781599 0.659384 0
M  V30 6253 H 572.578 0.849167 1.86146 0
M  V30 6254 H 572.588 -0.191754 4.07549 0
M  V30 6255 H 571.263 0.960239 4.04663 0
M  V30 6256 H 569.84 -0.824749 3.63665 0
M  V30 6257 N 572.025 -1.5352 0.356285 0
M  V30 6258 C 573.253 -2.05534 -0.237328 0
M  V30 6259 C 573.668 -1.23043 -1.43199 0
M  V30 6260 O 573.025 -0.268821 -1.80509 0
M  V30 6261 C 573.076 -3.55791 -0.639933 0
M  V30 6262 O 572.797 -4.35154 0.507233 0
M  V30 6263 C 574.298 -4.24027 -1.29292 0
M  V30 6264 H 571.518 -0.669585 -0.0435572 0
M  V30 6265 H 574.062 -1.97988 0.511963 0
M  V30 6266 H 572.217 -3.63518 -1.33915 0
M  V30 6267 H 572.631 -5.24178 0.18375 0
M  V30 6268 H 574.105 -5.30509 -1.52527 0
M  V30 6269 H 574.582 -3.77166 -2.25039 0
M  V30 6270 H 575.188 -4.20527 -0.63539 0
M  V30 6271 N 573.503 -0.0852151 -1.57369 0
M  V30 6272 C 574.914 0.445428 -1.81309 0
M  V30 6273 C 575.265 1.68795 -1.00013 0
M  V30 6274 O 574.39 2.15211 -0.226573 0
M  V30 6275 C 574.985 0.814887 -3.28854 0
M  V30 6276 C 573.544 1.29032 -3.53592 0
M  V30 6277 C 572.691 0.282089 -2.75861 0
M  V30 6278 H 575.642 -0.310771 -1.55627 0
M  V30 6279 H 575.663 1.67524 -3.41637 0
M  V30 6280 H 575.175 -0.0896309 -3.87996 0
M  V30 6281 H 573.276 2.21289 -2.9977 0
M  V30 6282 H 573.389 1.25898 -4.62262 0
M  V30 6283 H 571.753 0.762182 -2.43029 0
M  V30 6284 H 572.536 -0.614936 -3.37748 0
M  V30 6285 N 574.981 1.5647 0.188427 0
M  V30 6286 C 575.913 1.91611 1.25769 0
M  V30 6287 C 576.926 0.807436 1.41366 0
M  V30 6288 O 578.115 1.08586 1.41673 0
M  V30 6289 C 575.215 2.13874 2.6289 0
M  V30 6290 C 574.388 3.45047 2.68815 0
M  V30 6291 C 573.447 3.56342 3.87178 0
M  V30 6292 O 572.473 4.29109 3.73971 0
M  V30 6293 N 573.675 2.89924 5.02916 0
M  V30 6294 H 576.44 2.8393 0.959373 0
M  V30 6295 H 574.001 1.57418 0.378306 0
M  V30 6296 H 575.993 2.18713 3.4051 0
M  V30 6297 H 574.563 1.28022 2.85183 0
M  V30 6298 H 573.783 3.52017 1.77419 0
M  V30 6299 H 575.071 4.31395 2.6977 0
M  V30 6300 H 574.469 2.30644 5.16546 0
M  V30 6301 H 573.026 3.0038 5.78459 0
M  V30 6302 N 576.459 -0.456382 1.50847 0
M  V30 6303 C 577.422 -1.53493 1.70213 0
M  V30 6304 C 578.422 -1.50264 0.572481 0
M  V30 6305 O 579.612 -1.52623 0.839751 0
M  V30 6306 C 576.744 -2.93091 1.741 0
M  V30 6307 H 577.937 -1.37633 2.66453 0
M  V30 6308 H 575.49 -0.683776 1.4055 0
M  V30 6309 H 576.225 -3.14378 0.796063 0
M  V30 6310 H 576.01 -2.9684 2.5618 0
M  V30 6311 H 577.5 -3.71368 1.90987 0
M  V30 6312 N 577.937 -1.40673 -0.710563 0
M  V30 6313 C 578.847 -1.43663 -1.85467 0
M  V30 6314 C 579.863 -0.328721 -1.70867 0
M  V30 6315 O 581.039 -0.574098 -1.93044 0
M  V30 6316 C 578.104 -1.30226 -3.21313 0
M  V30 6317 C 577.165 -2.51204 -3.48131 0
M  V30 6318 C 576.398 -2.38398 -4.77495 0
M  V30 6319 O 576.621 -1.40048 -5.5294 0
M  V30 6320 O 575.555 -3.2787 -5.04762 0
M  V30 6321 H 579.381 -2.40156 -1.859 0
M  V30 6322 H 576.966 -1.22049 -0.861652 0
M  V30 6323 H 578.848 -1.2496 -4.02446 0
M  V30 6324 H 577.523 -0.368419 -3.21597 0
M  V30 6325 H 576.43 -2.62048 -2.66987 0
M  V30 6326 H 577.763 -3.43366 -3.52648 0
M  V30 6327 N 579.415 0.9433 -1.26252 0
M  V30 6328 C 580.325 2.07532 -1.09397 0
M  V30 6329 C 581.341 1.73977 -0.0280449 0
M  V30 6330 O 582.517 2.00067 -0.231337 0
M  V30 6331 C 579.582 3.39002 -0.726523 0
M  V30 6332 C 578.643 3.86353 -1.87163 0
M  V30 6333 C 577.876 5.11549 -1.52162 0
M  V30 6334 O 578.099 5.68834 -0.422385 0
M  V30 6335 O 577.033 5.53889 -2.35565 0
M  V30 6336 H 580.859 2.24658 -2.04359 0
M  V30 6337 H 578.444 1.05988 -1.05295 0
M  V30 6338 H 580.326 4.18 -0.534236 0
M  V30 6339 H 579.001 3.2312 0.193721 0
M  V30 6340 H 577.908 3.0831 -2.11886 0
M  V30 6341 H 579.241 4.06752 -2.77152 0
M  V30 6342 N 580.893 1.08022 1.14757 0
M  V30 6343 C 582.17 0.720386 1.81851 0
M  V30 6344 C 582.55 -0.796375 1.95502 0
M  V30 6345 O 581.898 -1.71339 1.51179 0
M  V30 6346 C 582.108 1.44273 3.17783 0
M  V30 6347 C 583.456 1.59925 3.93331 0
M  V30 6348 O 584.48 1.40407 3.2736 0
M  V30 6349 O 583.339 1.92096 5.11626 0
M  V30 6350 H 580.433 0.257142 0.786007 0
M  V30 6351 H 582.979 1.18155 1.21809 0
M  V30 6352 H 581.751 2.47618 3.02987 0
M  V30 6353 H 581.374 0.97279 3.85516 0
M  V30 6354 N 582.371 -1.3172 0.865308 0
M  V30 6355 C 583.617 -1.97559 0.483944 0
M  V30 6356 C 583.972 -1.67181 -0.95227 0
M  V30 6357 O 583.265 -0.955392 -1.66081 0
M  V30 6358 C 583.459 -3.5102 0.672283 0
M  V30 6359 C 583.288 -3.96312 2.12525 0
M  V30 6360 C 582.058 -4.22877 2.76591 0
M  V30 6361 C 584.256 -4.10596 3.09702 0
M  V30 6362 N 582.238 -4.5449 4.12689 0
M  V30 6363 C 583.609 -4.45867 4.30816 0
M  V30 6364 C 585.664 -3.92961 3.05755 0
M  V30 6365 C 584.367 -4.65344 5.48495 0
M  V30 6366 C 586.393 -4.13628 4.22688 0
M  V30 6367 C 585.755 -4.49227 5.42563 0
M  V30 6368 H 581.854 -0.74862 0.226035 0
M  V30 6369 H 584.438 -1.59336 1.11893 0
M  V30 6370 H 582.609 -3.88342 0.0669224 0
M  V30 6371 H 584.341 -4.03865 0.259765 0
M  V30 6372 H 581.096 -4.15343 2.27567 0
M  V30 6373 H 581.52 -4.74464 4.82921 0
M  V30 6374 H 586.162 -3.64531 2.14188 0
M  V30 6375 H 583.88 -4.92624 6.40584 0
M  V30 6376 H 587.466 -4.01474 4.21082 0
M  V30 6377 H 586.346 -4.64895 6.31539 0
M  V30 6378 N 583.85 -0.624285 -1.44708 0
M  V30 6379 C 585.077 -0.132919 -2.06473 0
M  V30 6380 C 585.493 1.18967 -1.46602 0
M  V30 6381 O 584.85 1.72824 -0.586341 0
M  V30 6382 C 584.901 -0.00465418 -3.615 0
M  V30 6383 O 584.622 -1.27494 -4.19138 0
M  V30 6384 C 586.123 0.516213 -4.40284 0
M  V30 6385 H 583.343 -0.0765201 -0.666623 0
M  V30 6386 H 585.887 -0.856751 -1.85688 0
M  V30 6387 H 584.042 0.669583 -3.8157 0
M  V30 6388 H 584.456 -1.11536 -5.12504 0
M  V30 6389 H 585.93 0.554994 -5.49203 0
M  V30 6390 H 586.407 1.5419 -4.11245 0
M  V30 6391 H 587.013 -0.124542 -4.25118 0
M  V30 6392 N 585.328 1.53329 -0.364422 0
M  V30 6393 C 586.568 2.0315 0.22572 0
M  V30 6394 C 586.932 1.24589 1.46087 0
M  V30 6395 O 588.133 1.64411 2.12656 0
M  V30 6396 C 586.404 3.53718 0.511663 0
M  V30 6397 S 587.963 4.25412 1.07564 0
M  V30 6398 H 584.781 0.70795 0.0657843 0
M  V30 6399 H 587.383 1.88811 -0.507019 0
M  V30 6400 H 586.087 4.08497 -0.394784 0
M  V30 6401 H 585.618 3.72217 1.27351 0
M  V30 6402 H 587.633 4.36486 2.35997 0
M  V30 6403 N 586.806 0.0935595 1.57322 0
M  V30 6404 C 588.034 -0.578934 1.98635 0
M  V30 6405 C 588.449 -1.61819 0.972626 0
M  V30 6406 O 587.806 -1.82461 -0.0379638 0
M  V30 6407 C 587.857 -1.22802 3.40003 0
M  V30 6408 O 587.578 -0.230334 4.37494 0
M  V30 6409 C 589.079 -1.98627 3.96311 0
M  V30 6410 H 586.299 -0.155324 0.652775 0
M  V30 6411 H 588.843 0.172393 2.03772 0
M  V30 6412 H 586.998 -1.93029 3.35885 0
M  V30 6413 H 587.412 -0.698649 5.19826 0
M  V30 6414 H 588.886 -2.39405 4.97382 0
M  V30 6415 H 589.363 -2.85151 3.34044 0
M  V30 6416 H 589.969 -1.3322 4.03897 0
M  V30 6417 N 588.284 -1.56567 -0.180126 0
M  V30 6418 C 589.533 -1.80685 -0.896426 0
M  V30 6419 C 589.846 -0.669335 -1.83791 0
M  V30 6420 O 591.052 -0.795209 -2.59593 0
M  V30 6421 C 589.508 -3.20132 -1.6445 0
M  V30 6422 C 589.116 -4.41727 -0.747088 0
M  V30 6423 C 590.86 -3.53549 -2.34955 0
M  V30 6424 C 588.767 -5.72195 -1.49489 0
M  V30 6425 H 587.697 -0.673758 -0.338477 0
M  V30 6426 H 590.348 -1.8289 -0.149467 0
M  V30 6427 H 588.73 -3.12218 -2.43589 0
M  V30 6428 H 589.904 -4.608 0.00671129 0
M  V30 6429 H 588.219 -4.16122 -0.152134 0
M  V30 6430 H 590.816 -4.48267 -2.91481 0
M  V30 6431 H 591.159 -2.78006 -3.09868 0
M  V30 6432 H 591.692 -3.62976 -1.62768 0
M  V30 6433 H 588.431 -6.50743 -0.788251 0
M  V30 6434 H 587.951 -5.57115 -2.22224 0
M  V30 6435 H 589.63 -6.1384 -2.04472 0
M  V30 6436 N 589.762 0.448376 -1.51087 0
M  V30 6437 C 590.692 1.55102 -1.74544 0
M  V30 6438 C 591.673 1.59357 -0.594932 0
M  V30 6439 O 592.858 1.75261 -0.836491 0
M  V30 6440 C 589.988 2.93268 -1.86041 0
M  V30 6441 C 588.942 3.03877 -3.01402 0
M  V30 6442 C 588.268 4.43914 -2.98068 0
M  V30 6443 C 589.568 2.7898 -4.41551 0
M  V30 6444 H 591.262 1.35724 -2.66869 0
M  V30 6445 H 588.808 0.651498 -1.28419 0
M  V30 6446 H 590.761 3.70356 -2.01034 0
M  V30 6447 H 589.485 3.13853 -0.903548 0
M  V30 6448 H 588.144 2.29227 -2.86096 0
M  V30 6449 H 587.792 4.6145 -2.00182 0
M  V30 6450 H 587.492 4.51944 -3.75527 0
M  V30 6451 H 589.016 5.22991 -3.1514 0
M  V30 6452 H 590.43 3.45805 -4.57265 0
M  V30 6453 H 588.827 2.98431 -5.20633 0
M  V30 6454 H 589.897 1.74663 -4.5235 0
M  V30 6455 O 591.279 1.50177 0.59407 0
M  V30 6456 H 591.97 1.48064 1.24887 0
M  V30 END ATOM
M  V30 BEGIN BOND
M  V30 END BOND
M  V30 END CTAB
M  END
$$$$
