drugbank_target|O43252 Bifunctional 3'-phosphoadenosine 5'-phosphosulfate synthase 1 (DB02661; DB03708; DB09462)
 OpenBabel12092120273D

  0  0  0     0  0            999 V3000
M  V30 BEGIN CTAB
M  V30 COUNTS 9896 10014 0 0 0
M  V30 BEGIN ATOM
M  V30 1 H -0.908 1.98254 -0.117106 0
M  V30 2 N 0 1.576 0 0
M  V30 3 C 0.933 2.03868 1.02534 0
M  V30 4 C 1.911 0.928543 1.3348 0
M  V30 5 O 3.095 1.19667 1.45644 0
M  V30 6 C 0.222 2.43627 2.35294 0
M  V30 7 C -0.732 3.65373 2.2001 0
M  V30 8 S 0.101 5.13292 1.52614 0
M  V30 9 C 1.257 5.56322 2.86805 0
M  V30 10 H 1.49 2.90518 0.631377 0
M  V30 11 H -0.977 1.52953 0.210867 0
M  V30 12 H 0.981 2.67203 3.11629 0
M  V30 13 H -0.358 1.57376 2.7183 0
M  V30 14 H -1.165 3.90944 3.18086 0
M  V30 15 H -1.563 3.418 1.51819 0
M  V30 16 H 0.729 5.58782 3.83104 0
M  V30 17 H 1.672 6.56266 2.65933 0
M  V30 18 H 2.08 4.83886 2.90714 0
M  V30 19 N 1.4781 -0.272755 1.55222 0
M  V30 20 C 2.3881 -1.35918 1.91216 0
M  V30 21 C 3.4041 -1.54026 0.809436 0
M  V30 22 O 4.5801 -1.68148 1.10852 0
M  V30 23 C 1.6451 -2.69834 2.17693 0
M  V30 24 C 0.7061 -2.6047 3.41253 0
M  V30 25 C -0.0609 -3.88 3.66458 0
M  V30 26 O 0.1621 -4.88693 2.94169 0
M  V30 27 O -0.9039 -3.88189 4.59992 0
M  V30 28 H 2.9221 -1.0839 2.83699 0
M  V30 29 H 0.5071 -0.471301 1.41771 0
M  V30 30 H 2.3891 -3.49017 2.36147 0
M  V30 31 H 1.0641 -2.97148 1.28392 0
M  V30 32 H -0.0289 -1.79663 3.28134 0
M  V30 33 H 1.3041 -2.38106 4.30774 0
M  V30 34 N 2.9562 -1.48159 -0.537278 0
M  V30 35 C 4.2052 -1.5506 -1.28993 0
M  V30 36 C 4.5182 -0.226211 -1.94288 0
M  V30 37 O 5.7242 -0.173395 -2.70946 0
M  V30 38 C 4.1802 -2.73429 -2.34018 0
M  V30 39 C 3.7882 -4.1248 -1.74825 0
M  V30 40 C 5.5322 -2.89638 -3.10339 0
M  V30 41 C 3.4392 -5.22121 -2.77747 0
M  V30 42 H 2.3692 -0.577231 -0.485098 0
M  V30 43 H 5.0202 -1.74478 -0.568317 0
M  V30 44 H 3.4022 -2.47431 -3.09182 0
M  V30 45 H 4.5762 -4.48466 -1.05899 0
M  V30 46 H 2.8912 -4.01327 -1.11022 0
M  V30 47 H 5.4882 -3.68718 -3.87235 0
M  V30 48 H 5.8312 -1.9882 -3.65754 0
M  V30 49 H 6.3642 -3.15502 -2.42288 0
M  V30 50 H 3.1032 -6.1488 -2.27161 0
M  V30 51 H 2.6232 -4.90631 -3.45024 0
M  V30 52 H 4.3022 -5.49924 -3.4087 0
M  V30 53 N 4.4343 0.785586 -1.36625 0
M  V30 54 C 5.8453 1.36101 -1.27803 0
M  V30 55 C 6.1963 1.96035 0.0804875 0
M  V30 56 O 5.3213 1.92834 0.982042 0
M  V30 57 C 5.9163 2.47442 -2.31426 0
M  V30 58 C 4.4753 3.00789 -2.26281 0
M  V30 59 C 3.6223 1.73896 -2.15999 0
M  V30 60 H 6.5733 0.586928 -1.47448 0
M  V30 61 H 6.5943 3.2656 -1.95291 0
M  V30 62 H 6.1063 2.03791 -3.30289 0
M  V30 63 H 4.2073 3.48851 -1.30896 0
M  V30 64 H 4.3203 3.57343 -3.19128 0
M  V30 65 H 2.6843 1.9628 -1.62316 0
M  V30 66 H 3.4673 1.32368 -3.16755 0
M  V30 67 N 5.9124 1.20967 1.01018 0
M  V30 68 C 7.1604 1.02172 1.74371 0
M  V30 69 C 7.4814 -0.446414 1.89821 0
M  V30 70 O 6.7514 -1.32234 1.44537 0
M  V30 71 H 5.3314 0.375066 0.646014 0
M  V30 72 H 7.9934 1.52187 1.21758 0
M  V30 73 H 7.0894 1.48538 2.74487 0
M  V30 74 N 7.3905 -1.2043 1.01659 0
M  V30 75 C 8.6155 -1.94318 0.724942 0
M  V30 76 C 9.0405 -1.74266 -0.708034 0
M  V30 77 O 8.3985 -1.03694 -1.48719 0
M  V30 78 C 8.4465 -3.44486 1.06591 0
M  V30 79 O 7.5505 -4.12017 0.177599 0
M  V30 80 H 6.8915 -0.60708 0.26898 0
M  V30 81 H 9.4215 -1.52861 1.35995 0
M  V30 82 H 9.4315 -3.95106 1.01762 0
M  V30 83 H 8.1065 -3.58404 2.10997 0
M  V30 84 H 6.6835 -3.71821 0.283421 0
M  V30 85 N 8.8686 -0.792821 -1.36206 0
M  V30 86 C 9.7986 -0.207853 -2.32573 0
M  V30 87 C 10.7796 0.659055 -1.56813 0
M  V30 88 O 11.9646 0.592176 -1.84951 0
M  V30 89 C 9.0946 0.655449 -3.41059 0
M  V30 90 C 8.0486 -0.111842 -4.27854 0
M  V30 91 C 7.3746 0.872274 -5.27537 0
M  V30 92 C 8.6746 -1.30299 -5.05786 0
M  V30 93 H 10.3686 -1.01294 -2.81744 0
M  V30 94 H 7.9146 -0.48854 -1.3546 0
M  V30 95 H 9.8676 1.07464 -4.07467 0
M  V30 96 H 8.5916 1.49328 -2.90463 0
M  V30 97 H 7.2506 -0.512053 -3.63006 0
M  V30 98 H 6.8986 1.70523 -4.73214 0
M  V30 99 H 6.5986 0.363291 -5.86476 0
M  V30 100 H 8.1226 1.28996 -5.96818 0
M  V30 101 H 9.5366 -0.959379 -5.65216 0
M  V30 102 H 7.9336 -1.7455 -5.74154 0
M  V30 103 H 9.0036 -2.09663 -4.37229 0
M  V30 104 N 10.3467 1.47872 -0.545128 0
M  V30 105 C 11.5867 2.04391 -0.0187854 0
M  V30 106 C 11.9507 1.41162 1.30144 0
M  V30 107 O 13.1517 1.88656 1.91474 0
M  V30 108 C 11.4227 3.57299 0.0850867 0
M  V30 109 S 12.9817 4.35221 0.559302 0
M  V30 110 H 9.7997 0.710737 -0.0193301 0
M  V30 111 H 12.4017 1.81395 -0.729125 0
M  V30 112 H 11.1057 4.00847 -0.880351 0
M  V30 113 H 10.6367 3.84773 0.819348 0
M  V30 114 H 12.6517 4.61571 1.82118 0
M  V30 115 N 11.8248 0.280983 1.55075 0
M  V30 116 C 12.7718 -0.603937 2.22758 0
M  V30 117 C 13.7418 -1.1452 1.20309 0
M  V30 118 O 14.9268 -1.19343 1.48869 0
M  V30 119 C 12.0668 -1.77947 2.95684 0
M  V30 120 C 11.1798 -1.2715 4.12864 0
M  V30 121 C 10.3148 -2.4093 4.7342 0
M  V30 122 C 9.3538 -1.87165 5.82783 0
M  V30 123 N 8.4908 -2.94441 6.37377 0
M  V30 124 H 13.3308 -0.020124 2.97993 0
M  V30 125 H 10.8678 0.00183425 1.471 0
M  V30 126 H 12.8258 -2.47055 3.36184 0
M  V30 127 H 11.4558 -2.33522 2.22861 0
M  V30 128 H 10.5078 -0.473331 3.77444 0
M  V30 129 H 11.8198 -0.837751 4.91715 0
M  V30 130 H 10.9738 -3.18021 5.1667 0
M  V30 131 H 9.7128 -2.87623 3.93859 0
M  V30 132 H 8.7178 -1.08556 5.38976 0
M  V30 133 H 9.9428 -1.41401 6.64216 0
M  V30 134 H 7.8888 -3.40505 5.60707 0
M  V30 135 H 7.8058 -2.55501 7.11516 0
M  V30 136 H 9.0738 -3.71489 6.85285 0
M  V30 137 N 13.3029 -1.57598 0.00835791 0
M  V30 138 C 14.2499 -2.08945 -0.980346 0
M  V30 139 C 15.2199 -0.986738 -1.33614 0
M  V30 140 O 16.4049 -1.25968 -1.43306 0
M  V30 141 C 13.5449 -2.60425 -2.26435 0
M  V30 142 C 12.6579 -3.84628 -1.96685 0
M  V30 143 C 11.7929 -4.24579 -3.19228 0
M  V30 144 C 10.8319 -5.41596 -2.85202 0
M  V30 145 N 9.9689 -5.768 -4.00307 0
M  V30 146 H 14.8089 -2.93148 -0.535551 0
M  V30 147 H 12.3459 -1.44912 -0.252776 0
M  V30 148 H 14.3039 -2.88354 -3.01509 0
M  V30 149 H 12.9339 -1.79083 -2.68568 0
M  V30 150 H 11.9859 -3.63556 -1.11942 0
M  V30 151 H 13.2979 -4.69796 -1.67611 0
M  V30 152 H 12.4519 -4.53834 -4.02641 0
M  V30 153 H 11.1909 -3.38137 -3.51447 0
M  V30 154 H 10.1959 -5.12056 -2.00198 0
M  V30 155 H 11.4209 -6.29721 -2.54222 0
M  V30 156 H 9.3669 -4.93316 -4.32407 0
M  V30 157 H 9.2839 -6.5656 -3.74786 0
M  V30 158 H 10.5519 -6.10652 -4.84484 0
M  V30 159 N 14.781 0.264519 -1.55364 0
M  V30 160 C 16.027 0.99646 -1.76631 0
M  V30 161 C 16.36 1.85632 -0.570478 0
M  V30 162 O 15.635 1.89647 0.43175 0
M  V30 163 C 15.918 1.87187 -3.07625 0
M  V30 164 C 15.771 1.04138 -4.37579 0
M  V30 165 C 17.09 2.85749 -3.34717 0
M  V30 166 H 14.209 0.360841 -0.642622 0
M  V30 167 H 16.851 0.268218 -1.88097 0
M  V30 168 H 15.001 2.49279 -2.9798 0
M  V30 169 H 16.673 0.440517 -4.59192 0
M  V30 170 H 14.916 0.345115 -4.32425 0
M  V30 171 H 15.587 1.68729 -5.2558 0
M  V30 172 H 18.063 2.33793 -3.4421 0
M  V30 173 H 16.939 3.44136 -4.27623 0
M  V30 174 H 17.2 3.61311 -2.54768 0
M  V30 175 N 16.2591 1.48442 0.529413 0
M  V30 176 C 17.2061 1.63007 1.63394 0
M  V30 177 C 18.1761 0.47212 1.59249 0
M  V30 178 O 19.3611 0.695673 1.77666 0
M  V30 179 C 16.5011 1.6763 3.01653 0
M  V30 180 C 15.6141 2.94535 3.16027 0
M  V30 181 C 14.7491 2.90316 4.44849 0
M  V30 182 C 13.7881 4.11923 4.52754 0
M  V30 183 N 12.9251 4.05777 5.72965 0
M  V30 184 H 17.7651 2.5733 1.50285 0
M  V30 185 H 15.3021 1.27613 0.731656 0
M  V30 186 H 17.2601 1.68292 3.81751 0
M  V30 187 H 15.8901 0.76797 3.13532 0
M  V30 188 H 14.9421 3.03615 2.29177 0
M  V30 189 H 16.2541 3.84512 3.17729 0
M  V30 190 H 15.4081 2.89382 5.33238 0
M  V30 191 H 14.1471 1.98068 4.45668 0
M  V30 192 H 13.1521 4.13131 3.62771 0
M  V30 193 H 14.3771 5.0533 4.53672 0
M  V30 194 H 12.3231 3.16351 5.74681 0
M  V30 195 H 12.2401 4.8946 5.76164 0
M  V30 196 H 13.5081 4.08904 6.6364 0
M  V30 197 N 17.7372 -0.778329 1.37039 0
M  V30 198 C 18.6672 -1.90546 1.34962 0
M  V30 199 C 19.6482 -1.68681 0.219274 0
M  V30 200 O 20.8332 -1.89634 0.418624 0
M  V30 201 C 17.9632 -3.27734 1.14925 0
M  V30 202 C 16.9172 -3.64147 2.24902 0
M  V30 203 C 16.2432 -4.99806 1.89996 0
M  V30 204 C 17.5432 -3.71579 3.67051 0
M  V30 205 H 19.2372 -1.92541 2.29277 0
M  V30 206 H 16.7832 -0.924948 1.10366 0
M  V30 207 H 18.7362 -4.06215 1.12104 0
M  V30 208 H 17.4602 -3.26154 0.170631 0
M  V30 209 H 16.1192 -2.8797 2.26868 0
M  V30 210 H 15.7672 -4.94759 0.906796 0
M  V30 211 H 15.4672 -5.25139 2.63634 0
M  V30 212 H 16.9912 -5.80694 1.88749 0
M  V30 213 H 18.4052 -4.40227 3.67251 0
M  V30 214 H 16.8022 -4.08405 4.39688 0
M  V30 215 H 17.8722 -2.72404 4.01154 0
M  V30 216 N 19.2153 -1.21501 -1.00376 0
M  V30 217 C 20.4403 -1.05977 -1.78279 0
M  V30 218 C 20.8653 0.385994 -1.84097 0
M  V30 219 O 20.2233 1.27849 -1.28547 0
M  V30 220 C 20.2713 -1.66302 -3.19963 0
M  V30 221 O 19.3753 -0.909333 -4.0225 0
M  V30 222 H 18.7163 -0.372906 -0.549397 0
M  V30 223 H 21.2463 -1.6107 -1.26165 0
M  V30 224 H 21.2563 -1.70574 -3.70632 0
M  V30 225 H 19.9313 -2.71515 -3.15043 0
M  V30 226 H 18.5083 -0.941795 -3.60811 0
M  V30 227 N 20.6934 1.19889 -1.02296 0
M  V30 228 C 21.6414 2.24938 -0.592081 0
M  V30 229 C 22.6354 1.65257 0.372357 0
M  V30 230 O 23.8414 1.78371 0.241583 0
M  V30 231 H 20.2164 0.731787 -0.173182 0
M  V30 232 H 22.1874 2.58603 -1.48885 0
M  V30 233 C 20.9364 3.47668 0.047351 0
M  V30 234 H 20.2594 3.93875 -0.685772 0
M  V30 235 H 21.6994 4.22852 0.311862 0
M  V30 236 C 20.1584 3.11136 1.29212 0
M  V30 237 O 20.6884 3.2325 2.38479 0
M  V30 238 N 18.8944 2.65625 1.17863 0
M  V30 239 H 18.4414 2.55968 0.289493 0
M  V30 240 H 18.3994 2.41553 2.01245 0
M  V30 241 N 22.1715 0.800033 1.35784 0
M  V30 242 C 23.1195 0.193851 2.31791 0
M  V30 243 C 24.1135 -0.652744 1.56319 0
M  V30 244 O 25.3195 -0.546641 1.71499 0
M  V30 245 H 21.6945 0.04392 0.750716 0
M  V30 246 H 23.6655 1.01883 2.80468 0
M  V30 247 C 22.4145 -0.648338 3.41602 0
M  V30 248 H 21.7375 -0.00624665 3.998 0
M  V30 249 H 23.1775 -1.03898 4.11073 0
M  V30 250 C 21.6365 -1.8111 2.84079 0
M  V30 251 O 22.1665 -2.90825 2.77099 0
M  V30 252 N 20.3725 -1.62056 2.41218 0
M  V30 253 H 19.9195 -0.728123 2.47095 0
M  V30 254 H 19.8775 -2.40013 2.03079 0
M  V30 255 N 23.6496 -1.47581 0.552962 0
M  V30 256 C 24.6126 -2.28439 -0.186605 0
M  V30 257 C 25.6126 -1.36706 -0.84665 0
M  V30 258 O 26.8026 -1.59378 -0.703164 0
M  V30 259 C 23.9346 -3.16264 -1.2724 0
M  V30 260 H 25.1276 -2.95294 0.523609 0
M  V30 261 H 22.6806 -1.532 0.309745 0
M  V30 262 H 23.4156 -2.54091 -2.01514 0
M  V30 263 H 23.2006 -3.83769 -0.803968 0
M  V30 264 H 24.6906 -3.77198 -1.79196 0
M  V30 265 N 25.1277 -0.289203 -1.54924 0
M  V30 266 C 26.0597 0.625583 -2.20497 0
M  V30 267 C 27.0727 1.10667 -1.19402 0
M  V30 268 O 28.2617 1.02615 -1.46056 0
M  V30 269 C 25.3617 1.86702 -2.82835 0
M  V30 270 C 24.5347 1.5304 -4.09753 0
M  V30 271 C 23.5937 2.62576 -4.56005 0
M  V30 272 O 22.6197 2.28167 -5.21468 0
M  V30 273 N 23.8217 3.92901 -4.27328 0
M  V30 274 H 26.5867 0.0642801 -2.99631 0
M  V30 275 H 24.1477 -0.110896 -1.6152 0
M  V30 276 H 26.1397 2.59304 -3.10715 0
M  V30 277 H 24.7097 2.33702 -2.07611 0
M  V30 278 H 23.9297 0.637564 -3.8901 0
M  V30 279 H 25.2177 1.28072 -4.92418 0
M  V30 280 H 24.6157 4.23671 -3.74859 0
M  V30 281 H 23.1727 4.61837 -4.59946 0
M  V30 282 N 26.6058 1.57591 -0.0167156 0
M  V30 283 C 27.5538 2.10604 0.987353 0
M  V30 284 C 28.5478 1.02977 1.34507 0
M  V30 285 O 29.7538 1.21425 1.32875 0
M  V30 286 H 26.1288 0.672695 0.336134 0
M  V30 287 H 28.0998 2.93925 0.514817 0
M  V30 288 C 26.8488 2.6382 2.26483 0
M  V30 289 H 26.1718 3.46278 1.99829 0
M  V30 290 H 27.6118 3.04573 2.94977 0
M  V30 291 C 26.0708 1.55992 2.9861 0
M  V30 292 O 26.6008 0.952521 3.90243 0
M  V30 293 N 24.8068 1.28335 2.60727 0
M  V30 294 H 24.3538 1.77914 1.86291 0
M  V30 295 H 24.3118 0.564115 3.09298 0
M  V30 296 N 28.0839 -0.256276 1.55502 0
M  V30 297 C 29.3299 -0.982884 1.78076 0
M  V30 298 C 29.6849 -1.83319 0.584109 0
M  V30 299 O 28.9779 -1.86875 -0.422877 0
M  V30 300 C 29.1719 -1.88432 3.03691 0
M  V30 301 C 29.0009 -1.12276 4.35459 0
M  V30 302 C 27.7709 -0.831647 4.98409 0
M  V30 303 C 29.9689 -0.504933 5.11815 0
M  V30 304 N 27.9509 -0.0450423 6.13883 0
M  V30 305 C 29.3219 0.146696 6.19826 0
M  V30 306 C 31.3769 -0.414455 4.96172 0
M  V30 307 C 30.0799 0.880103 7.13895 0
M  V30 308 C 32.1059 0.305398 5.90611 0
M  V30 309 C 31.4679 0.945701 6.98023 0
M  V30 310 H 27.5669 -0.341084 0.703694 0
M  V30 311 H 30.1509 -0.256909 1.92998 0
M  V30 312 H 28.3219 -2.58241 2.90114 0
M  V30 313 H 30.0539 -2.54579 3.14598 0
M  V30 314 H 26.8089 -1.14111 4.59647 0
M  V30 315 H 27.2329 0.336079 6.76165 0
M  V30 316 H 31.8749 -0.895163 4.13215 0
M  V30 317 H 29.5929 1.37244 7.9636 0
M  V30 318 H 33.1789 0.375946 5.80584 0
M  V30 319 H 32.0589 1.49383 7.6984 0
M  V30 320 N 29.562 -1.4872 -0.521534 0
M  V30 321 C 30.81 -1.56857 -1.27437 0
M  V30 322 C 31.131 -0.247982 -1.93417 0
M  V30 323 O 30.401 0.731151 -1.81744 0
M  V30 324 H 28.981 -0.577885 -0.473347 0
M  V30 325 H 31.643 -1.85233 -0.606205 0
M  V30 326 H 30.739 -2.35402 -2.0492 0
M  V30 327 N 31.0401 0.771051 -1.3745 0
M  V30 328 C 31.9731 1.89166 -1.27638 0
M  V30 329 C 32.9511 1.61842 -0.156782 0
M  V30 330 O 34.1351 1.85569 -0.331111 0
M  V30 331 C 31.2621 3.24405 -0.973621 0
M  V30 332 C 30.3081 3.70638 -2.1102 0
M  V30 333 S 31.1411 3.84228 -3.73 0
M  V30 334 C 32.2971 5.22313 -3.44876 0
M  V30 335 H 32.5301 1.972 -2.22485 0
M  V30 336 H 30.0631 0.932224 -1.23081 0
M  V30 337 H 32.0211 4.02514 -0.805766 0
M  V30 338 H 30.6821 3.14071 -0.0426279 0
M  V30 339 H 29.8751 4.68685 -1.85338 0
M  V30 340 H 29.4771 2.99632 -2.23822 0
M  V30 341 H 31.7691 6.07505 -2.99908 0
M  V30 342 H 32.7121 5.53008 -4.42253 0
M  V30 343 H 33.1201 4.90284 -2.79789 0
M  V30 344 N 32.5182 1.22032 0.997298 0
M  V30 345 C 33.4502 0.944263 2.08845 0
M  V30 346 C 34.4632 -0.0754663 1.62625 0
M  V30 347 O 35.6522 0.157994 1.77799 0
M  V30 348 C 32.7522 0.397723 3.36558 0
M  V30 349 C 31.9252 1.47362 4.11829 0
M  V30 350 C 30.9842 0.934951 5.17827 0
M  V30 351 O 30.0102 1.62016 5.45655 0
M  V30 352 N 31.2122 -0.245895 5.79979 0
M  V30 353 H 33.9772 1.88363 2.33109 0
M  V30 354 H 31.5382 1.12661 1.16272 0
M  V30 355 H 33.5302 0.0227771 4.04694 0
M  V30 356 H 32.1002 -0.446646 3.09393 0
M  V30 357 H 31.3202 2.02208 3.38386 0
M  V30 358 H 32.6082 2.19764 4.58891 0
M  V30 359 H 32.0062 -0.819475 5.59733 0
M  V30 360 H 30.5632 -0.562272 6.4937 0
M  V30 361 N 33.9963 -1.19345 1.0293 0
M  V30 362 C 35.4123 -1.41069 0.746446 0
M  V30 363 C 35.6123 -1.90078 -0.668776 0
M  V30 364 O 34.6683 -2.0778 -1.4347 0
M  V30 365 C 35.9813 -2.42141 1.78292 0
M  V30 366 C 37.5293 -2.55887 1.80252 0
M  V30 367 C 38.0043 -3.60214 2.8286 0
M  V30 368 N 39.4953 -3.67711 2.81679 0
M  V30 369 C 40.2303 -4.48128 3.57727 0
M  V30 370 N 39.7263 -5.32248 4.43491 0
M  V30 371 N 41.5193 -4.42782 3.46267 0
M  V30 372 H 33.6703 -0.858536 1.94275 0
M  V30 373 H 35.9333 -0.439541 0.839945 0
M  V30 374 H 35.6393 -2.13155 2.79746 0
M  V30 375 H 35.5133 -3.41323 1.60557 0
M  V30 376 H 37.9003 -2.84196 0.794757 0
M  V30 377 H 37.9813 -1.56858 2.02062 0
M  V30 378 H 37.6253 -3.32647 3.83807 0
M  V30 379 H 37.5553 -4.58895 2.58307 0
M  V30 380 H 40.0463 -3.07634 2.19476 0
M  V30 381 H 40.3593 -5.90729 4.98256 0
M  V30 382 H 38.7043 -5.31707 4.47564 0
M  V30 383 H 41.8953 -3.76107 2.78677 0
M  V30 384 H 42.0683 -5.05215 4.05785 0
M  V30 385 N 35.4744 -0.807222 -1.35358 0
M  V30 386 C 36.4374 -0.223665 -2.28106 0
M  V30 387 C 37.4374 0.589354 -1.4961 0
M  V30 388 O 38.6274 0.407745 -1.69361 0
M  V30 389 C 35.7594 0.688149 -3.33882 0
M  V30 390 H 36.9524 -1.04169 -2.81227 0
M  V30 391 H 34.5054 -0.577921 -1.45223 0
M  V30 392 H 35.2404 1.52984 -2.85948 0
M  V30 393 H 35.0254 0.10687 -3.91954 0
M  V30 394 H 36.5154 1.09075 -4.03104 0
M  V30 395 N 36.9525 1.47285 -0.560781 0
M  V30 396 C 38.1805 2.06855 -0.0430262 0
M  V30 397 C 38.5955 1.41291 1.25229 0
M  V30 398 O 37.9525 0.510648 1.7521 0
M  V30 399 C 38.0035 3.61178 0.152518 0
M  V30 400 O 37.7245 4.24285 -1.0915 0
M  V30 401 C 39.2255 4.37624 0.707145 0
M  V30 402 H 36.4455 0.669319 -0.0474652 0
M  V30 403 H 38.9895 1.89237 -0.77521 0
M  V30 404 H 37.1445 3.78298 0.834843 0
M  V30 405 H 37.5585 5.16868 -0.891482 0
M  V30 406 H 39.0325 5.46271 0.793244 0
M  V30 407 H 39.5095 4.04152 1.71923 0
M  V30 408 H 40.1155 4.25257 0.0604027 0
M  V30 409 N 38.4306 0.297415 1.54768 0
M  V30 410 C 39.3786 -0.596051 2.24833 0
M  V30 411 C 40.3726 -1.13992 1.25308 0
M  V30 412 O 41.5786 -1.09098 1.4317 0
M  V30 413 H 37.9536 -0.210814 0.721846 0
M  V30 414 H 39.9246 0.0174667 2.98395 0
M  V30 415 C 38.6736 -1.75818 2.99972 0
M  V30 416 H 37.9966 -1.3489 3.76357 0
M  V30 417 H 39.4366 -2.35949 3.52284 0
M  V30 418 C 37.8956 -2.66014 2.06732 0
M  V30 419 O 38.4256 -3.67009 1.63302 0
M  V30 420 N 36.6316 -2.33669 1.72763 0
M  V30 421 H 36.1786 -1.51586 2.08277 0
M  V30 422 H 36.1366 -2.94285 1.10652 0
M  V30 423 N 39.9087 -1.5758 0.0250728 0
M  V30 424 C 41.1547 -1.91917 -0.655413 0
M  V30 425 C 41.4877 -0.901433 -1.72011 0
M  V30 426 O 40.7627 0.0764069 -1.9435 0
M  V30 427 C 41.0457 -3.36751 -1.27558 0
M  V30 428 C 40.8987 -4.49258 -0.220719 0
M  V30 429 C 42.2177 -3.81469 -2.19475 0
M  V30 430 H 39.3367 -0.697925 -0.23679 0
M  V30 431 H 41.9787 -1.89825 0.0815036 0
M  V30 432 H 40.1287 -3.38664 -1.90365 0
M  V30 433 H 41.8007 -4.59478 0.409601 0
M  V30 434 H 40.0437 -4.31415 0.454264 0
M  V30 435 H 40.7147 -5.47618 -0.694175 0
M  V30 436 H 43.1907 -3.81266 -1.66659 0
M  V30 437 H 42.0667 -4.83512 -2.59822 0
M  V30 438 H 42.3277 -3.16744 -3.08424 0
M  V30 439 N 41.3868 0.248026 -1.55636 0
M  V30 440 C 42.6148 0.993808 -1.81469 0
M  V30 441 C 43.0298 1.78991 -0.60064 0
M  V30 442 O 42.3868 1.77345 0.430682 0
M  V30 443 C 42.4378 1.93258 -3.05506 0
M  V30 444 O 42.1588 1.16869 -4.22224 0
M  V30 445 C 43.6598 2.79444 -3.4413 0
M  V30 446 H 40.8798 0.292486 -0.603898 0
M  V30 447 H 43.4238 0.271253 -2.02693 0
M  V30 448 H 41.5788 2.60943 -2.86335 0
M  V30 449 H 41.9928 1.80359 -4.92515 0
M  V30 450 H 43.4668 3.41066 -4.34026 0
M  V30 451 H 43.9438 3.50499 -2.64665 0
M  V30 452 H 44.5498 2.17214 -3.65648 0
M  V30 453 N 42.8649 1.48995 0.513639 0
M  V30 454 C 44.0949 1.61297 1.291 0
M  V30 455 C 44.5029 0.278656 1.87137 0
M  V30 456 O 43.8459 -0.744325 1.67945 0
M  V30 457 C 43.9079 2.61326 2.46879 0
M  V30 458 C 43.5719 4.05993 2.09807 0
M  V30 459 C 44.5689 4.93183 1.64519 0
M  V30 460 C 42.2539 4.51642 2.19829 0
M  V30 461 C 44.2479 6.24056 1.2974 0
M  V30 462 C 41.9349 5.82532 1.84662 0
M  V30 463 C 42.9329 6.68562 1.3969 0
M  V30 464 O 42.6209 7.97014 1.04992 0
M  V30 465 H 42.3529 0.546236 0.39825 0
M  V30 466 H 44.9069 1.95673 0.62459 0
M  V30 467 H 43.1369 2.22104 3.16554 0
M  V30 468 H 44.8259 2.6329 3.08923 0
M  V30 469 H 45.5919 4.59147 1.56233 0
M  V30 470 H 41.4709 3.84855 2.53786 0
M  V30 471 H 45.0149 6.91161 0.945659 0
M  V30 472 H 40.9119 6.16099 1.92594 0
M  V30 473 H 41.6799 8.09913 1.18249 0
M  V30 474 N 44.343 -0.763751 1.37857 0
M  V30 475 C 45.275 -1.88664 1.30148 0
M  V30 476 C 46.288 -1.61365 0.215685 0
M  V30 477 O 47.477 -1.72134 0.472459 0
M  V30 478 C 44.577 -3.24075 0.991396 0
M  V30 479 C 43.75 -3.78958 2.18426 0
M  V30 480 C 42.809 -4.92862 1.8432 0
M  V30 481 O 41.835 -5.08027 2.56704 0
M  V30 482 N 43.037 -5.75071 0.792081 0
M  V30 483 H 45.802 -1.95791 2.26905 0
M  V30 484 H 43.363 -0.943226 1.31586 0
M  V30 485 H 45.355 -3.97804 0.743935 0
M  V30 486 H 43.925 -3.12399 0.112122 0
M  V30 487 H 43.145 -2.96913 2.59299 0
M  V30 488 H 44.433 -4.12357 2.98058 0
M  V30 489 H 43.831 -5.65375 0.191595 0
M  V30 490 H 42.388 -6.48991 0.60449 0
M  V30 491 N 45.8211 -1.22559 -0.990812 0
M  V30 492 C 46.7841 -0.998863 -2.0629 0
M  V30 493 C 47.7841 0.0354834 -1.60761 0
M  V30 494 O 48.9741 -0.203231 -1.7301 0
M  V30 495 C 46.1061 -0.509203 -3.37076 0
M  V30 496 H 47.2991 -1.95014 -2.27837 0
M  V30 497 H 44.8521 -1.04456 -1.16269 0
M  V30 498 H 45.5871 0.446335 -3.21214 0
M  V30 499 H 45.3721 -1.25547 -3.71457 0
M  V30 500 H 46.8621 -0.370888 -4.1595 0
M  V30 501 N 47.2992 1.18797 -1.03562 0
M  V30 502 C 48.2492 2.20161 -0.592724 0
M  V30 503 C 49.2332 1.56772 0.362133 0
M  V30 504 O 50.4252 1.76062 0.182009 0
M  V30 505 C 47.5542 3.43266 0.0481024 0
M  V30 506 C 46.6402 4.13786 -0.9296 0
M  V30 507 N 47.0312 4.60388 -2.09467 0
M  V30 508 C 45.3292 4.39572 -0.754499 0
M  V30 509 C 46.0302 5.14619 -2.71187 0
M  V30 510 N 45.0062 5.05826 -1.991 0
M  V30 511 H 48.8082 2.53877 -1.48066 0
M  V30 512 H 46.3222 1.34946 -0.903514 0
M  V30 513 H 48.3192 4.15136 0.383058 0
M  V30 514 H 46.9792 3.11048 0.931636 0
M  V30 515 H 47.9902 4.54999 -2.47379 0
M  V30 516 H 44.6672 4.17425 0.0793713 0
M  V30 517 H 46.0572 5.60917 -3.69895 0
M  V30 518 N 48.7773 0.814389 1.34928 0
M  V30 519 C 49.7273 0.202752 2.27097 0
M  V30 520 C 50.7113 -0.62799 1.48139 0
M  V30 521 O 51.9033 -0.483969 1.70255 0
M  V30 522 C 49.0323 -0.64146 3.37254 0
M  V30 523 C 48.1183 0.19944 4.23631 0
M  V30 524 N 48.5093 1.26628 4.89693 0
M  V30 525 C 46.8073 -0.0176433 4.45997 0
M  V30 526 C 47.5083 1.78031 5.53787 0
M  V30 527 N 46.4843 1.08553 5.32651 0
M  V30 528 H 50.2863 1.01893 2.75672 0
M  V30 529 H 47.8003 0.656332 1.48546 0
M  V30 530 H 49.7973 -1.09575 4.02243 0
M  V30 531 H 48.4573 -1.4559 2.9023 0
M  V30 532 H 49.4683 1.64901 4.90946 0
M  V30 533 H 46.1453 -0.800601 4.09752 0
M  V30 534 H 47.5353 2.67236 6.16469 0
M  V30 535 N 50.2554 -1.46986 0.568584 0
M  V30 536 C 51.5014 -2.02741 0.0488709 0
M  V30 537 C 51.8344 -1.44077 -1.30214 0
M  V30 538 O 51.1094 -0.600552 -1.84996 0
M  V30 539 C 51.3924 -3.60086 -0.032047 0
M  V30 540 C 51.2454 -4.29162 1.34686 0
M  V30 541 C 52.5644 -4.33838 -0.739798 0
M  V30 542 H 49.6834 -0.736749 0.0192338 0
M  V30 543 H 52.3254 -1.75289 0.733065 0
M  V30 544 H 50.4754 -3.83606 -0.61473 0
M  V30 545 H 52.1474 -4.16948 1.97362 0
M  V30 546 H 50.3904 -3.89073 1.91846 0
M  V30 547 H 51.0614 -5.37826 1.24285 0
M  V30 548 H 53.5374 -4.15378 -0.244939 0
M  V30 549 H 52.4134 -5.43537 -0.765406 0
M  V30 550 H 52.6744 -4.03875 -1.79827 0
M  V30 551 N 51.7335 -0.305618 -1.54608 0
M  V30 552 C 52.9585 0.307562 -2.05107 0
M  V30 553 C 53.3835 1.46385 -1.18123 0
M  V30 554 O 52.7415 1.8034 -0.186324 0
M  V30 555 C 52.7895 0.73704 -3.52987 0
M  V30 556 O 51.8935 1.84134 -3.6901 0
M  V30 557 H 51.2345 0.0589143 -0.661381 0
M  V30 558 H 53.7645 -0.448807 -1.99617 0
M  V30 559 H 53.7745 1.02459 -3.94925 0
M  V30 560 H 52.4495 -0.108773 -4.15758 0
M  V30 561 H 51.0265 1.55398 -3.38978 0
M  V30 562 N 53.2116 1.57565 -0.0334293 0
M  V30 563 C 54.6276 1.56297 0.322997 0
M  V30 564 C 54.8276 1.03945 1.7262 0
M  V30 565 O 53.8836 0.688109 2.42943 0
M  V30 566 C 55.1966 3.00232 0.167664 0
M  V30 567 C 56.7446 3.12078 0.240107 0
M  V30 568 C 57.2196 4.57859 0.113513 0
M  V30 569 N 58.7106 4.62887 0.170359 0
M  V30 570 C 59.4456 5.73319 0.0962517 0
M  V30 571 N 58.9416 6.92794 -0.0291881 0
M  V30 572 N 60.7346 5.61898 0.150551 0
M  V30 573 H 52.8856 1.89923 -0.950956 0
M  V30 574 H 55.1486 0.873824 -0.367608 0
M  V30 575 H 54.8546 3.42501 -0.799102 0
M  V30 576 H 54.7286 3.654 0.936083 0
M  V30 577 H 57.1156 2.69718 1.19733 0
M  V30 578 H 57.1966 2.49623 -0.558763 0
M  V30 579 H 56.8406 5.009 -0.840314 0
M  V30 580 H 56.7706 5.18299 0.931302 0
M  V30 581 H 59.2616 3.76954 0.26728 0
M  V30 582 H 59.5746 7.7276 -0.0789252 0
M  V30 583 H 57.9196 6.94971 -0.0640299 0
M  V30 584 H 61.1106 4.67448 0.246981 0
M  V30 585 H 61.2836 6.47938 0.0893365 0
M  V30 586 N 54.6897 -0.239769 1.55765 0
M  V30 587 C 55.6377 -1.31668 1.91745 0
M  V30 588 C 56.6317 -1.49462 0.797338 0
M  V30 589 O 57.8377 -1.50852 0.982021 0
M  V30 590 H 54.2127 -0.441048 0.609082 0
M  V30 591 H 56.1837 -0.985923 2.81642 0
M  V30 592 C 54.9327 -2.66368 2.2348 0
M  V30 593 H 54.2557 -2.53478 3.09175 0
M  V30 594 H 55.6957 -3.40578 2.52553 0
M  V30 595 C 54.1547 -3.20002 1.05359 0
M  V30 596 O 54.6847 -4.00538 0.305261 0
M  V30 597 N 52.8907 -2.78126 0.842292 0
M  V30 598 H 52.4377 -2.12742 1.45253 0
M  V30 599 H 52.3957 -3.14354 0.053652 0
M  V30 600 N 56.1678 -1.49265 -0.50573 0
M  V30 601 C 57.1148 -1.65585 -1.6078 0
M  V30 602 C 58.0848 -0.497396 -1.58478 0
M  V30 603 O 59.2698 -0.72385 -1.76536 0
M  V30 604 C 56.4098 -1.72408 -2.98948 0
M  V30 605 C 55.5228 -2.99525 -3.11301 0
M  V30 606 C 54.6578 -2.97356 -4.40174 0
M  V30 607 C 53.6968 -4.19074 -4.46143 0
M  V30 608 N 52.8338 -4.14841 -5.66437 0
M  V30 609 H 57.6738 -2.59688 -1.46172 0
M  V30 610 H 55.2108 -1.28761 -0.711261 0
M  V30 611 H 57.1688 -1.74344 -3.79025 0
M  V30 612 H 55.7988 -0.817753 -3.1227 0
M  V30 613 H 54.8508 -3.07222 -2.24318 0
M  V30 614 H 56.1628 -3.89518 -3.11572 0
M  V30 615 H 55.3168 -2.97829 -5.28567 0
M  V30 616 H 54.0558 -2.05133 -4.42461 0
M  V30 617 H 53.0608 -4.1885 -3.56153 0
M  V30 618 H 54.2858 -5.12483 -4.45575 0
M  V30 619 H 52.2318 -3.25453 -5.69575 0
M  V30 620 H 52.1488 -4.98564 -5.68304 0
M  V30 621 H 53.4168 -4.1941 -6.57051 0
M  V30 622 N 57.6459 0.756429 -1.3826 0
M  V30 623 C 59.0619 1.0591 -1.19395 0
M  V30 624 C 59.2619 2.01459 -0.0406567 0
M  V30 625 O 58.3179 2.44909 0.614467 0
M  V30 626 C 59.6309 1.64191 -2.51916 0
M  V30 627 C 61.1789 1.76376 -2.58574 0
M  V30 628 C 61.6539 2.38069 -3.91264 0
M  V30 629 N 63.1449 2.45503 -3.92788 0
M  V30 630 C 63.8799 2.94126 -4.92217 0
M  V30 631 N 63.3759 3.42805 -6.02043 0
M  V30 632 N 65.1689 2.9314 -4.7961 0
M  V30 633 H 57.3199 0.122313 -2.12048 0
M  V30 634 H 59.5829 0.116892 -0.940766 0
M  V30 635 H 59.2889 1.01451 -3.3675 0
M  V30 636 H 59.1629 2.6329 -2.70108 0
M  V30 637 H 61.5499 2.38244 -1.74137 0
M  V30 638 H 61.6309 0.759894 -2.44252 0
M  V30 639 H 61.2749 1.76835 -4.76121 0
M  V30 640 H 61.2049 3.39091 -4.02895 0
M  V30 641 H 63.6959 2.1107 -3.13461 0
M  V30 642 H 64.0089 3.78354 -6.73846 0
M  V30 643 H 62.3539 3.4087 -6.05667 0
M  V30 644 H 65.5449 2.54419 -3.92923 0
M  V30 645 H 65.7179 3.30721 -5.5725 0
M  V30 646 N 59.124 1.23083 0.984299 0
M  V30 647 C 60.372 1.05848 1.72165 0
M  V30 648 C 60.693 -0.406049 1.90726 0
M  V30 649 O 59.963 -1.29139 1.47309 0
M  V30 650 H 58.543 0.388685 0.637913 0
M  V30 651 H 61.205 1.54736 1.18503 0
M  V30 652 H 60.301 1.54327 2.71274 0
M  V30 653 N 60.6021 -1.18246 1.0419 0
M  V30 654 C 61.5341 -2.2142 0.592088 0
M  V30 655 C 62.5471 -1.59233 -0.338909 0
M  V30 656 O 63.7361 -1.78002 -0.133231 0
M  V30 657 C 60.8361 -3.38546 -0.154854 0
M  V30 658 C 60.0091 -4.3031 0.784328 0
M  V30 659 C 59.0681 -5.26138 0.0804583 0
M  V30 660 O 58.0941 -5.64738 0.711292 0
M  V30 661 N 59.2961 -5.68261 -1.18574 0
M  V30 662 H 62.0611 -2.60636 1.47949 0
M  V30 663 H 59.6221 -1.33044 0.922544 0
M  V30 664 H 61.6141 -3.99678 -0.635606 0
M  V30 665 H 60.1841 -2.98012 -0.943811 0
M  V30 666 H 59.4041 -3.66764 1.44491 0
M  V30 667 H 60.6921 -4.8852 1.42218 0
M  V30 668 H 60.0901 -5.38957 -1.71876 0
M  V30 669 H 58.6471 -6.31584 -1.61074 0
M  V30 670 N 62.0802 -0.821533 -1.34494 0
M  V30 671 C 63.3262 -0.409552 -1.98622 0
M  V30 672 C 63.6592 1.0244 -1.64984 0
M  V30 673 O 62.9342 1.71325 -0.920758 0
M  V30 674 C 63.2172 -0.610458 -3.54888 0
M  V30 675 C 63.0702 -2.09043 -3.98273 0
M  V30 676 C 64.3892 -0.0455379 -4.40076 0
M  V30 677 H 61.5082 -0.15028 -0.721516 0
M  V30 678 H 64.1502 -1.03384 -1.59411 0
M  V30 679 H 62.3002 -0.079044 -3.8842 0
M  V30 680 H 63.9722 -2.68537 -3.75081 0
M  V30 681 H 62.2152 -2.58139 -3.48635 0
M  V30 682 H 62.8862 -2.18182 -5.07051 0
M  V30 683 H 65.3622 -0.499557 -4.1309 0
M  V30 684 H 64.2382 -0.215922 -5.48475 0
M  V30 685 H 64.4992 1.04939 -4.29465 0
M  V30 686 N 63.5583 1.46682 -0.576371 0
M  V30 687 C 64.8043 2.02712 -0.0596221 0
M  V30 688 C 65.1373 1.44765 1.29448 0
M  V30 689 O 64.4123 0.610355 1.84675 0
M  V30 690 C 64.6953 3.60098 0.0129503 0
M  V30 691 C 64.5483 4.28441 -1.3696 0
M  V30 692 C 65.8673 4.34224 0.71678 0
M  V30 693 H 62.9863 0.736637 -0.0231407 0
M  V30 694 H 65.6283 1.74898 -0.742351 0
M  V30 695 H 63.7783 3.83926 0.594378 0
M  V30 696 H 65.4503 4.15896 -1.9957 0
M  V30 697 H 63.6933 3.8805 -1.93907 0
M  V30 698 H 64.3643 5.3716 -1.27135 0
M  V30 699 H 66.8403 4.15503 0.222908 0
M  V30 700 H 65.7163 5.43936 0.73657 0
M  V30 701 H 65.9773 4.04823 1.77682 0
M  V30 702 N 65.0364 0.313813 1.54444 0
M  V30 703 C 66.2844 -0.291099 1.99993 0
M  V30 704 C 66.6054 -1.53418 1.20366 0
M  V30 705 O 65.8754 -1.93544 0.302927 0
M  V30 706 H 64.4554 -0.110552 0.738774 0
M  V30 707 H 67.1174 0.428106 1.9014 0
M  V30 708 H 66.2134 -0.554268 3.07139 0
M  V30 709 N 66.5145 -1.57545 0.0417849 0
M  V30 710 C 67.7425 -1.96624 -0.643928 0
M  V30 711 C 68.1575 -0.918897 -1.64929 0
M  V30 712 O 67.5145 0.0979323 -1.82237 0
M  V30 713 C 67.5655 -3.35781 -1.33914 0
M  V30 714 O 67.2865 -4.365 -0.374048 0
M  V30 715 C 68.7875 -3.89566 -2.1155 0
M  V30 716 H 66.0075 -0.647316 -0.176702 0
M  V30 717 H 68.5515 -2.04229 0.105304 0
M  V30 718 H 66.7065 -3.29357 -2.03968 0
M  V30 719 H 67.1205 -5.17248 -0.869179 0
M  V30 720 H 68.5945 -4.89242 -2.55628 0
M  V30 721 H 69.0715 -3.24488 -2.9598 0
M  V30 722 H 69.6775 -3.99298 -1.46427 0
M  V30 723 N 67.9926 0.231505 -1.5589 0
M  V30 724 C 69.4086 0.580748 -1.48659 0
M  V30 725 C 69.6086 1.87617 -0.73498 0
M  V30 726 O 68.6646 2.51046 -0.270586 0
M  V30 727 C 69.9776 0.669202 -2.93159 0
M  V30 728 C 71.5256 0.760499 -3.03621 0
M  V30 729 C 72.0006 0.880383 -4.49459 0
M  V30 730 N 73.4916 0.944861 -4.53461 0
M  V30 731 C 74.2266 1.05716 -5.63571 0
M  V30 732 N 73.7226 1.13403 -6.83456 0
M  V30 733 N 75.5156 1.09152 -5.514 0
M  V30 734 H 67.6666 -0.618695 -2.03189 0
M  V30 735 H 69.9296 -0.215728 -0.923128 0
M  V30 736 H 69.6356 -0.212904 -3.51055 0
M  V30 737 H 69.5096 1.5361 -3.44505 0
M  V30 738 H 71.8966 1.63305 -2.45796 0
M  V30 739 H 71.9776 -0.131864 -2.5546 0
M  V30 740 H 71.6216 0.0123284 -5.07899 0
M  V30 741 H 71.5516 1.78802 -4.95316 0
M  V30 742 H 74.0426 0.896176 -3.6712 0
M  V30 743 H 74.3556 1.21921 -7.63122 0
M  V30 744 H 72.7006 1.10333 -6.86186 0
M  V30 745 H 75.8916 1.02805 -4.56671 0
M  V30 746 H 76.0646 1.17558 -6.37247 0
M  V30 747 N 69.4707 1.49531 0.497807 0
M  V30 748 C 70.7187 1.58865 1.24926 0
M  V30 749 C 71.0397 0.278721 1.92998 0
M  V30 750 O 70.3097 -0.702144 1.82885 0
M  V30 751 H 68.8897 0.585343 0.464094 0
M  V30 752 H 71.5517 1.86174 0.57666 0
M  V30 753 H 70.6477 2.38633 2.01149 0
M  V30 754 N 70.9488 -0.749086 1.3866 0
M  V30 755 C 72.1968 -1.50535 1.34847 0
M  V30 756 C 72.5178 -1.94909 -0.0595016 0
M  V30 757 O 71.7878 -1.67973 -1.00806 0
M  V30 758 H 70.3678 -0.558395 0.49619 0
M  V30 759 H 73.0298 -0.890165 1.73384 0
M  V30 760 H 72.1258 -2.39413 2.00219 0
M  V30 761 N 72.4269 -1.23603 -0.977757 0
M  V30 762 C 73.6739 -1.06971 -1.71941 0
M  V30 763 C 74.0019 0.393009 -1.90488 0
M  V30 764 O 73.2569 1.30719 -1.4564 0
M  V30 765 C 73.5559 -1.7433 -3.11999 0
M  V30 766 C 73.2219 -3.24252 -3.13323 0
M  V30 767 C 71.8839 -3.65156 -3.13392 0
M  V30 768 C 74.2359 -4.20141 -3.08433 0
M  V30 769 C 71.5639 -5.00403 -3.0629 0
M  V30 770 C 73.9159 -5.55384 -3.02873 0
M  V30 771 C 72.5799 -5.95647 -3.01265 0
M  V30 772 H 71.8499 -0.391433 -0.629175 0
M  V30 773 H 74.4969 -1.53572 -1.14403 0
M  V30 774 H 72.8019 -1.20096 -3.7294 0
M  V30 775 H 74.4989 -1.58936 -3.68158 0
M  V30 776 H 71.0889 -2.91692 -3.14029 0
M  V30 777 H 75.2729 -3.89547 -3.07517 0
M  V30 778 H 70.5289 -5.3081 -3.03399 0
M  V30 779 H 74.7029 -6.29398 -2.98046 0
M  V30 780 H 72.3299 -7.0041 -2.95516 0
M  V30 781 N 73.905 1.17692 -1.04816 0
M  V30 782 C 75.321 1.39863 -0.768794 0
M  V30 783 C 75.521 1.91118 0.638451 0
M  V30 784 O 74.577 2.10036 1.40146 0
M  V30 785 C 75.89 2.39274 -1.82122 0
M  V30 786 C 77.438 2.52987 -1.843 0
M  V30 787 C 77.913 3.55669 -2.88555 0
M  V30 788 N 79.404 3.63183 -2.87493 0
M  V30 789 C 80.139 4.42381 -3.64811 0
M  V30 790 N 79.635 5.25125 -4.51903 0
M  V30 791 N 81.428 4.37217 -3.53267 0
M  V30 792 H 73.579 0.82752 -1.95617 0
M  V30 793 H 75.842 0.426123 -0.846831 0
M  V30 794 H 75.548 2.08678 -2.83102 0
M  V30 795 H 75.422 3.38725 -1.65967 0
M  V30 796 H 77.809 2.82896 -0.839869 0
M  V30 797 H 77.89 1.53623 -2.04532 0
M  V30 798 H 77.534 3.26499 -3.89051 0
M  V30 799 H 77.464 4.54728 -2.65575 0
M  V30 800 H 79.955 3.04103 -2.24343 0
M  V30 801 H 80.268 5.82728 -5.07591 0
M  V30 802 H 78.613 5.24519 -4.55966 0
M  V30 803 H 81.804 3.71626 -2.84625 0
M  V30 804 H 81.977 4.98696 -4.13771 0
M  V30 805 N 75.3831 0.828654 1.34056 0
M  V30 806 C 76.6311 0.41863 1.97717 0
M  V30 807 C 76.9521 -1.02314 1.66002 0
M  V30 808 O 76.2221 -1.71119 0.953683 0
M  V30 809 H 74.8021 0.151809 0.731412 0
M  V30 810 H 77.4641 1.05936 1.63596 0
M  V30 811 H 76.5601 0.542318 3.07352 0
M  V30 812 N 76.8612 -1.46375 0.584142 0
M  V30 813 C 78.1012 -2.0427 0.0729695 0
M  V30 814 C 78.4652 -1.44563 -1.26355 0
M  V30 815 O 79.6662 -1.93667 -1.86405 0
M  V30 816 C 77.9372 -3.57399 0.00967464 0
M  V30 817 S 79.4962 -4.36551 -0.443714 0
M  V30 818 H 76.3142 -0.709975 0.0381673 0
M  V30 819 H 78.9162 -1.79398 0.776962 0
M  V30 820 H 77.6202 -3.98372 0.986319 0
M  V30 821 H 77.1512 -3.8681 -0.717044 0
M  V30 822 H 79.1662 -4.66237 -1.69816 0
M  V30 823 N 78.3393 -0.321999 -1.54275 0
M  V30 824 C 79.5673 0.283052 -2.04955 0
M  V30 825 C 79.9823 1.45904 -1.19823 0
M  V30 826 O 79.3393 1.81063 -0.228545 0
M  V30 827 C 79.3903 0.719028 -3.54277 0
M  V30 828 O 79.1113 -0.410175 -4.36176 0
M  V30 829 C 80.6123 1.38705 -4.21041 0
M  V30 830 H 77.8323 0.0584616 -0.668448 0
M  V30 831 H 80.3763 -0.467734 -1.99079 0
M  V30 832 H 78.5313 1.41979 -3.60445 0
M  V30 833 H 78.9453 -0.0669416 -5.24457 0
M  V30 834 H 80.4193 1.64306 -5.2698 0
M  V30 835 H 80.8963 2.33385 -3.72059 0
M  V30 836 H 81.5023 0.728906 -4.19007 0
M  V30 837 N 79.8174 1.5752 -0.0501392 0
M  V30 838 C 81.0634 1.92936 0.624798 0
M  V30 839 C 81.3964 0.928685 1.70555 0
M  V30 840 O 80.6714 -0.0454779 1.94447 0
M  V30 841 C 80.9544 3.38737 1.22185 0
M  V30 842 C 80.8074 4.49552 0.149218 0
M  V30 843 C 82.1264 3.84913 2.13378 0
M  V30 844 H 79.2454 0.701604 0.225657 0
M  V30 845 H 81.8874 1.89671 -0.111693 0
M  V30 846 H 80.0374 3.4165 1.84953 0
M  V30 847 H 81.7094 4.58768 -0.482648 0
M  V30 848 H 79.9524 4.30638 -0.522841 0
M  V30 849 H 80.6234 5.48653 0.606966 0
M  V30 850 H 83.0994 3.8387 1.60572 0
M  V30 851 H 81.9754 4.87584 2.52097 0
M  V30 852 H 82.2364 3.21611 3.03346 0
M  V30 853 N 81.2955 -0.223234 1.56011 0
M  V30 854 C 82.5415 -0.944891 1.8012 0
M  V30 855 C 82.8965 -1.82039 0.622862 0
M  V30 856 O 82.1895 -1.8773 -0.383143 0
M  V30 857 C 82.3835 -1.81948 3.0762 0
M  V30 858 C 82.2125 -1.03014 4.37742 0
M  V30 859 C 80.9825 -0.72574 5.00061 0
M  V30 860 C 83.1805 -0.396256 5.12771 0
M  V30 861 N 81.1625 0.0851816 6.13841 0
M  V30 862 C 82.5335 0.278137 6.19376 0
M  V30 863 C 84.5885 -0.309117 4.9694 0
M  V30 864 C 83.2915 1.03133 7.11868 0
M  V30 865 C 85.3175 0.430607 5.8983 0
M  V30 866 C 84.6795 1.09355 6.9586 0
M  V30 867 H 80.7785 -0.326081 0.710771 0
M  V30 868 H 83.3625 -0.215914 1.93499 0
M  V30 869 H 81.5335 -2.52029 2.95527 0
M  V30 870 H 83.2655 -2.47848 3.19927 0
M  V30 871 H 80.0205 -1.04335 4.61964 0
M  V30 872 H 80.4445 0.479428 6.753 0
M  V30 873 H 85.0865 -0.807313 4.15021 0
M  V30 874 H 82.8045 1.54105 7.9327 0
M  V30 875 H 86.3905 0.499012 5.79656 0
M  V30 876 H 85.2705 1.65679 7.66499 0
M  V30 877 N 82.7736 -1.49793 -0.48987 0
M  V30 878 C 83.7036 -1.70201 -1.59856 0
M  V30 879 C 84.6846 -0.55076 -1.60937 0
M  V30 880 O 85.8696 -0.787841 -1.77501 0
M  V30 881 C 82.9996 -1.77882 -2.98287 0
M  V30 882 C 81.9536 -2.92907 -3.12073 0
M  V30 883 C 81.2796 -2.85712 -4.51965 0
M  V30 884 C 82.5796 -4.3369 -2.91051 0
M  V30 885 H 84.2736 -2.63025 -1.43032 0
M  V30 886 H 81.8196 -1.26574 -0.686664 0
M  V30 887 H 83.7726 -1.90744 -3.75759 0
M  V30 888 H 82.4966 -0.816653 -3.16225 0
M  V30 889 H 81.1556 -2.79665 -2.37029 0
M  V30 890 H 80.8036 -1.8738 -4.66795 0
M  V30 891 H 80.5036 -3.62921 -4.62128 0
M  V30 892 H 82.0276 -3.00598 -5.31482 0
M  V30 893 H 83.4416 -4.47555 -3.58284 0
M  V30 894 H 81.8386 -5.12205 -3.12675 0
M  V30 895 H 82.9086 -4.47362 -1.87071 0
M  V30 896 N 84.2517 0.741722 -1.39055 0
M  V30 897 C 85.4797 1.53098 -1.39171 0
M  V30 898 C 85.8947 1.88794 0.0155099 0
M  V30 899 O 85.2517 1.53626 0.985159 0
M  V30 900 C 85.3027 2.82274 -2.2584 0
M  V30 901 O 85.0237 2.48097 -3.61081 0
M  V30 902 C 86.5247 3.76343 -2.34266 0
M  V30 903 H 83.7447 0.473335 -0.4756 0
M  V30 904 H 86.2887 0.917045 -1.82785 0
M  V30 905 H 84.4437 3.40015 -1.85656 0
M  V30 906 H 84.8577 3.31029 -4.06842 0
M  V30 907 H 86.3317 4.63898 -2.9917 0
M  V30 908 H 86.8087 4.17619 -1.35982 0
M  V30 909 H 87.4147 3.24523 -2.74891 0
M  V30 910 N 85.7298 1.2412 0.971189 0
M  V30 911 C 86.9778 1.07668 1.71032 0
M  V30 912 C 87.2988 -0.385797 1.91146 0
M  V30 913 O 86.5688 -1.27569 1.4867 0
M  V30 914 H 85.1488 0.395429 0.633755 0
M  V30 915 H 87.8108 1.55984 1.16855 0
M  V30 916 H 86.9068 1.57195 2.69622 0
M  V30 917 N 87.2079 -1.17134 1.05439 0
M  V30 918 C 88.1379 -2.2342 0.678649 0
M  V30 919 C 89.1189 -1.66971 -0.32476 0
M  V30 920 O 90.3039 -1.93149 -0.201802 0
M  V30 921 C 87.4339 -3.47256 0.0552099 0
M  V30 922 C 86.3879 -4.16543 0.98365 0
M  V30 923 C 85.7139 -5.34231 0.223961 0
M  V30 924 C 87.0139 -4.68495 2.3089 0
M  V30 925 H 88.7079 -2.55105 1.56722 0
M  V30 926 H 86.2539 -1.2262 0.754998 0
M  V30 927 H 88.2069 -4.20828 -0.21946 0
M  V30 928 H 86.9309 -3.14846 -0.868319 0
M  V30 929 H 85.5899 -3.44887 1.24293 0
M  V30 930 H 85.2379 -4.98071 -0.702412 0
M  V30 931 H 84.9379 -5.81527 0.842627 0
M  V30 932 H 86.4619 -6.10585 -0.0433671 0
M  V30 933 H 87.8759 -5.33691 2.09396 0
M  V30 934 H 86.2729 -5.26379 2.88176 0
M  V30 935 H 87.3429 -3.85169 2.94572 0
M  V30 936 N 88.686 -0.835752 -1.33615 0
M  V30 937 C 89.911 -0.442389 -2.02627 0
M  V30 938 C 90.336 0.947735 -1.62479 0
M  V30 939 O 89.694 1.61907 -0.815826 0
M  V30 940 C 89.742 -0.567216 -3.56111 0
M  V30 941 O 88.846 0.407799 -4.10379 0
M  V30 942 H 88.187 -0.180278 -0.639059 0
M  V30 943 H 90.717 -1.12972 -1.70583 0
M  V30 944 H 90.727 -0.447708 -4.05536 0
M  V30 945 H 89.402 -1.58103 -3.84677 0
M  V30 946 H 87.979 0.246107 -3.72087 0
M  V30 947 N 90.1641 1.46063 -0.591896 0
M  V30 948 C 91.4121 2.01938 -0.0808391 0
M  V30 949 C 91.7331 1.46475 1.28725 0
M  V30 950 O 91.0031 0.652944 1.84698 0
M  V30 951 H 89.5831 0.746516 -0.0268938 0
M  V30 952 H 92.2451 1.79055 -0.769752 0
M  V30 953 H 91.3411 3.12094 -0.0187578 0
M  V30 954 N 91.6422 0.330177 1.54103 0
M  V30 955 C 92.6052 -0.520144 2.2322 0
M  V30 956 C 93.6052 -1.03828 1.22786 0
M  V30 957 O 94.7952 -0.929652 1.4732 0
M  V30 958 C 91.9272 -1.72317 2.94142 0
M  V30 959 H 93.1202 0.0841605 2.99782 0
M  V30 960 H 90.6732 0.0813433 1.56088 0
M  V30 961 H 91.4082 -2.36653 2.21734 0
M  V30 962 H 91.1932 -1.35898 3.67796 0
M  V30 963 H 92.6832 -2.3266 3.46784 0
M  V30 964 N 93.1203 -1.57491 0.0584922 0
M  V30 965 C 94.3683 -1.92597 -0.612436 0
M  V30 966 C 94.6893 -0.938162 -1.70949 0
M  V30 967 O 93.9593 0.0158301 -1.95894 0
M  V30 968 H 92.5393 -0.710964 -0.229214 0
M  V30 969 H 95.2013 -1.94571 0.113218 0
M  V30 970 H 94.2973 -2.94038 -1.04633 0
M  V30 971 N 94.5984 0.214957 -1.56127 0
M  V30 972 C 95.5454 1.26642 -1.92952 0
M  V30 973 C 96.5154 1.46244 -0.78753 0
M  V30 974 O 97.7004 1.59704 -1.04399 0
M  V30 975 C 94.8404 2.6104 -2.25726 0
M  V30 976 C 93.9534 2.49183 -3.52891 0
M  V30 977 C 93.0884 3.76149 -3.7508 0
M  V30 978 C 92.1274 3.59041 -4.95738 0
M  V30 979 N 91.2644 4.77972 -5.14283 0
M  V30 980 H 96.1044 0.945384 -2.82607 0
M  V30 981 H 93.6414 0.455489 -1.3987 0
M  V30 982 H 95.5994 3.39313 -2.42739 0
M  V30 983 H 94.2294 2.91227 -1.39236 0
M  V30 984 H 93.2814 1.6231 -3.44034 0
M  V30 985 H 94.5934 2.32466 -4.41318 0
M  V30 986 H 93.7474 4.62865 -3.92226 0
M  V30 987 H 92.4864 3.95799 -2.84947 0
M  V30 988 H 91.4914 2.7071 -4.78535 0
M  V30 989 H 92.7164 3.40856 -5.87362 0
M  V30 990 H 90.6624 4.97923 -4.27093 0
M  V30 991 H 90.5794 4.64006 -5.96853 0
M  V30 992 H 91.8474 5.66096 -5.35869 0
M  V30 993 N 96.0765 1.50051 0.48192 0
M  V30 994 C 97.3045 1.64237 1.25832 0
M  V30 995 C 97.7195 0.321336 1.86045 0
M  V30 996 O 97.0765 -0.695478 1.68729 0
M  V30 997 C 97.1275 2.72548 2.37487 0
M  V30 998 O 96.8485 3.99529 1.79745 0
M  V30 999 C 98.3495 2.9761 3.28547 0
M  V30 1000 H 95.5695 0.55237 0.380957 0
M  V30 1001 H 98.1135 1.96207 0.576467 0
M  V30 1002 H 96.2685 2.43303 3.01467 0
M  V30 1003 H 96.6825 4.59342 2.5319 0
M  V30 1004 H 98.1565 3.77084 4.03127 0
M  V30 1005 H 98.6335 2.0826 3.86684 0
M  V30 1006 H 99.2395 3.28345 2.70314 0
M  V30 1007 N 97.5546 -0.734337 1.39446 0
M  V30 1008 C 98.7826 -1.52358 1.39981 0
M  V30 1009 C 99.1976 -1.88799 -0.0054975 0
M  V30 1010 O 98.5546 -1.54146 -0.976998 0
M  V30 1011 C 98.6056 -2.81072 2.27333 0
M  V30 1012 O 98.3266 -2.46178 3.62392 0
M  V30 1013 C 99.8276 -3.75096 2.36259 0
M  V30 1014 H 97.0476 -0.470806 0.478103 0
M  V30 1015 H 99.5916 -0.907339 1.83269 0
M  V30 1016 H 97.7466 -3.39026 1.87457 0
M  V30 1017 H 98.1606 -3.28866 4.08592 0
M  V30 1018 H 99.6346 -4.62305 3.01626 0
M  V30 1019 H 100.112 -4.16892 1.38194 0
M  V30 1020 H 100.718 -3.23061 2.76608 0
M  V30 1021 N 99.0327 -1.24633 -0.964593 0
M  V30 1022 C 100.279 -1.08949 -1.71049 0
M  V30 1023 C 100.612 0.370302 -1.90637 0
M  V30 1024 O 99.8867 1.27349 -1.47011 0
M  V30 1025 C 100.17 -1.83329 -3.0994 0
M  V30 1026 C 100.023 -3.37077 -2.97824 0
M  V30 1027 C 101.342 -1.60846 -4.09654 0
M  V30 1028 H 98.4607 -0.397178 -0.620821 0
M  V30 1029 H 101.103 -1.5334 -1.12191 0
M  V30 1030 H 99.2527 -1.45597 -3.60186 0
M  V30 1031 H 100.925 -3.84425 -2.5498 0
M  V30 1032 H 99.1677 -3.65298 -2.33965 0
M  V30 1033 H 99.8387 -3.84324 -3.96231 0
M  V30 1034 H 102.315 -1.93674 -3.68279 0
M  V30 1035 H 101.191 -2.1534 -5.04896 0
M  V30 1036 H 101.452 -0.547434 -4.38698 0
M  V30 1037 N 100.511 1.16574 -1.06058 0
M  V30 1038 C 101.736 1.91493 -0.796562 0
M  V30 1039 C 102.161 1.76773 0.642868 0
M  V30 1040 O 101.519 1.09142 1.44768 0
M  V30 1041 C 101.567 3.40293 -1.19303 0
M  V30 1042 O 100.671 4.11074 -0.330394 0
M  V30 1043 H 100.012 0.596678 -0.291326 0
M  V30 1044 H 102.542 1.47708 -1.41575 0
M  V30 1045 H 102.552 3.91057 -1.16356 0
M  V30 1046 H 101.227 3.50326 -2.24153 0
M  V30 1047 H 99.8038 3.70513 -0.421225 0
M  V30 1048 N 101.989 0.842826 1.3317 0
M  V30 1049 C 102.922 0.223862 2.27099 0
M  V30 1050 C 103.9 -0.631311 1.49844 0
M  V30 1051 O 105.084 -0.590708 1.79005 0
M  V30 1052 C 102.211 -0.685313 3.31694 0
M  V30 1053 C 101.257 0.094919 4.26394 0
M  V30 1054 S 102.09 1.45546 5.15341 0
M  V30 1055 C 103.246 0.551685 6.23464 0
M  V30 1056 H 103.479 1.02015 2.79249 0
M  V30 1057 H 101.012 0.639797 1.4052 0
M  V30 1058 H 102.97 -1.20426 3.92438 0
M  V30 1059 H 101.631 -1.4553 2.78352 0
M  V30 1060 H 100.824 -0.597059 5.00451 0
M  V30 1061 H 100.426 0.545054 3.70007 0
M  V30 1062 H 102.718 -0.248877 6.77043 0
M  V30 1063 H 103.661 1.26253 6.96754 0
M  V30 1064 H 104.069 0.131275 5.64347 0
M  V30 1065 N 103.467 -1.45747 0.599634 0
M  V30 1066 C 104.43 -2.28917 -0.113835 0
M  V30 1067 C 105.43 -1.3933 -0.802729 0
M  V30 1068 O 106.62 -1.61534 -0.652103 0
M  V30 1069 C 103.752 -3.20152 -1.17114 0
M  V30 1070 H 104.945 -2.93478 0.617289 0
M  V30 1071 H 102.498 -1.52137 0.358327 0
M  V30 1072 H 103.233 -2.60374 -1.93329 0
M  V30 1073 H 103.018 -3.86133 -0.681468 0
M  V30 1074 H 104.508 -3.82708 -1.67105 0
M  V30 1075 N 104.945 -0.338344 -1.53925 0
M  V30 1076 C 105.875 0.51328 -2.27789 0
M  V30 1077 C 106.856 1.107 -1.29149 0
M  V30 1078 O 108.041 1.12937 -1.57984 0
M  V30 1079 C 105.171 1.66697 -3.04679 0
M  V30 1080 C 104.125 1.20183 -4.1078 0
M  V30 1081 C 103.451 2.44363 -4.75595 0
M  V30 1082 C 104.751 0.30605 -5.21403 0
M  V30 1083 H 106.445 -0.102883 -2.99223 0
M  V30 1084 H 103.991 -0.0509219 -1.4391 0
M  V30 1085 H 105.944 2.26915 -3.55088 0
M  V30 1086 H 104.668 2.30995 -2.30887 0
M  V30 1087 H 103.327 0.622499 -3.61276 0
M  V30 1088 H 102.975 3.07057 -3.98403 0
M  V30 1089 H 102.675 2.13925 -5.47275 0
M  V30 1090 H 104.199 3.05317 -5.28786 0
M  V30 1091 H 105.613 0.814929 -5.67478 0
M  V30 1092 H 104.01 0.0937929 -6.00027 0
M  V30 1093 H 105.08 -0.65921 -4.80398 0
M  V30 1094 N 106.423 1.57458 -0.0668435 0
M  V30 1095 C 107.333 2.15937 0.916975 0
M  V30 1096 C 108.349 1.12123 1.33058 0
M  V30 1097 O 109.525 1.44366 1.40429 0
M  V30 1098 C 106.59 2.70547 2.16807 0
M  V30 1099 C 105.651 3.89215 1.81135 0
M  V30 1100 C 104.884 4.41211 3.0028 0
M  V30 1101 O 105.107 3.92225 4.14144 0
M  V30 1102 O 104.041 5.32605 2.80384 0
M  V30 1103 H 107.867 3.00354 0.449561 0
M  V30 1104 H 105.452 1.48584 0.155949 0
M  V30 1105 H 107.334 3.0557 2.90181 0
M  V30 1106 H 106.009 1.89192 2.62656 0
M  V30 1107 H 104.916 3.59054 1.05028 0
M  V30 1108 H 106.249 4.71848 1.40073 0
M  V30 1109 N 107.901 -0.206675 1.56239 0
M  V30 1110 C 108.811 -1.27686 1.96808 0
M  V30 1111 C 109.827 -1.50455 0.874035 0
M  V30 1112 O 111.003 -1.63295 1.17884 0
M  V30 1113 C 108.068 -2.60358 2.28942 0
M  V30 1114 C 107.129 -2.45762 3.51994 0
M  V30 1115 C 106.362 -3.72108 3.82585 0
M  V30 1116 O 106.585 -4.75776 3.14631 0
M  V30 1117 O 105.519 -3.6833 4.76043 0
M  V30 1118 H 109.345 -0.962593 2.88041 0
M  V30 1119 H 106.93 -0.410746 1.43643 0
M  V30 1120 H 108.812 -3.38687 2.50737 0
M  V30 1121 H 107.487 -2.91435 1.4088 0
M  V30 1122 H 106.394 -1.65584 3.35459 0
M  V30 1123 H 107.727 -2.19621 4.40486 0
M  V30 1124 N 109.379 -1.50304 -0.473955 0
M  V30 1125 C 110.609 -1.64663 -1.24778 0
M  V30 1126 C 111.017 -0.328174 -1.86332 0
M  V30 1127 O 110.36 0.699536 -1.69859 0
M  V30 1128 C 110.422 -2.6778 -2.39863 0
M  V30 1129 C 110.086 -4.11413 -1.98969 0
M  V30 1130 C 111.083 -4.97372 -1.51385 0
M  V30 1131 C 108.768 -4.57312 -2.07777 0
M  V30 1132 C 110.762 -6.27277 -1.13148 0
M  V30 1133 C 108.449 -5.87223 -1.69152 0
M  V30 1134 C 109.447 -6.72031 -1.21915 0
M  V30 1135 O 109.135 -7.99518 -0.838237 0
M  V30 1136 H 108.867 -0.556602 -0.383627 0
M  V30 1137 H 111.421 -1.9726 -0.572491 0
M  V30 1138 H 109.651 -2.30419 -3.10554 0
M  V30 1139 H 111.34 -2.71388 -3.01833 0
M  V30 1140 H 112.106 -4.63128 -1.44004 0
M  V30 1141 H 107.985 -3.91449 -2.43493 0
M  V30 1142 H 111.529 -6.93425 -0.762077 0
M  V30 1143 H 107.426 -6.20989 -1.76191 0
M  V30 1144 H 108.194 -8.12764 -0.967339 0
M  V30 1145 N 110.857 0.726932 -1.39834 0
M  V30 1146 C 111.787 1.85405 -1.41941 0
M  V30 1147 C 112.768 1.67751 -0.281728 0
M  V30 1148 O 113.953 1.8795 -0.488717 0
M  V30 1149 C 111.083 3.23243 -1.2701 0
M  V30 1150 C 110.037 3.55549 -2.38262 0
M  V30 1151 C 109.363 4.9241 -2.08415 0
M  V30 1152 C 110.663 3.577 -3.80589 0
M  V30 1153 H 112.357 1.83899 -2.36266 0
M  V30 1154 H 109.903 0.883349 -1.13723 0
M  V30 1155 H 111.856 4.01775 -1.27103 0
M  V30 1156 H 110.58 3.25296 -0.291564 0
M  V30 1157 H 109.239 2.79351 -2.37399 0
M  V30 1158 H 108.887 4.91052 -1.0898 0
M  V30 1159 H 108.587 5.14992 -2.82943 0
M  V30 1160 H 110.111 5.73289 -2.10171 0
M  V30 1161 H 111.525 4.26293 -3.83337 0
M  V30 1162 H 109.922 3.91804 -4.54543 0
M  V30 1163 H 110.992 2.57328 -4.10987 0
M  V30 1164 N 112.336 1.25143 0.95797 0
M  V30 1165 C 113.582 1.09855 1.70469 0
M  V30 1166 C 113.915 -0.360187 1.90831 0
M  V30 1167 O 113.19 -1.26568 1.47685 0
M  V30 1168 C 113.473 1.8497 3.08963 0
M  V30 1169 C 113.326 3.38652 2.96032 0
M  V30 1170 C 114.645 1.63016 4.08795 0
M  V30 1171 H 111.764 0.400465 0.618706 0
M  V30 1172 H 114.406 1.53933 1.11376 0
M  V30 1173 H 112.556 1.47505 3.59409 0
M  V30 1174 H 114.228 3.85772 2.52938 0
M  V30 1175 H 112.471 3.66534 2.32025 0
M  V30 1176 H 113.142 3.8642 3.94187 0
M  V30 1177 H 115.618 1.95625 3.67247 0
M  V30 1178 H 114.494 2.18015 5.03747 0
M  V30 1179 H 114.755 0.570692 4.38401 0
M  V30 1180 N 113.814 -1.1601 1.06675 0
M  V30 1181 C 115.054 -1.88304 0.795037 0
M  V30 1182 C 115.418 -1.80062 -0.666466 0
M  V30 1183 O 116.619 -2.47319 -1.05293 0
M  V30 1184 C 114.89 -3.33664 1.28076 0
M  V30 1185 S 116.449 -4.23768 1.13868 0
M  V30 1186 H 113.267 -0.649928 0.288296 0
M  V30 1187 H 115.869 -1.4001 1.36445 0
M  V30 1188 H 114.573 -3.37203 2.33927 0
M  V30 1189 H 114.104 -3.87009 0.706253 0
M  V30 1190 H 116.119 -4.96148 0.0719668 0
M  V30 1191 N 115.292 -0.849877 -1.32721 0
M  V30 1192 C 116.242 -0.262892 -2.26479 0
M  V30 1193 C 117.226 0.588493 -1.49752 0
M  V30 1194 O 118.418 0.438659 -1.71478 0
M  V30 1195 C 115.547 0.551818 -3.38836 0
M  V30 1196 C 114.633 -0.311689 -4.22953 0
M  V30 1197 N 115.024 -1.39567 -4.86163 0
M  V30 1198 C 113.322 -0.100611 -4.45887 0
M  V30 1199 C 114.023 -1.92651 -5.48872 0
M  V30 1200 N 112.999 -1.22637 -5.29586 0
M  V30 1201 H 116.801 -1.09166 -2.72873 0
M  V30 1202 H 114.315 -0.695486 -1.46754 0
M  V30 1203 H 116.312 0.988713 -4.05006 0
M  V30 1204 H 114.972 1.37844 -2.93988 0
M  V30 1205 H 115.983 -1.77859 -4.86402 0
M  V30 1206 H 112.66 0.691681 -4.11731 0
M  V30 1207 H 114.05 -2.83487 -6.09167 0
M  V30 1208 N 116.77 1.45427 -0.607355 0
M  V30 1209 C 118.018 2.01841 -0.102253 0
M  V30 1210 C 118.339 1.47832 1.27164 0
M  V30 1211 O 117.609 0.672497 1.83995 0
M  V30 1212 H 116.189 0.746188 -0.0348101 0
M  V30 1213 H 118.851 1.78229 -0.7887 0
M  V30 1214 H 117.947 3.12057 -0.0518585 0
M  V30 1215 N 118.248 0.346503 1.53744 0
M  V30 1216 C 119.497 -0.250122 2.00143 0
M  V30 1217 C 119.81 -1.51418 1.23822 0
M  V30 1218 O 121.016 -2.18823 1.60713 0
M  V30 1219 C 119.472 -0.496252 3.56462 0
M  V30 1220 C 119.08 0.752077 4.41642 0
M  V30 1221 C 120.824 -1.05157 4.11269 0
M  V30 1222 C 118.731 0.476583 5.89477 0
M  V30 1223 H 117.661 -0.0972409 0.747703 0
M  V30 1224 H 120.312 0.46229 1.77581 0
M  V30 1225 H 118.694 -1.26944 3.75102 0
M  V30 1226 H 119.868 1.5266 4.34778 0
M  V30 1227 H 118.183 1.22925 3.97842 0
M  V30 1228 H 120.78 -1.27269 5.19333 0
M  V30 1229 H 121.123 -2.00799 3.64672 0
M  V30 1230 H 121.656 -0.339019 3.96353 0
M  V30 1231 H 118.395 1.4028 6.40314 0
M  V30 1232 H 117.915 -0.259794 5.99237 0
M  V30 1233 H 119.594 0.0949315 6.4693 0
M  V30 1234 N 119.726 -1.57421 0.075193 0
M  V30 1235 C 121.137 -1.81021 -0.456964 0
M  V30 1236 C 121.488 -0.98936 -1.69429 0
M  V30 1237 O 120.613 -0.212865 -2.15351 0
M  V30 1238 C 121.208 -3.28329 -0.83581 0
M  V30 1239 C 119.767 -3.52764 -1.31281 0
M  V30 1240 C 118.914 -2.75676 -0.299648 0
M  V30 1241 H 121.865 -1.55822 0.300856 0
M  V30 1242 H 121.886 -3.40564 -1.69696 0
M  V30 1243 H 121.398 -3.88046 0.0649238 0
M  V30 1244 H 119.499 -2.98355 -2.23193 0
M  V30 1245 H 119.612 -4.61451 -1.28839 0
M  V30 1246 H 117.976 -2.42538 -0.777641 0
M  V30 1247 H 118.759 -3.38132 0.593417 0
M  V30 1248 N 121.204 0.198386 -1.56346 0
M  V30 1249 C 122.444 0.92609 -1.82217 0
M  V30 1250 C 122.808 1.80584 -0.652195 0
M  V30 1251 O 124.009 2.56907 -0.790716 0
M  V30 1252 C 122.28 1.72354 -3.13096 0
M  V30 1253 S 123.839 2.50371 -3.6036 0
M  V30 1254 H 120.657 0.310677 -0.639532 0
M  V30 1255 H 123.259 0.189755 -1.94577 0
M  V30 1256 H 121.963 1.0678 -3.96265 0
M  V30 1257 H 121.494 2.50175 -3.03605 0
M  V30 1258 H 123.509 3.74488 -3.25535 0
M  V30 1259 N 122.682 1.50554 0.465978 0
M  V30 1260 C 123.912 1.65323 1.23903 0
M  V30 1261 C 124.32 0.338051 1.86155 0
M  V30 1262 O 123.663 -0.690518 1.70228 0
M  V30 1263 C 123.725 2.69048 2.3844 0
M  V30 1264 C 123.389 4.12462 1.96784 0
M  V30 1265 C 124.386 4.98168 1.48745 0
M  V30 1266 C 122.071 4.58407 2.05349 0
M  V30 1267 C 124.065 6.27868 1.0982 0
M  V30 1268 C 121.752 5.88112 1.66035 0
M  V30 1269 C 122.75 6.72668 1.18349 0
M  V30 1270 O 122.438 7.99951 0.795825 0
M  V30 1271 H 122.17 0.558629 0.38067 0
M  V30 1272 H 124.724 1.97561 0.562022 0
M  V30 1273 H 122.954 2.32062 3.09328 0
M  V30 1274 H 124.643 2.72985 3.0039 0
M  V30 1275 H 125.409 4.63885 1.41546 0
M  V30 1276 H 121.288 3.92735 2.41414 0
M  V30 1277 H 124.832 6.93819 0.725293 0
M  V30 1278 H 120.729 6.21914 1.72895 0
M  V30 1279 H 121.497 8.13265 0.924222 0
M  V30 1280 N 124.16 -0.719506 1.40217 0
M  V30 1281 C 125.388 -1.50864 1.41589 0
M  V30 1282 C 125.803 -1.88794 0.0145275 0
M  V30 1283 O 125.16 -1.55174 -0.960594 0
M  V30 1284 C 125.211 -2.78646 2.30302 0
M  V30 1285 O 124.932 -2.42321 3.64983 0
M  V30 1286 C 126.433 -3.72569 2.40224 0
M  V30 1287 H 123.653 -0.465709 0.48307 0
M  V30 1288 H 126.197 -0.88785 1.84221 0
M  V30 1289 H 124.352 -3.37019 1.91042 0
M  V30 1290 H 124.766 -3.24514 4.12057 0
M  V30 1291 H 126.24 -4.5908 3.06512 0
M  V30 1292 H 126.717 -4.15403 1.42608 0
M  V30 1293 H 127.323 -3.20109 2.80019 0
M  V30 1294 N 125.638 -1.25649 -0.95132 0
M  V30 1295 C 126.568 -1.08808 -2.06599 0
M  V30 1296 C 127.549 0.00382547 -1.701 0
M  V30 1297 O 128.734 -0.166325 -1.93486 0
M  V30 1298 C 125.864 -0.709542 -3.39975 0
M  V30 1299 C 124.818 -1.75206 -3.90496 0
M  V30 1300 C 124.144 -1.22811 -5.20405 0
M  V30 1301 C 125.444 -3.15153 -4.16504 0
M  V30 1302 H 127.138 -2.02048 -2.20946 0
M  V30 1303 H 124.684 -0.972835 -1.06169 0
M  V30 1304 H 126.637 -0.578649 -4.17408 0
M  V30 1305 H 125.361 0.258556 -3.25575 0
M  V30 1306 H 124.02 -1.87145 -3.15234 0
M  V30 1307 H 123.668 -0.250145 -5.02378 0
M  V30 1308 H 123.368 -1.92492 -5.55176 0
M  V30 1309 H 124.892 -1.10968 -6.00432 0
M  V30 1310 H 126.306 -3.06349 -4.84586 0
M  V30 1311 H 124.703 -3.82333 -4.62538 0
M  V30 1312 H 125.773 -3.61966 -3.22658 0
M  V30 1313 N 127.117 1.15442 -1.07289 0
M  V30 1314 C 128.394 1.82306 -0.708792 0
M  V30 1315 C 128.774 1.94991 0.808807 0
M  V30 1316 O 128.122 1.50085 1.72298 0
M  V30 1317 C 128.332 3.18695 -1.42247 0
M  V30 1318 C 129.68 3.94341 -1.57417 0
M  V30 1319 O 130.704 3.28247 -1.38319 0
M  V30 1320 O 129.563 5.12839 -1.88834 0
M  V30 1321 H 126.657 0.787628 -0.252132 0
M  V30 1322 H 129.203 1.22559 -1.17377 0
M  V30 1323 H 127.975 3.04557 -2.45684 0
M  V30 1324 H 127.598 3.86128 -0.948223 0
M  V30 1325 N 128.595 0.856903 1.32268 0
M  V30 1326 C 129.843 0.460474 1.96784 0
M  V30 1327 C 130.164 -0.987701 1.68135 0
M  V30 1328 O 129.434 -1.69058 0.989765 0
M  V30 1329 H 128.014 0.167289 0.728027 0
M  V30 1330 H 130.676 1.09383 1.61312 0
M  V30 1331 H 129.772 0.60739 3.06133 0
M  V30 1332 N 130.073 -1.45103 0.615059 0
M  V30 1333 C 131.35 -1.95549 0.0448276 0
M  V30 1334 C 131.73 -1.55737 -1.4251 0
M  V30 1335 O 131.078 -0.823556 -2.13143 0
M  V30 1336 C 131.288 -3.48098 0.250785 0
M  V30 1337 C 132.636 -4.24384 0.135509 0
M  V30 1338 O 133.66 -3.55738 0.181299 0
M  V30 1339 O 132.519 -5.46493 0.0268878 0
M  V30 1340 H 129.613 -0.8264 -0.0314845 0
M  V30 1341 H 132.159 -1.55232 0.685642 0
M  V30 1342 H 130.931 -3.7007 1.27139 0
M  V30 1343 H 130.554 -3.95323 -0.424937 0
M  V30 1344 N 131.551 -0.354651 -1.53558 0
M  V30 1345 C 132.499 0.512195 -2.26891 0
M  V30 1346 C 133.493 1.09263 -1.29452 0
M  V30 1347 O 134.699 1.03709 -1.47121 0
M  V30 1348 H 131.074 0.183878 -0.729173 0
M  V30 1349 H 133.045 -0.128202 -2.98124 0
M  V30 1350 C 131.794 1.64563 -3.06291 0
M  V30 1351 H 131.117 1.20829 -3.81104 0
M  V30 1352 H 132.557 2.22711 -3.60799 0
M  V30 1353 C 131.016 2.58158 -2.16462 0
M  V30 1354 O 131.546 3.60695 -1.76811 0
M  V30 1355 N 129.752 2.27096 -1.81317 0
M  V30 1356 H 129.299 1.43751 -2.1376 0
M  V30 1357 H 129.257 2.89975 -1.21498 0
M  V30 1358 N 133.029 1.57378 -0.0835403 0
M  V30 1359 C 134.278 1.93106 0.582498 0
M  V30 1360 C 134.591 0.96651 1.70053 0
M  V30 1361 O 135.797 1.21705 2.42693 0
M  V30 1362 C 134.253 3.43076 1.08751 0
M  V30 1363 C 133.861 4.48 -0.000146404 0
M  V30 1364 C 135.605 3.87785 1.72694 0
M  V30 1365 C 133.512 5.89113 0.519568 0
M  V30 1366 H 132.442 0.720775 0.221358 0
M  V30 1367 H 135.093 1.82821 -0.157675 0
M  V30 1368 H 133.475 3.48474 1.88101 0
M  V30 1369 H 134.649 4.54233 -0.775199 0
M  V30 1370 H 132.964 4.1283 -0.54406 0
M  V30 1371 H 135.561 4.90604 2.1263 0
M  V30 1372 H 135.904 3.25796 2.59158 0
M  V30 1373 H 136.437 3.8504 0.999457 0
M  V30 1374 H 133.176 6.54775 -0.308186 0
M  V30 1375 H 132.696 5.86376 1.26188 0
M  V30 1376 H 134.375 6.39346 0.992237 0
M  V30 1377 N 134.507 -0.190092 1.56449 0
M  V30 1378 C 135.923 -0.54113 1.50146 0
M  V30 1379 C 136.123 -1.85603 0.784465 0
M  V30 1380 O 135.179 -2.5024 0.337051 0
M  V30 1381 C 136.492 -0.591241 2.9483 0
M  V30 1382 C 138.04 -0.679732 3.0553 0
M  V30 1383 C 138.515 -0.760908 4.51635 0
M  V30 1384 N 140.006 -0.824302 4.55806 0
M  V30 1385 C 140.741 -0.907365 5.66175 0
M  V30 1386 N 140.237 -0.952422 6.86222 0
M  V30 1387 N 142.03 -0.94494 5.541 0
M  V30 1388 H 134.181 0.67235 2.01478 0
M  V30 1389 H 136.444 0.240127 0.917084 0
M  V30 1390 H 136.15 0.305905 3.50367 0
M  V30 1391 H 136.024 -1.44422 3.48457 0
M  V30 1392 H 138.411 -1.56731 2.50039 0
M  V30 1393 H 138.492 0.199549 2.5502 0
M  V30 1394 H 138.136 0.122336 5.07753 0
M  V30 1395 H 138.066 -1.65606 4.99882 0
M  V30 1396 H 140.557 -0.798526 3.69367 0
M  V30 1397 H 140.87 -1.01645 7.66086 0
M  V30 1398 H 139.215 -0.921014 6.8887 0
M  V30 1399 H 142.406 -0.906612 4.59236 0
M  V30 1400 H 142.579 -1.00622 6.4014 0
M  V30 1401 N 135.985 -1.50799 -0.457987 0
M  V30 1402 C 136.917 -1.66786 -1.57211 0
M  V30 1403 C 137.93 -0.548962 -1.53265 0
M  V30 1404 O 139.119 -0.8226 -1.58416 0
M  V30 1405 C 136.219 -1.64834 -2.96113 0
M  V30 1406 C 135.392 -2.92971 -3.24787 0
M  V30 1407 C 134.451 -2.83485 -4.43309 0
M  V30 1408 O 133.477 -3.5744 -4.42973 0
M  V30 1409 N 134.679 -1.97929 -5.45714 0
M  V30 1410 H 137.444 -2.62889 -1.43909 0
M  V30 1411 H 135.005 -1.48427 -0.646617 0
M  V30 1412 H 136.997 -1.56084 -3.7339 0
M  V30 1413 H 135.567 -0.764118 -3.03117 0
M  V30 1414 H 134.787 -3.15749 -2.36 0
M  V30 1415 H 136.075 -3.77834 -3.40762 0
M  V30 1416 H 135.473 -1.37182 -5.48815 0
M  V30 1417 H 134.03 -1.95073 -6.21924 0
M  V30 1418 N 137.463 0.71206 -1.40597 0
M  V30 1419 C 138.711 1.46907 -1.38791 0
M  V30 1420 C 139.032 1.94998 0.00780391 0
M  V30 1421 O 138.302 1.70587 0.963174 0
M  V30 1422 H 136.882 0.545043 -0.51082 0
M  V30 1423 H 139.544 0.843882 -1.75683 0
M  V30 1424 H 138.64 2.34021 -2.06496 0
M  V30 1425 N 138.941 1.26152 0.944643 0
M  V30 1426 C 139.871 1.09902 2.06019 0
M  V30 1427 C 140.852 0.00519538 1.70099 0
M  V30 1428 O 142.037 0.176583 1.93396 0
M  V30 1429 C 139.167 0.727562 3.39594 0
M  V30 1430 C 138.121 1.77274 3.89561 0
M  V30 1431 C 137.447 1.25569 5.19747 0
M  V30 1432 C 138.747 3.17357 4.14827 0
M  V30 1433 H 140.441 2.03217 2.19871 0
M  V30 1434 H 137.987 0.978452 1.05652 0
M  V30 1435 H 139.94 0.600777 4.17095 0
M  V30 1436 H 138.664 -0.241287 3.25707 0
M  V30 1437 H 137.323 1.88814 3.14237 0
M  V30 1438 H 136.971 0.276783 5.02238 0
M  V30 1439 H 136.671 1.95433 5.54148 0
M  V30 1440 H 138.195 1.1415 5.99835 0
M  V30 1441 H 139.609 3.08914 4.82954 0
M  V30 1442 H 138.006 3.84781 4.60504 0
M  V30 1443 H 139.076 3.63673 3.20734 0
M  V30 1444 N 140.419 -1.14872 1.07899 0
M  V30 1445 C 141.367 -2.21857 0.698727 0
M  V30 1446 C 142.361 -1.66845 -0.293086 0
M  V30 1447 O 143.567 -1.79321 -0.156204 0
M  V30 1448 H 139.942 -0.722691 0.207899 0
M  V30 1449 H 141.913 -2.51205 1.61054 0
M  V30 1450 C 140.662 -3.47498 0.11858 0
M  V30 1451 H 139.985 -3.90154 0.872914 0
M  V30 1452 H 141.425 -4.23858 -0.109759 0
M  V30 1453 C 139.884 -3.16947 -1.1422 0
M  V30 1454 O 140.414 -3.3426 -2.22785 0
M  V30 1455 N 138.62 -2.70946 -1.05055 0
M  V30 1456 H 138.167 -2.57058 -0.167038 0
M  V30 1457 H 138.125 -2.50879 -1.89491 0
M  V30 1458 N 141.898 -0.863906 -1.31812 0
M  V30 1459 C 142.845 -0.313303 -2.28664 0
M  V30 1460 C 143.815 0.584868 -1.55462 0
M  V30 1461 O 145 0.517805 -1.83639 0
M  V30 1462 C 142.14 0.48441 -3.41683 0
M  V30 1463 C 141.253 -0.440594 -4.29747 0
M  V30 1464 C 140.388 0.370652 -5.29905 0
M  V30 1465 C 139.427 -0.551164 -6.09613 0
M  V30 1466 N 138.564 0.223462 -7.01744 0
M  V30 1467 H 143.404 -1.14444 -2.75148 0
M  V30 1468 H 140.941 -0.575769 -1.35364 0
M  V30 1469 H 142.899 0.962627 -4.05943 0
M  V30 1470 H 141.529 1.28029 -2.96325 0
M  V30 1471 H 140.581 -1.03724 -3.65986 0
M  V30 1472 H 141.893 -1.14767 -4.85417 0
M  V30 1473 H 141.047 0.911638 -5.99812 0
M  V30 1474 H 139.786 1.11105 -4.74876 0
M  V30 1475 H 138.791 -1.10396 -5.38603 0
M  V30 1476 H 140.016 -1.29032 -6.66729 0
M  V30 1477 H 137.962 0.946787 -6.49132 0
M  V30 1478 H 137.879 -0.424399 -7.54808 0
M  V30 1479 H 139.147 0.745876 -7.75923 0
M  V30 1480 N 143.376 1.44774 -0.622745 0
M  V30 1481 C 144.324 2.32387 0.0994683 0
M  V30 1482 C 145.318 1.46859 0.844326 0
M  V30 1483 O 146.524 1.63254 0.758174 0
M  V30 1484 H 142.899 0.750273 0.0509291 0
M  V30 1485 H 144.87 2.91062 -0.65767 0
M  V30 1486 C 143.619 3.30723 1.07319 0
M  V30 1487 H 142.942 3.96541 0.509462 0
M  V30 1488 H 144.382 3.94725 1.54817 0
M  V30 1489 C 142.841 2.59021 2.15429 0
M  V30 1490 O 143.371 2.38286 3.23393 0
M  V30 1491 N 141.577 2.189 1.91131 0
M  V30 1492 H 141.124 2.35964 1.03337 0
M  V30 1493 H 141.082 1.71251 2.63668 0
M  V30 1494 N 144.854 0.36279 1.53368 0
M  V30 1495 C 145.784 -0.476976 2.28576 0
M  V30 1496 C 146.765 -1.08631 1.30894 0
M  V30 1497 O 147.95 -1.10409 1.59761 0
M  V30 1498 C 145.08 -1.61828 3.07293 0
M  V30 1499 C 144.034 -1.13633 4.1264 0
M  V30 1500 C 143.36 -2.36766 4.79423 0
M  V30 1501 C 144.66 -0.223061 5.21823 0
M  V30 1502 H 146.354 0.150474 2.99022 0
M  V30 1503 H 143.9 0.0738103 1.43811 0
M  V30 1504 H 145.853 -2.21237 3.58653 0
M  V30 1505 H 144.577 -2.27292 2.34533 0
M  V30 1506 H 143.236 -0.564945 3.62221 0
M  V30 1507 H 142.884 -3.0068 4.03238 0
M  V30 1508 H 142.584 -2.05192 5.50609 0
M  V30 1509 H 144.108 -2.96865 5.33576 0
M  V30 1510 H 145.522 -0.724545 5.68703 0
M  V30 1511 H 143.919 0.001678 6.001 0
M  V30 1512 H 144.989 0.735553 4.79289 0
M  V30 1513 N 146.332 -1.57332 0.0918853 0
M  V30 1514 C 147.58 -1.93853 -0.571446 0
M  V30 1515 C 147.901 -0.974212 -1.6892 0
M  V30 1516 O 147.171 -0.0257254 -1.95883 0
M  V30 1517 H 145.751 -0.715666 -0.214082 0
M  V30 1518 H 148.413 -1.94287 0.154464 0
M  V30 1519 H 147.509 -2.96191 -0.983729 0
M  V30 1520 N 147.81 0.181792 -1.56548 0
M  V30 1521 C 149.057 0.900097 -1.81396 0
M  V30 1522 C 149.385 1.82695 -0.667281 0
M  V30 1523 O 148.64 1.92614 0.346146 0
M  V30 1524 C 148.939 1.73728 -3.12335 0
M  V30 1525 C 148.605 0.960255 -4.40556 0
M  V30 1526 C 147.267 0.745766 -4.75386 0
M  V30 1527 C 149.619 0.414477 -5.19549 0
M  V30 1528 C 146.947 -0.0257694 -5.86694 0
M  V30 1529 C 149.299 -0.343916 -6.31664 0
M  V30 1530 C 147.963 -0.569301 -6.65068 0
M  V30 1531 H 147.233 0.329369 -0.663775 0
M  V30 1532 H 149.88 0.165647 -1.90782 0
M  V30 1533 H 148.185 2.54081 -2.98245 0
M  V30 1534 H 149.882 2.29591 -3.28769 0
M  V30 1535 H 146.472 1.13746 -4.13231 0
M  V30 1536 H 150.656 0.567554 -4.93044 0
M  V30 1537 H 145.912 -0.210233 -6.11038 0
M  V30 1538 H 150.086 -0.774133 -6.92084 0
M  V30 1539 H 147.713 -1.16903 -7.51158 0
M  V30 1540 N 149.288 1.51039 0.449983 0
M  V30 1541 C 150.513 1.6715 1.22783 0
M  V30 1542 C 150.938 0.363081 1.84563 0
M  V30 1543 O 150.296 -0.675433 1.68249 0
M  V30 1544 C 150.344 2.77985 2.29689 0
M  V30 1545 O 149.448 2.40707 3.34864 0
M  V30 1546 H 148.789 0.557746 0.360299 0
M  V30 1547 H 151.319 1.97535 0.533005 0
M  V30 1548 H 151.329 3.01693 2.74673 0
M  V30 1549 H 150.004 3.72935 1.84098 0
M  V30 1550 H 148.581 2.27523 2.95445 0
M  V30 1551 N 150.766 -0.704594 1.40972 0
M  V30 1552 C 152.177 -1.28418 1.3552 0
M  V30 1553 C 152.528 -1.96171 0.0339434 0
M  V30 1554 O 151.653 -1.98231 -0.867944 0
M  V30 1555 C 152.248 -2.33528 2.45459 0
M  V30 1556 C 150.807 -2.87085 2.43433 0
M  V30 1557 C 149.954 -1.61007 2.2577 0
M  V30 1558 H 152.905 -0.499963 1.50619 0
M  V30 1559 H 152.926 -3.14619 2.13998 0
M  V30 1560 H 152.438 -1.84187 3.41609 0
M  V30 1561 H 150.539 -3.40626 1.51013 0
M  V30 1562 H 150.652 -3.3813 3.39419 0
M  V30 1563 H 149.016 -1.86482 1.73483 0
M  V30 1564 H 149.799 -1.13675 3.23933 0
M  V30 1565 N 152.244 -1.26651 -0.937939 0
M  V30 1566 C 153.154 -1.10276 -2.07066 0
M  V30 1567 C 154.17 -0.0354197 -1.73964 0
M  V30 1568 O 155.346 -0.239816 -1.99967 0
M  V30 1569 C 152.411 -0.740887 -3.38691 0
M  V30 1570 C 151.472 -1.88799 -3.85556 0
M  V30 1571 C 150.705 -1.54329 -5.10899 0
M  V30 1572 O 150.928 -0.446494 -5.6865 0
M  V30 1573 O 149.862 -2.37911 -5.52885 0
M  V30 1574 H 153.688 -2.05309 -2.23789 0
M  V30 1575 H 151.273 -1.05743 -1.0554 0
M  V30 1576 H 153.155 -0.55195 -4.1777 0
M  V30 1577 H 151.83 0.180022 -3.23199 0
M  V30 1578 H 150.737 -2.13191 -3.07409 0
M  V30 1579 H 152.07 -2.78874 -4.05574 0
M  V30 1580 N 153.722 1.14298 -1.08507 0
M  V30 1581 C 154.999 1.81544 -0.728088 0
M  V30 1582 C 155.379 1.95838 0.78808 0
M  V30 1583 O 154.727 1.51904 1.70697 0
M  V30 1584 C 154.937 3.17169 -1.45619 0
M  V30 1585 C 156.285 3.9265 -1.61591 0
M  V30 1586 O 157.309 3.26762 -1.41793 0
M  V30 1587 O 156.168 5.10807 -1.94263 0
M  V30 1588 H 153.262 0.78491 -0.260471 0
M  V30 1589 H 155.808 1.21307 -1.18671 0
M  V30 1590 H 154.58 3.01934 -2.489 0
M  V30 1591 H 154.203 3.851 -0.989124 0
M  V30 1592 N 155.201 0.870884 1.31352 0
M  V30 1593 C 156.617 0.562932 1.49343 0
M  V30 1594 C 156.817 -0.902725 1.80148 0
M  V30 1595 O 155.873 -1.68484 1.88067 0
M  V30 1596 C 157.186 1.46393 2.62659 0
M  V30 1597 C 158.734 1.46607 2.76542 0
M  V30 1598 C 159.209 2.35266 3.92955 0
M  V30 1599 N 160.7 2.33151 4.00243 0
M  V30 1600 C 161.435 2.98471 4.89594 0
M  V30 1601 N 160.931 3.72964 5.8384 0
M  V30 1602 N 162.724 2.87775 4.82848 0
M  V30 1603 H 154.875 1.81923 1.09626 0
M  V30 1604 H 157.138 0.777934 0.541777 0
M  V30 1605 H 156.844 2.50689 2.46674 0
M  V30 1606 H 156.718 1.16314 3.58819 0
M  V30 1607 H 159.105 0.43069 2.9194 0
M  V30 1608 H 159.186 1.8071 1.81046 0
M  V30 1609 H 158.83 3.38881 3.78315 0
M  V30 1610 H 158.76 1.98487 4.87761 0
M  V30 1611 H 161.251 1.79006 3.32814 0
M  V30 1612 H 161.564 4.19932 6.4875 0
M  V30 1613 H 159.909 3.77073 5.83816 0
M  V30 1614 H 163.1 2.29116 4.08195 0
M  V30 1615 H 163.273 3.38961 5.52277 0
M  V30 1616 N 156.679 -1.44442 0.630414 0
M  V30 1617 C 157.589 -2.34476 -0.0761693 0
M  V30 1618 C 158.605 -1.52576 -0.836449 0
M  V30 1619 O 159.781 -1.85307 -0.788874 0
M  V30 1620 C 156.846 -3.30545 -1.04599 0
M  V30 1621 C 155.907 -4.28352 -0.28516 0
M  V30 1622 C 155.14 -5.19831 -1.20878 0
M  V30 1623 O 155.363 -5.15223 -2.44747 0
M  V30 1624 O 154.297 -5.97892 -0.693491 0
M  V30 1625 H 158.123 -2.96345 0.664324 0
M  V30 1626 H 155.708 -1.44203 0.39061 0
M  V30 1627 H 157.59 -3.89681 -1.60396 0
M  V30 1628 H 156.265 -2.7121 -1.76711 0
M  V30 1629 H 155.172 -3.72764 0.315837 0
M  V30 1630 H 156.505 -4.90605 0.395924 0
M  V30 1631 N 158.157 -0.370918 -1.53173 0
M  V30 1632 C 159.067 0.480823 -2.2962 0
M  V30 1633 C 160.083 1.08789 -1.35798 0
M  V30 1634 O 161.259 1.09768 -1.68858 0
M  V30 1635 C 158.324 1.60227 -3.07454 0
M  V30 1636 C 157.385 1.0222 -4.16953 0
M  V30 1637 C 156.618 2.0902 -4.91066 0
M  V30 1638 O 156.841 3.30222 -4.65091 0
M  V30 1639 O 155.775 1.71778 -5.76867 0
M  V30 1640 H 159.601 -0.141421 -3.03371 0
M  V30 1641 H 157.186 -0.135146 -1.48787 0
M  V30 1642 H 159.068 2.25417 -3.56041 0
M  V30 1643 H 157.743 2.20982 -2.36535 0
M  V30 1644 H 156.65 0.334064 -3.72605 0
M  V30 1645 H 157.983 0.459131 -4.90054 0
M  V30 1646 N 159.635 1.57281 -0.100228 0
M  V30 1647 C 160.583 2.15542 0.874328 0
M  V30 1648 C 161.577 1.09962 1.28859 0
M  V30 1649 O 162.783 1.28298 1.26252 0
M  V30 1650 H 159.158 0.689567 0.300003 0
M  V30 1651 H 161.129 2.96241 0.35829 0
M  V30 1652 C 159.878 2.75454 2.1218 0
M  V30 1653 H 159.201 3.56384 1.81193 0
M  V30 1654 H 160.641 3.19781 2.78417 0
M  V30 1655 C 159.1 1.71602 2.89921 0
M  V30 1656 O 159.63 1.15804 3.84646 0
M  V30 1657 N 157.836 1.41975 2.53558 0
M  V30 1658 H 157.383 1.87539 1.76598 0
M  V30 1659 H 157.341 0.727274 3.05873 0
M  V30 1660 N 161.113 -0.173488 1.56642 0
M  V30 1661 C 162.359 -0.891784 1.8214 0
M  V30 1662 C 162.692 -1.8199 0.677736 0
M  V30 1663 O 161.967 -1.91842 -0.320446 0
M  V30 1664 C 162.25 -1.68933 3.18015 0
M  V30 1665 C 162.103 -0.784487 4.42906 0
M  V30 1666 C 163.422 -2.65748 3.50808 0
M  V30 1667 H 160.541 -0.322761 0.662567 0
M  V30 1668 H 163.183 -0.158095 1.89341 0
M  V30 1669 H 161.333 -2.31482 3.12007 0
M  V30 1670 H 163.005 -0.172046 4.60979 0
M  V30 1671 H 161.248 -0.0924117 4.33702 0
M  V30 1672 H 161.919 -1.37799 5.34524 0
M  V30 1673 H 164.395 -2.13327 3.57255 0
M  V30 1674 H 163.271 -3.18619 4.4696 0
M  V30 1675 H 163.532 -3.45842 2.75401 0
M  V30 1676 N 162.591 -1.51276 -0.441967 0
M  V30 1677 C 164.007 -1.39349 -0.778083 0
M  V30 1678 C 164.207 -0.472212 -1.95889 0
M  V30 1679 O 163.263 0.0743551 -2.5239 0
M  V30 1680 C 164.576 -2.81292 -1.0628 0
M  V30 1681 C 166.124 -2.9041 -1.16751 0
M  V30 1682 C 166.599 -4.33251 -1.48519 0
M  V30 1683 N 168.09 -4.36336 -1.55453 0
M  V30 1684 C 168.825 -5.43885 -1.81596 0
M  V30 1685 N 168.321 -6.61601 -2.05562 0
M  V30 1686 N 170.114 -5.3136 -1.8334 0
M  V30 1687 H 162.265 -2.09729 0.335774 0
M  V30 1688 H 164.528 -0.943925 0.0878028 0
M  V30 1689 H 164.234 -3.50678 -0.267905 0
M  V30 1690 H 164.108 -3.20334 -1.99163 0
M  V30 1691 H 166.495 -2.21225 -1.95304 0
M  V30 1692 H 166.576 -2.54871 -0.217801 0
M  V30 1693 H 166.22 -5.02984 -0.704958 0
M  V30 1694 H 166.15 -4.66299 -2.44689 0
M  V30 1695 H 168.641 -3.51466 -1.38853 0
M  V30 1696 H 168.954 -7.39361 -2.24867 0
M  V30 1697 H 167.299 -6.64725 -2.02894 0
M  V30 1698 H 170.49 -4.38382 -1.64132 0
M  V30 1699 H 170.663 -6.15258 -2.03377 0
M  V30 1700 N 164.069 0.697108 -1.41344 0
M  V30 1701 C 165.485 1.00751 -1.2378 0
M  V30 1702 C 165.685 2.01105 -0.126066 0
M  V30 1703 O 164.741 2.47295 0.51004 0
M  V30 1704 C 166.054 1.53359 -2.58653 0
M  V30 1705 C 167.602 1.6525 -2.65822 0
M  V30 1706 C 168.077 2.2126 -4.01009 0
M  V30 1707 N 169.568 2.28622 -4.02847 0
M  V30 1708 C 170.303 2.72984 -5.04249 0
M  V30 1709 N 169.799 3.16962 -6.16041 0
M  V30 1710 N 171.592 2.72534 -4.91611 0
M  V30 1711 H 163.743 0.0322662 -2.12375 0
M  V30 1712 H 166.006 0.0768853 -0.944877 0
M  V30 1713 H 165.712 0.870773 -3.4075 0
M  V30 1714 H 165.586 2.51597 -2.81032 0
M  V30 1715 H 167.973 2.30644 -1.84086 0
M  V30 1716 H 168.054 0.655614 -2.47256 0
M  V30 1717 H 167.698 1.56482 -4.83193 0
M  V30 1718 H 167.628 3.21698 -4.16915 0
M  V30 1719 H 170.119 1.97585 -3.22131 0
M  V30 1720 H 170.432 3.49434 -6.89287 0
M  V30 1721 H 168.777 3.14875 -6.1958 0
M  V30 1722 H 171.968 2.37525 -4.0336 0
M  V30 1723 H 172.141 3.06789 -5.70775 0
M  V30 1724 N 165.547 1.27147 0.931209 0
M  V30 1725 C 166.796 1.12664 1.67302 0
M  V30 1726 C 167.109 -0.327718 1.92835 0
M  V30 1727 O 168.315 -0.593392 2.64936 0
M  V30 1728 C 166.771 1.9683 3.01307 0
M  V30 1729 C 166.379 3.46901 2.83485 0
M  V30 1730 C 168.123 1.90985 3.79111 0
M  V30 1731 C 166.03 4.23279 4.13024 0
M  V30 1732 H 164.96 0.41803 0.627509 0
M  V30 1733 H 167.611 1.51539 1.03481 0
M  V30 1734 H 165.993 1.50797 3.66164 0
M  V30 1735 H 167.167 4.00773 2.27415 0
M  V30 1736 H 165.482 3.54088 2.19113 0
M  V30 1737 H 168.079 2.45328 4.75098 0
M  V30 1738 H 168.422 0.882718 4.06834 0
M  V30 1739 H 168.955 2.34895 3.21044 0
M  V30 1740 H 165.694 5.26503 3.90481 0
M  V30 1741 H 165.214 3.74186 4.6877 0
M  V30 1742 H 166.893 4.32265 4.81411 0
M  V30 1743 N 167.025 -1.13721 1.09112 0
M  V30 1744 C 167.988 -2.17222 0.731241 0
M  V30 1745 C 168.988 -1.59035 -0.237566 0
M  V30 1746 O 170.178 -1.74192 -0.0161704 0
M  V30 1747 C 167.31 -3.40804 0.0808443 0
M  V30 1748 H 168.503 -2.50573 1.64783 0
M  V30 1749 H 166.056 -1.28493 0.889897 0
M  V30 1750 H 166.791 -3.1304 -0.847127 0
M  V30 1751 H 166.576 -3.84306 0.777896 0
M  V30 1752 H 168.066 -4.1731 -0.155657 0
M  V30 1753 N 168.503 -0.877838 -1.30888 0
M  V30 1754 C 169.413 -0.343096 -2.32078 0
M  V30 1755 C 170.429 0.551022 -1.65045 0
M  V30 1756 O 171.605 0.445854 -1.96403 0
M  V30 1757 C 168.67 0.439905 -3.43898 0
M  V30 1758 C 167.731 -0.483111 -4.26573 0
M  V30 1759 C 166.964 0.262616 -5.33053 0
M  V30 1760 O 167.187 1.48967 -5.50604 0
M  V30 1761 O 166.121 -0.383593 -6.00676 0
M  V30 1762 H 169.947 -1.18203 -2.79753 0
M  V30 1763 H 167.532 -0.64145 -1.34929 0
M  V30 1764 H 169.414 0.883504 -4.12034 0
M  V30 1765 H 168.089 1.25526 -2.98371 0
M  V30 1766 H 166.996 -0.975374 -3.61161 0
M  V30 1767 H 168.329 -1.26427 -4.75686 0
M  V30 1768 N 169.982 1.44106 -0.638065 0
M  V30 1769 C 171.228 2.02277 -0.145546 0
M  V30 1770 C 171.561 1.50125 1.23191 0
M  V30 1771 O 170.836 0.688133 1.8192 0
M  V30 1772 C 171.119 3.59829 -0.139791 0
M  V30 1773 C 170.972 4.22247 -1.55008 0
M  V30 1774 C 172.291 4.36873 0.531966 0
M  V30 1775 H 169.41 0.734992 -0.0543632 0
M  V30 1776 H 172.052 1.71592 -0.815863 0
M  V30 1777 H 170.202 3.86102 0.431007 0
M  V30 1778 H 171.874 4.07057 -2.1703 0
M  V30 1779 H 170.117 3.79476 -2.10191 0
M  V30 1780 H 170.788 5.31284 -1.49804 0
M  V30 1781 H 173.264 4.16074 0.0464781 0
M  V30 1782 H 172.14 5.4657 0.505206 0
M  V30 1783 H 172.401 4.11995 1.60352 0
M  V30 1784 N 171.46 0.379036 1.52974 0
M  V30 1785 C 172.423 -0.448865 2.24762 0
M  V30 1786 C 173.423 -0.998689 1.26027 0
M  V30 1787 O 174.613 -0.882313 1.50203 0
M  V30 1788 C 171.745 -1.62872 2.99476 0
M  V30 1789 H 172.938 0.179491 2.99362 0
M  V30 1790 H 170.491 0.13096 1.5575 0
M  V30 1791 H 171.226 -2.29479 2.29151 0
M  V30 1792 H 171.011 -1.24128 3.71934 0
M  V30 1793 H 172.501 -2.2151 3.5401 0
M  V30 1794 N 172.938 -1.57226 0.108567 0
M  V30 1795 C 173.885 -2.14756 -0.845481 0
M  V30 1796 C 174.855 -1.06971 -1.27068 0
M  V30 1797 O 176.04 -1.34827 -1.35005 0
M  V30 1798 C 173.18 -2.74298 -2.09415 0
M  V30 1799 C 172.293 -3.96358 -1.71826 0
M  V30 1800 C 171.428 -4.44021 -2.9158 0
M  V30 1801 C 170.467 -5.58637 -2.50181 0
M  V30 1802 N 169.604 -6.01091 -3.62814 0
M  V30 1803 H 174.444 -2.95961 -0.348035 0
M  V30 1804 H 171.981 -1.46226 -0.160106 0
M  V30 1805 H 173.939 -3.06945 -2.82561 0
M  V30 1806 H 172.569 -1.95801 -2.56636 0
M  V30 1807 H 171.621 -3.69939 -0.885947 0
M  V30 1808 H 172.933 -4.79504 -1.37394 0
M  V30 1809 H 172.087 -4.78522 -3.72963 0
M  V30 1810 H 170.826 -3.59803 -3.29231 0
M  V30 1811 H 169.831 -5.23751 -1.67228 0
M  V30 1812 H 171.056 -6.44613 -2.13659 0
M  V30 1813 H 169.002 -5.19817 -4.00158 0
M  V30 1814 H 168.919 -6.79066 -3.32273 0
M  V30 1815 H 170.187 -6.40227 -4.44668 0
M  V30 1816 N 174.416 0.165178 -1.56732 0
M  V30 1817 C 175.346 1.20651 -1.99914 0
M  V30 1818 C 176.327 1.45827 -0.875705 0
M  V30 1819 O 177.512 1.57057 -1.14223 0
M  V30 1820 C 174.642 2.54401 -2.36427 0
M  V30 1821 C 173.596 2.43782 -3.51787 0
M  V30 1822 C 172.922 3.82078 -3.7406 0
M  V30 1823 C 174.222 1.93732 -4.85041 0
M  V30 1824 H 175.916 0.847534 -2.87154 0
M  V30 1825 H 173.462 0.40625 -1.38151 0
M  V30 1826 H 175.415 3.27458 -2.65234 0
M  V30 1827 H 174.139 2.92098 -1.46103 0
M  V30 1828 H 172.798 1.73178 -3.23117 0
M  V30 1829 H 172.446 4.17179 -2.81017 0
M  V30 1830 H 172.146 3.7584 -4.51684 0
M  V30 1831 H 173.67 4.56712 -4.05274 0
M  V30 1832 H 175.084 2.56569 -5.12684 0
M  V30 1833 H 173.481 1.98428 -5.66345 0
M  V30 1834 H 174.551 0.891962 -4.76626 0
M  V30 1835 N 175.894 1.51508 0.433938 0
M  V30 1836 C 177.141 1.64345 1.18309 0
M  V30 1837 C 177.469 0.361315 1.91115 0
M  V30 1838 O 176.724 -0.654753 1.84422 0
M  V30 1839 C 177.023 2.79928 2.22205 0
M  V30 1840 C 176.689 4.19078 1.66387 0
M  V30 1841 C 175.351 4.56932 1.50887 0
M  V30 1842 C 177.703 5.05894 1.25381 0
M  V30 1843 C 175.031 5.79305 0.928608 0
M  V30 1844 C 177.383 6.2885 0.687823 0
M  V30 1845 C 176.047 6.65473 0.519755 0
M  V30 1846 H 175.317 0.601381 0.432923 0
M  V30 1847 H 177.964 1.85549 0.473676 0
M  V30 1848 H 176.269 2.52959 2.99197 0
M  V30 1849 H 177.966 2.87059 2.79997 0
M  V30 1850 H 174.556 3.89234 1.79428 0
M  V30 1851 H 178.74 4.77253 1.36175 0
M  V30 1852 H 173.996 6.06324 0.786186 0
M  V30 1853 H 178.17 6.95461 0.361581 0
M  V30 1854 H 175.797 7.6017 0.0679979 0
M  V30 1855 N 177.372 -0.689602 1.41712 0
M  V30 1856 C 178.335 -1.78521 1.43746 0
M  V30 1857 C 179.335 -1.57436 0.327191 0
M  V30 1858 O 180.525 -1.64 0.587348 0
M  V30 1859 C 177.657 -3.16971 1.25467 0
M  V30 1860 H 178.85 -1.78108 2.41283 0
M  V30 1861 H 176.403 -0.89781 1.27942 0
M  V30 1862 H 177.138 -3.23019 0.287948 0
M  V30 1863 H 176.923 -3.33678 2.05917 0
M  V30 1864 H 178.413 -3.96935 1.2974 0
M  V30 1865 N 178.85 -1.27639 -0.924453 0
M  V30 1866 C 180.127 -1.04887 -1.651 0
M  V30 1867 C 180.507 0.415327 -2.06974 0
M  V30 1868 O 179.855 1.39923 -1.80648 0
M  V30 1869 C 180.065 -2.01348 -2.85061 0
M  V30 1870 C 181.413 -2.30899 -3.56329 0
M  V30 1871 O 182.437 -1.99348 -2.95193 0
M  V30 1872 O 181.296 -2.84699 -4.66485 0
M  V30 1873 H 178.39 -0.400083 -0.723784 0
M  V30 1874 H 180.936 -1.38916 -0.974703 0
M  V30 1875 H 179.708 -3.0008 -2.51133 0
M  V30 1876 H 179.331 -1.679 -3.6041 0
M  V30 1877 N 180.328 1.1314 -1.09713 0
M  V30 1878 C 181.291 2.16831 -0.742751 0
M  V30 1879 C 182.291 1.59159 0.229129 0
M  V30 1880 O 183.481 1.74199 0.00693237 0
M  V30 1881 C 180.613 3.40756 -0.0989168 0
M  V30 1882 H 181.806 2.49695 -1.66109 0
M  V30 1883 H 179.359 1.2802 -0.896699 0
M  V30 1884 H 180.094 3.13485 0.830514 0
M  V30 1885 H 179.879 3.83888 -0.798265 0
M  V30 1886 H 181.369 4.17386 0.133524 0
M  V30 1887 N 181.806 0.884767 1.30421 0
M  V30 1888 C 183.054 0.502112 1.95763 0
M  V30 1889 C 183.375 -0.951815 1.70192 0
M  V30 1890 O 182.645 -1.6692 1.0254 0
M  V30 1891 H 181.225 0.182694 0.724315 0
M  V30 1892 H 183.887 1.1278 1.58955 0
M  V30 1893 H 182.983 0.672188 3.04775 0
M  V30 1894 N 183.284 -1.43765 0.645699 0
M  V30 1895 C 184.214 -2.33471 -0.0370477 0
M  V30 1896 C 185.195 -1.49042 -0.819779 0
M  V30 1897 O 186.38 -1.77726 -0.782758 0
M  V30 1898 C 183.51 -3.32311 -1.0093 0
M  V30 1899 C 182.464 -4.2667 -0.337201 0
M  V30 1900 C 181.79 -5.1549 -1.42037 0
M  V30 1901 C 183.09 -5.16657 0.765706 0
M  V30 1902 H 184.784 -2.90809 0.712069 0
M  V30 1903 H 182.33 -1.39834 0.343876 0
M  V30 1904 H 184.283 -3.9396 -1.49578 0
M  V30 1905 H 183.007 -2.73213 -1.78948 0
M  V30 1906 H 181.666 -3.66374 0.128771 0
M  V30 1907 H 181.314 -4.52735 -2.1918 0
M  V30 1908 H 181.014 -5.79438 -0.975966 0
M  V30 1909 H 182.538 -5.80012 -1.90838 0
M  V30 1910 H 183.952 -5.72158 0.361702 0
M  V30 1911 H 182.349 -5.89286 1.13413 0
M  V30 1912 H 183.419 -4.56796 1.62683 0
M  V30 1913 N 184.763 -0.387143 -1.52771 0
M  V30 1914 C 186.009 0.196025 -2.0185 0
M  V30 1915 C 186.342 1.46641 -1.27319 0
M  V30 1916 O 185.617 1.90889 -0.373032 0
M  V30 1917 C 185.9 0.466136 -3.5707 0
M  V30 1918 C 185.753 -0.819385 -4.42274 0
M  V30 1919 C 187.072 1.25768 -4.21747 0
M  V30 1920 H 184.191 0.0697708 -0.73369 0
M  V30 1921 H 186.833 -0.516286 -1.82851 0
M  V30 1922 H 184.983 1.07293 -3.7339 0
M  V30 1923 H 186.655 -1.4563 -4.37709 0
M  V30 1924 H 184.898 -1.43517 -4.09372 0
M  V30 1925 H 185.569 -0.585065 -5.48891 0
M  V30 1926 H 188.045 0.744167 -4.09391 0
M  V30 1927 H 186.921 1.41541 -5.30337 0
M  V30 1928 H 187.182 2.27228 -3.79236 0
M  V30 1929 N 186.241 1.57166 -0.116904 0
M  V30 1930 C 187.481 1.97008 0.544715 0
M  V30 1931 C 187.845 0.998713 1.63981 0
M  V30 1932 O 189.046 1.28644 2.36018 0
M  V30 1933 C 187.317 3.41145 1.06559 0
M  V30 1934 S 188.876 4.02998 1.73603 0
M  V30 1935 H 185.694 0.688587 0.177112 0
M  V30 1936 H 188.296 1.94459 -0.201487 0
M  V30 1937 H 187 4.09592 0.257374 0
M  V30 1938 H 186.531 3.4734 1.84712 0
M  V30 1939 H 188.546 3.93585 3.02168 0
M  V30 1940 N 187.719 -0.156864 1.56817 0
M  V30 1941 C 188.968 -0.869504 1.81996 0
M  V30 1942 C 189.281 -1.82777 0.696545 0
M  V30 1943 O 190.487 -2.58384 0.833658 0
M  V30 1944 C 188.943 -1.59679 3.22538 0
M  V30 1945 C 188.551 -0.681431 4.42787 0
M  V30 1946 C 190.295 -2.2968 3.56997 0
M  V30 1947 C 188.202 -1.40978 5.74351 0
M  V30 1948 H 187.132 -0.328438 0.678708 0
M  V30 1949 H 189.783 -0.1223 1.83092 0
M  V30 1950 H 188.165 -2.38927 3.158 0
M  V30 1951 H 189.339 0.0751166 4.60739 0
M  V30 1952 H 187.654 -0.0903431 4.16302 0
M  V30 1953 H 190.251 -2.84794 4.52544 0
M  V30 1954 H 190.594 -3.05707 2.82576 0
M  V30 1955 H 191.127 -1.57361 3.65352 0
M  V30 1956 H 187.866 -0.691561 6.51842 0
M  V30 1957 H 187.386 -2.13929 5.60352 0
M  V30 1958 H 189.065 -1.95337 6.16808 0
M  V30 1959 N 189.197 -1.51736 -0.425897 0
M  V30 1960 C 190.425 -1.68794 -1.1965 0
M  V30 1961 C 190.84 -0.390164 -1.84725 0
M  V30 1962 O 190.197 0.632376 -1.71194 0
M  V30 1963 C 190.248 -2.81174 -2.27208 0
M  V30 1964 O 189.969 -4.05925 -1.64793 0
M  V30 1965 C 191.47 -3.09599 -3.17275 0
M  V30 1966 H 188.69 -0.566128 -0.360194 0
M  V30 1967 H 191.234 -1.98211 -0.503249 0
M  V30 1968 H 189.389 -2.54324 -2.9223 0
M  V30 1969 H 189.803 -4.68423 -2.35967 0
M  V30 1970 H 191.277 -3.91786 -3.88854 0
M  V30 1971 H 191.754 -2.22468 -3.78688 0
M  V30 1972 H 192.36 -3.38151 -2.57941 0
M  V30 1973 N 190.675 0.682077 -1.42076 0
M  V30 1974 C 191.9 1.47558 -1.45744 0
M  V30 1975 C 192.325 1.87977 -0.0680981 0
M  V30 1976 O 191.683 1.55522 0.9318 0
M  V30 1977 C 191.731 2.70575 -2.38373 0
M  V30 1978 O 190.835 3.68573 -1.85007 0
M  V30 1979 H 190.176 0.443585 -0.494093 0
M  V30 1980 H 192.706 0.837238 -1.86686 0
M  V30 1981 H 192.716 3.18729 -2.54707 0
M  V30 1982 H 191.391 2.40495 -3.39315 0
M  V30 1983 H 189.968 3.2757 -1.78192 0
M  V30 1984 N 192.153 1.28127 0.917671 0
M  V30 1985 C 193.4 1.15052 1.66641 0
M  V30 1986 C 193.728 -0.301677 1.92146 0
M  V30 1987 O 192.983 -1.23622 1.51711 0
M  V30 1988 C 193.282 1.89018 3.03327 0
M  V30 1989 C 192.948 3.38832 2.97496 0
M  V30 1990 C 191.61 3.79693 2.95613 0
M  V30 1991 C 193.962 4.34378 2.88036 0
M  V30 1992 C 191.29 5.14447 2.82066 0
M  V30 1993 C 193.642 5.69201 2.7603 0
M  V30 1994 C 192.306 6.09343 2.72502 0
M  V30 1995 H 191.576 0.421006 0.609783 0
M  V30 1996 H 194.223 1.58855 1.06945 0
M  V30 1997 H 192.528 1.37752 3.66785 0
M  V30 1998 H 194.225 1.76321 3.60156 0
M  V30 1999 H 190.815 3.06342 2.99754 0
M  V30 2000 H 194.999 4.03775 2.88581 0
M  V30 2001 H 190.255 5.44681 2.77728 0
M  V30 2002 H 194.429 6.42901 2.67678 0
M  V30 2003 H 192.056 7.13712 2.61762 0
M  V30 2004 N 193.631 -1.12557 1.10312 0
M  V30 2005 C 194.88 -1.83395 0.839588 0
M  V30 2006 C 195.193 -1.84939 -0.636929 0
M  V30 2007 O 196.399 -2.51761 -1.01631 0
M  V30 2008 C 194.855 -3.29303 1.45215 0
M  V30 2009 C 194.463 -3.36122 2.96186 0
M  V30 2010 C 196.207 -4.05121 1.26796 0
M  V30 2011 C 194.114 -4.76357 3.50483 0
M  V30 2012 H 193.044 -0.687133 0.310425 0
M  V30 2013 H 195.695 -1.26746 1.32694 0
M  V30 2014 H 194.077 -3.85812 0.892469 0
M  V30 2015 H 195.251 -2.89559 3.58458 0
M  V30 2016 H 193.566 -2.73776 3.13745 0
M  V30 2017 H 196.163 -5.08668 1.64806 0
M  V30 2018 H 196.506 -4.15773 0.209409 0
M  V30 2019 H 197.039 -3.54967 1.79563 0
M  V30 2020 H 193.778 -4.70899 4.55998 0
M  V30 2021 H 193.298 -5.23377 2.92978 0
M  V30 2022 H 194.977 -5.45294 3.48228 0
M  V30 2023 N 195.109 -0.891671 -1.2995 0
M  V30 2024 C 196.334 -0.527932 -2.00568 0
M  V30 2025 C 196.759 0.877969 -1.66353 0
M  V30 2026 O 196.117 1.58301 -0.883762 0
M  V30 2027 C 196.165 -0.717745 -3.53385 0
M  V30 2028 O 195.269 0.233376 -4.11739 0
M  V30 2029 H 194.61 -0.20722 -0.630837 0
M  V30 2030 H 197.14 -1.20105 -1.65638 0
M  V30 2031 H 197.15 -0.619307 -4.03272 0
M  V30 2032 H 195.825 -1.74276 -3.77625 0
M  V30 2033 H 194.402 0.0880706 -3.72796 0
M  V30 2034 N 196.587 1.43421 -0.653314 0
M  V30 2035 C 197.998 1.85065 -0.246537 0
M  V30 2036 C 198.349 1.54688 1.2069 0
M  V30 2037 O 197.474 0.995896 1.92122 0
M  V30 2038 C 198.069 3.35922 -0.440666 0
M  V30 2039 C 196.628 3.76297 -0.0882064 0
M  V30 2040 C 195.775 2.67147 -0.743484 0
M  V30 2041 H 198.726 1.33572 -0.856979 0
M  V30 2042 H 198.747 3.79204 0.313798 0
M  V30 2043 H 198.259 3.58 -1.49858 0
M  V30 2044 H 196.36 3.5983 0.96711 0
M  V30 2045 H 196.473 4.76338 -0.513738 0
M  V30 2046 H 194.837 2.54086 -0.176712 0
M  V30 2047 H 195.62 2.92053 -1.80443 0
M  V30 2048 N 198.065 0.39524 1.52563 0
M  V30 2049 C 199.295 -0.184675 2.05773 0
M  V30 2050 C 199.703 -1.40571 1.26635 0
M  V30 2051 O 199.046 -1.81105 0.30769 0
M  V30 2052 C 199.108 -0.613551 3.54226 0
M  V30 2053 C 198.772 0.49484 4.54313 0
M  V30 2054 C 199.769 1.3541 5.01956 0
M  V30 2055 C 197.454 0.663565 4.97898 0
M  V30 2056 C 199.448 2.36716 5.91814 0
M  V30 2057 C 197.135 1.67996 5.87555 0
M  V30 2058 C 198.133 2.53017 6.34406 0
M  V30 2059 O 197.821 3.52917 7.22291 0
M  V30 2060 H 197.553 -0.030077 0.675331 0
M  V30 2061 H 200.107 0.560708 1.97599 0
M  V30 2062 H 198.337 -1.411 3.60038 0
M  V30 2063 H 200.026 -1.11981 3.90148 0
M  V30 2064 H 200.792 1.23509 4.6901 0
M  V30 2065 H 196.671 0.0114913 4.60999 0
M  V30 2066 H 200.215 3.03113 6.28306 0
M  V30 2067 H 196.112 1.79933 6.19915 0
M  V30 2068 H 196.88 3.48996 7.40367 0
M  V30 2069 N 199.544 -1.57102 0.125237 0
M  V30 2070 C 200.772 -1.99761 -0.538797 0
M  V30 2071 C 201.187 -1.00503 -1.59827 0
M  V30 2072 O 200.544 0.00119474 -1.825 0
M  V30 2073 C 200.595 -3.42408 -1.15927 0
M  V30 2074 O 200.316 -4.37869 -0.142143 0
M  V30 2075 C 201.817 -4.00232 -1.90602 0
M  V30 2076 H 199.037 -0.655772 -0.14214 0
M  V30 2077 H 201.581 -2.03383 0.213413 0
M  V30 2078 H 199.736 -3.39706 -1.86223 0
M  V30 2079 H 200.15 -5.21128 -0.593775 0
M  V30 2080 H 201.624 -5.02105 -2.29335 0
M  V30 2081 H 202.101 -3.39721 -2.78363 0
M  V30 2082 H 202.707 -4.06499 -1.25055 0
M  V30 2083 N 201.022 0.148545 -1.56898 0
M  V30 2084 C 201.954 1.20852 -1.9475 0
M  V30 2085 C 202.967 1.39265 -0.843152 0
M  V30 2086 O 204.156 1.38864 -1.12156 0
M  V30 2087 C 201.256 2.57362 -2.20495 0
M  V30 2088 C 200.429 2.59947 -3.51776 0
M  V30 2089 C 199.488 3.77984 -3.6608 0
M  V30 2090 O 198.514 3.62929 -4.38487 0
M  V30 2091 N 199.716 4.95375 -3.02629 0
M  V30 2092 H 202.481 0.886804 -2.86279 0
M  V30 2093 H 200.042 0.338121 -1.5833 0
M  V30 2094 H 202.034 3.34833 -2.27307 0
M  V30 2095 H 200.604 2.81832 -1.35238 0
M  V30 2096 H 199.824 1.68403 -3.56419 0
M  V30 2097 H 201.112 2.58704 -4.38121 0
M  V30 2098 H 200.51 5.10509 -2.43715 0
M  V30 2099 H 199.067 5.70627 -3.15004 0
M  V30 2100 N 202.5 1.5196 0.417844 0
M  V30 2101 C 203.777 1.56146 1.17803 0
M  V30 2102 C 204.157 0.337275 2.08388 0
M  V30 2103 O 203.505 -0.676447 2.18258 0
M  V30 2104 C 203.715 2.88566 1.96293 0
M  V30 2105 C 205.063 3.41244 2.52662 0
M  V30 2106 O 206.087 2.90247 2.06483 0
M  V30 2107 O 204.946 4.30273 3.36938 0
M  V30 2108 H 202.04 0.628598 0.537395 0
M  V30 2109 H 204.586 1.64283 0.425331 0
M  V30 2110 H 203.358 3.69116 1.2988 0
M  V30 2111 H 202.981 2.83681 2.78587 0
M  V30 2112 N 203.978 -0.674533 1.42435 0
M  V30 2113 C 205.394 -0.98769 1.25367 0
M  V30 2114 C 205.594 -2.00879 0.158044 0
M  V30 2115 O 204.65 -2.48075 -0.470633 0
M  V30 2116 C 205.963 -1.49224 2.6106 0
M  V30 2117 C 207.511 -1.61 2.68417 0
M  V30 2118 C 207.986 -2.14852 4.04478 0
M  V30 2119 N 209.477 -2.22185 4.06434 0
M  V30 2120 C 210.212 -2.64928 5.08528 0
M  V30 2121 N 209.708 -3.07121 6.21006 0
M  V30 2122 N 211.501 -2.64679 4.95885 0
M  V30 2123 H 203.652 0.00152503 2.124 0
M  V30 2124 H 205.915 -0.0618434 0.945981 0
M  V30 2125 H 205.621 -0.816453 3.42092 0
M  V30 2126 H 205.495 -2.47094 2.84999 0
M  V30 2127 H 207.882 -2.27686 1.87732 0
M  V30 2128 H 207.963 -0.616195 2.48267 0
M  V30 2129 H 207.607 -1.48775 4.85622 0
M  V30 2130 H 207.537 -3.15024 4.2198 0
M  V30 2131 H 210.028 -1.92435 3.25234 0
M  V30 2132 H 210.341 -3.38423 6.94759 0
M  V30 2133 H 208.686 -3.04978 6.24511 0
M  V30 2134 H 211.877 -2.31078 4.07088 0
M  V30 2135 H 212.05 -2.9767 5.75584 0
M  V30 2136 N 205.456 -1.28612 -0.910864 0
M  V30 2137 C 206.404 -1.1265 -2.03501 0
M  V30 2138 C 207.398 -0.0450054 -1.6934 0
M  V30 2139 O 208.604 -0.203988 -1.7884 0
M  V30 2140 H 204.979 -0.347639 -0.666822 0
M  V30 2141 H 206.95 -2.07849 -2.14106 0
M  V30 2142 C 205.699 -0.808143 -3.38178 0
M  V30 2143 H 205.022 -1.63231 -3.6496 0
M  V30 2144 H 206.462 -0.736426 -4.17556 0
M  V30 2145 C 204.921 0.488226 -3.33344 0
M  V30 2146 O 205.451 1.51766 -3.71927 0
M  V30 2147 N 203.657 0.490009 -2.86439 0
M  V30 2148 H 203.204 -0.348161 -2.55236 0
M  V30 2149 H 203.162 1.35741 -2.83587 0
M  V30 2150 N 206.934 1.1197 -1.10907 0
M  V30 2151 C 207.882 2.19927 -0.757303 0
M  V30 2152 C 208.876 1.67564 0.248747 0
M  V30 2153 O 210.082 1.79672 0.108605 0
M  V30 2154 H 206.457 0.716925 -0.226987 0
M  V30 2155 H 208.428 2.46847 -1.67658 0
M  V30 2156 C 207.177 3.47061 -0.210671 0
M  V30 2157 H 206.5 3.87703 -0.976049 0
M  V30 2158 H 207.94 4.24 -0.0026584 0
M  V30 2159 C 206.399 3.19864 1.05777 0
M  V30 2160 O 206.929 3.40049 2.13845 0
M  V30 2161 N 205.135 2.73636 0.978349 0
M  V30 2162 H 204.682 2.5741 0.0988246 0
M  V30 2163 H 204.64 2.55815 1.82773 0
M  V30 2164 N 208.412 0.89855 1.29475 0
M  V30 2165 C 209.375 0.380272 2.26023 0
M  V30 2166 C 210.375 -0.484891 1.53315 0
M  V30 2167 O 211.565 -0.290108 1.71767 0
M  V30 2168 C 208.697 -0.45651 3.3783 0
M  V30 2169 H 209.89 1.23295 2.73383 0
M  V30 2170 H 207.443 0.676589 1.40897 0
M  V30 2171 H 208.178 -1.32922 2.95808 0
M  V30 2172 H 207.963 0.163393 3.91759 0
M  V30 2173 H 209.453 -0.810466 4.0966 0
M  V30 2174 N 209.89 -1.43072 0.660911 0
M  V30 2175 C 211.306 -1.56169 0.329173 0
M  V30 2176 C 211.506 -1.64317 -1.16629 0
M  V30 2177 O 210.562 -1.60245 -1.95135 0
M  V30 2178 C 211.875 -2.81873 1.04729 0
M  V30 2179 C 213.423 -2.95627 1.02828 0
M  V30 2180 C 213.898 -4.24174 1.72744 0
M  V30 2181 N 215.389 -4.31055 1.69545 0
M  V30 2182 C 216.124 -5.29304 2.20511 0
M  V30 2183 N 215.62 -6.33786 2.79799 0
M  V30 2184 N 217.413 -5.21008 2.10966 0
M  V30 2185 H 209.564 -1.36027 1.63127 0
M  V30 2186 H 211.827 -0.653823 0.686454 0
M  V30 2187 H 211.533 -2.81942 2.10242 0
M  V30 2188 H 211.407 -3.72338 0.603702 0
M  V30 2189 H 213.794 -2.95094 -0.0184742 0
M  V30 2190 H 213.875 -2.06431 1.51063 0
M  V30 2191 H 213.519 -4.25467 2.7738 0
M  V30 2192 H 213.449 -5.1228 1.2197 0
M  V30 2193 H 215.94 -3.56174 1.26288 0
M  V30 2194 H 216.253 -7.05086 3.16344 0
M  V30 2195 H 214.598 -6.34387 2.83863 0
M  V30 2196 H 217.789 -4.38301 1.64347 0
M  V30 2197 H 217.962 -5.97416 2.50993 0
M  V30 2198 N 211.368 -0.403325 -1.52352 0
M  V30 2199 C 212.3 0.4603 -2.2453 0
M  V30 2200 C 213.313 1.01505 -1.27282 0
M  V30 2201 O 214.502 0.914982 -1.53266 0
M  V30 2202 C 211.602 1.65208 -2.95905 0
M  V30 2203 C 210.775 1.22224 -4.19976 0
M  V30 2204 C 209.834 2.28028 -4.74226 0
M  V30 2205 O 208.86 1.88857 -5.36956 0
M  V30 2206 N 210.062 3.6012 -4.55295 0
M  V30 2207 H 212.827 -0.158156 -2.99282 0
M  V30 2208 H 210.388 -0.230402 -1.60252 0
M  V30 2209 H 212.38 2.35541 -3.29093 0
M  V30 2210 H 210.95 2.17658 -2.24374 0
M  V30 2211 H 210.17 0.34725 -3.92668 0
M  V30 2212 H 211.458 0.911924 -5.00561 0
M  V30 2213 H 210.856 3.94698 -4.05253 0
M  V30 2214 H 209.413 4.26447 -4.92936 0
M  V30 2215 N 212.846 1.57033 -0.133567 0
M  V30 2216 C 214.095 1.94861 0.520768 0
M  V30 2217 C 214.408 1.02012 1.66892 0
M  V30 2218 O 215.614 1.29365 2.38699 0
M  V30 2219 C 214.07 3.46362 0.977809 0
M  V30 2220 C 213.678 4.47773 -0.142674 0
M  V30 2221 C 215.422 3.93083 1.60269 0
M  V30 2222 C 213.329 5.90468 0.331883 0
M  V30 2223 H 212.259 0.727453 0.198315 0
M  V30 2224 H 214.91 1.82227 -0.215759 0
M  V30 2225 H 213.292 3.54282 1.7692 0
M  V30 2226 H 214.466 4.51536 -0.919317 0
M  V30 2227 H 212.781 4.10891 -0.675124 0
M  V30 2228 H 215.378 4.97121 1.96914 0
M  V30 2229 H 215.721 3.33876 2.48662 0
M  V30 2230 H 216.254 3.88025 0.876453 0
M  V30 2231 H 212.993 6.53463 -0.516341 0
M  V30 2232 H 212.513 5.90094 1.07469 0
M  V30 2233 H 214.192 6.42179 0.788332 0
M  V30 2234 N 214.325 -0.140222 1.56975 0
M  V30 2235 C 215.275 -1.17827 1.95194 0
M  V30 2236 C 216.259 -1.38195 0.824075 0
M  V30 2237 O 217.451 -1.39643 1.0876 0
M  V30 2238 C 214.58 -2.51024 2.34184 0
M  V30 2239 C 213.666 -2.3422 3.53556 0
M  V30 2240 N 214.057 -1.87185 4.69889 0
M  V30 2241 C 212.355 -2.64949 3.58773 0
M  V30 2242 C 213.056 -1.83586 5.5197 0
M  V30 2243 N 212.032 -2.2715 4.93866 0
M  V30 2244 H 215.834 -0.806817 2.82609 0
M  V30 2245 H 213.348 -0.348208 1.58623 0
M  V30 2246 H 215.345 -3.26074 2.59772 0
M  V30 2247 H 214.005 -2.88945 1.48124 0
M  V30 2248 H 215.016 -1.57048 4.93514 0
M  V30 2249 H 211.693 -3.067 2.8327 0
M  V30 2250 H 213.083 -1.48655 6.55249 0
M  V30 2251 N 215.803 -1.52179 -0.40978 0
M  V30 2252 C 216.713 -1.78364 -1.52392 0
M  V30 2253 C 217.729 -0.669183 -1.60617 0
M  V30 2254 O 218.905 -0.954518 -1.77344 0
M  V30 2255 C 215.97 -1.92822 -2.88133 0
M  V30 2256 C 215.031 -3.16725 -2.898 0
M  V30 2257 C 214.264 -3.30483 -4.19067 0
M  V30 2258 O 214.487 -2.49522 -5.12928 0
M  V30 2259 O 213.421 -4.2363 -4.27576 0
M  V30 2260 H 217.247 -2.72931 -1.33201 0
M  V30 2261 H 214.832 -1.37016 -0.59557 0
M  V30 2262 H 216.714 -2.04157 -3.68643 0
M  V30 2263 H 215.389 -1.01444 -3.07393 0
M  V30 2264 H 214.296 -3.10848 -2.08146 0
M  V30 2265 H 215.629 -4.07881 -2.75489 0
M  V30 2266 N 217.281 0.66697 -1.42791 0
M  V30 2267 C 218.529 1.42417 -1.43394 0
M  V30 2268 C 218.85 1.94925 -0.0542373 0
M  V30 2269 O 218.12 1.73564 0.908415 0
M  V30 2270 H 216.7 0.528515 -0.527902 0
M  V30 2271 H 219.362 0.787562 -1.78279 0
M  V30 2272 H 218.458 2.27333 -2.13837 0
M  V30 2273 N 218.759 1.29093 0.90403 0
M  V30 2274 C 219.722 1.1386 1.98919 0
M  V30 2275 C 220.722 0.0753457 1.60623 0
M  V30 2276 O 221.912 0.321931 1.71199 0
M  V30 2277 C 219.044 0.740198 3.32767 0
M  V30 2278 H 220.237 2.10246 2.13861 0
M  V30 2279 H 217.79 1.12218 1.08797 0
M  V30 2280 H 218.525 -0.223997 3.23525 0
M  V30 2281 H 218.31 1.50838 3.61926 0
M  V30 2282 H 219.8 0.656546 4.12407 0
M  V30 2283 N 220.237 -1.11381 1.11499 0
M  V30 2284 C 221.462 -1.87475 0.887019 0
M  V30 2285 C 221.887 -1.79639 -0.557796 0
M  V30 2286 O 221.245 -1.15924 -1.39396 0
M  V30 2287 C 221.293 -3.34213 1.35403 0
M  V30 2288 O 220.397 -4.0903 0.526146 0
M  V30 2289 H 219.738 -0.582099 0.319463 0
M  V30 2290 H 222.268 -1.40785 1.48461 0
M  V30 2291 H 222.278 -3.8506 1.34881 0
M  V30 2292 H 220.953 -3.39232 2.40612 0
M  V30 2293 H 219.53 -3.68082 0.597522 0
M  V30 2294 N 221.715 -0.905404 -1.28997 0
M  V30 2295 C 222.645 -0.404212 -2.29975 0
M  V30 2296 C 223.626 0.523784 -1.61835 0
M  V30 2297 O 224.811 0.433298 -1.89304 0
M  V30 2298 C 221.941 0.364042 -3.45387 0
M  V30 2299 C 220.895 -0.474048 -4.25367 0
M  V30 2300 C 220.221 0.422045 -5.33032 0
M  V30 2301 C 221.521 -1.72696 -4.92923 0
M  V30 2302 H 223.215 -1.24807 -2.72146 0
M  V30 2303 H 220.761 -0.601585 -1.30832 0
M  V30 2304 H 222.714 0.725447 -4.15109 0
M  V30 2305 H 221.438 1.24174 -3.02074 0
M  V30 2306 H 220.097 -0.81786 -3.57361 0
M  V30 2307 H 219.745 1.29804 -4.85963 0
M  V30 2308 H 219.445 -0.135057 -5.87445 0
M  V30 2309 H 220.969 0.779517 -6.05604 0
M  V30 2310 H 222.383 -1.43495 -5.55051 0
M  V30 2311 H 220.78 -2.22582 -5.57295 0
M  V30 2312 H 221.85 -2.45964 -4.17887 0
M  V30 2313 N 223.193 1.4272 -0.668489 0
M  V30 2314 C 224.604 1.84793 -0.266151 0
M  V30 2315 C 224.955 1.55959 1.19043 0
M  V30 2316 O 224.08 1.01622 1.91055 0
M  V30 2317 C 224.675 3.35436 -0.476271 0
M  V30 2318 C 223.234 3.76182 -0.128113 0
M  V30 2319 C 222.381 2.66344 -0.771777 0
M  V30 2320 H 225.332 1.32656 -0.871098 0
M  V30 2321 H 225.353 3.79515 0.273561 0
M  V30 2322 H 224.865 3.5639 -1.53647 0
M  V30 2323 H 222.966 3.60836 0.928891 0
M  V30 2324 H 223.079 4.75766 -0.564231 0
M  V30 2325 H 221.443 2.53885 -0.203652 0
M  V30 2326 H 222.226 2.90123 -1.83531 0
M  V30 2327 N 224.671 0.411399 1.52136 0
M  V30 2328 C 225.918 -0.163645 2.01838 0
M  V30 2329 C 226.246 -1.4495 1.29691 0
M  V30 2330 O 225.501 -1.91725 0.392431 0
M  V30 2331 C 225.8 -0.455872 3.54481 0
M  V30 2332 C 225.466 0.741055 4.44769 0
M  V30 2333 C 224.128 1.06936 4.69167 0
M  V30 2334 C 226.48 1.54075 4.97906 0
M  V30 2335 C 223.808 2.19851 5.43951 0
M  V30 2336 C 226.16 2.66067 5.73926 0
M  V30 2337 C 224.824 2.99381 5.96596 0
M  V30 2338 H 224.094 -0.0598821 0.738576 0
M  V30 2339 H 226.741 0.553283 1.83333 0
M  V30 2340 H 225.046 -1.2544 3.71177 0
M  V30 2341 H 226.743 -0.913802 3.90449 0
M  V30 2342 H 223.333 0.475192 4.25958 0
M  V30 2343 H 227.517 1.30033 4.78963 0
M  V30 2344 H 222.773 2.46006 5.59724 0
M  V30 2345 H 226.947 3.28419 6.14096 0
M  V30 2346 H 224.574 3.86992 6.54325 0
M  V30 2347 N 226.149 -1.5696 0.141893 0
M  V30 2348 C 227.396 -1.9596 -0.510492 0
M  V30 2349 C 227.724 -1.02648 -1.65208 0
M  V30 2350 O 226.979 -0.0546947 -1.95624 0
M  V30 2351 C 227.278 -3.41242 -1.06249 0
M  V30 2352 C 226.944 -4.50882 -0.0398791 0
M  V30 2353 C 225.606 -4.80595 0.241247 0
M  V30 2354 C 227.958 -5.17058 0.65578 0
M  V30 2355 C 225.286 -5.73792 1.22393 0
M  V30 2356 C 227.638 -6.11313 1.62724 0
M  V30 2357 C 226.302 -6.39407 1.91612 0
M  V30 2358 H 225.572 -0.717068 -0.186802 0
M  V30 2359 H 228.219 -1.90142 0.227643 0
M  V30 2360 H 226.524 -3.43866 -1.87785 0
M  V30 2361 H 228.221 -3.68742 -1.57576 0
M  V30 2362 H 224.811 -4.27754 -0.269174 0
M  V30 2363 H 228.995 -4.94239 0.451779 0
M  V30 2364 H 224.251 -5.93853 1.45424 0
M  V30 2365 H 228.425 -6.61668 2.17183 0
M  V30 2366 H 226.052 -7.11427 2.6791 0
M  V30 2367 N 227.627 0.131896 -1.57047 0
M  V30 2368 C 228.537 1.1815 -2.02676 0
M  V30 2369 C 229.553 1.46113 -0.944824 0
M  V30 2370 O 230.729 1.57485 -1.25541 0
M  V30 2371 C 227.794 2.49139 -2.41103 0
M  V30 2372 C 226.855 2.28688 -3.63318 0
M  V30 2373 C 226.088 3.53431 -3.99903 0
M  V30 2374 O 226.311 4.60223 -3.36973 0
M  V30 2375 O 225.245 3.45198 -4.93074 0
M  V30 2376 H 229.071 0.824069 -2.92306 0
M  V30 2377 H 226.656 0.341745 -1.45439 0
M  V30 2378 H 228.538 3.26338 -2.66611 0
M  V30 2379 H 227.213 2.84382 -1.54624 0
M  V30 2380 H 226.12 1.4939 -3.42977 0
M  V30 2381 H 227.453 1.98355 -4.50462 0
M  V30 2382 N 229.106 1.52395 0.401703 0
M  V30 2383 C 230.352 1.67065 1.14966 0
M  V30 2384 C 230.685 0.403052 1.89971 0
M  V30 2385 O 229.96 -0.598774 1.85054 0
M  V30 2386 C 230.243 2.8975 2.13815 0
M  V30 2387 C 230.096 4.26578 1.42658 0
M  V30 2388 C 231.415 3.07965 3.14397 0
M  V30 2389 H 228.534 0.607968 0.416587 0
M  V30 2390 H 231.176 1.84965 0.434511 0
M  V30 2391 H 229.326 2.74619 2.74803 0
M  V30 2392 H 230.998 4.53451 0.847329 0
M  V30 2393 H 229.241 4.27639 0.72849 0
M  V30 2394 H 229.912 5.08483 2.14823 0
M  V30 2395 H 232.388 3.22043 2.63491 0
M  V30 2396 H 231.264 3.95308 3.80819 0
M  V30 2397 H 231.525 2.21611 3.82545 0
M  V30 2398 N 230.584 -0.659388 1.43143 0
M  V30 2399 C 231.831 -1.41935 1.44433 0
M  V30 2400 C 232.159 -1.94387 0.0663522 0
M  V30 2401 O 231.414 -1.72314 -0.927706 0
M  V30 2402 C 231.713 -2.62206 2.42864 0
M  V30 2403 C 231.379 -2.28208 3.88886 0
M  V30 2404 C 230.041 -2.18647 4.28657 0
M  V30 2405 C 232.393 -2.00887 4.8093 0
M  V30 2406 C 229.721 -1.79914 5.58433 0
M  V30 2407 C 232.073 -1.63653 6.11065 0
M  V30 2408 C 230.737 -1.52614 6.49819 0
M  V30 2409 H 230.007 -0.519376 0.528517 0
M  V30 2410 H 232.654 -0.750453 1.76183 0
M  V30 2411 H 230.959 -3.34199 2.04495 0
M  V30 2412 H 232.656 -3.2041 2.41119 0
M  V30 2413 H 229.246 -2.36557 3.57406 0
M  V30 2414 H 233.43 -2.07198 4.5098 0
M  V30 2415 H 228.686 -1.69948 5.87305 0
M  V30 2416 H 232.86 -1.41543 6.81864 0
M  V30 2417 H 230.487 -1.22371 7.50286 0
M  V30 2418 N 232.062 -1.29571 -0.897171 0
M  V30 2419 C 233.308 -1.17863 -1.65034 0
M  V30 2420 C 233.641 0.268729 -1.92332 0
M  V30 2421 O 232.916 1.19378 -1.53555 0
M  V30 2422 C 233.199 -1.995 -2.99786 0
M  V30 2423 C 233.052 -3.5239 -2.79538 0
M  V30 2424 C 234.371 -1.82335 -4.00552 0
M  V30 2425 H 231.49 -0.429528 -0.598895 0
M  V30 2426 H 234.132 -1.59072 -1.03905 0
M  V30 2427 H 232.282 -1.64485 -3.51962 0
M  V30 2428 H 233.954 -3.97401 -2.34244 0
M  V30 2429 H 232.197 -3.77187 -2.14273 0
M  V30 2430 H 232.868 -4.04787 -3.75302 0
M  V30 2431 H 235.344 -2.12924 -3.57495 0
M  V30 2432 H 234.22 -2.41801 -4.92771 0
M  V30 2433 H 234.481 -0.779209 -4.35179 0
M  V30 2434 N 233.54 1.10788 -1.12088 0
M  V30 2435 C 234.817 1.79136 -0.785476 0
M  V30 2436 C 235.197 1.98246 0.725377 0
M  V30 2437 O 234.545 1.57258 1.65778 0
M  V30 2438 C 234.755 3.12375 -1.55636 0
M  V30 2439 C 236.103 3.8731 -1.74001 0
M  V30 2440 O 237.127 3.22085 -1.52117 0
M  V30 2441 O 235.986 5.04369 -2.10415 0
M  V30 2442 H 233.08 0.776226 -0.285311 0
M  V30 2443 H 235.626 1.1747 -1.2247 0
M  V30 2444 H 234.398 2.93863 -2.5838 0
M  V30 2445 H 234.021 3.81758 -1.11114 0
M  V30 2446 N 235.018 0.912232 1.28515 0
M  V30 2447 C 235.981 0.404223 2.25607 0
M  V30 2448 C 236.981 -0.468602 1.53821 0
M  V30 2449 O 238.171 -0.271873 1.72065 0
M  V30 2450 C 235.303 -0.420653 3.38295 0
M  V30 2451 H 236.496 1.26188 2.7206 0
M  V30 2452 H 234.049 0.691495 1.40171 0
M  V30 2453 H 234.784 -1.29777 2.97201 0
M  V30 2454 H 234.569 0.204935 3.91564 0
M  V30 2455 H 236.059 -0.766971 4.10496 0
M  V30 2456 N 236.496 -1.42363 0.676048 0
M  V30 2457 C 237.907 -1.84649 0.275948 0
M  V30 2458 C 238.258 -1.56588 -1.18214 0
M  V30 2459 O 237.383 -1.02634 -1.90513 0
M  V30 2460 C 237.978 -3.35178 0.494053 0
M  V30 2461 C 236.537 -3.76109 0.148061 0
M  V30 2462 C 235.684 -2.65931 0.785891 0
M  V30 2463 H 238.635 -1.32192 0.878121 0
M  V30 2464 H 238.656 -3.79655 -0.25343 0
M  V30 2465 H 238.168 -3.55571 1.55535 0
M  V30 2466 H 236.269 -3.61323 -0.909742 0
M  V30 2467 H 236.382 -4.7546 0.589454 0
M  V30 2468 H 234.746 -2.53773 0.217113 0
M  V30 2469 H 235.529 -2.89146 1.85067 0
M  V30 2470 N 237.974 -0.419461 -1.51915 0
M  V30 2471 C 238.904 0.391813 -2.30189 0
M  V30 2472 C 239.885 1.03699 -1.34836 0
M  V30 2473 O 241.07 1.04403 -1.63748 0
M  V30 2474 C 238.2 1.50312 -3.13087 0
M  V30 2475 C 237.154 0.9824 -4.16573 0
M  V30 2476 C 236.48 2.18809 -4.8788 0
M  V30 2477 C 237.78 0.0292356 -5.22292 0
M  V30 2478 H 239.474 -0.26135 -2.98257 0
M  V30 2479 H 237.02 -0.127134 -1.43438 0
M  V30 2480 H 238.973 2.07773 -3.66617 0
M  V30 2481 H 237.697 2.18431 -2.42807 0
M  V30 2482 H 236.356 0.430119 -3.64068 0
M  V30 2483 H 236.004 2.85507 -4.14119 0
M  V30 2484 H 235.704 1.84615 -5.57845 0
M  V30 2485 H 237.228 2.76858 -5.44226 0
M  V30 2486 H 238.642 0.512976 -5.71 0
M  V30 2487 H 237.039 -0.2244 -5.9968 0
M  V30 2488 H 238.109 -0.912931 -4.76228 0
M  V30 2489 N 239.452 1.56882 -0.150215 0
M  V30 2490 C 240.402 2.13501 0.800071 0
M  V30 2491 C 241.386 1.06368 1.20726 0
M  V30 2492 O 242.578 1.32538 1.17314 0
M  V30 2493 C 239.707 2.76271 2.03787 0
M  V30 2494 C 238.793 3.90533 1.65364 0
M  V30 2495 N 239.184 4.96259 0.977794 0
M  V30 2496 C 237.482 4.013 1.94613 0
M  V30 2497 C 238.183 5.76286 0.791794 0
M  V30 2498 N 237.159 5.27163 1.32666 0
M  V30 2499 H 240.961 2.92615 0.274517 0
M  V30 2500 H 238.475 1.62319 0.0512144 0
M  V30 2501 H 240.472 3.15197 2.72867 0
M  V30 2502 H 239.132 1.98631 2.56857 0
M  V30 2503 H 240.143 5.13953 0.638193 0
M  V30 2504 H 236.82 3.3474 2.4951 0
M  V30 2505 H 238.21 6.71401 0.258894 0
M  V30 2506 N 240.93 -0.123565 1.57115 0
M  V30 2507 C 242.176 -0.833386 1.84885 0
M  V30 2508 C 242.509 -1.79742 0.735292 0
M  V30 2509 O 241.784 -1.92764 -0.25925 0
M  V30 2510 C 242.067 -1.5873 3.23228 0
M  V30 2511 C 241.92 -0.643183 4.45178 0
M  V30 2512 C 243.239 -2.54453 3.59085 0
M  V30 2513 H 240.358 -0.301518 0.6725 0
M  V30 2514 H 243 -0.097778 1.89748 0
M  V30 2515 H 241.15 -2.21438 3.19214 0
M  V30 2516 H 242.822 -0.0253015 4.61293 0
M  V30 2517 H 241.065 0.0456139 4.33776 0
M  V30 2518 H 241.736 -1.20724 5.38637 0
M  V30 2519 H 244.212 -2.01853 3.63861 0
M  V30 2520 H 243.088 -3.04238 4.5687 0
M  V30 2521 H 243.349 -3.36906 2.86264 0
M  V30 2522 N 242.408 -1.52605 -0.393616 0
M  V30 2523 C 243.648 -1.6911 -1.1481 0
M  V30 2524 C 244.012 -0.41969 -1.87357 0
M  V30 2525 O 245.213 -0.461034 -2.64817 0
M  V30 2526 C 243.484 -2.88909 -2.10395 0
M  V30 2527 S 245.043 -3.25977 -2.93742 0
M  V30 2528 H 241.861 -0.595337 -0.38871 0
M  V30 2529 H 244.463 -1.90641 -0.433178 0
M  V30 2530 H 243.167 -3.79672 -1.55812 0
M  V30 2531 H 242.698 -2.69698 -2.86403 0
M  V30 2532 H 244.713 -2.75806 -4.12487 0
M  V30 2533 N 243.887 0.651787 -1.4349 0
M  V30 2534 C 244.797 1.79368 -1.5121 0
M  V30 2535 C 245.813 1.69361 -0.399093 0
M  V30 2536 O 246.989 1.90505 -0.653431 0
M  V30 2537 C 244.054 3.15653 -1.43401 0
M  V30 2538 C 243.115 3.37446 -2.65384 0
M  V30 2539 C 242.348 4.67229 -2.57939 0
M  V30 2540 O 242.571 5.46676 -1.62792 0
M  V30 2541 O 241.505 4.90773 -3.48462 0
M  V30 2542 H 245.331 1.7581 -2.47638 0
M  V30 2543 H 242.916 0.810447 -1.25507 0
M  V30 2544 H 244.798 3.96935 -1.41494 0
M  V30 2545 H 243.473 3.19798 -0.501085 0
M  V30 2546 H 242.38 2.55923 -2.72863 0
M  V30 2547 H 243.713 3.38148 -3.57654 0
M  V30 2548 N 245.365 1.30045 0.890287 0
M  V30 2549 C 246.297 1.11786 2.00091 0
M  V30 2550 C 247.31 0.0626307 1.62679 0
M  V30 2551 O 248.499 0.308112 1.75821 0
M  V30 2552 C 245.599 0.681527 3.31977 0
M  V30 2553 C 244.772 1.81735 3.97858 0
M  V30 2554 C 243.831 1.37045 5.08041 0
M  V30 2555 O 242.857 2.07677 5.29961 0
M  V30 2556 N 244.059 0.246525 5.79976 0
M  V30 2557 H 246.824 2.07441 2.16306 0
M  V30 2558 H 244.385 1.2211 1.06305 0
M  V30 2559 H 246.377 0.365675 4.03045 0
M  V30 2560 H 244.947 -0.182828 3.12065 0
M  V30 2561 H 244.167 2.30159 3.20032 0
M  V30 2562 H 245.455 2.57865 4.38615 0
M  V30 2563 H 244.853 -0.34215 5.64664 0
M  V30 2564 H 243.41 -0.00990438 6.51799 0
M  V30 2565 N 246.843 -1.10192 1.12674 0
M  V30 2566 C 248.259 -1.34235 0.863317 0
M  V30 2567 C 248.459 -1.95062 -0.505277 0
M  V30 2568 O 247.515 -2.19192 -1.25345 0
M  V30 2569 C 248.828 -2.2616 1.98172 0
M  V30 2570 C 250.376 -2.3969 2.0129 0
M  V30 2571 C 250.851 -3.34946 3.1237 0
M  V30 2572 N 252.342 -3.42515 3.11829 0
M  V30 2573 C 253.077 -4.16199 3.94419 0
M  V30 2574 N 252.573 -4.92747 4.87004 0
M  V30 2575 N 254.366 -4.11843 3.82547 0
M  V30 2576 H 246.517 -0.690798 2.00853 0
M  V30 2577 H 248.78 -0.366774 0.874174 0
M  V30 2578 H 248.486 -1.8868 2.96804 0
M  V30 2579 H 248.36 -3.26488 1.88906 0
M  V30 2580 H 250.747 -2.76438 1.03276 0
M  V30 2581 H 250.828 -1.39169 2.14629 0
M  V30 2582 H 250.472 -2.98923 4.10619 0
M  V30 2583 H 250.402 -4.35353 2.96269 0
M  V30 2584 H 252.893 -2.87926 2.44759 0
M  V30 2585 H 253.206 -5.46376 5.46528 0
M  V30 2586 H 251.551 -4.91862 4.91016 0
M  V30 2587 H 254.742 -3.51136 3.0955 0
M  V30 2588 H 254.915 -4.69007 4.47142 0
M  V30 2589 N 248.321 -0.919034 -1.28029 0
M  V30 2590 C 249.598 -0.473668 -1.89778 0
M  V30 2591 C 249.978 1.04783 -1.83259 0
M  V30 2592 O 249.326 1.8982 -1.27202 0
M  V30 2593 C 249.536 -1.00998 -3.34066 0
M  V30 2594 C 250.884 -1.06525 -4.1102 0
M  V30 2595 O 251.908 -0.958996 -3.43048 0
M  V30 2596 O 250.767 -1.22776 -5.3253 0
M  V30 2597 H 247.861 -0.15098 -0.813101 0
M  V30 2598 H 250.407 -1.01016 -1.36359 0
M  V30 2599 H 249.179 -2.05392 -3.33061 0
M  V30 2600 H 248.802 -0.454626 -3.94992 0
M  V30 2601 N 249.799 1.42003 -0.683588 0
M  V30 2602 C 251.045 2.01712 -0.209825 0
M  V30 2603 C 251.378 1.53968 1.18353 0
M  V30 2604 O 250.653 0.745661 1.79639 0
M  V30 2605 C 250.936 3.59202 -0.254197 0
M  V30 2606 C 250.789 4.17102 -1.68363 0
M  V30 2607 C 252.108 4.38344 0.392709 0
M  V30 2608 H 249.227 0.732891 -0.0777189 0
M  V30 2609 H 251.869 1.68909 -0.87004 0
M  V30 2610 H 250.019 3.87278 0.307954 0
M  V30 2611 H 251.691 3.99946 -2.29871 0
M  V30 2612 H 249.934 3.72597 -2.22157 0
M  V30 2613 H 250.605 5.26249 -1.6663 0
M  V30 2614 H 253.081 4.16011 -0.0859162 0
M  V30 2615 H 251.957 5.47901 0.331063 0
M  V30 2616 H 252.218 4.16887 1.47164 0
M  V30 2617 N 251.277 0.427512 1.51691 0
M  V30 2618 C 252.224 -0.388867 2.275 0
M  V30 2619 C 253.194 -1.02532 1.30677 0
M  V30 2620 O 254.379 -1.0461 1.59566 0
M  V30 2621 C 251.519 -1.48954 3.11298 0
M  V30 2622 C 250.632 -0.872194 4.23104 0
M  V30 2623 C 249.767 -1.94709 4.94228 0
M  V30 2624 C 248.806 -1.30766 5.97969 0
M  V30 2625 N 247.943 -2.32349 6.62539 0
M  V30 2626 H 252.783 0.263997 2.96828 0
M  V30 2627 H 250.32 0.142033 1.46413 0
M  V30 2628 H 252.278 -2.13887 3.58201 0
M  V30 2629 H 250.908 -2.11217 2.44105 0
M  V30 2630 H 249.96 -0.111419 3.80237 0
M  V30 2631 H 251.272 -0.365264 4.97461 0
M  V30 2632 H 250.426 -2.67327 5.44629 0
M  V30 2633 H 249.165 -2.48773 4.1948 0
M  V30 2634 H 248.17 -0.566902 5.4687 0
M  V30 2635 H 249.395 -0.774483 6.74669 0
M  V30 2636 H 247.341 -2.85511 5.90609 0
M  V30 2637 H 247.258 -1.8652 7.3263 0
M  V30 2638 H 248.526 -3.04481 7.17574 0
M  V30 2639 N 252.755 -1.56801 0.158532 0
M  V30 2640 C 254.003 -1.96102 -0.488712 0
M  V30 2641 C 254.324 -1.04498 -1.64636 0
M  V30 2642 O 253.594 -0.108783 -1.95598 0
M  V30 2643 H 252.174 -0.724102 -0.183535 0
M  V30 2644 H 254.836 -1.93457 0.236728 0
M  V30 2645 H 253.932 -3.00097 -0.857219 0
M  V30 2646 N 254.233 0.115231 -1.57178 0
M  V30 2647 C 255.163 1.1423 -2.03651 0
M  V30 2648 C 256.144 1.42967 -0.921655 0
M  V30 2649 O 257.329 1.53343 -1.19162 0
M  V30 2650 C 254.459 2.4675 -2.44401 0
M  V30 2651 C 253.413 2.32467 -3.59365 0
M  V30 2652 C 252.739 3.69984 -3.86026 0
M  V30 2653 C 254.039 1.78203 -4.90959 0
M  V30 2654 H 255.733 0.755749 -2.89705 0
M  V30 2655 H 253.279 0.362093 -1.39373 0
M  V30 2656 H 255.232 3.18854 -2.75517 0
M  V30 2657 H 253.956 2.87302 -1.55322 0
M  V30 2658 H 252.615 1.62811 -3.28463 0
M  V30 2659 H 252.263 4.08028 -2.94147 0
M  V30 2660 H 251.963 3.61279 -4.63412 0
M  V30 2661 H 253.487 4.43587 -4.19599 0
M  V30 2662 H 254.901 2.40128 -5.20587 0
M  V30 2663 H 253.298 1.8031 -5.72371 0
M  V30 2664 H 254.368 0.739876 -4.79222 0
M  V30 2665 N 255.711 1.52812 0.385517 0
M  V30 2666 C 256.941 1.71658 1.14966 0
M  V30 2667 C 257.349 0.436253 1.84102 0
M  V30 2668 O 256.692 -0.599313 1.73649 0
M  V30 2669 C 256.754 2.81309 2.23843 0
M  V30 2670 C 256.418 4.22313 1.74644 0
M  V30 2671 C 257.415 5.05352 1.22129 0
M  V30 2672 C 255.1 4.68648 1.80761 0
M  V30 2673 C 257.094 6.32807 0.763838 0
M  V30 2674 C 254.781 5.96086 1.34627 0
M  V30 2675 C 255.779 6.77996 0.825264 0
M  V30 2676 O 255.467 8.03045 0.370669 0
M  V30 2677 H 255.199 0.578022 0.350523 0
M  V30 2678 H 257.753 2.00263 0.456509 0
M  V30 2679 H 255.983 2.48133 2.96592 0
M  V30 2680 H 257.672 2.88524 2.85497 0
M  V30 2681 H 258.438 4.70736 1.16758 0
M  V30 2682 H 254.317 4.04979 2.20256 0
M  V30 2683 H 257.861 6.96689 0.356494 0
M  V30 2684 H 253.758 6.30205 1.39686 0
M  V30 2685 H 254.526 8.17021 0.491829 0
M  V30 2686 N 257.189 -0.644168 1.43834 0
M  V30 2687 C 258.136 -1.75671 1.49694 0
M  V30 2688 C 259.106 -1.6246 0.345809 0
M  V30 2689 O 260.291 -1.82573 0.554234 0
M  V30 2690 C 257.431 -3.13867 1.43463 0
M  V30 2691 C 256.544 -3.38147 2.6885 0
M  V30 2692 C 255.679 -4.66241 2.54544 0
M  V30 2693 C 254.718 -4.83657 3.75157 0
M  V30 2694 N 253.855 -6.03016 3.59605 0
M  V30 2695 H 258.695 -1.69998 2.44754 0
M  V30 2696 H 256.232 -0.829458 1.21484 0
M  V30 2697 H 258.19 -3.9377 1.37843 0
M  V30 2698 H 256.82 -3.18588 0.519783 0
M  V30 2699 H 255.872 -2.52276 2.84712 0
M  V30 2700 H 257.184 -3.46899 3.58417 0
M  V30 2701 H 256.338 -5.54285 2.46683 0
M  V30 2702 H 255.077 -4.59826 1.62516 0
M  V30 2703 H 254.082 -3.94046 3.83416 0
M  V30 2704 H 255.307 -4.91896 4.68204 0
M  V30 2705 H 253.253 -5.97715 2.7032 0
M  V30 2706 H 253.17 -6.12766 4.42779 0
M  V30 2707 H 254.438 -6.93657 3.55613 0
M  V30 2708 N 258.668 -1.30515 -0.883378 0
M  V30 2709 C 259.615 -1.17032 -1.98927 0
M  V30 2710 C 260.585 -0.0594241 -1.65994 0
M  V30 2711 O 261.77 -0.229895 -1.8941 0
M  V30 2712 C 258.91 -0.869777 -3.33959 0
M  V30 2713 C 258.023 -2.06271 -3.79574 0
M  V30 2714 C 257.158 -1.70011 -5.03259 0
M  V30 2715 C 256.197 -2.8579 -5.41286 0
M  V30 2716 N 255.334 -2.49816 -6.56153 0
M  V30 2717 H 260.174 -2.1164 -2.09792 0
M  V30 2718 H 257.711 -1.05296 -1.02719 0
M  V30 2719 H 259.669 -0.676138 -4.11685 0
M  V30 2720 H 258.299 0.0394332 -3.22776 0
M  V30 2721 H 257.351 -2.36755 -2.97744 0
M  V30 2722 H 258.663 -2.92971 -4.03694 0
M  V30 2723 H 257.817 -1.47032 -5.88614 0
M  V30 2724 H 256.556 -0.804829 -4.81013 0
M  V30 2725 H 255.561 -3.09434 -4.54456 0
M  V30 2726 H 256.786 -3.76008 -5.65504 0
M  V30 2727 H 254.732 -1.62795 -6.35479 0
M  V30 2728 H 254.649 -3.30048 -6.8015 0
M  V30 2729 H 255.917 -2.30197 -7.44735 0
M  V30 2730 N 260.146 1.09593 -1.13257 0
M  V30 2731 C 261.109 2.14359 -0.811358 0
M  V30 2732 C 262.109 1.59808 0.178377 0
M  V30 2733 O 263.299 1.74132 -0.0484911 0
M  V30 2734 C 260.431 3.40269 -0.207276 0
M  V30 2735 H 261.624 2.44284 -1.73969 0
M  V30 2736 H 259.177 1.25102 -0.936973 0
M  V30 2737 H 259.912 3.15969 0.73036 0
M  V30 2738 H 259.697 3.81154 -0.919992 0
M  V30 2739 H 261.187 4.176 0.000667944 0
M  V30 2740 N 261.624 0.925811 1.2754 0
M  V30 2741 C 263.04 0.625767 1.46821 0
M  V30 2742 C 263.24 -0.825506 1.83814 0
M  V30 2743 O 262.296 -1.60356 1.95044 0
M  V30 2744 C 263.609 1.57402 2.56213 0
M  V30 2745 C 265.157 1.58204 2.70075 0
M  V30 2746 C 265.632 2.51721 3.82623 0
M  V30 2747 N 267.123 2.49917 3.89994 0
M  V30 2748 C 267.858 3.18968 4.76494 0
M  V30 2749 N 267.354 3.97391 5.67496 0
M  V30 2750 N 269.147 3.07996 4.70208 0
M  V30 2751 H 261.298 1.86409 1.01811 0
M  V30 2752 H 263.561 0.800213 0.508295 0
M  V30 2753 H 263.267 2.60925 2.35819 0
M  V30 2754 H 263.141 1.31428 3.53563 0
M  V30 2755 H 265.528 0.554124 2.89851 0
M  V30 2756 H 265.609 1.88226 1.73218 0
M  V30 2757 H 265.253 3.54622 3.63601 0
M  V30 2758 H 265.183 2.18996 4.78903 0
M  V30 2759 H 267.674 1.9296 3.24923 0
M  V30 2760 H 267.987 4.4707 6.30356 0
M  V30 2761 H 266.332 4.01495 5.67298 0
M  V30 2762 H 269.523 2.46223 3.9811 0
M  V30 2763 H 269.696 3.6208 5.37403 0
M  V30 2764 N 263.102 -1.41638 0.69111 0
M  V30 2765 C 264.065 -2.29178 0.0319786 0
M  V30 2766 C 265.065 -1.44153 -0.712496 0
M  V30 2767 O 266.255 -1.65354 -0.548053 0
M  V30 2768 C 263.387 -3.26952 -0.965161 0
M  V30 2769 H 264.58 -2.88959 0.802681 0
M  V30 2770 H 262.133 -1.4955 0.454356 0
M  V30 2771 H 262.868 -2.72142 -1.76378 0
M  V30 2772 H 262.653 -3.89685 -0.434522 0
M  V30 2773 H 264.143 -3.92561 -1.42428 0
M  V30 2774 N 264.58 -0.43555 -1.51462 0
M  V30 2775 C 265.828 0.131254 -2.01673 0
M  V30 2776 C 266.149 1.43368 -1.32177 0
M  V30 2777 O 265.419 1.90524 -0.455769 0
M  V30 2778 H 263.999 0.0514954 -0.745223 0
M  V30 2779 H 266.661 -0.577847 -1.86137 0
M  V30 2780 H 265.757 0.308446 -3.10572 0
M  V30 2781 N 266.058 1.56714 -0.166846 0
M  V30 2782 C 266.968 2.21331 0.777791 0
M  V30 2783 C 267.984 1.20358 1.25658 0
M  V30 2784 O 269.16 1.53005 1.30964 0
M  V30 2785 C 266.225 2.83787 1.99163 0
M  V30 2786 C 265.286 3.99947 1.56016 0
M  V30 2787 C 264.519 4.59415 2.71613 0
M  V30 2788 O 264.742 4.17769 3.88362 0
M  V30 2789 O 263.676 5.49359 2.45945 0
M  V30 2790 H 267.502 3.02605 0.257636 0
M  V30 2791 H 265.087 1.49275 0.0611393 0
M  V30 2792 H 266.969 3.23405 2.70161 0
M  V30 2793 H 265.644 2.05513 2.50092 0
M  V30 2794 H 264.551 3.65007 0.819809 0
M  V30 2795 H 265.884 4.79801 1.09782 0
M  V30 2796 N 267.536 -0.106894 1.57237 0
M  V30 2797 C 268.785 -0.811163 1.8467 0
M  V30 2798 C 269.098 -1.80469 0.754342 0
M  V30 2799 O 270.304 -2.55601 0.915439 0
M  V30 2800 C 268.76 -1.49337 3.27454 0
M  V30 2801 C 268.368 -0.540217 4.44731 0
M  V30 2802 C 270.112 -2.18206 3.64124 0
M  V30 2803 C 268.019 -1.22634 5.78545 0
M  V30 2804 H 266.949 -0.306679 0.688813 0
M  V30 2805 H 269.6 -0.0639887 1.83388 0
M  V30 2806 H 267.982 -2.2876 3.23241 0
M  V30 2807 H 269.156 0.221659 4.60267 0
M  V30 2808 H 267.471 0.042146 4.16379 0
M  V30 2809 H 270.068 -2.70253 4.61376 0
M  V30 2810 H 270.411 -2.96562 2.92158 0
M  V30 2811 H 270.944 -1.45658 3.70174 0
M  V30 2812 H 267.683 -0.483832 6.53712 0
M  V30 2813 H 267.203 -1.95993 5.66874 0
M  V30 2814 H 268.882 -1.75615 6.2271 0
M  V30 2815 N 269.014 -1.53014 -0.377408 0
M  V30 2816 C 269.961 -1.78616 -1.46168 0
M  V30 2817 C 270.931 -0.629917 -1.53692 0
M  V30 2818 O 272.116 -0.870861 -1.69766 0
M  V30 2819 C 269.256 -1.97123 -2.8326 0
M  V30 2820 C 268.369 -3.24831 -2.84796 0
M  V30 2821 C 267.504 -3.33591 -4.13389 0
M  V30 2822 C 266.543 -4.55377 -4.09021 0
M  V30 2823 N 265.68 -4.61355 -5.29241 0
M  V30 2824 H 270.52 -2.71142 -1.23637 0
M  V30 2825 H 268.057 -1.34326 -0.599577 0
M  V30 2826 H 270.015 -2.05839 -3.62886 0
M  V30 2827 H 268.645 -1.07946 -3.04216 0
M  V30 2828 H 267.697 -3.25128 -1.97474 0
M  V30 2829 H 269.009 -4.14523 -2.77439 0
M  V30 2830 H 268.163 -3.41554 -5.01424 0
M  V30 2831 H 266.902 -2.41894 -4.23484 0
M  V30 2832 H 265.907 -4.47527 -3.19373 0
M  V30 2833 H 267.132 -5.48402 -4.00539 0
M  V30 2834 H 265.078 -3.72554 -5.39944 0
M  V30 2835 H 264.995 -5.44935 -5.24006 0
M  V30 2836 H 266.263 -4.73586 -6.19141 0
M  V30 2837 N 270.492 0.636531 -1.44174 0
M  V30 2838 C 271.74 1.39343 -1.46383 0
M  V30 2839 C 272.061 1.94766 -0.0955715 0
M  V30 2840 O 271.331 1.75452 0.871395 0
M  V30 2841 H 269.911 0.517199 -0.538994 0
M  V30 2842 H 272.573 0.74957 -1.7991 0
M  V30 2843 H 271.669 2.22746 -2.18611 0
M  V30 2844 N 271.97 1.30982 0.876444 0
M  V30 2845 C 273.217 1.20296 1.62896 0
M  V30 2846 C 273.545 -0.240395 1.93009 0
M  V30 2847 O 272.8 -1.18733 1.55567 0
M  V30 2848 C 273.099 1.98572 2.9716 0
M  V30 2849 C 272.765 3.48125 2.86566 0
M  V30 2850 C 271.427 3.88905 2.83383 0
M  V30 2851 C 273.779 4.43322 2.74071 0
M  V30 2852 C 271.107 5.2316 2.65556 0
M  V30 2853 C 273.459 5.77695 2.57781 0
M  V30 2854 C 272.123 6.17704 2.52979 0
M  V30 2855 H 271.393 0.440193 0.59608 0
M  V30 2856 H 274.04 1.62177 1.01837 0
M  V30 2857 H 272.345 1.49352 3.62217 0
M  V30 2858 H 274.042 1.8769 3.54364 0
M  V30 2859 H 270.632 3.15723 2.89856 0
M  V30 2860 H 274.816 4.12752 2.75589 0
M  V30 2861 H 270.072 5.53241 2.60259 0
M  V30 2862 H 274.246 6.51091 2.47089 0
M  V30 2863 H 271.873 7.21678 2.38924 0
M  V30 2864 N 273.449 -1.08991 1.13837 0
M  V30 2865 C 274.677 -1.85011 0.926202 0
M  V30 2866 C 275.092 -1.8135 -0.525127 0
M  V30 2867 O 274.449 -1.21287 -1.36366 0
M  V30 2868 C 274.5 -3.32802 1.41155 0
M  V30 2869 O 274.221 -3.36444 2.80601 0
M  V30 2870 C 275.722 -4.25649 1.23847 0
M  V30 2871 H 272.942 -0.584249 0.32999 0
M  V30 2872 H 275.486 -1.37688 1.51202 0
M  V30 2873 H 273.641 -3.77536 0.868631 0
M  V30 2874 H 274.055 -4.28657 3.02248 0
M  V30 2875 H 275.529 -5.27485 1.62675 0
M  V30 2876 H 276.006 -4.38828 0.18065 0
M  V30 2877 H 276.612 -3.86735 1.76964 0
M  V30 2878 N 274.927 -0.932562 -1.27047 0
M  V30 2879 C 276.175 -0.574422 -1.93765 0
M  V30 2880 C 276.496 0.887993 -1.73608 0
M  V30 2881 O 275.766 1.62999 -1.08665 0
M  V30 2882 H 274.346 -0.209451 -0.717035 0
M  V30 2883 H 277.008 -1.18601 -1.5466 0
M  V30 2884 H 276.104 -0.784841 -3.02071 0
M  V30 2885 N 276.405 1.4127 -0.698611 0
M  V30 2886 C 277.654 2.00408 -0.227949 0
M  V30 2887 C 277.967 1.55981 1.18023 0
M  V30 2888 O 279.173 2.07699 1.74852 0
M  V30 2889 C 277.629 3.58129 -0.356636 0
M  V30 2890 C 277.237 4.11536 -1.77037 0
M  V30 2891 C 278.981 4.24466 0.0540969 0
M  V30 2892 C 276.888 5.61701 -1.85055 0
M  V30 2893 H 275.818 0.749586 -0.0814657 0
M  V30 2894 H 278.469 1.61713 -0.867249 0
M  V30 2895 H 276.851 3.94442 0.350965 0
M  V30 2896 H 278.025 3.86636 -2.50698 0
M  V30 2897 H 276.34 3.57736 -2.13105 0
M  V30 2898 H 278.937 5.34698 0.0146723 0
M  V30 2899 H 279.28 4.01687 1.09332 0
M  V30 2900 H 279.813 3.93198 -0.603337 0
M  V30 2901 H 276.552 5.89312 -2.8704 0
M  V30 2902 H 276.072 5.88519 -1.15783 0
M  V30 2903 H 277.751 6.26524 -1.61484 0
M  V30 2904 N 277.883 0.443576 1.51229 0
M  V30 2905 C 279.16 -0.181038 1.9476 0
M  V30 2906 C 279.54 -1.59523 1.38259 0
M  V30 2907 O 278.888 -2.2122 0.572198 0
M  V30 2908 C 279.098 -0.152422 3.48667 0
M  V30 2909 C 280.446 -0.354923 4.23114 0
M  V30 2910 O 281.47 -0.230257 3.55455 0
M  V30 2911 O 280.329 -0.603674 5.43156 0
M  V30 2912 H 277.423 -0.1266 0.817252 0
M  V30 2913 H 279.969 0.502004 1.62105 0
M  V30 2914 H 278.741 0.836022 3.82265 0
M  V30 2915 H 278.364 -0.878107 3.87782 0
M  V30 2916 N 279.361 -1.56624 0.175154 0
M  V30 2917 C 280.586 -2.01813 -0.478137 0
M  V30 2918 C 281.011 -1.05457 -1.55757 0
M  V30 2919 O 280.369 -0.0347439 -1.81267 0
M  V30 2920 C 280.417 -3.45581 -1.02987 0
M  V30 2921 O 279.521 -3.52305 -2.14371 0
M  V30 2922 H 278.862 -0.65413 -0.114059 0
M  V30 2923 H 281.392 -2.02673 0.280173 0
M  V30 2924 H 281.402 -3.84965 -1.35151 0
M  V30 2925 H 280.077 -4.1521 -0.239556 0
M  V30 2926 H 278.654 -3.24783 -1.83222 0
M  V30 2927 N 280.839 0.0985539 -1.57292 0
M  V30 2928 C 281.749 1.13824 -2.05137 0
M  V30 2929 C 282.765 1.44076 -0.975604 0
M  V30 2930 O 283.941 1.54786 -1.28853 0
M  V30 2931 C 281.006 2.43969 -2.46333 0
M  V30 2932 C 280.067 2.2093 -3.68087 0
M  V30 2933 C 279.3 3.44869 -4.0731 0
M  V30 2934 O 279.523 4.52972 -3.46659 0
M  V30 2935 O 278.457 3.34661 -5.00285 0
M  V30 2936 H 282.283 0.761881 -2.93988 0
M  V30 2937 H 279.868 0.310818 -1.46131 0
M  V30 2938 H 281.75 3.20609 -2.73473 0
M  V30 2939 H 280.425 2.81038 -1.60621 0
M  V30 2940 H 279.332 1.42081 -3.46069 0
M  V30 2941 H 280.665 1.88755 -4.54568 0
M  V30 2942 N 282.317 1.53212 0.369288 0
M  V30 2943 C 283.547 1.72868 1.13139 0
M  V30 2944 C 283.955 0.455754 1.83629 0
M  V30 2945 O 283.298 -0.580861 1.74275 0
M  V30 2946 C 283.36 2.83667 2.20847 0
M  V30 2947 C 283.024 4.24142 1.70155 0
M  V30 2948 C 284.021 5.06619 1.16763 0
M  V30 2949 C 281.706 4.70539 1.7578 0
M  V30 2950 C 283.7 6.33581 0.696678 0
M  V30 2951 C 281.387 5.97481 1.28297 0
M  V30 2952 C 282.385 6.78833 0.753307 0
M  V30 2953 O 282.073 8.03393 0.285475 0
M  V30 2954 H 281.805 0.581707 0.344373 0
M  V30 2955 H 284.359 2.00736 0.435243 0
M  V30 2956 H 282.589 2.51265 2.93944 0
M  V30 2957 H 284.278 2.91536 2.82421 0
M  V30 2958 H 285.044 4.71948 1.11758 0
M  V30 2959 H 280.923 4.07293 2.15949 0
M  V30 2960 H 284.467 6.97027 0.282581 0
M  V30 2961 H 280.364 6.31651 1.32994 0
M  V30 2962 H 281.132 8.17497 0.405145 0
M  V30 2963 N 283.795 -0.628877 1.44509 0
M  V30 2964 C 284.705 -1.7694 1.54044 0
M  V30 2965 C 285.721 -1.68705 0.425987 0
M  V30 2966 O 286.897 -1.89442 0.683656 0
M  V30 2967 C 283.962 -3.13332 1.48405 0
M  V30 2968 C 283.023 -3.33181 2.70719 0
M  V30 2969 C 282.256 -4.63067 2.6534 0
M  V30 2970 O 282.479 -5.44017 1.71469 0
M  V30 2971 O 281.413 -4.85167 3.56226 0
M  V30 2972 H 285.239 -1.71848 2.50403 0
M  V30 2973 H 282.824 -0.790378 1.26781 0
M  V30 2974 H 284.706 -3.94634 1.47791 0
M  V30 2975 H 283.381 -3.1896 0.551898 0
M  V30 2976 H 282.288 -2.51549 2.769 0
M  V30 2977 H 283.621 -3.32416 3.62988 0
M  V30 2978 N 285.273 -1.31445 -0.869486 0
M  V30 2979 C 286.22 -1.19135 -1.97675 0
M  V30 2980 C 287.19 -0.0770266 -1.65921 0
M  V30 2981 O 288.375 -0.249972 -1.89155 0
M  V30 2982 C 285.515 -0.905149 -3.33018 0
M  V30 2983 C 284.628 -2.10285 -3.77365 0
M  V30 2984 C 283.763 -1.75339 -5.01427 0
M  V30 2985 C 282.802 -2.91515 -5.38224 0
M  V30 2986 N 281.939 -2.56762 -6.53466 0
M  V30 2987 H 286.779 -2.13853 -2.07535 0
M  V30 2988 H 284.316 -1.06379 -1.01597 0
M  V30 2989 H 286.274 -0.719765 -4.10944 0
M  V30 2990 H 284.904 0.00519624 -3.228 0
M  V30 2991 H 283.956 -2.39899 -2.95216 0
M  V30 2992 H 285.268 -2.97237 -4.00564 0
M  V30 2993 H 284.422 -1.53266 -5.87022 0
M  V30 2994 H 283.161 -0.855801 -4.80133 0
M  V30 2995 H 282.166 -3.14237 -4.51149 0
M  V30 2996 H 283.391 -3.81985 -5.61484 0
M  V30 2997 H 281.337 -1.69526 -6.33717 0
M  V30 2998 H 281.254 -3.37243 -6.76612 0
M  V30 2999 H 282.522 -2.38083 -7.42251 0
M  V30 3000 N 286.751 1.08385 -1.14413 0
M  V30 3001 C 288.162 1.62258 -0.923535 0
M  V30 3002 C 288.513 1.88691 0.537595 0
M  V30 3003 O 287.638 1.64454 1.40655 0
M  V30 3004 C 288.233 2.94781 -1.67002 0
M  V30 3005 C 286.792 3.45437 -1.495 0
M  V30 3006 C 285.939 2.19668 -1.69238 0
M  V30 3007 H 288.89 0.916086 -1.2959 0
M  V30 3008 H 288.911 3.63229 -1.13334 0
M  V30 3009 H 288.423 2.7551 -2.73342 0
M  V30 3010 H 286.524 3.6981 -0.455097 0
M  V30 3011 H 286.637 4.22173 -2.2651 0
M  V30 3012 H 285.001 2.28849 -1.11804 0
M  V30 3013 H 285.784 2.02905 -2.7692 0
M  V30 3014 N 288.23 0.939286 1.26551 0
M  V30 3015 C 289.14 0.453432 2.30176 0
M  V30 3016 C 290.156 -0.471649 1.67486 0
M  V30 3017 O 291.332 -0.35164 1.98306 0
M  V30 3018 C 288.397 -0.275326 3.45605 0
M  V30 3019 C 287.458 0.686084 4.23782 0
M  V30 3020 C 286.691 -0.00798994 5.33699 0
M  V30 3021 O 286.914 -1.22528 5.57085 0
M  V30 3022 O 285.848 0.669746 5.98162 0
M  V30 3023 H 289.674 1.31416 2.73795 0
M  V30 3024 H 287.259 0.705095 1.31715 0
M  V30 3025 H 289.141 -0.685911 4.1578 0
M  V30 3026 H 287.816 -1.11147 3.0402 0
M  V30 3027 H 286.723 1.14658 3.56096 0
M  V30 3028 H 288.056 1.48979 4.69112 0
M  V30 3029 N 289.708 -1.40897 0.706093 0
M  V30 3030 C 290.671 -2.29131 0.0562841 0
M  V30 3031 C 291.671 -1.44901 -0.697166 0
M  V30 3032 O 292.861 -1.65926 -0.530484 0
M  V30 3033 C 289.993 -3.27957 -0.93043 0
M  V30 3034 H 291.186 -2.88091 0.833284 0
M  V30 3035 H 288.739 -1.4906 0.470192 0
M  V30 3036 H 289.474 -2.73997 -1.73482 0
M  V30 3037 H 289.259 -3.90124 -0.393166 0
M  V30 3038 H 290.749 -3.94049 -1.38256 0
M  V30 3039 N 291.186 -0.45159 -1.50991 0
M  V30 3040 C 292.597 0.00818571 -1.86698 0
M  V30 3041 C 292.948 1.40661 -1.3678 0
M  V30 3042 O 292.073 2.0391 -0.724546 0
M  V30 3043 C 292.668 0.0216303 -3.38793 0
M  V30 3044 C 291.227 0.425865 -3.73983 0
M  V30 3045 C 290.374 -0.372163 -2.74791 0
M  V30 3046 H 293.325 -0.666785 -1.44013 0
M  V30 3047 H 293.346 0.828078 -3.7138 0
M  V30 3048 H 292.858 -0.996288 -3.75094 0
M  V30 3049 H 290.959 1.44886 -3.43277 0
M  V30 3050 H 291.072 0.140761 -4.78893 0
M  V30 3051 H 289.436 0.171498 -2.54122 0
M  V30 3052 H 290.219 -1.38922 -3.13935 0
M  V30 3053 N 292.664 1.56529 -0.183458 0
M  V30 3054 C 293.574 2.22144 0.754272 0
M  V30 3055 C 294.59 1.21684 1.24374 0
M  V30 3056 O 295.766 1.54385 1.29333 0
M  V30 3057 C 292.831 2.85884 1.96141 0
M  V30 3058 C 291.892 4.01579 1.51765 0
M  V30 3059 C 291.125 4.6227 2.66725 0
M  V30 3060 O 291.348 4.21865 3.83909 0
M  V30 3061 O 290.282 5.51936 2.40104 0
M  V30 3062 H 294.108 3.02861 0.225527 0
M  V30 3063 H 291.693 1.49331 0.0453032 0
M  V30 3064 H 293.575 3.26253 2.66715 0
M  V30 3065 H 292.25 2.08154 2.47899 0
M  V30 3066 H 291.157 3.65856 0.781049 0
M  V30 3067 H 292.49 4.80938 1.04686 0
M  V30 3068 N 294.142 -0.090211 1.57342 0
M  V30 3069 C 295.072 -1.10976 2.05443 0
M  V30 3070 C 296.053 -1.41482 0.944284 0
M  V30 3071 O 297.238 -1.51428 1.21586 0
M  V30 3072 C 294.368 -2.42831 2.48295 0
M  V30 3073 C 293.322 -2.26721 3.63018 0
M  V30 3074 C 292.648 -3.63796 3.91863 0
M  V30 3075 C 293.948 -1.7037 4.93732 0
M  V30 3076 H 295.642 -0.709564 2.9087 0
M  V30 3077 H 293.188 -0.339874 1.39932 0
M  V30 3078 H 295.141 -3.14431 2.80555 0
M  V30 3079 H 293.865 -2.84795 1.59873 0
M  V30 3080 H 292.524 -1.57565 3.31012 0
M  V30 3081 H 292.172 -4.03297 3.00601 0
M  V30 3082 H 291.872 -3.53861 4.69101 0
M  V30 3083 H 293.396 -4.36855 4.26603 0
M  V30 3084 H 294.81 -2.31816 5.24342 0
M  V30 3085 H 293.207 -1.71181 5.75167 0
M  V30 3086 H 294.277 -0.663542 4.80339 0
M  V30 3087 N 295.62 -1.53406 -0.361157 0
M  V30 3088 C 296.866 -1.70054 -1.10496 0
M  V30 3089 C 297.199 -0.453278 -1.88836 0
M  V30 3090 O 296.474 0.5495 -1.86576 0
M  V30 3091 C 296.757 -2.95317 -2.06058 0
M  V30 3092 C 296.61 -4.3021 -1.31298 0
M  V30 3093 C 297.929 -3.16193 -3.06121 0
M  V30 3094 H 295.048 -0.618799 -0.400321 0
M  V30 3095 H 297.69 -1.86052 -0.385318 0
M  V30 3096 H 295.84 -2.81809 -2.67425 0
M  V30 3097 H 297.512 -4.55538 -0.726807 0
M  V30 3098 H 295.755 -4.29421 -0.614853 0
M  V30 3099 H 296.426 -5.14 -2.01265 0
M  V30 3100 H 298.902 -3.28916 -2.5486 0
M  V30 3101 H 297.778 -4.05266 -3.70204 0
M  V30 3102 H 298.039 -2.31676 -3.76535 0
M  V30 3103 N 297.098 0.621204 -1.44841 0
M  V30 3104 C 298.028 1.74366 -1.55303 0
M  V30 3105 C 299.009 1.65199 -0.405385 0
M  V30 3106 O 300.194 1.83807 -0.626787 0
M  V30 3107 C 297.324 3.12931 -1.50637 0
M  V30 3108 C 296.278 3.36896 -2.63979 0
M  V30 3109 C 295.604 4.75594 -2.44366 0
M  V30 3110 C 296.904 3.28483 -4.06074 0
M  V30 3111 H 298.598 1.65867 -2.49256 0
M  V30 3112 H 296.144 0.796558 -1.19962 0
M  V30 3113 H 298.097 3.9124 -1.56555 0
M  V30 3114 H 296.821 3.22237 -0.532057 0
M  V30 3115 H 295.48 2.60972 -2.57467 0
M  V30 3116 H 295.128 4.81616 -1.45105 0
M  V30 3117 H 294.828 4.92586 -3.20364 0
M  V30 3118 H 296.352 5.5612 -2.52117 0
M  V30 3119 H 297.766 3.96684 -4.13902 0
M  V30 3120 H 296.163 3.57008 -4.82354 0
M  V30 3121 H 297.233 2.26133 -4.28943 0
M  V30 3122 N 298.576 1.31904 0.862503 0
M  V30 3123 C 299.523 1.20182 1.9704 0
M  V30 3124 C 300.493 0.0858247 1.65878 0
M  V30 3125 O 301.678 0.26 1.8902 0
M  V30 3126 C 298.818 0.922797 3.32533 0
M  V30 3127 C 297.931 2.12284 3.76244 0
M  V30 3128 C 297.066 1.77996 5.00491 0
M  V30 3129 C 296.105 2.94366 5.36671 0
M  V30 3130 N 295.242 2.60223 6.52095 0
M  V30 3131 H 300.082 2.14951 2.06398 0
M  V30 3132 H 297.619 1.06917 1.01031 0
M  V30 3133 H 299.577 0.741548 4.10557 0
M  V30 3134 H 298.207 0.0119227 3.22798 0
M  V30 3135 H 297.259 2.41461 2.9394 0
M  V30 3136 H 298.571 2.99357 3.98982 0
M  V30 3137 H 297.725 1.56377 5.862 0
M  V30 3138 H 296.464 0.881252 4.79672 0
M  V30 3139 H 295.469 3.16625 4.49476 0
M  V30 3140 H 296.694 3.84957 5.59451 0
M  V30 3141 H 294.64 1.72884 6.32809 0
M  V30 3142 H 294.557 3.40827 6.74814 0
M  V30 3143 H 295.825 2.42016 7.40978 0
M  V30 3144 N 300.054 -1.07777 1.14986 0
M  V30 3145 C 301.282 -1.84018 0.945773 0
M  V30 3146 C 301.697 -1.81897 -0.505863 0
M  V30 3147 O 301.054 -1.22726 -1.35072 0
M  V30 3148 C 301.105 -3.31287 1.44677 0
M  V30 3149 O 300.826 -3.33449 2.84154 0
M  V30 3150 C 302.327 -4.24311 1.28355 0
M  V30 3151 H 299.547 -0.580716 0.336169 0
M  V30 3152 H 302.091 -1.36077 1.52654 0
M  V30 3153 H 300.246 -3.76594 0.908625 0
M  V30 3154 H 300.66 -4.25427 3.06777 0
M  V30 3155 H 302.134 -5.2573 1.68261 0
M  V30 3156 H 302.611 -4.38612 0.227184 0
M  V30 3157 H 303.217 -3.84836 1.81056 0
M  V30 3158 N 301.532 -0.945985 -1.26051 0
M  V30 3159 C 302.809 -0.513816 -1.88731 0
M  V30 3160 C 303.189 1.00872 -1.8544 0
M  V30 3161 O 302.537 1.8708 -1.312 0
M  V30 3162 C 302.747 -1.08062 -3.31849 0
M  V30 3163 C 304.095 -1.1522 -4.08668 0
M  V30 3164 O 305.119 -1.03155 -3.40936 0
M  V30 3165 O 303.978 -1.34044 -5.29806 0
M  V30 3166 H 301.072 -0.168193 -0.809716 0
M  V30 3167 H 303.618 -1.03886 -1.34186 0
M  V30 3168 H 302.39 -2.1241 -3.2863 0
M  V30 3169 H 302.013 -0.538307 -3.93939 0
M  V30 3170 N 303.011 1.40521 -0.713556 0
M  V30 3171 C 304.236 2.05759 -0.26035 0
M  V30 3172 C 304.661 1.53403 1.08854 0
M  V30 3173 O 304.019 0.668535 1.68524 0
M  V30 3174 C 304.067 3.59745 -0.248122 0
M  V30 3175 O 303.171 4.05123 0.77131 0
M  V30 3176 H 302.512 0.652564 -0.122703 0
M  V30 3177 H 305.042 1.79958 -0.973467 0
M  V30 3178 H 305.052 4.07911 -0.0851129 0
M  V30 3179 H 303.727 3.97218 -1.2325 0
M  V30 3180 H 302.304 3.68422 0.57619 0
M  V30 3181 N 304.489 0.459591 1.5075 0
M  V30 3182 C 305.729 -0.09824 2.04164 0
M  V30 3183 C 306.093 -1.3801 1.33481 0
M  V30 3184 O 307.294 -2.01959 1.77387 0
M  V30 3185 C 305.565 -0.289467 3.56226 0
M  V30 3186 S 307.124 -0.807507 4.31306 0
M  V30 3187 H 303.942 -0.0213845 0.710678 0
M  V30 3188 H 306.544 0.624098 1.85271 0
M  V30 3189 H 305.248 0.649461 4.05229 0
M  V30 3190 H 304.779 -1.03825 3.79452 0
M  V30 3191 H 306.794 -2.0824 4.50389 0
M  V30 3192 N 305.967 -1.56429 0.191757 0
M  V30 3193 C 307.244 -1.89224 -0.495332 0
M  V30 3194 C 307.624 -1.10478 -1.79883 0
M  V30 3195 O 306.972 -0.204852 -2.2758 0
M  V30 3196 C 307.182 -3.41548 -0.717367 0
M  V30 3197 C 308.53 -4.11711 -1.03823 0
M  V30 3198 O 309.554 -3.4698 -0.805204 0
M  V30 3199 O 308.413 -5.2611 -1.47887 0
M  V30 3200 H 305.507 -0.785788 -0.25781 0
M  V30 3201 H 308.053 -1.68111 0.231721 0
M  V30 3202 H 306.825 -3.90772 0.203287 0
M  V30 3203 H 306.448 -3.68342 -1.497 0
M  V30 3204 N 307.445 0.0818655 -1.57387 0
M  V30 3205 C 308.691 0.784074 -1.8703 0
M  V30 3206 C 309.024 1.77729 -0.782689 0
M  V30 3207 O 308.299 1.93384 0.208051 0
M  V30 3208 C 308.582 1.50105 -3.27323 0
M  V30 3209 C 308.435 0.524925 -4.46727 0
M  V30 3210 C 309.754 2.44843 -3.65705 0
M  V30 3211 H 306.873 0.283582 -0.680257 0
M  V30 3212 H 309.515 0.0474352 -1.89941 0
M  V30 3213 H 307.665 2.12897 -3.24972 0
M  V30 3214 H 309.337 -0.0970111 -4.61198 0
M  V30 3215 H 307.58 -0.160606 -4.33503 0
M  V30 3216 H 308.251 1.064 -5.41648 0
M  V30 3217 H 310.727 1.92135 -3.69085 0
M  V30 3218 H 309.603 2.92018 -4.64776 0
M  V30 3219 H 309.864 3.29197 -2.95096 0
M  V30 3220 N 308.923 1.53595 0.353017 0
M  V30 3221 C 309.871 1.81605 1.45335 0
M  V30 3222 C 310.865 0.685923 1.54892 0
M  V30 3223 O 312.071 0.869095 1.57628 0
M  V30 3224 H 308.446 0.575204 0.484401 0
M  V30 3225 H 310.417 2.73679 1.18921 0
M  V30 3226 C 309.166 2.03406 2.81995 0
M  V30 3227 H 308.489 2.89814 2.75405 0
M  V30 3228 H 309.929 2.26975 3.58132 0
M  V30 3229 C 308.388 0.816794 3.26849 0
M  V30 3230 O 308.918 0.0115856 4.01698 0
M  V30 3231 N 307.124 0.636682 2.8354 0
M  V30 3232 H 306.671 1.2931 2.22793 0
M  V30 3233 H 306.629 -0.176336 3.13905 0
M  V30 3234 N 310.401 -0.613514 1.45168 0
M  V30 3235 C 311.678 -1.37263 1.39349 0
M  V30 3236 C 312.058 -2.11012 0.0610848 0
M  V30 3237 O 311.406 -2.07502 -0.956825 0
M  V30 3238 C 311.616 -2.3244 2.60332 0
M  V30 3239 C 312.964 -2.9523 3.05163 0
M  V30 3240 O 313.988 -2.42762 2.60663 0
M  V30 3241 O 312.847 -3.90454 3.82372 0
M  V30 3242 H 309.941 -0.615188 0.552696 0
M  V30 3243 H 312.487 -0.637097 1.57287 0
M  V30 3244 H 311.259 -1.77164 3.48896 0
M  V30 3245 H 310.882 -3.13383 2.44698 0
M  V30 3246 N 311.879 -1.3236 -0.855495 0
M  V30 3247 C 313.119 -1.24187 -1.62348 0
M  V30 3248 C 313.483 0.193597 -1.91021 0
M  V30 3249 O 314.684 0.39904 -2.65822 0
M  V30 3250 C 312.955 -2.07661 -2.90881 0
M  V30 3251 S 314.514 -2.16505 -3.81669 0
M  V30 3252 H 311.332 -0.442076 -0.556857 0
M  V30 3253 H 313.934 -1.67198 -1.01317 0
M  V30 3254 H 312.638 -3.11018 -2.67761 0
M  V30 3255 H 312.169 -1.65425 -3.56929 0
M  V30 3256 H 314.184 -1.31394 -4.78487 0
M  V30 3257 N 313.357 1.07166 -1.15556 0
M  V30 3258 C 314.603 1.80065 -0.932984 0
M  V30 3259 C 314.936 1.86586 0.53845 0
M  V30 3260 O 314.211 1.35098 1.39924 0
M  V30 3261 C 314.494 3.25022 -1.55025 0
M  V30 3262 C 314.347 3.26634 -3.09242 0
M  V30 3263 C 315.666 4.22341 -1.2376 0
M  V30 3264 H 312.785 0.653697 -0.340366 0
M  V30 3265 H 315.427 1.25389 -1.4275 0
M  V30 3266 H 313.577 3.71712 -1.12972 0
M  V30 3267 H 315.249 2.88173 -3.60214 0
M  V30 3268 H 313.492 2.65539 -3.43033 0
M  V30 3269 H 314.163 4.28854 -3.47546 0
M  V30 3270 H 316.639 3.8405 -1.60139 0
M  V30 3271 H 315.515 5.22053 -1.69564 0
M  V30 3272 H 315.776 4.41828 -0.154938 0
M  V30 3273 N 314.835 0.952656 1.25548 0
M  V30 3274 C 315.767 0.428609 2.25157 0
M  V30 3275 C 316.78 -0.454428 1.56329 0
M  V30 3276 O 317.969 -0.263023 1.76552 0
M  V30 3277 C 315.069 -0.401972 3.36508 0
M  V30 3278 C 314.242 0.467601 4.34893 0
M  V30 3279 C 313.301 -0.30445 5.25319 0
M  V30 3280 O 312.327 0.296473 5.68427 0
M  V30 3281 N 313.529 -1.59805 5.5807 0
M  V30 3282 H 316.294 1.28497 2.70756 0
M  V30 3283 H 313.855 0.822798 1.39433 0
M  V30 3284 H 315.847 -0.926134 3.9396 0
M  V30 3285 H 314.417 -1.15918 2.90313 0
M  V30 3286 H 313.637 1.17288 3.76347 0
M  V30 3287 H 314.925 1.06119 4.97611 0
M  V30 3288 H 314.323 -2.10823 5.24948 0
M  V30 3289 H 312.88 -2.06822 6.18116 0
M  V30 3290 N 316.313 -1.40141 0.720998 0
M  V30 3291 C 317.245 -2.29177 0.0324669 0
M  V30 3292 C 318.258 -1.46105 -0.718126 0
M  V30 3293 O 319.447 -1.69335 -0.564608 0
M  V30 3294 C 316.547 -3.24473 -0.978292 0
M  V30 3295 C 315.72 -4.36423 -0.292115 0
M  V30 3296 C 314.779 -5.12122 -1.20901 0
M  V30 3297 O 313.805 -5.64981 -0.691766 0
M  V30 3298 N 315.007 -5.21992 -2.53978 0
M  V30 3299 H 317.772 -2.88909 0.796984 0
M  V30 3300 H 315.333 -1.51569 0.569068 0
M  V30 3301 H 317.325 -3.71987 -1.59398 0
M  V30 3302 H 315.895 -2.65871 -1.64413 0
M  V30 3303 H 315.115 -3.90967 0.503847 0
M  V30 3304 H 316.403 -5.08467 0.183971 0
M  V30 3305 H 315.801 -4.8054 -2.98493 0
M  V30 3306 H 314.358 -5.72995 -3.10677 0
M  V30 3307 N 317.792 -0.46758 -1.50504 0
M  V30 3308 C 319.038 0.0887532 -2.02606 0
M  V30 3309 C 319.371 1.39686 -1.34913 0
M  V30 3310 O 318.646 1.88644 -0.473694 0
M  V30 3311 C 318.929 0.276206 -3.59039 0
M  V30 3312 C 318.782 -1.05267 -4.37309 0
M  V30 3313 C 320.101 1.03235 -4.27821 0
M  V30 3314 H 317.22 0.0307814 -0.736357 0
M  V30 3315 H 319.862 -0.612485 -1.79857 0
M  V30 3316 H 318.012 0.8735 -3.78553 0
M  V30 3317 H 319.684 -1.68628 -4.29374 0
M  V30 3318 H 317.927 -1.65015 -4.01189 0
M  V30 3319 H 318.598 -0.875197 -5.45018 0
M  V30 3320 H 321.074 0.526111 -4.12761 0
M  V30 3321 H 319.95 1.1323 -5.37094 0
M  V30 3322 H 320.211 2.06806 -3.90748 0
M  V30 3323 N 319.27 1.56325 -0.20005 0
M  V30 3324 C 320.516 1.98012 0.438059 0
M  V30 3325 C 320.849 1.08702 1.60927 0
M  V30 3326 O 320.124 0.140064 1.93995 0
M  V30 3327 C 320.407 3.48841 0.893419 0
M  V30 3328 C 320.26 4.48928 -0.279947 0
M  V30 3329 C 321.579 4.03498 1.75719 0
M  V30 3330 H 318.698 0.719918 0.157757 0
M  V30 3331 H 321.34 1.87743 -0.291968 0
M  V30 3332 H 319.49 3.57723 1.51547 0
M  V30 3333 H 321.162 4.52079 -0.91772 0
M  V30 3334 H 319.405 4.23694 -0.930919 0
M  V30 3335 H 320.076 5.5194 0.0812601 0
M  V30 3336 H 322.552 3.97427 1.23253 0
M  V30 3337 H 321.428 5.09393 2.04476 0
M  V30 3338 H 321.689 3.4906 2.71311 0
M  V30 3339 N 320.748 -0.0735177 1.57428 0
M  V30 3340 C 321.658 -1.10547 2.06922 0
M  V30 3341 C 322.674 -1.42506 0.998402 0
M  V30 3342 O 323.85 -1.52717 1.31299 0
M  V30 3343 C 320.915 -2.40019 2.50184 0
M  V30 3344 C 319.976 -2.15046 3.71556 0
M  V30 3345 C 319.209 -3.38345 4.12745 0
M  V30 3346 O 319.432 -4.47399 3.53822 0
M  V30 3347 O 318.366 -3.2666 5.05546 0
M  V30 3348 H 322.192 -0.715013 2.95163 0
M  V30 3349 H 319.777 -0.287531 1.46607 0
M  V30 3350 H 321.659 -3.16218 2.78539 0
M  V30 3351 H 320.334 -2.78447 1.65072 0
M  V30 3352 H 319.241 -1.36558 3.48285 0
M  V30 3353 H 320.574 -1.81499 4.57514 0
M  V30 3354 N 322.226 -1.5378 -0.344866 0
M  V30 3355 C 323.156 -1.84662 -1.42906 0
M  V30 3356 C 324.137 -0.701648 -1.54955 0
M  V30 3357 O 325.322 -0.953438 -1.69184 0
M  V30 3358 C 322.452 -2.05503 -2.79974 0
M  V30 3359 C 321.406 -3.21318 -2.82734 0
M  V30 3360 C 320.732 -3.2749 -4.22675 0
M  V30 3361 C 322.032 -4.59456 -2.48389 0
M  V30 3362 H 323.726 -2.75461 -1.17311 0
M  V30 3363 H 321.272 -1.32542 -0.562896 0
M  V30 3364 H 323.225 -2.25691 -3.55867 0
M  V30 3365 H 321.949 -1.11434 -3.07002 0
M  V30 3366 H 320.608 -3.00984 -2.09294 0
M  V30 3367 H 320.256 -2.31019 -4.4681 0
M  V30 3368 H 319.956 -4.05316 -4.25433 0
M  V30 3369 H 321.48 -3.49887 -5.00412 0
M  V30 3370 H 322.894 -4.79667 -3.13995 0
M  V30 3371 H 321.291 -5.39675 -2.62432 0
M  V30 3372 H 322.361 -4.63155 -1.4358 0
M  V30 3373 N 323.704 0.605807 -1.45491 0
M  V30 3374 C 324.634 1.72709 -1.57143 0
M  V30 3375 C 325.615 1.6476 -0.422884 0
M  V30 3376 O 326.8 1.83132 -0.646247 0
M  V30 3377 C 323.93 3.11316 -1.53948 0
M  V30 3378 C 322.884 3.34077 -2.67537 0
M  V30 3379 C 322.21 4.72975 -2.49397 0
M  V30 3380 C 323.51 3.24158 -4.09535 0
M  V30 3381 H 325.204 1.63214 -2.51001 0
M  V30 3382 H 322.75 0.78379 -1.208 0
M  V30 3383 H 324.703 3.89557 -1.60696 0
M  V30 3384 H 323.427 3.21655 -0.566205 0
M  V30 3385 H 322.086 2.58227 -2.6022 0
M  V30 3386 H 321.734 4.8005 -1.50205 0
M  V30 3387 H 321.434 4.8916 -3.25571 0
M  V30 3388 H 322.958 5.53414 -2.58002 0
M  V30 3389 H 324.372 3.92271 -4.18086 0
M  V30 3390 H 322.769 3.51872 -4.86113 0
M  V30 3391 H 323.839 2.2157 -4.31317 0
M  V30 3392 N 325.182 1.32811 0.848464 0
M  V30 3393 C 326.114 1.18095 1.96433 0
M  V30 3394 C 327.127 0.114354 1.62398 0
M  V30 3395 O 328.316 0.363892 1.74751 0
M  V30 3396 C 325.416 0.786798 3.2964 0
M  V30 3397 C 324.589 1.943 3.91875 0
M  V30 3398 C 323.648 1.53138 5.03423 0
M  V30 3399 O 322.674 2.24432 5.23086 0
M  V30 3400 N 323.876 0.430915 5.78898 0
M  V30 3401 H 326.641 2.14218 2.09597 0
M  V30 3402 H 324.202 1.2543 1.02367 0
M  V30 3403 H 326.194 0.493715 4.01677 0
M  V30 3404 H 324.764 -0.0834541 3.12489 0
M  V30 3405 H 323.984 2.40224 3.12547 0
M  V30 3406 H 325.272 2.71689 4.30189 0
M  V30 3407 H 324.67 -0.162333 5.65467 0
M  V30 3408 H 323.227 0.197466 6.51501 0
M  V30 3409 N 326.66 -1.06551 1.16123 0
M  V30 3410 C 327.57 -2.17484 0.879662 0
M  V30 3411 C 328.586 -1.73377 -0.147104 0
M  V30 3412 O 329.762 -2.01379 0.0289128 0
M  V30 3413 C 326.827 -3.44591 0.381829 0
M  V30 3414 C 325.888 -4.0322 1.4735 0
M  V30 3415 C 325.121 -5.24261 0.999324 0
M  V30 3416 O 325.344 -5.70198 -0.151957 0
M  V30 3417 O 324.278 -5.74775 1.78653 0
M  V30 3418 H 328.104 -2.44075 1.80724 0
M  V30 3419 H 325.689 -1.16042 0.940992 0
M  V30 3420 H 327.571 -4.21254 0.111053 0
M  V30 3421 H 326.246 -3.19532 -0.51777 0
M  V30 3422 H 325.153 -3.2806 1.79798 0
M  V30 3423 H 326.486 -4.32568 2.34831 0
M  V30 3424 N 328.138 -0.959301 -1.25041 0
M  V30 3425 C 329.554 -0.664474 -1.4511 0
M  V30 3426 C 329.754 0.776481 -1.85938 0
M  V30 3427 O 328.81 1.55128 -1.99227 0
M  V30 3428 C 330.123 -1.64139 -2.5195 0
M  V30 3429 C 331.671 -1.65309 -2.65786 0
M  V30 3430 C 332.146 -2.61777 -3.75815 0
M  V30 3431 N 333.637 -2.60169 -3.83231 0
M  V30 3432 C 334.372 -3.31489 -4.6787 0
M  V30 3433 N 333.868 -4.12298 -5.56761 0
M  V30 3434 N 335.661 -3.20354 -4.61876 0
M  V30 3435 H 327.812 -1.89043 -0.968332 0
M  V30 3436 H 330.075 -0.813408 -0.4869 0
M  V30 3437 H 329.781 -2.67086 -2.28819 0
M  V30 3438 H 329.655 -1.40756 -3.49954 0
M  V30 3439 H 332.042 -0.630778 -2.8828 0
M  V30 3440 H 332.123 -1.92753 -1.68167 0
M  V30 3441 H 331.767 -3.64137 -3.54071 0
M  V30 3442 H 331.697 -2.31616 -4.72929 0
M  V30 3443 H 334.188 -2.01507 -3.19692 0
M  V30 3444 H 334.501 -4.63625 -6.18281 0
M  V30 3445 H 332.846 -4.16395 -5.56454 0
M  V30 3446 H 336.037 -2.56692 -3.91442 0
M  V30 3447 H 336.21 -3.76201 -5.27614 0
M  V30 3448 N 329.616 1.39756 -0.72842 0
M  V30 3449 C 330.893 1.94574 -0.200079 0
M  V30 3450 C 331.273 1.66569 1.29684 0
M  V30 3451 O 330.621 0.990326 2.05924 0
M  V30 3452 C 330.831 3.45004 -0.526608 0
M  V30 3453 C 332.179 4.21965 -0.472318 0
M  V30 3454 O 333.203 3.53173 -0.463413 0
M  V30 3455 O 332.062 5.44552 -0.461075 0
M  V30 3456 H 329.156 0.826289 -0.0342851 0
M  V30 3457 H 331.702 1.49293 -0.806829 0
M  V30 3458 H 330.474 3.58796 -1.56144 0
M  V30 3459 H 330.097 3.97449 0.109449 0
M  V30 3460 N 331.094 0.475555 1.50254 0
M  V30 3461 C 332.343 -0.0795996 2.01543 0
M  V30 3462 C 332.656 -1.4038 1.36209 0
M  V30 3463 O 333.862 -2.04415 1.7868 0
M  V30 3464 C 332.318 -0.192363 3.59386 0
M  V30 3465 C 331.926 1.12367 4.33679 0
M  V30 3466 C 333.67 -0.699238 4.18701 0
M  V30 3467 C 331.577 0.974453 5.83317 0
M  V30 3468 H 330.507 -0.0335228 0.753254 0
M  V30 3469 H 333.158 0.611128 1.73025 0
M  V30 3470 H 331.54 -0.946974 3.84511 0
M  V30 3471 H 332.714 1.88958 4.20276 0
M  V30 3472 H 331.029 1.562 3.85993 0
M  V30 3473 H 333.626 -0.827978 5.28251 0
M  V30 3474 H 333.969 -1.69171 3.80377 0
M  V30 3475 H 334.502 -0.00188807 3.978 0
M  V30 3476 H 331.241 1.94042 6.26121 0
M  V30 3477 H 330.761 0.248998 5.99283 0
M  V30 3478 H 332.44 0.642867 6.43798 0
M  V30 3479 N 332.573 -1.56217 0.208337 0
M  V30 3480 C 333.819 -1.98242 -0.427552 0
M  V30 3481 C 334.152 -1.09554 -1.60348 0
M  V30 3482 O 333.427 -0.15035 -1.93918 0
M  V30 3483 C 333.71 -3.4931 -0.874907 0
M  V30 3484 C 333.563 -4.48773 0.303751 0
M  V30 3485 C 334.882 -4.04424 -1.73577 0
M  V30 3486 H 332.001 -0.720744 -0.153936 0
M  V30 3487 H 334.643 -1.87586 0.30192 0
M  V30 3488 H 332.793 -3.58522 -1.49648 0
M  V30 3489 H 334.465 -4.51586 0.941682 0
M  V30 3490 H 332.708 -4.23194 0.953375 0
M  V30 3491 H 333.379 -5.51976 -0.0519883 0
M  V30 3492 H 335.855 -3.98075 -1.21143 0
M  V30 3493 H 334.731 -5.1047 -2.01771 0
M  V30 3494 H 334.992 -3.50494 -2.69456 0
M  V30 3495 N 334.051 0.0651679 -1.57465 0
M  V30 3496 C 335.462 0.616213 -1.76238 0
M  V30 3497 C 335.813 1.7756 -0.834689 0
M  V30 3498 O 334.938 2.1639 -0.0204156 0
M  V30 3499 C 335.533 1.12462 -3.1959 0
M  V30 3500 C 334.092 1.62147 -3.39684 0
M  V30 3501 C 333.239 0.543739 -2.71917 0
M  V30 3502 H 336.19 -0.161022 -1.57881 0
M  V30 3503 H 336.211 1.99324 -3.24114 0
M  V30 3504 H 335.723 0.280592 -3.87084 0
M  V30 3505 H 333.824 2.48854 -2.77313 0
M  V30 3506 H 333.937 1.69385 -4.48158 0
M  V30 3507 H 332.301 0.990352 -2.34657 0
M  V30 3508 H 333.084 -0.290216 -3.42071 0
M  V30 3509 N 335.529 1.53961 0.336706 0
M  V30 3510 C 336.775 1.7179 1.07777 0
M  V30 3511 C 337.108 0.483263 1.88091 0
M  V30 3512 O 336.383 -0.519747 1.87427 0
M  V30 3513 C 336.666 2.98558 2.01334 0
M  V30 3514 C 336.519 4.32245 1.24437 0
M  V30 3515 C 337.838 3.21023 3.01052 0
M  V30 3516 H 334.957 0.625089 0.390426 0
M  V30 3517 H 337.599 1.86641 0.35567 0
M  V30 3518 H 335.749 2.86028 2.62908 0
M  V30 3519 H 337.421 4.56637 0.654243 0
M  V30 3520 H 335.664 4.30344 0.546458 0
M  V30 3521 H 336.335 5.17137 1.93063 0
M  V30 3522 H 338.811 3.32929 2.49595 0
M  V30 3523 H 337.687 4.11104 3.6371 0
M  V30 3524 H 337.948 2.37637 3.72802 0
M  V30 3525 N 337.007 -0.598083 1.45811 0
M  V30 3526 C 338.284 -1.35777 1.40797 0
M  V30 3527 C 338.664 -2.10935 0.083462 0
M  V30 3528 O 338.012 -2.08505 -0.934763 0
M  V30 3529 C 338.222 -2.29666 2.62783 0
M  V30 3530 C 339.57 -2.91977 3.08277 0
M  V30 3531 O 340.594 -2.39984 2.63223 0
M  V30 3532 O 339.453 -3.86376 3.86491 0
M  V30 3533 H 336.547 -0.609291 0.55919 0
M  V30 3534 H 339.093 -0.620379 1.57954 0
M  V30 3535 H 337.865 -1.73454 3.50756 0
M  V30 3536 H 337.488 -3.1077 2.48008 0
M  V30 3537 N 338.485 -1.33259 -0.841409 0
M  V30 3538 C 339.448 -1.23221 -1.9326 0
M  V30 3539 C 340.448 -0.151895 -1.60081 0
M  V30 3540 O 341.638 -0.403246 -1.69468 0
M  V30 3541 C 338.77 -0.898123 -3.28856 0
M  V30 3542 H 339.963 -2.2021 -2.03587 0
M  V30 3543 H 337.516 -1.17281 -1.03319 0
M  V30 3544 H 338.251 0.0693841 -3.24226 0
M  V30 3545 H 338.036 -1.67934 -3.54317 0
M  V30 3546 H 339.526 -0.852563 -4.08805 0
M  V30 3547 N 339.963 1.05934 -1.16686 0
M  V30 3548 C 341.188 1.83029 -0.975455 0
M  V30 3549 C 341.613 1.82096 0.471452 0
M  V30 3550 O 340.971 1.22443 1.33706 0
M  V30 3551 C 341.019 3.27372 -1.51195 0
M  V30 3552 O 340.123 4.06054 -0.720701 0
M  V30 3553 H 339.464 0.566194 -0.346872 0
M  V30 3554 H 341.994 1.33541 -1.55009 0
M  V30 3555 H 342.004 3.78186 -1.53099 0
M  V30 3556 H 340.679 3.27366 -2.56523 0
M  V30 3557 H 339.256 3.64812 -0.772458 0
M  V30 3558 N 341.441 0.965919 1.2453 0
M  V30 3559 C 342.671 0.643451 1.96324 0
M  V30 3560 C 343.079 -0.790927 1.71875 0
M  V30 3561 O 342.422 -1.54208 0.998273 0
M  V30 3562 C 342.484 0.836078 3.49643 0
M  V30 3563 C 342.148 2.24975 3.97788 0
M  V30 3564 C 343.145 3.22735 4.07601 0
M  V30 3565 C 340.83 2.57697 4.31158 0
M  V30 3566 C 342.824 4.51303 4.50116 0
M  V30 3567 C 340.511 3.86492 4.73357 0
M  V30 3568 C 341.509 4.83107 4.828 0
M  V30 3569 O 341.197 6.09605 5.24058 0
M  V30 3570 H 340.929 0.239223 0.632257 0
M  V30 3571 H 343.483 1.29587 1.59362 0
M  V30 3572 H 341.713 0.12649 3.86493 0
M  V30 3573 H 343.402 0.512965 4.02646 0
M  V30 3574 H 344.168 2.98783 3.82039 0
M  V30 3575 H 340.047 1.83216 4.23028 0
M  V30 3576 H 343.591 5.26716 4.57401 0
M  V30 3577 H 339.488 4.10245 4.98366 0
M  V30 3578 H 340.256 6.13146 5.42213 0
M  V30 3579 N 342.919 -1.39368 0.735821 0
M  V30 3580 C 343.829 -2.34395 0.0979693 0
M  V30 3581 C 344.845 -1.58361 -0.720968 0
M  V30 3582 O 346.021 -1.90648 -0.649245 0
M  V30 3583 C 343.086 -3.37393 -0.797916 0
M  V30 3584 C 342.147 -4.29287 0.0333662 0
M  V30 3585 C 341.38 -5.27365 -0.819854 0
M  V30 3586 O 341.603 -5.31959 -2.05855 0
M  V30 3587 O 340.537 -6.01389 -0.248079 0
M  V30 3588 H 344.363 -2.90601 0.882315 0
M  V30 3589 H 341.948 -1.40909 0.4965 0
M  V30 3590 H 343.83 -4.00505 -1.31048 0
M  V30 3591 H 342.505 -2.83571 -1.56106 0
M  V30 3592 H 341.412 -3.69395 0.591475 0
M  V30 3593 H 342.745 -4.86317 0.758752 0
M  V30 3594 N 344.397 -0.483516 -1.5 0
M  V30 3595 C 345.643 0.0672592 -2.02688 0
M  V30 3596 C 345.976 1.38247 -1.36387 0
M  V30 3597 O 345.251 1.88131 -0.493675 0
M  V30 3598 C 345.534 0.238109 -3.59312 0
M  V30 3599 C 345.387 -1.099 -4.36168 0
M  V30 3600 C 346.706 0.986916 -4.28892 0
M  V30 3601 H 343.825 0.0229696 -0.736642 0
M  V30 3602 H 346.467 -0.631527 -1.79197 0
M  V30 3603 H 344.617 0.8333 -3.79458 0
M  V30 3604 H 346.289 -1.73172 -4.27562 0
M  V30 3605 H 344.532 -1.69261 -3.99416 0
M  V30 3606 H 345.203 -0.932954 -5.44059 0
M  V30 3607 H 347.679 0.482302 -4.13295 0
M  V30 3608 H 346.555 1.07527 -5.38265 0
M  V30 3609 H 346.816 2.0265 -3.92919 0
M  V30 3610 N 345.875 1.56104 -0.216619 0
M  V30 3611 C 346.822 2.2007 0.695531 0
M  V30 3612 C 347.792 1.15471 1.19397 0
M  V30 3613 O 348.977 1.43807 1.25396 0
M  V30 3614 C 346.117 2.88073 1.90021 0
M  V30 3615 C 345.23 4.07253 1.44113 0
M  V30 3616 C 344.365 4.63052 2.603 0
M  V30 3617 C 343.404 5.74545 2.11103 0
M  V30 3618 N 342.541 6.24656 3.20545 0
M  V30 3619 H 347.381 2.97655 0.143327 0
M  V30 3620 H 344.918 1.46982 0.0589934 0
M  V30 3621 H 346.876 3.25681 2.60745 0
M  V30 3622 H 345.506 2.13015 2.42538 0
M  V30 3623 H 344.558 3.75164 0.628999 0
M  V30 3624 H 345.87 4.8783 1.04036 0
M  V30 3625 H 345.024 5.03078 3.39113 0
M  V30 3626 H 343.763 3.81628 3.03663 0
M  V30 3627 H 342.768 5.34027 1.3075 0
M  V30 3628 H 343.993 6.57801 1.68746 0
M  V30 3629 H 341.939 5.46148 3.63399 0
M  V30 3630 H 341.856 7.00343 2.84704 0
M  V30 3631 H 343.124 6.69338 3.99508 0
M  V30 3632 N 347.353 -0.0568162 1.57498 0
M  V30 3633 C 348.263 -1.08346 2.08083 0
M  V30 3634 C 349.279 -1.41439 1.01346 0
M  V30 3635 O 350.455 -1.51316 1.32912 0
M  V30 3636 C 347.52 -2.37352 2.52715 0
M  V30 3637 C 346.581 -2.11093 3.73816 0
M  V30 3638 C 345.814 -3.33949 4.1631 0
M  V30 3639 O 346.037 -4.43622 3.58547 0
M  V30 3640 O 344.971 -3.21279 5.08983 0
M  V30 3641 H 348.797 -0.683667 2.95905 0
M  V30 3642 H 346.382 -0.271965 1.46904 0
M  V30 3643 H 348.264 -3.13246 2.81877 0
M  V30 3644 H 346.939 -2.76681 1.68016 0
M  V30 3645 H 345.846 -1.32856 3.49714 0
M  V30 3646 H 347.179 -1.76637 4.59413 0
M  V30 3647 N 348.832 -1.54138 -0.328536 0
M  V30 3648 C 349.762 -1.86167 -1.40939 0
M  V30 3649 C 350.743 -0.718044 -1.54202 0
M  V30 3650 O 351.928 -0.971328 -1.68163 0
M  V30 3651 C 349.058 -2.08461 -2.77779 0
M  V30 3652 C 348.012 -3.24299 -2.7931 0
M  V30 3653 C 347.338 -3.31955 -4.19178 0
M  V30 3654 C 348.638 -4.62065 -2.43502 0
M  V30 3655 H 350.332 -2.76689 -1.14383 0
M  V30 3656 H 347.878 -1.33132 -0.548806 0
M  V30 3657 H 349.831 -2.29453 -3.53454 0
M  V30 3658 H 348.555 -1.14684 -3.05802 0
M  V30 3659 H 347.214 -3.03187 -2.0609 0
M  V30 3660 H 346.862 -2.35745 -4.44335 0
M  V30 3661 H 346.562 -4.09805 -4.2111 0
M  V30 3662 H 348.086 -3.55175 -4.96672 0
M  V30 3663 H 349.5 -4.8297 -3.08889 0
M  V30 3664 H 347.897 -5.42429 -2.56693 0
M  V30 3665 H 348.967 -4.64652 -1.38659 0
M  V30 3666 N 350.31 0.590341 -1.46126 0
M  V30 3667 C 351.54 1.37304 -1.54373 0
M  V30 3668 C 351.948 1.88332 -0.181071 0
M  V30 3669 O 351.291 1.63852 0.830559 0
M  V30 3670 C 351.353 2.6012 -2.48149 0
M  V30 3671 C 351.017 2.30613 -3.94546 0
M  V30 3672 C 352.014 1.89915 -4.83971 0
M  V30 3673 C 349.699 2.42993 -4.39613 0
M  V30 3674 C 351.693 1.61981 -6.16475 0
M  V30 3675 C 349.38 2.14672 -5.72153 0
M  V30 3676 C 350.378 1.7423 -6.60404 0
M  V30 3677 O 350.066 1.46251 -7.90485 0
M  V30 3678 H 349.798 0.426086 -0.524811 0
M  V30 3679 H 352.352 0.72539 -1.92165 0
M  V30 3680 H 350.582 3.27664 -2.05361 0
M  V30 3681 H 352.271 3.22182 -2.46887 0
M  V30 3682 H 353.037 1.79872 -4.50412 0
M  V30 3683 H 348.916 2.73435 -3.71153 0
M  V30 3684 H 352.46 1.30341 -6.85315 0
M  V30 3685 H 348.357 2.24337 -6.05263 0
M  V30 3686 H 349.125 1.6016 -8.02677 0
M  V30 3687 N 351.788 1.33704 0.83433 0
M  V30 3688 C 353.034 1.25603 1.59222 0
M  V30 3689 C 353.367 -0.176659 1.93395 0
M  V30 3690 O 352.642 -1.11915 1.59076 0
M  V30 3691 C 352.925 2.13576 2.89926 0
M  V30 3692 C 352.778 3.65326 2.62406 0
M  V30 3693 C 354.097 2.01238 3.91397 0
M  V30 3694 H 351.216 0.457613 0.577719 0
M  V30 3695 H 353.858 1.63848 0.961972 0
M  V30 3696 H 352.008 1.8109 3.43713 0
M  V30 3697 H 353.68 4.08124 2.15017 0
M  V30 3698 H 351.923 3.8698 1.96033 0
M  V30 3699 H 352.594 4.22232 3.55562 0
M  V30 3700 H 355.07 2.29738 3.46929 0
M  V30 3701 H 353.946 2.65036 4.80673 0
M  V30 3702 H 354.207 0.985951 4.30966 0
M  V30 3703 N 353.266 -1.05314 1.17247 0
M  V30 3704 C 354.677 -1.59753 0.96623 0
M  V30 3705 C 355.028 -1.9005 -0.487378 0
M  V30 3706 O 354.153 -1.68126 -1.36245 0
M  V30 3707 C 354.748 -2.90249 1.74759 0
M  V30 3708 C 353.307 -3.41352 1.58606 0
M  V30 3709 C 352.454 -2.15103 1.75002 0
M  V30 3710 H 355.405 -0.881406 1.31973 0
M  V30 3711 H 355.426 -3.60097 1.22925 0
M  V30 3712 H 354.938 -2.68166 2.8055 0
M  V30 3713 H 353.039 -3.68474 0.552985 0
M  V30 3714 H 353.152 -4.16019 2.37624 0
M  V30 3715 H 351.516 -2.25804 1.17833 0
M  V30 3716 H 352.299 -1.95491 2.82202 0
M  V30 3717 N 354.744 -0.972509 -1.24016 0
M  V30 3718 C 355.654 -0.5143 -2.28893 0
M  V30 3719 C 356.67 0.427078 -1.68677 0
M  V30 3720 O 357.846 0.298939 -1.99169 0
M  V30 3721 C 354.911 0.183598 -3.46214 0
M  V30 3722 C 353.972 -0.798202 -4.21814 0
M  V30 3723 C 353.205 -0.133514 -5.33533 0
M  V30 3724 O 353.428 1.07714 -5.60137 0
M  V30 3725 O 352.362 -0.828103 -5.96176 0
M  V30 3726 H 356.188 -1.38629 -2.70214 0
M  V30 3727 H 353.773 -0.739769 -1.29799 0
M  V30 3728 H 355.655 0.575433 -4.17453 0
M  V30 3729 H 354.33 1.03048 -3.0686 0
M  V30 3730 H 353.237 -1.24059 -3.52931 0
M  V30 3731 H 354.57 -1.61364 -4.64997 0
M  V30 3732 N 356.222 1.38976 -0.743202 0
M  V30 3733 C 357.17 2.32394 -0.0978389 0
M  V30 3734 C 358.164 1.53486 0.716824 0
M  V30 3735 O 359.37 1.69092 0.617088 0
M  V30 3736 H 355.745 0.75189 -0.0128402 0
M  V30 3737 H 357.716 2.84441 -0.901981 0
M  V30 3738 C 356.465 3.38629 0.789036 0
M  V30 3739 H 355.788 3.99432 0.171559 0
M  V30 3740 H 357.228 4.06426 1.20807 0
M  V30 3741 C 355.687 2.76347 1.92702 0
M  V30 3742 O 356.217 2.64836 3.02034 0
M  V30 3743 N 354.423 2.34311 1.71891 0
M  V30 3744 H 353.97 2.43873 0.829675 0
M  V30 3745 H 353.928 1.9298 2.48205 0
M  V30 3746 N 357.7 0.491464 1.49741 0
M  V30 3747 C 358.647 -0.292027 2.28945 0
M  V30 3748 C 359.617 -0.968973 1.34908 0
M  V30 3749 O 360.802 -0.97748 1.6386 0
M  V30 3750 C 357.942 -1.35617 3.17336 0
M  V30 3751 C 357.055 -0.691957 4.26422 0
M  V30 3752 C 356.19 -1.73572 5.02042 0
M  V30 3753 C 355.229 -1.05286 6.02977 0
M  V30 3754 N 354.366 -2.0404 6.71798 0
M  V30 3755 H 359.206 0.389654 2.95442 0
M  V30 3756 H 356.743 0.204003 1.45679 0
M  V30 3757 H 358.701 -1.98502 3.66951 0
M  V30 3758 H 357.331 -2.00674 2.52844 0
M  V30 3759 H 356.383 0.0499523 3.80367 0
M  V30 3760 H 357.695 -0.153946 4.98562 0
M  V30 3761 H 356.849 -2.43987 5.55478 0
M  V30 3762 H 355.588 -2.30757 4.29654 0
M  V30 3763 H 354.593 -0.334446 5.48782 0
M  V30 3764 H 355.818 -0.487636 6.77347 0
M  V30 3765 H 353.764 -2.60205 6.02187 0
M  V30 3766 H 353.681 -1.55279 7.39881 0
M  V30 3767 H 354.949 -2.73772 7.29842 0
M  V30 3768 N 359.178 -1.55987 0.224894 0
M  V30 3769 C 360.108 -2.23426 -0.678457 0
M  V30 3770 C 361.089 -1.20709 -1.19847 0
M  V30 3771 O 362.274 -1.49304 -1.24186 0
M  V30 3772 C 359.404 -2.91676 -1.88527 0
M  V30 3773 C 358.358 -4.00893 -1.49896 0
M  V30 3774 C 357.684 -4.56455 -2.78483 0
M  V30 3775 C 358.984 -5.17769 -0.686461 0
M  V30 3776 H 360.678 -2.99175 -0.116173 0
M  V30 3777 H 358.224 -1.43897 -0.054436 0
M  V30 3778 H 360.177 -3.37547 -2.5227 0
M  V30 3779 H 358.901 -2.1338 -2.47258 0
M  V30 3780 H 357.56 -3.55758 -0.884985 0
M  V30 3781 H 357.208 -3.74886 -3.35365 0
M  V30 3782 H 356.908 -5.30169 -2.53368 0
M  V30 3783 H 358.432 -5.05047 -3.43162 0
M  V30 3784 H 359.846 -5.60001 -1.22767 0
M  V30 3785 H 358.243 -5.97735 -0.532259 0
M  V30 3786 H 359.313 -4.83932 0.306196 0
M  V30 3787 N 360.656 0.0484629 -1.57525 0
M  V30 3788 C 361.606 1.06246 -2.01732 0
M  V30 3789 C 362.59 1.33155 -0.903245 0
M  V30 3790 O 363.782 1.33065 -1.16717 0
M  V30 3791 C 360.911 2.36943 -2.48421 0
M  V30 3792 C 359.997 2.13208 -3.6661 0
M  V30 3793 N 360.388 1.5947 -4.80003 0
M  V30 3794 C 358.686 2.43581 -3.7361 0
M  V30 3795 C 359.387 1.51092 -5.61735 0
M  V30 3796 N 358.363 1.9797 -5.0627 0
M  V30 3797 H 362.165 0.640675 -2.86832 0
M  V30 3798 H 359.679 0.255134 -1.60383 0
M  V30 3799 H 361.676 3.10374 -2.78341 0
M  V30 3800 H 360.336 2.79818 -1.64718 0
M  V30 3801 H 361.347 1.28008 -5.01831 0
M  V30 3802 H 358.024 2.89662 -3.00669 0
M  V30 3803 H 359.414 1.10199 -6.62801 0
M  V30 3804 N 362.134 1.5431 0.320358 0
M  V30 3805 C 363.064 1.86912 1.3995 0
M  V30 3806 C 364.045 0.726211 1.53819 0
M  V30 3807 O 365.23 0.980233 1.67646 0
M  V30 3808 C 362.36 2.09932 2.7667 0
M  V30 3809 C 361.314 3.25776 2.77586 0
M  V30 3810 C 360.64 3.34173 4.17412 0
M  V30 3811 C 361.94 4.6335 2.41048 0
M  V30 3812 H 363.634 2.77292 1.12914 0
M  V30 3813 H 361.18 1.33421 0.541738 0
M  V30 3814 H 363.133 2.31324 3.52232 0
M  V30 3815 H 361.857 1.16304 3.0519 0
M  V30 3816 H 360.516 3.04276 2.04479 0
M  V30 3817 H 360.164 2.38098 4.43078 0
M  V30 3818 H 359.864 4.12033 4.18931 0
M  V30 3819 H 361.388 3.57803 4.94782 0
M  V30 3820 H 362.802 4.84602 3.06324 0
M  V30 3821 H 361.199 5.43782 2.53813 0
M  V30 3822 H 362.269 4.65381 1.36193 0
M  V30 3823 N 363.613 -0.582584 1.46437 0
M  V30 3824 C 364.576 -1.67366 1.56592 0
M  V30 3825 C 365.576 -1.54575 0.443072 0
M  V30 3826 O 366.766 -1.59191 0.707381 0
M  V30 3827 C 363.898 -3.06791 1.48634 0
M  V30 3828 H 365.091 -1.5972 2.5383 0
M  V30 3829 H 362.644 -0.800432 1.34249 0
M  V30 3830 H 363.379 -3.19993 0.526763 0
M  V30 3831 H 363.164 -3.17484 2.30101 0
M  V30 3832 H 364.654 -3.86218 1.58826 0
M  V30 3833 N 365.091 -1.34144 -0.827227 0
M  V30 3834 C 366.038 -1.25364 -1.93785 0
M  V30 3835 C 367.008 -0.129774 -1.65592 0
M  V30 3836 O 368.193 -0.310024 -1.88264 0
M  V30 3837 C 365.333 -1.01064 -3.2997 0
M  V30 3838 C 364.446 -2.22185 -3.70484 0
M  V30 3839 C 363.581 -1.91203 -4.95595 0
M  V30 3840 C 362.62 -3.08491 -5.28677 0
M  V30 3841 N 361.757 -2.77421 -6.44967 0
M  V30 3842 H 366.597 -2.20347 -2.00627 0
M  V30 3843 H 364.134 -1.09558 -0.981608 0
M  V30 3844 H 366.092 -0.850139 -4.08446 0
M  V30 3845 H 364.722 -0.0975026 -3.22653 0
M  V30 3846 H 363.774 -2.4917 -2.87434 0
M  V30 3847 H 365.086 -3.0983 -3.90905 0
M  V30 3848 H 364.24 -1.71864 -5.81848 0
M  V30 3849 H 362.979 -1.00812 -4.77167 0
M  V30 3850 H 361.984 -3.28431 -4.40923 0
M  V30 3851 H 363.209 -3.99655 -5.49047 0
M  V30 3852 H 361.155 -1.89601 -6.28003 0
M  V30 3853 H 361.072 -3.58598 -6.6554 0
M  V30 3854 H 362.34 -2.61577 -7.34301 0
M  V30 3855 N 366.569 1.04691 -1.17803 0
M  V30 3856 C 367.797 1.81446 -0.99423 0
M  V30 3857 C 368.212 1.83174 0.457459 0
M  V30 3858 O 367.569 1.26265 1.31771 0
M  V30 3859 C 367.62 3.27334 -1.5341 0
M  V30 3860 O 367.341 3.25798 -2.92895 0
M  V30 3861 C 368.842 4.20759 -1.39559 0
M  V30 3862 H 366.062 0.571599 -0.351447 0
M  V30 3863 H 368.606 1.31982 -1.56208 0
M  V30 3864 H 366.761 3.74052 -1.00815 0
M  V30 3865 H 367.175 4.17144 -3.17949 0
M  V30 3866 H 368.649 5.21084 -1.82141 0
M  V30 3867 H 369.126 4.37856 -0.343394 0
M  V30 3868 H 369.732 3.79901 -1.91195 0
M  V30 3869 N 368.047 0.979072 1.23499 0
M  V30 3870 C 369.324 0.563674 1.87302 0
M  V30 3871 C 369.704 -0.959199 1.88049 0
M  V30 3872 O 369.052 -1.83535 1.36114 0
M  V30 3873 C 369.262 1.16822 3.28867 0
M  V30 3874 C 370.61 1.26014 4.0547 0
M  V30 3875 O 371.634 1.12158 3.38082 0
M  V30 3876 O 370.493 1.48044 5.26066 0
M  V30 3877 H 367.587 0.189602 0.804972 0
M  V30 3878 H 370.133 1.07407 1.31384 0
M  V30 3879 H 368.905 2.21049 3.22883 0
M  V30 3880 H 368.528 0.642564 3.92373 0
M  V30 3881 N 369.525 -1.3858 0.750561 0
M  V30 3882 C 370.488 -2.28836 0.129152 0
M  V30 3883 C 371.488 -1.47045 -0.650714 0
M  V30 3884 O 372.678 -1.6753 -0.477428 0
M  V30 3885 C 369.81 -3.30751 -0.825622 0
M  V30 3886 H 371.003 -2.85294 0.924516 0
M  V30 3887 H 368.556 -1.47489 0.517376 0
M  V30 3888 H 369.291 -2.79378 -1.64677 0
M  V30 3889 H 369.076 -3.91177 -0.268852 0
M  V30 3890 H 370.566 -3.98249 -1.2565 0
M  V30 3891 N 371.003 -0.499398 -1.49478 0
M  V30 3892 C 371.913 0.284489 -2.32869 0
M  V30 3893 C 372.929 0.968885 -1.44529 0
M  V30 3894 O 374.105 0.95062 -1.77553 0
M  V30 3895 C 371.17 1.33594 -3.19928 0
M  V30 3896 C 370.231 0.665149 -4.24116 0
M  V30 3897 C 369.464 1.6665 -5.07014 0
M  V30 3898 O 369.687 2.89618 -4.91404 0
M  V30 3899 O 368.621 1.22271 -5.8935 0
M  V30 3900 H 372.447 -0.39802 -3.01081 0
M  V30 3901 H 370.032 -0.260758 -1.47107 0
M  V30 3902 H 371.914 1.94431 -3.73864 0
M  V30 3903 H 370.589 2.0014 -2.54412 0
M  V30 3904 H 369.496 0.0170769 -3.74096 0
M  V30 3905 H 370.829 0.0421555 -4.92182 0
M  V30 3906 N 372.481 1.55866 -0.233164 0
M  V30 3907 C 373.709 2.02998 0.399905 0
M  V30 3908 C 374.124 1.11274 1.52524 0
M  V30 3909 O 373.481 0.124528 1.82075 0
M  V30 3910 C 373.532 3.4958 0.920639 0
M  V30 3911 O 373.253 4.37808 -0.159834 0
M  V30 3912 C 374.754 4.12411 1.62578 0
M  V30 3913 H 371.974 0.664006 0.0966281 0
M  V30 3914 H 374.518 2.0143 -0.353013 0
M  V30 3915 H 372.673 3.51727 1.62379 0
M  V30 3916 H 373.087 5.23981 0.23337 0
M  V30 3917 H 374.561 5.16711 1.94201 0
M  V30 3918 H 375.038 3.5809 2.54299 0
M  V30 3919 H 375.644 4.14148 0.967553 0
M  V30 3920 N 373.959 -0.0401083 1.57549 0
M  V30 3921 C 374.889 -1.04384 2.08869 0
M  V30 3922 C 375.87 -1.38407 0.988817 0
M  V30 3923 O 377.055 -1.47483 1.26342 0
M  V30 3924 C 374.185 -2.34808 2.55895 0
M  V30 3925 C 373.139 -2.15057 3.70047 0
M  V30 3926 C 372.465 -3.51145 4.03239 0
M  V30 3927 C 373.765 -1.54576 4.98902 0
M  V30 3928 H 375.459 -0.616666 2.92981 0
M  V30 3929 H 373.005 -0.295184 1.40942 0
M  V30 3930 H 374.958 -3.05346 2.90417 0
M  V30 3931 H 373.682 -2.79565 1.68853 0
M  V30 3932 H 372.341 -1.46954 3.35857 0
M  V30 3933 H 371.989 -3.93529 3.13279 0
M  V30 3934 H 371.689 -3.38758 4.80122 0
M  V30 3935 H 373.213 -4.23062 4.40285 0
M  V30 3936 H 374.627 -2.15017 5.31451 0
M  V30 3937 H 373.024 -1.52796 5.80322 0
M  V30 3938 H 374.094 -0.51039 4.82206 0
M  V30 3939 N 375.437 -1.54477 -0.31217 0
M  V30 3940 C 376.848 -1.64344 -0.885891 0
M  V30 3941 C 377.199 -0.54485 -1.88483 0
M  V30 3942 O 376.324 0.320387 -2.14015 0
M  V30 3943 C 376.919 -2.97908 -1.61357 0
M  V30 3944 C 375.478 -3.09933 -2.13585 0
M  V30 3945 C 374.625 -2.59971 -0.964897 0
M  V30 3946 H 377.576 -1.58448 -0.0894528 0
M  V30 3947 H 377.597 -2.88706 -2.47848 0
M  V30 3948 H 377.109 -3.77845 -0.886277 0
M  V30 3949 H 375.21 -2.34694 -2.89395 0
M  V30 3950 H 375.323 -4.15916 -2.37804 0
M  V30 3951 H 373.687 -2.16147 -1.34731 0
M  V30 3952 H 374.47 -3.42376 -0.251742 0
M  V30 3953 N 376.915 0.57481 -1.46744 0
M  V30 3954 C 377.878 1.66533 -1.57478 0
M  V30 3955 C 378.878 1.54338 -0.451263 0
M  V30 3956 O 380.068 1.58814 -0.715813 0
M  V30 3957 C 377.2 3.05999 -1.50259 0
M  V30 3958 H 378.393 1.58372 -2.54673 0
M  V30 3959 H 375.946 0.793301 -1.34672 0
M  V30 3960 H 376.681 3.19709 -0.543725 0
M  V30 3961 H 376.466 3.16259 -2.31781 0
M  V30 3962 H 377.956 3.8537 -1.60872 0
M  V30 3963 N 378.394 1.34581 0.820102 0
M  V30 3964 C 379.324 1.29038 1.94606 0
M  V30 3965 C 380.305 0.1673 1.69275 0
M  V30 3966 O 381.49 0.360112 1.90832 0
M  V30 3967 C 378.62 1.04793 3.31113 0
M  V30 3968 C 377.574 2.13597 3.70891 0
M  V30 3969 C 376.9 1.74537 5.05412 0
M  V30 3970 C 378.2 3.55451 3.8269 0
M  V30 3971 H 379.894 2.23248 1.99501 0
M  V30 3972 H 377.44 1.0747 0.958449 0
M  V30 3973 H 379.393 0.995592 4.0947 0
M  V30 3974 H 378.117 0.0702565 3.26524 0
M  V30 3975 H 376.776 2.17905 2.9481 0
M  V30 3976 H 376.424 0.754226 4.97313 0
M  V30 3977 H 376.124 2.47361 5.32997 0
M  V30 3978 H 377.648 1.70803 5.86224 0
M  V30 3979 H 379.062 3.5354 4.51312 0
M  V30 3980 H 377.459 4.26922 4.21732 0
M  V30 3981 H 378.529 3.92587 2.84611 0
M  V30 3982 N 379.872 -1.04064 1.18357 0
M  V30 3983 C 380.819 -2.12077 0.910603 0
M  V30 3984 C 381.789 -1.65421 -0.15 0
M  V30 3985 O 382.974 -1.90797 -0.0103614 0
M  V30 3986 C 380.114 -3.42252 0.442472 0
M  V30 3987 C 379.227 -4.0252 1.5685 0
M  V30 3988 C 378.362 -5.20657 1.05309 0
M  V30 3989 C 377.401 -5.72955 2.1538 0
M  V30 3990 N 376.538 -6.8238 1.65233 0
M  V30 3991 H 381.378 -2.34764 1.83548 0
M  V30 3992 H 378.915 -1.15157 0.915279 0
M  V30 3993 H 380.873 -4.16921 0.152534 0
M  V30 3994 H 379.503 -3.19712 -0.445428 0
M  V30 3995 H 378.555 -3.25178 1.97391 0
M  V30 3996 H 379.867 -4.37362 2.39824 0
M  V30 3997 H 379.021 -6.0244 0.717677 0
M  V30 3998 H 377.76 -4.87318 0.19293 0
M  V30 3999 H 376.765 -4.89793 2.49766 0
M  V30 4000 H 377.99 -6.08337 3.01832 0
M  V30 4001 H 375.936 -6.50917 0.815064 0
M  V30 4002 H 375.853 -7.16286 2.41805 0
M  V30 4003 H 377.121 -7.67788 1.34619 0
M  V30 4004 N 381.35 -0.985608 -1.22978 0
M  V30 4005 C 382.599 -0.652881 -1.90841 0
M  V30 4006 C 382.912 0.817842 -1.77681 0
M  V30 4007 O 384.118 1.26185 -2.40395 0
M  V30 4008 C 382.574 -1.11717 -3.42122 0
M  V30 4009 C 382.182 -2.6126 -3.63933 0
M  V30 4010 C 383.926 -0.85843 -4.1573 0
M  V30 4011 C 381.833 -3.0133 -5.08876 0
M  V30 4012 H 380.763 -0.240491 -0.714619 0
M  V30 4013 H 383.414 -1.1942 -1.39324 0
M  V30 4014 H 381.796 -0.504027 -3.92779 0
M  V30 4015 H 382.97 -3.27858 -3.23799 0
M  V30 4016 H 381.285 -2.84937 -3.03644 0
M  V30 4017 H 383.882 -1.13359 -5.22546 0
M  V30 4018 H 384.225 0.205461 -4.15793 0
M  V30 4019 H 384.758 -1.43341 -3.71077 0
M  V30 4020 H 381.497 -4.06864 -5.13947 0
M  V30 4021 H 381.017 -2.3943 -5.49939 0
M  V30 4022 H 382.696 -2.92224 -5.77247 0
M  V30 4023 N 382.828 1.3818 -0.7579 0
M  V30 4024 C 383.776 2.32277 -0.122482 0
M  V30 4025 C 384.77 1.54238 0.700505 0
M  V30 4026 O 385.976 1.69737 0.599119 0
M  V30 4027 H 382.351 0.751712 -0.0208143 0
M  V30 4028 H 384.322 2.83469 -0.932099 0
M  V30 4029 C 383.071 3.39447 0.753076 0
M  V30 4030 H 382.394 3.99591 0.129184 0
M  V30 4031 H 383.834 4.07684 1.16489 0
M  V30 4032 C 382.293 2.78375 1.8976 0
M  V30 4033 O 382.823 2.68025 2.99208 0
M  V30 4034 N 381.029 2.36121 1.69397 0
M  V30 4035 H 380.576 2.4474 0.803762 0
M  V30 4036 H 380.534 1.95602 2.46145 0
M  V30 4037 N 384.306 0.507319 1.49211 0
M  V30 4038 C 385.253 -0.267728 2.29242 0
M  V30 4039 C 386.223 -0.954609 1.35928 0
M  V30 4040 O 387.408 -0.960046 1.64887 0
M  V30 4041 C 384.548 -1.32243 3.18756 0
M  V30 4042 C 383.661 -0.64669 4.27132 0
M  V30 4043 C 382.796 -1.68238 5.03855 0
M  V30 4044 C 381.835 -0.98885 6.0406 0
M  V30 4045 N 380.972 -1.96903 6.73924 0
M  V30 4046 H 385.812 0.420968 2.95012 0
M  V30 4047 H 383.349 0.219443 1.45454 0
M  V30 4048 H 385.307 -1.94599 3.69036 0
M  V30 4049 H 383.937 -1.97981 2.54958 0
M  V30 4050 H 382.989 0.0902926 3.80293 0
M  V30 4051 H 384.301 -0.101058 4.98698 0
M  V30 4052 H 383.455 -2.38081 5.58034 0
M  V30 4053 H 382.194 -2.26187 4.32077 0
M  V30 4054 H 381.199 -0.276222 5.49106 0
M  V30 4055 H 382.424 -0.415767 6.77826 0
M  V30 4056 H 380.37 -2.53803 6.04913 0
M  V30 4057 H 380.287 -1.47423 7.41487 0
M  V30 4058 H 381.555 -2.66015 7.32705 0
M  V30 4059 N 385.784 -1.5574 0.241426 0
M  V30 4060 C 387.03 -1.99104 -0.385406 0
M  V30 4061 C 387.363 -1.1293 -1.57988 0
M  V30 4062 O 386.638 -0.191449 -1.93555 0
M  V30 4063 C 386.921 -3.51087 -0.800616 0
M  V30 4064 C 386.774 -4.48028 0.398874 0
M  V30 4065 C 388.093 -4.08015 -1.64959 0
M  V30 4066 H 385.212 -0.723848 -0.138614 0
M  V30 4067 H 387.854 -1.86903 0.341642 0
M  V30 4068 H 386.004 -3.61615 -1.4201 0
M  V30 4069 H 387.676 -4.49487 1.03726 0
M  V30 4070 H 385.919 -4.21077 1.04293 0
M  V30 4071 H 386.59 -5.51962 0.0651056 0
M  V30 4072 H 389.066 -4.00555 -1.12672 0
M  V30 4073 H 387.942 -5.14635 -1.90898 0
M  V30 4074 H 388.203 -3.56131 -2.61961 0
M  V30 4075 N 387.262 0.0317525 -1.57568 0
M  V30 4076 C 388.539 0.758366 -1.803 0
M  V30 4077 C 388.919 1.93718 -0.838845 0
M  V30 4078 O 388.267 2.28187 0.119571 0
M  V30 4079 C 388.477 1.19392 -3.27943 0
M  V30 4080 C 389.825 1.61094 -3.92854 0
M  V30 4081 O 390.849 1.28857 -3.32076 0
M  V30 4082 O 389.708 2.20918 -4.99858 0
M  V30 4083 H 386.802 0.366514 -0.741348 0
M  V30 4084 H 389.348 0.00873765 -1.69698 0
M  V30 4085 H 388.12 0.352275 -3.89711 0
M  V30 4086 H 387.743 2.00365 -3.43424 0
M  V30 4087 N 388.74 1.54641 0.303973 0
M  V30 4088 C 389.673 1.80263 1.3993 0
M  V30 4089 C 390.651 0.653657 1.48883 0
M  V30 4090 O 391.835 0.893284 1.6599 0
M  V30 4091 C 388.962 1.9367 2.77866 0
M  V30 4092 C 388.008 3.16078 2.86351 0
M  V30 4093 S 388.841 4.74219 2.4875 0
M  V30 4094 C 389.997 4.90558 3.88721 0
M  V30 4095 H 390.23 2.72886 1.17986 0
M  V30 4096 H 387.763 1.46014 0.501918 0
M  V30 4097 H 389.721 2.0208 3.57315 0
M  V30 4098 H 388.382 1.01991 2.9708 0
M  V30 4099 H 387.575 3.22252 3.87517 0
M  V30 4100 H 387.177 3.06099 2.14893 0
M  V30 4101 H 389.469 4.74398 4.83687 0
M  V30 4102 H 390.412 5.92651 3.87518 0
M  V30 4103 H 390.82 4.18728 3.78585 0
M  V30 4104 N 390.218 -0.567019 1.47046 0
M  V30 4105 C 391.15 -1.68985 1.54844 0
M  V30 4106 C 392.163 -1.56869 0.435431 0
M  V30 4107 O 393.352 -1.64006 0.70457 0
M  V30 4108 C 390.452 -3.07373 1.42742 0
M  V30 4109 C 389.625 -3.45339 2.6844 0
M  V30 4110 C 388.684 -4.62849 2.50314 0
M  V30 4111 O 387.71 -4.67922 3.24095 0
M  V30 4112 N 388.912 -5.58726 1.57499 0
M  V30 4113 H 391.677 -1.62745 2.51663 0
M  V30 4114 H 389.238 -0.753411 1.43302 0
M  V30 4115 H 391.23 -3.83803 1.28365 0
M  V30 4116 H 389.8 -3.07893 0.540445 0
M  V30 4117 H 389.02 -2.58455 2.97648 0
M  V30 4118 H 390.308 -3.67476 3.51907 0
M  V30 4119 H 389.706 -5.57376 0.966876 0
M  V30 4120 H 388.263 -6.34523 1.49078 0
M  V30 4121 N 391.696 -1.35014 -0.812953 0
M  V30 4122 C 392.942 -1.29129 -1.57154 0
M  V30 4123 C 393.297 0.134922 -1.91926 0
M  V30 4124 O 392.59 1.08373 -1.58006 0
M  V30 4125 C 392.784 -2.12524 -2.87347 0
M  V30 4126 C 392.613 -3.6311 -2.65294 0
M  V30 4127 C 391.383 -4.32363 -2.61516 0
M  V30 4128 C 393.581 -4.56897 -2.36114 0
M  V30 4129 N 391.563 -5.68735 -2.31113 0
M  V30 4130 C 392.934 -5.81345 -2.15494 0
M  V30 4131 C 394.989 -4.45706 -2.21925 0
M  V30 4132 C 393.692 -6.95862 -1.82122 0
M  V30 4133 C 395.718 -5.60066 -1.89948 0
M  V30 4134 C 395.08 -6.83539 -1.7016 0
M  V30 4135 H 391.179 -0.527764 -0.577052 0
M  V30 4136 H 393.763 -1.6983 -0.952146 0
M  V30 4137 H 391.934 -1.74104 -3.47192 0
M  V30 4138 H 393.666 -1.98207 -3.5284 0
M  V30 4139 H 390.421 -3.84907 -2.75941 0
M  V30 4140 H 390.845 -6.40694 -2.18724 0
M  V30 4141 H 395.487 -3.50855 -2.35925 0
M  V30 4142 H 393.205 -7.90685 -1.6686 0
M  V30 4143 H 396.791 -5.53357 -1.79687 0
M  V30 4144 H 395.671 -7.70531 -1.45777 0
M  V30 4145 N 393.175 1.03435 -1.18907 0
M  V30 4146 C 394.421 1.77005 -0.989798 0
M  V30 4147 C 394.754 1.88205 0.478816 0
M  V30 4148 O 394.029 1.39481 1.35556 0
M  V30 4149 C 394.312 3.19925 -1.65287 0
M  V30 4150 C 394.165 3.1663 -3.19477 0
M  V30 4151 C 395.484 4.18189 -1.37134 0
M  V30 4152 H 392.603 0.642538 -0.360991 0
M  V30 4153 H 395.245 1.20784 -1.46667 0
M  V30 4154 H 393.395 3.67929 -1.24741 0
M  V30 4155 H 395.067 2.76567 -3.692 0
M  V30 4156 H 393.31 2.54491 -3.51307 0
M  V30 4157 H 393.981 4.1758 -3.61013 0
M  V30 4158 H 396.457 3.78761 -1.72276 0
M  V30 4159 H 395.333 5.16394 -1.86087 0
M  V30 4160 H 395.594 4.41112 -0.295424 0
M  V30 4161 N 394.653 0.992116 1.22453 0
M  V30 4162 C 395.585 0.500024 2.23679 0
M  V30 4163 C 396.598 -0.404463 1.57696 0
M  V30 4164 O 397.787 -0.206722 1.77299 0
M  V30 4165 C 394.887 -0.294711 3.37616 0
M  V30 4166 C 394.06 0.605723 4.33186 0
M  V30 4167 C 393.119 -0.13717 5.26021 0
M  V30 4168 O 392.145 0.477164 5.67196 0
M  V30 4169 N 393.347 -1.4197 5.62872 0
M  V30 4170 H 396.112 1.37045 2.66531 0
M  V30 4171 H 393.673 0.866741 1.36745 0
M  V30 4172 H 395.665 -0.800329 3.96707 0
M  V30 4173 H 394.235 -1.06623 2.93854 0
M  V30 4174 H 393.455 1.29202 3.72425 0
M  V30 4175 H 394.743 1.21896 4.93983 0
M  V30 4176 H 394.141 -1.94015 5.31389 0
M  V30 4177 H 392.698 -1.87052 6.24383 0
M  V30 4178 N 396.131 -1.37776 0.765217 0
M  V30 4179 C 397.377 -2.00145 0.327072 0
M  V30 4180 C 397.71 -1.60607 -1.09175 0
M  V30 4181 O 396.985 -0.849127 -1.74986 0
M  V30 4182 C 397.268 -3.57109 0.46319 0
M  V30 4183 C 397.121 -4.06576 1.92395 0
M  V30 4184 C 398.44 -4.39888 -0.136473 0
M  V30 4185 H 395.559 -0.727113 0.120316 0
M  V30 4186 H 398.201 -1.63549 0.967039 0
M  V30 4187 H 396.351 -3.88414 -0.0816358 0
M  V30 4188 H 398.023 -3.85864 2.52798 0
M  V30 4189 H 396.266 -3.59011 2.43503 0
M  V30 4190 H 396.937 -5.15639 1.97028 0
M  V30 4191 H 399.413 -4.14803 0.328317 0
M  V30 4192 H 398.289 -5.48899 -0.0110582 0
M  V30 4193 H 398.55 -4.24758 -1.22608 0
M  V30 4194 N 397.609 -0.515225 -1.4894 0
M  V30 4195 C 398.539 0.244628 -2.32215 0
M  V30 4196 C 399.52 0.949136 -1.41157 0
M  V30 4197 O 400.705 0.937783 -1.70057 0
M  V30 4198 C 397.835 1.30096 -3.22013 0
M  V30 4199 C 396.789 0.715486 -4.21977 0
M  V30 4200 C 396.115 1.87339 -5.00808 0
M  V30 4201 C 397.415 -0.302982 -5.2142 0
M  V30 4202 H 399.109 -0.450501 -2.95991 0
M  V30 4203 H 396.655 -0.218098 -1.42339 0
M  V30 4204 H 398.608 1.84037 -3.79089 0
M  V30 4205 H 397.332 2.02547 -2.56207 0
M  V30 4206 H 395.991 0.197715 -3.66066 0
M  V30 4207 H 395.639 2.58592 -4.31438 0
M  V30 4208 H 395.339 1.48764 -5.68457 0
M  V30 4209 H 396.863 2.41686 -5.60732 0
M  V30 4210 H 398.277 0.148802 -5.73107 0
M  V30 4211 H 396.674 -0.60532 -5.97039 0
M  V30 4212 H 397.744 -1.21395 -4.69459 0
M  V30 4213 N 399.087 1.5561 -0.249682 0
M  V30 4214 C 400.05 2.20217 0.635394 0
M  V30 4215 C 401.05 1.17227 1.10066 0
M  V30 4216 O 402.24 1.42292 1.00492 0
M  V30 4217 C 399.372 2.84794 1.87363 0
M  V30 4218 H 400.565 2.99814 0.0716752 0
M  V30 4219 H 398.118 1.563 -0.000153234 0
M  V30 4220 H 398.853 2.09142 2.47851 0
M  V30 4221 H 398.638 3.60241 1.5482 0
M  V30 4222 H 400.128 3.3423 2.5036 0
M  V30 4223 N 400.565 -0.0233959 1.57583 0
M  V30 4224 C 401.475 -1.03907 2.10334 0
M  V30 4225 C 402.491 -1.39257 1.04323 0
M  V30 4226 O 403.667 -1.48462 1.36091 0
M  V30 4227 C 400.732 -2.31938 2.57693 0
M  V30 4228 C 399.793 -2.03117 3.78209 0
M  V30 4229 C 399.026 -3.25043 4.233 0
M  V30 4230 O 399.249 -4.35916 3.67876 0
M  V30 4231 O 398.183 -3.10411 5.15683 0
M  V30 4232 H 402.009 -0.620748 2.97288 0
M  V30 4233 H 399.594 -0.240743 1.47448 0
M  V30 4234 H 401.476 -3.07196 2.88458 0
M  V30 4235 H 400.151 -2.73055 1.73847 0
M  V30 4236 H 399.058 -1.25408 3.52454 0
M  V30 4237 H 400.391 -1.66852 4.63056 0
M  V30 4238 N 402.043 -1.548 -0.295768 0
M  V30 4239 C 403.291 -1.73985 -1.02828 0
M  V30 4240 C 403.612 -0.531406 -1.87619 0
M  V30 4241 O 402.882 0.454221 -1.90561 0
M  V30 4242 H 401.462 -0.641556 -0.382642 0
M  V30 4243 H 404.124 -1.92163 -0.325489 0
M  V30 4244 H 403.22 -2.63129 -1.67838 0
M  V30 4245 N 403.521 0.559213 -1.47345 0
M  V30 4246 C 404.767 1.31614 -1.55079 0
M  V30 4247 C 405.122 1.91257 -0.209422 0
M  V30 4248 O 404.415 1.74796 0.784656 0
M  V30 4249 C 404.609 2.44853 -2.6035 0
M  V30 4250 C 404.438 1.96305 -4.04591 0
M  V30 4251 C 403.208 1.8024 -4.72061 0
M  V30 4252 C 405.406 1.50872 -4.91673 0
M  V30 4253 N 403.388 1.26011 -6.00828 0
M  V30 4254 C 404.759 1.08395 -6.10451 0
M  V30 4255 C 406.814 1.38905 -4.78132 0
M  V30 4256 C 405.517 0.551399 -7.17183 0
M  V30 4257 C 407.543 0.870518 -5.84958 0
M  V30 4258 C 406.905 0.455661 -7.02925 0
M  V30 4259 H 403.004 0.473712 -0.62219 0
M  V30 4260 H 405.588 0.634103 -1.84085 0
M  V30 4261 H 403.759 3.10589 -2.33215 0
M  V30 4262 H 405.491 3.11849 -2.57938 0
M  V30 4263 H 402.246 2.02895 -4.27937 0
M  V30 4264 H 402.67 1.00991 -6.69425 0
M  V30 4265 H 407.312 1.69591 -3.87297 0
M  V30 4266 H 405.03 0.232159 -8.07766 0
M  V30 4267 H 408.616 0.781507 -5.76527 0
M  V30 4268 H 407.496 0.0606414 -7.84177 0
M  V30 4269 N 404.999 1.35443 0.805782 0
M  V30 4270 C 405.962 1.28301 1.89925 0
M  V30 4271 C 406.962 0.194285 1.59622 0
M  V30 4272 O 408.152 0.448036 1.6834 0
M  V30 4273 C 405.284 0.984997 3.2636 0
M  V30 4274 H 406.477 2.2553 1.97677 0
M  V30 4275 H 404.03 1.19979 1.00173 0
M  V30 4276 H 404.765 0.016603 3.24296 0
M  V30 4277 H 404.55 1.77269 3.4974 0
M  V30 4278 H 406.04 0.960651 4.064 0
M  V30 4279 N 406.477 -1.02803 1.19454 0
M  V30 4280 C 407.705 -1.79841 1.02297 0
M  V30 4281 C 408.12 -1.83879 -0.428259 0
M  V30 4282 O 407.477 -1.28345 -1.29745 0
M  V30 4283 C 407.528 -3.24852 1.58598 0
M  V30 4284 O 407.249 -3.21097 2.98041 0
M  V30 4285 C 408.75 -4.18485 1.46236 0
M  V30 4286 H 405.97 -0.565936 0.360496 0
M  V30 4287 H 408.514 -1.2948 1.58288 0
M  V30 4288 H 406.669 -3.72401 1.06753 0
M  V30 4289 H 407.083 -4.12033 3.24545 0
M  V30 4290 H 408.557 -5.18121 1.90407 0
M  V30 4291 H 409.034 -4.37254 0.41301 0
M  V30 4292 H 409.64 -3.76811 1.97215 0
M  V30 4293 N 407.956 -0.998596 -1.21925 0
M  V30 4294 C 409.367 -0.711939 -1.72593 0
M  V30 4295 C 409.718 0.770842 -1.80423 0
M  V30 4296 O 408.843 1.60237 -1.4544 0
M  V30 4297 C 409.438 -1.28567 -3.13458 0
M  V30 4298 C 407.997 -1.04828 -3.61508 0
M  V30 4299 C 407.144 -1.4024 -2.39224 0
M  V30 4300 H 410.095 -1.17027 -1.07193 0
M  V30 4301 H 410.116 -0.667098 -3.74607 0
M  V30 4302 H 409.628 -2.36486 -3.07727 0
M  V30 4303 H 407.729 0.0140383 -3.72597 0
M  V30 4304 H 407.842 -1.71566 -4.47328 0
M  V30 4305 H 406.206 -0.821077 -2.41103 0
M  V30 4306 H 406.989 -2.49176 -2.36149 0
M  V30 4307 N 409.434 1.37368 -0.772513 0
M  V30 4308 C 410.364 2.32856 -0.173304 0
M  V30 4309 C 411.345 1.55818 0.682262 0
M  V30 4310 O 412.53 1.84052 0.619566 0
M  V30 4311 C 409.66 3.40048 0.706007 0
M  V30 4312 C 408.614 4.27973 -0.0483144 0
M  V30 4313 C 407.94 5.26184 0.950491 0
M  V30 4314 C 409.24 5.07665 -1.22776 0
M  V30 4315 H 410.934 2.83217 -0.971002 0
M  V30 4316 H 408.48 1.3617 -0.468377 0
M  V30 4317 H 410.433 4.05827 1.13501 0
M  V30 4318 H 409.157 2.88214 1.53623 0
M  V30 4319 H 407.816 3.63726 -0.458107 0
M  V30 4320 H 407.464 4.7063 1.77529 0
M  V30 4321 H 407.164 5.85872 0.450314 0
M  V30 4322 H 408.688 5.94838 1.37842 0
M  V30 4323 H 410.102 5.66578 -0.875366 0
M  V30 4324 H 408.499 5.76681 -1.66007 0
M  V30 4325 H 409.569 4.40294 -2.03149 0
M  V30 4326 N 410.912 0.523116 1.48665 0
M  V30 4327 C 411.86 -0.256859 2.31177 0
M  V30 4328 C 412.854 -0.94199 1.40794 0
M  V30 4329 O 414.06 -0.867157 1.57735 0
M  V30 4330 H 410.435 -0.1017 0.745091 0
M  V30 4331 H 412.406 0.458739 2.94853 0
M  V30 4332 C 411.155 -1.29503 3.22683 0
M  V30 4333 H 410.478 -0.777248 3.92172 0
M  V30 4334 H 411.918 -1.81233 3.83315 0
M  V30 4335 C 410.377 -2.32501 2.43813 0
M  V30 4336 O 410.907 -3.3881 2.15803 0
M  V30 4337 N 409.113 -2.05538 2.05432 0
M  V30 4338 H 408.66 -1.19104 2.28412 0
M  V30 4339 H 408.618 -2.74676 1.52973 0
M  V30 4340 N 412.39 -1.55475 0.257931 0
M  V30 4341 C 413.638 -1.98813 -0.363009 0
M  V30 4342 C 413.959 -1.14757 -1.57657 0
M  V30 4343 O 413.229 -0.232956 -1.9451 0
M  V30 4344 H 411.809 -0.734308 -0.137113 0
M  V30 4345 H 414.471 -1.9156 0.359281 0
M  V30 4346 H 413.567 -3.04941 -0.664634 0
M  V30 4347 N 413.868 0.0150385 -1.57593 0
M  V30 4348 C 415.115 0.703001 -1.89906 0
M  V30 4349 C 415.443 1.74604 -0.856944 0
M  V30 4350 O 414.698 1.95197 0.140287 0
M  V30 4351 C 414.997 1.39686 -3.28972 0
M  V30 4352 C 414.663 0.488457 -4.48246 0
M  V30 4353 C 413.325 0.2383 -4.8061 0
M  V30 4354 C 415.677 -0.137881 -5.21018 0
M  V30 4355 C 413.005 -0.646738 -5.83125 0
M  V30 4356 C 415.357 -1.0107 -6.24474 0
M  V30 4357 C 414.021 -1.27019 -6.55303 0
M  V30 4358 H 413.291 0.257246 -0.694914 0
M  V30 4359 H 415.938 -0.037259 -1.91464 0
M  V30 4360 H 414.243 2.21079 -3.23468 0
M  V30 4361 H 415.94 1.93495 -3.51227 0
M  V30 4362 H 412.53 0.693593 -4.22951 0
M  V30 4363 H 416.714 0.0423953 -4.96282 0
M  V30 4364 H 411.97 -0.855937 -6.05379 0
M  V30 4365 H 416.144 -1.50247 -6.79999 0
M  V30 4366 H 413.771 -1.95769 -7.3456 0
M  V30 4367 N 415.346 1.54954 0.287554 0
M  V30 4368 C 416.279 1.81737 1.3801 0
M  V30 4369 C 417.257 0.669412 1.48181 0
M  V30 4370 O 418.441 0.910839 1.65033 0
M  V30 4371 C 415.568 1.96606 2.75796 0
M  V30 4372 C 414.614 3.19098 2.82982 0
M  V30 4373 S 415.447 4.7683 2.43707 0
M  V30 4374 C 416.603 4.94653 3.83496 0
M  V30 4375 H 416.836 2.74122 1.15085 0
M  V30 4376 H 414.369 1.46538 0.486403 0
M  V30 4377 H 416.327 2.05858 3.55152 0
M  V30 4378 H 414.988 1.05136 2.95982 0
M  V30 4379 H 414.181 3.26344 3.84077 0
M  V30 4380 H 413.783 3.08361 2.11635 0
M  V30 4381 H 416.075 4.79502 4.78628 0
M  V30 4382 H 417.018 5.96728 3.8121 0
M  V30 4383 H 417.426 4.2272 3.74123 0
M  V30 4384 N 416.824 -0.551391 1.4764 0
M  V30 4385 C 418.24 -0.877887 1.33287 0
M  V30 4386 C 418.44 -1.98817 0.327721 0
M  V30 4387 O 417.496 -2.51171 -0.258695 0
M  V30 4388 C 418.809 -1.26563 2.72768 0
M  V30 4389 C 420.357 -1.37673 2.81097 0
M  V30 4390 C 420.832 -1.79799 4.21232 0
M  V30 4391 N 422.323 -1.8694 4.23802 0
M  V30 4392 C 423.058 -2.20876 5.29151 0
M  V30 4393 N 422.554 -2.53386 6.448 0
M  V30 4394 N 424.347 -2.217 5.16532 0
M  V30 4395 H 416.498 0.18153 2.11623 0
M  V30 4396 H 418.761 0.0185514 0.947818 0
M  V30 4397 H 418.467 -0.523591 3.47781 0
M  V30 4398 H 418.341 -2.22052 3.04915 0
M  V30 4399 H 420.728 -2.10956 2.06353 0
M  V30 4400 H 420.809 -0.40357 2.52596 0
M  V30 4401 H 420.453 -1.07083 4.96483 0
M  V30 4402 H 420.383 -2.78128 4.4716 0
M  V30 4403 H 422.874 -1.64179 3.40373 0
M  V30 4404 H 423.187 -2.78325 7.20941 0
M  V30 4405 H 421.532 -2.50953 6.48111 0
M  V30 4406 H 424.723 -1.95745 4.25207 0
M  V30 4407 H 424.896 -2.47818 5.98741 0
M  V30 4408 N 418.302 -1.35869 -0.798587 0
M  V30 4409 C 419.212 -1.31578 -1.94228 0
M  V30 4410 C 420.228 -0.21939 -1.72611 0
M  V30 4411 O 421.404 -0.450167 -1.96305 0
M  V30 4412 C 418.469 -1.09528 -3.28944 0
M  V30 4413 C 417.53 -2.28556 -3.63402 0
M  V30 4414 C 416.763 -2.07549 -4.9169 0
M  V30 4415 O 416.986 -1.046 -5.60727 0
M  V30 4416 O 415.92 -2.95106 -5.24591 0
M  V30 4417 H 419.746 -2.27847 -2.00796 0
M  V30 4418 H 417.331 -1.16322 -0.937526 0
M  V30 4419 H 419.213 -0.991127 -4.09579 0
M  V30 4420 H 417.888 -0.16315 -3.23289 0
M  V30 4421 H 416.795 -2.44538 -2.83112 0
M  V30 4422 H 418.128 -3.20244 -3.73771 0
M  V30 4423 N 419.78 1.02168 -1.19998 0
M  V30 4424 C 421.196 1.27969 -0.953737 0
M  V30 4425 C 421.396 1.98079 0.369703 0
M  V30 4426 O 420.452 2.27306 1.09947 0
M  V30 4427 C 421.765 2.11971 -2.13281 0
M  V30 4428 C 423.313 2.25255 -2.17323 0
M  V30 4429 C 423.788 3.12632 -3.34702 0
M  V30 4430 N 425.279 3.2022 -3.34684 0
M  V30 4431 C 426.014 3.88039 -4.22153 0
M  V30 4432 N 425.51 4.58027 -5.19791 0
M  V30 4433 N 427.303 3.84511 -4.10009 0
M  V30 4434 H 419.454 0.550794 -2.05134 0
M  V30 4435 H 421.717 0.305683 -0.897364 0
M  V30 4436 H 421.423 1.67785 -3.09097 0
M  V30 4437 H 421.297 3.12699 -2.10949 0
M  V30 4438 H 423.684 2.68667 -1.22073 0
M  V30 4439 H 423.765 1.24053 -2.23706 0
M  V30 4440 H 423.409 2.69926 -4.30235 0
M  V30 4441 H 423.339 4.13909 -3.25556 0
M  V30 4442 H 425.83 2.70382 -2.64012 0
M  V30 4443 H 426.143 5.07429 -5.82868 0
M  V30 4444 H 424.488 4.56869 -5.23733 0
M  V30 4445 H 427.679 3.28978 -3.33003 0
M  V30 4446 H 427.852 4.3709 -4.78389 0
M  V30 4447 N 421.258 1.00505 1.21394 0
M  V30 4448 C 422.168 0.574806 2.27449 0
M  V30 4449 C 423.184 -0.382206 1.6975 0
M  V30 4450 O 424.36 -0.246027 1.99892 0
M  V30 4451 C 421.425 -0.0917414 3.46579 0
M  V30 4452 C 420.486 0.909758 4.1955 0
M  V30 4453 C 419.719 0.274924 5.32991 0
M  V30 4454 O 419.942 -0.928254 5.62796 0
M  V30 4455 O 418.876 0.985877 5.93771 0
M  V30 4456 H 422.702 1.45744 2.66444 0
M  V30 4457 H 420.287 0.773923 1.27792 0
M  V30 4458 H 422.169 -0.464551 4.18832 0
M  V30 4459 H 420.844 -0.948755 3.09484 0
M  V30 4460 H 419.751 1.33372 3.49518 0
M  V30 4461 H 421.084 1.73636 4.60555 0
M  V30 4462 N 422.737 -1.36956 0.779787 0
M  V30 4463 C 423.967 -2.03459 0.358877 0
M  V30 4464 C 424.375 -1.58939 -1.02641 0
M  V30 4465 O 423.718 -0.769777 -1.66794 0
M  V30 4466 C 423.78 -3.5796 0.332393 0
M  V30 4467 C 423.444 -4.25644 1.66362 0
M  V30 4468 C 424.441 -4.49205 2.61746 0
M  V30 4469 C 422.126 -4.63313 1.94027 0
M  V30 4470 C 424.12 -5.09503 3.82996 0
M  V30 4471 C 421.807 -5.2333 3.15546 0
M  V30 4472 C 422.805 -5.46363 4.0985 0
M  V30 4473 O 422.493 -6.05122 5.29228 0
M  V30 4474 H 422.225 -0.659767 0.147254 0
M  V30 4475 H 424.779 -1.76111 1.05708 0
M  V30 4476 H 423.009 -3.84388 -0.422237 0
M  V30 4477 H 424.698 -4.05852 -0.0625389 0
M  V30 4478 H 425.464 -4.20508 2.41657 0
M  V30 4479 H 421.343 -4.44715 1.21448 0
M  V30 4480 H 424.887 -5.27397 4.56617 0
M  V30 4481 H 420.784 -5.51451 3.35517 0
M  V30 4482 H 421.552 -6.23595 5.30161 0
M  V30 4483 N 424.215 -0.530993 -1.48385 0
M  V30 4484 C 425.145 0.219985 -2.32461 0
M  V30 4485 C 426.126 0.934111 -1.42156 0
M  V30 4486 O 427.311 0.919694 -1.71042 0
M  V30 4487 C 424.441 1.26674 -3.23375 0
M  V30 4488 C 423.395 0.67069 -4.22712 0
M  V30 4489 C 422.721 1.82017 -5.02766 0
M  V30 4490 C 424.021 -0.358268 -5.2107 0
M  V30 4491 H 425.715 -0.48187 -2.95497 0
M  V30 4492 H 423.261 -0.233182 -1.42099 0
M  V30 4493 H 425.214 1.80006 -3.81019 0
M  V30 4494 H 423.938 1.99818 -2.58341 0
M  V30 4495 H 422.597 0.158878 -3.66256 0
M  V30 4496 H 422.245 2.54002 -4.34157 0
M  V30 4497 H 421.945 1.42727 -5.70003 0
M  V30 4498 H 423.469 2.35725 -5.63264 0
M  V30 4499 H 424.883 0.0880081 -5.73232 0
M  V30 4500 H 423.28 -0.66861 -5.96364 0
M  V30 4501 H 424.35 -1.26367 -4.68145 0
M  V30 4502 N 425.693 1.55336 -0.266172 0
M  V30 4503 C 426.625 2.19544 0.658247 0
M  V30 4504 C 427.638 1.17746 1.12427 0
M  V30 4505 O 428.827 1.44517 1.04772 0
M  V30 4506 C 425.927 2.80032 1.9088 0
M  V30 4507 C 425.1 4.07436 1.59106 0
M  V30 4508 C 424.159 4.52056 2.69317 0
M  V30 4509 O 423.185 5.18023 2.35883 0
M  V30 4510 N 424.387 4.21448 3.99201 0
M  V30 4511 H 427.152 2.99503 0.108754 0
M  V30 4512 H 424.713 1.61667 -0.0869059 0
M  V30 4513 H 426.705 3.06831 2.63888 0
M  V30 4514 H 425.275 2.04119 2.36758 0
M  V30 4515 H 424.495 3.88021 0.695243 0
M  V30 4516 H 425.783 4.90462 1.35367 0
M  V30 4517 H 425.181 3.68528 4.29189 0
M  V30 4518 H 423.738 4.53039 4.68614 0
M  V30 4519 N 427.171 -0.0066808 1.57599 0
M  V30 4520 C 428.411 -0.697501 1.92131 0
M  V30 4521 C 428.775 -1.71306 0.867071 0
M  V30 4522 O 429.976 -2.45377 1.09743 0
M  V30 4523 C 428.247 -1.32978 3.3174 0
M  V30 4524 S 429.806 -2.04665 3.88146 0
M  V30 4525 H 426.624 -0.230555 0.672581 0
M  V30 4526 H 429.226 0.0484026 1.9544 0
M  V30 4527 H 427.93 -0.57772 4.06313 0
M  V30 4528 H 427.461 -2.11376 3.31789 0
M  V30 4529 H 429.476 -3.32097 3.68682 0
M  V30 4530 N 428.649 -1.55105 -0.279332 0
M  V30 4531 C 429.579 -1.90557 -1.34945 0
M  V30 4532 C 430.56 -0.766738 -1.51839 0
M  V30 4533 O 431.745 -1.02434 -1.64988 0
M  V30 4534 C 428.875 -2.17193 -2.71006 0
M  V30 4535 C 427.829 -3.33021 -2.68851 0
M  V30 4536 C 427.155 -3.45123 -4.08405 0
M  V30 4537 C 428.455 -4.69578 -2.28678 0
M  V30 4538 H 430.149 -2.80188 -1.05522 0
M  V30 4539 H 427.695 -1.34811 -0.506173 0
M  V30 4540 H 429.648 -2.40581 -3.45975 0
M  V30 4541 H 428.372 -1.24355 -3.01999 0
M  V30 4542 H 427.031 -3.0959 -1.9634 0
M  V30 4543 H 426.679 -2.49762 -4.3661 0
M  V30 4544 H 426.379 -4.22995 -4.07859 0
M  V30 4545 H 427.903 -3.70796 -4.85121 0
M  V30 4546 H 429.317 -4.92553 -2.93368 0
M  V30 4547 H 427.714 -5.5032 -2.39306 0
M  V30 4548 H 428.784 -4.68828 -1.23807 0
M  V30 4549 N 430.127 0.543554 -1.4793 0
M  V30 4550 C 431.077 1.64527 -1.57844 0
M  V30 4551 C 432.061 1.54869 -0.436408 0
M  V30 4552 O 433.253 1.63119 -0.687101 0
M  V30 4553 C 430.382 3.03281 -1.6086 0
M  V30 4554 C 429.468 3.18093 -2.80495 0
M  V30 4555 N 429.859 3.02923 -4.05057 0
M  V30 4556 C 428.157 3.49121 -2.77543 0
M  V30 4557 C 428.858 3.20791 -4.85251 0
M  V30 4558 N 427.834 3.47749 -4.17818 0
M  V30 4559 H 431.636 1.51388 -2.5191 0
M  V30 4560 H 429.15 0.748671 -1.44113 0
M  V30 4561 H 431.147 3.82403 -1.66054 0
M  V30 4562 H 429.807 3.17521 -0.678996 0
M  V30 4563 H 430.818 2.79966 -4.35705 0
M  V30 4564 H 427.495 3.69804 -1.93781 0
M  V30 4565 H 428.885 3.13915 -5.9406 0
M  V30 4566 N 431.605 1.3629 0.791371 0
M  V30 4567 C 432.852 1.30412 1.54916 0
M  V30 4568 C 433.18 -0.117162 1.94147 0
M  V30 4569 O 432.435 -1.08599 1.62803 0
M  V30 4570 C 432.734 2.17068 2.8393 0
M  V30 4571 C 432.4 3.65645 2.63846 0
M  V30 4572 C 431.062 4.0614 2.58077 0
M  V30 4573 C 433.414 4.59855 2.45322 0
M  V30 4574 C 430.742 5.3899 2.31748 0
M  V30 4575 C 433.094 5.9292 2.2052 0
M  V30 4576 C 431.758 6.32542 2.13183 0
M  V30 4577 H 431.028 0.47721 0.566879 0
M  V30 4578 H 433.675 1.68325 0.913172 0
M  V30 4579 H 431.98 1.72085 3.51986 0
M  V30 4580 H 433.677 2.09846 3.4171 0
M  V30 4581 H 430.267 3.33518 2.69191 0
M  V30 4582 H 434.451 4.29443 2.48782 0
M  V30 4583 H 429.707 5.68672 2.24548 0
M  V30 4584 H 433.881 6.65487 2.05182 0
M  V30 4585 H 431.508 7.35412 1.92544 0
M  V30 4586 N 433.083 -1.0153 1.20538 0
M  V30 4587 C 434.36 -1.72327 0.925343 0
M  V30 4588 C 434.74 -2.03383 -0.565547 0
M  V30 4589 O 434.088 -1.69934 -1.52757 0
M  V30 4590 C 434.298 -2.9902 1.79967 0
M  V30 4591 C 435.646 -3.72258 2.04228 0
M  V30 4592 O 436.67 -3.08979 1.77231 0
M  V30 4593 O 435.529 -4.86053 2.4983 0
M  V30 4594 H 432.623 -0.751099 0.346092 0
M  V30 4595 H 435.169 -1.07366 1.31417 0
M  V30 4596 H 433.941 -2.72402 2.80915 0
M  V30 4597 H 433.564 -3.71721 1.41099 0
M  V30 4598 N 434.561 -1.01147 -1.20859 0
M  V30 4599 C 435.801 -0.706331 -1.91808 0
M  V30 4600 C 436.165 0.749736 -1.76757 0
M  V30 4601 O 437.366 1.16716 -2.42138 0
M  V30 4602 C 435.637 -1.12371 -3.39275 0
M  V30 4603 S 437.196 -0.939764 -4.28619 0
M  V30 4604 H 434.014 -0.257665 -0.662669 0
M  V30 4605 H 436.616 -1.29766 -1.46223 0
M  V30 4606 H 435.32 -2.17943 -3.47749 0
M  V30 4607 H 434.851 -0.524952 -3.89882 0
M  V30 4608 H 436.866 0.159556 -4.95943 0
M  V30 4609 N 436.039 1.36541 -0.78704 0
M  V30 4610 C 436.969 2.32659 -0.197992 0
M  V30 4611 C 437.95 1.56533 0.665697 0
M  V30 4612 O 439.135 1.84698 0.60001 0
M  V30 4613 C 436.265 3.40778 0.669901 0
M  V30 4614 C 435.219 4.27897 -0.0937039 0
M  V30 4615 C 434.545 5.27163 0.894629 0
M  V30 4616 C 435.845 5.06334 -1.28154 0
M  V30 4617 H 437.539 2.82171 -1.00099 0
M  V30 4618 H 435.085 1.35665 -0.482793 0
M  V30 4619 H 437.038 4.07008 1.09191 0
M  V30 4620 H 435.762 2.89827 1.50558 0
M  V30 4621 H 434.421 3.6322 -0.49666 0
M  V30 4622 H 434.069 4.72486 1.72527 0
M  V30 4623 H 433.769 5.86317 0.388149 0
M  V30 4624 H 435.293 5.96266 1.31525 0
M  V30 4625 H 436.707 5.65617 -0.93541 0
M  V30 4626 H 435.104 5.74888 -1.72115 0
M  V30 4627 H 436.174 4.38114 -2.07807 0
M  V30 4628 N 437.518 0.538854 1.48102 0
M  V30 4629 C 438.448 -0.207654 2.32575 0
M  V30 4630 C 439.429 -0.926559 1.4265 0
M  V30 4631 O 440.614 -0.91061 1.71527 0
M  V30 4632 C 437.744 -1.24957 3.24042 0
M  V30 4633 C 436.698 -0.648263 4.23062 0
M  V30 4634 C 436.024 -1.79348 5.03725 0
M  V30 4635 C 437.324 0.385897 5.20872 0
M  V30 4636 H 439.018 0.497534 2.95237 0
M  V30 4637 H 436.564 0.240715 1.41974 0
M  V30 4638 H 438.517 -1.77983 3.81969 0
M  V30 4639 H 437.241 -1.98446 2.59397 0
M  V30 4640 H 435.9 -0.139452 3.66335 0
M  V30 4641 H 435.548 -2.51696 4.35498 0
M  V30 4642 H 435.248 -1.39702 5.70751 0
M  V30 4643 H 436.772 -2.32735 5.64506 0
M  V30 4644 H 438.186 -0.057607 5.73271 0
M  V30 4645 H 436.583 0.700227 5.96001 0
M  V30 4646 H 437.653 1.28848 4.67468 0
M  V30 4647 N 438.996 -1.55193 0.274407 0
M  V30 4648 C 440.273 -1.91584 -0.394331 0
M  V30 4649 C 440.653 -1.19858 -1.73774 0
M  V30 4650 O 440.001 -0.3252 -2.26174 0
M  V30 4651 C 440.211 -3.4487 -0.535311 0
M  V30 4652 C 441.559 -4.16636 -0.818534 0
M  V30 4653 O 442.583 -3.5076 -0.620146 0
M  V30 4654 O 441.442 -5.33209 -1.19792 0
M  V30 4655 H 438.536 -0.798349 -0.215794 0
M  V30 4656 H 441.082 -1.66646 0.320507 0
M  V30 4657 H 439.854 -3.89145 0.410141 0
M  V30 4658 H 439.477 -3.75759 -1.29964 0
M  V30 4659 N 440.474 -0.00167713 -1.576 0
M  V30 4660 C 441.722 0.681471 -1.90264 0
M  V30 4661 C 442.043 1.7422 -0.875924 0
M  V30 4662 O 441.313 1.95709 0.0864412 0
M  V30 4663 H 439.893 0.254696 -0.702239 0
M  V30 4664 H 442.555 -0.0429996 -1.94853 0
M  V30 4665 H 441.651 1.15166 -2.90075 0
M  V30 4666 N 441.952 1.55251 0.271103 0
M  V30 4667 C 443.2 1.75599 1.00047 0
M  V30 4668 C 443.521 0.561188 1.8675 0
M  V30 4669 O 442.791 -0.423846 1.9126 0
M  V30 4670 H 441.371 0.647562 0.372387 0
M  V30 4671 H 444.033 1.92656 0.294876 0
M  V30 4672 H 443.129 2.65766 1.6363 0
M  V30 4673 N 443.43 -0.535701 1.48216 0
M  V30 4674 C 444.676 -1.29375 1.56173 0
M  V30 4675 C 445.009 -1.92804 0.232429 0
M  V30 4676 O 444.284 -1.78992 -0.761048 0
M  V30 4677 C 444.567 -2.38747 2.69577 0
M  V30 4678 C 444.42 -1.80046 4.12193 0
M  V30 4679 C 445.739 -3.40551 2.78771 0
M  V30 4680 H 442.858 -0.469027 0.568491 0
M  V30 4681 H 445.5 -0.597358 1.80365 0
M  V30 4682 H 443.65 -2.98147 2.4908 0
M  V30 4683 H 445.322 -1.24742 4.44114 0
M  V30 4684 H 443.565 -1.10609 4.19462 0
M  V30 4685 H 444.236 -2.59212 4.87353 0
M  V30 4686 H 446.712 -2.91099 2.97322 0
M  V30 4687 H 445.588 -4.1448 3.59857 0
M  V30 4688 H 445.849 -4.00746 1.86696 0
M  V30 4689 N 444.908 -1.36708 -0.784132 0
M  V30 4690 C 446.157 -1.30559 -1.53744 0
M  V30 4691 C 446.47 0.111374 -1.95283 0
M  V30 4692 O 447.676 0.29527 -2.6989 0
M  V30 4693 C 446.132 -2.29098 -2.77565 0
M  V30 4694 C 445.74 -3.76258 -2.43174 0
M  V30 4695 C 447.484 -2.31936 -3.55536 0
M  V30 4696 C 445.391 -4.6656 -3.63422 0
M  V30 4697 H 444.321 -0.48518 -0.577162 0
M  V30 4698 H 446.972 -1.62101 -0.859981 0
M  V30 4699 H 445.354 -1.90557 -3.47137 0
M  V30 4700 H 446.528 -4.23565 -1.81465 0
M  V30 4701 H 444.843 -3.76246 -1.78403 0
M  V30 4702 H 447.44 -2.9661 -4.44889 0
M  V30 4703 H 447.783 -1.3294 -3.94503 0
M  V30 4704 H 448.316 -2.6912 -2.92949 0
M  V30 4705 H 445.055 -5.66638 -3.29547 0
M  V30 4706 H 444.575 -4.23966 -4.24279 0
M  V30 4707 H 446.254 -4.8309 -4.30387 0
M  V30 4708 N 446.386 1.0089 -1.21074 0
M  V30 4709 C 447.334 2.11707 -0.963476 0
M  V30 4710 C 448.328 1.69172 0.0879032 0
M  V30 4711 O 449.534 1.79889 -0.0631415 0
M  V30 4712 H 445.909 0.692026 -0.294287 0
M  V30 4713 H 447.88 2.29743 -1.90422 0
M  V30 4714 C 446.629 3.43473 -0.540509 0
M  V30 4715 H 445.952 3.76634 -1.34114 0
M  V30 4716 H 447.392 4.22044 -0.406777 0
M  V30 4717 C 445.851 3.2849 0.748079 0
M  V30 4718 O 446.381 3.58883 1.8046 0
M  V30 4719 N 444.587 2.81715 0.713081 0
M  V30 4720 H 444.134 2.5718 -0.146973 0
M  V30 4721 H 444.092 2.72071 1.57558 0
M  V30 4722 N 447.864 1.01787 1.20321 0
M  V30 4723 C 448.794 0.609625 2.25401 0
M  V30 4724 C 449.775 -0.375951 1.65893 0
M  V30 4725 O 450.96 -0.261101 1.92437 0
M  V30 4726 C 448.09 -0.0515995 3.47262 0
M  V30 4727 C 447.044 0.855095 4.19371 0
M  V30 4728 C 446.37 0.0595757 5.34667 0
M  V30 4729 C 447.67 2.16374 4.75373 0
M  V30 4730 H 449.364 1.48803 2.59804 0
M  V30 4731 H 446.91 0.716934 1.24884 0
M  V30 4732 H 448.863 -0.348764 4.19954 0
M  V30 4733 H 447.587 -0.964726 3.12027 0
M  V30 4734 H 446.246 1.13628 3.48546 0
M  V30 4735 H 445.894 -0.85524 4.95676 0
M  V30 4736 H 445.594 0.663406 5.83843 0
M  V30 4737 H 447.118 -0.231105 6.10162 0
M  V30 4738 H 448.532 1.92885 5.39878 0
M  V30 4739 H 446.929 2.71853 5.34991 0
M  V30 4740 H 447.999 2.82589 3.94045 0
M  V30 4741 N 449.342 -1.36122 0.79427 0
M  V30 4742 C 450.567 -2.03891 0.379871 0
M  V30 4743 C 450.992 -1.59488 -0.997251 0
M  V30 4744 O 450.35 -0.765652 -1.64339 0
M  V30 4745 C 450.398 -3.57687 0.457442 0
M  V30 4746 O 449.502 -4.08931 -0.5338 0
M  V30 4747 H 448.843 -0.6443 0.160541 0
M  V30 4748 H 451.373 -1.73976 1.07673 0
M  V30 4749 H 451.383 -4.06721 0.322792 0
M  V30 4750 H 450.058 -3.89357 1.46199 0
M  V30 4751 H 448.635 -3.71154 -0.360409 0
M  V30 4752 N 450.82 -0.546701 -1.47814 0
M  V30 4753 C 452.066 -0.0187684 -2.02791 0
M  V30 4754 C 452.399 1.32338 -1.42128 0
M  V30 4755 O 451.674 1.85867 -0.573023 0
M  V30 4756 C 451.957 0.0854985 -3.59998 0
M  V30 4757 C 451.81 -1.283 -4.31114 0
M  V30 4758 C 453.129 0.80412 -4.32691 0
M  V30 4759 H 450.248 -0.0082946 -0.736953 0
M  V30 4760 H 452.89 -0.706962 -1.76358 0
M  V30 4761 H 451.04 0.671609 -3.82651 0
M  V30 4762 H 452.712 -1.91151 -4.19832 0
M  V30 4763 H 450.955 -1.86049 -3.91878 0
M  V30 4764 H 451.626 -1.16287 -5.39612 0
M  V30 4765 H 454.102 0.306576 -4.14969 0
M  V30 4766 H 452.978 0.846011 -5.42341 0
M  V30 4767 H 453.239 1.85802 -4.01161 0
M  V30 4768 N 452.299 1.55045 -0.282633 0
M  V30 4769 C 453.71 1.85473 0.213655 0
M  V30 4770 C 454.061 1.20465 1.54863 0
M  V30 4771 O 453.186 0.495676 2.10647 0
M  V30 4772 C 453.781 3.36496 0.394445 0
M  V30 4773 C 452.34 3.67022 0.834961 0
M  V30 4774 C 451.487 2.77218 -0.0674081 0
M  V30 4775 H 454.438 1.50478 -0.504202 0
M  V30 4776 H 454.459 3.60007 1.23186 0
M  V30 4777 H 453.971 3.83782 -0.577326 0
M  V30 4778 H 452.072 3.25241 1.81794 0
M  V30 4779 H 452.185 4.74433 0.667075 0
M  V30 4780 H 450.549 2.5069 0.450196 0
M  V30 4781 H 451.332 3.2732 -1.0352 0
M  V30 4782 N 453.777 0.010035 1.57597 0
M  V30 4783 C 455.026 -0.671945 1.90178 0
M  V30 4784 C 455.339 -1.74376 0.886131 0
M  V30 4785 O 456.545 -2.48107 1.10252 0
M  V30 4786 C 455.001 -1.24636 3.3763 0
M  V30 4787 C 454.609 -0.208838 4.47513 0
M  V30 4788 C 456.353 -1.90595 3.79307 0
M  V30 4789 C 454.26 -0.793814 5.86048 0
M  V30 4790 H 453.19 -0.25474 0.709665 0
M  V30 4791 H 455.841 0.0722206 1.83358 0
M  V30 4792 H 454.223 -2.04152 3.3932 0
M  V30 4793 H 455.397 0.562463 4.57354 0
M  V30 4794 H 453.712 0.350889 4.14919 0
M  V30 4795 H 456.309 -2.35284 4.80151 0
M  V30 4796 H 456.652 -2.74074 3.13352 0
M  V30 4797 H 457.185 -1.17798 3.79958 0
M  V30 4798 H 453.924 0.00240855 6.555 0
M  V30 4799 H 453.444 -1.53404 5.79851 0
M  V30 4800 H 455.123 -1.2894 6.34022 0
M  V30 4801 N 455.255 -1.55392 -0.262866 0
M  V30 4802 C 456.501 -1.76737 -0.99458 0
M  V30 4803 C 456.834 -0.572453 -1.85571 0
M  V30 4804 O 456.109 0.429732 -1.89693 0
M  V30 4805 C 456.392 -3.07824 -1.8686 0
M  V30 4806 C 456.245 -4.3769 -1.03672 0
M  V30 4807 C 457.564 -3.35021 -2.85393 0
M  V30 4808 H 454.683 -0.643005 -0.360157 0
M  V30 4809 H 457.325 -1.88126 -0.266216 0
M  V30 4810 H 455.475 -2.98245 -2.48962 0
M  V30 4811 H 457.147 -4.59238 -0.43563 0
M  V30 4812 H 455.39 -4.32461 -0.340513 0
M  V30 4813 H 456.061 -5.25759 -1.6817 0
M  V30 4814 H 458.537 -3.44458 -2.33426 0
M  V30 4815 H 457.413 -4.27989 -3.43681 0
M  V30 4816 H 457.674 -2.55153 -3.61039 0
M  V30 4817 N 456.733 0.527833 -1.48498 0
M  V30 4818 C 457.663 1.64136 -1.66077 0
M  V30 4819 C 458.644 1.62286 -0.509625 0
M  V30 4820 O 459.829 1.79449 -0.742413 0
M  V30 4821 C 456.959 3.02717 -1.70234 0
M  V30 4822 C 455.913 3.19426 -2.8487 0
M  V30 4823 C 455.239 4.5909 -2.74118 0
M  V30 4824 C 456.539 3.01993 -4.26142 0
M  V30 4825 H 458.233 1.4968 -2.593 0
M  V30 4826 H 455.779 0.718654 -1.24785 0
M  V30 4827 H 457.732 3.80491 -1.8112 0
M  V30 4828 H 456.456 3.18201 -0.735911 0
M  V30 4829 H 455.115 2.4407 -2.73542 0
M  V30 4830 H 454.763 4.71413 -1.7544 0
M  V30 4831 H 454.463 4.71214 -3.51042 0
M  V30 4832 H 455.987 5.3896 -2.86974 0
M  V30 4833 H 457.401 3.69558 -4.38292 0
M  V30 4834 H 455.798 3.2561 -5.04082 0
M  V30 4835 H 456.868 1.98396 -4.42456 0
M  V30 4836 N 458.211 1.37122 0.776871 0
M  V30 4837 C 459.439 1.3523 1.5659 0
M  V30 4838 C 459.854 -0.0635518 1.88693 0
M  V30 4839 O 459.211 -1.02394 1.51069 0
M  V30 4840 C 459.262 2.18583 2.8793 0
M  V30 4841 O 458.983 3.5465 2.57206 0
M  V30 4842 C 460.484 2.24612 3.82183 0
M  V30 4843 H 457.704 0.4634 0.485285 0
M  V30 4844 H 460.248 1.80392 0.963266 0
M  V30 4845 H 458.403 1.76943 3.4463 0
M  V30 4846 H 458.817 3.98286 3.41275 0
M  V30 4847 H 460.291 2.87267 4.71361 0
M  V30 4848 H 460.768 1.25309 4.20944 0
M  V30 4849 H 461.374 2.66543 3.31414 0
M  V30 4850 N 459.689 -1.00246 1.21608 0
M  V30 4851 C 460.652 -2.07233 0.979133 0
M  V30 4852 C 461.652 -1.6072 -0.0508219 0
M  V30 4853 O 462.842 -1.73196 0.186712 0
M  V30 4854 C 459.974 -3.37546 0.477016 0
M  V30 4855 H 461.167 -2.29687 1.92831 0
M  V30 4856 H 458.72 -1.17261 1.03342 0
M  V30 4857 H 459.455 -3.20773 -0.476966 0
M  V30 4858 H 459.24 -3.72638 1.21997 0
M  V30 4859 H 460.73 -4.16285 0.331181 0
M  V30 4860 N 461.167 -1.02423 -1.1978 0
M  V30 4861 C 462.395 -0.737456 -1.93311 0
M  V30 4862 C 462.81 0.703023 -1.75223 0
M  V30 4863 O 462.167 1.47761 -1.07112 0
M  V30 4864 C 462.218 -1.0733 -3.45199 0
M  V30 4865 O 461.939 -2.4572 -3.62702 0
M  V30 4866 C 463.44 -0.80866 -4.35862 0
M  V30 4867 H 460.66 -0.2702 -0.614193 0
M  V30 4868 H 463.204 -1.36747 -1.52054 0
M  V30 4869 H 461.359 -0.488545 -3.84307 0
M  V30 4870 H 461.773 -2.58081 -4.56612 0
M  V30 4871 H 463.247 -1.09365 -5.41057 0
M  V30 4872 H 463.724 0.257025 -4.38447 0
M  V30 4873 H 464.33 -1.37592 -4.02428 0
M  V30 4874 N 462.645 1.35699 -0.801477 0
M  V30 4875 C 463.595 2.2728 -0.181073 0
M  V30 4876 C 464.579 1.47533 0.642098 0
M  V30 4877 O 465.771 1.69785 0.500193 0
M  V30 4878 C 462.9 3.36626 0.673612 0
M  V30 4879 C 461.986 4.23802 -0.159008 0
M  V30 4880 N 462.377 4.90879 -1.2195 0
M  V30 4881 C 460.675 4.45959 0.0602005 0
M  V30 4882 C 461.376 5.5546 -1.72738 0
M  V30 4883 N 460.352 5.33663 -1.03465 0
M  V30 4884 H 464.154 2.76632 -0.992582 0
M  V30 4885 H 461.668 1.49166 -0.642127 0
M  V30 4886 H 463.665 4.01179 1.13408 0
M  V30 4887 H 462.325 2.88828 1.48353 0
M  V30 4888 H 463.336 4.92497 -1.60209 0
M  V30 4889 H 460.013 4.08969 0.839664 0
M  V30 4890 H 461.403 6.18991 -2.61342 0
M  V30 4891 N 464.123 0.554532 1.47522 0
M  V30 4892 C 465.033 -0.197865 2.33764 0
M  V30 4893 C 466.049 -0.914576 1.48025 0
M  V30 4894 O 467.225 -0.884067 1.80959 0
M  V30 4895 C 464.29 -1.21628 3.24665 0
M  V30 4896 C 463.351 -0.507283 4.26292 0
M  V30 4897 C 462.584 -1.47718 5.1285 0
M  V30 4898 O 462.807 -2.7118 5.01814 0
M  V30 4899 O 461.741 -1.00313 5.93482 0
M  V30 4900 H 465.567 0.50949 2.99396 0
M  V30 4901 H 463.152 0.315176 1.46038 0
M  V30 4902 H 465.034 -1.80421 3.80823 0
M  V30 4903 H 463.709 -1.9056 2.61665 0
M  V30 4904 H 462.616 0.121778 3.73902 0
M  V30 4905 H 463.949 0.140544 4.91999 0
M  V30 4906 N 465.601 -1.54893 0.290851 0
M  V30 4907 C 466.878 -1.91991 -0.373989 0
M  V30 4908 C 467.258 -1.21694 -1.72493 0
M  V30 4909 O 466.606 -0.34917 -2.25816 0
M  V30 4910 C 466.816 -3.45419 -0.498703 0
M  V30 4911 C 468.164 -4.1748 -0.774298 0
M  V30 4912 O 469.188 -3.51398 -0.582908 0
M  V30 4913 O 468.047 -5.3445 -1.14129 0
M  V30 4914 H 465.141 -0.800593 -0.207315 0
M  V30 4915 H 467.687 -1.66297 0.338164 0
M  V30 4916 H 466.459 -3.88688 0.451392 0
M  V30 4917 H 466.082 -3.77117 -1.25972 0
M  V30 4918 N 467.08 -0.0183926 -1.57589 0
M  V30 4919 C 468.027 0.967022 -2.09565 0
M  V30 4920 C 468.997 1.32983 -0.995225 0
M  V30 4921 O 470.182 1.42501 -1.26878 0
M  V30 4922 C 467.322 2.24772 -2.61861 0
M  V30 4923 C 466.435 1.94232 -3.85873 0
M  V30 4924 C 465.57 3.16518 -4.26603 0
M  V30 4925 C 464.609 2.81748 -5.43401 0
M  V30 4926 N 463.746 3.96626 -5.79338 0
M  V30 4927 H 468.586 0.516874 -2.93483 0
M  V30 4928 H 466.123 0.243544 -1.4507 0
M  V30 4929 H 468.081 2.99667 -2.90268 0
M  V30 4930 H 466.711 2.67423 -1.8079 0
M  V30 4931 H 465.763 1.09625 -3.64262 0
M  V30 4932 H 467.075 1.64616 -4.70853 0
M  V30 4933 H 466.229 3.99743 -4.56389 0
M  V30 4934 H 464.968 3.49286 -3.40368 0
M  V30 4935 H 463.973 1.96933 -5.1332 0
M  V30 4936 H 465.198 2.50207 -6.31327 0
M  V30 4937 H 463.144 4.29257 -4.96059 0
M  V30 4938 H 463.061 3.70598 -6.58933 0
M  V30 4939 H 464.329 4.80586 -6.13724 0
M  V30 4940 N 468.558 1.5553 0.254621 0
M  V30 4941 C 469.468 1.92789 1.33677 0
M  V30 4942 C 470.484 0.827356 1.53071 0
M  V30 4943 O 471.66 1.12807 1.66843 0
M  V30 4944 C 468.725 2.20827 2.67275 0
M  V30 4945 C 467.786 3.4427 2.5647 0
M  V30 4946 C 467.019 3.70961 3.83697 0
M  V30 4947 O 467.242 2.99852 4.85227 0
M  V30 4948 O 466.176 4.64491 3.82794 0
M  V30 4949 H 470.002 2.84945 1.05071 0
M  V30 4950 H 467.587 1.42312 0.454723 0
M  V30 4951 H 469.469 2.40204 3.46237 0
M  V30 4952 H 468.144 1.31851 2.9563 0
M  V30 4953 H 467.051 3.30209 1.75821 0
M  V30 4954 H 468.384 4.33524 2.33062 0
M  V30 4955 N 470.036 -0.519951 1.48776 0
M  V30 4956 C 471.452 -0.849418 1.35119 0
M  V30 4957 C 471.652 -1.98077 0.36982 0
M  V30 4958 O 470.708 -2.51664 -0.205359 0
M  V30 4959 C 472.021 -1.20748 2.75391 0
M  V30 4960 C 473.569 -1.31679 2.83954 0
M  V30 4961 C 474.044 -1.70824 4.24951 0
M  V30 4962 N 475.535 -1.77908 4.27672 0
M  V30 4963 C 476.27 -2.09603 5.33717 0
M  V30 4964 N 475.766 -2.39652 6.5003 0
M  V30 4965 N 477.559 -2.10694 5.21119 0
M  V30 4966 H 469.71 0.226377 2.1119 0
M  V30 4967 H 471.973 0.0386519 0.947212 0
M  V30 4968 H 471.679 -0.449703 3.48813 0
M  V30 4969 H 471.553 -2.15534 3.09556 0
M  V30 4970 H 473.94 -2.06532 2.10781 0
M  V30 4971 H 474.021 -0.3499 2.53396 0
M  V30 4972 H 473.665 -0.965282 4.98643 0
M  V30 4973 H 473.595 -2.6858 4.52959 0
M  V30 4974 H 476.086 -1.56923 3.43779 0
M  V30 4975 H 476.399 -2.6297 7.26682 0
M  V30 4976 H 474.744 -2.37149 6.53288 0
M  V30 4977 H 477.935 -1.86682 4.29264 0
M  V30 4978 H 478.108 -2.35062 6.03863 0
M  V30 4979 N 471.514 -1.37532 -0.769588 0
M  V30 4980 C 472.444 -1.36172 -1.89682 0
M  V30 4981 C 473.425 -0.23001 -1.68538 0
M  V30 4982 O 474.61 -0.43069 -1.89364 0
M  V30 4983 C 471.74 -1.1701 -3.26995 0
M  V30 4984 C 470.694 -2.27216 -3.62708 0
M  V30 4985 C 470.02 -1.93174 -4.98586 0
M  V30 4986 C 471.32 -3.6941 -3.69234 0
M  V30 4987 H 473.014 -2.30499 -1.91078 0
M  V30 4988 H 470.56 -1.10953 -0.917902 0
M  V30 4989 H 472.513 -1.14688 -4.05493 0
M  V30 4990 H 471.237 -0.191395 -3.26039 0
M  V30 4991 H 469.896 -2.28697 -2.86519 0
M  V30 4992 H 469.544 -0.938281 -4.94171 0
M  V30 4993 H 469.244 -2.66973 -5.23449 0
M  V30 4994 H 470.768 -1.92443 -5.79481 0
M  V30 4995 H 472.182 -3.70047 -4.37879 0
M  V30 4996 H 470.579 -4.4228 -4.05597 0
M  V30 4997 H 471.649 -4.0288 -2.69844 0
M  V30 4998 N 472.992 0.995999 -1.22138 0
M  V30 4999 C 474.269 1.70834 -0.952642 0
M  V30 5000 C 474.649 2.04257 0.533119 0
M  V30 5001 O 473.997 1.72343 1.50034 0
M  V30 5002 C 474.207 2.96119 -1.84701 0
M  V30 5003 C 475.555 3.68962 -2.10124 0
M  V30 5004 O 476.579 3.0612 -1.82124 0
M  V30 5005 O 475.438 4.82017 -2.57531 0
M  V30 5006 H 472.532 0.745498 -0.357997 0
M  V30 5007 H 475.078 1.05262 -1.33109 0
M  V30 5008 H 473.85 2.67898 -2.85213 0
M  V30 5009 H 473.473 3.6943 -1.46995 0
M  V30 5010 N 474.47 1.03057 1.19235 0
M  V30 5011 C 475.718 0.726581 1.88587 0
M  V30 5012 C 476.039 -0.747227 1.80115 0
M  V30 5013 O 475.309 -1.53849 1.21274 0
M  V30 5014 H 473.889 0.265768 0.698124 0
M  V30 5015 H 476.551 1.30516 1.44746 0
M  V30 5016 H 475.647 1.0224 2.94879 0
M  V30 5017 N 475.948 -1.35272 0.808662 0
M  V30 5018 C 477.188 -2.00534 0.395668 0
M  V30 5019 C 477.552 -1.62755 -1.01857 0
M  V30 5020 O 478.753 -2.20752 -1.53368 0
M  V30 5021 C 477.024 -3.52732 0.575771 0
M  V30 5022 S 478.583 -4.38067 0.253507 0
M  V30 5023 H 475.401 -0.694962 0.150165 0
M  V30 5024 H 478.003 -1.64823 1.05137 0
M  V30 5025 H 476.707 -3.77714 1.60499 0
M  V30 5026 H 476.238 -3.93285 -0.0951739 0
M  V30 5027 H 478.253 -4.87252 -0.938068 0
M  V30 5028 N 477.426 -0.562348 -1.47226 0
M  V30 5029 C 478.654 -0.0452275 -2.06851 0
M  V30 5030 C 479.069 1.25078 -1.41424 0
M  V30 5031 O 478.426 1.75156 -0.512513 0
M  V30 5032 C 478.477 0.148674 -3.61194 0
M  V30 5033 O 478.198 -1.09602 -4.24169 0
M  V30 5034 C 479.699 0.702488 -4.37699 0
M  V30 5035 H 476.919 -0.0481775 -0.669268 0
M  V30 5036 H 479.463 -0.777223 -1.89155 0
M  V30 5037 H 477.618 0.830817 -3.78386 0
M  V30 5038 H 478.032 -0.896982 -5.16773 0
M  V30 5039 H 479.506 0.78743 -5.46355 0
M  V30 5040 H 479.983 1.71493 -4.04335 0
M  V30 5041 H 480.589 0.0558772 -4.25263 0
M  V30 5042 N 478.904 1.54736 -0.299062 0
M  V30 5043 C 479.867 2.22127 0.565012 0
M  V30 5044 C 480.867 1.20669 1.06281 0
M  V30 5045 O 482.057 1.45417 0.959145 0
M  V30 5046 C 479.189 2.90611 1.78208 0
M  V30 5047 H 480.382 2.99891 -0.0237448 0
M  V30 5048 H 477.935 1.5622 -0.0498788 0
M  V30 5049 H 478.67 2.16921 2.41072 0
M  V30 5050 H 478.455 3.64984 1.43281 0
M  V30 5051 H 479.945 3.42026 2.396 0
M  V30 5052 N 480.382 0.0267497 1.57577 0
M  V30 5053 C 481.629 -0.652404 1.91703 0
M  V30 5054 C 481.957 -1.72271 0.902936 0
M  V30 5055 O 481.212 -1.955 -0.0884843 0
M  V30 5056 C 481.511 -1.30914 3.3256 0
M  V30 5057 C 481.177 -0.369441 4.49384 0
M  V30 5058 C 479.839 -0.110791 4.81072 0
M  V30 5059 C 482.191 0.275971 5.20469 0
M  V30 5060 C 479.519 0.801116 5.81205 0
M  V30 5061 C 481.871 1.17592 6.21575 0
M  V30 5062 C 480.535 1.44348 6.51705 0
M  V30 5063 H 479.805 -0.238732 0.70149 0
M  V30 5064 H 482.452 0.0880091 1.91298 0
M  V30 5065 H 480.757 -2.12425 3.29216 0
M  V30 5066 H 482.454 -1.84115 3.56234 0
M  V30 5067 H 479.044 -0.581211 4.24641 0
M  V30 5068 H 483.228 0.0892 4.9622 0
M  V30 5069 H 478.484 1.01614 6.02897 0
M  V30 5070 H 482.658 1.68223 6.75777 0
M  V30 5071 H 480.285 2.15176 7.29111 0
M  V30 5072 N 481.861 -1.55662 -0.24637 0
M  V30 5073 C 482.824 -1.89558 -1.28842 0
M  V30 5074 C 483.824 -0.772082 -1.41052 0
M  V30 5075 O 485.014 -1.04007 -1.39743 0
M  V30 5076 C 482.146 -2.12449 -2.66605 0
M  V30 5077 H 483.339 -2.82735 -1.00004 0
M  V30 5078 H 480.892 -1.48562 -0.485684 0
M  V30 5079 H 481.627 -1.21742 -3.00582 0
M  V30 5080 H 481.412 -2.94273 -2.59125 0
M  V30 5081 H 482.902 -2.39854 -3.41847 0
M  V30 5082 N 483.339 0.512053 -1.4905 0
M  V30 5083 C 484.269 1.62365 -1.67809 0
M  V30 5084 C 485.25 1.61737 -0.526809 0
M  V30 5085 O 486.435 1.78651 -0.761404 0
M  V30 5086 C 483.565 3.00895 -1.73435 0
M  V30 5087 C 482.519 3.16387 -2.88242 0
M  V30 5088 C 481.845 4.56157 -2.78971 0
M  V30 5089 C 483.145 2.97457 -4.29321 0
M  V30 5090 H 484.839 1.46921 -2.60873 0
M  V30 5091 H 482.385 0.705379 -1.2554 0
M  V30 5092 H 484.338 3.78549 -1.85145 0
M  V30 5093 H 483.062 3.17403 -0.769619 0
M  V30 5094 H 481.721 2.41155 -2.76116 0
M  V30 5095 H 481.369 4.69525 -1.8043 0
M  V30 5096 H 481.069 4.67465 -3.5602 0
M  V30 5097 H 482.593 5.35886 -2.92675 0
M  V30 5098 H 484.007 3.64888 -4.42187 0
M  V30 5099 H 482.404 3.20245 -5.07507 0
M  V30 5100 H 483.474 1.93692 -4.44535 0
M  V30 5101 N 484.817 1.37938 0.762283 0
M  V30 5102 C 485.75 1.2884 1.88349 0
M  V30 5103 C 486.728 0.167084 1.61739 0
M  V30 5104 O 487.912 0.34292 1.85355 0
M  V30 5105 C 485.039 0.994257 3.23778 0
M  V30 5106 C 484.085 2.13376 3.69287 0
M  V30 5107 S 484.918 3.75439 3.81845 0
M  V30 5108 C 486.074 3.48195 5.20107 0
M  V30 5109 H 486.307 2.23736 1.95779 0
M  V30 5110 H 483.84 1.23672 0.924368 0
M  V30 5111 H 485.798 0.83138 4.01993 0
M  V30 5112 H 484.459 0.0626251 3.14038 0
M  V30 5113 H 483.652 1.88319 4.67495 0
M  V30 5114 H 483.254 2.25726 2.98201 0
M  V30 5115 H 485.546 3.0377 6.05583 0
M  V30 5116 H 486.489 4.45765 5.50181 0
M  V30 5117 H 486.897 2.82905 4.88493 0
M  V30 5118 N 486.295 -0.989507 1.22664 0
M  V30 5119 C 487.525 -1.7624 1.0781 0
M  V30 5120 C 487.933 -1.85466 -0.374036 0
M  V30 5121 O 487.276 -1.32645 -1.27087 0
M  V30 5122 C 487.338 -3.21007 1.61849 0
M  V30 5123 C 487.002 -3.35316 3.10503 0
M  V30 5124 C 487.999 -3.22362 4.07896 0
M  V30 5125 C 485.684 -3.60258 3.50028 0
M  V30 5126 C 487.678 -3.34139 5.42798 0
M  V30 5127 C 485.365 -3.71676 4.85078 0
M  V30 5128 C 486.363 -3.58625 5.81272 0
M  V30 5129 O 486.051 -3.69655 7.1387 0
M  V30 5130 H 485.783 -0.560209 0.378341 0
M  V30 5131 H 488.337 -1.25252 1.62792 0
M  V30 5132 H 486.567 -3.73202 1.01279 0
M  V30 5133 H 488.256 -3.80024 1.42606 0
M  V30 5134 H 489.022 -3.03 3.78703 0
M  V30 5135 H 484.901 -3.69492 2.75675 0
M  V30 5136 H 488.445 -3.23869 6.17863 0
M  V30 5137 H 484.342 -3.90545 5.1395 0
M  V30 5138 H 485.11 -3.86507 7.21495 0
M  V30 5139 N 487.773 -1.03688 -1.18687 0
M  V30 5140 C 488.683 -0.634908 -2.25845 0
M  V30 5141 C 489.699 0.337065 -1.70704 0
M  V30 5142 O 490.875 0.192943 -2.00474 0
M  V30 5143 C 487.94 -0.000180054 -3.467 0
M  V30 5144 C 487.001 -1.02067 -4.1699 0
M  V30 5145 C 486.234 -0.41614 -5.32075 0
M  V30 5146 O 486.457 0.778712 -5.65059 0
M  V30 5147 O 485.391 -1.14296 -5.90948 0
M  V30 5148 H 489.217 -1.52757 -2.62486 0
M  V30 5149 H 486.802 -0.807533 -1.25695 0
M  V30 5150 H 488.684 0.353342 -4.19916 0
M  V30 5151 H 487.359 0.866367 -3.11891 0
M  V30 5152 H 486.266 -1.42592 -3.45859 0
M  V30 5153 H 487.599 -1.85786 -4.5579 0
M  V30 5154 N 489.251 1.34841 -0.815825 0
M  V30 5155 C 490.499 1.98107 -0.399744 0
M  V30 5156 C 490.82 1.65019 1.03894 0
M  V30 5157 O 490.09 0.937311 1.72021 0
M  V30 5158 H 488.67 0.732827 -0.144823 0
M  V30 5159 H 491.332 1.64599 -1.0437 0
M  V30 5160 H 490.428 3.07856 -0.512965 0
M  V30 5161 N 490.729 0.570148 1.46925 0
M  V30 5162 C 492.145 0.23087 1.57921 0
M  V30 5163 C 492.345 -1.26676 1.56702 0
M  V30 5164 O 491.401 -2.04774 1.47729 0
M  V30 5165 C 492.714 0.868973 2.8787 0
M  V30 5166 C 494.262 0.841397 3.01479 0
M  V30 5167 C 494.737 1.45881 4.34146 0
M  V30 5168 N 496.228 1.42258 4.40814 0
M  V30 5169 C 496.963 1.8698 5.42057 0
M  V30 5170 N 496.459 2.39618 6.50042 0
M  V30 5171 N 498.252 1.77972 5.33181 0
M  V30 5172 H 490.403 1.54301 1.45962 0
M  V30 5173 H 492.666 0.644224 0.69547 0
M  V30 5174 H 492.372 1.922 2.94537 0
M  V30 5175 H 492.246 0.369682 3.75384 0
M  V30 5176 H 494.633 -0.202973 2.94401 0
M  V30 5177 H 494.714 1.37858 2.15474 0
M  V30 5178 H 494.358 2.50231 4.4198 0
M  V30 5179 H 494.288 0.896958 5.18905 0
M  V30 5180 H 496.779 1.03768 3.63374 0
M  V30 5181 H 497.092 2.71633 7.23488 0
M  V30 5182 H 495.437 2.43636 6.50897 0
M  V30 5183 H 498.628 1.36617 4.4772 0
M  V30 5184 H 498.801 2.13143 6.11943 0
M  V30 5185 N 492.207 -1.54576 0.307264 0
M  V30 5186 C 493.623 -1.59534 -0.0459251 0
M  V30 5187 C 493.823 -1.32414 -1.51884 0
M  V30 5188 O 492.879 -1.1006 -2.27251 0
M  V30 5189 C 494.192 -2.98566 0.357649 0
M  V30 5190 C 495.74 -3.11491 0.306937 0
M  V30 5191 C 496.215 -4.52842 0.685427 0
M  V30 5192 N 497.706 -4.58782 0.638203 0
M  V30 5193 C 498.441 -5.66238 0.903458 0
M  V30 5194 N 497.937 -6.81703 1.23501 0
M  V30 5195 N 499.73 -5.55937 0.830102 0
M  V30 5196 H 491.881 -1.70464 1.26712 0
M  V30 5197 H 494.144 -0.79647 0.514139 0
M  V30 5198 H 493.85 -3.23356 1.38325 0
M  V30 5199 H 493.724 -3.76117 -0.285565 0
M  V30 5200 H 496.111 -2.86446 -0.709424 0
M  V30 5201 H 496.192 -2.36081 0.984861 0
M  V30 5202 H 495.836 -4.78618 1.69963 0
M  V30 5203 H 495.766 -5.26598 -0.0146346 0
M  V30 5204 H 498.257 -3.75849 0.393138 0
M  V30 5205 H 498.57 -7.59582 1.42322 0
M  V30 5206 H 496.915 -6.8324 1.27311 0
M  V30 5207 H 500.106 -4.64608 0.570693 0
M  V30 5208 H 500.279 -6.39597 1.04019 0
M  V30 5209 N 493.685 -0.035106 -1.57561 0
M  V30 5210 C 494.931 0.64318 -1.92331 0
M  V30 5211 C 495.264 1.71434 -0.912368 0
M  V30 5212 O 494.539 1.94395 0.0640303 0
M  V30 5213 C 494.822 1.25411 -3.37556 0
M  V30 5214 C 494.675 0.192109 -4.4939 0
M  V30 5215 C 495.994 2.17041 -3.82859 0
M  V30 5216 H 493.113 0.232341 -0.699419 0
M  V30 5217 H 495.755 -0.0935889 -1.89769 0
M  V30 5218 H 493.905 1.88205 -3.39869 0
M  V30 5219 H 495.577 -0.438849 -4.59208 0
M  V30 5220 H 493.82 -0.481725 -4.31117 0
M  V30 5221 H 494.491 0.659292 -5.48049 0
M  V30 5222 H 496.967 1.64228 -3.8232 0
M  V30 5223 H 495.843 2.56738 -4.85157 0
M  V30 5224 H 496.104 3.06401 -3.18702 0
M  V30 5225 N 495.163 1.55791 0.238111 0
M  V30 5226 C 496.126 1.90239 1.27835 0
M  V30 5227 C 497.126 0.779552 1.4064 0
M  V30 5228 O 498.316 1.04747 1.3919 0
M  V30 5229 C 495.448 2.13859 2.65475 0
M  V30 5230 H 496.641 2.83262 0.985034 0
M  V30 5231 H 494.194 1.48818 0.477799 0
M  V30 5232 H 494.929 1.23334 2.99932 0
M  V30 5233 H 494.714 2.95643 2.57561 0
M  V30 5234 H 496.204 2.41664 3.40571 0
M  V30 5235 N 496.642 -0.504142 1.49319 0
M  V30 5236 C 497.891 -1.25507 1.57895 0
M  V30 5237 C 498.204 -1.93735 0.269433 0
M  V30 5238 O 499.41 -2.70492 0.233706 0
M  V30 5239 C 497.866 -2.27869 2.78574 0
M  V30 5240 C 497.474 -1.65594 4.16272 0
M  V30 5241 C 499.218 -3.0381 2.96479 0
M  V30 5242 C 497.125 -2.66048 5.28178 0
M  V30 5243 H 496.055 -0.47212 0.587894 0
M  V30 5244 H 498.706 -0.52931 1.757 0
M  V30 5245 H 497.088 -3.03594 2.54257 0
M  V30 5246 H 498.262 -0.958826 4.50714 0
M  V30 5247 H 496.577 -1.02055 4.037 0
M  V30 5248 H 499.174 -3.78925 3.77253 0
M  V30 5249 H 499.517 -3.61235 2.06918 0
M  V30 5250 H 500.05 -2.352 3.20821 0
M  V30 5251 H 496.789 -2.13408 6.19788 0
M  V30 5252 H 496.309 -3.34009 4.98195 0
M  V30 5253 H 497.988 -3.28536 5.57381 0
M  V30 5254 N 498.12 -1.38341 -0.754957 0
M  V30 5255 C 499.05 -1.38176 -1.88227 0
M  V30 5256 C 500.031 -0.247873 -1.68284 0
M  V30 5257 O 501.216 -0.45075 -1.88896 0
M  V30 5258 C 498.346 -1.20471 -3.25736 0
M  V30 5259 C 497.3 -2.3105 -3.60278 0
M  V30 5260 C 496.626 -1.98452 -4.96509 0
M  V30 5261 C 497.926 -3.73305 -3.65295 0
M  V30 5262 H 499.62 -2.32512 -1.88622 0
M  V30 5263 H 497.166 -1.1192 -0.906082 0
M  V30 5264 H 499.119 -1.18982 -4.04254 0
M  V30 5265 H 497.843 -0.225965 -3.25817 0
M  V30 5266 H 496.502 -2.31723 -2.84078 0
M  V30 5267 H 496.15 -0.990641 -4.93148 0
M  V30 5268 H 495.85 -2.7251 -5.20588 0
M  V30 5269 H 497.374 -1.98578 -5.77407 0
M  V30 5270 H 498.788 -3.7467 -4.3393 0
M  V30 5271 H 497.185 -4.46557 -4.00883 0
M  V30 5272 H 498.255 -4.05719 -2.65556 0
M  V30 5273 N 499.598 0.982988 -1.23187 0
M  V30 5274 C 501.014 1.2487 -0.993967 0
M  V30 5275 C 501.214 1.99155 0.306498 0
M  V30 5276 O 500.27 2.30688 1.0266 0
M  V30 5277 C 501.583 2.05078 -2.19917 0
M  V30 5278 C 503.131 2.18227 -2.2438 0
M  V30 5279 C 503.606 3.01825 -3.44479 0
M  V30 5280 N 505.097 3.09411 -3.44702 0
M  V30 5281 C 505.832 3.74412 -4.34285 0
M  V30 5282 N 505.328 4.41259 -5.341 0
M  V30 5283 N 507.121 3.71273 -4.22035 0
M  V30 5284 H 499.272 0.485253 -2.06783 0
M  V30 5285 H 501.535 0.276979 -0.906635 0
M  V30 5286 H 501.241 1.57867 -3.14279 0
M  V30 5287 H 501.115 3.05829 -2.2079 0
M  V30 5288 H 503.502 2.64648 -1.30559 0
M  V30 5289 H 503.583 1.16873 -2.2754 0
M  V30 5290 H 503.227 2.56102 -4.38605 0
M  V30 5291 H 503.157 4.03342 -3.38559 0
M  V30 5292 H 505.648 2.61845 -2.7248 0
M  V30 5293 H 505.961 4.88629 -5.98717 0
M  V30 5294 H 504.306 4.39975 -5.38002 0
M  V30 5295 H 507.497 3.18217 -3.43301 0
M  V30 5296 H 507.67 4.21649 -4.92053 0
M  V30 5297 N 501.076 1.04316 1.18135 0
M  V30 5298 C 502.024 0.630175 2.23901 0
M  V30 5299 C 503.018 -0.344254 1.65865 0
M  V30 5300 O 504.224 -0.211273 1.78756 0
M  V30 5301 H 500.599 0.185578 0.728742 0
M  V30 5302 H 502.57 1.53253 2.56039 0
M  V30 5303 C 501.319 0.011666 3.47698 0
M  V30 5304 H 500.642 0.752526 3.92654 0
M  V30 5305 H 502.082 -0.240046 4.2332 0
M  V30 5306 C 500.541 -1.23913 3.13285 0
M  V30 5307 O 501.071 -2.32959 3.27251 0
M  V30 5308 N 499.277 -1.13338 2.67587 0
M  V30 5309 H 498.824 -0.246006 2.56423 0
M  V30 5310 H 498.782 -1.97116 2.44934 0
M  V30 5311 N 502.554 -1.34406 0.822964 0
M  V30 5312 C 503.965 -1.8069 0.469879 0
M  V30 5313 C 504.316 -1.68223 -1.00972 0
M  V30 5314 O 503.441 -1.22226 -1.78577 0
M  V30 5315 C 504.036 -3.28064 0.846118 0
M  V30 5316 C 502.595 -3.72428 0.545402 0
M  V30 5317 C 501.742 -2.56116 1.06301 0
M  V30 5318 H 504.693 -1.22153 1.01313 0
M  V30 5319 H 504.714 -3.80205 0.149922 0
M  V30 5320 H 504.226 -3.37107 1.92304 0
M  V30 5321 H 502.327 -3.68924 -0.522109 0
M  V30 5322 H 502.44 -4.66548 1.0895 0
M  V30 5323 H 500.804 -2.50048 0.484554 0
M  V30 5324 H 501.587 -2.67928 2.14638 0
M  V30 5325 N 504.032 -0.577932 -1.46621 0
M  V30 5326 C 504.942 0.160651 -2.34049 0
M  V30 5327 C 505.958 0.890911 -1.49462 0
M  V30 5328 O 507.134 0.855166 -1.82343 0
M  V30 5329 C 504.199 1.16447 -3.26559 0
M  V30 5330 C 503.26 0.4394 -4.27045 0
M  V30 5331 C 502.493 1.3954 -5.15135 0
M  V30 5332 O 502.716 2.63162 -5.06065 0
M  V30 5333 O 501.65 0.908585 -5.95003 0
M  V30 5334 H 505.476 -0.557057 -2.98547 0
M  V30 5335 H 503.061 -0.338369 -1.45518 0
M  V30 5336 H 504.943 1.7434 -3.83645 0
M  V30 5337 H 503.618 1.86373 -2.64663 0
M  V30 5338 H 502.525 -0.181247 -3.73661 0
M  V30 5339 H 503.858 -0.218799 -4.91713 0
M  V30 5340 N 505.51 1.54411 -0.315457 0
M  V30 5341 C 506.757 2.00419 0.289543 0
M  V30 5342 C 507.085 1.20373 1.52776 0
M  V30 5343 O 506.34 0.271769 1.93804 0
M  V30 5344 C 506.639 3.50936 0.676652 0
M  V30 5345 C 506.305 4.48532 -0.461472 0
M  V30 5346 C 504.967 4.74936 -0.773879 0
M  V30 5347 C 507.319 5.06567 -1.22637 0
M  V30 5348 C 504.647 5.56634 -1.85405 0
M  V30 5349 C 506.999 5.89441 -2.29657 0
M  V30 5350 C 505.663 6.1415 -2.61488 0
M  V30 5351 H 504.933 0.733386 0.105951 0
M  V30 5352 H 507.58 1.86434 -0.437554 0
M  V30 5353 H 505.885 3.62606 1.48405 0
M  V30 5354 H 507.582 3.83971 1.15618 0
M  V30 5355 H 504.172 4.28096 -0.207893 0
M  V30 5356 H 508.356 4.86157 -0.998271 0
M  V30 5357 H 503.612 5.74012 -2.10523 0
M  V30 5358 H 507.786 6.33432 -2.89374 0
M  V30 5359 H 505.413 6.77245 -3.45317 0
M  V30 5360 N 506.988 0.0434614 1.5754 0
M  V30 5361 C 508.235 -0.632035 1.92384 0
M  V30 5362 C 508.563 -1.71304 0.921157 0
M  V30 5363 O 507.818 -1.95583 -0.067744 0
M  V30 5364 C 508.117 -1.2738 3.3393 0
M  V30 5365 C 507.783 -0.321757 4.49751 0
M  V30 5366 C 506.445 -0.0597611 4.81163 0
M  V30 5367 C 508.797 0.331158 5.20147 0
M  V30 5368 C 506.125 0.862715 5.80322 0
M  V30 5369 C 508.477 1.24178 6.20292 0
M  V30 5370 C 507.141 1.51252 6.50138 0
M  V30 5371 H 506.411 -0.231278 0.703983 0
M  V30 5372 H 509.058 0.108294 1.91194 0
M  V30 5373 H 507.363 -2.08921 3.3145 0
M  V30 5374 H 509.06 -1.80326 3.58167 0
M  V30 5375 H 505.65 -0.53614 4.25233 0
M  V30 5376 H 509.834 0.141826 4.96097 0
M  V30 5377 H 505.09 1.08003 6.01785 0
M  V30 5378 H 509.264 1.75381 6.73954 0
M  V30 5379 H 506.891 2.22897 7.26788 0
M  V30 5380 N 508.466 -1.55915 -0.229846 0
M  V30 5381 C 509.376 -1.94891 -1.30593 0
M  V30 5382 C 510.392 -0.851604 -1.51736 0
M  V30 5383 O 511.568 -1.15447 -1.65027 0
M  V30 5384 C 508.633 -2.25052 -2.63728 0
M  V30 5385 C 507.694 -3.48306 -2.5096 0
M  V30 5386 C 506.927 -3.77019 -3.77747 0
M  V30 5387 O 507.15 -3.07534 -4.80395 0
M  V30 5388 O 506.084 -4.70523 -3.75356 0
M  V30 5389 H 509.91 -2.86581 -1.00525 0
M  V30 5390 H 507.495 -1.43017 -0.432025 0
M  V30 5391 H 509.377 -2.45682 -3.42372 0
M  V30 5392 H 508.052 -1.36538 -2.93495 0
M  V30 5393 H 506.959 -3.32964 -1.70546 0
M  V30 5394 H 508.292 -4.37177 -2.26136 0
M  V30 5395 N 509.944 0.496216 -1.49584 0
M  V30 5396 C 510.894 1.59422 -1.62999 0
M  V30 5397 C 511.878 1.53402 -0.485457 0
M  V30 5398 O 513.07 1.60851 -0.738649 0
M  V30 5399 C 510.199 2.98009 -1.70427 0
M  V30 5400 C 509.285 3.09008 -2.90473 0
M  V30 5401 N 509.676 2.89884 -4.14489 0
M  V30 5402 C 507.974 3.40115 -2.8851 0
M  V30 5403 C 508.675 3.0519 -4.95211 0
M  V30 5404 N 507.651 3.3428 -4.2867 0
M  V30 5405 H 511.453 1.43297 -2.56599 0
M  V30 5406 H 508.967 0.702443 -1.46422 0
M  V30 5407 H 510.964 3.76926 -1.78136 0
M  V30 5408 H 509.624 3.152 -0.77967 0
M  V30 5409 H 510.635 2.65963 -4.44392 0
M  V30 5410 H 507.312 3.63452 -2.05448 0
M  V30 5411 H 508.702 2.94856 -6.03746 0
M  V30 5412 N 511.423 1.38739 0.74761 0
M  V30 5413 C 512.839 1.20067 1.05148 0
M  V30 5414 C 513.039 0.0534835 2.01429 0
M  V30 5415 O 512.095 -0.59886 2.45296 0
M  V30 5416 C 513.408 2.52957 1.62584 0
M  V30 5417 C 514.956 2.59692 1.74726 0
M  V30 5418 C 515.431 3.92772 2.35573 0
M  V30 5419 N 516.922 3.94343 2.42997 0
M  V30 5420 C 517.657 4.9408 2.90985 0
M  V30 5421 N 517.153 6.04214 3.38965 0
M  V30 5422 N 518.946 4.81466 2.9008 0
M  V30 5423 H 511.097 2.12121 0.108808 0
M  V30 5424 H 513.36 0.941491 0.110899 0
M  V30 5425 H 513.066 3.37389 0.993051 0
M  V30 5426 H 512.94 2.71779 2.61565 0
M  V30 5427 H 515.327 1.75651 2.3713 0
M  V30 5428 H 515.408 2.44731 0.744326 0
M  V30 5429 H 515.052 4.77238 1.738 0
M  V30 5430 H 514.982 4.05046 3.36519 0
M  V30 5431 H 517.473 3.14799 2.0907 0
M  V30 5432 H 517.786 6.76241 3.74056 0
M  V30 5433 H 516.131 6.07825 3.37007 0
M  V30 5434 H 519.322 3.94535 2.51912 0
M  V30 5435 H 519.495 5.59344 3.27166 0
M  V30 5436 N 512.901 -0.976442 1.23707 0
M  V30 5437 C 513.848 -2.06952 1.02174 0
M  V30 5438 C 514.818 -1.65984 -0.0621034 0
M  V30 5439 O 516.003 -1.90584 0.0907906 0
M  V30 5440 C 513.143 -3.39425 0.62327 0
M  V30 5441 C 512.256 -3.9364 1.77966 0
M  V30 5442 C 511.391 -5.14343 1.3276 0
M  V30 5443 C 510.43 -5.60733 2.45449 0
M  V30 5444 N 509.567 -6.72662 2.01172 0
M  V30 5445 H 514.407 -2.24704 1.95734 0
M  V30 5446 H 511.944 -1.10143 0.975034 0
M  V30 5447 H 513.902 -4.15526 0.37332 0
M  V30 5448 H 512.532 -3.21624 -0.275329 0
M  V30 5449 H 511.584 -3.14258 2.14351 0
M  V30 5450 H 512.896 -4.24035 2.62671 0
M  V30 5451 H 512.05 -5.97789 1.03601 0
M  V30 5452 H 510.789 -4.8561 0.450975 0
M  V30 5453 H 509.794 -4.75865 2.75378 0
M  V30 5454 H 511.019 -5.91483 3.33654 0
M  V30 5455 H 508.965 -6.45681 1.15895 0
M  V30 5456 H 508.882 -7.02462 2.79434 0
M  V30 5457 H 510.15 -7.59572 1.75129 0
M  V30 5458 N 514.379 -1.04941 -1.1758 0
M  V30 5459 C 515.289 -0.658826 -2.25159 0
M  V30 5460 C 516.305 0.318941 -1.71052 0
M  V30 5461 O 517.481 0.171669 -2.00667 0
M  V30 5462 C 514.546 -0.0369522 -3.4668 0
M  V30 5463 C 513.607 -1.06484 -4.15884 0
M  V30 5464 C 512.84 -0.472551 -5.31604 0
M  V30 5465 O 513.063 0.718736 -5.65854 0
M  V30 5466 O 511.997 -1.20557 -5.89703 0
M  V30 5467 H 515.823 -1.55533 -2.60851 0
M  V30 5468 H 513.408 -0.820819 -1.24832 0
M  V30 5469 H 515.29 0.308784 -4.20267 0
M  V30 5470 H 513.965 0.833238 -3.12792 0
M  V30 5471 H 512.872 -1.46253 -3.44327 0
M  V30 5472 H 514.205 -1.9061 -4.53794 0
M  V30 5473 N 515.857 1.33968 -0.830081 0
M  V30 5474 C 516.767 2.33164 -0.259207 0
M  V30 5475 C 517.783 1.62951 0.610164 0
M  V30 5476 O 518.959 1.94668 0.516369 0
M  V30 5477 C 516.024 3.42088 0.563598 0
M  V30 5478 C 515.085 4.28037 -0.329014 0
M  V30 5479 C 514.318 5.3176 0.454616 0
M  V30 5480 O 514.541 5.44876 1.6872 0
M  V30 5481 O 513.475 6.01669 -0.166794 0
M  V30 5482 H 517.301 2.83832 -1.08041 0
M  V30 5483 H 514.886 1.37154 -0.59239 0
M  V30 5484 H 516.768 4.08581 1.03147 0
M  V30 5485 H 515.443 2.93651 1.36201 0
M  V30 5486 H 514.35 3.64443 -0.844538 0
M  V30 5487 H 515.683 4.79934 -1.09196 0
M  V30 5488 N 517.335 0.585699 1.46312 0
M  V30 5489 C 518.751 0.247607 1.57668 0
M  V30 5490 C 518.951 -1.25007 1.58037 0
M  V30 5491 O 518.007 -2.03196 1.49893 0
M  V30 5492 C 519.32 0.899456 2.86933 0
M  V30 5493 C 520.868 0.873326 3.00569 0
M  V30 5494 C 521.343 1.50477 4.32574 0
M  V30 5495 N 522.834 1.46925 4.3928 0
M  V30 5496 C 523.569 1.92719 5.40044 0
M  V30 5497 N 523.065 2.46499 6.47464 0
M  V30 5498 N 524.858 1.83617 5.31264 0
M  V30 5499 H 517.009 1.55841 1.44317 0
M  V30 5500 H 519.272 0.651564 0.688599 0
M  V30 5501 H 518.978 1.95313 2.92482 0
M  V30 5502 H 518.852 0.409476 3.74971 0
M  V30 5503 H 521.239 -0.171736 2.946 0
M  V30 5504 H 521.32 1.40136 2.13999 0
M  V30 5505 H 520.964 2.54905 4.39302 0
M  V30 5506 H 520.894 0.951944 5.17924 0
M  V30 5507 H 523.385 1.07616 3.62253 0
M  V30 5508 H 523.698 2.79291 7.20567 0
M  V30 5509 H 522.043 2.50526 6.48276 0
M  V30 5510 H 525.234 1.41358 4.46246 0
M  V30 5511 H 525.407 2.19622 6.09648 0
M  V30 5512 N 518.813 -1.54241 0.323641 0
M  V30 5513 C 520.053 -2.0248 -0.279502 0
M  V30 5514 C 520.417 -1.20672 -1.49339 0
M  V30 5515 O 521.618 -1.58715 -2.1694 0
M  V30 5516 C 519.889 -3.52238 -0.605266 0
M  V30 5517 S 521.448 -4.22411 -1.18805 0
M  V30 5518 H 518.266 -0.705957 -0.0845313 0
M  V30 5519 H 520.868 -1.90089 0.456781 0
M  V30 5520 H 519.572 -4.094 0.286339 0
M  V30 5521 H 519.103 -3.6871 -1.37174 0
M  V30 5522 H 521.118 -4.30075 -2.47487 0
M  V30 5523 N 520.291 -0.0518155 -1.57515 0
M  V30 5524 C 521.254 0.907547 -2.10467 0
M  V30 5525 C 522.254 1.23947 -1.02439 0
M  V30 5526 O 523.444 1.17604 -1.2851 0
M  V30 5527 C 520.576 2.21723 -2.58944 0
M  V30 5528 H 521.769 0.44851 -2.96527 0
M  V30 5529 H 519.322 0.196598 -1.55059 0
M  V30 5530 H 520.057 2.72206 -1.76279 0
M  V30 5531 H 519.842 1.98935 -3.37886 0
M  V30 5532 H 521.332 2.90441 -3.00056 0
M  V30 5533 N 521.769 1.56035 0.221574 0
M  V30 5534 C 523.185 1.49026 0.571271 0
M  V30 5535 C 523.385 0.746912 1.87146 0
M  V30 5536 O 522.441 0.286566 2.50869 0
M  V30 5537 C 523.754 2.93579 0.650522 0
M  V30 5538 C 525.302 3.04099 0.741151 0
M  V30 5539 C 525.777 4.5001 0.851747 0
M  V30 5540 N 527.268 4.54053 0.915968 0
M  V30 5541 C 528.003 5.64232 1.02125 0
M  V30 5542 N 527.499 6.84164 1.09049 0
M  V30 5543 N 529.292 5.52084 1.05639 0
M  V30 5544 H 521.443 2.02791 -0.63162 0
M  V30 5545 H 523.706 0.921736 -0.221602 0
M  V30 5546 H 523.412 3.50912 -0.235253 0
M  V30 5547 H 523.286 3.45476 1.51413 0
M  V30 5548 H 525.673 2.4683 1.61737 0
M  V30 5549 H 525.754 2.55371 -0.148128 0
M  V30 5550 H 525.398 5.07896 -0.0200117 0
M  V30 5551 H 525.328 4.96444 1.75644 0
M  V30 5552 H 527.819 3.67683 0.872782 0
M  V30 5553 H 528.132 7.63883 1.1706 0
M  V30 5554 H 526.477 6.86875 1.05962 0
M  V30 5555 H 529.668 4.57317 0.998953 0
M  V30 5556 H 529.841 6.37983 1.13498 0
M  V30 5557 N 523.247 -0.488276 1.49845 0
M  V30 5558 C 524.179 -1.60539 1.63584 0
M  V30 5559 C 525.192 -1.5434 0.517972 0
M  V30 5560 O 526.381 -1.60041 0.790516 0
M  V30 5561 C 523.481 -2.99374 1.58835 0
M  V30 5562 C 522.654 -3.30624 2.86368 0
M  V30 5563 C 521.713 -4.4893 2.74496 0
M  V30 5564 O 520.739 -4.50085 3.48443 0
M  V30 5565 N 521.941 -5.49591 1.86894 0
M  V30 5566 H 524.706 -1.49176 2.59936 0
M  V30 5567 H 522.267 -0.67639 1.47094 0
M  V30 5568 H 524.259 -3.76459 1.48529 0
M  V30 5569 H 522.829 -3.04595 0.702892 0
M  V30 5570 H 522.049 -2.42314 3.1093 0
M  V30 5571 H 523.337 -3.48305 3.70892 0
M  V30 5572 H 522.735 -5.51467 1.26097 0
M  V30 5573 H 521.292 -6.25728 1.82503 0
M  V30 5574 N 524.725 -1.39134 -0.740242 0
M  V30 5575 C 525.971 -1.37278 -1.50088 0
M  V30 5576 C 526.326 0.0329967 -1.92372 0
M  V30 5577 O 525.619 0.998447 -1.63529 0
M  V30 5578 C 525.813 -2.27457 -2.75678 0
M  V30 5579 C 525.642 -3.76662 -2.45674 0
M  V30 5580 C 524.412 -4.45617 -2.38229 0
M  V30 5581 C 526.61 -4.6877 -2.11563 0
M  V30 5582 N 524.592 -5.80187 -2.00641 0
M  V30 5583 C 525.963 -5.91951 -1.84376 0
M  V30 5584 C 528.018 -4.56843 -1.97987 0
M  V30 5585 C 526.721 -7.04538 -1.4498 0
M  V30 5586 C 528.747 -5.69347 -1.59994 0
M  V30 5587 C 528.109 -6.91597 -1.33687 0
M  V30 5588 H 524.208 -0.557611 -0.548265 0
M  V30 5589 H 526.792 -1.74638 -0.860784 0
M  V30 5590 H 524.963 -1.92263 -3.37475 0
M  V30 5591 H 526.695 -2.16631 -3.41838 0
M  V30 5592 H 523.45 -3.98993 -2.5515 0
M  V30 5593 H 523.874 -6.51387 -1.84454 0
M  V30 5594 H 528.516 -3.62868 -2.16995 0
M  V30 5595 H 526.234 -7.98419 -1.24712 0
M  V30 5596 H 529.82 -5.62104 -1.50102 0
M  V30 5597 H 528.7 -7.77176 -1.04728 0
M  V30 5598 N 526.204 0.969867 -1.24223 0
M  V30 5599 C 527.452 1.70918 -1.0785 0
M  V30 5600 C 527.773 1.91186 0.383763 0
M  V30 5601 O 527.043 1.48806 1.27411 0
M  V30 5602 H 525.623 0.633334 -0.396103 0
M  V30 5603 H 528.285 1.16689 -1.56108 0
M  V30 5604 H 527.381 2.69455 -1.57482 0
M  V30 5605 N 527.682 1.05563 1.17022 0
M  V30 5606 C 528.91 0.78845 1.91288 0
M  V30 5607 C 529.325 -0.656318 1.77025 0
M  V30 5608 O 528.682 -1.44869 1.10992 0
M  V30 5609 C 528.733 1.16444 3.42232 0
M  V30 5610 O 528.454 2.5525 3.5606 0
M  V30 5611 C 529.955 0.923937 4.33565 0
M  V30 5612 H 527.175 0.286389 0.606813 0
M  V30 5613 H 529.719 1.4073 1.48375 0
M  V30 5614 H 527.874 0.590266 3.82877 0
M  V30 5615 H 528.288 2.70097 4.49609 0
M  V30 5616 H 529.762 1.23672 5.37968 0
M  V30 5617 H 530.239 -0.140688 4.38975 0
M  V30 5618 H 530.845 1.48214 3.98639 0
M  V30 5619 N 529.16 -1.33526 0.837174 0
M  V30 5620 C 530.388 -2.02047 0.445494 0
M  V30 5621 C 530.803 -1.62995 -0.952788 0
M  V30 5622 O 530.16 -0.842447 -1.61892 0
M  V30 5623 C 530.211 -3.57221 0.554577 0
M  V30 5624 O 529.932 -3.94863 1.89776 0
M  V30 5625 C 531.433 -4.43012 0.159634 0
M  V30 5626 H 528.653 -0.647221 0.177048 0
M  V30 5627 H 531.197 -1.70492 1.12928 0
M  V30 5628 H 529.352 -3.87315 -0.0812781 0
M  V30 5629 H 529.766 -4.89569 1.88208 0
M  V30 5630 H 531.24 -5.51253 0.28701 0
M  V30 5631 H 531.717 -4.29916 -0.898289 0
M  V30 5632 H 532.323 -4.18274 0.769855 0
M  V30 5633 N 530.638 -0.59345 -1.46 0
M  V30 5634 C 531.878 -0.0859747 -2.04219 0
M  V30 5635 C 532.242 1.25432 -1.45364 0
M  V30 5636 O 533.443 1.85168 -1.9485 0
M  V30 5637 C 531.714 -0.0324314 -3.57385 0
M  V30 5638 S 533.273 0.415908 -4.36824 0
M  V30 5639 H 530.091 -0.0426872 -0.709717 0
M  V30 5640 H 532.693 -0.788369 -1.78899 0
M  V30 5641 H 531.397 -1.01166 -3.97735 0
M  V30 5642 H 530.928 0.6924 -3.87259 0
M  V30 5643 H 532.943 1.66844 -4.67309 0
M  V30 5644 N 532.116 1.54067 -0.331816 0
M  V30 5645 C 533.063 2.24623 0.530372 0
M  V30 5646 C 534.033 1.24009 1.10503 0
M  V30 5647 O 535.218 1.52712 1.14384 0
M  V30 5648 C 532.358 3.01374 1.68129 0
M  V30 5649 C 531.471 4.16821 1.13507 0
M  V30 5650 C 530.606 4.81085 2.25234 0
M  V30 5651 C 529.645 5.88621 1.67903 0
M  V30 5652 N 528.782 6.46713 2.73326 0
M  V30 5653 H 533.622 2.97898 -0.0778607 0
M  V30 5654 H 531.159 1.47014 -0.0501965 0
M  V30 5655 H 533.117 3.44125 2.35868 0
M  V30 5656 H 531.747 2.30419 2.26069 0
M  V30 5657 H 530.799 3.78796 0.348979 0
M  V30 5658 H 532.111 4.94203 0.675633 0
M  V30 5659 H 531.265 5.26846 3.00862 0
M  V30 5660 H 530.004 4.03102 2.74518 0
M  V30 5661 H 529.009 5.42254 0.907773 0
M  V30 5662 H 530.234 6.68506 1.19487 0
M  V30 5663 H 528.18 5.71599 3.21886 0
M  V30 5664 H 528.097 7.19532 2.3197 0
M  V30 5665 H 529.365 6.97129 3.48758 0
M  V30 5666 N 533.594 0.0601682 1.57485 0
M  V30 5667 C 534.542 -0.928899 2.13247 0
M  V30 5668 C 535.536 -1.31616 1.06647 0
M  V30 5669 O 536.742 -1.29476 1.25043 0
M  V30 5670 H 533.117 -0.317455 0.681708 0
M  V30 5671 H 535.088 -0.433566 2.95233 0
M  V30 5672 C 533.837 -2.19121 2.69965 0
M  V30 5673 H 533.16 -1.90204 3.51657 0
M  V30 5674 H 534.6 -2.86465 3.12592 0
M  V30 5675 C 533.059 -2.94195 1.64168 0
M  V30 5676 O 533.589 -3.87468 1.05978 0
M  V30 5677 N 531.795 -2.57089 1.35476 0
M  V30 5678 H 531.342 -1.81314 1.82984 0
M  V30 5679 H 531.3 -3.07624 0.649196 0
M  V30 5680 N 535.072 -1.5615 -0.213296 0
M  V30 5681 C 536.022 -1.89485 -1.26804 0
M  V30 5682 C 537.006 -0.758713 -1.41889 0
M  V30 5683 O 538.198 -1.02127 -1.44565 0
M  V30 5684 C 535.327 -2.22219 -2.61675 0
M  V30 5685 C 534.413 -3.42245 -2.50458 0
M  V30 5686 N 534.804 -4.60645 -2.089 0
M  V30 5687 C 533.102 -3.46023 -2.81397 0
M  V30 5688 C 533.803 -5.42805 -2.09135 0
M  V30 5689 N 532.779 -4.82732 -2.49941 0
M  V30 5690 H 536.581 -2.78537 -0.937771 0
M  V30 5691 H 534.095 -1.56826 -0.421824 0
M  V30 5692 H 536.092 -2.44278 -3.37837 0
M  V30 5693 H 534.752 -1.34484 -2.95541 0
M  V30 5694 H 535.763 -4.85651 -1.79899 0
M  V30 5695 H 532.44 -2.68654 -3.1958 0
M  V30 5696 H 533.83 -6.47601 -1.79059 0
M  V30 5697 N 536.55 0.480323 -1.50102 0
M  V30 5698 C 537.961 1.06142 -1.53593 0
M  V30 5699 C 538.312 1.93335 -0.334055 0
M  V30 5700 O 537.437 2.09188 0.55403 0
M  V30 5701 C 538.032 1.9317 -2.78336 0
M  V30 5702 C 536.591 2.46405 -2.84538 0
M  V30 5703 C 535.738 1.24521 -2.4777 0
M  V30 5704 H 538.689 0.26333 -1.565 0
M  V30 5705 H 538.71 2.78123 -2.59669 0
M  V30 5706 H 538.222 1.29683 -3.65792 0
M  V30 5707 H 536.323 3.13472 -2.01411 0
M  V30 5708 H 536.436 2.82143 -3.87211 0
M  V30 5709 H 534.8 1.57706 -2.00003 0
M  V30 5710 H 535.583 0.627102 -3.37524 0
M  V30 5711 N 538.028 1.39524 0.732853 0
M  V30 5712 C 539.258 1.3994 1.51988 0
M  V30 5713 C 539.666 -0.00727973 1.89199 0
M  V30 5714 O 539.009 -0.989521 1.54771 0
M  V30 5715 C 539.071 2.21026 2.83527 0
M  V30 5716 C 538.735 3.69633 2.68738 0
M  V30 5717 C 539.732 4.62665 2.37143 0
M  V30 5718 C 537.417 4.13244 2.85542 0
M  V30 5719 C 539.411 5.97291 2.22536 0
M  V30 5720 C 537.098 5.47945 2.70554 0
M  V30 5721 C 538.096 6.39783 2.39097 0
M  V30 5722 O 537.784 7.72002 2.24204 0
M  V30 5723 H 537.516 0.479795 0.476206 0
M  V30 5724 H 540.07 1.8399 0.913054 0
M  V30 5725 H 538.3 1.71728 3.46477 0
M  V30 5726 H 539.989 2.13594 3.45156 0
M  V30 5727 H 540.755 4.30272 2.2381 0
M  V30 5728 H 536.634 3.42094 3.09019 0
M  V30 5729 H 540.178 6.68939 1.97905 0
M  V30 5730 H 536.075 5.79928 2.83466 0
M  V30 5731 H 536.843 7.8275 2.39258 0
M  V30 5732 N 539.506 -0.963266 1.24736 0
M  V30 5733 C 540.755 -1.70115 1.08369 0
M  V30 5734 C 541.068 -1.91939 -0.376688 0
M  V30 5735 O 542.274 -2.6334 -0.660624 0
M  V30 5736 C 540.73 -3.06218 1.89099 0
M  V30 5737 C 540.338 -2.92221 3.39574 0
M  V30 5738 C 542.082 -3.83848 1.81275 0
M  V30 5739 C 539.989 -4.23662 4.12631 0
M  V30 5740 H 538.919 -0.637944 0.401924 0
M  V30 5741 H 541.57 -1.07304 1.48856 0
M  V30 5742 H 539.952 -3.69884 1.41429 0
M  V30 5743 H 541.126 -2.37541 3.94856 0
M  V30 5744 H 539.441 -2.28054 3.48397 0
M  V30 5745 H 542.038 -4.81188 2.33158 0
M  V30 5746 H 542.381 -4.08949 0.778895 0
M  V30 5747 H 542.914 -3.26918 2.26649 0
M  V30 5748 H 539.653 -4.03753 5.16395 0
M  V30 5749 H 539.173 -4.78141 3.62135 0
M  V30 5750 H 540.852 -4.92256 4.19873 0
M  V30 5751 N 540.985 -1.06182 -1.16461 0
M  V30 5752 C 541.932 -0.671613 -2.20812 0
M  V30 5753 C 542.902 0.331186 -1.62765 0
M  V30 5754 O 544.087 0.22033 -1.89524 0
M  V30 5755 C 541.227 -0.063029 -3.45042 0
M  V30 5756 C 540.34 -1.11587 -4.1734 0
M  V30 5757 C 539.475 -0.473546 -5.29085 0
M  V30 5758 C 538.514 -1.51 -5.93182 0
M  V30 5759 N 537.651 -0.891118 -6.96422 0
M  V30 5760 H 542.491 -1.56589 -2.53542 0
M  V30 5761 H 540.028 -0.782951 -1.24532 0
M  V30 5762 H 541.986 0.307344 -4.16066 0
M  V30 5763 H 540.616 0.794663 -3.12866 0
M  V30 5764 H 539.668 -1.60396 -3.44931 0
M  V30 5765 H 540.98 -1.90221 -4.61104 0
M  V30 5766 H 540.134 -0.0501432 -6.06679 0
M  V30 5767 H 538.873 0.344687 -4.8648 0
M  V30 5768 H 537.878 -1.94331 -5.14311 0
M  V30 5769 H 539.103 -2.33031 -6.37866 0
M  V30 5770 H 537.049 -0.0935753 -6.55933 0
M  V30 5771 H 536.966 -1.61486 -7.38551 0
M  V30 5772 H 538.234 -0.492822 -7.77941 0
M  V30 5773 N 542.463 1.3308 -0.844243 0
M  V30 5774 C 543.396 2.27075 -0.226279 0
M  V30 5775 C 544.374 1.49911 0.629716 0
M  V30 5776 O 545.558 1.79068 0.588803 0
M  V30 5777 C 542.685 3.31767 0.681782 0
M  V30 5778 C 541.731 4.26384 -0.0994565 0
M  V30 5779 S 542.564 5.15186 -1.46094 0
M  V30 5780 C 543.72 6.23405 -0.558319 0
M  V30 5781 H 543.953 2.79141 -1.02312 0
M  V30 5782 H 541.486 1.40452 -0.641292 0
M  V30 5783 H 543.444 3.92566 1.20008 0
M  V30 5784 H 542.105 2.78507 1.45234 0
M  V30 5785 H 541.298 5.00514 0.591733 0
M  V30 5786 H 540.9 3.69949 -0.548991 0
M  V30 5787 H 543.192 6.77069 0.241672 0
M  V30 5788 H 544.135 6.96619 -1.26995 0
M  V30 5789 H 544.543 5.64333 -0.13728 0
M  V30 5790 N 543.941 0.601185 1.45683 0
M  V30 5791 C 545.187 0.0940202 2.02582 0
M  V30 5792 C 545.52 -1.26972 1.46941 0
M  V30 5793 O 544.795 -1.83613 0.641612 0
M  V30 5794 C 545.078 0.0481715 3.60068 0
M  V30 5795 C 544.931 1.44212 4.26055 0
M  V30 5796 C 546.25 -0.642975 4.35378 0
M  V30 5797 H 543.369 0.0356404 0.736138 0
M  V30 5798 H 546.011 0.771929 1.73612 0
M  V30 5799 H 544.161 -0.529128 3.8488 0
M  V30 5800 H 545.833 2.06601 4.12449 0
M  V30 5801 H 544.076 2.00465 3.84703 0
M  V30 5802 H 544.747 1.36234 5.34925 0
M  V30 5803 H 547.223 -0.152351 4.15821 0
M  V30 5804 H 546.099 -0.644141 5.45107 0
M  V30 5805 H 546.36 -1.70785 4.0778 0
M  V30 5806 N 545.419 -1.53889 0.339982 0
M  V30 5807 C 546.352 -2.21187 -0.561405 0
M  V30 5808 C 547.33 -1.19463 -1.10306 0
M  V30 5809 O 548.514 -1.48268 -1.164 0
M  V30 5810 C 545.641 -2.8865 -1.77198 0
M  V30 5811 C 544.687 -4.04232 -1.3601 0
M  V30 5812 S 545.52 -5.34129 -0.382909 0
M  V30 5813 C 546.676 -6.05094 -1.60039 0
M  V30 5814 H 546.909 -2.97298 0.0102092 0
M  V30 5815 H 544.442 -1.53901 0.124056 0
M  V30 5816 H 546.4 -3.28138 -2.4665 0
M  V30 5817 H 545.061 -2.12311 -2.3148 0
M  V30 5818 H 544.254 -4.50358 -2.2626 0
M  V30 5819 H 543.856 -3.66503 -0.745098 0
M  V30 5820 H 546.148 -6.2827 -2.53541 0
M  V30 5821 H 547.091 -6.98182 -1.18099 0
M  V30 5822 H 547.499 -5.35207 -1.79483 0
M  V30 5823 N 546.897 -0.0685191 -1.57451 0
M  V30 5824 C 547.807 0.914677 -2.16034 0
M  V30 5825 C 548.823 1.32938 -1.12265 0
M  V30 5826 O 549.999 1.40275 -1.44516 0
M  V30 5827 C 547.064 2.16519 -2.70777 0
M  V30 5828 C 546.125 1.80721 -3.89408 0
M  V30 5829 C 545.358 2.9981 -4.41531 0
M  V30 5830 O 545.581 4.13727 -3.92666 0
M  V30 5831 O 544.515 2.79817 -5.32903 0
M  V30 5832 H 548.341 0.446364 -3.00402 0
M  V30 5833 H 545.926 0.154367 -1.486 0
M  V30 5834 H 547.808 2.89856 -3.05878 0
M  V30 5835 H 546.483 2.62454 -1.89471 0
M  V30 5836 H 545.39 1.04646 -3.59166 0
M  V30 5837 H 546.723 1.39571 -4.71997 0
M  V30 5838 N 548.375 1.56261 0.205012 0
M  V30 5839 C 549.307 1.90266 1.27795 0
M  V30 5840 C 550.32 0.792397 1.42214 0
M  V30 5841 O 551.509 1.07077 1.42817 0
M  V30 5842 C 548.609 2.11074 2.65143 0
M  V30 5843 C 547.782 3.42176 2.7246 0
M  V30 5844 C 546.841 3.52216 3.90936 0
M  V30 5845 O 545.867 4.25119 3.78501 0
M  V30 5846 N 547.069 2.84573 5.05963 0
M  V30 5847 H 549.834 2.82896 0.989434 0
M  V30 5848 H 547.395 1.57008 0.394981 0
M  V30 5849 H 549.387 2.15089 3.4281 0
M  V30 5850 H 547.957 1.2499 2.86524 0
M  V30 5851 H 547.177 3.50116 1.81142 0
M  V30 5852 H 548.465 4.28509 2.74331 0
M  V30 5853 H 547.863 2.25152 5.18963 0
M  V30 5854 H 546.42 2.94228 5.81613 0
M  V30 5855 N 549.853 -0.472356 1.50355 0
M  V30 5856 C 551.101 -1.22211 1.60962 0
M  V30 5857 C 551.422 -1.92497 0.311439 0
M  V30 5858 O 550.692 -1.8405 -0.671002 0
M  V30 5859 H 549.272 -0.454092 0.593135 0
M  V30 5860 H 551.934 -0.544977 1.87126 0
M  V30 5861 H 551.03 -1.9707 2.42012 0
M  V30 5862 N 551.331 -1.39911 -0.725443 0
M  V30 5863 C 552.608 -1.28158 -1.47766 0
M  V30 5864 C 552.988 0.104545 -2.10841 0
M  V30 5865 O 552.336 1.11657 -1.99361 0
M  V30 5866 C 552.546 -2.41306 -2.52135 0
M  V30 5867 C 553.894 -2.81076 -3.18247 0
M  V30 5868 O 554.918 -2.40827 -2.62452 0
M  V30 5869 O 553.777 -3.50581 -4.19231 0
M  V30 5870 H 550.871 -0.502761 -0.656628 0
M  V30 5871 H 553.417 -1.51808 -0.758456 0
M  V30 5872 H 552.189 -3.33932 -2.03974 0
M  V30 5873 H 551.812 -2.19374 -3.31603 0
M  V30 5874 N 552.809 0.956637 -1.25245 0
M  V30 5875 C 554.055 1.70413 -1.11044 0
M  V30 5876 C 554.41 1.89275 0.345377 0
M  V30 5877 O 553.703 1.45116 1.25107 0
M  V30 5878 C 553.897 3.08996 -1.79601 0
M  V30 5879 C 553.726 3.03654 -3.317 0
M  V30 5880 C 552.496 3.07521 -4.00947 0
M  V30 5881 C 554.694 2.84975 -4.28128 0
M  V30 5882 N 552.676 2.92316 -5.39838 0
M  V30 5883 C 554.047 2.7818 -5.5409 0
M  V30 5884 C 556.102 2.6964 -4.18568 0
M  V30 5885 C 554.805 2.57616 -6.71585 0
M  V30 5886 C 556.831 2.50447 -5.35752 0
M  V30 5887 C 556.193 2.4437 -6.60653 0
M  V30 5888 H 552.292 0.631642 -0.461035 0
M  V30 5889 H 554.876 1.13331 -1.58317 0
M  V30 5890 H 553.047 3.64248 -1.34826 0
M  V30 5891 H 554.779 3.72515 -1.58161 0
M  V30 5892 H 551.534 3.16635 -3.52192 0
M  V30 5893 H 551.958 2.87923 -6.12723 0
M  V30 5894 H 556.6 2.73113 -3.22752 0
M  V30 5895 H 554.318 2.52885 -7.67512 0
M  V30 5896 H 557.904 2.39509 -5.30214 0
M  V30 5897 H 556.784 2.29712 -7.49801 0
M  V30 5898 N 554.287 1.06798 1.15896 0
M  V30 5899 C 555.217 0.704677 2.22613 0
M  V30 5900 C 556.198 -0.305252 1.67339 0
M  V30 5901 O 557.383 -0.179247 1.93371 0
M  V30 5902 C 554.513 0.0957325 3.47168 0
M  V30 5903 C 553.467 1.0322 4.15367 0
M  V30 5904 C 552.793 0.286293 5.33933 0
M  V30 5905 C 554.093 2.36341 4.65768 0
M  V30 5906 H 555.787 1.59688 2.53259 0
M  V30 5907 H 553.333 0.769257 1.21731 0
M  V30 5908 H 555.286 -0.170333 4.21056 0
M  V30 5909 H 554.01 -0.831516 3.15838 0
M  V30 5910 H 552.669 1.28309 3.43413 0
M  V30 5911 H 552.317 -0.644237 4.98857 0
M  V30 5912 H 552.017 0.910436 5.80504 0
M  V30 5913 H 553.541 0.0278938 6.10594 0
M  V30 5914 H 554.955 2.1561 5.31211 0
M  V30 5915 H 553.352 2.94299 5.2298 0
M  V30 5916 H 554.422 2.99047 3.81705 0
M  V30 5917 N 555.766 -1.3263 0.851289 0
M  V30 5918 C 557.015 -1.96633 0.449267 0
M  V30 5919 C 557.328 -1.68131 -0.999562 0
M  V30 5920 O 558.534 -2.25845 -1.50685 0
M  V30 5921 C 556.99 -3.51946 0.752446 0
M  V30 5922 C 556.598 -3.89311 2.21678 0
M  V30 5923 C 558.342 -4.22437 0.417983 0
M  V30 5924 C 556.249 -5.37655 2.46336 0
M  V30 5925 H 555.179 -0.735888 0.164269 0
M  V30 5926 H 557.83 -1.51073 1.0416 0
M  V30 5927 H 556.212 -3.95899 0.0895858 0
M  V30 5928 H 557.386 -3.56378 2.92115 0
M  V30 5929 H 555.701 -3.31836 2.51543 0
M  V30 5930 H 558.298 -5.31549 0.579674 0
M  V30 5931 H 558.641 -4.11349 -0.640115 0
M  V30 5932 H 559.174 -3.84057 1.03659 0
M  V30 5933 H 555.913 -5.5376 3.50757 0
M  V30 5934 H 555.433 -5.72005 1.80473 0
M  V30 5935 H 557.112 -6.04695 2.30115 0
M  V30 5936 N 557.244 -0.608902 -1.45362 0
M  V30 5937 C 558.492 -0.104401 -2.0183 0
M  V30 5938 C 558.813 1.27007 -1.47967 0
M  V30 5939 O 558.083 1.83924 -0.674455 0
M  V30 5940 H 556.663 -0.0356042 -0.746151 0
M  V30 5941 H 559.325 -0.790596 -1.78145 0
M  V30 5942 H 558.421 -0.0551793 -3.12051 0
M  V30 5943 N 558.722 1.53707 -0.348139 0
M  V30 5944 C 559.97 2.00591 0.246478 0
M  V30 5945 C 560.291 1.23753 1.50699 0
M  V30 5946 O 559.561 0.345964 1.92821 0
M  V30 5947 H 558.141 0.741053 0.0940679 0
M  V30 5948 H 560.803 1.89139 -0.470354 0
M  V30 5949 H 559.899 3.08297 0.485714 0
M  V30 5950 N 560.2 0.0768682 1.57412 0
M  V30 5951 C 561.477 -0.632359 1.85096 0
M  V30 5952 C 561.857 -1.87479 0.9703 0
M  V30 5953 O 561.205 -2.28469 0.0379062 0
M  V30 5954 C 561.415 -0.965174 3.35388 0
M  V30 5955 C 562.763 -1.33648 4.03018 0
M  V30 5956 O 563.787 -1.05675 3.40164 0
M  V30 5957 O 562.646 -1.85959 5.13889 0
M  V30 5958 H 559.74 -0.314574 0.764835 0
M  V30 5959 H 562.286 0.108184 1.69355 0
M  V30 5960 H 561.058 -0.0829745 3.91212 0
M  V30 5961 H 560.681 -1.76231 3.5641 0
M  V30 5962 N 561.678 -1.56367 -0.196722 0
M  V30 5963 C 562.608 -1.97442 -1.24655 0
M  V30 5964 C 563.589 -0.846147 -1.47561 0
M  V30 5965 O 564.774 -1.11035 -1.59326 0
M  V30 5966 C 561.904 -2.31253 -2.59112 0
M  V30 5967 C 560.858 -3.46804 -2.50821 0
M  V30 5968 C 560.184 -3.66286 -3.89536 0
M  V30 5969 C 561.484 -4.8104 -2.03465 0
M  V30 5970 H 563.178 -2.85388 -0.905216 0
M  V30 5971 H 560.724 -1.37304 -0.434002 0
M  V30 5972 H 562.677 -2.58583 -3.32736 0
M  V30 5973 H 561.401 -1.40188 -2.94983 0
M  V30 5974 H 560.06 -3.19563 -1.79653 0
M  V30 5975 H 559.708 -2.72555 -4.22756 0
M  V30 5976 H 559.408 -4.4402 -3.84864 0
M  V30 5977 H 560.932 -3.9599 -4.64784 0
M  V30 5978 H 562.346 -5.07411 -2.66846 0
M  V30 5979 H 560.743 -5.62232 -2.09798 0
M  V30 5980 H 561.813 -4.74732 -0.98781 0
M  V30 5981 N 563.156 0.464375 -1.50603 0
M  V30 5982 C 564.088 1.57916 -1.66118 0
M  V30 5983 C 565.101 1.53497 -0.54246 0
M  V30 5984 O 566.29 1.58763 -0.815877 0
M  V30 5985 C 563.39 2.96809 -1.63577 0
M  V30 5986 C 562.563 3.26026 -2.91592 0
M  V30 5987 C 561.622 4.44506 -2.81604 0
M  V30 5988 O 560.648 4.44484 -3.55559 0
M  V30 5989 N 561.85 5.46549 -1.95614 0
M  V30 5990 H 564.615 1.45022 -2.62276 0
M  V30 5991 H 562.176 0.652903 -1.48151 0
M  V30 5992 H 564.168 3.74048 -1.54499 0
M  V30 5993 H 562.738 3.03438 -0.751262 0
M  V30 5994 H 561.958 2.37337 -3.14746 0
M  V30 5995 H 563.246 3.42361 -3.76386 0
M  V30 5996 H 562.644 5.49391 -1.34854 0
M  V30 5997 H 561.201 6.22746 -1.92435 0
M  V30 5998 N 564.634 1.40294 0.718013 0
M  V30 5999 C 565.88 1.38645 1.48005 0
M  V30 6000 C 566.213 -0.0121202 1.94196 0
M  V30 6001 O 565.488 -0.980309 1.67989 0
M  V30 6002 C 565.771 2.37379 2.70782 0
M  V30 6003 C 565.624 3.8625 2.30501 0
M  V30 6004 C 566.943 2.33685 3.72933 0
M  V30 6005 H 564.062 0.504928 0.536858 0
M  V30 6006 H 566.704 1.71411 0.819649 0
M  V30 6007 H 564.854 2.09568 3.27129 0
M  V30 6008 H 566.526 4.24879 1.79655 0
M  V30 6009 H 564.769 4.02202 1.6253 0
M  V30 6010 H 565.44 4.50847 3.18498 0
M  V30 6011 H 567.916 2.58314 3.2621 0
M  V30 6012 H 566.792 3.0482 4.56482 0
M  V30 6013 H 567.053 1.34765 4.21059 0
M  V30 6014 N 566.112 -0.949982 1.2575 0
M  V30 6015 C 567.042 -2.06483 1.09028 0
M  V30 6016 C 568.023 -1.701 -0.00201532 0
M  V30 6017 O 569.208 -1.93469 0.168383 0
M  V30 6018 C 566.338 -3.39899 0.71316 0
M  V30 6019 C 565.292 -3.90309 1.75621 0
M  V30 6020 C 564.618 -5.20274 1.23365 0
M  V30 6021 C 565.918 -4.16169 3.15596 0
M  V30 6022 H 567.612 -2.20731 2.02283 0
M  V30 6023 H 565.158 -1.06066 0.973964 0
M  V30 6024 H 567.111 -4.17346 0.58309 0
M  V30 6025 H 565.835 -3.25602 -0.255091 0
M  V30 6026 H 564.494 -3.15035 1.8748 0
M  V30 6027 H 564.142 -5.02351 0.255491 0
M  V30 6028 H 563.842 -5.54971 1.93082 0
M  V30 6029 H 565.366 -6.00314 1.11607 0
M  V30 6030 H 566.78 -4.84259 3.06864 0
M  V30 6031 H 565.177 -4.62131 3.82825 0
M  V30 6032 H 566.247 -3.22273 3.6231 0
M  V30 6033 N 567.59 -1.07411 -1.15328 0
M  V30 6034 C 568.867 -0.710732 -1.82231 0
M  V30 6035 C 569.247 0.806732 -1.95077 0
M  V30 6036 O 568.595 1.72139 -1.50268 0
M  V30 6037 C 568.805 -1.42586 -3.18544 0
M  V30 6038 C 570.153 -1.57836 -3.94174 0
M  V30 6039 O 571.177 -1.38669 -3.281 0
M  V30 6040 O 570.036 -1.8938 -5.12638 0
M  V30 6041 H 567.13 -0.25297 -0.78736 0
M  V30 6042 H 569.676 -1.17508 -1.22434 0
M  V30 6043 H 568.448 -2.46008 -3.04296 0
M  V30 6044 H 568.071 -0.952332 -3.86026 0
M  V30 6045 N 569.068 1.32177 -0.85831 0
M  V30 6046 C 570.484 1.49873 -0.548656 0
M  V30 6047 C 570.684 1.79278 0.919874 0
M  V30 6048 O 569.74 1.86451 1.70271 0
M  V30 6049 C 571.053 2.64043 -1.4388 0
M  V30 6050 C 572.601 2.77928 -1.43961 0
M  V30 6051 C 573.076 3.95182 -2.31506 0
M  V30 6052 N 574.567 4.0245 -2.29321 0
M  V30 6053 C 575.302 4.9242 -2.93786 0
M  V30 6054 N 574.798 5.87373 -3.67376 0
M  V30 6055 N 576.591 4.85572 -2.83155 0
M  V30 6056 H 568.742 1.11357 -1.80868 0
M  V30 6057 H 571.005 0.549175 -0.772729 0
M  V30 6058 H 570.711 2.49055 -2.48324 0
M  V30 6059 H 570.585 3.59912 -1.12885 0
M  V30 6060 H 572.972 2.92338 -0.402813 0
M  V30 6061 H 573.053 1.82762 -1.78974 0
M  V30 6062 H 572.697 3.81531 -3.35256 0
M  V30 6063 H 572.627 4.89633 -1.93823 0
M  V30 6064 H 575.118 3.34507 -1.75822 0
M  V30 6065 H 575.431 6.52728 -4.13722 0
M  V30 6066 H 573.776 5.87388 -3.71484 0
M  V30 6067 H 576.967 4.10363 -2.25211 0
M  V30 6068 H 577.14 5.55486 -3.33676 0
M  V30 6069 N 570.547 0.616602 1.45037 0
M  V30 6070 C 571.793 0.115501 2.02471 0
M  V30 6071 C 572.126 -1.25406 1.4828 0
M  V30 6072 O 571.401 -1.82922 0.661051 0
M  V30 6073 C 571.684 0.0863588 3.59996 0
M  V30 6074 C 571.537 1.48723 4.24501 0
M  V30 6075 C 572.856 -0.596762 4.36035 0
M  V30 6076 H 569.975 0.0434461 0.735718 0
M  V30 6077 H 572.617 0.7903 1.72784 0
M  V30 6078 H 570.767 -0.488277 3.85419 0
M  V30 6079 H 572.439 2.10964 4.10234 0
M  V30 6080 H 570.682 2.04534 3.82555 0
M  V30 6081 H 571.353 1.419 5.3345 0
M  V30 6082 H 573.829 -0.10824 4.15959 0
M  V30 6083 H 572.705 -0.586289 5.4576 0
M  V30 6084 H 572.966 -1.66451 4.09569 0
M  V30 6085 N 572.025 -1.5352 0.356285 0
M  V30 6086 C 573.255 -2.05236 -0.236983 0
M  V30 6087 C 573.663 -1.23016 -1.43749 0
M  V30 6088 O 573.006 -0.2615 -1.81829 0
M  V30 6089 C 573.068 -3.52549 -0.7035 0
M  V30 6090 C 572.732 -4.55425 0.379059 0
M  V30 6091 C 573.729 -5.0524 1.22592 0
M  V30 6092 C 571.414 -4.99425 0.536638 0
M  V30 6093 C 573.408 -5.97647 2.21578 0
M  V30 6094 C 571.095 -5.9164 1.52988 0
M  V30 6095 C 572.093 -6.4064 2.3679 0
M  V30 6096 O 571.781 -7.31039 3.34421 0
M  V30 6097 H 571.513 -0.674346 -0.047254 0
M  V30 6098 H 574.067 -1.98962 0.510238 0
M  V30 6099 H 572.297 -3.56331 -1.50217 0
M  V30 6100 H 573.986 -3.87171 -1.21873 0
M  V30 6101 H 574.752 -4.72002 1.11532 0
M  V30 6102 H 570.631 -4.60879 -0.105834 0
M  V30 6103 H 574.175 -6.35816 2.87025 0
M  V30 6104 H 570.072 -6.24293 1.64099 0
M  V30 6105 H 570.84 -7.49009 3.30041 0
M  V30 6106 N 573.503 -0.0852151 -1.57369 0
M  V30 6107 C 574.749 0.575588 -1.95086 0
M  V30 6108 C 575.104 1.66402 -0.96582 0
M  V30 6109 O 574.397 1.91598 0.00978463 0
M  V30 6110 C 574.591 1.18482 -3.3719 0
M  V30 6111 C 574.42 0.156928 -4.49426 0
M  V30 6112 C 573.19 -0.263126 -5.04614 0
M  V30 6113 C 575.388 -0.611068 -5.10657 0
M  V30 6114 N 573.37 -1.28032 -6.00401 0
M  V30 6115 C 574.741 -1.48036 -6.02068 0
M  V30 6116 C 576.796 -0.665669 -4.9343 0
M  V30 6117 C 575.499 -2.39943 -6.781 0
M  V30 6118 C 577.525 -1.5723 -5.70116 0
M  V30 6119 C 576.887 -2.42924 -6.61186 0
M  V30 6120 H 572.986 0.181249 -0.760705 0
M  V30 6121 H 575.57 -0.165484 -1.93995 0
M  V30 6122 H 573.741 1.89575 -3.38992 0
M  V30 6123 H 575.473 1.80718 -3.62109 0
M  V30 6124 H 572.228 0.122664 -4.73441 0
M  V30 6125 H 572.652 -1.78682 -6.52994 0
M  V30 6126 H 577.294 -0.0173214 -4.22796 0
M  V30 6127 H 575.012 -3.05807 -7.48002 0
M  V30 6128 H 578.598 -1.61956 -5.58804 0
M  V30 6129 H 577.478 -3.1194 -7.19488 0
M  V30 6130 N 574.981 1.5647 0.188427 0
M  V30 6131 C 575.929 1.95971 1.25293 0
M  V30 6132 C 576.923 0.846047 1.4676 0
M  V30 6133 O 578.129 1.03109 1.47542 0
M  V30 6134 H 574.504 0.623253 0.420784 0
M  V30 6135 H 576.475 2.84731 0.892792 0
M  V30 6136 C 575.224 2.32116 2.58877 0
M  V30 6137 H 574.547 3.17341 2.43176 0
M  V30 6138 H 575.987 2.63613 3.3209 0
M  V30 6139 C 574.446 1.15823 3.16365 0
M  V30 6140 O 574.976 0.436785 3.99318 0
M  V30 6141 N 573.182 0.933278 2.75206 0
M  V30 6142 H 572.729 1.52169 2.07852 0
M  V30 6143 H 572.687 0.156976 3.14008 0
M  V30 6144 N 576.459 -0.456382 1.50847 0
M  V30 6145 C 577.736 -1.21739 1.53098 0
M  V30 6146 C 578.116 -2.09179 0.284132 0
M  V30 6147 O 577.464 -2.16466 -0.731773 0
M  V30 6148 C 577.674 -2.03573 2.83477 0
M  V30 6149 C 579.022 -2.61264 3.34703 0
M  V30 6150 O 580.046 -2.13802 2.84898 0
M  V30 6151 O 578.905 -3.47779 4.21559 0
M  V30 6152 H 575.999 -0.553219 0.614718 0
M  V30 6153 H 578.545 -0.467003 1.63148 0
M  V30 6154 H 577.317 -1.39232 3.65691 0
M  V30 6155 H 576.94 -2.85716 2.76499 0
M  V30 6156 N 577.937 -1.40673 -0.710563 0
M  V30 6157 C 579.185 -1.38947 -1.46759 0
M  V30 6158 C 579.506 0.00572879 -1.94999 0
M  V30 6159 O 578.776 0.961358 -1.70689 0
M  V30 6160 H 577.356 -0.5114 -0.544499 0
M  V30 6161 H 580.018 -1.75773 -0.842012 0
M  V30 6162 H 579.114 -2.06745 -2.33801 0
M  V30 6163 N 579.415 0.9433 -1.26252 0
M  V30 6164 C 580.345 2.05902 -1.10122 0
M  V30 6165 C 581.326 1.70099 -0.00700552 0
M  V30 6166 O 582.511 1.93377 -0.178641 0
M  V30 6167 C 579.641 3.39516 -0.731175 0
M  V30 6168 C 578.595 3.89372 -1.77688 0
M  V30 6169 C 577.921 5.19613 -1.26122 0
M  V30 6170 C 579.221 4.14489 -3.17799 0
M  V30 6171 H 580.915 2.19655 -2.03451 0
M  V30 6172 H 578.461 1.05548 -0.979576 0
M  V30 6173 H 580.414 4.17031 -0.605215 0
M  V30 6174 H 579.138 3.25733 0.23782 0
M  V30 6175 H 577.797 3.14036 -1.89148 0
M  V30 6176 H 577.445 5.02208 -0.282128 0
M  V30 6177 H 577.145 5.53939 -1.96023 0
M  V30 6178 H 578.669 5.99713 -1.14789 0
M  V30 6179 H 580.083 4.82625 -3.09428 0
M  V30 6180 H 578.48 4.60094 -3.85271 0
M  V30 6181 H 579.55 3.20347 -3.64014 0
M  V30 6182 N 580.893 1.08022 1.14757 0
M  V30 6183 C 582.17 0.720386 1.81851 0
M  V30 6184 C 582.55 -0.796375 1.95502 0
M  V30 6185 O 581.898 -1.71339 1.51179 0
M  V30 6186 C 582.108 1.44273 3.17783 0
M  V30 6187 C 583.456 1.59925 3.93331 0
M  V30 6188 O 584.48 1.40407 3.2736 0
M  V30 6189 O 583.339 1.92096 5.11626 0
M  V30 6190 H 580.433 0.257142 0.786007 0
M  V30 6191 H 582.979 1.18155 1.21809 0
M  V30 6192 H 581.751 2.47618 3.02987 0
M  V30 6193 H 581.374 0.97279 3.85516 0
M  V30 6194 N 582.371 -1.3172 0.865308 0
M  V30 6195 C 583.303 -2.27545 0.274906 0
M  V30 6196 C 584.316 -1.52887 -0.559413 0
M  V30 6197 O 585.505 -1.74361 -0.382166 0
M  V30 6198 C 582.605 -3.33006 -0.629286 0
M  V30 6199 C 581.778 -4.37063 0.171553 0
M  V30 6200 C 580.837 -5.22044 -0.660052 0
M  V30 6201 O 579.863 -5.69129 -0.0897527 0
M  V30 6202 N 581.065 -5.45946 -1.97289 0
M  V30 6203 H 583.83 -2.78848 1.09836 0
M  V30 6204 H 581.391 -1.44693 0.726331 0
M  V30 6205 H 583.383 -3.86772 -1.19121 0
M  V30 6206 H 581.953 -2.81782 -1.35342 0
M  V30 6207 H 581.173 -3.83436 0.914919 0
M  V30 6208 H 582.461 -5.03662 0.721235 0
M  V30 6209 H 581.859 -5.0944 -2.45942 0
M  V30 6210 H 580.416 -6.02665 -2.4827 0
M  V30 6211 N 583.85 -0.624285 -1.44708 0
M  V30 6212 C 585.08 -0.132726 -2.06173 0
M  V30 6213 C 585.488 1.19513 -1.46674 0
M  V30 6214 O 584.831 1.74254 -0.581491 0
M  V30 6215 C 584.893 0.0636732 -3.59444 0
M  V30 6216 C 584.557 -1.18496 -4.4137 0
M  V30 6217 C 585.553 -2.10706 -4.75288 0
M  V30 6218 C 583.239 -1.41846 -4.81856 0
M  V30 6219 C 585.233 -3.24582 -5.48567 0
M  V30 6220 C 582.92 -2.5602 -5.54885 0
M  V30 6221 C 583.918 -3.47215 -5.88159 0
M  V30 6222 O 583.606 -4.59399 -6.59703 0
M  V30 6223 H 583.338 -0.0737313 -0.671967 0
M  V30 6224 H 585.892 -0.856789 -1.86677 0
M  V30 6225 H 584.122 0.842809 -3.77404 0
M  V30 6226 H 585.811 0.508924 -4.02697 0
M  V30 6227 H 586.577 -1.93898 -4.44554 0
M  V30 6228 H 582.456 -0.717556 -4.55381 0
M  V30 6229 H 586 -3.95785 -5.74456 0
M  V30 6230 H 581.897 -2.72774 -5.85034 0
M  V30 6231 H 582.665 -4.58293 -6.78166 0
M  V30 6232 N 585.328 1.53329 -0.364422 0
M  V30 6233 C 586.744 1.59594 -0.0133165 0
M  V30 6234 C 586.944 1.37959 1.46865 0
M  V30 6235 O 586 1.18418 2.2301 0
M  V30 6236 C 587.313 2.97032 -0.468213 0
M  V30 6237 C 588.861 3.10138 -0.422334 0
M  V30 6238 C 589.336 4.49986 -0.853024 0
M  V30 6239 N 590.827 4.56098 -0.808037 0
M  V30 6240 C 591.562 5.62495 -1.11299 0
M  V30 6241 N 591.058 6.7665 -1.48717 0
M  V30 6242 N 592.851 5.52473 -1.03586 0
M  V30 6243 H 585.002 1.65644 -1.32951 0
M  V30 6244 H 587.265 0.77684 -0.543345 0
M  V30 6245 H 586.971 3.18 -1.5023 0
M  V30 6246 H 586.845 3.76918 0.145775 0
M  V30 6247 H 589.232 2.88881 0.602622 0
M  V30 6248 H 589.313 2.32263 -1.0718 0
M  V30 6249 H 588.957 4.7198 -1.87609 0
M  V30 6250 H 588.887 5.26289 -0.180819 0
M  V30 6251 H 591.378 3.74131 -0.532361 0
M  V30 6252 H 591.691 7.53776 -1.70415 0
M  V30 6253 H 590.036 6.78044 -1.52581 0
M  V30 6254 H 593.227 4.6217 -0.742736 0
M  V30 6255 H 593.4 6.35295 -1.27686 0
M  V30 6256 N 586.806 0.0935595 1.57322 0
M  V30 6257 C 587.736 -0.863062 2.16964 0
M  V30 6258 C 588.717 -1.29528 1.10256 0
M  V30 6259 O 589.902 -1.36245 1.38387 0
M  V30 6260 C 587.032 -2.12276 2.74875 0
M  V30 6261 C 585.986 -1.82921 3.86942 0
M  V30 6262 C 585.312 -3.15707 4.31548 0
M  V30 6263 C 586.612 -1.11737 5.10208 0
M  V30 6264 H 588.306 -0.366145 2.97153 0
M  V30 6265 H 585.852 -0.174673 1.42937 0
M  V30 6266 H 587.805 -2.79634 3.1525 0
M  V30 6267 H 586.529 -2.64248 1.91938 0
M  V30 6268 H 585.188 -1.17961 3.47103 0
M  V30 6269 H 584.836 -3.65563 3.45504 0
M  V30 6270 H 584.536 -2.96849 5.07104 0
M  V30 6271 H 586.06 -3.84226 4.74555 0
M  V30 6272 H 587.474 -1.69203 5.47762 0
M  V30 6273 H 585.871 -1.03064 5.91183 0
M  V30 6274 H 586.941 -0.0998818 4.84797 0
M  V30 6275 N 588.284 -1.56567 -0.180126 0
M  V30 6276 C 589.512 -1.85618 -0.913972 0
M  V30 6277 C 589.927 -0.677892 -1.7621 0
M  V30 6278 O 589.284 0.353171 -1.7905 0
M  V30 6279 C 589.335 -3.13619 -1.79793 0
M  V30 6280 O 589.056 -4.26906 -0.98402 0
M  V30 6281 C 590.557 -3.55954 -2.64219 0
M  V30 6282 H 587.777 -0.616043 -0.265954 0
M  V30 6283 H 590.321 -2.03681 -0.182872 0
M  V30 6284 H 588.476 -2.97409 -2.48247 0
M  V30 6285 H 588.89 -4.9989 -1.58776 0
M  V30 6286 H 590.364 -4.48444 -3.21873 0
M  V30 6287 H 590.841 -2.79653 -3.38661 0
M  V30 6288 H 591.447 -3.74746 -2.01111 0
M  V30 6289 N 589.762 0.448376 -1.51087 0
M  V30 6290 C 591.173 1.0286 -1.5581 0
M  V30 6291 C 591.524 1.92583 -0.374989 0
M  V30 6292 O 590.649 2.10316 0.509533 0
M  V30 6293 C 591.244 1.87223 -2.8237 0
M  V30 6294 C 589.803 2.40314 -2.897 0
M  V30 6295 C 588.95 1.19238 -2.50355 0
M  V30 6296 H 591.901 0.230075 -1.57023 0
M  V30 6297 H 591.922 2.72553 -2.6551 0
M  V30 6298 H 591.434 1.21894 -3.68461 0
M  V30 6299 H 589.535 3.09129 -2.08014 0
M  V30 6300 H 589.648 2.73866 -3.93108 0
M  V30 6301 H 588.012 1.53428 -2.03303 0
M  V30 6302 H 588.795 0.555367 -3.38778 0
M  V30 6303 N 591.24 1.41047 0.703093 0
M  V30 6304 C 592.468 1.4334 1.49202 0
M  V30 6305 C 592.883 0.0365596 1.88765 0
M  V30 6306 O 592.24 -0.942419 1.56284 0
M  V30 6307 C 592.291 2.33538 2.75939 0
M  V30 6308 O 592.012 3.67786 2.38045 0
M  V30 6309 C 593.513 2.44555 3.6974 0
M  V30 6310 H 590.733 0.488472 0.460039 0
M  V30 6311 H 593.277 1.85245 0.86629 0
M  V30 6312 H 591.432 1.94962 3.34766 0
M  V30 6313 H 591.846 4.15816 3.19683 0
M  V30 6314 H 593.32 3.11849 4.55471 0
M  V30 6315 H 593.797 1.47447 4.1371 0
M  V30 6316 H 594.403 2.83735 3.16819 0
M  V30 6317 N 592.718 -0.936591 1.26751 0
M  V30 6318 C 593.628 -2.06949 1.10496 0
M  V30 6319 C 594.644 -1.7396 0.037271 0
M  V30 6320 O 595.82 -1.99941 0.241944 0
M  V30 6321 C 592.885 -3.38612 0.744491 0
M  V30 6322 C 591.946 -3.85355 1.89209 0
M  V30 6323 C 591.179 -5.10735 1.54873 0
M  V30 6324 O 591.402 -5.68602 0.452546 0
M  V30 6325 O 590.336 -5.52632 2.38499 0
M  V30 6326 H 594.162 -2.23571 2.05547 0
M  V30 6327 H 591.747 -1.05428 1.05855 0
M  V30 6328 H 593.629 -4.17711 0.556396 0
M  V30 6329 H 592.304 -3.23218 -0.176582 0
M  V30 6330 H 591.211 -3.07182 2.13518 0
M  V30 6331 H 592.544 -4.05277 2.79305 0
M  V30 6332 N 594.196 -1.08629 -1.14182 0
M  V30 6333 C 595.126 -0.740003 -2.21464 0
M  V30 6334 C 596.107 0.278591 -1.67803 0
M  V30 6335 O 597.292 0.148461 -1.93632 0
M  V30 6336 C 594.422 -0.150952 -3.46972 0
M  V30 6337 C 593.376 -1.09815 -4.13672 0
M  V30 6338 C 592.702 -0.3712 -5.3341 0
M  V30 6339 C 594.002 -2.43722 -4.61949 0
M  V30 6340 H 595.696 -1.63697 -2.50686 0
M  V30 6341 H 593.242 -0.788526 -1.20492 0
M  V30 6342 H 595.195 0.103325 -4.21273 0
M  V30 6343 H 593.919 0.781164 -3.1712 0
M  V30 6344 H 592.578 -1.33756 -3.41328 0
M  V30 6345 H 592.226 0.564792 -4.99819 0
M  V30 6346 H 591.926 -1.00267 -5.78982 0
M  V30 6347 H 593.45 -0.12503 -6.10472 0
M  V30 6348 H 594.864 -2.24034 -5.27714 0
M  V30 6349 H 593.261 -3.02582 -5.18232 0
M  V30 6350 H 594.331 -3.05082 -3.76899 0
M  V30 6351 N 595.674 1.31259 -0.872281 0
M  V30 6352 C 596.621 2.28459 -0.327857 0
M  V30 6353 C 597.591 1.55831 0.574957 0
M  V30 6354 O 598.776 1.83965 0.506101 0
M  V30 6355 C 595.916 3.41985 0.462644 0
M  V30 6356 C 595.029 4.29458 -0.467949 0
M  V30 6357 C 594.164 5.30131 0.336903 0
M  V30 6358 C 593.203 6.0925 -0.58997 0
M  V30 6359 N 592.34 7.01872 0.178775 0
M  V30 6360 H 597.18 2.74414 -1.16193 0
M  V30 6361 H 594.717 1.34994 -0.584376 0
M  V30 6362 H 596.675 4.06547 0.936759 0
M  V30 6363 H 595.305 2.97134 1.2614 0
M  V30 6364 H 594.357 3.65318 -1.06052 0
M  V30 6365 H 595.669 4.84677 -1.17856 0
M  V30 6366 H 594.823 6.0038 0.873427 0
M  V30 6367 H 593.562 4.75573 1.08079 0
M  V30 6368 H 592.567 5.37889 -1.13823 0
M  V30 6369 H 593.792 6.65894 -1.33275 0
M  V30 6370 H 591.738 6.49721 0.905435 0
M  V30 6371 H 591.655 7.54522 -0.472452 0
M  V30 6372 H 592.923 7.76382 0.696454 0
M  V30 6373 N 597.152 0.631951 1.44375 0
M  V30 6374 C 598.084 -0.110911 2.28931 0
M  V30 6375 C 599.097 -0.808086 1.41329 0
M  V30 6376 O 600.286 -0.669396 1.65473 0
M  V30 6377 C 597.386 -1.17928 3.1772 0
M  V30 6378 C 596.559 -0.564458 4.33743 0
M  V30 6379 C 595.618 -1.5269 5.0356 0
M  V30 6380 O 594.644 -1.04372 5.59549 0
M  V30 6381 N 595.846 -2.86123 5.05088 0
M  V30 6382 H 598.611 0.614758 2.93327 0
M  V30 6383 H 596.172 0.473171 1.54831 0
M  V30 6384 H 598.164 -1.82348 3.61291 0
M  V30 6385 H 596.734 -1.80717 2.55069 0
M  V30 6386 H 595.954 0.258373 3.93352 0
M  V30 6387 H 597.242 -0.134355 5.08623 0
M  V30 6388 H 596.64 -3.27959 4.60933 0
M  V30 6389 H 595.197 -3.45901 5.52445 0
M  V30 6390 N 598.631 -1.53133 0.372548 0
M  V30 6391 C 599.578 -2.25951 -0.470631 0
M  V30 6392 C 600.548 -1.26895 -1.07176 0
M  V30 6393 O 601.733 -1.55691 -1.10294 0
M  V30 6394 C 598.873 -3.05726 -1.6008 0
M  V30 6395 C 597.986 -4.19684 -1.02416 0
M  V30 6396 C 597.121 -4.86888 -2.124 0
M  V30 6397 C 596.16 -5.92866 -1.52238 0
M  V30 6398 N 595.297 -6.53732 -2.56084 0
M  V30 6399 H 600.137 -2.97587 0.156816 0
M  V30 6400 H 597.674 -1.4683 0.0891571 0
M  V30 6401 H 599.632 -3.50258 -2.26661 0
M  V30 6402 H 598.262 -2.36331 -2.1988 0
M  V30 6403 H 597.314 -3.79588 -0.248426 0
M  V30 6404 H 598.626 -4.95821 -0.544366 0
M  V30 6405 H 597.78 -5.34638 -2.86787 0
M  V30 6406 H 596.519 -4.10239 -2.63734 0
M  V30 6407 H 595.524 -5.4447 -0.763685 0
M  V30 6408 H 596.749 -6.71439 -1.0172 0
M  V30 6409 H 594.695 -5.79932 -3.06618 0
M  V30 6410 H 594.612 -7.25429 -2.12811 0
M  V30 6411 H 595.88 -7.0613 -3.30152 0
M  V30 6412 N 600.109 -0.101901 -1.5727 0
M  V30 6413 C 601.356 0.560197 -1.94597 0
M  V30 6414 C 601.684 1.67767 -0.984101 0
M  V30 6415 O 600.939 1.95699 -0.00489193 0
M  V30 6416 C 601.238 1.14898 -3.38427 0
M  V30 6417 C 600.904 0.154613 -4.50635 0
M  V30 6418 C 599.566 -0.118861 -4.81053 0
M  V30 6419 C 601.918 -0.523979 -5.18559 0
M  V30 6420 C 599.246 -1.0775 -5.76721 0
M  V30 6421 C 601.598 -1.47114 -6.15256 0
M  V30 6422 C 600.262 -1.75278 -6.44076 0
M  V30 6423 H 599.532 0.204991 -0.712081 0
M  V30 6424 H 602.179 -0.17918 -1.9066 0
M  V30 6425 H 600.484 1.96476 -3.38976 0
M  V30 6426 H 602.181 1.66909 -3.64613 0
M  V30 6427 H 598.771 0.377948 -4.2693 0
M  V30 6428 H 602.955 -0.325851 -4.95229 0
M  V30 6429 H 598.211 -1.30263 -5.97362 0
M  V30 6430 H 602.385 -2.00274 -6.66981 0
M  V30 6431 H 600.012 -2.49717 -7.18015 0
M  V30 6432 N 601.587 1.56661 0.17182 0
M  V30 6433 C 602.534 1.96371 1.21273 0
M  V30 6434 C 603.504 0.82756 1.44016 0
M  V30 6435 O 604.689 1.08764 1.56764 0
M  V30 6436 C 601.829 2.32838 2.54716 0
M  V30 6437 C 600.942 3.59628 2.39356 0
M  V30 6438 C 600.077 3.85311 3.65662 0
M  V30 6439 C 599.116 5.0545 3.45234 0
M  V30 6440 N 598.253 5.27268 4.63608 0
M  V30 6441 H 603.093 2.85106 0.86709 0
M  V30 6442 H 600.63 1.41073 0.416744 0
M  V30 6443 H 602.588 2.52004 3.3249 0
M  V30 6444 H 601.218 1.47214 2.87277 0
M  V30 6445 H 600.27 3.4838 1.52761 0
M  V30 6446 H 601.582 4.4756 2.20207 0
M  V30 6447 H 600.736 4.04841 4.51872 0
M  V30 6448 H 599.475 2.95753 3.8779 0
M  V30 6449 H 598.48 4.85819 2.5741 0
M  V30 6450 H 599.705 5.96538 3.24529 0
M  V30 6451 H 597.651 4.40662 4.85956 0
M  V30 6452 H 597.568 6.09422 4.4737 0
M  V30 6453 H 598.836 5.51277 5.51103 0
M  V30 6454 N 603.065 -0.440357 1.51323 0
M  V30 6455 C 604.342 -1.20109 1.5438 0
M  V30 6456 C 604.722 -2.08866 0.306303 0
M  V30 6457 O 604.07 -2.1723 -0.708773 0
M  V30 6458 C 604.28 -2.00555 2.8562 0
M  V30 6459 C 605.628 -2.577 3.37455 0
M  V30 6460 O 606.652 -2.10769 2.8715 0
M  V30 6461 O 605.511 -3.43289 4.25224 0
M  V30 6462 H 602.605 -0.546668 0.620551 0
M  V30 6463 H 605.151 -0.449672 1.63634 0
M  V30 6464 H 603.923 -1.35346 3.67147 0
M  V30 6465 H 603.546 -2.82768 2.79514 0
M  V30 6466 N 604.543 -1.41418 -0.695603 0
M  V30 6467 C 605.476 -1.3768 -1.81988 0
M  V30 6468 C 606.454 -0.244061 -1.60758 0
M  V30 6469 O 607.638 -0.430965 -1.83507 0
M  V30 6470 C 604.765 -1.1476 -3.18666 0
M  V30 6471 C 603.811 -2.30752 -3.58686 0
M  V30 6472 S 604.644 -3.9323 -3.63498 0
M  V30 6473 C 605.8 -3.72613 -5.02902 0
M  V30 6474 H 606.033 -2.32822 -1.84882 0
M  V30 6475 H 603.566 -1.27942 -0.86431 0
M  V30 6476 H 605.524 -1.02223 -3.97569 0
M  V30 6477 H 604.185 -0.212385 -3.13381 0
M  V30 6478 H 603.378 -2.10409 -4.57978 0
M  V30 6479 H 602.98 -2.39696 -2.87092 0
M  V30 6480 H 605.272 -3.32317 -5.904 0
M  V30 6481 H 606.215 -4.71507 -5.28286 0
M  V30 6482 H 606.623 -3.0589 -4.74438 0
M  V30 6483 N 606.021 0.929856 -1.27246 0
M  V30 6484 C 606.969 2.05151 -1.09616 0
M  V30 6485 C 607.963 1.69388 -0.0198617 0
M  V30 6486 O 609.169 1.79124 -0.177417 0
M  V30 6487 H 605.544 0.671909 -0.337701 0
M  V30 6488 H 607.515 2.17168 -2.04648 0
M  V30 6489 C 606.264 3.3934 -0.757851 0
M  V30 6490 H 605.587 3.67343 -1.57795 0
M  V30 6491 H 607.027 4.18603 -0.674358 0
M  V30 6492 C 605.486 3.32582 0.537658 0
M  V30 6493 O 606.016 3.69633 1.57271 0
M  V30 6494 N 604.222 2.8568 0.532478 0
M  V30 6495 H 603.769 2.55725 -0.310233 0
M  V30 6496 H 603.727 2.81541 1.39936 0
M  V30 6497 N 607.499 1.09233 1.13605 0
M  V30 6498 C 608.462 0.733553 2.17144 0
M  V30 6499 C 609.462 -0.235873 1.59061 0
M  V30 6500 O 610.652 -0.0143167 1.74194 0
M  V30 6501 C 607.784 0.084471 3.40795 0
M  V30 6502 H 608.977 1.65049 2.50397 0
M  V30 6503 H 606.53 0.891264 1.28399 0
M  V30 6504 H 607.265 -0.843795 3.1313 0
M  V30 6505 H 607.05 0.781985 3.84223 0
M  V30 6506 H 608.54 -0.151216 4.17326 0
M  V30 6507 N 608.977 -1.30795 0.87923 0
M  V30 6508 C 610.254 -1.91145 0.415086 0
M  V30 6509 C 610.634 -1.7995 -1.10368 0
M  V30 6510 O 609.982 -1.21305 -1.93642 0
M  V30 6511 C 610.192 -3.37014 0.906778 0
M  V30 6512 C 611.54 -4.14101 0.938358 0
M  V30 6513 O 612.564 -3.45834 0.853053 0
M  V30 6514 O 611.423 -5.36054 1.06342 0
M  V30 6515 H 608.517 -0.81736 0.125905 0
M  V30 6516 H 611.063 -1.39401 0.967753 0
M  V30 6517 H 609.835 -3.3922 1.95053 0
M  V30 6518 H 609.458 -3.96204 0.332948 0
M  V30 6519 N 610.455 -0.639598 -1.44038 0
M  V30 6520 C 611.418 0.0506628 -2.29144 0
M  V30 6521 C 612.418 0.764001 -1.41491 0
M  V30 6522 O 613.608 0.607309 -1.63271 0
M  V30 6523 C 610.74 1.0824 -3.2326 0
M  V30 6524 H 611.933 -0.697987 -2.91664 0
M  V30 6525 H 609.486 -0.400146 -1.51091 0
M  V30 6526 H 610.221 1.86075 -2.65606 0
M  V30 6527 H 610.006 0.574725 -3.87865 0
M  V30 6528 H 611.496 1.56487 -3.87171 0
M  V30 6529 N 611.933 1.52934 -0.380664 0
M  V30 6530 C 613.179 2.01765 0.20458 0
M  V30 6531 C 613.512 1.26696 1.47179 0
M  V30 6532 O 612.787 0.364936 1.91046 0
M  V30 6533 C 613.07 3.56869 0.481269 0
M  V30 6534 C 612.923 4.42617 -0.800629 0
M  V30 6535 C 614.242 4.2121 1.27554 0
M  V30 6536 H 611.361 0.733388 0.0728803 0
M  V30 6537 H 614.003 1.83068 -0.50853 0
M  V30 6538 H 612.153 3.72932 1.08875 0
M  V30 6539 H 613.825 4.38323 -1.43773 0
M  V30 6540 H 612.068 4.09977 -1.4178 0
M  V30 6541 H 612.739 5.49134 -0.561791 0
M  V30 6542 H 615.215 4.09072 0.761514 0
M  V30 6543 H 614.091 5.29732 1.43788 0
M  V30 6544 H 614.352 3.78269 2.28833 0
M  V30 6545 N 613.412 0.11024 1.57214 0
M  V30 6546 C 614.659 -0.54987 1.94891 0
M  V30 6547 C 614.987 -1.67243 0.992984 0
M  V30 6548 O 614.242 -1.95694 0.0152703 0
M  V30 6549 C 614.541 -1.13102 3.39032 0
M  V30 6550 C 614.207 -0.130713 4.5071 0
M  V30 6551 C 612.869 0.14437 4.80983 0
M  V30 6552 C 615.221 0.551472 5.18274 0
M  V30 6553 C 612.549 1.10807 5.76141 0
M  V30 6554 C 614.901 1.50375 6.14467 0
M  V30 6555 C 613.565 1.78691 6.43138 0
M  V30 6556 H 612.835 -0.201212 0.713158 0
M  V30 6557 H 615.482 0.189288 1.90562 0
M  V30 6558 H 613.787 -1.94675 3.40013 0
M  V30 6559 H 615.484 -1.64973 3.65493 0
M  V30 6560 H 612.074 -0.355301 4.27125 0
M  V30 6561 H 616.258 0.35211 4.95049 0
M  V30 6562 H 611.514 1.3343 5.96663 0
M  V30 6563 H 615.688 2.03808 6.65909 0
M  V30 6564 H 613.315 2.53522 7.1668 0
M  V30 6565 N 614.89 -1.56749 -0.16351 0
M  V30 6566 C 615.853 -1.96121 -1.18613 0
M  V30 6567 C 616.853 -0.845765 -1.36761 0
M  V30 6568 O 618.043 -1.11268 -1.34033 0
M  V30 6569 C 615.175 -2.26282 -2.54969 0
M  V30 6570 H 616.368 -2.87639 -0.848764 0
M  V30 6571 H 613.921 -1.50928 -0.406251 0
M  V30 6572 H 614.656 -1.37504 -2.93706 0
M  V30 6573 H 614.441 -3.07595 -2.43162 0
M  V30 6574 H 615.931 -2.57638 -3.28653 0
M  V30 6575 N 616.368 0.432326 -1.51554 0
M  V30 6576 C 617.615 1.18134 -1.64471 0
M  V30 6577 C 617.943 1.91076 -0.363349 0
M  V30 6578 O 617.198 1.84492 0.65279 0
M  V30 6579 C 617.497 2.21907 -2.80164 0
M  V30 6580 C 617.163 1.65941 -4.19255 0
M  V30 6581 C 615.825 1.50401 -4.57092 0
M  V30 6582 C 618.177 1.24843 -5.06027 0
M  V30 6583 C 615.505 0.922443 -5.79403 0
M  V30 6584 C 617.857 0.68113 -6.28922 0
M  V30 6585 C 616.521 0.512673 -6.65528 0
M  V30 6586 H 615.791 0.432283 -0.601841 0
M  V30 6587 H 618.438 0.471701 -1.856 0
M  V30 6588 H 616.743 2.98928 -2.53277 0
M  V30 6589 H 618.44 2.79691 -2.87357 0
M  V30 6590 H 615.03 1.79014 -3.89425 0
M  V30 6591 H 619.214 1.35667 -4.77397 0
M  V30 6592 H 614.47 0.779733 -6.06408 0
M  V30 6593 H 618.644 0.35418 -6.95499 0
M  V30 6594 H 616.271 0.0599084 -7.60176 0
M  V30 6595 N 617.846 1.41785 0.688094 0
M  V30 6596 C 618.778 1.40159 1.81351 0
M  V30 6597 C 619.791 0.30262 1.59963 0
M  V30 6598 O 620.98 0.564841 1.69327 0
M  V30 6599 C 618.08 1.16517 3.1824 0
M  V30 6600 C 617.253 2.38597 3.66593 0
M  V30 6601 C 616.312 2.10699 4.82174 0
M  V30 6602 O 615.338 2.83798 4.93404 0
M  V30 6603 N 616.54 1.10187 5.69947 0
M  V30 6604 H 619.305 2.3716 1.83236 0
M  V30 6605 H 616.866 1.36494 0.870697 0
M  V30 6606 H 618.858 0.957941 3.93199 0
M  V30 6607 H 617.428 0.280873 3.11336 0
M  V30 6608 H 616.648 2.74974 2.82459 0
M  V30 6609 H 617.936 3.19919 3.95638 0
M  V30 6610 H 617.334 0.497016 5.63512 0
M  V30 6611 H 615.891 0.954518 6.44773 0
M  V30 6612 N 619.324 -0.923095 1.27737 0
M  V30 6613 C 620.254 -2.04124 1.13383 0
M  V30 6614 C 621.235 -1.70066 0.0340658 0
M  V30 6615 O 622.42 -1.93068 0.209383 0
M  V30 6616 C 619.55 -3.3831 0.785097 0
M  V30 6617 C 618.504 -3.86496 1.8386 0
M  V30 6618 C 617.83 -5.1754 1.34373 0
M  V30 6619 C 619.13 -4.09381 3.24353 0
M  V30 6620 H 620.824 -2.1639 2.06919 0
M  V30 6621 H 618.37 -1.03976 0.996243 0
M  V30 6622 H 620.323 -4.16016 0.671485 0
M  V30 6623 H 619.047 -3.2607 -0.185969 0
M  V30 6624 H 617.706 -3.10987 1.9412 0
M  V30 6625 H 617.354 -5.01696 0.361989 0
M  V30 6626 H 617.054 -5.50751 2.04811 0
M  V30 6627 H 618.578 -5.97811 1.24315 0
M  V30 6628 H 619.992 -4.77641 3.17067 0
M  V30 6629 H 618.389 -4.53906 3.92542 0
M  V30 6630 H 619.459 -3.14515 3.69064 0
M  V30 6631 N 620.802 -1.09834 -1.13024 0
M  V30 6632 C 622.218 -0.828875 -1.36388 0
M  V30 6633 C 622.418 0.554756 -1.93713 0
M  V30 6634 O 621.474 1.30882 -2.15931 0
M  V30 6635 C 622.787 -1.92352 -2.3113 0
M  V30 6636 C 624.335 -1.95124 -2.44735 0
M  V30 6637 C 624.81 -3.03745 -3.42787 0
M  V30 6638 N 626.301 -3.03012 -3.5034 0
M  V30 6639 C 627.036 -3.83699 -4.26101 0
M  V30 6640 N 626.532 -4.74306 -5.04981 0
M  V30 6641 N 628.325 -3.71942 -4.21445 0
M  V30 6642 H 620.476 -1.99029 -0.74169 0
M  V30 6643 H 622.739 -0.864557 -0.388903 0
M  V30 6644 H 622.445 -2.91906 -1.96172 0
M  V30 6645 H 622.319 -1.80536 -3.3119 0
M  V30 6646 H 624.706 -0.962069 -2.78977 0
M  V30 6647 H 624.787 -2.11018 -1.44586 0
M  V30 6648 H 624.431 -4.02878 -3.09276 0
M  V30 6649 H 624.361 -2.85094 -4.42752 0
M  V30 6650 H 626.852 -2.37352 -2.94062 0
M  V30 6651 H 627.165 -5.32446 -5.60108 0
M  V30 6652 H 625.51 -4.78339 -5.04199 0
M  V30 6653 H 628.701 -3.00513 -3.589 0
M  V30 6654 H 628.874 -4.35062 -4.80235 0
M  V30 6655 N 622.28 1.30327 -0.886154 0
M  V30 6656 C 623.228 2.30052 -0.343317 0
M  V30 6657 C 624.222 1.60212 0.550305 0
M  V30 6658 O 625.428 1.74674 0.434609 0
M  V30 6659 H 621.803 0.746306 -0.0923681 0
M  V30 6660 H 623.774 2.73294 -1.19804 0
M  V30 6661 C 622.523 3.45079 0.426107 0
M  V30 6662 H 621.846 3.99003 -0.25227 0
M  V30 6663 H 623.286 4.16931 0.771009 0
M  V30 6664 C 621.745 2.95195 1.62363 0
M  V30 6665 O 622.275 2.95323 2.723 0
M  V30 6666 N 620.481 2.51192 1.4612 0
M  V30 6667 H 620.028 2.51286 0.566832 0
M  V30 6668 H 619.986 2.18173 2.2638 0
M  V30 6669 N 623.758 0.647228 1.43697 0
M  V30 6670 C 625.169 0.238689 1.85168 0
M  V30 6671 C 625.52 -1.21345 1.54175 0
M  V30 6672 O 624.645 -1.92542 0.987743 0
M  V30 6673 C 625.24 0.426422 3.36106 0
M  V30 6674 C 623.799 0.0722541 3.76331 0
M  V30 6675 C 622.946 0.732153 2.6746 0
M  V30 6676 H 625.897 0.851309 1.33934 0
M  V30 6677 H 625.918 -0.32987 3.79067 0
M  V30 6678 H 625.43 1.48339 3.58632 0
M  V30 6679 H 623.531 -0.982355 3.59417 0
M  V30 6680 H 623.644 0.493541 4.76551 0
M  V30 6681 H 622.008 0.16594 2.54159 0
M  V30 6682 H 622.791 1.79204 2.92816 0
M  V30 6683 N 625.236 -1.5273 0.388769 0
M  V30 6684 C 626.482 -2.01871 -0.193877 0
M  V30 6685 C 626.815 -1.27475 -1.46505 0
M  V30 6686 O 626.09 -0.375063 -1.90849 0
M  V30 6687 C 626.373 -3.5712 -0.462336 0
M  V30 6688 C 626.226 -4.42186 0.824091 0
M  V30 6689 C 627.545 -4.21881 -1.25319 0
M  V30 6690 H 624.664 -0.733764 -0.0689899 0
M  V30 6691 H 627.306 -1.82796 0.518231 0
M  V30 6692 H 625.456 -3.73504 -1.06896 0
M  V30 6693 H 627.128 -4.37554 1.46096 0
M  V30 6694 H 625.371 -4.09219 1.43952 0
M  V30 6695 H 626.042 -5.48828 0.590905 0
M  V30 6696 H 628.518 -4.0947 -0.73981 0
M  V30 6697 H 627.394 -5.30487 -1.40977 0
M  V30 6698 H 627.655 -3.79478 -2.26824 0
M  V30 6699 N 626.714 -0.118576 -1.57153 0
M  V30 6700 C 627.664 0.842924 -2.11846 0
M  V30 6701 C 628.648 1.22845 -1.03914 0
M  V30 6702 O 629.84 1.19961 -1.30148 0
M  V30 6703 C 626.969 2.09312 -2.72109 0
M  V30 6704 C 626.055 1.73198 -3.87122 0
M  V30 6705 N 626.446 1.07758 -4.94188 0
M  V30 6706 C 624.744 2.02659 -3.97298 0
M  V30 6707 C 625.445 0.907741 -5.74574 0
M  V30 6708 N 624.421 1.4326 -5.24383 0
M  V30 6709 H 628.223 0.333416 -2.92003 0
M  V30 6710 H 625.737 0.0839073 -1.62183 0
M  V30 6711 H 627.734 2.79162 -3.09635 0
M  V30 6712 H 626.394 2.60807 -1.93416 0
M  V30 6713 H 627.405 0.741613 -5.12563 0
M  V30 6714 H 624.082 2.56204 -3.29645 0
M  V30 6715 H 625.472 0.394112 -6.70743 0
M  V30 6716 N 628.193 1.56834 0.155195 0
M  V30 6717 C 629.141 1.98584 1.21107 0
M  V30 6718 C 630.135 0.876987 1.44932 0
M  V30 6719 O 631.341 1.06215 1.45322 0
M  V30 6720 H 627.716 0.632039 0.407469 0
M  V30 6721 H 629.687 2.86561 0.832195 0
M  V30 6722 C 628.436 2.37555 2.53895 0
M  V30 6723 H 627.759 3.22428 2.3639 0
M  V30 6724 H 629.199 2.70598 3.26424 0
M  V30 6725 C 627.658 1.22507 3.13837 0
M  V30 6726 O 628.188 0.521388 3.98302 0
M  V30 6727 N 626.394 0.991444 2.73164 0
M  V30 6728 H 625.941 1.56544 2.04577 0
M  V30 6729 H 625.899 0.223546 3.13604 0
M  V30 6730 N 629.671 -0.424282 1.51781 0
M  V30 6731 C 630.919 -1.17028 1.64769 0
M  V30 6732 C 631.24 -1.91409 0.372523 0
M  V30 6733 O 630.51 -1.86091 -0.612108 0
M  V30 6734 H 629.09 -0.434992 0.607282 0
M  V30 6735 H 631.752 -0.485169 1.88765 0
M  V30 6736 H 630.848 -1.8927 2.4816 0
M  V30 6737 N 631.149 -1.42148 -0.680565 0
M  V30 6738 C 632.099 -1.41634 -1.78672 0
M  V30 6739 C 633.083 -0.288494 -1.58293 0
M  V30 6740 O 634.275 -0.530295 -1.68869 0
M  V30 6741 C 631.404 -1.31558 -3.17092 0
M  V30 6742 C 630.49 -2.49265 -3.43115 0
M  V30 6743 N 630.881 -3.74702 -3.39753 0
M  V30 6744 C 629.179 -2.43401 -3.73727 0
M  V30 6745 C 629.88 -4.52854 -3.651 0
M  V30 6746 N 628.856 -3.83181 -3.85582 0
M  V30 6747 H 632.658 -2.3652 -1.74458 0
M  V30 6748 H 630.172 -1.36415 -0.881171 0
M  V30 6749 H 632.169 -1.29272 -3.96351 0
M  V30 6750 H 630.829 -0.376696 -3.22508 0
M  V30 6751 H 631.84 -4.07378 -3.19787 0
M  V30 6752 H 628.517 -1.58062 -3.86423 0
M  V30 6753 H 629.907 -5.61827 -3.6851 0
M  V30 6754 N 632.627 0.916307 -1.28225 0
M  V30 6755 C 633.59 1.99996 -1.11957 0
M  V30 6756 C 634.59 1.60688 -0.0600152 0
M  V30 6757 O 635.78 1.71499 -0.30558 0
M  V30 6758 C 632.912 3.33458 -0.708411 0
M  V30 6759 H 634.105 2.15858 -2.08196 0
M  V30 6760 H 631.658 1.09863 -1.11175 0
M  V30 6761 H 632.393 3.23297 0.254859 0
M  V30 6762 H 632.178 3.63349 -1.47377 0
M  V30 6763 H 633.668 4.13014 -0.617164 0
M  V30 6764 N 634.105 1.10431 1.1244 0
M  V30 6765 C 635.035 0.775143 2.20258 0
M  V30 6766 C 636.016 -0.25186 1.68225 0
M  V30 6767 O 637.201 -0.117637 1.93843 0
M  V30 6768 C 634.331 0.206133 3.46688 0
M  V30 6769 C 633.285 1.16382 4.11873 0
M  V30 6770 C 632.611 0.456014 5.32752 0
M  V30 6771 C 633.911 2.5104 4.58013 0
M  V30 6772 H 635.605 1.67665 2.4805 0
M  V30 6773 H 633.151 0.807595 1.19222 0
M  V30 6774 H 635.104 -0.036291 4.21384 0
M  V30 6775 H 633.828 -0.730614 3.18323 0
M  V30 6776 H 632.487 1.39169 3.39157 0
M  V30 6777 H 632.135 -0.485203 5.00654 0
M  V30 6778 H 631.835 1.09466 5.77314 0
M  V30 6779 H 633.359 0.222135 6.10196 0
M  V30 6780 H 634.773 2.32401 5.24083 0
M  V30 6781 H 633.17 3.10789 5.13352 0
M  V30 6782 H 634.24 3.11039 3.71998 0
M  V30 6783 N 635.583 -1.29855 0.893053 0
M  V30 6784 C 636.513 -2.3035 0.382249 0
M  V30 6785 C 637.494 -1.61328 -0.539203 0
M  V30 6786 O 638.679 -1.88882 -0.451342 0
M  V30 6787 C 635.809 -3.45024 -0.396983 0
M  V30 6788 C 634.763 -4.258 0.433437 0
M  V30 6789 C 634.089 -5.32605 -0.472889 0
M  V30 6790 C 635.389 -4.94549 1.67984 0
M  V30 6791 H 637.083 -2.73325 1.22205 0
M  V30 6792 H 634.629 -1.314 0.589073 0
M  V30 6793 H 636.582 -4.14398 -0.765024 0
M  V30 6794 H 635.306 -3.00875 -1.2705 0
M  V30 6795 H 633.965 -3.58125 0.783723 0
M  V30 6796 H 633.613 -4.84702 -1.34435 0
M  V30 6797 H 633.313 -5.87547 0.0789958 0
M  V30 6798 H 634.837 -6.04832 -0.837269 0
M  V30 6799 H 636.251 -5.56395 1.38192 0
M  V30 6800 H 634.648 -5.59393 2.17254 0
M  V30 6801 H 635.718 -4.20215 2.41965 0
M  V30 6802 N 637.061 -0.65484 -1.43351 0
M  V30 6803 C 637.994 0.0855537 -2.2804 0
M  V30 6804 C 638.972 0.828301 -1.39921 0
M  V30 6805 O 640.156 0.827539 -1.69364 0
M  V30 6806 C 637.283 1.12792 -3.19368 0
M  V30 6807 C 636.329 0.483037 -4.23756 0
M  V30 6808 S 637.162 -0.744605 -5.30298 0
M  V30 6809 C 638.318 0.297187 -6.25194 0
M  V30 6810 H 638.551 -0.632831 -2.90487 0
M  V30 6811 H 636.084 -0.44373 -1.47886 0
M  V30 6812 H 638.042 1.7243 -3.72529 0
M  V30 6813 H 636.703 1.81863 -2.56095 0
M  V30 6814 H 635.896 1.26888 -4.87766 0
M  V30 6815 H 635.498 -0.0392713 -3.73979 0
M  V30 6816 H 637.79 1.1629 -6.67445 0
M  V30 6817 H 638.733 -0.30793 -7.0743 0
M  V30 6818 H 639.141 0.633721 -5.60932 0
M  V30 6819 N 638.539 1.52521 -0.396863 0
M  V30 6820 C 639.471 2.24333 0.469814 0
M  V30 6821 C 640.484 1.2685 1.02043 0
M  V30 6822 O 641.673 1.52876 0.92147 0
M  V30 6823 C 638.773 2.95202 1.66461 0
M  V30 6824 C 637.946 4.19454 1.24003 0
M  V30 6825 C 637.005 4.73255 2.30036 0
M  V30 6826 O 636.031 5.36151 1.91131 0
M  V30 6827 N 637.233 4.53765 3.62047 0
M  V30 6828 H 639.998 2.99347 -0.145468 0
M  V30 6829 H 637.559 1.60348 -0.223606 0
M  V30 6830 H 639.551 3.28092 2.36934 0
M  V30 6831 H 638.121 2.2345 2.18607 0
M  V30 6832 H 637.341 3.92517 0.363892 0
M  V30 6833 H 638.629 5.0017 0.933135 0
M  V30 6834 H 638.027 4.03576 3.96412 0
M  V30 6835 H 636.584 4.91124 4.28533 0
M  V30 6836 N 640.017 0.126909 1.57088 0
M  V30 6837 C 641.294 -0.573152 1.87014 0
M  V30 6838 C 641.674 -1.84297 1.02945 0
M  V30 6839 O 641.022 -2.28232 0.110573 0
M  V30 6840 C 641.232 -0.857984 3.38289 0
M  V30 6841 C 642.58 -1.20759 4.07066 0
M  V30 6842 O 643.604 -0.947992 3.43353 0
M  V30 6843 O 642.463 -1.69516 5.19545 0
M  V30 6844 H 639.557 -0.290082 0.774456 0
M  V30 6845 H 642.103 0.162008 1.68925 0
M  V30 6846 H 640.875 0.0415286 3.91278 0
M  V30 6847 H 640.498 -1.64803 3.61837 0
M  V30 6848 N 641.495 -1.56914 -0.146875 0
M  V30 6849 C 642.723 -1.87515 -0.874394 0
M  V30 6850 C 643.138 -0.715116 -1.74733 0
M  V30 6851 O 642.495 0.315113 -1.79759 0
M  V30 6852 C 642.546 -3.17362 -1.731 0
M  V30 6853 O 642.267 -4.28897 -0.893245 0
M  V30 6854 C 643.768 -3.61479 -2.56609 0
M  V30 6855 H 640.988 -0.621546 -0.252827 0
M  V30 6856 H 643.532 -2.04023 -0.139627 0
M  V30 6857 H 641.687 -3.02608 -2.41883 0
M  V30 6858 H 642.101 -5.03146 -1.48137 0
M  V30 6859 H 643.575 -4.5517 -3.12289 0
M  V30 6860 H 644.052 -2.86773 -3.32653 0
M  V30 6861 H 644.658 -3.78927 -1.93117 0
M  V30 6862 N 642.974 0.416227 -1.52004 0
M  V30 6863 C 643.924 1.50558 -1.7122 0
M  V30 6864 C 644.908 1.50613 -0.56609 0
M  V30 6865 O 646.1 1.56709 -0.822874 0
M  V30 6866 C 643.229 2.88556 -1.85984 0
M  V30 6867 C 642.315 2.93177 -3.06445 0
M  V30 6868 N 642.706 2.67505 -4.29272 0
M  V30 6869 C 641.004 3.24343 -3.06133 0
M  V30 6870 C 641.705 2.78511 -5.10692 0
M  V30 6871 N 640.681 3.11087 -4.45787 0
M  V30 6872 H 644.483 1.29494 -2.63834 0
M  V30 6873 H 641.997 0.62384 -1.4994 0
M  V30 6874 H 643.994 3.66954 -1.97865 0
M  V30 6875 H 642.654 3.10624 -0.945654 0
M  V30 6876 H 643.665 2.42033 -4.57865 0
M  V30 6877 H 640.342 3.52051 -2.24425 0
M  V30 6878 H 641.732 2.62438 -6.18527 0
M  V30 6879 N 644.452 1.42507 0.673017 0
M  V30 6880 C 645.399 1.46124 1.78651 0
M  V30 6881 C 646.369 0.313007 1.63124 0
M  V30 6882 O 647.554 0.517337 1.83653 0
M  V30 6883 C 644.694 1.3711 3.16694 0
M  V30 6884 C 643.807 2.61983 3.43495 0
M  V30 6885 C 642.942 2.45098 4.71275 0
M  V30 6886 C 641.981 3.65336 4.91117 0
M  V30 6887 N 641.118 3.47383 6.10139 0
M  V30 6888 H 645.958 2.4128 1.74895 0
M  V30 6889 H 643.495 1.19788 0.853766 0
M  V30 6890 H 645.453 1.29881 3.96468 0
M  V30 6891 H 644.083 0.45549 3.1957 0
M  V30 6892 H 643.135 2.79571 2.57961 0
M  V30 6893 H 644.447 3.51355 3.5405 0
M  V30 6894 H 643.601 2.35466 5.59143 0
M  V30 6895 H 642.34 1.53219 4.63007 0
M  V30 6896 H 641.345 3.754 4.0169 0
M  V30 6897 H 642.57 4.58199 5.01229 0
M  V30 6898 H 640.516 2.58222 6.0304 0
M  V30 6899 H 640.433 4.30344 6.21563 0
M  V30 6900 H 641.701 3.41565 7.00681 0
M  V30 6901 N 645.93 -0.909495 1.28709 0
M  V30 6902 C 646.862 -2.01729 1.08804 0
M  V30 6903 C 647.875 -1.62755 0.0384739 0
M  V30 6904 O 649.064 -1.76259 0.281977 0
M  V30 6905 C 646.164 -3.32952 0.63217 0
M  V30 6906 C 645.337 -4.00512 1.75809 0
M  V30 6907 C 644.396 -5.10019 1.29488 0
M  V30 6908 O 643.422 -5.32986 1.99787 0
M  V30 6909 N 644.624 -5.80278 0.1604 0
M  V30 6910 H 647.389 -2.19362 2.04207 0
M  V30 6911 H 644.95 -1.08106 1.20518 0
M  V30 6912 H 646.942 -4.03543 0.305802 0
M  V30 6913 H 645.512 -3.11759 -0.229134 0
M  V30 6914 H 644.732 -3.23413 2.25383 0
M  V30 6915 H 646.02 -4.42395 2.51325 0
M  V30 6916 H 645.418 -5.64094 -0.425937 0
M  V30 6917 H 643.975 -6.51713 -0.106663 0
M  V30 6918 N 647.408 -1.11026 -1.11852 0
M  V30 6919 C 648.338 -0.786812 -2.19844 0
M  V30 6920 C 649.319 0.242935 -1.68356 0
M  V30 6921 O 650.504 0.107355 -1.93903 0
M  V30 6922 C 647.634 -0.224516 -3.46574 0
M  V30 6923 C 646.588 -1.18564 -4.1125 0
M  V30 6924 C 645.914 -0.484261 -5.32503 0
M  V30 6925 C 647.214 -2.53465 -4.56676 0
M  V30 6926 H 648.908 -1.68978 -2.47158 0
M  V30 6927 H 646.454 -0.813906 -1.18792 0
M  V30 6928 H 648.407 0.0139435 -4.21398 0
M  V30 6929 H 647.131 0.713722 -3.18706 0
M  V30 6930 H 645.79 -1.40966 -3.38414 0
M  V30 6931 H 645.438 0.458646 -5.00905 0
M  V30 6932 H 645.138 -1.12526 -5.76725 0
M  V30 6933 H 646.662 -0.254492 -6.10069 0
M  V30 6934 H 648.076 -2.35177 -5.22843 0
M  V30 6935 H 646.473 -3.13507 -5.11697 0
M  V30 6936 H 647.543 -3.13008 -3.70343 0
M  V30 6937 N 648.886 1.2938 -0.899927 0
M  V30 6938 C 649.816 2.30144 -0.39446 0
M  V30 6939 C 650.797 1.61611 0.530639 0
M  V30 6940 O 651.982 1.89119 0.441319 0
M  V30 6941 C 649.112 3.45229 0.37868 0
M  V30 6942 C 648.066 4.25564 -0.456012 0
M  V30 6943 C 647.392 5.32848 0.444637 0
M  V30 6944 C 648.692 4.93651 -1.70605 0
M  V30 6945 H 650.386 2.72673 -1.23653 0
M  V30 6946 H 647.932 1.31086 -0.596034 0
M  V30 6947 H 649.885 4.14797 0.743037 0
M  V30 6948 H 648.609 3.01545 1.25453 0
M  V30 6949 H 647.268 3.57704 -0.802704 0
M  V30 6950 H 646.916 4.85408 1.31863 0
M  V30 6951 H 646.616 5.87497 -0.110154 0
M  V30 6952 H 648.14 6.05268 0.805182 0
M  V30 6953 H 649.554 5.55655 -1.41141 0
M  V30 6954 H 647.951 5.58233 -2.20217 0
M  V30 6955 H 649.021 4.18926 -2.4419 0
M  V30 6956 N 650.364 0.662433 1.43002 0
M  V30 6957 C 651.274 -0.0239199 2.34588 0
M  V30 6958 C 652.29 -0.802255 1.54402 0
M  V30 6959 O 653.466 -0.747401 1.87018 0
M  V30 6960 C 650.531 -0.972098 3.32793 0
M  V30 6961 C 649.592 -0.189673 4.28881 0
M  V30 6962 C 648.825 -1.09269 5.22395 0
M  V30 6963 O 649.048 -2.33209 5.20547 0
M  V30 6964 O 647.982 -0.560136 5.99288 0
M  V30 6965 H 651.808 0.730171 2.94792 0
M  V30 6966 H 649.393 0.422635 1.43297 0
M  V30 6967 H 651.275 -1.51676 3.93157 0
M  V30 6968 H 649.95 -1.70626 2.75079 0
M  V30 6969 H 648.857 0.398794 3.71968 0
M  V30 6970 H 650.19 0.50511 4.89601 0
M  V30 6971 N 651.842 -1.52309 0.404946 0
M  V30 6972 C 653.258 -1.59503 0.0556255 0
M  V30 6973 C 653.458 -1.41805 -1.43156 0
M  V30 6974 O 652.514 -1.2429 -2.19792 0
M  V30 6975 C 653.827 -2.95687 0.546801 0
M  V30 6976 C 655.375 -3.08909 0.504413 0
M  V30 6977 C 655.85 -4.47566 0.97203 0
M  V30 6978 N 657.341 -4.53795 0.928679 0
M  V30 6979 C 658.076 -5.59346 1.26174 0
M  V30 6980 N 657.572 -6.72469 1.66604 0
M  V30 6981 N 659.365 -5.49532 1.18198 0
M  V30 6982 H 651.516 -1.6206 1.37296 0
M  V30 6983 H 653.779 -0.762161 0.563751 0
M  V30 6984 H 653.485 -3.13905 1.58609 0
M  V30 6985 H 653.359 -3.77172 -0.0457905 0
M  V30 6986 H 655.746 -2.90378 -0.525819 0
M  V30 6987 H 655.827 -2.2934 1.13301 0
M  V30 6988 H 655.471 -4.6684 2.00057 0
M  V30 6989 H 655.401 -5.25625 0.320292 0
M  V30 6990 H 657.892 -3.72588 0.631369 0
M  V30 6991 H 658.205 -7.48993 1.9034 0
M  V30 6992 H 656.55 -6.73761 1.70504 0
M  V30 6993 H 659.741 -4.60038 0.865011 0
M  V30 6994 H 659.914 -6.31687 1.44485 0
M  V30 6995 N 653.32 -0.135238 -1.57019 0
M  V30 6996 C 654.568 0.51777 -1.95355 0
M  V30 6997 C 654.889 1.6617 -1.02042 0
M  V30 6998 O 654.159 1.95738 -0.0797343 0
M  V30 6999 H 652.739 0.194264 -0.721298 0
M  V30 7000 H 655.401 -0.207983 -1.93787 0
M  V30 7001 H 654.497 0.901675 -2.98791 0
M  V30 7002 N 654.798 1.5699 0.138552 0
M  V30 7003 C 656.028 1.87704 0.863184 0
M  V30 7004 C 656.436 0.722411 1.74865 0
M  V30 7005 O 655.779 -0.316636 1.80951 0
M  V30 7006 C 655.841 3.13219 1.76449 0
M  V30 7007 C 655.505 4.44648 1.05532 0
M  V30 7008 C 656.502 5.18318 0.405252 0
M  V30 7009 C 654.187 4.91367 1.04231 0
M  V30 7010 C 656.181 6.36916 -0.24835 0
M  V30 7011 C 653.868 6.09887 0.384904 0
M  V30 7012 C 654.866 6.82508 -0.259292 0
M  V30 7013 O 654.554 7.98775 -0.906258 0
M  V30 7014 H 654.286 0.626255 0.254521 0
M  V30 7015 H 656.84 2.04966 0.133472 0
M  V30 7016 H 655.07 2.91988 2.53535 0
M  V30 7017 H 656.759 3.30111 2.36181 0
M  V30 7018 H 657.525 4.83289 0.407053 0
M  V30 7019 H 653.404 4.34759 1.53315 0
M  V30 7020 H 656.948 6.93538 -0.751755 0
M  V30 7021 H 652.845 6.44376 0.380799 0
M  V30 7022 H 653.613 8.14494 -0.80877 0
M  V30 7023 N 656.276 -0.40816 1.52223 0
M  V30 7024 C 657.692 -0.74685 1.41047 0
M  V30 7025 C 657.892 -1.94788 0.51573 0
M  V30 7026 O 656.948 -2.52494 -0.0181156 0
M  V30 7027 C 658.261 -0.999878 2.83589 0
M  V30 7028 C 659.809 -1.10253 2.92939 0
M  V30 7029 C 660.284 -1.38832 4.36451 0
M  V30 7030 N 661.775 -1.45694 4.3969 0
M  V30 7031 C 662.51 -1.69435 5.47795 0
M  V30 7032 N 662.006 -1.90774 6.66016 0
M  V30 7033 N 663.799 -1.71458 5.35312 0
M  V30 7034 H 655.95 0.382409 2.08929 0
M  V30 7035 H 658.213 0.108807 0.941735 0
M  V30 7036 H 657.919 -0.189723 3.51188 0
M  V30 7037 H 657.793 -1.91978 3.24691 0
M  V30 7038 H 660.18 -1.90328 2.2552 0
M  V30 7039 H 660.261 -0.160973 2.55293 0
M  V30 7040 H 659.905 -0.592741 5.04429 0
M  V30 7041 H 659.835 -2.34241 4.71634 0
M  V30 7042 H 662.326 -1.3099 3.54472 0
M  V30 7043 H 662.639 -2.08342 7.44186 0
M  V30 7044 H 660.984 -1.88037 6.69079 0
M  V30 7045 H 664.175 -1.54326 4.41929 0
M  V30 7046 H 664.348 -1.89621 6.19635 0
M  V30 7047 N 657.755 -1.42862 -0.66545 0
M  V30 7048 C 659.171 -1.25993 -0.979687 0
M  V30 7049 C 659.371 -0.170831 -2.00775 0
M  V30 7050 O 658.427 0.454827 -2.4837 0
M  V30 7051 C 659.74 -2.62005 -1.47559 0
M  V30 7052 C 661.288 -2.69437 -1.59288 0
M  V30 7053 C 661.763 -4.05838 -2.12272 0
M  V30 7054 N 663.254 -4.0784 -2.19592 0
M  V30 7055 C 663.989 -5.10205 -2.61684 0
M  V30 7056 N 663.485 -6.22949 -3.03161 0
M  V30 7057 N 665.278 -4.9756 -2.61516 0
M  V30 7058 H 657.429 -2.12395 0.0150493 0
M  V30 7059 H 659.692 -0.946355 -0.0558187 0
M  V30 7060 H 659.398 -3.42605 -0.794654 0
M  V30 7061 H 659.272 -2.86566 -2.45275 0
M  V30 7062 H 661.659 -1.89178 -2.26486 0
M  V30 7063 H 661.74 -2.48655 -0.600374 0
M  V30 7064 H 661.384 -4.86559 -1.4568 0
M  V30 7065 H 661.314 -4.23977 -3.12331 0
M  V30 7066 H 663.805 -3.26452 -1.90361 0
M  V30 7067 H 664.118 -6.96899 -3.33993 0
M  V30 7068 H 662.463 -6.2644 -3.00995 0
M  V30 7069 H 665.654 -4.08551 -2.28481 0
M  V30 7070 H 665.827 -5.77468 -2.93999 0
M  V30 7071 N 659.233 0.902656 -1.29189 0
M  V30 7072 C 660.644 1.46809 -1.15343 0
M  V30 7073 C 660.995 1.94568 0.252517 0
M  V30 7074 O 660.12 1.83454 1.14777 0
M  V30 7075 C 660.715 2.66829 -2.08776 0
M  V30 7076 C 659.274 3.19518 -1.98961 0
M  V30 7077 C 658.421 1.92212 -1.99874 0
M  V30 7078 H 661.372 0.714282 -1.41717 0
M  V30 7079 H 661.393 3.42465 -1.65826 0
M  V30 7080 H 660.905 2.32039 -3.11094 0
M  V30 7081 H 659.006 3.59008 -0.99721 0
M  V30 7082 H 659.119 3.84016 -2.86477 0
M  V30 7083 H 657.483 2.0979 -1.44431 0
M  V30 7084 H 658.266 1.59702 -3.03891 0
M  V30 7085 N 660.711 1.11618 1.11262 0
M  V30 7086 C 661.957 0.867463 1.83311 0
M  V30 7087 C 662.29 -0.605366 1.84524 0
M  V30 7088 O 661.565 -1.44704 1.29965 0
M  V30 7089 C 661.848 1.43207 3.30399 0
M  V30 7090 C 661.701 2.97265 3.3757 0
M  V30 7091 C 663.02 1.08454 4.26528 0
M  V30 7092 H 660.139 0.316578 0.665543 0
M  V30 7093 H 662.781 1.38137 1.30454 0
M  V30 7094 H 660.931 0.994982 3.75543 0
M  V30 7095 H 662.603 3.49591 3.00971 0
M  V30 7096 H 660.846 3.33237 2.77733 0
M  V30 7097 H 661.517 3.31859 4.41105 0
M  V30 7098 H 663.993 1.4619 3.89574 0
M  V30 7099 H 662.869 1.50633 5.27826 0
M  V30 7100 H 663.13 -0.00444568 4.421 0
M  V30 7101 N 662.189 -1.289 0.906776 0
M  V30 7102 C 663.119 -2.29932 0.406659 0
M  V30 7103 C 664.1 -1.6189 -0.522061 0
M  V30 7104 O 665.285 -1.8935 -0.431283 0
M  V30 7105 C 662.415 -3.45425 -0.360366 0
M  V30 7106 C 661.369 -4.25316 0.478574 0
M  V30 7107 C 660.695 -5.33076 -0.416373 0
M  V30 7108 C 661.995 -4.92739 1.7322 0
M  V30 7109 H 663.689 -2.72013 1.25097 0
M  V30 7110 H 661.235 -1.30768 0.602977 0
M  V30 7111 H 663.188 -4.15186 -0.721029 0
M  V30 7112 H 661.912 -3.02206 -1.23852 0
M  V30 7113 H 660.571 -3.57273 0.821662 0
M  V30 7114 H 660.219 -4.86101 -1.29287 0
M  V30 7115 H 659.919 -5.8743 0.141309 0
M  V30 7116 H 661.443 -6.05686 -0.773072 0
M  V30 7117 H 662.857 -5.54898 1.44086 0
M  V30 7118 H 661.254 -5.57057 2.23175 0
M  V30 7119 H 662.324 -4.17625 2.46408 0
M  V30 7120 N 663.667 -0.670007 -1.42649 0
M  V30 7121 C 664.597 -0.00258501 -2.335 0
M  V30 7122 C 665.578 0.794364 -1.50412 0
M  V30 7123 O 666.763 0.75248 -1.79029 0
M  V30 7124 C 663.893 0.952748 -3.33976 0
M  V30 7125 C 662.847 0.264733 -4.2718 0
M  V30 7126 C 662.173 1.33267 -5.17826 0
M  V30 7127 C 663.473 -0.853289 -5.15283 0
M  V30 7128 H 665.167 -0.761326 -2.89559 0
M  V30 7129 H 662.713 -0.367561 -1.3923 0
M  V30 7130 H 664.666 1.4287 -3.96442 0
M  V30 7131 H 663.39 1.74285 -2.7621 0
M  V30 7132 H 662.049 -0.190938 -3.66102 0
M  V30 7133 H 661.697 2.11464 -4.5639 0
M  V30 7134 H 661.397 0.877476 -5.81011 0
M  V30 7135 H 662.921 1.80965 -5.83167 0
M  V30 7136 H 664.335 -0.458763 -5.71462 0
M  V30 7137 H 662.732 -1.23398 -5.87276 0
M  V30 7138 H 663.802 -1.70412 -4.53969 0
M  V30 7139 N 665.145 1.52092 -0.413018 0
M  V30 7140 C 666.075 2.30021 0.401567 0
M  V30 7141 C 667.056 1.34395 1.04269 0
M  V30 7142 O 668.241 1.63304 1.05097 0
M  V30 7143 C 665.371 3.12447 1.51638 0
M  V30 7144 C 664.325 4.16153 1.00005 0
M  V30 7145 C 663.651 4.86948 2.20875 0
M  V30 7146 C 664.951 5.22275 0.0513757 0
M  V30 7147 H 666.645 2.98365 -0.248704 0
M  V30 7148 H 664.191 1.4349 -0.121052 0
M  V30 7149 H 666.144 3.65733 2.09326 0
M  V30 7150 H 664.868 2.41879 2.19458 0
M  V30 7151 H 663.527 3.63882 0.445549 0
M  V30 7152 H 663.175 4.12905 2.8726 0
M  V30 7153 H 662.875 5.57057 1.86978 0
M  V30 7154 H 664.399 5.43048 2.79162 0
M  V30 7155 H 665.813 5.70778 0.537176 0
M  V30 7156 H 664.21 5.9977 -0.198977 0
M  V30 7157 H 665.28 4.76611 -0.892736 0
M  V30 7158 N 666.623 0.143563 1.56945 0
M  V30 7159 C 667.573 -0.809115 2.1316 0
M  V30 7160 C 668.557 -1.21176 1.05855 0
M  V30 7161 O 669.749 -1.17875 1.3204 0
M  V30 7162 C 666.878 -2.04957 2.75405 0
M  V30 7163 C 665.964 -1.67018 3.89828 0
M  V30 7164 N 666.355 -0.998822 4.9584 0
M  V30 7165 C 664.653 -1.96313 4.00471 0
M  V30 7166 C 665.354 -0.816217 5.75945 0
M  V30 7167 N 664.33 -1.349 5.26596 0
M  V30 7168 H 668.132 -0.286919 2.92496 0
M  V30 7169 H 665.646 -0.0580948 1.62296 0
M  V30 7170 H 667.643 -2.74201 3.14037 0
M  V30 7171 H 666.303 -2.57697 1.97541 0
M  V30 7172 H 667.314 -0.659975 5.13678 0
M  V30 7173 H 663.991 -2.50927 3.33679 0
M  V30 7174 H 665.381 -0.287353 6.71285 0
M  V30 7175 N 668.101 -1.57061 -0.130224 0
M  V30 7176 C 669.512 -1.73539 -0.68856 0
M  V30 7177 C 669.863 -0.760554 -1.80859 0
M  V30 7178 O 668.988 0.0690796 -2.1629 0
M  V30 7179 C 669.583 -3.14666 -1.25581 0
M  V30 7180 C 668.142 -3.32689 -1.76055 0
M  V30 7181 C 667.289 -2.69436 -0.655712 0
M  V30 7182 H 670.24 -1.58412 0.0956002 0
M  V30 7183 H 670.261 -3.15595 -2.12556 0
M  V30 7184 H 669.773 -3.85593 -0.440412 0
M  V30 7185 H 667.874 -2.66786 -2.60108 0
M  V30 7186 H 667.987 -4.4077 -1.87772 0
M  V30 7187 H 666.351 -2.30362 -1.08654 0
M  V30 7188 H 667.134 -3.42979 0.14852 0
M  V30 7189 N 669.579 0.400081 -1.52437 0
M  V30 7190 C 670.509 1.4947 -1.7939 0
M  V30 7191 C 671.49 1.57383 -0.645329 0
M  V30 7192 O 672.675 1.72511 -0.891826 0
M  V30 7193 C 669.805 2.87201 -1.95276 0
M  V30 7194 C 668.759 2.94134 -3.10917 0
M  V30 7195 C 668.085 4.34207 -3.1204 0
M  V30 7196 C 669.385 2.64791 -4.50203 0
M  V30 7197 H 671.079 1.27165 -2.71052 0
M  V30 7198 H 668.625 0.610312 -1.30427 0
M  V30 7199 H 670.578 3.63772 -2.12715 0
M  V30 7200 H 669.302 3.10819 -1.00294 0
M  V30 7201 H 667.961 2.20009 -2.93243 0
M  V30 7202 H 667.609 4.54848 -2.14761 0
M  V30 7203 H 667.309 4.39768 -3.89715 0
M  V30 7204 H 668.833 5.127 -3.31619 0
M  V30 7205 H 670.247 3.31083 -4.68035 0
M  V30 7206 H 668.644 2.81717 -5.29864 0
M  V30 7207 H 669.714 1.60184 -4.57678 0
M  V30 7208 N 671.057 1.43213 0.657864 0
M  V30 7209 C 672.305 1.44298 1.41501 0
M  V30 7210 C 672.626 0.0666478 1.94886 0
M  V30 7211 O 671.896 -0.897345 1.74139 0
M  V30 7212 H 670.476 0.531257 0.525143 0
M  V30 7213 H 673.138 1.78777 0.776195 0
M  V30 7214 H 672.234 2.1528 2.25966 0
M  V30 7215 N 672.536 -0.895792 1.29666 0
M  V30 7216 C 673.784 -1.64339 1.17631 0
M  V30 7217 C 674.105 -1.93099 -0.271643 0
M  V30 7218 O 673.375 -1.55981 -1.18518 0
M  V30 7219 H 671.955 -0.609162 0.432354 0
M  V30 7220 H 674.617 -1.07389 1.62646 0
M  V30 7221 H 673.713 -2.59815 1.72924 0
M  V30 7222 N 674.014 -1.12206 -1.10668 0
M  V30 7223 C 675.26 -0.887096 -1.83036 0
M  V30 7224 C 675.615 0.580887 -1.83422 0
M  V30 7225 O 674.908 1.42379 -1.28213 0
M  V30 7226 C 675.102 -1.39276 -3.29146 0
M  V30 7227 C 674.931 -2.90837 -3.42992 0
M  V30 7228 C 673.701 -3.59047 -3.55546 0
M  V30 7229 C 675.899 -3.8885 -3.36601 0
M  V30 7230 N 673.881 -4.98747 -3.57945 0
M  V30 7231 C 675.252 -5.14666 -3.45716 0
M  V30 7232 C 677.307 -3.81296 -3.20184 0
M  V30 7233 C 676.01 -6.33814 -3.40106 0
M  V30 7234 C 678.036 -4.99965 -3.15895 0
M  V30 7235 C 677.398 -6.24637 -3.25589 0
M  V30 7236 H 673.497 -0.377857 -0.684652 0
M  V30 7237 H 676.081 -1.42791 -1.32358 0
M  V30 7238 H 674.252 -0.879026 -3.78322 0
M  V30 7239 H 675.984 -1.10011 -3.89461 0
M  V30 7240 H 672.739 -3.09533 -3.5845 0
M  V30 7241 H 673.163 -5.71606 -3.62762 0
M  V30 7242 H 677.805 -2.85806 -3.11569 0
M  V30 7243 H 675.523 -7.29574 -3.47487 0
M  V30 7244 H 679.109 -4.95847 -3.04347 0
M  V30 7245 H 677.989 -7.14921 -3.22269 0
M  V30 7246 N 675.492 1.28418 -0.913599 0
M  V30 7247 C 676.72 1.99106 -0.562536 0
M  V30 7248 C 677.135 1.68273 0.856137 0
M  V30 7249 O 676.492 0.935401 1.56705 0
M  V30 7250 C 676.543 3.5338 -0.761903 0
M  V30 7251 O 676.264 3.83127 -2.12475 0
M  V30 7252 C 677.765 4.41328 -0.417651 0
M  V30 7253 H 674.985 0.635798 -0.214481 0
M  V30 7254 H 677.529 1.63618 -1.22676 0
M  V30 7255 H 675.684 3.8713 -0.144676 0
M  V30 7256 H 676.098 4.77763 -2.16431 0
M  V30 7257 H 677.572 5.48642 -0.607919 0
M  V30 7258 H 678.049 4.34422 0.646108 0
M  V30 7259 H 678.655 4.13074 -1.01241 0
M  V30 7260 N 676.97 0.677563 1.42291 0
M  V30 7261 C 677.917 0.000947061 2.308 0
M  V30 7262 C 678.887 -0.789889 1.46116 0
M  V30 7263 O 680.072 -0.761578 1.74942 0
M  V30 7264 C 677.212 -0.942387 3.31984 0
M  V30 7265 C 676.325 -0.14508 4.31756 0
M  V30 7266 C 675.46 -1.08442 5.20013 0
M  V30 7267 C 674.499 -0.278958 6.11464 0
M  V30 7268 N 673.636 -1.17115 6.92263 0
M  V30 7269 H 678.476 0.761521 2.88106 0
M  V30 7270 H 676.013 0.38727 1.41911 0
M  V30 7271 H 677.971 -1.50317 3.89179 0
M  V30 7272 H 676.601 -1.66956 2.76271 0
M  V30 7273 H 675.653 0.532368 3.76656 0
M  V30 7274 H 676.965 0.48015 4.96484 0
M  V30 7275 H 676.119 -1.71504 5.81955 0
M  V30 7276 H 674.858 -1.74353 4.55469 0
M  V30 7277 H 673.863 0.364856 5.48588 0
M  V30 7278 H 675.088 0.376099 6.78058 0
M  V30 7279 H 673.034 -1.81661 6.30345 0
M  V30 7280 H 672.951 -0.601063 7.53607 0
M  V30 7281 H 674.219 -1.78915 7.58689 0
M  V30 7282 N 678.448 -1.51871 0.421078 0
M  V30 7283 C 679.725 -1.9447 -0.20993 0
M  V30 7284 C 680.105 -1.35875 -1.61558 0
M  V30 7285 O 679.453 -0.539294 -2.22045 0
M  V30 7286 C 679.663 -3.48402 -0.204165 0
M  V30 7287 C 681.011 -4.2254 -0.417696 0
M  V30 7288 O 682.035 -3.55074 -0.282999 0
M  V30 7289 O 680.894 -5.422 -0.684239 0
M  V30 7290 H 677.988 -0.815283 -0.138718 0
M  V30 7291 H 680.534 -1.62832 0.477884 0
M  V30 7292 H 679.306 -3.83464 0.779183 0
M  V30 7293 H 678.929 -3.86436 -0.935576 0
M  V30 7294 N 679.926 -0.151884 -1.56866 0
M  V30 7295 C 681.203 0.543328 -1.87902 0
M  V30 7296 C 681.583 1.82636 -1.05864 0
M  V30 7297 O 680.931 2.28028 -0.146868 0
M  V30 7298 C 681.141 0.804056 -3.39611 0
M  V30 7299 C 682.489 1.14267 -4.08935 0
M  V30 7300 O 683.513 0.893248 -3.44818 0
M  V30 7301 O 682.372 1.61229 -5.22176 0
M  V30 7302 H 679.466 0.277724 -0.778973 0
M  V30 7303 H 682.012 -0.188862 -1.68646 0
M  V30 7304 H 680.784 -0.103772 -3.91162 0
M  V30 7305 H 680.407 1.59025 -3.64413 0
M  V30 7306 N 681.404 1.57128 0.121893 0
M  V30 7307 C 682.681 1.75664 0.860327 0
M  V30 7308 C 683.061 0.726585 1.98202 0
M  V30 7309 O 682.409 -0.24999 2.27128 0
M  V30 7310 C 682.619 3.20571 1.37968 0
M  V30 7311 C 683.967 3.82988 1.83317 0
M  V30 7312 O 684.991 3.24156 1.47654 0
M  V30 7313 O 683.85 4.86393 2.49168 0
M  V30 7314 H 680.944 0.719153 0.408348 0
M  V30 7315 H 683.49 1.6937 0.105859 0
M  V30 7316 H 682.262 3.87056 0.57477 0
M  V30 7317 H 681.885 3.31392 2.19694 0
M  V30 7318 N 682.882 -0.391992 1.52647 0
M  V30 7319 C 684.128 -1.139 1.67793 0
M  V30 7320 C 684.461 -1.89711 0.41514 0
M  V30 7321 O 683.736 -1.85431 -0.586979 0
M  V30 7322 C 684.019 -2.11966 2.91105 0
M  V30 7323 C 683.872 -1.39939 4.27478 0
M  V30 7324 C 685.191 -3.1243 3.09961 0
M  V30 7325 H 682.31 -0.412707 0.610608 0
M  V30 7326 H 684.952 -0.422725 1.85238 0
M  V30 7327 H 683.102 -2.73048 2.76364 0
M  V30 7328 H 684.774 -0.818439 4.53982 0
M  V30 7329 H 683.017 -0.701246 4.28095 0
M  V30 7330 H 683.688 -2.1158 5.09841 0
M  V30 7331 H 686.164 -2.61435 3.23714 0
M  V30 7332 H 685.04 -3.78294 3.97725 0
M  V30 7333 H 685.301 -3.81127 2.24042 0
M  V30 7334 N 684.36 -1.4356 -0.65026 0
M  V30 7335 C 685.771 -1.40324 -1.2315 0
M  V30 7336 C 686.122 -0.108812 -1.95898 0
M  V30 7337 O 685.247 0.79163 -2.01401 0
M  V30 7338 C 685.842 -2.54195 -2.23987 0
M  V30 7339 C 684.401 -2.54215 -2.77582 0
M  V30 7340 C 683.548 -2.31752 -1.5227 0
M  V30 7341 H 686.499 -1.52418 -0.442095 0
M  V30 7342 H 686.52 -2.25854 -3.0622 0
M  V30 7343 H 686.032 -3.48392 -1.71011 0
M  V30 7344 H 684.133 -1.63907 -3.34612 0
M  V30 7345 H 684.246 -3.52081 -3.24925 0
M  V30 7346 H 682.61 -1.80476 -1.79723 0
M  V30 7347 H 683.393 -3.28037 -1.01225 0
M  V30 7348 N 685.838 0.888903 -1.30139 0
M  V30 7349 C 686.768 2.01046 -1.18755 0
M  V30 7350 C 687.749 1.69916 -0.0791438 0
M  V30 7351 O 688.934 1.92445 -0.260498 0
M  V30 7352 C 686.064 3.36109 -0.874518 0
M  V30 7353 C 685.018 3.81486 -1.94043 0
M  V30 7354 C 684.344 5.13796 -1.48047 0
M  V30 7355 C 685.644 4.00637 -3.35093 0
M  V30 7356 H 687.338 2.10828 -2.12584 0
M  V30 7357 H 684.884 1.01298 -1.02346 0
M  V30 7358 H 686.837 4.14089 -0.781548 0
M  V30 7359 H 685.561 3.26449 0.0994519 0
M  V30 7360 H 684.22 3.05731 -2.02297 0
M  V30 7361 H 683.868 5.0056 -0.494878 0
M  V30 7362 H 683.568 5.45127 -2.19341 0
M  V30 7363 H 685.092 5.94305 -1.40121 0
M  V30 7364 H 686.506 4.69067 -3.2962 0
M  V30 7365 H 684.903 4.43339 -4.04438 0
M  V30 7366 H 685.973 3.0462 -3.77273 0
M  V30 7367 N 687.317 1.12792 1.10072 0
M  V30 7368 C 688.25 0.742921 2.15768 0
M  V30 7369 C 689.228 -0.267714 1.60381 0
M  V30 7370 O 690.412 -0.160782 1.87813 0
M  V30 7371 C 687.539 0.100244 3.38552 0
M  V30 7372 C 686.585 1.07831 4.12644 0
M  V30 7373 S 687.418 2.60765 4.6772 0
M  V30 7374 C 688.574 1.97838 5.9381 0
M  V30 7375 H 688.807 1.63822 2.48092 0
M  V30 7376 H 686.34 0.947385 1.21918 0
M  V30 7377 H 688.298 -0.264175 4.09649 0
M  V30 7378 H 686.959 -0.772223 3.04459 0
M  V30 7379 H 686.152 0.576325 5.00694 0
M  V30 7380 H 685.754 1.38586 3.47376 0
M  V30 7381 H 688.046 1.32341 6.64449 0
M  V30 7382 H 688.989 2.83943 6.48677 0
M  V30 7383 H 689.397 1.43267 5.46017 0
M  V30 7384 N 688.795 -1.27931 0.920396 0
M  V30 7385 C 690.041 -1.95329 0.5673 0
M  V30 7386 C 690.396 -1.7107 -0.880506 0
M  V30 7387 O 689.689 -1.02497 -1.61879 0
M  V30 7388 C 689.883 -3.47853 0.820558 0
M  V30 7389 C 689.712 -3.86941 2.29143 0
M  V30 7390 C 688.482 -4.10766 2.94278 0
M  V30 7391 C 690.68 -3.97091 3.26838 0
M  V30 7392 N 688.662 -4.36578 4.31594 0
M  V30 7393 C 690.033 -4.27194 4.49339 0
M  V30 7394 C 692.088 -3.79639 3.22147 0
M  V30 7395 C 690.791 -4.41662 5.67739 0
M  V30 7396 C 692.817 -3.95328 4.39852 0
M  V30 7397 C 692.179 -4.2581 5.61128 0
M  V30 7398 H 688.278 -0.73836 0.257583 0
M  V30 7399 H 690.862 -1.54447 1.1855 0
M  V30 7400 H 689.033 -3.87709 0.231571 0
M  V30 7401 H 690.765 -4.024 0.430824 0
M  V30 7402 H 687.52 -4.05318 2.44979 0
M  V30 7403 H 687.944 -4.53555 5.0261 0
M  V30 7404 H 692.586 -3.55119 2.29457 0
M  V30 7405 H 690.304 -4.65011 6.60901 0
M  V30 7406 H 693.89 -3.83253 4.37731 0
M  V30 7407 H 692.77 -4.37691 6.50689 0
M  V30 7408 N 690.273 -0.685099 -1.4193 0
M  V30 7409 C 691.689 -0.355632 -1.55587 0
M  V30 7410 C 691.889 1.13823 -1.66273 0
M  V30 7411 O 690.945 1.92387 -1.63534 0
M  V30 7412 C 692.258 -1.09498 -2.80055 0
M  V30 7413 C 693.806 -1.07831 -2.93839 0
M  V30 7414 C 694.281 -1.79919 -4.21181 0
M  V30 7415 N 695.772 -1.76837 -4.28115 0
M  V30 7416 C 696.507 -2.29463 -5.25485 0
M  V30 7417 N 696.003 -2.90516 -6.28945 0
M  V30 7418 N 697.796 -2.19779 -5.17353 0
M  V30 7419 H 689.947 -1.65412 -1.33239 0
M  V30 7420 H 692.21 -0.697453 -0.642078 0
M  V30 7421 H 691.916 -2.14997 -2.78333 0
M  V30 7422 H 691.79 -0.666813 -3.71259 0
M  V30 7423 H 694.177 -0.0316152 -2.95083 0
M  V30 7424 H 694.258 -1.54545 -2.03837 0
M  V30 7425 H 693.902 -2.84562 -4.20698 0
M  V30 7426 H 693.832 -1.30647 -5.10136 0
M  V30 7427 H 696.323 -1.32315 -3.53979 0
M  V30 7428 H 696.636 -3.28266 -6.99615 0
M  V30 7429 H 694.981 -2.94589 -6.29478 0
M  V30 7430 H 698.172 -1.71763 -4.35448 0
M  V30 7431 H 698.345 -2.61097 -5.9307 0
M  V30 7432 N 691.751 1.51645 -0.429126 0
M  V30 7433 C 692.684 2.24083 0.431492 0
M  V30 7434 C 693.662 1.25691 1.03153 0
M  V30 7435 O 694.846 1.54802 1.07557 0
M  V30 7436 C 691.973 2.9849 1.60067 0
M  V30 7437 C 691.019 4.11474 1.12211 0
M  V30 7438 S 691.852 5.35453 0.0708449 0
M  V30 7439 C 693.008 6.13395 1.24488 0
M  V30 7440 H 693.241 2.96733 -0.183525 0
M  V30 7441 H 690.774 1.52916 -0.213574 0
M  V30 7442 H 692.732 3.4196 2.27099 0
M  V30 7443 H 691.393 2.25445 2.18708 0
M  V30 7444 H 690.586 4.62784 1.99618 0
M  V30 7445 H 690.188 3.70223 0.530149 0
M  V30 7446 H 692.48 6.41984 2.16479 0
M  V30 7447 H 693.423 7.0388 0.771921 0
M  V30 7448 H 693.831 5.44761 1.47973 0
M  V30 7449 N 693.229 0.160201 1.56784 0
M  V30 7450 C 694.176 -0.774416 2.1742 0
M  V30 7451 C 695.146 -1.23483 1.11091 0
M  V30 7452 O 696.331 -1.30499 1.39193 0
M  V30 7453 C 693.471 -2.00283 2.81035 0
M  V30 7454 C 692.584 -1.58701 4.01793 0
M  V30 7455 C 691.719 -2.76824 4.53367 0
M  V30 7456 C 690.758 -2.31679 5.66561 0
M  V30 7457 N 689.895 -3.42856 6.12694 0
M  V30 7458 H 694.735 -0.250542 2.96945 0
M  V30 7459 H 692.272 -0.111943 1.46673 0
M  V30 7460 H 694.23 -2.72316 3.16069 0
M  V30 7461 H 692.86 -2.5006 2.04132 0
M  V30 7462 H 691.912 -0.76384 3.72652 0
M  V30 7463 H 693.224 -1.21555 4.83762 0
M  V30 7464 H 692.378 -3.57029 4.90525 0
M  V30 7465 H 691.117 -3.17223 3.70433 0
M  V30 7466 H 690.122 -1.49917 5.28966 0
M  V30 7467 H 691.347 -1.9235 6.5129 0
M  V30 7468 H 689.293 -3.82852 5.32692 0
M  V30 7469 H 689.21 -3.09767 6.89624 0
M  V30 7470 H 690.478 -4.23379 6.545 0
M  V30 7471 N 694.707 -1.5719 -0.113559 0
M  V30 7472 C 695.639 -1.97393 -1.16484 0
M  V30 7473 C 696.652 -0.873964 -1.37352 0
M  V30 7474 O 697.841 -1.15222 -1.36331 0
M  V30 7475 C 694.941 -2.26174 -2.52386 0
M  V30 7476 C 694.114 -3.57479 -2.52046 0
M  V30 7477 C 693.173 -3.74409 -3.69735 0
M  V30 7478 O 692.199 -4.46463 -3.53071 0
M  V30 7479 N 693.401 -3.13588 -4.88511 0
M  V30 7480 H 696.166 -2.88184 -0.822814 0
M  V30 7481 H 693.727 -1.59044 -0.302769 0
M  V30 7482 H 695.719 -2.3471 -3.29687 0
M  V30 7483 H 694.289 -1.41483 -2.7875 0
M  V30 7484 H 693.509 -3.60081 -1.60421 0
M  V30 7485 H 694.797 -4.43775 -2.48881 0
M  V30 7486 H 694.195 -2.55026 -5.04953 0
M  V30 7487 H 692.752 -3.27637 -5.63469 0
M  V30 7488 N 696.185 0.383891 -1.52853 0
M  V30 7489 C 697.135 1.46892 -1.74375 0
M  V30 7490 C 698.119 1.49378 -0.597909 0
M  V30 7491 O 699.311 1.54929 -0.855929 0
M  V30 7492 C 696.44 2.84547 -1.92063 0
M  V30 7493 C 695.526 2.8661 -3.12594 0
M  V30 7494 N 695.917 2.58339 -4.3485 0
M  V30 7495 C 694.215 3.17777 -3.12944 0
M  V30 7496 C 694.916 2.67616 -5.16485 0
M  V30 7497 N 693.892 3.01561 -4.52285 0
M  V30 7498 H 697.694 1.23869 -2.66522 0
M  V30 7499 H 695.208 0.591895 -1.51229 0
M  V30 7500 H 697.205 3.62674 -2.05604 0
M  V30 7501 H 695.865 3.08549 -1.01133 0
M  V30 7502 H 696.876 2.32266 -4.62896 0
M  V30 7503 H 693.553 3.47211 -2.31842 0
M  V30 7504 H 694.943 2.4926 -6.23955 0
M  V30 7505 N 697.663 1.43903 0.642637 0
M  V30 7506 C 698.626 1.49538 1.73698 0
M  V30 7507 C 699.626 0.378776 1.56275 0
M  V30 7508 O 700.816 0.64095 1.6198 0
M  V30 7509 C 697.948 1.35821 3.12675 0
M  V30 7510 H 699.141 2.47008 1.70079 0
M  V30 7511 H 696.694 1.30824 0.85526 0
M  V30 7512 H 697.429 0.393994 3.21898 0
M  V30 7513 H 697.214 2.16776 3.26727 0
M  V30 7514 H 698.704 1.4272 3.92455 0
M  V30 7515 N 699.141 -0.881989 1.30609 0
M  V30 7516 C 700.104 -1.96957 1.1722 0
M  V30 7517 C 701.104 -1.60472 0.102598 0
M  V30 7518 O 702.294 -1.70628 0.350943 0
M  V30 7519 C 699.426 -3.31463 0.796572 0
M  V30 7520 H 700.619 -2.10262 2.13846 0
M  V30 7521 H 698.172 -1.06877 1.14048 0
M  V30 7522 H 698.907 -3.23859 -0.169053 0
M  V30 7523 H 698.692 -3.59314 1.56959 0
M  V30 7524 H 700.182 -4.11233 0.72645 0
M  V30 7525 N 700.619 -1.13374 -1.09472 0
M  V30 7526 C 701.865 -0.896516 -1.81908 0
M  V30 7527 C 702.198 0.575933 -1.85463 0
M  V30 7528 O 701.473 1.42618 -1.32251 0
M  V30 7529 C 701.756 -1.48445 -3.28079 0
M  V30 7530 C 701.609 -3.02598 -3.32798 0
M  V30 7531 C 702.928 -1.15226 -4.24748 0
M  V30 7532 H 700.047 -0.327127 -0.660422 0
M  V30 7533 H 702.689 -1.40195 -1.2824 0
M  V30 7534 H 700.839 -1.0546 -3.73912 0
M  V30 7535 H 702.511 -3.54335 -2.95372 0
M  V30 7536 H 700.754 -3.37613 -2.72397 0
M  V30 7537 H 701.425 -3.38835 -4.3577 0
M  V30 7538 H 703.901 -1.52369 -3.87199 0
M  V30 7539 H 702.777 -1.59012 -5.25363 0
M  V30 7540 H 703.038 -0.0658891 -4.42051 0
M  V30 7541 N 702.098 1.27442 -0.927168 0
M  V30 7542 C 703.028 2.29256 -0.443188 0
M  V30 7543 C 704.009 1.62701 0.49624 0
M  V30 7544 O 705.194 1.90013 0.401105 0
M  V30 7545 C 702.324 3.45955 0.305366 0
M  V30 7546 C 701.278 4.24501 -0.546178 0
M  V30 7547 C 700.604 5.33671 0.331512 0
M  V30 7548 C 701.904 4.89921 -1.81037 0
M  V30 7549 H 703.598 2.69988 -1.29409 0
M  V30 7550 H 701.144 1.29792 -0.623705 0
M  V30 7551 H 703.097 4.1628 0.654885 0
M  V30 7552 H 701.821 3.04138 1.19029 0
M  V30 7553 H 700.48 3.55921 -0.878398 0
M  V30 7554 H 700.128 4.88096 1.21537 0
M  V30 7555 H 699.828 5.87131 -0.234746 0
M  V30 7556 H 701.352 6.0684 0.676614 0
M  V30 7557 H 702.766 5.52536 -1.52895 0
M  V30 7558 H 701.163 5.53436 -2.32009 0
M  V30 7559 H 702.233 4.13652 -2.53021 0
M  V30 7560 N 703.576 0.692616 1.41565 0
M  V30 7561 C 704.486 0.0258451 2.34586 0
M  V30 7562 C 705.502 -0.769324 1.56069 0
M  V30 7563 O 706.678 -0.707563 1.88562 0
M  V30 7564 C 703.743 -0.901289 3.3478 0
M  V30 7565 C 702.804 -0.0986579 4.29187 0
M  V30 7566 C 702.037 -0.981634 5.24595 0
M  V30 7567 O 702.26 -2.22115 5.25377 0
M  V30 7568 O 701.194 -0.432892 6.00341 0
M  V30 7569 H 705.02 0.792537 2.93177 0
M  V30 7570 H 702.605 0.452935 1.42369 0
M  V30 7571 H 704.487 -1.43302 3.96286 0
M  V30 7572 H 703.162 -1.64752 2.78637 0
M  V30 7573 H 702.069 0.477604 3.71039 0
M  V30 7574 H 703.402 0.608848 4.8842 0
M  V30 7575 N 705.054 -1.51416 0.437162 0
M  V30 7576 C 705.964 -2.31493 -0.380537 0
M  V30 7577 C 706.98 -1.40399 -1.02782 0
M  V30 7578 O 708.156 -1.73471 -1.02323 0
M  V30 7579 C 705.221 -3.1413 -1.46709 0
M  V30 7580 C 704.282 -4.21003 -0.839953 0
M  V30 7581 C 703.515 -4.9969 -1.87473 0
M  V30 7582 O 703.738 -4.79008 -3.09689 0
M  V30 7583 O 702.672 -5.8379 -1.46536 0
M  V30 7584 H 706.498 -3.02469 0.273183 0
M  V30 7585 H 704.083 -1.48059 0.199706 0
M  V30 7586 H 705.965 -3.65505 -2.09724 0
M  V30 7587 H 704.64 -2.45919 -2.10489 0
M  V30 7588 H 703.547 -3.73706 -0.171752 0
M  V30 7589 H 704.88 -4.91587 -0.245638 0
M  V30 7590 N 706.532 -0.168513 -1.56696 0
M  V30 7591 C 707.78 0.476216 -1.96409 0
M  V30 7592 C 708.101 1.63968 -1.05544 0
M  V30 7593 O 707.371 1.95525 -0.121235 0
M  V30 7594 H 705.951 0.178921 -0.725256 0
M  V30 7595 H 708.613 -0.249042 -1.93302 0
M  V30 7596 H 707.709 0.838094 -3.00637 0
M  V30 7597 N 708.01 1.57248 0.105221 0
M  V30 7598 C 709.256 1.85845 0.811753 0
M  V30 7599 C 709.589 0.756219 1.78871 0
M  V30 7600 O 708.864 -0.236736 1.93054 0
M  V30 7601 C 709.147 3.25059 1.54947 0
M  V30 7602 C 709 4.45898 0.591185 0
M  V30 7603 C 710.319 3.6203 2.50245 0
M  V30 7604 H 707.438 0.675973 0.293649 0
M  V30 7605 H 710.08 1.89849 0.0756269 0
M  V30 7606 H 708.23 3.21776 2.17698 0
M  V30 7607 H 709.902 4.61291 -0.0285352 0
M  V30 7608 H 708.145 4.33693 -0.0962343 0
M  V30 7609 H 708.816 5.40009 1.1443 0
M  V30 7610 H 711.292 3.66192 1.97593 0
M  V30 7611 H 710.168 4.60389 2.98886 0
M  V30 7612 H 710.429 2.90176 3.33542 0
M  V30 7613 N 709.488 -0.375779 1.53054 0
M  V30 7614 C 710.418 -1.46598 1.81745 0
M  V30 7615 C 711.399 -1.56337 0.670286 0
M  V30 7616 O 712.584 -1.71071 0.919158 0
M  V30 7617 C 709.714 -2.84058 1.99821 0
M  V30 7618 C 708.668 -2.8915 3.15557 0
M  V30 7619 C 707.994 -4.29187 3.18908 0
M  V30 7620 C 709.294 -2.57595 4.54359 0
M  V30 7621 H 710.988 -1.22837 2.73041 0
M  V30 7622 H 708.534 -0.589485 1.31381 0
M  V30 7623 H 710.487 -3.60342 2.18475 0
M  V30 7624 H 709.211 -3.09184 1.05226 0
M  V30 7625 H 707.87 -2.15316 2.96706 0
M  V30 7626 H 707.518 -4.51374 2.2197 0
M  V30 7627 H 707.218 -4.33512 3.96662 0
M  V30 7628 H 708.742 -5.07359 3.39734 0
M  V30 7629 H 710.156 -3.23595 4.73243 0
M  V30 7630 H 708.553 -2.73252 5.34279 0
M  V30 7631 H 709.623 -1.52882 4.60169 0
M  V30 7632 N 710.966 -1.44241 -0.634997 0
M  V30 7633 C 711.914 -1.51103 -1.76835 0
M  V30 7634 C 712.908 -0.383051 -1.65012 0
M  V30 7635 O 714.114 -0.557832 -1.71138 0
M  V30 7636 H 710.489 -0.474076 -0.583743 0
M  V30 7637 H 712.46 -2.46499 -1.68169 0
M  V30 7638 C 711.209 -1.4687 -3.15158 0
M  V30 7639 H 710.532 -2.32979 -3.24901 0
M  V30 7640 H 711.972 -1.55731 -3.94365 0
M  V30 7641 C 710.431 -0.188884 -3.3637 0
M  V30 7642 O 710.961 0.742487 -3.94778 0
M  V30 7643 N 709.167 -0.0932516 -2.9045 0
M  V30 7644 H 708.714 -0.852004 -2.43102 0
M  V30 7645 H 708.672 0.762308 -3.05018 0
M  V30 7646 N 712.444 0.87505 -1.31075 0
M  V30 7647 C 713.855 1.4433 -1.18431 0
M  V30 7648 C 714.206 1.9506 0.211189 0
M  V30 7649 O 713.331 1.85847 1.10859 0
M  V30 7650 C 713.926 2.62341 -2.14389 0
M  V30 7651 C 712.485 3.15225 -2.05694 0
M  V30 7652 C 711.632 1.87929 -2.03907 0
M  V30 7653 H 714.583 0.684061 -1.432 0
M  V30 7654 H 714.604 3.3887 -1.73053 0
M  V30 7655 H 714.116 2.25388 -3.15946 0
M  V30 7656 H 712.217 3.56812 -1.07314 0
M  V30 7657 H 712.33 3.77853 -2.94558 0
M  V30 7658 H 710.694 2.06679 -1.48849 0
M  V30 7659 H 711.477 1.53221 -3.07211 0
M  V30 7660 N 713.922 1.13953 1.08869 0
M  V30 7661 C 714.832 0.835666 2.19212 0
M  V30 7662 C 715.848 -0.182005 1.73045 0
M  V30 7663 O 717.024 -0.0116661 2.01397 0
M  V30 7664 C 714.089 0.312325 3.4529 0
M  V30 7665 C 713.15 1.39196 4.06107 0
M  V30 7666 C 712.383 0.893496 5.26168 0
M  V30 7667 O 712.606 -0.266807 5.69776 0
M  V30 7668 O 711.54 1.67037 5.78258 0
M  V30 7669 H 715.366 1.75769 2.47667 0
M  V30 7670 H 712.951 0.917421 1.17914 0
M  V30 7671 H 714.833 0.0261582 4.21392 0
M  V30 7672 H 713.508 -0.582042 3.18424 0
M  V30 7673 H 712.415 1.73152 3.31616 0
M  V30 7674 H 713.748 2.26068 4.37212 0
M  V30 7675 N 715.4 -1.26948 0.933913 0
M  V30 7676 C 716.628 -1.98186 0.59414 0
M  V30 7677 C 717.043 -1.69614 -0.829257 0
M  V30 7678 O 716.4 -0.960213 -1.55197 0
M  V30 7679 C 716.451 -3.52123 0.818026 0
M  V30 7680 O 716.172 -3.79698 2.18543 0
M  V30 7681 C 717.673 -4.40608 0.48781 0
M  V30 7682 H 714.893 -0.632305 0.224569 0
M  V30 7683 H 717.437 -1.61646 1.25263 0
M  V30 7684 H 715.592 -3.86851 0.206246 0
M  V30 7685 H 716.006 -4.7426 2.24005 0
M  V30 7686 H 717.48 -5.47606 0.695126 0
M  V30 7687 H 717.957 -4.35394 -0.576913 0
M  V30 7688 H 718.563 -4.11411 1.078 0
M  V30 7689 N 716.879 -0.700114 -1.41195 0
M  V30 7690 C 718.107 -0.242179 -2.05478 0
M  V30 7691 C 718.522 1.11029 -1.52702 0
M  V30 7692 O 717.879 1.69473 -0.677127 0
M  V30 7693 C 717.93 -0.196271 -3.60967 0
M  V30 7694 O 717.651 -1.49532 -4.11791 0
M  V30 7695 C 719.152 0.282102 -4.42401 0
M  V30 7696 H 716.372 -0.111749 -0.661629 0
M  V30 7697 H 718.916 -0.953975 -1.80885 0
M  V30 7698 H 717.071 0.46638 -3.84582 0
M  V30 7699 H 717.485 -1.38545 -5.05871 0
M  V30 7700 H 718.959 0.263093 -5.51373 0
M  V30 7701 H 719.436 1.32174 -4.1884 0
M  V30 7702 H 720.042 -0.349712 -4.2386 0
M  V30 7703 N 718.357 1.51182 -0.445186 0
M  V30 7704 C 719.603 2.02452 0.11882 0
M  V30 7705 C 719.936 1.32824 1.41673 0
M  V30 7706 O 719.211 0.445637 1.89326 0
M  V30 7707 C 719.494 3.5859 0.329475 0
M  V30 7708 C 719.347 4.38823 -0.987638 0
M  V30 7709 C 720.666 4.26241 1.09575 0
M  V30 7710 H 717.785 0.735819 0.0417092 0
M  V30 7711 H 720.427 1.80747 -0.585718 0
M  V30 7712 H 718.577 3.77214 0.9296 0
M  V30 7713 H 720.249 4.3183 -1.62235 0
M  V30 7714 H 718.492 4.03594 -1.59041 0
M  V30 7715 H 719.163 5.46257 -0.794192 0
M  V30 7716 H 721.639 4.11934 0.587328 0
M  V30 7717 H 720.515 5.35354 1.21191 0
M  V30 7718 H 720.776 3.87635 2.12584 0
M  V30 7719 N 719.835 0.176821 1.56605 0
M  V30 7720 C 721.081 -0.467406 1.9734 0
M  V30 7721 C 721.414 -1.62523 1.06301 0
M  V30 7722 O 720.689 -1.94182 0.11125 0
M  V30 7723 C 720.972 -0.945106 3.47476 0
M  V30 7724 C 720.825 0.213273 4.49294 0
M  V30 7725 C 722.144 -1.8169 4.00845 0
M  V30 7726 H 719.263 -0.168426 0.717497 0
M  V30 7727 H 721.905 0.264065 1.88156 0
M  V30 7728 H 720.055 -1.56841 3.55434 0
M  V30 7729 H 721.727 0.850508 4.53392 0
M  V30 7730 H 719.97 0.867918 4.25029 0
M  V30 7731 H 720.641 -0.163187 5.51759 0
M  V30 7732 H 723.117 -1.29139 3.95553 0
M  V30 7733 H 721.993 -2.12015 5.06301 0
M  V30 7734 H 722.254 -2.76463 3.44994 0
M  V30 7735 N 721.313 -1.57302 -0.09688 0
M  V30 7736 C 722.276 -2.00976 -1.10188 0
M  V30 7737 C 723.276 -0.903009 -1.3305 0
M  V30 7738 O 724.466 -1.16853 -1.29194 0
M  V30 7739 C 721.598 -2.36893 -2.45142 0
M  V30 7740 H 722.791 -2.9098 -0.726003 0
M  V30 7741 H 720.344 -1.52515 -0.341872 0
M  V30 7742 H 721.079 -1.49837 -2.8761 0
M  V30 7743 H 720.864 -3.17632 -2.29897 0
M  V30 7744 H 722.354 -2.71345 -3.1743 0
M  V30 7745 N 722.791 0.367657 -1.53252 0
M  V30 7746 C 724.04 1.10782 -1.68554 0
M  V30 7747 C 724.353 1.90523 -0.442765 0
M  V30 7748 O 725.559 2.6729 -0.47629 0
M  V30 7749 C 724.015 2.01863 -2.97959 0
M  V30 7750 C 723.623 1.27443 -4.29491 0
M  V30 7751 C 725.367 2.75883 -3.22628 0
M  V30 7752 C 723.274 2.17414 -5.49987 0
M  V30 7753 H 722.204 0.417272 -0.628013 0
M  V30 7754 H 724.855 0.368971 -1.79752 0
M  V30 7755 H 723.237 2.7947 -2.80558 0
M  V30 7756 H 724.411 0.549138 -4.57516 0
M  V30 7757 H 722.726 0.652935 -4.11249 0
M  V30 7758 H 725.323 3.43421 -4.09837 0
M  V30 7759 H 725.666 3.41138 -2.38601 0
M  V30 7760 H 726.199 2.0536 -3.40693 0
M  V30 7761 H 722.938 1.5674 -6.36485 0
M  V30 7762 H 722.458 2.87799 -5.26243 0
M  V30 7763 H 724.137 2.77019 -5.84696 0
M  V30 7764 N 724.269 1.44576 0.627338 0
M  V30 7765 C 725.516 1.47558 1.38682 0
M  V30 7766 C 725.844 0.109636 1.94191 0
M  V30 7767 O 725.099 -0.889092 1.74338 0
M  V30 7768 C 725.398 2.48644 2.56731 0
M  V30 7769 C 725.064 3.93873 2.19489 0
M  V30 7770 C 723.726 4.33421 2.09045 0
M  V30 7771 C 726.078 4.85286 1.90124 0
M  V30 7772 C 723.406 5.62303 1.6743 0
M  V30 7773 C 725.758 6.14559 1.50001 0
M  V30 7774 C 724.422 6.53058 1.38101 0
M  V30 7775 H 723.692 0.539955 0.507474 0
M  V30 7776 H 726.339 1.77811 0.711021 0
M  V30 7777 H 724.644 2.11889 3.29561 0
M  V30 7778 H 726.341 2.48197 3.14959 0
M  V30 7779 H 722.931 3.62587 2.28537 0
M  V30 7780 H 727.115 4.55483 1.971 0
M  V30 7781 H 722.371 5.90945 1.56823 0
M  V30 7782 H 726.545 6.84848 1.26319 0
M  V30 7783 H 724.172 7.52826 1.05628 0
M  V30 7784 N 725.747 -0.868086 1.31537 0
M  V30 7785 C 727.158 -1.437 1.19195 0
M  V30 7786 C 727.509 -1.95169 -0.200842 0
M  V30 7787 O 726.634 -1.86432 -1.09872 0
M  V30 7788 C 727.229 -2.612 2.15778 0
M  V30 7789 C 725.788 -3.1413 2.07363 0
M  V30 7790 C 724.935 -1.86845 2.049 0
M  V30 7791 H 727.886 -0.676457 1.43561 0
M  V30 7792 H 727.907 -3.37948 1.74847 0
M  V30 7793 H 727.419 -2.23709 3.17137 0
M  V30 7794 H 725.52 -3.56238 1.09204 0
M  V30 7795 H 725.633 -3.76285 2.96557 0
M  V30 7796 H 723.997 -2.05886 1.49943 0
M  V30 7797 H 724.78 -1.51589 3.08019 0
M  V30 7798 N 727.225 -1.14528 -1.08264 0
M  V30 7799 C 728.45 -0.938381 -1.84957 0
M  V30 7800 C 728.875 0.508044 -1.81109 0
M  V30 7801 O 728.233 1.36146 -1.19724 0
M  V30 7802 C 728.281 -1.44568 -3.30352 0
M  V30 7803 O 727.385 -0.638745 -4.07423 0
M  V30 7804 H 726.726 -0.335394 -0.573068 0
M  V30 7805 H 729.256 -1.52287 -1.36637 0
M  V30 7806 H 729.266 -1.45449 -3.81194 0
M  V30 7807 H 727.941 -2.49876 -3.32468 0
M  V30 7808 H 726.518 -0.698801 -3.66294 0
M  V30 7809 N 728.703 1.26451 -0.940633 0
M  V30 7810 C 730.114 1.75726 -0.630653 0
M  V30 7811 C 730.465 1.76631 0.854167 0
M  V30 7812 O 729.59 1.37807 1.66848 0
M  V30 7813 C 730.185 3.19114 -1.13805 0
M  V30 7814 C 728.744 3.66005 -0.878497 0
M  V30 7815 C 727.891 2.45505 -1.28928 0
M  V30 7816 H 730.842 1.12535 -1.119 0
M  V30 7817 H 730.863 3.77311 -0.491625 0
M  V30 7818 H 730.375 3.18424 -2.21874 0
M  V30 7819 H 728.476 3.72126 0.187833 0
M  V30 7820 H 728.589 4.54844 -1.50512 0
M  V30 7821 H 726.953 2.4467 -0.707713 0
M  V30 7822 H 727.736 2.47516 -2.37888 0
M  V30 7823 N 730.181 0.707592 1.40822 0
M  V30 7824 C 731.114 -0.000859377 2.282 0
M  V30 7825 C 732.092 -0.7758 1.42899 0
M  V30 7826 O 733.276 -0.76411 1.72318 0
M  V30 7827 C 730.403 -1.00861 3.23334 0
M  V30 7828 C 729.449 -0.32543 4.25257 0
M  V30 7829 S 730.282 0.940908 5.27169 0
M  V30 7830 C 731.438 -0.0649459 6.25866 0
M  V30 7831 H 731.671 0.740207 2.87938 0
M  V30 7832 H 729.204 0.498311 1.46138 0
M  V30 7833 H 731.162 -1.58485 3.78672 0
M  V30 7834 H 729.823 -1.72233 2.62668 0
M  V30 7835 H 729.016 -1.08697 4.92139 0
M  V30 7836 H 728.618 0.178044 3.73576 0
M  V30 7837 H 730.91 -0.914377 6.71301 0
M  V30 7838 H 731.853 0.570276 7.058 0
M  V30 7839 H 732.261 -0.425098 5.62897 0
M  V30 7840 N 731.66 -1.50943 0.453197 0
M  V30 7841 C 732.593 -2.24742 -0.395787 0
M  V30 7842 C 733.571 -1.27316 -1.01141 0
M  V30 7843 O 734.755 -1.56494 -1.05081 0
M  V30 7844 C 731.882 -3.00999 -1.55298 0
M  V30 7845 C 730.928 -4.13207 -1.0565 0
M  V30 7846 S 731.761 -5.35498 0.01435 0
M  V30 7847 C 732.917 -6.15298 -1.14714 0
M  V30 7848 H 733.15 -2.96403 0.23071 0
M  V30 7849 H 730.683 -1.52557 0.237874 0
M  V30 7850 H 732.641 -3.45529 -2.2163 0
M  V30 7851 H 731.302 -2.28896 -2.15094 0
M  V30 7852 H 730.495 -4.65901 -1.9223 0
M  V30 7853 H 730.097 -3.7102 -0.471182 0
M  V30 7854 H 732.389 -6.45346 -2.06239 0
M  V30 7855 H 733.332 -7.05019 -0.659842 0
M  V30 7856 H 733.74 -5.47046 -1.39288 0
M  V30 7857 N 733.138 -0.185124 -1.56509 0
M  V30 7858 C 734.368 0.461469 -2.0138 0
M  V30 7859 C 734.776 1.56417 -1.06445 0
M  V30 7860 O 734.119 1.83603 -0.0597515 0
M  V30 7861 C 734.181 1.08731 -3.42663 0
M  V30 7862 C 733.845 0.124581 -4.5683 0
M  V30 7863 C 734.842 -0.662295 -5.15664 0
M  V30 7864 C 732.527 0.0163947 -5.02297 0
M  V30 7865 C 734.521 -1.54442 -6.18406 0
M  V30 7866 C 732.208 -0.869301 -6.04885 0
M  V30 7867 C 733.206 -1.64828 -6.62813 0
M  V30 7868 O 732.894 -2.51915 -7.63409 0
M  V30 7869 H 732.626 0.1212 -0.665046 0
M  V30 7870 H 735.18 -0.288119 -2.03369 0
M  V30 7871 H 733.41 1.8853 -3.37629 0
M  V30 7872 H 735.099 1.63753 -3.71403 0
M  V30 7873 H 735.865 -0.588963 -4.81411 0
M  V30 7874 H 731.744 0.61253 -4.56913 0
M  V30 7875 H 735.288 -2.15289 -6.63548 0
M  V30 7876 H 731.185 -0.943786 -6.38563 0
M  V30 7877 H 731.953 -2.45584 -7.80789 0
M  V30 7878 N 734.616 1.57351 0.0885366 0
M  V30 7879 C 735.579 2.01557 1.09121 0
M  V30 7880 C 736.579 0.910052 1.3257 0
M  V30 7881 O 737.769 1.17537 1.28572 0
M  V30 7882 C 734.901 2.38189 2.43883 0
M  V30 7883 H 736.094 2.91361 0.710562 0
M  V30 7884 H 733.647 1.52694 0.333779 0
M  V30 7885 H 734.382 1.5136 2.86811 0
M  V30 7886 H 734.167 3.18846 2.28209 0
M  V30 7887 H 735.657 2.73025 3.15986 0
M  V30 7888 N 736.094 -0.359525 1.53444 0
M  V30 7889 C 737.342 -1.09935 1.69584 0
M  V30 7890 C 737.663 -1.89656 0.453371 0
M  V30 7891 O 736.933 -1.8852 -0.53263 0
M  V30 7892 H 735.513 -0.408843 0.625185 0
M  V30 7893 H 738.175 -0.40467 1.90653 0
M  V30 7894 H 737.271 -1.78575 2.55964 0
M  V30 7895 N 737.572 -1.44907 -0.619662 0
M  V30 7896 C 738.983 -1.42905 -1.20146 0
M  V30 7897 C 739.334 -0.150341 -1.95623 0
M  V30 7898 O 738.459 0.748732 -2.03034 0
M  V30 7899 C 739.054 -2.58889 -2.18545 0
M  V30 7900 C 737.613 -2.60046 -2.72127 0
M  V30 7901 C 736.76 -2.3493 -1.4732 0
M  V30 7902 H 739.711 -1.53321 -0.409666 0
M  V30 7903 H 739.732 -2.32298 -3.0136 0
M  V30 7904 H 739.244 -3.51941 -1.63583 0
M  V30 7905 H 737.345 -1.70968 -3.3106 0
M  V30 7906 H 737.458 -3.58893 -3.17384 0
M  V30 7907 H 735.822 -1.84248 -1.75855 0
M  V30 7908 H 736.605 -3.3011 -0.942442 0
M  V30 7909 N 739.05 0.861098 -1.31996 0
M  V30 7910 C 740.278 1.6474 -1.25173 0
M  V30 7911 C 740.693 1.87926 0.181425 0
M  V30 7912 O 740.05 1.4437 1.1164 0
M  V30 7913 C 740.101 3.01036 -2.0015 0
M  V30 7914 O 739.822 2.7888 -3.37872 0
M  V30 7915 C 741.323 3.95481 -2.00273 0
M  V30 7916 H 738.543 0.513314 -0.432146 0
M  V30 7917 H 741.087 1.07419 -1.74016 0
M  V30 7918 H 739.242 3.55021 -1.55046 0
M  V30 7919 H 739.656 3.65514 -3.76165 0
M  V30 7920 H 741.13 4.88403 -2.57229 0
M  V30 7921 H 741.607 4.27957 -0.987407 0
M  V30 7922 H 742.213 3.47433 -2.45296 0
M  V30 7923 N 740.528 1.15101 1.07655 0
M  V30 7924 C 741.438 0.858869 2.18313 0
M  V30 7925 C 742.454 -0.163641 1.73229 0
M  V30 7926 O 743.63 0.00969541 2.01398 0
M  V30 7927 C 740.695 0.34893 3.4494 0
M  V30 7928 C 739.756 1.43495 4.04608 0
M  V30 7929 C 738.989 0.949253 5.2519 0
M  V30 7930 O 739.212 -0.20636 5.70027 0
M  V30 7931 O 738.146 1.73161 5.76454 0
M  V30 7932 H 741.972 1.78386 2.45788 0
M  V30 7933 H 739.557 0.929876 1.16934 0
M  V30 7934 H 741.439 0.070851 4.2134 0
M  V30 7935 H 740.114 -0.548237 3.19024 0
M  V30 7936 H 739.021 1.7666 3.29761 0
M  V30 7937 H 740.354 2.30692 4.3479 0
M  V30 7938 N 742.006 -1.2595 0.947325 0
M  V30 7939 C 743.252 -1.9375 0.599064 0
M  V30 7940 C 743.585 -1.74088 -0.860632 0
M  V30 7941 O 742.86 -1.08158 -1.61654 0
M  V30 7942 C 743.143 -3.47353 0.949634 0
M  V30 7943 C 742.996 -3.76273 2.46452 0
M  V30 7944 C 744.315 -4.37589 0.469442 0
M  V30 7945 H 741.434 -0.703674 0.219115 0
M  V30 7946 H 744.076 -1.48705 1.18266 0
M  V30 7947 H 742.226 -3.8585 0.453008 0
M  V30 7948 H 743.898 -3.47455 3.03435 0
M  V30 7949 H 742.141 -3.22135 2.90537 0
M  V30 7950 H 742.812 -4.83664 2.66032 0
M  V30 7951 H 745.288 -4.06353 0.89534 0
M  V30 7952 H 744.164 -5.43841 0.7435 0
M  V30 7953 H 744.425 -4.37579 -0.630618 0
M  V30 7954 N 743.484 -0.715051 -1.40445 0
M  V30 7955 C 744.416 -0.0227516 -2.29189 0
M  V30 7956 C 745.429 0.724313 -1.458 0
M  V30 7957 O 746.618 0.571781 -1.69094 0
M  V30 7958 C 743.718 0.992038 -3.24055 0
M  V30 7959 C 742.891 0.310613 -4.36296 0
M  V30 7960 C 741.95 1.23071 -5.11605 0
M  V30 7961 O 740.976 0.71571 -5.64682 0
M  V30 7962 N 742.178 2.56188 -5.2091 0
M  V30 7963 H 744.943 -0.78473 -2.89244 0
M  V30 7964 H 742.504 -0.562637 -1.51809 0
M  V30 7965 H 744.496 1.60973 -3.71308 0
M  V30 7966 H 743.066 1.65538 -2.65171 0
M  V30 7967 H 742.286 -0.487269 -3.91177 0
M  V30 7968 H 743.574 -0.162415 -5.08541 0
M  V30 7969 H 742.972 3.00527 -4.7927 0
M  V30 7970 H 741.529 3.13103 -5.71673 0
M  V30 7971 N 744.962 1.50701 -0.461195 0
M  V30 7972 C 746.208 2.03203 0.0895017 0
M  V30 7973 C 746.563 1.33768 1.38289 0
M  V30 7974 O 745.856 0.451304 1.86209 0
M  V30 7975 C 746.05 3.55788 0.33908 0
M  V30 7976 C 745.879 4.40009 -0.928571 0
M  V30 7977 C 744.649 4.83475 -1.46903 0
M  V30 7978 C 746.847 4.80972 -1.82129 0
M  V30 7979 N 744.829 5.51985 -2.68673 0
M  V30 7980 C 746.2 5.48792 -2.88491 0
M  V30 7981 C 748.255 4.62937 -1.83285 0
M  V30 7982 C 746.958 6.00489 -3.95987 0
M  V30 7983 C 748.984 5.15568 -2.89731 0
M  V30 7984 C 748.346 5.83355 -3.94812 0
M  V30 7985 H 744.445 0.781968 -0.00702462 0
M  V30 7986 H 747.029 1.84321 -0.627195 0
M  V30 7987 H 745.2 3.74636 1.02481 0
M  V30 7988 H 746.932 3.94944 0.883242 0
M  V30 7989 H 743.687 4.62495 -1.01959 0
M  V30 7990 H 744.111 5.90854 -3.30486 0
M  V30 7991 H 748.753 4.0997 -1.03366 0
M  V30 7992 H 746.471 6.52499 -4.7673 0
M  V30 7993 H 750.057 5.0345 -2.91597 0
M  V30 7994 H 748.937 6.23347 -4.75824 0
M  V30 7995 N 746.441 0.193421 1.56409 0
M  V30 7996 C 747.391 -0.74089 2.15627 0
M  V30 7997 C 748.375 -1.17747 1.09656 0
M  V30 7998 O 749.567 -1.13615 1.35723 0
M  V30 7999 C 746.696 -1.96091 2.81786 0
M  V30 8000 C 745.782 -1.54531 3.94944 0
M  V30 8001 N 746.173 -0.840569 4.98767 0
M  V30 8002 C 744.471 -1.83473 4.06514 0
M  V30 8003 C 745.172 -0.632571 5.7825 0
M  V30 8004 N 744.148 -1.18078 5.30621 0
M  V30 8005 H 747.95 -0.193718 2.93261 0
M  V30 8006 H 745.464 -0.00643211 1.62399 0
M  V30 8007 H 747.461 -2.64071 3.22602 0
M  V30 8008 H 746.121 -2.51282 2.05639 0
M  V30 8009 H 747.132 -0.496218 5.15517 0
M  V30 8010 H 743.809 -2.40184 3.41493 0
M  V30 8011 H 745.199 -0.0736433 6.7186 0
M  V30 8012 N 747.919 -1.57396 -0.0801906 0
M  V30 8013 C 749.159 -1.88668 -0.786367 0
M  V30 8014 C 749.523 -0.786216 -1.75165 0
M  V30 8015 O 750.724 -0.981769 -2.50229 0
M  V30 8016 C 748.995 -3.25176 -1.48308 0
M  V30 8017 S 750.554 -3.78177 -2.22549 0
M  V30 8018 H 747.372 -0.661094 -0.261679 0
M  V30 8019 H 749.974 -1.95453 -0.0428196 0
M  V30 8020 H 748.678 -4.03176 -0.766629 0
M  V30 8021 H 748.209 -3.21567 -2.26623 0
M  V30 8022 H 750.224 -3.52789 -3.48934 0
M  V30 8023 N 749.397 0.351382 -1.53633 0
M  V30 8024 C 750.813 0.693987 -1.43722 0
M  V30 8025 C 751.013 1.9274 -0.587669 0
M  V30 8026 O 750.069 2.52387 -0.0756082 0
M  V30 8027 C 751.382 0.893937 -2.87105 0
M  V30 8028 C 752.93 0.993051 -2.96829 0
M  V30 8029 C 753.405 1.22537 -4.41303 0
M  V30 8030 N 754.896 1.29275 -4.44795 0
M  V30 8031 C 755.631 1.48988 -5.53706 0
M  V30 8032 N 755.127 1.65924 -6.72637 0
M  V30 8033 N 756.92 1.51472 -5.41306 0
M  V30 8034 H 749.071 -0.459688 -2.07366 0
M  V30 8035 H 751.334 -0.143684 -0.937048 0
M  V30 8036 H 751.04 0.0592517 -3.5165 0
M  V30 8037 H 750.914 1.79795 -3.31592 0
M  V30 8038 H 753.301 1.81827 -2.32429 0
M  V30 8039 H 753.382 0.0661119 -2.55715 0
M  V30 8040 H 753.026 0.405117 -5.06282 0
M  V30 8041 H 752.956 2.16575 -4.80003 0
M  V30 8042 H 755.447 1.17743 -3.59089 0
M  V30 8043 H 755.76 1.80578 -7.51406 0
M  V30 8044 H 754.105 1.63075 -6.75597 0
M  V30 8045 H 757.296 1.37818 -4.47352 0
M  V30 8046 H 757.469 1.66493 -6.26246 0
M  V30 8047 N 750.875 1.45233 0.611969 0
M  V30 8048 C 751.838 1.53189 1.70487 0
M  V30 8049 C 752.838 0.411839 1.55437 0
M  V30 8050 O 754.028 0.675164 1.60584 0
M  V30 8051 C 751.16 1.42422 3.09723 0
M  V30 8052 H 752.353 2.5056 1.64802 0
M  V30 8053 H 749.906 1.32609 0.827318 0
M  V30 8054 H 750.641 0.462185 3.2099 0
M  V30 8055 H 750.426 2.23658 3.22055 0
M  V30 8056 H 751.916 1.51012 3.89339 0
M  V30 8057 N 752.353 -0.854086 1.3245 0
M  V30 8058 C 753.769 -1.14238 1.11453 0
M  V30 8059 C 753.969 -2.01228 -0.10461 0
M  V30 8060 O 753.025 -2.39845 -0.789339 0
M  V30 8061 C 754.338 -1.81916 2.39431 0
M  V30 8062 C 755.886 -1.94549 2.45193 0
M  V30 8063 C 756.361 -2.65642 3.73093 0
M  V30 8064 N 757.852 -2.73167 3.74078 0
M  V30 8065 C 758.587 -3.28828 4.69744 0
M  V30 8066 N 758.083 -3.85295 5.75778 0
M  V30 8067 N 759.876 -3.26936 4.57241 0
M  V30 8068 H 752.027 -0.274786 2.10615 0
M  V30 8069 H 754.29 -0.184375 0.929898 0
M  V30 8070 H 753.996 -1.25452 3.28565 0
M  V30 8071 H 753.87 -2.82068 2.50434 0
M  V30 8072 H 756.257 -2.50172 1.56518 0
M  V30 8073 H 756.338 -0.933914 2.38142 0
M  V30 8074 H 755.982 -2.10683 4.62142 0
M  V30 8075 H 755.912 -3.6724 3.77415 0
M  V30 8076 H 758.403 -2.33108 2.97438 0
M  V30 8077 H 758.716 -4.25925 6.44832 0
M  V30 8078 H 757.061 -3.83625 5.79531 0
M  V30 8079 H 760.252 -2.8207 3.7357 0
M  V30 8080 H 760.425 -3.70014 5.31971 0
M  V30 8081 N 753.831 -1.1567 -1.07043 0
M  V30 8082 C 754.764 -0.799867 -2.13723 0
M  V30 8083 C 755.742 0.225098 -1.61034 0
M  V30 8084 O 756.926 0.11093 -1.88173 0
M  V30 8085 C 754.053 -0.18997 -3.38167 0
M  V30 8086 C 753.099 -1.18733 -4.0964 0
M  V30 8087 S 753.932 -2.73074 -4.60642 0
M  V30 8088 C 755.088 -2.13512 -5.88356 0
M  V30 8089 H 755.321 -1.70342 -2.43661 0
M  V30 8090 H 752.854 -0.979377 -1.19363 0
M  V30 8091 H 754.812 0.155471 -4.10205 0
M  V30 8092 H 753.473 0.691229 -3.064 0
M  V30 8093 H 752.666 -0.708873 -4.9899 0
M  V30 8094 H 752.268 -1.47747 -3.43579 0
M  V30 8095 H 754.56 -1.49911 -6.60706 0
M  V30 8096 H 755.503 -3.01042 -6.40921 0
M  V30 8097 H 755.911 -1.57693 -5.42027 0
M  V30 8098 N 755.309 1.25446 -0.953992 0
M  V30 8099 C 756.555 1.9343 -0.60933 0
M  V30 8100 C 756.888 1.74542 0.851388 0
M  V30 8101 O 756.163 1.09014 1.61078 0
M  V30 8102 C 756.446 3.46844 -0.968041 0
M  V30 8103 C 756.299 3.74961 -2.48444 0
M  V30 8104 C 757.618 4.37334 -0.492641 0
M  V30 8105 H 754.737 0.702502 -0.222844 0
M  V30 8106 H 757.379 1.48076 -1.19053 0
M  V30 8107 H 755.529 3.85604 -0.473465 0
M  V30 8108 H 757.201 3.45841 -3.05273 0
M  V30 8109 H 755.444 3.20589 -2.92241 0
M  V30 8110 H 756.115 4.82246 -2.68594 0
M  V30 8111 H 758.591 4.05873 -0.916878 0
M  V30 8112 H 757.467 5.43439 -0.772331 0
M  V30 8113 H 757.728 4.37908 0.607403 0
M  V30 8114 N 756.787 0.722489 1.40064 0
M  V30 8115 C 757.75 0.0830209 2.2905 0
M  V30 8116 C 758.75 -0.680208 1.45705 0
M  V30 8117 O 759.94 -0.511084 1.66534 0
M  V30 8118 C 757.072 -0.892092 3.29021 0
M  V30 8119 H 758.265 0.866848 2.87099 0
M  V30 8120 H 755.818 0.487556 1.48501 0
M  V30 8121 H 756.553 -1.70273 2.76003 0
M  V30 8122 H 756.338 -0.34761 3.90556 0
M  V30 8123 H 757.828 -1.33648 3.95636 0
M  V30 8124 N 758.265 -1.50454 0.469181 0
M  V30 8125 C 759.513 -2.01916 -0.0862982 0
M  V30 8126 C 759.834 -1.35337 -1.40388 0
M  V30 8127 O 759.104 -0.498096 -1.89462 0
M  V30 8128 H 757.684 -0.746185 -0.0348825 0
M  V30 8129 H 760.346 -1.84804 0.619167 0
M  V30 8130 H 759.442 -3.11182 -0.239189 0
M  V30 8131 N 759.743 -0.201713 -1.56304 0
M  V30 8132 C 760.706 0.702811 -2.18159 0
M  V30 8133 C 761.706 1.13619 -1.13787 0
M  V30 8134 O 762.896 1.0482 -1.39134 0
M  V30 8135 C 760.028 1.96032 -2.78898 0
M  V30 8136 H 761.221 0.163836 -2.99452 0
M  V30 8137 H 758.774 0.04791 -1.56227 0
M  V30 8138 H 759.509 2.54165 -2.01421 0
M  V30 8139 H 759.294 1.65824 -3.55309 0
M  V30 8140 H 760.784 2.60519 -3.26373 0
M  V30 8141 N 761.222 1.57436 0.0718424 0
M  V30 8142 C 762.17 2.04725 1.10411 0
M  V30 8143 C 763.164 0.952579 1.4008 0
M  V30 8144 O 764.37 1.13769 1.39487 0
M  V30 8145 H 760.745 0.652749 0.373393 0
M  V30 8146 H 762.716 2.90569 0.679126 0
M  V30 8147 C 761.465 2.5068 2.40946 0
M  V30 8148 H 760.788 3.34505 2.18967 0
M  V30 8149 H 762.228 2.87521 3.11621 0
M  V30 8150 C 760.687 1.38971 3.06902 0
M  V30 8151 O 761.217 0.731786 3.94978 0
M  V30 8152 N 759.423 1.13485 2.67525 0
M  V30 8153 H 758.97 1.67168 1.95991 0
M  V30 8154 H 758.928 0.389467 3.11978 0
M  V30 8155 N 762.7 -0.34323 1.53817 0
M  V30 8156 C 763.947 -1.08344 1.71079 0
M  V30 8157 C 764.275 -1.88633 0.474133 0
M  V30 8158 O 763.53 -1.87984 -0.544116 0
M  V30 8159 C 763.829 -2.05195 2.92626 0
M  V30 8160 C 763.495 -1.41215 4.28216 0
M  V30 8161 C 762.157 -1.23495 4.65083 0
M  V30 8162 C 764.509 -0.951273 5.12445 0
M  V30 8163 C 761.837 -0.583065 5.83796 0
M  V30 8164 C 764.189 -0.313292 6.31824 0
M  V30 8165 C 762.853 -0.123779 6.67385 0
M  V30 8166 H 762.123 -0.396458 0.626021 0
M  V30 8167 H 764.77 -0.362689 1.88034 0
M  V30 8168 H 763.075 -2.83653 2.70275 0
M  V30 8169 H 764.772 -2.62462 3.03175 0
M  V30 8170 H 761.362 -1.56005 3.992 0
M  V30 8171 H 765.546 -1.07602 4.84495 0
M  V30 8172 H 760.802 -0.424854 6.09922 0
M  V30 8173 H 764.976 0.0519179 6.96381 0
M  V30 8174 H 762.603 0.383398 7.59233 0
M  V30 8175 N 764.178 -1.45556 -0.604258 0
M  V30 8176 C 765.408 -1.53056 -1.38771 0
M  V30 8177 C 765.816 -0.163092 -1.88496 0
M  V30 8178 O 765.159 0.846157 -1.63052 0
M  V30 8179 C 765.221 -2.45656 -2.62476 0
M  V30 8180 C 764.885 -3.92328 -2.34367 0
M  V30 8181 C 765.882 -4.82137 -1.94525 0
M  V30 8182 C 763.567 -4.37275 -2.47177 0
M  V30 8183 C 765.561 -6.14901 -1.67856 0
M  V30 8184 C 763.248 -5.70079 -2.20122 0
M  V30 8185 C 764.246 -6.58711 -1.80524 0
M  V30 8186 O 763.934 -7.89053 -1.53788 0
M  V30 8187 H 763.666 -0.520721 -0.431075 0
M  V30 8188 H 766.22 -1.91464 -0.743693 0
M  V30 8189 H 764.45 -2.02225 -3.29609 0
M  V30 8190 H 766.139 -2.43802 -3.24523 0
M  V30 8191 H 766.905 -4.48675 -1.84162 0
M  V30 8192 H 762.784 -3.68527 -2.76964 0
M  V30 8193 H 766.328 -6.8404 -1.36874 0
M  V30 8194 H 762.225 -6.03095 -2.30102 0
M  V30 8195 H 762.993 -8.01113 -1.67812 0
M  V30 8196 N 765.656 0.84705 -1.32902 0
M  V30 8197 C 766.905 1.59667 -1.23245 0
M  V30 8198 C 767.218 1.94551 0.202349 0
M  V30 8199 O 768.424 2.68218 0.420847 0
M  V30 8200 C 766.88 2.8795 -2.15901 0
M  V30 8201 C 766.488 2.60461 -3.64505 0
M  V30 8202 C 768.232 3.65968 -2.15098 0
M  V30 8203 C 766.139 3.84791 -4.49099 0
M  V30 8204 H 765.069 0.599167 -0.457728 0
M  V30 8205 H 767.72 0.934662 -1.57912 0
M  V30 8206 H 766.102 3.55648 -1.74157 0
M  V30 8207 H 767.276 2.01026 -4.14639 0
M  V30 8208 H 765.591 1.9576 -3.67515 0
M  V30 8209 H 768.188 4.58241 -2.75534 0
M  V30 8210 H 768.531 4.00275 -1.14392 0
M  V30 8211 H 769.064 3.05184 -2.55162 0
M  V30 8212 H 765.803 3.55621 -5.50649 0
M  V30 8213 H 765.323 4.43594 -4.03713 0
M  V30 8214 H 767.002 4.52454 -4.62487 0
M  V30 8215 N 767.134 1.16236 1.06428 0
M  V30 8216 C 768.38 0.944431 1.79467 0
M  V30 8217 C 768.713 -0.526558 1.86925 0
M  V30 8218 O 767.988 -1.39061 1.35986 0
M  V30 8219 C 768.271 1.57092 3.24028 0
M  V30 8220 C 768.124 3.11315 3.24658 0
M  V30 8221 C 769.443 1.26447 4.21544 0
M  V30 8222 H 766.562 0.344521 0.651517 0
M  V30 8223 H 769.204 1.43545 1.24478 0
M  V30 8224 H 767.354 1.15337 3.70985 0
M  V30 8225 H 769.026 3.62042 2.85873 0
M  V30 8226 H 767.269 3.44716 2.6335 0
M  V30 8227 H 767.94 3.50269 4.26633 0
M  V30 8228 H 770.416 1.62581 3.83023 0
M  V30 8229 H 769.292 1.72885 5.20963 0
M  V30 8230 H 769.553 0.183068 4.41721 0
M  V30 8231 N 768.612 -1.24939 0.960631 0
M  V30 8232 C 769.86 -1.92437 0.617441 0
M  V30 8233 C 770.181 -1.75543 -0.849101 0
M  V30 8234 O 769.451 -1.12269 -1.60538 0
M  V30 8235 H 768.031 -0.712192 0.225371 0
M  V30 8236 H 770.693 -1.5198 1.22017 0
M  V30 8237 H 769.789 -3.00247 0.851933 0
M  V30 8238 N 770.09 -0.729906 -1.39679 0
M  V30 8239 C 771.506 -0.404951 -1.54377 0
M  V30 8240 C 771.706 1.08476 -1.6981 0
M  V30 8241 O 770.762 1.87087 -1.69572 0
M  V30 8242 C 772.075 -1.18352 -2.76429 0
M  V30 8243 C 773.623 -1.17124 -2.9026 0
M  V30 8244 C 774.098 -1.93227 -4.15244 0
M  V30 8245 N 775.589 -1.90368 -4.22273 0
M  V30 8246 C 776.324 -2.46065 -5.17918 0
M  V30 8247 N 775.82 -3.10378 -6.19385 0
M  V30 8248 N 777.613 -2.36127 -5.10099 0
M  V30 8249 H 769.764 -1.69567 -1.27909 0
M  V30 8250 H 772.027 -0.717527 -0.619564 0
M  V30 8251 H 771.733 -2.23743 -2.71352 0
M  V30 8252 H 771.607 -0.784589 -3.6895 0
M  V30 8253 H 773.994 -0.125478 -2.94833 0
M  V30 8254 H 774.075 -1.60951 -1.98817 0
M  V30 8255 H 773.719 -2.97802 -4.11432 0
M  V30 8256 H 773.649 -1.4681 -5.05722 0
M  V30 8257 H 776.14 -1.4351 -3.4959 0
M  V30 8258 H 776.453 -3.50358 -6.88817 0
M  V30 8259 H 774.798 -3.14467 -6.19787 0
M  V30 8260 H 777.989 -1.85529 -4.29763 0
M  V30 8261 H 778.162 -2.79833 -5.84463 0
M  V30 8262 N 771.568 1.50203 -0.477153 0
M  V30 8263 C 772.845 1.95115 0.137609 0
M  V30 8264 C 773.225 1.41778 1.56404 0
M  V30 8265 O 772.573 0.621333 2.1989 0
M  V30 8266 C 772.783 3.4892 0.0747168 0
M  V30 8267 C 774.131 4.238 0.260585 0
M  V30 8268 O 775.155 3.5588 0.151021 0
M  V30 8269 O 774.014 5.44366 0.482534 0
M  V30 8270 H 771.108 0.81987 0.108364 0
M  V30 8271 H 773.654 1.60946 -0.537989 0
M  V30 8272 H 772.426 3.80308 -0.920966 0
M  V30 8273 H 772.049 3.89642 0.791509 0
M  V30 8274 N 773.046 0.209999 1.56195 0
M  V30 8275 C 774.457 -0.299943 1.84275 0
M  V30 8276 C 774.808 -1.60314 1.1311 0
M  V30 8277 O 773.933 -2.1273 0.396874 0
M  V30 8278 C 774.528 -0.550986 3.3429 0
M  V30 8279 C 773.087 -1.00526 3.62728 0
M  V30 8280 C 772.234 -0.0619828 2.77231 0
M  V30 8281 H 775.185 0.433458 1.52666 0
M  V30 8282 H 775.206 -1.39846 3.53869 0
M  V30 8283 H 774.718 0.397669 3.86057 0
M  V30 8284 H 772.819 -1.96768 3.16407 0
M  V30 8285 H 772.932 -0.887664 4.70805 0
M  V30 8286 H 771.296 -0.566648 2.48317 0
M  V30 8287 H 772.079 0.881383 3.31793 0
M  V30 8288 N 774.524 -1.57472 -0.0634922 0
M  V30 8289 C 775.487 -2.03268 -1.059 0
M  V30 8290 C 776.487 -0.931028 -1.31105 0
M  V30 8291 O 777.677 -1.19567 -1.26686 0
M  V30 8292 C 774.809 -2.42039 -2.40062 0
M  V30 8293 H 776.002 -2.92454 -0.664119 0
M  V30 8294 H 773.555 -1.53206 -0.309444 0
M  V30 8295 H 774.29 -1.55904 -2.84367 0
M  V30 8296 H 774.075 -3.22437 -2.23108 0
M  V30 8297 H 775.565 -2.78017 -3.11603 0
M  V30 8298 N 776.003 0.335068 -1.53997 0
M  V30 8299 C 777.251 1.07223 -1.71312 0
M  V30 8300 C 777.572 1.88911 -0.483486 0
M  V30 8301 O 776.842 1.89344 0.50257 0
M  V30 8302 H 775.422 0.398846 -0.63161 0
M  V30 8303 H 778.084 0.374288 -1.91272 0
M  V30 8304 H 777.18 1.7448 -2.58772 0
M  V30 8305 N 777.481 1.45874 0.596531 0
M  V30 8306 C 778.414 1.49889 1.72071 0
M  V30 8307 C 779.392 0.354224 1.58695 0
M  V30 8308 O 780.576 0.556355 1.80103 0
M  V30 8309 C 777.703 1.3644 3.10003 0
M  V30 8310 C 776.749 2.54913 3.41938 0
M  V30 8311 S 777.582 4.17336 3.35545 0
M  V30 8312 C 778.738 4.06372 4.76039 0
M  V30 8313 H 778.971 2.45005 1.68404 0
M  V30 8314 H 776.504 1.33592 0.77412 0
M  V30 8315 H 778.462 1.29368 3.89582 0
M  V30 8316 H 777.123 0.427762 3.11174 0
M  V30 8317 H 776.316 2.41458 4.42396 0
M  V30 8318 H 775.918 2.58904 2.69898 0
M  V30 8319 H 778.21 3.72199 5.66105 0
M  V30 8320 H 779.153 5.0678 4.9455 0
M  V30 8321 H 779.561 3.37846 4.52239 0
M  V30 8322 N 778.959 -0.83999 1.33349 0
M  V30 8323 C 780.37 -1.41139 1.22216 0
M  V30 8324 C 780.721 -1.95551 -0.159398 0
M  V30 8325 O 779.846 -1.88721 -1.05893 0
M  V30 8326 C 780.441 -2.56564 2.21269 0
M  V30 8327 C 779 -3.09661 2.13979 0
M  V30 8328 C 778.147 -1.82457 2.08818 0
M  V30 8329 H 781.098 -0.645853 1.44964 0
M  V30 8330 H 781.119 -3.34163 1.81976 0
M  V30 8331 H 780.631 -2.16932 3.21811 0
M  V30 8332 H 778.732 -3.53841 1.16736 0
M  V30 8333 H 778.845 -3.6991 3.04472 0
M  V30 8334 H 777.209 -2.0266 1.54276 0
M  V30 8335 H 777.992 -1.45022 3.11165 0
M  V30 8336 N 780.437 -1.16799 -1.0581 0
M  V30 8337 C 781.387 -0.847231 -2.11674 0
M  V30 8338 C 782.371 0.175476 -1.5994 0
M  V30 8339 O 783.563 -0.0260602 -1.76981 0
M  V30 8340 C 780.692 -0.355446 -3.41455 0
M  V30 8341 C 779.778 -1.40922 -4.00002 0
M  V30 8342 N 780.169 -2.62096 -4.32596 0
M  V30 8343 C 778.467 -1.26562 -4.27666 0
M  V30 8344 C 779.168 -3.29759 -4.79201 0
M  V30 8345 N 778.144 -2.57138 -4.78938 0
M  V30 8346 H 781.946 -1.76862 -2.34727 0
M  V30 8347 H 779.46 -1.05577 -1.23399 0
M  V30 8348 H 781.457 -0.107231 -4.16762 0
M  V30 8349 H 780.117 0.559817 -3.19838 0
M  V30 8350 H 781.128 -2.99113 -4.22791 0
M  V30 8351 H 777.805 -0.411503 -4.15467 0
M  V30 8352 H 779.195 -4.33222 -5.13584 0
M  V30 8353 N 781.915 1.24427 -0.967243 0
M  V30 8354 C 783.326 1.74349 -0.667785 0
M  V30 8355 C 783.677 1.78403 0.816509 0
M  V30 8356 O 782.802 1.41315 1.63887 0
M  V30 8357 C 783.397 3.16628 -1.20548 0
M  V30 8358 C 781.956 3.64059 -0.955934 0
M  V30 8359 C 781.103 2.42715 -1.34106 0
M  V30 8360 H 784.054 1.10136 -1.14262 0
M  V30 8361 H 784.075 3.76183 -0.571547 0
M  V30 8362 H 783.587 3.13646 -2.28578 0
M  V30 8363 H 781.688 3.72441 0.108858 0
M  V30 8364 H 781.801 4.51549 -1.60126 0
M  V30 8365 H 780.165 2.43114 -0.759452 0
M  V30 8366 H 780.948 2.42414 -2.43085 0
M  V30 8367 N 783.393 0.737304 1.3929 0
M  V30 8368 C 784.303 0.100464 2.34385 0
M  V30 8369 C 785.319 -0.719282 1.58437 0
M  V30 8370 O 786.495 -0.647216 1.90717 0
M  V30 8371 C 783.56 -0.794325 3.37478 0
M  V30 8372 C 782.621 0.0379345 4.29283 0
M  V30 8373 C 781.854 -0.814241 5.27452 0
M  V30 8374 O 782.077 -2.05288 5.32177 0
M  V30 8375 O 781.011 -0.241679 6.01415 0
M  V30 8376 H 784.837 0.885407 2.90507 0
M  V30 8377 H 782.422 0.497999 1.40856 0
M  V30 8378 H 784.304 -1.30622 4.00644 0
M  V30 8379 H 782.979 -1.55804 2.83737 0
M  V30 8380 H 781.886 0.595405 3.69331 0
M  V30 8381 H 783.219 0.763926 4.86236 0
M  V30 8382 N 784.871 -1.49948 0.485112 0
M  V30 8383 C 786.099 -2.06806 -0.0622824 0
M  V30 8384 C 786.514 -1.34736 -1.32256 0
M  V30 8385 O 785.871 -0.420836 -1.77582 0
M  V30 8386 C 785.922 -3.59934 -0.336096 0
M  V30 8387 O 785.643 -4.29289 0.874203 0
M  V30 8388 C 787.144 -4.33459 -0.928903 0
M  V30 8389 H 784.364 -0.670867 0.0133472 0
M  V30 8390 H 786.908 -1.92937 0.677917 0
M  V30 8391 H 785.063 -3.7356 -1.02625 0
M  V30 8392 H 785.477 -5.20735 0.627332 0
M  V30 8393 H 786.951 -5.41527 -1.07017 0
M  V30 8394 H 787.428 -3.94881 -1.92265 0
M  V30 8395 H 788.034 -4.24399 -0.276705 0
M  V30 8396 N 786.349 -0.21828 -1.56081 0
M  V30 8397 C 787.597 0.413488 -1.97825 0
M  V30 8398 C 787.918 1.60527 -1.10707 0
M  V30 8399 O 787.188 1.9504 -0.183378 0
M  V30 8400 H 785.768 0.155757 -0.730581 0
M  V30 8401 H 788.43 -0.310413 -1.92412 0
M  V30 8402 H 787.526 0.742024 -3.03151 0
M  V30 8403 N 787.827 1.57504 0.0551401 0
M  V30 8404 C 788.774 2.04825 1.06373 0
M  V30 8405 C 789.744 0.932108 1.37481 0
M  V30 8406 O 790.929 1.20093 1.48265 0
M  V30 8407 C 788.069 2.51091 2.36743 0
M  V30 8408 C 787.182 3.76392 2.12021 0
M  V30 8409 C 786.317 4.11373 3.36074 0
M  V30 8410 C 785.356 5.29666 3.0679 0
M  V30 8411 N 784.493 5.60205 4.2322 0
M  V30 8412 H 789.333 2.90753 0.653216 0
M  V30 8413 H 786.87 1.43776 0.310951 0
M  V30 8414 H 788.828 2.75973 3.12881 0
M  V30 8415 H 787.458 1.68118 2.75565 0
M  V30 8416 H 786.51 3.58751 1.26498 0
M  V30 8417 H 787.822 4.62662 1.86401 0
M  V30 8418 H 786.976 4.37245 4.20597 0
M  V30 8419 H 785.715 3.23704 3.64784 0
M  V30 8420 H 784.72 5.03574 2.20664 0
M  V30 8421 H 785.945 6.18968 2.79385 0
M  V30 8422 H 783.891 4.75495 4.5193 0
M  V30 8423 H 783.808 6.40928 4.00933 0
M  V30 8424 H 785.076 5.90637 5.08692 0
M  V30 8425 N 789.305 -0.326896 1.54172 0
M  V30 8426 C 790.582 -1.08326 1.62864 0
M  V30 8427 C 790.962 -2.06018 0.46039 0
M  V30 8428 O 790.31 -2.21889 -0.545685 0
M  V30 8429 C 790.52 -1.78816 2.9971 0
M  V30 8430 C 791.868 -2.31958 3.55641 0
M  V30 8431 O 792.892 -1.88888 3.01993 0
M  V30 8432 O 791.751 -3.10801 4.49517 0
M  V30 8433 H 788.845 -0.499131 0.659392 0
M  V30 8434 H 791.391 -0.327054 1.66519 0
M  V30 8435 H 790.163 -1.07739 3.76176 0
M  V30 8436 H 789.786 -2.61255 2.99719 0
M  V30 8437 N 790.784 -1.46188 -0.588786 0
M  V30 8438 C 791.714 -1.59148 -1.70863 0
M  V30 8439 C 792.695 -0.442083 -1.64255 0
M  V30 8440 O 793.88 -0.667575 -1.82365 0
M  V30 8441 C 791.01 -1.5757 -3.09498 0
M  V30 8442 C 789.964 -2.71418 -3.30932 0
M  V30 8443 C 789.29 -2.549 -4.70032 0
M  V30 8444 C 790.59 -4.1329 -3.19356 0
M  V30 8445 H 792.284 -2.52889 -1.60274 0
M  V30 8446 H 789.83 -1.21707 -0.769638 0
M  V30 8447 H 791.783 -1.65231 -3.87655 0
M  V30 8448 H 790.507 -0.603705 -3.20972 0
M  V30 8449 H 789.166 -2.63216 -2.55172 0
M  V30 8450 H 788.814 -1.55797 -4.78264 0
M  V30 8451 H 788.514 -3.31257 -4.85327 0
M  V30 8452 H 790.038 -2.64443 -5.50366 0
M  V30 8453 H 791.452 -4.22636 -3.87365 0
M  V30 8454 H 789.849 -4.90187 -3.46175 0
M  V30 8455 H 790.919 -4.33874 -2.16522 0
M  V30 8456 N 792.262 0.832906 -1.33792 0
M  V30 8457 C 793.492 1.61813 -1.28453 0
M  V30 8458 C 793.9 1.88639 0.145595 0
M  V30 8459 O 793.243 1.47122 1.10004 0
M  V30 8460 C 793.305 2.98929 -1.99704 0
M  V30 8461 C 792.969 2.95045 -3.48995 0
M  V30 8462 C 793.966 2.70337 -4.44088 0
M  V30 8463 C 791.651 3.14993 -3.91261 0
M  V30 8464 C 793.645 2.65612 -5.79421 0
M  V30 8465 C 791.332 3.09893 -5.26697 0
M  V30 8466 C 792.33 2.85235 -6.20588 0
M  V30 8467 O 792.018 2.8005 -7.53543 0
M  V30 8468 H 791.75 0.510013 -0.443693 0
M  V30 8469 H 794.304 1.04514 -1.76822 0
M  V30 8470 H 792.534 3.58106 -1.45935 0
M  V30 8471 H 794.223 3.59849 -1.87786 0
M  V30 8472 H 794.989 2.54671 -4.12756 0
M  V30 8473 H 790.868 3.33204 -3.18584 0
M  V30 8474 H 794.412 2.46285 -6.52679 0
M  V30 8475 H 790.309 3.2511 -5.5765 0
M  V30 8476 H 791.077 2.95849 -7.63162 0
M  V30 8477 N 793.74 1.17359 1.05189 0
M  V30 8478 C 794.65 0.904984 2.16442 0
M  V30 8479 C 795.666 -0.12686 1.73537 0
M  V30 8480 O 796.842 0.0524127 2.01332 0
M  V30 8481 C 793.907 0.422019 3.44122 0
M  V30 8482 C 792.968 1.52045 4.01473 0
M  V30 8483 C 792.201 1.06044 5.23059 0
M  V30 8484 O 792.424 -0.0854023 5.70336 0
M  V30 8485 O 791.358 1.85349 5.72651 0
M  V30 8486 H 795.184 1.8356 2.41949 0
M  V30 8487 H 792.769 0.95447 1.14936 0
M  V30 8488 H 794.651 0.160208 4.21095 0
M  V30 8489 H 793.326 -0.480444 3.20115 0
M  V30 8490 H 792.233 1.83615 3.25939 0
M  V30 8491 H 793.566 2.39863 4.29798 0
M  V30 8492 N 795.218 -1.23913 0.973828 0
M  V30 8493 C 796.629 -1.73992 0.677021 0
M  V30 8494 C 796.98 -1.78833 -0.807036 0
M  V30 8495 O 796.105 -1.42183 -1.63135 0
M  V30 8496 C 796.7 -3.15985 1.22226 0
M  V30 8497 C 795.259 -3.63547 0.975228 0
M  V30 8498 C 794.406 -2.42001 1.35392 0
M  V30 8499 H 797.357 -1.09529 1.14844 0
M  V30 8500 H 797.378 -3.75875 0.591489 0
M  V30 8501 H 796.89 -3.12429 2.30238 0
M  V30 8502 H 794.991 -3.72493 -0.0891047 0
M  V30 8503 H 795.104 -4.50693 1.62518 0
M  V30 8504 H 793.468 -2.42708 0.772334 0
M  V30 8505 H 794.251 -2.41122 2.44367 0
M  V30 8506 N 796.696 -0.74468 -1.38897 0
M  V30 8507 C 797.921 -0.306119 -2.05128 0
M  V30 8508 C 798.346 1.0541 -1.55789 0
M  V30 8509 O 797.704 1.66993 -0.705909 0
M  V30 8510 C 797.752 -0.328195 -3.59103 0
M  V30 8511 O 796.856 0.680876 -4.06741 0
M  V30 8512 H 796.197 -0.137209 -0.649669 0
M  V30 8513 H 798.727 -1.01331 -1.77745 0
M  V30 8514 H 798.737 -0.175956 -4.0762 0
M  V30 8515 H 797.412 -1.32067 -3.94374 0
M  V30 8516 H 795.989 0.49398 -3.69614 0
M  V30 8517 N 798.174 1.49689 -0.493057 0
M  V30 8518 C 799.124 2.25901 0.308682 0
M  V30 8519 C 800.108 1.30408 0.94247 0
M  V30 8520 O 801.3 1.55179 0.851384 0
M  V30 8521 C 798.429 3.14463 1.37725 0
M  V30 8522 C 797.515 4.17414 0.7501 0
M  V30 8523 N 797.906 5.05599 -0.142597 0
M  V30 8524 C 796.204 4.34377 1.01159 0
M  V30 8525 C 796.905 5.7954 -0.500782 0
M  V30 8526 N 795.881 5.43446 0.129386 0
M  V30 8527 H 799.683 2.91451 -0.378652 0
M  V30 8528 H 797.197 1.59441 -0.308614 0
M  V30 8529 H 799.194 3.67687 1.965 0
M  V30 8530 H 797.854 2.50464 2.06635 0
M  V30 8531 H 798.865 5.15354 -0.512894 0
M  V30 8532 H 795.542 3.81588 1.69402 0
M  V30 8533 H 796.932 6.60534 -1.23063 0
M  V30 8534 N 799.652 0.226554 1.55963 0
M  V30 8535 C 800.9 -0.402991 1.98041 0
M  V30 8536 C 801.221 -1.59938 1.11557 0
M  V30 8537 O 800.491 -1.9494 0.193719 0
M  V30 8538 H 799.071 -0.15188 0.731397 0
M  V30 8539 H 801.733 0.320613 1.92245 0
M  V30 8540 H 800.829 -0.725937 3.0354 0
M  V30 8541 N 801.13 -1.57531 -0.0467866 0
M  V30 8542 C 802.093 -2.04379 -1.03738 0
M  V30 8543 C 803.093 -0.944881 -1.3011 0
M  V30 8544 O 804.283 -1.20904 -1.25411 0
M  V30 8545 C 801.415 -2.44572 -2.37482 0
M  V30 8546 H 802.608 -2.93142 -0.633063 0
M  V30 8547 H 800.161 -1.53526 -0.293177 0
M  V30 8548 H 800.896 -1.58911 -2.82697 0
M  V30 8549 H 800.681 -3.24785 -2.19675 0
M  V30 8550 H 802.171 -2.81307 -3.08636 0
M  V30 8551 N 802.608 0.318715 -1.54344 0
M  V30 8552 C 803.555 1.39242 -1.84066 0
M  V30 8553 C 804.525 1.51175 -0.688134 0
M  V30 8554 O 805.71 1.66318 -0.935039 0
M  V30 8555 C 802.85 2.75528 -2.07794 0
M  V30 8556 C 801.963 2.72187 -3.35467 0
M  V30 8557 C 801.098 4.00352 -3.4913 0
M  V30 8558 C 800.137 3.91338 -4.7066 0
M  V30 8559 N 799.274 5.11242 -4.81224 0
M  V30 8560 H 804.114 1.13196 -2.75664 0
M  V30 8561 H 801.651 0.547857 -1.36517 0
M  V30 8562 H 803.609 3.54763 -2.19543 0
M  V30 8563 H 802.239 2.99873 -1.19482 0
M  V30 8564 H 801.291 1.84917 -3.3243 0
M  V30 8565 H 802.603 2.61411 -4.24812 0
M  V30 8566 H 801.757 4.88019 -3.60448 0
M  V30 8567 H 800.496 4.1394 -2.57886 0
M  V30 8568 H 799.501 3.02055 -4.59394 0
M  V30 8569 H 800.726 3.7931 -5.63294 0
M  V30 8570 H 798.672 5.25327 -3.92897 0
M  V30 8571 H 798.589 5.0282 -5.64543 0
M  V30 8572 H 799.857 6.0061 -4.96879 0
M  V30 8573 N 804.086 1.46499 0.581025 0
M  V30 8574 C 805.332 1.52121 1.34116 0
M  V30 8575 C 805.665 0.173031 1.93428 0
M  V30 8576 O 804.94 -0.815729 1.76568 0
M  V30 8577 C 805.223 2.62108 2.46924 0
M  V30 8578 C 805.076 4.06462 1.92636 0
M  V30 8579 C 806.395 2.68167 3.48962 0
M  V30 8580 H 803.514 0.5538 0.486287 0
M  V30 8581 H 806.156 1.78443 0.652538 0
M  V30 8582 H 804.306 2.39794 3.05665 0
M  V30 8583 H 805.978 4.40068 1.3834 0
M  V30 8584 H 804.221 4.15862 1.23455 0
M  V30 8585 H 804.892 4.79152 2.74076 0
M  V30 8586 H 807.368 2.8823 3.00104 0
M  V30 8587 H 806.244 3.46942 4.2535 0
M  V30 8588 H 806.505 1.74284 4.06297 0
M  V30 8589 N 805.565 -0.825799 1.34232 0
M  V30 8590 C 806.495 -1.95151 1.28212 0
M  V30 8591 C 807.476 -1.69345 0.160123 0
M  V30 8592 O 808.661 -1.90983 0.352019 0
M  V30 8593 C 805.791 -3.31554 1.03388 0
M  V30 8594 C 804.745 -3.71793 2.12023 0
M  V30 8595 C 804.071 -5.06147 1.72392 0
M  V30 8596 C 805.371 -3.84193 3.53826 0
M  V30 8597 H 807.065 -2.00445 2.22401 0
M  V30 8598 H 804.611 -0.962996 1.07063 0
M  V30 8599 H 806.564 -4.09889 0.978225 0
M  V30 8600 H 805.288 -3.26551 0.0564142 0
M  V30 8601 H 803.947 -2.95731 2.16654 0
M  V30 8602 H 803.595 -4.97628 0.733137 0
M  V30 8603 H 803.295 -5.34041 2.451 0
M  V30 8604 H 804.819 -5.86943 1.68317 0
M  V30 8605 H 806.233 -4.52806 3.51624 0
M  V30 8606 H 804.63 -4.23538 4.2513 0
M  V30 8607 H 805.7 -2.86272 3.91377 0
M  V30 8608 N 807.043 -1.17915 -1.04565 0
M  V30 8609 C 808.271 -0.99616 -1.8134 0
M  V30 8610 C 808.686 0.455509 -1.83223 0
M  V30 8611 O 808.043 1.31636 -1.26405 0
M  V30 8612 C 808.094 -1.53758 -3.27171 0
M  V30 8613 O 807.815 -2.93241 -3.25486 0
M  V30 8614 C 809.316 -1.40007 -4.2061 0
M  V30 8615 H 806.536 -0.352055 -0.571225 0
M  V30 8616 H 809.08 -1.56349 -1.31815 0
M  V30 8617 H 807.235 -1.01213 -3.73945 0
M  V30 8618 H 807.649 -3.18392 -4.16805 0
M  V30 8619 H 809.123 -1.82695 -5.2089 0
M  V30 8620 H 809.6 -0.348054 -4.37819 0
M  V30 8621 H 810.206 -1.916 -3.79697 0
M  V30 8622 N 808.521 1.23394 -0.980386 0
M  V30 8623 C 809.454 2.23404 -0.465404 0
M  V30 8624 C 810.432 1.55735 0.467471 0
M  V30 8625 O 811.616 1.84295 0.395921 0
M  V30 8626 C 808.743 3.3712 0.32672 0
M  V30 8627 C 807.789 4.22935 -0.550296 0
M  V30 8628 S 808.622 4.96824 -1.99814 0
M  V30 8629 C 809.778 6.13991 -1.21516 0
M  V30 8630 H 810.011 2.6674 -1.31289 0
M  V30 8631 H 807.544 1.32874 -0.78638 0
M  V30 8632 H 809.502 4.03065 0.777738 0
M  V30 8633 H 808.163 2.92317 1.14933 0
M  V30 8634 H 807.356 5.03966 0.0585298 0
M  V30 8635 H 806.958 3.62058 -0.937558 0
M  V30 8636 H 809.25 6.75822 -0.476476 0
M  V30 8637 H 810.193 6.7926 -2.0003 0
M  V30 8638 H 810.601 5.59708 -0.733949 0
M  V30 8639 N 809.999 0.752036 1.385 0
M  V30 8640 C 810.962 0.131587 2.28822 0
M  V30 8641 C 811.962 -0.649149 1.47115 0
M  V30 8642 O 813.152 -0.475645 1.67581 0
M  V30 8643 C 810.284 -0.822101 3.30839 0
M  V30 8644 H 811.477 0.927551 2.85196 0
M  V30 8645 H 809.03 0.518945 1.47434 0
M  V30 8646 H 809.765 -1.6438 2.79553 0
M  V30 8647 H 809.55 -0.264689 3.91206 0
M  V30 8648 H 811.04 -1.25226 3.98382 0
M  V30 8649 N 811.477 -1.49425 0.500989 0
M  V30 8650 C 812.888 -1.86624 0.0532011 0
M  V30 8651 C 813.239 -1.41331 -1.36088 0
M  V30 8652 O 812.364 -0.791195 -2.01418 0
M  V30 8653 C 812.959 -3.38681 0.0897693 0
M  V30 8654 C 811.518 -3.75181 -0.302677 0
M  V30 8655 C 810.665 -2.73419 0.462307 0
M  V30 8656 H 813.616 -1.41743 0.713773 0
M  V30 8657 H 813.637 -3.73902 -0.705528 0
M  V30 8658 H 813.149 -3.71616 1.11907 0
M  V30 8659 H 811.25 -3.47855 -1.33521 0
M  V30 8660 H 811.363 -4.79097 0.0167653 0
M  V30 8661 H 809.727 -2.54548 -0.0878557 0
M  V30 8662 H 810.51 -3.09198 1.49169 0
M  V30 8663 N 812.955 -0.234822 -1.55841 0
M  V30 8664 C 814.203 0.392483 -1.98252 0
M  V30 8665 C 814.524 1.59344 -1.12404 0
M  V30 8666 O 813.794 1.94834 -0.204055 0
M  V30 8667 H 812.374 0.147999 -0.732192 0
M  V30 8668 H 815.036 -0.330804 -1.92072 0
M  V30 8669 H 814.132 0.709829 -3.03921 0
M  V30 8670 N 814.433 1.57553 0.0384317 0
M  V30 8671 C 815.363 2.0898 1.04161 0
M  V30 8672 C 816.344 0.99029 1.38301 0
M  V30 8673 O 817.529 1.26499 1.47349 0
M  V30 8674 C 814.659 2.56145 2.34536 0
M  V30 8675 C 813.613 3.70275 2.14663 0
M  V30 8676 C 812.939 4.03612 3.50715 0
M  V30 8677 C 814.239 4.99067 1.54045 0
M  V30 8678 H 815.933 2.93046 0.613548 0
M  V30 8679 H 813.479 1.40973 0.293684 0
M  V30 8680 H 815.432 2.90741 3.05037 0
M  V30 8681 H 814.156 1.6915 2.79385 0
M  V30 8682 H 812.815 3.36013 1.46597 0
M  V30 8683 H 812.463 3.13698 3.93195 0
M  V30 8684 H 812.163 4.80482 3.38247 0
M  V30 8685 H 813.687 4.40735 4.22593 0
M  V30 8686 H 815.101 5.3168 2.14451 0
M  V30 8687 H 813.498 5.80484 1.52178 0
M  V30 8688 H 814.568 4.8226 0.505259 0
M  V30 8689 N 815.911 -0.310526 1.54511 0
M  V30 8690 C 817.16 -1.0445 1.72549 0
M  V30 8691 C 817.473 -1.88748 0.513172 0
M  V30 8692 O 818.679 -2.65338 0.575165 0
M  V30 8693 C 817.135 -1.90665 3.05246 0
M  V30 8694 C 816.743 -1.11415 4.33925 0
M  V30 8695 C 818.487 -2.63719 3.32645 0
M  V30 8696 C 816.394 -1.96852 5.57677 0
M  V30 8697 H 815.324 -0.393676 0.643067 0
M  V30 8698 H 817.975 -0.302003 1.80998 0
M  V30 8699 H 816.357 -2.68864 2.90737 0
M  V30 8700 H 817.531 -0.378956 4.59239 0
M  V30 8701 H 815.846 -0.499853 4.13389 0
M  V30 8702 H 818.443 -3.27974 4.223 0
M  V30 8703 H 818.786 -3.32047 2.51098 0
M  V30 8704 H 819.319 -1.92574 3.48081 0
M  V30 8705 H 816.058 -1.33009 6.41864 0
M  V30 8706 H 815.578 -2.68069 5.36562 0
M  V30 8707 H 817.257 -2.55127 5.94575 0
M  V30 8708 N 817.389 -1.46805 -0.573248 0
M  V30 8709 C 818.617 -1.56191 -1.3569 0
M  V30 8710 C 819.032 -0.206362 -1.87669 0
M  V30 8711 O 818.389 0.797883 -1.64134 0
M  V30 8712 C 818.44 -2.57433 -2.53792 0
M  V30 8713 O 818.161 -3.87724 -2.03965 0
M  V30 8714 C 819.662 -2.76851 -3.4622 0
M  V30 8715 H 816.882 -0.527907 -0.414192 0
M  V30 8716 H 819.426 -1.92292 -0.695989 0
M  V30 8717 H 817.581 -2.24311 -3.15854 0
M  V30 8718 H 817.995 -4.42909 -2.80948 0
M  V30 8719 H 819.469 -3.5159 -4.25545 0
M  V30 8720 H 819.946 -1.84095 -3.98755 0
M  V30 8721 H 820.552 -3.11107 -2.89987 0
M  V30 8722 N 818.867 0.818669 -1.34668 0
M  V30 8723 C 819.797 1.94468 -1.29245 0
M  V30 8724 C 820.778 1.69257 -0.169101 0
M  V30 8725 O 821.963 1.90794 -0.362143 0
M  V30 8726 C 819.093 3.31001 -1.05145 0
M  V30 8727 C 818.047 3.70663 -2.13992 0
M  V30 8728 C 817.373 5.05226 -1.75074 0
M  V30 8729 C 818.673 3.82312 -3.55858 0
M  V30 8730 H 820.367 1.99263 -2.2346 0
M  V30 8731 H 817.913 0.957304 -1.07572 0
M  V30 8732 H 819.866 4.09364 -0.999949 0
M  V30 8733 H 818.59 3.26517 -0.0737312 0
M  V30 8734 H 817.249 2.94578 -2.18219 0
M  V30 8735 H 816.897 4.97233 -0.759518 0
M  V30 8736 H 816.597 5.32734 -2.47928 0
M  V30 8737 H 818.121 5.86042 -1.71427 0
M  V30 8738 H 819.535 4.50935 -3.5402 0
M  V30 8739 H 817.932 4.21278 -4.2737 0
M  V30 8740 H 819.002 2.84193 -3.9289 0
M  V30 8741 N 820.346 1.18468 1.03938 0
M  V30 8742 C 821.256 0.927889 2.1547 0
M  V30 8743 C 822.272 -0.108447 1.73662 0
M  V30 8744 O 823.448 0.0737636 2.01265 0
M  V30 8745 C 820.513 0.458494 3.43655 0
M  V30 8746 C 819.574 1.56295 3.99838 0
M  V30 8747 C 818.807 1.11586 5.21904 0
M  V30 8748 O 819.03 -0.0249057 5.70395 0
M  V30 8749 O 817.964 1.91412 5.70653 0
M  V30 8750 H 821.79 1.86116 2.39989 0
M  V30 8751 H 819.375 0.966607 1.13917 0
M  V30 8752 H 821.257 0.204861 4.20902 0
M  V30 8753 H 819.932 -0.446464 3.20606 0
M  V30 8754 H 818.839 1.87061 3.23974 0
M  V30 8755 H 820.172 2.44408 4.2723 0
M  V30 8756 N 821.824 -1.22873 0.986916 0
M  V30 8757 C 823.073 -1.90772 0.654911 0
M  V30 8758 C 823.386 -1.77768 -0.81595 0
M  V30 8759 O 824.592 -2.40529 -1.25929 0
M  V30 8760 C 823.048 -3.42003 1.12081 0
M  V30 8761 C 822.656 -3.63655 2.61647 0
M  V30 8762 C 824.4 -4.15638 0.862854 0
M  V30 8763 C 822.307 -5.08555 3.01871 0
M  V30 8764 H 821.237 -0.714362 0.241252 0
M  V30 8765 H 823.888 -1.39196 1.19568 0
M  V30 8766 H 822.27 -3.92725 0.508207 0
M  V30 8767 H 823.444 -3.2345 3.28202 0
M  V30 8768 H 821.759 -3.03341 2.8526 0
M  V30 8769 H 824.356 -5.22425 1.13915 0
M  V30 8770 H 824.699 -4.15814 -0.201036 0
M  V30 8771 H 825.232 -3.70924 1.43736 0
M  V30 8772 H 821.971 -5.13514 4.07411 0
M  V30 8773 H 821.491 -5.49684 2.40015 0
M  V30 8774 H 823.17 -5.76936 2.92839 0
M  V30 8775 N 823.302 -0.75937 -1.38099 0
M  V30 8776 C 824.548 -0.318584 -2.00282 0
M  V30 8777 C 824.881 1.09854 -1.60143 0
M  V30 8778 O 824.156 1.75344 -0.841702 0
M  V30 8779 C 824.439 -0.448047 -3.57302 0
M  V30 8780 C 824.292 -1.9067 -4.07388 0
M  V30 8781 C 825.611 0.155119 -4.39827 0
M  V30 8782 H 822.73 -0.117233 -0.727616 0
M  V30 8783 H 825.372 -0.960097 -1.63958 0
M  V30 8784 H 823.522 0.0981003 -3.88376 0
M  V30 8785 H 825.194 -2.5116 -3.86932 0
M  V30 8786 H 823.437 -2.41979 -3.6004 0
M  V30 8787 H 824.108 -1.94841 -5.1647 0
M  V30 8788 H 826.584 -0.31073 -4.14938 0
M  V30 8789 H 825.46 0.0343264 -5.48889 0
M  V30 8790 H 825.721 1.24407 -4.24235 0
M  V30 8791 N 824.78 1.49157 -0.508906 0
M  V30 8792 C 826.191 1.86593 -0.0630975 0
M  V30 8793 C 826.542 1.42051 1.35337 0
M  V30 8794 O 825.667 0.801866 2.00995 0
M  V30 8795 C 826.262 3.38629 -0.107729 0
M  V30 8796 C 824.821 3.75336 0.282776 0
M  V30 8797 C 823.968 2.7317 -0.4768 0
M  V30 8798 H 826.919 1.41362 -0.72128 0
M  V30 8799 H 826.94 3.74271 0.685689 0
M  V30 8800 H 826.452 3.71017 -1.13876 0
M  V30 8801 H 824.553 3.48558 1.31675 0
M  V30 8802 H 824.666 4.79081 -0.0421728 0
M  V30 8803 H 823.03 2.54591 0.0743552 0
M  V30 8804 H 823.813 3.08403 -1.50807 0
M  V30 8805 N 826.258 0.243083 1.55714 0
M  V30 8806 C 827.505 -0.38272 1.9885 0
M  V30 8807 C 827.833 -1.58225 1.13115 0
M  V30 8808 O 827.088 -1.94861 0.181067 0
M  V30 8809 C 827.387 -0.839621 3.47398 0
M  V30 8810 C 827.053 0.251737 4.50197 0
M  V30 8811 C 825.715 0.551487 4.78029 0
M  V30 8812 C 828.067 0.988728 5.11736 0
M  V30 8813 C 825.395 1.59237 5.64677 0
M  V30 8814 C 827.747 2.0191 5.99512 0
M  V30 8815 C 826.411 2.32554 6.2568 0
M  V30 8816 H 825.681 -0.140047 0.727645 0
M  V30 8817 H 828.328 0.35011 1.88272 0
M  V30 8818 H 826.633 -1.65159 3.55288 0
M  V30 8819 H 828.33 -1.33404 3.78159 0
M  V30 8820 H 824.92 0.00796741 4.28599 0
M  V30 8821 H 829.104 0.7704 4.90284 0
M  V30 8822 H 824.36 1.83517 5.83208 0
M  V30 8823 H 828.534 2.59511 6.46241 0
M  V30 8824 H 826.161 3.13349 6.92616 0
M  V30 8825 N 827.736 -1.57571 -0.0300757 0
M  V30 8826 C 829.152 -1.54869 -0.385703 0
M  V30 8827 C 829.352 -0.969068 -1.76667 0
M  V30 8828 O 828.408 -0.589676 -2.45518 0
M  V30 8829 C 829.721 -2.99313 -0.288482 0
M  V30 8830 C 831.269 -3.10857 -0.365638 0
M  V30 8831 C 831.744 -4.5703 -0.297878 0
M  V30 8832 N 833.235 -4.61825 -0.356703 0
M  V30 8833 C 833.97 -5.72466 -0.327146 0
M  V30 8834 N 833.466 -6.92349 -0.249941 0
M  V30 8835 N 835.259 -5.60836 -0.376801 0
M  V30 8836 H 827.41 -1.936 0.87367 0
M  V30 8837 H 829.673 -0.887924 0.332106 0
M  V30 8838 H 829.379 -3.45443 0.66047 0
M  V30 8839 H 829.253 -3.61332 -1.08253 0
M  V30 8840 H 831.64 -2.64676 -1.30502 0
M  V30 8841 H 831.721 -2.51671 0.457744 0
M  V30 8842 H 831.365 -5.03879 0.637835 0
M  V30 8843 H 831.295 -5.14127 -1.13935 0
M  V30 8844 H 833.786 -3.75571 -0.418926 0
M  V30 8845 H 834.099 -7.7245 -0.23246 0
M  V30 8846 H 832.444 -6.94664 -0.216004 0
M  V30 8847 H 835.635 -4.66073 -0.435101 0
M  V30 8848 H 835.808 -6.47052 -0.350298 0
M  V30 8849 N 829.214 0.302327 -1.54673 0
M  V30 8850 C 830.46 1.03924 -1.74149 0
M  V30 8851 C 830.793 1.86968 -0.525041 0
M  V30 8852 O 830.068 1.88538 0.477868 0
M  V30 8853 C 830.351 1.94633 -3.02969 0
M  V30 8854 C 830.204 1.14778 -4.34909 0
M  V30 8855 C 831.523 2.93826 -3.27649 0
M  V30 8856 H 828.642 0.376405 -0.633631 0
M  V30 8857 H 831.284 0.314007 -1.87387 0
M  V30 8858 H 829.434 2.56471 -2.91813 0
M  V30 8859 H 831.106 0.552363 -4.57981 0
M  V30 8860 H 829.349 0.450462 -4.31455 0
M  V30 8861 H 830.02 1.81495 -5.21309 0
M  V30 8862 H 832.496 2.42117 -3.38406 0
M  V30 8863 H 831.372 3.54462 -4.19104 0
M  V30 8864 H 831.633 3.67416 -2.45882 0
M  V30 8865 N 830.692 1.47107 0.565454 0
M  V30 8866 C 831.655 1.58535 1.65527 0
M  V30 8867 C 832.655 0.461081 1.54048 0
M  V30 8868 O 833.845 0.725911 1.58355 0
M  V30 8869 C 830.977 1.52204 3.05036 0
M  V30 8870 H 832.17 2.55676 1.56747 0
M  V30 8871 H 829.723 1.35174 0.78471 0
M  V30 8872 H 830.458 0.564071 3.19357 0
M  V30 8873 H 830.243 2.3379 3.14777 0
M  V30 8874 H 831.733 1.63322 3.84338 0
M  V30 8875 N 832.17 -0.811516 1.35101 0
M  V30 8876 C 833.133 -1.90467 1.27495 0
M  V30 8877 C 834.133 -1.59703 0.187516 0
M  V30 8878 O 835.323 -1.68528 0.440896 0
M  V30 8879 C 832.455 -3.26774 0.971154 0
M  V30 8880 H 833.648 -1.98631 2.2469 0
M  V30 8881 H 831.201 -1.00681 1.19553 0
M  V30 8882 H 831.936 -3.243 0.0028557 0
M  V30 8883 H 831.721 -3.50488 1.75785 0
M  V30 8884 H 833.211 -4.06804 0.943414 0
M  V30 8885 N 833.648 -1.19017 -1.03309 0
M  V30 8886 C 834.878 -1.01387 -1.80012 0
M  V30 8887 C 835.286 0.440655 -1.83997 0
M  V30 8888 O 834.629 1.31786 -1.27977 0
M  V30 8889 C 834.691 -1.50171 -3.26633 0
M  V30 8890 C 834.355 -2.98213 -3.46292 0
M  V30 8891 C 835.352 -3.96009 -3.36857 0
M  V30 8892 C 833.037 -3.36812 -3.72643 0
M  V30 8893 C 835.031 -5.30399 -3.5349 0
M  V30 8894 C 832.718 -4.71363 -3.88922 0
M  V30 8895 C 833.716 -5.67966 -3.79347 0
M  V30 8896 O 833.404 -7.00079 -3.95151 0
M  V30 8897 H 833.136 -0.357899 -0.573484 0
M  V30 8898 H 835.69 -1.58171 -1.31039 0
M  V30 8899 H 833.92 -0.877586 -3.7661 0
M  V30 8900 H 835.609 -1.28814 -3.84918 0
M  V30 8901 H 836.375 -3.67534 -3.16455 0
M  V30 8902 H 832.254 -2.62175 -3.7919 0
M  V30 8903 H 835.798 -6.05786 -3.45933 0
M  V30 8904 H 831.695 -4.99536 -4.0882 0
M  V30 8905 H 832.463 -7.07092 -4.12266 0
M  V30 8906 N 835.127 1.22348 -0.993418 0
M  V30 8907 C 836.075 2.26315 -0.537052 0
M  V30 8908 C 837.069 1.643 0.412545 0
M  V30 8909 O 838.275 1.77729 0.285008 0
M  V30 8910 H 834.65 0.735792 -0.155286 0
M  V30 8911 H 836.621 2.62157 -1.42535 0
M  V30 8912 C 835.37 3.47449 0.132118 0
M  V30 8913 H 834.693 3.9543 -0.589519 0
M  V30 8914 H 836.133 4.21965 0.414884 0
M  V30 8915 C 834.592 3.07893 1.36761 0
M  V30 8916 O 835.122 3.17338 2.46291 0
M  V30 8917 N 833.328 2.62672 1.24305 0
M  V30 8918 H 832.875 2.55186 0.351826 0
M  V30 8919 H 832.833 2.36574 2.07076 0
M  V30 8920 N 836.605 0.766683 1.37694 0
M  V30 8921 C 837.552 0.147725 2.30327 0
M  V30 8922 C 838.522 -0.695366 1.50844 0
M  V30 8923 O 839.707 -0.64878 1.79431 0
M  V30 8924 C 836.847 -0.72935 3.37305 0
M  V30 8925 C 835.96 0.129795 4.31805 0
M  V30 8926 C 835.095 -0.751511 5.25857 0
M  V30 8927 C 834.134 0.110475 6.12 0
M  V30 8928 N 833.271 -0.728522 6.9831 0
M  V30 8929 H 838.111 0.943204 2.82679 0
M  V30 8930 H 835.648 0.476736 1.3916 0
M  V30 8931 H 837.606 -1.25263 3.97951 0
M  V30 8932 H 836.236 -1.49048 2.86329 0
M  V30 8933 H 835.288 0.770829 3.72508 0
M  V30 8934 H 836.6 0.794923 4.92425 0
M  V30 8935 H 835.754 -1.34146 5.91684 0
M  V30 8936 H 834.493 -1.45034 4.65636 0
M  V30 8937 H 833.498 0.712999 5.45157 0
M  V30 8938 H 834.723 0.806557 6.74293 0
M  V30 8939 H 832.669 -1.41206 6.40622 0
M  V30 8940 H 832.586 -0.12058 7.55904 0
M  V30 8941 H 833.854 -1.30303 7.68532 0
M  V30 8942 N 838.083 -1.48885 0.516809 0
M  V30 8943 C 839.03 -2.29408 -0.253125 0
M  V30 8944 C 840 -1.36533 -0.945935 0
M  V30 8945 O 841.185 -1.65495 -0.949527 0
M  V30 8946 C 838.325 -3.19592 -1.30211 0
M  V30 8947 C 837.438 -4.27535 -0.61948 0
M  V30 8948 C 836.573 -5.04916 -1.65026 0
M  V30 8949 C 835.612 -6.04677 -0.950368 0
M  V30 8950 N 834.749 -6.75164 -1.92608 0
M  V30 8951 H 839.589 -2.94738 0.439744 0
M  V30 8952 H 837.126 -1.45311 0.2287 0
M  V30 8953 H 839.084 -3.70267 -1.92245 0
M  V30 8954 H 837.714 -2.56213 -1.96353 0
M  V30 8955 H 836.766 -3.80228 0.114505 0
M  V30 8956 H 838.078 -4.98752 -0.0693016 0
M  V30 8957 H 837.232 -5.59539 -2.34523 0
M  V30 8958 H 835.971 -4.33508 -2.23432 0
M  V30 8959 H 834.976 -5.4927 -0.241252 0
M  V30 8960 H 836.201 -6.78077 -0.372599 0
M  V30 8961 H 834.147 -6.06517 -2.49946 0
M  V30 8962 H 834.064 -7.4241 -1.42699 0
M  V30 8963 H 835.332 -7.34384 -2.61345 0
M  V30 8964 N 839.561 -0.251338 -1.55583 0
M  V30 8965 C 840.508 0.646337 -2.21565 0
M  V30 8966 C 841.478 1.16796 -1.18102 0
M  V30 8967 O 842.663 1.22162 -1.46564 0
M  V30 8968 C 839.803 1.83557 -2.92234 0
M  V30 8969 C 838.916 1.35006 -4.10363 0
M  V30 8970 C 838.051 2.4992 -4.68736 0
M  V30 8971 C 837.09 1.98253 -5.79105 0
M  V30 8972 N 836.227 3.06551 -6.31642 0
M  V30 8973 H 841.067 0.0769881 -2.97901 0
M  V30 8974 H 838.604 0.026238 -1.47077 0
M  V30 8975 H 840.562 2.53425 -3.31408 0
M  V30 8976 H 839.192 2.37733 -2.18364 0
M  V30 8977 H 838.244 0.545274 -3.76472 0
M  V30 8978 H 839.556 0.931435 -4.90026 0
M  V30 8979 H 838.71 3.27823 -5.10507 0
M  V30 8980 H 837.449 2.95086 -3.88298 0
M  V30 8981 H 836.454 1.18822 -5.36807 0
M  V30 8982 H 837.679 1.54051 -6.61396 0
M  V30 8983 H 835.625 3.51143 -5.54107 0
M  V30 8984 H 835.542 2.69033 -7.06511 0
M  V30 8985 H 836.81 3.84499 -6.78071 0
M  V30 8986 N 841.039 1.57585 0.0217189 0
M  V30 8987 C 841.986 2.07036 1.02004 0
M  V30 8988 C 842.956 0.96106 1.35473 0
M  V30 8989 O 844.141 1.23211 1.45684 0
M  V30 8990 C 841.281 2.56056 2.31364 0
M  V30 8991 C 840.394 3.80805 2.03989 0
M  V30 8992 C 839.529 4.18409 3.27272 0
M  V30 8993 C 838.568 5.36055 2.95486 0
M  V30 8994 N 837.705 5.69056 4.11242 0
M  V30 8995 H 842.545 2.92073 0.591396 0
M  V30 8996 H 840.082 1.44403 0.280384 0
M  V30 8997 H 842.04 2.82548 3.06957 0
M  V30 8998 H 840.67 1.73925 2.71937 0
M  V30 8999 H 839.722 3.61354 1.1886 0
M  V30 9000 H 841.034 4.66512 1.76546 0
M  V30 9001 H 840.188 4.46068 4.11228 0
M  V30 9002 H 838.927 3.31369 3.57835 0
M  V30 9003 H 837.932 5.08142 2.09933 0
M  V30 9004 H 839.157 6.24755 2.66193 0
M  V30 9005 H 837.103 4.84974 4.41742 0
M  V30 9006 H 837.02 6.49288 3.87247 0
M  V30 9007 H 838.288 6.01295 4.96049 0
M  V30 9008 N 842.517 -0.29412 1.54831 0
M  V30 9009 C 843.933 -0.640167 1.46199 0
M  V30 9010 C 844.133 -1.90426 0.658798 0
M  V30 9011 O 843.189 -2.51932 0.169228 0
M  V30 9012 C 844.502 -0.786763 2.90225 0
M  V30 9013 C 846.05 -0.882201 3.0031 0
M  V30 9014 C 846.525 -1.06074 4.45547 0
M  V30 9015 N 848.016 -1.12678 4.49286 0
M  V30 9016 C 848.751 -1.28334 5.58854 0
M  V30 9017 N 848.247 -1.40845 6.78332 0
M  V30 9018 N 850.04 -1.31277 5.46555 0
M  V30 9019 H 842.191 0.536334 2.05517 0
M  V30 9020 H 844.454 0.178363 0.93107 0
M  V30 9021 H 844.16 0.0713018 3.51628 0
M  V30 9022 H 844.034 -1.67364 3.38037 0
M  V30 9023 H 846.421 -1.73075 2.39017 0
M  V30 9024 H 846.502 0.0288405 2.55784 0
M  V30 9025 H 846.146 -0.216935 5.07437 0
M  V30 9026 H 846.076 -1.98611 4.8771 0
M  V30 9027 H 848.567 -1.04335 3.63212 0
M  V30 9028 H 848.88 -1.52566 7.57591 0
M  V30 9029 H 847.225 -1.37888 6.81184 0
M  V30 9030 H 850.416 -1.2112 4.52159 0
M  V30 9031 H 850.589 -1.43136 6.31994 0
M  V30 9032 N 843.995 -1.47404 -0.557645 0
M  V30 9033 C 844.928 -1.54399 -1.68036 0
M  V30 9034 C 845.906 -0.396175 -1.577 0
M  V30 9035 O 847.09 -0.603911 -1.78564 0
M  V30 9036 C 844.217 -1.44611 -3.06277 0
M  V30 9037 C 843.263 -2.63889 -3.35059 0
M  V30 9038 S 844.096 -4.26086 -3.24362 0
M  V30 9039 C 845.252 -4.1885 -4.65097 0
M  V30 9040 H 845.485 -2.49384 -1.61849 0
M  V30 9041 H 843.018 -1.35597 -0.738429 0
M  V30 9042 H 844.976 -1.39651 -3.86015 0
M  V30 9043 H 843.637 -0.510114 -3.0993 0
M  V30 9044 H 842.83 -2.53103 -4.35838 0
M  V30 9045 H 842.432 -2.65969 -2.62938 0
M  V30 9046 H 844.724 -3.87077 -5.56037 0
M  V30 9047 H 845.667 -5.19714 -4.8094 0
M  V30 9048 H 846.075 -3.49717 -4.43123 0
M  V30 9049 N 845.473 0.80434 -1.35529 0
M  V30 9050 C 846.75 1.5486 -1.1949 0
M  V30 9051 C 847.13 2.09897 0.22506 0
M  V30 9052 O 846.478 1.92643 1.22886 0
M  V30 9053 C 846.688 2.65535 -2.26478 0
M  V30 9054 C 848.036 3.33814 -2.62399 0
M  V30 9055 O 849.06 2.75807 -2.25409 0
M  V30 9056 O 847.919 4.38612 -3.26009 0
M  V30 9057 H 845.013 0.68433 -0.464351 0
M  V30 9058 H 847.559 0.844107 -1.47217 0
M  V30 9059 H 846.331 2.22754 -3.21709 0
M  V30 9060 H 845.954 3.43617 -2.00033 0
M  V30 9061 N 846.951 1.19563 1.02676 0
M  V30 9062 C 848.181 1.0234 1.79472 0
M  V30 9063 C 848.589 -0.430891 1.84228 0
M  V30 9064 O 847.932 -1.31106 1.28674 0
M  V30 9065 C 847.994 1.51901 3.25832 0
M  V30 9066 C 847.658 3.00045 3.44706 0
M  V30 9067 C 848.655 3.9779 3.34752 0
M  V30 9068 C 846.34 3.38784 3.70851 0
M  V30 9069 C 848.334 5.32267 3.50672 0
M  V30 9070 C 846.021 4.73419 3.86416 0
M  V30 9071 C 847.019 5.69969 3.7633 0
M  V30 9072 O 846.707 7.02165 3.91432 0
M  V30 9073 H 846.439 0.360936 0.571578 0
M  V30 9074 H 848.993 1.58863 1.30198 0
M  V30 9075 H 847.223 0.897546 3.7614 0
M  V30 9076 H 848.912 1.30853 3.84229 0
M  V30 9077 H 849.678 3.69207 3.14502 0
M  V30 9078 H 845.557 2.64183 3.77794 0
M  V30 9079 H 849.101 6.07612 3.42715 0
M  V30 9080 H 844.998 5.01697 4.06165 0
M  V30 9081 H 845.766 7.09268 4.08511 0
M  V30 9082 N 848.429 -1.21819 0.999893 0
M  V30 9083 C 849.659 -1.94475 0.697346 0
M  V30 9084 C 850.067 -1.73991 -0.743228 0
M  V30 9085 O 849.41 -1.04042 -1.51397 0
M  V30 9086 C 849.472 -3.47204 0.932181 0
M  V30 9087 C 849.136 -3.91432 2.3586 0
M  V30 9088 C 850.133 -3.98545 3.33853 0
M  V30 9089 C 847.818 -4.23888 2.69489 0
M  V30 9090 C 849.812 -4.37499 4.63545 0
M  V30 9091 C 847.499 -4.62519 3.99399 0
M  V30 9092 C 848.497 -4.69294 4.96238 0
M  V30 9093 O 848.185 -5.07048 6.23825 0
M  V30 9094 H 847.917 -0.625419 0.256567 0
M  V30 9095 H 850.471 -1.55728 1.33933 0
M  V30 9096 H 848.701 -3.85997 0.233025 0
M  V30 9097 H 850.39 -4.01078 0.623807 0
M  V30 9098 H 851.156 -3.73654 3.09205 0
M  V30 9099 H 847.035 -4.17815 1.94812 0
M  V30 9100 H 850.579 -4.42702 5.3913 0
M  V30 9101 H 846.476 -4.86864 4.23833 0
M  V30 9102 H 847.244 -5.25098 6.27865 0
M  V30 9103 N 849.908 -0.773975 -1.37286 0
M  V30 9104 C 851.185 -0.263942 -1.93811 0
M  V30 9105 C 851.565 1.24138 -1.70743 0
M  V30 9106 O 850.913 2.02557 -1.05749 0
M  V30 9107 C 851.123 -0.639753 -3.43086 0
M  V30 9108 C 852.471 -0.610796 -4.20184 0
M  V30 9109 O 853.495 -0.579278 -3.51458 0
M  V30 9110 O 852.354 -0.639862 -5.42741 0
M  V30 9111 H 849.448 -0.0614331 -0.824715 0
M  V30 9112 H 851.994 -0.855477 -1.46559 0
M  V30 9113 H 850.766 -1.67856 -3.53469 0
M  V30 9114 H 850.389 -0.0212827 -3.97594 0
M  V30 9115 N 851.386 1.48609 -0.524698 0
M  V30 9116 C 852.611 2.07398 0.00952139 0
M  V30 9117 C 853.036 1.37939 1.27884 0
M  V30 9118 O 852.394 0.443633 1.75788 0
M  V30 9119 C 852.442 3.59916 0.221956 0
M  V30 9120 O 851.546 3.91647 1.29175 0
M  V30 9121 H 850.887 0.662981 -0.0367729 0
M  V30 9122 H 853.417 1.91092 -0.7311 0
M  V30 9123 H 853.427 4.05552 0.446236 0
M  V30 9124 H 852.102 4.09876 -0.705306 0
M  V30 9125 H 850.679 3.57796 1.05055 0
M  V30 9126 N 852.864 0.259585 1.55447 0
M  V30 9127 C 853.774 -0.645026 2.25558 0
M  V30 9128 C 854.79 -1.18291 1.27606 0
M  V30 9129 O 855.966 -1.21649 1.6051 0
M  V30 9130 C 853.031 -1.81964 2.9511 0
M  V30 9131 C 852.092 -1.31997 4.08504 0
M  V30 9132 C 851.325 -2.43861 4.74729 0
M  V30 9133 O 851.548 -3.62876 4.40088 0
M  V30 9134 O 850.482 -2.12898 5.6299 0
M  V30 9135 H 854.308 -0.0775399 3.03601 0
M  V30 9136 H 851.893 0.0275859 1.49375 0
M  V30 9137 H 853.775 -2.50485 3.38873 0
M  V30 9138 H 852.45 -2.37451 2.19997 0
M  V30 9139 H 851.357 -0.601676 3.6923 0
M  V30 9140 H 852.69 -0.811045 4.85472 0
M  V30 9141 N 854.342 -1.57594 -0.0133615 0
M  V30 9142 C 855.292 -2.04048 -1.01726 0
M  V30 9143 C 856.276 -0.932682 -1.3111 0
M  V30 9144 O 857.468 -1.19652 -1.30432 0
M  V30 9145 C 854.597 -2.53637 -2.31351 0
M  V30 9146 C 853.683 -3.71269 -2.04989 0
M  V30 9147 N 854.074 -4.83436 -1.48739 0
M  V30 9148 C 852.372 -3.78943 -2.35198 0
M  V30 9149 C 853.073 -5.64961 -1.38542 0
M  V30 9150 N 852.049 -5.10554 -1.86643 0
M  V30 9151 H 855.851 -2.88188 -0.576623 0
M  V30 9152 H 853.365 -1.60912 -0.219344 0
M  V30 9153 H 855.362 -2.85186 -3.04096 0
M  V30 9154 H 854.022 -1.7091 -2.76079 0
M  V30 9155 H 855.033 -5.04558 -1.16798 0
M  V30 9156 H 851.71 -3.07047 -2.82893 0
M  V30 9157 H 853.1 -6.65092 -0.954075 0
M  V30 9158 N 855.82 0.285905 -1.54985 0
M  V30 9159 C 856.77 1.35505 -1.83364 0
M  V30 9160 C 857.754 1.45273 -0.691698 0
M  V30 9161 O 858.946 1.49172 -0.952725 0
M  V30 9162 C 856.075 2.71756 -2.0977 0
M  V30 9163 C 855.161 2.6615 -3.30189 0
M  V30 9164 N 855.552 2.30161 -4.50399 0
M  V30 9165 C 853.85 2.97232 -3.3252 0
M  V30 9166 C 854.551 2.34228 -5.32459 0
M  V30 9167 N 853.527 2.72187 -4.70548 0
M  V30 9168 H 857.329 1.06668 -2.7386 0
M  V30 9169 H 854.843 0.494521 -1.54688 0
M  V30 9170 H 856.84 3.48864 -2.28253 0
M  V30 9171 H 855.5 3.01492 -1.20551 0
M  V30 9172 H 856.511 2.02358 -4.7673 0
M  V30 9173 H 853.188 3.31764 -2.53454 0
M  V30 9174 H 854.578 2.09074 -6.38543 0
M  V30 9175 N 857.298 1.47698 0.54982 0
M  V30 9176 C 858.208 1.63386 1.68351 0
M  V30 9177 C 859.224 0.516583 1.66155 0
M  V30 9178 O 860.4 0.785088 1.85468 0
M  V30 9179 C 857.465 1.6513 3.04849 0
M  V30 9180 C 856.526 2.88338 3.18056 0
M  V30 9181 C 855.759 2.8999 4.48042 0
M  V30 9182 O 855.982 2.00633 5.3395 0
M  V30 9183 O 854.916 3.81938 4.65196 0
M  V30 9184 H 858.742 2.59329 1.58057 0
M  V30 9185 H 856.327 1.30869 0.72067 0
M  V30 9186 H 858.209 1.68913 3.86065 0
M  V30 9187 H 856.884 0.723555 3.1551 0
M  V30 9188 H 855.791 2.90097 2.36209 0
M  V30 9189 H 857.124 3.80431 3.12302 0
M  V30 9190 N 858.776 -0.797141 1.35954 0
M  V30 9191 C 860.053 -1.54224 1.2031 0
M  V30 9192 C 860.433 -2.10013 -0.213926 0
M  V30 9193 O 859.781 -1.93292 -1.21862 0
M  V30 9194 C 859.991 -2.6433 2.27883 0
M  V30 9195 C 861.339 -3.32418 2.64165 0
M  V30 9196 O 862.363 -2.74607 2.26868 0
M  V30 9197 O 861.222 -4.36876 3.28331 0
M  V30 9198 H 858.316 -0.681857 0.467974 0
M  V30 9199 H 860.862 -0.836288 1.47663 0
M  V30 9200 H 859.634 -2.21044 3.22885 0
M  V30 9201 H 859.257 -3.42551 2.01853 0
M  V30 9202 N 860.254 -1.20106 -1.0204 0
M  V30 9203 C 861.501 -1.00889 -1.75578 0
M  V30 9204 C 861.829 0.459415 -1.88996 0
M  V30 9205 O 861.084 1.35735 -1.40977 0
M  V30 9206 C 861.383 -1.63308 -3.17908 0
M  V30 9207 C 861.049 -3.13091 -3.24476 0
M  V30 9208 C 859.711 -3.53968 -3.25976 0
M  V30 9209 C 862.063 -4.09093 -3.22944 0
M  V30 9210 C 859.391 -4.89381 -3.2361 0
M  V30 9211 C 861.743 -5.44447 -3.22119 0
M  V30 9212 C 860.407 -5.84742 -3.2192 0
M  V30 9213 H 859.677 -0.36918 -0.642485 0
M  V30 9214 H 862.324 -1.49475 -1.19706 0
M  V30 9215 H 860.629 -1.06974 -3.76914 0
M  V30 9216 H 862.326 -1.45958 -3.73493 0
M  V30 9217 H 858.916 -2.80526 -3.24042 0
M  V30 9218 H 863.1 -3.78549 -3.20958 0
M  V30 9219 H 858.356 -5.1987 -3.21785 0
M  V30 9220 H 862.53 -6.18584 -3.19885 0
M  V30 9221 H 860.157 -6.89642 -3.19841 0
M  V30 9222 N 861.732 1.21287 -1.00634 0
M  V30 9223 C 862.642 2.27388 -0.577226 0
M  V30 9224 C 863.658 1.69791 0.380399 0
M  V30 9225 O 864.834 1.99918 0.2439 0
M  V30 9226 C 861.899 3.46588 0.0880532 0
M  V30 9227 C 860.96 4.19453 -0.914222 0
M  V30 9228 C 860.193 5.32962 -0.280596 0
M  V30 9229 O 860.416 5.62895 0.922265 0
M  V30 9230 O 859.35 5.93666 -0.992196 0
M  V30 9231 H 863.176 2.66289 -1.46028 0
M  V30 9232 H 860.761 1.2771 -0.775283 0
M  V30 9233 H 862.643 4.18881 0.460094 0
M  V30 9234 H 861.318 3.09585 0.945461 0
M  V30 9235 H 860.225 3.49376 -1.33744 0
M  V30 9236 H 861.558 4.6037 -1.74126 0
M  V30 9237 N 863.21 0.781244 1.36873 0
M  V30 9238 C 864.457 0.349889 1.99454 0
M  V30 9239 C 864.785 -1.07621 1.62013 0
M  V30 9240 O 864.04 -1.75665 0.86258 0
M  V30 9241 C 864.339 0.45146 3.54537 0
M  V30 9242 C 864.005 1.83718 4.11775 0
M  V30 9243 C 862.667 2.21634 4.2712 0
M  V30 9244 C 865.019 2.7449 4.43063 0
M  V30 9245 C 862.347 3.49742 4.7106 0
M  V30 9246 C 864.699 4.02017 4.88431 0
M  V30 9247 C 863.363 4.39967 5.01982 0
M  V30 9248 H 862.633 0.128033 0.729855 0
M  V30 9249 H 865.28 0.997117 1.63493 0
M  V30 9250 H 863.585 -0.279288 3.90803 0
M  V30 9251 H 865.282 0.0988609 4.00878 0
M  V30 9252 H 861.872 1.53251 4.00265 0
M  V30 9253 H 866.056 2.46453 4.30783 0
M  V30 9254 H 861.312 3.79026 4.79738 0
M  V30 9255 H 865.486 4.72475 5.11605 0
M  V30 9256 H 863.113 5.39291 5.35788 0
M  V30 9257 N 864.689 -1.48329 0.532571 0
M  V30 9258 C 865.938 -2.017 -0.00259705 0
M  V30 9259 C 866.251 -1.41469 -1.35077 0
M  V30 9260 O 867.457 -1.86354 -1.97445 0
M  V30 9261 C 865.913 -3.59858 -0.0550179 0
M  V30 9262 C 865.521 -4.29073 1.28842 0
M  V30 9263 C 867.265 -4.21066 -0.538878 0
M  V30 9264 C 865.172 -5.79171 1.19644 0
M  V30 9265 H 864.102 -0.753985 -0.00474081 0
M  V30 9266 H 866.753 -1.70565 0.676739 0
M  V30 9267 H 865.135 -3.87846 -0.799486 0
M  V30 9268 H 866.309 -4.12755 2.04865 0
M  V30 9269 H 864.624 -3.79748 1.70822 0
M  V30 9270 H 867.221 -5.31026 -0.6257 0
M  V30 9271 H 867.564 -3.86559 -1.54525 0
M  V30 9272 H 868.097 -3.97517 0.149984 0
M  V30 9273 H 864.836 -6.18257 2.17805 0
M  V30 9274 H 864.356 -5.97895 0.477609 0
M  V30 9275 H 866.035 -6.40875 0.888186 0
M  V30 9276 N 866.167 -0.267825 -1.55308 0
M  V30 9277 C 867.392 0.357487 -2.04296 0
M  V30 9278 C 867.817 1.49222 -1.14518 0
M  V30 9279 O 867.175 1.80741 -0.142292 0
M  V30 9280 C 867.223 0.822899 -3.51085 0
M  V30 9281 O 866.327 1.93078 -3.6441 0
M  V30 9282 H 865.668 0.075025 -0.659748 0
M  V30 9283 H 868.198 -0.399996 -2.00652 0
M  V30 9284 H 868.208 1.12059 -3.92309 0
M  V30 9285 H 866.883 -0.0073562 -4.15899 0
M  V30 9286 H 865.46 1.63618 -3.35087 0
M  V30 9287 N 867.645 1.57599 0.00500368 0
M  V30 9288 C 868.893 1.89973 0.68953 0
M  V30 9289 C 869.214 0.868531 1.7459 0
M  V30 9290 O 868.484 -0.0947367 1.95671 0
M  V30 9291 H 867.064 0.701153 0.25767 0
M  V30 9292 H 869.726 1.94869 -0.0347392 0
M  V30 9293 H 868.822 2.89584 1.16394 0
M  V30 9294 N 869.123 -0.277682 1.55134 0
M  V30 9295 C 870.351 -1.02826 1.7954 0
M  V30 9296 C 870.766 -1.80105 0.566373 0
M  V30 9297 O 870.123 -1.76491 -0.464448 0
M  V30 9298 C 870.174 -1.99053 3.01762 0
M  V30 9299 O 869.895 -1.24906 4.19917 0
M  V30 9300 C 871.396 -2.85961 3.38735 0
M  V30 9301 H 868.616 -0.303958 0.598206 0
M  V30 9302 H 871.16 -0.309884 2.02138 0
M  V30 9303 H 869.315 -2.66359 2.81303 0
M  V30 9304 H 869.729 -1.89725 4.88983 0
M  V30 9305 H 871.203 -3.49286 4.27438 0
M  V30 9306 H 871.68 -3.55486 2.57928 0
M  V30 9307 H 872.286 -2.24152 3.61436 0
M  V30 9308 N 870.601 -1.47988 -0.541979 0
M  V30 9309 C 872.017 -1.33843 -0.869383 0
M  V30 9310 C 872.217 -0.340374 -1.98604 0
M  V30 9311 O 871.273 0.242696 -2.51331 0
M  V30 9312 C 872.586 -2.73568 -1.24823 0
M  V30 9313 C 874.134 -2.81967 -1.3588 0
M  V30 9314 C 874.609 -4.22368 -1.77114 0
M  V30 9315 N 876.1 -4.24983 -1.84237 0
M  V30 9316 C 876.835 -5.30547 -2.17503 0
M  V30 9317 N 876.331 -6.46401 -2.49275 0
M  V30 9318 N 878.124 -5.17933 -2.18406 0
M  V30 9319 H 870.275 -2.11503 0.195001 0
M  V30 9320 H 872.538 -0.947681 0.0245862 0
M  V30 9321 H 872.244 -3.48107 -0.501435 0
M  V30 9322 H 872.118 -3.06322 -2.20106 0
M  V30 9323 H 874.505 -2.07692 -2.09638 0
M  V30 9324 H 874.586 -2.52848 -0.387478 0
M  V30 9325 H 874.23 -4.97155 -1.0392 0
M  V30 9326 H 874.16 -4.48922 -2.75275 0
M  V30 9327 H 876.651 -3.41411 -1.62009 0
M  V30 9328 H 876.964 -7.22698 -2.73729 0
M  V30 9329 H 875.309 -6.49696 -2.46821 0
M  V30 9330 H 878.5 -4.26445 -1.93034 0
M  V30 9331 H 878.673 -6.00307 -2.44 0
M  V30 9332 N 872.079 0.78992 -1.36375 0
M  V30 9333 C 873.012 1.90907 -1.25019 0
M  V30 9334 C 873.99 1.62043 -0.134463 0
M  V30 9335 O 875.174 1.86008 -0.305506 0
M  V30 9336 C 872.301 3.25716 -0.928822 0
M  V30 9337 C 871.347 3.73511 -2.05892 0
M  V30 9338 S 872.18 3.89332 -3.6767 0
M  V30 9339 C 873.336 5.27017 -3.37645 0
M  V30 9340 H 873.569 2.00247 -2.19746 0
M  V30 9341 H 871.102 0.949097 -1.21785 0
M  V30 9342 H 873.06 4.03586 -0.750219 0
M  V30 9343 H 871.721 3.141 0.000658424 0
M  V30 9344 H 870.914 4.71195 -1.78862 0
M  V30 9345 H 870.516 3.02688 -2.19672 0
M  V30 9346 H 872.808 6.1158 -2.91507 0
M  V30 9347 H 873.751 5.5905 -4.3459 0
M  V30 9348 H 874.159 4.94093 -2.73006 0
M  V30 9349 N 873.557 1.20646 1.01402 0
M  V30 9350 C 874.973 0.961866 1.27359 0
M  V30 9351 C 875.173 -0.357083 1.98311 0
M  V30 9352 O 874.229 -1.08498 2.28001 0
M  V30 9353 C 875.542 2.14627 2.10609 0
M  V30 9354 C 877.09 2.18753 2.23866 0
M  V30 9355 C 877.565 3.36686 3.10494 0
M  V30 9356 N 879.056 3.36716 3.18083 0
M  V30 9357 C 879.791 4.24615 3.85343 0
M  V30 9358 N 879.287 5.22697 4.54708 0
M  V30 9359 N 881.08 4.12449 3.81893 0
M  V30 9360 H 873.231 2.05481 0.537721 0
M  V30 9361 H 875.494 0.899292 0.299963 0
M  V30 9362 H 875.2 3.10159 1.65814 0
M  V30 9363 H 875.074 2.12935 3.11349 0
M  V30 9364 H 877.461 1.23782 2.67885 0
M  V30 9365 H 877.542 2.24492 1.22626 0
M  V30 9366 H 877.186 4.31945 2.67181 0
M  V30 9367 H 877.116 3.28185 4.11828 0
M  V30 9368 H 879.607 2.65728 2.68695 0
M  V30 9369 H 879.92 5.86087 5.03708 0
M  V30 9370 H 878.265 5.26631 4.53525 0
M  V30 9371 H 881.456 3.35091 3.26851 0
M  V30 9372 H 881.629 4.81162 4.34035 0
M  V30 9373 N 875.035 -1.20752 1.01276 0
M  V30 9374 C 875.982 -2.234 0.579732 0
M  V30 9375 C 876.952 -1.61256 -0.398206 0
M  V30 9376 O 878.137 -1.8845 -0.29851 0
M  V30 9377 C 875.277 -3.45008 -0.0797006 0
M  V30 9378 C 874.39 -4.21597 0.942343 0
M  V30 9379 C 873.525 -5.30591 0.254364 0
M  V30 9380 C 872.564 -5.98919 1.26343 0
M  V30 9381 N 871.701 -6.99511 0.602384 0
M  V30 9382 H 876.541 -2.59801 1.45971 0
M  V30 9383 H 874.078 -1.27663 0.730787 0
M  V30 9384 H 876.036 -4.1444 -0.479125 0
M  V30 9385 H 874.666 -3.09312 -0.923354 0
M  V30 9386 H 873.718 -3.51268 1.45996 0
M  V30 9387 H 875.03 -4.68576 1.70992 0
M  V30 9388 H 874.184 -6.06368 -0.200763 0
M  V30 9389 H 872.923 -4.84639 -0.545553 0
M  V30 9390 H 871.928 -5.21906 1.72898 0
M  V30 9391 H 873.153 -6.46957 2.06456 0
M  V30 9392 H 871.099 -6.55759 -0.177734 0
M  V30 9393 H 871.016 -7.44597 1.30809 0
M  V30 9394 H 872.284 -7.79313 0.17072 0
M  V30 9395 N 876.513 -0.788492 -1.36457 0
M  V30 9396 C 877.443 -0.200468 -2.32638 0
M  V30 9397 C 878.424 0.664031 -1.56603 0
M  V30 9398 O 879.609 0.598045 -1.84762 0
M  V30 9399 C 876.739 0.666274 -3.40849 0
M  V30 9400 C 875.693 -0.0982574 -4.27887 0
M  V30 9401 C 875.019 0.889018 -5.27258 0
M  V30 9402 C 876.319 -1.28692 -5.06197 0
M  V30 9403 H 878.013 -1.00399 -2.82065 0
M  V30 9404 H 875.559 -0.484237 -1.35614 0
M  V30 9405 H 877.512 1.08757 -4.07124 0
M  V30 9406 H 876.236 1.50249 -2.89987 0
M  V30 9407 H 874.895 -0.500525 -3.63167 0
M  V30 9408 H 874.543 1.72024 -4.7267 0
M  V30 9409 H 874.243 0.381909 -5.86358 0
M  V30 9410 H 875.767 1.30891 -5.96406 0
M  V30 9411 H 877.181 -0.941429 -5.65517 0
M  V30 9412 H 875.578 -1.72726 -5.74705 0
M  V30 9413 H 876.648 -2.08273 -4.37893 0
M  V30 9414 N 877.991 1.48044 -0.54043 0
M  V30 9415 C 878.954 2.28273 0.205966 0
M  V30 9416 C 879.954 1.35983 0.858209 0
M  V30 9417 O 881.144 1.58776 0.716651 0
M  V30 9418 C 878.276 3.15174 1.29917 0
M  V30 9419 H 879.469 2.95727 -0.498555 0
M  V30 9420 H 877.022 1.53457 -0.296745 0
M  V30 9421 H 877.757 2.52374 2.03661 0
M  V30 9422 H 877.542 3.83074 0.836475 0
M  V30 9423 H 879.032 3.75666 1.82387 0
M  V30 9424 N 879.47 0.276058 1.55163 0
M  V30 9425 C 880.886 -0.0780579 1.59409 0
M  V30 9426 C 881.086 -1.54521 1.29327 0
M  V30 9427 O 880.142 -2.29422 1.05459 0
M  V30 9428 C 881.455 0.297422 2.99225 0
M  V30 9429 C 883.003 0.244117 3.12047 0
M  V30 9430 C 883.478 0.594051 4.54131 0
M  V30 9431 N 884.969 0.54564 4.59975 0
M  V30 9432 C 885.704 0.789192 5.67943 0
M  V30 9433 N 885.2 1.09741 6.84053 0
M  V30 9434 N 886.993 0.717926 5.57496 0
M  V30 9435 H 879.144 1.23251 1.72982 0
M  V30 9436 H 881.407 0.497988 0.806667 0
M  V30 9437 H 881.113 1.31782 3.26077 0
M  V30 9438 H 880.987 -0.361286 3.75466 0
M  V30 9439 H 883.374 -0.766992 2.84958 0
M  V30 9440 H 883.455 0.937097 2.38017 0
M  V30 9441 H 883.099 1.60285 4.81945 0
M  V30 9442 H 883.029 -0.120728 5.26462 0
M  V30 9443 H 885.52 0.317334 3.76565 0
M  V30 9444 H 885.833 1.26989 7.62295 0
M  V30 9445 H 884.178 1.13519 6.85666 0
M  V30 9446 H 887.369 0.47697 4.65664 0
M  V30 9447 H 887.542 0.911118 6.41563 0
M  V30 9448 N 880.948 -1.576 0.00335426 0
M  V30 9449 C 881.858 -2.12067 -1.00322 0
M  V30 9450 C 882.874 -1.06672 -1.37467 0
M  V30 9451 O 884.05 -1.38592 -1.46131 0
M  V30 9452 C 881.115 -2.61593 -2.27531 0
M  V30 9453 C 880.176 -3.81602 -1.96668 0
M  V30 9454 C 879.409 -4.28756 -3.17811 0
M  V30 9455 O 879.632 -3.75222 -4.2961 0
M  V30 9456 O 878.566 -5.20877 -3.01613 0
M  V30 9457 H 882.392 -2.98299 -0.570199 0
M  V30 9458 H 879.977 -1.47835 -0.215682 0
M  V30 9459 H 881.859 -2.93631 -3.02256 0
M  V30 9460 H 880.534 -1.78457 -2.70065 0
M  V30 9461 H 879.441 -3.54531 -1.19408 0
M  V30 9462 H 880.774 -4.65822 -1.58968 0
M  V30 9463 N 882.426 0.269451 -1.5528 0
M  V30 9464 C 883.674 0.998604 -1.75705 0
M  V30 9465 C 883.995 1.86691 -0.563175 0
M  V30 9466 O 883.265 1.91305 0.421811 0
M  V30 9467 H 881.845 0.371698 -0.647958 0
M  V30 9468 H 884.507 0.292826 -1.92688 0
M  V30 9469 H 883.603 1.63348 -2.6594 0
M  V30 9470 N 883.904 1.48273 0.534124 0
M  V30 9471 C 884.836 1.5857 1.65494 0
M  V30 9472 C 885.849 0.470266 1.5586 0
M  V30 9473 O 887.038 0.740928 1.62396 0
M  V30 9474 C 884.138 1.49554 3.04117 0
M  V30 9475 C 883.311 2.76066 3.39273 0
M  V30 9476 C 882.37 2.60562 4.57159 0
M  V30 9477 O 881.396 3.34438 4.60587 0
M  V30 9478 N 882.598 1.69906 5.55079 0
M  V30 9479 H 885.363 2.55226 1.57099 0
M  V30 9480 H 882.924 1.44944 0.721303 0
M  V30 9481 H 884.916 1.36882 3.80848 0
M  V30 9482 H 883.486 0.608895 3.06613 0
M  V30 9483 H 882.706 3.03332 2.51761 0
M  V30 9484 H 883.994 3.60006 3.59546 0
M  V30 9485 H 883.392 1.09079 5.55084 0
M  V30 9486 H 881.949 1.63175 6.31044 0
M  V30 9487 N 885.382 -0.782676 1.36792 0
M  V30 9488 C 886.329 -1.89558 1.31667 0
M  V30 9489 C 887.299 -1.65076 0.184147 0
M  V30 9490 O 888.484 -1.87143 0.371753 0
M  V30 9491 C 885.624 -3.26469 1.11858 0
M  V30 9492 C 884.737 -3.62978 2.34245 0
M  V30 9493 C 883.872 -4.89041 2.07394 0
M  V30 9494 C 882.911 -5.18249 3.25706 0
M  V30 9495 N 882.048 -6.35497 2.98476 0
M  V30 9496 H 886.888 -1.93274 2.26824 0
M  V30 9497 H 884.425 -0.945057 1.12726 0
M  V30 9498 H 886.383 -4.05431 0.983968 0
M  V30 9499 H 885.013 -3.22158 0.203531 0
M  V30 9500 H 884.065 -2.79087 2.58485 0
M  V30 9501 H 885.377 -3.80507 3.22514 0
M  V30 9502 H 884.531 -5.75883 1.90901 0
M  V30 9503 H 883.27 -4.73594 1.16446 0
M  V30 9504 H 882.275 -4.29887 3.4275 0
M  V30 9505 H 883.5 -5.35611 4.1749 0
M  V30 9506 H 881.446 -6.21429 2.10146 0
M  V30 9507 H 881.363 -6.5339 3.80286 0
M  V30 9508 H 882.631 -7.25304 2.85577 0
M  V30 9509 N 886.86 -1.21182 -1.00761 0
M  V30 9510 C 888.271 -1.02652 -1.55947 0
M  V30 9511 C 888.622 0.414466 -1.91772 0
M  V30 9512 O 887.747 1.29727 -1.73204 0
M  V30 9513 C 888.342 -1.85713 -2.83366 0
M  V30 9514 C 886.901 -1.71523 -3.35048 0
M  V30 9515 C 886.048 -1.83087 -2.08265 0
M  V30 9516 H 888.999 -1.35242 -0.830379 0
M  V30 9517 H 889.02 -1.36583 -3.55141 0
M  V30 9518 H 888.532 -2.90584 -2.5726 0
M  V30 9519 H 886.633 -0.693257 -3.66094 0
M  V30 9520 H 886.746 -2.53333 -4.06644 0
M  V30 9521 H 885.11 -1.26367 -2.21141 0
M  V30 9522 H 885.893 -2.8946 -1.84575 0
M  V30 9523 N 888.338 1.20213 -1.01915 0
M  V30 9524 C 889.749 1.7136 -0.741131 0
M  V30 9525 C 890.1 1.81705 0.740107 0
M  V30 9526 O 889.225 1.48139 1.57746 0
M  V30 9527 C 889.82 3.11231 -1.33869 0
M  V30 9528 C 888.379 3.59677 -1.10948 0
M  V30 9529 C 887.526 2.36809 -1.4428 0
M  V30 9530 H 890.477 1.05191 -1.1883 0
M  V30 9531 H 890.498 3.7342 -0.730585 0
M  V30 9532 H 890.01 3.03669 -2.41675 0
M  V30 9533 H 888.111 3.72568 -0.0492052 0
M  V30 9534 H 888.224 4.44351 -1.79134 0
M  V30 9535 H 886.588 2.39674 -0.861881 0
M  V30 9536 H 887.371 2.31886 -2.53148 0
M  V30 9537 N 889.816 0.795718 1.36037 0
M  V30 9538 C 890.726 0.199784 2.33748 0
M  V30 9539 C 891.742 -0.651436 1.61345 0
M  V30 9540 O 892.918 -0.565743 1.93291 0
M  V30 9541 C 889.983 -0.650475 3.40543 0
M  V30 9542 C 889.044 0.219974 4.28736 0
M  V30 9543 C 888.277 -0.589798 5.30431 0
M  V30 9544 O 888.5 -1.82532 5.40406 0
M  V30 9545 O 887.434 0.0136187 6.01898 0
M  V30 9546 H 891.26 1.00782 2.8649 0
M  V30 9547 H 888.845 0.557293 1.38617 0
M  V30 9548 H 890.727 -1.13512 4.05824 0
M  V30 9549 H 889.402 -1.4363 2.9009 0
M  V30 9550 H 888.309 0.751516 3.66474 0
M  V30 9551 H 889.642 0.969468 4.82558 0
M  V30 9552 N 891.294 -1.47756 0.548274 0
M  V30 9553 C 892.542 -2.02089 0.0208542 0
M  V30 9554 C 892.863 -1.42589 -1.33017 0
M  V30 9555 O 892.133 -0.597825 -1.86555 0
M  V30 9556 H 890.713 -0.746985 0.00472023 0
M  V30 9557 H 893.375 -1.81262 0.716257 0
M  V30 9558 H 892.471 -3.12012 -0.0739016 0
M  V30 9559 N 892.772 -0.284283 -1.55015 0
M  V30 9560 C 894.019 0.329864 -1.99795 0
M  V30 9561 C 894.347 1.55171 -1.1727 0
M  V30 9562 O 893.602 1.94312 -0.232667 0
M  V30 9563 C 893.901 0.747219 -3.49502 0
M  V30 9564 C 893.567 -0.37101 -4.49371 0
M  V30 9565 C 892.229 -0.678034 -4.76399 0
M  V30 9566 C 894.581 -1.12406 -5.08935 0
M  V30 9567 C 891.909 -1.74152 -5.60257 0
M  V30 9568 C 894.261 -2.17734 -5.93948 0
M  V30 9569 C 892.925 -2.49061 -6.19294 0
M  V30 9570 H 892.195 0.120706 -0.731103 0
M  V30 9571 H 894.842 -0.399904 -1.87278 0
M  V30 9572 H 893.147 1.55681 -3.59542 0
M  V30 9573 H 894.844 1.2333 -3.81563 0
M  V30 9574 H 891.434 -0.1216 -4.28427 0
M  V30 9575 H 895.618 -0.900119 -4.88069 0
M  V30 9576 H 890.874 -1.98915 -5.78137 0
M  V30 9577 H 895.048 -2.76553 -6.39133 0
M  V30 9578 H 892.675 -3.31602 -6.84064 0
M  V30 9579 N 894.251 1.57596 -0.0117121 0
M  V30 9580 C 895.184 2.04624 1.01016 0
M  V30 9581 C 896.162 0.938437 1.32786 0
M  V30 9582 O 897.346 1.20746 1.44751 0
M  V30 9583 C 894.473 2.45369 2.33477 0
M  V30 9584 C 893.519 3.66998 2.17289 0
M  V30 9585 S 894.352 5.14412 1.48795 0
M  V30 9586 C 895.508 5.58438 2.82662 0
M  V30 9587 H 895.741 2.9098 0.60977 0
M  V30 9588 H 893.274 1.53106 0.199494 0
M  V30 9589 H 895.232 2.69511 3.09635 0
M  V30 9590 H 893.893 1.59391 2.70653 0
M  V30 9591 H 893.086 3.93297 3.15172 0
M  V30 9592 H 892.688 3.42918 1.49275 0
M  V30 9593 H 894.98 5.61614 3.78941 0
M  V30 9594 H 895.923 6.58224 2.61049 0
M  V30 9595 H 896.331 4.86033 2.8711 0
M  V30 9596 N 895.729 -0.261212 1.5542 0
M  V30 9597 C 896.692 -1.30645 1.8832 0
M  V30 9598 C 897.692 -1.41782 0.758588 0
M  V30 9599 O 898.882 -1.40729 1.02669 0
M  V30 9600 C 896.014 -2.6862 2.09895 0
M  V30 9601 H 897.207 -1.02698 2.81768 0
M  V30 9602 H 894.76 -0.499838 1.48092 0
M  V30 9603 H 895.495 -3.0173 1.18868 0
M  V30 9604 H 895.28 -2.61921 2.91787 0
M  V30 9605 H 896.77 -3.44121 2.36581 0
M  V30 9606 N 897.207 -1.48554 -0.526253 0
M  V30 9607 C 898.618 -1.50256 -1.10815 0
M  V30 9608 C 898.969 -0.274445 -1.94271 0
M  V30 9609 O 898.094 0.618094 -2.07385 0
M  V30 9610 C 898.689 -2.72264 -2.01638 0
M  V30 9611 C 897.248 -2.76826 -2.55038 0
M  V30 9612 C 896.395 -2.43823 -1.32081 0
M  V30 9613 H 899.346 -1.55616 -0.31133 0
M  V30 9614 H 899.367 -2.50993 -2.85977 0
M  V30 9615 H 898.879 -3.61632 -1.4087 0
M  V30 9616 H 896.98 -1.91676 -3.19517 0
M  V30 9617 H 897.093 -3.78351 -2.93917 0
M  V30 9618 H 895.457 -1.95058 -1.63781 0
M  V30 9619 H 896.24 -3.35436 -0.730596 0
M  V30 9620 N 898.685 0.775411 -1.37205 0
M  V30 9621 C 899.632 1.88857 -1.32671 0
M  V30 9622 C 900.602 1.64976 -0.192899 0
M  V30 9623 O 901.787 1.86944 -0.381673 0
M  V30 9624 C 898.927 3.25871 -1.13588 0
M  V30 9625 C 898.04 3.61731 -2.36167 0
M  V30 9626 C 897.175 4.87934 -2.09985 0
M  V30 9627 C 896.214 5.16514 -3.2845 0
M  V30 9628 N 895.351 6.33905 -3.01842 0
M  V30 9629 H 900.191 1.92068 -2.27846 0
M  V30 9630 H 897.728 0.939066 -1.13225 0
M  V30 9631 H 899.686 4.04903 -1.00546 0
M  V30 9632 H 898.316 3.22045 -0.220613 0
M  V30 9633 H 897.368 2.77712 -2.59962 0
M  V30 9634 H 898.68 3.78792 -3.24528 0
M  V30 9635 H 897.834 5.74863 -1.93953 0
M  V30 9636 H 896.573 4.7297 -1.18956 0
M  V30 9637 H 895.578 4.28063 -3.45025 0
M  V30 9638 H 896.803 5.33389 -4.20325 0
M  V30 9639 H 894.749 6.20306 -2.13439 0
M  V30 9640 H 894.666 6.51364 -3.83746 0
M  V30 9641 H 895.934 7.23779 -2.8942 0
M  V30 9642 N 900.163 1.21714 1.00117 0
M  V30 9643 C 901.126 0.981338 2.07129 0
M  V30 9644 C 902.126 -0.0491116 1.60725 0
M  V30 9645 O 903.316 0.188555 1.73177 0
M  V30 9646 C 900.448 0.480608 3.37495 0
M  V30 9647 H 901.641 1.93075 2.29482 0
M  V30 9648 H 899.194 1.03467 1.17151 0
M  V30 9649 H 899.929 -0.473552 3.20824 0
M  V30 9650 H 899.714 1.22393 3.72508 0
M  V30 9651 H 901.204 0.33561 4.16249 0
M  V30 9652 N 901.641 -1.19671 1.02551 0
M  V30 9653 C 902.887 -1.89818 0.730801 0
M  V30 9654 C 903.242 -1.77917 -0.732355 0
M  V30 9655 O 902.535 -1.15848 -1.5261 0
M  V30 9656 C 902.729 -3.39647 1.11241 0
M  V30 9657 C 902.558 -3.66129 2.61112 0
M  V30 9658 C 901.328 -3.84348 3.28032 0
M  V30 9659 C 903.526 -3.67963 3.59316 0
M  V30 9660 N 901.508 -3.98429 4.67041 0
M  V30 9661 C 902.879 -3.87575 4.83927 0
M  V30 9662 C 904.934 -3.50971 3.53162 0
M  V30 9663 C 903.637 -3.91957 6.03127 0
M  V30 9664 C 905.663 -3.56629 4.71773 0
M  V30 9665 C 905.025 -3.76722 5.95197 0
M  V30 9666 H 901.124 -0.713873 0.319232 0
M  V30 9667 H 903.708 -1.43844 1.31213 0
M  V30 9668 H 901.879 -3.84352 0.559324 0
M  V30 9669 H 903.611 -3.97301 0.77031 0
M  V30 9670 H 900.366 -3.83097 2.78448 0
M  V30 9671 H 900.79 -4.09327 5.39241 0
M  V30 9672 H 905.432 -3.34395 2.58728 0
M  V30 9673 H 903.15 -4.07326 6.97933 0
M  V30 9674 H 906.736 -3.44777 4.68637 0
M  V30 9675 H 905.616 -3.8097 6.85442 0
M  V30 9676 N 903.119 -0.802921 -1.35613 0
M  V30 9677 C 904.347 -0.39393 -2.03115 0
M  V30 9678 C 904.762 0.993961 -1.60517 0
M  V30 9679 O 904.119 1.63984 -0.800973 0
M  V30 9680 C 904.17 -0.463486 -3.58516 0
M  V30 9681 O 903.891 -1.79666 -3.99565 0
M  V30 9682 C 905.392 -0.0468377 -4.43275 0
M  V30 9683 H 902.612 -0.160519 -0.651517 0
M  V30 9684 H 905.156 -1.08552 -1.73311 0
M  V30 9685 H 903.311 0.179821 -3.86982 0
M  V30 9686 H 903.725 -1.75688 -4.942 0
M  V30 9687 H 905.199 -0.146626 -5.51805 0
M  V30 9688 H 905.676 1.00741 -4.2749 0
M  V30 9689 H 906.282 -0.663158 -4.20098 0
M  V30 9690 N 904.597 1.47463 -0.556102 0
M  V30 9691 C 905.843 2.02775 -0.0316806 0
M  V30 9692 C 906.176 1.42967 1.3143 0
M  V30 9693 O 905.451 0.584847 1.85499 0
M  V30 9694 C 905.734 3.60046 0.0625742 0
M  V30 9695 C 905.587 4.30288 -1.31043 0
M  V30 9696 C 906.906 4.33195 0.776553 0
M  V30 9697 H 904.025 0.736886 -0.0129869 0
M  V30 9698 H 906.667 1.75904 -0.718177 0
M  V30 9699 H 904.817 3.83071 0.647231 0
M  V30 9700 H 906.489 4.18607 -1.9382 0
M  V30 9701 H 904.732 3.90685 -1.8854 0
M  V30 9702 H 905.403 5.38861 -1.1972 0
M  V30 9703 H 907.879 4.15156 0.280147 0
M  V30 9704 H 906.755 5.42869 0.81146 0
M  V30 9705 H 907.016 4.02336 1.83244 0
M  V30 9706 N 906.075 0.2925 1.54862 0
M  V30 9707 C 907.005 -0.580677 2.26165 0
M  V30 9708 C 907.986 -1.14485 1.25806 0
M  V30 9709 O 909.171 -1.17577 1.54562 0
M  V30 9710 C 906.301 -1.75668 2.99596 0
M  V30 9711 C 905.255 -1.32325 4.07031 0
M  V30 9712 C 904.581 -2.58374 4.68131 0
M  V30 9713 C 905.881 -0.460703 5.20264 0
M  V30 9714 H 907.575 0.0140075 2.99397 0
M  V30 9715 H 905.121 0.00817706 1.43998 0
M  V30 9716 H 907.074 -2.37356 3.48195 0
M  V30 9717 H 905.798 -2.37747 2.23928 0
M  V30 9718 H 904.457 -0.729477 3.59269 0
M  V30 9719 H 904.105 -3.18749 3.89112 0
M  V30 9720 H 903.805 -2.30078 5.40683 0
M  V30 9721 H 905.329 -3.2088 5.19489 0
M  V30 9722 H 906.743 -0.983037 5.64809 0
M  V30 9723 H 905.14 -0.271881 5.99484 0
M  V30 9724 H 906.21 0.516304 4.82143 0
M  V30 9725 N 907.553 -1.57587 0.0200696 0
M  V30 9726 C 908.781 -1.95718 -0.670964 0
M  V30 9727 C 909.196 -0.896081 -1.6618 0
M  V30 9728 O 908.553 0.123037 -1.82085 0
M  V30 9729 C 908.604 -3.33904 -1.38529 0
M  V30 9730 O 908.325 -4.35943 -0.434167 0
M  V30 9731 C 909.826 -3.86614 -2.16898 0
M  V30 9732 H 907.046 -0.644819 -0.185606 0
M  V30 9733 H 909.59 -2.04354 0.0771495 0
M  V30 9734 H 907.745 -3.26515 -2.08487 0
M  V30 9735 H 908.159 -5.16001 -0.940378 0
M  V30 9736 H 909.633 -4.85673 -2.62346 0
M  V30 9737 H 910.11 -3.20379 -3.00423 0
M  V30 9738 H 910.716 -3.97243 -1.51916 0
M  V30 9739 N 909.032 0.252966 -1.55557 0
M  V30 9740 C 909.942 1.33472 -1.92931 0
M  V30 9741 C 910.958 1.52983 -0.828985 0
M  V30 9742 O 912.134 1.66723 -1.12984 0
M  V30 9743 C 909.199 2.6704 -2.21112 0
M  V30 9744 C 908.26 2.56103 -3.44542 0
M  V30 9745 C 907.493 3.83302 -3.71369 0
M  V30 9746 O 907.716 4.84907 -3.00368 0
M  V30 9747 O 906.65 3.823 -4.64898 0
M  V30 9748 H 910.476 1.04768 -2.85057 0
M  V30 9749 H 908.061 0.453208 -1.4236 0
M  V30 9750 H 909.943 3.45981 -2.40572 0
M  V30 9751 H 908.618 2.95489 -1.32166 0
M  V30 9752 H 907.525 1.7547 -3.30396 0
M  V30 9753 H 908.858 2.32601 -4.33772 0
M  V30 9754 N 910.51 1.48831 0.518367 0
M  V30 9755 C 911.74 1.60886 1.29612 0
M  V30 9756 C 912.148 0.272713 1.87224 0
M  V30 9757 O 911.491 -0.749653 1.67708 0
M  V30 9758 C 911.553 2.60541 2.47707 0
M  V30 9759 C 911.217 4.05324 2.11095 0
M  V30 9760 C 912.214 4.92658 1.66084 0
M  V30 9761 C 909.899 4.50942 2.21262 0
M  V30 9762 C 911.893 6.23641 1.3172 0
M  V30 9763 C 909.58 5.81943 1.8651 0
M  V30 9764 C 910.578 6.68116 1.41812 0
M  V30 9765 O 910.266 7.96677 1.07522 0
M  V30 9766 H 909.998 0.544968 0.399982 0
M  V30 9767 H 912.552 1.95474 0.630799 0
M  V30 9768 H 910.782 2.21098 3.17258 0
M  V30 9769 H 912.471 2.62308 3.09757 0
M  V30 9770 H 913.237 4.58649 1.5769 0
M  V30 9771 H 909.116 3.84048 2.55007 0
M  V30 9772 H 912.66 6.90857 0.967598 0
M  V30 9773 H 908.557 6.15484 1.94549 0
M  V30 9774 H 909.325 8.09534 1.2082 0
M  V30 9775 N 911.988 -0.768124 1.37614 0
M  V30 9776 C 913.218 -1.555 1.36027 0
M  V30 9777 C 913.626 -1.89119 -0.0554273 0
M  V30 9778 O 912.969 -1.52203 -1.02859 0
M  V30 9779 C 913.031 -2.8906 2.13739 0
M  V30 9780 C 912.695 -2.78058 3.62674 0
M  V30 9781 C 913.692 -2.48841 4.5648 0
M  V30 9782 C 911.377 -2.95966 4.05844 0
M  V30 9783 C 913.371 -2.37665 5.91434 0
M  V30 9784 C 911.058 -2.84411 5.40882 0
M  V30 9785 C 912.056 -2.55301 6.33491 0
M  V30 9786 O 911.744 -2.43779 7.66046 0
M  V30 9787 H 911.476 -0.488263 0.467521 0
M  V30 9788 H 914.03 -0.959583 1.81607 0
M  V30 9789 H 912.26 -3.50735 1.62854 0
M  V30 9790 H 913.949 -3.5048 2.04741 0
M  V30 9791 H 914.715 -2.34687 4.24437 0
M  V30 9792 H 910.594 -3.17625 3.34119 0
M  V30 9793 H 914.138 -2.14865 6.63686 0
M  V30 9794 H 910.035 -2.98134 5.72527 0
M  V30 9795 H 910.803 -2.59101 7.76408 0
M  V30 9796 N 913.466 -1.22244 -0.994698 0
M  V30 9797 C 914.413 -0.990906 -2.08446 0
M  V30 9798 C 915.383 0.086737 -1.65873 0
M  V30 9799 O 916.568 -0.0624882 -1.90698 0
M  V30 9800 C 913.708 -0.572813 -3.40313 0
M  V30 9801 C 912.821 -1.72103 -3.96238 0
M  V30 9802 C 911.956 -1.2511 -5.16257 0
M  V30 9803 C 910.995 -2.37098 -5.64315 0
M  V30 9804 N 910.132 -1.91164 -6.75574 0
M  V30 9805 H 914.972 -1.92377 -2.27585 0
M  V30 9806 H 912.509 -0.958576 -1.11578 0
M  V30 9807 H 914.467 -0.311594 -4.16035 0
M  V30 9808 H 913.097 0.323044 -3.21179 0
M  V30 9809 H 912.149 -2.09662 -3.17405 0
M  V30 9810 H 913.461 -2.56347 -4.27888 0
M  V30 9811 H 912.615 -0.947152 -5.99261 0
M  V30 9812 H 911.354 -0.378836 -4.86226 0
M  V30 9813 H 910.359 -2.68283 -4.799 0
M  V30 9814 H 911.584 -3.24837 -5.96371 0
M  V30 9815 H 909.53 -1.06298 -6.47331 0
M  V30 9816 H 909.447 -2.68975 -7.06533 0
M  V30 9817 H 910.715 -1.63833 -7.62088 0
M  V30 9818 N 914.944 1.19125 -1.03184 0
M  V30 9819 C 916.169 1.93379 -0.749628 0
M  V30 9820 C 916.594 1.75153 0.685785 0
M  V30 9821 O 915.952 1.05579 1.47386 0
M  V30 9822 C 916 3.43101 -1.1097 0
M  V30 9823 O 915.104 4.11758 -0.230053 0
M  V30 9824 H 914.445 0.603605 -0.276689 0
M  V30 9825 H 916.975 1.51116 -1.37931 0
M  V30 9826 H 916.985 3.93778 -1.06785 0
M  V30 9827 H 915.66 3.55688 -2.15544 0
M  V30 9828 H 914.237 3.7143 -0.330748 0
M  V30 9829 N 916.422 0.810101 1.35185 0
M  V30 9830 C 917.352 0.237453 2.32289 0
M  V30 9831 C 918.333 -0.639032 1.5764 0
M  V30 9832 O 919.518 -0.568575 1.8569 0
M  V30 9833 C 916.648 -0.611964 3.41866 0
M  V30 9834 C 915.602 0.166318 4.27677 0
M  V30 9835 C 914.928 -0.805024 5.28605 0
M  V30 9836 C 916.228 1.36729 5.04086 0
M  V30 9837 H 917.922 1.04874 2.80432 0
M  V30 9838 H 915.468 0.505751 1.34826 0
M  V30 9839 H 917.421 -1.02267 4.08802 0
M  V30 9840 H 916.145 -1.45617 2.92341 0
M  V30 9841 H 914.804 0.558238 3.62325 0
M  V30 9842 H 914.452 -1.64483 4.75347 0
M  V30 9843 H 914.152 -0.288577 5.86891 0
M  V30 9844 H 915.676 -1.21386 5.98413 0
M  V30 9845 H 917.09 1.03128 5.63948 0
M  V30 9846 H 915.487 1.81848 5.71884 0
M  V30 9847 H 916.557 2.15214 4.34524 0
M  V30 9848 N 917.9 -1.47166 0.563914 0
M  V30 9849 C 918.81 -2.33885 -0.182977 0
M  V30 9850 C 919.826 -1.48605 -0.905132 0
M  V30 9851 O 921.002 -1.81518 -0.872527 0
M  V30 9852 C 918.067 -3.25433 -1.19558 0
M  V30 9853 C 917.128 -4.26607 -0.480129 0
M  V30 9854 C 916.361 -5.1378 -1.44449 0
M  V30 9855 O 916.584 -5.03531 -2.67979 0
M  V30 9856 O 915.518 -5.94109 -0.965321 0
M  V30 9857 H 919.344 -2.99065 0.528544 0
M  V30 9858 H 916.929 -1.45834 0.324468 0
M  V30 9859 H 918.811 -3.81964 -1.77993 0
M  V30 9860 H 917.486 -2.62873 -1.8889 0
M  V30 9861 H 916.393 -3.73817 0.145583 0
M  V30 9862 H 917.726 -4.919 0.171868 0
M  V30 9863 N 919.378 -0.300708 -1.54705 0
M  V30 9864 C 920.325 0.57552 -2.23509 0
M  V30 9865 C 921.295 1.12979 -1.21758 0
M  V30 9866 O 922.48 1.17437 -1.50377 0
M  V30 9867 C 919.62 1.74167 -2.97926 0
M  V30 9868 C 918.733 1.21882 -4.1445 0
M  V30 9869 C 917.868 2.34881 -4.7645 0
M  V30 9870 C 916.907 1.79729 -5.85119 0
M  V30 9871 N 916.044 2.863 -6.41075 0
M  V30 9872 H 920.884 -0.0178257 -2.97995 0
M  V30 9873 H 918.421 -0.0205666 -1.47086 0
M  V30 9874 H 920.379 2.42753 -3.39303 0
M  V30 9875 H 919.009 2.30665 -2.25817 0
M  V30 9876 H 918.061 0.425227 -3.78016 0
M  V30 9877 H 919.373 0.775065 -4.92741 0
M  V30 9878 H 918.527 3.11415 -5.20678 0
M  V30 9879 H 917.266 2.82584 -3.97489 0
M  V30 9880 H 916.271 1.01684 -5.40315 0
M  V30 9881 H 917.496 1.32931 -6.65963 0
M  V30 9882 H 915.442 3.33337 -5.64998 0
M  V30 9883 H 915.359 2.46419 -7.14712 0
M  V30 9884 H 916.627 3.62732 -6.89961 0
M  V30 9885 N 920.856 1.57574 -0.0284266 0
M  V30 9886 C 921.819 2.09096 0.938691 0
M  V30 9887 C 922.819 1.00588 1.25454 0
M  V30 9888 O 924.009 1.2675 1.19499 0
M  V30 9889 C 921.141 2.55624 2.25542 0
M  V30 9890 H 922.334 2.95829 0.49248 0
M  V30 9891 H 919.887 1.5475 0.219594 0
M  V30 9892 H 920.622 1.72218 2.74793 0
M  V30 9893 H 920.407 3.34896 2.03929 0
M  V30 9894 H 921.897 2.95712 2.94863 0
M  V30 9895 O 922.373 -0.113224 1.61103 0
M  V30 9896 H 923.064 -0.743881 1.78847 0
M  V30 END ATOM
M  V30 BEGIN BOND
M  V30 END BOND
M  V30 END CTAB
M  END
$$$$
