drugbank_target|Q8SPQ9 Cyclooxygenase 2 (DB11455; DB14059; DB14060)
 OpenBabel12092121193D

  0  0  0     0  0            999 V3000
M  V30 BEGIN CTAB
M  V30 COUNTS 9647 9779 0 0 0
M  V30 BEGIN ATOM
M  V30 1 H -0.908 1.98254 -0.117106 0
M  V30 2 N 0 1.576 0 0
M  V30 3 C 0.933 2.03868 1.02534 0
M  V30 4 C 1.911 0.928543 1.3348 0
M  V30 5 O 3.095 1.19667 1.45644 0
M  V30 6 C 0.222 2.43627 2.35294 0
M  V30 7 C -0.732 3.65373 2.2001 0
M  V30 8 S 0.101 5.13292 1.52614 0
M  V30 9 C 1.257 5.56322 2.86805 0
M  V30 10 H 1.49 2.90518 0.631377 0
M  V30 11 H -0.977 1.52953 0.210867 0
M  V30 12 H 0.981 2.67203 3.11629 0
M  V30 13 H -0.358 1.57376 2.7183 0
M  V30 14 H -1.165 3.90944 3.18086 0
M  V30 15 H -1.563 3.418 1.51819 0
M  V30 16 H 0.729 5.58782 3.83104 0
M  V30 17 H 1.672 6.56266 2.65933 0
M  V30 18 H 2.08 4.83886 2.90714 0
M  V30 19 N 1.4781 -0.272755 1.55222 0
M  V30 20 C 2.4081 -1.34136 1.91127 0
M  V30 21 C 3.3891 -1.51513 0.773168 0
M  V30 22 O 4.5741 -1.64552 1.03132 0
M  V30 23 C 1.7041 -2.70083 2.1834 0
M  V30 24 C 0.6581 -2.67437 3.34158 0
M  V30 25 C -0.0159 -4.06938 3.46851 0
M  V30 26 C 1.2841 -2.26686 4.70543 0
M  V30 27 H 2.9781 -1.04333 2.80633 0
M  V30 28 H 0.5241 -0.500454 1.35024 0
M  V30 29 H 2.4771 -3.44952 2.42046 0
M  V30 30 H 1.2011 -3.01469 1.25634 0
M  V30 31 H -0.1399 -1.95026 3.1042 0
M  V30 32 H -0.4919 -4.35547 2.51611 0
M  V30 33 H -0.7919 -4.06062 4.2472 0
M  V30 34 H 0.7321 -4.83545 3.72849 0
M  V30 35 H 2.1461 -2.91277 4.93792 0
M  V30 36 H 0.5431 -2.36971 5.5133 0
M  V30 37 H 1.6131 -1.21818 4.69349 0
M  V30 38 N 2.9562 -1.48159 -0.537278 0
M  V30 39 C 3.9192 -1.61665 -1.62472 0
M  V30 40 C 4.9192 -0.490395 -1.5314 0
M  V30 41 O 6.1092 -0.755998 -1.5694 0
M  V30 42 C 3.2412 -1.57997 -3.02076 0
M  V30 43 H 4.4342 -2.58621 -1.51839 0
M  V30 44 H 1.9872 -1.36647 -0.758771 0
M  V30 45 H 2.7222 -0.624913 -3.18222 0
M  V30 46 H 2.5072 -2.39755 -3.10258 0
M  V30 47 H 3.9972 -1.70627 -3.81151 0
M  V30 48 N 4.4343 0.785586 -1.36625 0
M  V30 49 C 5.8503 1.08419 -1.17122 0
M  V30 50 C 6.0503 2.015 0.00208491 0
M  V30 51 O 5.1063 2.43551 0.666278 0
M  V30 52 C 6.4193 1.69498 -2.48377 0
M  V30 53 C 7.9673 1.81821 -2.54775 0
M  V30 54 C 8.4423 2.46315 -3.86126 0
M  V30 55 N 9.9333 2.53779 -3.87492 0
M  V30 56 C 10.6683 3.045 -4.85868 0
M  V30 57 N 10.1643 3.55499 -5.94637 0
M  V30 58 N 11.9573 3.03247 -4.73284 0
M  V30 59 H 4.1083 0.167264 -2.1174 0
M  V30 60 H 6.3713 0.13682 -0.938075 0
M  V30 61 H 6.0773 1.08571 -3.34522 0
M  V30 62 H 5.9513 2.6896 -2.64462 0
M  V30 63 H 8.3383 2.41884 -1.69045 0
M  V30 64 H 8.4193 0.811532 -2.42586 0
M  V30 65 H 8.0633 1.86895 -4.72263 0
M  V30 66 H 7.9933 3.47561 -3.95612 0
M  V30 67 H 10.4843 2.17672 -3.08913 0
M  V30 68 H 10.7973 3.92562 -6.65669 0
M  V30 69 H 9.1423 3.5364 -5.98301 0
M  V30 70 H 12.3333 2.62696 -3.87438 0
M  V30 71 H 12.5063 3.42467 -5.50109 0
M  V30 72 N 5.9124 1.20967 1.01018 0
M  V30 73 C 6.8754 0.965918 2.07853 0
M  V30 74 C 7.8754 -0.0610545 1.60684 0
M  V30 75 O 9.0654 0.175681 1.73312 0
M  V30 76 C 6.1974 0.455513 3.37843 0
M  V30 77 H 7.3904 1.91365 2.3091 0
M  V30 78 H 4.9434 1.02594 1.17916 0
M  V30 79 H 5.6784 -0.497381 3.20463 0
M  V30 80 H 5.4634 1.19622 3.73407 0
M  V30 81 H 6.9534 0.304667 4.16487 0
M  V30 82 N 7.3905 -1.2043 1.01659 0
M  V30 83 C 8.3205 -2.25466 0.607226 0
M  V30 84 C 9.3015 -1.65853 -0.377716 0
M  V30 85 O 10.4865 -1.92409 -0.263149 0
M  V30 86 C 7.6165 -3.47256 -0.0552949 0
M  V30 87 C 6.5705 -4.19462 0.850632 0
M  V30 88 C 5.8965 -5.34673 0.0538859 0
M  V30 89 C 7.1965 -4.75603 2.15868 0
M  V30 90 H 8.8905 -2.59962 1.48526 0
M  V30 91 H 6.4365 -1.2496 0.715605 0
M  V30 92 H 8.3895 -4.19917 -0.353233 0
M  V30 93 H 7.1135 -3.11924 -0.968045 0
M  V30 94 H 5.7725 -3.48667 1.13257 0
M  V30 95 H 5.4205 -4.95585 -0.860514 0
M  V30 96 H 5.1205 -5.83913 0.657192 0
M  V30 97 H 6.6445 -6.10138 -0.237598 0
M  V30 98 H 8.0585 -5.40083 1.92311 0
M  V30 99 H 6.4555 -5.3528 2.71284 0
M  V30 100 H 7.5255 -3.94346 2.82169 0
M  V30 101 N 8.8686 -0.792821 -1.36206 0
M  V30 102 C 10.1146 -0.36733 -1.99446 0
M  V30 103 C 10.4476 1.05917 -1.62774 0
M  V30 104 O 9.7226 1.7324 -0.88421 0
M  V30 105 C 10.0056 -0.535044 -3.56103 0
M  V30 106 C 9.8586 -2.00548 -4.02617 0
M  V30 107 C 11.1776 0.0478191 -4.40074 0
M  V30 108 H 8.2966 -0.134941 -0.724541 0
M  V30 109 H 10.9386 -0.999794 -1.61568 0
M  V30 110 H 9.0886 0.00336329 -3.885 0
M  V30 111 H 10.7606 -2.60521 -3.80692 0
M  V30 112 H 9.0036 -2.50686 -3.54032 0
M  V30 113 H 9.6746 -2.07377 -5.11565 0
M  V30 114 H 12.1506 -0.411822 -4.14057 0
M  V30 115 H 11.0266 -0.0995336 -5.4881 0
M  V30 116 H 11.2876 1.14025 -4.27142 0
M  V30 117 N 10.3467 1.47872 -0.545128 0
M  V30 118 C 11.2767 2.32661 0.197793 0
M  V30 119 C 12.2577 1.43041 0.920504 0
M  V30 120 O 13.4427 1.71912 0.90333 0
M  V30 121 C 10.5727 3.24569 1.23582 0
M  V30 122 C 9.5267 4.23333 0.630323 0
M  V30 123 C 8.8527 5.0448 1.77211 0
M  V30 124 C 10.1527 5.20704 -0.407974 0
M  V30 125 H 11.8467 2.95024 -0.510045 0
M  V30 126 H 9.3927 1.4187 -0.246731 0
M  V30 127 H 11.3457 3.8272 1.76362 0
M  V30 128 H 10.0697 2.60236 1.97344 0
M  V30 129 H 8.7287 3.6639 0.123922 0
M  V30 130 H 8.3767 4.36561 2.49847 0
M  V30 131 H 8.0767 5.71339 1.37281 0
M  V30 132 H 9.6007 5.65487 2.3034 0
M  V30 133 H 11.0147 5.7329 0.033305 0
M  V30 134 H 9.4117 5.95699 -0.725486 0
M  V30 135 H 10.4817 4.66917 -1.30828 0
M  V30 136 N 11.8248 0.280983 1.55075 0
M  V30 137 C 13.0648 -0.335234 2.01632 0
M  V30 138 C 13.4288 -1.5261 1.16508 0
M  V30 139 O 14.6298 -2.21235 1.52672 0
M  V30 140 C 12.9008 -0.702172 3.50434 0
M  V30 141 S 14.4598 -1.30409 4.18974 0
M  V30 142 H 11.2778 -0.103967 0.703358 0
M  V30 143 H 13.8798 0.404187 1.91276 0
M  V30 144 H 12.5838 0.17333 4.10034 0
M  V30 145 H 12.1148 -1.4729 3.64786 0
M  V30 146 H 14.1298 -2.59253 4.23087 0
M  V30 147 N 13.3029 -1.57598 0.00835791 0
M  V30 148 C 14.2659 -2.07884 -0.965242 0
M  V30 149 C 15.2659 -0.989825 -1.26725 0
M  V30 150 O 16.4559 -1.25218 -1.21104 0
M  V30 151 C 13.5879 -2.52731 -2.28779 0
M  V30 152 H 14.7809 -2.95178 -0.530112 0
M  V30 153 H 12.3339 -1.54458 -0.239283 0
M  V30 154 H 13.0689 -1.68705 -2.76964 0
M  V30 155 H 12.8539 -3.32272 -2.08177 0
M  V30 156 H 14.3439 -2.91933 -2.98605 0
M  V30 157 N 14.781 0.264519 -1.55364 0
M  V30 158 C 15.744 1.31046 -1.88042 0
M  V30 159 C 16.744 1.41943 -0.755569 0
M  V30 160 O 17.934 1.40947 -1.02369 0
M  V30 161 C 15.066 2.69067 -2.09323 0
M  V30 162 H 16.259 1.03297 -2.81549 0
M  V30 163 H 13.812 0.502989 -1.47986 0
M  V30 164 H 14.547 3.01982 -1.18226 0
M  V30 165 H 14.332 2.62542 -2.91229 0
M  V30 166 H 15.822 3.44623 -2.35848 0
M  V30 167 N 16.2591 1.48442 0.529413 0
M  V30 168 C 17.1891 1.65902 1.64313 0
M  V30 169 C 18.1701 0.507897 1.6234 0
M  V30 170 O 19.3551 0.740503 1.79528 0
M  V30 171 C 16.4851 1.69911 3.02898 0
M  V30 172 C 15.4391 2.8453 3.19729 0
M  V30 173 C 14.7651 2.73629 4.59381 0
M  V30 174 C 16.0651 4.25821 3.02447 0
M  V30 175 H 17.7591 2.5914 1.49955 0
M  V30 176 H 15.3051 1.24709 0.719982 0
M  V30 177 H 17.2581 1.80715 3.80684 0
M  V30 178 H 15.9821 0.732524 3.18279 0
M  V30 179 H 14.6411 2.73283 2.44361 0
M  V30 180 H 14.2891 1.74938 4.71599 0
M  V30 181 H 13.9891 3.50541 4.71588 0
M  V30 182 H 15.5131 2.86401 5.39265 0
M  V30 183 H 16.9271 4.37898 3.70024 0
M  V30 184 H 15.3241 5.03735 3.26146 0
M  V30 185 H 16.3941 4.42244 1.98867 0
M  V30 186 N 17.7372 -0.778329 1.37039 0
M  V30 187 C 18.7002 -1.87301 1.32102 0
M  V30 188 C 19.7002 -1.59198 0.226405 0
M  V30 189 O 20.8902 -1.67403 0.481861 0
M  V30 190 C 18.0222 -3.24309 1.05055 0
M  V30 191 H 19.2152 -1.93093 2.29467 0
M  V30 192 H 16.7682 -0.977358 1.21973 0
M  V30 193 H 17.5032 -3.24196 0.0819373 0
M  V30 194 H 17.2882 -3.46098 1.84279 0
M  V30 195 H 18.7782 -4.04382 1.04234 0
M  V30 196 N 19.2153 -1.21501 -1.00376 0
M  V30 197 C 20.4613 -1.03452 -1.74429 0
M  V30 198 C 20.7943 0.430764 -1.89362 0
M  V30 199 O 20.0693 1.31962 -1.42886 0
M  V30 200 C 20.3523 -1.73375 -3.15615 0
M  V30 201 C 20.2053 -3.27431 -3.08397 0
M  V30 202 C 21.5243 -1.47732 -4.14564 0
M  V30 203 H 18.6433 -0.377226 -0.633143 0
M  V30 204 H 21.2853 -1.49693 -1.17013 0
M  V30 205 H 19.4353 -1.34064 -3.64636 0
M  V30 206 H 21.1073 -3.76119 -2.67081 0
M  V30 207 H 19.3503 -3.5767 -2.45468 0
M  V30 208 H 20.0213 -3.71524 -4.08258 0
M  V30 209 H 22.4973 -1.8186 -3.74254 0
M  V30 210 H 21.3733 -1.99169 -5.11491 0
M  V30 211 H 21.6343 -0.407589 -4.40217 0
M  V30 212 N 20.6934 1.19889 -1.02296 0
M  V30 213 C 21.9394 1.89701 -0.717033 0
M  V30 214 C 22.2724 1.7905 0.751989 0
M  V30 215 O 21.5474 1.17891 1.547 0
M  V30 216 C 21.8304 3.40858 -1.16136 0
M  V30 217 C 21.6834 3.60411 -2.69117 0
M  V30 218 C 23.0024 4.33876 -0.737549 0
M  V30 219 H 20.1214 0.688874 -0.261957 0
M  V30 220 H 22.7634 1.41154 -1.27183 0
M  V30 221 H 20.9134 3.82335 -0.689342 0
M  V30 222 H 22.5854 3.28145 -3.2422 0
M  V30 223 H 20.8284 3.03665 -3.0979 0
M  V30 224 H 21.4994 4.66396 -2.95261 0
M  V30 225 H 23.9754 4.00081 -1.14344 0
M  V30 226 H 22.8514 5.38242 -1.0764 0
M  V30 227 H 23.1124 4.40628 0.360436 0
M  V30 228 N 22.1715 0.800033 1.35784 0
M  V30 229 C 23.5875 0.482977 1.52117 0
M  V30 230 C 23.7875 -0.996948 1.75109 0
M  V30 231 O 22.8435 -1.78216 1.78872 0
M  V30 232 C 24.1565 1.32264 2.70049 0
M  V30 233 C 25.7045 1.31742 2.83924 0
M  V30 234 C 26.1795 2.14106 4.04874 0
M  V30 235 N 27.6705 2.11607 4.12039 0
M  V30 236 C 28.4055 2.72099 5.04727 0
M  V30 237 N 27.9015 3.41492 6.02789 0
M  V30 238 N 29.6945 2.61776 4.97423 0
M  V30 239 H 21.8455 1.75856 1.19115 0
M  V30 240 H 24.1085 0.748122 0.582252 0
M  V30 241 H 23.8145 2.37261 2.59616 0
M  V30 242 H 23.6885 0.971303 3.6448 0
M  V30 243 H 26.0755 0.275333 2.93813 0
M  V30 244 H 26.1565 1.70859 1.9037 0
M  V30 245 H 25.8005 3.18351 3.95746 0
M  V30 246 H 25.7305 1.72353 4.97596 0
M  V30 247 H 28.2215 1.61112 3.41835 0
M  V30 248 H 28.5345 3.84953 6.70098 0
M  V30 249 H 26.8795 3.45596 6.02983 0
M  V30 250 H 30.0705 2.07157 4.19766 0
M  V30 251 H 30.2435 3.0921 5.69468 0
M  V30 252 N 23.6496 -1.47581 0.552962 0
M  V30 253 C 24.6126 -2.28439 -0.186605 0
M  V30 254 C 25.6126 -1.36706 -0.84665 0
M  V30 255 O 26.8026 -1.59378 -0.703164 0
M  V30 256 C 23.9346 -3.16264 -1.2724 0
M  V30 257 H 25.1276 -2.95294 0.523609 0
M  V30 258 H 22.6806 -1.532 0.309745 0
M  V30 259 H 23.4156 -2.54091 -2.01514 0
M  V30 260 H 23.2006 -3.83769 -0.803968 0
M  V30 261 H 24.6906 -3.77198 -1.79196 0
M  V30 262 N 25.1277 -0.289203 -1.54924 0
M  V30 263 C 26.0907 0.579144 -2.21762 0
M  V30 264 C 27.0907 1.07047 -1.1999 0
M  V30 265 O 28.2807 0.968384 -1.44803 0
M  V30 266 C 25.4127 1.80055 -2.8947 0
M  V30 267 H 26.6057 -0.00464908 -2.999 0
M  V30 268 H 24.1587 -0.0399306 -1.56249 0
M  V30 269 H 24.8937 2.42449 -2.15381 0
M  V30 270 H 24.6787 1.45602 -3.64064 0
M  V30 271 H 26.1687 2.41773 -3.40493 0
M  V30 272 N 26.6058 1.57591 -0.0167156 0
M  V30 273 C 27.5538 2.10604 0.987353 0
M  V30 274 C 28.5478 1.02977 1.34507 0
M  V30 275 O 29.7538 1.21425 1.32875 0
M  V30 276 H 26.1288 0.672695 0.336134 0
M  V30 277 H 28.0998 2.93925 0.514817 0
M  V30 278 C 26.8488 2.6382 2.26483 0
M  V30 279 H 26.1718 3.46278 1.99829 0
M  V30 280 H 27.6118 3.04573 2.94977 0
M  V30 281 C 26.0708 1.55992 2.9861 0
M  V30 282 O 26.6008 0.952521 3.90243 0
M  V30 283 N 24.8068 1.28335 2.60727 0
M  V30 284 H 24.3538 1.77914 1.86291 0
M  V30 285 H 24.3118 0.564115 3.09298 0
M  V30 286 N 28.0839 -0.256276 1.55502 0
M  V30 287 C 29.4949 -0.826068 1.67431 0
M  V30 288 C 29.8459 -1.86396 0.612446 0
M  V30 289 O 28.9709 -2.15031 -0.243025 0
M  V30 290 C 29.5659 -1.50512 3.03532 0
M  V30 291 C 28.1249 -2.02273 3.17431 0
M  V30 292 C 27.2719 -0.870548 2.63281 0
M  V30 293 H 30.2229 -0.0322728 1.58667 0
M  V30 294 H 30.2439 -2.37279 2.97454 0
M  V30 295 H 29.7559 -0.749484 3.80794 0
M  V30 296 H 27.8569 -2.80746 2.44974 0
M  V30 297 H 27.9699 -2.22655 4.24219 0
M  V30 298 H 26.3339 -1.26851 2.20864 0
M  V30 299 H 27.1169 -0.128149 3.43061 0
M  V30 300 N 29.562 -1.4872 -0.521534 0
M  V30 301 C 30.802 -1.58771 -1.28729 0
M  V30 302 C 31.166 -0.259394 -1.9024 0
M  V30 303 O 32.367 -0.234942 -2.67771 0
M  V30 304 C 30.638 -2.70039 -2.34124 0
M  V30 305 S 32.197 -2.9991 -3.20312 0
M  V30 306 H 29.015 -0.560251 -0.437767 0
M  V30 307 H 31.617 -1.86283 -0.593188 0
M  V30 308 H 30.321 -3.65101 -1.87429 0
M  V30 309 H 29.852 -2.44455 -3.08229 0
M  V30 310 H 31.867 -2.39855 -4.34378 0
M  V30 311 N 31.0401 0.771051 -1.3745 0
M  V30 312 C 32.2801 1.54264 -1.34096 0
M  V30 313 C 32.6441 1.91858 0.0737639 0
M  V30 314 O 33.8451 2.67797 0.23203 0
M  V30 315 C 32.1161 2.77326 -2.25445 0
M  V30 316 S 33.6751 3.67383 -2.39948 0
M  V30 317 H 30.4931 0.528122 -0.476034 0
M  V30 318 H 33.0951 0.906633 -1.73206 0
M  V30 319 H 31.7991 2.47788 -3.27153 0
M  V30 320 H 31.3301 3.45886 -1.87421 0
M  V30 321 H 33.3451 4.69334 -1.61059 0
M  V30 322 N 32.5182 1.22032 0.997298 0
M  V30 323 C 33.7432 1.06921 1.77715 0
M  V30 324 C 34.1682 -0.376226 1.84299 0
M  V30 325 O 33.5262 -1.27165 1.29223 0
M  V30 326 C 33.5742 1.67996 3.19076 0
M  V30 327 O 32.6782 0.930653 4.01762 0
M  V30 328 H 32.0192 0.375814 0.547412 0
M  V30 329 H 34.5492 1.61737 1.25309 0
M  V30 330 H 34.5592 1.72538 3.69723 0
M  V30 331 H 33.2342 2.73182 3.13599 0
M  V30 332 H 31.8112 0.960917 3.60307 0
M  V30 333 N 33.9963 -1.19345 1.0293 0
M  V30 334 C 34.9463 -2.20472 0.58104 0
M  V30 335 C 35.9303 -1.56578 -0.370442 0
M  V30 336 O 37.1223 -1.75963 -0.191344 0
M  V30 337 C 34.2513 -3.43236 -0.066306 0
M  V30 338 C 33.3373 -4.14274 0.907642 0
M  V30 339 N 33.7283 -4.61492 2.07023 0
M  V30 340 C 32.0263 -4.39966 0.731177 0
M  V30 341 C 32.7273 -5.1605 2.68454 0
M  V30 342 N 31.7033 -5.06875 1.96414 0
M  V30 343 H 35.5053 -2.54659 1.46717 0
M  V30 344 H 33.0193 -1.35423 0.896345 0
M  V30 345 H 35.0163 -4.14927 -0.405068 0
M  V30 346 H 33.6763 -3.10549 -0.948118 0
M  V30 347 H 34.6873 -4.56304 2.44963 0
M  V30 348 H 31.3643 -4.17377 -0.101507 0
M  V30 349 H 32.7543 -5.6287 3.66915 0
M  V30 350 N 35.4744 -0.807222 -1.35358 0
M  V30 351 C 36.8854 -0.44876 -1.81226 0
M  V30 352 C 37.2364 1.02929 -1.67033 0
M  V30 353 O 36.3614 1.79991 -1.20133 0
M  V30 354 C 36.9564 -0.807774 -3.2903 0
M  V30 355 C 35.5154 -0.501901 -3.73039 0
M  V30 356 C 34.6624 -1.03304 -2.57339 0
M  V30 357 H 37.6134 -0.998808 -1.23327 0
M  V30 358 H 37.6344 -0.10554 -3.80354 0
M  V30 359 H 37.1464 -1.88357 -3.39328 0
M  V30 360 H 35.2474 0.565128 -3.68289 0
M  V30 361 H 35.3604 -1.03497 -4.67787 0
M  V30 362 H 33.7244 -0.455339 -2.50597 0
M  V30 363 H 34.5074 -2.11496 -2.70415 0
M  V30 364 N 36.9525 1.47285 -0.560781 0
M  V30 365 C 38.1925 2.0436 -0.0404627 0
M  V30 366 C 38.5565 1.42534 1.28639 0
M  V30 367 O 39.7575 1.90677 1.89462 0
M  V30 368 C 38.0285 3.57369 0.0471856 0
M  V30 369 S 39.5875 4.3579 0.513109 0
M  V30 370 H 36.4055 0.710492 -0.0268674 0
M  V30 371 H 39.0075 1.80611 -0.748323 0
M  V30 372 H 37.7115 3.9989 -0.922817 0
M  V30 373 H 37.2425 3.8562 0.778491 0
M  V30 374 H 39.2575 4.63476 1.77212 0
M  V30 375 N 38.4306 0.297415 1.54768 0
M  V30 376 C 39.3626 -0.613881 2.20826 0
M  V30 377 C 40.3756 -1.10032 1.19987 0
M  V30 378 O 41.5646 -1.01839 1.46598 0
M  V30 379 C 38.6646 -1.852 2.83821 0
M  V30 380 C 37.8376 -1.50865 4.10559 0
M  V30 381 C 36.8966 -2.60154 4.57391 0
M  V30 382 O 35.9226 -2.25398 5.2267 0
M  V30 383 N 37.1246 -3.90629 4.29406 0
M  V30 384 H 39.8896 -0.048389 2.99661 0
M  V30 385 H 37.4506 0.11946 1.61459 0
M  V30 386 H 39.4426 -2.57652 3.12086 0
M  V30 387 H 38.0126 -2.32597 2.08847 0
M  V30 388 H 37.2326 -0.616925 3.89343 0
M  V30 389 H 38.5206 -1.25458 4.9309 0
M  V30 390 H 37.9186 -4.21677 3.77101 0
M  V30 391 H 36.4756 -4.59391 4.62388 0
M  V30 392 N 39.9087 -1.5758 0.0250728 0
M  V30 393 C 40.8567 -2.11125 -0.97617 0
M  V30 394 C 41.8507 -1.03689 -1.33959 0
M  V30 395 O 43.0567 -1.22128 -1.3223 0
M  V30 396 H 39.4317 -0.674468 -0.332561 0
M  V30 397 H 41.4027 -2.94194 -0.499223 0
M  V30 398 C 40.1517 -2.65017 -2.2508 0
M  V30 399 H 39.4747 -3.47333 -1.9799 0
M  V30 400 H 40.9147 -3.06133 -2.93357 0
M  V30 401 C 39.3737 -1.57574 -2.97779 0
M  V30 402 O 39.9037 -0.973203 -3.89733 0
M  V30 403 N 38.1097 -1.29716 -2.60043 0
M  V30 404 H 37.6567 -1.789 -1.85345 0
M  V30 405 H 37.6147 -0.58051 -3.08994 0
M  V30 406 N 41.3868 0.248026 -1.55636 0
M  V30 407 C 42.3188 1.32993 -1.8667 0
M  V30 408 C 43.3318 1.44345 -0.752877 0
M  V30 409 O 44.5208 1.45715 -1.03098 0
M  V30 410 C 41.6208 2.70863 -2.03682 0
M  V30 411 C 40.7938 2.81792 -3.34532 0
M  V30 412 C 39.8528 4.005 -3.41301 0
M  V30 413 O 38.8788 3.9008 -4.14519 0
M  V30 414 N 40.0808 5.13618 -2.70512 0
M  V30 415 H 42.8458 1.06707 -2.8006 0
M  V30 416 H 40.4068 0.438129 -1.55859 0
M  V30 417 H 42.3988 3.48612 -2.05553 0
M  V30 418 H 40.9688 2.89862 -1.17041 0
M  V30 419 H 40.1888 1.90729 -3.44987 0
M  V30 420 H 41.4768 2.86043 -4.20781 0
M  V30 421 H 40.8748 5.24975 -2.10755 0
M  V30 422 H 39.4318 5.89505 -2.78077 0
M  V30 423 N 42.8649 1.48995 0.513639 0
M  V30 424 C 44.1129 1.57531 1.26604 0
M  V30 425 C 44.4339 0.258236 1.93283 0
M  V30 426 O 43.7039 -0.721502 1.8213 0
M  V30 427 H 42.2839 0.580387 0.470276 0
M  V30 428 H 44.9459 1.85552 0.596373 0
M  V30 429 H 44.0419 2.36486 2.03669 0
M  V30 430 N 44.343 -0.763751 1.37857 0
M  V30 431 C 45.592 -1.51789 1.32827 0
M  V30 432 C 45.905 -1.95426 -0.0823719 0
M  V30 433 O 47.111 -2.70298 -0.255172 0
M  V30 434 C 45.567 -2.74133 2.33193 0
M  V30 435 C 45.175 -2.37562 3.79827 0
M  V30 436 C 46.919 -3.52054 2.37188 0
M  V30 437 C 44.826 -3.56456 4.71904 0
M  V30 438 H 43.756 -0.569896 0.493695 0
M  V30 439 H 46.407 -0.835822 1.63359 0
M  V30 440 H 44.789 -3.4427 1.9569 0
M  V30 441 H 45.963 -1.75157 4.26212 0
M  V30 442 H 44.278 -1.72798 3.78853 0
M  V30 443 H 46.875 -4.40437 3.03182 0
M  V30 444 H 47.218 -3.92486 1.38782 0
M  V30 445 H 47.751 -2.88921 2.7344 0
M  V30 446 H 44.49 -3.21099 5.71468 0
M  V30 447 H 44.01 -4.17938 4.30218 0
M  V30 448 H 45.689 -4.23168 4.89426 0
M  V30 449 N 45.8211 -1.22559 -0.990812 0
M  V30 450 C 47.0611 -1.06302 -1.74583 0
M  V30 451 C 47.4251 0.394737 -1.87898 0
M  V30 452 O 48.6261 0.678214 -2.60103 0
M  V30 453 C 46.8971 -1.75699 -3.11231 0
M  V30 454 S 48.4561 -1.74882 -4.02445 0
M  V30 455 H 45.2741 -0.380639 -0.600529 0
M  V30 456 H 47.8761 -1.55532 -1.18449 0
M  V30 457 H 46.5801 -2.80923 -2.99183 0
M  V30 458 H 46.1111 -1.26708 -3.72436 0
M  V30 459 H 48.1261 -0.799997 -4.89709 0
M  V30 460 N 47.2992 1.18797 -1.03562 0
M  V30 461 C 48.2322 2.2105 -0.56676 0
M  V30 462 C 49.2102 1.57704 0.395993 0
M  V30 463 O 50.3942 1.85908 0.311498 0
M  V30 464 C 47.5212 3.38259 0.172704 0
M  V30 465 C 46.5672 4.19987 -0.74252 0
M  V30 466 S 47.4002 4.87199 -2.22254 0
M  V30 467 C 48.5562 6.07813 -1.49379 0
M  V30 468 H 48.7892 2.60478 -1.43312 0
M  V30 469 H 46.3222 1.29151 -0.846133 0
M  V30 470 H 48.2802 4.06191 0.593191 0
M  V30 471 H 46.9412 2.97252 1.01488 0
M  V30 472 H 46.1342 5.03709 -0.171265 0
M  V30 473 H 45.7362 3.57408 -1.10163 0
M  V30 474 H 48.0282 6.72948 -0.784056 0
M  V30 475 H 48.9712 6.69435 -2.30786 0
M  V30 476 H 49.3792 5.55781 -0.988331 0
M  V30 477 N 48.7773 0.814389 1.34928 0
M  V30 478 C 50.0023 0.410097 2.03305 0
M  V30 479 C 50.4273 -0.973464 1.60951 0
M  V30 480 O 49.7853 -1.63185 0.789964 0
M  V30 481 C 49.8333 0.51049 3.56968 0
M  V30 482 O 48.9373 -0.473035 4.09678 0
M  V30 483 H 48.2783 0.170088 0.641846 0
M  V30 484 H 50.8083 1.10244 1.72358 0
M  V30 485 H 50.8183 0.383135 4.06197 0
M  V30 486 H 49.4933 1.51963 3.87144 0
M  V30 487 H 48.0703 -0.305272 3.71648 0
M  V30 488 N 50.2554 -1.46986 0.568584 0
M  V30 489 C 51.4834 -2.0683 0.0539956 0
M  V30 490 C 51.8984 -1.41953 -1.24478 0
M  V30 491 O 51.2554 -0.519933 -1.74937 0
M  V30 492 C 51.3064 -3.61254 -0.133362 0
M  V30 493 O 51.0274 -4.237 1.11399 0
M  V30 494 C 52.5284 -4.37992 -0.683927 0
M  V30 495 H 49.7484 -0.669058 0.0510141 0
M  V30 496 H 52.2924 -1.88824 0.785234 0
M  V30 497 H 50.4474 -3.78735 -0.81477 0
M  V30 498 H 50.8614 -5.16388 0.91888 0
M  V30 499 H 52.3354 -5.46684 -0.764263 0
M  V30 500 H 52.8124 -4.05058 -1.69778 0
M  V30 501 H 53.4184 -4.25283 -0.0378494 0
M  V30 502 N 51.7335 -0.305618 -1.54608 0
M  V30 503 C 52.9815 0.301701 -1.99835 0
M  V30 504 C 53.3025 1.54054 -1.19551 0
M  V30 505 O 52.5725 1.93702 -0.292658 0
M  V30 506 H 51.1525 0.114468 -0.738178 0
M  V30 507 H 53.8145 -0.418016 -1.90364 0
M  V30 508 H 52.9105 0.570548 -3.06841 0
M  V30 509 N 53.2116 1.57565 -0.0334293 0
M  V30 510 C 54.4586 1.91978 0.644272 0
M  V30 511 C 54.7866 0.910231 1.71887 0
M  V30 512 O 54.0416 -0.0801961 1.95536 0
M  V30 513 C 54.3406 3.33112 1.29504 0
M  V30 514 C 54.0066 4.49537 0.350388 0
M  V30 515 C 52.6686 4.81115 0.0903974 0
M  V30 516 C 55.0206 5.20347 -0.298032 0
M  V30 517 C 52.3486 5.8086 -0.825746 0
M  V30 518 C 54.7006 6.2107 -1.20226 0
M  V30 519 C 53.3646 6.51088 -1.4711 0
M  V30 520 H 52.6346 0.702496 0.235756 0
M  V30 521 H 55.2816 1.91259 -0.0961176 0
M  V30 522 H 53.5866 3.30113 2.11028 0
M  V30 523 H 55.2836 3.57011 1.82603 0
M  V30 524 H 51.8736 4.24883 0.563205 0
M  V30 525 H 56.0576 4.96178 -0.110234 0
M  V30 526 H 51.3136 6.02461 -1.04169 0
M  V30 527 H 55.4876 6.75057 -1.71086 0
M  V30 528 H 53.1146 7.28193 -2.18264 0
M  V30 529 N 54.6897 -0.239769 1.55765 0
M  V30 530 C 55.9667 -0.990056 1.68693 0
M  V30 531 C 56.3467 -2.03107 0.5754 0
M  V30 532 O 55.6947 -2.24604 -0.42017 0
M  V30 533 C 55.9047 -1.61696 3.09282 0
M  V30 534 C 57.2527 -2.11613 3.6811 0
M  V30 535 O 58.2767 -1.71624 3.12127 0
M  V30 536 O 57.1357 -2.85057 4.66267 0
M  V30 537 H 54.2297 -0.461299 0.686391 0
M  V30 538 H 56.7757 -0.232991 1.68093 0
M  V30 539 H 55.5477 -0.864357 3.81634 0
M  V30 540 H 55.1707 -2.44005 3.13923 0
M  V30 541 N 56.1678 -1.49265 -0.50573 0
M  V30 542 C 57.0998 -1.617 -1.62437 0
M  V30 543 C 58.1128 -0.499924 -1.54934 0
M  V30 544 O 59.3018 -0.771785 -1.60953 0
M  V30 545 C 56.4018 -1.5533 -3.01207 0
M  V30 546 C 55.5748 -2.8249 -3.33943 0
M  V30 547 C 54.6338 -2.69238 -4.52103 0
M  V30 548 O 53.6598 -3.43167 -4.5412 0
M  V30 549 N 54.8618 -1.80468 -5.51735 0
M  V30 550 H 57.6268 -2.58177 -1.52199 0
M  V30 551 H 55.1878 -1.46294 -0.693511 0
M  V30 552 H 57.1798 -1.44125 -3.78167 0
M  V30 553 H 55.7498 -0.667297 -3.05395 0
M  V30 554 H 54.9698 -3.08081 -2.45926 0
M  V30 555 H 56.2578 -3.66802 -3.5261 0
M  V30 556 H 55.6558 -1.19653 -5.52901 0
M  V30 557 H 54.2128 -1.75188 -6.27816 0
M  V30 558 N 57.6459 0.756429 -1.3826 0
M  V30 559 C 58.8759 1.54341 -1.3734 0
M  V30 560 C 59.2839 1.89159 0.0393917 0
M  V30 561 O 58.6269 1.5307 1.01565 0
M  V30 562 C 58.6889 2.87238 -2.16182 0
M  V30 563 C 58.3529 2.74973 -3.65019 0
M  V30 564 C 59.3499 2.44962 -4.58574 0
M  V30 565 C 57.0349 2.92515 -4.08338 0
M  V30 566 C 59.0289 2.32642 -5.93428 0
M  V30 567 C 56.7159 2.79815 -5.43274 0
M  V30 568 C 57.7139 2.49921 -6.35632 0
M  V30 569 O 57.4019 2.37275 -7.68086 0
M  V30 570 H 57.1339 0.484281 -0.471643 0
M  V30 571 H 59.6879 0.944152 -1.82414 0
M  V30 572 H 57.9179 3.49342 -1.65822 0
M  V30 573 H 59.6069 3.48731 -2.07705 0
M  V30 574 H 60.3729 2.31081 -4.26412 0
M  V30 575 H 56.2519 3.14781 -3.368 0
M  V30 576 H 59.7959 2.0923 -6.65484 0
M  V30 577 H 55.6929 2.93269 -5.75034 0
M  V30 578 H 56.4609 2.52509 -7.78577 0
M  V30 579 N 59.124 1.23083 0.984299 0
M  V30 580 C 60.071 1.00854 2.07598 0
M  V30 581 C 61.041 -0.0726709 1.65941 0
M  V30 582 O 62.226 0.0786535 1.90638 0
M  V30 583 C 59.366 0.601645 3.39815 0
M  V30 584 C 58.479 1.75456 3.94765 0
M  V30 585 C 57.614 1.29482 5.15177 0
M  V30 586 C 56.653 2.41873 5.62284 0
M  V30 587 N 55.79 1.96885 6.73929 0
M  V30 588 H 60.63 1.943 2.25946 0
M  V30 589 H 58.167 0.968001 1.10762 0
M  V30 590 H 60.125 0.346854 4.15756 0
M  V30 591 H 58.755 -0.295803 3.21442 0
M  V30 592 H 57.807 2.12346 3.15616 0
M  V30 593 H 59.119 2.59965 4.25699 0
M  V30 594 H 58.273 0.997923 5.98437 0
M  V30 595 H 57.012 0.420046 4.85888 0
M  V30 596 H 56.017 2.72342 4.77608 0
M  V30 597 H 57.242 3.29881 5.93595 0
M  V30 598 H 55.188 1.11782 6.46406 0
M  V30 599 H 55.105 2.74956 7.04227 0
M  V30 600 H 56.373 1.70289 7.60672 0
M  V30 601 N 60.6021 -1.18246 1.0419 0
M  V30 602 C 61.8421 -1.89948 0.754916 0
M  V30 603 C 62.2061 -1.78608 -0.70451 0
M  V30 604 O 63.4071 -2.4503 -1.10516 0
M  V30 605 C 61.6781 -3.36305 1.20969 0
M  V30 606 S 63.2371 -4.26088 1.04854 0
M  V30 607 H 60.0551 -0.655897 0.274446 0
M  V30 608 H 62.6571 -1.42873 1.33445 0
M  V30 609 H 61.3611 -3.42089 2.26722 0
M  V30 610 H 60.8921 -3.8842 0.624004 0
M  V30 611 H 62.9071 -4.96189 -0.0332896 0
M  V30 612 N 62.0802 -0.821533 -1.34494 0
M  V30 613 C 63.3572 -0.33159 -1.92769 0
M  V30 614 C 63.7372 1.18088 -1.74981 0
M  V30 615 O 63.0852 1.98733 -1.12772 0
M  V30 616 C 63.2952 -0.759398 -3.40638 0
M  V30 617 C 64.6432 -0.757433 -4.1779 0
M  V30 618 O 65.6672 -0.70189 -3.49216 0
M  V30 619 O 64.5262 -0.829361 -5.4017 0
M  V30 620 H 61.6202 -0.0902502 -0.822061 0
M  V30 621 H 64.1662 -0.906231 -1.43477 0
M  V30 622 H 62.9382 -1.8012 -3.47379 0
M  V30 623 H 62.5612 -0.160378 -3.97276 0
M  V30 624 N 63.5583 1.46682 -0.576371 0
M  V30 625 C 64.7983 2.04306 -0.0621356 0
M  V30 626 C 65.1623 1.4389 1.2712 0
M  V30 627 O 66.3633 1.92675 1.87429 0
M  V30 628 C 64.6343 3.57399 0.00927922 0
M  V30 629 S 66.1933 4.36309 0.466859 0
M  V30 630 H 63.0113 0.710167 -0.0344016 0
M  V30 631 H 65.6133 1.79807 -0.767437 0
M  V30 632 H 64.3173 3.98889 -0.965178 0
M  V30 633 H 63.8483 3.86424 0.737547 0
M  V30 634 H 65.8633 4.6533 1.72287 0
M  V30 635 N 65.0364 0.313813 1.54444 0
M  V30 636 C 66.2644 -0.293918 2.04802 0
M  V30 637 C 66.6794 -1.46537 1.19047 0
M  V30 638 O 66.0364 -1.81182 0.218939 0
M  V30 639 C 66.0874 -0.737806 3.53891 0
M  V30 640 O 65.8084 0.387038 4.36387 0
M  V30 641 C 67.3094 -1.40936 4.203 0
M  V30 642 H 64.5294 -0.0620057 0.668129 0
M  V30 643 H 67.0734 0.457169 1.99324 0
M  V30 644 H 65.2284 -1.43889 3.59687 0
M  V30 645 H 65.6424 0.0391274 5.24485 0
M  V30 646 H 67.1164 -1.67099 5.26101 0
M  V30 647 H 67.5934 -2.35355 3.70816 0
M  V30 648 H 68.1994 -0.751117 4.18615 0
M  V30 649 N 66.5145 -1.57545 0.0417849 0
M  V30 650 C 67.9305 -1.56467 -0.314704 0
M  V30 651 C 68.1305 -1.04859 -1.72066 0
M  V30 652 O 67.1865 -0.700983 -2.42575 0
M  V30 653 C 68.4995 -3.00317 -0.15174 0
M  V30 654 C 70.0475 -3.12201 -0.223553 0
M  V30 655 C 70.5225 -4.57913 -0.0892295 0
M  V30 656 N 72.0135 -4.6297 -0.145808 0
M  V30 657 C 72.7485 -5.73362 -0.0658459 0
M  V30 658 N 72.2445 -6.92769 0.0659282 0
M  V30 659 N 74.0375 -5.6197 -0.12075 0
M  V30 660 H 66.1885 -1.89416 0.961014 0
M  V30 661 H 68.4515 -0.871862 0.372237 0
M  V30 662 H 68.1575 -3.42073 0.817254 0
M  V30 663 H 68.0315 -3.65892 -0.916692 0
M  V30 664 H 70.4185 -2.70349 -1.18301 0
M  V30 665 H 70.4995 -2.49323 0.571994 0
M  V30 666 H 70.1435 -5.00448 0.866867 0
M  V30 667 H 70.0735 -5.18786 -0.903802 0
M  V30 668 H 72.5645 -3.7709 -0.247286 0
M  V30 669 H 72.8775 -7.72707 0.119905 0
M  V30 670 H 71.2225 -6.94927 0.100885 0
M  V30 671 H 74.4135 -4.67572 -0.222187 0
M  V30 672 H 74.5865 -6.47977 -0.0549735 0
M  V30 673 N 67.9926 0.231505 -1.5589 0
M  V30 674 C 69.2206 0.974505 -1.82513 0
M  V30 675 C 69.6356 1.78344 -0.619591 0
M  V30 676 O 68.9926 1.77792 0.411848 0
M  V30 677 C 69.0436 1.90007 -3.07538 0
M  V30 678 O 68.7646 1.12385 -4.2344 0
M  V30 679 C 70.2656 2.75779 -3.47075 0
M  V30 680 H 67.4856 0.286065 -0.606966 0
M  V30 681 H 70.0296 0.249739 -2.02969 0
M  V30 682 H 68.1846 2.57891 -2.89086 0
M  V30 683 H 68.5986 1.75125 -4.944 0
M  V30 684 H 70.0726 3.36443 -4.37619 0
M  V30 685 H 70.5496 3.47672 -2.68367 0
M  V30 686 H 71.1556 2.13323 -3.67931 0
M  V30 687 N 69.4707 1.49531 0.497807 0
M  V30 688 C 70.7187 1.58865 1.24926 0
M  V30 689 C 71.0397 0.278721 1.92998 0
M  V30 690 O 70.3097 -0.702144 1.82885 0
M  V30 691 H 68.8897 0.585343 0.464094 0
M  V30 692 H 71.5517 1.86174 0.57666 0
M  V30 693 H 70.6477 2.38633 2.01149 0
M  V30 694 N 70.9488 -0.749086 1.3866 0
M  V30 695 C 72.1958 -1.50833 1.35114 0
M  V30 696 C 72.5238 -1.94415 -0.0574049 0
M  V30 697 O 71.7788 -1.66065 -1.03541 0
M  V30 698 C 72.0778 -2.7712 2.25697 0
M  V30 699 C 71.7438 -2.52477 3.73585 0
M  V30 700 C 70.4058 -2.45466 4.13884 0
M  V30 701 C 72.7578 -2.31066 4.67181 0
M  V30 702 C 70.0858 -2.15064 5.45861 0
M  V30 703 C 72.4378 -2.02183 5.9942 0
M  V30 704 C 71.1018 -1.93631 6.38798 0
M  V30 705 H 70.3718 -0.551936 0.494416 0
M  V30 706 H 73.0188 -0.860979 1.71054 0
M  V30 707 H 71.3238 -3.46528 1.82827 0
M  V30 708 H 73.0208 -3.35096 2.20254 0
M  V30 709 H 69.6108 -2.58807 3.41638 0
M  V30 710 H 73.7948 -2.35459 4.3689 0
M  V30 711 H 69.0508 -2.06954 5.75308 0
M  V30 712 H 73.2248 -1.8462 6.71482 0
M  V30 713 H 70.8518 -1.69839 7.40985 0
M  V30 714 N 72.4269 -1.23603 -0.977757 0
M  V30 715 C 73.6569 -1.09487 -1.75203 0
M  V30 716 C 74.0649 0.356321 -1.85814 0
M  V30 717 O 73.4079 1.25816 -1.33851 0
M  V30 718 C 73.4699 -1.64905 -3.19447 0
M  V30 719 C 73.1339 -3.13688 -3.32338 0
M  V30 720 C 74.1309 -4.10953 -3.18455 0
M  V30 721 C 71.8159 -3.53449 -3.56902 0
M  V30 722 C 73.8099 -5.45962 -3.28944 0
M  V30 723 C 71.4969 -4.88602 -3.6703 0
M  V30 724 C 72.4949 -5.84668 -3.53062 0
M  V30 725 O 72.1829 -7.17365 -3.62826 0
M  V30 726 H 71.9149 -0.38367 -0.556573 0
M  V30 727 H 74.4689 -1.6398 -1.23693 0
M  V30 728 H 72.6989 -1.04835 -3.72218 0
M  V30 729 H 74.3879 -1.46226 -3.78646 0
M  V30 730 H 75.1539 -3.81577 -2.99372 0
M  V30 731 H 71.0329 -2.79188 -3.66844 0
M  V30 732 H 74.5769 -6.20925 -3.17958 0
M  V30 733 H 70.4739 -5.17653 -3.85623 0
M  V30 734 H 71.2419 -7.2515 -3.79605 0
M  V30 735 N 73.905 1.17692 -1.04816 0
M  V30 736 C 75.153 1.87488 -0.754497 0
M  V30 737 C 75.474 1.81205 0.720407 0
M  V30 738 O 74.744 1.23544 1.52032 0
M  V30 739 H 73.324 0.694101 -0.276102 0
M  V30 740 H 75.986 1.42793 -1.32651 0
M  V30 741 H 75.082 2.93328 -1.06606 0
M  V30 742 N 75.3831 0.828654 1.34056 0
M  V30 743 C 76.2931 0.256725 2.33191 0
M  V30 744 C 77.3091 -0.611898 1.62886 0
M  V30 745 O 78.4851 -0.51844 1.94613 0
M  V30 746 C 75.5501 -0.567238 3.42028 0
M  V30 747 C 74.6111 0.324458 4.28072 0
M  V30 748 C 73.8441 -0.460274 5.31712 0
M  V30 749 O 74.0671 -1.693 5.44696 0
M  V30 750 O 73.0011 0.160391 6.01686 0
M  V30 751 H 76.8271 1.07739 2.83947 0
M  V30 752 H 74.4121 0.59093 1.37217 0
M  V30 753 H 76.2941 -1.03582 4.08471 0
M  V30 754 H 74.9691 -1.36513 2.93506 0
M  V30 755 H 73.8761 0.840659 3.64532 0
M  V30 756 H 75.2091 1.08685 4.8005 0
M  V30 757 N 76.8612 -1.46375 0.584142 0
M  V30 758 C 77.8092 -2.32042 -0.161047 0
M  V30 759 C 78.8032 -1.44569 -0.882966 0
M  V30 760 O 80.0092 -1.61186 -0.801191 0
M  V30 761 H 76.3842 -0.748659 -0.0708033 0
M  V30 762 H 78.3552 -2.92704 0.580269 0
M  V30 763 C 77.1042 -3.27762 -1.1605 0
M  V30 764 H 76.4272 -3.95051 -0.614419 0
M  V30 765 H 77.8672 -3.90481 -1.65228 0
M  V30 766 C 76.3262 -2.53218 -2.22221 0
M  V30 767 O 76.8562 -2.29628 -3.29597 0
M  V30 768 N 75.0622 -2.13756 -1.96868 0
M  V30 769 H 74.6092 -2.33142 -1.09557 0
M  V30 770 H 74.5672 -1.642 -2.68115 0
M  V30 771 N 78.3393 -0.321999 -1.54275 0
M  V30 772 C 79.5793 0.281657 -2.0245 0
M  V30 773 C 79.9433 1.49468 -1.20513 0
M  V30 774 O 81.1443 2.17109 -1.58484 0
M  V30 775 C 79.4153 0.609014 -3.52173 0
M  V30 776 S 80.9743 1.19255 -4.22284 0
M  V30 777 H 77.7923 0.0852825 -0.705867 0
M  V30 778 H 80.3943 -0.454758 -1.90137 0
M  V30 779 H 79.0983 -0.281982 -4.0943 0
M  V30 780 H 78.6293 1.37567 -3.68563 0
M  V30 781 H 80.6443 2.47944 -4.29812 0
M  V30 782 N 79.8174 1.5752 -0.0501392 0
M  V30 783 C 81.0424 1.97376 0.636997 0
M  V30 784 C 81.4674 0.927466 1.63645 0
M  V30 785 O 80.8254 -0.10941 1.8097 0
M  V30 786 C 80.8734 3.36304 1.30123 0
M  V30 787 O 79.9774 3.34156 2.41689 0
M  V30 788 H 79.3184 0.642998 0.165679 0
M  V30 789 H 81.8484 2.04258 -0.118233 0
M  V30 790 H 81.8584 3.73008 1.65315 0
M  V30 791 H 80.5334 4.11993 0.568746 0
M  V30 792 H 79.1104 3.09196 2.08451 0
M  V30 793 N 81.2955 -0.223234 1.56011 0
M  V30 794 C 82.5235 -0.964812 1.83027 0
M  V30 795 C 82.9385 -1.78013 0.62904 0
M  V30 796 O 82.2955 -1.78008 -0.402414 0
M  V30 797 C 82.3465 -1.88373 3.08542 0
M  V30 798 O 82.0675 -1.10137 4.2403 0
M  V30 799 C 83.5685 -2.73934 3.48533 0
M  V30 800 H 80.7885 -0.282842 0.608475 0
M  V30 801 H 83.3325 -0.238971 2.03099 0
M  V30 802 H 81.4875 -2.56354 2.9045 0
M  V30 803 H 81.9015 -1.72501 4.95322 0
M  V30 804 H 83.3755 -3.34117 4.39397 0
M  V30 805 H 83.8525 -3.46244 2.70207 0
M  V30 806 H 84.4585 -2.11369 3.69057 0
M  V30 807 N 82.7736 -1.49793 -0.48987 0
M  V30 808 C 84.1846 -1.52914 -1.07118 0
M  V30 809 C 84.5356 -0.321738 -1.93544 0
M  V30 810 O 83.6606 0.567338 -2.08831 0
M  V30 811 C 84.2556 -2.771 -1.94938 0
M  V30 812 C 82.8146 -2.82963 -2.48212 0
M  V30 813 C 81.9616 -2.46972 -1.26096 0
M  V30 814 H 84.9126 -1.56329 -0.273289 0
M  V30 815 H 84.9336 -2.57892 -2.79771 0
M  V30 816 H 84.4456 -3.64959 -1.32009 0
M  V30 817 H 82.5466 -1.99411 -3.14748 0
M  V30 818 H 82.6596 -3.85406 -2.84603 0
M  V30 819 H 81.0236 -1.98994 -1.58976 0
M  V30 820 H 81.8066 -3.37118 -0.648581 0
M  V30 821 N 84.2517 0.741722 -1.39055 0
M  V30 822 C 85.1617 1.88621 -1.39496 0
M  V30 823 C 86.1777 1.71557 -0.290578 0
M  V30 824 O 87.3537 1.94275 -0.530954 0
M  V30 825 C 84.4187 3.24134 -1.23037 0
M  V30 826 C 83.4797 3.5364 -2.43387 0
M  V30 827 C 82.7127 4.82687 -2.27703 0
M  V30 828 O 82.9357 5.55922 -1.27696 0
M  V30 829 O 81.8697 5.1194 -3.16545 0
M  V30 830 H 85.6957 1.91203 -2.35956 0
M  V30 831 H 83.2807 0.888625 -1.20099 0
M  V30 832 H 85.1627 4.0513 -1.15964 0
M  V30 833 H 83.8377 3.22337 -0.296691 0
M  V30 834 H 82.7447 2.72758 -2.56035 0
M  V30 835 H 84.0777 3.60209 -3.35425 0
M  V30 836 N 85.7298 1.2412 0.971189 0
M  V30 837 C 86.9768 1.07881 1.71371 0
M  V30 838 C 87.3048 -0.382901 1.90694 0
M  V30 839 O 86.5598 -1.29945 1.46331 0
M  V30 840 C 86.8588 1.75983 3.11071 0
M  V30 841 C 86.5248 3.25909 3.11599 0
M  V30 842 C 85.1868 3.66813 3.11451 0
M  V30 843 C 87.5388 4.21771 3.062 0
M  V30 844 C 84.8668 5.02021 3.03631 0
M  V30 845 C 87.2188 5.56982 2.99923 0
M  V30 846 C 85.8828 5.97237 2.98102 0
M  V30 847 H 85.1528 0.394764 0.62709 0
M  V30 848 H 87.7998 1.54176 1.13587 0
M  V30 849 H 86.1048 1.22072 3.72298 0
M  V30 850 H 87.8018 1.60887 3.6731 0
M  V30 851 H 84.3918 2.93353 3.12477 0
M  V30 852 H 88.5758 3.91172 3.05447 0
M  V30 853 H 83.8318 5.32411 3.0058 0
M  V30 854 H 88.0058 6.30969 2.94704 0
M  V30 855 H 85.6328 7.01967 2.91798 0
M  V30 856 N 87.2079 -1.17134 1.05439 0
M  V30 857 C 88.1379 -2.2342 0.678649 0
M  V30 858 C 89.1189 -1.66971 -0.32476 0
M  V30 859 O 90.3039 -1.93149 -0.201802 0
M  V30 860 C 87.4339 -3.47256 0.0552099 0
M  V30 861 C 86.3879 -4.16543 0.98365 0
M  V30 862 C 85.7139 -5.34231 0.223961 0
M  V30 863 C 87.0139 -4.68495 2.3089 0
M  V30 864 H 88.7079 -2.55105 1.56722 0
M  V30 865 H 86.2539 -1.2262 0.754998 0
M  V30 866 H 88.2069 -4.20828 -0.21946 0
M  V30 867 H 86.9309 -3.14846 -0.868319 0
M  V30 868 H 85.5899 -3.44887 1.24293 0
M  V30 869 H 85.2379 -4.98071 -0.702412 0
M  V30 870 H 84.9379 -5.81527 0.842627 0
M  V30 871 H 86.4619 -6.10585 -0.0433671 0
M  V30 872 H 87.8759 -5.33691 2.09396 0
M  V30 873 H 86.2729 -5.26379 2.88176 0
M  V30 874 H 87.3429 -3.85169 2.94572 0
M  V30 875 N 88.686 -0.835752 -1.33615 0
M  V30 876 C 89.914 -0.443344 -2.02094 0
M  V30 877 C 90.329 0.954522 -1.62894 0
M  V30 878 O 89.686 1.61982 -0.840723 0
M  V30 879 C 89.737 -0.550775 -3.5728 0
M  V30 880 O 89.458 -1.89356 -3.95065 0
M  V30 881 C 90.959 -0.154919 -4.43029 0
M  V30 882 H 88.179 -0.176359 -0.647409 0
M  V30 883 H 90.723 -1.12746 -1.70612 0
M  V30 884 H 88.878 0.0853997 -3.87306 0
M  V30 885 H 89.292 -1.87687 -4.89769 0
M  V30 886 H 90.766 -0.281144 -5.51284 0
M  V30 887 H 91.243 0.902863 -4.2982 0
M  V30 888 H 91.849 -0.765404 -4.18356 0
M  V30 889 N 90.1641 1.46063 -0.591896 0
M  V30 890 C 91.5801 1.57561 -0.254288 0
M  V30 891 C 91.7801 1.58565 1.24336 0
M  V30 892 O 90.8361 1.50753 2.02558 0
M  V30 893 C 92.1491 2.86549 -0.911611 0
M  V30 894 C 93.6971 3.00197 -0.886059 0
M  V30 895 C 94.1721 4.31933 -1.5231 0
M  V30 896 N 95.6631 4.38654 -1.48786 0
M  V30 897 C 96.3981 5.39222 -1.95006 0
M  V30 898 N 95.8941 6.46414 -2.49241 0
M  V30 899 N 97.6871 5.3048 -1.85868 0
M  V30 900 H 89.8381 1.43655 -1.56451 0
M  V30 901 H 92.1011 0.68583 -0.654478 0
M  V30 902 H 91.8071 2.91651 -1.96551 0
M  V30 903 H 91.6811 3.74794 -0.425368 0
M  V30 904 H 94.0681 2.9467 0.159246 0
M  V30 905 H 94.1491 2.13403 -1.41041 0
M  V30 906 H 93.7931 4.38217 -2.56765 0
M  V30 907 H 93.7231 5.17516 -0.973891 0
M  V30 908 H 96.2141 3.61793 -1.09151 0
M  V30 909 H 96.5271 7.19376 -2.82344 0
M  V30 910 H 94.8721 6.47208 -2.53272 0
M  V30 911 H 98.0631 4.45643 -1.43248 0
M  V30 912 H 98.2361 6.08711 -2.22204 0
M  V30 913 N 91.6422 0.330177 1.54103 0
M  V30 914 C 92.8912 -0.271336 1.99867 0
M  V30 915 C 93.2042 -1.52723 1.22209 0
M  V30 916 O 94.4102 -2.20515 1.58383 0
M  V30 917 C 92.8662 -0.534032 3.55916 0
M  V30 918 C 92.4742 0.705193 4.42415 0
M  V30 919 C 94.2182 -1.09514 4.1013 0
M  V30 920 C 92.1252 0.414035 5.89949 0
M  V30 921 H 91.0552 -0.105166 0.74663 0
M  V30 922 H 93.7062 0.443429 1.78062 0
M  V30 923 H 92.0882 -1.30915 3.73734 0
M  V30 924 H 93.2622 1.4804 4.36372 0
M  V30 925 H 91.5772 1.18698 3.99124 0
M  V30 926 H 94.1742 -1.3277 5.17954 0
M  V30 927 H 94.5172 -2.04656 3.62521 0
M  V30 928 H 95.0502 -0.381038 3.95971 0
M  V30 929 H 91.7892 1.33481 6.41766 0
M  V30 930 H 91.3092 -0.323336 5.98928 0
M  V30 931 H 92.9882 0.0263105 6.46995 0
M  V30 932 N 93.1203 -1.57491 0.0584922 0
M  V30 933 C 94.0673 -2.11958 -0.913376 0
M  V30 934 C 95.0373 -1.02875 -1.30407 0
M  V30 935 O 96.2223 -1.30464 -1.39226 0
M  V30 936 C 93.3623 -2.67497 -2.18035 0
M  V30 937 C 92.4753 -3.90691 -1.84349 0
M  V30 938 C 91.6103 -4.3452 -3.05559 0
M  V30 939 C 90.6493 -5.50395 -2.67827 0
M  V30 940 N 89.7863 -5.89244 -3.81754 0
M  V30 941 H 94.6263 -2.94704 -0.442017 0
M  V30 942 H 92.1633 -1.45643 -0.206545 0
M  V30 943 H 94.1213 -2.978 -2.92183 0
M  V30 944 H 92.7513 -1.87537 -2.62735 0
M  V30 945 H 91.8033 -3.66934 -1.00319 0
M  V30 946 H 93.1153 -4.7489 -1.5258 0
M  V30 947 H 92.2693 -4.66414 -3.87998 0
M  V30 948 H 91.0083 -3.49147 -3.40511 0
M  V30 949 H 90.0133 -5.18165 -1.83806 0
M  V30 950 H 91.2383 -6.3749 -2.34059 0
M  V30 951 H 89.1843 -5.06823 -4.16493 0
M  V30 952 H 89.1013 -6.68151 -3.53708 0
M  V30 953 H 90.3693 -6.25756 -4.64811 0
M  V30 954 N 94.5984 0.214957 -1.56127 0
M  V30 955 C 95.5284 1.2695 -1.95974 0
M  V30 956 C 96.5094 1.48539 -0.828868 0
M  V30 957 O 97.6944 1.60611 -1.09168 0
M  V30 958 C 94.8244 2.61794 -2.28214 0
M  V30 959 C 93.7784 2.54851 -3.43853 0
M  V30 960 C 93.1044 3.93785 -3.61715 0
M  V30 961 C 94.4044 2.09065 -4.78632 0
M  V30 962 H 96.0984 0.93846 -2.84312 0
M  V30 963 H 93.6444 0.449996 -1.36788 0
M  V30 964 H 95.5974 3.35731 -2.54682 0
M  V30 965 H 94.3214 2.96599 -1.36736 0
M  V30 966 H 92.9804 1.8337 -3.17444 0
M  V30 967 H 92.6284 4.25908 -2.67602 0
M  V30 968 H 92.3284 3.90019 -4.39498 0
M  V30 969 H 93.8524 4.69374 -3.90539 0
M  V30 970 H 95.2664 2.7275 -5.04262 0
M  V30 971 H 93.6634 2.16346 -5.59745 0
M  V30 972 H 94.7334 1.04315 -4.73547 0
M  V30 973 N 96.0765 1.50051 0.48192 0
M  V30 974 C 97.3065 1.63999 1.2565 0
M  V30 975 C 97.7145 0.318288 1.86504 0
M  V30 976 O 97.0575 -0.708534 1.69486 0
M  V30 977 C 97.1195 2.66504 2.4128 0
M  V30 978 C 96.7835 4.10352 2.01148 0
M  V30 979 C 97.7805 4.96562 1.54021 0
M  V30 980 C 95.4655 4.56203 2.10199 0
M  V30 981 C 97.4595 6.26668 1.16473 0
M  V30 982 C 95.1465 5.86318 1.72264 0
M  V30 983 C 96.1445 6.71375 1.25477 0
M  V30 984 O 95.8325 7.99062 0.880626 0
M  V30 985 H 95.5645 0.55456 0.386574 0
M  V30 986 H 98.1185 1.96954 0.582944 0
M  V30 987 H 96.3485 2.28769 3.11772 0
M  V30 988 H 98.0375 2.69783 3.03268 0
M  V30 989 H 98.8035 4.62358 1.46458 0
M  V30 990 H 94.6825 3.90152 2.45566 0
M  V30 991 H 98.2265 6.93011 0.798841 0
M  V30 992 H 94.1235 6.20046 1.79482 0
M  V30 993 H 94.8915 8.12239 1.01043 0
M  V30 994 N 97.5546 -0.734337 1.39446 0
M  V30 995 C 98.4846 -1.86155 1.40955 0
M  V30 996 C 99.4656 -1.67898 0.272827 0
M  V30 997 O 100.651 -1.88207 0.478743 0
M  V30 998 C 97.7806 -3.23912 1.25294 0
M  V30 999 C 96.7346 -3.56808 2.36373 0
M  V30 1000 C 96.0606 -4.93508 2.058 0
M  V30 1001 C 97.3606 -3.59713 3.78687 0
M  V30 1002 H 99.0546 -1.8515 2.35287 0
M  V30 1003 H 96.6006 -0.889367 1.13253 0
M  V30 1004 H 98.5536 -4.02443 1.2497 0
M  V30 1005 H 97.2776 -3.25446 0.274308 0
M  V30 1006 H 95.9366 -2.80606 2.35914 0
M  V30 1007 H 95.5846 -4.91623 1.06374 0
M  V30 1008 H 95.2846 -5.16486 2.80208 0
M  V30 1009 H 96.8086 -5.74396 2.07128 0
M  V30 1010 H 98.2226 -4.2832 3.81071 0
M  V30 1011 H 96.6196 -3.94209 4.52459 0
M  V30 1012 H 97.6896 -2.59504 4.09617 0
M  V30 1013 N 99.0327 -1.24633 -0.964593 0
M  V30 1014 C 99.9797 -1.04144 -2.05968 0
M  V30 1015 C 100.95 0.046262 -1.66036 0
M  V30 1016 O 102.135 -0.108972 -1.90489 0
M  V30 1017 C 99.2747 -0.65563 -3.38815 0
M  V30 1018 C 98.3877 -1.81714 -3.91923 0
M  V30 1019 C 97.5227 -1.37662 -5.13052 0
M  V30 1020 C 96.5617 -2.50788 -5.58365 0
M  V30 1021 N 95.6987 -2.07582 -6.70712 0
M  V30 1022 H 100.539 -1.9787 -2.22827 0
M  V30 1023 H 98.0757 -0.9855 -1.09208 0
M  V30 1024 H 100.034 -0.412954 -4.15151 0
M  V30 1025 H 98.6637 0.244627 -3.21872 0
M  V30 1026 H 97.7157 -2.1734 -3.12198 0
M  V30 1027 H 99.0277 -2.66705 -4.21509 0
M  V30 1028 H 98.1817 -1.093 -5.96773 0
M  V30 1029 H 96.9207 -0.497293 -4.85158 0
M  V30 1030 H 95.9257 -2.79906 -4.73215 0
M  V30 1031 H 97.1507 -3.39283 -5.88272 0
M  V30 1032 H 95.0967 -1.22051 -6.44546 0
M  V30 1033 H 95.0137 -2.86125 -6.99763 0
M  V30 1034 H 96.2817 -1.82369 -7.57867 0
M  V30 1035 N 100.511 1.16574 -1.06058 0
M  V30 1036 C 101.922 1.68662 -0.800632 0
M  V30 1037 C 102.273 1.84184 0.67608 0
M  V30 1038 O 101.398 1.53568 1.52466 0
M  V30 1039 C 101.993 3.06356 -1.44676 0
M  V30 1040 C 100.552 3.55575 -1.23465 0
M  V30 1041 C 99.6988 2.31616 -1.52477 0
M  V30 1042 H 102.65 1.00969 -1.22438 0
M  V30 1043 H 102.671 3.70636 -0.860788 0
M  V30 1044 H 102.183 2.95027 -2.52152 0
M  V30 1045 H 100.284 3.72167 -0.179527 0
M  V30 1046 H 100.397 4.37812 -1.94571 0
M  V30 1047 H 98.7608 2.36512 -0.945209 0
M  V30 1048 H 99.5438 2.22887 -2.61106 0
M  V30 1049 N 101.989 0.842826 1.3317 0
M  V30 1050 C 103.217 0.454055 2.01856 0
M  V30 1051 C 103.632 -0.94587 1.63397 0
M  V30 1052 O 102.989 -1.61534 0.849302 0
M  V30 1053 C 103.04 0.569715 3.56982 0
M  V30 1054 O 102.761 1.91448 3.94055 0
M  V30 1055 C 104.262 0.178412 4.42941 0
M  V30 1056 H 101.482 0.17979 0.646465 0
M  V30 1057 H 104.026 1.1365 1.70012 0
M  V30 1058 H 102.181 -0.0648587 3.87346 0
M  V30 1059 H 102.595 1.90282 4.88767 0
M  V30 1060 H 104.069 0.310376 5.51127 0
M  V30 1061 H 104.546 -0.880056 4.30293 0
M  V30 1062 H 105.152 0.787579 4.17944 0
M  V30 1063 N 103.467 -1.45747 0.599634 0
M  V30 1064 C 104.878 -1.85853 0.177681 0
M  V30 1065 C 105.229 -1.50102 -1.26348 0
M  V30 1066 O 104.354 -0.923905 -1.95686 0
M  V30 1067 C 104.949 -3.37326 0.315688 0
M  V30 1068 C 103.508 -3.76365 -0.0515144 0
M  V30 1069 C 102.655 -2.69722 0.643822 0
M  V30 1070 H 105.606 -1.36661 0.806814 0
M  V30 1071 H 105.627 -3.77778 -0.454321 0
M  V30 1072 H 105.139 -3.63315 1.36468 0
M  V30 1073 H 103.24 -3.55993 -1.09999 0
M  V30 1074 H 103.353 -4.77916 0.336594 0
M  V30 1075 H 101.717 -2.54567 0.0822881 0
M  V30 1076 H 102.5 -2.98549 1.6948 0
M  V30 1077 N 104.945 -0.338344 -1.53925 0
M  V30 1078 C 105.893 0.536231 -2.26335 0
M  V30 1079 C 106.887 1.1063 -1.28286 0
M  V30 1080 O 108.093 1.05264 -1.46012 0
M  V30 1081 H 104.468 0.191602 -0.727181 0
M  V30 1082 H 106.439 -0.0965747 -2.98244 0
M  V30 1083 C 105.188 1.67803 -3.04528 0
M  V30 1084 H 104.511 1.24864 -3.79801 0
M  V30 1085 H 105.951 2.26526 -3.58416 0
M  V30 1086 C 104.41 2.60439 -2.13712 0
M  V30 1087 O 104.94 3.6255 -1.72975 0
M  V30 1088 N 103.146 2.29006 -1.78898 0
M  V30 1089 H 102.693 1.46011 -2.12223 0
M  V30 1090 H 102.651 2.91248 -1.18416 0
M  V30 1091 N 106.423 1.57458 -0.0668435 0
M  V30 1092 C 107.651 1.97624 0.612565 0
M  V30 1093 C 108.066 0.94502 1.63447 0
M  V30 1094 O 107.423 -0.0689276 1.8237 0
M  V30 1095 C 107.474 3.37869 1.28555 0
M  V30 1096 O 107.195 4.3704 0.304557 0
M  V30 1097 C 108.696 3.92882 2.05325 0
M  V30 1098 H 105.916 0.650045 0.166381 0
M  V30 1099 H 108.46 2.04035 -0.137782 0
M  V30 1100 H 106.615 3.3256 1.98702 0
M  V30 1101 H 107.029 5.18565 0.786779 0
M  V30 1102 H 108.503 4.93247 2.47812 0
M  V30 1103 H 108.98 3.29156 2.9078 0
M  V30 1104 H 109.586 4.01577 1.40056 0
M  V30 1105 N 107.901 -0.206675 1.56239 0
M  V30 1106 C 109.147 -0.930218 1.80208 0
M  V30 1107 C 109.48 -1.83387 0.638981 0
M  V30 1108 O 108.755 -1.91119 -0.361066 0
M  V30 1109 C 109.038 -1.75641 3.1436 0
M  V30 1110 C 108.891 -0.878257 4.41142 0
M  V30 1111 C 110.21 -2.73129 3.45092 0
M  V30 1112 H 107.329 -0.336742 0.655571 0
M  V30 1113 H 109.971 -0.198222 1.88963 0
M  V30 1114 H 108.121 -2.38048 3.07027 0
M  V30 1115 H 109.793 -0.269787 4.6051 0
M  V30 1116 H 108.036 -0.184385 4.33408 0
M  V30 1117 H 108.707 -1.49106 5.3148 0
M  V30 1118 H 111.183 -2.20856 3.52649 0
M  V30 1119 H 110.059 -3.28028 4.40101 0
M  V30 1120 H 110.32 -3.51606 2.68003 0
M  V30 1121 N 109.379 -1.50304 -0.473955 0
M  V30 1122 C 110.329 -1.65347 -1.56985 0
M  V30 1123 C 111.313 -0.508176 -1.52664 0
M  V30 1124 O 112.505 -0.762446 -1.59737 0
M  V30 1125 C 109.634 -1.74832 -2.95447 0
M  V30 1126 C 108.72 -2.95028 -3.04662 0
M  V30 1127 N 109.111 -4.18747 -2.83698 0
M  V30 1128 C 107.409 -2.93527 -3.35795 0
M  V30 1129 C 108.11 -4.99687 -2.97805 0
M  V30 1130 N 107.086 -4.33585 -3.2788 0
M  V30 1131 H 110.888 -2.58698 -1.39472 0
M  V30 1132 H 108.402 -1.47449 -0.680629 0
M  V30 1133 H 110.399 -1.83712 -3.7424 0
M  V30 1134 H 109.059 -0.826376 -3.14008 0
M  V30 1135 H 110.07 -4.48291 -2.59337 0
M  V30 1136 H 106.747 -2.10821 -3.60362 0
M  V30 1137 H 108.137 -6.08057 -2.85861 0
M  V30 1138 N 110.857 0.726932 -1.39834 0
M  V30 1139 C 112.087 1.51393 -1.40583 0
M  V30 1140 C 112.495 1.892 -0.000740625 0
M  V30 1141 O 111.838 1.55189 0.982951 0
M  V30 1142 C 111.9 2.82588 -2.22226 0
M  V30 1143 C 111.564 2.67169 -3.70769 0
M  V30 1144 C 112.561 2.3518 -4.63666 0
M  V30 1145 C 110.246 2.83788 -4.14451 0
M  V30 1146 C 112.24 2.20002 -5.98229 0
M  V30 1147 C 109.927 2.68229 -5.49087 0
M  V30 1148 C 110.925 2.36382 -6.4079 0
M  V30 1149 O 110.613 2.2093 -7.72946 0
M  V30 1150 H 110.345 0.474168 -0.48181 0
M  V30 1151 H 112.899 0.905247 -1.84376 0
M  V30 1152 H 111.129 3.45746 -1.73195 0
M  V30 1153 H 112.818 3.44247 -2.15055 0
M  V30 1154 H 113.584 2.21984 -4.31217 0
M  V30 1155 H 109.463 3.07566 -3.43401 0
M  V30 1156 H 113.007 1.95067 -6.69772 0
M  V30 1157 H 108.904 2.81006 -5.81125 0
M  V30 1158 H 109.672 2.35937 -7.83757 0
M  V30 1159 N 112.336 1.25143 0.95797 0
M  V30 1160 C 113.585 1.0909 1.69654 0
M  V30 1161 C 113.898 -0.368548 1.92097 0
M  V30 1162 O 115.104 -0.649455 2.63618 0
M  V30 1163 C 113.56 1.90395 3.05414 0
M  V30 1164 C 113.168 3.4081 2.90779 0
M  V30 1165 C 114.912 1.82901 3.83076 0
M  V30 1166 C 112.819 4.14423 4.21909 0
M  V30 1167 H 111.749 0.404625 0.636235 0
M  V30 1168 H 114.4 1.4931 1.06672 0
M  V30 1169 H 112.782 1.42996 3.69281 0
M  V30 1170 H 113.956 3.95859 2.35865 0
M  V30 1171 H 112.271 3.49361 2.26575 0
M  V30 1172 H 114.868 2.35196 4.80195 0
M  V30 1173 H 115.211 0.796224 4.08615 0
M  V30 1174 H 115.744 2.28033 3.25954 0
M  V30 1175 H 112.483 5.18102 4.01561 0
M  V30 1176 H 112.003 3.64159 4.76601 0
M  V30 1177 H 113.682 4.21956 4.90471 0
M  V30 1178 N 113.814 -1.1601 1.06675 0
M  V30 1179 C 114.744 -2.22688 0.702307 0
M  V30 1180 C 115.725 -1.67306 -0.307032 0
M  V30 1181 O 116.91 -1.93352 -0.181305 0
M  V30 1182 C 114.04 -3.47178 0.092038 0
M  V30 1183 C 112.994 -4.15477 1.02777 0
M  V30 1184 C 112.32 -5.33963 0.28061 0
M  V30 1185 C 113.62 -4.66019 2.35846 0
M  V30 1186 H 115.314 -2.53429 1.59419 0
M  V30 1187 H 112.86 -1.21813 0.767961 0
M  V30 1188 H 114.813 -4.21037 -0.174814 0
M  V30 1189 H 113.537 -3.15749 -0.834877 0
M  V30 1190 H 112.196 -3.43549 1.27944 0
M  V30 1191 H 111.844 -4.98788 -0.649545 0
M  V30 1192 H 111.544 -5.806 0.904258 0
M  V30 1193 H 113.068 -6.10596 0.021396 0
M  V30 1194 H 114.482 -5.3144 2.15045 0
M  V30 1195 H 112.879 -5.23293 2.93743 0
M  V30 1196 H 113.949 -3.82023 2.98641 0
M  V30 1197 N 115.292 -0.849877 -1.32721 0
M  V30 1198 C 116.52 -0.464754 -2.01613 0
M  V30 1199 C 116.935 0.937191 -1.63897 0
M  V30 1200 O 116.292 1.61081 -0.857856 0
M  V30 1201 C 116.343 -0.588638 -3.56675 0
M  V30 1202 O 116.064 -1.93535 -3.93034 0
M  V30 1203 C 117.565 -0.2019 -4.4284 0
M  V30 1204 H 114.785 -0.183215 -0.645502 0
M  V30 1205 H 117.329 -1.1455 -1.69407 0
M  V30 1206 H 115.484 0.0443159 -3.87375 0
M  V30 1207 H 115.898 -1.92871 -4.87751 0
M  V30 1208 H 117.372 -0.339599 -5.50954 0
M  V30 1209 H 117.849 0.857224 -4.30753 0
M  V30 1210 H 118.455 -0.809733 -4.17521 0
M  V30 1211 N 116.77 1.45427 -0.607355 0
M  V30 1212 C 117.72 2.27612 0.133038 0
M  V30 1213 C 118.704 1.37307 0.838785 0
M  V30 1214 O 119.896 1.61299 0.728813 0
M  V30 1215 C 117.025 3.24173 1.12991 0
M  V30 1216 C 116.111 4.21965 0.425011 0
M  V30 1217 N 116.502 5.02982 -0.533217 0
M  V30 1218 C 114.8 4.40899 0.672593 0
M  V30 1219 C 115.501 5.73931 -0.947518 0
M  V30 1220 N 114.477 5.42819 -0.291321 0
M  V30 1221 H 118.279 2.87649 -0.602935 0
M  V30 1222 H 115.793 1.56576 -0.431006 0
M  V30 1223 H 117.79 3.81783 1.67473 0
M  V30 1224 H 116.45 2.65696 1.86644 0
M  V30 1225 H 117.461 5.09843 -0.90995 0
M  V30 1226 H 114.138 3.93547 1.39382 0
M  V30 1227 H 115.528 6.49037 -1.73782 0
M  V30 1228 N 118.248 0.346503 1.53744 0
M  V30 1229 C 119.495 -0.249104 2.00962 0
M  V30 1230 C 119.823 -1.5032 1.23426 0
M  V30 1231 O 119.078 -1.93217 0.310761 0
M  V30 1232 C 119.377 -0.605809 3.52228 0
M  V30 1233 C 119.043 0.551747 4.47512 0
M  V30 1234 C 117.705 0.86941 4.73281 0
M  V30 1235 C 120.057 1.32818 5.03993 0
M  V30 1236 C 117.385 1.96582 5.52786 0
M  V30 1237 C 119.737 2.41486 5.84694 0
M  V30 1238 C 118.401 2.73808 6.08757 0
M  V30 1239 H 117.671 -0.0911538 0.735372 0
M  V30 1240 H 120.318 0.475027 1.85515 0
M  V30 1241 H 118.623 -1.4107 3.65522 0
M  V30 1242 H 120.32 -1.07858 3.86222 0
M  V30 1243 H 116.91 0.294102 4.2759 0
M  V30 1244 H 121.094 1.09602 4.84047 0
M  V30 1245 H 116.35 2.22045 5.69654 0
M  V30 1246 H 120.524 3.02078 6.27473 0
M  V30 1247 H 118.151 3.58892 6.7015 0
M  V30 1248 N 119.726 -1.57421 0.075193 0
M  V30 1249 C 120.673 -2.12915 -0.890843 0
M  V30 1250 C 121.643 -1.04252 -1.29309 0
M  V30 1251 O 122.828 -1.31933 -1.37834 0
M  V30 1252 C 119.968 -2.69795 -2.15186 0
M  V30 1253 C 119.081 -3.92624 -1.80194 0
M  V30 1254 C 118.216 -4.37736 -3.00933 0
M  V30 1255 C 117.255 -5.53205 -2.61974 0
M  V30 1256 N 116.392 -5.9326 -3.75483 0
M  V30 1257 H 121.232 -2.95156 -0.410735 0
M  V30 1258 H 118.769 -1.45854 -0.191086 0
M  V30 1259 H 120.727 -3.00883 -2.89008 0
M  V30 1260 H 119.357 -1.90313 -2.60731 0
M  V30 1261 H 118.409 -3.67977 -0.964218 0
M  V30 1262 H 119.721 -4.76482 -1.47534 0
M  V30 1263 H 118.875 -4.70503 -3.8303 0
M  V30 1264 H 117.614 -3.52739 -3.36789 0
M  V30 1265 H 116.619 -5.20086 -1.783 0
M  V30 1266 H 117.844 -6.39936 -2.27284 0
M  V30 1267 H 115.79 -5.11212 -4.11094 0
M  V30 1268 H 115.707 -6.71865 -3.46602 0
M  V30 1269 H 116.975 -6.30651 -4.58148 0
M  V30 1270 N 121.204 0.198386 -1.56346 0
M  V30 1271 C 122.452 0.91747 -1.80075 0
M  V30 1272 C 122.773 1.83929 -0.647692 0
M  V30 1273 O 122.043 1.93029 0.334166 0
M  V30 1274 H 120.623 0.341774 -0.664228 0
M  V30 1275 H 123.285 0.204684 -1.93822 0
M  V30 1276 H 122.381 1.51055 -2.7311 0
M  V30 1277 N 122.682 1.50554 0.465978 0
M  V30 1278 C 123.928 1.62038 1.21949 0
M  V30 1279 C 124.261 0.322116 1.9151 0
M  V30 1280 O 123.536 -0.676723 1.82348 0
M  V30 1281 C 123.819 2.80421 2.25912 0
M  V30 1282 C 123.672 4.20144 1.60622 0
M  V30 1283 C 124.991 2.94354 3.27176 0
M  V30 1284 H 122.11 0.589752 0.441998 0
M  V30 1285 H 124.752 1.82956 0.51257 0
M  V30 1286 H 122.902 2.62717 2.86203 0
M  V30 1287 H 124.574 4.49449 1.03889 0
M  V30 1288 H 122.817 4.24165 0.909211 0
M  V30 1289 H 123.488 4.98914 2.36196 0
M  V30 1290 H 125.964 3.10578 2.76913 0
M  V30 1291 H 124.84 3.788 3.97242 0
M  V30 1292 H 125.101 2.05186 3.916 0
M  V30 1293 N 124.16 -0.719506 1.40217 0
M  V30 1294 C 125.406 -1.48034 1.39491 0
M  V30 1295 C 125.761 -1.92399 -0.00443536 0
M  V30 1296 O 125.054 -1.64993 -0.974061 0
M  V30 1297 C 125.248 -2.72271 2.31524 0
M  V30 1298 C 125.077 -2.40055 3.80268 0
M  V30 1299 C 123.847 -2.31588 4.49105 0
M  V30 1300 C 126.045 -2.04581 4.71859 0
M  V30 1301 N 124.027 -1.92006 5.83101 0
M  V30 1302 C 125.398 -1.75568 5.94623 0
M  V30 1303 C 127.453 -1.91183 4.59732 0
M  V30 1304 C 126.156 -1.34505 7.06612 0
M  V30 1305 C 128.182 -1.51524 5.71659 0
M  V30 1306 C 127.544 -1.23406 6.93506 0
M  V30 1307 H 123.643 -0.539927 0.565688 0
M  V30 1308 H 126.227 -0.834764 1.75897 0
M  V30 1309 H 124.398 -3.34584 1.97251 0
M  V30 1310 H 126.13 -3.38584 2.21682 0
M  V30 1311 H 122.885 -2.49199 4.02737 0
M  V30 1312 H 123.309 -1.74764 6.54054 0
M  V30 1313 H 127.951 -2.11584 3.66049 0
M  V30 1314 H 125.669 -1.12846 8.00182 0
M  V30 1315 H 129.255 -1.41741 5.6427 0
M  V30 1316 H 128.135 -0.931788 7.78645 0
M  V30 1317 N 125.638 -1.25649 -0.95132 0
M  V30 1318 C 126.586 -1.06118 -2.06982 0
M  V30 1319 C 127.58 0.00889169 -1.69398 0
M  V30 1320 O 128.786 -0.146988 -1.79399 0
M  V30 1321 H 125.161 -0.326248 -0.677544 0
M  V30 1322 H 127.132 -2.00932 -2.2061 0
M  V30 1323 C 125.881 -0.700145 -3.40578 0
M  V30 1324 H 125.204 -1.51537 -3.69968 0
M  V30 1325 H 126.644 -0.603211 -4.19687 0
M  V30 1326 C 125.103 0.59403 -3.31622 0
M  V30 1327 O 125.633 1.63522 -3.66911 0
M  V30 1328 N 123.839 0.58089 -2.84735 0
M  V30 1329 H 123.386 -0.266783 -2.56215 0
M  V30 1330 H 123.344 1.44695 -2.79125 0
M  V30 1331 N 127.117 1.15442 -1.07289 0
M  V30 1332 C 128.366 1.85557 -0.790669 0
M  V30 1333 C 128.679 1.83186 0.685739 0
M  V30 1334 O 129.885 2.48977 1.0827 0
M  V30 1335 C 128.341 3.33038 -1.36433 0
M  V30 1336 C 127.949 3.43856 -2.8717 0
M  V30 1337 C 129.693 4.0834 -1.1601 0
M  V30 1338 C 127.6 4.85482 -3.3773 0
M  V30 1339 H 126.53 0.695122 -0.292098 0
M  V30 1340 H 129.181 1.30219 -1.29287 0
M  V30 1341 H 127.563 3.88043 -0.789864 0
M  V30 1342 H 128.737 2.98961 -3.50655 0
M  V30 1343 H 127.052 2.81998 -3.06376 0
M  V30 1344 H 129.649 5.12859 -1.51262 0
M  V30 1345 H 129.992 4.16182 -0.0991007 0
M  V30 1346 H 130.525 3.59603 -1.70089 0
M  V30 1347 H 127.264 4.82823 -4.43353 0
M  V30 1348 H 126.784 5.30961 -2.78999 0
M  V30 1349 H 128.463 5.54335 -3.33648 0
M  V30 1350 N 128.595 0.856903 1.32268 0
M  V30 1351 C 129.841 0.462069 1.97466 0
M  V30 1352 C 130.174 -0.980298 1.67642 0
M  V30 1353 O 129.449 -1.68824 0.965858 0
M  V30 1354 C 129.732 0.704336 3.53145 0
M  V30 1355 C 129.585 2.19529 3.9259 0
M  V30 1356 C 130.904 0.1622 4.39801 0
M  V30 1357 H 128.023 0.169357 0.717278 0
M  V30 1358 H 130.665 1.07574 1.56614 0
M  V30 1359 H 128.815 0.181999 3.88073 0
M  V30 1360 H 130.487 2.78387 3.67829 0
M  V30 1361 H 128.73 2.67292 3.41668 0
M  V30 1362 H 129.401 2.31549 5.01088 0
M  V30 1363 H 131.877 0.608905 4.11621 0
M  V30 1364 H 130.753 0.361265 5.4771 0
M  V30 1365 H 131.014 -0.935158 4.32096 0
M  V30 1366 N 130.073 -1.45103 0.615059 0
M  V30 1367 C 131.021 -2.32331 -0.111791 0
M  V30 1368 C 132.015 -1.46409 -0.852102 0
M  V30 1369 O 133.221 -1.62849 -0.766821 0
M  V30 1370 H 129.596 -0.749993 -0.0549072 0
M  V30 1371 H 131.567 -2.91407 0.642225 0
M  V30 1372 C 130.316 -3.3015 -1.09071 0
M  V30 1373 H 129.639 -3.96265 -0.530485 0
M  V30 1374 H 131.079 -3.93898 -1.56908 0
M  V30 1375 C 129.538 -2.57875 -2.168 0
M  V30 1376 O 130.068 -2.36567 -3.24652 0
M  V30 1377 N 128.274 -2.17884 -1.92289 0
M  V30 1378 H 127.821 -2.35413 -1.04587 0
M  V30 1379 H 127.779 -1.6985 -2.64572 0
M  V30 1380 N 131.551 -0.354651 -1.53558 0
M  V30 1381 C 132.499 0.512195 -2.26891 0
M  V30 1382 C 133.493 1.09263 -1.29452 0
M  V30 1383 O 134.699 1.03709 -1.47121 0
M  V30 1384 H 131.074 0.183878 -0.729173 0
M  V30 1385 H 133.045 -0.128202 -2.98124 0
M  V30 1386 C 131.794 1.64563 -3.06291 0
M  V30 1387 H 131.117 1.20829 -3.81104 0
M  V30 1388 H 132.557 2.22711 -3.60799 0
M  V30 1389 C 131.016 2.58158 -2.16462 0
M  V30 1390 O 131.546 3.60695 -1.76811 0
M  V30 1391 N 129.752 2.27096 -1.81317 0
M  V30 1392 H 129.299 1.43751 -2.1376 0
M  V30 1393 H 129.257 2.89975 -1.21498 0
M  V30 1394 N 133.029 1.57378 -0.0835403 0
M  V30 1395 C 134.278 1.93106 0.582498 0
M  V30 1396 C 134.591 0.96651 1.70053 0
M  V30 1397 O 135.797 1.21705 2.42693 0
M  V30 1398 C 134.253 3.43076 1.08751 0
M  V30 1399 C 133.861 4.48 -0.000146404 0
M  V30 1400 C 135.605 3.87785 1.72694 0
M  V30 1401 C 133.512 5.89113 0.519568 0
M  V30 1402 H 132.442 0.720775 0.221358 0
M  V30 1403 H 135.093 1.82821 -0.157675 0
M  V30 1404 H 133.475 3.48474 1.88101 0
M  V30 1405 H 134.649 4.54233 -0.775199 0
M  V30 1406 H 132.964 4.1283 -0.54406 0
M  V30 1407 H 135.561 4.90604 2.1263 0
M  V30 1408 H 135.904 3.25796 2.59158 0
M  V30 1409 H 136.437 3.8504 0.999457 0
M  V30 1410 H 133.176 6.54775 -0.308186 0
M  V30 1411 H 132.696 5.86376 1.26188 0
M  V30 1412 H 134.375 6.39346 0.992237 0
M  V30 1413 N 134.507 -0.190092 1.56449 0
M  V30 1414 C 135.918 -0.754312 1.70784 0
M  V30 1415 C 136.269 -1.83631 0.690951 0
M  V30 1416 O 135.394 -2.15868 -0.151604 0
M  V30 1417 C 135.989 -1.37503 3.09642 0
M  V30 1418 C 134.548 -1.88628 3.25725 0
M  V30 1419 C 133.695 -0.758098 2.66736 0
M  V30 1420 H 136.646 0.0350524 1.58661 0
M  V30 1421 H 136.667 -2.2445 3.0725 0
M  V30 1422 H 136.179 -0.587302 3.83631 0
M  V30 1423 H 134.28 -2.70103 2.56661 0
M  V30 1424 H 134.393 -2.04462 4.3328 0
M  V30 1425 H 132.757 -1.17369 2.26046 0
M  V30 1426 H 133.54 0.0174705 3.43296 0
M  V30 1427 N 135.985 -1.50799 -0.457987 0
M  V30 1428 C 137.232 -1.62442 -1.20908 0
M  V30 1429 C 137.56 -0.330865 -1.91665 0
M  V30 1430 O 136.815 0.68401 -1.83357 0
M  V30 1431 C 137.114 -2.76358 -2.2663 0
M  V30 1432 C 136.78 -4.16378 -1.73033 0
M  V30 1433 C 135.442 -4.54473 -1.58138 0
M  V30 1434 C 137.794 -5.03836 -1.33413 0
M  V30 1435 C 135.122 -5.77754 -1.02065 0
M  V30 1436 C 137.474 -6.27676 -0.78778 0
M  V30 1437 C 136.138 -6.64562 -0.625561 0
M  V30 1438 H 135.408 -0.594417 -0.442435 0
M  V30 1439 H 138.055 -1.84772 -0.503136 0
M  V30 1440 H 136.36 -2.48167 -3.03184 0
M  V30 1441 H 138.057 -2.82568 -2.84528 0
M  V30 1442 H 134.647 -3.86331 -1.85598 0
M  V30 1443 H 138.831 -4.75026 -1.4375 0
M  V30 1444 H 134.087 -6.04997 -0.882547 0
M  V30 1445 H 138.261 -6.94797 -0.472177 0
M  V30 1446 H 135.888 -7.59965 -0.188926 0
M  V30 1447 N 137.463 0.71206 -1.40597 0
M  V30 1448 C 138.393 1.83889 -1.43899 0
M  V30 1449 C 139.374 1.67442 -0.299504 0
M  V30 1450 O 140.559 1.87421 -0.508624 0
M  V30 1451 C 137.689 3.21877 -1.30431 0
M  V30 1452 C 136.643 3.53002 -2.42019 0
M  V30 1453 C 135.969 4.90172 -2.13626 0
M  V30 1454 C 137.269 3.53643 -3.84362 0
M  V30 1455 H 138.963 1.81383 -2.38203 0
M  V30 1456 H 136.509 0.871237 -1.14654 0
M  V30 1457 H 138.462 4.00404 -1.31357 0
M  V30 1458 H 137.186 3.24968 -0.326049 0
M  V30 1459 H 135.845 2.76818 -2.40349 0
M  V30 1460 H 135.493 4.89869 -1.14182 0
M  V30 1461 H 135.193 5.11962 -2.88389 0
M  V30 1462 H 136.717 5.71028 -2.1624 0
M  V30 1463 H 138.131 4.22203 -3.87837 0
M  V30 1464 H 136.528 3.86961 -4.58673 0
M  V30 1465 H 137.598 2.52954 -4.13693 0
M  V30 1466 N 138.941 1.26152 0.944643 0
M  V30 1467 C 140.357 1.03189 1.21754 0
M  V30 1468 C 140.557 -0.245112 2.00004 0
M  V30 1469 O 139.613 -0.955176 2.33736 0
M  V30 1470 C 140.926 2.26119 1.98219 0
M  V30 1471 C 142.474 2.30984 2.11224 0
M  V30 1472 C 142.949 3.53597 2.91089 0
M  V30 1473 N 144.44 3.54053 2.98664 0
M  V30 1474 C 145.175 4.45593 3.60881 0
M  V30 1475 N 144.671 5.47416 4.24626 0
M  V30 1476 N 146.464 4.33252 3.58119 0
M  V30 1477 H 138.615 2.08177 0.421437 0
M  V30 1478 H 140.878 0.914723 0.248969 0
M  V30 1479 H 140.584 3.18984 1.48128 0
M  V30 1480 H 140.458 2.3009 2.98895 0
M  V30 1481 H 142.845 1.38635 2.60508 0
M  V30 1482 H 142.926 2.31026 1.09821 0
M  V30 1483 H 142.57 4.46273 2.42493 0
M  V30 1484 H 142.5 3.50802 3.92741 0
M  V30 1485 H 144.991 2.80403 2.53343 0
M  V30 1486 H 145.304 6.13459 4.69987 0
M  V30 1487 H 143.649 5.51278 4.23223 0
M  V30 1488 H 146.84 3.52924 3.0751 0
M  V30 1489 H 147.013 5.04786 4.06319 0
M  V30 1490 N 140.419 -1.14872 1.07899 0
M  V30 1491 C 141.367 -2.21857 0.698727 0
M  V30 1492 C 142.361 -1.66845 -0.293086 0
M  V30 1493 O 143.567 -1.79321 -0.156204 0
M  V30 1494 H 139.942 -0.722691 0.207899 0
M  V30 1495 H 141.913 -2.51205 1.61054 0
M  V30 1496 C 140.662 -3.47498 0.11858 0
M  V30 1497 H 139.985 -3.90154 0.872914 0
M  V30 1498 H 141.425 -4.23858 -0.109759 0
M  V30 1499 C 139.884 -3.16947 -1.1422 0
M  V30 1500 O 140.414 -3.3426 -2.22785 0
M  V30 1501 N 138.62 -2.70946 -1.05055 0
M  V30 1502 H 138.167 -2.57058 -0.167038 0
M  V30 1503 H 138.125 -2.50879 -1.89491 0
M  V30 1504 N 141.898 -0.863906 -1.31812 0
M  V30 1505 C 143.126 -0.486111 -2.01108 0
M  V30 1506 C 143.541 0.919755 -1.64882 0
M  V30 1507 O 142.898 1.60162 -0.874893 0
M  V30 1508 C 142.949 -0.626435 -3.56031 0
M  V30 1509 O 142.67 -1.97693 -3.90959 0
M  V30 1510 C 144.171 -0.248857 -4.42601 0
M  V30 1511 H 141.391 -0.190052 -0.643523 0
M  V30 1512 H 143.935 -1.1634 -1.68182 0
M  V30 1513 H 142.09 0.00322717 -3.874 0
M  V30 1514 H 142.504 -1.98034 -4.85678 0
M  V30 1515 H 143.978 -0.398016 -5.50563 0
M  V30 1516 H 144.455 0.811489 -4.31638 0
M  V30 1517 H 145.061 -0.853971 -4.16638 0
M  V30 1518 N 143.376 1.44774 -0.622745 0
M  V30 1519 C 144.625 2.01334 -0.121397 0
M  V30 1520 C 144.938 1.49505 1.26125 0
M  V30 1521 O 146.144 1.98139 1.85616 0
M  V30 1522 C 144.6 3.59516 -0.166298 0
M  V30 1523 C 144.208 4.20342 -1.54974 0
M  V30 1524 C 145.952 4.23582 0.279021 0
M  V30 1525 C 143.859 5.70721 -1.55021 0
M  V30 1526 H 142.789 0.752851 -0.0416172 0
M  V30 1527 H 145.44 1.66083 -0.780309 0
M  V30 1528 H 143.822 3.92027 0.559557 0
M  V30 1529 H 144.996 3.99381 -2.29851 0
M  V30 1530 H 143.311 3.68529 -1.93843 0
M  V30 1531 H 145.908 5.33868 0.298083 0
M  V30 1532 H 146.251 3.95327 1.30471 0
M  V30 1533 H 146.784 3.95843 -0.394063 0
M  V30 1534 H 143.523 6.03698 -2.55399 0
M  V30 1535 H 143.043 5.93829 -0.844245 0
M  V30 1536 H 144.722 6.34203 -1.28047 0
M  V30 1537 N 144.854 0.36279 1.53368 0
M  V30 1538 C 145.787 -0.528507 2.21996 0
M  V30 1539 C 146.765 -1.0852 1.21087 0
M  V30 1540 O 147.949 -1.14186 1.4998 0
M  V30 1541 C 145.076 -1.72893 2.91249 0
M  V30 1542 C 144.122 -1.29994 4.06207 0
M  V30 1543 S 144.955 -0.303575 5.34639 0
M  V30 1544 C 146.111 -1.51039 6.07403 0
M  V30 1545 H 146.344 0.0543423 2.9725 0
M  V30 1546 H 143.877 0.146889 1.537 0
M  V30 1547 H 145.835 -2.41751 3.31763 0
M  V30 1548 H 144.496 -2.28303 2.15724 0
M  V30 1549 H 143.689 -2.19549 4.53667 0
M  V30 1550 H 143.291 -0.690608 3.67569 0
M  V30 1551 H 145.583 -2.44186 6.31965 0
M  V30 1552 H 146.526 -1.07721 6.99858 0
M  V30 1553 H 146.934 -1.71518 5.37812 0
M  V30 1554 N 146.332 -1.57332 0.0918853 0
M  V30 1555 C 147.279 -2.13847 -0.868211 0
M  V30 1556 C 148.249 -1.05618 -1.28196 0
M  V30 1557 O 149.434 -1.33387 -1.36427 0
M  V30 1558 C 146.574 -2.72062 -2.12312 0
M  V30 1559 C 145.687 -3.94514 -1.7602 0
M  V30 1560 C 144.822 -4.40903 -2.96273 0
M  V30 1561 C 143.861 -5.55953 -2.56092 0
M  V30 1562 N 142.998 -5.97209 -3.69169 0
M  V30 1563 H 147.838 -2.95575 -0.379406 0
M  V30 1564 H 145.375 -1.46048 -0.175606 0
M  V30 1565 H 147.333 -3.03931 -2.858 0
M  V30 1566 H 145.963 -1.93068 -2.58698 0
M  V30 1567 H 145.015 -3.68979 -0.925135 0
M  V30 1568 H 146.327 -4.7802 -1.42472 0
M  V30 1569 H 145.481 -4.74539 -3.78018 0
M  V30 1570 H 144.22 -3.56291 -3.33029 0
M  V30 1571 H 143.225 -5.21948 -1.72773 0
M  V30 1572 H 144.45 -6.42311 -2.20484 0
M  V30 1573 H 142.396 -5.15543 -4.05649 0
M  V30 1574 H 142.313 -6.75504 -3.39456 0
M  V30 1575 H 143.581 -6.35475 -4.51434 0
M  V30 1576 N 147.81 0.181792 -1.56548 0
M  V30 1577 C 149.04 0.914618 -1.85252 0
M  V30 1578 C 149.448 1.76791 -0.673914 0
M  V30 1579 O 148.791 1.80009 0.366416 0
M  V30 1580 C 148.853 1.85019 -3.08234 0
M  V30 1581 C 148.517 1.17754 -4.41569 0
M  V30 1582 C 149.514 0.548035 -5.17003 0
M  V30 1583 C 147.199 1.17742 -4.88305 0
M  V30 1584 C 149.193 -0.0726128 -6.37359 0
M  V30 1585 C 146.88 0.552946 -6.08593 0
M  V30 1586 C 147.878 -0.070978 -6.82963 0
M  V30 1587 O 147.566 -0.685635 -8.00971 0
M  V30 1588 H 147.298 0.271695 -0.618998 0
M  V30 1589 H 149.852 0.189944 -2.0452 0
M  V30 1590 H 148.082 2.61491 -2.84885 0
M  V30 1591 H 149.771 2.45195 -3.23472 0
M  V30 1592 H 150.537 0.540174 -4.81982 0
M  V30 1593 H 146.416 1.65246 -4.30366 0
M  V30 1594 H 149.96 -0.560213 -6.95347 0
M  V30 1595 H 145.857 0.558354 -6.43081 0
M  V30 1596 H 146.625 -0.58385 -8.16415 0
M  V30 1597 N 149.288 1.51039 0.449983 0
M  V30 1598 C 150.534 1.63322 1.20223 0
M  V30 1599 C 150.867 0.34241 1.91158 0
M  V30 1600 O 150.142 -0.657344 1.83055 0
M  V30 1601 C 150.425 2.82801 2.22925 0
M  V30 1602 C 150.278 4.21823 1.56157 0
M  V30 1603 C 151.597 2.97807 3.24035 0
M  V30 1604 H 148.716 0.594407 0.435718 0
M  V30 1605 H 151.358 1.83489 0.493136 0
M  V30 1606 H 149.508 2.65738 2.834 0
M  V30 1607 H 151.18 4.50526 0.991162 0
M  V30 1608 H 149.423 4.25105 0.864172 0
M  V30 1609 H 150.094 5.01391 2.30891 0
M  V30 1610 H 152.57 3.13497 2.73603 0
M  V30 1611 H 151.446 3.82992 3.93202 0
M  V30 1612 H 151.707 2.09328 3.89402 0
M  V30 1613 N 150.766 -0.704594 1.40972 0
M  V30 1614 C 151.696 -1.83124 1.44872 0
M  V30 1615 C 152.677 -1.67281 0.30838 0
M  V30 1616 O 153.862 -1.87149 0.518556 0
M  V30 1617 C 150.992 -3.21181 1.32136 0
M  V30 1618 C 149.946 -3.51714 2.43888 0
M  V30 1619 C 149.272 -4.89032 2.16222 0
M  V30 1620 C 150.572 -3.516 3.86232 0
M  V30 1621 H 152.266 -1.80117 2.39161 0
M  V30 1622 H 149.812 -0.865145 1.15114 0
M  V30 1623 H 151.765 -3.99702 1.33479 0
M  V30 1624 H 150.489 -3.24791 0.343279 0
M  V30 1625 H 149.148 -2.75539 2.41813 0
M  V30 1626 H 148.796 -4.89256 1.16778 0
M  V30 1627 H 148.496 -5.10426 2.911 0
M  V30 1628 H 150.02 -5.69873 2.19265 0
M  V30 1629 H 151.434 -4.2014 3.9007 0
M  V30 1630 H 149.831 -3.84523 4.60719 0
M  V30 1631 H 150.901 -2.50757 4.15029 0
M  V30 1632 N 152.244 -1.26651 -0.937939 0
M  V30 1633 C 153.472 -1.15173 -1.7188 0
M  V30 1634 C 153.887 0.292668 -1.86518 0
M  V30 1635 O 153.244 1.20014 -1.37488 0
M  V30 1636 C 153.295 -1.81925 -3.12387 0
M  V30 1637 O 153.016 -3.2072 -2.98446 0
M  V30 1638 C 154.517 -1.76442 -4.06673 0
M  V30 1639 H 151.737 -0.400911 -0.538063 0
M  V30 1640 H 154.281 -1.67332 -1.1756 0
M  V30 1641 H 152.436 -1.33696 -3.63599 0
M  V30 1642 H 152.85 -3.53802 -3.872 0
M  V30 1643 H 154.324 -2.27781 -5.02812 0
M  V30 1644 H 154.801 -0.731608 -4.33064 0
M  V30 1645 H 155.407 -2.24238 -3.61382 0
M  V30 1646 N 153.722 1.14298 -1.08507 0
M  V30 1647 C 154.947 1.8976 -0.837001 0
M  V30 1648 C 155.372 1.78097 0.605228 0
M  V30 1649 O 154.73 1.12188 1.4242 0
M  V30 1650 C 154.778 3.37685 -1.26495 0
M  V30 1651 O 153.882 4.10281 -0.417514 0
M  V30 1652 H 153.223 0.590365 -0.303917 0
M  V30 1653 H 155.753 1.44672 -1.44676 0
M  V30 1654 H 155.763 3.88501 -1.24625 0
M  V30 1655 H 154.438 3.45492 -2.31534 0
M  V30 1656 H 153.015 3.69536 -0.499722 0
M  V30 1657 N 155.201 0.870884 1.31352 0
M  V30 1658 C 156.617 0.562932 1.49343 0
M  V30 1659 C 156.817 -0.902725 1.80148 0
M  V30 1660 O 155.873 -1.68484 1.88067 0
M  V30 1661 C 157.186 1.46393 2.62659 0
M  V30 1662 C 158.734 1.46607 2.76542 0
M  V30 1663 C 159.209 2.35266 3.92955 0
M  V30 1664 N 160.7 2.33151 4.00243 0
M  V30 1665 C 161.435 2.98471 4.89594 0
M  V30 1666 N 160.931 3.72964 5.8384 0
M  V30 1667 N 162.724 2.87775 4.82848 0
M  V30 1668 H 154.875 1.81923 1.09626 0
M  V30 1669 H 157.138 0.777934 0.541777 0
M  V30 1670 H 156.844 2.50689 2.46674 0
M  V30 1671 H 156.718 1.16314 3.58819 0
M  V30 1672 H 159.105 0.43069 2.9194 0
M  V30 1673 H 159.186 1.8071 1.81046 0
M  V30 1674 H 158.83 3.38881 3.78315 0
M  V30 1675 H 158.76 1.98487 4.87761 0
M  V30 1676 H 161.251 1.79006 3.32814 0
M  V30 1677 H 161.564 4.19932 6.4875 0
M  V30 1678 H 159.909 3.77073 5.83816 0
M  V30 1679 H 163.1 2.29116 4.08195 0
M  V30 1680 H 163.273 3.38961 5.52277 0
M  V30 1681 N 156.679 -1.44442 0.630414 0
M  V30 1682 C 157.904 -2.06927 0.139944 0
M  V30 1683 C 158.329 -1.46795 -1.17613 0
M  V30 1684 O 157.687 -0.569144 -1.72135 0
M  V30 1685 C 157.735 -3.6058 0.0379581 0
M  V30 1686 O 156.839 -3.99937 -1.0062 0
M  V30 1687 H 156.18 -0.658608 0.0844483 0
M  V30 1688 H 158.71 -1.85327 0.866891 0
M  V30 1689 H 158.72 -4.07714 -0.152856 0
M  V30 1690 H 157.395 -4.03728 0.998809 0
M  V30 1691 H 155.972 -3.64436 -0.79001 0
M  V30 1692 N 158.157 -0.370918 -1.53173 0
M  V30 1693 C 159.107 0.489588 -2.22681 0
M  V30 1694 C 160.091 1.04442 -1.22395 0
M  V30 1695 O 161.283 0.973578 -1.47819 0
M  V30 1696 C 158.412 1.626 -3.02351 0
M  V30 1697 C 157.498 1.08379 -4.10018 0
M  V30 1698 N 157.889 0.265004 -5.05105 0
M  V30 1699 C 156.187 1.35809 -4.2482 0
M  V30 1700 C 156.888 -0.0324755 -5.81691 0
M  V30 1701 N 155.864 0.566581 -5.40639 0
M  V30 1702 H 159.666 -0.142729 -2.93553 0
M  V30 1703 H 157.18 -0.179221 -1.61408 0
M  V30 1704 H 159.177 2.2547 -3.50669 0
M  V30 1705 H 157.837 2.26132 -2.33011 0
M  V30 1706 H 158.848 -0.0962352 -5.17811 0
M  V30 1707 H 155.525 1.9958 -3.66707 0
M  V30 1708 H 156.915 -0.69473 -6.68299 0
M  V30 1709 N 159.635 1.57281 -0.100228 0
M  V30 1710 C 160.565 2.17328 0.853857 0
M  V30 1711 C 161.546 1.10804 1.2906 0
M  V30 1712 O 162.731 1.38963 1.35657 0
M  V30 1713 C 159.861 2.75772 2.11109 0
M  V30 1714 C 158.815 3.87713 1.81279 0
M  V30 1715 C 158.141 4.32882 3.13874 0
M  V30 1716 C 159.441 5.10677 1.09574 0
M  V30 1717 H 161.135 2.97305 0.353545 0
M  V30 1718 H 158.681 1.43009 0.168612 0
M  V30 1719 H 160.634 3.16433 2.78296 0
M  V30 1720 H 159.358 1.93057 2.63432 0
M  V30 1721 H 158.017 3.476 1.16489 0
M  V30 1722 H 157.665 3.47051 3.64095 0
M  V30 1723 H 157.365 5.08358 2.94696 0
M  V30 1724 H 158.889 4.7618 3.82211 0
M  V30 1725 H 160.303 5.48474 1.66879 0
M  V30 1726 H 158.7 5.91615 1.00557 0
M  V30 1727 H 159.77 4.84835 0.0793299 0
M  V30 1728 N 161.113 -0.173488 1.56642 0
M  V30 1729 C 162.362 -0.888758 1.81063 0
M  V30 1730 C 162.675 -1.83506 0.67712 0
M  V30 1731 O 163.881 -2.59254 0.806206 0
M  V30 1732 C 162.337 -1.63091 3.20826 0
M  V30 1733 C 161.945 -0.728357 4.4204 0
M  V30 1734 C 163.689 -2.33454 3.54541 0
M  V30 1735 C 161.596 -1.47062 5.72823 0
M  V30 1736 H 160.526 -0.335618 0.675186 0
M  V30 1737 H 163.177 -0.141712 1.82952 0
M  V30 1738 H 161.559 -2.42263 3.13248 0
M  V30 1739 H 162.733 0.0262449 4.60793 0
M  V30 1740 H 161.048 -0.134492 4.16183 0
M  V30 1741 H 163.645 -2.89578 4.49498 0
M  V30 1742 H 163.988 -3.08687 2.79317 0
M  V30 1743 H 164.521 -1.61227 3.63663 0
M  V30 1744 H 161.26 -0.760658 6.51072 0
M  V30 1745 H 160.78 -2.1986 5.58052 0
M  V30 1746 H 162.459 -2.01868 6.14702 0
M  V30 1747 N 162.591 -1.51276 -0.441967 0
M  V30 1748 C 163.501 -1.75092 -1.56141 0
M  V30 1749 C 164.517 -0.634963 -1.62001 0
M  V30 1750 O 165.693 -0.916686 -1.79329 0
M  V30 1751 C 162.758 -1.86666 -2.92158 0
M  V30 1752 C 161.819 -3.10506 -2.96453 0
M  V30 1753 C 161.052 -3.21519 -4.25982 0
M  V30 1754 O 161.275 -2.38586 -5.18105 0
M  V30 1755 O 160.209 -4.14465 -4.36466 0
M  V30 1756 H 164.035 -2.70044 -1.38961 0
M  V30 1757 H 161.62 -1.35722 -0.624499 0
M  V30 1758 H 163.502 -1.96292 -3.72891 0
M  V30 1759 H 162.177 -0.949014 -3.09476 0
M  V30 1760 H 161.084 -3.06363 -2.14692 0
M  V30 1761 H 162.417 -4.01945 -2.84079 0
M  V30 1762 N 164.069 0.697108 -1.41344 0
M  V30 1763 C 165.294 1.49096 -1.44171 0
M  V30 1764 C 165.719 1.88038 -0.0481568 0
M  V30 1765 O 165.077 1.54525 0.948243 0
M  V30 1766 C 165.125 2.73088 -2.3549 0
M  V30 1767 O 164.229 3.70514 -1.81088 0
M  V30 1768 H 163.57 0.448801 -0.489361 0
M  V30 1769 H 166.1 0.856992 -1.85787 0
M  V30 1770 H 166.11 3.21413 -2.51312 0
M  V30 1771 H 164.785 2.44081 -3.36745 0
M  V30 1772 H 163.362 3.29441 -1.74708 0
M  V30 1773 N 165.547 1.27147 0.931209 0
M  V30 1774 C 166.958 1.12044 1.49342 0
M  V30 1775 C 167.309 -0.295795 1.93957 0
M  V30 1776 O 166.434 -1.18835 1.80852 0
M  V30 1777 C 167.029 2.02781 2.71414 0
M  V30 1778 C 165.588 1.91794 3.2387 0
M  V30 1779 C 164.735 1.95543 1.96617 0
M  V30 1780 H 167.686 1.40091 0.745672 0
M  V30 1781 H 167.707 1.58156 3.46074 0
M  V30 1782 H 167.219 3.05848 2.38911 0
M  V30 1783 H 165.32 0.916992 3.6114 0
M  V30 1784 H 165.433 2.77852 3.90302 0
M  V30 1785 H 163.797 1.39722 2.12955 0
M  V30 1786 H 164.58 3.00259 1.66432 0
M  V30 1787 N 167.025 -1.13721 1.09112 0
M  V30 1788 C 168.436 -1.6648 0.845068 0
M  V30 1789 C 168.787 -1.85911 -0.62701 0
M  V30 1790 O 167.912 -1.57556 -1.48341 0
M  V30 1791 C 168.507 -3.02413 1.52748 0
M  V30 1792 C 167.066 -3.52176 1.32849 0
M  V30 1793 C 166.213 -2.27492 1.58564 0
M  V30 1794 H 169.164 -0.976872 1.25072 0
M  V30 1795 H 169.185 -3.68223 0.958752 0
M  V30 1796 H 168.697 -2.88238 2.59885 0
M  V30 1797 H 166.798 -3.7156 0.278137 0
M  V30 1798 H 166.911 -4.32499 2.0611 0
M  V30 1799 H 165.275 -2.33923 1.00758 0
M  V30 1800 H 166.058 -2.15886 2.66924 0
M  V30 1801 N 168.503 -0.877838 -1.30888 0
M  V30 1802 C 169.731 -0.507414 -2.00581 0
M  V30 1803 C 170.146 0.902216 -1.65848 0
M  V30 1804 O 169.503 1.59225 -0.891831 0
M  V30 1805 C 169.554 -0.664162 -3.55347 0
M  V30 1806 O 169.275 -2.01829 -3.8884 0
M  V30 1807 C 170.776 -0.295787 -4.42312 0
M  V30 1808 H 167.996 -0.196866 -0.641471 0
M  V30 1809 H 170.54 -1.18117 -1.66939 0
M  V30 1810 H 168.695 -0.0378619 -3.87381 0
M  V30 1811 H 169.109 -2.03174 -4.8355 0
M  V30 1812 H 170.583 -0.456388 -5.5011 0
M  V30 1813 H 171.06 0.765663 -4.32475 0
M  V30 1814 H 171.666 -0.898113 -4.15709 0
M  V30 1815 N 169.982 1.44106 -0.638065 0
M  V30 1816 C 171.212 2.06037 -0.152394 0
M  V30 1817 C 171.62 1.47808 1.18108 0
M  V30 1818 O 170.963 0.598092 1.73691 0
M  V30 1819 C 171.025 3.59488 0.0293714 0
M  V30 1820 C 170.689 4.4022 -1.22702 0
M  V30 1821 C 171.686 4.73256 -2.15232 0
M  V30 1822 C 169.371 4.8048 -1.46437 0
M  V30 1823 C 171.365 5.45444 -3.29802 0
M  V30 1824 C 169.052 5.52417 -2.61303 0
M  V30 1825 C 170.05 5.84819 -3.52811 0
M  V30 1826 O 169.738 6.55289 -4.65673 0
M  V30 1827 H 169.47 0.671233 -0.0801401 0
M  V30 1828 H 172.024 1.85851 -0.874563 0
M  V30 1829 H 170.254 3.78191 0.806758 0
M  V30 1830 H 171.943 4.03164 0.470475 0
M  V30 1831 H 172.709 4.42684 -1.98131 0
M  V30 1832 H 168.588 4.54676 -0.760977 0
M  V30 1833 H 172.132 5.70653 -4.01249 0
M  V30 1834 H 168.029 5.82404 -2.78344 0
M  V30 1835 H 168.797 6.73762 -4.64744 0
M  V30 1836 N 171.46 0.379036 1.52974 0
M  V30 1837 C 172.408 -0.476033 2.27677 0
M  V30 1838 C 173.402 -1.0719 1.31174 0
M  V30 1839 O 174.608 -1.01355 1.48752 0
M  V30 1840 H 170.983 -0.172255 0.732006 0
M  V30 1841 H 172.954 0.175615 2.97883 0
M  V30 1842 C 171.703 -1.5967 3.0887 0
M  V30 1843 H 171.026 -1.1475 3.82978 0
M  V30 1844 H 172.466 -2.16943 3.64296 0
M  V30 1845 C 170.925 -2.54682 2.20542 0
M  V30 1846 O 171.455 -3.57836 1.82527 0
M  V30 1847 N 169.661 -2.24183 1.84907 0
M  V30 1848 H 169.208 -1.40333 2.1602 0
M  V30 1849 H 169.166 -2.88006 1.26096 0
M  V30 1850 N 172.938 -1.57226 0.108567 0
M  V30 1851 C 174.184 -1.95121 -0.552761 0
M  V30 1852 C 174.517 -0.991345 -1.66991 0
M  V30 1853 O 173.792 -0.0267211 -1.94482 0
M  V30 1854 C 174.075 -3.43039 -1.09528 0
M  V30 1855 C 173.928 -4.49797 0.0177332 0
M  V30 1856 C 175.247 -3.92567 -1.98945 0
M  V30 1857 H 172.366 -0.709496 -0.199461 0
M  V30 1858 H 175.008 -1.89126 0.182011 0
M  V30 1859 H 173.158 -3.48279 -1.72146 0
M  V30 1860 H 174.83 -4.56661 0.652584 0
M  V30 1861 H 173.073 -4.284 0.682309 0
M  V30 1862 H 173.744 -5.50528 -0.402919 0
M  V30 1863 H 176.22 -3.89565 -1.46214 0
M  V30 1864 H 175.096 -4.96605 -2.33827 0
M  V30 1865 H 175.357 -3.32648 -2.91201 0
M  V30 1866 N 174.416 0.165178 -1.56732 0
M  V30 1867 C 175.364 1.22369 -1.97809 0
M  V30 1868 C 176.358 1.45488 -0.867741 0
M  V30 1869 O 177.564 1.45995 -1.05288 0
M  V30 1870 H 173.939 0.411486 -0.629431 0
M  V30 1871 H 175.91 0.850425 -2.86025 0
M  V30 1872 C 174.659 2.55403 -2.35934 0
M  V30 1873 H 173.982 2.38438 -3.20916 0
M  V30 1874 H 175.422 3.2814 -2.68514 0
M  V30 1875 C 173.881 3.14611 -1.20506 0
M  V30 1876 O 174.411 3.98626 -0.496016 0
M  V30 1877 N 172.617 2.7379 -0.97403 0
M  V30 1878 H 172.164 2.0557 -1.55238 0
M  V30 1879 H 172.122 3.1374 -0.203573 0
M  V30 1880 N 175.894 1.51508 0.433938 0
M  V30 1881 C 177.124 1.67914 1.20369 0
M  V30 1882 C 177.532 0.377461 1.85397 0
M  V30 1883 O 176.875 -0.654255 1.71654 0
M  V30 1884 C 176.937 2.74045 2.32679 0
M  V30 1885 C 176.601 4.16543 1.87991 0
M  V30 1886 C 177.598 5.01211 1.38145 0
M  V30 1887 C 175.283 4.6266 1.95579 0
M  V30 1888 C 177.277 6.30056 0.964774 0
M  V30 1889 C 174.964 5.91501 1.53523 0
M  V30 1890 C 175.962 6.75027 1.04055 0
M  V30 1891 O 175.65 8.01459 0.625964 0
M  V30 1892 H 175.382 0.566578 0.368735 0
M  V30 1893 H 177.936 1.98709 0.51999 0
M  V30 1894 H 176.166 2.38572 3.04336 0
M  V30 1895 H 177.855 2.79295 2.94532 0
M  V30 1896 H 178.621 4.66783 1.31675 0
M  V30 1897 H 174.5 3.97767 2.33029 0
M  V30 1898 H 178.044 6.95202 0.57796 0
M  V30 1899 H 173.941 6.25442 1.59665 0
M  V30 1900 H 174.709 8.15043 0.751509 0
M  V30 1901 N 177.372 -0.689602 1.41712 0
M  V30 1902 C 178.62 -1.4468 1.4111 0
M  V30 1903 C 178.941 -1.94986 0.0232196 0
M  V30 1904 O 178.211 -1.72097 -0.935913 0
M  V30 1905 H 176.791 -0.536847 0.519427 0
M  V30 1906 H 179.453 -0.815825 1.77004 0
M  V30 1907 H 178.549 -2.30706 2.10193 0
M  V30 1908 N 178.85 -1.27639 -0.924453 0
M  V30 1909 C 180.08 -1.16819 -1.70402 0
M  V30 1910 C 180.488 0.277191 -1.87158 0
M  V30 1911 O 179.831 1.20025 -1.39067 0
M  V30 1912 C 179.893 -1.78305 -3.12166 0
M  V30 1913 C 179.557 -3.27502 -3.18734 0
M  V30 1914 C 180.554 -4.2409 -3.00738 0
M  V30 1915 C 178.239 -3.68269 -3.4159 0
M  V30 1916 C 180.233 -5.59422 -3.05492 0
M  V30 1917 C 177.92 -5.0373 -3.45977 0
M  V30 1918 C 178.918 -5.99116 -3.27946 0
M  V30 1919 O 178.606 -7.32108 -3.32074 0
M  V30 1920 H 178.338 -0.406931 -0.539799 0
M  V30 1921 H 180.892 -1.69078 -1.16626 0
M  V30 1922 H 179.122 -1.20528 -3.67437 0
M  V30 1923 H 180.811 -1.62154 -3.72103 0
M  V30 1924 H 181.577 -3.93931 -2.82919 0
M  V30 1925 H 177.456 -2.94496 -3.54673 0
M  V30 1926 H 181 -6.33852 -2.91337 0
M  V30 1927 H 176.897 -5.33543 -3.63321 0
M  V30 1928 H 177.665 -7.40598 -3.48507 0
M  V30 1929 N 180.328 1.1314 -1.09713 0
M  V30 1930 C 181.275 2.18642 -0.739196 0
M  V30 1931 C 182.245 1.63706 0.280978 0
M  V30 1932 O 183.43 1.90111 0.161946 0
M  V30 1933 C 180.57 3.44685 -0.169102 0
M  V30 1934 C 179.683 4.13711 -1.24367 0
M  V30 1935 C 178.818 5.27379 -0.636019 0
M  V30 1936 C 177.857 5.88259 -1.69169 0
M  V30 1937 N 176.994 6.93352 -1.10485 0
M  V30 1938 H 181.834 2.48607 -1.64312 0
M  V30 1939 H 179.371 1.22066 -0.820875 0
M  V30 1940 H 181.329 4.16815 0.179256 0
M  V30 1941 H 179.959 3.15161 0.698079 0
M  V30 1942 H 179.011 3.39835 -1.70927 0
M  V30 1943 H 180.323 4.55037 -2.04311 0
M  V30 1944 H 179.477 6.06238 -0.236677 0
M  V30 1945 H 178.216 4.8731 0.194928 0
M  V30 1946 H 177.221 5.08092 -2.10055 0
M  V30 1947 H 178.446 6.30399 -2.52536 0
M  V30 1948 H 176.392 6.55335 -0.295234 0
M  V30 1949 H 176.309 7.33236 -1.84121 0
M  V30 1950 H 177.577 7.76057 -0.73181 0
M  V30 1951 N 181.806 0.884767 1.30421 0
M  V30 1952 C 183.031 0.517288 2.00845 0
M  V30 1953 C 183.456 -0.886779 1.65885 0
M  V30 1954 O 182.814 -1.58768 0.875354 0
M  V30 1955 C 182.862 0.698994 3.5376 0
M  V30 1956 O 181.966 -0.255208 4.1161 0
M  V30 1957 H 181.307 0.203872 0.631927 0
M  V30 1958 H 183.837 1.19225 1.66272 0
M  V30 1959 H 183.847 0.597912 4.03595 0
M  V30 1960 H 182.522 1.72271 3.78544 0
M  V30 1961 H 181.099 -0.10784 3.72744 0
M  V30 1962 N 183.284 -1.43765 0.645699 0
M  V30 1963 C 184.53 -2.02731 0.164844 0
M  V30 1964 C 184.885 -1.49983 -1.2051 0
M  V30 1965 O 184.178 -0.680208 -1.79119 0
M  V30 1966 C 184.372 -3.57238 0.107679 0
M  V30 1967 C 184.201 -4.24977 1.47054 0
M  V30 1968 C 182.971 -4.61356 2.06103 0
M  V30 1969 C 185.169 -4.54476 2.40741 0
M  V30 1970 N 183.151 -5.14132 3.35473 0
M  V30 1971 C 184.522 -5.08489 3.54737 0
M  V30 1972 C 186.577 -4.36438 2.39637 0
M  V30 1973 C 185.28 -5.46364 4.67845 0
M  V30 1974 C 187.306 -4.7537 3.5182 0
M  V30 1975 C 186.668 -5.2951 4.64541 0
M  V30 1976 H 182.767 -0.774976 0.104578 0
M  V30 1977 H 185.351 -1.75051 0.852367 0
M  V30 1978 H 183.522 -3.84498 -0.549165 0
M  V30 1979 H 185.254 -4.0288 -0.383351 0
M  V30 1980 H 182.009 -4.46151 1.58892 0
M  V30 1981 H 182.433 -5.4498 4.01654 0
M  V30 1982 H 187.075 -3.93861 1.53731 0
M  V30 1983 H 184.793 -5.87888 5.54448 0
M  V30 1984 H 188.379 -4.63115 3.52159 0
M  V30 1985 H 187.259 -5.59077 5.49911 0
M  V30 1986 N 184.763 -0.387143 -1.52771 0
M  V30 1987 C 185.673 0.456442 -2.30117 0
M  V30 1988 C 186.689 1.07342 -1.36944 0
M  V30 1989 O 187.865 1.07971 -1.70013 0
M  V30 1990 C 184.93 1.56957 -3.09136 0
M  V30 1991 C 183.991 0.977916 -4.18014 0
M  V30 1992 C 183.224 2.038 -4.93256 0
M  V30 1993 O 183.447 3.25271 -4.68567 0
M  V30 1994 O 182.381 1.6565 -5.78657 0
M  V30 1995 H 186.207 -0.17359 -3.03203 0
M  V30 1996 H 183.792 -0.150919 -1.48636 0
M  V30 1997 H 185.674 2.21628 -3.58412 0
M  V30 1998 H 184.349 2.18461 -2.38865 0
M  V30 1999 H 183.256 0.294525 -3.72939 0
M  V30 2000 H 184.589 0.407128 -4.90513 0
M  V30 2001 N 186.241 1.57166 -0.116904 0
M  V30 2002 C 187.204 2.14039 0.819742 0
M  V30 2003 C 188.204 1.07477 1.19605 0
M  V30 2004 O 189.394 1.33263 1.1219 0
M  V30 2005 C 186.526 2.67891 2.10826 0
M  V30 2006 H 187.719 2.98128 0.325511 0
M  V30 2007 H 185.272 1.55739 0.132312 0
M  V30 2008 H 186.007 1.87384 2.64685 0
M  V30 2009 H 185.792 3.45823 1.84793 0
M  V30 2010 H 187.282 3.11809 2.77785 0
M  V30 2011 N 187.719 -0.156864 1.56817 0
M  V30 2012 C 188.966 -0.871125 1.82805 0
M  V30 2013 C 189.294 -1.81611 0.696262 0
M  V30 2014 O 188.549 -1.93141 -0.315459 0
M  V30 2015 C 188.848 -1.68737 3.1506 0
M  V30 2016 C 188.514 -0.890045 4.42028 0
M  V30 2017 C 187.176 -0.670042 4.76512 0
M  V30 2018 C 189.528 -0.331769 5.20143 0
M  V30 2019 C 186.856 0.119104 5.86579 0
M  V30 2020 C 189.208 0.444365 6.31037 0
M  V30 2021 C 187.872 0.675035 6.64078 0
M  V30 2022 H 187.142 -0.318767 0.668931 0
M  V30 2023 H 189.789 -0.135274 1.91022 0
M  V30 2024 H 188.094 -2.49304 3.0225 0
M  V30 2025 H 189.791 -2.24331 3.3238 0
M  V30 2026 H 186.381 -1.07157 4.14988 0
M  V30 2027 H 190.565 -0.489043 4.93885 0
M  V30 2028 H 185.821 0.307417 6.10627 0
M  V30 2029 H 189.995 0.884139 6.90765 0
M  V30 2030 H 187.622 1.28839 7.49203 0
M  V30 2031 N 189.197 -1.51736 -0.425897 0
M  V30 2032 C 190.422 -1.69082 -1.20108 0
M  V30 2033 C 190.847 -0.392398 -1.83962 0
M  V30 2034 O 190.205 0.64858 -1.69302 0
M  V30 2035 C 190.253 -2.81604 -2.25237 0
M  V30 2036 O 189.357 -2.46004 -3.30992 0
M  V30 2037 H 188.698 -0.563408 -0.35138 0
M  V30 2038 H 191.228 -1.98358 -0.501512 0
M  V30 2039 H 191.238 -3.06025 -2.69838 0
M  V30 2040 H 189.913 -3.75817 -1.78142 0
M  V30 2041 H 188.49 -2.32195 -2.91787 0
M  V30 2042 N 190.675 0.682077 -1.42076 0
M  V30 2043 C 191.623 1.81707 -1.45208 0
M  V30 2044 C 192.617 1.66183 -0.328591 0
M  V30 2045 O 193.823 1.7288 -0.501264 0
M  V30 2046 H 190.198 0.599014 -0.454628 0
M  V30 2047 H 192.169 1.76183 -2.40836 0
M  V30 2048 C 190.918 3.19816 -1.36428 0
M  V30 2049 H 190.241 3.32385 -2.22171 0
M  V30 2050 H 191.681 3.99272 -1.42681 0
M  V30 2051 C 190.14 3.36809 -0.078191 0
M  V30 2052 O 190.67 3.92124 0.87188 0
M  V30 2053 N 188.876 2.906 0.00229266 0
M  V30 2054 H 188.423 2.45772 -0.771616 0
M  V30 2055 H 188.381 3.02347 0.862179 0
M  V30 2056 N 192.153 1.28127 0.917671 0
M  V30 2057 C 193.083 1.14248 2.03641 0
M  V30 2058 C 194.064 0.0412748 1.7005 0
M  V30 2059 O 195.249 0.217566 1.92977 0
M  V30 2060 C 192.379 0.799431 3.37974 0
M  V30 2061 C 191.333 1.85497 3.85713 0
M  V30 2062 C 190.659 1.36565 5.16966 0
M  V30 2063 C 191.959 3.26085 4.08002 0
M  V30 2064 H 193.653 2.07835 2.15511 0
M  V30 2065 H 191.199 1.00064 1.03553 0
M  V30 2066 H 193.152 0.689114 4.15727 0
M  V30 2067 H 191.876 -0.172145 3.26146 0
M  V30 2068 H 190.535 1.95437 3.10161 0
M  V30 2069 H 190.183 0.383253 5.01538 0
M  V30 2070 H 189.883 2.07143 5.49878 0
M  V30 2071 H 191.407 1.26848 5.97279 0
M  V30 2072 H 192.821 3.19089 4.76293 0
M  V30 2073 H 191.218 3.94462 4.52238 0
M  V30 2074 H 192.288 3.70394 3.12948 0
M  V30 2075 N 193.631 -1.12557 1.10312 0
M  V30 2076 C 194.856 -1.88405 0.867085 0
M  V30 2077 C 195.281 -1.79038 -0.576817 0
M  V30 2078 O 194.639 -1.14439 -1.40618 0
M  V30 2079 C 194.687 -3.3563 1.31851 0
M  V30 2080 O 193.791 -4.09565 0.482734 0
M  V30 2081 H 193.132 -0.585455 0.313271 0
M  V30 2082 H 195.662 -1.42352 1.4696 0
M  V30 2083 H 195.672 -3.86469 1.3079 0
M  V30 2084 H 194.347 -3.41765 2.37001 0
M  V30 2085 H 192.924 -3.68695 0.558448 0
M  V30 2086 N 195.109 -0.891671 -1.2995 0
M  V30 2087 C 196.339 -0.527893 -1.99742 0
M  V30 2088 C 196.747 0.88979 -1.66971 0
M  V30 2089 O 196.09 1.59766 -0.906667 0
M  V30 2090 C 196.152 -0.630804 -3.53922 0
M  V30 2091 C 195.816 -2.01401 -4.10228 0
M  V30 2092 C 196.813 -2.98422 -4.25724 0
M  V30 2093 C 194.498 -2.32121 -4.45449 0
M  V30 2094 C 196.492 -4.24293 -4.75662 0
M  V30 2095 C 194.179 -3.58237 -4.95086 0
M  V30 2096 C 195.177 -4.54137 -5.10146 0
M  V30 2097 O 194.865 -5.78014 -5.58708 0
M  V30 2098 H 194.597 -0.201953 -0.645129 0
M  V30 2099 H 197.151 -1.20076 -1.66646 0
M  V30 2100 H 195.381 0.0990616 -3.86573 0
M  V30 2101 H 197.07 -0.277338 -4.04951 0
M  V30 2102 H 197.836 -2.76001 -3.98809 0
M  V30 2103 H 193.715 -1.5824 -4.32991 0
M  V30 2104 H 197.259 -4.99153 -4.87332 0
M  V30 2105 H 193.156 -3.80491 -5.21437 0
M  V30 2106 H 193.924 -5.8049 -5.77039 0
M  V30 2107 N 196.587 1.43421 -0.653314 0
M  V30 2108 C 197.817 2.05864 -0.174238 0
M  V30 2109 C 198.225 1.49052 1.16534 0
M  V30 2110 O 197.568 0.616481 1.73047 0
M  V30 2111 C 197.63 3.59499 -0.00875873 0
M  V30 2112 C 197.294 4.38893 -1.27364 0
M  V30 2113 C 198.291 4.70947 -2.20239 0
M  V30 2114 C 195.976 4.789 -1.51525 0
M  V30 2115 C 197.97 5.41916 -3.35568 0
M  V30 2116 C 195.657 5.49614 -2.67147 0
M  V30 2117 C 196.655 5.81044 -3.58994 0
M  V30 2118 O 196.343 6.50313 -4.72597 0
M  V30 2119 H 196.075 0.670345 -0.0872549 0
M  V30 2120 H 198.629 1.84913 -0.894226 0
M  V30 2121 H 196.859 3.79025 0.7666 0
M  V30 2122 H 198.548 4.0364 0.427687 0
M  V30 2123 H 199.314 4.40558 -2.02815 0
M  V30 2124 H 195.193 4.53843 -0.809158 0
M  V30 2125 H 198.737 5.66365 -4.07279 0
M  V30 2126 H 194.634 5.79419 -2.84505 0
M  V30 2127 H 195.402 6.68795 -4.71864 0
M  V30 2128 N 198.065 0.39524 1.52563 0
M  V30 2129 C 199.293 -0.184943 2.06072 0
M  V30 2130 C 199.708 -1.40021 1.26647 0
M  V30 2131 O 199.065 -1.79767 0.314672 0
M  V30 2132 C 199.116 -0.549179 3.57304 0
M  V30 2133 O 198.837 0.617813 4.33722 0
M  V30 2134 C 200.338 -1.18459 4.2718 0
M  V30 2135 H 197.558 -0.0265025 0.670476 0
M  V30 2136 H 200.102 0.562184 1.96621 0
M  V30 2137 H 198.257 -1.2462 3.66809 0
M  V30 2138 H 198.671 0.317091 5.23541 0
M  V30 2139 H 200.145 -1.38976 5.34219 0
M  V30 2140 H 200.622 -2.15368 3.82771 0
M  V30 2141 H 201.228 -0.528163 4.22008 0
M  V30 2142 N 199.544 -1.57102 0.125237 0
M  V30 2143 C 200.96 -1.57915 -0.231322 0
M  V30 2144 C 201.16 -1.13833 -1.66266 0
M  V30 2145 O 200.216 -0.828581 -2.38518 0
M  V30 2146 C 201.529 -3.00699 0.00766489 0
M  V30 2147 C 203.077 -3.12947 -0.0577483 0
M  V30 2148 C 203.552 -4.57742 0.153626 0
M  V30 2149 N 205.043 -4.63092 0.0998073 0
M  V30 2150 C 205.778 -5.72905 0.238174 0
M  V30 2151 N 205.274 -6.91445 0.433057 0
M  V30 2152 N 207.067 -5.6182 0.177308 0
M  V30 2153 H 199.218 -1.84055 1.06007 0
M  V30 2154 H 201.481 -0.850905 0.417929 0
M  V30 2155 H 201.187 -3.3726 0.997431 0
M  V30 2156 H 201.061 -3.70236 -0.721452 0
M  V30 2157 H 203.448 -2.7624 -1.03804 0
M  V30 2158 H 203.529 -2.4594 0.70335 0
M  V30 2159 H 203.173 -4.95149 1.13092 0
M  V30 2160 H 203.103 -5.22848 -0.627534 0
M  V30 2161 H 205.594 -3.77871 -0.047051 0
M  V30 2162 H 205.907 -7.70985 0.529332 0
M  V30 2163 H 204.252 -6.93415 0.469109 0
M  V30 2164 H 207.443 -4.68093 0.0259748 0
M  V30 2165 H 207.616 -6.47357 0.288582 0
M  V30 2166 N 201.022 0.148545 -1.56898 0
M  V30 2167 C 201.985 1.16736 -1.97244 0
M  V30 2168 C 202.985 1.35947 -0.858777 0
M  V30 2169 O 204.175 1.32966 -1.12542 0
M  V30 2170 C 201.307 2.52798 -2.28705 0
M  V30 2171 H 202.5 0.821279 -2.88435 0
M  V30 2172 H 200.053 0.391831 -1.51309 0
M  V30 2173 H 200.788 2.92381 -1.403 0
M  V30 2174 H 200.573 2.40216 -3.09901 0
M  V30 2175 H 202.063 3.26179 -2.60762 0
M  V30 2176 N 202.5 1.5196 0.417844 0
M  V30 2177 C 203.43 1.77634 1.51554 0
M  V30 2178 C 204.411 0.626918 1.58126 0
M  V30 2179 O 205.596 0.871632 1.7354 0
M  V30 2180 C 202.726 1.91911 2.8946 0
M  V30 2181 C 201.68 3.07463 2.97743 0
M  V30 2182 C 201.006 3.06951 4.37819 0
M  V30 2183 C 202.306 4.47082 2.70027 0
M  V30 2184 H 204 2.6955 1.3032 0
M  V30 2185 H 201.546 1.29706 0.625492 0
M  V30 2186 H 203.499 2.08455 3.6623 0
M  V30 2187 H 202.223 0.966598 3.11969 0
M  V30 2188 H 200.882 2.90656 2.23416 0
M  V30 2189 H 200.53 2.09438 4.57323 0
M  V30 2190 H 200.23 3.84556 4.44286 0
M  V30 2191 H 201.754 3.25613 5.16535 0
M  V30 2192 H 203.168 4.6414 3.36522 0
M  V30 2193 H 201.565 5.2654 2.87881 0
M  V30 2194 H 202.635 4.55777 1.65514 0
M  V30 2195 N 203.978 -0.674533 1.42435 0
M  V30 2196 C 205.389 -1.25514 1.38214 0
M  V30 2197 C 205.74 -1.96055 0.0755464 0
M  V30 2198 O 204.865 -2.00028 -0.8257 0
M  V30 2199 C 205.46 -2.28269 2.50357 0
M  V30 2200 C 204.019 -2.81856 2.49467 0
M  V30 2201 C 203.166 -1.56182 2.29134 0
M  V30 2202 H 206.117 -0.467902 1.51646 0
M  V30 2203 H 206.138 -3.10009 2.20624 0
M  V30 2204 H 205.65 -1.769 3.45439 0
M  V30 2205 H 203.751 -3.37346 1.58204 0
M  V30 2206 H 203.864 -3.30854 3.46515 0
M  V30 2207 H 202.228 -1.82761 1.774 0
M  V30 2208 H 203.011 -1.06778 3.26272 0
M  V30 2209 N 205.456 -1.28612 -0.910864 0
M  V30 2210 C 206.867 -1.14406 -1.47541 0
M  V30 2211 C 207.218 0.264901 -1.94403 0
M  V30 2212 O 206.343 1.15942 -1.82719 0
M  V30 2213 C 206.938 -2.07073 -2.68153 0
M  V30 2214 C 205.497 -1.96923 -3.20778 0
M  V30 2215 C 204.644 -1.98646 -1.93481 0
M  V30 2216 H 207.595 -1.41259 -0.723291 0
M  V30 2217 H 207.616 -1.63642 -3.43514 0
M  V30 2218 H 207.128 -3.09611 -2.34015 0
M  V30 2219 H 205.229 -0.97433 -3.59635 0
M  V30 2220 H 205.342 -2.84026 -3.85832 0
M  V30 2221 H 203.706 -1.43093 -2.10705 0
M  V30 2222 H 204.489 -3.02868 -1.61634 0
M  V30 2223 N 206.934 1.1197 -1.10907 0
M  V30 2224 C 208.18 1.8386 -0.855773 0
M  V30 2225 C 208.513 1.84134 0.617103 0
M  V30 2226 O 207.788 1.29041 1.45529 0
M  V30 2227 C 208.071 3.31305 -1.411 0
M  V30 2228 C 207.924 3.39456 -2.9511 0
M  V30 2229 C 209.243 4.2721 -1.05736 0
M  V30 2230 H 206.362 0.667545 -0.312334 0
M  V30 2231 H 209.004 1.31331 -1.37303 0
M  V30 2232 H 207.154 3.76169 -0.97105 0
M  V30 2233 H 208.826 3.03191 -3.47668 0
M  V30 2234 H 207.069 2.79849 -3.31462 0
M  V30 2235 H 207.74 4.43209 -3.29044 0
M  V30 2236 H 210.216 3.90497 -1.43706 0
M  V30 2237 H 209.092 5.28775 -1.47269 0
M  V30 2238 H 209.353 4.42088 0.0325958 0
M  V30 2239 N 208.412 0.89855 1.29475 0
M  V30 2240 C 209.823 0.572537 1.77705 0
M  V30 2241 C 210.174 -0.911778 1.73727 0
M  V30 2242 O 209.299 -1.71288 1.32247 0
M  V30 2243 C 209.894 1.03252 3.22683 0
M  V30 2244 C 208.453 0.757687 3.68695 0
M  V30 2245 C 207.6 1.20787 2.49612 0
M  V30 2246 H 210.551 1.08139 1.16153 0
M  V30 2247 H 210.572 0.367307 3.78723 0
M  V30 2248 H 210.084 2.11285 3.25546 0
M  V30 2249 H 208.185 -0.310079 3.71308 0
M  V30 2250 H 208.298 1.35476 4.59547 0
M  V30 2251 H 206.662 0.626888 2.46865 0
M  V30 2252 H 207.445 2.29622 2.55203 0
M  V30 2253 N 209.89 -1.43072 0.660911 0
M  V30 2254 C 211.167 -1.95307 0.107017 0
M  V30 2255 C 211.547 -1.60192 -1.37484 0
M  V30 2256 O 210.895 -0.890949 -2.10415 0
M  V30 2257 C 211.105 -3.47124 0.361402 0
M  V30 2258 C 212.453 -4.23738 0.270455 0
M  V30 2259 O 213.477 -3.54981 0.294382 0
M  V30 2260 O 212.336 -5.46131 0.200737 0
M  V30 2261 H 209.43 -0.826984 -0.00517729 0
M  V30 2262 H 211.976 -1.52972 0.734681 0
M  V30 2263 H 210.748 -3.65837 1.38848 0
M  V30 2264 H 210.371 -3.96475 -0.298953 0
M  V30 2265 N 211.368 -0.403325 -1.52352 0
M  V30 2266 C 212.645 0.232611 -1.94212 0
M  V30 2267 C 213.025 1.63133 -1.33981 0
M  V30 2268 O 212.373 2.22659 -0.513344 0
M  V30 2269 C 212.583 0.244811 -3.4814 0
M  V30 2270 C 213.931 0.46698 -4.22024 0
M  V30 2271 O 214.955 0.324419 -3.5472 0
M  V30 2272 O 213.814 0.74747 -5.41364 0
M  V30 2273 H 210.908 0.148223 -0.813609 0
M  V30 2274 H 213.454 -0.458848 -1.63379 0
M  V30 2275 H 212.226 -0.734378 -3.84347 0
M  V30 2276 H 211.849 0.980611 -3.85318 0
M  V30 2277 N 212.846 1.57033 -0.133567 0
M  V30 2278 C 214.086 1.97575 0.523789 0
M  V30 2279 C 214.45 1.01605 1.62912 0
M  V30 2280 O 215.651 1.3114 2.3464 0
M  V30 2281 C 213.922 3.42256 1.02935 0
M  V30 2282 S 215.481 4.04817 1.69319 0
M  V30 2283 H 212.299 0.690427 0.169799 0
M  V30 2284 H 214.901 1.94234 -0.222101 0
M  V30 2285 H 213.605 4.09842 0.213917 0
M  V30 2286 H 213.136 3.4928 1.81017 0
M  V30 2287 H 215.151 3.96767 2.97977 0
M  V30 2288 N 214.325 -0.140222 1.56975 0
M  V30 2289 C 215.736 -0.699596 1.73097 0
M  V30 2290 C 216.087 -1.8134 0.749022 0
M  V30 2291 O 215.212 -2.16241 -0.0828503 0
M  V30 2292 C 215.807 -1.27582 3.1386 0
M  V30 2293 C 214.366 -1.78169 3.31561 0
M  V30 2294 C 213.513 -0.672855 2.69013 0
M  V30 2295 H 216.464 0.0855115 1.58469 0
M  V30 2296 H 216.485 -2.14561 3.14235 0
M  V30 2297 H 215.997 -0.464955 3.85305 0
M  V30 2298 H 214.098 -2.61801 2.65124 0
M  V30 2299 H 214.211 -1.90574 4.39566 0
M  V30 2300 H 212.575 -1.10118 2.29665 0
M  V30 2301 H 213.358 0.126679 3.43066 0
M  V30 2302 N 215.803 -1.52179 -0.40978 0
M  V30 2303 C 217.031 -1.70054 -1.17853 0
M  V30 2304 C 217.446 -0.409735 -1.843 0
M  V30 2305 O 216.803 0.614183 -1.71855 0
M  V30 2306 C 216.854 -2.83568 -2.24213 0
M  V30 2307 O 216.575 -4.0765 -1.60478 0
M  V30 2308 C 218.076 -3.12947 -3.13973 0
M  V30 2309 H 215.296 -0.569917 -0.354169 0
M  V30 2310 H 217.84 -1.98734 -0.482198 0
M  V30 2311 H 215.995 -2.57409 -2.89516 0
M  V30 2312 H 216.409 -4.70899 -2.30986 0
M  V30 2313 H 217.883 -3.95889 -3.84677 0
M  V30 2314 H 218.36 -2.26472 -3.76307 0
M  V30 2315 H 218.966 -3.40868 -2.5434 0
M  V30 2316 N 217.281 0.66697 -1.42791 0
M  V30 2317 C 218.692 1.2478 -1.38877 0
M  V30 2318 C 219.043 1.96012 -0.0859426 0
M  V30 2319 O 218.168 2.00463 0.815081 0
M  V30 2320 C 218.763 2.26938 -2.51564 0
M  V30 2321 C 217.322 2.80529 -2.50959 0
M  V30 2322 C 216.469 1.54965 -2.29959 0
M  V30 2323 H 219.42 0.459853 -1.51892 0
M  V30 2324 H 219.441 3.08834 -2.22265 0
M  V30 2325 H 218.953 1.75065 -3.46372 0
M  V30 2326 H 217.054 3.36502 -1.59991 0
M  V30 2327 H 217.167 3.29012 -3.48265 0
M  V30 2328 H 215.531 1.81817 -1.78366 0
M  V30 2329 H 216.314 1.05047 -3.26833 0
M  V30 2330 N 218.759 1.29093 0.90403 0
M  V30 2331 C 219.692 1.08176 2.00931 0
M  V30 2332 C 220.67 -0.005083 1.62599 0
M  V30 2333 O 221.854 0.144765 1.87943 0
M  V30 2334 C 218.981 0.645897 3.32484 0
M  V30 2335 C 218.027 1.73081 3.89801 0
M  V30 2336 S 218.86 3.32905 4.19446 0
M  V30 2337 C 220.016 2.91176 5.54046 0
M  V30 2338 H 220.249 2.01752 2.18365 0
M  V30 2339 H 217.782 1.13191 1.0501 0
M  V30 2340 H 219.74 0.401131 4.08535 0
M  V30 2341 H 218.401 -0.270188 3.12936 0
M  V30 2342 H 217.594 1.37768 4.84805 0
M  V30 2343 H 217.196 1.92888 3.20422 0
M  V30 2344 H 219.488 2.37952 6.34338 0
M  V30 2345 H 220.431 3.85014 5.94281 0
M  V30 2346 H 220.839 2.296 5.15698 0
M  V30 2347 N 220.237 -1.11381 1.11499 0
M  V30 2348 C 221.485 -1.8277 0.862524 0
M  V30 2349 C 221.806 -1.85097 -0.613534 0
M  V30 2350 O 221.076 -1.32198 -1.4457 0
M  V30 2351 H 219.656 -0.676823 0.316101 0
M  V30 2352 H 222.318 -1.34816 1.4075 0
M  V30 2353 H 221.414 -2.86614 1.23527 0
M  V30 2354 N 221.715 -0.905404 -1.28997 0
M  V30 2355 C 222.961 -0.535039 -1.95615 0
M  V30 2356 C 223.294 0.917404 -1.71165 0
M  V30 2357 O 222.569 1.65123 -1.02785 0
M  V30 2358 C 222.852 -0.834918 -3.50287 0
M  V30 2359 C 222.705 -2.33948 -3.84172 0
M  V30 2360 C 224.024 -0.325318 -4.38896 0
M  V30 2361 H 221.143 -0.195861 -0.710498 0
M  V30 2362 H 223.785 -1.13313 -1.52513 0
M  V30 2363 H 221.935 -0.325904 -3.87131 0
M  V30 2364 H 223.607 -2.91847 -3.57243 0
M  V30 2365 H 221.85 -2.79789 -3.31513 0
M  V30 2366 H 222.521 -2.49987 -4.92149 0
M  V30 2367 H 224.997 -0.761256 -4.09077 0
M  V30 2368 H 223.873 -0.564295 -5.45992 0
M  V30 2369 H 224.134 0.774144 -4.35269 0
M  V30 2370 N 223.193 1.4272 -0.668489 0
M  V30 2371 C 224.14 2.30796 0.0137489 0
M  V30 2372 C 225.11 1.4561 0.799177 0
M  V30 2373 O 226.295 1.74453 0.772702 0
M  V30 2374 C 223.435 3.31377 0.963507 0
M  V30 2375 C 222.548 4.31655 0.172569 0
M  V30 2376 C 221.683 5.19312 1.1175 0
M  V30 2377 C 220.722 6.11274 0.317886 0
M  V30 2378 N 219.859 6.91504 1.2152 0
M  V30 2379 H 224.699 2.88585 -0.743161 0
M  V30 2380 H 222.236 1.42154 -0.378226 0
M  V30 2381 H 224.194 3.88214 1.52792 0
M  V30 2382 H 222.824 2.75202 1.68712 0
M  V30 2383 H 221.876 3.76988 -0.508374 0
M  V30 2384 H 223.188 4.96779 -0.448527 0
M  V30 2385 H 222.342 5.80851 1.75206 0
M  V30 2386 H 221.081 4.5435 1.77249 0
M  V30 2387 H 220.086 5.48809 -0.329918 0
M  V30 2388 H 221.311 6.78283 -0.332917 0
M  V30 2389 H 219.257 6.29176 1.85671 0
M  V30 2390 H 219.174 7.53209 0.649036 0
M  V30 2391 H 220.442 7.57535 1.83742 0
M  V30 2392 N 224.671 0.411399 1.52136 0
M  V30 2393 C 225.919 -0.163322 2.01439 0
M  V30 2394 C 226.24 -1.45453 1.29879 0
M  V30 2395 O 225.51 -1.91225 0.4254 0
M  V30 2396 H 224.09 -0.0633447 0.744309 0
M  V30 2397 H 226.752 0.548161 1.87033 0
M  V30 2398 H 225.848 -0.357817 3.10042 0
M  V30 2399 N 226.149 -1.5696 0.141893 0
M  V30 2400 C 227.096 -2.16501 -0.799737 0
M  V30 2401 C 228.066 -1.09643 -1.24771 0
M  V30 2402 O 229.251 -1.3766 -1.32115 0
M  V30 2403 C 226.391 -2.78679 -2.03549 0
M  V30 2404 C 225.504 -3.99914 -1.6338 0
M  V30 2405 C 224.639 -4.50106 -2.82096 0
M  V30 2406 C 223.678 -5.63819 -2.38275 0
M  V30 2407 N 222.815 -6.08651 -3.49983 0
M  V30 2408 H 227.655 -2.96632 -0.285179 0
M  V30 2409 H 225.192 -1.46533 -0.129053 0
M  V30 2410 H 227.15 -3.1287 -2.75986 0
M  V30 2411 H 225.78 -2.012 -2.52425 0
M  V30 2412 H 224.832 -3.71735 -0.807279 0
M  V30 2413 H 226.144 -4.82311 -1.27192 0
M  V30 2414 H 225.298 -4.86325 -3.62729 0
M  V30 2415 H 224.037 -3.66706 -3.21525 0
M  V30 2416 H 223.042 -5.2718 -1.56081 0
M  V30 2417 H 224.267 -6.49 -1.99938 0
M  V30 2418 H 222.213 -5.28188 -3.89042 0
M  V30 2419 H 222.13 -6.85961 -3.17794 0
M  V30 2420 H 223.398 -6.49515 -4.30988 0
M  V30 2421 N 227.627 0.131896 -1.57047 0
M  V30 2422 C 228.574 1.16236 -1.99393 0
M  V30 2423 C 229.544 1.41863 -0.863943 0
M  V30 2424 O 230.729 1.53946 -1.12718 0
M  V30 2425 C 227.869 2.48708 -2.39245 0
M  V30 2426 C 226.982 2.30127 -3.65603 0
M  V30 2427 C 226.117 3.55738 -3.94492 0
M  V30 2428 C 225.156 3.32259 -5.14073 0
M  V30 2429 N 224.293 4.50039 -5.38896 0
M  V30 2430 H 229.133 0.794251 -2.87221 0
M  V30 2431 H 226.67 0.380707 -1.42088 0
M  V30 2432 H 228.628 3.25969 -2.60384 0
M  V30 2433 H 227.258 2.83437 -1.54478 0
M  V30 2434 H 226.31 1.43845 -3.52154 0
M  V30 2435 H 227.622 2.08746 -4.5302 0
M  V30 2436 H 226.776 4.41423 -4.1621 0
M  V30 2437 H 225.515 3.80138 -3.05526 0
M  V30 2438 H 224.52 2.44963 -4.92212 0
M  V30 2439 H 225.745 3.09242 -6.04604 0
M  V30 2440 H 223.691 4.74584 -4.52886 0
M  V30 2441 H 223.608 4.31716 -6.2061 0
M  V30 2442 H 224.876 5.36895 -5.65123 0
M  V30 2443 N 229.106 1.52395 0.401703 0
M  V30 2444 C 230.016 1.7917 1.51444 0
M  V30 2445 C 231.032 0.677691 1.6026 0
M  V30 2446 O 232.208 0.963909 1.76835 0
M  V30 2447 C 229.273 1.94347 2.87107 0
M  V30 2448 C 228.334 3.18257 2.88116 0
M  V30 2449 C 227.567 3.32701 4.17308 0
M  V30 2450 O 227.79 2.52238 5.11598 0
M  V30 2451 O 226.724 4.25891 4.25324 0
M  V30 2452 H 230.55 2.73633 1.31752 0
M  V30 2453 H 228.135 1.3733 0.588296 0
M  V30 2454 H 230.017 2.06109 3.67555 0
M  V30 2455 H 228.692 1.03073 3.06851 0
M  V30 2456 H 227.599 3.11947 2.06494 0
M  V30 2457 H 228.932 4.09336 2.73322 0
M  V30 2458 N 230.584 -0.659388 1.43143 0
M  V30 2459 C 231.514 -1.78422 1.50625 0
M  V30 2460 C 232.495 -1.66216 0.361443 0
M  V30 2461 O 233.68 -1.85404 0.577834 0
M  V30 2462 C 230.81 -3.16815 1.42287 0
M  V30 2463 C 229.764 -3.43777 2.54954 0
M  V30 2464 C 229.09 -4.81905 2.31671 0
M  V30 2465 C 230.39 -3.39134 3.97222 0
M  V30 2466 H 232.084 -1.72417 2.44771 0
M  V30 2467 H 229.63 -0.828084 1.17808 0
M  V30 2468 H 231.583 -3.95253 1.46127 0
M  V30 2469 H 230.307 -3.23534 0.446435 0
M  V30 2470 H 228.966 -2.67707 2.50457 0
M  V30 2471 H 228.614 -4.85294 1.32284 0
M  V30 2472 H 228.314 -5.00906 3.07192 0
M  V30 2473 H 229.838 -5.62609 2.37284 0
M  V30 2474 H 231.252 -4.07518 4.03239 0
M  V30 2475 H 229.649 -3.69671 4.72719 0
M  V30 2476 H 230.719 -2.37426 4.22797 0
M  V30 2477 N 232.062 -1.29571 -0.897171 0
M  V30 2478 C 233.473 -1.15964 -1.46319 0
M  V30 2479 C 233.824 0.244267 -1.94674 0
M  V30 2480 O 232.949 1.13998 -1.83939 0
M  V30 2481 C 233.544 -2.09906 -2.65942 0
M  V30 2482 C 232.103 -2.00314 -3.18671 0
M  V30 2483 C 231.25 -2.00687 -1.91363 0
M  V30 2484 H 234.201 -1.42019 -0.708268 0
M  V30 2485 H 234.222 -1.67276 -3.41759 0
M  V30 2486 H 233.734 -3.12075 -2.30718 0
M  V30 2487 H 231.835 -1.01242 -3.58582 0
M  V30 2488 H 231.948 -2.88102 -3.82798 0
M  V30 2489 H 230.312 -1.45319 -2.09175 0
M  V30 2490 H 231.095 -3.04566 -1.58413 0
M  V30 2491 N 233.54 1.10788 -1.12088 0
M  V30 2492 C 234.817 1.79136 -0.785476 0
M  V30 2493 C 235.197 1.98246 0.725377 0
M  V30 2494 O 234.545 1.57258 1.65778 0
M  V30 2495 C 234.755 3.12375 -1.55636 0
M  V30 2496 C 236.103 3.8731 -1.74001 0
M  V30 2497 O 237.127 3.22085 -1.52117 0
M  V30 2498 O 235.986 5.04369 -2.10415 0
M  V30 2499 H 233.08 0.776226 -0.285311 0
M  V30 2500 H 235.626 1.1747 -1.2247 0
M  V30 2501 H 234.398 2.93863 -2.5838 0
M  V30 2502 H 234.021 3.81758 -1.11114 0
M  V30 2503 N 235.018 0.912232 1.28515 0
M  V30 2504 C 236.243 0.559774 1.99703 0
M  V30 2505 C 236.668 -0.851393 1.67729 0
M  V30 2506 O 236.026 -1.56875 0.908834 0
M  V30 2507 C 236.074 0.773874 3.52198 0
M  V30 2508 O 235.178 -0.167842 4.12058 0
M  V30 2509 H 234.519 0.21723 0.627461 0
M  V30 2510 H 237.049 1.22725 1.63706 0
M  V30 2511 H 237.059 0.683386 4.02236 0
M  V30 2512 H 235.734 1.80261 3.74805 0
M  V30 2513 H 234.311 -0.0287509 3.72889 0
M  V30 2514 N 236.496 -1.42363 0.676048 0
M  V30 2515 C 237.443 -2.308 -0.00150904 0
M  V30 2516 C 238.413 -1.46032 -0.791444 0
M  V30 2517 O 239.598 -1.74861 -0.76344 0
M  V30 2518 C 236.738 -3.31883 -0.945919 0
M  V30 2519 C 235.851 -4.31741 -0.149675 0
M  V30 2520 C 234.986 -5.19898 -1.08995 0
M  V30 2521 C 234.025 -6.11434 -0.285465 0
M  V30 2522 N 233.162 -6.92138 -1.17851 0
M  V30 2523 H 238.002 -2.88187 0.758455 0
M  V30 2524 H 235.539 -1.41952 0.38576 0
M  V30 2525 H 237.497 -3.89019 -1.50731 0
M  V30 2526 H 236.127 -2.76093 -1.6725 0
M  V30 2527 H 235.179 -3.76713 0.528359 0
M  V30 2528 H 236.491 -4.96534 0.474866 0
M  V30 2529 H 235.645 -5.81772 -1.72123 0
M  V30 2530 H 234.384 -4.55284 -1.74837 0
M  V30 2531 H 233.389 -5.48627 0.359018 0
M  V30 2532 H 234.614 -6.78097 0.368883 0
M  V30 2533 H 232.56 -6.30152 -1.82332 0
M  V30 2534 H 232.477 -7.53542 -0.609082 0
M  V30 2535 H 233.745 -7.58499 -1.79722 0
M  V30 2536 N 237.974 -0.419461 -1.51915 0
M  V30 2537 C 238.884 0.407528 -2.31033 0
M  V30 2538 C 239.9 1.04413 -1.3919 0
M  V30 2539 O 241.076 1.0434 -1.72265 0
M  V30 2540 C 238.141 1.50365 -3.12396 0
M  V30 2541 C 237.202 0.889029 -4.19994 0
M  V30 2542 C 236.435 1.93291 -4.97468 0
M  V30 2543 O 236.658 3.15259 -4.75361 0
M  V30 2544 O 235.592 1.53339 -5.8204 0
M  V30 2545 H 239.418 -0.237865 -3.02767 0
M  V30 2546 H 237.003 -0.182413 -1.48282 0
M  V30 2547 H 238.885 2.13975 -3.63032 0
M  V30 2548 H 237.56 2.13345 -2.43445 0
M  V30 2549 H 236.467 0.215353 -3.7348 0
M  V30 2550 H 237.8 0.302991 -4.91267 0
M  V30 2551 N 239.452 1.56882 -0.150215 0
M  V30 2552 C 240.701 1.95403 0.500071 0
M  V30 2553 C 241.014 1.03777 1.658 0
M  V30 2554 O 242.22 1.31889 2.37313 0
M  V30 2555 C 240.676 3.4738 0.941018 0
M  V30 2556 C 240.284 4.47596 -0.190158 0
M  V30 2557 C 242.028 3.9476 1.56091 0
M  V30 2558 C 239.935 5.90787 0.269237 0
M  V30 2559 H 238.865 0.729515 0.190588 0
M  V30 2560 H 241.516 1.81988 -0.235074 0
M  V30 2561 H 239.898 3.56138 1.73152 0
M  V30 2562 H 241.072 4.50536 -0.967157 0
M  V30 2563 H 239.387 4.10151 -0.718666 0
M  V30 2564 H 241.984 4.99181 1.9163 0
M  V30 2565 H 242.327 3.36494 2.45107 0
M  V30 2566 H 242.86 3.88932 0.835249 0
M  V30 2567 H 239.599 6.52879 -0.585621 0
M  V30 2568 H 239.119 5.912 1.01204 0
M  V30 2569 H 240.798 6.42979 0.720176 0
M  V30 2570 N 240.93 -0.123565 1.57115 0
M  V30 2571 C 242.176 -0.833386 1.84885 0
M  V30 2572 C 242.509 -1.79742 0.735292 0
M  V30 2573 O 241.784 -1.92764 -0.25925 0
M  V30 2574 C 242.067 -1.5873 3.23228 0
M  V30 2575 C 241.92 -0.643183 4.45178 0
M  V30 2576 C 243.239 -2.54453 3.59085 0
M  V30 2577 H 240.358 -0.301518 0.6725 0
M  V30 2578 H 243 -0.097778 1.89748 0
M  V30 2579 H 241.15 -2.21438 3.19214 0
M  V30 2580 H 242.822 -0.0253015 4.61293 0
M  V30 2581 H 241.065 0.0456139 4.33776 0
M  V30 2582 H 241.736 -1.20724 5.38637 0
M  V30 2583 H 244.212 -2.01853 3.63861 0
M  V30 2584 H 243.088 -3.04238 4.5687 0
M  V30 2585 H 243.349 -3.36906 2.86264 0
M  V30 2586 N 242.408 -1.52605 -0.393616 0
M  V30 2587 C 243.318 -1.79971 -1.50492 0
M  V30 2588 C 244.334 -0.686181 -1.59899 0
M  V30 2589 O 245.51 -0.973274 -1.76322 0
M  V30 2590 C 242.575 -1.95867 -2.86072 0
M  V30 2591 C 241.636 -3.19781 -2.86424 0
M  V30 2592 C 240.869 -3.34909 -4.15538 0
M  V30 2593 O 241.092 -2.54948 -5.10253 0
M  V30 2594 O 240.026 -4.28141 -4.23059 0
M  V30 2595 H 243.852 -2.74328 -1.30299 0
M  V30 2596 H 241.437 -1.3764 -0.581005 0
M  V30 2597 H 243.319 -2.08056 -3.66457 0
M  V30 2598 H 241.994 -1.04699 -3.063 0
M  V30 2599 H 240.901 -3.13038 -2.04837 0
M  V30 2600 H 242.234 -4.1078 -2.71147 0
M  V30 2601 N 243.887 0.651787 -1.4349 0
M  V30 2602 C 244.834 1.76462 -1.4876 0
M  V30 2603 C 245.804 1.62641 -0.337189 0
M  V30 2604 O 246.989 1.82864 -0.544544 0
M  V30 2605 C 244.129 3.14623 -1.41796 0
M  V30 2606 C 243.242 3.39568 -2.67053 0
M  V30 2607 C 242.377 4.67585 -2.52068 0
M  V30 2608 C 241.416 4.85639 -3.72587 0
M  V30 2609 N 240.553 6.04915 -3.56402 0
M  V30 2610 H 245.393 1.71293 -2.43849 0
M  V30 2611 H 242.93 0.835889 -1.21043 0
M  V30 2612 H 244.888 3.94496 -1.35753 0
M  V30 2613 H 243.518 3.18859 -0.50288 0
M  V30 2614 H 242.57 2.53783 -2.8337 0
M  V30 2615 H 243.882 3.48795 -3.56572 0
M  V30 2616 H 243.036 5.55586 -2.4374 0
M  V30 2617 H 241.775 4.60681 -1.60075 0
M  V30 2618 H 240.78 3.96073 -3.81321 0
M  V30 2619 H 242.005 4.94372 -4.65589 0
M  V30 2620 H 239.951 5.9914 -2.67146 0
M  V30 2621 H 239.868 6.15106 -4.39524 0
M  V30 2622 H 241.136 6.95533 -3.51929 0
M  V30 2623 N 245.365 1.30045 0.890287 0
M  V30 2624 C 246.612 1.18561 1.64163 0
M  V30 2625 C 246.94 -0.260852 1.92743 0
M  V30 2626 O 246.195 -1.20376 1.54299 0
M  V30 2627 C 246.494 1.95409 2.99249 0
M  V30 2628 C 246.16 3.45066 2.90242 0
M  V30 2629 C 244.822 3.85878 2.87492 0
M  V30 2630 C 247.174 4.4039 2.78758 0
M  V30 2631 C 244.502 5.20314 2.7109 0
M  V30 2632 C 246.854 5.74928 2.63894 0
M  V30 2633 C 245.518 6.14986 2.59516 0
M  V30 2634 H 244.788 0.433846 0.600715 0
M  V30 2635 H 247.435 1.61088 1.03552 0
M  V30 2636 H 245.74 1.45501 3.63781 0
M  V30 2637 H 247.437 1.8392 3.56334 0
M  V30 2638 H 244.027 3.12631 2.93189 0
M  V30 2639 H 248.211 4.09806 2.79952 0
M  V30 2640 H 243.467 5.50449 2.66112 0
M  V30 2641 H 247.641 6.48434 2.53981 0
M  V30 2642 H 245.268 7.19104 2.46565 0
M  V30 2643 N 246.843 -1.10192 1.12674 0
M  V30 2644 C 247.773 -2.18652 0.819362 0
M  V30 2645 C 248.754 -1.68698 -0.217915 0
M  V30 2646 O 249.939 -1.94041 -0.0785581 0
M  V30 2647 C 247.069 -3.46202 0.27594 0
M  V30 2648 C 246.023 -4.09444 1.24656 0
M  V30 2649 C 245.349 -5.31725 0.563258 0
M  V30 2650 C 246.649 -4.52863 2.60217 0
M  V30 2651 H 248.343 -2.44622 1.72628 0
M  V30 2652 H 245.889 -1.17571 0.831451 0
M  V30 2653 H 247.842 -4.21372 0.0486149 0
M  V30 2654 H 246.566 -3.1973 -0.666331 0
M  V30 2655 H 245.225 -3.36284 1.45974 0
M  V30 2656 H 244.873 -5.0153 -0.384235 0
M  V30 2657 H 244.573 -5.74991 1.21075 0
M  V30 2658 H 246.097 -6.09624 0.34503 0
M  V30 2659 H 247.511 -5.19294 2.42913 0
M  V30 2660 H 245.908 -5.06986 3.21068 0
M  V30 2661 H 246.978 -3.65656 3.18471 0
M  V30 2662 N 248.321 -0.919034 -1.28029 0
M  V30 2663 C 249.251 -0.428581 -2.29533 0
M  V30 2664 C 250.232 0.50659 -1.62381 0
M  V30 2665 O 251.417 0.413195 -1.89753 0
M  V30 2666 C 248.547 0.327388 -3.45753 0
M  V30 2667 C 247.501 -0.519137 -4.2484 0
M  V30 2668 C 246.827 0.365486 -5.33449 0
M  V30 2669 C 248.127 -1.77914 -4.91064 0
M  V30 2670 H 249.821 -1.27687 -2.70807 0
M  V30 2671 H 247.367 -0.615428 -1.30186 0
M  V30 2672 H 249.32 0.681378 -4.15855 0
M  V30 2673 H 248.044 1.20963 -3.03374 0
M  V30 2674 H 246.703 -0.855717 -3.56473 0
M  V30 2675 H 246.351 1.24642 -4.87312 0
M  V30 2676 H 246.051 -0.197356 -5.87268 0
M  V30 2677 H 247.575 0.715241 -6.06396 0
M  V30 2678 H 248.989 -1.49374 -5.53498 0
M  V30 2679 H 247.386 -2.2848 -5.54903 0
M  V30 2680 H 248.456 -2.50382 -4.15255 0
M  V30 2681 N 249.799 1.42003 -0.683588 0
M  V30 2682 C 251.215 1.55625 -0.353976 0
M  V30 2683 C 251.415 1.66151 1.14 0
M  V30 2684 O 250.471 1.63329 1.92561 0
M  V30 2685 C 251.784 2.80171 -1.092 0
M  V30 2686 C 253.332 2.93954 -1.07518 0
M  V30 2687 C 253.807 4.21372 -1.79471 0
M  V30 2688 N 255.298 4.28303 -1.76381 0
M  V30 2689 C 256.033 5.25729 -2.28904 0
M  V30 2690 N 255.529 6.29254 -2.89846 0
M  V30 2691 N 257.322 5.17586 -2.19228 0
M  V30 2692 H 249.473 1.33415 -1.6527 0
M  V30 2693 H 251.736 0.64282 -0.696769 0
M  V30 2694 H 251.442 2.78561 -2.14701 0
M  V30 2695 H 251.316 3.7133 -0.662862 0
M  V30 2696 H 253.703 2.95086 -0.028475 0
M  V30 2697 H 253.784 2.04002 -1.54328 0
M  V30 2698 H 253.428 4.21001 -2.84114 0
M  V30 2699 H 253.358 5.10275 -1.30104 0
M  V30 2700 H 255.849 3.54119 -1.31939 0
M  V30 2701 H 256.162 6.99964 -3.27522 0
M  V30 2702 H 254.507 6.29791 -2.93919 0
M  V30 2703 H 257.698 4.35631 -1.71299 0
M  V30 2704 H 257.871 5.93348 -2.60466 0
M  V30 2705 N 251.277 0.427512 1.51691 0
M  V30 2706 C 252.693 0.0792977 1.59403 0
M  V30 2707 C 252.893 -1.41035 1.43914 0
M  V30 2708 O 251.949 -2.17922 1.27539 0
M  V30 2709 C 253.262 0.590636 2.94842 0
M  V30 2710 C 254.81 0.550215 3.08126 0
M  V30 2711 C 255.285 1.03836 4.46074 0
M  V30 2712 N 256.776 0.995943 4.52366 0
M  V30 2713 C 257.511 1.34463 5.57411 0
M  V30 2714 N 257.007 1.76569 6.69922 0
M  V30 2715 N 258.8 1.26343 5.47717 0
M  V30 2716 H 250.951 1.39687 1.60004 0
M  V30 2717 H 253.214 0.575003 0.753708 0
M  V30 2718 H 252.92 1.63251 3.11516 0
M  V30 2719 H 252.794 0.0102061 3.77199 0
M  V30 2720 H 255.181 -0.482654 2.91126 0
M  V30 2721 H 255.262 1.16693 2.27632 0
M  V30 2722 H 254.906 2.06965 4.63819 0
M  V30 2723 H 254.836 0.398286 5.25092 0
M  V30 2724 H 257.327 0.68661 3.7161 0
M  V30 2725 H 257.64 2.01438 7.46085 0
M  V30 2726 H 255.985 1.80488 6.71155 0
M  V30 2727 H 259.176 0.933209 4.58703 0
M  V30 2728 H 259.349 1.53846 6.29472 0
M  V30 2729 N 252.755 -1.56801 0.158532 0
M  V30 2730 C 253.702 -2.17337 -0.776729 0
M  V30 2731 C 254.672 -1.1096 -1.23601 0
M  V30 2732 O 255.857 -1.39054 -1.30647 0
M  V30 2733 C 252.997 -2.80822 -2.00582 0
M  V30 2734 C 252.11 -4.01624 -1.59129 0
M  V30 2735 C 251.245 -4.53072 -2.77306 0
M  V30 2736 C 250.284 -5.66314 -2.32282 0
M  V30 2737 N 249.421 -6.12329 -3.43508 0
M  V30 2738 H 254.261 -2.96918 -0.253701 0
M  V30 2739 H 251.798 -1.46661 -0.113504 0
M  V30 2740 H 253.756 -3.15779 -2.72652 0
M  V30 2741 H 252.386 -2.03866 -2.50277 0
M  V30 2742 H 251.438 -3.72571 -0.767806 0
M  V30 2743 H 252.75 -4.83633 -1.2207 0
M  V30 2744 H 251.904 -4.90145 -3.57551 0
M  V30 2745 H 250.643 -3.70095 -3.17617 0
M  V30 2746 H 249.648 -5.28806 -1.5048 0
M  V30 2747 H 250.873 -6.51085 -1.93043 0
M  V30 2748 H 248.819 -5.32284 -3.83418 0
M  V30 2749 H 248.736 -6.89293 -3.105 0
M  V30 2750 H 250.004 -6.5405 -4.24075 0
M  V30 2751 N 254.233 0.115231 -1.57178 0
M  V30 2752 C 255.48 0.822351 -1.8505 0
M  V30 2753 C 255.808 1.79701 -0.744168 0
M  V30 2754 O 255.063 1.93909 0.26414 0
M  V30 2755 C 255.362 1.60324 -3.19423 0
M  V30 2756 C 255.028 0.772536 -4.44233 0
M  V30 2757 C 253.69 0.543468 -4.78121 0
M  V30 2758 C 256.042 0.193746 -5.2084 0
M  V30 2759 C 253.37 -0.274583 -5.86057 0
M  V30 2760 C 255.722 -0.611517 -6.29637 0
M  V30 2761 C 254.386 -0.850867 -6.62055 0
M  V30 2762 H 253.656 0.30092 -0.677147 0
M  V30 2763 H 256.303 0.0845802 -1.91313 0
M  V30 2764 H 254.608 2.41203 -3.08753 0
M  V30 2765 H 256.305 2.1544 -3.38211 0
M  V30 2766 H 252.895 0.96117 -4.17683 0
M  V30 2767 H 257.079 0.357926 -4.95008 0
M  V30 2768 H 252.335 -0.469206 -6.09597 0
M  V30 2769 H 256.509 -1.06697 -6.88178 0
M  V30 2770 H 254.136 -1.48657 -7.45523 0
M  V30 2771 N 255.711 1.52812 0.385517 0
M  V30 2772 C 256.96 1.67249 1.12741 0
M  V30 2773 C 257.273 0.4205 1.91027 0
M  V30 2774 O 258.479 0.445064 2.67827 0
M  V30 2775 C 256.935 2.95583 2.05326 0
M  V30 2776 C 256.543 4.27974 1.32447 0
M  V30 2777 C 258.287 3.19386 2.7963 0
M  V30 2778 C 256.194 5.47412 2.23818 0
M  V30 2779 H 255.124 0.6231 0.424573 0
M  V30 2780 H 257.775 1.79309 0.389924 0
M  V30 2781 H 256.157 2.77277 2.82725 0
M  V30 2782 H 257.331 4.56844 0.602495 0
M  V30 2783 H 255.646 4.10459 0.700885 0
M  V30 2784 H 258.243 4.05801 3.48181 0
M  V30 2785 H 258.586 2.34604 3.43899 0
M  V30 2786 H 259.119 3.38274 2.09322 0
M  V30 2787 H 255.858 6.34612 1.64157 0
M  V30 2788 H 255.378 5.22849 2.93921 0
M  V30 2789 H 257.057 5.81423 2.83824 0
M  V30 2790 N 257.189 -0.644168 1.43834 0
M  V30 2791 C 258.6 -1.22554 1.40845 0
M  V30 2792 C 258.951 -1.9585 0.117115 0
M  V30 2793 O 258.076 -2.01734 -0.783086 0
M  V30 2794 C 258.671 -2.22907 2.55143 0
M  V30 2795 C 257.23 -2.76501 2.5539 0
M  V30 2796 C 256.377 -1.51287 2.32396 0
M  V30 2797 H 259.328 -0.43563 1.52604 0
M  V30 2798 H 259.349 -3.05259 2.2715 0
M  V30 2799 H 258.861 -1.69533 3.49114 0
M  V30 2800 H 256.962 -3.33914 1.65324 0
M  V30 2801 H 257.075 -3.23429 3.53455 0
M  V30 2802 H 255.439 -1.78957 1.81236 0
M  V30 2803 H 256.222 -0.998336 3.28463 0
M  V30 2804 N 258.668 -1.30515 -0.883378 0
M  V30 2805 C 259.945 -1.10086 -1.6168 0
M  V30 2806 C 260.325 0.349269 -2.08191 0
M  V30 2807 O 259.673 1.34105 -1.85008 0
M  V30 2808 C 259.883 -2.10315 -2.78511 0
M  V30 2809 C 261.231 -2.42119 -3.48803 0
M  V30 2810 O 262.255 -2.08638 -2.88702 0
M  V30 2811 O 261.114 -2.99396 -4.57192 0
M  V30 2812 H 258.208 -0.422907 -0.710689 0
M  V30 2813 H 260.754 -1.41947 -0.930015 0
M  V30 2814 H 259.526 -3.07917 -2.41459 0
M  V30 2815 H 259.149 -1.79282 -3.54886 0
M  V30 2816 N 260.146 1.09593 -1.13257 0
M  V30 2817 C 261.557 1.63229 -0.906274 0
M  V30 2818 C 261.908 1.8811 0.557578 0
M  V30 2819 O 261.033 1.62953 1.42391 0
M  V30 2820 C 261.628 2.96535 -1.63867 0
M  V30 2821 C 260.187 3.47003 -1.45828 0
M  V30 2822 C 259.334 2.2145 -1.66898 0
M  V30 2823 H 262.285 0.92978 -1.28611 0
M  V30 2824 H 262.306 3.64411 -1.09476 0
M  V30 2825 H 261.818 2.78394 -2.70404 0
M  V30 2826 H 259.919 3.70272 -0.415848 0
M  V30 2827 H 260.032 4.24551 -2.2202 0
M  V30 2828 H 258.396 2.30022 -1.09371 0
M  V30 2829 H 259.179 2.0583 -2.74752 0
M  V30 2830 N 261.624 0.925811 1.2754 0
M  V30 2831 C 262.556 0.380753 2.26015 0
M  V30 2832 C 263.569 -0.487485 1.5533 0
M  V30 2833 O 264.758 -0.300413 1.75954 0
M  V30 2834 C 261.858 -0.473259 3.35579 0
M  V30 2835 C 261.031 0.375249 4.35787 0
M  V30 2836 C 260.09 -0.415809 5.24555 0
M  V30 2837 O 259.116 0.175834 5.68928 0
M  V30 2838 N 260.318 -1.71607 5.54555 0
M  V30 2839 H 263.083 1.22725 2.73421 0
M  V30 2840 H 260.644 0.793037 1.41147 0
M  V30 2841 H 262.636 -1.00949 3.91907 0
M  V30 2842 H 261.206 -1.2205 2.87789 0
M  V30 2843 H 260.426 1.09279 3.7875 0
M  V30 2844 H 261.714 0.955399 4.99749 0
M  V30 2845 H 261.112 -2.2191 5.20358 0
M  V30 2846 H 259.669 -2.19887 6.1359 0
M  V30 2847 N 263.102 -1.41638 0.69111 0
M  V30 2848 C 264.35 -2.00902 0.219758 0
M  V30 2849 C 264.671 -1.54994 -1.18329 0
M  V30 2850 O 263.941 -0.778628 -1.79762 0
M  V30 2851 H 262.521 -0.74289 0.0782558 0
M  V30 2852 H 265.183 -1.73327 0.891271 0
M  V30 2853 H 264.279 -3.11224 0.233708 0
M  V30 2854 N 264.58 -0.43555 -1.51462 0
M  V30 2855 C 265.808 0.130242 -2.0649 0
M  V30 2856 C 266.223 1.36614 -1.30315 0
M  V30 2857 O 265.58 1.78869 -0.362223 0
M  V30 2858 C 265.631 0.454253 -3.58635 0
M  V30 2859 O 265.352 -0.73259 -4.31931 0
M  V30 2860 C 266.853 1.07091 -4.3017 0
M  V30 2861 H 264.073 0.00871669 -0.670943 0
M  V30 2862 H 266.617 -0.614117 -1.95061 0
M  V30 2863 H 264.772 1.14851 -3.69984 0
M  V30 2864 H 265.186 -0.455787 -5.22516 0
M  V30 2865 H 266.66 1.24764 -5.37716 0
M  V30 2866 H 267.137 2.05144 -3.88346 0
M  V30 2867 H 267.743 0.416089 -4.2326 0
M  V30 2868 N 266.058 1.56714 -0.166846 0
M  V30 2869 C 267.006 2.19056 0.782123 0
M  V30 2870 C 268 1.15328 1.24079 0
M  V30 2871 O 269.206 1.33537 1.20697 0
M  V30 2872 H 265.581 0.70167 0.270486 0
M  V30 2873 H 267.552 2.97494 0.232322 0
M  V30 2874 C 266.301 2.84206 2.00306 0
M  V30 2875 H 265.624 3.63748 1.65914 0
M  V30 2876 H 267.064 3.31302 2.64604 0
M  V30 2877 C 265.523 1.83744 2.82382 0
M  V30 2878 O 266.053 1.32014 3.79388 0
M  V30 2879 N 264.259 1.52601 2.47308 0
M  V30 2880 H 263.806 1.9486 1.68485 0
M  V30 2881 H 263.764 0.856351 3.02513 0
M  V30 2882 N 267.536 -0.106894 1.57237 0
M  V30 2883 C 268.469 -1.16125 1.96444 0
M  V30 2884 C 269.447 -1.3947 0.835871 0
M  V30 2885 O 270.631 -1.53425 1.09513 0
M  V30 2886 C 267.758 -2.51277 2.27107 0
M  V30 2887 C 266.804 -2.44285 3.4961 0
M  V30 2888 S 267.637 -1.87077 5.01759 0
M  V30 2889 C 268.793 -3.23877 5.35588 0
M  V30 2890 H 269.026 -0.826971 2.85567 0
M  V30 2891 H 266.559 -0.314124 1.51171 0
M  V30 2892 H 268.517 -3.29035 2.45451 0
M  V30 2893 H 267.178 -2.81879 1.38576 0
M  V30 2894 H 266.371 -3.4387 3.68469 0
M  V30 2895 H 265.973 -1.74652 3.30715 0
M  V30 2896 H 268.265 -4.20122 5.31511 0
M  V30 2897 H 269.208 -3.09833 6.36717 0
M  V30 2898 H 269.616 -3.22864 4.63054 0
M  V30 2899 N 269.014 -1.53014 -0.377408 0
M  V30 2900 C 269.947 -1.73382 -1.48371 0
M  V30 2901 C 270.925 -0.581879 -1.51832 0
M  V30 2902 O 272.109 -0.81307 -1.70063 0
M  V30 2903 C 269.236 -1.80192 -2.8679 0
M  V30 2904 C 268.282 -3.02056 -3.01105 0
M  V30 2905 S 269.115 -4.61811 -2.71093 0
M  V30 2906 C 270.271 -4.71453 -4.11683 0
M  V30 2907 H 270.504 -2.66946 -1.30872 0
M  V30 2908 H 268.037 -1.43453 -0.571012 0
M  V30 2909 H 269.995 -1.84802 -3.6655 0
M  V30 2910 H 268.656 -0.877008 -3.01608 0
M  V30 2911 H 267.849 -3.03396 -4.02451 0
M  V30 2912 H 267.451 -2.95498 -2.29253 0
M  V30 2913 H 269.743 -4.50781 -5.0577 0
M  V30 2914 H 270.686 -5.73487 -4.15353 0
M  V30 2915 H 271.094 -4.00189 -3.98132 0
M  V30 2916 N 270.492 0.636531 -1.44174 0
M  V30 2917 C 271.739 1.39619 -1.46672 0
M  V30 2918 C 272.067 1.94257 -0.0972691 0
M  V30 2919 O 271.322 1.73768 0.900175 0
M  V30 2920 C 271.621 2.58309 -2.47005 0
M  V30 2921 C 271.287 2.21992 -3.92467 0
M  V30 2922 C 269.949 2.118 -4.32081 0
M  V30 2923 C 272.301 1.9321 -4.84065 0
M  V30 2924 C 269.629 1.71007 -5.61225 0
M  V30 2925 C 271.981 1.53911 -6.13591 0
M  V30 2926 C 270.645 1.42257 -6.52165 0
M  V30 2927 H 269.915 0.510902 -0.536712 0
M  V30 2928 H 272.562 0.722328 -1.77355 0
M  V30 2929 H 270.867 3.30903 -2.09786 0
M  V30 2930 H 272.564 3.16533 -2.46186 0
M  V30 2931 H 269.154 2.30841 -3.61124 0
M  V30 2932 H 273.338 1.99997 -4.54219 0
M  V30 2933 H 268.594 1.60583 -5.89935 0
M  V30 2934 H 272.768 1.30677 -6.8403 0
M  V30 2935 H 270.395 1.10419 -7.52138 0
M  V30 2936 N 271.97 1.30982 0.876444 0
M  V30 2937 C 272.933 1.18054 1.96459 0
M  V30 2938 C 273.933 0.109399 1.60427 0
M  V30 2939 O 275.123 0.358173 1.70478 0
M  V30 2940 C 272.255 0.810616 3.31122 0
M  V30 2941 H 273.448 2.14735 2.09354 0
M  V30 2942 H 271.001 1.145 1.06392 0
M  V30 2943 H 271.736 -0.155322 3.23928 0
M  V30 2944 H 271.521 1.58481 3.58645 0
M  V30 2945 H 273.011 0.743876 4.10921 0
M  V30 2946 N 273.449 -1.08991 1.13837 0
M  V30 2947 C 274.696 -1.81258 0.902882 0
M  V30 2948 C 275.024 -1.85936 -0.570803 0
M  V30 2949 O 274.279 -1.3267 -1.43865 0
M  V30 2950 C 274.578 -3.27042 1.44147 0
M  V30 2951 C 274.244 -3.4249 2.93276 0
M  V30 2952 C 272.906 -3.46414 3.33992 0
M  V30 2953 C 275.258 -3.4666 3.892 0
M  V30 2954 C 272.586 -3.52091 4.69307 0
M  V30 2955 C 274.938 -3.53872 5.24364 0
M  V30 2956 C 273.602 -3.56066 5.646 0
M  V30 2957 H 272.872 -0.663268 0.330388 0
M  V30 2958 H 275.519 -1.28368 1.42105 0
M  V30 2959 H 273.824 -3.82599 0.844097 0
M  V30 2960 H 275.521 -3.81499 1.23528 0
M  V30 2961 H 272.111 -3.40124 2.60794 0
M  V30 2962 H 276.295 -3.42865 3.58828 0
M  V30 2963 H 271.551 -3.52079 4.9985 0
M  V30 2964 H 275.725 -3.56043 5.98503 0
M  V30 2965 H 273.352 -3.60218 6.69438 0
M  V30 2966 N 274.927 -0.932562 -1.27047 0
M  V30 2967 C 276.174 -0.575559 -1.94148 0
M  V30 2968 C 276.502 0.883984 -1.73251 0
M  V30 2969 O 275.757 1.64655 -1.0577 0
M  V30 2970 C 276.056 -0.853713 -3.47054 0
M  V30 2971 C 275.722 -2.29577 -3.88079 0
M  V30 2972 C 274.384 -2.68999 -3.9899 0
M  V30 2973 C 276.736 -3.23331 -4.08787 0
M  V30 2974 C 274.064 -4.01289 -4.28 0
M  V30 2975 C 276.416 -4.55207 -4.39282 0
M  V30 2976 C 275.08 -4.94457 -4.48407 0
M  V30 2977 H 274.35 -0.210612 -0.710439 0
M  V30 2978 H 276.997 -1.17744 -1.51025 0
M  V30 2979 H 275.302 -0.169204 -3.91434 0
M  V30 2980 H 276.999 -0.55639 -3.97121 0
M  V30 2981 H 273.589 -1.97994 -3.80127 0
M  V30 2982 H 277.773 -2.94074 -3.99793 0
M  V30 2983 H 273.029 -4.31374 -4.33275 0
M  V30 2984 H 277.203 -5.27852 -4.54252 0
M  V30 2985 H 274.83 -5.96994 -4.7064 0
M  V30 2986 N 276.405 1.4127 -0.698611 0
M  V30 2987 C 277.368 2.29158 -0.044132 0
M  V30 2988 C 278.368 1.44529 0.704841 0
M  V30 2989 O 279.558 1.65643 0.539276 0
M  V30 2990 C 276.69 3.27459 0.947809 0
M  V30 2991 H 277.883 2.88529 -0.817994 0
M  V30 2992 H 275.436 1.49307 -0.46228 0
M  V30 2993 H 276.171 2.73073 1.74933 0
M  V30 2994 H 275.956 3.8991 0.41385 0
M  V30 2995 H 277.446 3.93311 1.40344 0
M  V30 2996 N 277.883 0.443576 1.51229 0
M  V30 2997 C 278.815 -0.400608 2.25672 0
M  V30 2998 C 279.828 -0.980945 1.29928 0
M  V30 2999 O 281.017 -0.874024 1.55638 0
M  V30 3000 C 278.117 -1.57304 3.00181 0
M  V30 3001 C 277.29 -1.11046 4.23069 0
M  V30 3002 C 276.349 -2.15374 4.80105 0
M  V30 3003 O 275.375 -1.74554 5.41774 0
M  V30 3004 N 276.577 -3.47922 4.64683 0
M  V30 3005 H 279.342 0.23745 2.98758 0
M  V30 3006 H 276.903 0.272809 1.59585 0
M  V30 3007 H 278.895 -2.26733 3.35223 0
M  V30 3008 H 277.465 -2.11632 2.30066 0
M  V30 3009 H 276.685 -0.243019 3.9345 0
M  V30 3010 H 277.973 -0.778888 5.02803 0
M  V30 3011 H 277.371 -3.83815 4.15575 0
M  V30 3012 H 275.928 -4.13228 5.0407 0
M  V30 3013 N 279.361 -1.56624 0.175154 0
M  V30 3014 C 280.311 -2.14747 -0.766004 0
M  V30 3015 C 281.295 -1.08275 -1.19018 0
M  V30 3016 O 282.487 -1.34388 -1.15191 0
M  V30 3017 C 279.616 -2.79478 -1.99366 0
M  V30 3018 C 278.702 -3.93114 -1.5913 0
M  V30 3019 N 279.093 -4.97752 -0.89872 0
M  V30 3020 C 277.391 -4.04345 -1.88204 0
M  V30 3021 C 278.092 -5.77473 -0.700012 0
M  V30 3022 N 277.068 -5.29207 -1.24263 0
M  V30 3023 H 280.87 -2.93015 -0.22793 0
M  V30 3024 H 278.384 -1.6238 -0.0253843 0
M  V30 3025 H 280.381 -3.19498 -2.67818 0
M  V30 3026 H 279.041 -2.02692 -2.53665 0
M  V30 3027 H 280.052 -5.14903 -0.556347 0
M  V30 3028 H 276.729 -3.38667 -2.44153 0
M  V30 3029 H 278.119 -6.71728 -0.152047 0
M  V30 3030 N 280.839 0.0985539 -1.57292 0
M  V30 3031 C 282.086 0.802678 -1.85912 0
M  V30 3032 C 282.414 1.78901 -0.763186 0
M  V30 3033 O 281.669 1.94178 0.243559 0
M  V30 3034 C 281.968 1.56927 -3.21105 0
M  V30 3035 C 281.634 0.725376 -4.45027 0
M  V30 3036 C 280.296 0.492726 -4.78671 0
M  V30 3037 C 282.648 0.138493 -5.21016 0
M  V30 3038 C 279.976 -0.336727 -5.85733 0
M  V30 3039 C 282.328 -0.678264 -6.28953 0
M  V30 3040 C 280.992 -0.921039 -6.61115 0
M  V30 3041 H 280.262 0.293721 -0.680301 0
M  V30 3042 H 282.909 0.0642841 -1.91392 0
M  V30 3043 H 281.214 2.37914 -3.11294 0
M  V30 3044 H 282.911 2.11841 -3.40477 0
M  V30 3045 H 279.501 0.916815 -4.18679 0
M  V30 3046 H 283.685 0.305404 -4.95359 0
M  V30 3047 H 278.941 -0.533836 -6.09065 0
M  V30 3048 H 283.115 -1.1399 -6.87007 0
M  V30 3049 H 280.742 -1.56556 -7.43905 0
M  V30 3050 N 282.317 1.53212 0.369288 0
M  V30 3051 C 283.545 1.73119 1.13303 0
M  V30 3052 C 283.96 0.458455 1.83149 0
M  V30 3053 O 283.317 -0.568403 1.73423 0
M  V30 3054 C 283.368 2.89413 2.16616 0
M  V30 3055 O 283.089 4.11761 1.49614 0
M  V30 3056 C 284.59 3.21161 3.05566 0
M  V30 3057 H 281.81 0.579107 0.338934 0
M  V30 3058 H 284.354 1.99942 0.429338 0
M  V30 3059 H 282.509 2.64994 2.82589 0
M  V30 3060 H 282.923 4.76858 2.18419 0
M  V30 3061 H 284.397 4.05949 3.74045 0
M  V30 3062 H 284.874 2.36369 3.70171 0
M  V30 3063 H 285.48 3.47492 2.45213 0
M  V30 3064 N 283.795 -0.628877 1.44509 0
M  V30 3065 C 284.745 -1.7345 1.47983 0
M  V30 3066 C 285.729 -1.5715 0.345373 0
M  V30 3067 O 286.921 -1.66848 0.590829 0
M  V30 3068 C 284.05 -3.12143 1.42904 0
M  V30 3069 C 283.136 -3.33906 2.61472 0
M  V30 3070 N 283.527 -3.26024 3.86706 0
M  V30 3071 C 281.825 -3.64709 2.56716 0
M  V30 3072 C 282.526 -3.48536 4.65722 0
M  V30 3073 N 281.502 -3.71517 3.96832 0
M  V30 3074 H 285.304 -1.65818 2.42655 0
M  V30 3075 H 282.818 -0.831419 1.39503 0
M  V30 3076 H 284.815 -3.91433 1.43476 0
M  V30 3077 H 283.475 -3.2094 0.492717 0
M  V30 3078 H 284.486 -3.04893 4.18641 0
M  V30 3079 H 281.163 -3.80473 1.71891 0
M  V30 3080 H 282.553 -3.48016 5.74747 0
M  V30 3081 N 285.273 -1.31445 -0.869486 0
M  V30 3082 C 286.205 -1.14955 -1.98287 0
M  V30 3083 C 287.218 -0.0885037 -1.62559 0
M  V30 3084 O 288.407 -0.336044 -1.75308 0
M  V30 3085 C 285.507 -0.734255 -3.3085 0
M  V30 3086 C 284.68 -1.88042 -3.94917 0
M  V30 3087 C 283.739 -1.4511 -5.05796 0
M  V30 3088 O 282.765 -2.16082 -5.2659 0
M  V30 3089 N 283.967 -0.338763 -5.79511 0
M  V30 3090 H 286.732 -2.10856 -2.12979 0
M  V30 3091 H 284.293 -1.23786 -1.04349 0
M  V30 3092 H 286.285 -0.42975 -4.02412 0
M  V30 3093 H 284.855 0.133158 -3.12316 0
M  V30 3094 H 284.075 -2.35222 -3.1633 0
M  V30 3095 H 285.363 -2.6481 -4.34457 0
M  V30 3096 H 284.761 0.252274 -5.65137 0
M  V30 3097 H 283.318 -0.0937925 -6.51733 0
M  V30 3098 N 286.751 1.08385 -1.14413 0
M  V30 3099 C 287.998 1.80776 -0.912482 0
M  V30 3100 C 288.326 1.86236 0.560934 0
M  V30 3101 O 287.581 1.33431 1.43159 0
M  V30 3102 C 287.88 3.26273 -1.45879 0
M  V30 3103 C 287.546 3.4093 -2.95089 0
M  V30 3104 C 286.208 3.44638 -3.35824 0
M  V30 3105 C 288.56 3.44591 -3.91033 0
M  V30 3106 C 285.888 3.49597 -4.71167 0
M  V30 3107 C 288.24 3.51086 -5.26233 0
M  V30 3108 C 286.904 3.53067 -5.6648 0
M  V30 3109 H 286.174 0.661507 -0.333901 0
M  V30 3110 H 288.821 1.27613 -1.42784 0
M  V30 3111 H 287.126 3.82146 -0.864376 0
M  V30 3112 H 288.823 3.80839 -1.2555 0
M  V30 3113 H 285.413 3.38736 -2.62594 0
M  V30 3114 H 289.597 3.40957 -3.60641 0
M  V30 3115 H 284.853 3.49424 -5.0171 0
M  V30 3116 H 289.027 3.52864 -6.00383 0
M  V30 3117 H 286.654 3.56662 -6.71339 0
M  V30 3118 N 288.23 0.939286 1.26551 0
M  V30 3119 C 289.477 0.585847 1.9384 0
M  V30 3120 C 289.805 -0.874784 1.73718 0
M  V30 3121 O 289.06 -1.64092 1.06642 0
M  V30 3122 C 289.359 0.872106 3.46596 0
M  V30 3123 C 289.025 2.31632 3.86856 0
M  V30 3124 C 287.687 2.71111 3.97558 0
M  V30 3125 C 290.039 3.25494 4.07066 0
M  V30 3126 C 287.367 4.03553 4.25866 0
M  V30 3127 C 289.719 4.57531 4.36862 0
M  V30 3128 C 288.383 4.96828 4.45778 0
M  V30 3129 H 287.653 0.214377 0.709312 0
M  V30 3130 H 290.3 1.18544 1.50398 0
M  V30 3131 H 288.605 0.18996 3.91339 0
M  V30 3132 H 290.302 0.577442 3.96821 0
M  V30 3133 H 286.892 2.00008 3.79071 0
M  V30 3134 H 291.076 2.9619 3.98227 0
M  V30 3135 H 286.332 4.33665 4.30981 0
M  V30 3136 H 290.506 5.30254 4.51446 0
M  V30 3137 H 288.133 5.99482 4.67468 0
M  V30 3138 N 289.708 -1.40897 0.706093 0
M  V30 3139 C 290.655 -2.30751 0.0474474 0
M  V30 3140 C 291.625 -1.47678 -0.76029 0
M  V30 3141 O 292.81 -1.76441 -0.726177 0
M  V30 3142 C 289.95 -3.33815 -0.875309 0
M  V30 3143 C 289.063 -4.31961 -0.0580623 0
M  V30 3144 C 288.198 -5.22093 -0.979425 0
M  V30 3145 C 287.237 -6.11902 -0.155706 0
M  V30 3146 N 286.374 -6.94482 -1.03144 0
M  V30 3147 H 291.214 -2.86513 0.819413 0
M  V30 3148 H 288.751 -1.41102 0.415783 0
M  V30 3149 H 290.709 -3.92129 -1.42446 0
M  V30 3150 H 289.339 -2.79579 -1.61356 0
M  V30 3151 H 288.391 -3.75507 0.608147 0
M  V30 3152 H 289.703 -4.95415 0.580082 0
M  V30 3153 H 288.857 -5.85292 -1.59744 0
M  V30 3154 H 287.596 -4.5889 -1.65141 0
M  V30 3155 H 286.601 -5.47742 0.475309 0
M  V30 3156 H 287.826 -6.77162 0.512635 0
M  V30 3157 H 285.772 -6.33877 -1.68924 0
M  V30 3158 H 285.689 -7.54665 -0.449108 0
M  V30 3159 H 286.957 -7.6214 -1.63593 0
M  V30 3160 N 291.186 -0.45159 -1.50991 0
M  V30 3161 C 292.414 0.108334 -2.06616 0
M  V30 3162 C 292.829 1.35224 -1.31757 0
M  V30 3163 O 292.186 1.78475 -0.381174 0
M  V30 3164 C 292.237 0.41619 -3.59096 0
M  V30 3165 O 291.958 -0.778361 -4.3113 0
M  V30 3166 C 293.459 1.02523 -4.31282 0
M  V30 3167 H 290.679 0.00159995 -0.670998 0
M  V30 3168 H 293.223 -0.634771 -1.94399 0
M  V30 3169 H 291.378 1.10921 -3.71181 0
M  V30 3170 H 291.792 -0.511181 -5.22003 0
M  V30 3171 H 293.266 1.19053 -5.39009 0
M  V30 3172 H 293.743 2.01013 -3.905 0
M  V30 3173 H 294.349 0.371173 -4.23677 0
M  V30 3174 N 292.664 1.56529 -0.183458 0
M  V30 3175 C 293.941 1.88959 0.50536 0
M  V30 3176 C 294.321 1.09523 1.80466 0
M  V30 3177 O 293.669 0.19278 2.27685 0
M  V30 3178 C 293.879 3.41162 0.73547 0
M  V30 3179 C 295.227 4.11155 1.06005 0
M  V30 3180 O 296.251 3.46548 0.823594 0
M  V30 3181 O 295.11 5.25318 1.50675 0
M  V30 3182 H 292.204 0.78441 0.261973 0
M  V30 3183 H 294.75 1.68231 -0.222802 0
M  V30 3184 H 293.522 3.90874 -0.182561 0
M  V30 3185 H 293.145 3.67543 1.51651 0
M  V30 3186 N 294.142 -0.090211 1.57342 0
M  V30 3187 C 295.092 -1.11557 1.98844 0
M  V30 3188 C 296.076 -1.35503 0.867624 0
M  V30 3189 O 297.268 -1.36113 1.13148 0
M  V30 3190 C 294.397 -2.43446 2.42051 0
M  V30 3191 C 293.483 -2.22853 3.60828 0
M  V30 3192 N 293.874 -1.72141 4.75606 0
M  V30 3193 C 292.172 -2.53401 3.67021 0
M  V30 3194 C 292.873 -1.65932 5.57531 0
M  V30 3195 N 291.849 -2.11323 5.00843 0
M  V30 3196 H 295.651 -0.716499 2.85032 0
M  V30 3197 H 293.165 -0.297567 1.59651 0
M  V30 3198 H 295.162 -3.17644 2.70014 0
M  V30 3199 H 293.822 -2.84087 1.57241 0
M  V30 3200 H 294.833 -1.41268 4.98261 0
M  V30 3201 H 291.51 -2.97532 2.92884 0
M  V30 3202 H 292.9 -1.27733 6.59647 0
M  V30 3203 N 295.62 -1.53406 -0.361157 0
M  V30 3204 C 296.567 -1.80156 -1.44265 0
M  V30 3205 C 297.537 -0.646183 -1.53015 0
M  V30 3206 O 298.722 -0.888818 -1.68833 0
M  V30 3207 C 295.862 -2.00116 -2.81154 0
M  V30 3208 C 294.975 -3.27833 -2.81335 0
M  V30 3209 C 294.11 -3.37957 -4.09828 0
M  V30 3210 C 293.149 -4.59689 -4.04168 0
M  V30 3211 N 292.286 -4.66942 -5.24318 0
M  V30 3212 H 297.126 -2.72438 -1.20754 0
M  V30 3213 H 294.663 -1.34954 -0.585296 0
M  V30 3214 H 296.621 -2.09677 -3.60682 0
M  V30 3215 H 295.251 -1.11167 -3.03054 0
M  V30 3216 H 294.303 -3.27204 -1.94014 0
M  V30 3217 H 295.615 -4.17442 -2.73027 0
M  V30 3218 H 294.769 -3.46853 -4.97773 0
M  V30 3219 H 293.508 -2.46372 -4.20894 0
M  V30 3220 H 292.513 -4.50889 -3.14609 0
M  V30 3221 H 293.738 -5.5262 -3.947 0
M  V30 3222 H 291.684 -3.7826 -5.35962 0
M  V30 3223 H 291.601 -5.50462 -5.18197 0
M  V30 3224 H 292.869 -4.80127 -6.14084 0
M  V30 3225 N 297.098 0.621204 -1.44841 0
M  V30 3226 C 298.514 0.94048 -1.28946 0
M  V30 3227 C 298.714 2.00154 -0.23249 0
M  V30 3228 O 297.77 2.49651 0.378237 0
M  V30 3229 C 299.083 1.39433 -2.66419 0
M  V30 3230 C 300.631 1.50927 -2.74208 0
M  V30 3231 C 301.106 1.99692 -4.12174 0
M  V30 3232 N 302.597 2.06947 -4.144 0
M  V30 3233 C 303.332 2.45871 -5.1801 0
M  V30 3234 N 302.828 2.83862 -6.31977 0
M  V30 3235 N 304.621 2.46092 -5.05366 0
M  V30 3236 H 296.772 -0.0803548 -2.12248 0
M  V30 3237 H 299.035 0.0266913 -0.947624 0
M  V30 3238 H 298.741 0.688925 -3.44887 0
M  V30 3239 H 298.615 2.36347 -2.93973 0
M  V30 3240 H 301.002 2.20561 -1.96053 0
M  V30 3241 H 301.083 0.523627 -2.50383 0
M  V30 3242 H 300.727 1.30649 -4.90809 0
M  V30 3243 H 300.657 2.99146 -4.33381 0
M  V30 3244 H 303.148 1.80232 -3.32152 0
M  V30 3245 H 303.461 3.12405 -7.0684 0
M  V30 3246 H 301.806 2.8159 -6.35399 0
M  V30 3247 H 304.997 2.1581 -4.15384 0
M  V30 3248 H 305.17 2.76102 -5.86235 0
M  V30 3249 N 298.576 1.31904 0.862503 0
M  V30 3250 C 299.824 1.21776 1.61292 0
M  V30 3251 C 300.145 -0.222413 1.93727 0
M  V30 3252 O 299.415 -1.1451 1.58947 0
M  V30 3253 H 297.995 0.447717 0.597962 0
M  V30 3254 H 300.657 1.65326 1.03215 0
M  V30 3255 H 299.753 1.7948 2.5533 0
M  V30 3256 N 300.054 -1.07777 1.14986 0
M  V30 3257 C 301.465 -1.61766 0.932127 0
M  V30 3258 C 301.816 -1.88974 -0.527581 0
M  V30 3259 O 300.941 -1.65198 -1.39781 0
M  V30 3260 C 301.536 -2.93891 1.68563 0
M  V30 3261 C 300.095 -3.44639 1.5133 0
M  V30 3262 C 299.242 -2.18767 1.704 0
M  V30 3263 H 302.193 -0.909201 1.30074 0
M  V30 3264 H 302.214 -3.62623 1.15259 0
M  V30 3265 H 301.726 -2.74057 2.74799 0
M  V30 3266 H 299.827 -3.69564 0.474702 0
M  V30 3267 H 299.94 -4.20966 2.28746 0
M  V30 3268 H 298.304 -2.28253 1.13016 0
M  V30 3269 H 299.087 -2.01433 2.77992 0
M  V30 3270 N 301.532 -0.945985 -1.26051 0
M  V30 3271 C 302.495 -0.463897 -2.24456 0
M  V30 3272 C 303.495 0.427655 -1.55009 0
M  V30 3273 O 304.685 0.226157 -1.72726 0
M  V30 3274 C 301.817 0.330812 -3.39291 0
M  V30 3275 H 303.01 -1.33357 -2.68619 0
M  V30 3276 H 300.563 -0.728416 -1.38289 0
M  V30 3277 H 301.298 1.21852 -3.00537 0
M  V30 3278 H 301.083 -0.308679 -3.90883 0
M  V30 3279 H 302.573 0.657865 -4.12386 0
M  V30 3280 N 303.011 1.40521 -0.713556 0
M  V30 3281 C 304.258 2.00923 -0.25219 0
M  V30 3282 C 304.586 1.56571 1.15395 0
M  V30 3283 O 303.841 0.775874 1.79663 0
M  V30 3284 C 304.14 3.56317 -0.278 0
M  V30 3285 C 303.806 4.20246 -1.63415 0
M  V30 3286 C 302.468 4.37422 -2.00538 0
M  V30 3287 C 304.82 4.55923 -2.52554 0
M  V30 3288 C 302.148 4.87558 -3.2635 0
M  V30 3289 C 304.5 5.07458 -3.77716 0
M  V30 3290 C 303.164 5.22843 -4.14959 0
M  V30 3291 H 302.434 0.735231 -0.0922829 0
M  V30 3292 H 305.081 1.68161 -0.916188 0
M  V30 3293 H 303.386 3.88976 0.469567 0
M  V30 3294 H 305.083 4.00883 0.0967819 0
M  V30 3295 H 301.673 4.07263 -1.33546 0
M  V30 3296 H 305.857 4.42291 -2.25149 0
M  V30 3297 H 301.113 4.97654 -3.55176 0
M  V30 3298 H 305.287 5.34041 -4.4696 0
M  V30 3299 H 302.914 5.61454 -5.12516 0
M  V30 3300 N 304.489 0.459591 1.5075 0
M  V30 3301 C 305.717 -0.0973749 2.06671 0
M  V30 3302 C 306.132 -1.34524 1.32472 0
M  V30 3303 O 305.489 -1.7827 0.390634 0
M  V30 3304 C 305.54 -0.39714 3.59312 0
M  V30 3305 O 305.261 0.801214 4.30711 0
M  V30 3306 C 306.762 -1.00234 4.31819 0
M  V30 3307 H 303.982 0.00195854 0.670997 0
M  V30 3308 H 306.526 0.645072 1.94059 0
M  V30 3309 H 304.681 -1.08951 3.71764 0
M  V30 3310 H 305.095 0.538857 5.21725 0
M  V30 3311 H 306.569 -1.16193 5.39632 0
M  V30 3312 H 307.046 -1.98939 3.91561 0
M  V30 3313 H 307.652 -0.348699 4.23868 0
M  V30 3314 N 305.967 -1.56429 0.191757 0
M  V30 3315 C 306.914 -2.18936 -0.730454 0
M  V30 3316 C 307.884 -1.13557 -1.21219 0
M  V30 3317 O 309.069 -1.41794 -1.27668 0
M  V30 3318 C 306.209 -2.85013 -1.9458 0
M  V30 3319 C 305.322 -4.04909 -1.50574 0
M  V30 3320 C 304.457 -4.58853 -2.67634 0
M  V30 3321 C 303.496 -5.71114 -2.20217 0
M  V30 3322 N 302.633 -6.19478 -3.30442 0
M  V30 3323 H 307.473 -2.97389 -0.190664 0
M  V30 3324 H 305.01 -1.46869 -0.0823694 0
M  V30 3325 H 306.968 -3.21492 -2.65893 0
M  V30 3326 H 305.598 -2.09129 -2.45896 0
M  V30 3327 H 304.65 -3.74115 -0.688605 0
M  V30 3328 H 305.962 -4.86113 -1.11784 0
M  V30 3329 H 305.116 -4.97619 -3.47074 0
M  V30 3330 H 303.855 -3.76749 -3.09696 0
M  V30 3331 H 302.86 -5.31879 -1.3923 0
M  V30 3332 H 304.085 -6.55033 -1.79189 0
M  V30 3333 H 302.031 -5.40297 -3.72041 0
M  V30 3334 H 301.948 -6.95725 -2.9581 0
M  V30 3335 H 303.216 -6.62898 -4.10106 0
M  V30 3336 N 307.445 0.0818655 -1.57387 0
M  V30 3337 C 308.693 0.781368 -1.86384 0
M  V30 3338 C 309.014 1.78618 -0.782342 0
M  V30 3339 O 308.284 1.94976 0.190061 0
M  V30 3340 H 306.864 0.291562 -0.687751 0
M  V30 3341 H 309.526 0.060348 -1.94807 0
M  V30 3342 H 308.622 1.3038 -2.83562 0
M  V30 3343 N 308.923 1.53595 0.353017 0
M  V30 3344 C 309.853 1.83902 1.43883 0
M  V30 3345 C 310.834 0.693421 1.55324 0
M  V30 3346 O 312.019 0.944452 1.69687 0
M  V30 3347 C 309.149 2.04016 2.8106 0
M  V30 3348 C 308.103 3.19814 2.84434 0
M  V30 3349 C 307.429 3.25244 4.24406 0
M  V30 3350 C 308.729 4.58133 2.50822 0
M  V30 3351 H 310.423 2.74835 1.1877 0
M  V30 3352 H 307.969 1.32242 0.569917 0
M  V30 3353 H 309.922 2.238 3.57059 0
M  V30 3354 H 308.646 1.09804 3.07588 0
M  V30 3355 H 307.305 2.9987 2.10887 0
M  V30 3356 H 306.953 2.28646 4.48029 0
M  V30 3357 H 306.653 4.03054 4.27576 0
M  V30 3358 H 308.177 3.47228 5.0226 0
M  V30 3359 H 309.591 4.77995 3.16534 0
M  V30 3360 H 307.988 5.38276 2.6529 0
M  V30 3361 H 309.058 4.62387 1.46034 0
M  V30 3362 N 310.401 -0.613514 1.45168 0
M  V30 3363 C 311.649 -1.36997 1.48581 0
M  V30 3364 C 311.97 -1.94589 0.126545 0
M  V30 3365 O 311.24 -1.76816 -0.843372 0
M  V30 3366 H 309.82 -0.508558 0.547154 0
M  V30 3367 H 312.482 -0.720853 1.81079 0
M  V30 3368 H 311.578 -2.1924 2.22127 0
M  V30 3369 N 311.879 -1.3236 -0.855495 0
M  V30 3370 C 312.829 -1.17809 -1.95205 0
M  V30 3371 C 313.813 -0.0852319 -1.60674 0
M  V30 3372 O 315.005 -0.311651 -1.74235 0
M  V30 3373 C 312.134 -0.902437 -3.31226 0
M  V30 3374 C 311.22 -2.03695 -3.7198 0
M  V30 3375 N 311.611 -3.28544 -3.84568 0
M  V30 3376 C 309.909 -1.93993 -4.016 0
M  V30 3377 C 310.61 -4.02847 -4.19629 0
M  V30 3378 N 309.586 -3.31138 -4.31102 0
M  V30 3379 H 313.388 -2.12462 -2.0307 0
M  V30 3380 H 310.902 -1.24127 -1.0472 0
M  V30 3381 H 312.899 -0.77915 -4.09554 0
M  V30 3382 H 311.559 0.0357267 -3.2468 0
M  V30 3383 H 312.57 -3.6349 -3.68911 0
M  V30 3384 H 309.247 -1.07733 -4.03361 0
M  V30 3385 H 310.637 -5.10506 -4.36845 0
M  V30 3386 N 313.357 1.07166 -1.15556 0
M  V30 3387 C 314.605 1.79443 -0.929764 0
M  V30 3388 C 314.926 1.87246 0.544414 0
M  V30 3389 O 314.196 1.37473 1.39564 0
M  V30 3390 H 312.776 0.664625 -0.341003 0
M  V30 3391 H 315.438 1.29499 -1.45657 0
M  V30 3392 H 314.534 2.81832 -1.34079 0
M  V30 3393 N 314.835 0.952656 1.25548 0
M  V30 3394 C 316.081 0.607272 1.93494 0
M  V30 3395 C 316.414 -0.853245 1.74452 0
M  V30 3396 O 315.689 -1.61194 1.08843 0
M  V30 3397 C 315.972 0.96435 3.46947 0
M  V30 3398 C 315.825 2.48045 3.75225 0
M  V30 3399 C 317.144 0.487987 4.37386 0
M  V30 3400 H 314.263 0.222096 0.702739 0
M  V30 3401 H 316.905 1.18895 1.48203 0
M  V30 3402 H 315.055 0.469361 3.85654 0
M  V30 3403 H 316.727 3.04905 3.46166 0
M  V30 3404 H 314.97 2.919 3.209 0
M  V30 3405 H 315.641 2.6808 4.82532 0
M  V30 3406 H 318.117 0.912558 4.0597 0
M  V30 3407 H 316.993 0.766547 5.43521 0
M  V30 3408 H 317.254 -0.612063 4.37843 0
M  V30 3409 N 316.313 -1.40141 0.720998 0
M  V30 3410 C 317.59 -1.94677 0.189757 0
M  V30 3411 C 317.97 -1.65879 -1.30566 0
M  V30 3412 O 317.318 -0.979391 -2.06447 0
M  V30 3413 C 317.528 -3.45279 0.508304 0
M  V30 3414 C 318.876 -4.22209 0.449934 0
M  V30 3415 O 319.9 -3.53413 0.444677 0
M  V30 3416 O 318.759 -5.44788 0.432189 0
M  V30 3417 H 315.853 -0.826459 0.0299026 0
M  V30 3418 H 318.399 -1.49719 0.7989 0
M  V30 3419 H 317.171 -3.59619 1.54239 0
M  V30 3420 H 316.794 -3.97386 -0.130525 0
M  V30 3421 N 317.792 -0.46758 -1.50504 0
M  V30 3422 C 318.722 0.318381 -2.31319 0
M  V30 3423 C 319.703 0.993564 -1.38066 0
M  V30 3424 O 320.888 0.991411 -1.66987 0
M  V30 3425 C 318.018 1.40275 -3.17711 0
M  V30 3426 C 316.972 0.849373 -4.19487 0
M  V30 3427 C 316.298 2.03177 -4.94594 0
M  V30 3428 C 317.598 -0.136942 -5.2212 0
M  V30 3429 H 319.292 -0.356106 -2.97275 0
M  V30 3430 H 316.838 -0.172703 -1.42961 0
M  V30 3431 H 318.791 1.96004 -3.73042 0
M  V30 3432 H 317.515 2.10596 -2.49634 0
M  V30 3433 H 316.174 0.314076 -3.65252 0
M  V30 3434 H 315.822 2.72187 -4.22993 0
M  V30 3435 H 315.522 1.66774 -5.63436 0
M  V30 3436 H 317.046 2.59403 -5.52759 0
M  V30 3437 H 318.46 0.331056 -5.72343 0
M  V30 3438 H 316.857 -0.41507 -5.98663 0
M  V30 3439 H 317.927 -1.06398 -4.73083 0
M  V30 3440 N 319.27 1.56325 -0.20005 0
M  V30 3441 C 320.218 2.20666 0.735482 0
M  V30 3442 C 321.212 1.17934 1.21605 0
M  V30 3443 O 322.418 1.36068 1.17837 0
M  V30 3444 H 318.793 0.70725 0.255542 0
M  V30 3445 H 320.764 2.9792 0.169166 0
M  V30 3446 C 319.513 2.88391 1.94232 0
M  V30 3447 H 318.836 3.67185 1.58161 0
M  V30 3448 H 320.276 3.3684 2.57517 0
M  V30 3449 C 318.735 1.89692 2.78421 0
M  V30 3450 O 319.265 1.40032 3.76502 0
M  V30 3451 N 317.471 1.57813 2.44015 0
M  V30 3452 H 317.018 1.9839 1.64314 0
M  V30 3453 H 316.976 0.920325 3.00628 0
M  V30 3454 N 320.748 -0.0735177 1.57428 0
M  V30 3455 C 321.698 -1.09442 2.00016 0
M  V30 3456 C 322.682 -1.34575 0.881947 0
M  V30 3457 O 323.874 -1.34905 1.14585 0
M  V30 3458 C 321.003 -2.40865 2.4462 0
M  V30 3459 C 320.089 -2.19014 3.63172 0
M  V30 3460 N 320.48 -1.67087 4.77405 0
M  V30 3461 C 318.778 -2.49494 3.69688 0
M  V30 3462 C 319.479 -1.6001 5.5926 0
M  V30 3463 N 318.455 -2.05999 5.03056 0
M  V30 3464 H 322.257 -0.686227 2.85776 0
M  V30 3465 H 319.771 -0.280617 1.59957 0
M  V30 3466 H 321.768 -3.14763 2.73368 0
M  V30 3467 H 320.428 -2.82403 1.60246 0
M  V30 3468 H 321.439 -1.35975 4.99731 0
M  V30 3469 H 318.116 -2.94409 2.96023 0
M  V30 3470 H 319.506 -1.2073 6.60964 0
M  V30 3471 N 322.226 -1.5378 -0.344866 0
M  V30 3472 C 323.472 -1.71216 -1.08687 0
M  V30 3473 C 323.805 -0.473281 -1.88345 0
M  V30 3474 O 323.08 0.52968 -1.87149 0
M  V30 3475 C 323.363 -2.97486 -2.02914 0
M  V30 3476 C 323.216 -4.31579 -1.26727 0
M  V30 3477 C 324.535 -3.19422 -3.0275 0
M  V30 3478 H 321.654 -0.62301 -0.393735 0
M  V30 3479 H 324.296 -1.8645 -0.365563 0
M  V30 3480 H 322.446 -2.84629 -2.64421 0
M  V30 3481 H 324.118 -4.56284 -0.67845 0
M  V30 3482 H 322.361 -4.30049 -0.569273 0
M  V30 3483 H 323.032 -5.16106 -1.95803 0
M  V30 3484 H 325.508 -3.316 -2.51357 0
M  V30 3485 H 324.384 -4.09169 -3.65885 0
M  V30 3486 H 324.645 -2.35656 -3.74057 0
M  V30 3487 N 323.704 0.605807 -1.45491 0
M  V30 3488 C 324.934 1.38934 -1.52908 0
M  V30 3489 C 325.342 1.88513 -0.161086 0
M  V30 3490 O 324.685 1.62962 0.847891 0
M  V30 3491 C 324.747 2.62737 -2.45376 0
M  V30 3492 C 324.411 2.34785 -3.92078 0
M  V30 3493 C 325.408 1.95038 -4.8193 0
M  V30 3494 C 323.093 2.47642 -4.37011 0
M  V30 3495 C 325.087 1.68511 -6.14722 0
M  V30 3496 C 322.774 2.20728 -5.69844 0
M  V30 3497 C 323.772 1.81225 -6.58519 0
M  V30 3498 O 323.46 1.54627 -7.88889 0
M  V30 3499 H 323.192 0.431629 -0.520262 0
M  V30 3500 H 325.746 0.74573 -1.91384 0
M  V30 3501 H 323.976 3.29824 -2.01874 0
M  V30 3502 H 325.665 3.24783 -2.43456 0
M  V30 3503 H 326.431 1.84639 -4.48479 0
M  V30 3504 H 322.31 2.77356 -3.68232 0
M  V30 3505 H 325.854 1.37602 -6.83894 0
M  V30 3506 H 321.751 2.30744 -6.02849 0
M  V30 3507 H 322.519 1.68665 -8.00933 0
M  V30 3508 N 325.182 1.32811 0.848464 0
M  V30 3509 C 326.43 1.23479 1.59991 0
M  V30 3510 C 326.751 -0.201853 1.93952 0
M  V30 3511 O 326.021 -1.12818 1.60153 0
M  V30 3512 H 324.601 0.454034 0.593179 0
M  V30 3513 H 327.263 1.66412 1.01455 0
M  V30 3514 H 326.359 1.82178 2.53412 0
M  V30 3515 N 326.66 -1.06551 1.16123 0
M  V30 3516 C 327.57 -2.17484 0.879662 0
M  V30 3517 C 328.586 -1.73377 -0.147104 0
M  V30 3518 O 329.762 -2.01379 0.0289128 0
M  V30 3519 C 326.827 -3.44591 0.381829 0
M  V30 3520 C 325.888 -4.0322 1.4735 0
M  V30 3521 C 325.121 -5.24261 0.999324 0
M  V30 3522 O 325.344 -5.70198 -0.151957 0
M  V30 3523 O 324.278 -5.74775 1.78653 0
M  V30 3524 H 328.104 -2.44075 1.80724 0
M  V30 3525 H 325.689 -1.16042 0.940992 0
M  V30 3526 H 327.571 -4.21254 0.111053 0
M  V30 3527 H 326.246 -3.19532 -0.51777 0
M  V30 3528 H 325.153 -3.2806 1.79798 0
M  V30 3529 H 326.486 -4.32568 2.34831 0
M  V30 3530 N 328.138 -0.959301 -1.25041 0
M  V30 3531 C 329.366 -0.633949 -1.96948 0
M  V30 3532 C 329.781 0.794916 -1.7125 0
M  V30 3533 O 329.138 1.53231 -0.991287 0
M  V30 3534 C 329.189 -0.888805 -3.50403 0
M  V30 3535 O 328.91 -2.26149 -3.75218 0
M  V30 3536 C 330.411 -0.576482 -4.39536 0
M  V30 3537 H 327.631 -0.237263 -0.627652 0
M  V30 3538 H 330.175 -1.28495 -1.59089 0
M  V30 3539 H 328.33 -0.284145 -3.86357 0
M  V30 3540 H 328.744 -2.33514 -4.6965 0
M  V30 3541 H 330.218 -0.805314 -5.46094 0
M  V30 3542 H 330.695 0.489075 -4.36468 0
M  V30 3543 H 331.301 -1.16067 -4.09156 0
M  V30 3544 N 329.616 1.39756 -0.72842 0
M  V30 3545 C 330.546 2.33289 -0.0991354 0
M  V30 3546 C 331.527 1.53568 0.731489 0
M  V30 3547 O 332.712 1.81987 0.677807 0
M  V30 3548 C 329.842 3.3763 0.813834 0
M  V30 3549 C 328.796 4.2791 0.0878663 0
M  V30 3550 C 328.122 5.22894 1.11741 0
M  V30 3551 C 329.422 5.11314 -1.06563 0
M  V30 3552 H 331.116 2.86163 -0.880408 0
M  V30 3553 H 328.662 1.37591 -0.424819 0
M  V30 3554 H 330.615 4.0201 1.26355 0
M  V30 3555 H 329.339 2.83181 1.62715 0
M  V30 3556 H 327.998 3.65 -0.342159 0
M  V30 3557 H 327.646 4.64744 1.92412 0
M  V30 3558 H 327.346 5.84143 0.636477 0
M  V30 3559 H 328.87 5.90151 1.56697 0
M  V30 3560 H 330.284 5.69076 -0.694671 0
M  V30 3561 H 328.681 5.81671 -1.47577 0
M  V30 3562 H 329.751 4.46534 -1.89038 0
M  V30 3563 N 331.094 0.475555 1.50254 0
M  V30 3564 C 332.371 -0.139685 1.95101 0
M  V30 3565 C 332.751 -1.56555 1.41611 0
M  V30 3566 O 332.099 -2.19956 0.618993 0
M  V30 3567 C 332.309 -0.0784298 3.48912 0
M  V30 3568 C 333.657 -0.265095 4.23772 0
M  V30 3569 O 334.681 -0.154808 3.55863 0
M  V30 3570 O 333.54 -0.488327 5.44314 0
M  V30 3571 H 330.634 -0.109236 0.819754 0
M  V30 3572 H 333.18 0.536276 1.61004 0
M  V30 3573 H 331.952 0.916918 3.80405 0
M  V30 3574 H 331.575 -0.795655 3.89558 0
M  V30 3575 N 332.573 -1.56217 0.208337 0
M  V30 3576 C 333.989 -1.58919 -0.14729 0
M  V30 3577 C 334.189 -1.22486 -1.59998 0
M  V30 3578 O 333.245 -0.953849 -2.3379 0
M  V30 3579 C 334.558 -3.00236 0.167048 0
M  V30 3580 C 336.106 -3.12813 0.108219 0
M  V30 3581 C 336.581 -4.56284 0.396049 0
M  V30 3582 N 338.072 -4.61912 0.345142 0
M  V30 3583 C 338.807 -5.70837 0.541523 0
M  V30 3584 N 338.303 -6.88178 0.798968 0
M  V30 3585 N 340.096 -5.60091 0.474867 0
M  V30 3586 H 332.247 -1.78177 1.15614 0
M  V30 3587 H 334.51 -0.827555 0.462446 0
M  V30 3588 H 334.216 -3.31499 1.1748 0
M  V30 3589 H 334.09 -3.7354 -0.524184 0
M  V30 3590 H 336.477 -2.81354 -0.890157 0
M  V30 3591 H 336.558 -2.41866 0.832729 0
M  V30 3592 H 336.202 -4.88458 1.3918 0
M  V30 3593 H 336.132 -5.25439 -0.349502 0
M  V30 3594 H 338.623 -3.77589 0.153316 0
M  V30 3595 H 338.936 -7.67095 0.93727 0
M  V30 3596 H 337.281 -6.89953 0.836013 0
M  V30 3597 H 340.472 -4.67297 0.274064 0
M  V30 3598 H 340.645 -6.44917 0.631326 0
M  V30 3599 N 334.051 0.0651679 -1.57465 0
M  V30 3600 C 334.983 1.10359 -2.00882 0
M  V30 3601 C 335.996 1.346 -0.915788 0
M  V30 3602 O 337.185 1.32723 -1.1936 0
M  V30 3603 C 334.285 2.45312 -2.33828 0
M  V30 3604 C 333.458 2.40934 -3.65061 0
M  V30 3605 C 332.517 3.58047 -3.85602 0
M  V30 3606 O 331.543 3.39175 -4.57109 0
M  V30 3607 N 332.745 4.78637 -3.28462 0
M  V30 3608 H 335.51 0.733807 -2.90578 0
M  V30 3609 H 333.071 0.253719 -1.599 0
M  V30 3610 H 335.063 3.22314 -2.44737 0
M  V30 3611 H 333.633 2.74267 -1.49988 0
M  V30 3612 H 332.853 1.49273 -3.64844 0
M  V30 3613 H 334.141 2.35117 -4.51218 0
M  V30 3614 H 333.539 4.96872 -2.70433 0
M  V30 3615 H 332.096 5.53127 -3.44809 0
M  V30 3616 N 335.529 1.53961 0.336706 0
M  V30 3617 C 336.479 1.7881 1.41461 0
M  V30 3618 C 337.463 0.643561 1.47469 0
M  V30 3619 O 338.655 0.903166 1.52223 0
M  V30 3620 C 335.784 2.00722 2.78506 0
M  V30 3621 C 334.87 3.2126 2.76862 0
M  V30 3622 N 335.261 4.42588 2.44845 0
M  V30 3623 C 333.559 3.22568 3.08004 0
M  V30 3624 C 334.26 5.2447 2.51607 0
M  V30 3625 N 333.236 4.61344 2.87511 0
M  V30 3626 H 337.038 2.70205 1.15615 0
M  V30 3627 H 334.552 1.52978 0.545112 0
M  V30 3628 H 336.549 2.1666 3.5618 0
M  V30 3629 H 335.209 1.10573 3.05293 0
M  V30 3630 H 336.22 4.69819 2.17922 0
M  V30 3631 H 332.897 2.42409 3.39918 0
M  V30 3632 H 334.287 6.31324 2.29955 0
M  V30 3633 N 337.007 -0.598083 1.45811 0
M  V30 3634 C 337.954 -1.7082 1.55207 0
M  V30 3635 C 338.924 -1.61278 0.39732 0
M  V30 3636 O 340.109 -1.80717 0.612038 0
M  V30 3637 C 337.249 -3.09144 1.53376 0
M  V30 3638 C 336.362 -3.29423 2.79472 0
M  V30 3639 C 335.497 -4.57907 2.69248 0
M  V30 3640 C 334.536 -4.71476 3.90354 0
M  V30 3641 N 333.673 -5.9127 3.78608 0
M  V30 3642 H 338.513 -1.62125 2.50039 0
M  V30 3643 H 336.05 -0.790389 1.24062 0
M  V30 3644 H 338.008 -3.89186 1.50301 0
M  V30 3645 H 336.638 -3.16773 0.620876 0
M  V30 3646 H 335.69 -2.43091 2.92594 0
M  V30 3647 H 337.002 -3.3532 3.69272 0
M  V30 3648 H 336.156 -5.46157 2.64192 0
M  V30 3649 H 334.895 -4.54423 1.77063 0
M  V30 3650 H 333.9 -3.81648 3.95759 0
M  V30 3651 H 335.125 -4.76751 4.83617 0
M  V30 3652 H 333.071 -5.88813 2.89199 0
M  V30 3653 H 332.988 -5.98369 4.6205 0
M  V30 3654 H 334.256 -6.81992 3.77501 0
M  V30 3655 N 338.485 -1.33259 -0.841409 0
M  V30 3656 C 339.415 -1.25926 -1.96634 0
M  V30 3657 C 340.396 -0.140349 -1.6952 0
M  V30 3658 O 341.581 -0.329707 -1.91381 0
M  V30 3659 C 338.711 -0.99512 -3.32738 0
M  V30 3660 C 337.665 -2.0767 -3.74242 0
M  V30 3661 C 336.991 -1.66474 -5.08125 0
M  V30 3662 C 338.291 -3.49318 -3.88297 0
M  V30 3663 H 339.985 -2.20046 -2.03027 0
M  V30 3664 H 337.531 -1.05931 -0.975425 0
M  V30 3665 H 339.484 -0.930323 -4.11002 0
M  V30 3666 H 338.208 -0.0183004 -3.26595 0
M  V30 3667 H 336.867 -2.13187 -2.98239 0
M  V30 3668 H 336.515 -0.675012 -4.9845 0
M  V30 3669 H 336.215 -2.3885 -5.36865 0
M  V30 3670 H 337.739 -1.61455 -5.88867 0
M  V30 3671 H 339.153 -3.46316 -4.56879 0
M  V30 3672 H 337.55 -4.20158 -4.28471 0
M  V30 3673 H 338.62 -3.8801 -2.9082 0
M  V30 3674 N 339.963 1.05934 -1.16686 0
M  V30 3675 C 341.379 1.30938 -0.912542 0
M  V30 3676 C 341.579 1.96803 0.432533 0
M  V30 3677 O 340.635 2.23693 1.17123 0
M  V30 3678 C 341.948 2.18649 -2.06429 0
M  V30 3679 C 343.496 2.32055 -2.10047 0
M  V30 3680 C 343.971 3.23122 -3.24586 0
M  V30 3681 N 345.462 3.30706 -3.24327 0
M  V30 3682 C 346.197 4.01273 -4.09594 0
M  V30 3683 N 345.693 4.74332 -5.04956 0
M  V30 3684 N 347.486 3.97361 -3.97569 0
M  V30 3685 H 339.637 0.615777 -2.03278 0
M  V30 3686 H 341.9 0.334077 -0.887185 0
M  V30 3687 H 341.606 1.77534 -3.03603 0
M  V30 3688 H 341.48 3.19252 -2.00894 0
M  V30 3689 H 343.867 2.72415 -1.13464 0
M  V30 3690 H 343.948 1.31107 -2.19647 0
M  V30 3691 H 343.592 2.83477 -4.2143 0
M  V30 3692 H 343.522 4.24057 -3.12223 0
M  V30 3693 H 346.013 2.78644 -2.55276 0
M  V30 3694 H 346.326 5.25716 -5.6643 0
M  V30 3695 H 344.671 4.733 -5.08933 0
M  V30 3696 H 347.862 3.39405 -3.22369 0
M  V30 3697 H 348.035 4.52089 -4.64241 0
M  V30 3698 N 341.441 0.965919 1.2453 0
M  V30 3699 C 342.371 0.513476 2.27784 0
M  V30 3700 C 343.352 -0.445974 1.6415 0
M  V30 3701 O 344.537 -0.342485 1.91156 0
M  V30 3702 C 341.667 -0.198839 3.4673 0
M  V30 3703 C 340.621 0.676456 4.2262 0
M  V30 3704 C 339.947 -0.167248 5.34438 0
M  V30 3705 C 341.247 1.96017 4.84123 0
M  V30 3706 H 342.941 1.3765 2.65881 0
M  V30 3707 H 340.487 0.663321 1.27813 0
M  V30 3708 H 342.44 -0.526567 4.18097 0
M  V30 3709 H 341.164 -1.0962 3.07654 0
M  V30 3710 H 339.823 0.98743 3.53052 0
M  V30 3711 H 339.471 -1.0647 4.91603 0
M  V30 3712 H 339.171 0.415181 5.86131 0
M  V30 3713 H 340.695 -0.489688 6.08633 0
M  V30 3714 H 342.109 1.69814 5.47573 0
M  V30 3715 H 340.506 2.48918 5.4604 0
M  V30 3716 H 341.576 2.65622 4.05676 0
M  V30 3717 N 342.919 -1.39368 0.735821 0
M  V30 3718 C 344.166 -2.00497 0.284123 0
M  V30 3719 C 344.494 -1.58387 -1.12889 0
M  V30 3720 O 343.749 -0.804359 -1.78406 0
M  V30 3721 C 344.048 -3.5583 0.334651 0
M  V30 3722 C 343.714 -4.17593 1.7008 0
M  V30 3723 C 342.376 -4.34176 2.07472 0
M  V30 3724 C 344.728 -4.51848 2.59775 0
M  V30 3725 C 342.056 -4.82304 3.34065 0
M  V30 3726 C 344.408 -5.01384 3.85741 0
M  V30 3727 C 343.072 -5.16175 4.23225 0
M  V30 3728 H 342.342 -0.73367 0.103968 0
M  V30 3729 H 344.989 -1.66683 0.942825 0
M  V30 3730 H 343.294 -3.89674 -0.407625 0
M  V30 3731 H 344.991 -4.00986 -0.0329927 0
M  V30 3732 H 341.581 -4.05087 1.40008 0
M  V30 3733 H 345.765 -4.38653 2.32157 0
M  V30 3734 H 341.021 -4.91941 3.63049 0
M  V30 3735 H 345.195 -5.26863 4.55399 0
M  V30 3736 H 342.822 -5.5323 5.21384 0
M  V30 3737 N 344.397 -0.483516 -1.5 0
M  V30 3738 C 345.344 0.304164 -2.28787 0
M  V30 3739 C 346.314 0.976114 -1.34392 0
M  V30 3740 O 347.499 0.986156 -1.63339 0
M  V30 3741 C 344.639 1.37298 -3.16612 0
M  V30 3742 C 343.752 0.714561 -4.26049 0
M  V30 3743 C 342.887 1.76232 -5.01114 0
M  V30 3744 C 341.926 1.08483 -6.0241 0
M  V30 3745 N 341.063 2.076 -6.70706 0
M  V30 3746 H 345.903 -0.373981 -2.95644 0
M  V30 3747 H 343.44 -0.196275 -1.45785 0
M  V30 3748 H 345.398 2.00445 -3.65893 0
M  V30 3749 H 344.028 2.02012 -2.51776 0
M  V30 3750 H 343.08 -0.0297798 -3.80388 0
M  V30 3751 H 344.392 0.180383 -4.98474 0
M  V30 3752 H 343.546 2.46929 -5.54176 0
M  V30 3753 H 342.285 2.33033 -4.28424 0
M  V30 3754 H 341.29 0.363545 -5.48597 0
M  V30 3755 H 342.515 0.523551 -6.77079 0
M  V30 3756 H 340.461 2.63394 -6.00799 0
M  V30 3757 H 340.378 1.59201 -7.39047 0
M  V30 3758 H 341.646 2.77639 -7.2838 0
M  V30 3759 N 345.875 1.56104 -0.216619 0
M  V30 3760 C 347.152 1.89988 0.465165 0
M  V30 3761 C 347.532 1.13326 1.78102 0
M  V30 3762 O 346.88 0.241033 2.27225 0
M  V30 3763 C 347.09 3.42646 0.662939 0
M  V30 3764 C 348.438 4.13311 0.972602 0
M  V30 3765 O 349.462 3.48217 0.749901 0
M  V30 3766 O 348.321 5.28396 1.39499 0
M  V30 3767 H 345.415 0.78979 0.245276 0
M  V30 3768 H 347.961 1.67721 -0.258436 0
M  V30 3769 H 346.733 3.90399 -0.26543 0
M  V30 3770 H 346.356 3.70677 1.43821 0
M  V30 3771 N 347.353 -0.0568162 1.57498 0
M  V30 3772 C 348.601 -0.751617 1.87604 0
M  V30 3773 C 348.922 -1.77351 0.81066 0
M  V30 3774 O 348.192 -1.95254 -0.159018 0
M  V30 3775 H 346.772 -0.280583 0.692302 0
M  V30 3776 H 349.434 -0.0293483 1.94878 0
M  V30 3777 H 348.53 -1.25852 2.856 0
M  V30 3778 N 348.832 -1.54138 -0.328536 0
M  V30 3779 C 349.779 -1.83176 -1.40411 0
M  V30 3780 C 350.749 -0.678494 -1.5161 0
M  V30 3781 O 351.934 -0.92443 -1.6691 0
M  V30 3782 C 349.074 -2.06035 -2.76846 0
M  V30 3783 C 348.187 -3.33727 -2.74318 0
M  V30 3784 C 347.322 -3.46574 -4.02567 0
M  V30 3785 C 346.361 -4.68159 -3.94327 0
M  V30 3786 N 345.498 -4.77959 -5.14296 0
M  V30 3787 H 350.338 -2.74938 -1.14948 0
M  V30 3788 H 347.875 -1.36166 -0.556538 0
M  V30 3789 H 349.833 -2.1728 -3.56153 0
M  V30 3790 H 348.463 -1.1757 -3.00628 0
M  V30 3791 H 347.515 -3.31246 -1.8703 0
M  V30 3792 H 348.827 -4.23139 -2.64111 0
M  V30 3793 H 347.981 -3.57333 -4.90304 0
M  V30 3794 H 346.72 -2.55245 -4.15574 0
M  V30 3795 H 345.725 -4.57461 -3.04974 0
M  V30 3796 H 346.95 -5.60868 -3.82889 0
M  V30 3797 H 344.896 -3.89544 -5.27818 0
M  V30 3798 H 344.813 -5.6133 -5.06404 0
M  V30 3799 H 346.081 -4.93044 -6.03761 0
M  V30 3800 N 350.31 0.590341 -1.46126 0
M  V30 3801 C 351.243 1.71434 -1.50617 0
M  V30 3802 C 352.221 1.58543 -0.360948 0
M  V30 3803 O 353.405 1.79865 -0.563985 0
M  V30 3804 C 350.532 3.09422 -1.37753 0
M  V30 3805 C 349.578 3.40854 -2.5636 0
M  V30 3806 S 350.411 3.33773 -4.18755 0
M  V30 3807 C 351.567 4.74312 -4.08386 0
M  V30 3808 H 351.8 1.67364 -2.45717 0
M  V30 3809 H 349.333 0.76845 -1.33919 0
M  V30 3810 H 351.291 3.8903 -1.31018 0
M  V30 3811 H 349.952 3.10989 -0.440949 0
M  V30 3812 H 349.145 4.41368 -2.43332 0
M  V30 3813 H 348.747 2.68798 -2.60046 0
M  V30 3814 H 351.039 5.64522 -3.74595 0
M  V30 3815 H 351.982 4.92397 -5.08872 0
M  V30 3816 H 352.39 4.50803 -3.3976 0
M  V30 3817 N 351.788 1.33704 0.83433 0
M  V30 3818 C 352.735 1.24335 1.94447 0
M  V30 3819 C 353.705 0.120991 1.65659 0
M  V30 3820 O 354.89 0.300035 1.88426 0
M  V30 3821 C 352.03 0.993124 3.30501 0
M  V30 3822 C 351.143 2.20217 3.71657 0
M  V30 3823 C 350.278 1.88572 4.96602 0
M  V30 3824 C 349.317 3.05683 5.30306 0
M  V30 3825 N 348.454 2.73997 6.46429 0
M  V30 3826 H 353.294 2.1928 2.01792 0
M  V30 3827 H 350.831 1.09035 0.987404 0
M  V30 3828 H 352.789 0.828467 4.08892 0
M  V30 3829 H 351.419 0.0803902 3.227 0
M  V30 3830 H 350.471 2.47642 2.88752 0
M  V30 3831 H 351.783 3.07752 3.92543 0
M  V30 3832 H 350.937 1.68776 5.82752 0
M  V30 3833 H 349.676 0.982799 4.77695 0
M  V30 3834 H 348.681 3.26088 4.42659 0
M  V30 3835 H 349.906 3.96737 5.51159 0
M  V30 3836 H 347.852 1.86268 6.28999 0
M  V30 3837 H 347.769 3.55064 6.67432 0
M  V30 3838 H 349.037 2.57679 7.35678 0
M  V30 3839 N 353.266 -1.05314 1.17247 0
M  V30 3840 C 354.496 -1.81707 0.983166 0
M  V30 3841 C 354.904 -1.83222 -0.471822 0
M  V30 3842 O 354.247 -1.25721 -1.3394 0
M  V30 3843 C 354.309 -3.29134 1.44606 0
M  V30 3844 C 353.973 -3.51304 2.92292 0
M  V30 3845 C 354.97 -3.4353 3.90235 0
M  V30 3846 C 352.655 -3.78306 3.30439 0
M  V30 3847 C 354.649 -3.62442 5.24323 0
M  V30 3848 C 352.336 -3.96866 4.64694 0
M  V30 3849 C 353.334 -3.88933 5.61445 0
M  V30 3850 O 353.022 -4.06976 6.93272 0
M  V30 3851 H 352.754 -0.579476 0.348114 0
M  V30 3852 H 355.308 -1.33705 1.55924 0
M  V30 3853 H 353.538 -3.78046 0.813537 0
M  V30 3854 H 355.227 -3.87049 1.22262 0
M  V30 3855 H 355.993 -3.22648 3.62109 0
M  V30 3856 H 351.872 -3.83585 2.55702 0
M  V30 3857 H 355.416 -3.56165 5.99827 0
M  V30 3858 H 351.313 -4.1724 4.92525 0
M  V30 3859 H 352.081 -4.24209 6.99992 0
M  V30 3860 N 354.744 -0.972509 -1.24016 0
M  V30 3861 C 355.676 -0.464375 -2.24446 0
M  V30 3862 C 356.689 0.4295 -1.57032 0
M  V30 3863 O 357.878 0.234902 -1.76948 0
M  V30 3864 C 354.978 0.348385 -3.37105 0
M  V30 3865 C 354.151 -0.53673 -4.34094 0
M  V30 3866 C 353.21 0.220838 -5.25736 0
M  V30 3867 O 352.236 -0.386867 -5.67884 0
M  V30 3868 N 353.438 1.50907 -5.60542 0
M  V30 3869 H 356.203 -1.32788 -2.68677 0
M  V30 3870 H 353.764 -0.844877 -1.38107 0
M  V30 3871 H 355.756 0.863341 -3.95384 0
M  V30 3872 H 354.326 1.11285 -2.92121 0
M  V30 3873 H 353.546 -1.23261 -3.74433 0
M  V30 3874 H 354.834 -1.14022 -4.95859 0
M  V30 3875 H 354.232 2.02444 -5.28236 0
M  V30 3876 H 352.789 1.96962 -6.21329 0
M  V30 3877 N 356.222 1.38976 -0.743202 0
M  V30 3878 C 357.468 2.0064 -0.295189 0
M  V30 3879 C 357.801 1.5885 1.11716 0
M  V30 3880 O 357.076 0.821181 1.76315 0
M  V30 3881 C 357.359 3.578 -0.406318 0
M  V30 3882 C 357.212 4.09586 -1.85903 0
M  V30 3883 C 358.531 4.39616 0.206439 0
M  V30 3884 H 355.65 0.728935 -0.108733 0
M  V30 3885 H 358.292 1.65067 -0.940897 0
M  V30 3886 H 356.442 3.88235 0.143419 0
M  V30 3887 H 358.114 3.89837 -2.46627 0
M  V30 3888 H 356.357 3.6284 -2.3776 0
M  V30 3889 H 357.028 5.18708 -1.888 0
M  V30 3890 H 359.504 4.15273 -0.262283 0
M  V30 3891 H 358.38 5.48812 0.0983819 0
M  V30 3892 H 358.641 4.22754 1.2935 0
M  V30 3893 N 357.7 0.491464 1.49741 0
M  V30 3894 C 358.949 -0.0582189 2.01616 0
M  V30 3895 C 359.262 -1.38927 1.3769 0
M  V30 3896 O 360.468 -2.02509 1.80838 0
M  V30 3897 C 358.924 -0.154235 3.59569 0
M  V30 3898 C 358.532 1.1696 4.32463 0
M  V30 3899 C 360.276 -0.65479 4.1942 0
M  V30 3900 C 358.183 1.03627 5.8225 0
M  V30 3901 H 357.113 -0.0255317 0.753568 0
M  V30 3902 H 359.764 0.629445 1.72367 0
M  V30 3903 H 358.146 -0.906138 3.85493 0
M  V30 3904 H 359.32 1.93405 4.18248 0
M  V30 3905 H 357.635 1.60285 3.84315 0
M  V30 3906 H 360.232 -0.771903 5.29099 0
M  V30 3907 H 360.575 -1.65127 3.8215 0
M  V30 3908 H 361.108 0.040304 3.9778 0
M  V30 3909 H 357.847 2.00672 6.24028 0
M  V30 3910 H 357.367 0.312546 5.98985 0
M  V30 3911 H 359.046 0.711114 6.4308 0
M  V30 3912 N 359.178 -1.55987 0.224894 0
M  V30 3913 C 360.455 -1.90232 -0.455083 0
M  V30 3914 C 360.835 -1.14269 -1.77499 0
M  V30 3915 O 360.183 -0.253079 -2.27094 0
M  V30 3916 C 360.393 -3.42993 -0.644758 0
M  V30 3917 C 361.741 -4.13821 -0.950669 0
M  V30 3918 O 362.765 -3.4861 -0.731423 0
M  V30 3919 O 361.624 -5.29128 -1.36695 0
M  V30 3920 H 358.718 -0.79108 -0.241084 0
M  V30 3921 H 361.264 -1.67581 0.267327 0
M  V30 3922 H 360.036 -3.90252 0.28613 0
M  V30 3923 H 359.659 -3.71434 -1.41853 0
M  V30 3924 N 360.656 0.0484629 -1.57525 0
M  V30 3925 C 361.904 0.741657 -1.88 0
M  V30 3926 C 362.225 1.76918 -0.820054 0
M  V30 3927 O 361.495 1.95335 0.148661 0
M  V30 3928 H 360.075 0.276908 -0.69378 0
M  V30 3929 H 362.737 0.019013 -1.94891 0
M  V30 3930 H 361.833 1.24336 -2.86264 0
M  V30 3931 N 362.134 1.5431 0.320358 0
M  V30 3932 C 363.044 1.86946 1.41734 0
M  V30 3933 C 364.06 0.761689 1.56443 0
M  V30 3934 O 365.236 1.05629 1.71477 0
M  V30 3935 C 362.301 2.09293 2.76401 0
M  V30 3936 C 361.362 3.33082 2.70841 0
M  V30 3937 C 360.595 3.54353 3.99086 0
M  V30 3938 O 360.818 2.79002 4.97508 0
M  V30 3939 O 359.752 4.47838 4.0215 0
M  V30 3940 H 363.578 2.80232 1.17062 0
M  V30 3941 H 361.163 1.40255 0.514673 0
M  V30 3942 H 363.045 2.25303 3.56113 0
M  V30 3943 H 361.72 1.19194 3.00956 0
M  V30 3944 H 360.627 3.22454 1.89668 0
M  V30 3945 H 361.96 4.23249 2.5124 0
M  V30 3946 N 363.613 -0.582584 1.46437 0
M  V30 3947 C 364.859 -1.34278 1.51978 0
M  V30 3948 C 365.192 -1.93446 0.170973 0
M  V30 3949 O 364.467 -1.76481 -0.817608 0
M  V30 3950 C 364.75 -2.47203 2.61845 0
M  V30 3951 C 364.603 -1.93069 4.06257 0
M  V30 3952 C 365.922 -3.49247 2.67795 0
M  V30 3953 H 363.041 -0.486876 0.553282 0
M  V30 3954 H 365.683 -0.654437 1.78374 0
M  V30 3955 H 363.833 -3.0592 2.39469 0
M  V30 3956 H 365.505 -1.38808 4.3992 0
M  V30 3957 H 363.748 -1.23898 4.1573 0
M  V30 3958 H 364.419 -2.74586 4.7886 0
M  V30 3959 H 366.895 -3.00411 2.8791 0
M  V30 3960 H 365.771 -4.25719 3.46489 0
M  V30 3961 H 366.032 -4.06482 1.73852 0
M  V30 3962 N 365.091 -1.34144 -0.827227 0
M  V30 3963 C 366.321 -1.29138 -1.61267 0
M  V30 3964 C 366.729 0.137597 -1.88699 0
M  V30 3965 O 366.072 1.09379 -1.47587 0
M  V30 3966 C 366.134 -2.0097 -2.9808 0
M  V30 3967 C 365.798 -3.50242 -2.93563 0
M  V30 3968 C 366.795 -4.4523 -2.68452 0
M  V30 3969 C 364.48 -3.92592 -3.13331 0
M  V30 3970 C 366.474 -5.80542 -2.63154 0
M  V30 3971 C 364.161 -5.28005 -3.07658 0
M  V30 3972 C 365.159 -6.21792 -2.82602 0
M  V30 3973 O 364.847 -7.54723 -2.76853 0
M  V30 3974 H 364.579 -0.445851 -0.508127 0
M  V30 3975 H 367.133 -1.77263 -1.03763 0
M  V30 3976 H 365.363 -1.47451 -3.57484 0
M  V30 3977 H 367.052 -1.89309 -3.5905 0
M  V30 3978 H 367.818 -4.13832 -2.52919 0
M  V30 3979 H 363.697 -3.19994 -3.31851 0
M  V30 3980 H 367.241 -6.53717 -2.43516 0
M  V30 3981 H 363.138 -5.59023 -3.22743 0
M  V30 3982 H 363.906 -7.64409 -2.92611 0
M  V30 3983 N 366.569 1.04691 -1.17803 0
M  V30 3984 C 367.98 1.59238 -0.974689 0
M  V30 3985 C 368.331 1.90306 0.477292 0
M  V30 3986 O 367.456 1.68846 1.35352 0
M  V30 3987 C 368.051 2.89318 -1.76296 0
M  V30 3988 C 366.61 3.40506 -1.60414 0
M  V30 3989 C 365.757 2.14172 -1.76141 0
M  V30 3990 H 368.708 0.874395 -1.32439 0
M  V30 3991 H 368.729 3.5944 -1.24833 0
M  V30 3992 H 368.241 2.66675 -2.81968 0
M  V30 3993 H 366.342 3.68175 -0.572519 0
M  V30 3994 H 366.455 4.14753 -2.39827 0
M  V30 3995 H 364.819 2.25176 -1.19028 0
M  V30 3996 H 365.602 1.93992 -2.83235 0
M  V30 3997 N 368.047 0.979072 1.23499 0
M  V30 3998 C 369.458 0.684391 1.73704 0
M  V30 3999 C 369.809 -0.799448 1.79174 0
M  V30 4000 O 368.934 -1.62531 1.42873 0
M  V30 4001 C 369.529 1.23564 3.15464 0
M  V30 4002 C 368.088 0.99063 3.6313 0
M  V30 4003 C 367.235 1.36416 2.41425 0
M  V30 4004 H 370.186 1.15307 1.09041 0
M  V30 4005 H 370.207 0.607417 3.7562 0
M  V30 4006 H 369.719 2.31561 3.1145 0
M  V30 4007 H 367.82 -0.0733136 3.72528 0
M  V30 4008 H 367.933 1.64427 4.5 0
M  V30 4009 H 366.297 0.782616 2.42378 0
M  V30 4010 H 367.08 2.45387 2.40083 0
M  V30 4011 N 369.525 -1.3858 0.750561 0
M  V30 4012 C 370.753 -2.04471 0.316098 0
M  V30 4013 C 371.168 -1.56606 -1.05452 0
M  V30 4014 O 370.525 -0.737784 -1.66922 0
M  V30 4015 C 370.576 -3.60025 0.326275 0
M  V30 4016 O 370.297 -4.06133 1.6428 0
M  V30 4017 C 371.798 -4.43131 -0.122429 0
M  V30 4018 H 369.018 -0.65717 0.135528 0
M  V30 4019 H 371.562 -1.77329 1.01857 0
M  V30 4020 H 369.717 -3.86014 -0.327431 0
M  V30 4021 H 370.131 -5.00547 1.56693 0
M  V30 4022 H 371.605 -5.51963 -0.0641473 0
M  V30 4023 H 372.082 -4.23333 -1.16988 0
M  V30 4024 H 372.688 -4.22323 0.50229 0
M  V30 4025 N 371.003 -0.499398 -1.49478 0
M  V30 4026 C 372.249 0.0457576 -2.02748 0
M  V30 4027 C 372.582 1.36793 -1.37846 0
M  V30 4028 O 371.857 1.87596 -0.513601 0
M  V30 4029 C 372.14 0.199986 -3.59544 0
M  V30 4030 C 371.993 -1.1452 -4.34977 0
M  V30 4031 C 373.312 0.94137 -4.29914 0
M  V30 4032 H 370.431 0.0151552 -0.736844 0
M  V30 4033 H 373.073 -0.650498 -1.78518 0
M  V30 4034 H 371.223 0.793007 -3.8032 0
M  V30 4035 H 372.895 -1.77697 -4.25701 0
M  V30 4036 H 371.138 -1.73488 -3.97598 0
M  V30 4037 H 371.809 -0.990607 -5.43039 0
M  V30 4038 H 374.285 0.43844 -4.13784 0
M  V30 4039 H 373.161 1.01812 -5.39375 0
M  V30 4040 H 373.422 1.98471 -3.95046 0
M  V30 4041 N 372.481 1.55866 -0.233164 0
M  V30 4042 C 373.428 2.20796 0.67215 0
M  V30 4043 C 374.398 1.16731 1.18166 0
M  V30 4044 O 375.583 1.45129 1.23864 0
M  V30 4045 C 372.723 2.90072 1.86955 0
M  V30 4046 C 371.836 4.08759 1.39786 0
M  V30 4047 C 370.971 4.65787 2.55374 0
M  V30 4048 C 370.01 5.76752 2.04998 0
M  V30 4049 N 369.147 6.28021 3.13901 0
M  V30 4050 H 373.987 2.9779 0.111749 0
M  V30 4051 H 371.524 1.47036 0.0434007 0
M  V30 4052 H 373.482 3.28428 2.57276 0
M  V30 4053 H 372.112 2.15575 2.40265 0
M  V30 4054 H 371.164 3.7581 0.589173 0
M  V30 4055 H 372.476 4.88906 0.98856 0
M  V30 4056 H 371.63 5.06646 3.33758 0
M  V30 4057 H 370.369 3.84828 2.99598 0
M  V30 4058 H 369.374 5.35383 1.25079 0
M  V30 4059 H 370.599 6.59553 1.61759 0
M  V30 4060 H 368.545 5.49971 3.57586 0
M  V30 4061 H 368.462 7.03323 2.7726 0
M  V30 4062 H 369.73 6.73538 3.92386 0
M  V30 4063 N 373.959 -0.0401083 1.57549 0
M  V30 4064 C 375.236 -0.767917 1.79896 0
M  V30 4065 C 375.616 -1.9416 0.82856 0
M  V30 4066 O 374.964 -2.2812 -0.131671 0
M  V30 4067 C 375.174 -1.2113 3.27305 0
M  V30 4068 C 376.522 -1.63175 3.91994 0
M  V30 4069 O 377.546 -1.30616 3.31388 0
M  V30 4070 O 376.405 -2.23565 4.98679 0
M  V30 4071 H 373.499 -0.370441 0.739393 0
M  V30 4072 H 376.045 -0.017737 1.69691 0
M  V30 4073 H 374.817 -0.372937 3.89519 0
M  V30 4074 H 374.44 -2.02183 3.42356 0
M  V30 4075 N 375.437 -1.54477 -0.31217 0
M  V30 4076 C 376.665 -1.77205 -1.068 0
M  V30 4077 C 377.08 -0.526114 -1.81321 0
M  V30 4078 O 376.437 0.503647 -1.75413 0
M  V30 4079 C 376.488 -2.97253 -2.05725 0
M  V30 4080 O 376.209 -4.1703 -1.34228 0
M  V30 4081 C 377.71 -3.32281 -2.93435 0
M  V30 4082 H 374.93 -0.591287 -0.317208 0
M  V30 4083 H 377.474 -2.01398 -0.354834 0
M  V30 4084 H 375.629 -2.753 -2.72559 0
M  V30 4085 H 376.043 -4.84636 -2.00571 0
M  V30 4086 H 377.517 -4.19551 -3.58721 0
M  V30 4087 H 377.994 -2.49945 -3.61143 0
M  V30 4088 H 378.6 -3.56353 -2.32147 0
M  V30 4089 N 376.915 0.57481 -1.46744 0
M  V30 4090 C 377.847 1.69804 -1.53946 0
M  V30 4091 C 378.86 1.57098 -0.427106 0
M  V30 4092 O 380.049 1.64378 -0.695863 0
M  V30 4093 C 377.149 3.08125 -1.4111 0
M  V30 4094 C 376.322 3.46757 -2.66605 0
M  V30 4095 C 375.381 4.6417 -2.47855 0
M  V30 4096 O 374.407 4.69634 -3.21609 0
M  V30 4097 N 375.609 5.59553 -1.54534 0
M  V30 4098 H 378.374 1.64077 -2.50796 0
M  V30 4099 H 375.935 0.761 -1.429 0
M  V30 4100 H 377.927 3.84478 -1.26328 0
M  V30 4101 H 376.497 3.08175 -0.524109 0
M  V30 4102 H 375.717 2.6003 -2.96274 0
M  V30 4103 H 377.005 3.69337 -3.49954 0
M  V30 4104 H 376.403 5.57881 -0.937304 0
M  V30 4105 H 374.96 6.35304 -1.45711 0
M  V30 4106 N 378.394 1.34581 0.820102 0
M  V30 4107 C 379.64 1.27285 1.57881 0
M  V30 4108 C 379.973 -0.156137 1.93571 0
M  V30 4109 O 379.248 -1.10222 1.60254 0
M  V30 4110 C 379.531 2.16639 2.87645 0
M  V30 4111 C 379.384 3.68088 2.58517 0
M  V30 4112 C 380.703 2.05378 3.8924 0
M  V30 4113 H 377.822 0.463714 0.572833 0
M  V30 4114 H 380.464 1.64859 0.944539 0
M  V30 4115 H 378.614 1.84725 3.41773 0
M  V30 4116 H 380.286 4.10382 2.10676 0
M  V30 4117 H 378.529 3.89038 1.91917 0
M  V30 4118 H 379.2 4.2598 3.51063 0
M  V30 4119 H 381.676 2.33404 3.44473 0
M  V30 4120 H 380.552 2.7012 4.77835 0
M  V30 4121 H 380.813 1.0316 4.29896 0
M  V30 4122 N 379.872 -1.04064 1.18357 0
M  V30 4123 C 380.782 -2.15569 0.925596 0
M  V30 4124 C 381.798 -1.7365 -0.110295 0
M  V30 4125 O 382.974 -2.01273 0.0716218 0
M  V30 4126 C 380.039 -3.43704 0.454836 0
M  V30 4127 C 379.1 -4.00004 1.55869 0
M  V30 4128 C 378.333 -5.22023 1.1103 0
M  V30 4129 O 378.556 -5.70392 -0.0309756 0
M  V30 4130 O 377.49 -5.70856 1.90805 0
M  V30 4131 H 381.316 -2.40187 1.8586 0
M  V30 4132 H 378.901 -1.1402 0.965394 0
M  V30 4133 H 380.783 -4.20923 0.200382 0
M  V30 4134 H 379.458 -3.20559 -0.449876 0
M  V30 4135 H 378.365 -3.24172 1.86716 0
M  V30 4136 H 379.698 -4.2749 2.43953 0
M  V30 4137 N 381.35 -0.985608 -1.22978 0
M  V30 4138 C 382.283 -0.47487 -2.23204 0
M  V30 4139 C 383.261 0.460865 -1.55932 0
M  V30 4140 O 384.445 0.388105 -1.84461 0
M  V30 4141 C 381.572 0.312427 -3.37256 0
M  V30 4142 C 380.618 -0.568219 -4.22698 0
M  V30 4143 S 381.451 -2.01919 -4.95973 0
M  V30 4144 C 382.607 -1.24118 -6.1347 0
M  V30 4145 H 382.84 -1.32419 -2.66181 0
M  V30 4146 H 380.373 -0.792005 -1.32539 0
M  V30 4147 H 382.331 0.760645 -4.03391 0
M  V30 4148 H 380.992 1.13693 -2.92801 0
M  V30 4149 H 380.185 0.0371657 -5.03986 0
M  V30 4150 H 379.787 -0.952897 -3.61657 0
M  V30 4151 H 382.079 -0.505121 -6.75614 0
M  V30 4152 H 383.022 -2.02907 -6.78406 0
M  V30 4153 H 383.43 -0.757669 -5.59392 0
M  V30 4154 N 382.828 1.3818 -0.7579 0
M  V30 4155 C 384.077 1.99261 -0.312744 0
M  V30 4156 C 384.39 1.60846 1.11301 0
M  V30 4157 O 385.596 2.14929 1.65885 0
M  V30 4158 C 384.052 3.56294 -0.50821 0
M  V30 4159 C 383.66 4.03657 -1.94333 0
M  V30 4160 C 385.404 4.24313 -0.125982 0
M  V30 4161 C 383.311 5.53347 -2.08712 0
M  V30 4162 H 382.241 0.745456 -0.113185 0
M  V30 4163 H 384.892 1.57889 -0.935056 0
M  V30 4164 H 383.274 3.95575 0.183353 0
M  V30 4165 H 384.448 3.75655 -2.66871 0
M  V30 4166 H 382.763 3.48376 -2.28086 0
M  V30 4167 H 385.36 5.34279 -0.212125 0
M  V30 4168 H 385.703 4.05962 0.921964 0
M  V30 4169 H 386.236 3.90285 -0.769563 0
M  V30 4170 H 382.975 5.76607 -3.11777 0
M  V30 4171 H 382.495 5.83078 -1.4064 0
M  V30 4172 H 384.174 6.19111 -1.87912 0
M  V30 4173 N 384.306 0.507319 1.49211 0
M  V30 4174 C 385.536 -0.0315292 2.06576 0
M  V30 4175 C 385.944 -1.30791 1.36713 0
M  V30 4176 O 385.287 -1.78324 0.441181 0
M  V30 4177 C 385.349 -0.349104 3.57801 0
M  V30 4178 C 385.013 0.830475 4.49391 0
M  V30 4179 C 386.01 1.72271 4.90529 0
M  V30 4180 C 383.695 1.03107 4.91604 0
M  V30 4181 C 385.689 2.79964 5.72625 0
M  V30 4182 C 383.376 2.11116 5.73475 0
M  V30 4183 C 384.374 2.99379 6.1389 0
M  V30 4184 O 384.062 4.05523 6.94123 0
M  V30 4185 H 383.794 0.0201002 0.675701 0
M  V30 4186 H 386.348 0.705737 1.92895 0
M  V30 4187 H 384.578 -1.14005 3.69513 0
M  V30 4188 H 386.267 -0.827319 3.97379 0
M  V30 4189 H 387.033 1.57958 4.58557 0
M  V30 4190 H 382.912 0.353417 4.59643 0
M  V30 4191 H 386.456 3.48884 6.04091 0
M  V30 4192 H 382.353 2.25421 6.0486 0
M  V30 4193 H 383.121 4.02953 7.1244 0
M  V30 4194 N 385.784 -1.5574 0.241426 0
M  V30 4195 C 387.195 -1.84842 -0.262755 0
M  V30 4196 C 387.546 -1.16317 -1.58003 0
M  V30 4197 O 386.671 -0.439653 -2.11887 0
M  V30 4198 C 387.266 -3.35332 -0.483523 0
M  V30 4199 C 385.825 -3.6468 -0.931977 0
M  V30 4200 C 384.972 -2.77299 -0.0061151 0
M  V30 4201 H 387.923 -1.51761 0.464129 0
M  V30 4202 H 387.944 -3.56615 -1.32688 0
M  V30 4203 H 387.456 -3.85178 0.47537 0
M  V30 4204 H 385.557 -3.20307 -1.90353 0
M  V30 4205 H 385.67 -4.72498 -0.792628 0
M  V30 4206 H 384.034 -2.49408 -0.516503 0
M  V30 4207 H 384.817 -3.2995 0.948052 0
M  V30 4208 N 387.262 0.0317525 -1.57568 0
M  V30 4209 C 388.673 0.578692 -1.77505 0
M  V30 4210 C 389.024 1.75749 -0.872164 0
M  V30 4211 O 388.149 2.16298 -0.0663106 0
M  V30 4212 C 388.744 1.05658 -3.21904 0
M  V30 4213 C 387.303 1.54906 -3.43047 0
M  V30 4214 C 386.45 0.485939 -2.73009 0
M  V30 4215 H 389.401 -0.194475 -1.57504 0
M  V30 4216 H 389.422 1.92404 -3.28269 0
M  V30 4217 H 388.934 0.198422 -3.87592 0
M  V30 4218 H 387.035 2.42915 -2.82529 0
M  V30 4219 H 387.148 1.59841 -4.5165 0
M  V30 4220 H 385.512 0.940354 -2.36705 0
M  V30 4221 H 386.295 -0.362709 -3.41379 0
M  V30 4222 N 388.74 1.54641 0.303973 0
M  V30 4223 C 389.69 1.8177 1.37636 0
M  V30 4224 C 390.674 0.674697 1.46071 0
M  V30 4225 O 391.866 0.935251 1.50273 0
M  V30 4226 C 388.995 2.06584 2.74186 0
M  V30 4227 C 388.081 3.2706 2.69986 0
M  V30 4228 N 388.472 4.47682 2.35402 0
M  V30 4229 C 386.77 3.29028 3.01092 0
M  V30 4230 C 387.471 5.29689 2.40426 0
M  V30 4231 N 386.447 4.67339 2.7766 0
M  V30 4232 H 390.249 2.72596 1.09857 0
M  V30 4233 H 387.763 1.541 0.51254 0
M  V30 4234 H 389.76 2.24166 3.51504 0
M  V30 4235 H 388.42 1.17024 3.02879 0
M  V30 4236 H 389.431 4.74336 2.07908 0
M  V30 4237 H 386.108 2.49565 3.34699 0
M  V30 4238 H 387.498 6.3606 2.16512 0
M  V30 4239 N 390.218 -0.567019 1.47046 0
M  V30 4240 C 391.464 -1.32658 1.53394 0
M  V30 4241 C 391.797 -1.93254 0.19148 0
M  V30 4242 O 391.072 -1.77338 -0.798844 0
M  V30 4243 C 391.355 -2.44412 2.64452 0
M  V30 4244 C 391.208 -1.88749 4.08282 0
M  V30 4245 C 392.527 -3.46387 2.71485 0
M  V30 4246 H 389.646 -0.48098 0.558415 0
M  V30 4247 H 392.288 -0.635481 1.79058 0
M  V30 4248 H 390.438 -3.03363 2.427 0
M  V30 4249 H 392.11 -1.34134 4.41368 0
M  V30 4250 H 390.353 -1.19481 4.17021 0
M  V30 4251 H 391.024 -2.69491 4.81745 0
M  V30 4252 H 393.5 -2.9734 2.91081 0
M  V30 4253 H 392.376 -4.2202 3.50985 0
M  V30 4254 H 392.637 -4.04616 1.78153 0
M  V30 4255 N 391.696 -1.35014 -0.812953 0
M  V30 4256 C 393.107 -1.25035 -1.38648 0
M  V30 4257 C 393.458 0.119967 -1.95833 0
M  V30 4258 O 392.583 1.02069 -1.90816 0
M  V30 4259 C 393.178 -2.26394 -2.52054 0
M  V30 4260 C 391.737 -2.20175 -3.05287 0
M  V30 4261 C 390.884 -2.12451 -1.78213 0
M  V30 4262 H 393.835 -1.46235 -0.616516 0
M  V30 4263 H 393.856 -1.88672 -3.30429 0
M  V30 4264 H 393.368 -3.26116 -2.10404 0
M  V30 4265 H 391.469 -1.23841 -3.51417 0
M  V30 4266 H 391.582 -3.11863 -3.63701 0
M  V30 4267 H 389.946 -1.58328 -1.9951 0
M  V30 4268 H 390.729 -3.14024 -1.38723 0
M  V30 4269 N 393.175 1.03435 -1.18907 0
M  V30 4270 C 394.085 2.15075 -0.937015 0
M  V30 4271 C 395.101 1.73706 0.101085 0
M  V30 4272 O 396.277 2.01232 -0.0822948 0
M  V30 4273 C 393.342 3.43458 -0.473057 0
M  V30 4274 C 392.403 3.99172 -1.57989 0
M  V30 4275 C 391.636 5.21427 -1.13797 0
M  V30 4276 O 391.859 5.704 0.000725941 0
M  V30 4277 O 390.793 5.69837 -1.9383 0
M  V30 4278 H 394.619 2.39198 -1.87131 0
M  V30 4279 H 392.204 1.13506 -0.971427 0
M  V30 4280 H 394.086 4.20811 -0.222702 0
M  V30 4281 H 392.761 3.20793 0.432869 0
M  V30 4282 H 391.668 3.23178 -1.88433 0
M  V30 4283 H 393.001 4.2619 -2.46217 0
M  V30 4284 N 394.653 0.992116 1.22453 0
M  V30 4285 C 395.603 0.512969 2.22155 0
M  V30 4286 C 396.587 -0.418416 1.55364 0
M  V30 4287 O 397.779 -0.245363 1.75291 0
M  V30 4288 C 394.908 -0.171822 3.4287 0
M  V30 4289 C 393.994 0.779822 4.16869 0
M  V30 4290 N 394.385 1.92734 4.6764 0
M  V30 4291 C 392.683 0.59554 4.42006 0
M  V30 4292 C 393.384 2.52458 5.24061 0
M  V30 4293 N 392.36 1.80735 5.12675 0
M  V30 4294 H 396.162 1.38817 2.5905 0
M  V30 4295 H 393.676 0.854277 1.38115 0
M  V30 4296 H 395.673 -0.532469 4.13486 0
M  V30 4297 H 394.333 -1.04317 3.07487 0
M  V30 4298 H 395.344 2.30816 4.63621 0
M  V30 4299 H 392.021 -0.229805 4.16867 0
M  V30 4300 H 393.411 3.49433 5.73887 0
M  V30 4301 N 396.131 -1.37776 0.765217 0
M  V30 4302 C 397.061 -2.32945 0.160953 0
M  V30 4303 C 398.042 -1.55454 -0.690516 0
M  V30 4304 O 399.227 -1.83721 -0.629318 0
M  V30 4305 C 396.357 -3.39669 -0.724031 0
M  V30 4306 C 395.311 -4.27992 0.0256173 0
M  V30 4307 C 394.637 -5.25673 -0.978383 0
M  V30 4308 C 395.937 -5.08309 1.20082 0
M  V30 4309 H 397.631 -2.83728 0.955969 0
M  V30 4310 H 395.177 -1.36416 0.461149 0
M  V30 4311 H 397.13 -4.05219 -1.15652 0
M  V30 4312 H 395.854 -2.87396 -1.5515 0
M  V30 4313 H 394.513 -3.63964 0.438812 0
M  V30 4314 H 394.161 -4.69682 -1.80022 0
M  V30 4315 H 393.861 -5.85625 -0.481378 0
M  V30 4316 H 395.385 -5.94098 -1.40995 0
M  V30 4317 H 396.799 -5.67034 0.845307 0
M  V30 4318 H 395.196 -5.77554 1.62947 0
M  V30 4319 H 396.266 -4.41365 2.00811 0
M  V30 4320 N 397.609 -0.515225 -1.4894 0
M  V30 4321 C 398.541 0.292481 -2.27326 0
M  V30 4322 C 399.554 0.917838 -1.3446 0
M  V30 4323 O 400.743 0.798772 -1.5963 0
M  V30 4324 C 397.843 1.42803 -3.07344 0
M  V30 4325 C 397.016 0.907347 -4.27885 0
M  V30 4326 C 396.075 1.92222 -4.89834 0
M  V30 4327 O 395.101 1.48506 -5.49486 0
M  V30 4328 N 396.303 3.25355 -4.80754 0
M  V30 4329 H 399.068 -0.379721 -2.97285 0
M  V30 4330 H 396.629 -0.348638 -1.58102 0
M  V30 4331 H 398.621 2.10481 -3.45658 0
M  V30 4332 H 397.191 2.00414 -2.39902 0
M  V30 4333 H 396.411 0.0550218 -3.94162 0
M  V30 4334 H 397.699 0.538108 -5.05946 0
M  V30 4335 H 397.097 3.6355 -4.33414 0
M  V30 4336 H 395.654 3.88707 -5.23211 0
M  V30 4337 N 399.087 1.5561 -0.249682 0
M  V30 4338 C 400.334 1.99011 0.374287 0
M  V30 4339 C 400.662 1.13785 1.57744 0
M  V30 4340 O 399.917 0.189326 1.94782 0
M  V30 4341 C 400.216 3.4775 0.824887 0
M  V30 4342 C 399.882 4.50086 -0.270819 0
M  V30 4343 C 398.544 4.77791 -0.571746 0
M  V30 4344 C 400.896 5.11312 -1.01041 0
M  V30 4345 C 398.224 5.63997 -1.61629 0
M  V30 4346 C 400.576 5.98651 -2.0445 0
M  V30 4347 C 399.24 6.24688 -2.35204 0
M  V30 4348 H 398.51 0.728233 0.136961 0
M  V30 4349 H 401.157 1.88122 -0.358087 0
M  V30 4350 H 399.462 3.55985 1.63651 0
M  V30 4351 H 401.159 3.78721 1.31799 0
M  V30 4352 H 397.749 4.28592 -0.026136 0
M  V30 4353 H 401.933 4.89953 -0.791177 0
M  V30 4354 H 397.189 5.82425 -1.85988 0
M  V30 4355 H 401.363 6.45135 -2.62248 0
M  V30 4356 H 398.99 6.91281 -3.16282 0
M  V30 4357 N 400.565 -0.0233959 1.57583 0
M  V30 4358 C 401.528 -1.00693 2.05897 0
M  V30 4359 C 402.528 -1.28693 0.964092 0
M  V30 4360 O 403.718 -1.23602 1.22753 0
M  V30 4361 C 400.85 -2.33825 2.4807 0
M  V30 4362 H 402.043 -0.589476 2.9405 0
M  V30 4363 H 399.596 -0.270354 1.53944 0
M  V30 4364 H 400.331 -2.80307 1.6309 0
M  V30 4365 H 400.116 -2.1483 3.2801 0
M  V30 4366 H 401.606 -3.04426 2.85857 0
M  V30 4367 N 402.043 -1.548 -0.295768 0
M  V30 4368 C 403.289 -1.74588 -1.03184 0
M  V30 4369 C 403.622 -0.532962 -1.86744 0
M  V30 4370 O 402.897 0.469872 -1.88739 0
M  V30 4371 C 403.18 -3.03791 -1.93347 0
M  V30 4372 C 403.033 -4.35392 -1.12933 0
M  V30 4373 C 404.352 -3.28892 -2.92435 0
M  V30 4374 H 401.471 -0.635221 -0.373715 0
M  V30 4375 H 404.113 -1.87519 -0.30606 0
M  V30 4376 H 402.263 -2.92898 -2.55232 0
M  V30 4377 H 403.935 -4.58211 -0.532943 0
M  V30 4378 H 402.178 -4.31642 -0.432168 0
M  V30 4379 H 402.849 -5.22074 -1.79284 0
M  V30 4380 H 405.325 -3.39429 -2.4068 0
M  V30 4381 H 404.201 -4.20603 -3.52682 0
M  V30 4382 H 404.462 -2.47437 -3.6637 0
M  V30 4383 N 403.521 0.559213 -1.47345 0
M  V30 4384 C 404.769 1.31388 -1.53563 0
M  V30 4385 C 405.09 1.93985 -0.198678 0
M  V30 4386 O 404.36 1.79825 0.777167 0
M  V30 4387 H 402.94 0.487901 -0.565652 0
M  V30 4388 H 405.602 0.65315 -1.8363 0
M  V30 4389 H 404.698 2.10844 -2.30111 0
M  V30 4390 N 404.999 1.35443 0.805782 0
M  V30 4391 C 405.931 1.24285 1.92577 0
M  V30 4392 C 406.944 0.165962 1.61952 0
M  V30 4393 O 408.133 0.419303 1.73505 0
M  V30 4394 C 405.233 0.891272 3.2697 0
M  V30 4395 C 404.406 2.06669 3.85495 0
M  V30 4396 C 403.465 1.69077 4.98297 0
M  V30 4397 O 402.491 2.4096 5.15681 0
M  V30 4398 N 403.693 0.614869 5.77234 0
M  V30 4399 H 406.458 2.20777 2.02676 0
M  V30 4400 H 404.019 1.28623 0.983243 0
M  V30 4401 H 406.011 0.621256 3.99903 0
M  V30 4402 H 404.581 0.016004 3.12596 0
M  V30 4403 H 403.801 2.50046 3.04747 0
M  V30 4404 H 405.089 2.85237 4.21328 0
M  V30 4405 H 404.487 0.017648 5.65697 0
M  V30 4406 H 403.044 0.404636 6.50543 0
M  V30 4407 N 406.477 -1.02803 1.19454 0
M  V30 4408 C 407.387 -2.14575 0.948408 0
M  V30 4409 C 408.403 -1.73757 -0.091871 0
M  V30 4410 O 409.579 -2.01185 0.0929654 0
M  V30 4411 C 406.644 -3.43202 0.491265 0
M  V30 4412 C 405.705 -3.98328 1.60103 0
M  V30 4413 C 404.938 -5.20816 1.16561 0
M  V30 4414 O 405.161 -5.70392 0.0295238 0
M  V30 4415 O 404.095 -5.68801 1.96849 0
M  V30 4416 H 407.921 -2.38202 1.88397 0
M  V30 4417 H 405.506 -1.12989 0.977433 0
M  V30 4418 H 407.388 -4.20687 0.245015 0
M  V30 4419 H 406.063 -3.21018 -0.415851 0
M  V30 4420 H 404.97 -3.22174 1.90144 0
M  V30 4421 H 406.303 -4.24879 2.48473 0
M  V30 4422 N 407.956 -0.998596 -1.21925 0
M  V30 4423 C 409.202 -0.678667 -1.91107 0
M  V30 4424 C 409.535 0.78791 -1.77498 0
M  V30 4425 O 408.81 1.57043 -1.1475 0
M  V30 4426 C 409.093 -1.09245 -3.43129 0
M  V30 4427 C 408.946 -2.61801 -3.6576 0
M  V30 4428 C 410.265 -0.649984 -4.35274 0
M  V30 4429 H 407.384 -0.248025 -0.694012 0
M  V30 4430 H 410.026 -1.24314 -1.43688 0
M  V30 4431 H 408.176 -0.612171 -3.83647 0
M  V30 4432 H 409.848 -3.17543 -3.34611 0
M  V30 4433 H 408.091 -3.03609 -3.09845 0
M  V30 4434 H 408.762 -2.85804 -4.7225 0
M  V30 4435 H 411.238 -1.0626 -4.02303 0
M  V30 4436 H 410.114 -0.967743 -5.40302 0
M  V30 4437 H 410.375 0.449139 -4.39813 0
M  V30 4438 N 409.434 1.37368 -0.772513 0
M  V30 4439 C 410.681 1.99673 -0.337182 0
M  V30 4440 C 411.009 1.61324 1.0865 0
M  V30 4441 O 410.264 0.851377 1.7621 0
M  V30 4442 C 410.563 3.54817 -0.428876 0
M  V30 4443 C 410.229 4.12936 -1.81092 0
M  V30 4444 C 408.891 4.28523 -2.1891 0
M  V30 4445 C 411.243 4.44801 -2.71664 0
M  V30 4446 C 408.571 4.73277 -3.46735 0
M  V30 4447 C 410.923 4.90981 -3.98899 0
M  V30 4448 C 409.587 5.04773 -4.36761 0
M  V30 4449 H 408.857 0.730656 -0.123384 0
M  V30 4450 H 411.504 1.64124 -0.986686 0
M  V30 4451 H 409.809 3.90618 0.304167 0
M  V30 4452 H 411.506 4.00933 -0.0733334 0
M  V30 4453 H 408.096 4.01233 -1.50699 0
M  V30 4454 H 412.28 4.32344 -2.43706 0
M  V30 4455 H 407.536 4.82142 -3.75964 0
M  V30 4456 H 411.71 5.14603 -4.69208 0
M  V30 4457 H 409.337 5.39211 -5.35868 0
M  V30 4458 N 410.912 0.523116 1.48665 0
M  V30 4459 C 412.16 -0.0134497 2.02096 0
M  V30 4460 C 412.481 -1.35418 1.40311 0
M  V30 4461 O 411.751 -1.87543 0.566074 0
M  V30 4462 H 410.331 -0.00795915 0.746958 0
M  V30 4463 H 412.993 0.685388 1.82451 0
M  V30 4464 H 412.089 -0.126849 3.11842 0
M  V30 4465 N 412.39 -1.55475 0.257931 0
M  V30 4466 C 413.32 -2.24815 -0.630912 0
M  V30 4467 C 414.301 -1.23224 -1.17259 0
M  V30 4468 O 415.486 -1.51904 -1.20991 0
M  V30 4469 C 412.616 -2.95609 -1.82298 0
M  V30 4470 C 411.57 -4.03982 -1.41359 0
M  V30 4471 C 410.896 -4.6226 -2.68738 0
M  V30 4472 C 412.196 -5.19109 -0.57648 0
M  V30 4473 H 413.89 -2.99354 -0.0526878 0
M  V30 4474 H 411.436 -1.4398 -0.023901 0
M  V30 4475 H 413.389 -3.42822 -2.45054 0
M  V30 4476 H 412.113 -2.18577 -2.42676 0
M  V30 4477 H 410.772 -3.57555 -0.809324 0
M  V30 4478 H 410.42 -3.81915 -3.27338 0
M  V30 4479 H 410.12 -5.35424 -2.42065 0
M  V30 4480 H 411.644 -5.12212 -3.32372 0
M  V30 4481 H 413.058 -5.62479 -1.10861 0
M  V30 4482 H 411.455 -5.98729 -0.405351 0
M  V30 4483 H 412.525 -4.83174 0.408776 0
M  V30 4484 N 413.868 0.0150385 -1.57593 0
M  V30 4485 C 415.114 0.704043 -1.90187 0
M  V30 4486 C 415.447 1.74249 -0.857366 0
M  V30 4487 O 414.722 1.94092 0.125843 0
M  V30 4488 C 415.005 1.36087 -3.33395 0
M  V30 4489 C 414.858 0.334981 -4.48551 0
M  V30 4490 C 416.177 2.29112 -3.7576 0
M  V30 4491 H 413.296 0.254475 -0.691673 0
M  V30 4492 H 415.938 -0.0331678 -1.89971 0
M  V30 4493 H 414.088 1.98922 -3.3371 0
M  V30 4494 H 415.76 -0.292534 -4.60372 0
M  V30 4495 H 414.003 -0.344325 -4.32431 0
M  V30 4496 H 414.674 0.833316 -5.45674 0
M  V30 4497 H 417.15 1.76308 -3.76902 0
M  V30 4498 H 416.026 2.72043 -4.76743 0
M  V30 4499 H 416.287 3.16385 -3.08793 0
M  V30 4500 N 415.346 1.54954 0.287554 0
M  V30 4501 C 416.757 1.65732 0.859634 0
M  V30 4502 C 417.108 0.574767 1.87592 0
M  V30 4503 O 416.233 -0.286299 2.14498 0
M  V30 4504 C 416.828 3.00438 1.56597 0
M  V30 4505 C 415.387 3.13292 2.08627 0
M  V30 4506 C 414.534 2.61473 0.923416 0
M  V30 4507 H 417.485 1.5857 0.0642338 0
M  V30 4508 H 417.506 2.92613 2.43224 0
M  V30 4509 H 417.018 3.79207 0.826053 0
M  V30 4510 H 415.119 2.39268 2.85625 0
M  V30 4511 H 415.232 4.19647 2.31157 0
M  V30 4512 H 413.596 2.18264 1.31275 0
M  V30 4513 H 414.379 3.42733 0.197241 0
M  V30 4514 N 416.824 -0.551391 1.4764 0
M  V30 4515 C 418.072 -1.30572 1.54258 0
M  V30 4516 C 418.393 -1.93877 0.208963 0
M  V30 4517 O 417.663 -1.80234 -0.767619 0
M  V30 4518 H 416.243 -0.484894 0.568231 0
M  V30 4519 H 418.905 -0.643402 1.83974 0
M  V30 4520 H 418.001 -2.09621 2.31226 0
M  V30 4521 N 418.302 -1.35869 -0.798587 0
M  V30 4522 C 419.232 -1.32118 -1.92528 0
M  V30 4523 C 420.213 -0.194209 -1.68988 0
M  V30 4524 O 421.398 -0.390426 -1.90235 0
M  V30 4525 C 418.528 -1.10047 -3.29404 0
M  V30 4526 C 417.482 -2.19471 -3.67446 0
M  V30 4527 C 416.808 -1.82555 -5.02571 0
M  V30 4528 C 418.108 -3.61495 -3.76987 0
M  V30 4529 H 419.802 -2.26394 -1.95924 0
M  V30 4530 H 417.348 -1.08981 -0.94123 0
M  V30 4531 H 419.301 -1.06061 -4.07835 0
M  V30 4532 H 418.025 -0.122195 -3.26371 0
M  V30 4533 H 416.684 -2.22568 -2.91306 0
M  V30 4534 H 416.332 -0.833249 -4.9605 0
M  V30 4535 H 416.032 -2.5581 -5.28995 0
M  V30 4536 H 417.556 -1.80108 -5.83432 0
M  V30 4537 H 418.97 -3.60676 -4.4563 0
M  V30 4538 H 417.367 -4.33577 -4.14887 0
M  V30 4539 H 418.437 -3.97065 -2.78329 0
M  V30 4540 N 419.78 1.02168 -1.19998 0
M  V30 4541 C 420.713 2.10232 -0.887558 0
M  V30 4542 C 421.691 1.61827 0.158317 0
M  V30 4543 O 422.875 1.88471 0.0330249 0
M  V30 4544 C 420.002 3.37092 -0.32964 0
M  V30 4545 C 419.048 4.0438 -1.3557 0
M  V30 4546 S 419.881 4.48956 -2.91888 0
M  V30 4547 C 421.037 5.79024 -2.37658 0
M  V30 4548 H 421.27 2.36409 -1.80272 0
M  V30 4549 H 418.803 1.15211 -1.0279 0
M  V30 4550 H 420.761 4.10498 -0.0142824 0
M  V30 4551 H 419.422 3.08996 0.563941 0
M  V30 4552 H 418.615 4.95632 -0.9146 0
M  V30 4553 H 418.217 3.37176 -1.61828 0
M  V30 4554 H 420.509 6.53942 -1.77103 0
M  V30 4555 H 421.452 6.27924 -3.27287 0
M  V30 4556 H 421.86 5.35043 -1.79971 0
M  V30 4557 N 421.258 1.00505 1.21394 0
M  V30 4558 C 422.191 0.51032 2.22421 0
M  V30 4559 C 423.169 -0.436 1.56645 0
M  V30 4560 O 424.353 -0.358709 1.85055 0
M  V30 4561 C 421.48 -0.258733 3.3771 0
M  V30 4562 C 420.526 0.635395 4.2174 0
M  V30 4563 S 421.359 2.09783 4.92698 0
M  V30 4564 C 422.515 1.33862 6.11418 0
M  V30 4565 H 422.748 1.36637 2.64041 0
M  V30 4566 H 420.281 0.812991 1.31262 0
M  V30 4567 H 422.239 -0.696372 4.0455 0
M  V30 4568 H 420.9 -1.0902 2.94573 0
M  V30 4569 H 420.093 0.0430189 5.03982 0
M  V30 4570 H 419.695 1.01031 3.60095 0
M  V30 4571 H 421.987 0.612541 6.74725 0
M  V30 4572 H 422.93 2.13675 6.75092 0
M  V30 4573 H 423.338 0.846568 5.58116 0
M  V30 4574 N 422.737 -1.36956 0.779787 0
M  V30 4575 C 423.967 -2.03459 0.358877 0
M  V30 4576 C 424.375 -1.58939 -1.02641 0
M  V30 4577 O 423.718 -0.769777 -1.66794 0
M  V30 4578 C 423.78 -3.5796 0.332393 0
M  V30 4579 C 423.444 -4.25644 1.66362 0
M  V30 4580 C 424.441 -4.49205 2.61746 0
M  V30 4581 C 422.126 -4.63313 1.94027 0
M  V30 4582 C 424.12 -5.09503 3.82996 0
M  V30 4583 C 421.807 -5.2333 3.15546 0
M  V30 4584 C 422.805 -5.46363 4.0985 0
M  V30 4585 O 422.493 -6.05122 5.29228 0
M  V30 4586 H 422.225 -0.659767 0.147254 0
M  V30 4587 H 424.779 -1.76111 1.05708 0
M  V30 4588 H 423.009 -3.84388 -0.422237 0
M  V30 4589 H 424.698 -4.05852 -0.0625389 0
M  V30 4590 H 425.464 -4.20508 2.41657 0
M  V30 4591 H 421.343 -4.44715 1.21448 0
M  V30 4592 H 424.887 -5.27397 4.56617 0
M  V30 4593 H 420.784 -5.51451 3.35517 0
M  V30 4594 H 421.552 -6.23595 5.30161 0
M  V30 4595 N 424.215 -0.530993 -1.48385 0
M  V30 4596 C 425.178 0.220497 -2.28137 0
M  V30 4597 C 426.178 0.866851 -1.35434 0
M  V30 4598 O 427.368 0.726746 -1.58316 0
M  V30 4599 C 424.5 1.31921 -3.1434 0
M  V30 4600 H 425.693 -0.479714 -2.96038 0
M  V30 4601 H 423.246 -0.286968 -1.53643 0
M  V30 4602 H 423.981 2.05264 -2.51072 0
M  V30 4603 H 423.766 0.86085 -3.82533 0
M  V30 4604 H 425.256 1.84776 -3.74497 0
M  V30 4605 N 425.693 1.55336 -0.266172 0
M  V30 4606 C 426.921 2.03801 0.356756 0
M  V30 4607 C 427.336 1.14485 1.50129 0
M  V30 4608 O 426.693 0.163121 1.8177 0
M  V30 4609 C 426.744 3.51455 0.846281 0
M  V30 4610 O 426.465 4.37371 -0.252663 0
M  V30 4611 C 427.966 4.15767 1.53794 0
M  V30 4612 H 425.186 0.665906 0.0825218 0
M  V30 4613 H 427.73 2.00636 -0.39566 0
M  V30 4614 H 425.885 3.55092 1.54881 0
M  V30 4615 H 426.299 5.24358 0.122173 0
M  V30 4616 H 427.773 5.20714 1.83198 0
M  V30 4617 H 428.25 3.63404 2.46646 0
M  V30 4618 H 428.856 4.16107 0.879488 0
M  V30 4619 N 427.171 -0.0066808 1.57599 0
M  V30 4620 C 428.42 -0.692078 1.89455 0
M  V30 4621 C 428.733 -1.75306 0.867586 0
M  V30 4622 O 429.939 -2.49262 1.07614 0
M  V30 4623 C 428.395 -1.2821 3.36289 0
M  V30 4624 C 428.003 -0.256291 4.47266 0
M  V30 4625 C 429.747 -1.94608 3.77264 0
M  V30 4626 C 427.654 -0.855927 5.85173 0
M  V30 4627 H 426.584 -0.262252 0.706923 0
M  V30 4628 H 429.235 0.052769 1.83424 0
M  V30 4629 H 427.617 -2.0774 3.37135 0
M  V30 4630 H 428.791 0.513923 4.57925 0
M  V30 4631 H 427.106 0.306862 4.15268 0
M  V30 4632 H 429.703 -2.40364 4.77629 0
M  V30 4633 H 430.046 -2.77382 3.10427 0
M  V30 4634 H 430.579 -1.21822 3.78688 0
M  V30 4635 H 427.318 -0.0671161 6.55466 0
M  V30 4636 H 426.838 -1.59546 5.78191 0
M  V30 4637 H 428.517 -1.35658 6.32618 0
M  V30 4638 N 428.649 -1.55105 -0.279332 0
M  V30 4639 C 429.895 -1.76597 -1.00921 0
M  V30 4640 C 430.25 -0.556831 -1.84166 0
M  V30 4641 O 429.543 0.450573 -1.86227 0
M  V30 4642 C 429.737 -3.0086 -1.92919 0
M  V30 4643 C 429.566 -4.33744 -1.18728 0
M  V30 4644 C 428.336 -4.9712 -0.905545 0
M  V30 4645 C 430.534 -5.11009 -0.580857 0
M  V30 4646 N 428.516 -6.13749 -0.136169 0
M  V30 4647 C 429.887 -6.19976 0.0546661 0
M  V30 4648 C 431.942 -4.95502 -0.488067 0
M  V30 4649 C 430.645 -7.15123 0.774028 0
M  V30 4650 C 432.671 -5.90999 0.217688 0
M  V30 4651 C 432.033 -6.9935 0.841975 0
M  V30 4652 H 428.132 -0.698553 -0.351493 0
M  V30 4653 H 430.716 -1.92595 -0.285531 0
M  V30 4654 H 428.887 -2.86249 -2.62519 0
M  V30 4655 H 430.619 -3.10784 -2.59221 0
M  V30 4656 H 427.374 -4.57903 -1.20921 0
M  V30 4657 H 427.798 -6.7659 0.235665 0
M  V30 4658 H 432.44 -4.11841 -0.956406 0
M  V30 4659 H 430.158 -7.9831 1.25407 0
M  V30 4660 H 433.744 -5.81078 0.289717 0
M  V30 4661 H 432.624 -7.71973 1.37939 0
M  V30 4662 N 430.127 0.543554 -1.4793 0
M  V30 4663 C 431.057 1.65888 -1.64327 0
M  V30 4664 C 432.038 1.62818 -0.492383 0
M  V30 4665 O 433.223 1.80226 -0.723338 0
M  V30 4666 C 430.353 3.04506 -1.67013 0
M  V30 4667 C 429.307 3.2243 -2.81466 0
M  V30 4668 C 428.633 4.61972 -2.69233 0
M  V30 4669 C 429.933 3.06496 -4.22915 0
M  V30 4670 H 431.627 1.52421 -2.57698 0
M  V30 4671 H 429.173 0.731849 -1.24016 0
M  V30 4672 H 431.126 3.82391 -1.77074 0
M  V30 4673 H 429.85 3.18964 -0.70212 0
M  V30 4674 H 428.509 2.46957 -2.70938 0
M  V30 4675 H 428.157 4.73247 -1.7043 0
M  V30 4676 H 427.857 4.74911 -3.46025 0
M  V30 4677 H 429.381 5.41974 -2.81242 0
M  V30 4678 H 430.795 3.74186 -4.34348 0
M  V30 4679 H 429.192 3.30938 -5.006 0
M  V30 4680 H 430.262 2.03077 -4.40327 0
M  V30 4681 N 431.605 1.3629 0.791371 0
M  V30 4682 C 433.021 1.16661 1.08914 0
M  V30 4683 C 433.221 -0.0106266 2.01497 0
M  V30 4684 O 432.277 -0.676596 2.43266 0
M  V30 4685 C 433.59 2.47656 1.70549 0
M  V30 4686 C 435.138 2.54002 1.82899 0
M  V30 4687 C 435.613 3.85078 2.47949 0
M  V30 4688 N 437.104 3.86413 2.5542 0
M  V30 4689 C 437.839 4.84572 3.06557 0
M  V30 4690 N 437.335 5.93124 3.58016 0
M  V30 4691 N 439.128 4.71994 3.05251 0
M  V30 4692 H 431.279 2.11668 0.176238 0
M  V30 4693 H 433.542 0.937486 0.140796 0
M  V30 4694 H 433.248 3.34059 1.09989 0
M  V30 4695 H 433.122 2.63319 2.70079 0
M  V30 4696 H 435.509 1.68018 2.42598 0
M  V30 4697 H 435.59 2.42239 0.821808 0
M  V30 4698 H 435.234 4.71467 1.88895 0
M  V30 4699 H 435.164 3.94135 3.49235 0
M  V30 4700 H 437.655 3.07988 2.18979 0
M  V30 4701 H 437.968 6.63999 3.95381 0
M  V30 4702 H 436.313 5.96796 3.56173 0
M  V30 4703 H 439.504 3.86321 2.64336 0
M  V30 4704 H 439.677 5.48653 3.44796 0
M  V30 4705 N 433.083 -1.0153 1.20538 0
M  V30 4706 C 433.993 -2.13557 0.971113 0
M  V30 4707 C 435.009 -1.73845 -0.0734366 0
M  V30 4708 O 436.185 -2.01075 0.114299 0
M  V30 4709 C 433.25 -3.42661 0.527639 0
M  V30 4710 C 432.311 -3.96608 1.64319 0
M  V30 4711 C 431.544 -5.1955 1.22078 0
M  V30 4712 O 431.767 -5.70329 0.0900198 0
M  V30 4713 O 430.701 -5.66681 2.02871 0
M  V30 4714 H 434.527 -2.3619 1.90913 0
M  V30 4715 H 432.112 -1.11946 0.989362 0
M  V30 4716 H 433.994 -4.20404 0.289621 0
M  V30 4717 H 432.669 -3.21441 -0.381779 0
M  V30 4718 H 431.576 -3.20139 1.93551 0
M  V30 4719 H 432.909 -4.22219 2.52966 0
M  V30 4720 N 434.561 -1.01147 -1.20859 0
M  V30 4721 C 435.511 -0.548247 -2.2131 0
M  V30 4722 C 436.495 0.393646 -1.5601 0
M  V30 4723 O 437.687 0.217445 -1.75659 0
M  V30 4724 C 434.816 0.117252 -3.431 0
M  V30 4725 C 433.902 -0.846043 -4.15575 0
M  V30 4726 N 434.293 -2.00149 -4.64515 0
M  V30 4727 C 432.591 -0.665783 -4.41003 0
M  V30 4728 C 433.292 -2.60764 -5.19978 0
M  V30 4729 N 432.268 -1.88868 -5.09735 0
M  V30 4730 H 436.07 -1.42921 -2.56809 0
M  V30 4731 H 433.584 -0.876142 -1.36739 0
M  V30 4732 H 435.581 0.46662 -4.1428 0
M  V30 4733 H 434.241 0.994115 -3.09107 0
M  V30 4734 H 435.252 -2.38162 -4.5989 0
M  V30 4735 H 431.929 0.163456 -4.1718 0
M  V30 4736 H 433.319 -3.58519 -5.68255 0
M  V30 4737 N 436.039 1.36541 -0.78704 0
M  V30 4738 C 436.987 2.31965 -0.171724 0
M  V30 4739 C 437.981 1.55689 0.667631 0
M  V30 4740 O 439.187 1.70969 0.562981 0
M  V30 4741 H 435.562 0.751101 -0.0367545 0
M  V30 4742 H 437.533 2.81428 -0.992017 0
M  V30 4743 C 436.282 3.40968 0.680904 0
M  V30 4744 H 435.605 3.99775 0.0443961 0
M  V30 4745 H 437.045 4.10063 1.07815 0
M  V30 4746 C 435.504 2.82338 1.83813 0
M  V30 4747 O 436.034 2.74311 2.93456 0
M  V30 4748 N 434.24 2.39661 1.6435 0
M  V30 4749 H 433.787 2.46389 0.751668 0
M  V30 4750 H 433.745 2.00779 2.4194 0
M  V30 4751 N 437.518 0.538854 1.48102 0
M  V30 4752 C 438.934 0.19732 1.58376 0
M  V30 4753 C 439.134 -1.29971 1.5398 0
M  V30 4754 O 438.19 -2.07861 1.43352 0
M  V30 4755 C 439.503 0.807716 2.89649 0
M  V30 4756 C 441.051 0.77726 3.03196 0
M  V30 4757 C 441.526 1.36639 4.37143 0
M  V30 4758 N 443.017 1.32875 4.43732 0
M  V30 4759 C 443.752 1.7544 5.45901 0
M  V30 4760 N 443.248 2.25776 6.54979 0
M  V30 4761 N 445.041 1.66623 5.36836 0
M  V30 4762 H 437.192 1.5117 1.49202 0
M  V30 4763 H 439.455 0.629327 0.708979 0
M  V30 4764 H 439.161 1.85909 2.98548 0
M  V30 4765 H 439.035 0.289975 3.76084 0
M  V30 4766 H 441.422 -0.265374 2.93904 0
M  V30 4767 H 441.503 1.33256 2.18349 0
M  V30 4768 H 441.147 2.408 4.47189 0
M  V30 4769 H 441.077 0.786689 5.20691 0
M  V30 4770 H 443.568 0.96037 3.65493 0
M  V30 4771 H 443.881 2.56226 7.29087 0
M  V30 4772 H 442.226 2.29775 6.55918 0
M  V30 4773 H 445.417 1.27089 4.50517 0
M  V30 4774 H 445.59 2.00115 6.16326 0
M  V30 4775 N 438.996 -1.55193 0.274407 0
M  V30 4776 C 440.242 -1.99877 -0.343086 0
M  V30 4777 C 440.575 -1.16256 -1.55558 0
M  V30 4778 O 439.85 -0.232462 -1.93106 0
M  V30 4779 C 440.133 -3.52706 -0.725965 0
M  V30 4780 C 439.986 -4.47081 0.493818 0
M  V30 4781 C 441.305 -4.11422 -1.56268 0
M  V30 4782 H 438.424 -0.726625 -0.123229 0
M  V30 4783 H 441.066 -1.86136 0.38121 0
M  V30 4784 H 439.216 -3.64546 -1.34307 0
M  V30 4785 H 440.888 -4.47186 1.13237 0
M  V30 4786 H 439.131 -4.1877 1.13201 0
M  V30 4787 H 439.802 -5.51699 0.18217 0
M  V30 4788 H 442.278 -4.02855 -1.04151 0
M  V30 4789 H 441.154 -5.18568 -1.79939 0
M  V30 4790 H 441.415 -3.61607 -2.54348 0
M  V30 4791 N 440.474 -0.00167713 -1.576 0
M  V30 4792 C 441.714 0.687302 -1.92498 0
M  V30 4793 C 442.078 1.70844 -0.876144 0
M  V30 4794 O 443.279 2.44792 -1.11043 0
M  V30 4795 C 441.55 1.31217 -3.32441 0
M  V30 4796 S 443.109 2.02604 -3.89226 0
M  V30 4797 H 439.927 0.226985 -0.673794 0
M  V30 4798 H 442.529 -0.0587666 -1.95412 0
M  V30 4799 H 441.233 0.556164 -4.06614 0
M  V30 4800 H 440.764 2.09613 -3.32905 0
M  V30 4801 H 442.779 3.30137 -3.70438 0
M  V30 4802 N 441.952 1.55251 0.271103 0
M  V30 4803 C 443.229 1.66664 1.02384 0
M  V30 4804 C 443.609 0.534363 2.04225 0
M  V30 4805 O 442.957 -0.465337 2.23712 0
M  V30 4806 C 443.167 3.05961 1.67895 0
M  V30 4807 C 444.515 3.63772 2.18986 0
M  V30 4808 O 445.539 3.08606 1.77878 0
M  V30 4809 O 444.398 4.60429 2.94393 0
M  V30 4810 H 441.492 0.676957 0.475035 0
M  V30 4811 H 444.038 1.67589 0.26681 0
M  V30 4812 H 442.81 3.79815 0.941071 0
M  V30 4813 H 442.433 3.08943 2.5028 0
M  V30 4814 N 443.43 -0.535701 1.48216 0
M  V30 4815 C 444.676 -1.29375 1.56173 0
M  V30 4816 C 445.009 -1.92804 0.232429 0
M  V30 4817 O 444.284 -1.78992 -0.761048 0
M  V30 4818 C 444.567 -2.38747 2.69577 0
M  V30 4819 C 444.42 -1.80046 4.12193 0
M  V30 4820 C 445.739 -3.40551 2.78771 0
M  V30 4821 H 442.858 -0.469027 0.568491 0
M  V30 4822 H 445.5 -0.597358 1.80365 0
M  V30 4823 H 443.65 -2.98147 2.4908 0
M  V30 4824 H 445.322 -1.24742 4.44114 0
M  V30 4825 H 443.565 -1.10609 4.19462 0
M  V30 4826 H 444.236 -2.59212 4.87353 0
M  V30 4827 H 446.712 -2.91099 2.97322 0
M  V30 4828 H 445.588 -4.1448 3.59857 0
M  V30 4829 H 445.849 -4.00746 1.86696 0
M  V30 4830 N 444.908 -1.36708 -0.784132 0
M  V30 4831 C 445.838 -1.34153 -1.91116 0
M  V30 4832 C 446.819 -0.212121 -1.68772 0
M  V30 4833 O 448.004 -0.410581 -1.8981 0
M  V30 4834 C 445.134 -1.13535 -3.28218 0
M  V30 4835 C 444.088 -2.23356 -3.65097 0
M  V30 4836 C 443.414 -1.87875 -5.00607 0
M  V30 4837 C 444.714 -3.65473 -3.73131 0
M  V30 4838 H 446.408 -2.28459 -1.93512 0
M  V30 4839 H 443.954 -1.09973 -0.929618 0
M  V30 4840 H 445.907 -1.10381 -4.06687 0
M  V30 4841 H 444.631 -0.156804 -3.26223 0
M  V30 4842 H 443.29 -2.25645 -2.88929 0
M  V30 4843 H 442.938 -0.885814 -4.95139 0
M  V30 4844 H 442.638 -2.61406 -5.26252 0
M  V30 4845 H 444.162 -1.86286 -5.81489 0
M  V30 4846 H 445.576 -3.65382 -4.41779 0
M  V30 4847 H 443.973 -4.37953 -4.10265 0
M  V30 4848 H 445.043 -3.99995 -2.74102 0
M  V30 4849 N 446.386 1.0089 -1.21074 0
M  V30 4850 C 447.333 2.09588 -0.966512 0
M  V30 4851 C 448.303 1.65761 0.106089 0
M  V30 4852 O 449.488 1.90758 -0.0402287 0
M  V30 4853 C 446.628 3.40958 -0.533058 0
M  V30 4854 C 445.741 3.9822 -1.67467 0
M  V30 4855 C 444.876 5.17682 -1.19076 0
M  V30 4856 C 443.915 5.67043 -2.30496 0
M  V30 4857 N 443.052 6.77759 -1.83267 0
M  V30 4858 H 447.892 2.29815 -1.89708 0
M  V30 4859 H 445.429 1.12689 -0.945489 0
M  V30 4860 H 447.387 4.1637 -0.263019 0
M  V30 4861 H 446.017 3.20781 0.360505 0
M  V30 4862 H 445.069 3.1983 -2.05944 0
M  V30 4863 H 446.381 4.3085 -2.51336 0
M  V30 4864 H 445.535 6.00326 -0.877151 0
M  V30 4865 H 444.274 4.86635 -0.322066 0
M  V30 4866 H 443.279 4.82999 -2.62664 0
M  V30 4867 H 444.504 6.00121 -3.17855 0
M  V30 4868 H 442.45 6.48527 -0.987356 0
M  V30 4869 H 442.367 7.09624 -2.60711 0
M  V30 4870 H 443.635 7.63949 -1.54928 0
M  V30 4871 N 447.864 1.01787 1.20321 0
M  V30 4872 C 448.796 0.547357 2.22568 0
M  V30 4873 C 449.809 -0.370922 1.58518 0
M  V30 4874 O 450.998 -0.169067 1.77698 0
M  V30 4875 C 448.098 -0.223031 3.38165 0
M  V30 4876 C 447.271 0.697472 4.31803 0
M  V30 4877 C 446.33 -0.025562 5.26194 0
M  V30 4878 O 445.356 0.597367 5.66057 0
M  V30 4879 N 446.558 -1.29999 5.65757 0
M  V30 4880 H 449.323 1.42668 2.63564 0
M  V30 4881 H 446.884 0.895552 1.34876 0
M  V30 4882 H 448.876 -0.716002 3.98316 0
M  V30 4883 H 447.446 -1.00366 2.9605 0
M  V30 4884 H 446.666 1.37073 3.69601 0
M  V30 4885 H 447.954 1.32347 4.91286 0
M  V30 4886 H 447.352 -1.827 5.35385 0
M  V30 4887 H 445.909 -1.73766 6.28211 0
M  V30 4888 N 449.342 -1.36122 0.79427 0
M  V30 4889 C 450.252 -2.33769 0.197296 0
M  V30 4890 C 451.268 -1.61276 -0.653153 0
M  V30 4891 O 452.444 -1.9323 -0.5678 0
M  V30 4892 C 449.509 -3.40474 -0.654098 0
M  V30 4893 C 448.57 -4.28759 0.215411 0
M  V30 4894 C 447.803 -5.30368 -0.595443 0
M  V30 4895 O 448.026 -5.40211 -1.83107 0
M  V30 4896 O 446.96 -6.019 0.00721351 0
M  V30 4897 H 450.786 -2.86597 1.00478 0
M  V30 4898 H 448.371 -1.38676 0.555818 0
M  V30 4899 H 450.253 -4.05703 -1.13944 0
M  V30 4900 H 448.928 -2.89937 -1.43938 0
M  V30 4901 H 447.835 -3.66554 0.747615 0
M  V30 4902 H 449.168 -4.82661 0.964332 0
M  V30 4903 N 450.82 -0.546701 -1.47814 0
M  V30 4904 C 451.77 0.227042 -2.26867 0
M  V30 4905 C 452.754 0.894844 -1.33721 0
M  V30 4906 O 453.946 0.794887 -1.58147 0
M  V30 4907 C 451.075 1.26299 -3.19223 0
M  V30 4908 C 450.161 0.59913 -4.19847 0
M  V30 4909 N 450.552 -0.324777 -5.04756 0
M  V30 4910 C 448.85 0.854331 -4.37741 0
M  V30 4911 C 449.551 -0.709386 -5.77358 0
M  V30 4912 N 448.527 -0.0666153 -5.43559 0
M  V30 4913 H 452.329 -0.483476 -2.89896 0
M  V30 4914 H 449.843 -0.365893 -1.58224 0
M  V30 4915 H 451.84 1.83116 -3.74532 0
M  V30 4916 H 450.5 1.97471 -2.57751 0
M  V30 4917 H 451.511 -0.698351 -5.1317 0
M  V30 4918 H 448.188 1.55536 -3.87447 0
M  V30 4919 H 449.578 -1.46796 -6.55668 0
M  V30 4920 N 452.299 1.55045 -0.282633 0
M  V30 4921 C 453.71 1.85473 0.213655 0
M  V30 4922 C 454.061 1.20465 1.54863 0
M  V30 4923 O 453.186 0.495676 2.10647 0
M  V30 4924 C 453.781 3.36496 0.394445 0
M  V30 4925 C 452.34 3.67022 0.834961 0
M  V30 4926 C 451.487 2.77218 -0.0674081 0
M  V30 4927 H 454.438 1.50478 -0.504202 0
M  V30 4928 H 454.459 3.60007 1.23186 0
M  V30 4929 H 453.971 3.83782 -0.577326 0
M  V30 4930 H 452.072 3.25241 1.81794 0
M  V30 4931 H 452.185 4.74433 0.667075 0
M  V30 4932 H 450.549 2.5069 0.450196 0
M  V30 4933 H 451.332 3.2732 -1.0352 0
M  V30 4934 N 453.777 0.010035 1.57597 0
M  V30 4935 C 454.687 -0.994226 2.12491 0
M  V30 4936 C 455.703 -1.37013 1.07254 0
M  V30 4937 O 456.879 -1.45542 1.3921 0
M  V30 4938 C 453.944 -2.2642 2.62555 0
M  V30 4939 C 453.005 -1.95049 3.82432 0
M  V30 4940 C 452.238 -3.15991 4.30099 0
M  V30 4941 O 452.461 -4.28015 3.7704 0
M  V30 4942 O 451.395 -2.99403 5.22151 0
M  V30 4943 H 455.221 -0.557549 2.98538 0
M  V30 4944 H 452.806 -0.209413 1.47925 0
M  V30 4945 H 454.688 -3.01009 2.9491 0
M  V30 4946 H 453.363 -2.69306 1.796 0
M  V30 4947 H 452.27 -1.17904 3.55034 0
M  V30 4948 H 453.603 -1.56992 4.66491 0
M  V30 4949 N 455.255 -1.55392 -0.262866 0
M  V30 4950 C 456.501 -1.77657 -0.990424 0
M  V30 4951 C 456.856 -0.576333 -1.83565 0
M  V30 4952 O 456.149 0.430795 -1.86694 0
M  V30 4953 C 456.343 -3.02889 -1.89718 0
M  V30 4954 C 456.172 -4.34979 -1.14121 0
M  V30 4955 C 454.942 -4.98052 -0.852768 0
M  V30 4956 C 457.14 -5.11597 -0.526625 0
M  V30 4957 N 455.122 -6.13859 -0.0710649 0
M  V30 4958 C 456.493 -6.19883 0.12042 0
M  V30 4959 C 458.548 -4.95992 -0.435485 0
M  V30 4960 C 457.251 -7.14262 0.849833 0
M  V30 4961 C 459.277 -5.90735 0.280359 0
M  V30 4962 C 458.639 -6.98417 0.916103 0
M  V30 4963 H 454.738 -0.702242 -0.344064 0
M  V30 4964 H 457.322 -1.92887 -0.265088 0
M  V30 4965 H 455.493 -2.89017 -2.59468 0
M  V30 4966 H 457.225 -3.13516 -2.5591 0
M  V30 4967 H 453.98 -4.5916 -1.16058 0
M  V30 4968 H 454.404 -6.76302 0.307413 0
M  V30 4969 H 459.046 -4.12832 -0.912671 0
M  V30 4970 H 456.764 -7.96935 1.33867 0
M  V30 4971 H 460.35 -5.80738 0.351332 0
M  V30 4972 H 459.23 -7.70467 1.46119 0
M  V30 4973 N 456.733 0.527833 -1.48498 0
M  V30 4974 C 458.01 1.28905 -1.47115 0
M  V30 4975 C 458.39 2.10297 -0.184007 0
M  V30 4976 O 457.738 2.12728 0.834218 0
M  V30 4977 C 457.948 2.16866 -2.73441 0
M  V30 4978 C 459.296 2.76936 -3.21857 0
M  V30 4979 O 460.32 2.27152 -2.74373 0
M  V30 4980 O 459.179 3.67496 -4.04486 0
M  V30 4981 H 456.273 0.581918 -0.587623 0
M  V30 4982 H 458.819 0.544311 -1.60734 0
M  V30 4983 H 457.591 1.56521 -3.58632 0
M  V30 4984 H 457.214 2.98583 -2.62553 0
M  V30 4985 N 458.211 1.37122 0.776871 0
M  V30 4986 C 459.488 1.22586 1.52421 0
M  V30 4987 C 459.868 -0.182726 2.10308 0
M  V30 4988 O 459.216 -1.18979 1.9508 0
M  V30 4989 C 459.426 2.31782 2.60918 0
M  V30 4990 C 460.774 2.69071 3.2846 0
M  V30 4991 O 461.798 2.3092 2.71209 0
M  V30 4992 O 460.657 3.3478 4.31954 0
M  V30 4993 H 457.751 0.478045 0.674835 0
M  V30 4994 H 460.297 1.48888 0.814275 0
M  V30 4995 H 459.069 3.26131 2.16227 0
M  V30 4996 H 458.692 2.06916 3.39517 0
M  V30 4997 N 459.689 -1.00246 1.21608 0
M  V30 4998 C 460.599 -2.12515 0.993709 0
M  V30 4999 C 461.615 -1.73913 -0.0549939 0
M  V30 5000 O 462.791 -2.00943 0.135619 0
M  V30 5001 C 459.856 -3.42083 0.563953 0
M  V30 5002 C 458.917 -3.94843 1.68516 0
M  V30 5003 C 458.15 -5.18226 1.27582 0
M  V30 5004 O 458.373 -5.70201 0.150506 0
M  V30 5005 O 457.307 -5.64497 2.0887 0
M  V30 5006 H 461.133 -2.34152 1.93407 0
M  V30 5007 H 458.718 -1.10891 1.00118 0
M  V30 5008 H 460.6 -4.20073 0.334194 0
M  V30 5009 H 459.275 -3.21828 -0.347665 0
M  V30 5010 H 458.182 -3.18068 1.96935 0
M  V30 5011 H 459.515 -4.19512 2.5743 0
M  V30 5012 N 461.167 -1.02423 -1.1978 0
M  V30 5013 C 462.583 -0.740459 -1.41384 0
M  V30 5014 C 462.783 0.676827 -1.89793 0
M  V30 5015 O 461.839 1.4435 -2.0717 0
M  V30 5016 C 463.152 -1.77264 -2.42895 0
M  V30 5017 C 464.7 -1.79165 -2.56649 0
M  V30 5018 C 465.175 -2.8133 -3.6141 0
M  V30 5019 N 466.666 -2.80118 -3.68901 0
M  V30 5020 C 467.401 -3.55824 -4.49641 0
M  V30 5021 N 466.897 -4.41231 -5.34123 0
M  V30 5022 N 468.69 -3.44387 -4.44246 0
M  V30 5023 H 460.841 -1.9391 -0.866764 0
M  V30 5024 H 463.104 -0.838074 -0.443098 0
M  V30 5025 H 462.81 -2.7884 -2.14339 0
M  V30 5026 H 462.684 -1.59108 -3.42001 0
M  V30 5027 H 465.071 -0.782702 -2.84531 0
M  V30 5028 H 465.152 -2.01396 -1.57713 0
M  V30 5029 H 464.796 -3.82394 -3.34271 0
M  V30 5030 H 464.726 -2.56359 -4.59986 0
M  V30 5031 H 467.217 -2.1817 -3.08562 0
M  V30 5032 H 467.53 -4.95747 -5.92836 0
M  V30 5033 H 465.875 -4.45306 -5.33599 0
M  V30 5034 H 469.066 -2.7708 -3.77285 0
M  V30 5035 H 469.239 -4.0364 -5.06931 0
M  V30 5036 N 462.645 1.35699 -0.801477 0
M  V30 5037 C 463.575 2.32436 -0.222658 0
M  V30 5038 C 464.556 1.5723 0.649057 0
M  V30 5039 O 465.741 1.85324 0.580387 0
M  V30 5040 C 462.871 3.41469 0.633719 0
M  V30 5041 C 461.825 4.27774 -0.139083 0
M  V30 5042 C 461.151 5.28082 0.838666 0
M  V30 5043 C 462.451 5.04946 -1.33517 0
M  V30 5044 H 464.145 2.81094 -1.03086 0
M  V30 5045 H 461.691 1.35146 -0.497155 0
M  V30 5046 H 463.644 4.08143 1.04868 0
M  V30 5047 H 462.368 2.91408 1.47475 0
M  V30 5048 H 461.027 3.62673 -0.535156 0
M  V30 5049 H 460.675 4.7429 1.67506 0
M  V30 5050 H 460.375 5.86695 0.32594 0
M  V30 5051 H 461.899 5.97628 1.25194 0
M  V30 5052 H 463.313 5.64593 -0.995349 0
M  V30 5053 H 461.71 5.7303 -1.78202 0
M  V30 5054 H 462.78 4.35886 -2.12442 0
M  V30 5055 N 464.123 0.554532 1.47522 0
M  V30 5056 C 465.37 0.029479 2.02479 0
M  V30 5057 C 465.698 -1.31929 1.42916 0
M  V30 5058 O 464.953 -1.87112 0.573385 0
M  V30 5059 C 465.252 -0.115927 3.57212 0
M  V30 5060 C 464.918 1.16161 4.3568 0
M  V30 5061 C 463.58 1.51168 4.56839 0
M  V30 5062 C 465.932 2.0083 4.80954 0
M  V30 5063 C 463.26 2.70696 5.2052 0
M  V30 5064 C 465.612 3.19559 5.45953 0
M  V30 5065 C 464.276 3.54882 5.65345 0
M  V30 5066 H 463.546 0.0107871 0.740921 0
M  V30 5067 H 466.193 0.725506 1.77225 0
M  V30 5068 H 464.498 -0.894902 3.81443 0
M  V30 5069 H 466.195 -0.53749 3.97381 0
M  V30 5070 H 462.785 0.879026 4.19489 0
M  V30 5071 H 466.969 1.75093 4.64388 0
M  V30 5072 H 462.225 2.98236 5.33728 0
M  V30 5073 H 466.399 3.85456 5.79997 0
M  V30 5074 H 464.026 4.47596 6.1446 0
M  V30 5075 N 465.601 -1.54893 0.290851 0
M  V30 5076 C 466.533 -2.20564 -0.623236 0
M  V30 5077 C 467.546 -1.19519 -1.1054 0
M  V30 5078 O 468.735 -1.46165 -1.02459 0
M  V30 5079 C 465.835 -2.83033 -1.86401 0
M  V30 5080 C 465.008 -4.09916 -1.52604 0
M  V30 5081 C 464.067 -4.56284 -2.62091 0
M  V30 5082 O 463.093 -5.2171 -2.27612 0
M  V30 5083 N 464.295 -4.27746 -3.92446 0
M  V30 5084 H 467.06 -2.99638 -0.0610915 0
M  V30 5085 H 464.621 -1.61508 0.112615 0
M  V30 5086 H 466.613 -3.1099 -2.58973 0
M  V30 5087 H 465.183 -2.0786 -2.33481 0
M  V30 5088 H 464.403 -3.89078 -0.633424 0
M  V30 5089 H 465.691 -4.92554 -1.27547 0
M  V30 5090 H 465.089 -3.7531 -4.23272 0
M  V30 5091 H 463.646 -4.60437 -4.61347 0
M  V30 5092 N 467.08 -0.0183926 -1.57589 0
M  V30 5093 C 468.308 0.673046 -1.95647 0
M  V30 5094 C 468.723 1.66275 -0.894312 0
M  V30 5095 O 468.08 1.82072 0.124975 0
M  V30 5096 C 468.131 1.38884 -3.33756 0
M  V30 5097 O 467.852 0.438806 -4.35897 0
M  V30 5098 C 469.353 2.1731 -3.86383 0
M  V30 5099 H 466.573 0.186292 -0.644621 0
M  V30 5100 H 469.117 -0.0749748 -2.04363 0
M  V30 5101 H 467.272 2.08835 -3.26293 0
M  V30 5102 H 467.686 0.945869 -5.15901 0
M  V30 5103 H 469.16 2.62863 -4.85394 0
M  V30 5104 H 469.637 3.00764 -3.20059 0
M  V30 5105 H 470.243 1.52339 -3.97081 0
M  V30 5106 N 468.558 1.5553 0.254621 0
M  V30 5107 C 469.783 1.81383 1.00573 0
M  V30 5108 C 470.208 0.594419 1.78461 0
M  V30 5109 O 469.566 -0.456403 1.75461 0
M  V30 5110 C 469.614 3.04892 1.92545 0
M  V30 5111 O 468.718 2.81266 3.01601 0
M  V30 5112 H 468.059 0.598969 0.286587 0
M  V30 5113 H 470.589 2.02703 0.277952 0
M  V30 5114 H 470.599 3.34119 2.34155 0
M  V30 5115 H 469.274 3.93287 1.3527 0
M  V30 5116 H 467.851 2.63185 2.64174 0
M  V30 5117 N 470.036 -0.519951 1.48776 0
M  V30 5118 C 471.452 -0.849418 1.35119 0
M  V30 5119 C 471.652 -1.98077 0.36982 0
M  V30 5120 O 470.708 -2.51664 -0.205359 0
M  V30 5121 C 472.021 -1.20748 2.75391 0
M  V30 5122 C 473.569 -1.31679 2.83954 0
M  V30 5123 C 474.044 -1.70824 4.24951 0
M  V30 5124 N 475.535 -1.77908 4.27672 0
M  V30 5125 C 476.27 -2.09603 5.33717 0
M  V30 5126 N 475.766 -2.39652 6.5003 0
M  V30 5127 N 477.559 -2.10694 5.21119 0
M  V30 5128 H 469.71 0.226377 2.1119 0
M  V30 5129 H 471.973 0.0386519 0.947212 0
M  V30 5130 H 471.679 -0.449703 3.48813 0
M  V30 5131 H 471.553 -2.15534 3.09556 0
M  V30 5132 H 473.94 -2.06532 2.10781 0
M  V30 5133 H 474.021 -0.3499 2.53396 0
M  V30 5134 H 473.665 -0.965282 4.98643 0
M  V30 5135 H 473.595 -2.6858 4.52959 0
M  V30 5136 H 476.086 -1.56923 3.43779 0
M  V30 5137 H 476.399 -2.6297 7.26682 0
M  V30 5138 H 474.744 -2.37149 6.53288 0
M  V30 5139 H 477.935 -1.86682 4.29264 0
M  V30 5140 H 478.108 -2.35062 6.03863 0
M  V30 5141 N 471.514 -1.37532 -0.769588 0
M  V30 5142 C 472.444 -1.36172 -1.89682 0
M  V30 5143 C 473.425 -0.23001 -1.68538 0
M  V30 5144 O 474.61 -0.43069 -1.89364 0
M  V30 5145 C 471.74 -1.1701 -3.26995 0
M  V30 5146 C 470.694 -2.27216 -3.62708 0
M  V30 5147 C 470.02 -1.93174 -4.98586 0
M  V30 5148 C 471.32 -3.6941 -3.69234 0
M  V30 5149 H 473.014 -2.30499 -1.91078 0
M  V30 5150 H 470.56 -1.10953 -0.917902 0
M  V30 5151 H 472.513 -1.14688 -4.05493 0
M  V30 5152 H 471.237 -0.191395 -3.26039 0
M  V30 5153 H 469.896 -2.28697 -2.86519 0
M  V30 5154 H 469.544 -0.938281 -4.94171 0
M  V30 5155 H 469.244 -2.66973 -5.23449 0
M  V30 5156 H 470.768 -1.92443 -5.79481 0
M  V30 5157 H 472.182 -3.70047 -4.37879 0
M  V30 5158 H 470.579 -4.4228 -4.05597 0
M  V30 5159 H 471.649 -4.0288 -2.69844 0
M  V30 5160 N 472.992 0.995999 -1.22138 0
M  V30 5161 C 474.241 1.72928 -1.03821 0
M  V30 5162 C 474.554 1.90872 0.427444 0
M  V30 5163 O 475.76 2.61496 0.730212 0
M  V30 5164 C 474.216 3.11124 -1.80913 0
M  V30 5165 C 473.824 3.01122 -3.31707 0
M  V30 5166 C 475.568 3.8852 -1.71035 0
M  V30 5167 C 473.475 4.34453 -4.01253 0
M  V30 5168 H 472.405 0.648376 -0.384869 0
M  V30 5169 H 475.056 1.11213 -1.45959 0
M  V30 5170 H 473.438 3.73503 -1.31573 0
M  V30 5171 H 474.612 2.47926 -3.88419 0
M  V30 5172 H 472.927 2.3721 -3.42228 0
M  V30 5173 H 475.524 4.872 -2.20318 0
M  V30 5174 H 475.867 4.1087 -0.670196 0
M  V30 5175 H 476.4 3.32812 -2.17902 0
M  V30 5176 H 473.139 4.17303 -5.05508 0
M  V30 5177 H 472.659 4.87574 -3.49331 0
M  V30 5178 H 474.338 5.03215 -4.06674 0
M  V30 5179 N 474.47 1.03057 1.19235 0
M  V30 5180 C 475.4 0.633497 2.24742 0
M  V30 5181 C 476.381 -0.358335 1.66283 0
M  V30 5182 O 477.566 -0.240676 1.92703 0
M  V30 5183 C 474.696 -0.0147648 3.47297 0
M  V30 5184 C 473.65 0.899527 4.18441 0
M  V30 5185 C 472.976 0.116281 5.34574 0
M  V30 5186 C 474.276 2.21404 4.73051 0
M  V30 5187 H 475.97 1.5155 2.58211 0
M  V30 5188 H 473.516 0.73014 1.24117 0
M  V30 5189 H 475.469 -0.304202 4.20301 0
M  V30 5190 H 474.193 -0.931577 3.13032 0
M  V30 5191 H 472.852 1.17319 3.47321 0
M  V30 5192 H 472.5 -0.802619 4.96555 0
M  V30 5193 H 472.2 0.725293 5.83107 0
M  V30 5194 H 473.724 -0.166376 6.10373 0
M  V30 5195 H 475.138 1.98601 5.37802 0
M  V30 5196 H 473.535 2.77512 5.32078 0
M  V30 5197 H 474.605 2.86752 3.91026 0
M  V30 5198 N 475.948 -1.35272 0.808662 0
M  V30 5199 C 477.197 -1.97963 0.386483 0
M  V30 5200 C 477.51 -1.64866 -1.05255 0
M  V30 5201 O 478.716 -2.20937 -1.57794 0
M  V30 5202 C 477.172 -3.54162 0.640096 0
M  V30 5203 C 476.78 -3.96166 2.0918 0
M  V30 5204 C 478.524 -4.23553 0.283376 0
M  V30 5205 C 476.431 -5.4522 2.29106 0
M  V30 5206 H 475.361 -0.740742 0.140774 0
M  V30 5207 H 478.012 -1.5431 0.993012 0
M  V30 5208 H 476.394 -3.95983 -0.0364117 0
M  V30 5209 H 477.568 -3.65491 2.80629 0
M  V30 5210 H 475.883 -3.3967 2.40859 0
M  V30 5211 H 478.48 -5.33124 0.410273 0
M  V30 5212 H 478.823 -4.09105 -0.770659 0
M  V30 5213 H 479.356 -3.8716 0.913884 0
M  V30 5214 H 476.095 -5.64638 3.32962 0
M  V30 5215 H 475.615 -5.77457 1.62184 0
M  V30 5216 H 477.294 -6.1171 2.1076 0
M  V30 5217 N 477.426 -0.562348 -1.47226 0
M  V30 5218 C 478.674 -0.0401371 -2.0206 0
M  V30 5219 C 478.995 1.3165 -1.43852 0
M  V30 5220 O 478.265 1.85976 -0.615599 0
M  V30 5221 H 476.845 -0.0118479 -0.746906 0
M  V30 5222 H 479.507 -0.73352 -1.8057 0
M  V30 5223 H 478.603 0.0441254 -3.12069 0
M  V30 5224 N 478.904 1.54736 -0.299062 0
M  V30 5225 C 479.814 2.27127 0.587413 0
M  V30 5226 C 480.83 1.30575 1.15005 0
M  V30 5227 O 482.006 1.63554 1.17525 0
M  V30 5228 C 479.071 2.99645 1.74395 0
M  V30 5229 C 478.132 4.11731 1.21559 0
M  V30 5230 C 477.365 4.80781 2.317 0
M  V30 5231 O 477.588 4.4918 3.51558 0
M  V30 5232 O 476.522 5.68226 1.98501 0
M  V30 5233 H 480.348 3.037 0.000250109 0
M  V30 5234 H 477.933 1.49256 -0.0655919 0
M  V30 5235 H 479.815 3.45138 2.4178 0
M  V30 5236 H 478.49 2.25969 2.31775 0
M  V30 5237 H 477.397 3.70641 0.507514 0
M  V30 5238 H 478.73 4.87379 0.687233 0
M  V30 5239 N 480.382 0.0267497 1.57577 0
M  V30 5240 C 481.61 -0.662661 1.96001 0
M  V30 5241 C 482.025 -1.65799 0.903117 0
M  V30 5242 O 481.382 -1.82135 -0.115317 0
M  V30 5243 C 481.433 -1.37112 3.34488 0
M  V30 5244 O 481.154 -0.415683 4.36123 0
M  V30 5245 C 482.655 -2.15257 3.8753 0
M  V30 5246 H 479.875 -0.18287 0.6456 0
M  V30 5247 H 482.419 0.0858116 2.0432 0
M  V30 5248 H 480.574 -2.07101 3.27395 0
M  V30 5249 H 480.988 -0.918496 5.16395 0
M  V30 5250 H 482.462 -2.60285 4.86781 0
M  V30 5251 H 482.939 -2.99063 3.21649 0
M  V30 5252 H 483.545 -1.50231 3.97883 0
M  V30 5253 N 481.861 -1.55662 -0.24637 0
M  V30 5254 C 483.11 -1.7672 -0.972254 0
M  V30 5255 C 483.423 -0.59078 -1.86465 0
M  V30 5256 O 484.629 -0.684391 -2.62732 0
M  V30 5257 C 483.085 -3.12869 -1.7788 0
M  V30 5258 C 482.693 -4.38161 -0.933768 0
M  V30 5259 C 484.437 -3.43265 -2.49738 0
M  V30 5260 C 482.344 -5.6534 -1.73623 0
M  V30 5261 H 481.274 -0.658795 -0.366749 0
M  V30 5262 H 483.925 -1.82092 -0.226902 0
M  V30 5263 H 482.307 -3.01606 -2.56612 0
M  V30 5264 H 483.481 -4.60413 -0.188736 0
M  V30 5265 H 481.796 -4.15102 -0.328488 0
M  V30 5266 H 484.393 -4.35501 -3.10231 0
M  V30 5267 H 484.736 -2.64614 -3.2138 0
M  V30 5268 H 485.269 -3.55746 -1.78016 0
M  V30 5269 H 482.008 -6.46814 -1.06354 0
M  V30 5270 H 481.528 -5.47188 -2.45653 0
M  V30 5271 H 483.207 -6.04616 -2.30323 0
M  V30 5272 N 483.339 0.512053 -1.4905 0
M  V30 5273 C 484.286 1.6148 -1.64902 0
M  V30 5274 C 485.256 1.58687 -0.490673 0
M  V30 5275 O 486.441 1.76842 -0.71636 0
M  V30 5276 C 483.581 2.99676 -1.71139 0
M  V30 5277 C 482.694 3.12568 -2.98203 0
M  V30 5278 C 481.829 4.4143 -2.95487 0
M  V30 5279 C 480.868 4.47916 -4.17179 0
M  V30 5280 N 480.005 5.68191 -4.12437 0
M  V30 5281 H 484.845 1.47271 -2.59066 0
M  V30 5282 H 482.382 0.716713 -1.28459 0
M  V30 5283 H 484.34 3.79761 -1.72736 0
M  V30 5284 H 482.97 3.12614 -0.804508 0
M  V30 5285 H 482.022 2.25618 -3.06269 0
M  V30 5286 H 483.334 3.1322 -3.88194 0
M  V30 5287 H 482.488 5.29825 -2.95585 0
M  V30 5288 H 481.227 4.43326 -2.03256 0
M  V30 5289 H 480.232 3.57925 -4.17337 0
M  V30 5290 H 481.457 4.47744 -5.1059 0
M  V30 5291 H 479.403 5.7095 -3.23036 0
M  V30 5292 H 479.32 5.70413 -4.96151 0
M  V30 5293 H 480.588 6.58823 -4.16621 0
M  V30 5294 N 484.817 1.37938 0.762283 0
M  V30 5295 C 486.066 1.32989 1.51647 0
M  V30 5296 C 486.379 -0.0802922 1.95435 0
M  V30 5297 O 487.585 -0.252295 2.70325 0
M  V30 5298 C 486.041 2.33485 2.73885 0
M  V30 5299 C 485.649 3.80079 2.37157 0
M  V30 5300 C 487.393 2.37563 3.51801 0
M  V30 5301 C 485.3 4.72283 3.55954 0
M  V30 5302 H 484.23 0.494301 0.56937 0
M  V30 5303 H 486.881 1.63448 0.834083 0
M  V30 5304 H 485.263 1.96056 3.44061 0
M  V30 5305 H 486.437 4.26398 1.74704 0
M  V30 5306 H 484.752 3.79037 1.72395 0
M  V30 5307 H 487.349 3.0365 4.40114 0
M  V30 5308 H 487.692 1.39199 3.92338 0
M  V30 5309 H 488.225 2.73747 2.8863 0
M  V30 5310 H 484.964 5.7181 3.2049 0
M  V30 5311 H 484.484 4.30663 4.1748 0
M  V30 5312 H 486.163 4.89876 4.22647 0
M  V30 5313 N 486.295 -0.989507 1.22664 0
M  V30 5314 C 487.541 -1.7321 1.05481 0
M  V30 5315 C 487.874 -1.89852 -0.408635 0
M  V30 5316 O 487.149 -1.44416 -1.30285 0
M  V30 5317 C 487.432 -3.1357 1.77047 0
M  V30 5318 C 487.285 -3.04555 3.31008 0
M  V30 5319 C 488.604 -4.12812 1.5256 0
M  V30 5320 H 485.723 -0.628697 0.384589 0
M  V30 5321 H 488.365 -1.15258 1.51049 0
M  V30 5322 H 486.515 -3.63046 1.3831 0
M  V30 5323 H 488.187 -2.62674 3.7921 0
M  V30 5324 H 486.43 -2.41278 3.6051 0
M  V30 5325 H 487.101 -4.03894 3.76263 0
M  V30 5326 H 489.577 -3.72106 1.86215 0
M  V30 5327 H 488.453 -5.09132 2.05124 0
M  V30 5328 H 488.714 -4.39711 0.458936 0
M  V30 5329 N 487.773 -1.03688 -1.18687 0
M  V30 5330 C 489.022 -0.733235 -1.879 0
M  V30 5331 C 489.335 0.741745 -1.8099 0
M  V30 5332 O 490.541 1.15875 -2.4553 0
M  V30 5333 C 488.997 -1.26127 -3.37076 0
M  V30 5334 C 488.605 -2.76461 -3.52524 0
M  V30 5335 C 490.349 -1.03398 -4.11715 0
M  V30 5336 C 488.256 -3.22642 -4.95637 0
M  V30 5337 H 487.186 -0.270584 -0.703776 0
M  V30 5338 H 489.837 -1.25222 -1.34133 0
M  V30 5339 H 488.219 -0.670165 -3.90288 0
M  V30 5340 H 489.393 -3.41296 -3.09602 0
M  V30 5341 H 487.708 -2.97559 -2.91286 0
M  V30 5342 H 490.305 -1.3542 -5.17267 0
M  V30 5343 H 490.648 0.0289246 -4.1629 0
M  V30 5344 H 491.181 -1.5895 -3.64664 0
M  V30 5345 H 487.92 -4.28296 -4.96228 0
M  V30 5346 H 487.44 -2.62539 -5.39289 0
M  V30 5347 H 489.119 -3.16444 -5.64333 0
M  V30 5348 N 489.251 1.34841 -0.815825 0
M  V30 5349 C 490.161 2.33425 -0.234462 0
M  V30 5350 C 491.177 1.62295 0.627413 0
M  V30 5351 O 492.353 1.94109 0.536987 0
M  V30 5352 C 489.418 3.41471 0.599849 0
M  V30 5353 C 488.479 4.28362 -0.283596 0
M  V30 5354 C 487.712 5.31248 0.51099 0
M  V30 5355 O 487.935 5.43056 1.7449 0
M  V30 5356 O 486.869 6.01812 -0.10297 0
M  V30 5357 H 490.695 2.84962 -1.05024 0
M  V30 5358 H 488.28 1.37774 -0.577809 0
M  V30 5359 H 490.162 4.07464 1.07475 0
M  V30 5360 H 488.837 2.9219 1.39308 0
M  V30 5361 H 487.744 3.65318 -0.805836 0
M  V30 5362 H 489.077 4.81066 -1.041 0
M  V30 5363 N 490.729 0.570148 1.46925 0
M  V30 5364 C 492.006 -0.0153259 1.95594 0
M  V30 5365 C 492.386 -1.47232 1.51281 0
M  V30 5366 O 491.734 -2.15574 0.757624 0
M  V30 5367 C 491.944 0.143624 3.48704 0
M  V30 5368 C 493.292 0.00494484 4.246 0
M  V30 5369 O 494.316 0.0718214 3.56128 0
M  V30 5370 O 493.175 -0.141175 5.46318 0
M  V30 5371 H 490.269 -0.0568819 0.825041 0
M  V30 5372 H 492.815 0.637583 1.57267 0
M  V30 5373 H 491.587 1.15699 3.73804 0
M  V30 5374 H 491.21 -0.5463 3.93829 0
M  V30 5375 N 492.207 -1.54576 0.307264 0
M  V30 5376 C 493.437 -2.04378 -0.302158 0
M  V30 5377 C 493.845 -1.18381 -1.47589 0
M  V30 5378 O 493.188 -0.20352 -1.82569 0
M  V30 5379 C 493.25 -3.50133 -0.815305 0
M  V30 5380 C 492.914 -4.56401 0.233977 0
M  V30 5381 C 493.911 -5.08884 1.06456 0
M  V30 5382 C 491.596 -5.0088 0.377478 0
M  V30 5383 C 493.59 -6.04394 2.02452 0
M  V30 5384 C 491.277 -5.96208 1.34088 0
M  V30 5385 C 492.275 -6.47849 2.16288 0
M  V30 5386 O 491.963 -7.41308 3.10994 0
M  V30 5387 H 491.695 -0.672502 -0.0686839 0
M  V30 5388 H 494.249 -2.00484 0.446682 0
M  V30 5389 H 492.479 -3.51371 -1.61478 0
M  V30 5390 H 494.168 -3.83098 -1.34129 0
M  V30 5391 H 494.934 -4.75311 0.964596 0
M  V30 5392 H 490.813 -4.60309 -0.252405 0
M  V30 5393 H 494.357 -6.44626 2.66652 0
M  V30 5394 H 490.254 -6.29198 1.44154 0
M  V30 5395 H 491.022 -7.5913 3.06045 0
M  V30 5396 N 493.685 -0.035106 -1.57561 0
M  V30 5397 C 494.931 0.64318 -1.92331 0
M  V30 5398 C 495.264 1.71434 -0.912368 0
M  V30 5399 O 494.539 1.94395 0.0640303 0
M  V30 5400 C 494.822 1.25411 -3.37556 0
M  V30 5401 C 494.675 0.192109 -4.4939 0
M  V30 5402 C 495.994 2.17041 -3.82859 0
M  V30 5403 H 493.113 0.232341 -0.699419 0
M  V30 5404 H 495.755 -0.0935889 -1.89769 0
M  V30 5405 H 493.905 1.88205 -3.39869 0
M  V30 5406 H 495.577 -0.438849 -4.59208 0
M  V30 5407 H 493.82 -0.481725 -4.31117 0
M  V30 5408 H 494.491 0.659292 -5.48049 0
M  V30 5409 H 496.967 1.64228 -3.8232 0
M  V30 5410 H 495.843 2.56738 -4.85157 0
M  V30 5411 H 496.104 3.06401 -3.18702 0
M  V30 5412 N 495.163 1.55791 0.238111 0
M  V30 5413 C 496.095 1.87513 1.31802 0
M  V30 5414 C 497.108 0.762053 1.43863 0
M  V30 5415 O 498.297 1.04024 1.45056 0
M  V30 5416 C 495.397 2.05402 2.69561 0
M  V30 5417 C 494.57 3.3632 2.79656 0
M  V30 5418 C 493.629 3.43844 3.98319 0
M  V30 5419 O 492.655 4.16994 3.87433 0
M  V30 5420 N 493.857 2.73777 5.11885 0
M  V30 5421 H 496.622 2.80734 1.04922 0
M  V30 5422 H 494.183 1.56135 0.428196 0
M  V30 5423 H 496.175 2.07769 3.47296 0
M  V30 5424 H 494.745 1.18884 2.89111 0
M  V30 5425 H 493.965 3.46195 1.88528 0
M  V30 5426 H 495.253 4.22594 2.83358 0
M  V30 5427 H 494.651 2.14094 5.23622 0
M  V30 5428 H 493.208 2.81825 5.87723 0
M  V30 5429 N 496.642 -0.504142 1.49319 0
M  V30 5430 C 497.592 -1.60284 1.62151 0
M  V30 5431 C 498.576 -1.53657 0.477315 0
M  V30 5432 O 499.768 -1.6124 0.730108 0
M  V30 5433 C 496.897 -2.98909 1.68844 0
M  V30 5434 C 495.983 -3.10544 2.8883 0
M  V30 5435 N 496.374 -2.92078 4.12946 0
M  V30 5436 C 494.672 -3.4164 2.86702 0
M  V30 5437 C 495.373 -3.07812 4.93585 0
M  V30 5438 N 494.349 -3.36549 4.26891 0
M  V30 5439 H 498.151 -1.44656 2.55835 0
M  V30 5440 H 495.665 -0.710198 1.46048 0
M  V30 5441 H 497.662 -3.77865 1.76134 0
M  V30 5442 H 496.322 -3.15609 0.762943 0
M  V30 5443 H 497.333 -2.68316 4.42975 0
M  V30 5444 H 494.01 -3.64537 2.03517 0
M  V30 5445 H 495.4 -2.98054 6.02174 0
M  V30 5446 N 498.12 -1.38341 -0.754957 0
M  V30 5447 C 499.05 -1.38176 -1.88227 0
M  V30 5448 C 500.031 -0.247873 -1.68284 0
M  V30 5449 O 501.216 -0.45075 -1.88896 0
M  V30 5450 C 498.346 -1.20471 -3.25736 0
M  V30 5451 C 497.3 -2.3105 -3.60278 0
M  V30 5452 C 496.626 -1.98452 -4.96509 0
M  V30 5453 C 497.926 -3.73305 -3.65295 0
M  V30 5454 H 499.62 -2.32512 -1.88622 0
M  V30 5455 H 497.166 -1.1192 -0.906082 0
M  V30 5456 H 499.119 -1.18982 -4.04254 0
M  V30 5457 H 497.843 -0.225965 -3.25817 0
M  V30 5458 H 496.502 -2.31723 -2.84078 0
M  V30 5459 H 496.15 -0.990641 -4.93148 0
M  V30 5460 H 495.85 -2.7251 -5.20588 0
M  V30 5461 H 497.374 -1.98578 -5.77407 0
M  V30 5462 H 498.788 -3.7467 -4.3393 0
M  V30 5463 H 497.185 -4.46557 -4.00883 0
M  V30 5464 H 498.255 -4.05719 -2.65556 0
M  V30 5465 N 499.598 0.982988 -1.23187 0
M  V30 5466 C 500.823 1.76455 -1.08988 0
M  V30 5467 C 501.248 1.84726 0.354691 0
M  V30 5468 O 500.606 1.30699 1.25649 0
M  V30 5469 C 500.654 3.17094 -1.71708 0
M  V30 5470 O 499.758 4.00648 -0.977477 0
M  V30 5471 H 499.099 0.542988 -0.382177 0
M  V30 5472 H 501.629 1.23413 -1.63188 0
M  V30 5473 H 501.639 3.67684 -1.76841 0
M  V30 5474 H 500.314 3.10389 -2.76823 0
M  V30 5475 H 498.891 3.59161 -1.0029 0
M  V30 5476 N 501.076 1.04316 1.18135 0
M  V30 5477 C 502.324 0.746542 1.87806 0
M  V30 5478 C 502.645 -0.728082 1.80898 0
M  V30 5479 O 501.915 -1.52554 1.22899 0
M  V30 5480 H 500.495 0.273157 0.695265 0
M  V30 5481 H 503.157 1.32044 1.43354 0
M  V30 5482 H 502.253 1.05362 2.93778 0
M  V30 5483 N 502.554 -1.34406 0.822964 0
M  V30 5484 C 503.784 -2.02214 0.423424 0
M  V30 5485 C 504.192 -1.62124 -0.975322 0
M  V30 5486 O 503.535 -0.822452 -1.6426 0
M  V30 5487 C 503.597 -3.56721 0.446107 0
M  V30 5488 C 503.261 -4.20136 1.79819 0
M  V30 5489 C 504.258 -4.4065 2.75904 0
M  V30 5490 C 501.943 -4.56906 2.08669 0
M  V30 5491 C 503.937 -4.9706 3.99012 0
M  V30 5492 C 501.624 -5.13026 3.32036 0
M  V30 5493 C 502.622 -5.33047 4.27024 0
M  V30 5494 O 502.31 -5.87979 5.48211 0
M  V30 5495 H 502.042 -0.654748 0.168169 0
M  V30 5496 H 504.596 -1.72659 1.11257 0
M  V30 5497 H 502.826 -3.85537 -0.299734 0
M  V30 5498 H 504.515 -4.05845 0.0666114 0
M  V30 5499 H 505.281 -4.12607 2.54912 0
M  V30 5500 H 501.16 -4.40626 1.35535 0
M  V30 5501 H 504.704 -5.12603 4.73164 0
M  V30 5502 H 500.601 -5.40498 3.52891 0
M  V30 5503 H 501.369 -6.06413 5.49732 0
M  V30 5504 N 504.032 -0.577932 -1.46621 0
M  V30 5505 C 504.982 0.178869 -2.27297 0
M  V30 5506 C 505.966 0.866279 -1.35589 0
M  V30 5507 O 507.158 0.761163 -1.59798 0
M  V30 5508 C 504.287 1.19499 -3.2183 0
M  V30 5509 C 503.373 0.50994 -4.21023 0
M  V30 5510 N 503.764 -0.43177 -5.03954 0
M  V30 5511 C 502.062 0.761287 -4.39455 0
M  V30 5512 C 502.763 -0.831693 -5.75724 0
M  V30 5513 N 501.739 -0.181897 -5.43296 0
M  V30 5514 H 505.541 -0.544859 -2.88805 0
M  V30 5515 H 503.055 -0.399373 -1.57413 0
M  V30 5516 H 505.052 1.75131 -3.78332 0
M  V30 5517 H 503.712 1.91959 -2.61881 0
M  V30 5518 H 504.723 -0.807045 -5.11573 0
M  V30 5519 H 501.4 1.47282 -3.90659 0
M  V30 5520 H 502.79 -1.6067 -6.52407 0
M  V30 5521 N 505.51 1.54411 -0.315457 0
M  V30 5522 C 506.757 2.00419 0.289543 0
M  V30 5523 C 507.085 1.20373 1.52776 0
M  V30 5524 O 506.34 0.271769 1.93804 0
M  V30 5525 C 506.639 3.50936 0.676652 0
M  V30 5526 C 506.305 4.48532 -0.461472 0
M  V30 5527 C 504.967 4.74936 -0.773879 0
M  V30 5528 C 507.319 5.06567 -1.22637 0
M  V30 5529 C 504.647 5.56634 -1.85405 0
M  V30 5530 C 506.999 5.89441 -2.29657 0
M  V30 5531 C 505.663 6.1415 -2.61488 0
M  V30 5532 H 504.933 0.733386 0.105951 0
M  V30 5533 H 507.58 1.86434 -0.437554 0
M  V30 5534 H 505.885 3.62606 1.48405 0
M  V30 5535 H 507.582 3.83971 1.15618 0
M  V30 5536 H 504.172 4.28096 -0.207893 0
M  V30 5537 H 508.356 4.86157 -0.998271 0
M  V30 5538 H 503.612 5.74012 -2.10523 0
M  V30 5539 H 507.786 6.33432 -2.89374 0
M  V30 5540 H 505.413 6.77245 -3.45317 0
M  V30 5541 N 506.988 0.0434614 1.5754 0
M  V30 5542 C 507.935 -0.93356 2.11077 0
M  V30 5543 C 508.905 -1.31383 1.01626 0
M  V30 5544 O 510.09 -1.40465 1.29129 0
M  V30 5545 C 507.23 -2.20578 2.65404 0
M  V30 5546 C 506.343 -1.88068 3.88914 0
M  V30 5547 C 505.478 -3.09691 4.31584 0
M  V30 5548 C 504.517 -2.73067 5.47815 0
M  V30 5549 N 503.654 -3.87359 5.85574 0
M  V30 5550 H 508.494 -0.470118 2.94268 0
M  V30 5551 H 506.031 -0.220434 1.45439 0
M  V30 5552 H 507.989 -2.95011 2.94999 0
M  V30 5553 H 506.619 -2.64513 1.85021 0
M  V30 5554 H 505.671 -1.03816 3.6596 0
M  V30 5555 H 506.983 -1.57104 4.73413 0
M  V30 5556 H 506.137 -3.92431 4.62691 0
M  V30 5557 H 504.876 -3.43827 3.45882 0
M  V30 5558 H 503.881 -1.88742 5.16388 0
M  V30 5559 H 505.106 -2.40131 6.35227 0
M  V30 5560 H 503.052 -4.21311 5.02825 0
M  V30 5561 H 502.969 -3.60068 6.64746 0
M  V30 5562 H 504.237 -4.70761 6.21292 0
M  V30 5563 N 508.466 -1.55915 -0.229846 0
M  V30 5564 C 509.396 -1.94754 -1.28815 0
M  V30 5565 C 510.377 -0.814657 -1.49323 0
M  V30 5566 O 511.562 -1.07631 -1.61645 0
M  V30 5567 C 508.692 -2.25705 -2.63959 0
M  V30 5568 C 507.646 -3.41406 -2.5812 0
M  V30 5569 C 506.972 -3.57941 -3.97218 0
M  V30 5570 C 508.272 -4.76616 -2.13623 0
M  V30 5571 H 509.966 -2.83404 -0.965547 0
M  V30 5572 H 507.512 -1.36353 -0.463028 0
M  V30 5573 H 509.465 -2.51467 -3.38146 0
M  V30 5574 H 508.189 -1.339 -2.9789 0
M  V30 5575 H 506.848 -3.1568 -1.86391 0
M  V30 5576 H 506.496 -2.63526 -4.28443 0
M  V30 5577 H 506.196 -4.35757 -3.94195 0
M  V30 5578 H 507.72 -3.86042 -4.73079 0
M  V30 5579 H 509.134 -5.01637 -2.77549 0
M  V30 5580 H 507.531 -5.57655 -2.21677 0
M  V30 5581 H 508.601 -4.7253 -1.08829 0
M  V30 5582 N 509.944 0.496216 -1.49584 0
M  V30 5583 C 510.891 1.59722 -1.66606 0
M  V30 5584 C 511.861 1.58158 -0.507477 0
M  V30 5585 O 513.046 1.76072 -0.735076 0
M  V30 5586 C 510.186 2.97844 -1.74308 0
M  V30 5587 C 509.299 3.09388 -3.01502 0
M  V30 5588 C 508.434 4.38271 -3.00153 0
M  V30 5589 C 507.473 4.43466 -4.21906 0
M  V30 5590 N 506.61 5.63784 -4.1844 0
M  V30 5591 H 511.45 1.44515 -2.60613 0
M  V30 5592 H 508.987 0.703048 -1.29212 0
M  V30 5593 H 510.945 3.77907 -1.76754 0
M  V30 5594 H 509.575 3.11743 -0.837619 0
M  V30 5595 H 508.627 2.22357 -3.08645 0
M  V30 5596 H 509.939 3.09085 -3.91494 0
M  V30 5597 H 509.093 5.2666 -3.01188 0
M  V30 5598 H 507.832 4.41146 -2.07947 0
M  V30 5599 H 506.837 3.53478 -4.21109 0
M  V30 5600 H 508.062 4.42303 -5.1531 0
M  V30 5601 H 506.008 5.67491 -3.29074 0
M  V30 5602 H 505.925 5.65118 -5.02173 0
M  V30 5603 H 507.193 6.54367 -4.23585 0
M  V30 5604 N 511.423 1.38739 0.74761 0
M  V30 5605 C 512.67 1.35274 1.50689 0
M  V30 5606 C 512.998 -0.0553359 1.94421 0
M  V30 5607 O 512.253 -1.03365 1.66175 0
M  V30 5608 C 512.552 2.25992 2.7688 0
M  V30 5609 C 512.218 3.73854 2.5208 0
M  V30 5610 C 510.88 4.14145 2.45025 0
M  V30 5611 C 513.232 4.67427 2.30568 0
M  V30 5612 C 510.56 5.4609 2.14483 0
M  V30 5613 C 512.912 5.99635 2.01545 0
M  V30 5614 C 511.576 6.39004 1.92951 0
M  V30 5615 H 510.846 0.495003 0.55141 0
M  V30 5616 H 513.493 1.71145 0.859158 0
M  V30 5617 H 511.798 1.83196 3.46333 0
M  V30 5618 H 513.495 2.20611 3.34861 0
M  V30 5619 H 510.085 3.41913 2.58444 0
M  V30 5620 H 514.269 4.3714 2.34994 0
M  V30 5621 H 509.525 5.75528 2.06342 0
M  V30 5622 H 513.699 6.71678 1.83906 0
M  V30 5623 H 511.326 7.41165 1.6905 0
M  V30 5624 N 512.901 -0.976442 1.23707 0
M  V30 5625 C 514.178 -1.69296 0.979699 0
M  V30 5626 C 514.558 -2.0508 -0.500555 0
M  V30 5627 O 513.906 -1.74708 -1.47273 0
M  V30 5628 C 514.116 -2.93143 1.89389 0
M  V30 5629 C 515.464 -3.65572 2.15968 0
M  V30 5630 O 516.488 -3.03184 1.86971 0
M  V30 5631 O 515.347 -4.77859 2.65167 0
M  V30 5632 H 512.441 -0.739708 0.369812 0
M  V30 5633 H 514.987 -1.03131 1.34767 0
M  V30 5634 H 513.759 -2.63327 2.89439 0
M  V30 5635 H 513.382 -3.67044 1.52854 0
M  V30 5636 N 514.379 -1.04941 -1.1758 0
M  V30 5637 C 515.79 -0.784501 -1.69418 0
M  V30 5638 C 516.141 0.693625 -1.8353 0
M  V30 5639 O 515.266 1.53925 -1.52106 0
M  V30 5640 C 515.861 -1.41746 -3.07723 0
M  V30 5641 C 514.42 -1.20066 -3.56737 0
M  V30 5642 C 513.567 -1.5026 -2.33061 0
M  V30 5643 H 516.518 -1.21469 -1.02133 0
M  V30 5644 H 516.539 -0.825381 -3.7144 0
M  V30 5645 H 516.051 -2.49325 -2.9742 0
M  V30 5646 H 514.152 -0.144006 -3.72322 0
M  V30 5647 H 514.265 -1.90384 -4.39648 0
M  V30 5648 H 512.629 -0.922598 -2.37403 0
M  V30 5649 H 513.412 -2.58967 -2.25368 0
M  V30 5650 N 515.857 1.33968 -0.830081 0
M  V30 5651 C 516.767 2.33164 -0.259207 0
M  V30 5652 C 517.783 1.62951 0.610164 0
M  V30 5653 O 518.959 1.94668 0.516369 0
M  V30 5654 C 516.024 3.42088 0.563598 0
M  V30 5655 C 515.085 4.28037 -0.329014 0
M  V30 5656 C 514.318 5.3176 0.454616 0
M  V30 5657 O 514.541 5.44876 1.6872 0
M  V30 5658 O 513.475 6.01669 -0.166794 0
M  V30 5659 H 517.301 2.83832 -1.08041 0
M  V30 5660 H 514.886 1.37154 -0.59239 0
M  V30 5661 H 516.768 4.08581 1.03147 0
M  V30 5662 H 515.443 2.93651 1.36201 0
M  V30 5663 H 514.35 3.64443 -0.844538 0
M  V30 5664 H 515.683 4.79934 -1.09196 0
M  V30 5665 N 517.335 0.585699 1.46312 0
M  V30 5666 C 518.265 -0.133556 2.33118 0
M  V30 5667 C 519.246 -0.880707 1.45525 0
M  V30 5668 O 520.431 -0.855579 1.74337 0
M  V30 5669 C 517.561 -1.14585 3.27853 0
M  V30 5670 C 516.515 -0.513341 4.2491 0
M  V30 5671 C 515.841 -1.63231 5.09175 0
M  V30 5672 C 517.141 0.551413 5.19381 0
M  V30 5673 H 518.835 0.59121 2.93505 0
M  V30 5674 H 516.381 0.285761 1.41136 0
M  V30 5675 H 518.334 -1.65741 3.87438 0
M  V30 5676 H 517.058 -1.90093 2.65579 0
M  V30 5677 H 515.717 -0.0228349 3.66593 0
M  V30 5678 H 515.365 -2.37713 4.43285 0
M  V30 5679 H 515.065 -1.21473 5.74907 0
M  V30 5680 H 516.589 -2.14658 5.71624 0
M  V30 5681 H 518.003 0.124804 5.73164 0
M  V30 5682 H 516.4 0.889486 5.93471 0
M  V30 5683 H 517.47 1.43655 4.63132 0
M  V30 5684 N 518.813 -1.54241 0.323641 0
M  V30 5685 C 519.743 -2.27289 -0.534993 0
M  V30 5686 C 520.724 -1.28087 -1.11927 0
M  V30 5687 O 521.909 -1.56899 -1.14439 0
M  V30 5688 C 519.039 -3.03075 -1.69596 0
M  V30 5689 C 517.993 -4.09614 -1.24098 0
M  V30 5690 C 517.319 -4.73242 -2.4889 0
M  V30 5691 C 518.619 -5.21087 -0.355789 0
M  V30 5692 H 520.313 -2.99308 0.0743257 0
M  V30 5693 H 517.859 -1.43952 0.0371874 0
M  V30 5694 H 519.812 -3.52907 -2.30293 0
M  V30 5695 H 518.536 -2.28673 -2.33187 0
M  V30 5696 H 517.195 -3.60666 -0.656945 0
M  V30 5697 H 516.843 -3.95455 -3.10845 0
M  V30 5698 H 516.543 -5.45209 -2.19138 0
M  V30 5699 H 518.067 -5.25848 -3.10348 0
M  V30 5700 H 519.481 -5.66675 -0.869042 0
M  V30 5701 H 517.878 -5.9991 -0.151045 0
M  V30 5702 H 518.948 -4.81005 0.613339 0
M  V30 5703 N 520.291 -0.0518155 -1.57515 0
M  V30 5704 C 521.538 0.621823 -1.92716 0
M  V30 5705 C 521.866 1.70813 -0.930229 0
M  V30 5706 O 521.121 1.95616 0.0573708 0
M  V30 5707 C 521.42 1.25607 -3.34601 0
M  V30 5708 C 521.086 0.297901 -4.49915 0
M  V30 5709 C 519.748 0.034243 -4.81188 0
M  V30 5710 C 522.1 -0.358738 -5.19964 0
M  V30 5711 C 519.428 -0.893479 -5.79857 0
M  V30 5712 C 521.78 -1.27466 -6.19625 0
M  V30 5713 C 520.444 -1.54698 -6.49326 0
M  V30 5714 H 519.714 0.227541 -0.705199 0
M  V30 5715 H 522.361 -0.118432 -1.91133 0
M  V30 5716 H 520.666 2.07161 -3.32553 0
M  V30 5717 H 522.363 1.78424 -3.59118 0
M  V30 5718 H 518.953 0.513581 -4.25512 0
M  V30 5719 H 523.137 -0.168133 -4.96015 0
M  V30 5720 H 518.393 -1.11193 -6.01204 0
M  V30 5721 H 522.567 -1.78953 -6.73015 0
M  V30 5722 H 520.194 -2.26748 -7.25596 0
M  V30 5723 N 521.769 1.56035 0.221574 0
M  V30 5724 C 522.717 1.93269 1.29421 0
M  V30 5725 C 523.711 0.814727 1.48521 0
M  V30 5726 O 524.917 0.999559 1.49696 0
M  V30 5727 H 521.292 0.614188 0.43391 0
M  V30 5728 H 523.263 2.82773 0.952987 0
M  V30 5729 C 522.012 2.26573 2.63742 0
M  V30 5730 H 521.335 3.12112 2.49853 0
M  V30 5731 H 522.775 2.5651 3.37607 0
M  V30 5732 C 521.234 1.09086 3.1875 0
M  V30 5733 O 521.764 0.351985 4.00155 0
M  V30 5734 N 519.97 0.874693 2.77124 0
M  V30 5735 H 519.517 1.47726 2.11033 0
M  V30 5736 H 519.475 0.0903349 3.1427 0
M  V30 5737 N 523.247 -0.488276 1.49845 0
M  V30 5738 C 524.179 -1.60539 1.63584 0
M  V30 5739 C 525.192 -1.5434 0.517972 0
M  V30 5740 O 526.381 -1.60041 0.790516 0
M  V30 5741 C 523.481 -2.99374 1.58835 0
M  V30 5742 C 522.654 -3.30624 2.86368 0
M  V30 5743 C 521.713 -4.4893 2.74496 0
M  V30 5744 O 520.739 -4.50085 3.48443 0
M  V30 5745 N 521.941 -5.49591 1.86894 0
M  V30 5746 H 524.706 -1.49176 2.59936 0
M  V30 5747 H 522.267 -0.67639 1.47094 0
M  V30 5748 H 524.259 -3.76459 1.48529 0
M  V30 5749 H 522.829 -3.04595 0.702892 0
M  V30 5750 H 522.049 -2.42314 3.1093 0
M  V30 5751 H 523.337 -3.48305 3.70892 0
M  V30 5752 H 522.735 -5.51467 1.26097 0
M  V30 5753 H 521.292 -6.25728 1.82503 0
M  V30 5754 N 524.725 -1.39134 -0.740242 0
M  V30 5755 C 525.657 -1.33332 -1.86428 0
M  V30 5756 C 526.67 -0.243042 -1.60976 0
M  V30 5757 O 527.859 -0.501608 -1.71307 0
M  V30 5758 C 524.959 -1.04626 -3.22346 0
M  V30 5759 C 524.132 -2.24826 -3.75196 0
M  V30 5760 C 523.191 -1.92659 -4.89662 0
M  V30 5761 O 522.217 -2.6529 -5.03597 0
M  V30 5762 N 523.419 -0.889575 -5.73643 0
M  V30 5763 H 526.184 -2.30196 -1.91911 0
M  V30 5764 H 523.745 -1.33168 -0.920756 0
M  V30 5765 H 525.737 -0.811347 -3.96484 0
M  V30 5766 H 524.307 -0.165129 -3.12164 0
M  V30 5767 H 523.527 -2.64301 -2.9247 0
M  V30 5768 H 524.815 -3.05015 -4.07239 0
M  V30 5769 H 524.213 -0.287529 -5.64969 0
M  V30 5770 H 522.77 -0.714557 -6.47871 0
M  V30 5771 N 526.204 0.969867 -1.24223 0
M  V30 5772 C 527.451 1.71256 -1.08063 0
M  V30 5773 C 527.779 1.90734 0.380872 0
M  V30 5774 O 527.034 1.46469 1.29789 0
M  V30 5775 C 527.333 3.10883 -1.76314 0
M  V30 5776 C 526.999 3.11252 -3.26241 0
M  V30 5777 C 525.661 3.1106 -3.67144 0
M  V30 5778 C 528.013 3.05751 -4.22097 0
M  V30 5779 C 525.341 3.03097 -5.02344 0
M  V30 5780 C 527.693 2.9933 -5.57301 0
M  V30 5781 C 526.357 2.97466 -5.97554 0
M  V30 5782 H 525.627 0.62667 -0.395431 0
M  V30 5783 H 528.274 1.13422 -1.54297 0
M  V30 5784 H 526.579 3.72168 -1.22468 0
M  V30 5785 H 528.276 3.67138 -1.61277 0
M  V30 5786 H 524.866 3.12165 -2.93685 0
M  V30 5787 H 529.05 3.05031 -3.91497 0
M  V30 5788 H 524.306 3.00013 -5.32731 0
M  V30 5789 H 528.48 2.94033 -6.31283 0
M  V30 5790 H 526.107 2.91051 -7.02277 0
M  V30 5791 N 527.682 1.05563 1.17022 0
M  V30 5792 C 528.614 0.617888 2.20714 0
M  V30 5793 C 529.627 -0.320303 1.59618 0
M  V30 5794 O 530.816 -0.112449 1.78145 0
M  V30 5795 C 527.916 -0.115333 3.38704 0
M  V30 5796 C 527.089 0.834493 4.29366 0
M  V30 5797 C 526.148 0.141855 5.26009 0
M  V30 5798 O 525.174 0.777151 5.6387 0
M  V30 5799 N 526.376 -1.11934 5.69606 0
M  V30 5800 H 529.141 1.50981 2.58892 0
M  V30 5801 H 526.702 0.938008 1.31958 0
M  V30 5802 H 528.694 -0.588918 4.00392 0
M  V30 5803 H 527.264 -0.908967 2.99093 0
M  V30 5804 H 526.484 1.48762 3.65053 0
M  V30 5805 H 527.772 1.4791 4.86827 0
M  V30 5806 H 527.17 -1.65574 5.40927 0
M  V30 5807 H 525.727 -1.53692 6.33421 0
M  V30 5808 N 529.16 -1.33526 0.837174 0
M  V30 5809 C 530.39 -2.01754 0.444848 0
M  V30 5810 C 530.798 -1.63149 -0.958072 0
M  V30 5811 O 530.141 -0.839827 -1.63379 0
M  V30 5812 C 530.203 -3.56228 0.483917 0
M  V30 5813 C 529.867 -4.18205 1.84265 0
M  V30 5814 C 530.864 -4.37699 2.80563 0
M  V30 5815 C 528.549 -4.54667 2.13503 0
M  V30 5816 C 530.543 -4.928 4.04261 0
M  V30 5817 C 528.23 -5.09475 3.37458 0
M  V30 5818 C 529.228 -5.28488 4.32654 0
M  V30 5819 O 528.916 -5.82132 5.54417 0
M  V30 5820 H 528.648 -0.652928 0.175104 0
M  V30 5821 H 531.202 -1.71469 1.13082 0
M  V30 5822 H 529.432 -3.85833 -0.258826 0
M  V30 5823 H 531.121 -4.05752 0.109653 0
M  V30 5824 H 531.887 -4.0988 2.59274 0
M  V30 5825 H 527.766 -4.39164 1.40201 0
M  V30 5826 H 531.31 -5.07555 4.78574 0
M  V30 5827 H 527.207 -5.36725 3.58604 0
M  V30 5828 H 527.975 -6.00548 5.56133 0
M  V30 5829 N 530.638 -0.59345 -1.46 0
M  V30 5830 C 531.57 0.171569 -2.28557 0
M  V30 5831 C 532.583 0.845273 -1.39137 0
M  V30 5832 O 533.772 0.713033 -1.6364 0
M  V30 5833 C 530.872 1.26311 -3.14482 0
M  V30 5834 C 530.045 0.679258 -4.32094 0
M  V30 5835 C 529.104 1.65987 -4.99334 0
M  V30 5836 O 528.13 1.19171 -5.56585 0
M  V30 5837 N 529.332 2.99414 -4.97324 0
M  V30 5838 H 532.097 -0.536771 -2.94854 0
M  V30 5839 H 529.658 -0.431954 -1.56031 0
M  V30 5840 H 531.65 1.91863 -3.5633 0
M  V30 5841 H 530.22 1.87416 -2.50188 0
M  V30 5842 H 529.44 -0.153992 -3.93899 0
M  V30 5843 H 530.728 0.26916 -5.08088 0
M  V30 5844 H 530.126 3.40064 -4.52076 0
M  V30 5845 H 528.683 3.60426 -5.4308 0
M  V30 5846 N 532.116 1.54067 -0.331816 0
M  V30 5847 C 533.064 2.26105 0.54582 0
M  V30 5848 C 534.058 1.27816 1.11173 0
M  V30 5849 O 535.264 1.45565 1.05882 0
M  V30 5850 H 531.639 0.726363 0.194683 0
M  V30 5851 H 533.61 2.98282 -0.083931 0
M  V30 5852 C 532.359 3.03814 1.69092 0
M  V30 5853 H 531.682 3.79269 1.26473 0
M  V30 5854 H 533.122 3.57453 2.28043 0
M  V30 5855 C 531.581 2.12606 2.61343 0
M  V30 5856 O 532.111 1.71437 3.6328 0
M  V30 5857 N 530.317 1.77925 2.29763 0
M  V30 5858 H 529.864 2.11602 1.46909 0
M  V30 5859 H 529.822 1.1718 2.91747 0
M  V30 5860 N 533.594 0.0601682 1.57485 0
M  V30 5861 C 535.01 -0.296422 1.56823 0
M  V30 5862 C 535.21 -1.70831 1.0686 0
M  V30 5863 O 534.266 -2.4174 0.729245 0
M  V30 5864 C 535.579 -0.116681 3.00474 0
M  V30 5865 C 537.127 -0.187103 3.1244 0
M  V30 5866 C 537.602 -0.035783 4.57986 0
M  V30 5867 N 539.093 -0.0917676 4.63109 0
M  V30 5868 C 539.828 0.00107251 5.734 0
M  V30 5869 N 539.324 0.146773 6.92645 0
M  V30 5870 N 541.117 -0.0551577 5.62073 0
M  V30 5871 H 533.268 0.983055 1.88281 0
M  V30 5872 H 535.531 0.382386 0.867459 0
M  V30 5873 H 535.237 0.85712 3.41096 0
M  V30 5874 H 535.111 -0.873929 3.66936 0
M  V30 5875 H 537.498 -1.15138 2.71712 0
M  V30 5876 H 537.579 0.601052 2.48638 0
M  V30 5877 H 537.223 0.925212 4.99402 0
M  V30 5878 H 537.153 -0.843196 5.19806 0
M  V30 5879 H 539.644 -0.203261 3.77353 0
M  V30 5880 H 539.957 0.210076 7.72514 0
M  V30 5881 H 538.302 0.181979 6.94762 0
M  V30 5882 H 541.493 -0.167605 4.678 0
M  V30 5883 H 541.666 0.020652 6.47997 0
M  V30 5884 N 535.072 -1.5615 -0.213296 0
M  V30 5885 C 536.321 -1.78743 -0.93455 0
M  V30 5886 C 536.634 -0.630199 -1.8517 0
M  V30 5887 O 537.84 -0.739966 -2.61222 0
M  V30 5888 C 536.296 -3.16571 -1.71203 0
M  V30 5889 C 535.904 -4.40043 -0.840617 0
M  V30 5890 C 537.648 -3.48485 -2.42401 0
M  V30 5891 C 535.555 -5.68895 -1.61592 0
M  V30 5892 H 534.485 -0.666426 -0.352692 0
M  V30 5893 H 537.136 -1.82532 -0.188227 0
M  V30 5894 H 535.518 -3.06981 -2.50157 0
M  V30 5895 H 536.692 -4.6071 -0.0910326 0
M  V30 5896 H 535.007 -4.15706 -0.240365 0
M  V30 5897 H 537.604 -4.41983 -3.00924 0
M  V30 5898 H 537.947 -2.71371 -3.15695 0
M  V30 5899 H 538.48 -3.59442 -1.7043 0
M  V30 5900 H 535.219 -6.48925 -0.926106 0
M  V30 5901 H 534.739 -5.52275 -2.33991 0
M  V30 5902 H 536.418 -6.09365 -2.17447 0
M  V30 5903 N 536.55 0.480323 -1.50102 0
M  V30 5904 C 537.513 1.56181 -1.6775 0
M  V30 5905 C 538.513 1.51156 -0.548503 0
M  V30 5906 O 539.703 1.5394 -0.815363 0
M  V30 5907 C 536.835 2.95823 -1.69415 0
M  V30 5908 H 538.028 1.41855 -2.6423 0
M  V30 5909 H 535.581 0.70605 -1.39444 0
M  V30 5910 H 536.316 3.15604 -0.745948 0
M  V30 5911 H 536.101 3.00878 -2.51425 0
M  V30 5912 H 537.591 3.74359 -1.85054 0
M  V30 5913 N 538.028 1.39524 0.732853 0
M  V30 5914 C 538.991 1.38189 1.82857 0
M  V30 5915 C 539.991 0.278624 1.58368 0
M  V30 5916 O 541.181 0.536639 1.65728 0
M  V30 5917 C 538.313 1.15661 3.2068 0
M  V30 5918 H 539.506 2.35692 1.85444 0
M  V30 5919 H 537.059 1.2512 0.936728 0
M  V30 5920 H 537.794 0.188482 3.23752 0
M  V30 5921 H 537.579 1.95559 3.39852 0
M  V30 5922 H 539.069 1.17472 4.00737 0
M  V30 5923 N 539.506 -0.963266 1.24736 0
M  V30 5924 C 540.416 -2.09246 1.06082 0
M  V30 5925 C 541.432 -1.74 0.000363101 0
M  V30 5926 O 542.608 -2.0041 0.199479 0
M  V30 5927 C 539.673 -3.40115 0.672498 0
M  V30 5928 C 538.734 -3.89282 1.80993 0
M  V30 5929 C 537.967 -5.13905 1.44004 0
M  V30 5930 O 538.19 -5.69434 0.331835 0
M  V30 5931 O 537.124 -5.57566 2.26723 0
M  V30 5932 H 540.95 -2.27881 2.00759 0
M  V30 5933 H 538.535 -1.07649 1.03595 0
M  V30 5934 H 540.417 -4.18797 0.467668 0
M  V30 5935 H 539.092 -3.22771 -0.245102 0
M  V30 5936 H 537.999 -3.11642 2.06955 0
M  V30 5937 H 539.332 -4.1111 2.70646 0
M  V30 5938 N 540.985 -1.06182 -1.16461 0
M  V30 5939 C 542.232 -0.777863 -1.86964 0
M  V30 5940 C 542.56 0.695602 -1.81636 0
M  V30 5941 O 541.815 1.52532 -1.22607 0
M  V30 5942 C 542.114 -1.21633 -3.36066 0
M  V30 5943 C 541.78 -2.69371 -3.61594 0
M  V30 5944 C 540.442 -3.09727 -3.6827 0
M  V30 5945 C 542.794 -3.64791 -3.7226 0
M  V30 5946 C 540.122 -4.44345 -3.83112 0
M  V30 5947 C 542.474 -4.99155 -3.88623 0
M  V30 5948 C 541.138 -5.39149 -3.93541 0
M  V30 5949 H 540.408 -0.28464 -0.68415 0
M  V30 5950 H 543.055 -1.33071 -1.37711 0
M  V30 5951 H 541.36 -0.582651 -3.87443 0
M  V30 5952 H 543.057 -0.973682 -3.88999 0
M  V30 5953 H 539.647 -2.37124 -3.57029 0
M  V30 5954 H 543.831 -3.34746 -3.66413 0
M  V30 5955 H 539.087 -4.74819 -3.85172 0
M  V30 5956 H 543.261 -5.72976 -3.95817 0
M  V30 5957 H 540.888 -6.43464 -4.04794 0
M  V30 5958 N 542.463 1.3308 -0.844243 0
M  V30 5959 C 543.411 2.31028 -0.269954 0
M  V30 5960 C 544.405 1.58381 0.600997 0
M  V30 5961 O 545.611 1.73203 0.48996 0
M  V30 5962 H 541.986 0.748866 -0.0685782 0
M  V30 5963 H 543.957 2.76967 -1.11049 0
M  V30 5964 C 542.706 3.43549 0.535676 0
M  V30 5965 H 542.029 3.99604 -0.125202 0
M  V30 5966 H 543.469 4.14267 0.903262 0
M  V30 5967 C 541.928 2.8988 1.71672 0
M  V30 5968 O 542.458 2.86511 2.81557 0
M  V30 5969 N 540.664 2.46416 1.54037 0
M  V30 5970 H 540.211 2.49356 0.64649 0
M  V30 5971 H 540.169 2.1086 2.33207 0
M  V30 5972 N 543.941 0.601185 1.45683 0
M  V30 5973 C 545.169 0.100054 2.06658 0
M  V30 5974 C 545.584 -1.21285 1.44691 0
M  V30 5975 O 544.941 -1.73735 0.558772 0
M  V30 5976 C 544.992 -0.0528579 3.61461 0
M  V30 5977 O 544.713 1.20809 4.21114 0
M  V30 5978 C 546.214 -0.586193 4.39407 0
M  V30 5979 H 543.434 0.065905 0.667756 0
M  V30 5980 H 545.978 0.827101 1.87028 0
M  V30 5981 H 544.133 -0.730203 3.80456 0
M  V30 5982 H 544.547 1.03368 5.14213 0
M  V30 5983 H 546.021 -0.642297 5.4825 0
M  V30 5984 H 546.498 -1.60713 4.0874 0
M  V30 5985 H 547.104 0.0568935 4.25262 0
M  V30 5986 N 545.419 -1.53889 0.339982 0
M  V30 5987 C 546.349 -2.27843 -0.510856 0
M  V30 5988 C 547.33 -1.29267 -1.10563 0
M  V30 5989 O 548.515 -1.58104 -1.12768 0
M  V30 5990 C 545.645 -3.04857 -1.66372 0
M  V30 5991 C 544.599 -4.10907 -1.19746 0
M  V30 5992 C 543.925 -4.75855 -2.43857 0
M  V30 5993 C 545.225 -5.21435 -0.300501 0
M  V30 5994 H 546.919 -2.99212 0.106067 0
M  V30 5995 H 544.465 -1.43904 0.0524533 0
M  V30 5996 H 546.418 -3.5533 -2.26537 0
M  V30 5997 H 545.142 -2.31133 -2.30749 0
M  V30 5998 H 543.801 -3.61342 -0.618654 0
M  V30 5999 H 543.449 -3.9873 -3.06633 0
M  V30 6000 H 543.149 -5.47502 -2.13343 0
M  V30 6001 H 544.673 -5.2911 -3.04754 0
M  V30 6002 H 546.087 -5.67565 -0.80889 0
M  V30 6003 H 544.484 -6.00036 -0.0874076 0
M  V30 6004 H 545.554 -4.80328 0.664321 0
M  V30 6005 N 546.897 -0.0685191 -1.57451 0
M  V30 6006 C 548.127 0.609577 -1.97402 0
M  V30 6007 C 548.535 1.63882 -0.945489 0
M  V30 6008 O 547.878 1.8354 0.0766052 0
M  V30 6009 C 547.94 1.3385 -3.33653 0
M  V30 6010 C 547.604 0.463103 -4.54648 0
M  V30 6011 C 548.601 -0.277964 -5.19156 0
M  V30 6012 C 546.286 0.388941 -5.00792 0
M  V30 6013 C 548.28 -1.08145 -6.28159 0
M  V30 6014 C 545.967 -0.418217 -6.09667 0
M  V30 6015 C 546.965 -1.15208 -6.73213 0
M  V30 6016 O 546.653 -1.94594 -7.79993 0
M  V30 6017 H 546.385 0.170197 -0.654224 0
M  V30 6018 H 548.939 -0.13647 -2.04946 0
M  V30 6019 H 547.169 2.13055 -3.22714 0
M  V30 6020 H 548.858 1.90851 -3.58233 0
M  V30 6021 H 549.624 -0.230241 -4.84453 0
M  V30 6022 H 545.503 0.949769 -4.5111 0
M  V30 6023 H 549.047 -1.65476 -6.7769 0
M  V30 6024 H 544.944 -0.467515 -6.43805 0
M  V30 6025 H 545.712 -1.8699 -7.96854 0
M  V30 6026 N 548.375 1.56261 0.205012 0
M  V30 6027 C 549.325 1.90155 1.25798 0
M  V30 6028 C 550.309 0.766227 1.41484 0
M  V30 6029 O 551.501 1.02893 1.44021 0
M  V30 6030 C 548.63 2.23603 2.60493 0
M  V30 6031 C 547.716 3.43568 2.48639 0
M  V30 6032 N 548.107 4.61747 2.06455 0
M  V30 6033 C 546.405 3.4751 2.79558 0
M  V30 6034 C 547.106 5.43907 2.06253 0
M  V30 6035 N 546.082 4.84051 2.47377 0
M  V30 6036 H 549.884 2.79031 0.922986 0
M  V30 6037 H 547.398 1.57048 0.413501 0
M  V30 6038 H 549.395 2.46067 3.36537 0
M  V30 6039 H 548.055 1.36049 2.94823 0
M  V30 6040 H 549.066 4.86598 1.77321 0
M  V30 6041 H 545.743 2.70345 3.18151 0
M  V30 6042 H 547.133 6.48542 1.75622 0
M  V30 6043 N 549.853 -0.472356 1.50355 0
M  V30 6044 C 551.099 -1.22348 1.62488 0
M  V30 6045 C 551.454 -1.89711 0.320574 0
M  V30 6046 O 550.747 -1.79074 -0.68141 0
M  V30 6047 C 550.941 -2.29257 2.74182 0
M  V30 6048 C 550.77 -1.72383 4.15348 0
M  V30 6049 C 549.54 -1.52411 4.81766 0
M  V30 6050 C 551.738 -1.21949 4.99633 0
M  V30 6051 N 549.72 -0.907669 6.07153 0
M  V30 6052 C 551.091 -0.726191 6.15732 0
M  V30 6053 C 553.146 -1.10792 4.85417 0
M  V30 6054 C 551.849 -0.132322 7.19178 0
M  V30 6055 C 553.875 -0.52799 5.89038 0
M  V30 6056 C 553.237 -0.0450604 7.04386 0
M  V30 6057 H 549.336 -0.436631 0.648751 0
M  V30 6058 H 551.92 -0.525698 1.87469 0
M  V30 6059 H 550.091 -2.96464 2.50926 0
M  V30 6060 H 551.823 -2.9628 2.75681 0
M  V30 6061 H 548.578 -1.776 4.39039 0
M  V30 6062 H 549.002 -0.617897 6.74174 0
M  V30 6063 H 553.644 -1.46722 3.96525 0
M  V30 6064 H 551.362 0.239187 8.07746 0
M  V30 6065 H 554.948 -0.444046 5.80103 0
M  V30 6066 H 553.828 0.396659 7.83196 0
M  V30 6067 N 551.331 -1.39911 -0.725443 0
M  V30 6068 C 552.281 -1.35878 -1.83088 0
M  V30 6069 C 553.265 -0.237989 -1.5913 0
M  V30 6070 O 554.457 -0.476302 -1.70471 0
M  V30 6071 C 551.586 -1.21403 -3.21117 0
M  V30 6072 C 550.672 -2.38223 -3.50871 0
M  V30 6073 N 551.063 -3.63703 -3.51502 0
M  V30 6074 C 549.361 -2.31388 -3.81281 0
M  V30 6075 C 550.062 -4.4101 -3.79322 0
M  V30 6076 N 549.038 -3.7072 -3.97577 0
M  V30 6077 H 552.84 -2.3085 -1.81895 0
M  V30 6078 H 550.354 -1.33543 -0.924125 0
M  V30 6079 H 552.351 -1.16597 -4.00263 0
M  V30 6080 H 551.011 -0.273902 -3.23543 0
M  V30 6081 H 552.022 -3.96998 -3.32586 0
M  V30 6082 H 548.699 -1.45689 -3.91256 0
M  V30 6083 H 550.089 -5.49819 -3.86198 0
M  V30 6084 N 552.809 0.956637 -1.25245 0
M  V30 6085 C 554.22 1.51569 -1.09012 0
M  V30 6086 C 554.571 1.93322 0.334813 0
M  V30 6087 O 553.696 1.78421 1.22454 0
M  V30 6088 C 554.291 2.75444 -1.97271 0
M  V30 6089 C 552.85 3.27669 -1.8523 0
M  V30 6090 C 551.997 2.00517 -1.91542 0
M  V30 6091 H 554.948 0.773746 -1.3856 0
M  V30 6092 H 554.969 3.4919 -1.51151 0
M  V30 6093 H 554.481 2.45024 -3.00973 0
M  V30 6094 H 552.582 3.62914 -0.844045 0
M  V30 6095 H 552.695 3.9582 -2.69932 0
M  V30 6096 H 551.059 2.15727 -1.35404 0
M  V30 6097 H 551.842 1.72448 -2.96844 0
M  V30 6098 N 554.287 1.06798 1.15896 0
M  V30 6099 C 555.217 0.704677 2.22613 0
M  V30 6100 C 556.198 -0.305252 1.67339 0
M  V30 6101 O 557.383 -0.179247 1.93371 0
M  V30 6102 C 554.513 0.0957325 3.47168 0
M  V30 6103 C 553.467 1.0322 4.15367 0
M  V30 6104 C 552.793 0.286293 5.33933 0
M  V30 6105 C 554.093 2.36341 4.65768 0
M  V30 6106 H 555.787 1.59688 2.53259 0
M  V30 6107 H 553.333 0.769257 1.21731 0
M  V30 6108 H 555.286 -0.170333 4.21056 0
M  V30 6109 H 554.01 -0.831516 3.15838 0
M  V30 6110 H 552.669 1.28309 3.43413 0
M  V30 6111 H 552.317 -0.644237 4.98857 0
M  V30 6112 H 552.017 0.910436 5.80504 0
M  V30 6113 H 553.541 0.0278938 6.10594 0
M  V30 6114 H 554.955 2.1561 5.31211 0
M  V30 6115 H 553.352 2.94299 5.2298 0
M  V30 6116 H 554.422 2.99047 3.81705 0
M  V30 6117 N 555.766 -1.3263 0.851289 0
M  V30 6118 C 556.696 -2.31449 0.308771 0
M  V30 6119 C 557.677 -1.59531 -0.590255 0
M  V30 6120 O 558.862 -1.87351 -0.511205 0
M  V30 6121 C 555.992 -3.43586 -0.506548 0
M  V30 6122 C 554.946 -4.26963 0.297753 0
M  V30 6123 C 554.272 -5.30831 -0.642094 0
M  V30 6124 C 555.572 -4.99643 1.52166 0
M  V30 6125 H 557.266 -2.77074 1.13447 0
M  V30 6126 H 554.812 -1.33207 0.546971 0
M  V30 6127 H 556.765 -4.11754 -0.896474 0
M  V30 6128 H 555.489 -2.96681 -1.36558 0
M  V30 6129 H 554.148 -3.60437 0.669391 0
M  V30 6130 H 553.796 -4.8018 -1.49788 0
M  V30 6131 H 553.496 -5.87501 -0.107968 0
M  V30 6132 H 555.02 -6.01862 -1.02927 0
M  V30 6133 H 556.434 -5.6051 1.20421 0
M  V30 6134 H 554.831 -5.66022 1.99347 0
M  V30 6135 H 555.901 -4.27701 2.28474 0
M  V30 6136 N 557.244 -0.608902 -1.45362 0
M  V30 6137 C 558.655 -0.189511 -1.85736 0
M  V30 6138 C 559.006 1.2539 -1.50903 0
M  V30 6139 O 558.131 1.95094 -0.936347 0
M  V30 6140 C 558.726 -0.33716 -3.37118 0
M  V30 6141 C 557.285 0.0275487 -3.7639 0
M  V30 6142 C 556.432 -0.660983 -2.69307 0
M  V30 6143 H 559.383 -0.815499 -1.36144 0
M  V30 6144 H 559.404 0.430257 -3.7806 0
M  V30 6145 H 558.916 -1.38779 -3.62439 0
M  V30 6146 H 557.017 1.0773 -3.56686 0
M  V30 6147 H 557.13 -0.367018 -4.77692 0
M  V30 6148 H 555.494 -0.0984958 -2.54509 0
M  V30 6149 H 556.277 -1.71377 -2.97464 0
M  V30 6150 N 558.722 1.53707 -0.348139 0
M  V30 6151 C 559.999 1.93247 0.302475 0
M  V30 6152 C 560.379 1.28012 1.67857 0
M  V30 6153 O 559.727 0.43274 2.24365 0
M  V30 6154 C 559.937 3.47031 0.370159 0
M  V30 6155 C 561.285 4.20066 0.61882 0
M  V30 6156 O 562.309 3.53319 0.452087 0
M  V30 6157 O 561.168 5.38318 0.94215 0
M  V30 6158 H 558.262 0.807736 0.177458 0
M  V30 6159 H 560.808 1.64927 -0.399651 0
M  V30 6160 H 559.58 3.86745 -0.59534 0
M  V30 6161 H 559.203 3.81532 1.11888 0
M  V30 6162 N 560.2 0.0768682 1.57412 0
M  V30 6163 C 561.428 -0.59997 1.9801 0
M  V30 6164 C 561.843 -1.62842 0.955408 0
M  V30 6165 O 561.2 -1.8241 -0.057314 0
M  V30 6166 C 561.251 -1.26401 3.38681 0
M  V30 6167 O 560.972 -0.276723 4.37225 0
M  V30 6168 C 562.473 -2.0282 3.94182 0
M  V30 6169 H 559.693 -0.162239 0.651091 0
M  V30 6170 H 562.237 0.150771 2.03943 0
M  V30 6171 H 560.392 -1.96581 3.33819 0
M  V30 6172 H 560.806 -0.753744 5.19056 0
M  V30 6173 H 562.28 -2.44667 4.94815 0
M  V30 6174 H 562.757 -2.88678 3.31001 0
M  V30 6175 H 563.363 -1.37496 4.02461 0
M  V30 6176 N 561.678 -1.56367 -0.196722 0
M  V30 6177 C 562.608 -1.97442 -1.24655 0
M  V30 6178 C 563.589 -0.846147 -1.47561 0
M  V30 6179 O 564.774 -1.11035 -1.59326 0
M  V30 6180 C 561.904 -2.31253 -2.59112 0
M  V30 6181 C 560.858 -3.46804 -2.50821 0
M  V30 6182 C 560.184 -3.66286 -3.89536 0
M  V30 6183 C 561.484 -4.8104 -2.03465 0
M  V30 6184 H 563.178 -2.85388 -0.905216 0
M  V30 6185 H 560.724 -1.37304 -0.434002 0
M  V30 6186 H 562.677 -2.58583 -3.32736 0
M  V30 6187 H 561.401 -1.40188 -2.94983 0
M  V30 6188 H 560.06 -3.19563 -1.79653 0
M  V30 6189 H 559.708 -2.72555 -4.22756 0
M  V30 6190 H 559.408 -4.4402 -3.84864 0
M  V30 6191 H 560.932 -3.9599 -4.64784 0
M  V30 6192 H 562.346 -5.07411 -2.66846 0
M  V30 6193 H 560.743 -5.62232 -2.09798 0
M  V30 6194 H 561.813 -4.74732 -0.98781 0
M  V30 6195 N 563.156 0.464375 -1.50603 0
M  V30 6196 C 564.088 1.57916 -1.66118 0
M  V30 6197 C 565.101 1.53497 -0.54246 0
M  V30 6198 O 566.29 1.58763 -0.815877 0
M  V30 6199 C 563.39 2.96809 -1.63577 0
M  V30 6200 C 562.563 3.26026 -2.91592 0
M  V30 6201 C 561.622 4.44506 -2.81604 0
M  V30 6202 O 560.648 4.44484 -3.55559 0
M  V30 6203 N 561.85 5.46549 -1.95614 0
M  V30 6204 H 564.615 1.45022 -2.62276 0
M  V30 6205 H 562.176 0.652903 -1.48151 0
M  V30 6206 H 564.168 3.74048 -1.54499 0
M  V30 6207 H 562.738 3.03438 -0.751262 0
M  V30 6208 H 561.958 2.37337 -3.14746 0
M  V30 6209 H 563.246 3.42361 -3.76386 0
M  V30 6210 H 562.644 5.49391 -1.34854 0
M  V30 6211 H 561.201 6.22746 -1.92435 0
M  V30 6212 N 564.634 1.40294 0.718013 0
M  V30 6213 C 565.883 1.37746 1.4734 0
M  V30 6214 C 566.196 -0.0180754 1.95592 0
M  V30 6215 O 567.402 -0.166166 2.70991 0
M  V30 6216 C 565.858 2.4208 2.66318 0
M  V30 6217 C 565.466 3.87432 2.24945 0
M  V30 6218 C 567.21 2.48635 3.44065 0
M  V30 6219 C 565.117 4.83368 3.40748 0
M  V30 6220 H 564.047 0.512165 0.553356 0
M  V30 6221 H 566.698 1.66019 0.781661 0
M  V30 6222 H 565.08 2.06903 3.3765 0
M  V30 6223 H 566.254 4.3174 1.6105 0
M  V30 6224 H 564.569 3.8433 1.60249 0
M  V30 6225 H 567.166 3.17499 4.30231 0
M  V30 6226 H 567.509 1.51611 3.87711 0
M  V30 6227 H 568.042 2.82791 2.79775 0
M  V30 6228 H 564.781 5.81716 3.02136 0
M  V30 6229 H 564.301 4.43726 4.03568 0
M  V30 6230 H 565.98 5.03074 4.06848 0
M  V30 6231 N 566.112 -0.949982 1.2575 0
M  V30 6232 C 567.389 -1.6718 1.01539 0
M  V30 6233 C 567.769 -2.06095 -0.456942 0
M  V30 6234 O 567.117 -1.77792 -1.43534 0
M  V30 6235 C 567.327 -2.8906 1.95564 0
M  V30 6236 C 568.675 -3.60909 2.23673 0
M  V30 6237 O 569.699 -2.9915 1.9336 0
M  V30 6238 O 568.558 -4.72127 2.75243 0
M  V30 6239 H 565.652 -0.731697 0.385419 0
M  V30 6240 H 568.198 -1.00249 1.36924 0
M  V30 6241 H 566.97 -2.57128 2.94959 0
M  V30 6242 H 566.593 -3.63719 1.60605 0
M  V30 6243 N 567.59 -1.07411 -1.15328 0
M  V30 6244 C 568.867 -0.710732 -1.82231 0
M  V30 6245 C 569.247 0.806732 -1.95077 0
M  V30 6246 O 568.595 1.72139 -1.50268 0
M  V30 6247 C 568.805 -1.42586 -3.18544 0
M  V30 6248 C 570.153 -1.57836 -3.94174 0
M  V30 6249 O 571.177 -1.38669 -3.281 0
M  V30 6250 O 570.036 -1.8938 -5.12638 0
M  V30 6251 H 567.13 -0.25297 -0.78736 0
M  V30 6252 H 569.676 -1.17508 -1.22434 0
M  V30 6253 H 568.448 -2.46008 -3.04296 0
M  V30 6254 H 568.071 -0.952332 -3.86026 0
M  V30 6255 N 569.068 1.32177 -0.85831 0
M  V30 6256 C 570 2.27688 -0.262835 0
M  V30 6257 C 571.013 1.52588 0.567513 0
M  V30 6258 O 572.202 1.74156 0.391407 0
M  V30 6259 C 569.302 3.32668 0.646937 0
M  V30 6260 C 568.475 4.37148 -0.148372 0
M  V30 6261 C 567.534 5.21686 0.687728 0
M  V30 6262 O 566.56 5.69074 0.119934 0
M  V30 6263 N 567.762 5.44892 2.00182 0
M  V30 6264 H 570.527 2.79426 -1.08356 0
M  V30 6265 H 568.088 1.45076 -0.718647 0
M  V30 6266 H 570.08 3.86134 1.2117 0
M  V30 6267 H 568.65 2.81061 1.36834 0
M  V30 6268 H 567.87 3.83915 -0.894572 0
M  V30 6269 H 569.158 5.04038 -0.694514 0
M  V30 6270 H 568.556 5.08128 2.4864 0
M  V30 6271 H 567.113 6.0134 2.51463 0
M  V30 6272 N 570.547 0.616602 1.45037 0
M  V30 6273 C 571.457 -0.0985401 2.34393 0
M  V30 6274 C 572.473 -0.850971 1.51771 0
M  V30 6275 O 573.649 -0.806521 1.84546 0
M  V30 6276 C 570.714 -1.07748 3.29532 0
M  V30 6277 C 569.775 -0.326022 4.2806 0
M  V30 6278 C 569.008 -1.25833 5.18654 0
M  V30 6279 O 569.231 -2.49652 5.12864 0
M  V30 6280 O 568.165 -0.750512 5.97203 0
M  V30 6281 H 571.991 0.636016 2.96966 0
M  V30 6282 H 569.576 0.376832 1.44569 0
M  V30 6283 H 571.458 -1.64107 3.88133 0
M  V30 6284 H 570.133 -1.79291 2.69512 0
M  V30 6285 H 569.04 0.280253 3.73049 0
M  V30 6286 H 570.373 0.349091 4.9096 0
M  V30 6287 N 572.025 -1.5352 0.356285 0
M  V30 6288 C 573.255 -2.05236 -0.236983 0
M  V30 6289 C 573.663 -1.23016 -1.43749 0
M  V30 6290 O 573.006 -0.2615 -1.81829 0
M  V30 6291 C 573.068 -3.52549 -0.7035 0
M  V30 6292 C 572.732 -4.55425 0.379059 0
M  V30 6293 C 573.729 -5.0524 1.22592 0
M  V30 6294 C 571.414 -4.99425 0.536638 0
M  V30 6295 C 573.408 -5.97647 2.21578 0
M  V30 6296 C 571.095 -5.9164 1.52988 0
M  V30 6297 C 572.093 -6.4064 2.3679 0
M  V30 6298 O 571.781 -7.31039 3.34421 0
M  V30 6299 H 571.513 -0.674346 -0.047254 0
M  V30 6300 H 574.067 -1.98962 0.510238 0
M  V30 6301 H 572.297 -3.56331 -1.50217 0
M  V30 6302 H 573.986 -3.87171 -1.21873 0
M  V30 6303 H 574.752 -4.72002 1.11532 0
M  V30 6304 H 570.631 -4.60879 -0.105834 0
M  V30 6305 H 574.175 -6.35816 2.87025 0
M  V30 6306 H 570.072 -6.24293 1.64099 0
M  V30 6307 H 570.84 -7.49009 3.30041 0
M  V30 6308 N 573.503 -0.0852151 -1.57369 0
M  V30 6309 C 574.451 0.894856 -2.14698 0
M  V30 6310 C 575.445 1.29903 -1.08727 0
M  V30 6311 O 576.651 1.27471 -1.27088 0
M  V30 6312 H 573.026 0.306569 -0.686673 0
M  V30 6313 H 574.997 0.386542 -2.95886 0
M  V30 6314 C 573.746 2.14798 -2.73417 0
M  V30 6315 H 573.069 1.84585 -3.54638 0
M  V30 6316 H 574.509 2.81456 -3.1711 0
M  V30 6317 C 572.968 2.91546 -1.68828 0
M  V30 6318 O 573.498 3.85733 -1.12129 0
M  V30 6319 N 571.704 2.54901 -1.39549 0
M  V30 6320 H 571.251 1.7838 -1.85845 0
M  V30 6321 H 571.209 3.06553 -0.698054 0
M  V30 6322 N 574.981 1.5647 0.188427 0
M  V30 6323 C 576.228 1.81013 0.907779 0
M  V30 6324 C 576.556 0.65953 1.82977 0
M  V30 6325 O 575.811 -0.354308 1.92466 0
M  V30 6326 C 576.11 3.11596 1.7505 0
M  V30 6327 C 575.776 4.40145 0.978922 0
M  V30 6328 C 574.438 4.75066 0.765912 0
M  V30 6329 C 576.79 5.19369 0.436498 0
M  V30 6330 C 574.118 5.867 -0.00089868 0
M  V30 6331 C 576.47 6.31805 -0.317136 0
M  V30 6332 C 575.134 6.65303 -0.541103 0
M  V30 6333 H 574.404 0.662373 0.33218 0
M  V30 6334 H 577.051 1.9071 0.173732 0
M  V30 6335 H 575.356 2.97165 2.55343 0
M  V30 6336 H 577.053 3.27793 2.30983 0
M  V30 6337 H 573.643 4.12745 1.15497 0
M  V30 6338 H 577.827 4.92799 0.588449 0
M  V30 6339 H 573.083 6.11122 -0.184329 0
M  V30 6340 H 577.257 6.92406 -0.744788 0
M  V30 6341 H 574.884 7.51646 -1.13718 0
M  V30 6342 N 576.459 -0.456382 1.50847 0
M  V30 6343 C 577.391 -1.57033 1.66953 0
M  V30 6344 C 578.404 -1.53207 0.550593 0
M  V30 6345 O 579.593 -1.58328 0.824285 0
M  V30 6346 C 576.693 -2.95937 1.65149 0
M  V30 6347 C 575.866 -3.24475 2.93317 0
M  V30 6348 C 574.925 -4.43007 2.83957 0
M  V30 6349 O 573.951 -4.42592 3.57912 0
M  V30 6350 N 575.153 -5.45503 1.9851 0
M  V30 6351 H 577.918 -1.43629 2.63042 0
M  V30 6352 H 575.479 -0.645037 1.48495 0
M  V30 6353 H 577.471 -3.73224 1.56481 0
M  V30 6354 H 576.041 -3.03036 0.767343 0
M  V30 6355 H 575.261 -2.35664 3.16 0
M  V30 6356 H 576.549 -3.4036 3.78196 0
M  V30 6357 H 575.947 -5.48668 1.37766 0
M  V30 6358 H 574.504 -6.21716 1.95735 0
M  V30 6359 N 577.937 -1.40673 -0.710563 0
M  V30 6360 C 578.869 -1.37256 -1.83558 0
M  V30 6361 C 579.882 -0.277133 -1.60424 0
M  V30 6362 O 581.071 -0.537831 -1.70205 0
M  V30 6363 C 578.171 -1.1144 -3.20054 0
M  V30 6364 C 577.344 -2.32734 -3.70342 0
M  V30 6365 C 576.403 -2.03002 -4.85465 0
M  V30 6366 O 575.429 -2.75912 -4.97857 0
M  V30 6367 N 576.631 -1.01105 -5.71627 0
M  V30 6368 H 579.396 -2.34215 -1.86985 0
M  V30 6369 H 576.957 -1.35091 -0.892301 0
M  V30 6370 H 578.949 -0.895265 -3.94673 0
M  V30 6371 H 577.519 -0.231307 -3.11743 0
M  V30 6372 H 576.739 -2.70446 -2.86798 0
M  V30 6373 H 578.027 -3.13584 -4.00678 0
M  V30 6374 H 577.425 -0.407303 -5.64232 0
M  V30 6375 H 575.982 -0.85182 -6.4621 0
M  V30 6376 N 579.415 0.9433 -1.26252 0
M  V30 6377 C 580.662 1.68925 -1.11672 0
M  V30 6378 C 580.99 1.91499 0.340329 0
M  V30 6379 O 580.245 1.49189 1.26653 0
M  V30 6380 C 580.544 3.07073 -1.82868 0
M  V30 6381 C 580.21 3.04262 -3.32769 0
M  V30 6382 C 578.872 3.03203 -3.7366 0
M  V30 6383 C 581.224 2.96729 -4.28487 0
M  V30 6384 C 578.552 2.92373 -5.0866 0
M  V30 6385 C 580.904 2.87442 -5.63525 0
M  V30 6386 C 579.568 2.84724 -6.03729 0
M  V30 6387 H 578.838 0.618141 -0.408635 0
M  V30 6388 H 581.485 1.10124 -1.56668 0
M  V30 6389 H 579.79 3.69486 -1.30335 0
M  V30 6390 H 581.487 3.63635 -1.69029 0
M  V30 6391 H 578.077 3.05865 -3.00241 0
M  V30 6392 H 582.261 2.96658 -3.97879 0
M  V30 6393 H 577.517 2.88645 -5.38975 0
M  V30 6394 H 581.691 2.80576 -6.37377 0
M  V30 6395 H 579.318 2.76089 -7.08293 0
M  V30 6396 N 580.893 1.08022 1.14757 0
M  V30 6397 C 582.142 0.802468 1.8505 0
M  V30 6398 C 582.455 -0.674061 1.83619 0
M  V30 6399 O 583.661 -1.06683 2.49662 0
M  V30 6400 C 582.117 1.38551 3.32162 0
M  V30 6401 C 581.725 2.89354 3.42021 0
M  V30 6402 C 583.469 1.18608 4.07594 0
M  V30 6403 C 581.376 3.40815 4.83321 0
M  V30 6404 H 580.306 0.296518 0.693248 0
M  V30 6405 H 582.957 1.30114 1.29393 0
M  V30 6406 H 581.339 0.814556 3.87532 0
M  V30 6407 H 582.513 3.52552 2.96722 0
M  V30 6408 H 580.828 3.08165 2.80041 0
M  V30 6409 H 583.425 1.54525 5.11885 0
M  V30 6410 H 583.768 0.125599 4.1611 0
M  V30 6411 H 584.301 1.72375 3.58513 0
M  V30 6412 H 581.04 4.46418 4.79991 0
M  V30 6413 H 580.56 2.82374 5.29174 0
M  V30 6414 H 582.239 3.37171 5.522 0
M  V30 6415 N 582.371 -1.3172 0.865308 0
M  V30 6416 C 583.601 -2.00765 0.487543 0
M  V30 6417 C 584.009 -1.65145 -0.92325 0
M  V30 6418 O 583.352 -0.874294 -1.61561 0
M  V30 6419 C 583.414 -3.55122 0.559369 0
M  V30 6420 C 583.078 -4.14202 1.93095 0
M  V30 6421 C 584.075 -4.3165 2.89784 0
M  V30 6422 C 581.76 -4.50036 2.23099 0
M  V30 6423 C 583.754 -4.84114 4.14623 0
M  V30 6424 C 581.441 -5.02203 3.48189 0
M  V30 6425 C 582.439 -5.19192 4.43767 0
M  V30 6426 O 582.127 -5.70241 5.6664 0
M  V30 6427 H 581.859 -0.649066 0.188915 0
M  V30 6428 H 584.413 -1.69032 1.16694 0
M  V30 6429 H 582.643 -3.86295 -0.176926 0
M  V30 6430 H 584.332 -4.05428 0.195694 0
M  V30 6431 H 585.098 -4.04288 2.6791 0
M  V30 6432 H 580.977 -4.36091 1.49485 0
M  V30 6433 H 584.521 -4.9729 4.89233 0
M  V30 6434 H 580.418 -5.28997 3.69908 0
M  V30 6435 H 581.186 -5.88617 5.68746 0
M  V30 6436 N 583.85 -0.624285 -1.44708 0
M  V30 6437 C 584.798 0.0969952 -2.32398 0
M  V30 6438 C 585.792 0.842762 -1.46949 0
M  V30 6439 O 586.998 0.756436 -1.63334 0
M  V30 6440 H 583.373 0.0501306 -0.750327 0
M  V30 6441 H 585.344 -0.660767 -2.90992 0
M  V30 6442 C 584.093 1.06967 -3.30837 0
M  V30 6443 H 583.416 0.505242 -3.96595 0
M  V30 6444 H 584.856 1.54397 -3.94889 0
M  V30 6445 C 583.315 2.15153 -2.5925 0
M  V30 6446 O 583.845 3.23139 -2.3863 0
M  V30 6447 N 582.051 1.90898 -2.19103 0
M  V30 6448 H 581.598 1.03086 -2.36074 0
M  V30 6449 H 581.556 2.63485 -1.71531 0
M  V30 6450 N 585.328 1.53329 -0.364422 0
M  V30 6451 C 586.276 2.27212 0.497737 0
M  V30 6452 C 587.27 1.30146 1.08437 0
M  V30 6453 O 588.476 1.47778 1.0277 0
M  V30 6454 H 584.851 0.730329 0.179232 0
M  V30 6455 H 586.822 2.98037 -0.147182 0
M  V30 6456 C 585.571 3.07333 1.6261 0
M  V30 6457 H 584.894 3.81866 1.184 0
M  V30 6458 H 586.334 3.62209 2.20409 0
M  V30 6459 C 584.793 2.18102 2.56775 0
M  V30 6460 O 585.323 1.79104 3.59562 0
M  V30 6461 N 583.529 1.82759 2.25937 0
M  V30 6462 H 583.076 2.14671 1.42387 0
M  V30 6463 H 583.034 1.23342 2.89196 0
M  V30 6464 N 586.806 0.0935595 1.57322 0
M  V30 6465 C 588.031 -0.582324 1.99057 0
M  V30 6466 C 588.456 -1.61025 0.972242 0
M  V30 6467 O 587.814 -1.81202 -0.0594622 0
M  V30 6468 C 587.862 -1.20799 3.39765 0
M  V30 6469 O 586.966 -2.32382 3.40694 0
M  V30 6470 H 586.307 -0.147884 0.647323 0
M  V30 6471 H 588.837 0.174516 2.03854 0
M  V30 6472 H 588.847 -1.54966 3.77425 0
M  V30 6473 H 587.522 -0.454914 4.13405 0
M  V30 6474 H 586.099 -1.99845 3.14827 0
M  V30 6475 N 588.284 -1.56567 -0.180126 0
M  V30 6476 C 589.533 -1.80685 -0.896426 0
M  V30 6477 C 589.846 -0.669335 -1.83791 0
M  V30 6478 O 591.052 -0.795209 -2.59593 0
M  V30 6479 C 589.508 -3.20132 -1.6445 0
M  V30 6480 C 589.116 -4.41727 -0.747088 0
M  V30 6481 C 590.86 -3.53549 -2.34955 0
M  V30 6482 C 588.767 -5.72195 -1.49489 0
M  V30 6483 H 587.697 -0.673758 -0.338477 0
M  V30 6484 H 590.348 -1.8289 -0.149467 0
M  V30 6485 H 588.73 -3.12218 -2.43589 0
M  V30 6486 H 589.904 -4.608 0.00671129 0
M  V30 6487 H 588.219 -4.16122 -0.152134 0
M  V30 6488 H 590.816 -4.48267 -2.91481 0
M  V30 6489 H 591.159 -2.78006 -3.09868 0
M  V30 6490 H 591.692 -3.62976 -1.62768 0
M  V30 6491 H 588.431 -6.50743 -0.788251 0
M  V30 6492 H 587.951 -5.57115 -2.22224 0
M  V30 6493 H 589.63 -6.1384 -2.04472 0
M  V30 6494 N 589.762 0.448376 -1.51087 0
M  V30 6495 C 590.692 1.55102 -1.74544 0
M  V30 6496 C 591.673 1.59357 -0.594932 0
M  V30 6497 O 592.858 1.75261 -0.836491 0
M  V30 6498 C 589.988 2.93268 -1.86041 0
M  V30 6499 C 588.942 3.03877 -3.01402 0
M  V30 6500 C 588.268 4.43914 -2.98068 0
M  V30 6501 C 589.568 2.7898 -4.41551 0
M  V30 6502 H 591.262 1.35724 -2.66869 0
M  V30 6503 H 588.808 0.651498 -1.28419 0
M  V30 6504 H 590.761 3.70356 -2.01034 0
M  V30 6505 H 589.485 3.13853 -0.903548 0
M  V30 6506 H 588.144 2.29227 -2.86096 0
M  V30 6507 H 587.792 4.6145 -2.00182 0
M  V30 6508 H 587.492 4.51944 -3.75527 0
M  V30 6509 H 589.016 5.22991 -3.1514 0
M  V30 6510 H 590.43 3.45805 -4.57265 0
M  V30 6511 H 588.827 2.98431 -5.20633 0
M  V30 6512 H 589.897 1.74663 -4.5235 0
M  V30 6513 N 591.24 1.41047 0.703093 0
M  V30 6514 C 592.17 1.45067 1.82969 0
M  V30 6515 C 593.151 0.31016 1.67248 0
M  V30 6516 O 594.336 0.520548 1.87093 0
M  V30 6517 C 591.466 1.32478 3.2104 0
M  V30 6518 C 590.42 2.44262 3.51454 0
M  V30 6519 C 589.746 2.16742 4.88801 0
M  V30 6520 C 591.046 3.86606 3.51189 0
M  V30 6521 H 592.74 2.39353 1.79863 0
M  V30 6522 H 590.286 1.15206 0.863919 0
M  V30 6523 H 592.239 1.33904 3.99559 0
M  V30 6524 H 590.963 0.346735 3.24754 0
M  V30 6525 H 589.622 2.42107 2.75282 0
M  V30 6526 H 589.27 1.17299 4.89132 0
M  V30 6527 H 588.97 2.91643 5.10116 0
M  V30 6528 H 590.494 2.19872 5.69639 0
M  V30 6529 H 591.908 3.90517 4.19725 0
M  V30 6530 H 590.305 4.61128 3.84033 0
M  V30 6531 H 591.375 4.15296 2.50315 0
M  V30 6532 N 592.718 -0.936591 1.26751 0
M  V30 6533 C 593.628 -2.06949 1.10496 0
M  V30 6534 C 594.644 -1.7396 0.037271 0
M  V30 6535 O 595.82 -1.99941 0.241944 0
M  V30 6536 C 592.885 -3.38612 0.744491 0
M  V30 6537 C 591.946 -3.85355 1.89209 0
M  V30 6538 C 591.179 -5.10735 1.54873 0
M  V30 6539 O 591.402 -5.68602 0.452546 0
M  V30 6540 O 590.336 -5.52632 2.38499 0
M  V30 6541 H 594.162 -2.23571 2.05547 0
M  V30 6542 H 591.747 -1.05428 1.05855 0
M  V30 6543 H 593.629 -4.17711 0.556396 0
M  V30 6544 H 592.304 -3.23218 -0.176582 0
M  V30 6545 H 591.211 -3.07182 2.13518 0
M  V30 6546 H 592.544 -4.05277 2.79305 0
M  V30 6547 N 594.196 -1.08629 -1.14182 0
M  V30 6548 C 595.146 -0.687882 -2.17376 0
M  V30 6549 C 596.13 0.293632 -1.58198 0
M  V30 6550 O 597.322 0.105292 -1.76687 0
M  V30 6551 C 594.451 -0.101184 -3.43151 0
M  V30 6552 C 593.537 -1.10862 -4.09354 0
M  V30 6553 N 593.928 -2.29285 -4.50846 0
M  V30 6554 C 592.226 -0.944897 -4.35876 0
M  V30 6555 C 592.927 -2.93305 -5.02342 0
M  V30 6556 N 591.903 -2.20903 -4.96692 0
M  V30 6557 H 595.705 -1.58963 -2.472 0
M  V30 6558 H 593.219 -0.961329 -1.3089 0
M  V30 6559 H 595.216 0.202209 -4.16409 0
M  V30 6560 H 593.876 0.795522 -3.14804 0
M  V30 6561 H 594.887 -2.66927 -4.43813 0
M  V30 6562 H 591.564 -0.102186 -4.17375 0
M  V30 6563 H 592.954 -3.93932 -5.44304 0
M  V30 6564 N 595.674 1.31259 -0.872281 0
M  V30 6565 C 596.922 1.96233 -0.483409 0
M  V30 6566 C 597.243 1.69276 0.968012 0
M  V30 6567 O 596.513 1.00943 1.67891 0
M  V30 6568 H 595.093 0.726025 -0.175774 0
M  V30 6569 H 597.755 1.60024 -1.11258 0
M  V30 6570 H 596.851 3.05403 -0.643075 0
M  V30 6571 N 597.152 0.631951 1.44375 0
M  V30 6572 C 598.082 -0.0593243 2.33425 0
M  V30 6573 C 599.063 -0.833964 1.48253 0
M  V30 6574 O 600.248 -0.799682 1.76971 0
M  V30 6575 C 597.378 -1.04096 3.31333 0
M  V30 6576 C 596.332 -0.377899 4.26328 0
M  V30 6577 C 595.658 -1.4695 5.14111 0
M  V30 6578 C 596.958 0.716371 5.17364 0
M  V30 6579 H 598.652 0.684287 2.91475 0
M  V30 6580 H 596.198 0.330518 1.40156 0
M  V30 6581 H 598.151 -1.53331 3.92514 0
M  V30 6582 H 596.875 -1.81547 2.71493 0
M  V30 6583 H 595.534 0.0938054 3.6648 0
M  V30 6584 H 595.182 -2.2349 4.50623 0
M  V30 6585 H 594.882 -1.03121 5.78481 0
M  V30 6586 H 596.406 -1.96363 5.78164 0
M  V30 6587 H 597.82 0.307089 5.72477 0
M  V30 6588 H 596.217 1.07784 5.90341 0
M  V30 6589 H 597.287 1.58316 4.58327 0
M  V30 6590 N 598.631 -1.53133 0.372548 0
M  V30 6591 C 599.859 -2.05774 -0.215515 0
M  V30 6592 C 600.274 -1.24555 -1.41886 0
M  V30 6593 O 599.631 -0.287951 -1.80214 0
M  V30 6594 C 599.682 -3.5645 -0.602161 0
M  V30 6595 O 599.403 -4.34591 0.553359 0
M  V30 6596 C 600.904 -4.25374 -1.24787 0
M  V30 6597 H 598.124 -0.670009 -0.0364529 0
M  V30 6598 H 600.668 -1.97434 0.532934 0
M  V30 6599 H 598.823 -3.64918 -1.30052 0
M  V30 6600 H 599.237 -5.23954 0.239336 0
M  V30 6601 H 600.711 -5.32097 -1.46891 0
M  V30 6602 H 601.188 -3.79531 -2.21026 0
M  V30 6603 H 601.794 -4.21177 -0.590752 0
M  V30 6604 N 600.109 -0.101901 -1.5727 0
M  V30 6605 C 601.041 0.884723 -2.11436 0
M  V30 6606 C 602.054 1.24149 -1.05314 0
M  V30 6607 O 603.243 1.19341 -1.3274 0
M  V30 6608 C 600.343 2.19179 -2.58484 0
M  V30 6609 C 599.516 2.00933 -3.88516 0
M  V30 6610 C 598.575 3.15213 -4.2134 0
M  V30 6611 O 597.601 2.88877 -4.90448 0
M  V30 6612 N 598.803 4.41174 -3.77288 0
M  V30 6613 H 601.568 0.422058 -2.96713 0
M  V30 6614 H 599.129 0.0830128 -1.61687 0
M  V30 6615 H 601.121 2.94593 -2.77484 0
M  V30 6616 H 599.691 2.56847 -1.7818 0
M  V30 6617 H 598.911 1.09809 -3.78597 0
M  V30 6618 H 600.199 1.86026 -4.73573 0
M  V30 6619 H 599.597 4.6545 -3.21516 0
M  V30 6620 H 598.154 5.13515 -4.01429 0
M  V30 6621 N 601.587 1.56661 0.17182 0
M  V30 6622 C 602.834 1.81965 0.888529 0
M  V30 6623 C 603.162 0.6789 1.82267 0
M  V30 6624 O 602.417 -0.333875 1.92831 0
M  V30 6625 C 602.716 3.13435 1.71736 0
M  V30 6626 C 602.382 4.41159 0.932184 0
M  V30 6627 C 601.044 4.75851 0.715481 0
M  V30 6628 C 603.396 5.19803 0.381387 0
M  V30 6629 C 600.724 5.86666 -0.063126 0
M  V30 6630 C 603.076 6.31433 -0.384129 0
M  V30 6631 C 601.74 6.64692 -0.611637 0
M  V30 6632 H 601.01 0.665859 0.325136 0
M  V30 6633 H 603.657 1.90884 0.153495 0
M  V30 6634 H 601.962 2.99857 2.52177 0
M  V30 6635 H 603.659 3.30224 2.27493 0
M  V30 6636 H 600.249 4.13947 1.11112 0
M  V30 6637 H 604.433 4.93396 0.536148 0
M  V30 6638 H 599.689 6.10892 -0.249136 0
M  V30 6639 H 603.863 6.91577 -0.818185 0
M  V30 6640 H 601.49 7.50398 -1.21684 0
M  V30 6641 N 603.065 -0.440357 1.51323 0
M  V30 6642 C 604.311 -1.19181 1.64085 0
M  V30 6643 C 604.644 -1.90936 0.354575 0
M  V30 6644 O 603.919 -1.8347 -0.645675 0
M  V30 6645 C 604.202 -2.2112 2.84215 0
M  V30 6646 C 604.055 -1.53468 4.22809 0
M  V30 6647 C 605.374 -3.22133 2.99864 0
M  V30 6648 H 602.493 -0.431924 0.597169 0
M  V30 6649 H 605.135 -0.481443 1.83799 0
M  V30 6650 H 603.285 -2.81703 2.67537 0
M  V30 6651 H 604.957 -0.962455 4.51148 0
M  V30 6652 H 603.2 -0.837086 4.25647 0
M  V30 6653 H 603.871 -2.27694 5.02852 0
M  V30 6654 H 606.347 -2.71601 3.15233 0
M  V30 6655 H 605.223 -3.90756 3.85488 0
M  V30 6656 H 605.484 -3.88061 2.11804 0
M  V30 6657 N 604.543 -1.41418 -0.695603 0
M  V30 6658 C 605.453 -1.45622 -1.83933 0
M  V30 6659 C 606.469 -0.346825 -1.70508 0
M  V30 6660 O 607.645 -0.59454 -1.92424 0
M  V30 6661 C 604.71 -1.33627 -3.19914 0
M  V30 6662 C 603.771 -2.54882 -3.45447 0
M  V30 6663 C 603.004 -2.43449 -4.7494 0
M  V30 6664 O 603.227 -1.45905 -5.51424 0
M  V30 6665 O 602.161 -3.33206 -5.01256 0
M  V30 6666 H 605.987 -2.42114 -1.83342 0
M  V30 6667 H 603.572 -1.22956 -0.848658 0
M  V30 6668 H 605.454 -1.29221 -4.01098 0
M  V30 6669 H 604.129 -0.402508 -3.21188 0
M  V30 6670 H 603.036 -2.64865 -2.64192 0
M  V30 6671 H 604.369 -3.47087 -3.48987 0
M  V30 6672 N 606.021 0.929856 -1.27246 0
M  V30 6673 C 607.246 1.71674 -1.16374 0
M  V30 6674 C 607.671 1.86064 0.276024 0
M  V30 6675 O 607.029 1.3591 1.19992 0
M  V30 6676 C 607.077 3.09526 -1.85003 0
M  V30 6677 O 606.181 3.96142 -1.14653 0
M  V30 6678 H 605.522 0.52629 -0.404863 0
M  V30 6679 H 608.052 1.16381 -1.68276 0
M  V30 6680 H 608.062 3.59852 -1.92276 0
M  V30 6681 H 606.737 2.98369 -2.89739 0
M  V30 6682 H 605.314 3.54584 -1.15433 0
M  V30 6683 N 607.499 1.09233 1.13605 0
M  V30 6684 C 608.746 0.827159 1.84836 0
M  V30 6685 C 609.074 -0.647199 1.83416 0
M  V30 6686 O 608.329 -1.49228 1.26608 0
M  V30 6687 C 608.628 1.305 3.32723 0
M  V30 6688 C 608.294 2.78864 3.54325 0
M  V30 6689 C 606.956 3.19382 3.59928 0
M  V30 6690 C 609.308 3.74532 3.62457 0
M  V30 6691 C 606.636 4.54346 3.71196 0
M  V30 6692 C 608.988 5.09283 3.75252 0
M  V30 6693 C 607.652 5.49394 3.79108 0
M  V30 6694 H 606.922 0.302679 0.676363 0
M  V30 6695 H 609.569 1.36676 1.34134 0
M  V30 6696 H 607.874 0.68517 3.85762 0
M  V30 6697 H 609.571 1.07648 3.86281 0
M  V30 6698 H 606.161 2.46507 3.50617 0
M  V30 6699 H 610.345 3.44343 3.57409 0
M  V30 6700 H 605.601 4.84864 3.72447 0
M  V30 6701 H 609.775 5.83269 3.80487 0
M  V30 6702 H 607.402 6.5397 3.87591 0
M  V30 6703 N 608.977 -1.30795 0.87923 0
M  V30 6704 C 610.202 -2.01063 0.508769 0
M  V30 6705 C 610.627 -1.65508 -0.893803 0
M  V30 6706 O 609.985 -0.868616 -1.59138 0
M  V30 6707 C 610.033 -3.54054 0.683991 0
M  V30 6708 O 609.137 -4.11498 -0.272654 0
M  V30 6709 H 608.478 -0.632786 0.201191 0
M  V30 6710 H 611.008 -1.66776 1.18519 0
M  V30 6711 H 611.018 -4.03845 0.580798 0
M  V30 6712 H 609.693 -3.79271 1.70665 0
M  V30 6713 H 608.27 -3.72695 -0.12364 0
M  V30 6714 N 610.455 -0.639598 -1.44038 0
M  V30 6715 C 611.871 -0.305953 -1.5664 0
M  V30 6716 C 612.071 1.19055 -1.62567 0
M  V30 6717 O 611.127 1.97492 -1.57331 0
M  V30 6718 C 612.44 -1.00533 -2.83397 0
M  V30 6719 C 613.988 -0.984278 -2.97121 0
M  V30 6720 C 614.463 -1.66428 -4.26691 0
M  V30 6721 N 615.954 -1.63127 -4.33525 0
M  V30 6722 C 616.689 -2.12629 -5.32519 0
M  V30 6723 N 616.185 -2.70359 -6.3787 0
M  V30 6724 N 617.978 -2.03208 -5.24083 0
M  V30 6725 H 610.129 -1.6109 -1.38434 0
M  V30 6726 H 612.392 -0.676672 -0.663942 0
M  V30 6727 H 612.098 -2.06034 -2.85032 0
M  V30 6728 H 611.972 -0.548362 -3.73193 0
M  V30 6729 H 614.359 0.0622792 -2.95034 0
M  V30 6730 H 614.44 -1.47981 -2.08651 0
M  V30 6731 H 614.084 -2.71034 -4.29538 0
M  V30 6732 H 614.014 -1.14351 -5.14034 0
M  V30 6733 H 616.505 -1.20987 -3.58009 0
M  V30 6734 H 616.818 -3.05842 -7.09704 0
M  V30 6735 H 615.163 -2.74414 -6.38531 0
M  V30 6736 H 618.354 -1.57823 -4.40692 0
M  V30 6737 H 618.527 -2.42097 -6.01077 0
M  V30 6738 N 611.933 1.52934 -0.380664 0
M  V30 6739 C 612.865 2.23822 0.493581 0
M  V30 6740 C 613.878 1.25761 1.03383 0
M  V30 6741 O 615.067 1.5189 0.937633 0
M  V30 6742 C 612.167 2.9342 1.69582 0
M  V30 6743 C 611.34 4.18115 1.28445 0
M  V30 6744 C 610.399 4.70788 2.35042 0
M  V30 6745 O 609.425 5.34093 1.96807 0
M  V30 6746 N 610.627 4.49899 3.66839 0
M  V30 6747 H 613.392 2.99484 -0.11371 0
M  V30 6748 H 610.953 1.60577 -0.206587 0
M  V30 6749 H 612.945 3.2556 2.40401 0
M  V30 6750 H 611.515 2.21119 2.20965 0
M  V30 6751 H 610.735 3.92109 0.405503 0
M  V30 6752 H 612.023 4.99152 0.986132 0
M  V30 6753 H 611.421 3.99349 4.0067 0
M  V30 6754 H 609.978 4.86551 4.33718 0
M  V30 6755 N 613.412 0.11024 1.57214 0
M  V30 6756 C 614.661 -0.549638 1.94067 0
M  V30 6757 C 614.974 -1.68388 0.995234 0
M  V30 6758 O 616.18 -2.40593 1.25807 0
M  V30 6759 C 614.636 -1.02912 3.44873 0
M  V30 6760 C 614.244 0.0761861 4.47935 0
M  V30 6761 C 615.988 -1.66087 3.9066 0
M  V30 6762 C 613.895 -0.419502 5.8991 0
M  V30 6763 H 612.825 -0.209092 0.724428 0
M  V30 6764 H 615.476 0.188683 1.82527 0
M  V30 6765 H 613.858 -1.82159 3.51616 0
M  V30 6766 H 615.032 0.852185 4.52851 0
M  V30 6767 H 613.347 0.614052 4.11847 0
M  V30 6768 H 615.944 -2.04272 4.94143 0
M  V30 6769 H 616.287 -2.53591 3.30148 0
M  V30 6770 H 616.82 -0.933959 3.86681 0
M  V30 6771 H 613.559 0.419277 6.54158 0
M  V30 6772 H 613.079 -1.16217 5.88433 0
M  V30 6773 H 614.758 -0.883577 6.40938 0
M  V30 6774 N 614.89 -1.56749 -0.16351 0
M  V30 6775 C 615.853 -1.96121 -1.18613 0
M  V30 6776 C 616.853 -0.845765 -1.36761 0
M  V30 6777 O 618.043 -1.11268 -1.34033 0
M  V30 6778 C 615.175 -2.26282 -2.54969 0
M  V30 6779 H 616.368 -2.87639 -0.848764 0
M  V30 6780 H 613.921 -1.50928 -0.406251 0
M  V30 6781 H 614.656 -1.37504 -2.93706 0
M  V30 6782 H 614.441 -3.07595 -2.43162 0
M  V30 6783 H 615.931 -2.57638 -3.28653 0
M  V30 6784 N 616.368 0.432326 -1.51554 0
M  V30 6785 C 617.616 1.17901 -1.64146 0
M  V30 6786 C 617.937 1.91604 -0.362367 0
M  V30 6787 O 617.207 1.85764 0.621968 0
M  V30 6788 H 615.787 0.438206 -0.604966 0
M  V30 6789 H 618.449 0.495172 -1.88505 0
M  V30 6790 H 617.545 1.90584 -2.47152 0
M  V30 6791 N 617.846 1.41785 0.688094 0
M  V30 6792 C 619.262 1.24419 0.999608 0
M  V30 6793 C 619.462 0.138868 2.01021 0
M  V30 6794 O 618.518 -0.494283 2.47615 0
M  V30 6795 C 619.831 2.59625 1.51709 0
M  V30 6796 C 621.379 2.66869 1.63554 0
M  V30 6797 C 621.854 4.0241 2.18702 0
M  V30 6798 N 623.345 4.04295 2.26053 0
M  V30 6799 C 624.08 5.05977 2.69768 0
M  V30 6800 N 623.576 6.18047 3.13033 0
M  V30 6801 N 625.369 4.93336 2.69398 0
M  V30 6802 H 617.52 2.12392 0.0187427 0
M  V30 6803 H 619.783 0.945347 0.0708673 0
M  V30 6804 H 619.489 3.41297 0.849059 0
M  V30 6805 H 619.363 2.82628 2.49803 0
M  V30 6806 H 621.75 1.8555 2.29467 0
M  V30 6807 H 621.831 2.47668 0.639857 0
M  V30 6808 H 621.475 4.8418 1.53402 0
M  V30 6809 H 621.405 4.18955 3.19037 0
M  V30 6810 H 623.896 3.23383 1.9553 0
M  V30 6811 H 624.209 6.91498 3.45038 0
M  V30 6812 H 622.554 6.21572 3.10923 0
M  V30 6813 H 625.745 4.04865 2.34952 0
M  V30 6814 H 625.918 5.72717 3.03148 0
M  V30 6815 N 619.324 -0.923095 1.27737 0
M  V30 6816 C 620.57 -1.67375 1.14514 0
M  V30 6817 C 620.903 -1.91751 -0.307424 0
M  V30 6818 O 620.178 -1.51119 -1.22447 0
M  V30 6819 C 620.461 -3.03745 1.9342 0
M  V30 6820 C 620.314 -2.86581 3.46686 0
M  V30 6821 C 621.633 -4.04144 1.74228 0
M  V30 6822 H 618.752 -0.607427 0.417374 0
M  V30 6823 H 621.394 -1.07089 1.56946 0
M  V30 6824 H 619.544 -3.55204 1.5736 0
M  V30 6825 H 621.216 -2.42203 3.92601 0
M  V30 6826 H 619.459 -2.21829 3.72793 0
M  V30 6827 H 620.13 -3.83381 3.97143 0
M  V30 6828 H 622.606 -3.61712 2.05678 0
M  V30 6829 H 621.482 -4.97543 2.31824 0
M  V30 6830 H 621.743 -4.36661 0.691373 0
M  V30 6831 N 620.802 -1.09834 -1.13024 0
M  V30 6832 C 621.765 -0.745058 -2.16752 0
M  V30 6833 C 622.765 0.227435 -1.59183 0
M  V30 6834 O 623.955 0.0050786 -1.74199 0
M  V30 6835 C 621.087 -0.102543 -3.40746 0
M  V30 6836 H 622.28 -1.66375 -2.49518 0
M  V30 6837 H 619.833 -0.898061 -1.27924 0
M  V30 6838 H 620.568 0.827177 -3.13573 0
M  V30 6839 H 620.353 -0.80235 -3.83803 0
M  V30 6840 H 621.843 0.129082 -4.174 0
M  V30 6841 N 622.28 1.30327 -0.886154 0
M  V30 6842 C 623.528 1.9571 -0.504195 0
M  V30 6843 C 623.849 1.70294 0.950003 0
M  V30 6844 O 623.119 1.02718 1.66811 0
M  V30 6845 H 621.699 0.72412 -0.183465 0
M  V30 6846 H 624.361 1.58835 -1.12949 0
M  V30 6847 H 623.457 3.04704 -0.675431 0
M  V30 6848 N 623.758 0.647228 1.43697 0
M  V30 6849 C 625.006 0.157876 2.01482 0
M  V30 6850 C 625.327 -1.23039 1.51282 0
M  V30 6851 O 624.597 -1.82071 0.722982 0
M  V30 6852 H 623.177 0.0553745 0.744945 0
M  V30 6853 H 625.839 0.83755 1.75986 0
M  V30 6854 H 624.935 0.137895 3.11795 0
M  V30 6855 N 625.236 -1.5273 0.388769 0
M  V30 6856 C 626.652 -1.59553 0.0387049 0
M  V30 6857 C 626.852 -1.40278 -1.44652 0
M  V30 6858 O 625.908 -1.21951 -2.21098 0
M  V30 6859 C 627.221 -2.9625 0.515409 0
M  V30 6860 C 628.769 -3.09426 0.471621 0
M  V30 6861 C 629.244 -4.48572 0.924505 0
M  V30 6862 N 630.735 -4.54754 0.880496 0
M  V30 6863 C 631.47 -5.60653 1.20234 0
M  V30 6864 N 630.966 -6.74198 1.59463 0
M  V30 6865 N 632.759 -5.50755 1.12363 0
M  V30 6866 H 624.91 -1.63508 1.35569 0
M  V30 6867 H 627.173 -0.768097 0.555636 0
M  V30 6868 H 626.879 -3.15569 1.5527 0
M  V30 6869 H 626.753 -3.77102 -0.085792 0
M  V30 6870 H 629.14 -2.89804 -0.556588 0
M  V30 6871 H 629.221 -2.30528 1.10862 0
M  V30 6872 H 628.865 -4.68936 1.95094 0
M  V30 6873 H 628.795 -5.25935 0.264524 0
M  V30 6874 H 631.286 -3.73237 0.591815 0
M  V30 6875 H 631.599 -7.5097 1.82385 0
M  V30 6876 H 629.944 -6.75531 1.63349 0
M  V30 6877 H 633.135 -4.6093 0.816169 0
M  V30 6878 H 633.308 -6.33184 1.37777 0
M  V30 6879 N 626.714 -0.118576 -1.57153 0
M  V30 6880 C 627.662 0.849114 -2.16547 0
M  V30 6881 C 628.656 1.27567 -1.11458 0
M  V30 6882 O 629.862 1.24746 -1.29763 0
M  V30 6883 H 626.237 0.291935 -0.693021 0
M  V30 6884 H 628.208 0.323693 -2.96639 0
M  V30 6885 C 626.957 2.08951 -2.77912 0
M  V30 6886 H 626.28 1.77021 -3.58474 0
M  V30 6887 H 627.72 2.74666 -3.23008 0
M  V30 6888 C 626.179 2.87899 -1.74974 0
M  V30 6889 O 626.709 3.83268 -1.20285 0
M  V30 6890 N 624.915 2.51884 -1.44924 0
M  V30 6891 H 624.462 1.74397 -1.89587 0
M  V30 6892 H 624.42 3.05003 -0.762921 0
M  V30 6893 N 628.193 1.56834 0.155195 0
M  V30 6894 C 629.439 1.83169 0.870467 0
M  V30 6895 C 629.772 0.698929 1.81187 0
M  V30 6896 O 629.047 -0.298035 1.92203 0
M  V30 6897 C 629.33 3.19965 1.65211 0
M  V30 6898 C 629.183 4.43792 0.732744 0
M  V30 6899 C 630.502 3.53885 2.61636 0
M  V30 6900 H 627.621 0.666288 0.315006 0
M  V30 6901 H 630.263 1.89513 0.135988 0
M  V30 6902 H 628.413 3.14687 2.27825 0
M  V30 6903 H 630.085 4.61148 0.118236 0
M  V30 6904 H 628.328 4.3378 0.0417906 0
M  V30 6905 H 628.999 5.36095 1.31552 0
M  V30 6906 H 631.475 3.5972 2.09143 0
M  V30 6907 H 630.351 4.50648 3.13381 0
M  V30 6908 H 630.612 2.79418 3.42605 0
M  V30 6909 N 629.671 -0.424282 1.51781 0
M  V30 6910 C 631.082 -1.00368 1.57427 0
M  V30 6911 C 631.433 -1.91962 0.40558 0
M  V30 6912 O 630.558 -2.111 -0.47601 0
M  V30 6913 C 631.153 -1.82707 2.85313 0
M  V30 6914 C 629.712 -2.35675 2.93487 0
M  V30 6915 C 628.859 -1.1524 2.5222 0
M  V30 6916 H 631.81 -0.205064 1.5737 0
M  V30 6917 H 631.831 -2.68294 2.69812 0
M  V30 6918 H 631.343 -1.16017 3.70353 0
M  V30 6919 H 629.444 -3.05781 2.12906 0
M  V30 6920 H 629.557 -2.67578 3.97415 0
M  V30 6921 H 627.921 -1.50174 2.05718 0
M  V30 6922 H 628.704 -0.5014 3.39619 0
M  V30 6923 N 631.149 -1.42148 -0.680565 0
M  V30 6924 C 632.112 -1.4488 -1.77602 0
M  V30 6925 C 633.112 -0.337209 -1.57224 0
M  V30 6926 O 634.302 -0.597778 -1.63622 0
M  V30 6927 C 631.434 -1.27483 -3.16166 0
M  V30 6928 H 632.627 -2.42412 -1.76568 0
M  V30 6929 H 630.18 -1.28511 -0.889645 0
M  V30 6930 H 630.915 -0.30851 -3.22829 0
M  V30 6931 H 630.7 -2.08037 -3.3236 0
M  V30 6932 H 632.19 -1.32265 -3.96101 0
M  V30 6933 N 632.627 0.916307 -1.28225 0
M  V30 6934 C 633.59 1.99996 -1.11957 0
M  V30 6935 C 634.59 1.60688 -0.0600152 0
M  V30 6936 O 635.78 1.71499 -0.30558 0
M  V30 6937 C 632.912 3.33458 -0.708411 0
M  V30 6938 H 634.105 2.15858 -2.08196 0
M  V30 6939 H 631.658 1.09863 -1.11175 0
M  V30 6940 H 632.393 3.23297 0.254859 0
M  V30 6941 H 632.178 3.63349 -1.47377 0
M  V30 6942 H 633.668 4.13014 -0.617164 0
M  V30 6943 N 634.105 1.10431 1.1244 0
M  V30 6944 C 635.351 0.847972 1.84221 0
M  V30 6945 C 635.684 -0.624903 1.83871 0
M  V30 6946 O 634.959 -1.46074 1.28423 0
M  V30 6947 C 635.242 1.39695 3.319 0
M  V30 6948 C 635.095 2.93668 3.40704 0
M  V30 6949 C 636.414 1.03924 4.27654 0
M  V30 6950 H 633.533 0.309502 0.668863 0
M  V30 6951 H 636.175 1.36745 1.31912 0
M  V30 6952 H 634.325 0.955095 3.76577 0
M  V30 6953 H 635.997 3.46379 3.04662 0
M  V30 6954 H 634.24 3.30272 2.81252 0
M  V30 6955 H 634.911 3.27162 4.446 0
M  V30 6956 H 637.387 1.42049 3.91102 0
M  V30 6957 H 636.263 1.45027 5.29394 0
M  V30 6958 H 636.524 -0.051336 4.4207 0
M  V30 6959 N 635.583 -1.29855 0.893053 0
M  V30 6960 C 636.515 -2.26911 0.32311 0
M  V30 6961 C 637.528 -1.54039 -0.526858 0
M  V30 6962 O 638.717 -1.75132 -0.345095 0
M  V30 6963 C 635.817 -3.34266 -0.558509 0
M  V30 6964 C 634.99 -4.36601 0.264222 0
M  V30 6965 C 634.049 -5.23326 -0.549171 0
M  V30 6966 O 633.075 -5.69192 0.0309883 0
M  V30 6967 N 634.277 -5.50008 -1.85664 0
M  V30 6968 H 637.042 -2.76455 1.15726 0
M  V30 6969 H 634.603 -1.4312 0.756859 0
M  V30 6970 H 636.595 -3.89211 -1.1089 0
M  V30 6971 H 635.165 -2.8459 -1.29334 0
M  V30 6972 H 634.385 -3.81409 0.996046 0
M  V30 6973 H 635.673 -5.02019 0.827906 0
M  V30 6974 H 635.071 -5.14542 -2.35081 0
M  V30 6975 H 633.628 -6.07796 -2.35431 0
M  V30 6976 N 637.061 -0.65484 -1.43351 0
M  V30 6977 C 637.993 0.0744757 -2.29079 0
M  V30 6978 C 639.006 0.7855 -1.42596 0
M  V30 6979 O 640.195 0.642986 -1.66517 0
M  V30 6980 C 637.295 1.12859 -3.19556 0
M  V30 6981 C 636.468 0.495381 -4.34586 0
M  V30 6982 C 635.527 1.44659 -5.05925 0
M  V30 6983 O 634.553 0.954567 -5.61139 0
M  V30 6984 N 635.755 2.78051 -5.09576 0
M  V30 6985 H 638.52 -0.661346 -2.92312 0
M  V30 6986 H 636.081 -0.497744 -1.54059 0
M  V30 6987 H 638.073 1.76577 -3.64147 0
M  V30 6988 H 636.643 1.76636 -2.57912 0
M  V30 6989 H 635.863 -0.32092 -3.92892 0
M  V30 6990 H 637.151 0.0534203 -5.08772 0
M  V30 6991 H 636.549 3.20584 -4.66093 0
M  V30 6992 H 635.106 3.37068 -5.57878 0
M  V30 6993 N 638.539 1.52521 -0.396863 0
M  V30 6994 C 639.785 2.01971 0.183169 0
M  V30 6995 C 640.118 1.2825 1.45827 0
M  V30 6996 O 639.393 0.385179 1.90648 0
M  V30 6997 C 639.676 3.5736 0.443391 0
M  V30 6998 C 639.529 4.41743 -0.84753 0
M  V30 6999 C 640.848 4.22539 1.2308 0
M  V30 7000 H 637.967 0.734119 0.0650976 0
M  V30 7001 H 640.609 1.82519 -0.527918 0
M  V30 7002 H 638.759 3.74066 1.04914 0
M  V30 7003 H 640.431 4.36773 -1.48414 0
M  V30 7004 H 638.674 4.0845 -1.4612 0
M  V30 7005 H 639.345 5.48507 -0.620003 0
M  V30 7006 H 641.821 4.09857 0.718084 0
M  V30 7007 H 640.697 5.31227 1.38162 0
M  V30 7008 H 640.958 3.80675 2.24808 0
M  V30 7009 N 640.017 0.126909 1.57088 0
M  V30 7010 C 640.98 -0.806097 2.14557 0
M  V30 7011 C 641.98 -1.18918 1.08236 0
M  V30 7012 O 643.17 -1.11339 1.33975 0
M  V30 7013 C 640.302 -2.09116 2.69227 0
M  V30 7014 H 641.495 -0.306522 2.98329 0
M  V30 7015 H 639.048 -0.122393 1.5582 0
M  V30 7016 H 639.783 -2.63486 1.89065 0
M  V30 7017 H 639.568 -1.82588 3.46993 0
M  V30 7018 H 641.058 -2.75794 3.13572 0
M  V30 7019 N 641.495 -1.56914 -0.146875 0
M  V30 7020 C 642.442 -1.98275 -1.18134 0
M  V30 7021 C 643.412 -0.850367 -1.42681 0
M  V30 7022 O 644.597 -1.11244 -1.55014 0
M  V30 7023 C 641.737 -2.36861 -2.5098 0
M  V30 7024 C 640.85 -3.63391 -2.33605 0
M  V30 7025 C 639.985 -3.91079 -3.59486 0
M  V30 7026 C 639.024 -5.10879 -3.37149 0
M  V30 7027 N 638.161 -5.34577 -4.55161 0
M  V30 7028 H 643.001 -2.8645 -0.821622 0
M  V30 7029 H 640.538 -1.41718 -0.394248 0
M  V30 7030 H 642.496 -2.57262 -3.28439 0
M  V30 7031 H 641.126 -1.51766 -2.84898 0
M  V30 7032 H 640.178 -3.50766 -1.47199 0
M  V30 7033 H 641.49 -4.51007 -2.13059 0
M  V30 7034 H 640.644 -4.11979 -4.45374 0
M  V30 7035 H 639.383 -3.01885 -3.83036 0
M  V30 7036 H 638.388 -4.89853 -2.49649 0
M  V30 7037 H 639.613 -6.01626 -3.14997 0
M  V30 7038 H 637.559 -4.48337 -4.78884 0
M  V30 7039 H 637.476 -6.16463 -4.37618 0
M  V30 7040 H 638.744 -5.59975 -5.42263 0
M  V30 7041 N 642.974 0.416227 -1.52004 0
M  V30 7042 C 643.937 1.48926 -1.74223 0
M  V30 7043 C 644.937 1.48693 -0.612119 0
M  V30 7044 O 646.127 1.50343 -0.879921 0
M  V30 7045 C 643.259 2.88372 -1.81809 0
M  V30 7046 H 644.452 1.3052 -2.70008 0
M  V30 7047 H 642.005 0.646271 -1.42313 0
M  V30 7048 H 642.74 3.12157 -0.879135 0
M  V30 7049 H 642.525 2.89944 -2.6396 0
M  V30 7050 H 644.015 3.66173 -2.00766 0
M  V30 7051 N 644.452 1.42507 0.673017 0
M  V30 7052 C 645.677 1.4668 1.46627 0
M  V30 7053 C 646.102 0.080066 1.8793 0
M  V30 7054 O 645.46 -0.921879 1.56112 0
M  V30 7055 C 645.508 2.40091 2.69051 0
M  V30 7056 O 644.612 1.8735 3.67387 0
M  V30 7057 H 643.953 0.496908 0.44043 0
M  V30 7058 H 646.483 1.87215 0.825334 0
M  V30 7059 H 646.493 2.56731 3.17101 0
M  V30 7060 H 645.168 3.4084 2.3833 0
M  V30 7061 H 643.745 1.80274 3.26429 0
M  V30 7062 N 645.93 -0.909495 1.28709 0
M  V30 7063 C 647.179 -1.65365 1.15487 0
M  V30 7064 C 647.492 -1.93364 -0.294941 0
M  V30 7065 O 648.698 -2.65905 -0.548338 0
M  V30 7066 C 647.154 -2.97923 2.01916 0
M  V30 7067 C 646.762 -2.77556 3.51663 0
M  V30 7068 C 648.506 -3.75814 1.97393 0
M  V30 7069 C 646.413 -4.0578 4.30229 0
M  V30 7070 H 645.343 -0.620323 0.42862 0
M  V30 7071 H 647.994 -1.00894 1.53273 0
M  V30 7072 H 646.376 -3.63552 1.5699 0
M  V30 7073 H 647.55 -2.2058 4.04575 0
M  V30 7074 H 645.865 -2.13072 3.57756 0
M  V30 7075 H 648.462 -4.70866 2.53357 0
M  V30 7076 H 648.805 -4.05277 0.951643 0
M  V30 7077 H 649.338 -3.1701 2.40311 0
M  V30 7078 H 646.077 -3.81488 5.33055 0
M  V30 7079 H 645.597 -4.62351 3.82089 0
M  V30 7080 H 647.276 -4.74004 4.40374 0
M  V30 7081 N 647.408 -1.11026 -1.11852 0
M  V30 7082 C 648.685 -0.768347 -1.79877 0
M  V30 7083 C 649.065 0.744261 -1.97545 0
M  V30 7084 O 648.413 1.67271 -1.55669 0
M  V30 7085 C 648.623 -1.52648 -3.13846 0
M  V30 7086 C 649.971 -1.70297 -3.88953 0
M  V30 7087 O 650.995 -1.49037 -3.23522 0
M  V30 7088 O 649.854 -2.05593 -5.06353 0
M  V30 7089 H 646.948 -0.277891 -0.778913 0
M  V30 7090 H 649.494 -1.21343 -1.18633 0
M  V30 7091 H 648.266 -2.55564 -2.96315 0
M  V30 7092 H 647.889 -1.07466 -3.82801 0
M  V30 7093 N 648.886 1.2938 -0.899927 0
M  V30 7094 C 649.818 2.26737 -0.335139 0
M  V30 7095 C 650.831 1.54316 0.518681 0
M  V30 7096 O 652.02 1.75313 0.335803 0
M  V30 7097 C 649.12 3.34558 0.540774 0
M  V30 7098 C 648.293 4.36455 -0.287372 0
M  V30 7099 C 647.352 5.2361 0.52141 0
M  V30 7100 O 646.378 5.69167 -0.0611735 0
M  V30 7101 N 647.58 5.50985 1.82745 0
M  V30 7102 H 650.345 2.75838 -1.17191 0
M  V30 7103 H 647.906 1.42716 -0.764438 0
M  V30 7104 H 649.898 3.89794 1.08825 0
M  V30 7105 H 648.468 2.85272 1.27823 0
M  V30 7106 H 647.688 3.80875 -1.01626 0
M  V30 7107 H 648.976 5.01573 -0.854518 0
M  V30 7108 H 648.374 5.15781 2.32349 0
M  V30 7109 H 646.931 6.09036 2.32204 0
M  V30 7110 N 650.364 0.662433 1.43002 0
M  V30 7111 C 651.589 0.186003 2.06564 0
M  V30 7112 C 652.014 -1.14314 1.49379 0
M  V30 7113 O 651.372 -1.70824 0.607346 0
M  V30 7114 C 651.42 0.118269 3.60406 0
M  V30 7115 O 650.524 -0.916859 4.02079 0
M  V30 7116 H 649.865 0.0990981 0.656563 0
M  V30 7117 H 652.395 0.907958 1.8335 0
M  V30 7118 H 652.405 -0.0619981 4.07953 0
M  V30 7119 H 651.08 1.08849 4.01403 0
M  V30 7120 H 649.657 -0.708635 3.66105 0
M  V30 7121 N 651.842 -1.52309 0.404946 0
M  V30 7122 C 653.258 -1.59503 0.0556255 0
M  V30 7123 C 653.458 -1.41805 -1.43156 0
M  V30 7124 O 652.514 -1.2429 -2.19792 0
M  V30 7125 C 653.827 -2.95687 0.546801 0
M  V30 7126 C 655.375 -3.08909 0.504413 0
M  V30 7127 C 655.85 -4.47566 0.97203 0
M  V30 7128 N 657.341 -4.53795 0.928679 0
M  V30 7129 C 658.076 -5.59346 1.26174 0
M  V30 7130 N 657.572 -6.72469 1.66604 0
M  V30 7131 N 659.365 -5.49532 1.18198 0
M  V30 7132 H 651.516 -1.6206 1.37296 0
M  V30 7133 H 653.779 -0.762161 0.563751 0
M  V30 7134 H 653.485 -3.13905 1.58609 0
M  V30 7135 H 653.359 -3.77172 -0.0457905 0
M  V30 7136 H 655.746 -2.90378 -0.525819 0
M  V30 7137 H 655.827 -2.2934 1.13301 0
M  V30 7138 H 655.471 -4.6684 2.00057 0
M  V30 7139 H 655.401 -5.25625 0.320292 0
M  V30 7140 H 657.892 -3.72588 0.631369 0
M  V30 7141 H 658.205 -7.48993 1.9034 0
M  V30 7142 H 656.55 -6.73761 1.70504 0
M  V30 7143 H 659.741 -4.60038 0.865011 0
M  V30 7144 H 659.914 -6.31687 1.44485 0
M  V30 7145 N 653.32 -0.135238 -1.57019 0
M  V30 7146 C 654.252 0.839675 -2.13265 0
M  V30 7147 C 655.265 1.21887 -1.07923 0
M  V30 7148 O 656.454 1.16499 -1.35241 0
M  V30 7149 C 653.554 2.13647 -2.63075 0
M  V30 7150 C 652.727 1.92646 -3.92691 0
M  V30 7151 C 651.786 3.06205 -4.27931 0
M  V30 7152 O 650.812 2.78409 -4.96465 0
M  V30 7153 N 652.014 4.33072 -3.86561 0
M  V30 7154 H 654.779 0.359026 -2.97542 0
M  V30 7155 H 652.34 0.0486979 -1.61827 0
M  V30 7156 H 654.332 2.88641 -2.8367 0
M  V30 7157 H 652.902 2.5301 -1.83588 0
M  V30 7158 H 652.122 1.01754 -3.80841 0
M  V30 7159 H 653.41 1.75939 -4.77413 0
M  V30 7160 H 652.808 4.58526 -3.31316 0
M  V30 7161 H 651.365 5.04885 -4.12231 0
M  V30 7162 N 654.798 1.5699 0.138552 0
M  V30 7163 C 655.731 1.94064 1.2006 0
M  V30 7164 C 656.709 0.807601 1.41126 0
M  V30 7165 O 657.893 1.06399 1.556 0
M  V30 7166 C 655.02 2.21999 2.55801 0
M  V30 7167 C 654.066 3.44617 2.5128 0
M  V30 7168 S 654.899 4.97888 1.97149 0
M  V30 7169 C 656.055 5.28954 3.34602 0
M  V30 7170 H 656.288 2.83843 0.884337 0
M  V30 7171 H 653.821 1.50507 0.344517 0
M  V30 7172 H 655.779 2.38772 3.33914 0
M  V30 7173 H 654.44 1.32869 2.84613 0
M  V30 7174 H 653.633 3.61466 3.51224 0
M  V30 7175 H 653.235 3.27129 1.8128 0
M  V30 7176 H 655.527 5.22938 4.30745 0
M  V30 7177 H 656.47 6.30346 3.22598 0
M  V30 7178 H 656.878 4.56455 3.32128 0
M  V30 7179 N 656.276 -0.40816 1.52223 0
M  V30 7180 C 657.223 -1.49737 1.75635 0
M  V30 7181 C 658.193 -1.5493 0.598824 0
M  V30 7182 O 659.378 -1.71487 0.83648 0
M  V30 7183 C 656.518 -2.87174 1.91376 0
M  V30 7184 C 655.631 -2.91283 3.19027 0
M  V30 7185 C 654.766 -4.20026 3.25195 0
M  V30 7186 C 653.805 -4.18113 4.47044 0
M  V30 7187 N 652.942 -5.38429 4.50598 0
M  V30 7188 H 657.782 -1.29075 2.68596 0
M  V30 7189 H 655.319 -0.626518 1.33091 0
M  V30 7190 H 657.277 -3.66959 1.98486 0
M  V30 7191 H 655.907 -3.06329 1.01795 0
M  V30 7192 H 654.959 -2.03984 3.21084 0
M  V30 7193 H 656.271 -2.85734 4.08849 0
M  V30 7194 H 655.425 -5.08204 3.31382 0
M  V30 7195 H 654.164 -4.28271 2.33313 0
M  V30 7196 H 653.169 -3.28325 4.41002 0
M  V30 7197 H 654.394 -4.11507 5.40221 0
M  V30 7198 H 652.34 -5.4734 3.616 0
M  V30 7199 H 652.257 -5.34879 5.34266 0
M  V30 7200 H 653.525 -6.28557 4.61016 0
M  V30 7201 N 657.755 -1.42862 -0.66545 0
M  V30 7202 C 658.985 -1.47032 -1.45138 0
M  V30 7203 C 659.393 -0.0829977 -1.89018 0
M  V30 7204 O 658.736 0.914551 -1.59316 0
M  V30 7205 C 658.798 -2.34302 -2.72659 0
M  V30 7206 C 658.462 -3.82034 -2.50796 0
M  V30 7207 C 659.459 -4.73453 -2.14799 0
M  V30 7208 C 657.144 -4.26397 -2.655 0
M  V30 7209 C 659.138 -6.07228 -1.93785 0
M  V30 7210 C 656.825 -5.6023 -2.44103 0
M  V30 7211 C 657.823 -6.50462 -2.08299 0
M  V30 7212 O 657.511 -7.8182 -1.87116 0
M  V30 7213 H 657.243 -0.501969 -0.452772 0
M  V30 7214 H 659.797 -1.88137 -0.82423 0
M  V30 7215 H 658.027 -1.88063 -3.37889 0
M  V30 7216 H 659.716 -2.29818 -3.34572 0
M  V30 7217 H 660.482 -4.4046 -2.03026 0
M  V30 7218 H 656.361 -3.56448 -2.92345 0
M  V30 7219 H 659.905 -6.7762 -1.65763 0
M  V30 7220 H 655.802 -5.92793 -2.55475 0
M  V30 7221 H 656.57 -7.93274 -2.01639 0
M  V30 7222 N 659.233 0.902656 -1.29189 0
M  V30 7223 C 660.165 2.01149 -1.09872 0
M  V30 7224 C 661.178 1.62732 -0.0471046 0
M  V30 7225 O 662.367 1.76107 -0.29132 0
M  V30 7226 C 659.467 3.32612 -0.649818 0
M  V30 7227 C 658.64 3.99574 -1.7793 0
M  V30 7228 C 657.699 5.09325 -1.32191 0
M  V30 7229 O 656.725 5.31919 -2.02611 0
M  V30 7230 N 657.927 5.80185 -0.191171 0
M  V30 7231 H 660.692 2.18276 -2.05368 0
M  V30 7232 H 658.253 1.07466 -1.2109 0
M  V30 7233 H 660.245 4.03375 -0.327199 0
M  V30 7234 H 658.815 3.11876 0.212597 0
M  V30 7235 H 658.035 3.22213 -2.27095 0
M  V30 7236 H 659.323 4.41056 -2.53668 0
M  V30 7237 H 658.721 5.64312 0.396016 0
M  V30 7238 H 657.278 6.5176 0.0721001 0
M  V30 7239 N 660.711 1.11618 1.11262 0
M  V30 7240 C 661.936 0.889013 1.8738 0
M  V30 7241 C 662.361 -0.555884 1.79698 0
M  V30 7242 O 661.719 -1.39272 1.16073 0
M  V30 7243 C 661.767 1.35759 3.34069 0
M  V30 7244 O 660.871 0.530499 4.08974 0
M  V30 7245 H 660.212 0.320082 0.581759 0
M  V30 7246 H 662.742 1.48611 1.40627 0
M  V30 7247 H 662.752 1.35291 3.84916 0
M  V30 7248 H 661.427 2.40973 3.38976 0
M  V30 7249 H 660.004 0.601439 3.68018 0
M  V30 7250 N 662.189 -1.289 0.906776 0
M  V30 7251 C 663.119 -2.29932 0.406659 0
M  V30 7252 C 664.1 -1.6189 -0.522061 0
M  V30 7253 O 665.285 -1.8935 -0.431283 0
M  V30 7254 C 662.415 -3.45425 -0.360366 0
M  V30 7255 C 661.369 -4.25316 0.478574 0
M  V30 7256 C 660.695 -5.33076 -0.416373 0
M  V30 7257 C 661.995 -4.92739 1.7322 0
M  V30 7258 H 663.689 -2.72013 1.25097 0
M  V30 7259 H 661.235 -1.30768 0.602977 0
M  V30 7260 H 663.188 -4.15186 -0.721029 0
M  V30 7261 H 661.912 -3.02206 -1.23852 0
M  V30 7262 H 660.571 -3.57273 0.821662 0
M  V30 7263 H 660.219 -4.86101 -1.29287 0
M  V30 7264 H 659.919 -5.8743 0.141309 0
M  V30 7265 H 661.443 -6.05686 -0.773072 0
M  V30 7266 H 662.857 -5.54898 1.44086 0
M  V30 7267 H 661.254 -5.57057 2.23175 0
M  V30 7268 H 662.324 -4.17625 2.46408 0
M  V30 7269 N 663.667 -0.670007 -1.42649 0
M  V30 7270 C 664.615 0.0230106 -2.32589 0
M  V30 7271 C 665.609 0.795585 -1.49555 0
M  V30 7272 O 666.815 0.70409 -1.65658 0
M  V30 7273 H 663.19 0.0262342 -0.751542 0
M  V30 7274 H 665.161 -0.753009 -2.88743 0
M  V30 7275 C 663.91 0.963872 -3.34073 0
M  V30 7276 H 663.233 0.378813 -3.98001 0
M  V30 7277 H 664.673 1.41755 -3.99602 0
M  V30 7278 C 663.132 2.06797 -2.65964 0
M  V30 7279 O 663.662 3.15383 -2.48789 0
M  V30 7280 N 661.868 1.83831 -2.25066 0
M  V30 7281 H 661.415 0.955235 -2.39234 0
M  V30 7282 H 661.373 2.57895 -1.79827 0
M  V30 7283 N 665.145 1.52092 -0.413018 0
M  V30 7284 C 666.055 2.30858 0.417318 0
M  V30 7285 C 667.071 1.38746 1.05003 0
M  V30 7286 O 668.247 1.71821 1.05069 0
M  V30 7287 C 665.312 3.11756 1.51687 0
M  V30 7288 C 664.373 4.19613 0.906825 0
M  V30 7289 C 663.606 4.96644 1.95399 0
M  V30 7290 O 663.829 4.7402 3.17271 0
M  V30 7291 O 662.763 5.81385 1.55805 0
M  V30 7292 H 666.589 3.02865 -0.225028 0
M  V30 7293 H 664.174 1.48358 -0.176126 0
M  V30 7294 H 666.056 3.62122 2.15512 0
M  V30 7295 H 664.731 2.42539 2.14375 0
M  V30 7296 H 663.638 3.73385 0.231183 0
M  V30 7297 H 664.971 4.91134 0.323814 0
M  V30 7298 N 666.623 0.143563 1.56945 0
M  V30 7299 C 667.853 -0.514699 2.00086 0
M  V30 7300 C 668.261 -1.59184 1.0226 0
M  V30 7301 O 667.604 -1.83697 0.0110514 0
M  V30 7302 C 667.666 -1.17778 3.39659 0
M  V30 7303 C 667.33 -0.245657 4.56339 0
M  V30 7304 C 668.327 0.525343 5.17239 0
M  V30 7305 C 666.012 -0.149564 5.02077 0
M  V30 7306 C 668.006 1.37992 6.22284 0
M  V30 7307 C 665.693 0.708621 6.06978 0
M  V30 7308 C 666.691 1.47197 6.6695 0
M  V30 7309 O 666.379 2.31586 7.6982 0
M  V30 7310 H 666.111 -0.138789 0.661599 0
M  V30 7311 H 668.665 0.234098 2.04062 0
M  V30 7312 H 666.895 -1.97415 3.32512 0
M  V30 7313 H 668.584 -1.73542 3.6693 0
M  V30 7314 H 669.35 0.461118 4.82803 0
M  V30 7315 H 665.229 -0.733457 4.55128 0
M  V30 7316 H 668.773 1.97621 6.69023 0
M  V30 7317 H 664.67 0.77415 6.40841 0
M  V30 7318 H 665.438 2.24796 7.87025 0
M  V30 7319 N 668.101 -1.57061 -0.130224 0
M  V30 7320 C 669.517 -1.52103 -0.483413 0
M  V30 7321 C 669.717 -0.854752 -1.82473 0
M  V30 7322 O 668.773 -0.432342 -2.48771 0
M  V30 7323 C 670.086 -2.96872 -0.47825 0
M  V30 7324 C 671.634 -3.07902 -0.562592 0
M  V30 7325 C 672.109 -4.54211 -0.587929 0
M  V30 7326 N 673.6 -4.58621 -0.649684 0
M  V30 7327 C 674.335 -5.69227 -0.690551 0
M  V30 7328 N 673.831 -6.89358 -0.689743 0
M  V30 7329 N 675.624 -5.57304 -0.732708 0
M  V30 7330 H 667.775 -1.98764 0.748779 0
M  V30 7331 H 670.038 -0.907248 0.274965 0
M  V30 7332 H 669.744 -3.48944 0.439444 0
M  V30 7333 H 669.618 -3.53716 -1.31013 0
M  V30 7334 H 672.005 -2.5584 -1.47071 0
M  V30 7335 H 672.086 -2.54073 0.296764 0
M  V30 7336 H 671.73 -5.06915 0.316096 0
M  V30 7337 H 671.66 -5.0584 -1.46401 0
M  V30 7338 H 674.151 -3.72146 -0.656927 0
M  V30 7339 H 674.464 -7.69408 -0.723239 0
M  V30 7340 H 672.809 -6.91884 -0.657347 0
M  V30 7341 H 676 -4.62363 -0.730625 0
M  V30 7342 H 676.173 -6.43515 -0.76109 0
M  V30 7343 N 669.579 0.400081 -1.52437 0
M  V30 7344 C 670.526 1.48803 -1.76426 0
M  V30 7345 C 671.496 1.5461 -0.607032 0
M  V30 7346 O 672.681 1.71041 -0.845563 0
M  V30 7347 C 669.821 2.86156 -1.92896 0
M  V30 7348 C 668.934 2.89587 -3.20567 0
M  V30 7349 C 668.069 4.18296 -3.27417 0
M  V30 7350 C 667.108 4.15736 -4.49255 0
M  V30 7351 N 666.245 5.36032 -4.53447 0
M  V30 7352 H 671.085 1.27649 -2.69276 0
M  V30 7353 H 668.622 0.619451 -1.33421 0
M  V30 7354 H 670.58 3.65901 -2.00429 0
M  V30 7355 H 669.21 3.05785 -1.03418 0
M  V30 7356 H 668.262 2.02278 -3.22161 0
M  V30 7357 H 669.574 2.83562 -4.10358 0
M  V30 7358 H 668.728 5.06439 -3.34072 0
M  V30 7359 H 667.467 4.27028 -2.35581 0
M  V30 7360 H 666.472 3.25982 -4.42737 0
M  V30 7361 H 667.697 4.08636 -5.42396 0
M  V30 7362 H 665.643 5.45415 -3.64498 0
M  V30 7363 H 665.56 5.32038 -5.37096 0
M  V30 7364 H 666.828 6.26104 -4.64343 0
M  V30 7365 N 671.057 1.43213 0.657864 0
M  V30 7366 C 672.473 1.26511 0.972992 0
M  V30 7367 C 672.673 0.181477 2.00681 0
M  V30 7368 O 671.729 -0.441649 2.48608 0
M  V30 7369 C 673.042 2.62784 1.46168 0
M  V30 7370 C 674.59 2.70278 1.57857 0
M  V30 7371 C 675.065 4.06958 2.10117 0
M  V30 7372 N 676.556 4.08999 2.17426 0
M  V30 7373 C 677.291 5.11585 2.58975 0
M  V30 7374 N 676.787 6.24548 2.99853 0
M  V30 7375 N 678.58 4.9894 2.58873 0
M  V30 7376 H 670.731 2.12384 -0.0263129 0
M  V30 7377 H 672.994 0.946638 0.0507992 0
M  V30 7378 H 672.7 3.43022 0.776474 0
M  V30 7379 H 672.574 2.87863 2.43751 0
M  V30 7380 H 674.961 1.90376 2.25479 0
M  V30 7381 H 675.042 2.4897 0.587179 0
M  V30 7382 H 674.686 4.87325 1.43098 0
M  V30 7383 H 674.616 4.25628 3.10078 0
M  V30 7384 H 677.107 3.27457 1.88627 0
M  V30 7385 H 677.42 6.98661 3.30292 0
M  V30 7386 H 675.765 6.28027 2.97669 0
M  V30 7387 H 678.956 4.09757 2.26311 0
M  V30 7388 H 679.129 5.79019 2.90932 0
M  V30 7389 N 672.536 -0.895792 1.29666 0
M  V30 7390 C 673.783 -1.64664 1.17864 0
M  V30 7391 C 674.111 -1.92631 -0.26902 0
M  V30 7392 O 673.366 -1.53787 -1.21029 0
M  V30 7393 C 673.665 -3.00075 1.94139 0
M  V30 7394 C 673.331 -2.91702 3.43833 0
M  V30 7395 C 671.993 -2.89126 3.84656 0
M  V30 7396 C 674.345 -2.80622 4.39205 0
M  V30 7397 C 671.673 -2.73293 5.1916 0
M  V30 7398 C 674.025 -2.66329 5.73805 0
M  V30 7399 C 672.689 -2.62121 6.1388 0
M  V30 7400 H 671.959 -0.602549 0.431295 0
M  V30 7401 H 674.606 -1.04234 1.60648 0
M  V30 7402 H 672.911 -3.64394 1.43958 0
M  V30 7403 H 674.608 -3.57111 1.82408 0
M  V30 7404 H 671.198 -2.94511 3.11386 0
M  V30 7405 H 675.382 -2.81686 4.08615 0
M  V30 7406 H 670.638 -2.68443 5.49316 0
M  V30 7407 H 674.812 -2.56727 6.47352 0
M  V30 7408 H 672.439 -2.49611 7.18052 0
M  V30 7409 N 674.014 -1.12206 -1.10668 0
M  V30 7410 C 675.43 -0.857619 -1.346 0
M  V30 7411 C 675.63 0.513542 -1.94846 0
M  V30 7412 O 674.686 1.26273 -2.18658 0
M  V30 7413 C 675.999 -1.97212 -2.26998 0
M  V30 7414 C 677.547 -2.00272 -2.40542 0
M  V30 7415 C 678.022 -3.10948 -3.36267 0
M  V30 7416 N 679.513 -3.10375 -3.43834 0
M  V30 7417 C 680.248 -3.92651 -4.17867 0
M  V30 7418 N 679.744 -4.84911 -4.94807 0
M  V30 7419 N 681.537 -3.80798 -4.1346 0
M  V30 7420 H 673.688 -2.00558 -0.699306 0
M  V30 7421 H 675.951 -0.872612 -0.370477 0
M  V30 7422 H 675.657 -2.96002 -1.89936 0
M  V30 7423 H 675.531 -1.87521 -3.27286 0
M  V30 7424 H 677.918 -1.02103 -2.76874 0
M  V30 7425 H 677.999 -2.14037 -1.40077 0
M  V30 7426 H 677.643 -4.09348 -3.00661 0
M  V30 7427 H 677.573 -2.94421 -4.36605 0
M  V30 7428 H 680.064 -2.43536 -2.88961 0
M  V30 7429 H 680.377 -5.44207 -5.48688 0
M  V30 7430 H 678.722 -4.88926 -4.93939 0
M  V30 7431 H 681.913 -3.08058 -3.52445 0
M  V30 7432 H 682.086 -4.4515 -4.70898 0
M  V30 7433 N 675.492 1.28418 -0.913599 0
M  V30 7434 C 676.422 2.29713 -0.418847 0
M  V30 7435 C 677.403 1.62165 0.513469 0
M  V30 7436 O 678.588 1.89576 0.421235 0
M  V30 7437 C 675.718 3.45612 0.342042 0
M  V30 7438 C 674.672 4.25056 -0.501123 0
M  V30 7439 C 673.998 5.3329 0.388097 0
M  V30 7440 C 675.298 4.91814 -1.75831 0
M  V30 7441 H 676.992 2.71346 -1.26538 0
M  V30 7442 H 674.538 1.30446 -0.609903 0
M  V30 7443 H 676.491 4.15562 0.699 0
M  V30 7444 H 675.215 3.02858 1.22248 0
M  V30 7445 H 673.874 3.56833 -0.840598 0
M  V30 7446 H 673.522 4.8678 1.26707 0
M  V30 7447 H 673.222 5.87347 -0.172459 0
M  V30 7448 H 674.746 6.06088 0.74094 0
M  V30 7449 H 676.16 5.54126 -1.47026 0
M  V30 7450 H 674.557 5.55866 -2.26126 0
M  V30 7451 H 675.627 4.16313 -2.4862 0
M  V30 7452 N 676.97 0.677563 1.42291 0
M  V30 7453 C 677.917 0.000947061 2.308 0
M  V30 7454 C 678.887 -0.789889 1.46116 0
M  V30 7455 O 680.072 -0.761578 1.74942 0
M  V30 7456 C 677.212 -0.942387 3.31984 0
M  V30 7457 C 676.325 -0.14508 4.31756 0
M  V30 7458 C 675.46 -1.08442 5.20013 0
M  V30 7459 C 674.499 -0.278958 6.11464 0
M  V30 7460 N 673.636 -1.17115 6.92263 0
M  V30 7461 H 678.476 0.761521 2.88106 0
M  V30 7462 H 676.013 0.38727 1.41911 0
M  V30 7463 H 677.971 -1.50317 3.89179 0
M  V30 7464 H 676.601 -1.66956 2.76271 0
M  V30 7465 H 675.653 0.532368 3.76656 0
M  V30 7466 H 676.965 0.48015 4.96484 0
M  V30 7467 H 676.119 -1.71504 5.81955 0
M  V30 7468 H 674.858 -1.74353 4.55469 0
M  V30 7469 H 673.863 0.364856 5.48588 0
M  V30 7470 H 675.088 0.376099 6.78058 0
M  V30 7471 H 673.034 -1.81661 6.30345 0
M  V30 7472 H 672.951 -0.601063 7.53607 0
M  V30 7473 H 674.219 -1.78915 7.58689 0
M  V30 7474 N 678.448 -1.51871 0.421078 0
M  V30 7475 C 679.859 -1.86644 -0.0457991 0
M  V30 7476 C 680.21 -1.33919 -1.43388 0
M  V30 7477 O 679.335 -0.683316 -2.05328 0
M  V30 7478 C 679.93 -3.38681 -0.0898844 0
M  V30 7479 C 678.489 -3.73049 -0.501127 0
M  V30 7480 C 677.636 -2.75485 0.316723 0
M  V30 7481 H 680.587 -1.45327 0.637635 0
M  V30 7482 H 680.608 -3.69636 -0.902734 0
M  V30 7483 H 680.12 -3.77025 0.920513 0
M  V30 7484 H 678.221 -3.40288 -1.51773 0
M  V30 7485 H 678.334 -4.78512 -0.237217 0
M  V30 7486 H 676.698 -2.53725 -0.222663 0
M  V30 7487 H 677.481 -3.16671 1.32569 0
M  V30 7488 N 679.926 -0.151884 -1.56866 0
M  V30 7489 C 681.156 0.504081 -2.00356 0
M  V30 7490 C 681.564 1.58639 -1.03103 0
M  V30 7491 O 680.907 1.83688 -0.0207931 0
M  V30 7492 C 680.969 1.15975 -3.40279 0
M  V30 7493 C 680.633 0.221453 -4.56463 0
M  V30 7494 C 681.63 -0.552766 -5.16953 0
M  V30 7495 C 679.315 0.122936 -5.0215 0
M  V30 7496 C 681.309 -1.4129 -6.21543 0
M  V30 7497 C 678.996 -0.740801 -6.06593 0
M  V30 7498 C 679.994 -1.50732 -6.6616 0
M  V30 7499 O 679.682 -2.35666 -7.68581 0
M  V30 7500 H 679.414 0.135279 -0.662326 0
M  V30 7501 H 681.968 -0.244916 -2.03935 0
M  V30 7502 H 680.198 1.95649 -3.33554 0
M  V30 7503 H 681.887 1.71594 -3.67846 0
M  V30 7504 H 682.653 -0.486716 -4.82552 0
M  V30 7505 H 678.532 0.70931 -4.5551 0
M  V30 7506 H 682.076 -2.01166 -6.67966 0
M  V30 7507 H 677.973 -0.808125 -6.40421 0
M  V30 7508 H 678.741 -2.28967 -7.85822 0
M  V30 7509 N 681.404 1.57128 0.121893 0
M  V30 7510 C 682.632 1.88883 0.844451 0
M  V30 7511 C 683.047 0.742824 1.73573 0
M  V30 7512 O 682.404 -0.286475 1.80238 0
M  V30 7513 C 682.455 3.20076 1.68029 0
M  V30 7514 O 682.176 4.30264 0.824898 0
M  V30 7515 C 683.677 3.65515 2.50826 0
M  V30 7516 H 680.897 0.62549 0.242907 0
M  V30 7517 H 683.441 2.04219 0.107151 0
M  V30 7518 H 681.596 3.06418 2.37038 0
M  V30 7519 H 682.01 5.05439 1.40113 0
M  V30 7520 H 683.484 4.60081 3.05008 0
M  V30 7521 H 683.961 2.92029 3.28048 0
M  V30 7522 H 684.567 3.81952 1.87064 0
M  V30 7523 N 682.882 -0.391992 1.52647 0
M  V30 7524 C 684.107 -1.16312 1.71716 0
M  V30 7525 C 684.532 -1.83042 0.433279 0
M  V30 7526 O 683.89 -1.70705 -0.610707 0
M  V30 7527 C 683.938 -2.18908 2.86551 0
M  V30 7528 O 683.042 -3.2543 2.53316 0
M  V30 7529 H 682.383 -0.338743 0.571095 0
M  V30 7530 H 684.913 -0.457202 1.99426 0
M  V30 7531 H 684.923 -2.62954 3.1196 0
M  V30 7532 H 683.598 -1.69726 3.79692 0
M  V30 7533 H 682.175 -2.86543 2.38637 0
M  V30 7534 N 684.36 -1.4356 -0.65026 0
M  V30 7535 C 685.607 -1.45333 -1.41012 0
M  V30 7536 C 685.935 -0.0787282 -1.94341 0
M  V30 7537 O 685.19 0.916715 -1.72901 0
M  V30 7538 C 685.489 -2.44528 -2.60654 0
M  V30 7539 C 685.155 -3.90331 -2.25727 0
M  V30 7540 C 683.817 -4.3004 -2.15914 0
M  V30 7541 C 686.169 -4.822 -1.97821 0
M  V30 7542 C 683.497 -5.59568 -1.76354 0
M  V30 7543 C 685.849 -6.12095 -1.59759 0
M  V30 7544 C 684.513 -6.50778 -1.48473 0
M  V30 7545 H 683.783 -0.531813 -0.516 0
M  V30 7546 H 686.43 -1.76657 -0.739219 0
M  V30 7547 H 684.735 -2.06619 -3.3289 0
M  V30 7548 H 686.432 -2.43155 -3.18868 0
M  V30 7549 H 683.022 -3.58905 -2.34276 0
M  V30 7550 H 687.206 -4.5229 -2.04322 0
M  V30 7551 H 682.462 -5.88376 -1.66205 0
M  V30 7552 H 686.636 -6.82751 -1.37198 0
M  V30 7553 H 684.263 -7.5105 -1.17591 0
M  V30 7554 N 685.838 0.888903 -1.30139 0
M  V30 7555 C 686.748 2.02705 -1.18101 0
M  V30 7556 C 687.764 1.73702 -0.101809 0
M  V30 7557 O 688.94 1.98906 -0.315984 0
M  V30 7558 C 686.005 3.35616 -0.869651 0
M  V30 7559 C 685.066 3.78067 -2.03381 0
M  V30 7560 C 684.299 5.04635 -1.73721 0
M  V30 7561 O 684.522 5.66531 -0.663267 0
M  V30 7562 O 683.456 5.43399 -2.58845 0
M  V30 7563 H 687.282 2.15788 -2.13704 0
M  V30 7564 H 684.867 1.01426 -1.09695 0
M  V30 7565 H 686.749 4.15358 -0.711043 0
M  V30 7566 H 685.424 3.23651 0.0565002 0
M  V30 7567 H 684.331 2.99046 -2.24772 0
M  V30 7568 H 685.664 3.94631 -2.94155 0
M  V30 7569 N 687.317 1.12792 1.10072 0
M  V30 7570 C 688.227 0.812369 2.20086 0
M  V30 7571 C 689.243 -0.200349 1.72843 0
M  V30 7572 O 690.419 -0.0330262 2.01373 0
M  V30 7573 C 687.484 0.275685 3.45602 0
M  V30 7574 C 686.545 1.34881 4.07561 0
M  V30 7575 C 685.778 0.837639 5.27086 0
M  V30 7576 O 686.001 -0.327224 5.69461 0
M  V30 7577 O 684.935 1.60894 5.79997 0
M  V30 7578 H 688.761 1.73133 2.49517 0
M  V30 7579 H 686.346 0.904863 1.18881 0
M  V30 7580 H 688.228 -0.0185375 4.21396 0
M  V30 7581 H 686.903 -0.615783 3.17789 0
M  V30 7582 H 685.81 1.69625 3.33434 0
M  V30 7583 H 687.143 2.21418 4.39585 0
M  V30 7584 N 688.795 -1.27931 0.920396 0
M  V30 7585 C 689.725 -2.29487 0.431024 0
M  V30 7586 C 690.706 -1.62435 -0.504861 0
M  V30 7587 O 691.891 -1.89797 -0.411176 0
M  V30 7588 C 689.021 -3.45788 -0.323709 0
M  V30 7589 C 687.975 -4.24784 0.523658 0
M  V30 7590 C 687.301 -5.33488 -0.359809 0
M  V30 7591 C 688.601 -4.90874 1.78437 0
M  V30 7592 H 690.295 -2.70671 1.27975 0
M  V30 7593 H 687.841 -1.30121 0.616813 0
M  V30 7594 H 689.794 -4.15927 -0.676952 0
M  V30 7595 H 688.518 -3.03502 -1.2064 0
M  V30 7596 H 687.177 -3.56382 0.85951 0
M  V30 7597 H 686.825 -4.87445 -1.24124 0
M  V30 7598 H 686.525 -5.87247 0.203605 0
M  V30 7599 H 688.049 -6.06472 -0.708787 0
M  V30 7600 H 689.463 -5.53339 1.49963 0
M  V30 7601 H 687.86 -5.54659 2.29071 0
M  V30 7602 H 688.93 -4.14988 2.50824 0
M  V30 7603 N 690.273 -0.685099 -1.4193 0
M  V30 7604 C 691.501 -0.220372 -2.05723 0
M  V30 7605 C 691.916 1.12642 -1.51516 0
M  V30 7606 O 691.273 1.70182 -0.659114 0
M  V30 7607 C 691.324 -0.157974 -3.61155 0
M  V30 7608 O 691.045 -1.45156 -4.13354 0
M  V30 7609 C 692.546 0.329009 -4.42077 0
M  V30 7610 H 689.766 -0.104725 -0.662777 0
M  V30 7611 H 692.31 -0.934736 -1.81887 0
M  V30 7612 H 690.465 0.507144 -3.84066 0
M  V30 7613 H 690.879 -1.33172 -5.07312 0
M  V30 7614 H 692.353 0.321559 -5.51063 0
M  V30 7615 H 692.83 1.36608 -4.17414 0
M  V30 7616 H 693.436 -0.304737 -4.24207 0
M  V30 7617 N 691.751 1.51645 -0.429126 0
M  V30 7618 C 692.999 2.01616 0.139802 0
M  V30 7619 C 693.32 1.31568 1.43927 0
M  V30 7620 O 692.59 0.447688 1.90716 0
M  V30 7621 H 691.17 0.744998 0.054654 0
M  V30 7622 H 693.832 1.8638 -0.569952 0
M  V30 7623 H 692.928 3.10439 0.321609 0
M  V30 7624 N 693.229 0.160201 1.56784 0
M  V30 7625 C 694.139 -0.787167 2.21 0
M  V30 7626 C 695.155 -1.26167 1.19825 0
M  V30 7627 O 696.331 -1.31611 1.52448 0
M  V30 7628 C 693.396 -2.00364 2.8294 0
M  V30 7629 C 692.457 -1.5771 3.99282 0
M  V30 7630 C 691.69 -2.73558 4.58259 0
M  V30 7631 O 691.913 -3.90129 4.16119 0
M  V30 7632 O 690.847 -2.48271 5.48311 0
M  V30 7633 H 694.673 -0.270462 3.02493 0
M  V30 7634 H 692.258 -0.0674666 1.49248 0
M  V30 7635 H 694.14 -2.71529 3.22257 0
M  V30 7636 H 692.815 -2.50961 2.04451 0
M  V30 7637 H 691.722 -0.835274 3.64656 0
M  V30 7638 H 693.055 -1.11815 4.79331 0
M  V30 7639 N 694.707 -1.5719 -0.113559 0
M  V30 7640 C 695.654 -2.00736 -1.13901 0
M  V30 7641 C 696.624 -0.88044 -1.40846 0
M  V30 7642 O 697.809 -1.14507 -1.5262 0
M  V30 7643 C 694.949 -2.42132 -2.45899 0
M  V30 7644 C 694.062 -3.68264 -2.25844 0
M  V30 7645 C 693.197 -3.98617 -3.5111 0
M  V30 7646 C 692.236 -5.17915 -3.26236 0
M  V30 7647 N 691.373 -5.44111 -4.4372 0
M  V30 7648 H 696.213 -2.88128 -0.760677 0
M  V30 7649 H 693.75 -1.42523 -0.364099 0
M  V30 7650 H 695.708 -2.6417 -3.22908 0
M  V30 7651 H 694.338 -1.57775 -2.81615 0
M  V30 7652 H 693.39 -3.53809 -1.39726 0
M  V30 7653 H 694.702 -4.55425 -2.03444 0
M  V30 7654 H 693.856 -4.21333 -4.36536 0
M  V30 7655 H 692.595 -3.09942 -3.76546 0
M  V30 7656 H 691.6 -4.95038 -2.39202 0
M  V30 7657 H 692.825 -6.08172 -3.02165 0
M  V30 7658 H 690.771 -4.58394 -4.69266 0
M  V30 7659 H 690.688 -6.25606 -4.24444 0
M  V30 7660 H 691.956 -5.71351 -5.30263 0
M  V30 7661 N 696.185 0.383891 -1.52853 0
M  V30 7662 C 697.095 1.49343 -1.80925 0
M  V30 7663 C 698.111 1.59458 -0.696348 0
M  V30 7664 O 699.287 1.75698 -0.984481 0
M  V30 7665 C 696.352 2.84819 -1.97684 0
M  V30 7666 C 695.413 2.84382 -3.21598 0
M  V30 7667 C 694.646 4.13397 -3.37548 0
M  V30 7668 O 694.869 5.08619 -2.58192 0
M  V30 7669 O 693.803 4.20325 -4.30826 0
M  V30 7670 H 697.629 1.2855 -2.75152 0
M  V30 7671 H 695.214 0.572229 -1.38007 0
M  V30 7672 H 697.096 3.65125 -2.10385 0
M  V30 7673 H 695.771 3.05627 -1.06647 0
M  V30 7674 H 694.678 2.0284 -3.14336 0
M  V30 7675 H 696.011 2.68526 -4.12498 0
M  V30 7676 N 697.663 1.43903 0.642637 0
M  V30 7677 C 698.596 1.44339 1.76753 0
M  V30 7678 C 699.574 0.303558 1.59741 0
M  V30 7679 O 700.758 0.498775 1.81781 0
M  V30 7680 C 697.885 1.26508 3.14187 0
M  V30 7681 C 696.931 2.43905 3.49875 0
M  V30 7682 S 697.764 4.0645 3.48653 0
M  V30 7683 C 698.92 3.91021 4.88726 0
M  V30 7684 H 699.153 2.39523 1.76113 0
M  V30 7685 H 696.686 1.31061 0.81623 0
M  V30 7686 H 698.644 1.16908 3.93501 0
M  V30 7687 H 697.305 0.328548 3.12377 0
M  V30 7688 H 696.498 2.27262 4.49853 0
M  V30 7689 H 696.1 2.50186 2.77998 0
M  V30 7690 H 698.392 3.54 5.77659 0
M  V30 7691 H 699.335 4.9079 5.10423 0
M  V30 7692 H 699.743 3.23287 4.62759 0
M  V30 7693 N 699.141 -0.881989 1.30609 0
M  V30 7694 C 700.104 -1.96957 1.1722 0
M  V30 7695 C 701.104 -1.60472 0.102598 0
M  V30 7696 O 702.294 -1.70628 0.350943 0
M  V30 7697 C 699.426 -3.31463 0.796572 0
M  V30 7698 H 700.619 -2.10262 2.13846 0
M  V30 7699 H 698.172 -1.06877 1.14048 0
M  V30 7700 H 698.907 -3.23859 -0.169053 0
M  V30 7701 H 698.692 -3.59314 1.56959 0
M  V30 7702 H 700.182 -4.11233 0.72645 0
M  V30 7703 N 700.619 -1.13374 -1.09472 0
M  V30 7704 C 701.582 -0.813639 -2.14272 0
M  V30 7705 C 702.582 0.176677 -1.59826 0
M  V30 7706 O 703.772 -0.0503441 -1.74127 0
M  V30 7707 C 700.904 -0.210897 -3.40247 0
M  V30 7708 H 702.097 -1.74229 -2.44099 0
M  V30 7709 H 699.65 -0.938304 -1.25002 0
M  V30 7710 H 700.385 0.726998 -3.16046 0
M  V30 7711 H 700.17 -0.924048 -3.81056 0
M  V30 7712 H 701.66 -0.00377603 -4.176 0
M  V30 7713 N 702.098 1.27442 -0.927168 0
M  V30 7714 C 703.346 1.94007 -0.566203 0
M  V30 7715 C 703.667 1.7323 0.895345 0
M  V30 7716 O 702.937 1.07973 1.63459 0
M  V30 7717 H 701.517 0.717917 -0.206409 0
M  V30 7718 H 704.179 1.55161 -1.17945 0
M  V30 7719 H 703.275 3.02401 -0.772028 0
M  V30 7720 N 703.576 0.692616 1.41565 0
M  V30 7721 C 704.506 0.0397325 2.33466 0
M  V30 7722 C 705.487 -0.770334 1.51657 0
M  V30 7723 O 706.672 -0.723903 1.80203 0
M  V30 7724 C 703.802 -0.899495 3.3545 0
M  V30 7725 C 702.756 -0.196738 4.27548 0
M  V30 7726 C 702.082 -1.25012 5.19881 0
M  V30 7727 C 703.382 0.935158 5.1386 0
M  V30 7728 H 705.076 0.807296 2.88311 0
M  V30 7729 H 702.622 0.389665 1.38628 0
M  V30 7730 H 704.575 -1.36545 3.98665 0
M  V30 7731 H 703.299 -1.69869 2.78948 0
M  V30 7732 H 701.958 0.249158 3.65752 0
M  V30 7733 H 701.606 -2.04177 4.59696 0
M  V30 7734 H 701.306 -0.784931 5.82334 0
M  V30 7735 H 702.83 -1.71665 5.85972 0
M  V30 7736 H 704.244 0.549619 5.70659 0
M  V30 7737 H 702.641 1.32726 5.85238 0
M  V30 7738 H 703.711 1.77613 4.512 0
M  V30 7739 N 705.054 -1.51416 0.437162 0
M  V30 7740 C 705.964 -2.31493 -0.380537 0
M  V30 7741 C 706.98 -1.40399 -1.02782 0
M  V30 7742 O 708.156 -1.73471 -1.02323 0
M  V30 7743 C 705.221 -3.1413 -1.46709 0
M  V30 7744 C 704.282 -4.21003 -0.839953 0
M  V30 7745 C 703.515 -4.9969 -1.87473 0
M  V30 7746 O 703.738 -4.79008 -3.09689 0
M  V30 7747 O 702.672 -5.8379 -1.46536 0
M  V30 7748 H 706.498 -3.02469 0.273183 0
M  V30 7749 H 704.083 -1.48059 0.199706 0
M  V30 7750 H 705.965 -3.65505 -2.09724 0
M  V30 7751 H 704.64 -2.45919 -2.10489 0
M  V30 7752 H 703.547 -3.73706 -0.171752 0
M  V30 7753 H 704.88 -4.91587 -0.245638 0
M  V30 7754 N 706.532 -0.168513 -1.56696 0
M  V30 7755 C 707.495 0.748928 -2.16619 0
M  V30 7756 C 708.495 1.16007 -1.11351 0
M  V30 7757 O 709.685 1.07748 -1.3688 0
M  V30 7758 C 706.817 2.01904 -2.74677 0
M  V30 7759 H 708.01 0.227317 -2.99037 0
M  V30 7760 H 705.563 0.0810372 -1.5609 0
M  V30 7761 H 706.298 2.58381 -1.95985 0
M  V30 7762 H 706.083 1.73323 -3.51712 0
M  V30 7763 H 707.573 2.67383 -3.20774 0
M  V30 7764 N 708.01 1.57248 0.105221 0
M  V30 7765 C 708.94 2.04374 1.12931 0
M  V30 7766 C 709.921 0.93074 1.42377 0
M  V30 7767 O 711.106 1.20136 1.52581 0
M  V30 7768 C 708.236 2.45967 2.45189 0
M  V30 7769 C 707.19 3.60838 2.30174 0
M  V30 7770 C 706.516 3.88374 3.67518 0
M  V30 7771 C 707.816 4.92084 1.75073 0
M  V30 7772 H 709.51 2.9018 0.737287 0
M  V30 7773 H 707.056 1.39601 0.353211 0
M  V30 7774 H 709.009 2.77542 3.17094 0
M  V30 7775 H 707.733 1.57148 2.86308 0
M  V30 7776 H 706.392 3.29493 1.60716 0
M  V30 7777 H 706.04 2.96739 4.06147 0
M  V30 7778 H 705.74 4.65703 3.58321 0
M  V30 7779 H 707.264 4.22415 4.40906 0
M  V30 7780 H 708.678 5.22106 2.36809 0
M  V30 7781 H 707.075 5.73507 1.76662 0
M  V30 7782 H 708.145 4.79684 0.709347 0
M  V30 7783 N 709.488 -0.375779 1.53054 0
M  V30 7784 C 710.718 -1.1387 1.72386 0
M  V30 7785 C 711.126 -1.8382 0.447966 0
M  V30 7786 O 710.469 -1.74027 -0.588244 0
M  V30 7787 C 710.531 -2.22047 2.82728 0
M  V30 7788 C 710.195 -1.71951 4.23417 0
M  V30 7789 C 711.192 -1.18909 5.06119 0
M  V30 7790 C 708.877 -1.77773 4.69789 0
M  V30 7791 C 710.871 -0.723529 6.3328 0
M  V30 7792 C 708.558 -1.30829 5.96931 0
M  V30 7793 C 709.556 -0.782077 6.78508 0
M  V30 7794 O 709.244 -0.319529 8.03265 0
M  V30 7795 H 708.976 -0.346835 0.580242 0
M  V30 7796 H 711.53 -0.443748 2.00549 0
M  V30 7797 H 709.76 -2.95006 2.50017 0
M  V30 7798 H 711.449 -2.83654 2.90336 0
M  V30 7799 H 712.215 -1.13758 4.7147 0
M  V30 7800 H 708.094 -2.17673 4.06373 0
M  V30 7801 H 711.638 -0.312126 6.96901 0
M  V30 7802 H 707.535 -1.3567 6.31081 0
M  V30 7803 H 708.303 -0.439796 8.17318 0
M  V30 7804 N 710.966 -1.44241 -0.634997 0
M  V30 7805 C 712.214 -1.46531 -1.39187 0
M  V30 7806 C 712.535 -0.0976441 -1.94755 0
M  V30 7807 O 711.805 0.869528 -1.75545 0
M  V30 7808 H 710.385 -0.539544 -0.516625 0
M  V30 7809 H 713.047 -1.79989 -0.747655 0
M  V30 7810 H 712.143 -2.18848 -2.22513 0
M  V30 7811 N 712.444 0.87505 -1.31075 0
M  V30 7812 C 713.721 1.60976 -1.11113 0
M  V30 7813 C 714.101 2.08409 0.336006 0
M  V30 7814 O 713.449 1.85858 1.32924 0
M  V30 7815 C 713.659 2.77166 -2.12085 0
M  V30 7816 C 715.007 3.47254 -2.44335 0
M  V30 7817 O 716.031 2.87367 -2.10472 0
M  V30 7818 O 714.89 4.55276 -3.02301 0
M  V30 7819 H 711.984 0.707982 -0.427424 0
M  V30 7820 H 714.53 0.920957 -1.42536 0
M  V30 7821 H 713.302 2.39494 -3.09449 0
M  V30 7822 H 712.925 3.53737 -1.81538 0
M  V30 7823 N 713.922 1.13953 1.08869 0
M  V30 7824 C 715.171 0.899431 1.80536 0
M  V30 7825 C 715.484 -0.575781 1.86933 0
M  V30 7826 O 716.69 -0.932988 2.54966 0
M  V30 7827 C 715.146 1.55963 3.24351 0
M  V30 7828 C 714.754 3.07077 3.26202 0
M  V30 7829 C 716.498 1.40046 4.00733 0
M  V30 7830 C 714.405 3.65955 4.64576 0
M  V30 7831 H 713.335 0.332849 0.676556 0
M  V30 7832 H 715.986 1.3679 1.22314 0
M  V30 7833 H 714.368 1.01883 3.82669 0
M  V30 7834 H 715.542 3.67785 2.77617 0
M  V30 7835 H 713.857 3.22576 2.63312 0
M  V30 7836 H 716.454 1.81441 5.02974 0
M  V30 7837 H 716.797 0.345993 4.1486 0
M  V30 7838 H 717.33 1.91137 3.48872 0
M  V30 7839 H 714.069 4.71234 4.55652 0
M  V30 7840 H 713.589 3.10027 5.13462 0
M  V30 7841 H 715.268 3.65968 5.33551 0
M  V30 7842 N 715.4 -1.26948 0.933913 0
M  V30 7843 C 716.677 -1.89212 0.495784 0
M  V30 7844 C 717.057 -1.84469 -1.02637 0
M  V30 7845 O 716.405 -1.29409 -1.88323 0
M  V30 7846 C 716.615 -3.32865 1.0489 0
M  V30 7847 C 717.963 -4.09749 1.11315 0
M  V30 7848 O 718.987 -3.41905 0.998966 0
M  V30 7849 O 717.846 -5.31061 1.28983 0
M  V30 7850 H 714.94 -0.811284 0.160459 0
M  V30 7851 H 717.486 -1.35171 1.02601 0
M  V30 7852 H 716.258 -3.30642 2.09265 0
M  V30 7853 H 715.881 -3.94435 0.500692 0
M  V30 7854 N 716.879 -0.700114 -1.41195 0
M  V30 7855 C 717.842 -0.0465706 -2.29153 0
M  V30 7856 C 718.842 0.703302 -1.44604 0
M  V30 7857 O 720.032 0.537513 -1.657 0
M  V30 7858 C 717.164 0.944324 -3.2756 0
M  V30 7859 H 718.357 -0.821064 -2.88442 0
M  V30 7860 H 715.91 -0.463869 -1.49258 0
M  V30 7861 H 716.645 1.74642 -2.73259 0
M  V30 7862 H 716.43 0.409701 -3.89954 0
M  V30 7863 H 717.92 1.39925 -3.9346 0
M  V30 7864 N 718.357 1.51182 -0.445186 0
M  V30 7865 C 719.29 2.24528 0.4077 0
M  V30 7866 C 720.268 1.26778 1.01814 0
M  V30 7867 O 721.452 1.55934 1.05909 0
M  V30 7868 C 718.579 3.00171 1.56892 0
M  V30 7869 C 717.625 4.12641 1.0784 0
M  V30 7870 S 718.458 5.35498 0.014049 0
M  V30 7871 C 719.614 6.14681 1.17975 0
M  V30 7872 H 719.847 2.96522 -0.214987 0
M  V30 7873 H 717.38 1.52681 -0.229781 0
M  V30 7874 H 719.338 3.44349 2.23459 0
M  V30 7875 H 717.999 2.27752 2.16304 0
M  V30 7876 H 717.192 4.64875 1.94698 0
M  V30 7877 H 716.794 3.70765 0.490852 0
M  V30 7878 H 719.086 6.44244 2.09658 0
M  V30 7879 H 720.029 7.04659 0.697222 0
M  V30 7880 H 720.437 5.46299 1.42187 0
M  V30 7881 N 719.835 0.176821 1.56605 0
M  V30 7882 C 720.745 -0.763682 2.21822 0
M  V30 7883 C 721.761 -1.24889 1.21156 0
M  V30 7884 O 722.937 -1.29987 1.53836 0
M  V30 7885 C 720.002 -1.97352 2.8505 0
M  V30 7886 C 719.063 -1.53466 4.00932 0
M  V30 7887 C 718.296 -2.68682 4.61135 0
M  V30 7888 O 718.519 -3.85694 4.20234 0
M  V30 7889 O 717.453 -2.42442 5.50913 0
M  V30 7890 H 721.279 -0.238363 3.02763 0
M  V30 7891 H 718.864 -0.0516331 1.49311 0
M  V30 7892 H 720.746 -2.68096 3.25119 0
M  V30 7893 H 719.421 -2.48779 2.07101 0
M  V30 7894 H 718.328 -0.796551 3.65521 0
M  V30 7895 H 719.661 -1.06724 4.8049 0
M  V30 7896 N 721.313 -1.57302 -0.09688 0
M  V30 7897 C 722.243 -2.0497 -1.11846 0
M  V30 7898 C 723.224 -0.938278 -1.41882 0
M  V30 7899 O 724.409 -1.20943 -1.51942 0
M  V30 7900 C 721.539 -2.47264 -2.43881 0
M  V30 7901 C 720.493 -3.62053 -2.28257 0
M  V30 7902 C 719.819 -3.90318 -3.65453 0
M  V30 7903 C 721.119 -4.93005 -1.72461 0
M  V30 7904 H 722.813 -2.90567 -0.721888 0
M  V30 7905 H 720.359 -1.39786 -0.345803 0
M  V30 7906 H 722.312 -2.7922 -3.15617 0
M  V30 7907 H 721.036 -1.58664 -2.8547 0
M  V30 7908 H 719.695 -3.30341 -1.58967 0
M  V30 7909 H 719.343 -2.98889 -4.04567 0
M  V30 7910 H 719.043 -4.67597 -3.55846 0
M  V30 7911 H 720.567 -4.24747 -4.3866 0
M  V30 7912 H 721.981 -5.23354 -2.34036 0
M  V30 7913 H 720.378 -5.74436 -1.73618 0
M  V30 7914 H 721.448 -4.80053 -0.683898 0
M  V30 7915 N 722.791 0.367657 -1.53252 0
M  V30 7916 C 724.021 1.12955 -1.72988 0
M  V30 7917 C 724.429 1.8358 -0.457708 0
M  V30 7918 O 723.772 1.74336 0.579006 0
M  V30 7919 C 723.834 2.20545 -2.83902 0
M  V30 7920 C 723.498 1.69704 -4.24323 0
M  V30 7921 C 724.495 1.16223 -5.06743 0
M  V30 7922 C 722.18 1.7528 -4.70725 0
M  V30 7923 C 724.174 0.689935 -6.33655 0
M  V30 7924 C 721.861 1.27662 -5.97617 0
M  V30 7925 C 722.859 0.746083 -6.78913 0
M  V30 7926 O 722.547 0.276925 -8.03423 0
M  V30 7927 H 722.279 0.343753 -0.582074 0
M  V30 7928 H 724.833 0.433106 -2.00782 0
M  V30 7929 H 723.063 2.93676 -2.51577 0
M  V30 7930 H 724.752 2.82111 -2.91836 0
M  V30 7931 H 725.518 1.11256 -4.72067 0
M  V30 7932 H 721.397 2.15515 -4.07522 0
M  V30 7933 H 724.941 0.275164 -6.97057 0
M  V30 7934 H 720.838 1.32322 -6.31792 0
M  V30 7935 H 721.606 0.396445 -8.17539 0
M  V30 7936 N 724.269 1.44576 0.627338 0
M  V30 7937 C 725.68 1.42266 1.20902 0
M  V30 7938 C 726.031 0.139964 1.957 0
M  V30 7939 O 725.156 -0.759489 2.02634 0
M  V30 7940 C 725.751 2.57727 2.19914 0
M  V30 7941 C 724.31 2.58599 2.73502 0
M  V30 7942 C 723.457 2.34145 1.48564 0
M  V30 7943 H 726.408 1.53102 0.417791 0
M  V30 7944 H 726.429 2.30697 3.02588 0
M  V30 7945 H 725.941 3.51068 1.65447 0
M  V30 7946 H 724.042 1.6921 3.31962 0
M  V30 7947 H 724.155 3.57205 3.19282 0
M  V30 7948 H 722.519 1.83313 1.76829 0
M  V30 7949 H 723.302 3.29606 0.959935 0
M  V30 7950 N 725.747 -0.868086 1.31537 0
M  V30 7951 C 726.71 -1.95703 1.19302 0
M  V30 7952 C 727.71 -1.60355 0.119612 0
M  V30 7953 O 728.9 -1.70247 0.36902 0
M  V30 7954 C 726.032 -3.30599 0.831684 0
M  V30 7955 H 727.225 -2.07982 2.16064 0
M  V30 7956 H 724.778 -1.05661 1.15176 0
M  V30 7957 H 725.513 -3.2402 -0.134694 0
M  V30 7958 H 725.298 -3.57629 1.60761 0
M  V30 7959 H 726.788 -4.10439 0.770026 0
M  V30 7960 N 727.225 -1.14528 -1.08264 0
M  V30 7961 C 728.155 -0.856356 -2.1723 0
M  V30 7962 C 729.136 0.189251 -1.69044 0
M  V30 7963 O 730.321 0.0456119 -1.94146 0
M  V30 7964 C 727.451 -0.334662 -3.45684 0
M  V30 7965 C 726.405 -1.31588 -4.0727 0
M  V30 7966 C 725.731 -0.653428 -5.30692 0
M  V30 7967 C 727.031 -2.67866 -4.48381 0
M  V30 7968 H 728.725 -1.76755 -2.41657 0
M  V30 7969 H 726.271 -0.851287 -1.16143 0
M  V30 7970 H 728.224 -0.120128 -4.21229 0
M  V30 7971 H 726.948 0.611967 -3.20815 0
M  V30 7972 H 725.607 -1.51661 -3.33758 0
M  V30 7973 H 725.255 0.299054 -5.0211 0
M  V30 7974 H 724.955 -1.30817 -5.72853 0
M  V30 7975 H 726.479 -0.448453 -6.08951 0
M  V30 7976 H 727.893 -2.51692 -5.15096 0
M  V30 7977 H 726.29 -3.29627 -5.01464 0
M  V30 7978 H 727.36 -3.24632 -3.60198 0
M  V30 7979 N 728.703 1.26451 -0.940633 0
M  V30 7980 C 729.633 2.28773 -0.467479 0
M  V30 7981 C 730.614 1.63218 0.478955 0
M  V30 7982 O 731.799 1.90427 0.380929 0
M  V30 7983 C 728.929 3.46259 0.268656 0
M  V30 7984 C 727.883 4.23898 -0.591171 0
M  V30 7985 C 727.209 5.33993 0.274891 0
M  V30 7986 C 728.509 4.87974 -1.86223 0
M  V30 7987 H 730.203 2.68601 -1.32265 0
M  V30 7988 H 727.749 1.29123 -0.637436 0
M  V30 7989 H 729.702 4.16951 0.610696 0
M  V30 7990 H 728.426 3.05383 1.15796 0
M  V30 7991 H 727.085 3.54969 -0.916098 0
M  V30 7992 H 726.733 4.89358 1.16353 0
M  V30 7993 H 726.433 5.86849 -0.297006 0
M  V30 7994 H 727.957 6.07523 0.612213 0
M  V30 7995 H 729.371 5.50883 -1.58747 0
M  V30 7996 H 727.768 5.50945 -2.37866 0
M  V30 7997 H 728.838 4.10945 -2.57394 0
M  V30 7998 N 730.181 0.707592 1.40822 0
M  V30 7999 C 731.427 0.244031 2.01326 0
M  V30 8000 C 731.76 -1.15722 1.55955 0
M  V30 8001 O 731.035 -1.78347 0.776044 0
M  V30 8002 C 731.318 0.315128 3.58718 0
M  V30 8003 C 731.171 1.75419 4.14184 0
M  V30 8004 C 732.49 -0.318251 4.38948 0
M  V30 8005 H 729.609 0.0901471 0.731466 0
M  V30 8006 H 732.251 0.898584 1.67408 0
M  V30 8007 H 730.401 -0.242176 3.87744 0
M  V30 8008 H 732.073 2.36626 3.95987 0
M  V30 8009 H 730.316 2.28449 3.68773 0
M  V30 8010 H 730.987 1.75538 5.23345 0
M  V30 8011 H 733.463 0.156514 4.15806 0
M  V30 8012 H 732.339 -0.238019 5.48384 0
M  V30 8013 H 732.6 -1.40067 4.19325 0
M  V30 8014 N 731.66 -1.50943 0.453197 0
M  V30 8015 C 732.57 -2.31884 -0.355963 0
M  V30 8016 C 733.586 -1.41481 -1.01287 0
M  V30 8017 O 734.762 -1.74546 -1.00477 0
M  V30 8018 C 731.827 -3.15668 -1.43369 0
M  V30 8019 C 730.888 -4.2187 -0.795253 0
M  V30 8020 C 730.121 -5.0165 -1.82162 0
M  V30 8021 O 730.344 -4.82266 -3.04592 0
M  V30 8022 O 729.278 -5.85311 -1.40336 0
M  V30 8023 H 733.104 -3.02162 0.305248 0
M  V30 8024 H 730.689 -1.47839 0.215398 0
M  V30 8025 H 732.571 -3.67709 -2.05836 0
M  V30 8026 H 731.246 -2.48137 -2.07869 0
M  V30 8027 H 730.153 -3.73867 -0.132106 0
M  V30 8028 H 731.486 -4.9182 -0.193484 0
M  V30 8029 N 733.138 -0.185124 -1.56509 0
M  V30 8030 C 734.085 0.739729 -2.18624 0
M  V30 8031 C 735.055 1.217 -1.13042 0
M  V30 8032 O 736.24 1.28268 -1.41251 0
M  V30 8033 C 733.38 1.95787 -2.84186 0
M  V30 8034 C 732.493 1.52289 -4.04267 0
M  V30 8035 C 731.628 2.69576 -4.57714 0
M  V30 8036 C 730.667 2.22636 -5.70175 0
M  V30 8037 N 729.804 3.33065 -6.18071 0
M  V30 8038 H 734.644 0.203269 -2.97306 0
M  V30 8039 H 732.181 0.0885946 -1.46833 0
M  V30 8040 H 734.139 2.67253 -3.20361 0
M  V30 8041 H 732.769 2.4678 -2.08085 0
M  V30 8042 H 731.821 0.704458 -3.7382 0
M  V30 8043 H 733.133 1.13843 -4.85635 0
M  V30 8044 H 732.287 3.4918 -4.96143 0
M  V30 8045 H 731.026 3.1129 -3.75433 0
M  V30 8046 H 730.031 1.41483 -5.31284 0
M  V30 8047 H 731.256 1.81964 -6.54267 0
M  V30 8048 H 729.202 3.74328 -5.38715 0
M  V30 8049 H 729.119 2.98756 -6.94464 0
M  V30 8050 H 730.387 4.12912 -6.61153 0
M  V30 8051 N 734.616 1.57351 0.0885366 0
M  V30 8052 C 736.027 1.75303 0.642308 0
M  V30 8053 C 736.378 0.808238 1.78779 0
M  V30 8054 O 735.503 -0.01171 2.16397 0
M  V30 8055 C 736.098 3.17885 1.17194 0
M  V30 8056 C 734.657 3.37239 1.67172 0
M  V30 8057 C 733.804 2.7108 0.584045 0
M  V30 8058 H 736.755 1.58103 -0.137567 0
M  V30 8059 H 736.776 3.2112 2.04114 0
M  V30 8060 H 736.288 3.86625 0.338024 0
M  V30 8061 H 734.389 2.73588 2.52943 0
M  V30 8062 H 734.502 4.45594 1.76019 0
M  V30 8063 H 732.866 2.33161 1.02508 0
M  V30 8064 H 733.649 3.42464 -0.239403 0
M  V30 8065 N 736.094 -0.359525 1.53444 0
M  V30 8066 C 737.51 -0.701599 1.43352 0
M  V30 8067 C 737.71 -1.93049 0.577439 0
M  V30 8068 O 736.766 -2.52423 0.0622224 0
M  V30 8069 C 738.079 -0.90915 2.86627 0
M  V30 8070 C 739.627 -1.00878 2.96298 0
M  V30 8071 C 740.102 -1.24876 4.40647 0
M  V30 8072 N 741.593 -1.31632 4.44103 0
M  V30 8073 C 742.328 -1.51922 5.52908 0
M  V30 8074 N 741.824 -1.69489 6.71748 0
M  V30 8075 N 743.617 -1.54341 5.40496 0
M  V30 8076 H 735.768 0.448685 2.07607 0
M  V30 8077 H 738.031 0.138713 0.937797 0
M  V30 8078 H 737.737 -0.0778997 3.51614 0
M  V30 8079 H 737.611 -1.81551 3.30634 0
M  V30 8080 H 739.998 -1.83057 2.31461 0
M  V30 8081 H 740.079 -0.0796721 2.55676 0
M  V30 8082 H 739.723 -0.431961 5.0606 0
M  V30 8083 H 739.653 -2.19118 4.78848 0
M  V30 8084 H 742.144 -1.19646 3.5846 0
M  V30 8085 H 742.457 -1.84561 7.50438 0
M  V30 8086 H 740.802 -1.66655 6.74723 0
M  V30 8087 H 743.993 -1.40188 4.46615 0
M  V30 8088 H 744.166 -1.69812 6.25354 0
M  V30 8089 N 737.572 -1.44907 -0.619662 0
M  V30 8090 C 738.983 -1.42905 -1.20146 0
M  V30 8091 C 739.334 -0.150341 -1.95623 0
M  V30 8092 O 738.459 0.748732 -2.03034 0
M  V30 8093 C 739.054 -2.58889 -2.18545 0
M  V30 8094 C 737.613 -2.60046 -2.72127 0
M  V30 8095 C 736.76 -2.3493 -1.4732 0
M  V30 8096 H 739.711 -1.53321 -0.409666 0
M  V30 8097 H 739.732 -2.32298 -3.0136 0
M  V30 8098 H 739.244 -3.51941 -1.63583 0
M  V30 8099 H 737.345 -1.70968 -3.3106 0
M  V30 8100 H 737.458 -3.58893 -3.17384 0
M  V30 8101 H 735.822 -1.84248 -1.75855 0
M  V30 8102 H 736.605 -3.3011 -0.942442 0
M  V30 8103 N 739.05 0.861098 -1.31996 0
M  V30 8104 C 740.327 1.59788 -1.12814 0
M  V30 8105 C 740.707 2.08753 0.313882 0
M  V30 8106 O 740.055 1.87258 1.30946 0
M  V30 8107 C 740.265 2.74901 -2.15012 0
M  V30 8108 C 741.613 3.44643 -2.48004 0
M  V30 8109 O 742.637 2.85119 -2.13508 0
M  V30 8110 O 741.496 4.52044 -3.07113 0
M  V30 8111 H 738.59 0.703408 -0.434909 0
M  V30 8112 H 741.136 0.905788 -1.43505 0
M  V30 8113 H 739.908 2.36198 -3.11971 0
M  V30 8114 H 739.531 3.51792 -1.85279 0
M  V30 8115 N 740.528 1.15101 1.07655 0
M  V30 8116 C 741.491 0.847625 2.12951 0
M  V30 8117 C 742.491 -0.151227 1.60087 0
M  V30 8118 O 743.681 0.0780399 1.74025 0
M  V30 8119 C 740.813 0.265 3.39868 0
M  V30 8120 H 742.006 1.7809 2.41296 0
M  V30 8121 H 739.559 0.958072 1.23494 0
M  V30 8122 H 740.294 -0.676625 3.17163 0
M  V30 8123 H 740.079 0.984554 3.79538 0
M  V30 8124 H 741.569 0.0702121 4.17541 0
M  V30 8125 N 742.006 -1.2595 0.947325 0
M  V30 8126 C 743.255 -1.92759 0.593887 0
M  V30 8127 C 743.568 -1.75083 -0.872093 0
M  V30 8128 O 744.774 -2.36401 -1.33518 0
M  V30 8129 C 743.23 -3.45395 1.01144 0
M  V30 8130 C 742.838 -3.71795 2.49946 0
M  V30 8131 C 744.582 -4.18173 0.730185 0
M  V30 8132 C 742.489 -5.17901 2.85539 0
M  V30 8133 H 741.419 -0.721676 0.218403 0
M  V30 8134 H 744.07 -1.4293 1.15079 0
M  V30 8135 H 742.452 -3.94143 0.383007 0
M  V30 8136 H 743.626 -3.33728 3.17746 0
M  V30 8137 H 741.941 -3.12263 2.75465 0
M  V30 8138 H 744.538 -5.25784 0.972367 0
M  V30 8139 H 744.881 -4.14964 -0.333223 0
M  V30 8140 H 745.414 -3.75309 1.31862 0
M  V30 8141 H 742.153 -5.26216 3.90867 0
M  V30 8142 H 741.673 -5.57042 2.22406 0
M  V30 8143 H 743.352 -5.8596 2.74336 0
M  V30 8144 N 743.484 -0.715051 -1.40445 0
M  V30 8145 C 744.731 -0.254328 -2.00897 0
M  V30 8146 C 745.059 1.15228 -1.56693 0
M  V30 8147 O 744.314 1.7958 -0.777786 0
M  V30 8148 C 744.613 -0.281791 -3.56287 0
M  V30 8149 C 744.279 -1.63862 -4.20071 0
M  V30 8150 C 742.941 -2.01003 -4.37208 0
M  V30 8151 C 745.293 -2.53039 -4.55654 0
M  V30 8152 C 742.621 -3.26869 -4.8721 0
M  V30 8153 C 744.973 -3.78256 -5.07055 0
M  V30 8154 C 743.637 -4.15515 -5.22401 0
M  V30 8155 H 742.907 -0.0930652 -0.735133 0
M  V30 8156 H 745.554 -0.917977 -1.68064 0
M  V30 8157 H 743.859 0.465428 -3.89026 0
M  V30 8158 H 745.556 0.0925158 -4.00893 0
M  V30 8159 H 742.146 -1.33979 -4.07121 0
M  V30 8160 H 746.33 -2.2562 -4.42051 0
M  V30 8161 H 741.586 -3.55706 -4.97276 0
M  V30 8162 H 745.76 -4.47528 -5.33565 0
M  V30 8163 H 743.387 -5.13114 -5.60909 0
M  V30 8164 N 744.962 1.50701 -0.461195 0
M  V30 8165 C 746.21 2.01867 0.0970051 0
M  V30 8166 C 746.531 1.34591 1.41104 0
M  V30 8167 O 745.801 0.488041 1.89723 0
M  V30 8168 H 744.381 0.74599 0.0388392 0
M  V30 8169 H 747.043 1.85129 -0.609357 0
M  V30 8170 H 746.139 3.11051 0.255688 0
M  V30 8171 N 746.441 0.193421 1.56409 0
M  V30 8172 C 747.351 -0.740112 2.2262 0
M  V30 8173 C 748.367 -1.23597 1.22474 0
M  V30 8174 O 749.543 -1.28348 1.55206 0
M  V30 8175 C 746.608 -1.94317 2.87127 0
M  V30 8176 C 745.669 -1.49205 4.02538 0
M  V30 8177 C 744.902 -2.63776 4.63959 0
M  V30 8178 O 745.125 -3.81215 4.24301 0
M  V30 8179 O 744.059 -2.36585 5.53454 0
M  V30 8180 H 747.885 -0.206238 3.02999 0
M  V30 8181 H 745.47 -0.0357938 1.49357 0
M  V30 8182 H 747.352 -2.64633 3.27944 0
M  V30 8183 H 746.027 -2.46568 2.09728 0
M  V30 8184 H 744.934 -0.757738 3.66346 0
M  V30 8185 H 746.267 -1.01622 4.81595 0
M  V30 8186 N 747.919 -1.57396 -0.0801906 0
M  V30 8187 C 749.147 -1.91055 -0.794075 0
M  V30 8188 C 749.562 -0.788583 -1.71542 0
M  V30 8189 O 748.919 0.238587 -1.80934 0
M  V30 8190 C 748.97 -3.24418 -1.59484 0
M  V30 8191 O 748.691 -4.323 -0.710532 0
M  V30 8192 C 750.192 -3.72037 -2.41046 0
M  V30 8193 H 747.412 -0.63171 -0.226238 0
M  V30 8194 H 749.956 -2.04431 -0.0529685 0
M  V30 8195 H 748.111 -3.12595 -2.2883 0
M  V30 8196 H 748.525 -5.08976 -1.26663 0
M  V30 8197 H 749.999 -4.68006 -2.92702 0
M  V30 8198 H 750.476 -3.00624 -3.2019 0
M  V30 8199 H 751.082 -3.86777 -1.76871 0
M  V30 8200 N 749.397 0.351382 -1.53633 0
M  V30 8201 C 750.33 1.45407 -1.75875 0
M  V30 8202 C 751.308 1.50822 -0.607566 0
M  V30 8203 O 752.492 1.68658 -0.841818 0
M  V30 8204 C 749.619 2.8369 -1.85034 0
M  V30 8205 C 748.665 2.95935 -3.07123 0
M  V30 8206 S 749.498 2.63215 -4.66345 0
M  V30 8207 C 750.654 4.03622 -4.78373 0
M  V30 8208 H 750.887 1.26322 -2.69128 0
M  V30 8209 H 748.42 0.546581 -1.44402 0
M  V30 8210 H 750.378 3.6336 -1.90996 0
M  V30 8211 H 749.039 3.00076 -0.928074 0
M  V30 8212 H 748.232 3.97243 -3.10183 0
M  V30 8213 H 747.834 2.24205 -2.99346 0
M  V30 8214 H 750.126 4.98046 -4.593 0
M  V30 8215 H 751.069 4.05559 -5.80454 0
M  V30 8216 H 751.477 3.91282 -4.06889 0
M  V30 8217 N 750.875 1.45233 0.611969 0
M  V30 8218 C 752.121 1.49242 1.37312 0
M  V30 8219 C 752.454 0.131963 1.93751 0
M  V30 8220 O 751.729 -0.852999 1.74798 0
M  V30 8221 C 752.012 2.56811 2.52428 0
M  V30 8222 C 751.865 4.02284 2.01215 0
M  V30 8223 C 753.184 2.60705 3.54572 0
M  V30 8224 H 750.303 0.54336 0.497925 0
M  V30 8225 H 752.945 1.77019 0.690242 0
M  V30 8226 H 751.095 2.33256 3.10683 0
M  V30 8227 H 752.767 4.37035 1.47643 0
M  V30 8228 H 751.01 4.1315 1.32248 0
M  V30 8229 H 751.681 4.7323 2.84178 0
M  V30 8230 H 754.157 2.81799 3.06151 0
M  V30 8231 H 753.033 3.37841 4.32614 0
M  V30 8232 H 753.294 1.65627 4.09903 0
M  V30 8233 N 752.353 -0.854086 1.3245 0
M  V30 8234 C 753.263 -1.99503 1.23434 0
M  V30 8235 C 754.279 -1.73371 0.147828 0
M  V30 8236 O 755.455 -1.97998 0.368609 0
M  V30 8237 C 752.52 -3.33192 0.958328 0
M  V30 8238 C 751.581 -3.72542 2.13333 0
M  V30 8239 C 750.814 -4.99852 1.8704 0
M  V30 8240 O 751.037 -5.64573 0.813239 0
M  V30 8241 O 749.971 -5.36345 2.73161 0
M  V30 8242 H 753.797 -2.10046 2.1935 0
M  V30 8243 H 751.382 -0.984823 1.12346 0
M  V30 8244 H 753.264 -4.13327 0.820918 0
M  V30 8245 H 751.939 -3.23687 0.0293299 0
M  V30 8246 H 750.846 -2.92981 2.32622 0
M  V30 8247 H 752.179 -3.86694 3.04514 0
M  V30 8248 N 753.831 -1.1567 -1.07043 0
M  V30 8249 C 754.764 -0.799867 -2.13723 0
M  V30 8250 C 755.742 0.225098 -1.61034 0
M  V30 8251 O 756.926 0.11093 -1.88173 0
M  V30 8252 C 754.053 -0.18997 -3.38167 0
M  V30 8253 C 753.099 -1.18733 -4.0964 0
M  V30 8254 S 753.932 -2.73074 -4.60642 0
M  V30 8255 C 755.088 -2.13512 -5.88356 0
M  V30 8256 H 755.321 -1.70342 -2.43661 0
M  V30 8257 H 752.854 -0.979377 -1.19363 0
M  V30 8258 H 754.812 0.155471 -4.10205 0
M  V30 8259 H 753.473 0.691229 -3.064 0
M  V30 8260 H 752.666 -0.708873 -4.9899 0
M  V30 8261 H 752.268 -1.47747 -3.43579 0
M  V30 8262 H 754.56 -1.49911 -6.60706 0
M  V30 8263 H 755.503 -3.01042 -6.40921 0
M  V30 8264 H 755.911 -1.57693 -5.42027 0
M  V30 8265 N 755.309 1.25446 -0.953992 0
M  V30 8266 C 756.557 1.92762 -0.607227 0
M  V30 8267 C 756.878 1.7509 0.858399 0
M  V30 8268 O 756.148 1.11416 1.61132 0
M  V30 8269 H 754.728 0.713377 -0.221591 0
M  V30 8270 H 757.39 1.52625 -1.21209 0
M  V30 8271 H 756.486 3.00695 -0.835998 0
M  V30 8272 N 756.787 0.722489 1.40064 0
M  V30 8273 C 757.75 0.0830209 2.2905 0
M  V30 8274 C 758.75 -0.680208 1.45705 0
M  V30 8275 O 759.94 -0.511084 1.66534 0
M  V30 8276 C 757.072 -0.892092 3.29021 0
M  V30 8277 H 758.265 0.866848 2.87099 0
M  V30 8278 H 755.818 0.487556 1.48501 0
M  V30 8279 H 756.553 -1.70273 2.76003 0
M  V30 8280 H 756.338 -0.34761 3.90556 0
M  V30 8281 H 757.828 -1.33648 3.95636 0
M  V30 8282 N 758.265 -1.50454 0.469181 0
M  V30 8283 C 759.676 -1.86695 0.0136034 0
M  V30 8284 C 760.027 -1.38413 -1.39055 0
M  V30 8285 O 759.152 -0.748294 -2.03051 0
M  V30 8286 C 759.747 -3.38795 0.0179098 0
M  V30 8287 C 758.306 -3.74455 -0.382191 0
M  V30 8288 C 757.453 -2.74338 0.404207 0
M  V30 8289 H 760.404 -1.43225 0.683547 0
M  V30 8290 H 760.425 -3.72321 -0.78468 0
M  V30 8291 H 759.937 -3.73906 1.04 0
M  V30 8292 H 758.038 -3.44944 -1.4087 0
M  V30 8293 H 758.151 -4.79025 -0.084862 0
M  V30 8294 H 756.515 -2.54305 -0.141829 0
M  V30 8295 H 757.298 -3.12293 1.42577 0
M  V30 8296 N 759.743 -0.201713 -1.56304 0
M  V30 8297 C 760.99 0.435307 -1.97766 0
M  V30 8298 C 761.318 1.61169 -1.0888 0
M  V30 8299 O 760.573 1.95272 -0.12934 0
M  V30 8300 C 760.872 0.931432 -3.45049 0
M  V30 8301 C 760.538 -0.132287 -4.50706 0
M  V30 8302 C 759.2 -0.424552 -4.79323 0
M  V30 8303 C 761.552 -0.852703 -5.14177 0
M  V30 8304 C 758.88 -1.4421 -5.68701 0
M  V30 8305 C 761.232 -1.85944 -6.04655 0
M  V30 8306 C 759.896 -2.15884 -6.31625 0
M  V30 8307 H 759.166 0.15929 -0.723676 0
M  V30 8308 H 761.813 -0.300069 -1.89134 0
M  V30 8309 H 760.118 1.7452 -3.50785 0
M  V30 8310 H 761.815 1.43383 -3.74489 0
M  V30 8311 H 758.405 0.105671 -4.2847 0
M  V30 8312 H 762.589 -0.640139 -4.92154 0
M  V30 8313 H 757.845 -1.6799 -5.87869 0
M  V30 8314 H 762.019 -2.42286 -6.52894 0
M  V30 8315 H 759.646 -2.94875 -7.0068 0
M  V30 8316 N 761.222 1.57436 0.0718424 0
M  V30 8317 C 762.447 1.91858 0.787745 0
M  V30 8318 C 762.872 0.798119 1.70328 0
M  V30 8319 O 762.23 -0.24905 1.79581 0
M  V30 8320 C 762.278 3.25232 1.55744 0
M  V30 8321 O 761.382 3.14462 2.6681 0
M  V30 8322 H 760.723 0.628258 0.214914 0
M  V30 8323 H 763.253 2.04561 0.0401012 0
M  V30 8324 H 763.263 3.59105 1.9367 0
M  V30 8325 H 761.938 4.0636 0.885691 0
M  V30 8326 H 760.515 2.92148 2.31741 0
M  V30 8327 N 762.7 -0.34323 1.53817 0
M  V30 8328 C 763.63 -1.42709 1.84814 0
M  V30 8329 C 764.611 -1.5488 0.703297 0
M  V30 8330 O 765.796 -1.69082 0.955237 0
M  V30 8331 C 762.926 -2.79756 2.05801 0
M  V30 8332 C 761.88 -2.82392 3.21619 0
M  V30 8333 C 761.206 -4.22326 3.2794 0
M  V30 8334 C 762.506 -2.479 4.59721 0
M  V30 8335 H 764.2 -1.17018 2.75585 0
M  V30 8336 H 761.746 -0.561485 1.32602 0
M  V30 8337 H 763.699 -3.55627 2.26069 0
M  V30 8338 H 762.423 -3.06883 1.11761 0
M  V30 8339 H 761.082 -2.08974 3.01207 0
M  V30 8340 H 760.73 -4.46564 2.31494 0
M  V30 8341 H 760.43 -4.25001 4.05768 0
M  V30 8342 H 761.954 -5.00039 3.50419 0
M  V30 8343 H 763.368 -3.13484 4.80001 0
M  V30 8344 H 761.765 -2.61857 5.39954 0
M  V30 8345 H 762.835 -1.43087 4.63308 0
M  V30 8346 N 764.178 -1.45556 -0.604258 0
M  V30 8347 C 765.125 -1.54482 -1.71476 0
M  V30 8348 C 766.095 -0.390479 -1.61445 0
M  V30 8349 O 767.28 -0.604371 -1.80975 0
M  V30 8350 C 764.42 -1.52064 -3.09791 0
M  V30 8351 C 763.533 -2.78073 -3.30604 0
M  V30 8352 C 762.668 -2.67304 -4.59044 0
M  V30 8353 C 761.707 -3.88352 -4.73127 0
M  V30 8354 N 760.844 -3.76098 -5.9287 0
M  V30 8355 H 765.684 -2.49349 -1.63184 0
M  V30 8356 H 763.221 -1.23725 -0.795641 0
M  V30 8357 H 765.179 -1.48649 -3.89819 0
M  V30 8358 H 763.809 -0.607442 -3.17033 0
M  V30 8359 H 762.861 -2.91561 -2.44329 0
M  V30 8360 H 764.173 -3.67847 -3.36883 0
M  V30 8361 H 763.327 -2.61875 -5.47272 0
M  V30 8362 H 762.066 -1.75135 -4.55169 0
M  V30 8363 H 761.071 -3.94137 -3.83322 0
M  V30 8364 H 762.296 -4.81591 -4.78797 0
M  V30 8365 H 760.242 -2.867 -5.90033 0
M  V30 8366 H 760.159 -4.59509 -6.00323 0
M  V30 8367 H 761.427 -3.74607 -6.83586 0
M  V30 8368 N 765.656 0.84705 -1.32902 0
M  V30 8369 C 766.904 1.5986 -1.2365 0
M  V30 8370 C 767.225 1.93974 0.199789 0
M  V30 8371 O 766.495 1.60273 1.12648 0
M  V30 8372 H 765.075 0.592696 -0.454665 0
M  V30 8373 H 767.737 1.01278 -1.66519 0
M  V30 8374 H 766.833 2.53218 -1.82448 0
M  V30 8375 N 767.134 1.16236 1.06428 0
M  V30 8376 C 768.064 0.890807 2.1584 0
M  V30 8377 C 769.045 -0.162333 1.69324 0
M  V30 8378 O 770.23 -0.0147191 1.94194 0
M  V30 8379 C 767.36 0.389615 3.45108 0
M  V30 8380 C 766.314 1.38051 4.05125 0
M  V30 8381 C 765.64 0.737773 5.29586 0
M  V30 8382 C 766.94 2.74965 4.44062 0
M  V30 8383 H 768.634 1.80577 2.38814 0
M  V30 8384 H 766.18 0.869657 1.14774 0
M  V30 8385 H 768.133 0.187127 4.20984 0
M  V30 8386 H 766.857 -0.560851 3.21748 0
M  V30 8387 H 765.516 1.56952 3.31303 0
M  V30 8388 H 765.164 -0.219135 5.02522 0
M  V30 8389 H 764.864 1.39914 5.70699 0
M  V30 8390 H 766.388 0.545275 6.0816 0
M  V30 8391 H 767.802 2.59855 5.11027 0
M  V30 8392 H 766.199 3.37563 4.96156 0
M  V30 8393 H 767.269 3.30321 3.54987 0
M  V30 8394 N 768.612 -1.24939 0.960631 0
M  V30 8395 C 769.545 -2.24116 0.429804 0
M  V30 8396 C 770.523 -1.54972 -0.492188 0
M  V30 8397 O 771.707 -1.83642 -0.42519 0
M  V30 8398 C 768.834 -3.36558 -0.380312 0
M  V30 8399 C 767.88 -4.23757 0.482941 0
M  V30 8400 S 768.713 -4.9994 1.91885 0
M  V30 8401 C 769.869 -6.15846 1.11732 0
M  V30 8402 H 770.102 -2.68795 1.27029 0
M  V30 8403 H 767.635 -1.34108 0.765141 0
M  V30 8404 H 769.593 -4.01777 -0.841764 0
M  V30 8405 H 768.254 -2.90451 -1.19569 0
M  V30 8406 H 767.447 -5.03809 -0.138699 0
M  V30 8407 H 767.049 -3.63504 0.879839 0
M  V30 8408 H 769.341 -6.76495 0.368898 0
M  V30 8409 H 770.284 -6.82356 1.89198 0
M  V30 8410 H 770.692 -5.60805 0.644812 0
M  V30 8411 N 770.09 -0.729906 -1.39679 0
M  V30 8412 C 771.338 -0.275077 -2.00219 0
M  V30 8413 C 771.659 1.1401 -1.58199 0
M  V30 8414 O 770.929 1.77546 -0.827904 0
M  V30 8415 H 769.509 -0.0987127 -0.740449 0
M  V30 8416 H 772.171 -0.93873 -1.70804 0
M  V30 8417 H 771.267 -0.319446 -3.10461 0
M  V30 8418 N 771.568 1.50203 -0.477153 0
M  V30 8419 C 772.516 2.30278 0.327826 0
M  V30 8420 C 773.51 1.37831 0.984839 0
M  V30 8421 O 774.716 1.54994 0.915251 0
M  V30 8422 H 771.091 0.741612 0.124564 0
M  V30 8423 H 773.062 2.96124 -0.367853 0
M  V30 8424 C 771.811 3.18548 1.39365 0
M  V30 8425 H 771.134 3.89596 0.897475 0
M  V30 8426 H 772.574 3.77561 1.92934 0
M  V30 8427 C 771.033 2.36548 2.39889 0
M  V30 8428 O 771.563 2.05282 3.45286 0
M  V30 8429 N 769.769 1.99015 2.11758 0
M  V30 8430 H 769.316 2.24641 1.26071 0
M  V30 8431 H 769.274 1.44454 2.7925 0
M  V30 8432 N 773.046 0.209999 1.56195 0
M  V30 8433 C 774.457 -0.299943 1.84275 0
M  V30 8434 C 774.808 -1.60314 1.1311 0
M  V30 8435 O 773.933 -2.1273 0.396874 0
M  V30 8436 C 774.528 -0.550986 3.3429 0
M  V30 8437 C 773.087 -1.00526 3.62728 0
M  V30 8438 C 772.234 -0.0619828 2.77231 0
M  V30 8439 H 775.185 0.433458 1.52666 0
M  V30 8440 H 775.206 -1.39846 3.53869 0
M  V30 8441 H 774.718 0.397669 3.86057 0
M  V30 8442 H 772.819 -1.96768 3.16407 0
M  V30 8443 H 772.932 -0.887664 4.70805 0
M  V30 8444 H 771.296 -0.566648 2.48317 0
M  V30 8445 H 772.079 0.881383 3.31793 0
M  V30 8446 N 774.524 -1.57472 -0.0634922 0
M  V30 8447 C 775.773 -1.86837 -0.759928 0
M  V30 8448 C 776.086 -0.803823 -1.7832 0
M  V30 8449 O 777.292 -0.985578 -2.52979 0
M  V30 8450 C 775.748 -3.31448 -1.4025 0
M  V30 8451 C 775.356 -4.46052 -0.417368 0
M  V30 8452 C 777.1 -3.70003 -2.08082 0
M  V30 8453 C 775.007 -5.81707 -1.06633 0
M  V30 8454 H 773.937 -0.697009 -0.287567 0
M  V30 8455 H 776.588 -1.83495 -0.0133914 0
M  V30 8456 H 774.97 -3.29427 -2.19759 0
M  V30 8457 H 776.144 -4.5948 0.348503 0
M  V30 8458 H 774.459 -4.16104 0.156955 0
M  V30 8459 H 777.056 -4.68653 -2.57426 0
M  V30 8460 H 777.399 -3.00226 -2.88393 0
M  V30 8461 H 777.932 -3.7405 -1.35394 0
M  V30 8462 H 774.671 -6.54798 -0.303374 0
M  V30 8463 H 774.191 -5.72064 -1.80286 0
M  V30 8464 H 775.87 -6.27317 -1.58376 0
M  V30 8465 N 776.003 0.335068 -1.53997 0
M  V30 8466 C 777.243 1.0827 -1.7337 0
M  V30 8467 C 777.607 1.85618 -0.490913 0
M  V30 8468 O 778.808 2.62864 -0.561799 0
M  V30 8469 C 777.079 1.99212 -2.96731 0
M  V30 8470 S 778.638 2.81083 -3.36954 0
M  V30 8471 H 775.456 0.365698 -0.609743 0
M  V30 8472 H 778.058 0.360079 -1.92155 0
M  V30 8473 H 776.762 1.41204 -3.85344 0
M  V30 8474 H 776.293 2.75898 -2.80436 0
M  V30 8475 H 778.308 4.01657 -2.91352 0
M  V30 8476 N 777.481 1.45874 0.596531 0
M  V30 8477 C 778.706 1.54247 1.38646 0
M  V30 8478 C 779.131 0.179571 1.87241 0
M  V30 8479 O 778.489 -0.837831 1.6078 0
M  V30 8480 C 778.537 2.54015 2.55946 0
M  V30 8481 O 777.641 2.06561 3.5694 0
M  V30 8482 H 776.982 0.519555 0.413471 0
M  V30 8483 H 779.512 1.91327 0.724936 0
M  V30 8484 H 779.522 2.73179 3.03047 0
M  V30 8485 H 778.197 3.52994 2.19928 0
M  V30 8486 H 776.774 1.97324 3.16414 0
M  V30 8487 N 778.959 -0.83999 1.33349 0
M  V30 8488 C 780.37 -1.41139 1.22216 0
M  V30 8489 C 780.721 -1.95551 -0.159398 0
M  V30 8490 O 779.846 -1.88721 -1.05893 0
M  V30 8491 C 780.441 -2.56564 2.21269 0
M  V30 8492 C 779 -3.09661 2.13979 0
M  V30 8493 C 778.147 -1.82457 2.08818 0
M  V30 8494 H 781.098 -0.645853 1.44964 0
M  V30 8495 H 781.119 -3.34163 1.81976 0
M  V30 8496 H 780.631 -2.16932 3.21811 0
M  V30 8497 H 778.732 -3.53841 1.16736 0
M  V30 8498 H 778.845 -3.6991 3.04472 0
M  V30 8499 H 777.209 -2.0266 1.54276 0
M  V30 8500 H 777.992 -1.45022 3.11165 0
M  V30 8501 N 780.437 -1.16799 -1.0581 0
M  V30 8502 C 781.714 -0.862616 -1.75551 0
M  V30 8503 C 782.094 0.6385 -2.01212 0
M  V30 8504 O 781.442 1.58784 -1.64317 0
M  V30 8505 C 781.652 -1.6907 -3.05314 0
M  V30 8506 C 783 -1.90675 -3.79379 0
M  V30 8507 O 784.024 -1.65976 -3.15167 0
M  V30 8508 O 782.883 -2.32145 -4.94743 0
M  V30 8509 H 779.977 -0.318789 -0.763088 0
M  V30 8510 H 782.523 -1.27461 -1.12034 0
M  V30 8511 H 781.295 -2.70912 -2.82352 0
M  V30 8512 H 780.918 -1.27606 -3.76567 0
M  V30 8513 N 781.915 1.24427 -0.967243 0
M  V30 8514 C 783.145 1.96256 -0.64554 0
M  V30 8515 C 783.553 1.71959 0.789098 0
M  V30 8516 O 782.896 0.999913 1.54102 0
M  V30 8517 C 782.958 3.49553 -0.839798 0
M  V30 8518 C 782.622 3.97548 -2.25399 0
M  V30 8519 C 783.619 4.07257 -3.23168 0
M  V30 8520 C 781.304 4.30884 -2.58156 0
M  V30 8521 C 783.298 4.49635 -4.51782 0
M  V30 8522 C 780.985 4.72946 -3.86996 0
M  V30 8523 C 781.983 4.82286 -4.83621 0
M  V30 8524 O 781.671 5.23409 -6.10162 0
M  V30 8525 H 781.403 0.632002 -0.239895 0
M  V30 8526 H 783.957 1.59224 -1.29757 0
M  V30 8527 H 782.187 3.86479 -0.130603 0
M  V30 8528 H 783.876 4.02591 -0.517249 0
M  V30 8529 H 784.642 3.8172 -2.9919 0
M  V30 8530 H 780.521 4.22833 -1.83666 0
M  V30 8531 H 784.065 4.5684 -5.27203 0
M  V30 8532 H 779.962 4.9793 -4.10775 0
M  V30 8533 H 780.73 5.4156 -6.13722 0
M  V30 8534 N 783.393 0.737304 1.3929 0
M  V30 8535 C 784.639 0.295581 2.01241 0
M  V30 8536 C 784.994 -1.10561 1.57461 0
M  V30 8537 O 784.287 -1.74346 0.7946 0
M  V30 8538 C 784.481 0.338438 3.55794 0
M  V30 8539 C 784.31 1.74225 4.14579 0
M  V30 8540 C 783.08 2.35502 4.47065 0
M  V30 8541 C 785.278 2.69623 4.37959 0
M  V30 8542 N 783.26 3.68014 4.91365 0
M  V30 8543 C 784.631 3.86873 4.84489 0
M  V30 8544 C 786.686 2.67355 4.2003 0
M  V30 8545 C 785.389 5.02193 5.14971 0
M  V30 8546 C 787.415 3.8182 4.51627 0
M  V30 8547 C 786.777 4.97806 4.98366 0
M  V30 8548 H 782.876 0.154468 0.766592 0
M  V30 8549 H 785.46 0.963768 1.69173 0
M  V30 8550 H 783.631 -0.299406 3.87244 0
M  V30 8551 H 785.363 -0.122053 4.04516 0
M  V30 8552 H 782.118 1.87406 4.34943 0
M  V30 8553 H 782.542 4.36051 5.17869 0
M  V30 8554 H 787.184 1.78876 3.83097 0
M  V30 8555 H 784.902 5.913 5.50809 0
M  V30 8556 H 788.488 3.81366 4.39376 0
M  V30 8557 H 787.368 5.84909 5.22351 0
M  V30 8558 N 784.871 -1.49948 0.485112 0
M  V30 8559 C 785.818 -2.28819 -0.301729 0
M  V30 8560 C 786.788 -1.34496 -0.974683 0
M  V30 8561 O 787.973 -1.63444 -0.984418 0
M  V30 8562 C 785.113 -3.16758 -1.36961 0
M  V30 8563 C 784.226 -4.26125 -0.710027 0
M  V30 8564 C 783.361 -5.01302 -1.75699 0
M  V30 8565 C 782.4 -6.02525 -1.07841 0
M  V30 8566 N 781.537 -6.70927 -2.06886 0
M  V30 8567 H 786.377 -2.95604 0.377127 0
M  V30 8568 H 783.914 -1.45764 0.197826 0
M  V30 8569 H 785.872 -3.66106 -2.00056 0
M  V30 8570 H 784.502 -2.51991 -2.01744 0
M  V30 8571 H 783.554 -3.80385 0.0338278 0
M  V30 8572 H 784.866 -4.98493 -0.175079 0
M  V30 8573 H 784.02 -5.54438 -2.46339 0
M  V30 8574 H 782.759 -4.28672 -2.32577 0
M  V30 8575 H 781.764 -5.48635 -0.357706 0
M  V30 8576 H 782.989 -6.77134 -0.516345 0
M  V30 8577 H 780.935 -6.01079 -2.62755 0
M  V30 8578 H 780.852 -7.39216 -1.58414 0
M  V30 8579 H 782.12 -7.28675 -2.76863 0
M  V30 8580 N 786.349 -0.21828 -1.56081 0
M  V30 8581 C 787.76 0.290166 -1.84431 0
M  V30 8582 C 788.111 1.59712 -1.13958 0
M  V30 8583 O 787.236 2.12516 -0.40815 0
M  V30 8584 C 787.831 0.53325 -3.34577 0
M  V30 8585 C 786.39 0.986011 -3.63256 0
M  V30 8586 C 785.537 0.0472798 -2.7726 0
M  V30 8587 H 788.488 -0.441548 -1.52434 0
M  V30 8588 H 788.509 1.37967 -3.54606 0
M  V30 8589 H 788.021 -0.418137 -3.85841 0
M  V30 8590 H 786.122 1.95087 -3.17446 0
M  V30 8591 H 786.235 0.862684 -4.71269 0
M  V30 8592 H 784.599 0.553471 -2.48614 0
M  V30 8593 H 785.382 -0.898966 -3.31321 0
M  V30 8594 N 787.827 1.57504 0.0551401 0
M  V30 8595 C 789.052 1.92682 0.767352 0
M  V30 8596 C 789.477 0.81614 1.69472 0
M  V30 8597 O 788.835 -0.229989 1.79835 0
M  V30 8598 C 788.883 3.26866 1.52286 0
M  V30 8599 O 787.987 3.17274 2.63459 0
M  V30 8600 H 787.328 0.630502 0.208238 0
M  V30 8601 H 789.858 2.04592 0.0184026 0
M  V30 8602 H 789.868 3.61138 1.8985 0
M  V30 8603 H 788.543 4.07276 0.842541 0
M  V30 8604 H 787.12 2.94589 2.2863 0
M  V30 8605 N 789.305 -0.326896 1.54172 0
M  V30 8606 C 790.533 -1.08486 1.76177 0
M  V30 8607 C 790.948 -1.81815 0.508788 0
M  V30 8608 O 790.305 -1.74924 -0.520362 0
M  V30 8609 C 790.356 -2.08552 2.95276 0
M  V30 8610 O 790.077 -1.38202 4.15731 0
M  V30 8611 C 791.578 -2.96593 3.29466 0
M  V30 8612 H 788.798 -0.322835 0.588233 0
M  V30 8613 H 791.342 -0.374036 2.0105 0
M  V30 8614 H 789.497 -2.75174 2.72687 0
M  V30 8615 H 789.911 -2.05186 4.827 0
M  V30 8616 H 791.385 -3.62708 4.16109 0
M  V30 8617 H 791.862 -3.63511 2.46487 0
M  V30 8618 H 792.468 -2.35537 3.54122 0
M  V30 8619 N 790.784 -1.46188 -0.588786 0
M  V30 8620 C 792.031 -1.51184 -1.34721 0
M  V30 8621 C 792.359 -0.161084 -1.93832 0
M  V30 8622 O 791.614 0.842557 -1.76634 0
M  V30 8623 C 791.913 -2.55364 -2.50048 0
M  V30 8624 C 791.579 -3.99553 -2.08969 0
M  V30 8625 C 790.241 -4.38811 -1.9748 0
M  V30 8626 C 792.593 -4.90156 -1.77191 0
M  V30 8627 C 789.921 -5.66544 -1.52463 0
M  V30 8628 C 792.273 -6.1832 -1.33654 0
M  V30 8629 C 790.937 -6.5649 -1.20738 0
M  V30 8630 H 790.207 -0.55322 -0.49298 0
M  V30 8631 H 792.854 -1.79634 -0.663627 0
M  V30 8632 H 791.159 -2.20552 -3.23827 0
M  V30 8633 H 792.856 -2.5646 -3.08268 0
M  V30 8634 H 789.446 -3.68518 -2.18843 0
M  V30 8635 H 793.63 -4.60549 -1.84955 0
M  V30 8636 H 788.886 -5.94895 -1.411 0
M  V30 8637 H 793.06 -6.87956 -1.08117 0
M  V30 8638 H 790.687 -7.55362 -0.856307 0
M  V30 8639 N 792.262 0.832906 -1.33792 0
M  V30 8640 C 793.51 1.58539 -1.25338 0
M  V30 8641 C 793.831 1.94175 0.179204 0
M  V30 8642 O 793.101 1.61458 1.10941 0
M  V30 8643 H 791.681 0.58784 -0.460926 0
M  V30 8644 H 794.343 0.995064 -1.67584 0
M  V30 8645 H 793.439 2.51268 -1.85123 0
M  V30 8646 N 793.74 1.17359 1.05189 0
M  V30 8647 C 794.988 0.960087 1.77839 0
M  V30 8648 C 795.309 -0.512554 1.88143 0
M  V30 8649 O 794.579 -1.3721 1.39822 0
M  V30 8650 H 793.159 0.352234 0.658741 0
M  V30 8651 H 795.821 1.47834 1.27008 0
M  V30 8652 H 794.917 1.38843 2.79516 0
M  V30 8653 N 795.218 -1.23913 0.973828 0
M  V30 8654 C 796.128 -2.28838 0.516735 0
M  V30 8655 C 797.144 -1.68723 -0.425282 0
M  V30 8656 O 798.32 -1.99201 -0.296819 0
M  V30 8657 C 795.385 -3.46233 -0.179914 0
M  V30 8658 C 794.446 -4.21729 0.80269 0
M  V30 8659 C 793.679 -5.33518 0.139191 0
M  V30 8660 O 793.902 -5.60252 -1.07118 0
M  V30 8661 O 792.836 -5.96088 0.834447 0
M  V30 8662 H 796.662 -2.70067 1.38916 0
M  V30 8663 H 794.247 -1.2972 0.74115 0
M  V30 8664 H 796.129 -4.17514 -0.570991 0
M  V30 8665 H 794.804 -3.06969 -1.02721 0
M  V30 8666 H 793.711 -3.52799 1.24434 0
M  V30 8667 H 795.044 -4.64825 1.61859 0
M  V30 8668 N 796.696 -0.74468 -1.38897 0
M  V30 8669 C 797.942 -0.297324 -2.00609 0
M  V30 8670 C 798.275 1.11547 -1.58968 0
M  V30 8671 O 797.55 1.76227 -0.823057 0
M  V30 8672 C 797.833 -0.410125 -3.57757 0
M  V30 8673 C 797.686 -1.86338 -4.09387 0
M  V30 8674 C 799.005 0.20176 -4.39637 0
M  V30 8675 H 796.124 -0.109509 -0.728819 0
M  V30 8676 H 798.766 -0.942653 -1.64967 0
M  V30 8677 H 796.916 0.139287 -3.8825 0
M  V30 8678 H 798.588 -2.47042 -3.89574 0
M  V30 8679 H 796.831 -2.38146 -3.62586 0
M  V30 8680 H 797.502 -1.89352 -5.18507 0
M  V30 8681 H 799.978 -0.266703 -4.15244 0
M  V30 8682 H 798.854 0.0925415 -5.48822 0
M  V30 8683 H 799.115 1.289 -4.22891 0
M  V30 8684 N 798.174 1.49689 -0.493057 0
M  V30 8685 C 799.422 2.02027 0.0541642 0
M  V30 8686 C 799.743 1.37554 1.38217 0
M  V30 8687 O 799.013 0.528174 1.88646 0
M  V30 8688 H 797.593 0.746646 0.0230069 0
M  V30 8689 H 800.255 1.83795 -0.648489 0
M  V30 8690 H 799.351 3.11523 0.189652 0
M  V30 8691 N 799.652 0.226554 1.55963 0
M  V30 8692 C 800.899 -0.403789 1.98433 0
M  V30 8693 C 801.227 -1.59416 1.1143 0
M  V30 8694 O 800.482 -1.95042 0.160389 0
M  V30 8695 C 800.781 -0.87642 3.46488 0
M  V30 8696 C 800.447 0.203973 4.50438 0
M  V30 8697 C 799.109 0.500754 4.78587 0
M  V30 8698 C 801.461 0.934396 5.12756 0
M  V30 8699 C 798.789 1.53239 5.66334 0
M  V30 8700 C 801.141 1.9554 6.0162 0
M  V30 8701 C 799.805 2.25905 6.28111 0
M  V30 8702 H 799.075 -0.147757 0.726119 0
M  V30 8703 H 801.722 0.330121 1.88633 0
M  V30 8704 H 800.027 -1.68918 3.53517 0
M  V30 8705 H 801.724 -1.37407 3.76723 0
M  V30 8706 H 798.314 -0.0374917 4.28584 0
M  V30 8707 H 802.498 0.718355 4.91074 0
M  V30 8708 H 797.754 1.77321 5.85122 0
M  V30 8709 H 801.928 2.52642 6.48957 0
M  V30 8710 H 799.555 3.05985 6.959 0
M  V30 8711 N 801.13 -1.57531 -0.0467866 0
M  V30 8712 C 802.077 -2.05387 -1.05285 0
M  V30 8713 C 803.047 -0.939385 -1.36985 0
M  V30 8714 O 804.232 -1.20877 -1.47626 0
M  V30 8715 C 801.372 -2.52343 -2.35408 0
M  V30 8716 C 800.485 -3.77512 -2.10022 0
M  V30 8717 C 799.62 -4.1315 -3.33887 0
M  V30 8718 C 798.659 -5.31286 -3.03976 0
M  V30 8719 N 797.796 -5.62441 -4.20243 0
M  V30 8720 H 802.636 -2.91095 -0.637788 0
M  V30 8721 H 800.173 -1.43939 -0.303322 0
M  V30 8722 H 802.131 -2.77628 -3.11413 0
M  V30 8723 H 800.761 -1.69577 -2.7467 0
M  V30 8724 H 799.813 -3.59417 -1.24594 0
M  V30 8725 H 801.125 -4.63644 -1.83945 0
M  V30 8726 H 800.279 -4.39469 -4.18273 0
M  V30 8727 H 799.018 -3.25634 -3.63062 0
M  V30 8728 H 798.023 -5.04738 -2.17991 0
M  V30 8729 H 799.248 -6.20441 -2.76098 0
M  V30 8730 H 797.194 -4.77885 -4.49402 0
M  V30 8731 H 797.111 -6.43046 -3.97528 0
M  V30 8732 H 798.379 -5.93327 -5.05553 0
M  V30 8733 N 802.608 0.318715 -1.54344 0
M  V30 8734 C 803.857 1.05363 -1.71993 0
M  V30 8735 C 804.17 1.89018 -0.503155 0
M  V30 8736 O 805.376 2.65639 -0.561085 0
M  V30 8737 C 803.832 1.92281 -3.0423 0
M  V30 8738 C 803.44 1.13715 -4.33328 0
M  V30 8739 C 805.184 2.65479 -3.31242 0
M  V30 8740 C 803.091 1.99806 -5.56625 0
M  V30 8741 H 802.021 0.397081 -0.64097 0
M  V30 8742 H 804.672 0.311598 -1.80835 0
M  V30 8743 H 803.054 2.70402 -2.89307 0
M  V30 8744 H 804.228 0.403305 -4.59032 0
M  V30 8745 H 802.543 0.521769 -4.13118 0
M  V30 8746 H 805.14 3.30209 -4.20555 0
M  V30 8747 H 805.483 3.33374 -2.49334 0
M  V30 8748 H 806.016 1.94417 -3.47054 0
M  V30 8749 H 802.755 1.36411 -6.41149 0
M  V30 8750 H 802.275 2.70911 -5.35133 0
M  V30 8751 H 803.954 2.58277 -5.93213 0
M  V30 8752 N 804.086 1.46499 0.581025 0
M  V30 8753 C 805.335 1.51162 1.3354 0
M  V30 8754 C 805.648 0.168433 1.94873 0
M  V30 8755 O 806.854 0.092883 2.71341 0
M  V30 8756 C 805.31 2.66362 2.42032 0
M  V30 8757 C 804.918 4.07109 1.86994 0
M  V30 8758 C 806.662 2.80297 3.188 0
M  V30 8759 C 804.569 5.13645 2.93125 0
M  V30 8760 H 803.499 0.562576 0.502021 0
M  V30 8761 H 806.15 1.72713 0.619863 0
M  V30 8762 H 804.532 2.38143 3.16392 0
M  V30 8763 H 805.706 4.45125 1.19166 0
M  V30 8764 H 804.021 3.97854 1.22887 0
M  V30 8765 H 806.618 3.5706 3.9801 0
M  V30 8766 H 806.961 1.87875 3.71495 0
M  V30 8767 H 807.494 3.0817 2.51547 0
M  V30 8768 H 804.233 6.07866 2.45315 0
M  V30 8769 H 803.753 4.80172 3.59437 0
M  V30 8770 H 805.432 5.39562 3.57046 0
M  V30 8771 N 805.565 -0.825799 1.34232 0
M  V30 8772 C 806.513 -1.95792 1.25572 0
M  V30 8773 C 807.507 -1.68695 0.154404 0
M  V30 8774 O 808.713 -1.77147 0.319196 0
M  V30 8775 H 805.088 -0.642949 0.390027 0
M  V30 8776 H 807.059 -2.00219 2.21258 0
M  V30 8777 C 805.808 -3.32245 1.02511 0
M  V30 8778 H 805.131 -3.53642 1.86487 0
M  V30 8779 H 806.571 -4.1192 1.00487 0
M  V30 8780 C 805.03 -3.35803 -0.27167 0
M  V30 8781 O 805.56 -3.80962 -1.274 0
M  V30 8782 N 803.766 -2.89008 -0.303778 0
M  V30 8783 H 803.313 -2.52451 0.512464 0
M  V30 8784 H 803.271 -2.9177 -1.17121 0
M  V30 8785 N 807.043 -1.17915 -1.04565 0
M  V30 8786 C 808.271 -0.99616 -1.8134 0
M  V30 8787 C 808.686 0.455509 -1.83223 0
M  V30 8788 O 808.043 1.31636 -1.26405 0
M  V30 8789 C 808.094 -1.53758 -3.27171 0
M  V30 8790 O 807.815 -2.93241 -3.25486 0
M  V30 8791 C 809.316 -1.40007 -4.2061 0
M  V30 8792 H 806.536 -0.352055 -0.571225 0
M  V30 8793 H 809.08 -1.56349 -1.31815 0
M  V30 8794 H 807.235 -1.01213 -3.73945 0
M  V30 8795 H 807.649 -3.18392 -4.16805 0
M  V30 8796 H 809.123 -1.82695 -5.2089 0
M  V30 8797 H 809.6 -0.348054 -4.37819 0
M  V30 8798 H 810.206 -1.916 -3.79697 0
M  V30 8799 N 808.521 1.23394 -0.980386 0
M  V30 8800 C 809.484 2.23092 -0.525619 0
M  V30 8801 C 810.484 1.56129 0.384745 0
M  V30 8802 O 811.674 1.73284 0.178439 0
M  V30 8803 C 808.806 3.40074 0.23712 0
M  V30 8804 H 809.999 2.64839 -1.40714 0
M  V30 8805 H 807.552 1.36227 -0.766275 0
M  V30 8806 H 808.287 3.03783 1.13518 0
M  V30 8807 H 808.072 3.89883 -0.416356 0
M  V30 8808 H 809.562 4.14043 0.543892 0
M  V30 8809 N 809.999 0.752036 1.385 0
M  V30 8810 C 811.224 0.316993 2.04963 0
M  V30 8811 C 811.649 -1.04582 1.56346 0
M  V30 8812 O 811.007 -1.66616 0.714755 0
M  V30 8813 C 811.055 0.347235 3.58924 0
M  V30 8814 O 810.159 -0.659296 4.07096 0
M  V30 8815 H 809.5 0.140652 0.648932 0
M  V30 8816 H 812.03 1.02272 1.77205 0
M  V30 8817 H 812.04 0.19757 4.07521 0
M  V30 8818 H 810.715 1.34157 3.93668 0
M  V30 8819 H 809.292 -0.474371 3.6987 0
M  V30 8820 N 811.477 -1.49425 0.500989 0
M  V30 8821 C 812.726 -2.01649 -0.04538 0
M  V30 8822 C 813.039 -1.38572 -1.38047 0
M  V30 8823 O 814.245 -1.82124 -2.01353 0
M  V30 8824 C 812.701 -3.5966 -0.131337 0
M  V30 8825 C 812.309 -4.3171 1.19711 0
M  V30 8826 C 814.053 -4.19828 -0.628071 0
M  V30 8827 C 811.96 -5.81579 1.07332 0
M  V30 8828 H 810.89 -0.753715 -0.0207329 0
M  V30 8829 H 813.541 -1.71962 0.640407 0
M  V30 8830 H 811.923 -3.86063 -0.881574 0
M  V30 8831 H 813.097 -4.17008 1.96064 0
M  V30 8832 H 811.412 -3.83286 1.62729 0
M  V30 8833 H 814.009 -5.2958 -0.738198 0
M  V30 8834 H 814.352 -3.83194 -1.6269 0
M  V30 8835 H 814.885 -3.97746 0.0656314 0
M  V30 8836 H 811.624 -6.22738 2.04642 0
M  V30 8837 H 811.144 -5.98774 0.350679 0
M  V30 8838 H 812.823 -6.42614 0.752047 0
M  V30 8839 N 812.955 -0.234822 -1.55841 0
M  V30 8840 C 813.887 0.702346 -2.18174 0
M  V30 8841 C 814.9 1.14776 -1.15457 0
M  V30 8842 O 816.089 1.07662 -1.42377 0
M  V30 8843 C 813.189 1.96483 -2.76129 0
M  V30 8844 C 812.362 1.67283 -4.04148 0
M  V30 8845 C 811.421 2.7837 -4.46539 0
M  V30 8846 O 810.447 2.46272 -5.13166 0
M  V30 8847 N 811.649 4.07611 -4.1332 0
M  V30 8848 H 814.414 0.169074 -2.99223 0
M  V30 8849 H 811.975 -0.0543164 -1.61809 0
M  V30 8850 H 813.967 2.70016 -3.01452 0
M  V30 8851 H 812.537 2.40822 -1.99307 0
M  V30 8852 H 811.757 0.773278 -3.86541 0
M  V30 8853 H 813.045 1.45222 -4.87635 0
M  V30 8854 H 812.443 4.36527 -3.59806 0
M  V30 8855 H 811 4.77646 -4.43506 0
M  V30 8856 N 814.433 1.57553 0.0384317 0
M  V30 8857 C 815.658 1.93485 0.746872 0
M  V30 8858 C 816.083 0.834069 1.68597 0
M  V30 8859 O 815.441 -0.210902 1.80069 0
M  V30 8860 C 815.489 3.28463 1.4881 0
M  V30 8861 O 814.593 3.20051 2.60079 0
M  V30 8862 H 813.934 0.632675 0.201539 0
M  V30 8863 H 816.464 2.046 -0.00329815 0
M  V30 8864 H 816.474 3.63132 1.86009 0
M  V30 8865 H 815.149 4.08147 0.799297 0
M  V30 8866 H 813.726 2.96998 2.25492 0
M  V30 8867 N 815.911 -0.310526 1.54511 0
M  V30 8868 C 816.841 -1.38757 1.878 0
M  V30 8869 C 817.822 -1.53353 0.735991 0
M  V30 8870 O 819.007 -1.67018 0.990887 0
M  V30 8871 C 816.137 -2.75327 2.11689 0
M  V30 8872 C 815.091 -2.75506 3.27537 0
M  V30 8873 C 814.417 -4.15275 3.36824 0
M  V30 8874 C 815.717 -2.38093 4.64875 0
M  V30 8875 H 817.411 -1.11146 2.78005 0
M  V30 8876 H 814.957 -0.533232 1.33763 0
M  V30 8877 H 816.91 -3.50752 2.33562 0
M  V30 8878 H 815.634 -3.04443 1.18245 0
M  V30 8879 H 814.293 -2.02538 3.05572 0
M  V30 8880 H 813.941 -4.41553 2.40915 0
M  V30 8881 H 813.641 -4.16299 4.14692 0
M  V30 8882 H 815.165 -4.92493 3.60947 0
M  V30 8883 H 816.579 -3.03232 4.86542 0
M  V30 8884 H 814.976 -2.50345 5.45387 0
M  V30 8885 H 816.046 -1.33227 4.66239 0
M  V30 8886 N 817.389 -1.46805 -0.573248 0
M  V30 8887 C 818.638 -1.51868 -1.32736 0
M  V30 8888 C 818.951 -0.178765 -1.94781 0
M  V30 8889 O 820.157 -0.107272 -2.71288 0
M  V30 8890 C 818.613 -2.67641 -2.40616 0
M  V30 8891 C 818.221 -4.08094 -1.84832 0
M  V30 8892 C 819.965 -2.81984 -3.17309 0
M  V30 8893 C 817.872 -5.15193 -2.90397 0
M  V30 8894 H 816.802 -0.56523 -0.49903 0
M  V30 8895 H 819.453 -1.7304 -0.610695 0
M  V30 8896 H 817.835 -2.39818 -3.15124 0
M  V30 8897 H 819.009 -4.45751 -1.16803 0
M  V30 8898 H 817.324 -3.985 -1.20775 0
M  V30 8899 H 819.921 -3.59166 -3.96111 0
M  V30 8900 H 820.264 -1.89842 -3.70494 0
M  V30 8901 H 820.797 -3.095 -2.4991 0
M  V30 8902 H 817.536 -6.09158 -2.42088 0
M  V30 8903 H 817.056 -4.82071 -3.56886 0
M  V30 8904 H 818.735 -5.41448 -3.54179 0
M  V30 8905 N 818.867 0.818669 -1.34668 0
M  V30 8906 C 820.107 1.58862 -1.28617 0
M  V30 8907 C 820.471 1.91483 0.140845 0
M  V30 8908 O 821.672 2.66821 0.325583 0
M  V30 8909 C 819.943 2.85044 -2.15604 0
M  V30 8910 S 821.502 3.75553 -2.26948 0
M  V30 8911 H 818.32 0.544454 -0.457265 0
M  V30 8912 H 820.922 0.966679 -1.69928 0
M  V30 8913 H 819.626 2.59083 -3.18284 0
M  V30 8914 H 819.157 3.52231 -1.75205 0
M  V30 8915 H 821.172 4.74682 -1.44539 0
M  V30 8916 N 820.346 1.18468 1.03938 0
M  V30 8917 C 821.294 0.909286 2.14091 0
M  V30 8918 C 822.288 -0.130928 1.68893 0
M  V30 8919 O 823.494 0.0173403 1.79992 0
M  V30 8920 H 819.869 0.27658 0.699291 0
M  V30 8921 H 821.84 1.84514 2.34515 0
M  V30 8922 C 820.589 0.452922 3.44737 0
M  V30 8923 H 819.912 1.24485 3.79926 0
M  V30 8924 H 821.352 0.299238 4.22943 0
M  V30 8925 C 819.811 -0.831435 3.26479 0
M  V30 8926 O 820.341 -1.89535 3.54174 0
M  V30 8927 N 818.547 -0.784545 2.79809 0
M  V30 8928 H 818.094 0.0814746 2.57471 0
M  V30 8929 H 818.052 -1.64431 2.67973 0
M  V30 8930 N 821.824 -1.22873 0.986916 0
M  V30 8931 C 822.772 -2.26597 0.525043 0
M  V30 8932 C 823.766 -1.64079 -0.421252 0
M  V30 8933 O 824.972 -1.77576 -0.294429 0
M  V30 8934 H 821.347 -0.736606 0.151381 0
M  V30 8935 H 823.318 -2.62909 1.41142 0
M  V30 8936 C 822.067 -3.47374 -0.150542 0
M  V30 8937 H 821.39 -3.95737 0.568541 0
M  V30 8938 H 822.83 -4.21739 -0.437256 0
M  V30 8939 C 821.289 -3.07163 -1.38392 0
M  V30 8940 O 821.819 -3.16028 -2.47971 0
M  V30 8941 N 820.025 -2.62009 -1.25697 0
M  V30 8942 H 819.572 -2.54996 -0.365355 0
M  V30 8943 H 819.53 -2.35472 -2.08327 0
M  V30 8944 N 823.302 -0.75937 -1.38099 0
M  V30 8945 C 824.548 -0.318584 -2.00282 0
M  V30 8946 C 824.881 1.09854 -1.60143 0
M  V30 8947 O 824.156 1.75344 -0.841702 0
M  V30 8948 C 824.439 -0.448047 -3.57302 0
M  V30 8949 C 824.292 -1.9067 -4.07388 0
M  V30 8950 C 825.611 0.155119 -4.39827 0
M  V30 8951 H 822.73 -0.117233 -0.727616 0
M  V30 8952 H 825.372 -0.960097 -1.63958 0
M  V30 8953 H 823.522 0.0981003 -3.88376 0
M  V30 8954 H 825.194 -2.5116 -3.86932 0
M  V30 8955 H 823.437 -2.41979 -3.6004 0
M  V30 8956 H 824.108 -1.94841 -5.1647 0
M  V30 8957 H 826.584 -0.31073 -4.14938 0
M  V30 8958 H 825.46 0.0343264 -5.48889 0
M  V30 8959 H 825.721 1.24407 -4.24235 0
M  V30 8960 N 824.78 1.49157 -0.508906 0
M  V30 8961 C 825.727 2.2927 0.265288 0
M  V30 8962 C 826.697 1.3603 0.953162 0
M  V30 8963 O 827.882 1.64989 0.958291 0
M  V30 8964 C 825.022 3.18897 1.31904 0
M  V30 8965 C 824.135 4.27201 0.642144 0
M  V30 8966 C 823.27 5.04033 1.67701 0
M  V30 8967 C 822.309 6.04165 0.982422 0
M  V30 8968 N 821.446 6.74133 1.96186 0
M  V30 8969 H 826.286 2.94967 -0.424107 0
M  V30 8970 H 823.823 1.45431 -0.220991 0
M  V30 8971 H 825.781 3.69242 1.94206 0
M  V30 8972 H 824.411 2.55168 1.97709 0
M  V30 8973 H 823.463 3.80283 -0.0943395 0
M  V30 8974 H 824.775 4.98708 0.0957507 0
M  V30 8975 H 823.929 5.58287 2.37487 0
M  V30 8976 H 822.668 4.32317 2.25728 0
M  V30 8977 H 821.673 5.49135 0.270378 0
M  V30 8978 H 822.898 6.7787 0.408554 0
M  V30 8979 H 820.844 6.05183 2.53159 0
M  V30 8980 H 820.761 7.41643 1.46634 0
M  V30 8981 H 822.029 7.32987 2.65236 0
M  V30 8982 N 826.258 0.243083 1.55714 0
M  V30 8983 C 827.506 -0.381964 1.98458 0
M  V30 8984 C 827.827 -1.58745 1.13247 0
M  V30 8985 O 827.097 -1.94723 0.214384 0
M  V30 8986 H 825.677 -0.144114 0.732967 0
M  V30 8987 H 828.339 0.340985 1.91894 0
M  V30 8988 H 827.435 -0.693702 3.04293 0
M  V30 8989 N 827.736 -1.57571 -0.0300757 0
M  V30 8990 C 828.976 -1.91074 -0.725946 0
M  V30 8991 C 829.34 -0.841545 -1.72575 0
M  V30 8992 O 830.541 -1.06088 -2.46979 0
M  V30 8993 C 828.812 -3.2973 -1.37888 0
M  V30 8994 S 830.371 -3.85065 -2.10405 0
M  V30 8995 H 827.189 -0.669084 -0.240515 0
M  V30 8996 H 829.791 -1.9549 0.019384 0
M  V30 8997 H 828.495 -4.05411 -0.637974 0
M  V30 8998 H 828.026 -3.28614 -2.16278 0
M  V30 8999 H 830.041 -3.63711 -3.37533 0
M  V30 9000 N 829.214 0.302327 -1.54673 0
M  V30 9001 C 830.625 0.875409 -1.64904 0
M  V30 9002 C 830.976 1.88132 -0.55684 0
M  V30 9003 O 830.101 2.14215 0.306754 0
M  V30 9004 C 830.696 1.59457 -2.9893 0
M  V30 9005 C 829.255 2.11607 -3.11287 0
M  V30 9006 C 828.402 0.948324 -2.6058 0
M  V30 9007 H 831.353 0.079362 -1.58501 0
M  V30 9008 H 831.374 2.46005 -2.90279 0
M  V30 9009 H 830.886 0.8622 -3.78402 0
M  V30 9010 H 828.987 2.87895 -2.36532 0
M  V30 9011 H 829.1 2.35151 -4.17422 0
M  V30 9012 H 827.464 1.33352 -2.17001 0
M  V30 9013 H 828.247 0.229936 -3.42529 0
M  V30 9014 N 830.692 1.47107 0.565454 0
M  V30 9015 C 831.939 1.53308 1.32299 0
M  V30 9016 C 832.267 0.1919 1.93551 0
M  V30 9017 O 831.522 -0.81435 1.77952 0
M  V30 9018 C 831.821 2.59309 2.45954 0
M  V30 9019 C 831.487 4.02827 2.02586 0
M  V30 9020 C 830.149 4.41897 1.90474 0
M  V30 9021 C 832.501 4.92913 1.6937 0
M  V30 9022 C 829.829 5.68898 1.4343 0
M  V30 9023 C 832.181 6.20368 1.238 0
M  V30 9024 C 830.845 6.58327 1.10278 0
M  V30 9025 H 830.115 0.560993 0.484116 0
M  V30 9026 H 832.762 1.80667 0.634965 0
M  V30 9027 H 831.067 2.25676 3.20277 0
M  V30 9028 H 832.764 2.61332 3.04149 0
M  V30 9029 H 829.354 3.71953 2.12952 0
M  V30 9030 H 833.538 4.63433 1.77605 0
M  V30 9031 H 828.794 5.97065 1.31618 0
M  V30 9032 H 832.968 6.89589 0.971586 0
M  V30 9033 H 830.595 7.56628 0.736027 0
M  V30 9034 N 832.17 -0.811516 1.35101 0
M  V30 9035 C 833.398 -1.59981 1.31201 0
M  V30 9036 C 833.813 -1.8847 -0.111552 0
M  V30 9037 O 833.17 -1.48414 -1.06205 0
M  V30 9038 C 833.221 -2.934 2.11184 0
M  V30 9039 O 832.942 -2.66148 3.4799 0
M  V30 9040 C 834.443 -3.87776 2.14813 0
M  V30 9041 H 831.663 -0.496921 0.450899 0
M  V30 9042 H 834.207 -1.00886 1.77883 0
M  V30 9043 H 832.362 -3.49022 1.68115 0
M  V30 9044 H 832.776 -3.51301 3.89471 0
M  V30 9045 H 834.25 -4.7852 2.75178 0
M  V30 9046 H 834.727 -4.23997 1.14556 0
M  V30 9047 H 835.333 -3.3809 2.58022 0
M  V30 9048 N 833.648 -1.19017 -1.03309 0
M  V30 9049 C 834.611 -0.926076 -2.09658 0
M  V30 9050 C 835.611 0.0917077 -1.60538 0
M  V30 9051 O 836.801 -0.142574 -1.73616 0
M  V30 9052 C 833.933 -0.390958 -3.38651 0
M  V30 9053 H 835.126 -1.86923 -2.3452 0
M  V30 9054 H 832.679 -1.00325 -1.19853 0
M  V30 9055 H 833.414 0.558446 -3.19456 0
M  V30 9056 H 833.199 -1.12474 -3.75622 0
M  V30 9057 H 834.689 -0.225131 -4.16993 0
M  V30 9058 N 835.127 1.22348 -0.993418 0
M  V30 9059 C 836.374 1.9111 -0.669568 0
M  V30 9060 C 836.702 1.77357 0.79843 0
M  V30 9061 O 835.957 1.13675 1.593 0
M  V30 9062 C 836.256 3.42477 -1.02197 0
M  V30 9063 C 835.922 3.7642 -2.48232 0
M  V30 9064 C 834.584 3.85395 -2.88139 0
M  V30 9065 C 836.936 3.9253 -3.42884 0
M  V30 9066 C 834.264 4.07918 -4.21687 0
M  V30 9067 C 836.616 4.16557 -4.76091 0
M  V30 9068 C 835.28 4.23757 -5.15739 0
M  V30 9069 H 834.55 0.699321 -0.245012 0
M  V30 9070 H 837.197 1.45102 -1.2497 0
M  V30 9071 H 835.502 3.90143 -0.359921 0
M  V30 9072 H 837.199 3.93935 -0.74942 0
M  V30 9073 H 833.789 3.70017 -2.16299 0
M  V30 9074 H 837.973 3.84974 -3.13224 0
M  V30 9075 H 833.229 4.11719 -4.51993 0
M  V30 9076 H 837.403 4.27966 -5.4938 0
M  V30 9077 H 835.03 4.40962 -6.19239 0
M  V30 9078 N 836.605 0.766683 1.37694 0
M  V30 9079 C 837.83 0.338715 2.04615 0
M  V30 9080 C 838.255 -1.02918 1.57447 0
M  V30 9081 O 837.613 -1.65849 0.732386 0
M  V30 9082 C 837.661 0.385284 3.58536 0
M  V30 9083 O 836.765 -0.616081 4.07772 0
M  V30 9084 H 836.106 0.147527 0.647404 0
M  V30 9085 H 838.636 1.04146 1.7611 0
M  V30 9086 H 838.646 0.240782 4.07289 0
M  V30 9087 H 837.321 1.38325 3.92223 0
M  V30 9088 H 835.898 -0.435115 3.70353 0
M  V30 9089 N 838.083 -1.48885 0.516809 0
M  V30 9090 C 839.329 -2.02788 -0.0220928 0
M  V30 9091 C 839.662 -1.39433 -1.35175 0
M  V30 9092 O 838.937 -0.535459 -1.86984 0
M  V30 9093 C 839.22 -3.59753 -0.158012 0
M  V30 9094 C 839.073 -4.33611 1.19588 0
M  V30 9095 C 840.392 -4.30984 -0.891133 0
M  V30 9096 H 837.511 -0.736971 -0.00655488 0
M  V30 9097 H 840.153 -1.77746 0.671287 0
M  V30 9098 H 838.303 -3.8122 -0.748568 0
M  V30 9099 H 839.975 -4.23598 1.82653 0
M  V30 9100 H 838.218 -3.95547 1.78116 0
M  V30 9101 H 838.889 -5.41846 1.05391 0
M  V30 9102 H 841.365 -4.14267 -0.39012 0
M  V30 9103 H 840.241 -5.40527 -0.955107 0
M  V30 9104 H 840.502 -3.97336 -1.93847 0
M  V30 9105 N 839.561 -0.251338 -1.55583 0
M  V30 9106 C 840.493 0.679167 -2.18906 0
M  V30 9107 C 841.506 1.13545 -1.16667 0
M  V30 9108 O 842.695 1.06146 -1.4351 0
M  V30 9109 C 839.795 1.93544 -2.78198 0
M  V30 9110 C 838.968 1.62987 -4.05899 0
M  V30 9111 C 838.027 2.73618 -4.49466 0
M  V30 9112 O 837.053 2.40815 -5.15749 0
M  V30 9113 N 838.255 4.03204 -4.1762 0
M  V30 9114 H 841.02 0.137328 -2.99385 0
M  V30 9115 H 838.581 -0.0714754 -1.61742 0
M  V30 9116 H 840.573 2.66804 -3.04299 0
M  V30 9117 H 839.143 2.38695 -2.0185 0
M  V30 9118 H 838.363 0.732237 -3.8734 0
M  V30 9119 H 839.651 1.40041 -4.89148 0
M  V30 9120 H 839.049 4.32686 -3.64416 0
M  V30 9121 H 837.606 4.72916 -4.48547 0
M  V30 9122 N 841.039 1.57585 0.0217189 0
M  V30 9123 C 842.316 1.80779 0.74687 0
M  V30 9124 C 842.696 0.851163 1.9318 0
M  V30 9125 O 842.044 -0.105039 2.28258 0
M  V30 9126 C 842.254 3.28696 1.17302 0
M  V30 9127 C 843.602 3.93871 1.58589 0
M  V30 9128 O 844.626 3.3289 1.2674 0
M  V30 9129 O 843.485 5.01254 2.1773 0
M  V30 9130 H 840.579 0.743666 0.361786 0
M  V30 9131 H 843.125 1.697 -0.00206785 0
M  V30 9132 H 841.897 3.89927 0.327453 0
M  V30 9133 H 841.52 3.44692 1.98174 0
M  V30 9134 N 842.517 -0.29412 1.54831 0
M  V30 9135 C 843.765 -1.02643 1.74094 0
M  V30 9136 C 844.086 -1.87563 0.533402 0
M  V30 9137 O 843.356 -1.9061 -0.452192 0
M  V30 9138 H 841.936 -0.381959 0.641963 0
M  V30 9139 H 844.598 -0.323444 1.92197 0
M  V30 9140 H 843.694 -1.67558 2.63307 0
M  V30 9141 N 843.995 -1.47404 -0.557645 0
M  V30 9142 C 844.927 -1.55917 -1.67995 0
M  V30 9143 C 845.94 -0.445411 -1.56588 0
M  V30 9144 O 847.129 -0.714999 -1.63554 0
M  V30 9145 C 844.229 -1.44697 -3.06457 0
M  V30 9146 C 843.402 -2.70633 -3.43622 0
M  V30 9147 C 842.461 -2.53256 -4.61246 0
M  V30 9148 O 841.487 -3.27068 -4.65849 0
M  V30 9149 N 842.689 -1.61053 -5.57711 0
M  V30 9150 H 845.454 -2.52694 -1.61139 0
M  V30 9151 H 843.015 -1.43778 -0.744271 0
M  V30 9152 H 845.007 -1.30806 -3.82978 0
M  V30 9153 H 843.577 -0.560039 -3.07542 0
M  V30 9154 H 842.797 -2.99288 -2.56555 0
M  V30 9155 H 844.085 -3.5424 -3.65228 0
M  V30 9156 H 843.483 -1.00235 -5.56749 0
M  V30 9157 H 842.04 -1.53115 -6.33561 0
M  V30 9158 N 845.473 0.80434 -1.35529 0
M  V30 9159 C 846.403 1.93086 -1.31301 0
M  V30 9160 C 847.384 1.69068 -0.187044 0
M  V30 9161 O 848.569 1.90399 -0.382359 0
M  V30 9162 C 845.699 3.29867 -1.0865 0
M  V30 9163 C 844.653 3.68373 -2.17911 0
M  V30 9164 C 843.979 5.0334 -1.80423 0
M  V30 9165 C 845.279 3.78516 -3.59893 0
M  V30 9166 H 846.973 1.96882 -2.25561 0
M  V30 9167 H 844.519 0.945841 -1.08581 0
M  V30 9168 H 846.472 4.08281 -1.04331 0
M  V30 9169 H 845.196 3.2642 -0.108359 0
M  V30 9170 H 843.855 2.92247 -2.21331 0
M  V30 9171 H 843.503 4.96399 -0.812213 0
M  V30 9172 H 843.203 5.30074 -2.53565 0
M  V30 9173 H 844.727 5.84191 -1.77633 0
M  V30 9174 H 846.141 4.47155 -3.58783 0
M  V30 9175 H 844.538 4.16721 -4.31814 0
M  V30 9176 H 845.608 2.8001 -3.95882 0
M  V30 9177 N 846.951 1.19563 1.02676 0
M  V30 9178 C 848.179 1.02488 1.79732 0
M  V30 9179 C 848.594 -0.426302 1.83924 0
M  V30 9180 O 847.951 -1.29609 1.28483 0
M  V30 9181 C 848.002 1.58944 3.24683 0
M  V30 9182 O 847.723 2.98382 3.2078 0
M  V30 9183 C 849.224 1.46681 4.1833 0
M  V30 9184 H 846.444 0.361098 0.565552 0
M  V30 9185 H 848.988 1.58426 1.29311 0
M  V30 9186 H 847.143 1.0715 3.72287 0
M  V30 9187 H 847.557 3.24983 4.11687 0
M  V30 9188 H 849.031 1.90959 5.17918 0
M  V30 9189 H 849.508 0.417663 4.3721 0
M  V30 9190 H 850.114 1.97616 3.76601 0
M  V30 9191 N 848.429 -1.21819 0.999893 0
M  V30 9192 C 849.376 -2.24003 0.556005 0
M  V30 9193 C 850.346 -1.60825 -0.415287 0
M  V30 9194 O 851.531 -1.88123 -0.318481 0
M  V30 9195 C 848.671 -3.44904 -0.116289 0
M  V30 9196 C 847.784 -4.22573 0.897574 0
M  V30 9197 C 846.919 -5.30831 0.198073 0
M  V30 9198 C 845.958 -6.00225 1.19983 0
M  V30 9199 N 845.095 -7.00111 0.528157 0
M  V30 9200 H 849.935 -2.61334 1.43208 0
M  V30 9201 H 847.472 -1.28431 0.717205 0
M  V30 9202 H 849.43 -4.13908 -0.523055 0
M  V30 9203 H 848.06 -3.08315 -0.956108 0
M  V30 9204 H 847.112 -3.52797 1.42262 0
M  V30 9205 H 848.424 -4.70363 1.66013 0
M  V30 9206 H 847.578 -6.06121 -0.265065 0
M  V30 9207 H 846.317 -4.84033 -0.596924 0
M  V30 9208 H 845.322 -5.23711 1.67353 0
M  V30 9209 H 846.547 -6.4911 1.99582 0
M  V30 9210 H 844.493 -6.55534 -0.247276 0
M  V30 9211 H 844.41 -7.45943 1.22904 0
M  V30 9212 H 845.678 -7.7945 0.0880543 0
M  V30 9213 N 849.908 -0.773975 -1.37286 0
M  V30 9214 C 851.136 -0.350758 -2.03905 0
M  V30 9215 C 851.551 1.02779 -1.58373 0
M  V30 9216 O 850.908 1.65646 -0.766009 0
M  V30 9217 C 850.959 -0.387335 -3.59419 0
M  V30 9218 O 850.68 -1.7115 -4.03286 0
M  V30 9219 C 852.181 0.047198 -4.43275 0
M  V30 9220 H 849.401 -0.146663 -0.654775 0
M  V30 9221 H 851.945 -1.04852 -1.75574 0
M  V30 9222 H 850.1 0.261865 -3.86514 0
M  V30 9223 H 850.514 -1.65166 -4.97816 0
M  V30 9224 H 851.988 -0.0295474 -5.51992 0
M  V30 9225 H 852.465 1.09786 -4.25257 0
M  V30 9226 H 853.071 -0.573899 -4.2141 0
M  V30 9227 N 851.386 1.48609 -0.524698 0
M  V30 9228 C 852.632 2.02797 0.0113382 0
M  V30 9229 C 852.965 1.40147 1.34433 0
M  V30 9230 O 852.24 0.545368 1.86698 0
M  V30 9231 C 852.523 3.59832 0.138931 0
M  V30 9232 C 852.376 4.32971 -1.21886 0
M  V30 9233 C 853.695 4.3145 0.868265 0
M  V30 9234 H 850.814 0.736995 0.00264645 0
M  V30 9235 H 853.456 1.77388 -0.680704 0
M  V30 9236 H 851.606 3.81612 0.72834 0
M  V30 9237 H 853.278 4.22624 -1.84897 0
M  V30 9238 H 851.521 3.94597 -1.80211 0
M  V30 9239 H 852.192 5.41279 -1.08263 0
M  V30 9240 H 854.668 4.14468 0.368145 0
M  V30 9241 H 853.544 5.41025 0.926428 0
M  V30 9242 H 853.805 3.98358 1.91737 0
M  V30 9243 N 852.864 0.259585 1.55447 0
M  V30 9244 C 854.092 -0.365392 2.03648 0
M  V30 9245 C 854.507 -1.50613 1.13847 0
M  V30 9246 O 853.864 -1.81837 0.155414 0
M  V30 9247 C 853.915 -0.861172 3.51093 0
M  V30 9248 O 853.636 0.234121 4.37474 0
M  V30 9249 C 855.137 -1.55555 4.15111 0
M  V30 9250 H 852.357 -0.0853439 0.66555 0
M  V30 9251 H 854.901 0.387151 2.00802 0
M  V30 9252 H 853.056 -1.56385 3.54433 0
M  V30 9253 H 853.47 -0.1444 5.24301 0
M  V30 9254 H 854.944 -1.85403 5.19932 0
M  V30 9255 H 855.421 -2.48185 3.62355 0
M  V30 9256 H 856.027 -0.89712 4.15731 0
M  V30 9257 N 854.342 -1.57594 -0.0133615 0
M  V30 9258 C 855.591 -1.8916 -0.700103 0
M  V30 9259 C 855.904 -0.860147 -1.75673 0
M  V30 9260 O 857.11 -1.06556 -2.49716 0
M  V30 9261 C 855.566 -3.35742 -1.29635 0
M  V30 9262 C 855.174 -4.47154 -0.275249 0
M  V30 9263 C 856.918 -3.76436 -1.96205 0
M  V30 9264 C 854.825 -5.84805 -0.880726 0
M  V30 9265 H 853.755 -0.705805 -0.265247 0
M  V30 9266 H 856.406 -1.83445 0.044993 0
M  V30 9267 H 854.788 -3.36252 -2.09167 0
M  V30 9268 H 855.962 -4.58139 0.494506 0
M  V30 9269 H 854.277 -4.15394 0.289256 0
M  V30 9270 H 856.874 -4.76606 -2.42386 0
M  V30 9271 H 857.217 -3.09249 -2.78695 0
M  V30 9272 H 857.75 -3.78168 -1.23426 0
M  V30 9273 H 854.489 -6.55431 -0.0949013 0
M  V30 9274 H 854.009 -5.7751 -1.61995 0
M  V30 9275 H 855.688 -6.32038 -1.38338 0
M  V30 9276 N 855.82 0.285905 -1.54985 0
M  V30 9277 C 856.768 1.37302 -1.87752 0
M  V30 9278 C 857.762 1.51763 -0.752616 0
M  V30 9279 O 858.968 1.53701 -0.936805 0
M  V30 9280 H 855.343 0.458935 -0.59572 0
M  V30 9281 H 857.314 1.0691 -2.78591 0
M  V30 9282 C 856.063 2.72885 -2.15474 0
M  V30 9283 H 855.386 2.62545 -3.01513 0
M  V30 9284 H 856.826 3.47925 -2.42331 0
M  V30 9285 C 855.285 3.22989 -0.958124 0
M  V30 9286 O 855.815 4.01268 -0.186219 0
M  V30 9287 N 854.021 2.80503 -0.759354 0
M  V30 9288 H 853.568 2.16961 -1.38874 0
M  V30 9289 H 853.526 3.14375 0.0396937 0
M  V30 9290 N 857.298 1.47698 0.54982 0
M  V30 9291 C 858.261 1.60282 1.63837 0
M  V30 9292 C 859.261 0.477394 1.5355 0
M  V30 9293 O 860.451 0.742665 1.57576 0
M  V30 9294 C 857.583 1.55431 3.03404 0
M  V30 9295 H 858.776 2.57325 1.54026 0
M  V30 9296 H 856.329 1.35999 0.770329 0
M  V30 9297 H 857.064 0.597912 3.1874 0
M  V30 9298 H 856.849 2.37116 3.12279 0
M  V30 9299 H 858.339 1.6739 3.82584 0
M  V30 9300 N 858.776 -0.797141 1.35954 0
M  V30 9301 C 860.001 -1.59097 1.33053 0
M  V30 9302 C 860.426 -1.87897 -0.0874592 0
M  V30 9303 O 859.784 -1.47291 -1.05712 0
M  V30 9304 C 859.832 -2.89346 2.152 0
M  V30 9305 O 858.936 -3.826 1.5392 0
M  V30 9306 H 858.277 -0.482895 0.45575 0
M  V30 9307 H 860.807 -0.988633 1.79129 0
M  V30 9308 H 860.817 -3.38686 2.27499 0
M  V30 9309 H 859.492 -2.6771 3.18283 0
M  V30 9310 H 858.069 -3.41174 1.50516 0
M  V30 9311 N 860.254 -1.20106 -1.0204 0
M  V30 9312 C 861.479 -1.0351 -1.79723 0
M  V30 9313 C 861.904 0.411328 -1.83548 0
M  V30 9314 O 861.262 1.29608 -1.26773 0
M  V30 9315 C 861.31 -1.61876 -3.22224 0
M  V30 9316 O 860.414 -0.853813 -4.03465 0
M  V30 9317 H 859.755 -0.365299 -0.554484 0
M  V30 9318 H 862.285 -1.59316 -1.28373 0
M  V30 9319 H 862.295 -1.65451 -3.72948 0
M  V30 9320 H 860.97 -2.67148 -3.18755 0
M  V30 9321 H 859.547 -0.891983 -3.62075 0
M  V30 9322 N 861.732 1.21287 -1.00634 0
M  V30 9323 C 862.957 1.94925 -0.708441 0
M  V30 9324 C 863.382 1.73659 0.722783 0
M  V30 9325 O 862.74 1.02429 1.49593 0
M  V30 9326 C 862.788 3.45377 -1.03667 0
M  V30 9327 O 861.892 4.12153 -0.142661 0
M  V30 9328 H 861.233 0.609338 -0.263824 0
M  V30 9329 H 863.763 1.54008 -1.34695 0
M  V30 9330 H 863.773 3.95954 -0.984086 0
M  V30 9331 H 862.448 3.6018 -2.0795 0
M  V30 9332 H 861.025 3.72048 -0.251888 0
M  V30 9333 N 863.21 0.781244 1.36873 0
M  V30 9334 C 864.16 0.147313 2.27524 0
M  V30 9335 C 865.144 -0.663928 1.46563 0
M  V30 9336 O 866.336 -0.525343 1.69024 0
M  V30 9337 C 863.465 -0.723511 3.35589 0
M  V30 9338 C 862.551 0.0960763 4.23991 0
M  V30 9339 N 862.942 1.14649 4.92635 0
M  V30 9340 C 861.24 -0.126397 4.45821 0
M  V30 9341 C 861.941 1.64474 5.57964 0
M  V30 9342 N 860.917 0.955316 5.3514 0
M  V30 9343 H 864.719 0.951406 2.78075 0
M  V30 9344 H 862.233 0.619913 1.50103 0
M  V30 9345 H 864.23 -1.19351 3.99451 0
M  V30 9346 H 862.89 -1.52624 2.86594 0
M  V30 9347 H 863.901 1.5288 4.94821 0
M  V30 9348 H 860.578 -0.900284 4.07678 0
M  V30 9349 H 861.968 2.52124 6.22803 0
M  V30 9350 N 864.689 -1.48329 0.532571 0
M  V30 9351 C 865.914 -2.074 0.00147755 0
M  V30 9352 C 866.339 -1.38615 -1.27151 0
M  V30 9353 O 865.697 -0.452949 -1.75551 0
M  V30 9354 C 865.745 -3.60029 -0.202866 0
M  V30 9355 O 864.849 -3.92327 -1.27097 0
M  V30 9356 H 864.19 -0.662777 0.0402883 0
M  V30 9357 H 866.72 -1.90701 0.741224 0
M  V30 9358 H 866.73 -4.05783 -0.424722 0
M  V30 9359 H 865.405 -4.09496 0.727033 0
M  V30 9360 H 863.982 -3.58348 -1.03156 0
M  V30 9361 N 866.167 -0.267825 -1.55308 0
M  V30 9362 C 867.415 0.350343 -1.9904 0
M  V30 9363 C 867.736 1.56924 -1.15758 0
M  V30 9364 O 867.006 1.94358 -0.245336 0
M  V30 9365 H 865.586 0.132435 -0.735167 0
M  V30 9366 H 868.248 -0.371471 -1.91327 0
M  V30 9367 H 867.344 0.645203 -3.05358 0
M  V30 9368 N 867.645 1.57599 0.00500368 0
M  V30 9369 C 868.575 2.11143 0.99705 0
M  V30 9370 C 869.556 1.0194 1.3617 0
M  V30 9371 O 870.741 1.29596 1.44632 0
M  V30 9372 C 867.871 2.61062 2.2905 0
M  V30 9373 C 866.825 3.74745 2.0676 0
M  V30 9374 C 866.151 4.10961 3.42075 0
M  V30 9375 C 867.451 5.02222 1.43424 0
M  V30 9376 H 869.145 2.94281 0.551251 0
M  V30 9377 H 866.691 1.41565 0.263715 0
M  V30 9378 H 868.644 2.97146 2.98801 0
M  V30 9379 H 867.368 1.75038 2.75734 0
M  V30 9380 H 866.027 3.39047 1.39436 0
M  V30 9381 H 865.675 3.21968 3.86453 0
M  V30 9382 H 865.375 4.87549 3.27979 0
M  V30 9383 H 866.899 4.49599 4.1315 0
M  V30 9384 H 868.313 5.36109 2.03125 0
M  V30 9385 H 866.71 5.83581 1.39831 0
M  V30 9386 H 867.78 4.83224 0.40285 0
M  V30 9387 N 869.123 -0.277682 1.55134 0
M  V30 9388 C 870.4 -1.0309 1.66228 0
M  V30 9389 C 870.78 -2.0445 0.525701 0
M  V30 9390 O 870.128 -2.23512 -0.474816 0
M  V30 9391 C 870.338 -1.6919 3.05247 0
M  V30 9392 C 871.686 -2.20526 3.62841 0
M  V30 9393 O 872.71 -1.79185 3.07849 0
M  V30 9394 O 871.569 -2.96342 4.59177 0
M  V30 9395 H 868.663 -0.4779 0.674937 0
M  V30 9396 H 871.209 -0.273912 1.67475 0
M  V30 9397 H 869.981 -0.957163 3.79413 0
M  V30 9398 H 869.604 -2.51587 3.07879 0
M  V30 9399 N 870.601 -1.47988 -0.541979 0
M  V30 9400 C 871.878 -1.45878 -1.30303 0
M  V30 9401 C 872.258 -0.163931 -2.10463 0
M  V30 9402 O 871.606 0.854479 -2.11922 0
M  V30 9403 C 871.816 -2.71359 -2.19466 0
M  V30 9404 C 873.164 -3.19199 -2.79995 0
M  V30 9405 O 874.188 -2.72193 -2.2976 0
M  V30 9406 O 873.047 -4.00961 -3.71339 0
M  V30 9407 H 870.141 -0.582043 -0.587498 0
M  V30 9408 H 872.687 -1.60207 -0.559623 0
M  V30 9409 H 871.459 -3.57122 -1.59936 0
M  V30 9410 H 871.082 -2.59692 -3.01075 0
M  V30 9411 N 872.079 0.78992 -1.36375 0
M  V30 9412 C 873.328 1.54296 -1.29906 0
M  V30 9413 C 873.641 1.95234 0.119651 0
M  V30 9414 O 874.847 2.69762 0.306708 0
M  V30 9415 C 873.303 2.78533 -2.27919 0
M  V30 9416 C 872.911 2.44767 -3.75224 0
M  V30 9417 C 874.655 3.56516 -2.30427 0
M  V30 9418 C 872.562 3.65397 -4.65015 0
M  V30 9419 H 871.492 0.579214 -0.482729 0
M  V30 9420 H 874.143 0.866845 -1.61735 0
M  V30 9421 H 872.525 3.47941 -1.89084 0
M  V30 9422 H 873.699 1.83259 -4.22792 0
M  V30 9423 H 872.014 1.79996 -3.75487 0
M  V30 9424 H 874.611 4.46143 -2.94722 0
M  V30 9425 H 874.954 3.95063 -1.31266 0
M  V30 9426 H 875.487 2.94087 -2.67876 0
M  V30 9427 H 872.226 3.31946 -5.65236 0
M  V30 9428 H 871.746 4.26072 -4.22164 0
M  V30 9429 H 873.425 4.32431 -4.81261 0
M  V30 9430 N 873.557 1.20646 1.01402 0
M  V30 9431 C 874.505 0.954493 2.12114 0
M  V30 9432 C 875.499 -0.0950737 1.69133 0
M  V30 9433 O 876.705 0.0555153 1.79914 0
M  V30 9434 H 873.08 0.29135 0.693267 0
M  V30 9435 H 875.051 1.89447 2.30548 0
M  V30 9436 C 873.8 0.525944 3.43699 0
M  V30 9437 H 873.123 1.32516 3.772 0
M  V30 9438 H 874.563 0.388883 4.22213 0
M  V30 9439 C 873.022 -0.761997 3.28169 0
M  V30 9440 O 873.552 -1.81979 3.58115 0
M  V30 9441 N 871.758 -0.725017 2.8141 0
M  V30 9442 H 871.305 0.13607 2.5724 0
M  V30 9443 H 871.263 -1.5871 2.71401 0
M  V30 9444 N 875.035 -1.20752 1.01276 0
M  V30 9445 C 876.446 -1.7175 0.732033 0
M  V30 9446 C 876.797 -1.8131 -0.749733 0
M  V30 9447 O 875.922 -1.47301 -1.58529 0
M  V30 9448 C 876.517 -3.11936 1.32217 0
M  V30 9449 C 875.076 -3.6026 1.09039 0
M  V30 9450 C 874.223 -2.37571 1.43022 0
M  V30 9451 H 877.174 -1.0582 1.1827 0
M  V30 9452 H 877.195 -3.73802 0.710771 0
M  V30 9453 H 876.707 -3.04946 2.40061 0
M  V30 9454 H 874.808 -3.72588 0.0294464 0
M  V30 9455 H 874.921 -4.45295 1.76775 0
M  V30 9456 H 873.285 -2.40128 0.849159 0
M  V30 9457 H 874.068 -2.33225 2.51915 0
M  V30 9458 N 876.513 -0.788492 -1.36457 0
M  V30 9459 C 877.741 -0.372365 -2.03522 0
M  V30 9460 C 878.156 1.01093 -1.59454 0
M  V30 9461 O 877.513 1.64824 -0.783535 0
M  V30 9462 C 877.564 -0.425435 -3.58988 0
M  V30 9463 O 877.285 -1.75418 -4.01448 0
M  V30 9464 C 878.786 0.000180167 -4.433 0
M  V30 9465 H 876.006 -0.1536 -0.653183 0
M  V30 9466 H 878.55 -1.06708 -1.74452 0
M  V30 9467 H 876.705 0.220856 -3.8677 0
M  V30 9468 H 877.119 -1.70437 -4.96036 0
M  V30 9469 H 878.593 -0.0880919 -5.5193 0
M  V30 9470 H 879.07 1.05269 -4.26398 0
M  V30 9471 H 879.676 -0.618563 -4.20778 0
M  V30 9472 N 877.991 1.48044 -0.54043 0
M  V30 9473 C 879.237 2.02797 -0.0101718 0
M  V30 9474 C 879.57 1.41565 1.32939 0
M  V30 9475 O 878.845 0.565139 1.86109 0
M  V30 9476 C 879.128 3.59959 0.100758 0
M  V30 9477 C 878.981 4.31654 -1.26471 0
M  V30 9478 C 880.3 4.32347 0.822455 0
M  V30 9479 H 877.419 0.736982 -0.00517052 0
M  V30 9480 H 880.061 1.76656 -0.69948 0
M  V30 9481 H 878.211 3.82363 0.687824 0
M  V30 9482 H 879.883 4.20639 -1.89369 0
M  V30 9483 H 878.126 3.92663 -1.84386 0
M  V30 9484 H 878.797 5.401 -1.13998 0
M  V30 9485 H 881.273 4.14835 0.324164 0
M  V30 9486 H 880.149 5.41978 0.868993 0
M  V30 9487 H 880.41 4.00369 1.87501 0
M  V30 9488 N 879.47 0.276058 1.55163 0
M  V30 9489 C 880.4 -0.604633 2.25536 0
M  V30 9490 C 881.381 -1.15813 1.24585 0
M  V30 9491 O 882.566 -1.1921 1.53306 0
M  V30 9492 C 879.696 -1.78836 2.97716 0
M  V30 9493 C 878.65 -1.36635 4.05604 0
M  V30 9494 C 877.976 -2.63325 4.65364 0
M  V30 9495 C 879.276 -0.515858 5.19746 0
M  V30 9496 H 880.97 -0.0177483 2.99395 0
M  V30 9497 H 878.516 -0.00709627 1.43998 0
M  V30 9498 H 880.469 -2.41036 3.45658 0
M  V30 9499 H 879.193 -2.40109 2.21394 0
M  V30 9500 H 877.852 -0.767541 3.58475 0
M  V30 9501 H 877.5 -3.22858 3.85709 0
M  V30 9502 H 877.2 -2.358 5.38212 0
M  V30 9503 H 878.724 -3.26372 5.16056 0
M  V30 9504 H 880.138 -1.04289 5.63735 0
M  V30 9505 H 878.535 -0.335449 5.99162 0
M  V30 9506 H 879.605 0.465137 4.82664 0
M  V30 9507 N 880.948 -1.576 0.00335426 0
M  V30 9508 C 881.878 -2.11668 -0.985839 0
M  V30 9509 C 882.859 -1.02661 -1.35627 0
M  V30 9510 O 884.044 -1.30361 -1.43943 0
M  V30 9511 C 881.174 -2.62273 -2.27662 0
M  V30 9512 C 880.128 -3.75837 -2.0477 0
M  V30 9513 C 879.454 -4.12769 -3.39891 0
M  V30 9514 C 880.754 -5.02975 -1.40759 0
M  V30 9515 H 882.448 -2.9457 -0.535637 0
M  V30 9516 H 879.994 -1.41702 -0.256204 0
M  V30 9517 H 881.947 -2.98727 -2.97221 0
M  V30 9518 H 880.671 -1.76498 -2.74802 0
M  V30 9519 H 879.33 -3.39782 -1.37636 0
M  V30 9520 H 878.978 -3.24013 -3.8474 0
M  V30 9521 H 878.678 -4.89281 -3.25389 0
M  V30 9522 H 880.202 -4.51784 -4.1076 0
M  V30 9523 H 881.616 -5.37179 -2.00279 0
M  V30 9524 H 880.013 -5.84315 -1.36734 0
M  V30 9525 H 881.083 -4.83431 -0.377218 0
M  V30 9526 N 882.426 0.269451 -1.5528 0
M  V30 9527 C 883.373 1.33316 -1.88403 0
M  V30 9528 C 884.343 1.48909 -0.735881 0
M  V30 9529 O 885.528 1.63259 -0.987479 0
M  V30 9530 C 882.668 2.68778 -2.16454 0
M  V30 9531 C 881.781 2.61377 -3.43956 0
M  V30 9532 C 880.916 3.89042 -3.6169 0
M  V30 9533 C 879.955 3.76166 -4.82872 0
M  V30 9534 N 879.092 4.95673 -4.97245 0
M  V30 9535 H 883.932 1.04368 -2.79126 0
M  V30 9536 H 881.469 0.504147 -1.38191 0
M  V30 9537 H 883.427 3.47599 -2.30719 0
M  V30 9538 H 882.057 2.9592 -1.28961 0
M  V30 9539 H 881.109 1.74247 -3.38145 0
M  V30 9540 H 882.421 2.47764 -4.32914 0
M  V30 9541 H 881.575 4.76304 -3.75791 0
M  V30 9542 H 880.314 4.05526 -2.70924 0
M  V30 9543 H 879.319 2.87287 -4.68771 0
M  V30 9544 H 880.544 3.61198 -5.75077 0
M  V30 9545 H 878.49 5.12561 -4.09411 0
M  V30 9546 H 878.407 4.84605 -5.80254 0
M  V30 9547 H 879.675 5.84498 -5.15735 0
M  V30 9548 N 883.904 1.48273 0.534124 0
M  V30 9549 C 884.814 1.65162 1.66609 0
M  V30 9550 C 885.83 0.534177 1.65598 0
M  V30 9551 O 887.006 0.804715 1.84625 0
M  V30 9552 C 884.071 1.68354 3.03081 0
M  V30 9553 C 883.132 2.91696 3.1498 0
M  V30 9554 C 882.365 2.94725 4.44941 0
M  V30 9555 O 882.588 2.06285 5.31792 0
M  V30 9556 O 881.522 3.8685 4.61119 0
M  V30 9557 H 885.348 2.60991 1.55298 0
M  V30 9558 H 882.933 1.31626 0.706749 0
M  V30 9559 H 884.815 1.72998 3.84252 0
M  V30 9560 H 883.49 0.756978 3.14725 0
M  V30 9561 H 882.397 2.92586 2.33119 0
M  V30 9562 H 883.73 3.83722 3.0825 0
M  V30 9563 N 885.382 -0.782676 1.36792 0
M  V30 9564 C 886.798 -1.08169 1.17352 0
M  V30 9565 C 886.998 -2.015 0.0022037 0
M  V30 9566 O 886.054 -2.43692 -0.661093 0
M  V30 9567 C 887.367 -1.68969 2.48737 0
M  V30 9568 C 888.915 -1.81278 2.55161 0
M  V30 9569 C 889.39 -2.45492 3.86649 0
M  V30 9570 N 890.881 -2.52954 3.88032 0
M  V30 9571 C 891.616 -3.03465 4.86515 0
M  V30 9572 N 891.112 -3.54232 5.95392 0
M  V30 9573 N 892.905 -3.02239 4.73928 0
M  V30 9574 H 885.056 -0.162757 2.11775 0
M  V30 9575 H 887.319 -0.134823 0.938364 0
M  V30 9576 H 887.025 -1.07859 3.34753 0
M  V30 9577 H 886.899 -2.68397 2.65034 0
M  V30 9578 H 889.286 -2.41524 1.69559 0
M  V30 9579 H 889.367 -0.806367 2.42758 0
M  V30 9580 H 889.011 -1.85889 4.7266 0
M  V30 9581 H 888.941 -3.46718 3.96351 0
M  V30 9582 H 891.432 -2.17014 3.09376 0
M  V30 9583 H 891.745 -3.91145 6.66503 0
M  V30 9584 H 890.09 -3.52366 5.99052 0
M  V30 9585 H 893.281 -2.61871 3.87996 0
M  V30 9586 H 893.454 -3.41295 5.50837 0
M  V30 9587 N 886.86 -1.21182 -1.00761 0
M  V30 9588 C 888.085 -1.05411 -1.78615 0
M  V30 9589 C 888.51 0.391837 -1.83973 0
M  V30 9590 O 887.868 1.28256 -1.28141 0
M  V30 9591 C 887.916 -1.65285 -3.20489 0
M  V30 9592 O 887.02 -0.896558 -4.02536 0
M  V30 9593 H 886.361 -0.37116 -0.550578 0
M  V30 9594 H 888.891 -1.60669 -1.26676 0
M  V30 9595 H 888.901 -1.69397 -3.71172 0
M  V30 9596 H 887.576 -2.70514 -3.15904 0
M  V30 9597 H 886.153 -0.930335 -3.61108 0
M  V30 9598 N 888.338 1.20213 -1.01915 0
M  V30 9599 C 889.566 1.93622 -0.729255 0
M  V30 9600 C 889.981 1.74923 0.710444 0
M  V30 9601 O 889.338 1.06484 1.48214 0
M  V30 9602 C 889.389 3.45651 -1.05865 0
M  V30 9603 O 889.11 3.63741 -2.44181 0
M  V30 9604 C 890.611 4.36201 -0.790176 0
M  V30 9605 H 887.831 0.615333 -0.267594 0
M  V30 9606 H 890.375 1.52633 -1.36101 0
M  V30 9607 H 888.53 3.84511 -0.47225 0
M  V30 9608 H 888.944 4.57702 -2.56143 0
M  V30 9609 H 890.418 5.41516 -1.07071 0
M  V30 9610 H 890.895 4.38334 0.275609 0
M  V30 9611 H 891.501 4.03008 -1.35885 0
M  V30 9612 N 889.816 0.795718 1.36037 0
M  V30 9613 C 890.726 0.199784 2.33748 0
M  V30 9614 C 891.742 -0.651436 1.61345 0
M  V30 9615 O 892.918 -0.565743 1.93291 0
M  V30 9616 C 889.983 -0.650475 3.40543 0
M  V30 9617 C 889.044 0.219974 4.28736 0
M  V30 9618 C 888.277 -0.589798 5.30431 0
M  V30 9619 O 888.5 -1.82532 5.40406 0
M  V30 9620 O 887.434 0.0136187 6.01898 0
M  V30 9621 H 891.26 1.00782 2.8649 0
M  V30 9622 H 888.845 0.557293 1.38617 0
M  V30 9623 H 890.727 -1.13512 4.05824 0
M  V30 9624 H 889.402 -1.4363 2.9009 0
M  V30 9625 H 888.309 0.751516 3.66474 0
M  V30 9626 H 889.642 0.969468 4.82558 0
M  V30 9627 N 891.294 -1.47756 0.548274 0
M  V30 9628 C 892.224 -2.32702 -0.19284 0
M  V30 9629 C 893.205 -1.43237 -0.917457 0
M  V30 9630 O 894.39 -1.72103 -0.89967 0
M  V30 9631 C 891.52 -3.24831 -1.22891 0
M  V30 9632 C 890.474 -4.23466 -0.621312 0
M  V30 9633 C 889.8 -5.04856 -1.76137 0
M  V30 9634 C 891.1 -5.20616 0.419055 0
M  V30 9635 H 892.794 -2.94914 0.516323 0
M  V30 9636 H 890.34 -1.41818 0.24975 0
M  V30 9637 H 892.293 -3.83094 -1.75547 0
M  V30 9638 H 891.017 -2.60656 -1.9679 0
M  V30 9639 H 889.676 -3.66416 -0.116123 0
M  V30 9640 H 889.324 -4.37091 -2.48918 0
M  V30 9641 H 889.024 -5.71629 -1.36065 0
M  V30 9642 H 890.548 -5.65976 -2.29136 0
M  V30 9643 H 891.962 -5.73296 -0.0211034 0
M  V30 9644 H 890.359 -5.95543 0.738163 0
M  V30 9645 H 891.429 -4.66638 1.31822 0
M  V30 9646 O 892.811 -0.426279 -1.55773 0
M  V30 9647 H 893.502 0.110126 -1.93387 0
M  V30 END ATOM
M  V30 BEGIN BOND
M  V30 END BOND
M  V30 END CTAB
M  END
$$$$
