drugbank_target|P98052 Cytochrome c oxidase subunit 2 (DB02451)
 OpenBabel12092120433D

  0  0  0     0  0            999 V3000
M  V30 BEGIN CTAB
M  V30 COUNTS 2073 2102 0 0 0
M  V30 BEGIN ATOM
M  V30 1 H -0.908 1.98254 -0.117106 0
M  V30 2 N 0 1.576 0 0
M  V30 3 C 0.963 2.07369 0.976253 0
M  V30 4 C 1.963 0.98309 1.27248 0
M  V30 5 O 3.153 1.24574 1.21766 0
M  V30 6 C 0.285 2.51514 2.30116 0
M  V30 7 H 1.478 2.94892 0.545759 0
M  V30 8 H -0.969 1.54328 0.247471 0
M  V30 9 H -0.234 1.67234 2.77855 0
M  V30 10 H -0.449 3.31163 2.09937 0
M  V30 11 H 1.041 2.90345 3.00149 0
M  V30 12 N 1.4781 -0.272755 1.55222 0
M  V30 13 C 2.7081 -1.02107 1.79604 0
M  V30 14 C 3.1161 -1.80419 0.569693 0
M  V30 15 O 2.4591 -1.77566 -0.470743 0
M  V30 16 C 2.5211 -2.02675 2.96922 0
M  V30 17 C 2.1851 -1.43299 4.33952 0
M  V30 18 C 3.1821 -0.84853 5.12929 0
M  V30 19 C 0.8671 -1.46012 4.8061 0
M  V30 20 C 2.8611 -0.299109 6.36698 0
M  V30 21 C 0.5481 -0.906833 6.04334 0
M  V30 22 C 1.5461 -0.32733 6.82215 0
M  V30 23 O 1.2341 0.217479 8.03606 0
M  V30 24 H 0.9661 -0.307322 0.602104 0
M  V30 25 H 3.5201 -0.308862 2.03065 0
M  V30 26 H 1.7501 -2.77656 2.69155 0
M  V30 27 H 3.4391 -2.63637 3.08626 0
M  V30 28 H 4.2051 -0.820265 4.78013 0
M  V30 29 H 0.0841 -1.90056 4.2 0
M  V30 30 H 3.6281 0.153852 6.9743 0
M  V30 31 H -0.4749 -0.932339 6.38731 0
M  V30 32 H 0.2931 0.106863 8.1843 0
M  V30 33 N 2.9562 -1.48159 -0.537278 0
M  V30 34 C 4.1842 -1.59454 -1.31841 0
M  V30 35 C 4.5992 -0.252065 -1.8711 0
M  V30 36 O 3.9562 0.757621 -1.66031 0
M  V30 37 C 4.0072 -2.63546 -2.47439 0
M  V30 38 O 3.7282 -3.92583 -1.94449 0
M  V30 39 C 5.2292 -2.85212 -3.39366 0
M  V30 40 H 2.4492 -0.53785 -0.401196 0
M  V30 41 H 4.9932 -1.93932 -0.648891 0
M  V30 42 H 3.1482 -2.31946 -3.1029 0
M  V30 43 H 3.5622 -4.49629 -2.70063 0
M  V30 44 H 5.0362 -3.61863 -4.16844 0
M  V30 45 H 5.5132 -1.93765 -3.94147 0
M  V30 46 H 6.1192 -3.18086 -2.82314 0
M  V30 47 N 4.4343 0.785586 -1.36625 0
M  V30 48 C 5.3643 1.91259 -1.33949 0
M  V30 49 C 6.3453 1.68795 -0.210325 0
M  V30 50 O 7.5303 1.89854 -0.408561 0
M  V30 51 C 4.6603 3.28339 -1.13186 0
M  V30 52 C 3.6143 3.65335 -2.22967 0
M  V30 53 C 2.9403 5.00806 -1.87342 0
M  V30 54 C 4.2403 3.7352 -3.65075 0
M  V30 55 H 5.9343 1.93755 -2.28253 0
M  V30 56 H 3.4803 0.930788 -1.09874 0
M  V30 57 H 5.4333 4.06804 -1.09948 0
M  V30 58 H 4.1573 3.2624 -0.153332 0
M  V30 59 H 2.8163 2.89169 -2.25337 0
M  V30 60 H 2.4643 4.95233 -0.880545 0
M  V30 61 H 2.1643 5.26529 -2.60846 0
M  V30 62 H 3.6883 5.81687 -1.85667 0
M  V30 63 H 5.1023 4.42168 -3.64911 0
M  V30 64 H 3.4993 4.10731 -4.37516 0
M  V30 65 H 4.5693 2.74527 -3.99703 0
M  V30 66 N 5.9124 1.20967 1.01018 0
M  V30 67 C 6.8754 0.965918 2.07853 0
M  V30 68 C 7.8754 -0.0610545 1.60684 0
M  V30 69 O 9.0654 0.175681 1.73312 0
M  V30 70 C 6.1974 0.455513 3.37843 0
M  V30 71 H 7.3904 1.91365 2.3091 0
M  V30 72 H 4.9434 1.02594 1.17916 0
M  V30 73 H 5.6784 -0.497381 3.20463 0
M  V30 74 H 5.4634 1.19622 3.73407 0
M  V30 75 H 6.9534 0.304667 4.16487 0
M  V30 76 N 7.3905 -1.2043 1.01659 0
M  V30 77 C 8.6185 -1.93777 0.725132 0
M  V30 78 C 9.0335 -1.74772 -0.714166 0
M  V30 79 O 8.3905 -1.06169 -1.4844 0
M  V30 80 C 8.4415 -3.45876 1.05129 0
M  V30 81 O 8.1625 -3.6426 2.43406 0
M  V30 82 C 9.6635 -4.36368 0.780891 0
M  V30 83 H 6.8835 -0.615901 0.266284 0
M  V30 84 H 9.4275 -1.52922 1.35776 0
M  V30 85 H 7.5825 -3.8461 0.464065 0
M  V30 86 H 7.9965 -4.58246 2.55169 0
M  V30 87 H 9.4705 -5.41743 1.05918 0
M  V30 88 H 9.9475 -4.38275 -0.284937 0
M  V30 89 H 10.5535 -4.03296 1.35027 0
M  V30 90 N 8.8686 -0.792821 -1.36206 0
M  V30 91 C 9.8186 -0.166598 -2.27391 0
M  V30 92 C 10.8026 0.651479 -1.47121 0
M  V30 93 O 11.9946 0.510994 -1.69463 0
M  V30 94 C 9.1236 0.695033 -3.36191 0
M  V30 95 C 8.2096 -0.132019 -4.23894 0
M  V30 96 N 8.6006 -1.18822 -4.91645 0
M  V30 97 C 6.8986 0.0885952 -4.45912 0
M  V30 98 C 7.5996 -1.69198 -5.56549 0
M  V30 99 N 6.5756 -1.00065 -5.34311 0
M  V30 100 H 10.3776 -0.974947 -2.77258 0
M  V30 101 H 7.8916 -0.632616 -1.49572 0
M  V30 102 H 9.8886 1.1596 -4.00448 0
M  V30 103 H 8.5486 1.50189 -2.87877 0
M  V30 104 H 9.5596 -1.57069 -4.93507 0
M  V30 105 H 6.2366 0.865688 -4.08426 0
M  V30 106 H 7.6266 -2.57395 -6.20643 0
M  V30 107 N 10.3467 1.47872 -0.545128 0
M  V30 108 C 11.5747 2.06889 -0.021084 0
M  V30 109 C 11.9897 1.39955 1.2672 0
M  V30 110 O 11.3467 0.492036 1.75742 0
M  V30 111 C 11.3977 3.60996 0.190817 0
M  V30 112 O 11.1187 4.25419 -1.04644 0
M  V30 113 C 12.6197 4.36849 0.753521 0
M  V30 114 H 9.8397 0.669785 -0.0403635 0
M  V30 115 H 12.3837 1.90049 -0.755095 0
M  V30 116 H 10.5387 3.77391 0.87492 0
M  V30 117 H 10.9527 5.17785 -0.836611 0
M  V30 118 H 12.4267 5.45399 0.851139 0
M  V30 119 H 12.9037 4.02306 1.762 0
M  V30 120 H 13.5097 4.25169 0.105503 0
M  V30 121 N 11.8248 0.280983 1.55075 0
M  V30 122 C 12.7878 -0.590896 2.21452 0
M  V30 123 C 13.7878 -1.07682 1.19421 0
M  V30 124 O 14.9778 -0.97605 1.44288 0
M  V30 125 C 12.1098 -1.81587 2.88511 0
M  V30 126 H 13.3028 -0.0112554 2.99898 0
M  V30 127 H 10.8558 0.0316438 1.56268 0
M  V30 128 H 11.5908 -2.43587 2.14093 0
M  V30 129 H 11.3758 -1.4753 3.63287 0
M  V30 130 H 12.8658 -2.43575 3.39206 0
M  V30 131 N 13.3029 -1.57598 0.00835791 0
M  V30 132 C 14.5509 -1.90551 -0.6734 0
M  V30 133 C 14.8719 -0.883301 -1.73847 0
M  V30 134 O 14.1419 0.0781442 -1.95744 0
M  V30 135 H 12.7219 -0.703312 -0.251717 0
M  V30 136 H 15.3839 -1.94833 0.0512592 0
M  V30 137 H 14.4799 -2.9056 -1.13935 0
M  V30 138 N 14.781 0.264519 -1.55364 0
M  V30 139 C 16.027 0.99646 -1.76631 0
M  V30 140 C 16.36 1.85632 -0.570478 0
M  V30 141 O 15.635 1.89647 0.43175 0
M  V30 142 C 15.918 1.87187 -3.07625 0
M  V30 143 C 15.771 1.04138 -4.37579 0
M  V30 144 C 17.09 2.85749 -3.34717 0
M  V30 145 H 14.209 0.360841 -0.642622 0
M  V30 146 H 16.851 0.268218 -1.88097 0
M  V30 147 H 15.001 2.49279 -2.9798 0
M  V30 148 H 16.673 0.440517 -4.59192 0
M  V30 149 H 14.916 0.345115 -4.32425 0
M  V30 150 H 15.587 1.68729 -5.2558 0
M  V30 151 H 18.063 2.33793 -3.4421 0
M  V30 152 H 16.939 3.44136 -4.27623 0
M  V30 153 H 17.2 3.61311 -2.54768 0
M  V30 154 N 16.2591 1.48442 0.529413 0
M  V30 155 C 17.5081 1.55742 1.28169 0
M  V30 156 C 17.8211 0.236511 1.94165 0
M  V30 157 O 19.0271 0.187761 2.7085 0
M  V30 158 C 17.4831 2.74667 2.32564 0
M  V30 159 C 17.0911 4.13402 1.72636 0
M  V30 160 C 18.8351 2.9128 3.08798 0
M  V30 161 C 16.7421 5.23587 2.74975 0
M  V30 162 H 15.6721 0.579796 0.48203 0
M  V30 163 H 18.3231 1.74776 0.559056 0
M  V30 164 H 16.7051 2.49067 3.07866 0
M  V30 165 H 17.8791 4.49022 1.03519 0
M  V30 166 H 16.1941 4.0191 1.08892 0
M  V30 167 H 18.7911 3.70767 3.85274 0
M  V30 168 H 19.1341 2.00757 3.64695 0
M  V30 169 H 19.6671 3.16782 2.40611 0
M  V30 170 H 16.4061 6.16076 2.23897 0
M  V30 171 H 15.9261 4.92454 3.42417 0
M  V30 172 H 17.6051 5.51724 3.37949 0
M  V30 173 N 17.7372 -0.778329 1.37039 0
M  V30 174 C 19.1482 -1.35421 1.28523 0
M  V30 175 C 19.4992 -1.96075 -0.0700901 0
M  V30 176 O 18.6242 -1.93352 -0.971801 0
M  V30 177 C 19.2192 -2.46211 2.32735 0
M  V30 178 C 17.7782 -2.99585 2.27873 0
M  V30 179 C 16.9252 -1.72748 2.16918 0
M  V30 180 H 19.8762 -0.5791 1.47757 0
M  V30 181 H 19.8972 -3.2552 1.9702 0
M  V30 182 H 19.4092 -2.02036 3.31365 0
M  V30 183 H 17.5102 -3.48152 1.32745 0
M  V30 184 H 17.6232 -3.55646 3.21018 0
M  V30 185 H 15.9872 -1.95416 1.63354 0
M  V30 186 H 16.7702 -1.30686 3.17452 0
M  V30 187 N 19.2153 -1.21501 -1.00376 0
M  V30 188 C 20.1783 -0.976927 -2.07337 0
M  V30 189 C 21.1783 0.0525322 -1.60714 0
M  V30 190 O 22.3683 -0.184869 -1.73216 0
M  V30 191 C 19.5003 -0.473423 -3.37597 0
M  V30 192 H 20.6933 -1.92587 -2.29892 0
M  V30 193 H 18.2463 -1.03217 -1.17371 0
M  V30 194 H 18.9813 0.480379 -3.20722 0
M  V30 195 H 18.7663 -1.216 -3.72768 0
M  V30 196 H 20.2563 -0.32675 -4.1632 0
M  V30 197 N 20.6934 1.19889 -1.02296 0
M  V30 198 C 21.9414 1.89046 -0.714558 0
M  V30 199 C 22.2624 1.79636 0.758681 0
M  V30 200 O 21.5324 1.20292 1.54618 0
M  V30 201 H 20.1124 0.699802 -0.261317 0
M  V30 202 H 22.7744 1.45574 -1.29592 0
M  V30 203 H 21.8704 2.95524 -1.0036 0
M  V30 204 N 22.1715 0.800033 1.35784 0
M  V30 205 C 23.1185 0.203848 2.29898 0
M  V30 206 C 24.0885 -0.658375 1.52495 0
M  V30 207 O 25.2735 -0.604832 1.8096 0
M  V30 208 C 22.4135 -0.64688 3.38983 0
M  V30 209 C 21.5265 0.235054 4.3136 0
M  V30 210 C 20.6615 -0.623054 5.27533 0
M  V30 211 C 19.7005 0.259682 6.11549 0
M  V30 212 N 18.8375 -0.558019 6.99879 0
M  V30 213 H 23.6775 1.01186 2.80295 0
M  V30 214 H 21.2145 0.51053 1.37957 0
M  V30 215 H 23.1725 -1.15521 4.00887 0
M  V30 216 H 21.8025 -1.42021 2.89879 0
M  V30 217 H 20.8545 0.861438 3.70518 0
M  V30 218 H 22.1665 0.914768 4.9034 0
M  V30 219 H 21.3205 -1.19678 5.94779 0
M  V30 220 H 20.0595 -1.33636 4.69034 0
M  V30 221 H 19.0645 0.845726 5.43256 0
M  V30 222 H 20.2895 0.970748 6.72126 0
M  V30 223 H 18.2355 -1.25542 6.43875 0
M  V30 224 H 18.1525 0.0637872 7.55973 0
M  V30 225 H 19.4205 -1.11523 7.71481 0
M  V30 226 N 23.6496 -1.47581 0.552962 0
M  V30 227 C 24.5796 -2.32762 -0.185451 0
M  V30 228 C 25.5606 -1.43527 -0.912905 0
M  V30 229 O 26.7456 -1.72388 -0.894201 0
M  V30 230 C 23.8756 -3.25219 -1.21859 0
M  V30 231 C 22.8296 -4.23661 -0.607864 0
M  V30 232 C 22.1556 -5.05413 -1.74533 0
M  V30 233 C 23.4556 -5.20481 0.435582 0
M  V30 234 H 25.1496 -2.94749 0.525684 0
M  V30 235 H 22.6956 -1.41738 0.254251 0
M  V30 236 H 24.6486 -3.8365 -1.7433 0
M  V30 237 H 23.3726 -2.61279 -1.95961 0
M  V30 238 H 22.0316 -3.66451 -0.104489 0
M  V30 239 H 21.6796 -4.3788 -2.47529 0
M  V30 240 H 21.3796 -5.72059 -1.34249 0
M  V30 241 H 22.9036 -5.66701 -2.27338 0
M  V30 242 H 24.3176 -5.733 -0.00290157 0
M  V30 243 H 22.7146 -5.95305 0.757067 0
M  V30 244 H 23.7846 -4.66217 1.33303 0
M  V30 245 N 25.1277 -0.289203 -1.54924 0
M  V30 246 C 26.0377 0.601863 -2.26748 0
M  V30 247 C 27.0537 1.15834 -1.2984 0
M  V30 248 O 28.2297 1.18564 -1.62802 0
M  V30 249 C 25.2947 1.76299 -2.98529 0
M  V30 250 C 24.3557 1.24178 -4.10948 0
M  V30 251 C 23.5887 2.34757 -4.79296 0
M  V30 252 O 23.8117 3.54411 -4.46933 0
M  V30 253 O 22.7457 2.02115 -5.66951 0
M  V30 254 H 26.5717 0.0195879 -3.03694 0
M  V30 255 H 24.1567 -0.0560868 -1.49295 0
M  V30 256 H 26.0387 2.43973 -3.43592 0
M  V30 257 H 24.7137 2.33209 -2.24488 0
M  V30 258 H 23.6207 0.531104 -3.70311 0
M  V30 259 H 24.9537 0.718252 -4.86931 0
M  V30 260 N 26.6058 1.57591 -0.0167156 0
M  V30 261 C 28.0218 1.55946 0.339557 0
M  V30 262 C 28.2218 1.02109 1.73713 0
M  V30 263 O 27.2778 0.662303 2.43659 0
M  V30 264 C 28.5908 3.00037 0.199499 0
M  V30 265 C 30.1388 3.11805 0.273193 0
M  V30 266 C 30.6138 4.57713 0.162068 0
M  V30 267 N 32.1048 4.6268 0.219444 0
M  V30 268 C 32.8398 5.73185 0.157054 0
M  V30 269 N 32.3358 6.92786 0.0442936 0
M  V30 270 N 34.1288 5.61707 0.21014 0
M  V30 271 H 26.2798 1.90921 -0.930758 0
M  V30 272 H 28.5428 0.877674 -0.358319 0
M  V30 273 H 28.2488 3.4333 -0.76273 0
M  V30 274 H 28.1228 3.64387 0.974786 0
M  V30 275 H 30.5098 2.68433 1.22587 0
M  V30 276 H 30.5908 2.50201 -0.532256 0
M  V30 277 H 30.2348 5.01763 -0.78714 0
M  V30 278 H 30.1648 5.17283 0.986222 0
M  V30 279 H 32.6558 3.76649 0.307246 0
M  V30 280 H 32.9688 7.728 0.00304069 0
M  V30 281 H 31.3138 6.94999 0.00968457 0
M  V30 282 H 34.5048 4.6716 0.296546 0
M  V30 283 H 34.6778 6.47807 0.158054 0
M  V30 284 N 28.0839 -0.256276 1.55502 0
M  V30 285 C 29.3299 -0.987079 1.77157 0
M  V30 286 C 29.6629 -1.85327 0.580315 0
M  V30 287 O 28.9379 -1.89874 -0.421686 0
M  V30 288 C 29.2209 -1.85553 3.08613 0
M  V30 289 C 29.0739 -1.01816 4.38125 0
M  V30 290 C 30.3929 -2.8397 3.36228 0
M  V30 291 H 27.5119 -0.357428 0.644526 0
M  V30 292 H 30.1539 -0.258239 1.88237 0
M  V30 293 H 28.3039 -2.47695 2.99298 0
M  V30 294 H 29.9759 -0.416159 4.59419 0
M  V30 295 H 28.2189 -0.322178 4.32602 0
M  V30 296 H 28.8899 -1.65939 5.26468 0
M  V30 297 H 31.3659 -2.31964 3.45445 0
M  V30 298 H 30.2419 -3.41864 4.29442 0
M  V30 299 H 30.5029 -3.59955 2.56681 0
M  V30 300 N 29.562 -1.4872 -0.521534 0
M  V30 301 C 30.839 -1.4766 -1.2828 0
M  V30 302 C 31.219 -0.19292 -2.10217 0
M  V30 303 O 30.567 0.825193 -2.13079 0
M  V30 304 C 30.777 -2.74358 -2.15705 0
M  V30 305 C 32.125 -3.23028 -2.75569 0
M  V30 306 O 33.149 -2.75333 -2.25987 0
M  V30 307 O 32.008 -4.0604 -3.65778 0
M  V30 308 H 29.102 -0.590085 -0.579421 0
M  V30 309 H 31.648 -1.60963 -0.537492 0
M  V30 310 H 30.42 -3.59292 -1.54999 0
M  V30 311 H 30.043 -2.63816 -2.97467 0
M  V30 312 N 31.0401 0.771051 -1.3745 0
M  V30 313 C 32.4511 1.34737 -1.29239 0
M  V30 314 C 32.8021 1.96109 0.0596908 0
M  V30 315 O 31.9271 1.93865 0.961534 0
M  V30 316 C 32.5221 2.44973 -2.34037 0
M  V30 317 C 31.0811 2.98372 -2.29458 0
M  V30 318 C 30.2281 1.71595 -2.17831 0
M  V30 319 H 33.1791 0.571256 -1.48062 0
M  V30 320 H 33.2001 3.24471 -1.98744 0
M  V30 321 H 32.7121 2.00276 -3.32432 0
M  V30 322 H 30.8131 3.47443 -1.34589 0
M  V30 323 H 30.9261 3.53939 -3.229 0
M  V30 324 H 29.2901 1.94547 -1.64388 0
M  V30 325 H 30.0731 1.29001 -3.18141 0
M  V30 326 N 32.5182 1.22032 0.997298 0
M  V30 327 C 33.7462 1.06841 1.7718 0
M  V30 328 C 34.1612 -0.381325 1.84909 0
M  V30 329 O 33.5182 -1.26437 1.31605 0
M  V30 330 C 33.5692 1.66814 3.20711 0
M  V30 331 O 33.2902 3.06116 3.13408 0
M  V30 332 C 34.7912 1.56838 4.14628 0
M  V30 333 H 32.0112 0.374782 0.556578 0
M  V30 334 H 34.5552 1.61532 1.2541 0
M  V30 335 H 32.7102 1.16196 3.69564 0
M  V30 336 H 33.1242 3.34926 4.0364 0
M  V30 337 H 34.5982 2.03532 5.13107 0
M  V30 338 H 35.0752 0.524155 4.36061 0
M  V30 339 H 35.6812 2.06741 3.7167 0
M  V30 340 N 33.9963 -1.19345 1.0293 0
M  V30 341 C 35.2243 -1.92997 0.745644 0
M  V30 342 C 35.6393 -1.75519 -0.695589 0
M  V30 343 O 34.9963 -1.07737 -1.47306 0
M  V30 344 C 35.0473 -3.44741 1.08792 0
M  V30 345 O 34.7683 -3.61658 2.47256 0
M  V30 346 C 36.2693 -4.35515 0.827129 0
M  V30 347 H 33.4893 -0.613042 0.272801 0
M  V30 348 H 36.0333 -1.51473 1.3739 0
M  V30 349 H 34.1883 -3.84097 0.504832 0
M  V30 350 H 34.6023 -4.55514 2.60015 0
M  V30 351 H 36.0763 -5.40589 1.11658 0
M  V30 352 H 36.5533 -4.38552 -0.238436 0
M  V30 353 H 37.1593 -4.01841 1.39297 0
M  V30 354 N 35.4744 -0.807222 -1.35358 0
M  V30 355 C 36.7204 -0.388463 -1.99045 0
M  V30 356 C 37.0534 1.04184 -1.63888 0
M  V30 357 O 36.3284 1.72292 -0.902535 0
M  V30 358 C 36.6114 -0.572783 -3.55515 0
M  V30 359 C 36.4644 -2.04807 -4.00468 0
M  V30 360 C 37.7834 0.00114064 -4.401 0
M  V30 361 H 34.9024 -0.142619 -0.723069 0
M  V30 362 H 37.5444 -1.01687 -1.60498 0
M  V30 363 H 35.6944 -0.0378425 -3.88482 0
M  V30 364 H 37.3664 -2.64544 -3.77908 0
M  V30 365 H 35.6094 -2.54427 -3.51353 0
M  V30 366 H 36.2804 -2.12792 -5.09337 0
M  V30 367 H 38.7564 -0.455716 -4.13597 0
M  V30 368 H 37.6324 -0.157737 -5.48673 0
M  V30 369 H 37.8934 1.09488 -4.28328 0
M  V30 370 N 36.9525 1.47285 -0.560781 0
M  V30 371 C 38.3685 1.58065 -0.22081 0
M  V30 372 C 38.5685 1.55892 1.27671 0
M  V30 373 O 37.6245 1.46422 2.0571 0
M  V30 374 C 38.9375 2.88418 -0.850625 0
M  V30 375 C 40.4855 3.02009 -0.822184 0
M  V30 376 C 40.9605 4.35066 -1.43113 0
M  V30 377 N 42.4515 4.41711 -1.39448 0
M  V30 378 C 43.1865 5.43237 -1.83525 0
M  V30 379 N 42.6825 6.51555 -2.35474 0
M  V30 380 N 44.4755 5.34304 -1.74574 0
M  V30 381 H 36.6265 1.46941 -1.53369 0
M  V30 382 H 38.8895 0.699558 -0.639783 0
M  V30 383 H 38.5955 2.95755 -1.9032 0
M  V30 384 H 38.4695 3.75612 -0.345773 0
M  V30 385 H 40.8565 2.94266 0.221714 0
M  V30 386 H 40.9375 2.16347 -1.36483 0
M  V30 387 H 40.5815 4.43565 -2.47412 0
M  V30 388 H 40.5115 5.19465 -0.863899 0
M  V30 389 H 43.0025 3.64027 -1.01452 0
M  V30 390 H 43.3155 7.25203 -2.67021 0
M  V30 391 H 41.6605 6.52435 -2.39487 0
M  V30 392 H 44.8515 4.48581 -1.33763 0
M  V30 393 H 45.0245 6.13288 -2.09242 0
M  V30 394 N 38.4306 0.297415 1.54768 0
M  V30 395 C 39.3626 -0.613881 2.20826 0
M  V30 396 C 40.3756 -1.10032 1.19987 0
M  V30 397 O 41.5646 -1.01839 1.46598 0
M  V30 398 C 38.6646 -1.852 2.83821 0
M  V30 399 C 37.8376 -1.50865 4.10559 0
M  V30 400 C 36.8966 -2.60154 4.57391 0
M  V30 401 O 35.9226 -2.25398 5.2267 0
M  V30 402 N 37.1246 -3.90629 4.29406 0
M  V30 403 H 39.8896 -0.048389 2.99661 0
M  V30 404 H 37.4506 0.11946 1.61459 0
M  V30 405 H 39.4426 -2.57652 3.12086 0
M  V30 406 H 38.0126 -2.32597 2.08847 0
M  V30 407 H 37.2326 -0.616925 3.89343 0
M  V30 408 H 38.5206 -1.25458 4.9309 0
M  V30 409 H 37.9186 -4.21677 3.77101 0
M  V30 410 H 36.4756 -4.59391 4.62388 0
M  V30 411 N 39.9087 -1.5758 0.0250728 0
M  V30 412 C 40.8187 -2.1343 -0.973905 0
M  V30 413 C 41.8347 -1.08556 -1.35984 0
M  V30 414 O 43.0107 -1.40592 -1.44207 0
M  V30 415 C 40.0757 -2.64703 -2.23904 0
M  V30 416 C 39.1367 -3.84276 -1.91391 0
M  V30 417 C 38.3697 -4.33095 -3.11873 0
M  V30 418 O 38.5927 -3.81107 -4.24398 0
M  V30 419 O 37.5267 -5.24984 -2.94406 0
M  V30 420 H 41.3527 -2.99057 -0.529036 0
M  V30 421 H 38.9377 -1.48118 -0.195288 0
M  V30 422 H 40.8197 -2.97769 -2.98181 0
M  V30 423 H 39.4947 -1.82161 -2.6758 0
M  V30 424 H 38.4017 -3.56143 -1.14511 0
M  V30 425 H 39.7347 -4.67968 -1.52534 0
M  V30 426 N 41.3868 0.248026 -1.55636 0
M  V30 427 C 42.6348 0.974295 -1.77065 0
M  V30 428 C 42.9558 1.85897 -0.588849 0
M  V30 429 O 42.2258 1.91868 0.395407 0
M  V30 430 H 40.8058 0.362733 -0.653019 0
M  V30 431 H 43.4678 0.266244 -1.93073 0
M  V30 432 H 42.5638 1.59667 -2.68166 0
M  V30 433 N 42.8649 1.48995 0.513639 0
M  V30 434 C 44.2759 1.5119 1.09537 0
M  V30 435 C 44.6269 0.290906 1.94031 0
M  V30 436 O 43.7519 -0.60049 2.07902 0
M  V30 437 C 44.3469 2.73964 1.99322 0
M  V30 438 C 42.9059 2.78978 2.52682 0
M  V30 439 C 42.0529 2.44934 1.30009 0
M  V30 440 H 45.0039 1.55875 0.298125 0
M  V30 441 H 45.0249 2.53409 2.83838 0
M  V30 442 H 44.5369 3.62813 1.37799 0
M  V30 443 H 42.6379 1.94378 3.1788 0
M  V30 444 H 42.7509 3.8083 2.90698 0
M  V30 445 H 41.1149 1.9644 1.62122 0
M  V30 446 H 41.8979 3.36043 0.702131 0
M  V30 447 N 44.343 -0.763751 1.37857 0
M  V30 448 C 45.589 -1.52396 1.3471 0
M  V30 449 C 45.944 -1.92288 -0.0656435 0
M  V30 450 O 45.237 -1.6181 -1.02606 0
M  V30 451 C 45.431 -2.79499 2.22745 0
M  V30 452 C 45.26 -2.52031 3.72438 0
M  V30 453 C 44.03 -2.45759 4.4151 0
M  V30 454 C 46.228 -2.19489 4.65112 0
M  V30 455 N 44.21 -2.1046 5.76697 0
M  V30 456 C 45.581 -1.94396 5.88736 0
M  V30 457 C 47.636 -2.05712 4.53417 0
M  V30 458 C 46.339 -1.56917 7.01975 0
M  V30 459 C 48.365 -1.69634 5.66549 0
M  V30 460 C 47.727 -1.45407 6.89229 0
M  V30 461 H 43.826 -0.55765 0.548225 0
M  V30 462 H 46.41 -0.890302 1.73152 0
M  V30 463 H 44.581 -3.4069 1.86507 0
M  V30 464 H 46.313 -3.45465 2.10798 0
M  V30 465 H 43.068 -2.61885 3.94605 0
M  V30 466 H 43.492 -1.95484 6.48163 0
M  V30 467 H 48.134 -2.23123 3.59133 0
M  V30 468 H 45.852 -1.38246 7.96187 0
M  V30 469 H 49.438 -1.59621 5.59475 0
M  V30 470 H 48.318 -1.17904 7.75286 0
M  V30 471 N 45.8211 -1.22559 -0.990812 0
M  V30 472 C 46.7841 -0.998863 -2.0629 0
M  V30 473 C 47.7841 0.0354834 -1.60761 0
M  V30 474 O 48.9741 -0.203231 -1.7301 0
M  V30 475 C 46.1061 -0.509203 -3.37076 0
M  V30 476 H 47.2991 -1.95014 -2.27837 0
M  V30 477 H 44.8521 -1.04456 -1.16269 0
M  V30 478 H 45.5871 0.446335 -3.21214 0
M  V30 479 H 45.3721 -1.25547 -3.71457 0
M  V30 480 H 46.8621 -0.370888 -4.1595 0
M  V30 481 N 47.2992 1.18797 -1.03562 0
M  V30 482 C 48.5762 1.84469 -0.650434 0
M  V30 483 C 48.9562 1.92319 0.870433 0
M  V30 484 O 48.3042 1.44528 1.76986 0
M  V30 485 C 48.5142 3.2306 -1.32036 0
M  V30 486 C 49.8622 3.9915 -1.44792 0
M  V30 487 O 50.8862 3.32481 -1.27806 0
M  V30 488 O 49.7452 5.18587 -1.72423 0
M  V30 489 H 46.8392 0.795251 -0.226946 0
M  V30 490 H 49.3852 1.26231 -1.13419 0
M  V30 491 H 48.1572 3.1222 -2.3587 0
M  V30 492 H 47.7802 3.88949 -0.8249 0
M  V30 493 N 48.7773 0.814389 1.34928 0
M  V30 494 C 50.1883 0.458364 1.80986 0
M  V30 495 C 50.5393 -1.02042 1.67577 0
M  V30 496 O 49.6643 -1.79352 1.21086 0
M  V30 497 C 50.2593 0.825212 3.28597 0
M  V30 498 C 48.8183 0.521677 3.72767 0
M  V30 499 C 47.9653 1.04668 2.56788 0
M  V30 500 H 50.9163 1.00533 1.22795 0
M  V30 501 H 50.9373 0.12571 3.80292 0
M  V30 502 H 50.4493 1.90154 3.38324 0
M  V30 503 H 48.5503 -0.545589 3.68584 0
M  V30 504 H 48.6633 1.05977 4.67232 0
M  V30 505 H 47.0273 0.468622 2.50352 0
M  V30 506 H 47.8103 2.12927 2.6929 0
M  V30 507 N 50.2554 -1.46986 0.568584 0
M  V30 508 C 51.2184 -2.28624 -0.162366 0
M  V30 509 C 52.2184 -1.37596 -0.832103 0
M  V30 510 O 53.4084 -1.60115 -0.68622 0
M  V30 511 C 50.5404 -3.17596 -1.23878 0
M  V30 512 H 51.7334 -2.94722 0.554899 0
M  V30 513 H 49.2864 -1.52863 0.325976 0
M  V30 514 H 50.0214 -2.56214 -1.98808 0
M  V30 515 H 49.8064 -3.846 -0.763219 0
M  V30 516 H 51.2964 -3.79078 -1.75185 0
M  V30 517 N 51.7335 -0.305618 -1.54608 0
M  V30 518 C 52.6655 0.602161 -2.21149 0
M  V30 519 C 53.6785 1.09394 -1.20569 0
M  V30 520 O 54.8675 1.0106 -1.47136 0
M  V30 521 C 51.9675 1.83692 -2.84799 0
M  V30 522 C 51.1405 1.48686 -4.11353 0
M  V30 523 C 50.1995 2.57725 -4.58764 0
M  V30 524 O 49.2255 2.22623 -5.23858 0
M  V30 525 N 50.4275 3.88346 -4.31471 0
M  V30 526 H 53.1925 0.0324966 -2.99682 0
M  V30 527 H 50.7535 -0.128021 -1.61393 0
M  V30 528 H 52.7455 2.55994 -3.13448 0
M  V30 529 H 51.3155 2.31486 -2.10078 0
M  V30 530 H 50.5355 0.596269 -3.89664 0
M  V30 531 H 51.8235 1.22842 -4.93748 0
M  V30 532 H 51.2215 4.19671 -3.79331 0
M  V30 533 H 49.7785 4.56932 -4.64818 0
M  V30 534 N 53.2116 1.57565 -0.0334293 0
M  V30 535 C 54.1746 2.09393 0.932048 0
M  V30 536 C 55.1746 1.00986 1.25134 0
M  V30 537 O 56.3646 1.27129 1.19096 0
M  V30 538 C 53.4966 2.56338 2.2473 0
M  V30 539 H 54.6896 2.95984 0.483085 0
M  V30 540 H 52.2426 1.54819 0.21468 0
M  V30 541 H 52.9776 1.7309 2.74245 0
M  V30 542 H 52.7626 3.35542 2.02865 0
M  V30 543 H 54.2526 2.96646 2.93923 0
M  V30 544 N 54.6897 -0.239769 1.55765 0
M  V30 545 C 55.9357 -0.968234 1.78194 0
M  V30 546 C 56.2687 -1.84701 0.599938 0
M  V30 547 O 55.5437 -1.9031 -0.401524 0
M  V30 548 C 55.8267 -1.8227 3.10564 0
M  V30 549 C 55.6797 -0.971633 4.3918 0
M  V30 550 C 56.9987 -2.80388 3.39221 0
M  V30 551 H 54.1177 -0.350572 0.648281 0
M  V30 552 H 56.7597 -0.238259 1.885 0
M  V30 553 H 54.9097 -2.44507 3.01908 0
M  V30 554 H 56.5817 -0.367408 4.59835 0
M  V30 555 H 54.8247 -0.276276 4.32919 0
M  V30 556 H 55.4957 -1.60346 5.28198 0
M  V30 557 H 57.9717 -2.28287 3.47885 0
M  V30 558 H 56.8477 -3.3729 4.33044 0
M  V30 559 H 57.1087 -3.57212 2.60484 0
M  V30 560 N 56.1678 -1.49265 -0.50573 0
M  V30 561 C 57.4138 -1.58748 -1.26202 0
M  V30 562 C 57.7468 -0.271227 -1.92297 0
M  V30 563 O 57.0218 0.724831 -1.80489 0
M  V30 564 C 57.3048 -2.74332 -2.33268 0
M  V30 565 C 57.1578 -4.15737 -1.71705 0
M  V30 566 C 58.4768 -2.85576 -3.34865 0
M  V30 567 H 55.5958 -0.577826 -0.457478 0
M  V30 568 H 58.2378 -1.81532 -0.560897 0
M  V30 569 H 56.3878 -2.55036 -2.93068 0
M  V30 570 H 58.0598 -4.46537 -1.15769 0
M  V30 571 H 56.3028 -4.21605 -1.02135 0
M  V30 572 H 56.9738 -4.92477 -2.49341 0
M  V30 573 H 59.4498 -3.03127 -2.8505 0
M  V30 574 H 58.3258 -3.68135 -4.07146 0
M  V30 575 H 58.5868 -1.94732 -3.96903 0
M  V30 576 N 57.6459 0.756429 -1.3826 0
M  V30 577 C 58.5779 1.87971 -1.31147 0
M  V30 578 C 59.5909 1.61248 -0.224239 0
M  V30 579 O 60.7799 1.71881 -0.481581 0
M  V30 580 C 57.8799 3.23545 -1.00857 0
M  V30 581 C 57.0529 3.77794 -2.20432 0
M  V30 582 C 56.1119 4.91877 -1.86931 0
M  V30 583 O 55.1379 5.06659 -2.59395 0
M  V30 584 N 56.3399 5.74643 -0.822568 0
M  V30 585 H 59.1049 1.94585 -2.2794 0
M  V30 586 H 56.6659 0.936234 -1.32084 0
M  V30 587 H 58.6579 3.97403 -0.765021 0
M  V30 588 H 57.2279 3.12335 -0.128687 0
M  V30 589 H 56.4479 2.95534 -2.6087 0
M  V30 590 H 57.7359 4.10771 -3.00241 0
M  V30 591 H 57.1339 5.65266 -0.221575 0
M  V30 592 H 55.6909 6.48661 -0.638899 0
M  V30 593 N 59.124 1.23083 0.984299 0
M  V30 594 C 60.352 1.08714 1.76037 0
M  V30 595 C 60.767 -0.361691 1.85303 0
M  V30 596 O 60.124 -1.25034 1.32939 0
M  V30 597 C 60.175 1.70206 3.18923 0
M  V30 598 O 59.896 3.09423 3.10144 0
M  V30 599 C 61.397 1.61227 4.12941 0
M  V30 600 H 58.617 0.380664 0.552572 0
M  V30 601 H 61.161 1.62853 1.23689 0
M  V30 602 H 59.316 1.20109 3.6831 0
M  V30 603 H 59.73 3.39188 4.00065 0
M  V30 604 H 61.204 2.08962 5.10919 0
M  V30 605 H 61.681 0.570375 4.35481 0
M  V30 606 H 62.287 2.10671 3.69456 0
M  V30 607 N 60.6021 -1.18246 1.0419 0
M  V30 608 C 61.8501 -1.87886 0.744543 0
M  V30 609 C 62.1711 -1.8082 -0.730006 0
M  V30 610 O 61.4411 -1.22736 -1.52685 0
M  V30 611 H 60.0211 -0.695556 0.272417 0
M  V30 612 H 62.6831 -1.43494 1.31892 0
M  V30 613 H 61.7791 -2.9389 1.05049 0
M  V30 614 N 62.0802 -0.821533 -1.34494 0
M  V30 615 C 63.4912 -0.467956 -1.8074 0
M  V30 616 C 63.8422 1.01151 -1.68116 0
M  V30 617 O 62.9672 1.78707 -1.22036 0
M  V30 618 C 63.5622 -0.842627 -3.28154 0
M  V30 619 C 62.1212 -0.541439 -3.72485 0
M  V30 620 C 61.2682 -1.06028 -2.56229 0
M  V30 621 H 64.2192 -1.01183 -1.22261 0
M  V30 622 H 64.2402 -0.145876 -3.8022 0
M  V30 623 H 63.7522 -1.91945 -3.37311 0
M  V30 624 H 61.8532 0.526034 -3.68868 0
M  V30 625 H 61.9662 -1.08453 -4.66663 0
M  V30 626 H 60.3302 -0.481892 -2.501 0
M  V30 627 H 61.1132 -2.14352 -2.68157 0
M  V30 628 N 63.5583 1.46682 -0.576371 0
M  V30 629 C 64.5063 2.31953 0.17335 0
M  V30 630 C 65.5003 1.44098 0.89062 0
M  V30 631 O 66.7063 1.60759 0.809728 0
M  V30 632 H 63.0813 0.748273 0.0747727 0
M  V30 633 H 65.0523 2.93007 -0.564738 0
M  V30 634 C 63.8013 3.27142 1.17786 0
M  V30 635 H 63.1243 3.94719 0.635361 0
M  V30 636 H 64.5643 3.896 1.67296 0
M  V30 637 C 63.0233 2.52036 2.23561 0
M  V30 638 O 63.5533 2.27877 3.3081 0
M  V30 639 N 61.7593 2.12709 1.97998 0
M  V30 640 H 61.3063 2.32557 1.10792 0
M  V30 641 H 61.2643 1.62776 2.68982 0
M  V30 642 N 65.0364 0.313813 1.54444 0
M  V30 643 C 65.9684 -0.590425 2.21465 0
M  V30 644 C 66.9814 -1.08753 1.21147 0
M  V30 645 O 68.1704 -1.00278 1.4767 0
M  V30 646 C 65.2704 -1.82179 2.85769 0
M  V30 647 C 64.4434 -1.46502 4.12136 0
M  V30 648 C 63.5024 -2.55288 4.60124 0
M  V30 649 O 62.5284 -2.19842 5.25032 0
M  V30 650 N 63.7304 -3.86053 4.33525 0
M  V30 651 H 66.4954 -0.0166033 2.99695 0
M  V30 652 H 64.0564 0.136578 1.61323 0
M  V30 653 H 66.0484 -2.54328 3.14801 0
M  V30 654 H 64.6184 -2.30369 2.11303 0
M  V30 655 H 63.8384 -0.575595 3.89975 0
M  V30 656 H 65.1264 -1.20221 4.94393 0
M  V30 657 H 64.5244 -4.17654 3.81552 0
M  V30 658 H 63.0814 -4.54461 4.67235 0
M  V30 659 N 66.5145 -1.57545 0.0417849 0
M  V30 660 C 67.7445 -1.96339 -0.642995 0
M  V30 661 C 68.1525 -0.917536 -1.65463 0
M  V30 662 O 67.4955 0.107747 -1.83384 0
M  V30 663 C 67.5575 -3.31333 -1.39494 0
M  V30 664 C 67.2215 -4.53796 -0.540204 0
M  V30 665 C 68.2185 -5.19553 0.189806 0
M  V30 666 C 65.9035 -5.0006 -0.473886 0
M  V30 667 C 67.8975 -6.29904 0.974674 0
M  V30 668 C 65.5845 -6.10289 0.314677 0
M  V30 669 C 66.5825 -6.75072 1.03765 0
M  V30 670 O 66.2705 -7.83183 1.81327 0
M  V30 671 H 66.0025 -0.651241 -0.181277 0
M  V30 672 H 68.5565 -2.05148 0.101665 0
M  V30 673 H 66.7865 -3.19052 -2.18502 0
M  V30 674 H 68.4755 -3.54942 -1.96904 0
M  V30 675 H 69.2415 -4.84774 0.147981 0
M  V30 676 H 65.1205 -4.49433 -1.0262 0
M  V30 677 H 68.6645 -6.80401 1.5395 0
M  V30 678 H 64.5615 -6.44506 0.358174 0
M  V30 679 H 65.3295 -7.99913 1.73438 0
M  V30 680 N 67.9926 0.231505 -1.5589 0
M  V30 681 C 69.2206 0.974505 -1.82513 0
M  V30 682 C 69.6356 1.78344 -0.619591 0
M  V30 683 O 68.9926 1.77792 0.411848 0
M  V30 684 C 69.0436 1.90007 -3.07538 0
M  V30 685 O 68.7646 1.12385 -4.2344 0
M  V30 686 C 70.2656 2.75779 -3.47075 0
M  V30 687 H 67.4856 0.286065 -0.606966 0
M  V30 688 H 70.0296 0.249739 -2.02969 0
M  V30 689 H 68.1846 2.57891 -2.89086 0
M  V30 690 H 68.5986 1.75125 -4.944 0
M  V30 691 H 70.0726 3.36443 -4.37619 0
M  V30 692 H 70.5496 3.47672 -2.68367 0
M  V30 693 H 71.1556 2.13323 -3.67931 0
M  V30 694 N 69.4707 1.49531 0.497807 0
M  V30 695 C 70.7167 1.59415 1.25358 0
M  V30 696 C 71.0497 0.281422 1.9215 0
M  V30 697 O 70.3247 -0.715249 1.80871 0
M  V30 698 C 70.6077 2.75566 2.3181 0
M  V30 699 C 70.4607 4.16642 1.69498 0
M  V30 700 C 71.7797 2.87347 3.33346 0
M  V30 701 H 68.8987 0.580244 0.454408 0
M  V30 702 H 71.5407 1.81827 0.551262 0
M  V30 703 H 69.6907 2.56587 2.91711 0
M  V30 704 H 71.3627 4.47145 1.13399 0
M  V30 705 H 69.6057 4.22141 0.998978 0
M  V30 706 H 70.2767 4.93792 2.46725 0
M  V30 707 H 72.7527 3.04634 2.83438 0
M  V30 708 H 71.6287 3.70289 4.05188 0
M  V30 709 H 71.8897 1.96834 3.95865 0
M  V30 710 N 70.9488 -0.749086 1.3866 0
M  V30 711 C 72.1788 -1.53611 1.38157 0
M  V30 712 C 72.5868 -1.89177 -0.0293595 0
M  V30 713 O 71.9298 -1.53606 -1.00752 0
M  V30 714 C 71.9918 -2.86087 2.17702 0
M  V30 715 C 71.6558 -2.73034 3.66472 0
M  V30 716 C 72.6528 -2.42526 4.59866 0
M  V30 717 C 70.3378 -2.90345 4.09884 0
M  V30 718 C 72.3318 -2.29492 5.94653 0
M  V30 719 C 70.0188 -2.7693 5.4475 0
M  V30 720 C 71.0168 -2.46547 6.36949 0
M  V30 721 O 70.7048 -2.33199 7.69333 0
M  V30 722 H 70.4368 -0.481773 0.474205 0
M  V30 723 H 72.9908 -0.934465 1.82912 0
M  V30 724 H 71.2208 -3.48458 1.67672 0
M  V30 725 H 72.9098 -3.47625 2.09551 0
M  V30 726 H 73.6758 -2.28816 4.27631 0
M  V30 727 H 69.5548 -3.1299 3.38464 0
M  V30 728 H 73.0988 -2.05698 6.66584 0
M  V30 729 H 68.9958 -2.90215 5.76581 0
M  V30 730 H 69.7638 -2.48376 7.79905 0
M  V30 731 N 72.4269 -1.23603 -0.977757 0
M  V30 732 C 73.6729 -1.07129 -1.72195 0
M  V30 733 C 74.0059 0.390501 -1.90233 0
M  V30 734 O 73.2809 1.28902 -1.45653 0
M  V30 735 C 73.5639 -1.80031 -3.11867 0
M  V30 736 C 73.4169 -3.33899 -3.01383 0
M  V30 737 C 74.7359 -1.56492 -4.11337 0
M  V30 738 H 71.8549 -0.390571 -0.624999 0
M  V30 739 H 74.4969 -1.52142 -1.13811 0
M  V30 740 H 72.6469 -1.41768 -3.6171 0
M  V30 741 H 74.3189 -3.81699 -2.59043 0
M  V30 742 H 72.5619 -3.62796 -2.37827 0
M  V30 743 H 73.2329 -3.801 -4.00285 0
M  V30 744 H 75.7089 -1.89757 -3.70313 0
M  V30 745 H 74.5849 -2.09973 -5.07151 0
M  V30 746 H 74.8459 -0.500874 -4.39254 0
M  V30 747 N 73.905 1.17692 -1.04816 0
M  V30 748 C 74.835 2.23777 -0.666791 0
M  V30 749 C 75.816 1.66796 0.33361 0
M  V30 750 O 77.001 1.93039 0.212042 0
M  V30 751 C 74.131 3.47281 -0.0367933 0
M  V30 752 C 73.085 4.17059 -0.961546 0
M  V30 753 C 72.411 5.34342 -0.195626 0
M  V30 754 C 73.711 4.69713 -2.28402 0
M  V30 755 H 75.405 2.55933 -1.55367 0
M  V30 756 H 72.951 1.23019 -0.748484 0
M  V30 757 H 74.904 4.20706 0.241775 0
M  V30 758 H 73.628 3.14381 0.885004 0
M  V30 759 H 72.287 3.45541 -1.22462 0
M  V30 760 H 71.935 4.97692 0.728816 0
M  V30 761 H 71.635 5.81966 -0.811775 0
M  V30 762 H 73.159 6.10553 0.0757473 0
M  V30 763 H 74.573 5.34794 -2.06563 0
M  V30 764 H 72.97 5.279 -2.8538 0
M  V30 765 H 74.04 3.86726 -2.92525 0
M  V30 766 N 75.3831 0.828654 1.34056 0
M  V30 767 C 76.3461 0.259927 2.27721 0
M  V30 768 C 77.3461 -0.565478 1.50529 0
M  V30 769 O 78.5361 -0.38075 1.69988 0
M  V30 770 C 75.6681 -0.634944 3.34935 0
M  V30 771 H 76.8611 1.0863 2.79534 0
M  V30 772 H 74.4141 0.600951 1.44285 0
M  V30 773 H 75.1491 -1.48416 2.88346 0
M  V30 774 H 74.9341 -0.0444999 3.92075 0
M  V30 775 H 76.4241 -1.02648 4.04788 0
M  V30 776 N 76.8612 -1.46375 0.584142 0
M  V30 777 C 78.1082 -2.02378 0.0702675 0
M  V30 778 C 78.4362 -1.45545 -1.29023 0
M  V30 779 O 77.6912 -0.610967 -1.85918 0
M  V30 780 C 77.9902 -3.57373 -0.0439342 0
M  V30 781 C 77.6562 -4.33252 1.24915 0
M  V30 782 C 76.3182 -4.53701 1.60341 0
M  V30 783 C 78.6702 -4.7681 2.1048 0
M  V30 784 C 75.9982 -5.1496 2.81128 0
M  V30 785 C 78.3502 -5.39404 3.30494 0
M  V30 786 C 77.0142 -5.5808 3.66201 0
M  V30 787 H 76.2842 -0.740554 0.0257127 0
M  V30 788 H 78.9312 -1.75727 0.761065 0
M  V30 789 H 77.2362 -3.83169 -0.817869 0
M  V30 790 H 78.9332 -3.98384 -0.457318 0
M  V30 791 H 75.5232 -4.17633 0.963364 0
M  V30 792 H 79.7072 -4.60766 1.84414 0
M  V30 793 H 74.9632 -5.27611 3.08928 0
M  V30 794 H 79.1372 -5.72114 3.97063 0
M  V30 795 H 76.7642 -6.05318 4.59885 0
M  V30 796 N 78.3393 -0.321999 -1.54275 0
M  V30 797 C 79.3023 0.531975 -2.22941 0
M  V30 798 C 80.3023 1.04478 -1.22234 0
M  V30 799 O 81.4923 0.937452 -1.46825 0
M  V30 800 C 78.6243 1.73874 -2.93224 0
M  V30 801 H 79.8173 -0.0682612 -2.99822 0
M  V30 802 H 77.3703 -0.0730644 -1.56129 0
M  V30 803 H 78.1053 2.37825 -2.20476 0
M  V30 804 H 77.8903 1.37847 -3.6707 0
M  V30 805 H 79.3803 2.34496 -3.45545 0
M  V30 806 N 79.8174 1.5752 -0.0501392 0
M  V30 807 C 81.0644 1.9265 0.623874 0
M  V30 808 C 81.3924 0.928411 1.70912 0
M  V30 809 O 80.6474 -0.0594525 1.9561 0
M  V30 810 C 80.9464 3.34467 1.25963 0
M  V30 811 C 80.6124 4.49883 0.302689 0
M  V30 812 C 79.2744 4.81184 0.0393636 0
M  V30 813 C 81.6264 5.20002 -0.353205 0
M  V30 814 C 78.9544 5.79951 -0.887308 0
M  V30 815 C 81.3064 6.1976 -1.26806 0
M  V30 816 C 79.9704 6.49491 -1.54007 0
M  V30 817 H 79.2404 0.704957 0.228292 0
M  V30 818 H 81.8874 1.91146 -0.116398 0
M  V30 819 H 80.1924 3.32333 2.07514 0
M  V30 820 H 81.8894 3.58928 1.78806 0
M  V30 821 H 78.4794 4.25457 0.518109 0
M  V30 822 H 82.6634 4.96033 -0.162854 0
M  V30 823 H 77.9194 6.01322 -1.10553 0
M  V30 824 H 82.0934 6.73205 -1.78236 0
M  V30 825 H 79.7204 7.25837 -2.25976 0
M  V30 826 N 81.2955 -0.223234 1.56011 0
M  V30 827 C 82.5435 -0.946003 1.78592 0
M  V30 828 C 82.8645 -1.84936 0.618349 0
M  V30 829 O 82.1345 -1.92473 -0.364833 0
M  V30 830 H 80.7145 -0.352298 0.658707 0
M  V30 831 H 83.3765 -0.235494 1.93472 0
M  V30 832 H 82.4725 -1.55381 2.70672 0
M  V30 833 N 82.7736 -1.49793 -0.48987 0
M  V30 834 C 84.0036 -1.6333 -1.26518 0
M  V30 835 C 84.4116 -0.308392 -1.8667 0
M  V30 836 O 83.7546 0.717512 -1.69108 0
M  V30 837 C 83.8166 -2.6522 -2.4269 0
M  V30 838 C 83.4806 -4.09279 -2.03321 0
M  V30 839 C 84.4776 -4.95738 -1.56652 0
M  V30 840 C 82.1626 -4.55082 -2.12616 0
M  V30 841 C 84.1566 -6.26041 -1.19795 0
M  V30 842 C 81.8436 -5.85396 -1.75371 0
M  V30 843 C 82.8416 -6.707 -1.29036 0
M  V30 844 O 82.5296 -7.98584 -0.92299 0
M  V30 845 H 82.2616 -0.552502 -0.389509 0
M  V30 846 H 84.8156 -1.96642 -0.593381 0
M  V30 847 H 83.0456 -2.27112 -3.12981 0
M  V30 848 H 84.7346 -2.68171 -3.04695 0
M  V30 849 H 85.5006 -4.61575 -1.48908 0
M  V30 850 H 81.3796 -3.88844 -2.47631 0
M  V30 851 H 84.9236 -6.92578 -0.835582 0
M  V30 852 H 80.8206 -6.19085 -1.82768 0
M  V30 853 H 81.5886 -8.11692 -1.05349 0
M  V30 854 N 84.2517 0.741722 -1.39055 0
M  V30 855 C 85.1837 1.8657 -1.33133 0
M  V30 856 C 86.1967 1.61001 -0.241329 0
M  V30 857 O 87.3857 1.7136 -0.499784 0
M  V30 858 C 84.4857 3.22457 -1.04283 0
M  V30 859 C 83.6587 3.75435 -2.24427 0
M  V30 860 C 82.7177 4.89867 -1.92138 0
M  V30 861 O 81.7437 5.03879 -2.64754 0
M  V30 862 N 82.9457 5.73738 -0.88347 0
M  V30 863 H 85.7107 1.92156 -2.29991 0
M  V30 864 H 83.2717 0.922172 -1.3307 0
M  V30 865 H 85.2637 3.9657 -0.807128 0
M  V30 866 H 83.8337 3.12181 -0.161807 0
M  V30 867 H 83.0537 2.92751 -2.6399 0
M  V30 868 H 84.3417 4.07563 -3.04581 0
M  V30 869 H 83.7397 5.64999 -0.281517 0
M  V30 870 H 82.2967 6.47947 -0.707662 0
M  V30 871 N 85.7298 1.2412 0.971189 0
M  V30 872 C 87.1408 1.07236 1.52831 0
M  V30 873 C 87.4918 -0.357352 1.92918 0
M  V30 874 O 86.6168 -1.24528 1.76979 0
M  V30 875 C 87.2118 1.94043 2.77728 0
M  V30 876 C 85.7708 1.81394 3.29808 0
M  V30 877 C 84.9178 1.89189 2.02738 0
M  V30 878 H 87.8688 1.37648 0.789864 0
M  V30 879 H 87.8898 1.47066 3.5093 0
M  V30 880 H 87.4018 2.98093 2.4852 0
M  V30 881 H 85.5028 0.801634 3.63874 0
M  V30 882 H 85.6158 2.65294 3.98944 0
M  V30 883 H 83.9798 1.32877 2.17292 0
M  V30 884 H 84.7628 2.94812 1.759 0
M  V30 885 N 87.2079 -1.17134 1.05439 0
M  V30 886 C 88.1559 -2.23289 0.651511 0
M  V30 887 C 89.1499 -1.66186 -0.328411 0
M  V30 888 O 90.3559 -1.78949 -0.194206 0
M  V30 889 H 86.7309 -0.726938 0.192523 0
M  V30 890 H 88.7019 -2.54565 1.55689 0
M  V30 891 C 87.4509 -3.47671 0.0448436 0
M  V30 892 H 86.7739 -3.91918 0.78996 0
M  V30 893 H 88.2139 -4.2353 -0.19964 0
M  V30 894 C 86.6729 -3.14453 -1.20918 0
M  V30 895 O 87.2029 -3.29459 -2.29825 0
M  V30 896 N 85.4089 -2.68657 -1.10779 0
M  V30 897 H 84.9559 -2.56646 -0.221526 0
M  V30 898 H 84.9139 -2.46804 -1.9477 0
M  V30 899 N 88.686 -0.835752 -1.33615 0
M  V30 900 C 90.097 -0.487099 -1.80234 0
M  V30 901 C 90.448 0.993627 -1.69179 0
M  V30 902 O 89.573 1.77403 -1.23924 0
M  V30 903 C 90.168 -0.877385 -3.27242 0
M  V30 904 C 88.727 -0.580915 -3.7189 0
M  V30 905 C 87.874 -1.0874 -2.5509 0
M  V30 906 H 90.825 -1.02474 -1.2118 0
M  V30 907 H 90.846 -0.186195 -3.80044 0
M  V30 908 H 90.358 -1.95512 -3.35256 0
M  V30 909 H 88.459 0.486881 -3.69405 0
M  V30 910 H 88.572 -1.13396 -4.65487 0
M  V30 911 H 86.936 -0.508392 -2.49575 0
M  V30 912 H 87.719 -2.17184 -2.65868 0
M  V30 913 N 90.1641 1.46063 -0.591896 0
M  V30 914 C 91.4131 2.01547 -0.0786637 0
M  V30 915 C 91.7261 1.46796 1.29268 0
M  V30 916 O 92.9321 1.94157 1.89777 0
M  V30 917 C 91.3881 3.59787 -0.0900024 0
M  V30 918 C 90.9961 4.23534 -1.46023 0
M  V30 919 C 92.7401 4.22895 0.368806 0
M  V30 920 C 90.6471 5.73881 -1.4288 0
M  V30 921 H 89.5771 0.753564 -0.0256388 0
M  V30 922 H 92.2281 1.677 -0.744905 0
M  V30 923 H 90.6101 3.90752 0.642586 0
M  V30 924 H 91.7841 4.04167 -2.21328 0
M  V30 925 H 90.0991 3.72558 -1.85982 0
M  V30 926 H 92.6961 5.33116 0.411258 0
M  V30 927 H 93.0391 3.9247 1.38827 0
M  V30 928 H 93.5721 3.9659 -0.31001 0
M  V30 929 H 90.3111 6.0898 -2.42536 0
M  V30 930 H 89.8311 5.95486 -0.718095 0
M  V30 931 H 91.5101 6.36776 -1.14565 0
M  V30 932 N 91.6422 0.330177 1.54103 0
M  V30 933 C 92.5522 -0.541534 2.28264 0
M  V30 934 C 93.5682 -1.12351 1.32866 0
M  V30 935 O 94.7442 -1.14206 1.65888 0
M  V30 936 C 91.8092 -1.68322 3.03098 0
M  V30 937 C 90.8702 -1.13238 4.14096 0
M  V30 938 C 90.1032 -2.21966 4.85352 0
M  V30 939 O 90.3262 -3.42437 4.56172 0
M  V30 940 O 89.2602 -1.87013 5.7211 0
M  V30 941 H 93.0862 0.060938 3.03639 0
M  V30 942 H 90.6712 0.09565 1.49093 0
M  V30 943 H 92.5532 -2.34777 3.49939 0
M  V30 944 H 91.2282 -2.27176 2.30593 0
M  V30 945 H 90.1352 -0.432736 3.71589 0
M  V30 946 H 91.4682 -0.588898 4.88664 0
M  V30 947 N 93.1203 -1.57491 0.0584922 0
M  V30 948 C 94.3663 -1.93264 -0.614558 0
M  V30 949 C 94.6993 -0.937717 -1.7006 0
M  V30 950 O 93.9743 0.0351652 -1.94468 0
M  V30 951 C 94.2573 -3.3938 -1.20386 0
M  V30 952 C 94.1103 -4.49625 -0.125375 0
M  V30 953 C 95.4293 -3.86039 -2.11334 0
M  V30 954 H 92.5483 -0.702791 -0.221933 0
M  V30 955 H 95.1903 -1.8961 0.12175 0
M  V30 956 H 93.3403 -3.42626 -1.83139 0
M  V30 957 H 95.0123 -4.58506 0.506971 0
M  V30 958 H 93.2553 -4.30354 0.545672 0
M  V30 959 H 93.9263 -5.48967 -0.577861 0
M  V30 960 H 96.4023 -3.84716 -1.58534 0
M  V30 961 H 95.2783 -4.88914 -2.49507 0
M  V30 962 H 95.5393 -3.23215 -3.01636 0
M  V30 963 N 94.5984 0.214957 -1.56127 0
M  V30 964 C 96.0094 0.781386 -1.69562 0
M  V30 965 C 96.3604 1.84707 -0.66165 0
M  V30 966 O 95.4854 2.156 0.185927 0
M  V30 967 C 96.0804 1.42411 -3.07416 0
M  V30 968 C 94.6394 1.93786 -3.22683 0
M  V30 969 C 93.7864 0.800438 -2.65496 0
M  V30 970 H 96.7374 -0.00980633 -1.58697 0
M  V30 971 H 96.7584 2.29309 -3.0364 0
M  V30 972 H 96.2704 0.64826 -3.82648 0
M  V30 973 H 94.3714 2.74152 -2.52332 0
M  V30 974 H 94.4844 2.1133 -4.29973 0
M  V30 975 H 92.8484 1.2095 -2.2415 0
M  V30 976 H 93.6314 0.0371471 -3.4328 0
M  V30 977 N 96.0765 1.50051 0.48192 0
M  V30 978 C 97.0085 1.64263 1.59844 0
M  V30 979 C 98.0215 0.52451 1.54119 0
M  V30 980 O 99.2105 0.797293 1.59704 0
M  V30 981 C 96.3105 1.60102 2.98698 0
M  V30 982 C 95.4835 2.87767 3.29407 0
M  V30 983 C 94.5425 2.76397 4.47762 0
M  V30 984 O 93.5685 3.50348 4.48603 0
M  V30 985 N 94.7705 1.89222 5.48794 0
M  V30 986 H 97.5355 2.60566 1.48073 0
M  V30 987 H 95.0965 1.47379 0.670149 0
M  V30 988 H 97.0885 1.50123 3.75826 0
M  V30 989 H 95.6585 0.715798 3.04294 0
M  V30 990 H 94.8785 3.11954 2.40994 0
M  V30 991 H 96.1665 3.72365 3.4673 0
M  V30 992 H 95.5645 1.28434 5.50928 0
M  V30 993 H 94.1215 1.85154 6.24949 0
M  V30 994 N 97.5546 -0.734337 1.39446 0
M  V30 995 C 98.8026 -1.49096 1.36436 0
M  V30 996 C 99.1236 -1.94961 -0.0388255 0
M  V30 997 O 98.3936 -1.69033 -0.990191 0
M  V30 998 H 96.9736 -0.5531 0.502085 0
M  V30 999 H 99.6356 -0.871725 1.74319 0
M  V30 1000 H 98.7316 -2.37276 2.02747 0
M  V30 1001 N 99.0327 -1.24633 -0.964593 0
M  V30 1002 C 99.9957 -1.0424 -2.04124 0
M  V30 1003 C 100.996 0.00137563 -1.608 0
M  V30 1004 O 102.186 -0.239883 -1.7254 0
M  V30 1005 C 99.3177 -0.580588 -3.3592 0
M  V30 1006 H 100.511 -1.99803 -2.23649 0
M  V30 1007 H 98.0637 -1.06899 -1.14027 0
M  V30 1008 H 98.7987 0.3781 -3.22088 0
M  V30 1009 H 98.5837 -1.33398 -3.6871 0
M  V30 1010 H 100.074 -0.459034 -4.15069 0
M  V30 1011 N 100.511 1.16574 -1.06058 0
M  V30 1012 C 101.421 2.2452 -0.680282 0
M  V30 1013 C 102.437 1.71348 0.302604 0
M  V30 1014 O 103.613 2.00822 0.152513 0
M  V30 1015 C 100.678 3.46629 -0.0700315 0
M  V30 1016 C 99.7388 4.14849 -1.10448 0
M  V30 1017 C 98.9718 5.31129 -0.523256 0
M  V30 1018 O 99.1948 5.66514 0.664709 0
M  V30 1019 O 98.1288 5.88526 -1.26179 0
M  V30 1020 H 101.955 2.59355 -1.58015 0
M  V30 1021 H 99.5398 1.24043 -0.832694 0
M  V30 1022 H 101.422 4.20543 0.268667 0
M  V30 1023 H 100.097 3.13573 0.803353 0
M  V30 1024 H 99.0038 3.42916 -1.49532 0
M  V30 1025 H 100.337 4.51954 -1.94931 0
M  V30 1026 N 101.989 0.842826 1.3317 0
M  V30 1027 C 103.238 0.436738 1.96915 0
M  V30 1028 C 103.551 -1.01025 1.67491 0
M  V30 1029 O 104.757 -1.5212 2.24881 0
M  V30 1030 C 103.213 0.730021 3.52418 0
M  V30 1031 C 102.821 2.19195 3.90714 0
M  V30 1032 C 104.565 0.391076 4.22695 0
M  V30 1033 C 102.472 2.42907 5.39212 0
M  V30 1034 H 101.402 0.15958 0.736919 0
M  V30 1035 H 104.053 1.03196 1.51733 0
M  V30 1036 H 102.435 0.0643755 3.95948 0
M  V30 1037 H 103.609 2.8984 3.58231 0
M  V30 1038 H 101.924 2.49425 3.33431 0
M  V30 1039 H 104.521 0.545817 5.31907 0
M  V30 1040 H 104.864 -0.666294 4.10933 0
M  V30 1041 H 105.397 1.01212 3.84709 0
M  V30 1042 H 102.136 3.47224 5.55982 0
M  V30 1043 H 101.656 1.76827 5.73142 0
M  V30 1044 H 103.335 2.2626 6.06148 0
M  V30 1045 N 103.467 -1.45747 0.599634 0
M  V30 1046 C 104.713 -2.02592 0.0918643 0
M  V30 1047 C 105.046 -1.46806 -1.27128 0
M  V30 1048 O 104.321 -0.639658 -1.83681 0
M  V30 1049 C 104.604 -3.60073 0.0443398 0
M  V30 1050 C 104.457 -4.26208 1.43759 0
M  V30 1051 C 105.776 -4.35309 -0.647608 0
M  V30 1052 H 102.895 -0.736175 0.034857 0
M  V30 1053 H 105.537 -1.73694 0.770081 0
M  V30 1054 H 103.687 -3.84823 -0.533224 0
M  V30 1055 H 105.359 -4.12668 2.06162 0
M  V30 1056 H 103.602 -3.84916 2.00056 0
M  V30 1057 H 104.273 -5.35069 1.35665 0
M  V30 1058 H 106.749 -4.15805 -0.156776 0
M  V30 1059 H 105.625 -5.45038 -0.649942 0
M  V30 1060 H 105.886 -4.07598 -1.71219 0
M  V30 1061 N 104.945 -0.338344 -1.53925 0
M  V30 1062 C 106.192 0.259758 -2.00827 0
M  V30 1063 C 106.52 1.50973 -1.22628 0
M  V30 1064 O 105.775 1.93379 -0.300509 0
M  V30 1065 C 106.074 0.62448 -3.51902 0
M  V30 1066 C 105.74 -0.528006 -4.47798 0
M  V30 1067 C 104.402 -0.844298 -4.73735 0
M  V30 1068 C 106.754 -1.30143 -5.0469 0
M  V30 1069 C 104.082 -1.93648 -5.53821 0
M  V30 1070 C 106.434 -2.38382 -5.85967 0
M  V30 1071 C 105.098 -2.70576 -6.10201 0
M  V30 1072 H 104.368 0.0950523 -0.734878 0
M  V30 1073 H 107.015 -0.465182 -1.85764 0
M  V30 1074 H 105.32 1.43006 -3.64769 0
M  V30 1075 H 107.017 1.09905 -3.85645 0
M  V30 1076 H 103.607 -0.271421 -4.2774 0
M  V30 1077 H 107.791 -1.07033 -4.84621 0
M  V30 1078 H 103.047 -2.19021 -5.70824 0
M  V30 1079 H 107.221 -2.98746 -6.29066 0
M  V30 1080 H 104.848 -3.55333 -6.72044 0
M  V30 1081 N 106.423 1.57458 -0.0668435 0
M  V30 1082 C 107.37 2.12439 0.902122 0
M  V30 1083 C 108.34 1.03565 1.2986 0
M  V30 1084 O 109.525 1.312 1.38532 0
M  V30 1085 C 106.665 2.6865 2.16614 0
M  V30 1086 C 105.778 3.91663 1.82274 0
M  V30 1087 C 104.913 4.36134 3.0325 0
M  V30 1088 C 103.952 5.51808 2.64904 0
M  V30 1089 N 103.089 5.9126 3.78624 0
M  V30 1090 H 107.929 2.94934 0.426382 0
M  V30 1091 H 105.466 1.4575 0.198819 0
M  V30 1092 H 107.424 2.99346 2.90599 0
M  V30 1093 H 106.054 1.88928 2.61737 0
M  V30 1094 H 105.106 3.6746 0.983719 0
M  V30 1095 H 106.418 4.75693 1.50059 0
M  V30 1096 H 105.572 4.68465 3.85519 0
M  V30 1097 H 104.311 3.50948 3.38655 0
M  V30 1098 H 103.316 5.19133 1.81055 0
M  V30 1099 H 104.541 6.38722 2.30675 0
M  V30 1100 H 102.487 5.09024 4.138 0
M  V30 1101 H 102.404 6.70018 3.5016 0
M  V30 1102 H 103.672 6.28212 4.61486 0
M  V30 1103 N 107.901 -0.206675 1.56239 0
M  V30 1104 C 109.15 -0.926964 1.79138 0
M  V30 1105 C 109.463 -1.84901 0.638043 0
M  V30 1106 O 110.669 -2.60906 0.751033 0
M  V30 1107 C 109.125 -1.6986 3.17294 0
M  V30 1108 C 108.733 -0.821956 4.40395 0
M  V30 1109 C 110.477 -2.40922 3.4951 0
M  V30 1110 C 108.384 -1.59179 5.69575 0
M  V30 1111 H 107.314 -0.349864 0.667915 0
M  V30 1112 H 109.965 -0.180487 1.8261 0
M  V30 1113 H 108.347 -2.48853 3.08039 0
M  V30 1114 H 109.521 -0.0715019 4.60745 0
M  V30 1115 H 107.836 -0.222741 4.15804 0
M  V30 1116 H 110.433 -2.99047 4.43255 0
M  V30 1117 H 110.776 -3.14542 2.72707 0
M  V30 1118 H 111.309 -1.68905 3.60161 0
M  V30 1119 H 108.048 -0.898589 6.49312 0
M  V30 1120 H 107.568 -2.31648 5.53262 0
M  V30 1121 H 109.247 -2.14862 6.10281 0
M  V30 1122 N 109.379 -1.50304 -0.473955 0
M  V30 1123 C 110.607 -1.64902 -1.24959 0
M  V30 1124 C 111.022 -0.331198 -1.85872 0
M  V30 1125 O 110.379 0.68652 -1.69095 0
M  V30 1126 C 110.43 -2.73803 -2.36038 0
M  V30 1127 O 110.151 -4.00477 -1.77624 0
M  V30 1128 C 111.652 -2.99349 -3.26964 0
M  V30 1129 H 108.872 -0.554383 -0.378022 0
M  V30 1130 H 111.416 -1.9651 -0.566054 0
M  V30 1131 H 109.571 -2.44898 -3.00173 0
M  V30 1132 H 109.985 -4.60678 -2.5075 0
M  V30 1133 H 111.459 -3.79217 -4.01121 0
M  V30 1134 H 111.936 -2.10307 -3.85574 0
M  V30 1135 H 112.542 -3.29774 -2.68569 0
M  V30 1136 N 110.857 0.726932 -1.39834 0
M  V30 1137 C 112.082 1.52121 -1.40976 0
M  V30 1138 C 112.507 1.88098 -0.00826029 0
M  V30 1139 O 111.865 1.52479 0.980807 0
M  V30 1140 C 111.913 2.78021 -2.29644 0
M  V30 1141 O 111.017 3.74272 -1.73188 0
M  V30 1142 H 110.358 0.45908 -0.479731 0
M  V30 1143 H 112.888 0.896207 -1.83927 0
M  V30 1144 H 112.898 3.26671 -2.44438 0
M  V30 1145 H 111.573 2.51169 -3.31492 0
M  V30 1146 H 110.15 3.33073 -1.6768 0
M  V30 1147 N 112.336 1.25143 0.95797 0
M  V30 1148 C 113.747 1.08851 1.51685 0
M  V30 1149 C 114.098 -0.33687 1.93286 0
M  V30 1150 O 113.223 -1.22644 1.7829 0
M  V30 1151 C 113.818 1.96978 2.75654 0
M  V30 1152 C 112.377 1.84881 3.27866 0
M  V30 1153 C 111.524 1.91329 2.0072 0
M  V30 1154 H 114.475 1.38478 0.77522 0
M  V30 1155 H 114.496 1.5078 3.4935 0
M  V30 1156 H 114.008 3.00712 2.45345 0
M  V30 1157 H 112.109 0.840182 3.63004 0
M  V30 1158 H 112.222 2.6951 3.96107 0
M  V30 1159 H 110.586 1.35174 2.15871 0
M  V30 1160 H 111.369 2.96661 1.72764 0
M  V30 1161 N 113.814 -1.1601 1.06675 0
M  V30 1162 C 115.091 -1.82679 0.699114 0
M  V30 1163 C 115.471 -1.94559 -0.819137 0
M  V30 1164 O 114.819 -1.49169 -1.73092 0
M  V30 1165 C 115.029 -3.19445 1.40555 0
M  V30 1166 C 116.377 -3.95171 1.55323 0
M  V30 1167 O 117.401 -3.28976 1.36577 0
M  V30 1168 O 116.26 -5.13833 1.86112 0
M  V30 1169 H 113.354 -0.788954 0.247951 0
M  V30 1170 H 115.9 -1.23179 1.16726 0
M  V30 1171 H 114.672 -3.05856 2.44065 0
M  V30 1172 H 114.295 -3.86625 0.927733 0
M  V30 1173 N 115.292 -0.849877 -1.32721 0
M  V30 1174 C 116.538 -0.451591 -1.97708 0
M  V30 1175 C 116.871 0.989175 -1.6712 0
M  V30 1176 O 116.146 1.69334 -0.956891 0
M  V30 1177 C 116.429 -0.685598 -3.53513 0
M  V30 1178 C 116.282 -2.17444 -3.93749 0
M  V30 1179 C 117.601 -0.138874 -4.39881 0
M  V30 1180 H 114.72 -0.16555 -0.718166 0
M  V30 1181 H 117.362 -1.06742 -1.57182 0
M  V30 1182 H 115.512 -0.161416 -3.88165 0
M  V30 1183 H 117.184 -2.76433 -3.693 0
M  V30 1184 H 115.427 -2.65476 -3.43081 0
M  V30 1185 H 116.098 -2.28888 -5.02309 0
M  V30 1186 H 118.574 -0.587068 -4.11938 0
M  V30 1187 H 117.45 -0.332213 -5.47894 0
M  V30 1188 H 117.711 0.95806 -4.31594 0
M  V30 1189 N 116.77 1.45427 -0.607355 0
M  V30 1190 C 118.019 2.01452 -0.100036 0
M  V30 1191 C 118.332 1.48159 1.27704 0
M  V30 1192 O 119.538 1.96159 1.87707 0
M  V30 1193 C 117.994 3.59672 -0.128158 0
M  V30 1194 C 117.602 4.21962 -1.50507 0
M  V30 1195 C 119.346 4.23262 0.323932 0
M  V30 1196 C 117.253 5.72333 -1.48959 0
M  V30 1197 H 116.183 0.75325 -0.0336299 0
M  V30 1198 H 118.834 1.66901 -0.76265 0
M  V30 1199 H 117.216 3.91411 0.601105 0
M  V30 1200 H 118.39 4.01796 -2.25602 0
M  V30 1201 H 116.705 3.70565 -1.89923 0
M  V30 1202 H 119.302 5.33522 0.354691 0
M  V30 1203 H 119.645 3.93921 1.34656 0
M  V30 1204 H 120.178 3.96239 -0.352056 0
M  V30 1205 H 116.917 6.06373 -2.48981 0
M  V30 1206 H 116.437 5.94691 -0.781214 0
M  V30 1207 H 118.116 6.35525 -1.21313 0
M  V30 1208 N 118.248 0.346503 1.53744 0
M  V30 1209 C 119.198 -0.524953 2.21874 0
M  V30 1210 C 120.182 -1.06376 1.20718 0
M  V30 1211 O 121.374 -0.996972 1.46251 0
M  V30 1212 C 118.503 -1.6739 2.99726 0
M  V30 1213 C 117.589 -1.14888 4.08242 0
M  V30 1214 N 117.98 -0.345329 5.0462 0
M  V30 1215 C 116.278 -1.4255 4.22606 0
M  V30 1216 C 116.979 -0.0600706 5.81669 0
M  V30 1217 N 115.955 -0.65252 5.39669 0
M  V30 1218 H 119.757 0.0960091 2.93743 0
M  V30 1219 H 117.271 0.15352 1.61673 0
M  V30 1220 H 119.268 -2.3102 3.47038 0
M  V30 1221 H 117.928 -2.29811 2.29384 0
M  V30 1222 H 118.939 0.0138439 5.17898 0
M  V30 1223 H 115.616 -2.05389 3.63486 0
M  V30 1224 H 117.006 0.588321 6.69319 0
M  V30 1225 N 119.726 -1.57421 0.075193 0
M  V30 1226 C 120.974 -1.93236 -0.591974 0
M  V30 1227 C 121.295 -0.956241 -1.69944 0
M  V30 1228 O 120.565 -0.00494792 -1.95899 0
M  V30 1229 H 119.145 -0.713355 -0.22166 0
M  V30 1230 H 121.807 -1.9444 0.133848 0
M  V30 1231 H 120.903 -2.95131 -1.01509 0
M  V30 1232 N 121.204 0.198386 -1.56346 0
M  V30 1233 C 122.451 0.919286 -1.80431 0
M  V30 1234 C 122.779 1.83393 -0.647866 0
M  V30 1235 O 122.034 1.92236 0.366556 0
M  V30 1236 C 122.333 1.77031 -3.10475 0
M  V30 1237 C 121.999 1.00693 -4.39513 0
M  V30 1238 C 120.661 0.796145 -4.74568 0
M  V30 1239 C 123.013 0.469559 -5.19081 0
M  V30 1240 C 120.341 0.0364588 -5.86689 0
M  V30 1241 C 122.693 -0.2769 -6.31994 0
M  V30 1242 C 121.357 -0.49873 -6.65634 0
M  V30 1243 H 120.627 0.336391 -0.660244 0
M  V30 1244 H 123.274 0.185872 -1.90596 0
M  V30 1245 H 121.579 2.5723 -2.95533 0
M  V30 1246 H 123.276 2.33065 -3.26315 0
M  V30 1247 H 119.866 1.18122 -4.12001 0
M  V30 1248 H 124.05 0.619816 -4.92414 0
M  V30 1249 H 119.306 -0.145412 -6.11227 0
M  V30 1250 H 123.48 -0.700684 -6.92866 0
M  V30 1251 H 121.107 -1.0893 -7.52355 0
M  V30 1252 N 122.682 1.50554 0.465978 0
M  V30 1253 C 123.632 1.66177 1.56106 0
M  V30 1254 C 124.616 0.516265 1.52393 0
M  V30 1255 O 125.808 0.770906 1.5933 0
M  V30 1256 C 122.937 1.76396 2.94515 0
M  V30 1257 C 122.023 2.9664 3.03093 0
M  V30 1258 N 122.414 4.20245 2.81474 0
M  V30 1259 C 120.712 2.95304 3.34233 0
M  V30 1260 C 121.413 5.01259 2.95151 0
M  V30 1261 N 120.389 4.35318 3.25576 0
M  V30 1262 H 124.191 2.59434 1.38099 0
M  V30 1263 H 121.705 1.47808 0.6728 0
M  V30 1264 H 123.702 1.85694 3.73261 0
M  V30 1265 H 122.362 0.843017 3.13565 0
M  V30 1266 H 123.373 4.4966 2.56956 0
M  V30 1267 H 120.05 2.12729 3.59239 0
M  V30 1268 H 121.44 6.09564 2.82632 0
M  V30 1269 N 124.16 -0.719506 1.40217 0
M  V30 1270 C 125.406 -1.48152 1.38488 0
M  V30 1271 C 125.739 -1.94195 -0.0141867 0
M  V30 1272 O 125.014 -1.67884 -0.982096 0
M  V30 1273 C 125.297 -2.71035 2.37091 0
M  V30 1274 C 125.15 -2.30912 3.86005 0
M  V30 1275 C 126.469 -3.73182 2.33288 0
M  V30 1276 H 123.588 -0.537395 0.504357 0
M  V30 1277 H 126.23 -0.821472 1.71324 0
M  V30 1278 H 124.38 -3.27352 2.0922 0
M  V30 1279 H 126.052 -1.80107 4.24687 0
M  V30 1280 H 124.295 -1.62958 4.02029 0
M  V30 1281 H 124.966 -3.18978 4.50508 0
M  V30 1282 H 127.442 -3.26485 2.57966 0
M  V30 1283 H 126.318 -4.56806 3.04334 0
M  V30 1284 H 126.579 -4.21202 1.34317 0
M  V30 1285 N 125.638 -1.25649 -0.95132 0
M  V30 1286 C 126.548 -1.08073 -2.08224 0
M  V30 1287 C 127.564 -0.0169666 -1.73992 0
M  V30 1288 O 128.74 -0.218593 -2.0021 0
M  V30 1289 C 125.805 -0.704922 -3.39458 0
M  V30 1290 C 124.866 -1.84699 -3.87537 0
M  V30 1291 C 124.099 -1.48902 -5.12508 0
M  V30 1292 O 124.322 -0.386156 -5.69091 0
M  V30 1293 O 123.256 -2.32033 -5.55378 0
M  V30 1294 H 127.082 -2.02924 -2.25954 0
M  V30 1295 H 124.667 -1.04618 -1.06656 0
M  V30 1296 H 126.549 -0.507609 -4.18332 0
M  V30 1297 H 125.224 0.214291 -3.2299 0
M  V30 1298 H 124.131 -2.09919 -3.09653 0
M  V30 1299 H 125.464 -2.74557 -4.08509 0
M  V30 1300 N 127.117 1.15442 -1.07289 0
M  V30 1301 C 128.365 1.85845 -0.794096 0
M  V30 1302 C 128.686 1.82692 0.681809 0
M  V30 1303 O 127.956 1.26741 1.49377 0
M  V30 1304 H 126.536 0.688089 -0.290763 0
M  V30 1305 H 129.198 1.39947 -1.3565 0
M  V30 1306 H 128.294 2.91001 -1.12804 0
M  V30 1307 N 128.595 0.856903 1.32268 0
M  V30 1308 C 129.823 0.475439 2.01363 0
M  V30 1309 C 130.238 -0.928486 1.64392 0
M  V30 1310 O 129.595 -1.60624 0.866387 0
M  V30 1311 C 129.646 0.607545 3.56358 0
M  V30 1312 O 129.367 1.95617 3.92002 0
M  V30 1313 C 130.868 0.225382 4.42727 0
M  V30 1314 H 128.088 0.186636 0.644521 0
M  V30 1315 H 130.632 1.15446 1.68797 0
M  V30 1316 H 128.787 -0.0237719 3.87393 0
M  V30 1317 H 129.201 1.95455 4.86721 0
M  V30 1318 H 130.675 0.368813 5.50767 0
M  V30 1319 H 131.152 -0.834369 4.31202 0
M  V30 1320 H 131.758 0.831864 4.17085 0
M  V30 1321 N 130.073 -1.45103 0.615059 0
M  V30 1322 C 131.021 -2.32331 -0.111791 0
M  V30 1323 C 132.015 -1.46409 -0.852102 0
M  V30 1324 O 133.221 -1.62849 -0.766821 0
M  V30 1325 H 129.596 -0.749993 -0.0549072 0
M  V30 1326 H 131.567 -2.91407 0.642225 0
M  V30 1327 C 130.316 -3.3015 -1.09071 0
M  V30 1328 H 129.639 -3.96265 -0.530485 0
M  V30 1329 H 131.079 -3.93898 -1.56908 0
M  V30 1330 C 129.538 -2.57875 -2.168 0
M  V30 1331 O 130.068 -2.36567 -3.24652 0
M  V30 1332 N 128.274 -2.17884 -1.92289 0
M  V30 1333 H 127.821 -2.35413 -1.04587 0
M  V30 1334 H 127.779 -1.6985 -2.64572 0
M  V30 1335 N 131.551 -0.354651 -1.53558 0
M  V30 1336 C 132.8 0.239504 -2.00273 0
M  V30 1337 C 133.113 1.50759 -1.24623 0
M  V30 1338 O 134.319 2.17968 -1.61871 0
M  V30 1339 C 132.775 0.477341 -3.5672 0
M  V30 1340 C 132.383 -0.775488 -4.41237 0
M  V30 1341 C 134.127 1.02975 -4.11821 0
M  V30 1342 C 132.034 -0.507838 -5.89216 0
M  V30 1343 H 130.964 0.0932743 -0.748208 0
M  V30 1344 H 133.615 -0.471701 -1.77334 0
M  V30 1345 H 131.997 1.24953 -3.7577 0
M  V30 1346 H 133.171 -1.54963 -4.33962 0
M  V30 1347 H 131.486 -1.25033 -3.97185 0
M  V30 1348 H 134.083 1.24513 -5.2 0
M  V30 1349 H 134.426 1.98862 -3.65731 0
M  V30 1350 H 134.959 0.317994 -3.96527 0
M  V30 1351 H 131.698 -1.43674 -6.39561 0
M  V30 1352 H 131.218 0.228011 -5.99366 0
M  V30 1353 H 132.897 -0.129238 -6.46871 0
M  V30 1354 N 133.029 1.57378 -0.0835403 0
M  V30 1355 C 133.977 2.14602 0.89714 0
M  V30 1356 C 134.971 1.08589 1.30018 0
M  V30 1357 O 136.177 1.26952 1.27606 0
M  V30 1358 H 132.552 0.686346 0.3073 0
M  V30 1359 H 134.523 2.95845 0.38969 0
M  V30 1360 C 133.272 2.73188 2.15089 0
M  V30 1361 H 132.595 3.54442 1.84962 0
M  V30 1362 H 134.035 3.1681 2.81793 0
M  V30 1363 C 132.494 1.68517 2.91725 0
M  V30 1364 O 133.024 1.11718 3.85852 0
M  V30 1365 N 131.23 1.39277 2.55049 0
M  V30 1366 H 130.777 1.85655 1.78577 0
M  V30 1367 H 130.735 0.694791 3.06627 0
M  V30 1368 N 134.507 -0.190092 1.56449 0
M  V30 1369 C 135.753 -0.911052 1.81184 0
M  V30 1370 C 136.086 -1.82699 0.658396 0
M  V30 1371 O 135.361 -1.91491 -0.340775 0
M  V30 1372 C 135.644 -1.72297 3.16205 0
M  V30 1373 C 135.497 -0.831419 4.42049 0
M  V30 1374 C 136.816 -2.69454 3.47969 0
M  V30 1375 H 133.935 -0.32977 0.659106 0
M  V30 1376 H 136.577 -0.178169 1.89163 0
M  V30 1377 H 134.727 -2.34778 3.09534 0
M  V30 1378 H 136.399 -0.220929 4.60771 0
M  V30 1379 H 134.642 -0.138406 4.33579 0
M  V30 1380 H 135.313 -1.43461 5.33032 0
M  V30 1381 H 137.789 -2.17104 3.54972 0
M  V30 1382 H 136.665 -3.23342 4.43555 0
M  V30 1383 H 136.926 -3.48744 2.71717 0
M  V30 1384 N 135.985 -1.50799 -0.457987 0
M  V30 1385 C 136.895 -1.73426 -1.57989 0
M  V30 1386 C 137.911 -0.617745 -1.62665 0
M  V30 1387 O 139.087 -0.897614 -1.80291 0
M  V30 1388 C 136.152 -1.83557 -2.94122 0
M  V30 1389 C 135.213 -3.07345 -2.99729 0
M  V30 1390 C 134.446 -3.16983 -4.29368 0
M  V30 1391 O 134.669 -2.33077 -5.20607 0
M  V30 1392 O 133.603 -4.09812 -4.40837 0
M  V30 1393 H 137.429 -2.68555 -1.41817 0
M  V30 1394 H 135.014 -1.35052 -0.638859 0
M  V30 1395 H 136.896 -1.92326 -3.74952 0
M  V30 1396 H 135.571 -0.916137 -3.10465 0
M  V30 1397 H 134.478 -3.04068 -2.1793 0
M  V30 1398 H 135.811 -3.9891 -2.88326 0
M  V30 1399 N 137.463 0.71206 -1.40597 0
M  V30 1400 C 138.709 1.47416 -1.39271 0
M  V30 1401 C 139.042 1.942 0.00388791 0
M  V30 1402 O 138.317 1.68403 0.973179 0
M  V30 1403 C 138.6 2.69774 -2.38525 0
M  V30 1404 C 138.453 2.28861 -3.87224 0
M  V30 1405 C 139.772 3.71939 -2.35264 0
M  V30 1406 H 136.891 0.534713 -0.5072 0
M  V30 1407 H 139.533 0.812375 -1.71757 0
M  V30 1408 H 137.683 3.26238 -2.10953 0
M  V30 1409 H 139.355 1.77852 -4.25636 0
M  V30 1410 H 137.598 1.60824 -4.02887 0
M  V30 1411 H 138.269 3.16584 -4.52193 0
M  V30 1412 H 140.745 3.25113 -2.59694 0
M  V30 1413 H 139.621 4.55186 -3.06753 0
M  V30 1414 H 139.882 4.20484 -1.36549 0
M  V30 1415 N 138.941 1.26152 0.944643 0
M  V30 1416 C 139.871 1.09902 2.06019 0
M  V30 1417 C 140.852 0.00519538 1.70099 0
M  V30 1418 O 142.037 0.176583 1.93396 0
M  V30 1419 C 139.167 0.727562 3.39594 0
M  V30 1420 C 138.121 1.77274 3.89561 0
M  V30 1421 C 137.447 1.25569 5.19747 0
M  V30 1422 C 138.747 3.17357 4.14827 0
M  V30 1423 H 140.441 2.03217 2.19871 0
M  V30 1424 H 137.987 0.978452 1.05652 0
M  V30 1425 H 139.94 0.600777 4.17095 0
M  V30 1426 H 138.664 -0.241287 3.25707 0
M  V30 1427 H 137.323 1.88814 3.14237 0
M  V30 1428 H 136.971 0.276783 5.02238 0
M  V30 1429 H 136.671 1.95433 5.54148 0
M  V30 1430 H 138.195 1.1415 5.99835 0
M  V30 1431 H 139.609 3.08914 4.82954 0
M  V30 1432 H 138.006 3.84781 4.60504 0
M  V30 1433 H 139.076 3.63673 3.20734 0
M  V30 1434 N 140.419 -1.14872 1.07899 0
M  V30 1435 C 141.83 -1.67367 0.827363 0
M  V30 1436 C 142.181 -1.85236 -0.646693 0
M  V30 1437 O 141.306 -1.55974 -1.50004 0
M  V30 1438 C 141.901 -3.04016 1.49532 0
M  V30 1439 C 140.46 -3.53566 1.29106 0
M  V30 1440 C 139.607 -2.29161 1.56143 0
M  V30 1441 H 142.558 -0.990083 1.24028 0
M  V30 1442 H 142.579 -3.69219 0.919643 0
M  V30 1443 H 142.091 -2.90978 2.56814 0
M  V30 1444 H 140.192 -3.71835 0.238713 0
M  V30 1445 H 140.305 -4.34661 2.01511 0
M  V30 1446 H 138.669 -2.34978 0.982717 0
M  V30 1447 H 139.452 -2.18705 2.64619 0
M  V30 1448 N 141.898 -0.863906 -1.31812 0
M  V30 1449 C 143.146 -0.470904 -1.96537 0
M  V30 1450 C 143.467 0.978771 -1.68657 0
M  V30 1451 O 142.737 1.6853 -0.998717 0
M  V30 1452 H 141.317 -0.171148 -0.72713 0
M  V30 1453 H 143.979 -1.10236 -1.60729 0
M  V30 1454 H 143.075 -0.623616 -3.05806 0
M  V30 1455 N 143.376 1.44774 -0.622745 0
M  V30 1456 C 144.286 2.34433 0.0886031 0
M  V30 1457 C 145.302 1.52131 0.844529 0
M  V30 1458 O 146.478 1.84886 0.798691 0
M  V30 1459 C 143.543 3.29986 1.0635 0
M  V30 1460 C 142.604 4.28195 0.307873 0
M  V30 1461 C 141.837 5.19183 1.23633 0
M  V30 1462 O 142.06 5.13918 2.47476 0
M  V30 1463 O 140.994 5.97515 0.725189 0
M  V30 1464 H 144.82 2.96693 -0.648599 0
M  V30 1465 H 142.405 1.44408 -0.382957 0
M  V30 1466 H 144.287 3.88825 1.6246 0
M  V30 1467 H 142.962 2.70269 1.78146 0
M  V30 1468 H 141.869 3.72927 -0.296064 0
M  V30 1469 H 143.202 4.90808 -0.3699 0
M  V30 1470 N 144.854 0.36279 1.53368 0
M  V30 1471 C 146.1 -0.228113 2.01513 0
M  V30 1472 C 146.433 -1.48648 1.2497 0
M  V30 1473 O 145.708 -1.91459 0.342616 0
M  V30 1474 C 145.991 -0.522884 3.56284 0
M  V30 1475 C 145.844 0.74892 4.43521 0
M  V30 1476 C 147.163 -1.32461 4.19693 0
M  V30 1477 H 144.282 -0.0814343 0.732487 0
M  V30 1478 H 146.924 0.48713 1.83649 0
M  V30 1479 H 145.074 -1.1322 3.71636 0
M  V30 1480 H 146.746 1.38648 4.39971 0
M  V30 1481 H 144.989 1.36986 4.11603 0
M  V30 1482 H 145.66 0.497667 5.49752 0
M  V30 1483 H 148.136 -0.809203 4.08156 0
M  V30 1484 H 147.012 -1.49961 5.28018 0
M  V30 1485 H 147.273 -2.33232 3.75573 0
M  V30 1486 N 146.332 -1.57332 0.0918853 0
M  V30 1487 C 147.557 -1.98995 -0.584442 0
M  V30 1488 C 147.982 -0.970528 -1.61128 0
M  V30 1489 O 147.34 0.0613904 -1.81196 0
M  V30 1490 C 147.388 -3.39636 -1.21161 0
M  V30 1491 O 146.492 -3.40447 -2.32744 0
M  V30 1492 H 145.833 -0.647165 -0.148572 0
M  V30 1493 H 148.363 -2.03873 0.172347 0
M  V30 1494 H 148.373 -3.7726 -1.55367 0
M  V30 1495 H 147.048 -4.13356 -0.459313 0
M  V30 1496 H 145.625 -3.14614 -2.0018 0
M  V30 1497 N 147.81 0.181792 -1.56548 0
M  V30 1498 C 149.038 0.915947 -1.85521 0
M  V30 1499 C 149.453 1.76282 -0.676016 0
M  V30 1500 O 148.81 1.79012 0.355077 0
M  V30 1501 C 148.861 1.80126 -3.13427 0
M  V30 1502 O 148.582 0.988562 -4.26801 0
M  V30 1503 C 150.083 2.64597 -3.55673 0
M  V30 1504 H 147.303 0.26661 -0.61576 0
M  V30 1505 H 149.847 0.185039 -2.03661 0
M  V30 1506 H 148.002 2.48563 -2.97145 0
M  V30 1507 H 148.416 1.59308 -4.99721 0
M  V30 1508 H 149.89 3.2235 -4.48101 0
M  V30 1509 H 150.367 3.38958 -2.79292 0
M  V30 1510 H 150.973 2.0151 -3.74532 0
M  V30 1511 N 149.288 1.51039 0.449983 0
M  V30 1512 C 150.534 1.63322 1.20223 0
M  V30 1513 C 150.867 0.34241 1.91158 0
M  V30 1514 O 150.142 -0.657344 1.83055 0
M  V30 1515 C 150.425 2.82801 2.22925 0
M  V30 1516 C 150.278 4.21823 1.56157 0
M  V30 1517 C 151.597 2.97807 3.24035 0
M  V30 1518 H 148.716 0.594407 0.435718 0
M  V30 1519 H 151.358 1.83489 0.493136 0
M  V30 1520 H 149.508 2.65738 2.834 0
M  V30 1521 H 151.18 4.50526 0.991162 0
M  V30 1522 H 149.423 4.25105 0.864172 0
M  V30 1523 H 150.094 5.01391 2.30891 0
M  V30 1524 H 152.57 3.13497 2.73603 0
M  V30 1525 H 151.446 3.82992 3.93202 0
M  V30 1526 H 151.707 2.09328 3.89402 0
M  V30 1527 N 150.766 -0.704594 1.40972 0
M  V30 1528 C 152.182 -1.01406 1.23244 0
M  V30 1529 C 152.382 -2.01169 0.115399 0
M  V30 1530 O 151.438 -2.47021 -0.523147 0
M  V30 1531 C 152.751 -1.54728 2.57836 0
M  V30 1532 C 154.299 -1.66658 2.64942 0
M  V30 1533 C 154.774 -2.23383 3.9983 0
M  V30 1534 N 156.265 -2.30756 4.01629 0
M  V30 1535 C 157 -2.75655 5.02794 0
M  V30 1536 N 156.496 -3.20225 6.14352 0
M  V30 1537 N 158.289 -2.75138 4.90159 0
M  V30 1538 H 150.44 -0.0435285 2.12355 0
M  V30 1539 H 152.703 -0.0818951 0.944456 0
M  V30 1540 H 152.409 -0.888832 3.40283 0
M  V30 1541 H 152.283 -2.53084 2.79693 0
M  V30 1542 H 154.67 -2.31617 1.8286 0
M  V30 1543 H 154.751 -0.668717 2.46904 0
M  V30 1544 H 154.395 -1.59043 4.82357 0
M  V30 1545 H 154.325 -3.23904 4.15203 0
M  V30 1546 H 156.816 -1.99291 3.21079 0
M  V30 1547 H 157.129 -3.53084 6.87424 0
M  V30 1548 H 155.474 -3.18156 6.17901 0
M  V30 1549 H 158.665 -2.39661 4.02095 0
M  V30 1550 H 158.838 -3.09812 5.6914 0
M  V30 1551 N 152.244 -1.26651 -0.937939 0
M  V30 1552 C 153.474 -1.15006 -1.71631 0
M  V30 1553 C 153.882 0.297026 -1.86854 0
M  V30 1554 O 153.225 1.21493 -1.37786 0
M  V30 1555 C 153.287 -1.74984 -3.14039 0
M  V30 1556 C 152.951 -3.24103 -3.2219 0
M  V30 1557 C 153.948 -4.20877 -3.05219 0
M  V30 1558 C 151.633 -3.64625 -3.45476 0
M  V30 1559 C 153.627 -5.56151 -3.11408 0
M  V30 1560 C 151.314 -5.00032 -3.513 0
M  V30 1561 C 152.312 -5.95604 -3.34282 0
M  V30 1562 O 152 -7.28545 -3.3982 0
M  V30 1563 H 151.732 -0.401183 -0.544085 0
M  V30 1564 H 154.286 -1.67832 -1.18413 0
M  V30 1565 H 152.516 -1.16624 -3.68695 0
M  V30 1566 H 154.205 -1.58199 -3.73802 0
M  V30 1567 H 154.971 -3.90908 -2.87081 0
M  V30 1568 H 150.85 -2.90718 -3.57777 0
M  V30 1569 H 154.394 -6.30727 -2.98043 0
M  V30 1570 H 150.291 -5.29659 -3.68959 0
M  V30 1571 H 151.059 -7.3686 -3.56343 0
M  V30 1572 N 153.722 1.14298 -1.08507 0
M  V30 1573 C 154.95 1.89219 -0.836876 0
M  V30 1574 C 155.365 1.78638 0.611054 0
M  V30 1575 O 154.722 1.14643 1.41998 0
M  V30 1576 C 154.773 3.39158 -1.25116 0
M  V30 1577 O 154.494 3.49449 -2.64229 0
M  V30 1578 C 155.995 4.31073 -1.03398 0
M  V30 1579 H 153.215 0.599328 -0.301739 0
M  V30 1580 H 155.759 1.44746 -1.44461 0
M  V30 1581 H 153.914 3.81251 -0.687514 0
M  V30 1582 H 154.328 4.42589 -2.81452 0
M  V30 1583 H 155.802 5.34646 -1.37323 0
M  V30 1584 H 156.279 4.3919 0.0289259 0
M  V30 1585 H 156.885 3.94738 -1.58311 0
M  V30 1586 N 155.201 0.870884 1.31352 0
M  V30 1587 C 156.448 0.482273 1.96673 0
M  V30 1588 C 156.776 -0.965638 1.68836 0
M  V30 1589 O 156.031 -1.69514 0.977937 0
M  V30 1590 C 156.33 0.687157 3.50732 0
M  V30 1591 C 155.996 2.108 3.9859 0
M  V30 1592 C 154.658 2.49656 4.1137 0
M  V30 1593 C 157.01 3.03459 4.23748 0
M  V30 1594 C 154.338 3.80412 4.46659 0
M  V30 1595 C 156.69 4.3373 4.60501 0
M  V30 1596 C 155.354 4.725 4.71487 0
M  V30 1597 H 154.624 0.176476 0.719679 0
M  V30 1598 H 157.271 1.10405 1.56471 0
M  V30 1599 H 155.576 -0.0177476 3.91796 0
M  V30 1600 H 157.273 0.366284 3.99324 0
M  V30 1601 H 153.863 1.79633 3.8914 0
M  V30 1602 H 158.047 2.74665 4.13368 0
M  V30 1603 H 153.303 4.1021 4.53362 0
M  V30 1604 H 157.477 5.05578 4.78919 0
M  V30 1605 H 155.104 5.73859 4.98588 0
M  V30 1606 N 156.679 -1.44442 0.630414 0
M  V30 1607 C 157.626 -2.30678 -0.0749355 0
M  V30 1608 C 158.596 -1.4344 -0.837502 0
M  V30 1609 O 159.781 -1.72343 -0.818684 0
M  V30 1610 C 156.921 -3.28706 -1.05103 0
M  V30 1611 C 156.034 -4.31046 -0.286954 0
M  V30 1612 C 155.169 -5.16167 -1.2548 0
M  V30 1613 C 154.208 -6.10216 -0.479843 0
M  V30 1614 N 153.345 -6.88039 -1.39811 0
M  V30 1615 H 158.185 -2.90454 0.666386 0
M  V30 1616 H 155.722 -1.43107 0.340404 0
M  V30 1617 H 157.68 -3.84027 -1.63031 0
M  V30 1618 H 156.31 -2.70632 -1.75949 0
M  V30 1619 H 155.362 -3.78203 0.408243 0
M  V30 1620 H 156.674 -4.97794 0.316657 0
M  V30 1621 H 155.828 -5.76002 -1.90544 0
M  V30 1622 H 154.567 -4.49491 -1.89233 0
M  V30 1623 H 153.572 -5.49491 0.184295 0
M  V30 1624 H 154.797 -6.78928 0.152965 0
M  V30 1625 H 152.743 -6.24032 -2.02287 0
M  V30 1626 H 152.66 -7.51223 -0.848508 0
M  V30 1627 H 153.928 -7.52397 -2.03762 0
M  V30 1628 N 158.157 -0.370918 -1.53173 0
M  V30 1629 C 159.573 -0.0200818 -1.59587 0
M  V30 1630 C 159.773 1.46279 -1.38581 0
M  V30 1631 O 158.829 2.22506 -1.19363 0
M  V30 1632 C 160.142 -0.4808 -2.96831 0
M  V30 1633 C 161.69 -0.435477 -3.09956 0
M  V30 1634 C 162.165 -0.872092 -4.4962 0
M  V30 1635 N 163.656 -0.827364 -4.55751 0
M  V30 1636 C 164.391 -1.13683 -5.62018 0
M  V30 1637 N 163.887 -1.51584 -6.76014 0
M  V30 1638 N 165.68 -1.05927 -5.52029 0
M  V30 1639 H 157.831 -1.33652 -1.65079 0
M  V30 1640 H 160.094 -0.546634 -0.774529 0
M  V30 1641 H 159.8 -1.51577 -3.1736 0
M  V30 1642 H 159.674 0.129796 -3.76977 0
M  V30 1643 H 162.061 0.590371 -2.89134 0
M  V30 1644 H 162.142 -1.08164 -2.31806 0
M  V30 1645 H 161.786 -1.89608 -4.71181 0
M  V30 1646 H 161.716 -0.203127 -5.26208 0
M  V30 1647 H 164.207 -0.548216 -3.73902 0
M  V30 1648 H 164.52 -1.73609 -7.53047 0
M  V30 1649 H 162.865 -1.55454 -6.77391 0
M  V30 1650 H 166.056 -0.762321 -4.61851 0
M  V30 1651 H 166.229 -1.30378 -6.34749 0
M  V30 1652 N 159.635 1.57281 -0.100228 0
M  V30 1653 C 161.046 1.81725 0.428107 0
M  V30 1654 C 161.397 1.01619 1.67833 0
M  V30 1655 O 160.522 0.247098 2.14985 0
M  V30 1656 C 161.117 3.29617 0.78347 0
M  V30 1657 C 159.676 3.54808 1.25653 0
M  V30 1658 C 158.823 2.76118 0.255752 0
M  V30 1659 H 161.774 1.55324 -0.325608 0
M  V30 1660 H 161.795 3.4322 1.64256 0
M  V30 1661 H 161.307 3.87893 -0.12665 0
M  V30 1662 H 159.408 3.01868 2.18418 0
M  V30 1663 H 159.521 4.63443 1.21482 0
M  V30 1664 H 157.885 2.43745 0.738956 0
M  V30 1665 H 158.668 3.37145 -0.647136 0
M  V30 1666 N 161.113 -0.173488 1.56642 0
M  V30 1667 C 162.361 -0.888706 1.81512 0
M  V30 1668 C 162.682 -1.82875 0.676872 0
M  V30 1669 O 161.952 -1.93536 -0.303414 0
M  V30 1670 H 160.532 -0.331164 0.669582 0
M  V30 1671 H 163.194 -0.173823 1.94123 0
M  V30 1672 H 162.29 -1.46691 2.75478 0
M  V30 1673 N 162.591 -1.51276 -0.441967 0
M  V30 1674 C 163.501 -1.75092 -1.56141 0
M  V30 1675 C 164.517 -0.634963 -1.62001 0
M  V30 1676 O 165.693 -0.916686 -1.79329 0
M  V30 1677 C 162.758 -1.86666 -2.92158 0
M  V30 1678 C 161.819 -3.10506 -2.96453 0
M  V30 1679 C 161.052 -3.21519 -4.25982 0
M  V30 1680 O 161.275 -2.38586 -5.18105 0
M  V30 1681 O 160.209 -4.14465 -4.36466 0
M  V30 1682 H 164.035 -2.70044 -1.38961 0
M  V30 1683 H 161.62 -1.35722 -0.624499 0
M  V30 1684 H 163.502 -1.96292 -3.72891 0
M  V30 1685 H 162.177 -0.949014 -3.09476 0
M  V30 1686 H 161.084 -3.06363 -2.14692 0
M  V30 1687 H 162.417 -4.01945 -2.84079 0
M  V30 1688 N 164.069 0.697108 -1.41344 0
M  V30 1689 C 165.299 1.48377 -1.43763 0
M  V30 1690 C 165.707 1.89156 -0.0408726 0
M  V30 1691 O 165.05 1.57239 0.949812 0
M  V30 1692 C 165.112 2.7781 -2.2817 0
M  V30 1693 C 164.776 2.59244 -3.76353 0
M  V30 1694 C 165.773 2.25292 -4.68551 0
M  V30 1695 C 163.458 2.74933 -4.20378 0
M  V30 1696 C 165.452 2.07264 -6.02761 0
M  V30 1697 C 163.139 2.56521 -5.54653 0
M  V30 1698 C 164.137 2.22737 -6.4566 0
M  V30 1699 O 163.825 2.04485 -7.77458 0
M  V30 1700 H 163.557 0.463842 -0.491759 0
M  V30 1701 H 166.111 0.865934 -1.86255 0
M  V30 1702 H 164.341 3.41995 -1.8049 0
M  V30 1703 H 166.03 3.39608 -2.22309 0
M  V30 1704 H 166.796 2.12787 -4.35829 0
M  V30 1705 H 162.675 3.00213 -3.49848 0
M  V30 1706 H 166.219 1.80817 -6.73759 0
M  V30 1707 H 162.116 2.68616 -5.86955 0
M  V30 1708 H 162.884 2.1926 -7.88586 0
M  V30 1709 N 165.547 1.27147 0.931209 0
M  V30 1710 C 166.963 1.04475 1.20653 0
M  V30 1711 C 167.163 -0.223885 2.00252 0
M  V30 1712 O 166.219 -0.930332 2.34736 0
M  V30 1713 C 167.532 2.28209 1.95809 0
M  V30 1714 C 169.08 2.33211 2.08762 0
M  V30 1715 C 169.555 3.56665 2.87323 0
M  V30 1716 N 171.046 3.57201 2.94892 0
M  V30 1717 C 171.781 4.49395 3.56134 0
M  V30 1718 N 171.277 5.51889 4.18796 0
M  V30 1719 N 173.07 4.37026 3.53504 0
M  V30 1720 H 165.221 2.08612 0.399333 0
M  V30 1721 H 167.484 0.917312 0.239253 0
M  V30 1722 H 167.19 3.20538 1.44736 0
M  V30 1723 H 167.064 2.33247 2.96438 0
M  V30 1724 H 169.451 1.41391 2.59023 0
M  V30 1725 H 169.532 2.32178 1.07364 0
M  V30 1726 H 169.176 4.4882 2.37746 0
M  V30 1727 H 169.106 3.54948 3.88998 0
M  V30 1728 H 171.597 2.83074 2.50354 0
M  V30 1729 H 171.91 6.18409 4.63454 0
M  V30 1730 H 170.255 5.55735 4.17353 0
M  V30 1731 H 173.446 3.56166 3.03749 0
M  V30 1732 H 173.619 5.09067 4.00942 0
M  V30 1733 N 167.025 -1.13721 1.09112 0
M  V30 1734 C 168.274 -1.84275 0.82009 0
M  V30 1735 C 168.587 -1.84253 -0.656509 0
M  V30 1736 O 169.793 -2.50668 -1.04296 0
M  V30 1737 C 168.249 -3.30825 1.41714 0
M  V30 1738 C 167.857 -3.39244 2.92605 0
M  V30 1739 C 169.601 -4.06443 1.22492 0
M  V30 1740 C 167.508 -4.80047 3.45411 0
M  V30 1741 H 166.438 -0.690387 0.30312 0
M  V30 1742 H 169.089 -1.28146 1.31343 0
M  V30 1743 H 167.471 -3.86737 0.851498 0
M  V30 1744 H 168.645 -2.93344 3.55367 0
M  V30 1745 H 166.96 -2.77088 3.10823 0
M  V30 1746 H 169.557 -5.10387 1.59402 0
M  V30 1747 H 169.9 -4.15972 0.165299 0
M  V30 1748 H 170.433 -3.56852 1.75788 0
M  V30 1749 H 167.172 -4.75709 4.50978 0
M  V30 1750 H 166.692 -5.26455 2.87411 0
M  V30 1751 H 168.371 -5.48957 3.42425 0
M  V30 1752 N 168.503 -0.877838 -1.30888 0
M  V30 1753 C 169.752 -0.488793 -1.95688 0
M  V30 1754 C 170.065 0.965485 -1.70111 0
M  V30 1755 O 171.271 1.46104 -2.28836 0
M  V30 1756 C 169.727 -0.823201 -3.50359 0
M  V30 1757 C 169.335 -2.29477 -3.84765 0
M  V30 1758 C 171.079 -0.503009 -4.21509 0
M  V30 1759 C 168.986 -2.57118 -5.32583 0
M  V30 1760 H 167.916 -0.179062 -0.732429 0
M  V30 1761 H 170.567 -1.07183 -1.48943 0
M  V30 1762 H 168.949 -0.169331 -3.95638 0
M  V30 1763 H 170.123 -2.99236 -3.5042 0
M  V30 1764 H 168.438 -2.58178 -3.267 0
M  V30 1765 H 171.035 -0.68665 -5.30273 0
M  V30 1766 H 171.378 0.557109 -4.12555 0
M  V30 1767 H 171.911 -1.11376 -3.8189 0
M  V30 1768 H 168.65 -3.61843 -5.4658 0
M  V30 1769 H 168.17 -1.91961 -5.68253 0
M  V30 1770 H 169.849 -2.42251 -5.99936 0
M  V30 1771 N 169.982 1.44106 -0.638065 0
M  V30 1772 C 171.222 2.03858 -0.148733 0
M  V30 1773 C 171.586 1.49153 1.20903 0
M  V30 1774 O 172.787 2.00452 1.79088 0
M  V30 1775 C 171.058 3.57117 -0.142314 0
M  V30 1776 S 172.617 4.37897 0.281385 0
M  V30 1777 H 169.435 0.708069 -0.0644912 0
M  V30 1778 H 172.037 1.7639 -0.843009 0
M  V30 1779 H 170.741 3.94436 -1.13349 0
M  V30 1780 H 170.272 3.89205 0.572988 0
M  V30 1781 H 172.287 4.72218 1.52395 0
M  V30 1782 N 171.46 0.379036 1.52974 0
M  V30 1783 C 172.408 -0.476033 2.27677 0
M  V30 1784 C 173.402 -1.0719 1.31174 0
M  V30 1785 O 174.608 -1.01355 1.48752 0
M  V30 1786 H 170.983 -0.172255 0.732006 0
M  V30 1787 H 172.954 0.175615 2.97883 0
M  V30 1788 C 171.703 -1.5967 3.0887 0
M  V30 1789 H 171.026 -1.1475 3.82978 0
M  V30 1790 H 172.466 -2.16943 3.64296 0
M  V30 1791 C 170.925 -2.54682 2.20542 0
M  V30 1792 O 171.455 -3.57836 1.82527 0
M  V30 1793 N 169.661 -2.24183 1.84907 0
M  V30 1794 H 169.208 -1.40333 2.1602 0
M  V30 1795 H 169.166 -2.88006 1.26096 0
M  V30 1796 N 172.938 -1.57226 0.108567 0
M  V30 1797 C 173.87 -2.11809 -0.875752 0
M  V30 1798 C 174.883 -1.05839 -1.23701 0
M  V30 1799 O 176.072 -1.33245 -1.18778 0
M  V30 1800 C 173.172 -2.59411 -2.18081 0
M  V30 1801 C 172.345 -3.89364 -1.99284 0
M  V30 1802 C 171.404 -4.22672 -3.13424 0
M  V30 1803 O 170.43 -4.91668 -2.86795 0
M  V30 1804 N 171.632 -3.79154 -4.3957 0
M  V30 1805 H 174.397 -2.9689 -0.409477 0
M  V30 1806 H 171.958 -1.61721 -0.076158 0
M  V30 1807 H 173.95 -2.7873 -2.93414 0
M  V30 1808 H 172.52 -1.79268 -2.5609 0
M  V30 1809 H 171.74 -3.79059 -1.08203 0
M  V30 1810 H 173.028 -4.74358 -1.84017 0
M  V30 1811 H 172.426 -3.23486 -4.64083 0
M  V30 1812 H 170.983 -4.03602 -5.11809 0
M  V30 1813 N 174.416 0.165178 -1.56732 0
M  V30 1814 C 175.646 0.894919 -1.86212 0
M  V30 1815 C 176.054 1.76066 -0.692627 0
M  V30 1816 O 175.397 1.80387 0.347303 0
M  V30 1817 C 175.459 1.8174 -3.10179 0
M  V30 1818 C 175.123 1.13064 -4.42793 0
M  V30 1819 C 176.12 0.493169 -5.17556 0
M  V30 1820 C 173.805 1.12556 -4.89527 0
M  V30 1821 C 175.799 -0.140209 -6.37246 0
M  V30 1822 C 173.486 0.488366 -6.09145 0
M  V30 1823 C 174.484 -0.143411 -6.82849 0
M  V30 1824 O 174.172 -0.77055 -8.00199 0
M  V30 1825 H 173.904 0.265114 -0.621844 0
M  V30 1826 H 176.458 0.168242 -2.0471 0
M  V30 1827 H 174.688 2.58455 -2.87642 0
M  V30 1828 H 176.377 2.4175 -3.26055 0
M  V30 1829 H 177.143 0.489023 -4.82528 0
M  V30 1830 H 173.022 1.60672 -4.32094 0
M  V30 1831 H 176.566 -0.633932 -6.94714 0
M  V30 1832 H 172.463 0.490116 -6.43637 0
M  V30 1833 H 173.231 -0.670408 -8.1575 0
M  V30 1834 N 175.894 1.51508 0.433938 0
M  V30 1835 C 177.134 1.66006 1.19253 0
M  V30 1836 C 177.498 0.369868 1.88404 0
M  V30 1837 O 178.699 0.39066 2.65946 0
M  V30 1838 C 176.97 2.83229 2.17981 0
M  V30 1839 S 178.529 3.18075 3.02281 0
M  V30 1840 H 175.347 0.584821 0.404358 0
M  V30 1841 H 177.949 1.89425 0.48357 0
M  V30 1842 H 176.653 3.75407 1.65824 0
M  V30 1843 H 176.184 2.6201 2.93453 0
M  V30 1844 H 178.199 2.64772 4.19655 0
M  V30 1845 N 177.372 -0.689602 1.41712 0
M  V30 1846 C 178.62 -1.4468 1.4111 0
M  V30 1847 C 178.941 -1.94986 0.0232196 0
M  V30 1848 O 178.211 -1.72097 -0.935913 0
M  V30 1849 H 176.791 -0.536847 0.519427 0
M  V30 1850 H 179.453 -0.815825 1.77004 0
M  V30 1851 H 178.549 -2.30706 2.10193 0
M  V30 1852 N 178.85 -1.27639 -0.924453 0
M  V30 1853 C 179.78 -1.13166 -2.04244 0
M  V30 1854 C 180.761 -0.032256 -1.70069 0
M  V30 1855 O 181.946 -0.207328 -1.9309 0
M  V30 1856 C 179.076 -0.781496 -3.38393 0
M  V30 1857 C 178.03 -1.83449 -3.86692 0
M  V30 1858 C 177.356 -1.33822 -5.17683 0
M  V30 1859 C 178.656 -3.23917 -4.09726 0
M  V30 1860 H 180.35 -2.06689 -2.1661 0
M  V30 1861 H 177.896 -0.995136 -1.04082 0
M  V30 1862 H 179.849 -0.667057 -4.16087 0
M  V30 1863 H 178.573 0.189439 -3.2605 0
M  V30 1864 H 177.232 -1.93789 -3.11193 0
M  V30 1865 H 176.88 -0.35665 -5.01734 0
M  V30 1866 H 176.58 -2.04224 -5.50968 0
M  V30 1867 H 178.104 -1.23679 -5.97943 0
M  V30 1868 H 179.518 -3.16559 -4.77978 0
M  V30 1869 H 177.915 -3.92059 -4.54324 0
M  V30 1870 H 178.985 -3.68729 -3.14908 0
M  V30 1871 N 180.328 1.1314 -1.09713 0
M  V30 1872 C 181.576 1.84119 -0.833338 0
M  V30 1873 C 181.897 1.84097 0.642904 0
M  V30 1874 O 181.167 1.29881 1.46655 0
M  V30 1875 H 179.747 0.681766 -0.305293 0
M  V30 1876 H 182.409 1.37038 -1.38588 0
M  V30 1877 H 181.505 2.88543 -1.18951 0
M  V30 1878 N 181.806 0.884767 1.30421 0
M  V30 1879 C 182.756 0.322846 2.25703 0
M  V30 1880 C 183.74 -0.548582 1.51259 0
M  V30 1881 O 184.932 -0.39304 1.72581 0
M  V30 1882 C 182.061 -0.461787 3.4018 0
M  V30 1883 C 181.147 0.423717 4.21978 0
M  V30 1884 N 181.538 1.52408 4.82292 0
M  V30 1885 C 179.836 0.218795 4.45463 0
M  V30 1886 C 180.537 2.07136 5.43571 0
M  V30 1887 N 179.513 1.36635 5.26148 0
M  V30 1888 H 183.315 1.16363 2.69883 0
M  V30 1889 H 180.829 0.73415 1.44859 0
M  V30 1890 H 182.826 -0.880985 4.07485 0
M  V30 1891 H 181.486 -1.30001 2.9754 0
M  V30 1892 H 182.497 1.90693 4.81515 0
M  V30 1893 H 179.174 -0.582275 4.1342 0
M  V30 1894 H 180.564 2.99538 6.01437 0
M  V30 1895 N 183.284 -1.43765 0.645699 0
M  V30 1896 C 184.216 -2.29027 -0.0890605 0
M  V30 1897 C 185.229 -1.42093 -0.794563 0
M  V30 1898 O 186.418 -1.66104 -0.653575 0
M  V30 1899 C 183.518 -3.18831 -1.14891 0
M  V30 1900 C 182.691 -4.34261 -0.523043 0
M  V30 1901 C 181.75 -5.04994 -1.47878 0
M  V30 1902 O 180.776 -5.6052 -0.990277 0
M  V30 1903 N 181.978 -5.07795 -2.81291 0
M  V30 1904 H 184.743 -2.92727 0.64272 0
M  V30 1905 H 182.304 -1.54373 0.487924 0
M  V30 1906 H 184.296 -3.63015 -1.78892 0
M  V30 1907 H 182.866 -2.56782 -1.78275 0
M  V30 1908 H 182.086 -3.93088 0.295896 0
M  V30 1909 H 183.374 -5.08728 -0.0858147 0
M  V30 1910 H 182.772 -4.64042 -3.23546 0
M  V30 1911 H 181.329 -5.55721 -3.40614 0
M  V30 1912 N 184.763 -0.387143 -1.52771 0
M  V30 1913 C 185.711 0.463953 -2.27926 0
M  V30 1914 C 186.705 1.06493 -1.31741 0
M  V30 1915 O 187.911 1.00565 -1.49287 0
M  V30 1916 H 184.286 0.16837 -0.732909 0
M  V30 1917 H 186.257 -0.19141 -2.97785 0
M  V30 1918 C 185.006 1.5803 -3.09713 0
M  V30 1919 H 184.329 1.12718 -3.83581 0
M  V30 1920 H 185.769 2.15008 -3.65442 0
M  V30 1921 C 184.228 2.53509 -2.2189 0
M  V30 1922 O 184.758 3.56863 -1.84422 0
M  V30 1923 N 182.964 2.23199 -1.86093 0
M  V30 1924 H 182.511 1.39185 -2.16761 0
M  V30 1925 H 182.469 2.87333 -1.27621 0
M  V30 1926 N 186.241 1.57166 -0.116904 0
M  V30 1927 C 187.174 2.10912 0.871291 0
M  V30 1928 C 188.152 1.025 1.26224 0
M  V30 1929 O 189.336 1.3014 1.36366 0
M  V30 1930 C 186.463 2.6041 2.16574 0
M  V30 1931 C 185.509 3.80687 1.92302 0
M  V30 1932 S 186.342 5.23199 1.14119 0
M  V30 1933 C 187.498 5.76064 2.44748 0
M  V30 1934 H 187.731 2.94401 0.414138 0
M  V30 1935 H 185.264 1.54096 0.096829 0
M  V30 1936 H 187.222 2.89583 2.9095 0
M  V30 1937 H 185.883 1.77106 2.59408 0
M  V30 1938 H 185.076 4.13462 2.8821 0
M  V30 1939 H 184.678 3.5212 1.26047 0
M  V30 1940 H 186.97 5.8566 3.406 0
M  V30 1941 H 187.913 6.74184 2.16521 0
M  V30 1942 H 188.321 5.04117 2.54019 0
M  V30 1943 N 187.719 -0.156864 1.56817 0
M  V30 1944 C 188.966 -0.871125 1.82805 0
M  V30 1945 C 189.294 -1.81611 0.696262 0
M  V30 1946 O 188.549 -1.93141 -0.315459 0
M  V30 1947 C 188.848 -1.68737 3.1506 0
M  V30 1948 C 188.514 -0.890045 4.42028 0
M  V30 1949 C 187.176 -0.670042 4.76512 0
M  V30 1950 C 189.528 -0.331769 5.20143 0
M  V30 1951 C 186.856 0.119104 5.86579 0
M  V30 1952 C 189.208 0.444365 6.31037 0
M  V30 1953 C 187.872 0.675035 6.64078 0
M  V30 1954 H 187.142 -0.318767 0.668931 0
M  V30 1955 H 189.789 -0.135274 1.91022 0
M  V30 1956 H 188.094 -2.49304 3.0225 0
M  V30 1957 H 189.791 -2.24331 3.3238 0
M  V30 1958 H 186.381 -1.07157 4.14988 0
M  V30 1959 H 190.565 -0.489043 4.93885 0
M  V30 1960 H 185.821 0.307417 6.10627 0
M  V30 1961 H 189.995 0.884139 6.90765 0
M  V30 1962 H 187.622 1.28839 7.49203 0
M  V30 1963 N 189.197 -1.51736 -0.425897 0
M  V30 1964 C 190.445 -1.64644 -1.17204 0
M  V30 1965 C 190.766 -0.370486 -1.91448 0
M  V30 1966 O 190.036 0.614088 -1.86026 0
M  V30 1967 H 188.616 -0.606819 -0.435638 0
M  V30 1968 H 191.278 -1.88713 -0.487177 0
M  V30 1969 H 190.374 -2.47958 -1.89534 0
M  V30 1970 N 190.675 0.682077 -1.42076 0
M  V30 1971 C 191.903 1.47057 -1.4554 0
M  V30 1972 C 192.318 1.8869 -0.0645779 0
M  V30 1973 O 191.675 1.57666 0.919115 0
M  V30 1974 C 191.726 2.72442 -2.37609 0
M  V30 1975 O 191.447 2.32559 -3.71279 0
M  V30 1976 C 192.948 3.66069 -2.50017 0
M  V30 1977 H 190.168 0.452737 -0.495248 0
M  V30 1978 H 192.712 0.838695 -1.8651 0
M  V30 1979 H 190.867 3.31835 -1.9991 0
M  V30 1980 H 191.281 3.13475 -4.20516 0
M  V30 1981 H 192.755 4.50792 -3.18576 0
M  V30 1982 H 193.232 4.11476 -1.53572 0
M  V30 1983 H 193.838 3.12572 -2.88407 0
M  V30 1984 N 192.153 1.28127 0.917671 0
M  V30 1985 C 193.402 1.14432 1.66097 0
M  V30 1986 C 193.715 -0.307247 1.93172 0
M  V30 1987 O 194.921 -0.565259 2.65551 0
M  V30 1988 C 193.377 2.00015 2.99202 0
M  V30 1989 C 192.985 3.49889 2.79789 0
M  V30 1990 C 194.729 1.94996 3.77064 0
M  V30 1991 C 192.636 4.27636 4.08511 0
M  V30 1992 H 191.566 0.424662 0.62304 0
M  V30 1993 H 194.217 1.52628 1.01868 0
M  V30 1994 H 192.599 1.54672 3.64544 0
M  V30 1995 H 193.773 4.03162 2.23152 0
M  V30 1996 H 192.088 3.56392 2.15345 0
M  V30 1997 H 194.685 2.50354 4.72469 0
M  V30 1998 H 195.028 0.925819 4.05875 0
M  V30 1999 H 195.561 2.38287 3.18534 0
M  V30 2000 H 192.3 5.30615 3.84874 0
M  V30 2001 H 191.82 3.79137 4.64774 0
M  V30 2002 H 193.499 4.37346 4.76799 0
M  V30 2003 N 193.631 -1.12557 1.10312 0
M  V30 2004 C 194.877 -1.84311 0.846011 0
M  V30 2005 C 195.21 -1.83805 -0.626859 0
M  V30 2006 O 194.485 -1.28268 -1.46211 0
M  V30 2007 C 194.768 -3.32048 1.39341 0
M  V30 2008 C 194.621 -3.41016 2.93305 0
M  V30 2009 C 195.94 -4.27764 1.03468 0
M  V30 2010 H 193.059 -0.669192 0.30879 0
M  V30 2011 H 195.701 -1.32057 1.36605 0
M  V30 2012 H 193.851 -3.76678 0.951087 0
M  V30 2013 H 195.523 -3.05031 3.46055 0
M  V30 2014 H 193.766 -2.81603 3.29973 0
M  V30 2015 H 194.437 -4.44948 3.26689 0
M  V30 2016 H 196.913 -3.91253 1.41633 0
M  V30 2017 H 195.789 -5.29549 1.44463 0
M  V30 2018 H 196.05 -4.42064 -0.0560404 0
M  V30 2019 N 195.109 -0.891671 -1.2995 0
M  V30 2020 C 196.355 -0.514261 -1.96171 0
M  V30 2021 C 196.688 0.935506 -1.70182 0
M  V30 2022 O 195.963 1.66204 -1.01028 0
M  V30 2023 C 196.246 -0.797719 -3.51153 0
M  V30 2024 C 196.099 -2.2986 -3.86632 0
M  V30 2025 C 197.418 -0.278749 -4.39216 0
M  V30 2026 H 194.537 -0.188314 -0.712535 0
M  V30 2027 H 197.179 -1.11689 -1.53706 0
M  V30 2028 H 195.329 -0.284826 -3.87455 0
M  V30 2029 H 197.001 -2.88042 -3.60319 0
M  V30 2030 H 195.244 -2.76257 -3.34462 0
M  V30 2031 H 195.915 -2.44753 -4.94773 0
M  V30 2032 H 198.391 -0.717825 -4.09862 0
M  V30 2033 H 197.267 -0.506353 -5.46559 0
M  V30 2034 H 197.528 0.820266 -4.34424 0
M  V30 2035 N 196.587 1.43421 -0.653314 0
M  V30 2036 C 197.534 2.30768 0.0382271 0
M  V30 2037 C 198.504 1.44755 0.814576 0
M  V30 2038 O 199.689 1.73624 0.791162 0
M  V30 2039 C 196.829 3.30336 0.998599 0
M  V30 2040 C 195.942 4.31448 0.218342 0
M  V30 2041 C 195.077 5.18098 1.17252 0
M  V30 2042 C 194.116 6.10902 0.382702 0
M  V30 2043 N 193.253 6.90176 1.28848 0
M  V30 2044 H 198.093 2.89357 -0.712511 0
M  V30 2045 H 195.63 1.42548 -0.363128 0
M  V30 2046 H 197.588 3.86572 1.56901 0
M  V30 2047 H 196.218 2.73397 1.71621 0
M  V30 2048 H 195.27 3.77506 -0.46836 0
M  V30 2049 H 196.582 4.97227 -0.395812 0
M  V30 2050 H 195.736 5.7896 1.81356 0
M  V30 2051 H 194.475 4.52444 1.82058 0
M  V30 2052 H 193.48 5.49128 -0.27169 0
M  V30 2053 H 194.705 6.78598 -0.260957 0
M  V30 2054 H 192.651 6.27171 1.92334 0
M  V30 2055 H 192.568 7.52478 0.728887 0
M  V30 2056 H 193.836 7.55543 1.91766 0
M  V30 2057 N 198.065 0.39524 1.52563 0
M  V30 2058 C 198.975 -0.444232 2.30356 0
M  V30 2059 C 199.991 -1.06615 1.37511 0
M  V30 2060 O 201.167 -1.07067 1.70583 0
M  V30 2061 C 198.232 -1.55315 3.09964 0
M  V30 2062 C 197.293 -0.955734 4.18526 0
M  V30 2063 C 196.526 -2.01181 4.9433 0
M  V30 2064 O 196.749 -3.22781 4.70285 0
M  V30 2065 O 195.683 -1.62579 5.79527 0
M  V30 2066 H 199.509 0.189667 3.03107 0
M  V30 2067 H 197.094 0.1588 1.48554 0
M  V30 2068 H 198.976 -2.19724 3.59582 0
M  V30 2069 H 197.651 -2.17191 2.4002 0
M  V30 2070 H 196.558 -0.274743 3.7309 0
M  V30 2071 H 197.891 -0.381109 4.90722 0
M  V30 2072 O 199.582 -1.59299 0.265728 0
M  V30 2073 H 200.273 -1.91266 -0.306134 0
M  V30 END ATOM
M  V30 BEGIN BOND
M  V30 END BOND
M  V30 END CTAB
M  END
$$$$
