drugbank_target|P00441 Superoxide dismutase [Cu-Zn] (DB00988; DB01064; DB01593; DB01629; DB03382; DB05025; DB09061; DB14009; DB14011; DB14487; DB14533; DB14548)
 OpenBabel12092120133D

  0  0  0     0  0            999 V3000
M  V30 BEGIN CTAB
M  V30 COUNTS 2206 2224 0 0 0
M  V30 BEGIN ATOM
M  V30 1 H -0.908 1.98254 -0.117106 0
M  V30 2 N 0 1.576 0 0
M  V30 3 C 0.933 2.03868 1.02534 0
M  V30 4 C 1.911 0.928543 1.3348 0
M  V30 5 O 3.095 1.19667 1.45644 0
M  V30 6 C 0.222 2.43627 2.35294 0
M  V30 7 C -0.732 3.65373 2.2001 0
M  V30 8 S 0.101 5.13292 1.52614 0
M  V30 9 C 1.257 5.56322 2.86805 0
M  V30 10 H 1.49 2.90518 0.631377 0
M  V30 11 H -0.977 1.52953 0.210867 0
M  V30 12 H 0.981 2.67203 3.11629 0
M  V30 13 H -0.358 1.57376 2.7183 0
M  V30 14 H -1.165 3.90944 3.18086 0
M  V30 15 H -1.563 3.418 1.51819 0
M  V30 16 H 0.729 5.58782 3.83104 0
M  V30 17 H 1.672 6.56266 2.65933 0
M  V30 18 H 2.08 4.83886 2.90714 0
M  V30 19 N 1.4781 -0.272755 1.55222 0
M  V30 20 C 2.4411 -1.32041 1.87344 0
M  V30 21 C 3.4411 -1.42342 0.74803 0
M  V30 22 O 4.6311 -1.41488 1.0162 0
M  V30 23 C 1.7631 -2.70173 2.07893 0
M  V30 24 H 2.9561 -1.04789 2.80997 0
M  V30 25 H 0.5091 -0.51083 1.47717 0
M  V30 26 H 1.2441 -3.02605 1.16622 0
M  V30 27 H 1.0291 -2.64082 2.89833 0
M  V30 28 H 2.5191 -3.45869 2.34017 0
M  V30 29 N 2.9562 -1.48159 -0.537278 0
M  V30 30 C 4.1842 -1.59454 -1.31841 0
M  V30 31 C 4.5992 -0.252065 -1.8711 0
M  V30 32 O 3.9562 0.757621 -1.66031 0
M  V30 33 C 4.0072 -2.63546 -2.47439 0
M  V30 34 O 3.7282 -3.92583 -1.94449 0
M  V30 35 C 5.2292 -2.85212 -3.39366 0
M  V30 36 H 2.4492 -0.53785 -0.401196 0
M  V30 37 H 4.9932 -1.93932 -0.648891 0
M  V30 38 H 3.1482 -2.31946 -3.1029 0
M  V30 39 H 3.5622 -4.49629 -2.70063 0
M  V30 40 H 5.0362 -3.61863 -4.16844 0
M  V30 41 H 5.5132 -1.93765 -3.94147 0
M  V30 42 H 6.1192 -3.18086 -2.82314 0
M  V30 43 N 4.4343 0.785586 -1.36625 0
M  V30 44 C 5.3813 1.89838 -1.31264 0
M  V30 45 C 6.3513 1.65115 -0.180633 0
M  V30 46 O 7.5363 1.87222 -0.36777 0
M  V30 47 C 4.6763 3.26706 -1.11163 0
M  V30 48 C 3.7893 3.63476 -2.33472 0
M  V30 49 C 2.9243 4.89481 -2.06353 0
M  V30 50 C 1.9633 5.18941 -3.24602 0
M  V30 51 N 1.1003 6.36131 -2.97123 0
M  V30 52 H 5.9403 1.93756 -2.26413 0
M  V30 53 H 3.4773 0.947454 -1.12524 0
M  V30 54 H 5.4353 4.05639 -0.975337 0
M  V30 55 H 4.0653 3.222 -0.196674 0
M  V30 56 H 3.1173 2.79636 -2.57891 0
M  V30 57 H 4.4293 3.81193 -3.21704 0
M  V30 58 H 3.5833 5.76288 -1.89675 0
M  V30 59 H 2.3223 4.73841 -1.15437 0
M  V30 60 H 1.3273 4.30615 -3.41834 0
M  V30 61 H 2.5523 5.36498 -4.16349 0
M  V30 62 H 0.4983 6.21875 -2.08823 0
M  V30 63 H 0.4153 6.54198 -3.78894 0
M  V30 64 H 1.6833 7.2591 -2.84033 0
M  V30 65 N 5.9124 1.20967 1.01018 0
M  V30 66 C 6.8754 0.965918 2.07853 0
M  V30 67 C 7.8754 -0.0610545 1.60684 0
M  V30 68 O 9.0654 0.175681 1.73312 0
M  V30 69 C 6.1974 0.455513 3.37843 0
M  V30 70 H 7.3904 1.91365 2.3091 0
M  V30 71 H 4.9434 1.02594 1.17916 0
M  V30 72 H 5.6784 -0.497381 3.20463 0
M  V30 73 H 5.4634 1.19622 3.73407 0
M  V30 74 H 6.9534 0.304667 4.16487 0
M  V30 75 N 7.3905 -1.2043 1.01659 0
M  V30 76 C 8.6365 -1.90079 0.706963 0
M  V30 77 C 8.9695 -1.78648 -0.761474 0
M  V30 78 O 8.2445 -1.17069 -1.55323 0
M  V30 79 C 8.5275 -3.41469 1.14327 0
M  V30 80 C 8.3805 -3.61833 2.67201 0
M  V30 81 C 9.6995 -4.34261 0.714529 0
M  V30 82 H 6.8185 -0.690254 0.2583 0
M  V30 83 H 9.4605 -1.41826 1.26433 0
M  V30 84 H 7.6105 -3.82696 0.669056 0
M  V30 85 H 9.2825 -3.2986 3.22475 0
M  V30 86 H 7.5255 -3.05304 3.08175 0
M  V30 87 H 8.1965 -4.67955 2.92783 0
M  V30 88 H 10.6725 -4.00682 1.12221 0
M  V30 89 H 9.5485 -5.38806 1.04784 0
M  V30 90 H 9.8095 -4.40431 -0.383799 0
M  V30 91 N 8.8686 -0.792821 -1.36206 0
M  V30 92 C 10.1086 -0.372238 -2.00982 0
M  V30 93 C 10.4726 1.03749 -1.61555 0
M  V30 94 O 11.6736 1.55934 -2.18948 0
M  V30 95 C 9.9446 -0.534566 -3.5338 0
M  V30 96 S 11.5036 -0.202365 -4.38333 0
M  V30 97 H 8.3216 -0.142044 -0.696667 0
M  V30 98 H 10.9236 -1.03206 -1.66039 0
M  V30 99 H 9.6276 -1.5608 -3.79562 0
M  V30 100 H 9.1586 0.141065 -3.93147 0
M  V30 101 H 11.1736 0.994869 -4.86124 0
M  V30 102 N 10.3467 1.47872 -0.545128 0
M  V30 103 C 11.5927 2.02793 -0.0166104 0
M  V30 104 C 11.9257 1.41987 1.32489 0
M  V30 105 O 11.2007 0.571045 1.85928 0
M  V30 106 C 11.4837 3.59989 0.0893294 0
M  V30 107 C 11.3367 4.3125 -1.27841 0
M  V30 108 C 12.6557 4.32606 0.808724 0
M  V30 109 H 9.7747 0.736962 -0.00751035 0
M  V30 110 H 12.4167 1.76433 -0.705085 0
M  V30 111 H 10.5667 3.82579 0.675681 0
M  V30 112 H 12.2387 4.20035 -1.90704 0
M  V30 113 H 10.4817 3.92076 -1.85632 0
M  V30 114 H 11.1527 5.39736 -1.15713 0
M  V30 115 H 13.6287 4.14936 0.310992 0
M  V30 116 H 12.5047 5.42251 0.851782 0
M  V30 117 H 12.7657 4.00963 1.86229 0
M  V30 118 N 11.8248 0.280983 1.55075 0
M  V30 119 C 12.7548 -0.597469 2.25727 0
M  V30 120 C 13.7358 -1.15417 1.24952 0
M  V30 121 O 14.9208 -1.18722 1.53684 0
M  V30 122 C 12.0508 -1.7789 2.98283 0
M  V30 123 C 11.0048 -1.35347 4.06036 0
M  V30 124 C 10.3308 -2.61846 4.66198 0
M  V30 125 C 11.6308 -0.499354 5.19907 0
M  V30 126 H 13.3248 -0.00824265 2.99399 0
M  V30 127 H 10.8708 -0.0025244 1.44 0
M  V30 128 H 12.8238 -2.39937 3.46422 0
M  V30 129 H 11.5478 -2.39405 2.22155 0
M  V30 130 H 10.2068 -0.756156 3.58717 0
M  V30 131 H 9.8548 -3.21632 3.86732 0
M  V30 132 H 9.5548 -2.3409 5.38958 0
M  V30 133 H 11.0788 -3.24732 5.1709 0
M  V30 134 H 12.4928 -1.02498 5.64063 0
M  V30 135 H 10.8898 -0.316424 5.99265 0
M  V30 136 H 11.9598 0.480459 4.82514 0
M  V30 137 N 13.3029 -1.57598 0.00835791 0
M  V30 138 C 14.2499 -2.08945 -0.980346 0
M  V30 139 C 15.2199 -0.986738 -1.33614 0
M  V30 140 O 16.4049 -1.25968 -1.43306 0
M  V30 141 C 13.5449 -2.60425 -2.26435 0
M  V30 142 C 12.6579 -3.84628 -1.96685 0
M  V30 143 C 11.7929 -4.24579 -3.19228 0
M  V30 144 C 10.8319 -5.41596 -2.85202 0
M  V30 145 N 9.9689 -5.768 -4.00307 0
M  V30 146 H 14.8089 -2.93148 -0.535551 0
M  V30 147 H 12.3459 -1.44912 -0.252776 0
M  V30 148 H 14.3039 -2.88354 -3.01509 0
M  V30 149 H 12.9339 -1.79083 -2.68568 0
M  V30 150 H 11.9859 -3.63556 -1.11942 0
M  V30 151 H 13.2979 -4.69796 -1.67611 0
M  V30 152 H 12.4519 -4.53834 -4.02641 0
M  V30 153 H 11.1909 -3.38137 -3.51447 0
M  V30 154 H 10.1959 -5.12056 -2.00198 0
M  V30 155 H 11.4209 -6.29721 -2.54222 0
M  V30 156 H 9.3669 -4.93316 -4.32407 0
M  V30 157 H 9.2839 -6.5656 -3.74786 0
M  V30 158 H 10.5519 -6.10652 -4.84484 0
M  V30 159 N 14.781 0.264519 -1.55364 0
M  V30 160 C 16.029 0.993021 -1.76021 0
M  V30 161 C 16.35 1.86511 -0.569099 0
M  V30 162 O 15.62 1.91438 0.415735 0
M  V30 163 H 14.2 0.369639 -0.649135 0
M  V30 164 H 16.862 0.286707 -1.9278 0
M  V30 165 H 15.958 1.62502 -2.66457 0
M  V30 166 N 16.2591 1.48442 0.529413 0
M  V30 167 C 17.5361 1.46978 1.29062 0
M  V30 168 C 17.9161 0.181769 2.10316 0
M  V30 169 O 17.2641 -0.836481 2.12639 0
M  V30 170 C 17.4741 2.7321 2.17157 0
M  V30 171 C 18.8221 3.21562 2.77278 0
M  V30 172 O 19.8461 2.74131 2.27444 0
M  V30 173 O 18.7051 4.04094 3.67927 0
M  V30 174 H 15.7991 0.587003 0.582543 0
M  V30 175 H 18.3451 1.60676 0.546021 0
M  V30 176 H 17.1171 3.58465 1.56903 0
M  V30 177 H 16.7401 2.62235 2.98862 0
M  V30 178 N 17.7372 -0.778329 1.37039 0
M  V30 179 C 18.9852 -1.53361 1.31623 0
M  V30 180 C 19.3062 -1.94739 -0.100831 0
M  V30 181 O 18.5762 -1.65797 -1.04347 0
M  V30 182 H 17.1562 -0.568794 0.484234 0
M  V30 183 H 19.8182 -0.926742 1.71457 0
M  V30 184 H 18.9142 -2.43606 1.95096 0
M  V30 185 N 19.2153 -1.21501 -1.00376 0
M  V30 186 C 20.6263 -1.03146 -1.55621 0
M  V30 187 C 20.9773 0.408375 -1.91903 0
M  V30 188 O 20.1023 1.29177 -1.73616 0
M  V30 189 C 20.6973 -1.86612 -2.82775 0
M  V30 190 C 19.2563 -1.72586 -3.34501 0
M  V30 191 C 18.4033 -1.83747 -2.07683 0
M  V30 192 H 21.3543 -1.35505 -0.826081 0
M  V30 193 H 21.3753 -1.3771 -3.54706 0
M  V30 194 H 20.8873 -2.91399 -2.56336 0
M  V30 195 H 18.9883 -0.704877 -3.65872 0
M  V30 196 H 19.1013 -2.54623 -4.05837 0
M  V30 197 H 17.4653 -1.27069 -2.20739 0
M  V30 198 H 18.2483 -2.90044 -1.83655 0
M  V30 199 N 20.6934 1.19889 -1.02296 0
M  V30 200 C 21.9394 1.89701 -0.717033 0
M  V30 201 C 22.2724 1.7905 0.751989 0
M  V30 202 O 21.5474 1.17891 1.547 0
M  V30 203 C 21.8304 3.40858 -1.16136 0
M  V30 204 C 21.6834 3.60411 -2.69117 0
M  V30 205 C 23.0024 4.33876 -0.737549 0
M  V30 206 H 20.1214 0.688874 -0.261957 0
M  V30 207 H 22.7634 1.41154 -1.27183 0
M  V30 208 H 20.9134 3.82335 -0.689342 0
M  V30 209 H 22.5854 3.28145 -3.2422 0
M  V30 210 H 20.8284 3.03665 -3.0979 0
M  V30 211 H 21.4994 4.66396 -2.95261 0
M  V30 212 H 23.9754 4.00081 -1.14344 0
M  V30 213 H 22.8514 5.38242 -1.0764 0
M  V30 214 H 23.1124 4.40628 0.360436 0
M  V30 215 N 22.1715 0.800033 1.35784 0
M  V30 216 C 23.1035 0.163596 2.28615 0
M  V30 217 C 24.1165 -0.633317 1.49976 0
M  V30 218 O 25.3055 -0.466754 1.72289 0
M  V30 219 C 22.4055 -0.790958 3.29541 0
M  V30 220 C 21.5785 -0.0418255 4.3738 0
M  V30 221 C 20.6375 -0.91389 5.18203 0
M  V30 222 O 19.6635 -0.367234 5.68014 0
M  V30 223 N 20.8655 -2.23682 5.35674 0
M  V30 224 H 23.6305 0.96105 2.83873 0
M  V30 225 H 21.1915 0.654894 1.48063 0
M  V30 226 H 23.1835 -1.37844 3.80501 0
M  V30 227 H 21.7535 -1.48925 2.74846 0
M  V30 228 H 20.9735 0.726813 3.87442 0
M  V30 229 H 22.2615 0.474719 5.06581 0
M  V30 230 H 21.6595 -2.70497 4.96838 0
M  V30 231 H 20.2165 -2.77369 5.89839 0
M  V30 232 N 23.6496 -1.47581 0.552962 0
M  V30 233 C 24.8976 -2.02082 0.0272703 0
M  V30 234 C 25.2186 -1.4301 -1.32563 0
M  V30 235 O 24.4886 -0.603745 -1.86365 0
M  V30 236 H 23.0686 -0.746966 0.00709182 0
M  V30 237 H 25.7306 -1.81033 0.722008 0
M  V30 238 H 24.8266 -3.12034 -0.0639951 0
M  V30 239 N 25.1277 -0.289203 -1.54924 0
M  V30 240 C 26.3767 0.324231 -1.99077 0
M  V30 241 C 26.6897 1.5591 -1.18117 0
M  V30 242 O 27.8957 2.24637 -1.52481 0
M  V30 243 C 26.3517 0.628209 -3.54375 0
M  V30 244 C 25.9597 -0.587647 -4.44129 0
M  V30 245 C 27.7037 1.20349 -4.07083 0
M  V30 246 C 25.6107 -0.257475 -5.90839 0
M  V30 247 H 24.5407 0.124924 -0.743579 0
M  V30 248 H 27.1917 -0.396063 -1.79175 0
M  V30 249 H 25.5737 1.40778 -3.70132 0
M  V30 250 H 26.7477 -1.36418 -4.40144 0
M  V30 251 H 25.0627 -1.08074 -4.0213 0
M  V30 252 H 27.6597 1.46456 -5.14252 0
M  V30 253 H 28.0027 2.14195 -3.56968 0
M  V30 254 H 28.5357 0.485889 -3.94821 0
M  V30 255 H 25.2747 -1.16419 -6.45079 0
M  V30 256 H 24.7947 0.482018 -5.9786 0
M  V30 257 H 26.4737 0.145238 -6.46837 0
M  V30 258 N 26.6058 1.57591 -0.0167156 0
M  V30 259 C 27.8548 1.90461 0.663877 0
M  V30 260 C 28.1678 0.893515 1.73999 0
M  V30 261 O 29.3738 1.11302 2.47637 0
M  V30 262 C 27.8298 3.38155 1.23204 0
M  V30 263 C 27.4378 4.47597 0.189866 0
M  V30 264 C 29.1818 3.80111 1.88986 0
M  V30 265 C 27.0888 5.86379 0.768964 0
M  V30 266 H 26.0188 0.710738 0.251729 0
M  V30 267 H 28.6698 1.83326 -0.0799926 0
M  V30 268 H 27.0518 3.40182 2.02712 0
M  V30 269 H 28.2258 4.57112 -0.581846 0
M  V30 270 H 26.5408 4.14766 -0.368475 0
M  V30 271 H 29.1378 4.81145 2.33247 0
M  V30 272 H 29.4808 3.14511 2.72743 0
M  V30 273 H 30.0138 3.80454 1.16187 0
M  V30 274 H 26.7528 6.55493 -0.0301957 0
M  V30 275 H 26.2728 5.80496 1.50945 0
M  V30 276 H 27.9518 6.34563 1.26251 0
M  V30 277 N 28.0839 -0.256276 1.55502 0
M  V30 278 C 29.0319 -1.33694 1.90338 0
M  V30 279 C 30.0259 -1.50299 0.781441 0
M  V30 280 O 31.2319 -1.51885 0.965966 0
M  V30 281 H 27.6069 -0.447483 0.60437 0
M  V30 282 H 29.5779 -1.01574 2.8058 0
M  V30 283 C 28.3269 -2.68724 2.20642 0
M  V30 284 H 27.6499 -2.56743 3.06469 0
M  V30 285 H 29.0899 -3.43237 2.48926 0
M  V30 286 C 27.5489 -3.21101 1.01959 0
M  V30 287 O 28.0789 -4.0084 0.262762 0
M  V30 288 N 26.2849 -2.79003 0.812746 0
M  V30 289 H 25.8319 -2.14271 1.42989 0
M  V30 290 H 25.7899 -3.14393 0.0203076 0
M  V30 291 N 29.562 -1.4872 -0.521534 0
M  V30 292 C 30.809 -1.57168 -1.27689 0
M  V30 293 C 31.137 -0.249275 -1.92896 0
M  V30 294 O 30.392 0.761162 -1.80291 0
M  V30 295 C 30.691 -2.66497 -2.38148 0
M  V30 296 C 30.357 -4.08664 -1.90538 0
M  V30 297 C 29.019 -4.47357 -1.77271 0
M  V30 298 C 31.371 -4.97724 -1.54663 0
M  V30 299 C 28.699 -5.72905 -1.26478 0
M  V30 300 C 31.051 -6.2377 -1.05329 0
M  V30 301 C 29.715 -6.61311 -0.906861 0
M  V30 302 H 28.985 -0.575117 -0.467249 0
M  V30 303 H 31.632 -1.82472 -0.581051 0
M  V30 304 H 29.937 -2.35085 -3.13437 0
M  V30 305 H 31.634 -2.70246 -2.96257 0
M  V30 306 H 28.224 -3.78111 -2.01816 0
M  V30 307 H 32.408 -4.68501 -1.63768 0
M  V30 308 H 27.664 -6.00709 -1.13835 0
M  V30 309 H 31.838 -6.9217 -0.76644 0
M  V30 310 H 29.465 -7.5848 -0.511083 0
M  V30 311 N 31.0401 0.771051 -1.3745 0
M  V30 312 C 31.9501 1.91538 -1.35464 0
M  V30 313 C 32.9661 1.72134 -0.254123 0
M  V30 314 O 34.1421 1.95358 -0.489626 0
M  V30 315 C 31.2071 3.26671 -1.16134 0
M  V30 316 C 30.2681 3.58723 -2.35831 0
M  V30 317 C 29.5011 4.87409 -2.17413 0
M  V30 318 O 29.7241 5.58506 -1.15876 0
M  V30 319 O 28.6581 5.18539 -3.05615 0
M  V30 320 H 32.4841 1.96165 -2.31847 0
M  V30 321 H 30.0691 0.9139 -1.18187 0
M  V30 322 H 31.9511 4.07499 -1.07345 0
M  V30 323 H 30.6261 3.22894 -0.228251 0
M  V30 324 H 29.5331 2.78127 -2.50192 0
M  V30 325 H 30.8661 3.67243 -3.27709 0
M  V30 326 N 32.5182 1.22032 0.997298 0
M  V30 327 C 33.4502 0.944263 2.08845 0
M  V30 328 C 34.4632 -0.0754663 1.62625 0
M  V30 329 O 35.6522 0.157994 1.77799 0
M  V30 330 C 32.7522 0.397723 3.36558 0
M  V30 331 C 31.9252 1.47362 4.11829 0
M  V30 332 C 30.9842 0.934951 5.17827 0
M  V30 333 O 30.0102 1.62016 5.45655 0
M  V30 334 N 31.2122 -0.245895 5.79979 0
M  V30 335 H 33.9772 1.88363 2.33109 0
M  V30 336 H 31.5382 1.12661 1.16272 0
M  V30 337 H 33.5302 0.0227771 4.04694 0
M  V30 338 H 32.1002 -0.446646 3.09393 0
M  V30 339 H 31.3202 2.02208 3.38386 0
M  V30 340 H 32.6082 2.19764 4.58891 0
M  V30 341 H 32.0062 -0.819475 5.59733 0
M  V30 342 H 30.5632 -0.562272 6.4937 0
M  V30 343 N 33.9963 -1.19345 1.0293 0
M  V30 344 C 34.9433 -2.2258 0.610464 0
M  V30 345 C 35.9133 -1.6179 -0.375946 0
M  V30 346 O 37.0983 -1.88844 -0.272511 0
M  V30 347 C 34.2383 -3.45085 -0.0321473 0
M  V30 348 C 33.3513 -4.20258 1.00035 0
M  V30 349 C 32.4863 -5.3019 0.32746 0
M  V30 350 C 31.5253 -5.97121 1.34584 0
M  V30 351 N 30.6623 -6.98615 0.698726 0
M  V30 352 H 35.5023 -2.57764 1.49538 0
M  V30 353 H 33.0393 -1.26644 0.748311 0
M  V30 354 H 34.9973 -4.15061 -0.421966 0
M  V30 355 H 33.6273 -3.10555 -0.88064 0
M  V30 356 H 32.6793 -3.49223 1.50823 0
M  V30 357 H 33.9913 -4.66175 1.77433 0
M  V30 358 H 33.1453 -6.06587 -0.11718 0
M  V30 359 H 31.8843 -4.85345 -0.478713 0
M  V30 360 H 30.8893 -5.19474 1.80074 0
M  V30 361 H 32.1143 -6.4405 2.15352 0
M  V30 362 H 30.0603 -6.55942 -0.0873471 0
M  V30 363 H 29.9773 -7.42724 1.41058 0
M  V30 364 H 31.2453 -7.79004 0.278102 0
M  V30 365 N 35.4744 -0.807222 -1.35358 0
M  V30 366 C 36.3844 -0.219594 -2.3357 0
M  V30 367 C 37.4004 0.637734 -1.61892 0
M  V30 368 O 38.5764 0.549336 -1.93763 0
M  V30 369 C 35.6414 0.62158 -3.41083 0
M  V30 370 C 34.7024 -0.256315 -4.28534 0
M  V30 371 C 33.9354 0.544807 -5.30912 0
M  V30 372 O 34.1584 1.77944 -5.41934 0
M  V30 373 O 33.0924 -0.0646478 -6.01865 0
M  V30 374 H 36.9184 -1.03208 -2.85625 0
M  V30 375 H 34.5034 -0.569025 -1.38139 0
M  V30 376 H 36.3854 1.10067 -4.06772 0
M  V30 377 H 35.0604 1.41165 -2.91297 0
M  V30 378 H 33.9674 -0.782559 -3.65823 0
M  V30 379 H 35.3004 -1.01034 -4.81719 0
M  V30 380 N 36.9525 1.47285 -0.560781 0
M  V30 381 C 38.1775 2.07359 -0.0410566 0
M  V30 382 C 38.6025 1.41017 1.24483 0
M  V30 383 O 37.9605 0.486368 1.74654 0
M  V30 384 C 38.0085 3.6035 0.134123 0
M  V30 385 O 37.1125 3.94681 1.19587 0
M  V30 386 H 36.4535 0.661887 -0.0529291 0
M  V30 387 H 38.9835 1.89252 -0.777482 0
M  V30 388 H 38.9935 4.0652 0.347207 0
M  V30 389 H 37.6685 4.08034 -0.805047 0
M  V30 390 H 36.2455 3.60251 0.962987 0
M  V30 391 N 38.4306 0.297415 1.54768 0
M  V30 392 C 39.3786 -0.596051 2.24833 0
M  V30 393 C 40.3726 -1.13992 1.25308 0
M  V30 394 O 41.5786 -1.09098 1.4317 0
M  V30 395 H 37.9536 -0.210814 0.721846 0
M  V30 396 H 39.9246 0.0174667 2.98395 0
M  V30 397 C 38.6736 -1.75818 2.99972 0
M  V30 398 H 37.9966 -1.3489 3.76357 0
M  V30 399 H 39.4366 -2.35949 3.52284 0
M  V30 400 C 37.8956 -2.66014 2.06732 0
M  V30 401 O 38.4256 -3.67009 1.63302 0
M  V30 402 N 36.6316 -2.33669 1.72763 0
M  V30 403 H 36.1786 -1.51586 2.08277 0
M  V30 404 H 36.1366 -2.94285 1.10652 0
M  V30 405 N 39.9087 -1.5758 0.0250728 0
M  V30 406 C 41.1567 -1.91255 -0.653151 0
M  V30 407 C 41.4777 -0.901691 -1.729 0
M  V30 408 O 40.7477 0.0573785 -1.95816 0
M  V30 409 H 39.3277 -0.705942 -0.244243 0
M  V30 410 H 41.9897 -1.94767 0.0719209 0
M  V30 411 H 41.0857 -2.91752 -1.10847 0
M  V30 412 N 41.3868 0.248026 -1.55636 0
M  V30 413 C 42.7978 0.817177 -1.67866 0
M  V30 414 C 43.1488 1.86069 -0.622322 0
M  V30 415 O 42.2738 2.15157 0.231618 0
M  V30 416 C 42.8688 1.489 -3.04326 0
M  V30 417 C 41.4278 2.00587 -3.185 0
M  V30 418 C 40.5748 0.856573 -2.63739 0
M  V30 419 H 43.5258 0.0238579 -1.58682 0
M  V30 420 H 43.5468 2.35698 -2.98708 0
M  V30 421 H 43.0588 0.729279 -3.81186 0
M  V30 422 H 41.1598 2.79443 -2.4646 0
M  V30 423 H 41.2728 2.20402 -4.25393 0
M  V30 424 H 39.6368 1.25678 -2.21534 0
M  V30 425 H 40.4198 0.109953 -3.43124 0
M  V30 426 N 42.8649 1.48995 0.513639 0
M  V30 427 C 44.1109 1.58076 1.27042 0
M  V30 428 C 44.4439 0.261026 1.92438 0
M  V30 429 O 43.7189 -0.734393 1.80103 0
M  V30 430 C 44.0019 2.73091 2.34719 0
M  V30 431 C 43.8549 4.14821 1.73907 0
M  V30 432 C 45.1739 2.83796 3.36375 0
M  V30 433 H 42.2929 0.575391 0.460536 0
M  V30 434 H 44.9349 1.81232 0.570516 0
M  V30 435 H 43.0849 2.53479 2.94416 0
M  V30 436 H 44.7569 4.45917 1.18135 0
M  V30 437 H 42.9999 4.21058 1.0437 0
M  V30 438 H 43.6709 4.91147 2.51949 0
M  V30 439 H 46.1469 3.01611 2.86653 0
M  V30 440 H 45.0229 3.65971 4.09093 0
M  V30 441 H 45.2839 1.92624 3.9793 0
M  V30 442 N 44.343 -0.763751 1.37857 0
M  V30 443 C 45.29 -1.87726 1.34267 0
M  V30 444 C 46.26 -1.64807 0.206879 0
M  V30 445 O 47.445 -1.86613 0.397508 0
M  V30 446 C 44.585 -3.24896 1.16346 0
M  V30 447 C 43.698 -3.59716 2.39225 0
M  V30 448 C 42.833 -4.86137 2.14114 0
M  V30 449 C 41.872 -5.13711 3.32817 0
M  V30 450 N 41.009 -6.31323 3.07206 0
M  V30 451 H 45.849 -1.90129 2.29466 0
M  V30 452 H 43.386 -0.929433 1.14017 0
M  V30 453 H 45.344 -4.04036 1.03975 0
M  V30 454 H 43.974 -3.21847 0.247909 0
M  V30 455 H 43.026 -2.75498 2.62307 0
M  V30 456 H 44.338 -3.76027 3.27728 0
M  V30 457 H 43.492 -5.73198 1.9882 0
M  V30 458 H 42.231 -4.71945 1.22961 0
M  V30 459 H 41.236 -4.25123 3.48641 0
M  V30 460 H 42.461 -5.29807 4.24832 0
M  V30 461 H 40.407 -6.18474 2.1869 0
M  V30 462 H 40.324 -6.48087 3.89254 0
M  V30 463 H 41.592 -7.213 2.95546 0
M  V30 464 N 45.8211 -1.22559 -0.990812 0
M  V30 465 C 47.0671 -1.05297 -1.73322 0
M  V30 466 C 47.4001 0.410655 -1.89808 0
M  V30 467 O 46.6751 1.30439 -1.44277 0
M  V30 468 C 46.9581 -1.76713 -3.13759 0
M  V30 469 C 46.8111 -3.30684 -3.04907 0
M  V30 470 C 48.1301 -1.52121 -4.12974 0
M  V30 471 H 45.2491 -0.38392 -0.629106 0
M  V30 472 H 47.8911 -1.50926 -1.15418 0
M  V30 473 H 46.0411 -1.37924 -3.63193 0
M  V30 474 H 47.7131 -3.7893 -2.63077 0
M  V30 475 H 45.9561 -3.60253 -2.41661 0
M  V30 476 H 46.6271 -3.75833 -4.04294 0
M  V30 477 H 49.1031 -1.85819 -3.72304 0
M  V30 478 H 47.9791 -2.04582 -5.0935 0
M  V30 479 H 48.2401 -0.454257 -4.3976 0
M  V30 480 N 47.2992 1.18797 -1.03562 0
M  V30 481 C 48.5452 1.89192 -0.746867 0
M  V30 482 C 48.9002 1.78531 0.717245 0
M  V30 483 O 48.1932 1.17137 1.51622 0
M  V30 484 C 48.3872 3.38692 -1.14117 0
M  V30 485 C 48.2162 3.63902 -2.64207 0
M  V30 486 C 46.9862 3.81553 -3.31279 0
M  V30 487 C 49.1842 3.64903 -3.62423 0
M  V30 488 N 47.1662 3.94455 -4.70402 0
M  V30 489 C 48.5372 3.83458 -4.87196 0
M  V30 490 C 50.5922 3.47965 -3.56125 0
M  V30 491 C 49.2952 3.86829 -6.06429 0
M  V30 492 C 51.3212 3.52616 -4.7478 0
M  V30 493 C 50.6832 3.71663 -5.9837 0
M  V30 494 H 46.7822 0.711141 -0.325273 0
M  V30 495 H 49.3662 1.42727 -1.32428 0
M  V30 496 H 47.5372 3.83864 -0.591889 0
M  V30 497 H 49.2692 3.96634 -0.803966 0
M  V30 498 H 46.0242 3.80723 -2.81686 0
M  V30 499 H 46.4482 4.0474 -5.42692 0
M  V30 500 H 51.0902 3.32189 -2.61553 0
M  V30 501 H 48.8082 4.01395 -7.01362 0
M  V30 502 H 52.3942 3.40791 -4.71543 0
M  V30 503 H 51.2742 3.75145 -6.88648 0
M  V30 504 N 48.7773 0.814389 1.34928 0
M  V30 505 C 50.0253 0.397636 1.9815 0
M  V30 506 C 50.3463 -1.04069 1.64908 0
M  V30 507 O 49.6163 -1.72121 0.93548 0
M  V30 508 H 48.1963 0.144043 0.732981 0
M  V30 509 H 50.8583 1.04195 1.6471 0
M  V30 510 H 49.9543 0.509688 3.0791 0
M  V30 511 N 50.2554 -1.46986 0.568584 0
M  V30 512 C 51.4804 -2.07335 0.0520528 0
M  V30 513 C 51.9054 -1.41675 -1.23733 0
M  V30 514 O 51.2634 -0.495623 -1.74394 0
M  V30 515 C 51.3114 -3.60417 -0.11501 0
M  V30 516 O 50.4154 -3.95309 -1.17492 0
M  V30 517 H 49.7564 -0.661597 0.0564385 0
M  V30 518 H 52.2864 -1.88837 0.787507 0
M  V30 519 H 52.2964 -4.06698 -0.325644 0
M  V30 520 H 50.9714 -4.07601 0.826675 0
M  V30 521 H 49.5484 -3.60757 -0.943869 0
M  V30 522 N 51.7335 -0.305618 -1.54608 0
M  V30 523 C 52.9825 0.303098 -1.9941 0
M  V30 524 C 53.2955 1.54648 -1.19764 0
M  V30 525 O 54.5015 2.23007 -1.54855 0
M  V30 526 C 52.9575 0.590588 -3.55021 0
M  V30 527 C 52.5655 -0.634719 -4.43481 0
M  V30 528 C 54.3095 1.16025 -4.08336 0
M  V30 529 C 52.2165 -0.320126 -5.90533 0
M  V30 530 H 51.1465 0.117031 -0.744862 0
M  V30 531 H 53.7975 -0.415045 -1.78745 0
M  V30 532 H 52.1795 1.36845 -3.71604 0
M  V30 533 H 53.3535 -1.41079 -4.38672 0
M  V30 534 H 51.6685 -1.12333 -4.00962 0
M  V30 535 H 54.2655 1.40994 -5.15776 0
M  V30 536 H 54.6085 2.10397 -3.5922 0
M  V30 537 H 55.1415 0.443985 -3.95315 0
M  V30 538 H 51.8805 -1.23254 -6.43808 0
M  V30 539 H 51.4005 0.418579 -5.98338 0
M  V30 540 H 53.0795 0.0766241 -6.46955 0
M  V30 541 N 53.2116 1.57565 -0.0334293 0
M  V30 542 C 54.1586 2.10478 0.946981 0
M  V30 543 C 55.1286 1.00787 1.32027 0
M  V30 544 O 56.3136 1.28232 1.41284 0
M  V30 545 C 53.4536 2.63994 2.22263 0
M  V30 546 C 52.5666 3.87709 1.90541 0
M  V30 547 C 51.7016 4.29604 3.12433 0
M  V30 548 C 50.7406 5.46065 2.76549 0
M  V30 549 N 49.8776 5.83096 3.9108 0
M  V30 550 H 54.7176 2.93963 0.488846 0
M  V30 551 H 52.2546 1.45296 0.22969 0
M  V30 552 H 54.2126 2.93114 2.96884 0
M  V30 553 H 52.8426 1.83333 2.65685 0
M  V30 554 H 51.8946 3.65291 1.06144 0
M  V30 555 H 53.2066 4.72403 1.60116 0
M  V30 556 H 52.3606 4.60182 3.9537 0
M  V30 557 H 51.0996 3.43685 3.46023 0
M  V30 558 H 50.1046 5.15176 1.92026 0
M  V30 559 H 51.3296 6.33685 2.44171 0
M  V30 560 H 49.2756 5.00132 4.24504 0
M  V30 561 H 49.1926 6.6244 3.64293 0
M  V30 562 H 50.4606 6.18282 4.74708 0
M  V30 563 N 54.6897 -0.239769 1.55765 0
M  V30 564 C 55.9377 -0.964892 1.77579 0
M  V30 565 C 56.2587 -1.85582 0.598699 0
M  V30 566 O 55.5287 -1.92075 -0.385226 0
M  V30 567 H 54.1087 -0.359265 0.654933 0
M  V30 568 H 56.7707 -0.256001 1.93211 0
M  V30 569 H 55.8667 -1.58243 2.69009 0
M  V30 570 N 56.1678 -1.49265 -0.50573 0
M  V30 571 C 57.0978 -1.68495 -1.61653 0
M  V30 572 C 58.0788 -0.53366 -1.61512 0
M  V30 573 O 59.2638 -0.76897 -1.78327 0
M  V30 574 C 56.3938 -1.74709 -3.00157 0
M  V30 575 C 55.3478 -2.89581 -3.15162 0
M  V30 576 C 54.6738 -2.80903 -4.5497 0
M  V30 577 C 55.9738 -4.30578 -2.95634 0
M  V30 578 H 57.6678 -2.61493 -1.45814 0
M  V30 579 H 55.2138 -1.25838 -0.70005 0
M  V30 580 H 57.1668 -1.86748 -3.77761 0
M  V30 581 H 55.8908 -0.783067 -3.17074 0
M  V30 582 H 54.5498 -2.77136 -2.39982 0
M  V30 583 H 54.1978 -1.82419 -4.68756 0
M  V30 584 H 53.8978 -3.57999 -4.65951 0
M  V30 585 H 55.4218 -2.94944 -5.34641 0
M  V30 586 H 56.8358 -4.4373 -3.63011 0
M  V30 587 H 55.2328 -5.0886 -3.18091 0
M  V30 588 H 56.3028 -4.45352 -1.91806 0
M  V30 589 N 57.6459 0.756429 -1.3826 0
M  V30 590 C 58.8739 1.54565 -1.3754 0
M  V30 591 C 59.2889 1.88767 0.0355331 0
M  V30 592 O 58.6459 1.52572 1.0014 0
M  V30 593 C 58.6969 2.84654 -2.22833 0
M  V30 594 O 58.4179 2.51912 -3.5843 0
M  V30 595 C 59.9189 3.78807 -2.30261 0
M  V30 596 H 57.1389 0.478353 -0.470553 0
M  V30 597 H 59.6829 0.936381 -1.81803 0
M  V30 598 H 57.8379 3.41965 -1.8204 0
M  V30 599 H 58.2519 3.35325 -4.03308 0
M  V30 600 H 59.7259 4.67045 -2.94233 0
M  V30 601 H 60.2029 4.19038 -1.31545 0
M  V30 602 H 60.8089 3.2742 -2.71433 0
M  V30 603 N 59.124 1.23083 0.984299 0
M  V30 604 C 60.034 1.02515 2.11016 0
M  V30 605 C 61.05 -0.0291702 1.73976 0
M  V30 606 O 62.226 0.165434 2.00719 0
M  V30 607 C 59.291 0.614673 3.41208 0
M  V30 608 C 58.352 1.74359 3.92297 0
M  V30 609 C 57.585 1.35261 5.16275 0
M  V30 610 O 57.808 0.235136 5.69915 0
M  V30 611 O 56.742 2.17227 5.61334 0
M  V30 612 H 60.568 1.96862 2.31255 0
M  V30 613 H 58.153 1.01753 1.09392 0
M  V30 614 H 60.035 0.396518 4.1953 0
M  V30 615 H 58.71 -0.299851 3.22308 0
M  V30 616 H 57.617 2.01635 3.1511 0
M  V30 617 H 58.95 2.63629 4.15645 0
M  V30 618 N 60.6021 -1.18246 1.0419 0
M  V30 619 C 61.8501 -1.87886 0.744543 0
M  V30 620 C 62.1711 -1.8082 -0.730006 0
M  V30 621 O 61.4411 -1.22736 -1.52685 0
M  V30 622 H 60.0211 -0.695556 0.272417 0
M  V30 623 H 62.6831 -1.43494 1.31892 0
M  V30 624 H 61.7791 -2.9389 1.05049 0
M  V30 625 N 62.0802 -0.821533 -1.34494 0
M  V30 626 C 63.0102 -0.257138 -2.3208 0
M  V30 627 C 63.9912 0.625645 -1.58176 0
M  V30 628 O 65.1762 0.552811 -1.86166 0
M  V30 629 C 62.3062 0.582958 -3.42372 0
M  V30 630 C 61.2602 -0.202571 -4.2752 0
M  V30 631 C 60.5862 0.760179 -5.29269 0
M  V30 632 C 61.8862 -1.40998 -5.02908 0
M  V30 633 H 63.5802 -1.07247 -2.79532 0
M  V30 634 H 61.1262 -0.517163 -1.34393 0
M  V30 635 H 63.0792 0.987972 -4.09655 0
M  V30 636 H 61.8032 1.43133 -2.93565 0
M  V30 637 H 60.4622 -0.588936 -3.61838 0
M  V30 638 H 60.1102 1.60447 -4.76724 0
M  V30 639 H 59.8102 0.238809 -5.87115 0
M  V30 640 H 61.3342 1.16308 -5.9942 0
M  V30 641 H 62.7482 -1.07905 -5.63054 0
M  V30 642 H 61.1452 -1.86689 -5.70322 0
M  V30 643 H 62.2152 -2.1889 -4.32684 0
M  V30 644 N 63.5583 1.46682 -0.576371 0
M  V30 645 C 64.5083 2.27278 0.181288 0
M  V30 646 C 65.4923 1.35497 0.867721 0
M  V30 647 O 66.6843 1.59717 0.762863 0
M  V30 648 C 63.8133 3.21703 1.19841 0
M  V30 649 C 62.8993 4.20969 0.51442 0
M  V30 650 N 63.2903 5.03999 -0.426407 0
M  V30 651 C 61.5883 4.39373 0.765963 0
M  V30 652 C 62.2893 5.75812 -0.825565 0
M  V30 653 N 61.2653 5.43315 -0.176116 0
M  V30 654 H 65.0673 2.88863 -0.541785 0
M  V30 655 H 62.5813 1.57455 -0.397697 0
M  V30 656 H 64.5783 3.78145 1.75533 0
M  V30 657 H 63.2383 2.61677 1.92238 0
M  V30 658 H 64.2493 5.11659 -0.8016 0
M  V30 659 H 60.9263 3.90502 1.47698 0
M  V30 660 H 62.3163 6.52577 -1.59976 0
M  V30 661 N 65.0364 0.313813 1.54444 0
M  V30 662 C 66.2844 -0.291099 1.99993 0
M  V30 663 C 66.6054 -1.53418 1.20366 0
M  V30 664 O 65.8754 -1.93544 0.302927 0
M  V30 665 H 64.4554 -0.110552 0.738774 0
M  V30 666 H 67.1174 0.428106 1.9014 0
M  V30 667 H 66.2134 -0.554268 3.07139 0
M  V30 668 N 66.5145 -1.57545 0.0417849 0
M  V30 669 C 67.7615 -1.92317 -0.634082 0
M  V30 670 C 68.0895 -0.919334 -1.71402 0
M  V30 671 O 67.3445 0.0698253 -1.95575 0
M  V30 672 C 67.6435 -3.33794 -1.27735 0
M  V30 673 C 67.3095 -4.49716 -0.326543 0
M  V30 674 C 65.9715 -4.81156 -0.0648814 0
M  V30 675 C 68.3235 -5.20182 0.325623 0
M  V30 676 C 65.6515 -5.80414 0.856539 0
M  V30 677 C 68.0035 -6.20424 1.23518 0
M  V30 678 C 66.6675 -6.50298 1.5056 0
M  V30 679 H 65.9375 -0.703736 -0.232027 0
M  V30 680 H 68.5845 -1.91205 0.106259 0
M  V30 681 H 66.8895 -3.31228 -2.09274 0
M  V30 682 H 68.5865 -3.57975 -1.80707 0
M  V30 683 H 65.1765 -4.25176 -0.540665 0
M  V30 684 H 69.3605 -4.96112 0.136546 0
M  V30 685 H 64.6165 -6.019 1.07363 0
M  V30 686 H 68.7905 -6.74141 1.74664 0
M  V30 687 H 66.4175 -7.27025 2.22123 0
M  V30 688 N 67.9926 0.231505 -1.5589 0
M  V30 689 C 68.9426 1.29007 -1.87993 0
M  V30 690 C 69.9266 1.42764 -0.742102 0
M  V30 691 O 71.1186 1.45747 -1.00433 0
M  V30 692 C 68.2476 2.6425 -2.1915 0
M  V30 693 C 67.3336 2.54435 -3.39299 0
M  V30 694 N 67.7246 2.14262 -4.58176 0
M  V30 695 C 66.0226 2.85416 -3.42715 0
M  V30 696 C 66.7236 2.15455 -5.40328 0
M  V30 697 N 65.6996 2.55558 -4.79783 0
M  V30 698 H 69.5016 0.970213 -2.77424 0
M  V30 699 H 67.0156 0.440097 -1.56323 0
M  V30 700 H 69.0126 3.40665 -2.40319 0
M  V30 701 H 67.6726 2.9709 -1.31025 0
M  V30 702 H 68.6836 1.85554 -4.83518 0
M  V30 703 H 65.3606 3.22693 -2.64906 0
M  V30 704 H 66.7506 1.86605 -6.45467 0
M  V30 705 N 69.4707 1.49531 0.497807 0
M  V30 706 C 70.7167 1.59415 1.25358 0
M  V30 707 C 71.0497 0.281422 1.9215 0
M  V30 708 O 70.3247 -0.715249 1.80871 0
M  V30 709 C 70.6077 2.75566 2.3181 0
M  V30 710 C 70.4607 4.16642 1.69498 0
M  V30 711 C 71.7797 2.87347 3.33346 0
M  V30 712 H 68.8987 0.580244 0.454408 0
M  V30 713 H 71.5407 1.81827 0.551262 0
M  V30 714 H 69.6907 2.56587 2.91711 0
M  V30 715 H 71.3627 4.47145 1.13399 0
M  V30 716 H 69.6057 4.22141 0.998978 0
M  V30 717 H 70.2767 4.93792 2.46725 0
M  V30 718 H 72.7527 3.04634 2.83438 0
M  V30 719 H 71.6287 3.70289 4.05188 0
M  V30 720 H 71.8897 1.96834 3.95865 0
M  V30 721 N 70.9488 -0.749086 1.3866 0
M  V30 722 C 71.8988 -1.85368 1.32751 0
M  V30 723 C 72.8828 -1.59511 0.210945 0
M  V30 724 O 74.0748 -1.71255 0.447299 0
M  V30 725 C 71.2038 -3.23131 1.15935 0
M  V30 726 C 70.2898 -3.54864 2.32233 0
M  V30 727 N 70.6808 -3.57625 3.57684 0
M  V30 728 C 68.9788 -3.85154 2.24883 0
M  V30 729 C 69.6798 -3.86753 4.34508 0
M  V30 730 N 68.6558 -4.03812 3.63918 0
M  V30 731 H 72.4578 -1.85787 2.27729 0
M  V30 732 H 69.9718 -0.946658 1.31955 0
M  V30 733 H 71.9688 -4.02185 1.09786 0
M  V30 734 H 70.6288 -3.23961 0.218947 0
M  V30 735 H 71.6398 -3.39276 3.91295 0
M  V30 736 H 68.3168 -3.93672 1.39027 0
M  V30 737 H 69.7068 -3.95474 5.43185 0
M  V30 738 N 72.4269 -1.23603 -0.977757 0
M  V30 739 C 73.3369 -1.03632 -2.1047 0
M  V30 740 C 74.3529 0.0199435 -1.73989 0
M  V30 741 O 75.5289 -0.176076 -2.00629 0
M  V30 742 C 72.5939 -0.63276 -3.40877 0
M  V30 743 C 71.6549 -1.76437 -3.91367 0
M  V30 744 C 70.8879 -1.37997 -5.15551 0
M  V30 745 O 71.1109 -0.265357 -5.69782 0
M  V30 746 O 70.0449 -2.20201 -5.60174 0
M  V30 747 H 73.8709 -1.98086 -2.30208 0
M  V30 748 H 71.4559 -1.02332 -1.08851 0
M  V30 749 H 73.3379 -0.418761 -4.19314 0
M  V30 750 H 72.0129 0.282754 -3.22463 0
M  V30 751 H 70.9199 -2.03304 -3.14036 0
M  V30 752 H 72.2529 -2.6583 -4.14241 0
M  V30 753 N 73.905 1.17692 -1.04816 0
M  V30 754 C 75.152 1.87859 -0.75599 0
M  V30 755 C 75.48 1.80812 0.716752 0
M  V30 756 O 74.735 1.20819 1.53952 0
M  V30 757 C 75.034 3.37462 -1.17703 0
M  V30 758 C 74.7 3.64713 -2.65133 0
M  V30 759 C 73.362 3.71859 -3.05408 0
M  V30 760 C 75.714 3.76492 -3.60421 0
M  V30 761 C 73.042 3.88271 -4.39843 0
M  V30 762 C 75.394 3.94421 -4.94585 0
M  V30 763 C 74.058 3.99806 -5.3452 0
M  V30 764 H 73.328 0.687425 -0.276636 0
M  V30 765 H 75.975 1.39255 -1.31455 0
M  V30 766 H 74.28 3.88097 -0.537395 0
M  V30 767 H 75.977 3.90109 -0.928218 0
M  V30 768 H 72.567 3.59772 -2.32942 0
M  V30 769 H 76.751 3.70295 -3.30447 0
M  V30 770 H 72.007 3.90687 -4.70291 0
M  V30 771 H 76.181 4.02477 -5.68318 0
M  V30 772 H 73.808 4.12276 -6.38696 0
M  V30 773 N 75.3831 0.828654 1.34056 0
M  V30 774 C 76.6311 0.41863 1.97717 0
M  V30 775 C 76.9521 -1.02314 1.66002 0
M  V30 776 O 76.2221 -1.71119 0.953683 0
M  V30 777 H 74.8021 0.151809 0.731412 0
M  V30 778 H 77.4641 1.05936 1.63596 0
M  V30 779 H 76.5601 0.542318 3.07352 0
M  V30 780 N 76.8612 -1.46375 0.584142 0
M  V30 781 C 78.1382 -1.956 0.0033388 0
M  V30 782 C 78.5182 -1.52679 -1.45782 0
M  V30 783 O 77.8662 -0.77816 -2.14842 0
M  V30 784 C 78.0762 -3.48551 0.176891 0
M  V30 785 C 79.4242 -4.24576 0.0454609 0
M  V30 786 O 80.4482 -3.56043 0.105801 0
M  V30 787 O 79.3072 -5.46427 -0.0890376 0
M  V30 788 H 76.4012 -0.825547 -0.0490066 0
M  V30 789 H 78.9472 -1.56652 0.65256 0
M  V30 790 H 77.7192 -3.72683 1.1926 0
M  V30 791 H 77.3422 -3.94332 -0.508695 0
M  V30 792 N 78.3393 -0.321999 -1.54275 0
M  V30 793 C 79.2873 0.560206 -2.25753 0
M  V30 794 C 80.2813 1.11984 -1.27106 0
M  V30 795 O 81.4873 1.06806 -1.44888 0
M  V30 796 H 77.8623 0.199304 -0.725108 0
M  V30 797 H 79.8333 -0.0649365 -2.98329 0
M  V30 798 C 78.5823 1.71023 -3.02731 0
M  V30 799 H 77.9053 1.28885 -3.78456 0
M  V30 800 H 79.3453 2.30314 -3.55993 0
M  V30 801 C 77.8043 2.62692 -2.10938 0
M  V30 802 O 78.3343 3.64364 -1.6912 0
M  V30 803 N 76.5403 2.30891 -1.76459 0
M  V30 804 H 76.0873 1.48253 -2.10663 0
M  V30 805 H 76.0453 2.92487 -1.1532 0
M  V30 806 N 79.8174 1.5752 -0.0501392 0
M  V30 807 C 81.0454 1.96963 0.633492 0
M  V30 808 C 81.4604 0.927631 1.6444 0
M  V30 809 O 80.8174 -0.0882665 1.82286 0
M  V30 810 C 80.8684 3.36487 1.32132 0
M  V30 811 O 80.5894 4.36693 0.350894 0
M  V30 812 C 82.0904 3.90682 2.09481 0
M  V30 813 H 79.3104 0.648244 0.173266 0
M  V30 814 H 81.8544 2.0417 -0.116134 0
M  V30 815 H 80.0094 3.30434 2.02218 0
M  V30 816 H 80.4234 5.17702 0.841735 0
M  V30 817 H 81.8974 4.90591 2.5303 0
M  V30 818 H 82.3744 3.26053 2.94255 0
M  V30 819 H 82.9804 4.00069 1.44307 0
M  V30 820 N 81.2955 -0.223234 1.56011 0
M  V30 821 C 82.2585 -1.26014 1.9145 0
M  V30 822 C 83.2585 -1.3989 0.792937 0
M  V30 823 O 84.4485 -1.38184 1.0607 0
M  V30 824 C 81.5805 -2.63422 2.16383 0
M  V30 825 H 82.7735 -0.95796 2.84189 0
M  V30 826 H 80.3265 -0.463576 1.49267 0
M  V30 827 H 81.0615 -2.98741 1.2619 0
M  V30 828 H 80.8465 -2.54728 2.98088 0
M  V30 829 H 82.3365 -3.38249 2.44903 0
M  V30 830 N 82.7736 -1.49793 -0.48987 0
M  V30 831 C 84.0216 -1.59525 -1.24081 0
M  V30 832 C 84.3426 -0.288953 -1.92847 0
M  V30 833 O 83.6126 0.692436 -1.83254 0
M  V30 834 H 82.1926 -0.587796 -0.460983 0
M  V30 835 H 84.8546 -1.86477 -0.566778 0
M  V30 836 H 83.9506 -2.39696 -1.99881 0
M  V30 837 N 84.2517 0.741722 -1.39055 0
M  V30 838 C 85.4917 1.51385 -1.37338 0
M  V30 839 C 85.8557 1.91972 0.0330513 0
M  V30 840 O 87.0567 2.68229 0.175174 0
M  V30 841 C 85.3277 2.72481 -2.31276 0
M  V30 842 S 86.8867 3.62211 -2.47687 0
M  V30 843 H 83.7047 0.517906 -0.487129 0
M  V30 844 H 86.3067 0.86969 -1.7509 0
M  V30 845 H 85.0107 2.40793 -3.32336 0
M  V30 846 H 84.5417 3.41832 -1.94716 0
M  V30 847 H 86.5567 4.65812 -1.70978 0
M  V30 848 N 85.7298 1.2412 0.971189 0
M  V30 849 C 86.9578 1.10575 1.74874 0
M  V30 850 C 87.3728 -0.342017 1.85676 0
M  V30 851 O 86.7298 -1.23617 1.34258 0
M  V30 852 C 86.7808 1.73579 3.171 0
M  V30 853 O 86.5018 3.12695 3.06844 0
M  V30 854 C 88.0028 1.65598 4.11208 0
M  V30 855 H 85.2228 0.386504 0.548503 0
M  V30 856 H 87.7668 1.64156 1.21955 0
M  V30 857 H 85.9218 1.24009 3.67016 0
M  V30 858 H 86.3358 3.43412 3.96445 0
M  V30 859 H 87.8098 2.1437 5.08674 0
M  V30 860 H 88.2868 0.616532 4.34851 0
M  V30 861 H 88.8928 2.14578 3.67201 0
M  V30 862 N 87.2079 -1.17134 1.05439 0
M  V30 863 C 88.4329 -1.91913 0.786396 0
M  V30 864 C 88.8579 -1.7643 -0.652234 0
M  V30 865 O 88.2159 -1.08372 -1.45345 0
M  V30 866 C 88.2639 -3.40921 1.17497 0
M  V30 867 O 87.3679 -4.11244 0.308589 0
M  V30 868 H 86.7089 -0.598215 0.288158 0
M  V30 869 H 89.2389 -1.48457 1.4079 0
M  V30 870 H 89.2489 -3.91668 1.14281 0
M  V30 871 H 87.9239 -3.5151 2.22292 0
M  V30 872 H 86.5009 -3.70731 0.40157 0
M  V30 873 N 88.686 -0.835752 -1.33615 0
M  V30 874 C 89.649 -0.272 -2.2758 0
M  V30 875 C 90.649 0.557487 -1.50827 0
M  V30 876 O 91.839 0.37173 -1.70188 0
M  V30 877 C 88.971 0.617173 -3.35267 0
M  V30 878 H 90.164 -1.10111 -2.78954 0
M  V30 879 H 87.717 -0.608594 -1.43965 0
M  V30 880 H 88.452 1.46884 -2.89129 0
M  V30 881 H 88.237 0.0237066 -3.92093 0
M  V30 882 H 89.727 1.005 -4.05326 0
M  V30 883 N 90.1641 1.46063 -0.591896 0
M  V30 884 C 91.4121 2.01938 -0.0808391 0
M  V30 885 C 91.7331 1.46475 1.28725 0
M  V30 886 O 91.0031 0.652944 1.84698 0
M  V30 887 H 89.5831 0.746516 -0.0268938 0
M  V30 888 H 92.2451 1.79055 -0.769752 0
M  V30 889 H 91.3411 3.12094 -0.0187578 0
M  V30 890 N 91.6422 0.330177 1.54103 0
M  V30 891 C 93.0532 -0.15652 1.86043 0
M  V30 892 C 93.4042 -1.51086 1.2517 0
M  V30 893 O 92.5292 -2.09023 0.560217 0
M  V30 894 C 93.1242 -0.290784 3.3755 0
M  V30 895 C 91.6832 -0.721705 3.69416 0
M  V30 896 C 90.8302 0.152622 2.7688 0
M  V30 897 H 93.7812 0.550237 1.48856 0
M  V30 898 H 93.8022 -1.12058 3.63625 0
M  V30 899 H 93.3142 0.695068 3.81825 0
M  V30 900 H 91.4152 -1.71706 3.30678 0
M  V30 901 H 91.5282 -0.520869 4.7626 0
M  V30 902 H 89.8922 -0.372894 2.51956 0
M  V30 903 H 90.6752 1.13536 3.23982 0
M  V30 904 N 93.1203 -1.57491 0.0584922 0
M  V30 905 C 94.0703 -2.08474 -0.923188 0
M  V30 906 C 95.0543 -0.991479 -1.26722 0
M  V30 907 O 96.2463 -1.25473 -1.24842 0
M  V30 908 C 93.3753 -2.6392 -2.19548 0
M  V30 909 C 92.4613 -3.80227 -1.87852 0
M  V30 910 N 92.8523 -4.89714 -1.26546 0
M  V30 911 C 91.1503 -3.89271 -2.17679 0
M  V30 912 C 91.8513 -5.70689 -1.12644 0
M  V30 913 N 90.8273 -5.18531 -1.63176 0
M  V30 914 H 94.6293 -2.90517 -0.444653 0
M  V30 915 H 92.1433 -1.61745 -0.145764 0
M  V30 916 H 94.1403 -2.98752 -2.9078 0
M  V30 917 H 92.8003 -1.83318 -2.68001 0
M  V30 918 H 93.8113 -5.09358 -0.936757 0
M  V30 919 H 90.4883 -3.19623 -2.68602 0
M  V30 920 H 91.8783 -6.6875 -0.6499 0
M  V30 921 N 94.5984 0.214957 -1.56127 0
M  V30 922 C 95.8454 0.938372 -1.79446 0
M  V30 923 C 96.1734 1.8407 -0.628378 0
M  V30 924 O 95.4284 1.91837 0.386925 0
M  V30 925 C 95.7274 1.80314 -3.0858 0
M  V30 926 C 95.3934 1.05349 -4.3842 0
M  V30 927 C 94.0554 0.846435 -4.73697 0
M  V30 928 C 96.4074 0.524588 -5.18553 0
M  V30 929 C 93.7354 0.098683 -5.86617 0
M  V30 930 C 96.0874 -0.209853 -6.32252 0
M  V30 931 C 94.7514 -0.428102 -6.66126 0
M  V30 932 H 94.0214 0.343375 -0.656639 0
M  V30 933 H 96.6684 0.206077 -1.90388 0
M  V30 934 H 94.9734 2.6035 -2.92789 0
M  V30 935 H 96.6704 2.36513 -3.23825 0
M  V30 936 H 93.2604 1.22486 -4.10725 0
M  V30 937 H 97.4444 0.672008 -4.91729 0
M  V30 938 H 92.7004 -0.0805753 -6.11347 0
M  V30 939 H 96.8744 -0.627157 -6.9357 0
M  V30 940 H 94.5014 -1.00944 -7.53468 0
M  V30 941 N 96.0765 1.50051 0.48192 0
M  V30 942 C 97.0245 1.68635 1.60203 0
M  V30 943 C 98.0185 0.552184 1.60148 0
M  V30 944 O 99.2245 0.732377 1.64427 0
M  V30 945 H 95.5995 0.532081 0.531407 0
M  V30 946 H 97.5705 2.62616 1.41688 0
M  V30 947 C 96.3195 1.78775 2.9822 0
M  V30 948 H 95.6425 2.6543 2.98976 0
M  V30 949 H 97.0825 1.95806 3.7608 0
M  V30 950 C 95.5415 0.536849 3.32595 0
M  V30 951 O 96.0715 -0.328897 4.00351 0
M  V30 952 N 94.2775 0.394091 2.87915 0
M  V30 953 H 93.8245 1.09962 2.32951 0
M  V30 954 H 93.7825 -0.441737 3.11281 0
M  V30 955 N 97.5546 -0.734337 1.39446 0
M  V30 956 C 98.9656 -1.31264 1.32766 0
M  V30 957 C 99.3166 -1.96198 -0.00767497 0
M  V30 958 O 98.4416 -1.96346 -0.909796 0
M  V30 959 C 99.0366 -2.38682 2.4045 0
M  V30 960 C 97.5956 -2.92184 2.37288 0
M  V30 961 C 96.7426 -1.6576 2.22304 0
M  V30 962 H 99.6936 -0.531799 1.49525 0
M  V30 963 H 99.7146 -3.19087 2.07276 0
M  V30 964 H 99.2266 -1.91392 3.37625 0
M  V30 965 H 97.3276 -3.43752 1.43754 0
M  V30 966 H 97.4406 -3.45253 3.3217 0
M  V30 967 H 95.8046 -1.9012 1.69489 0
M  V30 968 H 96.5876 -1.20521 3.21449 0
M  V30 969 N 99.0327 -1.24633 -0.964593 0
M  V30 970 C 99.9627 -1.06611 -2.07741 0
M  V30 971 C 100.944 0.0218666 -1.70086 0
M  V30 972 O 102.129 -0.145793 -1.93652 0
M  V30 973 C 99.2587 -0.673444 -3.40708 0
M  V30 974 C 98.2127 -1.71054 -3.92332 0
M  V30 975 C 97.5387 -1.17285 -5.21678 0
M  V30 976 C 98.8387 -3.10718 -4.19824 0
M  V30 977 H 100.533 -1.99693 -2.23076 0
M  V30 978 H 98.0787 -0.96152 -1.07195 0
M  V30 979 H 100.032 -0.534345 -4.17998 0
M  V30 980 H 98.7557 0.293073 -3.25282 0
M  V30 981 H 97.4147 -1.83791 -3.17201 0
M  V30 982 H 97.0627 -0.196847 -5.02615 0
M  V30 983 H 96.7627 -1.86592 -5.57187 0
M  V30 984 H 98.2867 -1.04593 -6.01575 0
M  V30 985 H 99.7007 -3.01192 -4.87808 0
M  V30 986 H 98.0977 -3.77406 -4.66567 0
M  V30 987 H 99.1677 -3.58524 -3.26479 0
M  V30 988 N 100.511 1.16574 -1.06058 0
M  V30 989 C 101.736 1.91493 -0.796562 0
M  V30 990 C 102.161 1.76773 0.642868 0
M  V30 991 O 101.519 1.09142 1.44768 0
M  V30 992 C 101.567 3.40293 -1.19303 0
M  V30 993 O 100.671 4.11074 -0.330394 0
M  V30 994 H 100.012 0.596678 -0.291326 0
M  V30 995 H 102.542 1.47708 -1.41575 0
M  V30 996 H 102.552 3.91057 -1.16356 0
M  V30 997 H 101.227 3.50326 -2.24153 0
M  V30 998 H 99.8038 3.70513 -0.421225 0
M  V30 999 N 101.989 0.842826 1.3317 0
M  V30 1000 C 103.405 0.531128 1.50503 0
M  V30 1001 C 103.605 -0.940734 1.78192 0
M  V30 1002 O 102.661 -1.72436 1.84451 0
M  V30 1003 C 103.974 1.40789 2.65705 0
M  V30 1004 C 105.522 1.40708 2.79589 0
M  V30 1005 C 105.997 2.26878 3.97857 0
M  V30 1006 N 107.488 2.24609 4.05099 0
M  V30 1007 C 108.223 2.88019 4.95815 0
M  V30 1008 N 107.719 3.60496 5.9162 0
M  V30 1009 N 109.512 2.77469 4.88843 0
M  V30 1010 H 101.663 1.79557 1.1346 0
M  V30 1011 H 103.926 0.766267 0.558156 0
M  V30 1012 H 103.632 2.454 2.51936 0
M  V30 1013 H 103.506 1.08677 3.61205 0
M  V30 1014 H 105.893 0.368668 2.92788 0
M  V30 1015 H 105.974 1.76829 1.84838 0
M  V30 1016 H 105.618 3.3078 3.85418 0
M  V30 1017 H 105.548 1.88096 4.91861 0
M  V30 1018 H 108.039 1.71906 3.36536 0
M  V30 1019 H 108.352 4.06076 6.57512 0
M  V30 1020 H 106.697 3.64604 5.91683 0
M  V30 1021 H 109.888 2.20406 4.12963 0
M  V30 1022 H 110.061 3.2717 5.59342 0
M  V30 1023 N 103.467 -1.45747 0.599634 0
M  V30 1024 C 104.414 -2.30467 -0.123849 0
M  V30 1025 C 105.384 -1.41632 -0.86774 0
M  V30 1026 O 106.569 -1.70568 -0.855056 0
M  V30 1027 C 103.709 -3.26402 -1.12051 0
M  V30 1028 C 102.822 -4.3034 -0.37832 0
M  V30 1029 C 101.957 -5.13389 -1.364 0
M  V30 1030 C 100.996 -6.09061 -0.609171 0
M  V30 1031 N 100.133 -6.84918 -1.54374 0
M  V30 1032 H 104.973 -2.91802 0.604627 0
M  V30 1033 H 102.51 -1.43797 0.309972 0
M  V30 1034 H 104.468 -3.80482 -1.7114 0
M  V30 1035 H 103.098 -2.66839 -1.8165 0
M  V30 1036 H 102.15 -3.78984 0.327929 0
M  V30 1037 H 103.462 -4.98354 0.210997 0
M  V30 1038 H 102.616 -5.7183 -2.02719 0
M  V30 1039 H 101.355 -4.45376 -1.98725 0
M  V30 1040 H 100.36 -5.49758 0.0676979 0
M  V30 1041 H 101.585 -6.79099 0.00891991 0
M  V30 1042 H 99.531 -6.19601 -2.15478 0
M  V30 1043 H 99.448 -7.49254 -1.00766 0
M  V30 1044 H 100.716 -7.47906 -2.19676 0
M  V30 1045 N 104.945 -0.338344 -1.53925 0
M  V30 1046 C 105.895 0.536712 -2.21593 0
M  V30 1047 C 106.879 1.07015 -1.20153 0
M  V30 1048 O 108.071 1.00471 -1.45721 0
M  V30 1049 C 105.2 1.68977 -2.98834 0
M  V30 1050 C 104.286 1.17052 -4.07627 0
M  V30 1051 N 104.677 0.372085 -5.0443 0
M  V30 1052 C 102.975 1.44789 -4.21844 0
M  V30 1053 C 103.676 0.0909171 -5.81629 0
M  V30 1054 N 102.652 0.681131 -5.39316 0
M  V30 1055 H 106.454 -0.0804298 -2.9379 0
M  V30 1056 H 103.968 -0.144943 -1.61752 0
M  V30 1057 H 105.965 2.32857 -3.45808 0
M  V30 1058 H 104.625 2.31024 -2.28162 0
M  V30 1059 H 105.636 0.0136217 -5.17898 0
M  V30 1060 H 102.313 2.07313 -3.62391 0
M  V30 1061 H 103.703 -0.552817 -6.69622 0
M  V30 1062 N 106.423 1.57458 -0.0668435 0
M  V30 1063 C 107.671 1.92919 0.602214 0
M  V30 1064 C 107.992 0.947215 1.70449 0
M  V30 1065 O 107.262 -0.00544117 1.95899 0
M  V30 1066 H 105.842 0.71217 0.22544 0
M  V30 1067 H 108.504 1.94508 -0.123535 0
M  V30 1068 H 107.6 2.94589 1.03073 0
M  V30 1069 N 107.901 -0.206675 1.56239 0
M  V30 1070 C 109.149 -0.927007 1.79586 0
M  V30 1071 C 109.47 -1.8427 0.637929 0
M  V30 1072 O 108.74 -1.92849 -0.344398 0
M  V30 1073 H 107.32 -0.345292 0.662407 0
M  V30 1074 H 109.982 -0.21496 1.93711 0
M  V30 1075 H 109.078 -1.52501 2.72305 0
M  V30 1076 N 109.379 -1.50304 -0.473955 0
M  V30 1077 C 110.79 -1.54042 -1.0549 0
M  V30 1078 C 111.141 -0.342248 -1.93192 0
M  V30 1079 O 110.266 0.545157 -2.09421 0
M  V30 1080 C 110.861 -2.79152 -1.91989 0
M  V30 1081 C 109.42 -2.8558 -2.45196 0
M  V30 1082 C 108.567 -2.48295 -1.2347 0
M  V30 1083 H 111.518 -1.5661 -0.256693 0
M  V30 1084 H 111.539 -2.60845 -2.7702 0
M  V30 1085 H 111.051 -3.66339 -1.28131 0
M  V30 1086 H 109.152 -2.02738 -3.12615 0
M  V30 1087 H 109.265 -3.88403 -2.80499 0
M  V30 1088 H 107.629 -2.00669 -1.56856 0
M  V30 1089 H 108.412 -3.37787 -0.612789 0
M  V30 1090 N 110.857 0.726932 -1.39834 0
M  V30 1091 C 111.804 1.841 -1.39197 0
M  V30 1092 C 112.774 1.642 -0.250502 0
M  V30 1093 O 113.959 1.85494 -0.446846 0
M  V30 1094 C 111.099 3.21697 -1.24919 0
M  V30 1095 C 110.212 3.53247 -2.48678 0
M  V30 1096 C 109.347 4.80289 -2.26928 0
M  V30 1097 C 108.386 5.04707 -3.4632 0
M  V30 1098 N 107.523 6.22956 -3.23836 0
M  V30 1099 H 112.363 1.83979 -2.34427 0
M  V30 1100 H 109.9 0.898876 -1.16442 0
M  V30 1101 H 111.858 4.01137 -1.1465 0
M  V30 1102 H 110.488 3.21076 -0.333153 0
M  V30 1103 H 109.54 2.68447 -2.69519 0
M  V30 1104 H 110.852 3.67205 -3.37582 0
M  V30 1105 H 110.006 5.67725 -2.13947 0
M  V30 1106 H 108.745 4.68519 -1.35431 0
M  V30 1107 H 107.75 4.1573 -3.5979 0
M  V30 1108 H 108.975 5.18357 -4.38729 0
M  V30 1109 H 106.921 6.12459 -2.35011 0
M  V30 1110 H 106.838 6.37539 -4.063 0
M  V30 1111 H 108.106 7.1321 -3.14566 0
M  V30 1112 N 112.336 1.25143 0.95797 0
M  V30 1113 C 113.613 1.00472 1.67823 0
M  V30 1114 C 113.993 -0.470056 2.058 0
M  V30 1115 O 113.341 -1.44663 1.76875 0
M  V30 1116 C 113.551 1.9372 2.90299 0
M  V30 1117 C 114.899 2.21371 3.62326 0
M  V30 1118 O 115.923 1.91451 3.00375 0
M  V30 1119 O 114.782 2.72231 4.7387 0
M  V30 1120 H 111.876 0.380752 0.734137 0
M  V30 1121 H 114.422 1.36283 1.01119 0
M  V30 1122 H 113.194 2.93316 2.59001 0
M  V30 1123 H 112.817 1.58286 3.64735 0
M  V30 1124 N 113.814 -1.1601 1.06675 0
M  V30 1125 C 114.724 -2.24156 0.692179 0
M  V30 1126 C 115.74 -1.71507 -0.293513 0
M  V30 1127 O 116.916 -2.009 -0.141861 0
M  V30 1128 C 113.981 -3.46587 0.0884131 0
M  V30 1129 C 113.042 -4.14257 1.12646 0
M  V30 1130 C 112.275 -5.30844 0.551416 0
M  V30 1131 O 112.498 -5.66858 -0.634656 0
M  V30 1132 O 111.432 -5.87848 1.29298 0
M  V30 1133 H 115.258 -2.58513 1.59388 0
M  V30 1134 H 112.843 -1.23599 0.83926 0
M  V30 1135 H 114.725 -4.20679 -0.246361 0
M  V30 1136 H 113.4 -3.13994 -0.786712 0
M  V30 1137 H 112.307 -3.42118 1.51348 0
M  V30 1138 H 113.64 -4.50914 1.97325 0
M  V30 1139 N 115.292 -0.849877 -1.32721 0
M  V30 1140 C 116.202 -0.293791 -2.32753 0
M  V30 1141 C 117.218 0.585906 -1.63839 0
M  V30 1142 O 118.394 0.487413 -1.95413 0
M  V30 1143 C 115.459 0.512752 -3.42887 0
M  V30 1144 C 114.52 -0.39252 -4.27502 0
M  V30 1145 C 113.753 0.375625 -5.32377 0
M  V30 1146 O 113.976 1.60613 -5.4732 0
M  V30 1147 O 112.91 -0.256094 -6.01355 0
M  V30 1148 H 116.736 -1.12242 -2.82197 0
M  V30 1149 H 114.321 -0.612685 -1.36259 0
M  V30 1150 H 116.203 0.970704 -4.10067 0
M  V30 1151 H 114.878 1.31826 -2.95641 0
M  V30 1152 H 113.785 -0.898547 -3.63149 0
M  V30 1153 H 115.118 -1.16309 -4.7826 0
M  V30 1154 N 116.77 1.45427 -0.607355 0
M  V30 1155 C 118.186 1.57283 -0.270985 0
M  V30 1156 C 118.386 1.59875 1.22647 0
M  V30 1157 O 117.442 1.52893 2.00948 0
M  V30 1158 C 118.755 2.85566 -0.941952 0
M  V30 1159 C 120.303 2.9924 -0.917849 0
M  V30 1160 C 120.778 4.30293 -1.56882 0
M  V30 1161 N 122.269 4.37051 -1.5343 0
M  V30 1162 C 123.004 5.37123 -2.00715 0
M  V30 1163 N 122.5 6.43734 -2.56084 0
M  V30 1164 N 124.293 5.28479 -1.91484 0
M  V30 1165 H 116.444 1.41988 -1.57966 0
M  V30 1166 H 118.707 0.67885 -0.661715 0
M  V30 1167 H 118.413 2.8955 -1.99633 0
M  V30 1168 H 118.287 3.74322 -0.465096 0
M  V30 1169 H 120.674 2.94822 0.127984 0
M  V30 1170 H 120.755 2.11895 -1.43297 0
M  V30 1171 H 120.399 4.35469 -2.61398 0
M  V30 1172 H 120.329 5.16454 -1.02873 0
M  V30 1173 H 122.82 3.60615 -1.12982 0
M  V30 1174 H 123.133 7.16341 -2.89958 0
M  V30 1175 H 121.478 6.44485 -2.60122 0
M  V30 1176 H 124.669 4.44098 -1.47967 0
M  V30 1177 H 124.842 6.0632 -2.28648 0
M  V30 1178 N 118.248 0.346503 1.53744 0
M  V30 1179 C 119.198 -0.524953 2.21874 0
M  V30 1180 C 120.182 -1.06376 1.20718 0
M  V30 1181 O 121.374 -0.996972 1.46251 0
M  V30 1182 C 118.503 -1.6739 2.99726 0
M  V30 1183 C 117.589 -1.14888 4.08242 0
M  V30 1184 N 117.98 -0.345329 5.0462 0
M  V30 1185 C 116.278 -1.4255 4.22606 0
M  V30 1186 C 116.979 -0.0600706 5.81669 0
M  V30 1187 N 115.955 -0.65252 5.39669 0
M  V30 1188 H 119.757 0.0960091 2.93743 0
M  V30 1189 H 117.271 0.15352 1.61673 0
M  V30 1190 H 119.268 -2.3102 3.47038 0
M  V30 1191 H 117.928 -2.29811 2.29384 0
M  V30 1192 H 118.939 0.0138439 5.17898 0
M  V30 1193 H 115.616 -2.05389 3.63486 0
M  V30 1194 H 117.006 0.588321 6.69319 0
M  V30 1195 N 119.726 -1.57421 0.075193 0
M  V30 1196 C 120.972 -1.93905 -0.594025 0
M  V30 1197 C 121.305 -0.955701 -1.69056 0
M  V30 1198 O 120.58 0.0145373 -1.94495 0
M  V30 1199 C 120.863 -3.40638 -1.1678 0
M  V30 1200 C 120.716 -4.49733 -0.0776792 0
M  V30 1201 C 122.035 -3.88259 -2.07228 0
M  V30 1202 H 119.154 -0.705105 -0.214466 0
M  V30 1203 H 121.796 -1.8947 0.141854 0
M  V30 1204 H 119.946 -3.44549 -1.79494 0
M  V30 1205 H 121.618 -4.57942 0.555573 0
M  V30 1206 H 119.861 -4.29751 0.591286 0
M  V30 1207 H 120.532 -5.49549 -0.519603 0
M  V30 1208 H 123.008 -3.86376 -1.54445 0
M  V30 1209 H 121.884 -4.91533 -2.44308 0
M  V30 1210 H 122.145 -3.26396 -2.98191 0
M  V30 1211 N 121.204 0.198386 -1.56346 0
M  V30 1212 C 122.452 0.91747 -1.80075 0
M  V30 1213 C 122.773 1.83929 -0.647692 0
M  V30 1214 O 122.043 1.93029 0.334166 0
M  V30 1215 H 120.623 0.341774 -0.664228 0
M  V30 1216 H 123.285 0.204684 -1.93822 0
M  V30 1217 H 122.381 1.51055 -2.7311 0
M  V30 1218 N 122.682 1.50554 0.465978 0
M  V30 1219 C 123.959 1.5232 1.22712 0
M  V30 1220 C 124.339 0.270807 2.09356 0
M  V30 1221 O 123.687 -0.745541 2.15995 0
M  V30 1222 C 123.897 2.82175 2.05374 0
M  V30 1223 C 125.245 3.33033 2.6339 0
M  V30 1224 O 126.269 2.83531 2.15612 0
M  V30 1225 O 125.128 4.19336 3.50456 0
M  V30 1226 H 122.222 0.611183 0.557122 0
M  V30 1227 H 124.768 1.62847 0.477381 0
M  V30 1228 H 123.54 3.64797 1.41558 0
M  V30 1229 H 123.163 2.74675 2.87471 0
M  V30 1230 N 124.16 -0.719506 1.40217 0
M  V30 1231 C 125.09 -1.8465 1.42922 0
M  V30 1232 C 126.071 -1.67599 0.29062 0
M  V30 1233 O 127.256 -1.87688 0.498677 0
M  V30 1234 C 124.386 -3.22565 1.28722 0
M  V30 1235 C 123.34 -3.54281 2.40144 0
M  V30 1236 C 122.666 -4.91298 2.11023 0
M  V30 1237 C 123.966 -3.55676 3.82481 0
M  V30 1238 H 125.66 -1.82644 2.37237 0
M  V30 1239 H 123.206 -0.877305 1.1419 0
M  V30 1240 H 125.159 -4.01095 1.29232 0
M  V30 1241 H 123.883 -3.25137 0.308811 0
M  V30 1242 H 122.542 -2.78088 2.38877 0
M  V30 1243 H 122.19 -4.90468 1.11582 0
M  V30 1244 H 121.89 -5.13485 2.8567 0
M  V30 1245 H 123.414 -5.72166 2.13209 0
M  V30 1246 H 124.828 -4.24254 3.85592 0
M  V30 1247 H 123.225 -3.89388 4.56614 0
M  V30 1248 H 124.295 -2.55144 4.12346 0
M  V30 1249 N 125.638 -1.25649 -0.95132 0
M  V30 1250 C 126.886 -1.10375 -1.69298 0
M  V30 1251 C 127.207 0.355339 -1.91735 0
M  V30 1252 O 126.477 1.25188 -1.50681 0
M  V30 1253 H 125.057 -0.405461 -0.627384 0
M  V30 1254 H 127.719 -1.57823 -1.14358 0
M  V30 1255 H 126.815 -1.61465 -2.67087 0
M  V30 1256 N 127.117 1.15442 -1.07289 0
M  V30 1257 C 128.065 2.22225 -0.686952 0
M  V30 1258 C 129.059 1.66688 0.30193 0
M  V30 1259 O 130.265 1.79236 0.165712 0
M  V30 1260 H 126.64 0.723783 -0.204064 0
M  V30 1261 H 128.611 2.52056 -1.5972 0
M  V30 1262 C 127.36 3.47556 -0.100149 0
M  V30 1263 H 126.683 3.90612 -0.852211 0
M  V30 1264 H 128.123 4.23794 0.132235 0
M  V30 1265 C 126.582 3.16337 1.159 0
M  V30 1266 O 127.112 3.33074 2.24555 0
M  V30 1267 N 125.318 2.70385 1.06491 0
M  V30 1268 H 124.865 2.56966 0.180668 0
M  V30 1269 H 124.823 2.49871 1.90819 0
M  V30 1270 N 128.595 0.856903 1.32268 0
M  V30 1271 C 129.841 0.462069 1.97466 0
M  V30 1272 C 130.174 -0.980298 1.67642 0
M  V30 1273 O 129.449 -1.68824 0.965858 0
M  V30 1274 C 129.732 0.704336 3.53145 0
M  V30 1275 C 129.585 2.19529 3.9259 0
M  V30 1276 C 130.904 0.1622 4.39801 0
M  V30 1277 H 128.023 0.169357 0.717278 0
M  V30 1278 H 130.665 1.07574 1.56614 0
M  V30 1279 H 128.815 0.181999 3.88073 0
M  V30 1280 H 130.487 2.78387 3.67829 0
M  V30 1281 H 128.73 2.67292 3.41668 0
M  V30 1282 H 129.401 2.31549 5.01088 0
M  V30 1283 H 131.877 0.608905 4.11621 0
M  V30 1284 H 130.753 0.361265 5.4771 0
M  V30 1285 H 131.014 -0.935158 4.32096 0
M  V30 1286 N 130.073 -1.45103 0.615059 0
M  V30 1287 C 131.301 -2.06553 0.11977 0
M  V30 1288 C 131.716 -1.45842 -1.19898 0
M  V30 1289 O 131.073 -0.575325 -1.73194 0
M  V30 1290 C 131.124 -3.61495 -0.018364 0
M  V30 1291 O 130.845 -4.19942 1.24822 0
M  V30 1292 C 132.346 -4.39947 -0.544237 0
M  V30 1293 H 129.566 -0.667096 0.0722739 0
M  V30 1294 H 132.11 -1.8623 0.84491 0
M  V30 1295 H 130.265 -3.81135 -0.693865 0
M  V30 1296 H 130.679 -5.13204 1.0827 0
M  V30 1297 H 132.153 -5.48838 -0.589953 0
M  V30 1298 H 132.63 -4.10255 -1.56805 0
M  V30 1299 H 133.236 -4.25188 0.0974703 0
M  V30 1300 N 131.551 -0.354651 -1.53558 0
M  V30 1301 C 132.514 0.484566 -2.24019 0
M  V30 1302 C 133.514 1.01861 -1.24422 0
M  V30 1303 O 134.704 0.906097 -1.4878 0
M  V30 1304 C 131.836 1.67615 -2.96847 0
M  V30 1305 H 133.029 -0.131843 -2.9961 0
M  V30 1306 H 130.582 -0.106165 -1.55939 0
M  V30 1307 H 131.317 2.33095 -2.25471 0
M  V30 1308 H 131.102 1.30029 -3.69912 0
M  V30 1309 H 132.592 2.27114 -3.50441 0
M  V30 1310 N 133.029 1.57378 -0.0835403 0
M  V30 1311 C 134.306 1.85363 0.624507 0
M  V30 1312 C 134.686 0.978239 1.87066 0
M  V30 1313 O 134.034 0.0475908 2.2845 0
M  V30 1314 C 134.244 3.35795 0.950947 0
M  V30 1315 C 135.592 4.03581 1.31939 0
M  V30 1316 O 136.616 3.40609 1.04232 0
M  V30 1317 O 135.475 5.14672 1.83779 0
M  V30 1318 H 132.569 0.766162 0.311329 0
M  V30 1319 H 135.115 1.69307 -0.115362 0
M  V30 1320 H 133.887 3.91244 0.0663899 0
M  V30 1321 H 133.51 3.57154 1.74719 0
M  V30 1322 N 134.507 -0.190092 1.56449 0
M  V30 1323 C 135.454 -1.23557 1.94942 0
M  V30 1324 C 136.424 -1.44972 0.810696 0
M  V30 1325 O 137.609 -1.58023 1.06927 0
M  V30 1326 C 134.749 -2.57416 2.2985 0
M  V30 1327 C 133.862 -2.43537 3.5681 0
M  V30 1328 C 132.997 -3.70134 3.81017 0
M  V30 1329 C 132.036 -3.51109 5.01387 0
M  V30 1330 N 131.173 -4.6973 5.21822 0
M  V30 1331 H 136.013 -0.900304 2.84075 0
M  V30 1332 H 133.55 -0.43318 1.40577 0
M  V30 1333 H 135.508 -3.35409 2.48106 0
M  V30 1334 H 134.138 -2.88975 1.43852 0
M  V30 1335 H 133.19 -1.56816 3.46573 0
M  V30 1336 H 134.502 -2.25415 4.4496 0
M  V30 1337 H 133.656 -4.56566 3.9954 0
M  V30 1338 H 132.395 -3.91215 2.91207 0
M  V30 1339 H 131.4 -2.63063 4.82782 0
M  V30 1340 H 132.625 -3.31468 5.9271 0
M  V30 1341 H 130.571 -4.91065 4.34961 0
M  V30 1342 H 130.488 -4.54452 6.0416 0
M  V30 1343 H 131.756 -5.57499 5.44808 0
M  V30 1344 N 135.985 -1.50799 -0.457987 0
M  V30 1345 C 137.262 -1.52968 -1.21902 0
M  V30 1346 C 137.642 -0.281906 -2.09209 0
M  V30 1347 O 136.99 0.734076 -2.16388 0
M  V30 1348 C 137.2 -2.8326 -2.03875 0
M  V30 1349 C 138.548 -3.34425 -2.6162 0
M  V30 1350 O 139.572 -2.8467 -2.14106 0
M  V30 1351 O 138.431 -4.21188 -3.48228 0
M  V30 1352 H 135.525 -0.614129 -0.553873 0
M  V30 1353 H 138.071 -1.63098 -0.468739 0
M  V30 1354 H 136.843 -3.65543 -1.39621 0
M  V30 1355 H 136.466 -2.76195 -2.8601 0
M  V30 1356 N 137.463 0.71206 -1.40597 0
M  V30 1357 C 138.711 1.46907 -1.38791 0
M  V30 1358 C 139.032 1.94998 0.00780391 0
M  V30 1359 O 138.302 1.70587 0.963174 0
M  V30 1360 H 136.882 0.545043 -0.51082 0
M  V30 1361 H 139.544 0.843882 -1.75683 0
M  V30 1362 H 138.64 2.34021 -2.06496 0
M  V30 1363 N 138.941 1.26152 0.944643 0
M  V30 1364 C 140.187 1.11657 1.69294 0
M  V30 1365 C 140.52 -0.339926 1.91202 0
M  V30 1366 O 139.795 -1.24994 1.49019 0
M  V30 1367 C 140.078 1.88236 3.06984 0
M  V30 1368 C 139.931 3.41772 2.92424 0
M  V30 1369 C 141.25 1.67343 4.07043 0
M  V30 1370 H 138.369 0.407004 0.614424 0
M  V30 1371 H 141.011 1.55106 1.09737 0
M  V30 1372 H 139.161 1.51308 3.57824 0
M  V30 1373 H 140.833 3.88433 2.48832 0
M  V30 1374 H 139.076 3.68974 2.28124 0
M  V30 1375 H 139.747 3.90579 3.90067 0
M  V30 1376 H 142.223 1.99509 3.65151 0
M  V30 1377 H 141.099 2.23346 5.01406 0
M  V30 1378 H 141.36 0.617158 4.37771 0
M  V30 1379 N 140.419 -1.14872 1.07899 0
M  V30 1380 C 141.382 -2.17986 0.708161 0
M  V30 1381 C 142.382 -1.58775 -0.25442 0
M  V30 1382 O 143.572 -1.74166 -0.034645 0
M  V30 1383 C 140.704 -3.40871 0.0446929 0
M  V30 1384 H 141.897 -2.52306 1.62116 0
M  V30 1385 H 139.45 -1.2943 0.876218 0
M  V30 1386 H 140.185 -3.12124 -0.880281 0
M  V30 1387 H 139.97 -3.8511 0.737091 0
M  V30 1388 H 141.46 -4.17121 -0.19991 0
M  V30 1389 N 141.898 -0.863906 -1.31812 0
M  V30 1390 C 143.175 -0.39275 -1.91616 0
M  V30 1391 C 143.555 1.12461 -1.7865 0
M  V30 1392 O 142.903 1.95045 -1.19037 0
M  V30 1393 C 143.113 -0.867385 -3.38049 0
M  V30 1394 C 144.461 -0.889966 -4.15168 0
M  V30 1395 O 145.485 -0.812635 -3.46806 0
M  V30 1396 O 144.344 -1.00079 -5.37258 0
M  V30 1397 H 141.438 -0.116358 -0.818773 0
M  V30 1398 H 143.984 -0.951418 -1.40521 0
M  V30 1399 H 142.756 -1.91081 -3.41473 0
M  V30 1400 H 142.379 -0.286687 -3.96565 0
M  V30 1401 N 143.376 1.44774 -0.622745 0
M  V30 1402 C 144.622 2.0242 -0.124083 0
M  V30 1403 C 144.955 1.4881 1.24777 0
M  V30 1404 O 144.23 0.668799 1.8264 0
M  V30 1405 C 144.513 3.59957 -0.101619 0
M  V30 1406 C 144.366 4.23867 -1.50521 0
M  V30 1407 C 145.685 4.36284 0.578272 0
M  V30 1408 H 142.804 0.735528 -0.0465645 0
M  V30 1409 H 145.446 1.72447 -0.797617 0
M  V30 1410 H 143.596 3.85623 0.471934 0
M  V30 1411 H 145.268 4.09336 -2.12701 0
M  V30 1412 H 143.511 3.81684 -2.06154 0
M  V30 1413 H 144.182 5.32843 -1.4416 0
M  V30 1414 H 146.658 4.16001 0.0906057 0
M  V30 1415 H 145.534 5.46004 0.563149 0
M  V30 1416 H 145.795 4.10271 1.64713 0
M  V30 1417 N 144.854 0.36279 1.53368 0
M  V30 1418 C 146.079 -0.231226 2.06107 0
M  V30 1419 C 146.504 -1.419 1.23474 0
M  V30 1420 O 145.862 -1.79524 0.253128 0
M  V30 1421 C 145.91 -0.605523 3.5548 0
M  V30 1422 O 145.014 -1.70312 3.7559 0
M  V30 1423 H 144.355 -0.034327 0.663112 0
M  V30 1424 H 146.885 0.522584 1.97814 0
M  V30 1425 H 146.895 -0.877314 3.98456 0
M  V30 1426 H 145.57 0.263004 4.15068 0
M  V30 1427 H 144.147 -1.4271 3.44512 0
M  V30 1428 N 146.332 -1.57332 0.0918853 0
M  V30 1429 C 147.581 -1.93412 -0.572249 0
M  V30 1430 C 147.894 -0.975515 -1.69538 0
M  V30 1431 O 149.1 -1.22991 -2.42045 0
M  V30 1432 C 147.556 -3.43648 -1.0693 0
M  V30 1433 C 147.164 -4.47994 0.0239049 0
M  V30 1434 C 148.908 -3.88695 -1.70635 0
M  V30 1435 C 146.815 -5.89381 -0.488319 0
M  V30 1436 H 145.745 -0.721939 -0.217532 0
M  V30 1437 H 148.396 -1.82735 0.167369 0
M  V30 1438 H 146.778 -3.49466 -1.8625 0
M  V30 1439 H 147.952 -4.53815 0.799277 0
M  V30 1440 H 146.267 -4.12536 0.565946 0
M  V30 1441 H 148.864 -4.91725 -2.10025 0
M  V30 1442 H 149.207 -3.27166 -2.57426 0
M  V30 1443 H 149.74 -3.85564 -0.979023 0
M  V30 1444 H 146.479 -6.54602 0.342906 0
M  V30 1445 H 145.999 -5.87037 -1.23077 0
M  V30 1446 H 147.678 -6.39863 -0.958317 0
M  V30 1447 N 147.81 0.181792 -1.56548 0
M  V30 1448 C 148.72 1.24538 -1.98815 0
M  V30 1449 C 149.736 1.49045 -0.897861 0
M  V30 1450 O 150.912 1.61399 -1.20467 0
M  V30 1451 C 147.977 2.56683 -2.33055 0
M  V30 1452 C 147.038 2.40131 -3.55859 0
M  V30 1453 C 146.271 3.65975 -3.88456 0
M  V30 1454 O 146.494 4.70711 -3.22161 0
M  V30 1455 O 145.428 3.6071 -4.81842 0
M  V30 1456 H 149.254 0.916647 -2.89536 0
M  V30 1457 H 146.839 0.387842 -1.44278 0
M  V30 1458 H 148.721 3.34655 -2.56094 0
M  V30 1459 H 147.396 2.89157 -1.45498 0
M  V30 1460 H 146.303 1.60226 -3.38051 0
M  V30 1461 H 147.636 2.12585 -4.43924 0
M  V30 1462 N 149.288 1.51039 0.449983 0
M  V30 1463 C 150.565 1.53612 1.21089 0
M  V30 1464 C 150.945 0.292997 2.09057 0
M  V30 1465 O 150.293 -0.72259 2.16774 0
M  V30 1466 C 150.503 2.84337 2.0237 0
M  V30 1467 C 151.851 3.35807 2.59843 0
M  V30 1468 O 152.875 2.85802 2.12593 0
M  V30 1469 O 151.734 4.23029 3.45989 0
M  V30 1470 H 148.828 0.617057 0.550608 0
M  V30 1471 H 151.374 1.63344 0.460082 0
M  V30 1472 H 150.146 3.66278 1.37681 0
M  V30 1473 H 149.769 2.77708 2.84542 0
M  V30 1474 N 150.766 -0.704594 1.40972 0
M  V30 1475 C 151.991 -1.49858 1.43378 0
M  V30 1476 C 152.416 -1.88061 0.038184 0
M  V30 1477 O 151.774 -1.5402 -0.956425 0
M  V30 1478 C 151.822 -2.74333 2.34038 0
M  V30 1479 O 150.926 -3.7147 1.7912 0
M  V30 1480 H 150.267 -0.45139 0.486974 0
M  V30 1481 H 152.797 -0.866832 1.8533 0
M  V30 1482 H 152.807 -3.22741 2.49604 0
M  V30 1483 H 151.482 -2.45863 3.35446 0
M  V30 1484 H 150.059 -3.30363 1.72958 0
M  V30 1485 N 152.244 -1.26651 -0.937939 0
M  V30 1486 C 153.49 -1.12553 -1.687 0
M  V30 1487 C 153.823 0.329782 -1.91379 0
M  V30 1488 O 153.098 1.24202 -1.4968 0
M  V30 1489 C 153.381 -1.89862 -3.05981 0
M  V30 1490 C 153.234 -3.43318 -2.90607 0
M  V30 1491 C 154.553 -1.69499 -4.0615 0
M  V30 1492 H 151.672 -0.410257 -0.612257 0
M  V30 1493 H 154.314 -1.55685 -1.08913 0
M  V30 1494 H 152.464 -1.53204 -3.57017 0
M  V30 1495 H 154.136 -3.89747 -2.46769 0
M  V30 1496 H 152.379 -3.70179 -2.26164 0
M  V30 1497 H 153.05 -3.92642 -3.8799 0
M  V30 1498 H 155.526 -2.01442 -3.64088 0
M  V30 1499 H 154.402 -2.26002 -5.00214 0
M  V30 1500 H 154.663 -0.640365 -4.37438 0
M  V30 1501 N 153.722 1.14298 -1.08507 0
M  V30 1502 C 154.971 1.84708 -0.810305 0
M  V30 1503 C 155.284 1.83903 0.666271 0
M  V30 1504 O 156.49 2.50112 1.05624 0
M  V30 1505 C 154.946 3.31572 -1.39957 0
M  V30 1506 C 154.554 3.40791 -2.90801 0
M  V30 1507 C 156.298 4.07087 -1.20334 0
M  V30 1508 C 154.205 4.81872 -3.4286 0
M  V30 1509 H 153.135 0.691985 -0.299454 0
M  V30 1510 H 155.786 1.28841 -1.30661 0
M  V30 1511 H 154.168 3.87183 -0.830976 0
M  V30 1512 H 155.342 2.95225 -3.53806 0
M  V30 1513 H 153.657 2.78732 -3.0935 0
M  V30 1514 H 156.254 5.11225 -1.56693 0
M  V30 1515 H 156.597 4.16054 -0.143237 0
M  V30 1516 H 157.13 3.57779 -1.73893 0
M  V30 1517 H 153.869 4.78094 -4.48449 0
M  V30 1518 H 153.389 5.27972 -2.84615 0
M  V30 1519 H 155.068 5.50765 -3.39509 0
M  V30 1520 N 155.201 0.870884 1.31352 0
M  V30 1521 C 156.426 0.495957 2.01383 0
M  V30 1522 C 156.851 -0.904324 1.64935 0
M  V30 1523 O 156.209 -1.59687 0.858466 0
M  V30 1524 C 156.257 0.661433 3.54482 0
M  V30 1525 O 155.361 -0.298851 4.11316 0
M  V30 1526 H 154.702 0.197158 0.634054 0
M  V30 1527 H 157.232 1.17455 1.67527 0
M  V30 1528 H 157.242 0.555072 4.04207 0
M  V30 1529 H 155.917 1.68246 3.8035 0
M  V30 1530 H 154.494 -0.147368 3.72609 0
M  V30 1531 N 156.679 -1.44442 0.630414 0
M  V30 1532 C 157.609 -2.33418 -0.0618083 0
M  V30 1533 C 158.59 -1.48165 -0.835541 0
M  V30 1534 O 159.775 -1.76886 -0.801564 0
M  V30 1535 C 156.905 -3.31222 -1.04449 0
M  V30 1536 C 155.859 -4.26288 -0.382436 0
M  V30 1537 C 155.185 -5.13954 -1.47497 0
M  V30 1538 C 156.485 -5.1744 0.710865 0
M  V30 1539 H 158.179 -2.91548 0.681184 0
M  V30 1540 H 155.725 -1.40191 0.329026 0
M  V30 1541 H 157.678 -3.92351 -1.53748 0
M  V30 1542 H 156.402 -2.71299 -1.81836 0
M  V30 1543 H 155.061 -3.6649 0.0899054 0
M  V30 1544 H 154.709 -4.50385 -2.2397 0
M  V30 1545 H 154.409 -5.7837 -1.03737 0
M  V30 1546 H 155.933 -5.77955 -1.96979 0
M  V30 1547 H 157.347 -5.72509 0.300996 0
M  V30 1548 H 155.744 -5.90455 1.07156 0
M  V30 1549 H 156.814 -4.58496 1.57829 0
M  V30 1550 N 158.157 -0.370918 -1.53173 0
M  V30 1551 C 159.382 0.220293 -2.06227 0
M  V30 1552 C 159.807 1.41243 -1.24225 0
M  V30 1553 O 159.165 1.79387 -0.262645 0
M  V30 1554 C 159.213 0.586663 -3.55796 0
M  V30 1555 O 158.317 1.68317 -3.76488 0
M  V30 1556 H 157.658 0.0308099 -0.663285 0
M  V30 1557 H 160.188 -0.533068 -1.97534 0
M  V30 1558 H 160.198 0.85617 -3.98916 0
M  V30 1559 H 158.873 -0.285013 -4.14922 0
M  V30 1560 H 157.45 1.40881 -3.45264 0
M  V30 1561 N 159.635 1.57281 -0.100228 0
M  V30 1562 C 160.883 1.94153 0.561157 0
M  V30 1563 C 161.204 0.983157 1.68401 0
M  V30 1564 O 160.474 0.0361132 1.95867 0
M  V30 1565 H 159.054 0.716791 0.210283 0
M  V30 1566 H 161.716 1.94202 -0.164765 0
M  V30 1567 H 160.812 2.96709 0.968008 0
M  V30 1568 N 161.113 -0.173488 1.56642 0
M  V30 1569 C 162.39 -0.917617 1.7274 0
M  V30 1570 C 162.77 -2.00484 0.661027 0
M  V30 1571 O 162.118 -2.26184 -0.32453 0
M  V30 1572 C 162.328 -1.48433 3.15862 0
M  V30 1573 C 163.676 -1.95809 3.76754 0
M  V30 1574 O 164.7 -1.58231 3.19126 0
M  V30 1575 O 163.559 -2.65024 4.77938 0
M  V30 1576 H 160.653 -0.431772 0.705338 0
M  V30 1577 H 163.199 -0.161487 1.6893 0
M  V30 1578 H 161.971 -0.701715 3.84957 0
M  V30 1579 H 161.594 -2.30471 3.23989 0
M  V30 1580 N 162.591 -1.51276 -0.441967 0
M  V30 1581 C 163.541 -1.6864 -1.53442 0
M  V30 1582 C 164.525 -0.540444 -1.51552 0
M  V30 1583 O 165.717 -0.796157 -1.58083 0
M  V30 1584 C 162.846 -1.8106 -2.91672 0
M  V30 1585 C 161.932 -3.01424 -2.98336 0
M  V30 1586 N 162.323 -4.2467 -2.74752 0
M  V30 1587 C 160.621 -3.00584 -3.29493 0
M  V30 1588 C 161.322 -5.05891 -2.87139 0
M  V30 1589 N 160.298 -4.40442 -3.18609 0
M  V30 1590 H 164.1 -2.61598 -1.33954 0
M  V30 1591 H 161.614 -1.4886 -0.6492 0
M  V30 1592 H 163.611 -1.91609 -3.70259 0
M  V30 1593 H 162.271 -0.892795 -3.12185 0
M  V30 1594 H 163.282 -4.53691 -2.49769 0
M  V30 1595 H 159.959 -2.18417 -3.55809 0
M  V30 1596 H 161.349 -6.13983 -2.72899 0
M  V30 1597 N 164.069 0.697108 -1.41344 0
M  V30 1598 C 165.309 1.46939 -1.42085 0
M  V30 1599 C 165.673 1.9198 -0.0280397 0
M  V30 1600 O 166.874 2.6865 0.0897504 0
M  V30 1601 C 165.145 2.64985 -2.39828 0
M  V30 1602 S 166.704 3.54147 -2.59085 0
M  V30 1603 H 163.522 0.502146 -0.503359 0
M  V30 1604 H 166.124 0.813546 -1.77769 0
M  V30 1605 H 164.828 2.30098 -3.39828 0
M  V30 1606 H 164.359 3.35464 -2.05493 0
M  V30 1607 H 166.374 4.60137 -1.85711 0
M  V30 1608 N 165.547 1.27147 0.931209 0
M  V30 1609 C 166.796 1.12664 1.67302 0
M  V30 1610 C 167.109 -0.327718 1.92835 0
M  V30 1611 O 168.315 -0.593392 2.64936 0
M  V30 1612 C 166.771 1.9683 3.01307 0
M  V30 1613 C 166.379 3.46901 2.83485 0
M  V30 1614 C 168.123 1.90985 3.79111 0
M  V30 1615 C 166.03 4.23279 4.13024 0
M  V30 1616 H 164.96 0.41803 0.627509 0
M  V30 1617 H 167.611 1.51539 1.03481 0
M  V30 1618 H 165.993 1.50797 3.66164 0
M  V30 1619 H 167.167 4.00773 2.27415 0
M  V30 1620 H 165.482 3.54088 2.19113 0
M  V30 1621 H 168.079 2.45328 4.75098 0
M  V30 1622 H 168.422 0.882718 4.06834 0
M  V30 1623 H 168.955 2.34895 3.21044 0
M  V30 1624 H 165.694 5.26503 3.90481 0
M  V30 1625 H 165.214 3.74186 4.6877 0
M  V30 1626 H 166.893 4.32265 4.81411 0
M  V30 1627 N 167.025 -1.13721 1.09112 0
M  V30 1628 C 168.274 -1.84275 0.82009 0
M  V30 1629 C 168.587 -1.84253 -0.656509 0
M  V30 1630 O 169.793 -2.50668 -1.04296 0
M  V30 1631 C 168.249 -3.30825 1.41714 0
M  V30 1632 C 167.857 -3.39244 2.92605 0
M  V30 1633 C 169.601 -4.06443 1.22492 0
M  V30 1634 C 167.508 -4.80047 3.45411 0
M  V30 1635 H 166.438 -0.690387 0.30312 0
M  V30 1636 H 169.089 -1.28146 1.31343 0
M  V30 1637 H 167.471 -3.86737 0.851498 0
M  V30 1638 H 168.645 -2.93344 3.55367 0
M  V30 1639 H 166.96 -2.77088 3.10823 0
M  V30 1640 H 169.557 -5.10387 1.59402 0
M  V30 1641 H 169.9 -4.15972 0.165299 0
M  V30 1642 H 170.433 -3.56852 1.75788 0
M  V30 1643 H 167.172 -4.75709 4.50978 0
M  V30 1644 H 166.692 -5.26455 2.87411 0
M  V30 1645 H 168.371 -5.48957 3.42425 0
M  V30 1646 N 168.503 -0.877838 -1.30888 0
M  V30 1647 C 169.751 -0.491723 -1.96027 0
M  V30 1648 C 170.072 0.960827 -1.69685 0
M  V30 1649 O 169.342 1.67462 -1.01654 0
M  V30 1650 H 167.922 -0.17885 -0.725273 0
M  V30 1651 H 170.584 -1.11935 -1.59551 0
M  V30 1652 H 169.68 -0.656016 -3.05128 0
M  V30 1653 N 169.982 1.44106 -0.638065 0
M  V30 1654 C 171.398 1.56672 -0.304286 0
M  V30 1655 C 171.598 1.6244 1.19228 0
M  V30 1656 O 170.654 1.57121 1.9766 0
M  V30 1657 C 171.967 2.83503 -1.00231 0
M  V30 1658 C 173.515 2.97226 -0.981116 0
M  V30 1659 C 173.99 4.26868 -1.65974 0
M  V30 1660 N 175.481 4.33698 -1.62666 0
M  V30 1661 C 176.216 5.32745 -2.12063 0
M  V30 1662 N 175.712 6.38157 -2.6968 0
M  V30 1663 N 177.505 5.24299 -2.02651 0
M  V30 1664 H 169.656 1.38605 -1.60942 0
M  V30 1665 H 171.919 0.664661 -0.675965 0
M  V30 1666 H 171.625 2.85251 -2.0573 0
M  V30 1667 H 171.499 3.73251 -0.54439 0
M  V30 1668 H 173.886 2.95027 0.0654188 0
M  V30 1669 H 173.967 2.08808 -1.47759 0
M  V30 1670 H 173.611 4.29826 -2.70576 0
M  V30 1671 H 173.541 5.14156 -1.13804 0
M  V30 1672 H 176.032 3.58138 -1.20606 0
M  V30 1673 H 176.345 7.10029 -3.05087 0
M  V30 1674 H 174.69 6.38823 -2.73734 0
M  V30 1675 H 177.881 4.4086 -1.57353 0
M  V30 1676 H 178.054 6.01334 -2.41457 0
M  V30 1677 N 171.46 0.379036 1.52974 0
M  V30 1678 C 172.688 -0.20679 2.05864 0
M  V30 1679 C 173.103 -1.41356 1.25155 0
M  V30 1680 O 172.46 -1.8009 0.295588 0
M  V30 1681 C 172.511 -0.587045 3.56702 0
M  V30 1682 O 172.232 0.571776 4.34353 0
M  V30 1683 C 173.733 -1.22983 4.25899 0
M  V30 1684 H 170.953 -0.0336123 0.670158 0
M  V30 1685 H 173.497 0.541298 1.97206 0
M  V30 1686 H 171.652 -1.28504 3.65466 0
M  V30 1687 H 172.066 0.261544 5.23847 0
M  V30 1688 H 173.54 -1.44635 5.32715 0
M  V30 1689 H 174.017 -2.19416 3.80465 0
M  V30 1690 H 174.623 -0.572892 4.21424 0
M  V30 1691 N 172.938 -1.57226 0.108567 0
M  V30 1692 C 173.868 -2.17778 -0.84232 0
M  V30 1693 C 174.849 -1.11487 -1.2847 0
M  V30 1694 O 176.034 -1.39681 -1.34918 0
M  V30 1695 C 173.164 -2.76888 -2.09644 0
M  V30 1696 C 172.118 -3.88669 -1.79221 0
M  V30 1697 C 171.444 -4.34541 -3.11574 0
M  V30 1698 C 172.744 -5.11251 -1.06864 0
M  V30 1699 H 174.438 -2.97489 -0.337774 0
M  V30 1700 H 171.984 -1.43097 -0.161025 0
M  V30 1701 H 173.937 -3.17904 -2.76614 0
M  V30 1702 H 172.661 -1.94451 -2.62405 0
M  V30 1703 H 171.32 -3.48213 -1.14644 0
M  V30 1704 H 170.968 -3.48977 -3.62249 0
M  V30 1705 H 170.668 -5.09914 -2.91996 0
M  V30 1706 H 172.192 -4.782 -3.7968 0
M  V30 1707 H 173.606 -5.49352 -1.63968 0
M  V30 1708 H 172.003 -5.9214 -0.974178 0
M  V30 1709 H 173.073 -4.8487 -0.0536168 0
M  V30 1710 N 174.416 0.165178 -1.56732 0
M  V30 1711 C 175.662 0.882112 -1.82611 0
M  V30 1712 C 175.995 1.81628 -0.687378 0
M  V30 1713 O 175.27 1.92009 0.310267 0
M  V30 1714 C 175.553 1.67245 -3.18906 0
M  V30 1715 C 175.406 0.760987 -4.43316 0
M  V30 1716 C 176.725 2.63884 -3.52212 0
M  V30 1717 H 173.844 0.319242 -0.664269 0
M  V30 1718 H 176.486 0.148052 -1.89422 0
M  V30 1719 H 174.636 2.29824 -3.1323 0
M  V30 1720 H 176.308 0.147596 -4.61064 0
M  V30 1721 H 174.551 0.0694102 -4.33744 0
M  V30 1722 H 175.222 1.34962 -5.35247 0
M  V30 1723 H 177.698 2.11429 -3.58381 0
M  V30 1724 H 176.574 3.16245 -4.48643 0
M  V30 1725 H 176.835 3.44377 -2.77231 0
M  V30 1726 N 175.894 1.51508 0.433938 0
M  V30 1727 C 177.14 1.64588 1.18484 0
M  V30 1728 C 177.473 0.362666 1.90784 0
M  V30 1729 O 176.748 -0.637892 1.83742 0
M  V30 1730 C 177.031 2.85149 2.19913 0
M  V30 1731 C 176.884 4.23456 1.51674 0
M  V30 1732 C 178.203 3.01227 3.20858 0
M  V30 1733 H 175.322 0.598994 0.429389 0
M  V30 1734 H 177.964 1.84002 0.473647 0
M  V30 1735 H 176.114 2.68729 2.80566 0
M  V30 1736 H 177.786 4.51552 0.943322 0
M  V30 1737 H 176.029 4.25998 0.819035 0
M  V30 1738 H 176.7 5.03812 2.2556 0
M  V30 1739 H 179.176 3.16382 2.70263 0
M  V30 1740 H 178.052 3.87141 3.89118 0
M  V30 1741 H 178.313 2.13447 3.8716 0
M  V30 1742 N 177.372 -0.689602 1.41712 0
M  V30 1743 C 178.322 -1.79571 1.40493 0
M  V30 1744 C 179.306 -1.58473 0.278409 0
M  V30 1745 O 180.498 -1.69204 0.519532 0
M  V30 1746 C 177.627 -3.17923 1.29536 0
M  V30 1747 C 176.713 -3.44695 2.47075 0
M  V30 1748 N 177.104 -3.42132 3.72531 0
M  V30 1749 C 175.402 -3.75269 2.41017 0
M  V30 1750 C 176.103 -3.67976 4.50521 0
M  V30 1751 N 175.079 -3.88014 3.80718 0
M  V30 1752 H 178.881 -1.75961 2.35404 0
M  V30 1753 H 176.395 -0.889839 1.35851 0
M  V30 1754 H 178.392 -3.97167 1.26745 0
M  V30 1755 H 177.052 -3.22741 0.356153 0
M  V30 1756 H 178.063 -3.22375 4.05333 0
M  V30 1757 H 174.74 -3.87421 1.55599 0
M  V30 1758 H 176.13 -3.7208 5.59469 0
M  V30 1759 N 178.85 -1.27639 -0.924453 0
M  V30 1760 C 179.76 -1.12466 -2.05885 0
M  V30 1761 C 180.776 -0.053869 -1.73917 0
M  V30 1762 O 181.952 -0.261012 -1.99702 0
M  V30 1763 C 179.017 -0.776768 -3.37886 0
M  V30 1764 C 178.078 -1.92878 -3.83532 0
M  V30 1765 C 177.311 -1.59739 -5.09234 0
M  V30 1766 O 177.534 -0.506782 -5.68144 0
M  V30 1767 O 176.468 -2.43761 -5.50331 0
M  V30 1768 H 180.294 -2.07671 -2.21599 0
M  V30 1769 H 177.879 -1.06857 -1.04413 0
M  V30 1770 H 179.761 -0.596229 -4.17161 0
M  V30 1771 H 178.436 0.145732 -3.23372 0
M  V30 1772 H 177.343 -2.1644 -3.0513 0
M  V30 1773 H 178.676 -2.8316 -4.02593 0
M  V30 1774 N 180.328 1.1314 -1.09713 0
M  V30 1775 C 181.275 2.18642 -0.739196 0
M  V30 1776 C 182.245 1.63706 0.280978 0
M  V30 1777 O 183.43 1.90111 0.161946 0
M  V30 1778 C 180.57 3.44685 -0.169102 0
M  V30 1779 C 179.683 4.13711 -1.24367 0
M  V30 1780 C 178.818 5.27379 -0.636019 0
M  V30 1781 C 177.857 5.88259 -1.69169 0
M  V30 1782 N 176.994 6.93352 -1.10485 0
M  V30 1783 H 181.834 2.48607 -1.64312 0
M  V30 1784 H 179.371 1.22066 -0.820875 0
M  V30 1785 H 181.329 4.16815 0.179256 0
M  V30 1786 H 179.959 3.15161 0.698079 0
M  V30 1787 H 179.011 3.39835 -1.70927 0
M  V30 1788 H 180.323 4.55037 -2.04311 0
M  V30 1789 H 179.477 6.06238 -0.236677 0
M  V30 1790 H 178.216 4.8731 0.194928 0
M  V30 1791 H 177.221 5.08092 -2.10055 0
M  V30 1792 H 178.446 6.30399 -2.52536 0
M  V30 1793 H 176.392 6.55335 -0.295234 0
M  V30 1794 H 176.309 7.33236 -1.84121 0
M  V30 1795 H 177.577 7.76057 -0.73181 0
M  V30 1796 N 181.806 0.884767 1.30421 0
M  V30 1797 C 182.769 0.356277 2.26414 0
M  V30 1798 C 183.769 -0.501124 1.52792 0
M  V30 1799 O 184.959 -0.30831 1.7145 0
M  V30 1800 C 182.091 -0.492316 3.37326 0
M  V30 1801 H 183.284 1.20389 2.74675 0
M  V30 1802 H 180.837 0.661607 1.41607 0
M  V30 1803 H 181.572 -1.36052 2.94381 0
M  V30 1804 H 181.357 0.121832 3.91911 0
M  V30 1805 H 182.847 -0.853871 4.08777 0
M  V30 1806 N 183.284 -1.43765 0.645699 0
M  V30 1807 C 184.561 -1.9541 0.0862963 0
M  V30 1808 C 184.941 -1.58725 -1.39175 0
M  V30 1809 O 184.289 -0.868581 -2.11348 0
M  V30 1810 C 184.499 -3.47488 0.324565 0
M  V30 1811 C 185.847 -4.24001 0.225497 0
M  V30 1812 O 186.871 -3.55274 0.256715 0
M  V30 1813 O 185.73 -5.46313 0.142801 0
M  V30 1814 H 182.824 -0.826882 -0.0139483 0
M  V30 1815 H 185.37 -1.53743 0.718415 0
M  V30 1816 H 184.142 -3.67289 1.3496 0
M  V30 1817 H 183.765 -3.96135 -0.340987 0
M  V30 1818 N 184.763 -0.387143 -1.52771 0
M  V30 1819 C 186.04 0.253197 -1.93954 0
M  V30 1820 C 186.42 1.64545 -1.32243 0
M  V30 1821 O 185.768 2.23191 -0.489699 0
M  V30 1822 C 185.978 0.281722 -3.47861 0
M  V30 1823 C 187.326 0.511715 -4.21505 0
M  V30 1824 O 188.35 0.362023 -3.54356 0
M  V30 1825 O 187.209 0.804847 -5.40541 0
M  V30 1826 H 184.303 0.156845 -0.811991 0
M  V30 1827 H 186.849 -0.441494 -1.63856 0
M  V30 1828 H 185.621 -0.693571 -3.85104 0
M  V30 1829 H 185.244 1.02142 -3.84256 0
M  V30 1830 N 186.241 1.57166 -0.116904 0
M  V30 1831 C 187.171 2.18222 0.830759 0
M  V30 1832 C 188.152 1.12167 1.27877 0
M  V30 1833 O 189.337 1.40394 1.34176 0
M  V30 1834 C 186.467 2.77996 2.08172 0
M  V30 1835 C 185.421 3.89614 1.77157 0
M  V30 1836 C 184.747 4.36187 3.09265 0
M  V30 1837 C 186.047 5.1181 1.04151 0
M  V30 1838 H 187.741 2.97664 0.321992 0
M  V30 1839 H 185.287 1.4318 0.153434 0
M  V30 1840 H 187.24 3.19366 2.74924 0
M  V30 1841 H 185.964 1.9584 2.6137 0
M  V30 1842 H 184.623 3.48816 1.12796 0
M  V30 1843 H 184.271 3.50893 3.60393 0
M  V30 1844 H 183.971 5.11455 2.89288 0
M  V30 1845 H 185.495 4.80207 3.77139 0
M  V30 1846 H 186.909 5.50214 1.61052 0
M  V30 1847 H 185.306 5.92648 0.942762 0
M  V30 1848 H 186.376 4.84892 0.0279022 0
M  V30 1849 N 187.719 -0.156864 1.56817 0
M  V30 1850 C 188.967 -0.869404 1.82444 0
M  V30 1851 C 189.288 -1.82147 0.69623 0
M  V30 1852 O 188.558 -1.93847 -0.28287 0
M  V30 1853 H 187.138 -0.324043 0.673056 0
M  V30 1854 H 189.8 -0.153224 1.94297 0
M  V30 1855 H 188.896 -1.43761 2.77019 0
M  V30 1856 N 189.197 -1.51736 -0.425897 0
M  V30 1857 C 190.144 -1.73875 -1.51776 0
M  V30 1858 C 191.114 -0.580702 -1.55618 0
M  V30 1859 O 192.299 -0.81641 -1.72451 0
M  V30 1860 C 189.439 -1.88012 -2.89388 0
M  V30 1861 C 188.552 -3.15606 -2.94986 0
M  V30 1862 C 187.687 -3.20271 -4.23793 0
M  V30 1863 C 186.726 -4.42134 -4.23302 0
M  V30 1864 N 185.863 -4.44284 -5.43651 0
M  V30 1865 H 190.703 -2.67071 -1.32201 0
M  V30 1866 H 188.24 -1.32351 -0.642008 0
M  V30 1867 H 190.198 -1.9419 -3.69251 0
M  V30 1868 H 188.828 -0.98213 -3.07496 0
M  V30 1869 H 187.88 -3.18681 -2.07717 0
M  V30 1870 H 189.192 -4.05486 -2.90486 0
M  V30 1871 H 188.346 -3.25428 -5.12036 0
M  V30 1872 H 187.085 -2.28299 -4.30965 0
M  V30 1873 H 186.09 -4.3714 -3.3345 0
M  V30 1874 H 187.315 -5.35382 -4.17783 0
M  V30 1875 H 185.261 -3.55188 -5.51523 0
M  V30 1876 H 185.178 -5.27988 -5.41078 0
M  V30 1877 H 186.446 -4.53649 -6.33895 0
M  V30 1878 N 190.675 0.682077 -1.42076 0
M  V30 1879 C 191.923 1.4393 -1.41876 0
M  V30 1880 C 192.244 1.94971 -0.0335599 0
M  V30 1881 O 191.514 1.72591 0.926773 0
M  V30 1882 H 190.094 0.534085 -0.522267 0
M  V30 1883 H 192.756 0.806427 -1.77434 0
M  V30 1884 H 191.852 2.29588 -2.11414 0
M  V30 1885 N 192.153 1.28127 0.917671 0
M  V30 1886 C 193.401 1.14825 1.66312 0
M  V30 1887 C 193.722 -0.304379 1.9261 0
M  V30 1888 O 192.992 -1.21149 1.53947 0
M  V30 1889 H 191.572 0.421953 0.616413 0
M  V30 1890 H 194.234 1.608 1.10134 0
M  V30 1891 H 193.33 1.68489 2.62712 0
M  V30 1892 N 193.631 -1.12557 1.10312 0
M  V30 1893 C 194.579 -2.20325 0.745629 0
M  V30 1894 C 195.573 -1.67429 -0.25763 0
M  V30 1895 O 196.779 -1.79612 -0.118132 0
M  V30 1896 H 193.154 -0.718118 0.223182 0
M  V30 1897 H 195.125 -2.47733 1.66346 0
M  V30 1898 C 193.874 -3.47168 0.192262 0
M  V30 1899 H 193.197 -3.88215 0.955475 0
M  V30 1900 H 194.637 -4.23995 -0.0198274 0
M  V30 1901 C 193.096 -3.19298 -1.07472 0
M  V30 1902 O 193.626 -3.3891 -2.15645 0
M  V30 1903 N 191.832 -2.73113 -0.992847 0
M  V30 1904 H 191.379 -2.57354 -0.112474 0
M  V30 1905 H 191.337 -2.54842 -1.84127 0
M  V30 1906 N 195.109 -0.891671 -1.2995 0
M  V30 1907 C 196.019 -0.367691 -2.31701 0
M  V30 1908 C 197.035 0.533486 -1.6562 0
M  V30 1909 O 198.211 0.424997 -1.96865 0
M  V30 1910 C 195.276 0.403406 -3.44345 0
M  V30 1911 C 194.337 -0.528328 -4.26037 0
M  V30 1912 C 193.57 0.206063 -5.33302 0
M  V30 1913 O 193.793 1.43119 -5.52153 0
M  V30 1914 O 192.727 -0.447281 -6.00236 0
M  V30 1915 H 196.553 -1.21163 -2.78484 0
M  V30 1916 H 194.138 -0.655725 -1.34241 0
M  V30 1917 H 196.02 0.839753 -4.12948 0
M  V30 1918 H 194.695 1.22354 -2.99685 0
M  V30 1919 H 193.602 -1.01362 -3.60106 0
M  V30 1920 H 194.935 -1.31465 -4.74318 0
M  V30 1921 N 196.587 1.43421 -0.653314 0
M  V30 1922 C 197.497 2.34568 0.0388565 0
M  V30 1923 C 198.513 1.53888 0.81207 0
M  V30 1924 O 199.689 1.86539 0.759294 0
M  V30 1925 C 196.754 3.32167 0.993269 0
M  V30 1926 C 195.815 4.28751 0.216977 0
M  V30 1927 C 195.048 5.21688 1.12593 0
M  V30 1928 O 195.271 5.19052 2.36519 0
M  V30 1929 O 194.205 5.98919 0.598284 0
M  V30 1930 H 198.031 2.95251 -0.711386 0
M  V30 1931 H 195.616 1.43564 -0.413502 0
M  V30 1932 H 197.498 3.92183 1.54176 0
M  V30 1933 H 196.173 2.73987 1.72374 0
M  V30 1934 H 195.08 3.72215 -0.375101 0
M  V30 1935 H 196.413 4.89913 -0.473924 0
M  V30 1936 N 198.065 0.39524 1.52563 0
M  V30 1937 C 199.29 -0.187456 2.06551 0
M  V30 1938 C 199.715 -1.39249 1.26457 0
M  V30 1939 O 199.073 -1.78947 0.291151 0
M  V30 1940 C 199.121 -0.529985 3.56684 0
M  V30 1941 O 198.225 -1.62307 3.79118 0
M  V30 1942 H 197.566 -0.0202537 0.663691 0
M  V30 1943 H 200.096 0.564426 1.96661 0
M  V30 1944 H 200.106 -0.792598 4.00227 0
M  V30 1945 H 198.781 0.350987 4.14416 0
M  V30 1946 H 197.358 -1.3537 3.47461 0
M  V30 1947 N 199.544 -1.57102 0.125237 0
M  V30 1948 C 200.772 -1.99761 -0.538797 0
M  V30 1949 C 201.187 -1.00503 -1.59827 0
M  V30 1950 O 200.544 0.00119474 -1.825 0
M  V30 1951 C 200.595 -3.42408 -1.15927 0
M  V30 1952 O 200.316 -4.37869 -0.142143 0
M  V30 1953 C 201.817 -4.00232 -1.90602 0
M  V30 1954 H 199.037 -0.655772 -0.14214 0
M  V30 1955 H 201.581 -2.03383 0.213413 0
M  V30 1956 H 199.736 -3.39706 -1.86223 0
M  V30 1957 H 200.15 -5.21128 -0.593775 0
M  V30 1958 H 201.624 -5.02105 -2.29335 0
M  V30 1959 H 202.101 -3.39721 -2.78363 0
M  V30 1960 H 202.707 -4.06499 -1.25055 0
M  V30 1961 N 201.022 0.148545 -1.56898 0
M  V30 1962 C 201.969 1.18345 -1.98149 0
M  V30 1963 C 202.939 1.42772 -0.848848 0
M  V30 1964 O 204.124 1.55132 -1.11079 0
M  V30 1965 C 201.264 2.51231 -2.36594 0
M  V30 1966 C 200.377 2.33991 -3.63142 0
M  V30 1967 C 199.512 3.59902 -3.90697 0
M  V30 1968 C 198.551 3.37692 -5.1052 0
M  V30 1969 N 197.688 4.5573 -5.34092 0
M  V30 1970 H 202.528 0.82467 -2.86362 0
M  V30 1971 H 200.065 0.395756 -1.41676 0
M  V30 1972 H 202.023 3.28713 -2.56912 0
M  V30 1973 H 200.653 2.85059 -1.51463 0
M  V30 1974 H 199.705 1.47572 -3.50609 0
M  V30 1975 H 201.017 2.13539 -4.5078 0
M  V30 1976 H 200.171 4.45813 -4.11505 0
M  V30 1977 H 198.91 3.83357 -3.01477 0
M  V30 1978 H 197.915 2.5017 -4.89587 0
M  V30 1979 H 199.14 3.15637 -6.0129 0
M  V30 1980 H 197.086 4.79361 -4.47827 0
M  V30 1981 H 197.003 4.38274 -6.15996 0
M  V30 1982 H 198.271 5.42858 -5.59397 0
M  V30 1983 N 202.5 1.5196 0.417844 0
M  V30 1984 C 203.728 1.69426 1.18753 0
M  V30 1985 C 204.143 0.399955 1.84515 0
M  V30 1986 O 203.5 -0.623288 1.71527 0
M  V30 1987 C 203.551 2.82375 2.25714 0
M  V30 1988 O 203.272 4.06793 1.62638 0
M  V30 1989 C 204.773 3.11277 3.15628 0
M  V30 1990 H 201.993 0.568031 0.357186 0
M  V30 1991 H 204.537 1.98475 0.49273 0
M  V30 1992 H 202.692 2.5587 2.90877 0
M  V30 1993 H 203.106 4.69667 2.3348 0
M  V30 1994 H 204.58 3.93843 3.86771 0
M  V30 1995 H 205.057 2.24473 3.77503 0
M  V30 1996 H 205.663 3.39515 2.56144 0
M  V30 1997 N 203.978 -0.674533 1.42435 0
M  V30 1998 C 205.226 -1.43175 1.42637 0
M  V30 1999 C 205.547 -1.94951 0.0438992 0
M  V30 2000 O 204.817 -1.7308 -0.917607 0
M  V30 2001 H 203.397 -0.531307 0.525092 0
M  V30 2002 H 206.059 -0.797006 1.77859 0
M  V30 2003 H 205.155 -2.28463 2.12629 0
M  V30 2004 N 205.456 -1.28612 -0.910864 0
M  V30 2005 C 206.404 -1.1265 -2.03501 0
M  V30 2006 C 207.398 -0.0450054 -1.6934 0
M  V30 2007 O 208.604 -0.203988 -1.7884 0
M  V30 2008 H 204.979 -0.347639 -0.666822 0
M  V30 2009 H 206.95 -2.07849 -2.14106 0
M  V30 2010 C 205.699 -0.808143 -3.38178 0
M  V30 2011 H 205.022 -1.63231 -3.6496 0
M  V30 2012 H 206.462 -0.736426 -4.17556 0
M  V30 2013 C 204.921 0.488226 -3.33344 0
M  V30 2014 O 205.451 1.51766 -3.71927 0
M  V30 2015 N 203.657 0.490009 -2.86439 0
M  V30 2016 H 203.204 -0.348161 -2.55236 0
M  V30 2017 H 203.162 1.35741 -2.83587 0
M  V30 2018 N 206.934 1.1197 -1.10907 0
M  V30 2019 C 207.897 2.16031 -0.765707 0
M  V30 2020 C 208.897 1.59393 0.212235 0
M  V30 2021 O 210.087 1.74196 -0.0115441 0
M  V30 2022 C 207.219 3.40632 -0.135053 0
M  V30 2023 H 208.412 2.47919 -1.68748 0
M  V30 2024 H 205.965 1.27061 -0.910226 0
M  V30 2025 H 206.7 3.14348 0.797218 0
M  V30 2026 H 206.485 3.8302 -0.838937 0
M  V30 2027 H 207.975 4.17505 0.0892469 0
M  V30 2028 N 208.412 0.89855 1.29475 0
M  V30 2029 C 209.66 0.522847 1.9522 0
M  V30 2030 C 209.981 -0.93371 1.71192 0
M  V30 2031 O 209.251 -1.65823 1.04305 0
M  V30 2032 H 207.831 0.190366 0.722336 0
M  V30 2033 H 210.493 1.14459 1.5775 0
M  V30 2034 H 209.589 0.704476 3.04045 0
M  V30 2035 N 209.89 -1.43072 0.660911 0
M  V30 2036 C 211.115 -2.06584 0.183805 0
M  V30 2037 C 211.54 -1.49257 -1.14472 0
M  V30 2038 O 210.898 -0.605528 -1.70889 0
M  V30 2039 C 210.946 -3.60418 0.114434 0
M  V30 2040 O 210.05 -4.01981 -0.921137 0
M  V30 2041 H 209.391 -0.656669 0.0983994 0
M  V30 2042 H 211.921 -1.83447 0.906006 0
M  V30 2043 H 211.931 -4.07946 -0.0663394 0
M  V30 2044 H 210.606 -4.01519 1.08422 0
M  V30 2045 H 209.183 -3.66029 -0.71253 0
M  V30 2046 N 211.368 -0.403325 -1.52352 0
M  V30 2047 C 212.784 -0.0539281 -1.59509 0
M  V30 2048 C 212.984 1.43307 -1.41652 0
M  V30 2049 O 212.04 2.19924 -1.24056 0
M  V30 2050 C 213.353 -0.543654 -2.95745 0
M  V30 2051 C 214.901 -0.501125 -3.08962 0
M  V30 2052 C 215.376 -0.967267 -4.47669 0
M  V30 2053 N 216.867 -0.923849 -4.53893 0
M  V30 2054 C 217.602 -1.25578 -5.5948 0
M  V30 2055 N 217.098 -1.65889 -6.72646 0
M  V30 2056 N 218.891 -1.17613 -5.49658 0
M  V30 2057 H 211.042 -1.37123 -1.62206 0
M  V30 2058 H 213.305 -0.56294 -0.76276 0
M  V30 2059 H 213.011 -1.58275 -3.14073 0
M  V30 2060 H 212.885 0.0498042 -3.77167 0
M  V30 2061 H 215.272 0.528909 -2.90321 0
M  V30 2062 H 215.353 -1.13056 -2.2946 0
M  V30 2063 H 214.997 -1.9956 -4.67053 0
M  V30 2064 H 214.927 -0.314698 -5.25659 0
M  V30 2065 H 217.418 -0.627403 -3.72655 0
M  V30 2066 H 217.731 -1.89543 -7.49195 0
M  V30 2067 H 216.076 -1.69787 -6.73942 0
M  V30 2068 H 219.267 -0.860115 -4.6013 0
M  V30 2069 H 219.44 -1.43812 -6.3184 0
M  V30 2070 N 212.846 1.57033 -0.133567 0
M  V30 2071 C 213.776 2.1909 0.807567 0
M  V30 2072 C 214.757 1.13517 1.26681 0
M  V30 2073 O 215.942 1.41809 1.32679 0
M  V30 2074 C 213.072 2.80188 2.05212 0
M  V30 2075 C 212.026 3.91471 1.73015 0
M  V30 2076 C 211.352 4.39443 3.04622 0
M  V30 2077 C 212.652 5.12886 0.987168 0
M  V30 2078 H 214.346 2.97988 0.290403 0
M  V30 2079 H 211.892 1.43335 0.138239 0
M  V30 2080 H 213.845 3.22264 2.71521 0
M  V30 2081 H 212.569 1.98601 2.59278 0
M  V30 2082 H 211.228 3.49993 1.0909 0
M  V30 2083 H 210.876 3.54695 3.56651 0
M  V30 2084 H 210.576 5.14495 2.83847 0
M  V30 2085 H 212.1 4.8418 3.72024 0
M  V30 2086 H 213.514 5.51891 1.55208 0
M  V30 2087 H 211.911 5.93615 0.87985 0
M  V30 2088 H 212.981 4.84894 -0.0235286 0
M  V30 2089 N 214.325 -0.140222 1.56975 0
M  V30 2090 C 215.288 -1.15689 1.97861 0
M  V30 2091 C 216.288 -1.3549 0.865974 0
M  V30 2092 O 217.478 -1.32367 1.13246 0
M  V30 2093 C 214.61 -2.51582 2.30042 0
M  V30 2094 H 215.803 -0.805971 2.88867 0
M  V30 2095 H 213.356 -0.383801 1.51515 0
M  V30 2096 H 214.091 -2.91632 1.41849 0
M  V30 2097 H 213.876 -2.38569 3.11171 0
M  V30 2098 H 215.366 -3.24792 2.62488 0
M  V30 2099 N 215.803 -1.52179 -0.40978 0
M  V30 2100 C 217.043 -1.67882 -1.16597 0
M  V30 2101 C 217.407 -0.399795 -1.87791 0
M  V30 2102 O 218.608 -0.43292 -2.65291 0
M  V30 2103 C 216.879 -2.86662 -2.13448 0
M  V30 2104 S 218.438 -3.22843 -2.97183 0
M  V30 2105 H 215.256 -0.59118 -0.395002 0
M  V30 2106 H 217.858 -1.9017 -0.453373 0
M  V30 2107 H 216.562 -3.77998 -1.59831 0
M  V30 2108 H 216.093 -2.66645 -2.89247 0
M  V30 2109 H 218.108 -2.71415 -4.15389 0
M  V30 2110 N 217.281 0.66697 -1.42791 0
M  V30 2111 C 218.529 1.42417 -1.43394 0
M  V30 2112 C 218.85 1.94925 -0.0542373 0
M  V30 2113 O 218.12 1.73564 0.908415 0
M  V30 2114 H 216.7 0.528515 -0.527902 0
M  V30 2115 H 219.362 0.787562 -1.78279 0
M  V30 2116 H 218.458 2.27333 -2.13837 0
M  V30 2117 N 218.759 1.29093 0.90403 0
M  V30 2118 C 220.005 1.16986 1.65656 0
M  V30 2119 C 220.338 -0.278925 1.92186 0
M  V30 2120 O 219.613 -1.2019 1.5292 0
M  V30 2121 C 219.896 1.97908 3.0084 0
M  V30 2122 C 219.749 3.50903 2.81403 0
M  V30 2123 C 221.068 1.80208 4.01513 0
M  V30 2124 H 218.187 0.426346 0.601164 0
M  V30 2125 H 220.829 1.58518 1.04747 0
M  V30 2126 H 218.979 1.62616 3.52829 0
M  V30 2127 H 220.651 3.96153 2.36348 0
M  V30 2128 H 218.894 3.76045 2.1627 0
M  V30 2129 H 219.565 4.02791 3.77443 0
M  V30 2130 H 222.041 2.11025 3.58619 0
M  V30 2131 H 220.917 2.39184 4.94047 0
M  V30 2132 H 221.178 0.756119 4.35586 0
M  V30 2133 N 220.237 -1.11381 1.11499 0
M  V30 2134 C 221.486 -1.82494 0.858993 0
M  V30 2135 C 221.799 -1.85605 -0.617278 0
M  V30 2136 O 223.005 -2.52824 -0.989552 0
M  V30 2137 C 221.461 -3.27745 1.48699 0
M  V30 2138 C 221.069 -3.32961 2.99735 0
M  V30 2139 C 222.813 -4.03754 1.31085 0
M  V30 2140 C 220.72 -4.72612 3.55516 0
M  V30 2141 H 219.65 -0.683802 0.317696 0
M  V30 2142 H 222.301 -1.25331 1.34031 0
M  V30 2143 H 220.683 -3.84844 0.933339 0
M  V30 2144 H 221.857 -2.85741 3.61509 0
M  V30 2145 H 220.172 -2.70433 3.16631 0
M  V30 2146 H 222.769 -5.06891 1.70192 0
M  V30 2147 H 223.112 -4.15527 0.253496 0
M  V30 2148 H 223.645 -3.53043 1.83318 0
M  V30 2149 H 220.384 -4.66036 4.60967 0
M  V30 2150 H 219.904 -5.2024 2.98513 0
M  V30 2151 H 221.583 -5.4157 3.53992 0
M  V30 2152 N 221.715 -0.905404 -1.28997 0
M  V30 2153 C 222.963 -0.533192 -1.9494 0
M  V30 2154 C 223.284 0.924618 -1.71685 0
M  V30 2155 O 222.554 1.65268 -1.05183 0
M  V30 2156 H 221.134 -0.194194 -0.721317 0
M  V30 2157 H 223.796 -1.15294 -1.57141 0
M  V30 2158 H 222.892 -0.72059 -3.03667 0
M  V30 2159 N 223.193 1.4272 -0.668489 0
M  V30 2160 C 224.442 2.00846 -0.185389 0
M  V30 2161 C 224.755 1.53442 1.21305 0
M  V30 2162 O 225.961 2.03944 1.79218 0
M  V30 2163 C 224.417 3.58805 -0.280591 0
M  V30 2164 C 224.025 4.15198 -1.68268 0
M  V30 2165 C 225.769 4.24255 0.14412 0
M  V30 2166 C 223.676 5.655 -1.73099 0
M  V30 2167 H 222.606 0.751145 -0.0655475 0
M  V30 2168 H 225.257 1.63516 -0.832752 0
M  V30 2169 H 223.639 3.93608 0.434553 0
M  V30 2170 H 224.813 3.91866 -2.42441 0
M  V30 2171 H 223.128 3.62176 -2.05469 0
M  V30 2172 H 225.725 5.34547 0.128086 0
M  V30 2173 H 226.068 3.99277 1.17827 0
M  V30 2174 H 226.601 3.94389 -0.519798 0
M  V30 2175 H 223.34 5.95268 -2.74475 0
M  V30 2176 H 222.86 5.90842 -1.03274 0
M  V30 2177 H 224.539 6.29808 -1.48158 0
M  V30 2178 N 224.671 0.411399 1.52136 0
M  V30 2179 C 225.634 -0.401089 2.25663 0
M  V30 2180 C 226.634 -0.971732 1.28117 0
M  V30 2181 O 227.824 -0.850254 1.52041 0
M  V30 2182 C 224.956 -1.56483 3.02863 0
M  V30 2183 H 226.149 0.24295 2.98914 0
M  V30 2184 H 223.702 0.163968 1.55438 0
M  V30 2185 H 224.437 -2.24567 2.33967 0
M  V30 2186 H 224.222 -1.16211 3.74483 0
M  V30 2187 H 225.712 -2.13951 3.58629 0
M  V30 2188 N 226.149 -1.5696 0.141893 0
M  V30 2189 C 227.081 -2.13619 -0.830627 0
M  V30 2190 C 228.094 -1.08439 -1.21428 0
M  V30 2191 O 229.283 -1.35734 -1.15925 0
M  V30 2192 C 226.383 -2.63978 -2.12529 0
M  V30 2193 C 225.556 -3.93504 -1.9098 0
M  V30 2194 C 224.615 -4.29225 -3.04388 0
M  V30 2195 O 223.641 -4.97641 -2.76302 0
M  V30 2196 N 224.843 -3.88393 -4.31429 0
M  V30 2197 H 227.608 -2.97691 -0.34641 0
M  V30 2198 H 225.169 -1.61846 -0.0418375 0
M  V30 2199 H 227.161 -2.84891 -2.87436 0
M  V30 2200 H 225.731 -1.84659 -2.52229 0
M  V30 2201 H 224.951 -3.81269 -1.00139 0
M  V30 2202 H 226.239 -4.78154 -1.73914 0
M  V30 2203 H 225.637 -3.33257 -4.57117 0
M  V30 2204 H 224.194 -4.14368 -5.03133 0
M  V30 2205 O 227.666 -0.00315229 -1.615 0
M  V30 2206 H 228.357 0.61308 -1.83742 0
M  V30 END ATOM
M  V30 BEGIN BOND
M  V30 END BOND
M  V30 END CTAB
M  END
$$$$
