drugbank_target|P06276 Cholinesterase (DB00122; DB00382; DB00449; DB00545; DB00674; DB00677; DB00733; DB00772; DB00843; DB00941; DB00944; DB00989; DB01010; DB01057; DB01221; DB01226; DB02811; DB02845; DB03568; DB03672; DB03814; DB03822; DB04250; DB04892; DB07681; DB07940; DB08200; DB08201; DB08658; DB11397; DB14006)
 OpenBabel12092120073D

  0  0  0     0  0            999 V3000
M  V30 BEGIN CTAB
M  V30 COUNTS 9551 9690 0 0 0
M  V30 BEGIN ATOM
M  V30 1 H -0.908 1.98254 -0.117106 0
M  V30 2 N 0 1.576 0 0
M  V30 3 C 0.933 2.03868 1.02534 0
M  V30 4 C 1.911 0.928543 1.3348 0
M  V30 5 O 3.095 1.19667 1.45644 0
M  V30 6 C 0.222 2.43627 2.35294 0
M  V30 7 C -0.732 3.65373 2.2001 0
M  V30 8 S 0.101 5.13292 1.52614 0
M  V30 9 C 1.257 5.56322 2.86805 0
M  V30 10 H 1.49 2.90518 0.631377 0
M  V30 11 H -0.977 1.52953 0.210867 0
M  V30 12 H 0.981 2.67203 3.11629 0
M  V30 13 H -0.358 1.57376 2.7183 0
M  V30 14 H -1.165 3.90944 3.18086 0
M  V30 15 H -1.563 3.418 1.51819 0
M  V30 16 H 0.729 5.58782 3.83104 0
M  V30 17 H 1.672 6.56266 2.65933 0
M  V30 18 H 2.08 4.83886 2.90714 0
M  V30 19 N 1.4781 -0.272755 1.55222 0
M  V30 20 C 2.4281 -1.33946 1.84506 0
M  V30 21 C 3.4121 -1.44682 0.70399 0
M  V30 22 O 4.6041 -1.48358 0.965338 0
M  V30 23 C 1.7331 -2.69968 2.12067 0
M  V30 24 C 0.8191 -2.63341 3.32434 0
M  V30 25 N 1.2101 -2.26335 4.52334 0
M  V30 26 C -0.4919 -2.94402 3.35028 0
M  V30 27 C 0.2091 -2.29705 5.34425 0
M  V30 28 N -0.8149 -2.68188 4.72838 0
M  V30 29 H 2.9871 -1.04343 2.74754 0
M  V30 30 H 0.5011 -0.481389 1.55101 0
M  V30 31 H 2.4981 -3.46916 2.31202 0
M  V30 32 H 1.1581 -3.00459 1.23103 0
M  V30 33 H 2.1691 -1.98309 4.78429 0
M  V30 34 H -1.1539 -3.29603 2.56257 0
M  V30 35 H 0.2361 -2.03653 6.40293 0
M  V30 36 N 2.9562 -1.48159 -0.537278 0
M  V30 37 C 4.1812 -1.59707 -1.32319 0
M  V30 38 C 4.6062 -0.254859 -1.86365 0
M  V30 39 O 3.9642 0.772378 -1.64024 0
M  V30 40 C 4.0122 -2.6412 -2.45505 0
M  V30 41 O 3.1162 -2.20774 -3.48328 0
M  V30 42 H 2.4572 -0.535791 -0.392204 0
M  V30 43 H 4.9872 -1.94092 -0.647268 0
M  V30 44 H 4.9972 -2.85166 -2.91795 0
M  V30 45 H 3.6722 -3.61567 -2.05528 0
M  V30 46 H 2.2492 -2.09911 -3.08207 0
M  V30 47 N 4.4343 0.785586 -1.36625 0
M  V30 48 C 5.3813 1.89838 -1.31264 0
M  V30 49 C 6.3513 1.65115 -0.180633 0
M  V30 50 O 7.5363 1.87222 -0.36777 0
M  V30 51 C 4.6763 3.26706 -1.11163 0
M  V30 52 C 3.7893 3.63476 -2.33472 0
M  V30 53 C 2.9243 4.89481 -2.06353 0
M  V30 54 C 1.9633 5.18941 -3.24602 0
M  V30 55 N 1.1003 6.36131 -2.97123 0
M  V30 56 H 5.9403 1.93756 -2.26413 0
M  V30 57 H 3.4773 0.947454 -1.12524 0
M  V30 58 H 5.4353 4.05639 -0.975337 0
M  V30 59 H 4.0653 3.222 -0.196674 0
M  V30 60 H 3.1173 2.79636 -2.57891 0
M  V30 61 H 4.4293 3.81193 -3.21704 0
M  V30 62 H 3.5833 5.76288 -1.89675 0
M  V30 63 H 2.3223 4.73841 -1.15437 0
M  V30 64 H 1.3273 4.30615 -3.41834 0
M  V30 65 H 2.5523 5.36498 -4.16349 0
M  V30 66 H 0.4983 6.21875 -2.08823 0
M  V30 67 H 0.4153 6.54198 -3.78894 0
M  V30 68 H 1.6833 7.2591 -2.84033 0
M  V30 69 N 5.9124 1.20967 1.01018 0
M  V30 70 C 7.1584 1.02526 1.74975 0
M  V30 71 C 7.4914 -0.4408 1.89131 0
M  V30 72 O 6.7664 -1.32718 1.42184 0
M  V30 73 C 7.0494 1.71699 3.1653 0
M  V30 74 C 6.9024 3.25791 3.10129 0
M  V30 75 C 8.2214 1.45531 4.15342 0
M  V30 76 H 5.3404 0.373863 0.635134 0
M  V30 77 H 7.9824 1.49071 1.17805 0
M  V30 78 H 6.1324 1.32128 3.65341 0
M  V30 79 H 7.8044 3.74697 2.69072 0
M  V30 80 H 6.0474 3.56363 2.47362 0
M  V30 81 H 6.7184 3.69353 4.10222 0
M  V30 82 H 9.1944 1.79872 3.75213 0
M  V30 83 H 8.0704 1.96453 5.1254 0
M  V30 84 H 8.3314 0.384237 4.40427 0
M  V30 85 N 7.3905 -1.2043 1.01659 0
M  V30 86 C 8.6185 -1.93777 0.725132 0
M  V30 87 C 9.0335 -1.74772 -0.714166 0
M  V30 88 O 8.3905 -1.06169 -1.4844 0
M  V30 89 C 8.4415 -3.45876 1.05129 0
M  V30 90 O 8.1625 -3.6426 2.43406 0
M  V30 91 C 9.6635 -4.36368 0.780891 0
M  V30 92 H 6.8835 -0.615901 0.266284 0
M  V30 93 H 9.4275 -1.52922 1.35776 0
M  V30 94 H 7.5825 -3.8461 0.464065 0
M  V30 95 H 7.9965 -4.58246 2.55169 0
M  V30 96 H 9.4705 -5.41743 1.05918 0
M  V30 97 H 9.9475 -4.38275 -0.284937 0
M  V30 98 H 10.5535 -4.03296 1.35027 0
M  V30 99 N 8.8686 -0.792821 -1.36206 0
M  V30 100 C 10.1176 -0.363353 -1.984 0
M  V30 101 C 10.4306 1.07172 -1.63626 0
M  V30 102 O 11.6366 1.60362 -2.19081 0
M  V30 103 C 10.0926 -0.59872 -3.54885 0
M  V30 104 C 9.7006 -2.04543 -3.9858 0
M  V30 105 C 11.4446 -0.233926 -4.23855 0
M  V30 106 C 9.3516 -2.22727 -5.47856 0
M  V30 107 H 8.2816 -0.13212 -0.742334 0
M  V30 108 H 10.9326 -0.974935 -1.55458 0
M  V30 109 H 9.3146 0.0826222 -3.95914 0
M  V30 110 H 10.4886 -2.76345 -3.68741 0
M  V30 111 H 8.8036 -2.36879 -3.42458 0
M  V30 112 H 11.4006 -0.348027 -5.33566 0
M  V30 113 H 11.7436 0.818351 -4.08177 0
M  V30 114 H 12.2766 -0.868639 -3.882 0
M  V30 115 H 9.0156 -3.2635 -5.68486 0
M  V30 116 H 8.5356 -1.55434 -5.7931 0
M  V30 117 H 10.2146 -2.03607 -6.14128 0
M  V30 118 N 10.3467 1.47872 -0.545128 0
M  V30 119 C 11.5957 2.01695 -0.0145033 0
M  V30 120 C 11.9087 1.42609 1.33873 0
M  V30 121 O 13.1147 1.88021 1.95858 0
M  V30 122 C 11.5707 3.59892 0.0245068 0
M  V30 123 C 11.1787 4.27966 -1.32475 0
M  V30 124 C 12.9227 4.21507 0.50316 0
M  V30 125 C 10.8297 5.78136 -1.2455 0
M  V30 126 H 9.7597 0.753998 -0.00165172 0
M  V30 127 H 12.4107 1.69985 -0.691175 0
M  V30 128 H 10.7927 3.88509 0.766575 0
M  V30 129 H 11.9667 4.11003 -2.08357 0
M  V30 130 H 10.2817 3.78286 -1.74036 0
M  V30 131 H 12.8787 5.31538 0.580656 0
M  V30 132 H 13.2217 3.87855 1.51243 0
M  V30 133 H 13.7547 3.97376 -0.183681 0
M  V30 134 H 10.4937 6.16388 -2.23039 0
M  V30 135 H 10.0137 5.97469 -0.528282 0
M  V30 136 H 11.6927 6.40099 -0.942488 0
M  V30 137 N 11.8248 0.280983 1.55075 0
M  V30 138 C 13.0648 -0.335234 2.01632 0
M  V30 139 C 13.4288 -1.5261 1.16508 0
M  V30 140 O 14.6298 -2.21235 1.52672 0
M  V30 141 C 12.9008 -0.702172 3.50434 0
M  V30 142 S 14.4598 -1.30409 4.18974 0
M  V30 143 H 11.2778 -0.103967 0.703358 0
M  V30 144 H 13.8798 0.404187 1.91276 0
M  V30 145 H 12.5838 0.17333 4.10034 0
M  V30 146 H 12.1148 -1.4729 3.64786 0
M  V30 147 H 14.1298 -2.59253 4.23087 0
M  V30 148 N 13.3029 -1.57598 0.00835791 0
M  V30 149 C 14.5519 -1.90107 -0.673968 0
M  V30 150 C 14.8649 -0.884275 -1.7447 0
M  V30 151 O 16.0709 -1.09987 -2.48224 0
M  V30 152 C 14.5269 -3.37497 -1.24995 0
M  V30 153 C 14.1349 -4.47491 -0.2136 0
M  V30 154 C 15.8789 -3.79104 -1.90999 0
M  V30 155 C 13.7859 -5.85963 -0.80005 0
M  V30 156 H 12.7159 -0.709393 -0.255495 0
M  V30 157 H 15.3669 -1.83365 0.0702693 0
M  V30 158 H 13.7489 -3.39102 -2.04513 0
M  V30 159 H 14.9229 -4.57414 0.557596 0
M  V30 160 H 13.2379 -4.14956 0.346474 0
M  V30 161 H 15.8349 -4.79901 -2.35795 0
M  V30 162 H 16.1779 -3.1306 -2.74407 0
M  V30 163 H 16.7109 -3.79833 -1.18203 0
M  V30 164 H 13.4499 -6.555 -0.00456708 0
M  V30 165 H 12.9699 -5.79687 -1.54021 0
M  V30 166 H 14.6489 -6.33884 -1.29615 0
M  V30 167 N 14.781 0.264519 -1.55364 0
M  V30 168 C 16.197 0.61215 -1.47394 0
M  V30 169 C 16.397 1.89134 -0.695018 0
M  V30 170 O 15.453 2.51563 -0.217275 0
M  V30 171 C 16.766 0.731235 -2.91674 0
M  V30 172 C 18.314 0.82473 -3.01939 0
M  V30 173 C 18.789 0.975522 -4.4749 0
M  V30 174 N 20.28 1.04083 -4.51354 0
M  V30 175 C 21.015 1.17646 -5.61201 0
M  V30 176 N 20.511 1.27874 -6.80896 0
M  V30 177 N 22.304 1.20823 -5.48961 0
M  V30 178 H 14.455 -0.575456 -2.04456 0
M  V30 179 H 16.718 -0.196099 -0.927496 0
M  V30 180 H 16.424 -0.138392 -3.51428 0
M  V30 181 H 16.298 1.60883 -3.41169 0
M  V30 182 H 18.685 1.68482 -2.42276 0
M  V30 183 H 18.766 -0.0776479 -2.55682 0
M  V30 184 H 18.41 0.120058 -5.07758 0
M  V30 185 H 18.34 1.89268 -4.91412 0
M  V30 186 H 20.831 0.973846 -3.65136 0
M  V30 187 H 21.144 1.38081 -7.60364 0
M  V30 188 H 19.489 1.24863 -6.83692 0
M  V30 189 H 22.68 1.12469 -4.54388 0
M  V30 190 H 22.853 1.31049 -6.3461 0
M  V30 191 N 16.2591 1.48442 0.529413 0
M  V30 192 C 17.5061 1.56488 1.28521 0
M  V30 193 C 17.8341 0.239042 1.93025 0
M  V30 194 O 17.0891 -0.770713 1.79885 0
M  V30 195 C 17.3881 2.6523 2.39558 0
M  V30 196 C 17.0541 4.07648 1.92702 0
M  V30 197 C 15.7161 4.46411 1.79641 0
M  V30 198 C 18.0681 4.96896 1.573 0
M  V30 199 C 15.3961 5.72226 1.29514 0
M  V30 200 C 17.7481 6.23202 1.08636 0
M  V30 201 C 16.4121 6.60821 0.941919 0
M  V30 202 H 15.6821 0.572631 0.470292 0
M  V30 203 H 18.3291 1.82161 0.59072 0
M  V30 204 H 16.6341 2.33419 3.14679 0
M  V30 205 H 18.3311 2.68671 2.97686 0
M  V30 206 H 14.9211 3.77036 2.03819 0
M  V30 207 H 19.1051 4.67626 1.66251 0
M  V30 208 H 14.3611 6.00097 1.17019 0
M  V30 209 H 18.5351 6.91753 0.803136 0
M  V30 210 H 16.1621 7.58198 0.5513 0
M  V30 211 N 17.7372 -0.778329 1.37039 0
M  V30 212 C 18.6672 -1.90546 1.34962 0
M  V30 213 C 19.6482 -1.68681 0.219274 0
M  V30 214 O 20.8332 -1.89634 0.418624 0
M  V30 215 C 17.9632 -3.27734 1.14925 0
M  V30 216 C 16.9172 -3.64147 2.24902 0
M  V30 217 C 16.2432 -4.99806 1.89996 0
M  V30 218 C 17.5432 -3.71579 3.67051 0
M  V30 219 H 19.2372 -1.92541 2.29277 0
M  V30 220 H 16.7832 -0.924948 1.10366 0
M  V30 221 H 18.7362 -4.06215 1.12104 0
M  V30 222 H 17.4602 -3.26154 0.170631 0
M  V30 223 H 16.1192 -2.8797 2.26868 0
M  V30 224 H 15.7672 -4.94759 0.906796 0
M  V30 225 H 15.4672 -5.25139 2.63634 0
M  V30 226 H 16.9912 -5.80694 1.88749 0
M  V30 227 H 18.4052 -4.40227 3.67251 0
M  V30 228 H 16.8022 -4.08405 4.39688 0
M  V30 229 H 17.8722 -2.72404 4.01154 0
M  V30 230 N 19.2153 -1.21501 -1.00376 0
M  V30 231 C 20.4623 -1.03299 -1.74171 0
M  V30 232 C 20.7903 0.433326 -1.89612 0
M  V30 233 O 20.0453 1.33779 -1.42834 0
M  V30 234 C 20.3443 -1.67673 -3.15627 0
M  V30 235 C 20.0103 -3.17533 -3.2013 0
M  V30 236 C 18.6723 -3.58427 -3.21067 0
M  V30 237 C 21.0243 -4.13504 -3.17275 0
M  V30 238 C 18.3523 -4.93794 -3.16835 0
M  V30 239 C 20.7043 -5.48834 -3.14585 0
M  V30 240 C 19.3683 -5.89123 -3.13831 0
M  V30 241 H 18.6383 -0.377999 -0.637336 0
M  V30 242 H 21.2853 -1.51111 -1.17634 0
M  V30 243 H 19.5903 -1.12158 -3.75404 0
M  V30 244 H 21.2873 -1.51091 -3.71446 0
M  V30 245 H 17.8773 -2.84965 -3.20145 0
M  V30 246 H 22.0613 -3.82936 -3.15711 0
M  V30 247 H 17.3173 -5.24255 -3.1459 0
M  V30 248 H 21.4913 -6.22934 -3.1133 0
M  V30 249 H 19.1183 -6.93984 -3.10307 0
M  V30 250 N 20.6934 1.19889 -1.02296 0
M  V30 251 C 21.9394 1.89973 -0.726759 0
M  V30 252 C 22.2944 1.7776 0.73614 0
M  V30 253 O 21.5874 1.15523 1.52856 0
M  V30 254 C 21.7814 3.39883 -1.10518 0
M  V30 255 C 21.6104 3.66684 -2.60332 0
M  V30 256 C 20.3804 3.85045 -3.27213 0
M  V30 257 C 22.5784 3.68727 -3.58532 0
M  V30 258 N 20.5604 3.99422 -4.66192 0
M  V30 259 C 21.9314 3.88604 -4.83101 0
M  V30 260 C 23.9864 3.51722 -3.52414 0
M  V30 261 C 22.6894 3.9324 -6.02292 0
M  V30 262 C 24.7154 3.57632 -4.71013 0
M  V30 263 C 24.0774 3.77988 -5.94394 0
M  V30 264 H 20.1764 0.714551 -0.317712 0
M  V30 265 H 22.7604 1.44123 -1.30907 0
M  V30 266 H 20.9314 3.8447 -0.551142 0
M  V30 267 H 22.6634 3.97464 -0.761853 0
M  V30 268 H 19.4184 3.83689 -2.77632 0
M  V30 269 H 19.8424 4.10473 -5.38368 0
M  V30 270 H 24.4844 3.34945 -2.58015 0
M  V30 271 H 22.2024 4.08811 -6.97065 0
M  V30 272 H 25.7884 3.45773 -4.67902 0
M  V30 273 H 24.6684 3.82428 -6.8463 0
M  V30 274 N 22.1715 0.800033 1.35784 0
M  V30 275 C 23.4185 0.377342 1.98953 0
M  V30 276 C 23.7465 -1.05378 1.6348 0
M  V30 277 O 23.0015 -1.74459 0.886707 0
M  V30 278 C 23.3005 0.500276 3.53881 0
M  V30 279 C 22.9665 1.89375 4.09204 0
M  V30 280 C 21.6285 2.27499 4.24025 0
M  V30 281 C 23.9805 2.8057 4.39238 0
M  V30 282 C 21.3085 3.562 4.66195 0
M  V30 283 C 23.6605 4.0871 4.82844 0
M  V30 284 C 22.3245 4.46843 4.95871 0
M  V30 285 H 21.5945 0.138079 0.728021 0
M  V30 286 H 24.2415 1.01955 1.62103 0
M  V30 287 H 22.5465 -0.225405 3.91151 0
M  V30 288 H 24.2435 0.154097 4.00704 0
M  V30 289 H 20.8335 1.58753 3.98115 0
M  V30 290 H 25.0175 2.52367 4.27346 0
M  V30 291 H 20.2735 3.85602 4.74469 0
M  V30 292 H 24.4475 4.79481 5.05046 0
M  V30 293 H 22.0745 5.46623 5.28306 0
M  V30 294 N 23.6496 -1.47581 0.552962 0
M  V30 295 C 24.5796 -2.32762 -0.185451 0
M  V30 296 C 25.5606 -1.43527 -0.912905 0
M  V30 297 O 26.7456 -1.72388 -0.894201 0
M  V30 298 C 23.8756 -3.25219 -1.21859 0
M  V30 299 C 22.8296 -4.23661 -0.607864 0
M  V30 300 C 22.1556 -5.05413 -1.74533 0
M  V30 301 C 23.4556 -5.20481 0.435582 0
M  V30 302 H 25.1496 -2.94749 0.525684 0
M  V30 303 H 22.6956 -1.41738 0.254251 0
M  V30 304 H 24.6486 -3.8365 -1.7433 0
M  V30 305 H 23.3726 -2.61279 -1.95961 0
M  V30 306 H 22.0316 -3.66451 -0.104489 0
M  V30 307 H 21.6796 -4.3788 -2.47529 0
M  V30 308 H 21.3796 -5.72059 -1.34249 0
M  V30 309 H 22.9036 -5.66701 -2.27338 0
M  V30 310 H 24.3176 -5.733 -0.00290157 0
M  V30 311 H 22.7146 -5.95305 0.757067 0
M  V30 312 H 23.7846 -4.66217 1.33303 0
M  V30 313 N 25.1277 -0.289203 -1.54924 0
M  V30 314 C 26.0577 0.58549 -2.2604 0
M  V30 315 C 27.0387 1.14753 -1.25562 0
M  V30 316 O 28.2237 1.17906 -1.54311 0
M  V30 317 C 25.3537 1.76305 -2.99222 0
M  V30 318 C 24.3077 1.33191 -4.06748 0
M  V30 319 C 23.6337 2.5937 -4.6758 0
M  V30 320 C 24.9337 0.471775 -5.20165 0
M  V30 321 H 26.6277 -0.00763532 -2.99399 0
M  V30 322 H 24.1737 -0.00511229 -1.43999 0
M  V30 323 H 26.1267 2.38097 -3.47689 0
M  V30 324 H 24.8507 2.38223 -2.23422 0
M  V30 325 H 23.5097 0.737121 -3.59113 0
M  V30 326 H 23.1577 3.19576 -3.88433 0
M  V30 327 H 22.8577 2.31228 -5.40192 0
M  V30 328 H 24.3817 3.21985 -5.18804 0
M  V30 329 H 25.7957 0.995056 -5.64599 0
M  V30 330 H 24.1927 0.284639 -5.99425 0
M  V30 331 H 25.2627 -0.506041 -4.82252 0
M  V30 332 N 26.6058 1.57591 -0.0167156 0
M  V30 333 C 27.5358 2.12496 0.967858 0
M  V30 334 C 28.5168 1.03807 1.34752 0
M  V30 335 O 29.7018 1.31577 1.42833 0
M  V30 336 C 26.8318 2.64194 2.25431 0
M  V30 337 C 25.7858 3.77559 2.01576 0
M  V30 338 C 25.1118 4.15636 3.36379 0
M  V30 339 C 26.4118 5.04151 1.36489 0
M  V30 340 H 28.1058 2.95013 0.510643 0
M  V30 341 H 25.6518 1.41915 0.244181 0
M  V30 342 H 27.6048 3.01236 2.94678 0
M  V30 343 H 26.3288 1.78821 2.73296 0
M  V30 344 H 24.9878 3.40937 1.34751 0
M  V30 345 H 24.6358 3.27263 3.81979 0
M  V30 346 H 24.3358 4.92022 3.21229 0
M  V30 347 H 25.8598 4.5525 4.06915 0
M  V30 348 H 27.2738 5.38857 1.95718 0
M  V30 349 H 25.6708 5.85453 1.31776 0
M  V30 350 H 26.7408 4.83733 0.336219 0
M  V30 351 N 28.0839 -0.256276 1.55502 0
M  V30 352 C 29.3239 -0.993081 1.78654 0
M  V30 353 C 29.6879 -1.8288 0.584724 0
M  V30 354 O 30.8889 -2.59665 0.694822 0
M  V30 355 C 29.1599 -1.83856 3.06483 0
M  V30 356 S 30.7189 -2.63573 3.5082 0
M  V30 357 H 27.5369 -0.334199 0.62756 0
M  V30 358 H 30.1389 -0.26184 1.93739 0
M  V30 359 H 28.8429 -1.21414 3.92029 0
M  V30 360 H 28.3739 -2.61271 2.94111 0
M  V30 361 H 30.3889 -3.86312 3.11412 0
M  V30 362 N 29.562 -1.4872 -0.521534 0
M  V30 363 C 30.495 -1.58451 -1.64221 0
M  V30 364 C 31.473 -0.434513 -1.56687 0
M  V30 365 O 32.657 -0.647275 -1.77038 0
M  V30 366 C 29.784 -1.52037 -3.02659 0
M  V30 367 C 28.83 -2.71981 -3.28525 0
M  V30 368 S 29.663 -4.33869 -3.13876 0
M  V30 369 C 30.819 -4.30067 -4.54745 0
M  V30 370 H 31.052 -2.53256 -1.55719 0
M  V30 371 H 28.585 -1.37358 -0.705143 0
M  V30 372 H 30.543 -1.49023 -3.82495 0
M  V30 373 H 29.204 -0.585541 -3.08594 0
M  V30 374 H 28.397 -2.63656 -4.29536 0
M  V30 375 H 27.999 -2.72302 -2.56374 0
M  V30 376 H 30.291 -4.00521 -5.46433 0
M  V30 377 H 31.234 -5.31287 -4.68123 0
M  V30 378 H 31.642 -3.60419 -4.34463 0
M  V30 379 N 31.0401 0.771051 -1.3745 0
M  V30 380 C 31.9701 1.89827 -1.3597 0
M  V30 381 C 32.9511 1.68562 -0.228216 0
M  V30 382 O 34.1361 1.8941 -0.428675 0
M  V30 383 C 31.2661 3.2712 -1.16662 0
M  V30 384 C 30.2201 3.6295 -2.2683 0
M  V30 385 C 29.5461 4.98791 -1.92644 0
M  V30 386 C 30.8461 3.69627 -3.69017 0
M  V30 387 H 32.5401 1.91323 -2.30295 0
M  V30 388 H 30.0861 0.919082 -1.10855 0
M  V30 389 H 32.0391 4.05615 -1.14256 0
M  V30 390 H 30.7631 3.26059 -0.187926 0
M  V30 391 H 29.4221 2.86763 -2.28392 0
M  V30 392 H 29.0701 4.94271 -0.933021 0
M  V30 393 H 28.7701 5.23733 -2.66416 0
M  V30 394 H 30.2941 5.79685 -1.91826 0
M  V30 395 H 31.7081 4.38273 -3.69581 0
M  V30 396 H 30.1051 4.06067 -4.41848 0
M  V30 397 H 31.1751 2.70273 -4.02592 0
M  V30 398 N 32.5182 1.22032 0.997298 0
M  V30 399 C 33.7672 1.03637 1.73038 0
M  V30 400 C 34.0802 -0.429475 1.90827 0
M  V30 401 O 35.2862 -0.732995 2.61418 0
M  V30 402 C 33.7422 1.80582 3.11317 0
M  V30 403 C 33.3502 3.31387 3.01474 0
M  V30 404 C 35.0942 1.70621 3.88701 0
M  V30 405 C 33.0012 4.00791 4.3488 0
M  V30 406 H 31.9312 0.384179 0.648785 0
M  V30 407 H 34.5822 1.4584 1.11368 0
M  V30 408 H 32.9642 1.31175 3.73643 0
M  V30 409 H 34.1382 3.88155 2.4834 0
M  V30 410 H 32.4532 3.41976 2.37575 0
M  V30 411 H 35.0502 2.19799 4.87434 0
M  V30 412 H 35.3932 0.665823 4.10941 0
M  V30 413 H 35.9262 2.17547 3.33044 0
M  V30 414 H 32.6652 5.05064 4.1784 0
M  V30 415 H 32.1852 3.48811 4.87945 0
M  V30 416 H 33.8642 4.06139 5.03647 0
M  V30 417 N 33.9963 -1.19345 1.0293 0
M  V30 418 C 35.2443 -1.88665 0.724574 0
M  V30 419 C 35.5653 -1.80036 -0.749144 0
M  V30 420 O 34.8353 -1.2111 -1.53978 0
M  V30 421 H 33.4153 -0.698406 0.265025 0
M  V30 422 H 36.0773 -1.44885 1.30362 0
M  V30 423 H 35.1733 -2.94987 1.01926 0
M  V30 424 N 35.4744 -0.807222 -1.35358 0
M  V30 425 C 36.4214 -0.216037 -2.29787 0
M  V30 426 C 37.3914 0.650278 -1.52842 0
M  V30 427 O 38.5764 0.595227 -1.81278 0
M  V30 428 C 35.7164 0.628893 -3.39321 0
M  V30 429 C 34.8294 -0.257927 -4.31229 0
M  V30 430 C 33.9644 0.595069 -5.27856 0
M  V30 431 C 33.0034 -0.292111 -6.11403 0
M  V30 432 N 32.1404 0.520895 -7.00165 0
M  V30 433 H 36.9804 -1.02671 -2.79755 0
M  V30 434 H 34.5174 -0.517839 -1.37684 0
M  V30 435 H 36.4754 1.13393 -4.01494 0
M  V30 436 H 35.1054 1.40482 -2.90628 0
M  V30 437 H 34.1574 -0.881076 -3.70056 0
M  V30 438 H 35.4694 -0.940759 -4.89848 0
M  V30 439 H 34.6234 1.16522 -5.95405 0
M  V30 440 H 33.3624 1.31146 -4.69736 0
M  V30 441 H 32.3674 -0.874525 -5.428 0
M  V30 442 H 33.5924 -1.00638 -6.71602 0
M  V30 443 H 31.5384 1.22125 -6.44532 0
M  V30 444 H 31.4554 -0.103877 -7.55929 0
M  V30 445 H 32.7234 1.0743 -7.72062 0
M  V30 446 N 36.9525 1.47285 -0.560781 0
M  V30 447 C 38.1775 2.07359 -0.0410566 0
M  V30 448 C 38.6025 1.41017 1.24483 0
M  V30 449 O 37.9605 0.486368 1.74654 0
M  V30 450 C 38.0085 3.6035 0.134123 0
M  V30 451 O 37.1125 3.94681 1.19587 0
M  V30 452 H 36.4535 0.661887 -0.0529291 0
M  V30 453 H 38.9835 1.89252 -0.777482 0
M  V30 454 H 38.9935 4.0652 0.347207 0
M  V30 455 H 37.6685 4.08034 -0.805047 0
M  V30 456 H 36.2455 3.60251 0.962987 0
M  V30 457 N 38.4306 0.297415 1.54768 0
M  V30 458 C 39.3806 -0.595275 2.20092 0
M  V30 459 C 40.3646 -1.10163 1.17273 0
M  V30 460 O 41.5566 -1.043 1.43006 0
M  V30 461 C 38.6856 -1.7684 2.94249 0
M  V30 462 C 37.7716 -1.27818 4.0438 0
M  V30 463 N 38.1626 -0.505695 5.03266 0
M  V30 464 C 36.4606 -1.55923 4.17857 0
M  V30 465 C 37.1616 -0.245094 5.81183 0
M  V30 466 N 36.1376 -0.823881 5.3732 0
M  V30 467 H 39.9396 0.00250837 2.939 0
M  V30 468 H 37.4536 0.102007 1.62079 0
M  V30 469 H 39.4506 -2.41944 3.39513 0
M  V30 470 H 38.1106 -2.36992 2.21957 0
M  V30 471 H 39.1216 -0.150928 5.1768 0
M  V30 472 H 35.7986 -2.16849 3.56767 0
M  V30 473 H 37.1886 0.375084 6.70852 0
M  V30 474 N 39.9087 -1.5758 0.0250728 0
M  V30 475 C 41.1367 -1.9593 -0.664747 0
M  V30 476 C 41.5517 -0.901352 -1.65895 0
M  V30 477 O 40.9087 0.117255 -1.82123 0
M  V30 478 C 40.9597 -3.34342 -1.37468 0
M  V30 479 O 40.6807 -4.36079 -0.420324 0
M  V30 480 C 42.1817 -3.873 -2.1567 0
M  V30 481 H 39.4017 -0.645405 -0.183557 0
M  V30 482 H 41.9457 -2.04329 0.0836372 0
M  V30 483 H 40.1007 -3.27175 -2.0745 0
M  V30 484 H 40.5147 -5.16297 -0.923991 0
M  V30 485 H 41.9887 -4.86504 -2.60803 0
M  V30 486 H 42.4657 -3.21331 -2.99405 0
M  V30 487 H 43.0717 -3.97723 -1.50654 0
M  V30 488 N 41.3868 0.248026 -1.55636 0
M  V30 489 C 42.2968 1.32859 -1.93354 0
M  V30 490 C 43.3128 1.52719 -0.833838 0
M  V30 491 O 44.4888 1.66363 -1.13513 0
M  V30 492 C 41.5538 2.66337 -2.21958 0
M  V30 493 C 40.6148 2.55008 -3.45354 0
M  V30 494 C 39.8478 3.82121 -3.72584 0
M  V30 495 O 40.0708 4.83951 -3.01907 0
M  V30 496 O 39.0048 3.80822 -4.6611 0
M  V30 497 H 42.8308 1.03862 -2.85388 0
M  V30 498 H 40.4158 0.448686 -1.42503 0
M  V30 499 H 42.2978 3.45216 -2.4167 0
M  V30 500 H 40.9728 2.95068 -1.33103 0
M  V30 501 H 39.8798 1.7442 -3.30951 0
M  V30 502 H 41.2128 2.31222 -4.34508 0
M  V30 503 N 42.8649 1.48995 0.513639 0
M  V30 504 C 44.1419 1.48338 1.27495 0
M  V30 505 C 44.5219 0.204065 2.10111 0
M  V30 506 O 43.8699 -0.813881 2.13514 0
M  V30 507 C 44.0799 2.75498 2.14247 0
M  V30 508 C 45.4279 3.24484 2.73852 0
M  V30 509 O 46.4519 2.76528 2.24523 0
M  V30 510 O 45.3109 4.07974 3.6362 0
M  V30 511 H 42.4049 0.593149 0.576284 0
M  V30 512 H 44.9509 1.61246 0.528948 0
M  V30 513 H 43.7229 3.60109 1.53092 0
M  V30 514 H 43.3459 2.6539 2.96064 0
M  V30 515 N 44.343 -0.763751 1.37857 0
M  V30 516 C 45.62 -1.51244 1.24035 0
M  V30 517 C 46 -2.10472 -0.162649 0
M  V30 518 O 45.348 -1.96206 -1.17112 0
M  V30 519 C 45.558 -2.58694 2.34261 0
M  V30 520 C 46.906 -3.25878 2.72193 0
M  V30 521 O 47.93 -2.68993 2.33497 0
M  V30 522 O 46.789 -4.2874 3.38887 0
M  V30 523 H 43.883 -0.670243 0.484462 0
M  V30 524 H 46.429 -0.800031 1.49658 0
M  V30 525 H 45.201 -2.13105 3.2818 0
M  V30 526 H 44.824 -3.37527 2.10146 0
M  V30 527 N 45.8211 -1.22559 -0.990812 0
M  V30 528 C 47.0701 -1.04553 -1.72486 0
M  V30 529 C 47.3831 0.419349 -1.91052 0
M  V30 530 O 48.5891 0.719121 -2.61803 0
M  V30 531 C 47.0451 -1.82231 -3.10355 0
M  V30 532 C 46.6531 -3.32981 -2.99713 0
M  V30 533 C 48.3971 -1.7268 -3.87791 0
M  V30 534 C 46.3041 -4.03091 -4.32748 0
M  V30 535 H 45.2341 -0.387614 -0.646739 0
M  V30 536 H 47.8851 -1.46429 -1.10593 0
M  V30 537 H 46.2671 -1.33155 -3.72942 0
M  V30 538 H 47.4411 -3.89466 -2.46278 0
M  V30 539 H 45.7561 -3.43231 -2.35758 0
M  V30 540 H 48.3531 -2.22381 -4.86262 0
M  V30 541 H 48.6961 -0.687607 -4.10582 0
M  V30 542 H 49.2291 -2.1931 -3.31885 0
M  V30 543 H 45.9681 -5.07273 -4.15156 0
M  V30 544 H 45.4881 -3.51394 -4.86089 0
M  V30 545 H 47.1671 -4.08804 -5.01486 0
M  V30 546 N 47.2992 1.18797 -1.03562 0
M  V30 547 C 48.5482 1.87978 -0.731235 0
M  V30 548 C 48.8612 1.80911 0.743671 0
M  V30 549 O 50.0672 2.45407 1.16137 0
M  V30 550 C 48.5232 3.3721 -1.25768 0
M  V30 551 C 48.1312 3.52818 -2.76085 0
M  V30 552 C 49.8752 4.11825 -1.0296 0
M  V30 553 C 47.7822 4.9598 -3.22114 0
M  V30 554 H 46.7122 0.704063 -0.269835 0
M  V30 555 H 49.3632 1.34266 -1.25079 0
M  V30 556 H 47.7452 3.90359 -0.666011 0
M  V30 557 H 48.9192 3.09965 -3.40966 0
M  V30 558 H 47.2342 2.91602 -2.97249 0
M  V30 559 H 49.8312 5.17411 -1.34869 0
M  V30 560 H 50.1742 4.16287 0.0333546 0
M  V30 561 H 50.7072 3.64833 -1.58562 0
M  V30 562 H 47.4462 4.96684 -4.27768 0
M  V30 563 H 46.9662 5.39569 -2.61965 0
M  V30 564 H 48.6452 5.6467 -3.15844 0
M  V30 565 N 48.7773 0.814389 1.34928 0
M  V30 566 C 50.0263 0.394871 1.97797 0
M  V30 567 C 50.3393 -1.04555 1.65311 0
M  V30 568 O 51.5453 -1.56856 2.21604 0
M  V30 569 C 50.0013 0.655103 3.53888 0
M  V30 570 C 49.6093 2.10858 3.95276 0
M  V30 571 C 51.3533 0.301329 4.23429 0
M  V30 572 C 49.2603 2.31415 5.44244 0
M  V30 573 H 48.1903 0.143913 0.740139 0
M  V30 574 H 50.8413 0.999544 1.53888 0
M  V30 575 H 49.2233 -0.0196253 3.95995 0
M  V30 576 H 50.3973 2.82176 3.64298 0
M  V30 577 H 48.7123 2.42297 3.38646 0
M  V30 578 H 51.3093 0.432869 5.32945 0
M  V30 579 H 51.6523 -0.75331 4.09428 0
M  V30 580 H 52.1853 0.930288 3.86769 0
M  V30 581 H 48.9243 3.35353 5.63222 0
M  V30 582 H 48.4443 1.6463 5.76764 0
M  V30 583 H 50.1233 2.13352 6.10811 0
M  V30 584 N 50.2554 -1.46986 0.568584 0
M  V30 585 C 51.2184 -2.28624 -0.162366 0
M  V30 586 C 52.2184 -1.37596 -0.832103 0
M  V30 587 O 53.4084 -1.60115 -0.68622 0
M  V30 588 C 50.5404 -3.17596 -1.23878 0
M  V30 589 H 51.7334 -2.94722 0.554899 0
M  V30 590 H 49.2864 -1.52863 0.325976 0
M  V30 591 H 50.0214 -2.56214 -1.98808 0
M  V30 592 H 49.8064 -3.846 -0.763219 0
M  V30 593 H 51.2964 -3.79078 -1.75185 0
M  V30 594 N 51.7335 -0.305618 -1.54608 0
M  V30 595 C 52.9615 0.304775 -2.04643 0
M  V30 596 C 53.3765 1.47167 -1.18268 0
M  V30 597 O 52.7335 1.81296 -0.209328 0
M  V30 598 C 52.7845 0.756564 -3.53495 0
M  V30 599 O 52.5055 -0.36389 -4.36586 0
M  V30 600 C 54.0065 1.43163 -4.19546 0
M  V30 601 H 51.2265 0.0655481 -0.667791 0
M  V30 602 H 53.7705 -0.446592 -1.99564 0
M  V30 603 H 51.9255 1.45794 -3.58919 0
M  V30 604 H 52.3395 -0.0113121 -5.24499 0
M  V30 605 H 53.8135 1.69886 -5.25207 0
M  V30 606 H 54.2905 2.37318 -3.69563 0
M  V30 607 H 54.8965 0.773307 -4.18211 0
M  V30 608 N 53.2116 1.57565 -0.0334293 0
M  V30 609 C 54.1586 2.10478 0.946981 0
M  V30 610 C 55.1286 1.00787 1.32027 0
M  V30 611 O 56.3136 1.28232 1.41284 0
M  V30 612 C 53.4536 2.63994 2.22263 0
M  V30 613 C 52.5666 3.87709 1.90541 0
M  V30 614 C 51.7016 4.29604 3.12433 0
M  V30 615 C 50.7406 5.46065 2.76549 0
M  V30 616 N 49.8776 5.83096 3.9108 0
M  V30 617 H 54.7176 2.93963 0.488846 0
M  V30 618 H 52.2546 1.45296 0.22969 0
M  V30 619 H 54.2126 2.93114 2.96884 0
M  V30 620 H 52.8426 1.83333 2.65685 0
M  V30 621 H 51.8946 3.65291 1.06144 0
M  V30 622 H 53.2066 4.72403 1.60116 0
M  V30 623 H 52.3606 4.60182 3.9537 0
M  V30 624 H 51.0996 3.43685 3.46023 0
M  V30 625 H 50.1046 5.15176 1.92026 0
M  V30 626 H 51.3296 6.33685 2.44171 0
M  V30 627 H 49.2756 5.00132 4.24504 0
M  V30 628 H 49.1926 6.6244 3.64293 0
M  V30 629 H 50.4606 6.18282 4.74708 0
M  V30 630 N 54.6897 -0.239769 1.55765 0
M  V30 631 C 55.6377 -1.31668 1.91745 0
M  V30 632 C 56.6317 -1.49462 0.797338 0
M  V30 633 O 57.8377 -1.50852 0.982021 0
M  V30 634 H 54.2127 -0.441048 0.609082 0
M  V30 635 H 56.1837 -0.985923 2.81642 0
M  V30 636 C 54.9327 -2.66368 2.2348 0
M  V30 637 H 54.2557 -2.53478 3.09175 0
M  V30 638 H 55.6957 -3.40578 2.52553 0
M  V30 639 C 54.1547 -3.20002 1.05359 0
M  V30 640 O 54.6847 -4.00538 0.305261 0
M  V30 641 N 52.8907 -2.78126 0.842292 0
M  V30 642 H 52.4377 -2.12742 1.45253 0
M  V30 643 H 52.3957 -3.14354 0.053652 0
M  V30 644 N 56.1678 -1.49265 -0.50573 0
M  V30 645 C 57.4158 -1.582 -1.25766 0
M  V30 646 C 57.7368 -0.268482 -1.93143 0
M  V30 647 O 57.0068 0.711833 -1.8251 0
M  V30 648 H 55.5868 -0.582873 -0.467191 0
M  V30 649 H 58.2488 -1.85865 -0.586525 0
M  V30 650 H 57.3448 -2.37563 -2.02412 0
M  V30 651 N 57.6459 0.756429 -1.3826 0
M  V30 652 C 58.5929 1.87011 -1.35261 0
M  V30 653 C 59.5629 1.64695 -0.215616 0
M  V30 654 O 60.7479 1.864 -0.407399 0
M  V30 655 C 57.8879 3.24275 -1.18068 0
M  V30 656 C 57.0009 3.58442 -2.41129 0
M  V30 657 C 56.1359 4.84994 -2.16689 0
M  V30 658 C 55.1749 5.11939 -3.35537 0
M  V30 659 N 54.3119 6.29685 -3.10549 0
M  V30 660 H 59.1519 1.8891 -2.30472 0
M  V30 661 H 56.6889 0.923373 -1.14509 0
M  V30 662 H 58.6469 4.03479 -1.06116 0
M  V30 663 H 57.2769 3.21711 -0.264973 0
M  V30 664 H 56.3289 2.74103 -2.63764 0
M  V30 665 H 57.6409 3.74283 -3.29717 0
M  V30 666 H 56.7949 5.72135 -2.01857 0
M  V30 667 H 55.5339 4.71286 -1.25462 0
M  V30 668 H 54.5389 4.23268 -3.50891 0
M  V30 669 H 55.7639 5.27546 -4.27635 0
M  V30 670 H 53.7099 6.17306 -2.21967 0
M  V30 671 H 53.6269 6.46014 -3.92686 0
M  V30 672 H 54.8949 7.19722 -2.99367 0
M  V30 673 N 59.124 1.23083 0.984299 0
M  V30 674 C 60.37 1.06214 1.72761 0
M  V30 675 C 60.703 -0.400584 1.90024 0
M  V30 676 O 59.978 -1.29672 1.44967 0
M  V30 677 C 60.261 1.78375 3.12817 0
M  V30 678 C 60.114 3.32296 3.03149 0
M  V30 679 C 61.433 1.54309 4.12161 0
M  V30 680 H 58.552 0.387251 0.627061 0
M  V30 681 H 61.194 1.51536 1.14616 0
M  V30 682 H 59.344 1.39848 3.62457 0
M  V30 683 H 61.016 3.8032 2.61064 0
M  V30 684 H 59.259 3.6153 2.39747 0
M  V30 685 H 59.93 3.77972 4.02295 0
M  V30 686 H 62.406 1.87791 3.71314 0
M  V30 687 H 61.282 2.07281 5.08258 0
M  V30 688 H 61.543 0.477572 4.39513 0
M  V30 689 N 60.6021 -1.18246 1.0419 0
M  V30 690 C 62.0181 -1.40269 0.761366 0
M  V30 691 C 62.2181 -1.90777 -0.648578 0
M  V30 692 O 61.2741 -2.0929 -1.41258 0
M  V30 693 C 62.5871 -2.40237 1.8085 0
M  V30 694 C 64.1351 -2.53961 1.82955 0
M  V30 695 C 64.6101 -3.57194 2.86664 0
M  V30 696 N 66.1011 -3.64702 2.85563 0
M  V30 697 C 66.8361 -4.44309 3.6246 0
M  V30 698 N 66.3321 -5.27514 4.49111 0
M  V30 699 N 68.1251 -4.39084 3.50944 0
M  V30 700 H 60.2761 -0.837882 1.95175 0
M  V30 701 H 62.5391 -0.430608 0.84456 0
M  V30 702 H 62.2451 -2.10176 2.81991 0
M  V30 703 H 62.1191 -3.39601 1.64168 0
M  V30 704 H 64.5061 -2.83338 0.824855 0
M  V30 705 H 64.5871 -1.54706 2.03715 0
M  V30 706 H 64.2311 -3.28558 3.87314 0
M  V30 707 H 64.1611 -4.5613 2.6316 0
M  V30 708 H 66.6521 -3.05289 2.22727 0
M  V30 709 H 66.9651 -5.85411 5.04493 0
M  V30 710 H 65.3101 -5.2693 4.53178 0
M  V30 711 H 68.5011 -3.7313 2.82651 0
M  V30 712 H 68.6741 -5.00883 4.11121 0
M  V30 713 N 62.0802 -0.821533 -1.34494 0
M  V30 714 C 63.3282 -0.408139 -1.97936 0
M  V30 715 C 63.6492 1.03193 -1.65457 0
M  V30 716 O 62.9192 1.71622 -0.944595 0
M  V30 717 H 61.4992 -0.147928 -0.732206 0
M  V30 718 H 64.1612 -1.05067 -1.64155 0
M  V30 719 H 63.2572 -0.52601 -3.07635 0
M  V30 720 N 63.5583 1.46682 -0.576371 0
M  V30 721 C 64.4913 2.27243 0.208731 0
M  V30 722 C 65.4693 1.35238 0.902746 0
M  V30 723 O 66.6533 1.64641 0.917904 0
M  V30 724 C 63.7803 3.12802 1.29896 0
M  V30 725 C 62.8263 4.20524 0.711457 0
M  V30 726 S 63.6593 5.33548 -0.456781 0
M  V30 727 C 64.8153 6.22673 0.634798 0
M  V30 728 H 65.0483 2.93484 -0.474838 0
M  V30 729 H 62.5813 1.50069 -0.363118 0
M  V30 730 H 64.5393 3.62661 1.92321 0
M  V30 731 H 63.2003 2.45887 1.95444 0
M  V30 732 H 62.3933 4.80191 1.53076 0
M  V30 733 H 61.9953 3.73645 0.162999 0
M  V30 734 H 64.2873 6.60181 1.52209 0
M  V30 735 H 65.2303 7.0806 0.0750311 0
M  V30 736 H 65.6383 5.56684 0.936092 0
M  V30 737 N 65.0364 0.313813 1.54444 0
M  V30 738 C 65.9844 -0.572171 2.25453 0
M  V30 739 C 66.9784 -1.12657 1.2651 0
M  V30 740 O 68.1844 -1.07573 1.44319 0
M  V30 741 H 64.5594 -0.203146 0.724041 0
M  V30 742 H 66.5304 0.0491145 2.9836 0
M  V30 743 C 65.2794 -1.72626 3.0182 0
M  V30 744 H 64.6024 -1.30891 3.77767 0
M  V30 745 H 66.0424 -2.32199 3.54767 0
M  V30 746 C 64.5014 -2.63806 2.09542 0
M  V30 747 O 65.0314 -3.65256 1.67185 0
M  V30 748 N 63.2374 -2.31824 1.75232 0
M  V30 749 H 62.7844 -1.49368 2.09873 0
M  V30 750 H 62.7424 -2.93095 1.13767 0
M  V30 751 N 66.5145 -1.57545 0.0417849 0
M  V30 752 C 67.4445 -2.14009 -0.933929 0
M  V30 753 C 68.4255 -1.05938 -1.33083 0
M  V30 754 O 69.6105 -1.33833 -1.40721 0
M  V30 755 C 66.7405 -2.67747 -2.21199 0
M  V30 756 C 65.6945 -3.80718 -1.95544 0
M  V30 757 C 65.0205 -4.20935 -3.29724 0
M  V30 758 C 66.3205 -5.06258 -1.28452 0
M  V30 759 H 68.0145 -2.95788 -0.463645 0
M  V30 760 H 65.5605 -1.42285 -0.221573 0
M  V30 761 H 67.5135 -3.05886 -2.89848 0
M  V30 762 H 66.2375 -1.83147 -2.70416 0
M  V30 763 H 64.8965 -3.43037 -1.2931 0
M  V30 764 H 64.5445 -3.33298 -3.76724 0
M  V30 765 H 64.2445 -4.9707 -3.13361 0
M  V30 766 H 65.7685 -4.61666 -3.9962 0
M  V30 767 H 67.1825 -5.41903 -1.8712 0
M  V30 768 H 65.5795 -5.87475 -1.22445 0
M  V30 769 H 66.6495 -4.84207 -0.259219 0
M  V30 770 N 67.9926 0.231505 -1.5589 0
M  V30 771 C 69.2206 0.974505 -1.82513 0
M  V30 772 C 69.6356 1.78344 -0.619591 0
M  V30 773 O 68.9926 1.77792 0.411848 0
M  V30 774 C 69.0436 1.90007 -3.07538 0
M  V30 775 O 68.7646 1.12385 -4.2344 0
M  V30 776 C 70.2656 2.75779 -3.47075 0
M  V30 777 H 67.4856 0.286065 -0.606966 0
M  V30 778 H 70.0296 0.249739 -2.02969 0
M  V30 779 H 68.1846 2.57891 -2.89086 0
M  V30 780 H 68.5986 1.75125 -4.944 0
M  V30 781 H 70.0726 3.36443 -4.37619 0
M  V30 782 H 70.5496 3.47672 -2.68367 0
M  V30 783 H 71.1556 2.13323 -3.67931 0
M  V30 784 N 69.4707 1.49531 0.497807 0
M  V30 785 C 70.7167 1.59415 1.25358 0
M  V30 786 C 71.0497 0.281422 1.9215 0
M  V30 787 O 70.3247 -0.715249 1.80871 0
M  V30 788 C 70.6077 2.75566 2.3181 0
M  V30 789 C 70.4607 4.16642 1.69498 0
M  V30 790 C 71.7797 2.87347 3.33346 0
M  V30 791 H 68.8987 0.580244 0.454408 0
M  V30 792 H 71.5407 1.81827 0.551262 0
M  V30 793 H 69.6907 2.56587 2.91711 0
M  V30 794 H 71.3627 4.47145 1.13399 0
M  V30 795 H 69.6057 4.22141 0.998978 0
M  V30 796 H 70.2767 4.93792 2.46725 0
M  V30 797 H 72.7527 3.04634 2.83438 0
M  V30 798 H 71.6287 3.70289 4.05188 0
M  V30 799 H 71.8897 1.96834 3.95865 0
M  V30 800 N 70.9488 -0.749086 1.3866 0
M  V30 801 C 72.1958 -1.50833 1.35114 0
M  V30 802 C 72.5238 -1.94415 -0.0574049 0
M  V30 803 O 71.7788 -1.66065 -1.03541 0
M  V30 804 C 72.0778 -2.7712 2.25697 0
M  V30 805 C 71.7438 -2.52477 3.73585 0
M  V30 806 C 70.4058 -2.45466 4.13884 0
M  V30 807 C 72.7578 -2.31066 4.67181 0
M  V30 808 C 70.0858 -2.15064 5.45861 0
M  V30 809 C 72.4378 -2.02183 5.9942 0
M  V30 810 C 71.1018 -1.93631 6.38798 0
M  V30 811 H 70.3718 -0.551936 0.494416 0
M  V30 812 H 73.0188 -0.860979 1.71054 0
M  V30 813 H 71.3238 -3.46528 1.82827 0
M  V30 814 H 73.0208 -3.35096 2.20254 0
M  V30 815 H 69.6108 -2.58807 3.41638 0
M  V30 816 H 73.7948 -2.35459 4.3689 0
M  V30 817 H 69.0508 -2.06954 5.75308 0
M  V30 818 H 73.2248 -1.8462 6.71482 0
M  V30 819 H 70.8518 -1.69839 7.40985 0
M  V30 820 N 72.4269 -1.23603 -0.977757 0
M  V30 821 C 73.6749 -1.06759 -1.71601 0
M  V30 822 C 73.9959 0.395929 -1.90938 0
M  V30 823 O 73.2659 1.28356 -1.47992 0
M  V30 824 H 71.8459 -0.392062 -0.635843 0
M  V30 825 H 74.5079 -1.55362 -1.1768 0
M  V30 826 H 73.6039 -1.55763 -2.70452 0
M  V30 827 N 73.905 1.17692 -1.04816 0
M  V30 828 C 75.153 1.87488 -0.754497 0
M  V30 829 C 75.474 1.81205 0.720407 0
M  V30 830 O 74.744 1.23544 1.52032 0
M  V30 831 H 73.324 0.694101 -0.276102 0
M  V30 832 H 75.986 1.42793 -1.32651 0
M  V30 833 H 75.082 2.93328 -1.06606 0
M  V30 834 N 75.3831 0.828654 1.34056 0
M  V30 835 C 76.6111 0.43262 2.02326 0
M  V30 836 C 77.0261 -0.963147 1.62385 0
M  V30 837 O 76.3831 -1.62425 0.832121 0
M  V30 838 C 76.4341 0.53182 3.57567 0
M  V30 839 O 76.1551 1.87258 3.96063 0
M  V30 840 C 77.6561 0.131422 4.43105 0
M  V30 841 H 74.8761 0.172923 0.648335 0
M  V30 842 H 77.4201 1.1184 1.71208 0
M  V30 843 H 75.5751 -0.105938 3.87255 0
M  V30 844 H 75.9891 1.85087 4.90758 0
M  V30 845 H 77.4631 0.251904 5.51425 0
M  V30 846 H 77.9401 -0.925645 4.29335 0
M  V30 847 H 78.5461 0.743207 4.18756 0
M  V30 848 N 76.8612 -1.46375 0.584142 0
M  V30 849 C 78.1072 -2.02678 0.0703716 0
M  V30 850 C 78.4402 -1.4545 -1.28678 0
M  V30 851 O 77.7152 -0.62014 -1.84349 0
M  V30 852 C 77.9982 -3.60099 0.00614674 0
M  V30 853 C 77.8512 -4.27709 1.3923 0
M  V30 854 C 79.1702 -4.34598 -0.693742 0
M  V30 855 H 76.2892 -0.736504 0.027047 0
M  V30 856 H 78.9312 -1.74501 0.751615 0
M  V30 857 H 77.0812 -3.84236 -0.574009 0
M  V30 858 H 78.7532 -4.14832 2.01773 0
M  V30 859 H 76.9962 -3.87016 1.95962 0
M  V30 860 H 77.6672 -5.36478 1.29982 0
M  V30 861 H 80.1432 -4.15615 -0.200869 0
M  V30 862 H 79.0192 -5.44318 -0.707714 0
M  V30 863 H 79.2802 -4.05759 -1.75533 0
M  V30 864 N 78.3393 -0.321999 -1.54275 0
M  V30 865 C 79.5673 0.283052 -2.04955 0
M  V30 866 C 79.9823 1.45904 -1.19823 0
M  V30 867 O 79.3393 1.81063 -0.228545 0
M  V30 868 C 79.3903 0.719028 -3.54277 0
M  V30 869 O 79.1113 -0.410175 -4.36176 0
M  V30 870 C 80.6123 1.38705 -4.21041 0
M  V30 871 H 77.8323 0.0584616 -0.668448 0
M  V30 872 H 80.3763 -0.467734 -1.99079 0
M  V30 873 H 78.5313 1.41979 -3.60445 0
M  V30 874 H 78.9453 -0.0669416 -5.24457 0
M  V30 875 H 80.4193 1.64306 -5.2698 0
M  V30 876 H 80.8963 2.33385 -3.72059 0
M  V30 877 H 81.5023 0.728906 -4.19007 0
M  V30 878 N 79.8174 1.5752 -0.0501392 0
M  V30 879 C 80.7804 2.1037 0.909786 0
M  V30 880 C 81.7804 1.02308 1.24056 0
M  V30 881 O 82.9704 1.28385 1.17741 0
M  V30 882 C 80.1024 2.58708 2.21998 0
M  V30 883 H 81.2954 2.96479 0.451665 0
M  V30 884 H 78.8484 1.55038 0.198248 0
M  V30 885 H 79.5834 1.75989 2.72394 0
M  V30 886 H 79.3684 3.37675 1.99295 0
M  V30 887 H 80.8584 2.99747 2.9076 0
M  V30 888 N 81.2955 -0.223234 1.56011 0
M  V30 889 C 82.5425 -0.947875 1.78946 0
M  V30 890 C 82.8705 -1.844 0.618608 0
M  V30 891 O 82.1255 -1.91629 -0.397093 0
M  V30 892 C 82.4245 -1.81948 3.0762 0
M  V30 893 C 82.0905 -1.07672 4.37856 0
M  V30 894 C 80.7525 -0.871544 4.73242 0
M  V30 895 C 83.1045 -0.552081 5.18268 0
M  V30 896 C 80.4325 -0.129791 5.86556 0
M  V30 897 C 82.7845 0.17632 6.32354 0
M  V30 898 C 81.4485 0.39277 6.66343 0
M  V30 899 H 80.7185 -0.346852 0.654809 0
M  V30 900 H 83.3655 -0.216171 1.90276 0
M  V30 901 H 81.6705 -2.61899 2.91404 0
M  V30 902 H 83.3675 -2.38227 3.22566 0
M  V30 903 H 79.9575 -1.24662 4.1007 0
M  V30 904 H 84.1415 -0.698076 4.91366 0
M  V30 905 H 79.3975 0.048153 6.11381 0
M  V30 906 H 83.5715 0.590367 6.93893 0
M  V30 907 H 81.1985 0.969466 7.53993 0
M  V30 908 N 82.7736 -1.49793 -0.48987 0
M  V30 909 C 83.7036 -1.70201 -1.59856 0
M  V30 910 C 84.6846 -0.55076 -1.60937 0
M  V30 911 O 85.8696 -0.787841 -1.77501 0
M  V30 912 C 82.9996 -1.77882 -2.98287 0
M  V30 913 C 81.9536 -2.92907 -3.12073 0
M  V30 914 C 81.2796 -2.85712 -4.51965 0
M  V30 915 C 82.5796 -4.3369 -2.91051 0
M  V30 916 H 84.2736 -2.63025 -1.43032 0
M  V30 917 H 81.8196 -1.26574 -0.686664 0
M  V30 918 H 83.7726 -1.90744 -3.75759 0
M  V30 919 H 82.4966 -0.816653 -3.16225 0
M  V30 920 H 81.1556 -2.79665 -2.37029 0
M  V30 921 H 80.8036 -1.8738 -4.66795 0
M  V30 922 H 80.5036 -3.62921 -4.62128 0
M  V30 923 H 82.0276 -3.00598 -5.31482 0
M  V30 924 H 83.4416 -4.47555 -3.58284 0
M  V30 925 H 81.8386 -5.12205 -3.12675 0
M  V30 926 H 82.9086 -4.47362 -1.87071 0
M  V30 927 N 84.2517 0.741722 -1.39055 0
M  V30 928 C 85.4997 1.49818 -1.35643 0
M  V30 929 C 85.8207 1.94938 0.0491642 0
M  V30 930 O 85.0907 1.68505 0.999141 0
M  V30 931 H 83.6707 0.555755 -0.499144 0
M  V30 932 H 86.3327 0.880957 -1.73854 0
M  V30 933 H 85.4287 2.38348 -2.01486 0
M  V30 934 N 85.7298 1.2412 0.971189 0
M  V30 935 C 86.9788 1.07284 1.70801 0
M  V30 936 C 87.2918 -0.388902 1.91695 0
M  V30 937 O 88.4978 -0.677379 2.62914 0
M  V30 938 C 86.9538 1.87145 3.07416 0
M  V30 939 C 86.5618 3.37707 2.94377 0
M  V30 940 C 88.3058 1.78828 3.84995 0
M  V30 941 C 86.2128 4.09925 4.26281 0
M  V30 942 H 85.1428 0.397854 0.64049 0
M  V30 943 H 87.7938 1.4817 1.0825 0
M  V30 944 H 86.1758 1.39071 3.70777 0
M  V30 945 H 87.3498 3.93335 2.4005 0
M  V30 946 H 85.6648 3.46938 2.30267 0
M  V30 947 H 88.2618 2.30089 4.82662 0
M  V30 948 H 88.6048 0.75284 4.09436 0
M  V30 949 H 89.1378 2.24563 3.28354 0
M  V30 950 H 85.8768 5.13813 4.07033 0
M  V30 951 H 85.3968 3.59083 4.80437 0
M  V30 952 H 87.0758 4.1673 4.94919 0
M  V30 953 N 87.2079 -1.17134 1.05439 0
M  V30 954 C 88.6189 -1.69084 0.791676 0
M  V30 955 C 88.9699 -1.83822 -0.685839 0
M  V30 956 O 88.0949 -1.52757 -1.53278 0
M  V30 957 C 88.6899 -3.07119 1.4305 0
M  V30 958 C 87.2489 -3.56225 1.21577 0
M  V30 959 C 86.3959 -2.32421 1.51247 0
M  V30 960 H 89.3469 -1.01617 1.219 0
M  V30 961 H 89.3679 -3.71087 0.84112 0
M  V30 962 H 88.8799 -2.9636 2.50584 0
M  V30 963 H 86.9809 -3.72257 0.159787 0
M  V30 964 H 87.0939 -4.38837 1.92246 0
M  V30 965 H 85.4579 -2.3701 0.932653 0
M  V30 966 H 86.2409 -2.24268 2.5992 0
M  V30 967 N 88.686 -0.835752 -1.33615 0
M  V30 968 C 89.916 -0.442701 -2.01801 0
M  V30 969 C 90.324 0.959807 -1.63047 0
M  V30 970 O 89.667 1.63468 -0.838088 0
M  V30 971 C 89.729 -0.480125 -3.56279 0
M  V30 972 C 89.393 -1.8382 -4.18401 0
M  V30 973 C 90.39 -2.80097 -4.37998 0
M  V30 974 C 88.075 -2.13019 -4.54894 0
M  V30 975 C 90.069 -4.03736 -4.9323 0
M  V30 976 C 87.756 -3.36916 -5.09834 0
M  V30 977 C 88.754 -4.32091 -5.28948 0
M  V30 978 O 88.442 -5.53797 -5.82721 0
M  V30 979 H 88.174 -0.17441 -0.653114 0
M  V30 980 H 90.728 -1.129 -1.71589 0
M  V30 981 H 88.958 0.262931 -3.85805 0
M  V30 982 H 90.647 -0.105335 -4.05763 0
M  V30 983 H 91.413 -2.58838 -4.10156 0
M  V30 984 H 87.292 -1.39733 -4.39313 0
M  V30 985 H 90.836 -4.78034 -5.08064 0
M  V30 986 H 86.733 -3.58033 -5.37106 0
M  V30 987 H 87.501 -5.55494 -6.0114 0
M  V30 988 N 90.1641 1.46063 -0.591896 0
M  V30 989 C 91.1271 2.28854 0.125973 0
M  V30 990 C 92.1271 1.38903 0.810107 0
M  V30 991 O 93.3171 1.61186 0.66066 0
M  V30 992 C 90.4491 3.19526 1.1881 0
M  V30 993 H 91.6421 2.93802 -0.601717 0
M  V30 994 H 89.1951 1.52325 -0.350254 0
M  V30 995 H 89.9301 2.59345 1.94707 0
M  V30 996 H 89.7151 3.85766 0.701936 0
M  V30 997 H 91.2051 3.81817 1.69132 0
M  V30 998 N 91.6422 0.330177 1.54103 0
M  V30 999 C 92.5742 -0.566902 2.22079 0
M  V30 1000 C 93.5872 -1.07462 1.22294 0
M  V30 1001 O 94.7762 -0.987065 1.48726 0
M  V30 1002 C 91.8762 -1.79138 2.87685 0
M  V30 1003 C 91.0492 -1.42123 4.13666 0
M  V30 1004 C 90.1082 -2.50394 4.62806 0
M  V30 1005 O 89.1342 -2.14261 5.27334 0
M  V30 1006 N 90.3362 -3.81433 4.37595 0
M  V30 1007 H 93.1012 0.0151844 2.99696 0
M  V30 1008 H 90.6622 0.153681 1.61169 0
M  V30 1009 H 92.6542 -2.50975 3.1748 0
M  V30 1010 H 91.2242 -2.28115 2.13734 0
M  V30 1011 H 90.4442 -0.534201 3.90564 0
M  V30 1012 H 91.7322 -1.14971 4.9564 0
M  V30 1013 H 91.1302 -4.13584 3.8596 0
M  V30 1014 H 89.6872 -4.4948 4.72029 0
M  V30 1015 N 93.1203 -1.57491 0.0584922 0
M  V30 1016 C 94.5313 -1.80526 -0.476138 0
M  V30 1017 C 94.8823 -0.971334 -1.70469 0
M  V30 1018 O 94.0073 -0.190012 -2.15564 0
M  V30 1019 C 94.6023 -3.27424 -0.870587 0
M  V30 1020 C 93.1613 -3.51351 -1.35015 0
M  V30 1021 C 92.3083 -2.75343 -0.32887 0
M  V30 1022 H 95.2593 -1.56133 0.284312 0
M  V30 1023 H 95.2803 -3.38745 -1.73299 0
M  V30 1024 H 94.7923 -3.88093 0.0237627 0
M  V30 1025 H 92.8933 -2.95971 -2.26345 0
M  V30 1026 H 93.0063 -4.60059 -1.33726 0
M  V30 1027 H 91.3703 -2.417 -0.803321 0
M  V30 1028 H 92.1533 -3.38743 0.557521 0
M  V30 1029 N 94.5984 0.214957 -1.56127 0
M  V30 1030 C 96.0094 0.781386 -1.69562 0
M  V30 1031 C 96.3604 1.84707 -0.66165 0
M  V30 1032 O 95.4854 2.156 0.185927 0
M  V30 1033 C 96.0804 1.42411 -3.07416 0
M  V30 1034 C 94.6394 1.93786 -3.22683 0
M  V30 1035 C 93.7864 0.800438 -2.65496 0
M  V30 1036 H 96.7374 -0.00980633 -1.58697 0
M  V30 1037 H 96.7584 2.29309 -3.0364 0
M  V30 1038 H 96.2704 0.64826 -3.82648 0
M  V30 1039 H 94.3714 2.74152 -2.52332 0
M  V30 1040 H 94.4844 2.1133 -4.29973 0
M  V30 1041 H 92.8484 1.2095 -2.2415 0
M  V30 1042 H 93.6314 0.0371471 -3.4328 0
M  V30 1043 N 96.0765 1.50051 0.48192 0
M  V30 1044 C 97.0065 1.71046 1.58951 0
M  V30 1045 C 97.9875 0.559288 1.60642 0
M  V30 1046 O 99.1725 0.797243 1.77081 0
M  V30 1047 C 96.3025 1.79462 2.97339 0
M  V30 1048 C 95.2565 2.94558 3.10515 0
M  V30 1049 C 94.5825 2.88105 4.50444 0
M  V30 1050 C 95.8825 4.35227 2.88747 0
M  V30 1051 H 97.5765 2.6378 1.41635 0
M  V30 1052 H 95.1225 1.26936 0.679942 0
M  V30 1053 H 97.0755 1.92734 3.74742 0
M  V30 1054 H 95.7995 0.833412 3.15788 0
M  V30 1055 H 94.4585 2.80918 2.35543 0
M  V30 1056 H 94.1065 1.89853 4.65795 0
M  V30 1057 H 93.8065 3.65366 4.60197 0
M  V30 1058 H 95.3305 3.03412 5.29881 0
M  V30 1059 H 96.7445 4.49449 3.55905 0
M  V30 1060 H 95.1415 5.13856 3.09955 0
M  V30 1061 H 96.2115 4.48347 1.84696 0
M  V30 1062 N 97.5546 -0.734337 1.39446 0
M  V30 1063 C 98.8026 -1.49096 1.36436 0
M  V30 1064 C 99.1236 -1.94961 -0.0388255 0
M  V30 1065 O 98.3936 -1.69033 -0.990191 0
M  V30 1066 H 96.9736 -0.5531 0.502085 0
M  V30 1067 H 99.6356 -0.871725 1.74319 0
M  V30 1068 H 98.7316 -2.37276 2.02747 0
M  V30 1069 N 99.0327 -1.24633 -0.964593 0
M  V30 1070 C 100.449 -1.01239 -1.2338 0
M  V30 1071 C 100.649 0.2769 -1.99588 0
M  V30 1072 O 99.7047 0.992241 -2.32187 0
M  V30 1073 C 101.018 -2.22937 -2.01791 0
M  V30 1074 C 102.566 -2.27594 -2.14872 0
M  V30 1075 C 103.041 -3.48921 -2.96678 0
M  V30 1076 N 104.532 -3.49257 -3.04259 0
M  V30 1077 C 105.267 -4.39795 -3.67924 0
M  V30 1078 N 104.763 -5.40591 -4.33281 0
M  V30 1079 N 106.556 -4.275 -3.64966 0
M  V30 1080 H 98.7067 -2.0748 -0.454502 0
M  V30 1081 H 100.97 -0.910647 -0.26349 0
M  V30 1082 H 100.676 -3.16587 -1.53184 0
M  V30 1083 H 100.55 -2.25306 -3.02518 0
M  V30 1084 H 102.937 -1.34473 -2.6268 0
M  V30 1085 H 103.018 -2.2925 -1.13482 0
M  V30 1086 H 102.662 -4.42359 -2.49562 0
M  V30 1087 H 102.592 -3.4451 -3.98272 0
M  V30 1088 H 105.083 -2.76337 -2.57771 0
M  V30 1089 H 105.396 -6.05904 -4.79687 0
M  V30 1090 H 103.741 -5.44475 -4.3194 0
M  V30 1091 H 106.932 -3.47987 -3.13086 0
M  V30 1092 H 107.105 -4.98258 -4.14298 0
M  V30 1093 N 100.511 1.16574 -1.06058 0
M  V30 1094 C 101.441 2.23057 -0.690488 0
M  V30 1095 C 102.422 1.67141 0.315901 0
M  V30 1096 O 103.607 1.93253 0.191556 0
M  V30 1097 C 100.737 3.47222 -0.073625 0
M  V30 1098 C 99.6908 4.16016 -1.00573 0
M  V30 1099 C 99.0168 5.34104 -0.252289 0
M  V30 1100 C 100.317 4.67264 -2.33371 0
M  V30 1101 H 102.011 2.54271 -1.58072 0
M  V30 1102 H 99.5568 1.22218 -0.76149 0
M  V30 1103 H 101.51 4.20939 0.19714 0
M  V30 1104 H 100.234 3.15302 0.85161 0
M  V30 1105 H 98.8928 3.44223 -1.2612 0
M  V30 1106 H 98.5408 4.98437 0.675988 0
M  V30 1107 H 98.2408 5.81072 -0.873455 0
M  V30 1108 H 99.7648 6.10599 0.0109857 0
M  V30 1109 H 101.179 5.32573 -2.12223 0
M  V30 1110 H 99.5758 5.24843 -2.90963 0
M  V30 1111 H 100.646 3.83602 -2.96611 0
M  V30 1112 N 101.989 0.842826 1.3317 0
M  V30 1113 C 103.405 0.531128 1.50503 0
M  V30 1114 C 103.605 -0.940734 1.78192 0
M  V30 1115 O 102.661 -1.72436 1.84451 0
M  V30 1116 C 103.974 1.40789 2.65705 0
M  V30 1117 C 105.522 1.40708 2.79589 0
M  V30 1118 C 105.997 2.26878 3.97857 0
M  V30 1119 N 107.488 2.24609 4.05099 0
M  V30 1120 C 108.223 2.88019 4.95815 0
M  V30 1121 N 107.719 3.60496 5.9162 0
M  V30 1122 N 109.512 2.77469 4.88843 0
M  V30 1123 H 101.663 1.79557 1.1346 0
M  V30 1124 H 103.926 0.766267 0.558156 0
M  V30 1125 H 103.632 2.454 2.51936 0
M  V30 1126 H 103.506 1.08677 3.61205 0
M  V30 1127 H 105.893 0.368668 2.92788 0
M  V30 1128 H 105.974 1.76829 1.84838 0
M  V30 1129 H 105.618 3.3078 3.85418 0
M  V30 1130 H 105.548 1.88096 4.91861 0
M  V30 1131 H 108.039 1.71906 3.36536 0
M  V30 1132 H 108.352 4.06076 6.57512 0
M  V30 1133 H 106.697 3.64604 5.91683 0
M  V30 1134 H 109.888 2.20406 4.12963 0
M  V30 1135 H 110.061 3.2717 5.59342 0
M  V30 1136 N 103.467 -1.45747 0.599634 0
M  V30 1137 C 104.714 -2.02292 0.0917284 0
M  V30 1138 C 105.042 -1.46906 -1.27472 0
M  V30 1139 O 104.297 -0.630652 -1.8526 0
M  V30 1140 C 104.596 -3.57399 -0.00602758 0
M  V30 1141 C 104.262 -4.31902 1.29503 0
M  V30 1142 C 102.924 -4.51974 1.65144 0
M  V30 1143 C 105.276 -4.74551 2.15525 0
M  V30 1144 C 102.604 -5.11949 2.86574 0
M  V30 1145 C 104.956 -5.35868 3.36196 0
M  V30 1146 C 103.62 -5.54165 3.72099 0
M  V30 1147 H 102.89 -0.740239 0.0335658 0
M  V30 1148 H 105.537 -1.7491 0.779661 0
M  V30 1149 H 103.842 -3.84014 -0.777183 0
M  V30 1150 H 105.539 -3.98846 -0.415038 0
M  V30 1151 H 102.129 -4.16588 1.00761 0
M  V30 1152 H 106.313 -4.58784 1.8929 0
M  V30 1153 H 101.569 -5.24305 3.14507 0
M  V30 1154 H 105.743 -5.6787 4.03109 0
M  V30 1155 H 103.37 -6.00406 4.6628 0
M  V30 1156 N 104.945 -0.338344 -1.53925 0
M  V30 1157 C 105.892 0.520845 -2.24846 0
M  V30 1158 C 106.862 1.09976 -1.24477 0
M  V30 1159 O 108.047 1.13735 -1.53196 0
M  V30 1160 C 105.187 1.6685 -3.02084 0
M  V30 1161 C 104.3 1.11739 -4.17299 0
M  V30 1162 C 103.435 2.23193 -4.82036 0
M  V30 1163 C 102.474 1.65407 -5.89328 0
M  V30 1164 N 101.611 2.70582 -6.47866 0
M  V30 1165 H 106.451 -0.0904881 -2.97863 0
M  V30 1166 H 103.988 -0.0564282 -1.46992 0
M  V30 1167 H 105.946 2.34407 -3.45122 0
M  V30 1168 H 104.576 2.2509 -2.31375 0
M  V30 1169 H 103.628 0.332919 -3.7894 0
M  V30 1170 H 104.94 0.654677 -4.94485 0
M  V30 1171 H 104.094 2.98626 -5.28117 0
M  V30 1172 H 102.833 2.72807 -4.04262 0
M  V30 1173 H 101.838 0.884779 -5.42634 0
M  V30 1174 H 103.063 1.16652 -6.69006 0
M  V30 1175 H 101.009 3.1946 -5.72959 0
M  V30 1176 H 100.926 2.28917 -7.20509 0
M  V30 1177 H 102.194 3.45799 -6.98601 0
M  V30 1178 N 106.423 1.57458 -0.0668435 0
M  V30 1179 C 107.37 2.12439 0.902122 0
M  V30 1180 C 108.34 1.03565 1.2986 0
M  V30 1181 O 109.525 1.312 1.38532 0
M  V30 1182 C 106.665 2.6865 2.16614 0
M  V30 1183 C 105.778 3.91663 1.82274 0
M  V30 1184 C 104.913 4.36134 3.0325 0
M  V30 1185 C 103.952 5.51808 2.64904 0
M  V30 1186 N 103.089 5.9126 3.78624 0
M  V30 1187 H 107.929 2.94934 0.426382 0
M  V30 1188 H 105.466 1.4575 0.198819 0
M  V30 1189 H 107.424 2.99346 2.90599 0
M  V30 1190 H 106.054 1.88928 2.61737 0
M  V30 1191 H 105.106 3.6746 0.983719 0
M  V30 1192 H 106.418 4.75693 1.50059 0
M  V30 1193 H 105.572 4.68465 3.85519 0
M  V30 1194 H 104.311 3.50948 3.38655 0
M  V30 1195 H 103.316 5.19133 1.81055 0
M  V30 1196 H 104.541 6.38722 2.30675 0
M  V30 1197 H 102.487 5.09024 4.138 0
M  V30 1198 H 102.404 6.70018 3.5016 0
M  V30 1199 H 103.672 6.28212 4.61486 0
M  V30 1200 N 107.901 -0.206675 1.56239 0
M  V30 1201 C 109.312 -0.772383 1.69974 0
M  V30 1202 C 109.663 -1.84353 0.671436 0
M  V30 1203 O 108.788 -2.15695 -0.174491 0
M  V30 1204 C 109.383 -1.40779 3.08167 0
M  V30 1205 C 107.942 -1.92072 3.23706 0
M  V30 1206 C 107.089 -0.786347 2.65917 0
M  V30 1207 H 110.04 0.0182223 1.5869 0
M  V30 1208 H 110.061 -2.27696 3.04852 0
M  V30 1209 H 109.573 -0.627958 3.82986 0
M  V30 1210 H 107.674 -2.7281 2.53782 0
M  V30 1211 H 107.787 -2.09046 4.31087 0
M  V30 1212 H 106.151 -1.1976 2.24788 0
M  V30 1213 H 106.934 -0.0189416 3.43295 0
M  V30 1214 N 109.379 -1.50304 -0.473955 0
M  V30 1215 C 110.311 -1.65109 -1.58971 0
M  V30 1216 C 111.324 -0.532676 -1.53839 0
M  V30 1217 O 112.513 -0.805751 -1.59279 0
M  V30 1218 C 109.613 -1.61684 -2.97845 0
M  V30 1219 C 108.786 -2.8951 -3.27876 0
M  V30 1220 C 107.845 -2.78768 -4.4629 0
M  V30 1221 O 106.871 -3.52722 -4.46739 0
M  V30 1222 N 108.073 -1.9213 -5.47783 0
M  V30 1223 H 110.838 -2.61347 -1.46689 0
M  V30 1224 H 108.399 -1.47732 -0.662324 0
M  V30 1225 H 110.391 -1.52114 -3.75024 0
M  V30 1226 H 108.961 -0.731925 -3.03911 0
M  V30 1227 H 108.181 -3.13228 -2.39336 0
M  V30 1228 H 109.469 -3.74199 -3.4475 0
M  V30 1229 H 108.867 -1.31353 -5.50239 0
M  V30 1230 H 107.424 -1.88466 -6.23958 0
M  V30 1231 N 110.857 0.726932 -1.39834 0
M  V30 1232 C 112.082 1.52121 -1.40976 0
M  V30 1233 C 112.507 1.88098 -0.00826029 0
M  V30 1234 O 111.865 1.52479 0.980807 0
M  V30 1235 C 111.913 2.78021 -2.29644 0
M  V30 1236 O 111.017 3.74272 -1.73188 0
M  V30 1237 H 110.358 0.45908 -0.479731 0
M  V30 1238 H 112.888 0.896207 -1.83927 0
M  V30 1239 H 112.898 3.26671 -2.44438 0
M  V30 1240 H 111.573 2.51169 -3.31492 0
M  V30 1241 H 110.15 3.33073 -1.6768 0
M  V30 1242 N 112.336 1.25143 0.95797 0
M  V30 1243 C 113.266 1.07711 2.07173 0
M  V30 1244 C 114.247 -0.0128462 1.70095 0
M  V30 1245 O 115.432 0.156061 1.93572 0
M  V30 1246 C 112.562 0.691503 3.40346 0
M  V30 1247 C 111.516 1.73132 3.9142 0
M  V30 1248 C 110.842 1.20049 5.21049 0
M  V30 1249 C 112.142 3.1294 4.1817 0
M  V30 1250 H 113.836 2.00873 2.22014 0
M  V30 1251 H 111.382 0.967191 1.06684 0
M  V30 1252 H 113.335 0.556505 4.17709 0
M  V30 1253 H 112.059 -0.275819 3.25433 0
M  V30 1254 H 110.718 1.8547 3.16222 0
M  V30 1255 H 110.366 0.223499 5.02503 0
M  V30 1256 H 110.066 1.89545 5.56189 0
M  V30 1257 H 111.59 1.07782 6.01012 0
M  V30 1258 H 113.004 3.03775 4.86203 0
M  V30 1259 H 111.401 3.79875 4.64559 0
M  V30 1260 H 112.471 3.6025 3.24573 0
M  V30 1261 N 113.814 -1.1601 1.06675 0
M  V30 1262 C 115.042 -1.90527 0.806667 0
M  V30 1263 C 115.457 -1.77643 -0.639396 0
M  V30 1264 O 114.814 -1.12369 -1.43803 0
M  V30 1265 C 114.865 -3.41106 1.19705 0
M  V30 1266 O 114.586 -3.53608 2.58636 0
M  V30 1267 C 116.087 -4.32663 0.965266 0
M  V30 1268 H 113.307 -0.604053 0.292166 0
M  V30 1269 H 115.851 -1.47026 1.4214 0
M  V30 1270 H 114.006 -3.82296 0.626774 0
M  V30 1271 H 114.42 -4.47011 2.74375 0
M  V30 1272 H 115.894 -5.36763 1.288 0
M  V30 1273 H 116.371 -4.39089 -0.0987936 0
M  V30 1274 H 116.977 -3.97206 1.52011 0
M  V30 1275 N 115.292 -0.849877 -1.32721 0
M  V30 1276 C 116.239 -0.289033 -2.28983 0
M  V30 1277 C 117.209 0.601324 -1.54833 0
M  V30 1278 O 118.394 0.537253 -1.8308 0
M  V30 1279 C 115.534 0.520623 -3.4115 0
M  V30 1280 C 114.647 -0.394989 -4.3019 0
M  V30 1281 C 113.782 0.426834 -5.29482 0
M  V30 1282 C 112.821 -0.486476 -6.10164 0
M  V30 1283 N 111.958 0.297879 -7.01468 0
M  V30 1284 H 116.798 -1.11519 -2.76347 0
M  V30 1285 H 114.335 -0.56138 -1.35967 0
M  V30 1286 H 116.293 1.00563 -4.04899 0
M  V30 1287 H 114.923 1.31165 -2.9495 0
M  V30 1288 H 113.975 -0.99836 -3.67065 0
M  V30 1289 H 115.287 -1.09612 -4.86607 0
M  V30 1290 H 114.441 0.975205 -5.98811 0
M  V30 1291 H 113.18 1.16136 -4.73671 0
M  V30 1292 H 112.185 -1.04677 -5.39743 0
M  V30 1293 H 113.41 -1.21953 -6.6806 0
M  V30 1294 H 111.356 1.01558 -6.48091 0
M  V30 1295 H 111.273 -0.344318 -7.55216 0
M  V30 1296 H 112.541 0.828131 -7.75089 0
M  V30 1297 N 116.77 1.45427 -0.607355 0
M  V30 1298 C 118.016 2.03097 -0.111035 0
M  V30 1299 C 118.371 1.46735 1.24445 0
M  V30 1300 O 117.664 0.632478 1.8086 0
M  V30 1301 C 117.858 3.57398 -0.0129263 0
M  V30 1302 C 117.687 4.28726 -1.35735 0
M  V30 1303 C 116.457 4.66659 -1.93798 0
M  V30 1304 C 118.655 4.60699 -2.28607 0
M  V30 1305 N 116.637 5.22845 -3.21723 0
M  V30 1306 C 118.008 5.17716 -3.41131 0
M  V30 1307 C 120.063 4.42638 -2.27982 0
M  V30 1308 C 118.766 5.58576 -4.53194 0
M  V30 1309 C 120.792 4.84531 -3.39093 0
M  V30 1310 C 120.154 5.4164 -4.50339 0
M  V30 1311 H 116.253 0.777476 -0.083994 0
M  V30 1312 H 118.837 1.77249 -0.805655 0
M  V30 1313 H 117.008 3.82907 0.650914 0
M  V30 1314 H 118.74 4.01722 0.490033 0
M  V30 1315 H 115.495 4.50207 -1.47007 0
M  V30 1316 H 115.919 5.55438 -3.87063 0
M  V30 1317 H 120.561 3.97798 -1.43235 0
M  V30 1318 H 118.279 6.02382 -5.38667 0
M  V30 1319 H 121.865 4.72289 -3.39757 0
M  V30 1320 H 120.745 5.73461 -5.34895 0
M  V30 1321 N 118.248 0.346503 1.53744 0
M  V30 1322 C 119.473 -0.253074 2.0585 0
M  V30 1323 C 119.898 -1.43202 1.21962 0
M  V30 1324 O 119.256 -1.79783 0.234073 0
M  V30 1325 C 119.304 -0.643193 3.54817 0
M  V30 1326 O 118.408 -1.74286 3.73762 0
M  V30 1327 H 117.749 -0.0413583 0.662711 0
M  V30 1328 H 120.279 0.501574 1.98357 0
M  V30 1329 H 120.289 -0.919526 3.97503 0
M  V30 1330 H 118.964 0.218966 4.15323 0
M  V30 1331 H 117.541 -1.46356 3.42979 0
M  V30 1332 N 119.726 -1.57421 0.075193 0
M  V30 1333 C 121.003 -1.85029 -0.634329 0
M  V30 1334 C 121.383 -0.968305 -1.87582 0
M  V30 1335 O 120.731 -0.0354749 -2.28472 0
M  V30 1336 C 120.941 -3.35286 -0.968742 0
M  V30 1337 C 122.289 -4.02875 -1.34077 0
M  V30 1338 O 123.313 -3.40051 -1.06037 0
M  V30 1339 O 122.172 -5.13691 -1.86506 0
M  V30 1340 H 119.266 -0.7645 -0.315387 0
M  V30 1341 H 121.812 -1.69366 0.106382 0
M  V30 1342 H 120.584 -3.91203 -0.0871376 0
M  V30 1343 H 120.207 -3.56223 -1.7661 0
M  V30 1344 N 121.204 0.198386 -1.56346 0
M  V30 1345 C 122.453 0.917451 -1.79627 0
M  V30 1346 C 122.766 1.8456 -0.64784 0
M  V30 1347 O 123.972 2.60504 -0.764859 0
M  V30 1348 C 122.428 1.68175 -3.18191 0
M  V30 1349 C 122.036 0.798589 -4.40825 0
M  V30 1350 C 123.78 2.39065 -3.50782 0
M  V30 1351 C 121.687 1.56157 -5.70411 0
M  V30 1352 H 120.617 0.346317 -0.669762 0
M  V30 1353 H 123.268 0.170801 -1.82703 0
M  V30 1354 H 121.65 2.47216 -3.09354 0
M  V30 1355 H 122.824 0.0470665 -4.60776 0
M  V30 1356 H 121.139 0.200686 -4.15916 0
M  V30 1357 H 123.736 2.96692 -4.44835 0
M  V30 1358 H 124.079 3.13091 -2.74371 0
M  V30 1359 H 124.612 1.66993 -3.61052 0
M  V30 1360 H 121.351 0.864142 -6.49779 0
M  V30 1361 H 120.871 2.2871 -5.54483 0
M  V30 1362 H 122.55 2.11622 -6.11412 0
M  V30 1363 N 122.682 1.50554 0.465978 0
M  V30 1364 C 123.928 1.63006 1.21658 0
M  V30 1365 C 124.283 0.328613 1.89573 0
M  V30 1366 O 123.576 -0.673813 1.79361 0
M  V30 1367 C 123.77 2.75152 2.28093 0
M  V30 1368 C 123.599 4.16075 1.7062 0
M  V30 1369 C 122.369 4.82408 1.50368 0
M  V30 1370 C 124.567 5.00145 1.1983 0
M  V30 1371 N 122.549 6.07532 0.881924 0
M  V30 1372 C 123.92 6.16035 0.700083 0
M  V30 1373 C 125.975 4.85882 1.08733 0
M  V30 1374 C 124.678 7.19228 0.101835 0
M  V30 1375 C 126.704 5.89257 0.503016 0
M  V30 1376 C 126.066 7.04398 0.0152005 0
M  V30 1377 H 122.165 0.650596 0.433877 0
M  V30 1378 H 124.749 1.8769 0.517746 0
M  V30 1379 H 122.92 2.52181 2.95397 0
M  V30 1380 H 124.652 2.76935 2.95109 0
M  V30 1381 H 121.407 4.39788 1.75737 0
M  V30 1382 H 121.831 6.7443 0.589312 0
M  V30 1383 H 126.473 3.97144 1.4504 0
M  V30 1384 H 124.191 8.07637 -0.273426 0
M  V30 1385 H 127.777 5.80286 0.419451 0
M  V30 1386 H 126.657 7.83021 -0.429856 0
M  V30 1387 N 124.16 -0.719506 1.40217 0
M  V30 1388 C 125.108 -1.85493 1.40339 0
M  V30 1389 C 126.102 -1.66995 0.284415 0
M  V30 1390 O 127.308 -1.74148 0.455252 0
M  V30 1391 H 123.683 -0.610857 0.438586 0
M  V30 1392 H 125.654 -1.82506 2.36081 0
M  V30 1393 C 124.403 -3.23321 1.27901 0
M  V30 1394 H 123.726 -3.38159 2.1328 0
M  V30 1395 H 125.166 -4.02914 1.32045 0
M  V30 1396 C 123.625 -3.36898 -0.0111355 0
M  V30 1397 O 124.155 -3.89674 -0.975538 0
M  V30 1398 N 122.361 -2.90492 -0.0793393 0
M  V30 1399 H 121.908 -2.47731 0.706183 0
M  V30 1400 H 121.866 -2.99955 -0.942038 0
M  V30 1401 N 125.638 -1.25649 -0.95132 0
M  V30 1402 C 126.601 -1.06399 -2.03007 0
M  V30 1403 C 127.601 -0.0156794 -1.60792 0
M  V30 1404 O 128.791 -0.25817 -1.72276 0
M  V30 1405 C 125.923 -0.616184 -3.35285 0
M  V30 1406 H 127.116 -2.02164 -2.21517 0
M  V30 1407 H 124.669 -1.08103 -1.12887 0
M  V30 1408 H 125.404 0.343917 -3.22471 0
M  V30 1409 H 125.189 -1.37301 -3.67275 0
M  V30 1410 H 126.679 -0.503032 -4.14559 0
M  V30 1411 N 127.117 1.15442 -1.07289 0
M  V30 1412 C 128.345 1.90096 -0.81676 0
M  V30 1413 C 128.76 1.7798 0.629966 0
M  V30 1414 O 128.117 1.1313 1.43206 0
M  V30 1415 C 128.168 3.40466 -1.21512 0
M  V30 1416 O 127.889 3.52232 -2.60508 0
M  V30 1417 C 129.39 4.32145 -0.988198 0
M  V30 1418 H 126.61 0.602495 -0.295366 0
M  V30 1419 H 129.154 1.4627 -1.42918 0
M  V30 1420 H 127.309 3.81958 -0.647039 0
M  V30 1421 H 127.723 4.45549 -2.76742 0
M  V30 1422 H 129.197 5.36072 -1.31645 0
M  V30 1423 H 129.674 4.39135 0.0755063 0
M  V30 1424 H 130.28 3.96395 -1.54115 0
M  V30 1425 N 128.595 0.856903 1.32268 0
M  V30 1426 C 129.542 0.301172 2.28827 0
M  V30 1427 C 130.512 -0.593104 1.5515 0
M  V30 1428 O 131.697 -0.527537 1.83362 0
M  V30 1429 C 128.837 -0.502523 3.41422 0
M  V30 1430 C 127.95 0.417797 4.29975 0
M  V30 1431 C 127.085 -0.398749 5.29701 0
M  V30 1432 C 126.124 0.518827 6.09897 0
M  V30 1433 N 125.261 -0.260674 7.01616 0
M  V30 1434 H 130.101 1.12983 2.75751 0
M  V30 1435 H 127.638 0.568582 1.35667 0
M  V30 1436 H 129.596 -0.984141 4.05426 0
M  V30 1437 H 128.226 -1.29599 2.95642 0
M  V30 1438 H 127.278 1.01781 3.66531 0
M  V30 1439 H 128.59 1.12191 4.86019 0
M  V30 1440 H 127.744 -0.943435 5.9932 0
M  V30 1441 H 126.483 -1.13622 4.7428 0
M  V30 1442 H 125.488 1.07538 5.39181 0
M  V30 1443 H 126.713 1.25495 6.67404 0
M  V30 1444 H 124.659 -0.981198 6.4862 0
M  V30 1445 H 124.576 0.384364 7.55022 0
M  V30 1446 H 125.844 -0.787014 7.75517 0
M  V30 1447 N 130.073 -1.45103 0.615059 0
M  V30 1448 C 131.303 -2.06254 0.119596 0
M  V30 1449 C 131.711 -1.4591 -1.20445 0
M  V30 1450 O 131.054 -0.570384 -1.7462 0
M  V30 1451 C 131.116 -3.59396 -0.0865591 0
M  V30 1452 C 130.78 -4.42116 1.15683 0
M  V30 1453 C 131.777 -4.7662 2.07676 0
M  V30 1454 C 129.462 -4.82749 1.38775 0
M  V30 1455 C 131.456 -5.50622 3.21082 0
M  V30 1456 C 129.143 -5.56504 2.52481 0
M  V30 1457 C 130.141 -5.90358 3.43463 0
M  V30 1458 O 129.829 -6.62615 4.55189 0
M  V30 1459 H 129.561 -0.672423 0.0694512 0
M  V30 1460 H 132.115 -1.87219 0.844885 0
M  V30 1461 H 130.345 -3.76859 -0.866823 0
M  V30 1462 H 132.034 -4.02365 -0.534555 0
M  V30 1463 H 132.8 -4.4578 1.91063 0
M  V30 1464 H 128.679 -4.55829 0.688545 0
M  V30 1465 H 132.223 -5.76965 3.92119 0
M  V30 1466 H 128.12 -5.86759 2.69043 0
M  V30 1467 H 128.888 -6.81071 4.53966 0
M  V30 1468 N 131.551 -0.354651 -1.53558 0
M  V30 1469 C 132.514 0.484566 -2.24019 0
M  V30 1470 C 133.514 1.01861 -1.24422 0
M  V30 1471 O 134.704 0.906097 -1.4878 0
M  V30 1472 C 131.836 1.67615 -2.96847 0
M  V30 1473 H 133.029 -0.131843 -2.9961 0
M  V30 1474 H 130.582 -0.106165 -1.55939 0
M  V30 1475 H 131.317 2.33095 -2.25471 0
M  V30 1476 H 131.102 1.30029 -3.69912 0
M  V30 1477 H 132.592 2.27114 -3.50441 0
M  V30 1478 N 133.029 1.57378 -0.0835403 0
M  V30 1479 C 133.977 2.14602 0.89714 0
M  V30 1480 C 134.971 1.08589 1.30018 0
M  V30 1481 O 136.177 1.26952 1.27606 0
M  V30 1482 H 132.552 0.686346 0.3073 0
M  V30 1483 H 134.523 2.95845 0.38969 0
M  V30 1484 C 133.272 2.73188 2.15089 0
M  V30 1485 H 132.595 3.54442 1.84962 0
M  V30 1486 H 134.035 3.1681 2.81793 0
M  V30 1487 C 132.494 1.68517 2.91725 0
M  V30 1488 O 133.024 1.11718 3.85852 0
M  V30 1489 N 131.23 1.39277 2.55049 0
M  V30 1490 H 130.777 1.85655 1.78577 0
M  V30 1491 H 130.735 0.694791 3.06627 0
M  V30 1492 N 134.507 -0.190092 1.56449 0
M  V30 1493 C 135.732 -0.929864 1.85387 0
M  V30 1494 C 136.157 -1.7585 0.667704 0
M  V30 1495 O 135.515 -1.77198 -0.383459 0
M  V30 1496 C 135.563 -1.79773 3.12593 0
M  V30 1497 O 134.667 -2.89713 2.93496 0
M  V30 1498 H 134.008 -0.261574 0.610307 0
M  V30 1499 H 136.538 -0.193896 2.03679 0
M  V30 1500 H 136.548 -2.20139 3.43515 0
M  V30 1501 H 135.223 -1.18892 3.98544 0
M  V30 1502 H 133.8 -2.53065 2.73884 0
M  V30 1503 N 135.985 -1.50799 -0.457987 0
M  V30 1504 C 137.225 -1.64088 -1.21879 0
M  V30 1505 C 137.589 -0.339848 -1.88968 0
M  V30 1506 O 138.79 -0.348301 -2.66534 0
M  V30 1507 C 137.061 -2.79726 -2.2246 0
M  V30 1508 S 138.62 -3.13225 -3.07303 0
M  V30 1509 H 135.438 -0.578314 -0.41361 0
M  V30 1510 H 138.04 -1.88632 -0.513645 0
M  V30 1511 H 136.744 -3.72722 -1.71775 0
M  V30 1512 H 136.275 -2.57308 -2.97584 0
M  V30 1513 H 138.29 -2.58062 -4.23814 0
M  V30 1514 N 137.463 0.71206 -1.40597 0
M  V30 1515 C 138.703 1.48438 -1.40519 0
M  V30 1516 C 139.067 1.91998 -0.00767611 0
M  V30 1517 O 140.268 2.6854 0.118239 0
M  V30 1518 C 138.539 2.67514 -2.37004 0
M  V30 1519 S 140.098 3.56875 -2.55315 0
M  V30 1520 H 136.916 0.507457 -0.498005 0
M  V30 1521 H 139.518 0.832355 -1.76896 0
M  V30 1522 H 138.222 2.33689 -3.37368 0
M  V30 1523 H 137.753 3.37625 -2.01923 0
M  V30 1524 H 139.768 4.62081 -1.8082 0
M  V30 1525 N 138.941 1.26152 0.944643 0
M  V30 1526 C 139.873 1.03199 2.04652 0
M  V30 1527 C 140.886 -0.00642356 1.62799 0
M  V30 1528 O 142.075 0.233263 1.76969 0
M  V30 1529 C 139.175 0.540111 3.34568 0
M  V30 1530 C 138.348 1.64697 4.05208 0
M  V30 1531 C 137.407 1.15374 5.13396 0
M  V30 1532 O 136.433 1.85013 5.38293 0
M  V30 1533 N 137.635 0.00031529 5.805 0
M  V30 1534 H 140.4 1.9808 2.2491 0
M  V30 1535 H 137.961 1.17491 1.11389 0
M  V30 1536 H 139.953 0.194401 4.04233 0
M  V30 1537 H 138.523 -0.315021 3.11009 0
M  V30 1538 H 137.743 2.16379 3.29506 0
M  V30 1539 H 139.031 2.3903 4.49157 0
M  V30 1540 H 138.429 -0.581336 5.62705 0
M  V30 1541 H 136.986 -0.286346 6.51171 0
M  V30 1542 N 140.419 -1.14872 1.07899 0
M  V30 1543 C 141.367 -2.21857 0.698727 0
M  V30 1544 C 142.361 -1.66845 -0.293086 0
M  V30 1545 O 143.567 -1.79321 -0.156204 0
M  V30 1546 H 139.942 -0.722691 0.207899 0
M  V30 1547 H 141.913 -2.51205 1.61054 0
M  V30 1548 C 140.662 -3.47498 0.11858 0
M  V30 1549 H 139.985 -3.90154 0.872914 0
M  V30 1550 H 141.425 -4.23858 -0.109759 0
M  V30 1551 C 139.884 -3.16947 -1.1422 0
M  V30 1552 O 140.414 -3.3426 -2.22785 0
M  V30 1553 N 138.62 -2.70946 -1.05055 0
M  V30 1554 H 138.167 -2.57058 -0.167038 0
M  V30 1555 H 138.125 -2.50879 -1.89491 0
M  V30 1556 N 141.898 -0.863906 -1.31812 0
M  V30 1557 C 143.147 -0.46801 -1.96195 0
M  V30 1558 C 143.46 0.983474 -1.69077 0
M  V30 1559 O 144.666 1.48523 -2.27273 0
M  V30 1560 C 143.122 -0.785995 -3.51212 0
M  V30 1561 C 142.73 -2.25383 -3.87178 0
M  V30 1562 C 144.474 -0.458274 -4.22019 0
M  V30 1563 C 142.381 -2.51455 -5.3528 0
M  V30 1564 H 141.311 -0.171283 -0.734287 0
M  V30 1565 H 143.962 -1.05597 -1.50072 0
M  V30 1566 H 142.344 -0.127359 -3.95795 0
M  V30 1567 H 143.518 -2.95502 -3.53575 0
M  V30 1568 H 141.833 -2.54698 -3.2942 0
M  V30 1569 H 144.43 -0.630369 -5.30971 0
M  V30 1570 H 144.773 0.600834 -4.11941 0
M  V30 1571 H 145.306 -1.07319 -3.8305 0
M  V30 1572 H 142.045 -3.56025 -5.50387 0
M  V30 1573 H 141.565 -1.85923 -5.70257 0
M  V30 1574 H 143.244 -2.35874 -6.02472 0
M  V30 1575 N 143.376 1.44774 -0.622745 0
M  V30 1576 C 144.653 1.95522 -0.0551974 0
M  V30 1577 C 145.033 1.5649 1.41683 0
M  V30 1578 O 144.381 0.834848 2.12703 0
M  V30 1579 C 144.591 3.4796 -0.269242 0
M  V30 1580 C 145.939 4.24306 -0.158014 0
M  V30 1581 O 146.963 3.55637 -0.200162 0
M  V30 1582 O 145.822 5.46471 -0.0558693 0
M  V30 1583 H 142.916 0.826556 0.0271015 0
M  V30 1584 H 145.462 1.54866 -0.693864 0
M  V30 1585 H 144.234 3.6939 -1.29099 0
M  V30 1586 H 143.857 3.95543 0.403966 0
M  V30 1587 N 144.854 0.36279 1.53368 0
M  V30 1588 C 145.786 -0.519668 2.23231 0
M  V30 1589 C 146.799 -1.04844 1.24546 0
M  V30 1590 O 147.988 -0.955296 1.50786 0
M  V30 1591 C 145.088 -1.72995 2.9142 0
M  V30 1592 C 144.261 -1.33316 4.16588 0
M  V30 1593 C 143.32 -2.40521 4.68013 0
M  V30 1594 O 142.346 -2.03027 5.3176 0
M  V30 1595 N 143.548 -3.72065 4.45587 0
M  V30 1596 H 146.313 0.078751 2.99597 0
M  V30 1597 H 143.874 0.187833 1.60807 0
M  V30 1598 H 145.866 -2.44184 3.22733 0
M  V30 1599 H 144.436 -2.2353 2.18525 0
M  V30 1600 H 143.656 -0.451236 3.91609 0
M  V30 1601 H 144.944 -1.04432 4.97967 0
M  V30 1602 H 144.342 -4.05304 3.94646 0
M  V30 1603 H 142.899 -4.39366 4.81457 0
M  V30 1604 N 146.332 -1.57332 0.0918853 0
M  V30 1605 C 147.557 -1.98995 -0.584442 0
M  V30 1606 C 147.982 -0.970528 -1.61128 0
M  V30 1607 O 147.34 0.0613904 -1.81196 0
M  V30 1608 C 147.388 -3.39636 -1.21161 0
M  V30 1609 O 146.492 -3.40447 -2.32744 0
M  V30 1610 H 145.833 -0.647165 -0.148572 0
M  V30 1611 H 148.363 -2.03873 0.172347 0
M  V30 1612 H 148.373 -3.7726 -1.55367 0
M  V30 1613 H 147.048 -4.13356 -0.459313 0
M  V30 1614 H 145.625 -3.14614 -2.0018 0
M  V30 1615 N 147.81 0.181792 -1.56548 0
M  V30 1616 C 149.057 0.900097 -1.81396 0
M  V30 1617 C 149.385 1.82695 -0.667281 0
M  V30 1618 O 148.64 1.92614 0.346146 0
M  V30 1619 C 148.939 1.73728 -3.12335 0
M  V30 1620 C 148.605 0.960255 -4.40556 0
M  V30 1621 C 147.267 0.745766 -4.75386 0
M  V30 1622 C 149.619 0.414477 -5.19549 0
M  V30 1623 C 146.947 -0.0257694 -5.86694 0
M  V30 1624 C 149.299 -0.343916 -6.31664 0
M  V30 1625 C 147.963 -0.569301 -6.65068 0
M  V30 1626 H 147.233 0.329369 -0.663775 0
M  V30 1627 H 149.88 0.165647 -1.90782 0
M  V30 1628 H 148.185 2.54081 -2.98245 0
M  V30 1629 H 149.882 2.29591 -3.28769 0
M  V30 1630 H 146.472 1.13746 -4.13231 0
M  V30 1631 H 150.656 0.567554 -4.93044 0
M  V30 1632 H 145.912 -0.210233 -6.11038 0
M  V30 1633 H 150.086 -0.774133 -6.92084 0
M  V30 1634 H 147.713 -1.16903 -7.51158 0
M  V30 1635 N 149.288 1.51039 0.449983 0
M  V30 1636 C 150.699 1.557 1.03026 0
M  V30 1637 C 151.05 0.372939 1.92623 0
M  V30 1638 O 150.175 -0.511771 2.10261 0
M  V30 1639 C 150.77 2.82171 1.87523 0
M  V30 1640 C 149.329 2.89444 2.40622 0
M  V30 1641 C 148.476 2.50228 1.19504 0
M  V30 1642 H 151.427 1.56999 0.231745 0
M  V30 1643 H 151.448 2.65219 2.72835 0
M  V30 1644 H 150.96 3.68331 1.22286 0
M  V30 1645 H 149.061 2.07685 3.0935 0
M  V30 1646 H 149.174 3.92816 2.74285 0
M  V30 1647 H 147.538 2.03139 1.53644 0
M  V30 1648 H 148.321 3.38719 0.558972 0
M  V30 1649 N 150.766 -0.704594 1.40972 0
M  V30 1650 C 152.014 -1.46169 1.39568 0
M  V30 1651 C 152.335 -1.95 0.00253745 0
M  V30 1652 O 151.605 -1.71095 -0.954114 0
M  V30 1653 H 150.185 -0.542326 0.513704 0
M  V30 1654 H 152.847 -0.834553 1.76128 0
M  V30 1655 H 151.943 -2.32922 2.07735 0
M  V30 1656 N 152.244 -1.26651 -0.937939 0
M  V30 1657 C 153.491 -1.12387 -1.6845 0
M  V30 1658 C 153.819 0.332208 -1.91642 0
M  V30 1659 O 153.074 1.2602 -1.49725 0
M  V30 1660 C 153.373 -1.84168 -3.06295 0
M  V30 1661 C 153.039 -3.34056 -3.02849 0
M  V30 1662 C 151.701 -3.74942 -3.01616 0
M  V30 1663 C 154.053 -4.29741 -2.9491 0
M  V30 1664 C 151.381 -5.09894 -2.90215 0
M  V30 1665 C 153.733 -5.64738 -2.8505 0
M  V30 1666 C 152.397 -6.0493 -2.82162 0
M  V30 1667 H 151.667 -0.411252 -0.616403 0
M  V30 1668 H 154.314 -1.57134 -1.09459 0
M  V30 1669 H 152.619 -1.319 -3.6893 0
M  V30 1670 H 154.316 -1.70569 -3.62915 0
M  V30 1671 H 150.906 -3.01534 -3.0459 0
M  V30 1672 H 155.09 -3.99133 -2.94969 0
M  V30 1673 H 150.346 -5.40194 -2.86358 0
M  V30 1674 H 154.52 -6.38561 -2.77872 0
M  V30 1675 H 152.147 -7.09457 -2.73084 0
M  V30 1676 N 153.722 1.14298 -1.08507 0
M  V30 1677 C 154.672 2.17449 -0.685569 0
M  V30 1678 C 155.656 1.58167 0.295315 0
M  V30 1679 O 156.848 1.76675 0.107172 0
M  V30 1680 C 153.977 3.43161 -0.0975318 0
M  V30 1681 C 153.063 4.09471 -1.10426 0
M  V30 1682 N 153.454 4.51089 -2.28806 0
M  V30 1683 C 151.752 4.35976 -0.940258 0
M  V30 1684 C 152.453 5.02654 -2.9277 0
M  V30 1685 N 151.429 4.96927 -2.20374 0
M  V30 1686 H 155.231 2.47369 -1.587 0
M  V30 1687 H 152.745 1.30992 -0.959936 0
M  V30 1688 H 154.742 4.16388 0.20664 0
M  V30 1689 H 153.402 3.14719 0.798872 0
M  V30 1690 H 154.413 4.44097 -2.66455 0
M  V30 1691 H 151.09 4.17386 -0.0977441 0
M  V30 1692 H 152.48 5.44723 -3.93352 0
M  V30 1693 N 155.201 0.870884 1.31352 0
M  V30 1694 C 156.449 0.48132 1.96285 0
M  V30 1695 C 156.77 -0.969813 1.69173 0
M  V30 1696 O 156.04 -1.67998 1.00764 0
M  V30 1697 H 154.62 0.175002 0.726212 0
M  V30 1698 H 157.282 1.11087 1.60143 0
M  V30 1699 H 156.378 0.639825 3.05471 0
M  V30 1700 N 156.679 -1.44442 0.630414 0
M  V30 1701 C 157.904 -2.06927 0.139944 0
M  V30 1702 C 158.329 -1.46795 -1.17613 0
M  V30 1703 O 157.687 -0.569144 -1.72135 0
M  V30 1704 C 157.735 -3.6058 0.0379581 0
M  V30 1705 O 156.839 -3.99937 -1.0062 0
M  V30 1706 H 156.18 -0.658608 0.0844483 0
M  V30 1707 H 158.71 -1.85327 0.866891 0
M  V30 1708 H 158.72 -4.07714 -0.152856 0
M  V30 1709 H 157.395 -4.03728 0.998809 0
M  V30 1710 H 155.972 -3.64436 -0.79001 0
M  V30 1711 N 158.157 -0.370918 -1.53173 0
M  V30 1712 C 159.067 0.480823 -2.2962 0
M  V30 1713 C 160.083 1.08789 -1.35798 0
M  V30 1714 O 161.259 1.09768 -1.68858 0
M  V30 1715 C 158.324 1.60227 -3.07454 0
M  V30 1716 C 157.385 1.0222 -4.16953 0
M  V30 1717 C 156.618 2.0902 -4.91066 0
M  V30 1718 O 156.841 3.30222 -4.65091 0
M  V30 1719 O 155.775 1.71778 -5.76867 0
M  V30 1720 H 159.601 -0.141421 -3.03371 0
M  V30 1721 H 157.186 -0.135146 -1.48787 0
M  V30 1722 H 159.068 2.25417 -3.56041 0
M  V30 1723 H 157.743 2.20982 -2.36535 0
M  V30 1724 H 156.65 0.334064 -3.72605 0
M  V30 1725 H 157.983 0.459131 -4.90054 0
M  V30 1726 N 159.635 1.57281 -0.100228 0
M  V30 1727 C 160.568 2.09976 0.893612 0
M  V30 1728 C 161.546 1.01155 1.27304 0
M  V30 1729 O 162.73 1.28687 1.37739 0
M  V30 1730 C 159.857 2.58098 2.19324 0
M  V30 1731 C 158.903 3.78626 1.96328 0
M  V30 1732 S 159.736 5.21959 1.19662 0
M  V30 1733 C 160.892 5.73435 2.50844 0
M  V30 1734 H 161.125 2.93946 0.44534 0
M  V30 1735 H 158.658 1.53985 0.113167 0
M  V30 1736 H 160.616 2.8648 2.94005 0
M  V30 1737 H 159.277 1.74344 2.61272 0
M  V30 1738 H 158.47 4.10382 2.92579 0
M  V30 1739 H 158.072 3.50763 1.29775 0
M  V30 1740 H 160.364 5.82015 3.46792 0
M  V30 1741 H 161.307 6.7185 2.23659 0
M  V30 1742 H 161.715 5.01395 2.59352 0
M  V30 1743 N 161.113 -0.173488 1.56642 0
M  V30 1744 C 162.359 -0.887108 1.83035 0
M  V30 1745 C 162.714 -1.79965 0.680461 0
M  V30 1746 O 162.007 -1.88854 -0.323225 0
M  V30 1747 C 162.201 -1.72069 3.13252 0
M  V30 1748 C 162.03 -0.89035 4.40798 0
M  V30 1749 C 160.8 -0.566282 5.02117 0
M  V30 1750 C 162.998 -0.232921 5.13772 0
M  V30 1751 N 160.98 0.280427 6.13259 0
M  V30 1752 C 162.351 0.475046 6.18177 0
M  V30 1753 C 164.406 -0.150863 4.97671 0
M  V30 1754 C 163.109 1.25729 7.08227 0
M  V30 1755 C 165.135 0.618039 5.88162 0
M  V30 1756 C 164.497 1.31438 6.92029 0
M  V30 1757 H 160.596 -0.303303 0.720785 0
M  V30 1758 H 163.18 -0.154244 1.94088 0
M  V30 1759 H 161.351 -2.42499 3.03395 0
M  V30 1760 H 163.083 -2.37545 3.2765 0
M  V30 1761 H 159.838 -0.895852 4.6505 0
M  V30 1762 H 160.262 0.694027 6.73433 0
M  V30 1763 H 164.904 -0.674868 4.17379 0
M  V30 1764 H 162.622 1.79265 7.87966 0
M  V30 1765 H 166.208 0.683173 5.77775 0
M  V30 1766 H 165.088 1.89981 7.6084 0
M  V30 1767 N 162.591 -1.51276 -0.441967 0
M  V30 1768 C 163.539 -1.72823 -1.55676 0
M  V30 1769 C 164.533 -0.59445 -1.58627 0
M  V30 1770 O 165.739 -0.775715 -1.62427 0
M  V30 1771 H 162.114 -0.545983 -0.517113 0
M  V30 1772 H 164.085 -2.6628 -1.34675 0
M  V30 1773 C 162.834 -1.86619 -2.93375 0
M  V30 1774 H 162.157 -2.73264 -2.91834 0
M  V30 1775 H 163.597 -2.05709 -3.70756 0
M  V30 1776 C 162.056 -0.624842 -3.31055 0
M  V30 1777 O 162.586 0.222636 -4.01083 0
M  V30 1778 N 160.792 -0.470288 -2.86769 0
M  V30 1779 H 160.339 -1.161 -2.29953 0
M  V30 1780 H 160.297 0.359051 -3.12343 0
M  V30 1781 N 164.069 0.697108 -1.41344 0
M  V30 1782 C 165.48 1.27697 -1.36199 0
M  V30 1783 C 165.831 1.9615 -0.0443463 0
M  V30 1784 O 164.956 1.98689 0.857419 0
M  V30 1785 C 165.551 2.32223 -2.46694 0
M  V30 1786 C 164.11 2.8579 -2.44952 0
M  V30 1787 C 163.257 1.59807 -2.26621 0
M  V30 1788 H 166.208 0.491968 -1.50882 0
M  V30 1789 H 166.229 3.1348 -2.15664 0
M  V30 1790 H 165.741 1.82373 -3.42581 0
M  V30 1791 H 163.842 3.3982 -1.52817 0
M  V30 1792 H 163.955 3.36325 -3.41207 0
M  V30 1793 H 162.319 1.8556 -1.7447 0
M  V30 1794 H 163.102 1.11956 -3.24532 0
M  V30 1795 N 165.547 1.27147 0.931209 0
M  V30 1796 C 166.495 1.09398 2.05268 0
M  V30 1797 C 167.489 0.0180591 1.6939 0
M  V30 1798 O 168.695 0.17551 1.79142 0
M  V30 1799 H 165.07 0.336986 0.672268 0
M  V30 1800 H 167.041 2.04416 2.17386 0
M  V30 1801 C 165.79 0.75424 3.39421 0
M  V30 1802 H 165.113 1.57404 3.67511 0
M  V30 1803 H 166.553 0.669903 4.18674 0
M  V30 1804 C 165.012 -0.541197 3.32525 0
M  V30 1805 O 165.542 -1.57664 3.69466 0
M  V30 1806 N 163.748 -0.535517 2.85623 0
M  V30 1807 H 163.295 0.307511 2.55758 0
M  V30 1808 H 163.253 -1.40236 2.81392 0
M  V30 1809 N 167.025 -1.13721 1.09112 0
M  V30 1810 C 168.253 -1.88773 0.846899 0
M  V30 1811 C 168.668 -1.7896 -0.601572 0
M  V30 1812 O 168.025 -1.15394 -1.41388 0
M  V30 1813 C 168.076 -3.3849 1.26913 0
M  V30 1814 O 167.797 -3.48043 2.66079 0
M  V30 1815 C 169.298 -4.30518 1.05682 0
M  V30 1816 H 166.518 -0.59772 0.304914 0
M  V30 1817 H 169.062 -1.43977 1.45227 0
M  V30 1818 H 167.217 -3.80881 0.707723 0
M  V30 1819 H 167.631 -4.4109 2.83795 0
M  V30 1820 H 169.105 -5.3391 1.40156 0
M  V30 1821 H 169.582 -4.392 -0.00563416 0
M  V30 1822 H 170.188 -3.93893 1.60402 0
M  V30 1823 N 168.503 -0.877838 -1.30888 0
M  V30 1824 C 169.78 -0.413052 -1.91189 0
M  V30 1825 C 170.16 1.1056 -1.79832 0
M  V30 1826 O 169.508 1.93771 -1.21099 0
M  V30 1827 C 169.718 -0.903191 -3.3711 0
M  V30 1828 C 171.066 -0.93395 -4.14201 0
M  V30 1829 O 172.09 -0.849373 -3.45925 0
M  V30 1830 O 170.949 -1.05772 -5.36167 0
M  V30 1831 H 168.043 -0.125035 -0.817493 0
M  V30 1832 H 170.589 -0.966269 -1.39504 0
M  V30 1833 H 169.361 -1.94692 -3.39427 0
M  V30 1834 H 168.984 -0.328732 -3.96239 0
M  V30 1835 N 169.982 1.44106 -0.638065 0
M  V30 1836 C 170.912 2.33448 0.0494287 0
M  V30 1837 C 171.893 1.48606 0.827672 0
M  V30 1838 O 173.078 1.77308 0.792173 0
M  V30 1839 C 170.208 3.31771 1.02691 0
M  V30 1840 C 169.162 4.26485 0.359823 0
M  V30 1841 C 168.488 5.14729 1.44769 0
M  V30 1842 C 169.788 5.17056 -0.738296 0
M  V30 1843 H 171.482 2.91183 -0.696636 0
M  V30 1844 H 169.028 1.40014 -0.336456 0
M  V30 1845 H 170.981 3.93161 1.51666 0
M  V30 1846 H 169.705 2.7226 1.80395 0
M  V30 1847 H 168.364 3.66437 -0.10934 0
M  V30 1848 H 168.012 4.51566 2.21578 0
M  V30 1849 H 167.712 5.78913 1.00668 0
M  V30 1850 H 169.236 5.78991 1.93911 0
M  V30 1851 H 170.65 5.72342 -0.331354 0
M  V30 1852 H 169.047 5.89879 -1.10286 0
M  V30 1853 H 170.117 4.57652 -1.60258 0
M  V30 1854 N 171.46 0.379036 1.52974 0
M  V30 1855 C 172.685 -0.209353 2.06341 0
M  V30 1856 C 173.11 -1.40583 1.24972 0
M  V30 1857 O 172.468 -1.79246 0.272155 0
M  V30 1858 C 172.516 -0.567786 3.56102 0
M  V30 1859 O 171.62 -1.66318 3.77375 0
M  V30 1860 H 170.961 -0.0272919 0.663439 0
M  V30 1861 H 173.491 0.543536 1.97248 0
M  V30 1862 H 173.501 -0.835003 3.99364 0
M  V30 1863 H 172.176 0.307013 4.14765 0
M  V30 1864 H 170.753 -1.39048 3.46006 0
M  V30 1865 N 172.938 -1.57226 0.108567 0
M  V30 1866 C 173.848 -2.18292 -0.859401 0
M  V30 1867 C 174.864 -1.15612 -1.30038 0
M  V30 1868 O 176.04 -1.48039 -1.36552 0
M  V30 1869 C 173.105 -2.762 -2.09558 0
M  V30 1870 C 172.166 -3.93881 -1.70752 0
M  V30 1871 C 171.399 -4.49018 -2.88477 0
M  V30 1872 O 171.622 -4.03068 -4.036 0
M  V30 1873 O 170.556 -5.39852 -2.66164 0
M  V30 1874 H 174.382 -3.01441 -0.369769 0
M  V30 1875 H 171.967 -1.48945 -0.1165 0
M  V30 1876 H 173.849 -3.13156 -2.81978 0
M  V30 1877 H 172.524 -1.96089 -2.57548 0
M  V30 1878 H 171.431 -3.61713 -0.954714 0
M  V30 1879 H 172.764 -4.75396 -1.27513 0
M  V30 1880 N 174.416 0.165178 -1.56732 0
M  V30 1881 C 175.693 0.908443 -1.73224 0
M  V30 1882 C 176.073 2.0013 -0.67165 0
M  V30 1883 O 175.421 2.26353 0.31253 0
M  V30 1884 C 175.631 1.46756 -3.16644 0
M  V30 1885 C 176.979 1.93809 -3.77787 0
M  V30 1886 O 178.003 1.56537 -3.1996 0
M  V30 1887 O 176.862 2.62486 -4.79336 0
M  V30 1888 H 173.956 0.428025 -0.707618 0
M  V30 1889 H 176.502 0.152526 -1.69013 0
M  V30 1890 H 175.274 0.68129 -3.85323 0
M  V30 1891 H 174.897 2.28749 -3.25207 0
M  V30 1892 N 175.894 1.51508 0.433938 0
M  V30 1893 C 177.134 1.66006 1.19253 0
M  V30 1894 C 177.498 0.369868 1.88404 0
M  V30 1895 O 178.699 0.39066 2.65946 0
M  V30 1896 C 176.97 2.83229 2.17981 0
M  V30 1897 S 178.529 3.18075 3.02281 0
M  V30 1898 H 175.347 0.584821 0.404358 0
M  V30 1899 H 177.949 1.89425 0.48357 0
M  V30 1900 H 176.653 3.75407 1.65824 0
M  V30 1901 H 176.184 2.6201 2.93453 0
M  V30 1902 H 178.199 2.64772 4.19655 0
M  V30 1903 N 177.372 -0.689602 1.41712 0
M  V30 1904 C 178.302 -1.81577 1.46806 0
M  V30 1905 C 179.283 -1.66945 0.326105 0
M  V30 1906 O 180.468 -1.86588 0.538377 0
M  V30 1907 C 177.598 -3.19762 1.35535 0
M  V30 1908 C 176.552 -3.49107 2.47605 0
M  V30 1909 C 175.878 -4.86711 2.21397 0
M  V30 1910 C 177.178 -3.47483 3.89939 0
M  V30 1911 H 178.872 -1.7757 2.41058 0
M  V30 1912 H 176.418 -0.852887 1.16025 0
M  V30 1913 H 178.371 -3.98263 1.3771 0
M  V30 1914 H 177.095 -3.24409 0.377708 0
M  V30 1915 H 175.754 -2.72959 2.44722 0
M  V30 1916 H 175.402 -4.8799 1.21961 0
M  V30 1917 H 175.102 -5.0731 2.96497 0
M  V30 1918 H 176.626 -5.67515 2.25297 0
M  V30 1919 H 178.04 -4.1598 3.94505 0
M  V30 1920 H 176.437 -3.79615 4.64771 0
M  V30 1921 H 177.507 -2.46341 4.17665 0
M  V30 1922 N 178.85 -1.27639 -0.924453 0
M  V30 1923 C 180.08 -1.16819 -1.70402 0
M  V30 1924 C 180.488 0.277191 -1.87158 0
M  V30 1925 O 179.831 1.20025 -1.39067 0
M  V30 1926 C 179.893 -1.78305 -3.12166 0
M  V30 1927 C 179.557 -3.27502 -3.18734 0
M  V30 1928 C 180.554 -4.2409 -3.00738 0
M  V30 1929 C 178.239 -3.68269 -3.4159 0
M  V30 1930 C 180.233 -5.59422 -3.05492 0
M  V30 1931 C 177.92 -5.0373 -3.45977 0
M  V30 1932 C 178.918 -5.99116 -3.27946 0
M  V30 1933 O 178.606 -7.32108 -3.32074 0
M  V30 1934 H 178.338 -0.406931 -0.539799 0
M  V30 1935 H 180.892 -1.69078 -1.16626 0
M  V30 1936 H 179.122 -1.20528 -3.67437 0
M  V30 1937 H 180.811 -1.62154 -3.72103 0
M  V30 1938 H 181.577 -3.93931 -2.82919 0
M  V30 1939 H 177.456 -2.94496 -3.54673 0
M  V30 1940 H 181 -6.33852 -2.91337 0
M  V30 1941 H 176.897 -5.33543 -3.63321 0
M  V30 1942 H 177.665 -7.40598 -3.48507 0
M  V30 1943 N 180.328 1.1314 -1.09713 0
M  V30 1944 C 181.258 2.20748 -0.761102 0
M  V30 1945 C 182.239 1.68061 0.262566 0
M  V30 1946 O 183.424 1.93765 0.129977 0
M  V30 1947 C 180.554 3.46812 -0.184054 0
M  V30 1948 C 179.508 4.12606 -1.13757 0
M  V30 1949 C 178.834 5.33031 -0.422083 0
M  V30 1950 C 180.134 4.59603 -2.48118 0
M  V30 1951 H 181.828 2.49113 -1.66082 0
M  V30 1952 H 179.374 1.19734 -0.799987 0
M  V30 1953 H 181.327 4.21353 0.0631215 0
M  V30 1954 H 180.051 3.17851 0.750868 0
M  V30 1955 H 178.71 3.40036 -1.37007 0
M  V30 1956 H 178.358 5.00335 0.517072 0
M  V30 1957 H 178.058 5.77999 -1.05788 0
M  V30 1958 H 179.582 6.10325 -0.183277 0
M  V30 1959 H 180.996 5.25552 -2.29059 0
M  V30 1960 H 179.393 5.15321 -3.07514 0
M  V30 1961 H 180.463 3.73971 -3.08665 0
M  V30 1962 N 181.806 0.884767 1.30421 0
M  V30 1963 C 182.754 0.340869 2.30089 0
M  V30 1964 C 183.748 -0.55201 1.60154 0
M  V30 1965 O 184.954 -0.436467 1.74628 0
M  V30 1966 H 181.329 0.0915739 0.746404 0
M  V30 1967 H 183.3 1.19513 2.73421 0
M  V30 1968 C 182.049 -0.429779 3.45034 0
M  V30 1969 H 181.372 0.248024 3.9903 0
M  V30 1970 H 182.812 -0.775445 4.16849 0
M  V30 1971 C 181.271 -1.62677 2.95022 0
M  V30 1972 O 181.801 -2.72614 2.95033 0
M  V30 1973 N 180.007 -1.46387 2.51036 0
M  V30 1974 H 179.554 -0.569506 2.51226 0
M  V30 1975 H 179.512 -2.26612 2.17932 0
M  V30 1976 N 183.284 -1.43765 0.645699 0
M  V30 1977 C 184.53 -2.02197 0.156271 0
M  V30 1978 C 184.863 -1.50776 -1.22393 0
M  V30 1979 O 184.138 -0.697771 -1.81553 0
M  V30 1980 C 184.421 -3.59749 0.158872 0
M  V30 1981 C 184.274 -4.21419 1.57245 0
M  V30 1982 C 185.593 -4.37149 -0.50879 0
M  V30 1983 H 182.712 -0.734694 0.0582602 0
M  V30 1984 H 185.354 -1.71157 0.824951 0
M  V30 1985 H 183.504 -3.86325 -0.410525 0
M  V30 1986 H 185.176 -4.059 2.19186 0
M  V30 1987 H 183.419 -3.78356 2.122 0
M  V30 1988 H 184.09 -5.30482 1.52619 0
M  V30 1989 H 186.566 -4.16093 -0.024412 0
M  V30 1990 H 185.442 -5.4683 -0.476213 0
M  V30 1991 H 185.703 -4.12839 -1.58165 0
M  V30 1992 N 184.763 -0.387143 -1.52771 0
M  V30 1993 C 186.009 0.188506 -2.02525 0
M  V30 1994 C 186.364 1.44649 -1.26864 0
M  V30 1995 O 185.657 1.88189 -0.359945 0
M  V30 1996 C 185.851 0.512209 -3.53711 0
M  V30 1997 C 185.68 -0.712855 -4.44014 0
M  V30 1998 C 184.45 -1.23147 -4.90064 0
M  V30 1999 C 186.648 -1.58453 -4.89282 0
M  V30 2000 N 184.63 -2.41431 -5.64433 0
M  V30 2001 C 186.001 -2.61381 -5.6221 0
M  V30 2002 C 188.056 -1.60488 -4.71326 0
M  V30 2003 C 186.759 -3.66227 -6.19088 0
M  V30 2004 C 188.785 -2.6424 -5.29085 0
M  V30 2005 C 188.147 -3.6589 -6.01917 0
M  V30 2006 H 184.246 0.0311236 -0.78138 0
M  V30 2007 H 186.83 -0.536548 -1.87161 0
M  V30 2008 H 185.001 1.20632 -3.69192 0
M  V30 2009 H 186.733 1.07482 -3.90166 0
M  V30 2010 H 183.488 -0.792795 -4.66917 0
M  V30 2011 H 183.912 -3.01274 -6.0627 0
M  V30 2012 H 188.554 -0.83247 -4.14524 0
M  V30 2013 H 186.272 -4.44337 -6.74974 0
M  V30 2014 H 189.858 -2.66695 -5.17074 0
M  V30 2015 H 188.738 -4.44855 -6.45813 0
M  V30 2016 N 186.241 1.57166 -0.116904 0
M  V30 2017 C 187.49 1.94298 0.541407 0
M  V30 2018 C 187.803 1.00236 1.67964 0
M  V30 2019 O 189.009 1.26826 2.40057 0
M  V30 2020 C 187.465 3.45306 1.01449 0
M  V30 2021 C 187.073 4.47899 -0.0951738 0
M  V30 2022 C 188.817 3.91361 1.6443 0
M  V30 2023 C 186.724 5.90083 0.394491 0
M  V30 2024 H 185.654 0.725308 0.206019 0
M  V30 2025 H 188.305 1.82446 -0.196419 0
M  V30 2026 H 186.687 3.52385 1.80667 0
M  V30 2027 H 187.861 4.52486 -0.871374 0
M  V30 2028 H 186.176 4.11583 -0.631505 0
M  V30 2029 H 188.773 4.95004 2.02176 0
M  V30 2030 H 189.116 3.3122 2.52189 0
M  V30 2031 H 189.649 3.87073 0.917559 0
M  V30 2032 H 186.388 6.53974 -0.447004 0
M  V30 2033 H 185.908 5.88921 1.13722 0
M  V30 2034 H 187.587 6.41307 0.856399 0
M  V30 2035 N 187.719 -0.156864 1.56817 0
M  V30 2036 C 189.13 -0.717916 1.72345 0
M  V30 2037 C 189.481 -1.82124 0.729747 0
M  V30 2038 O 188.606 -2.16141 -0.105781 0
M  V30 2039 C 189.201 -1.30904 3.12489 0
M  V30 2040 C 187.76 -1.81676 3.29653 0
M  V30 2041 C 186.907 -0.701349 2.68284 0
M  V30 2042 H 189.858 0.0686989 1.58551 0
M  V30 2043 H 189.879 -2.17882 3.11942 0
M  V30 2044 H 189.391 -0.505796 3.8479 0
M  V30 2045 H 187.492 -2.64598 2.62333 0
M  V30 2046 H 187.605 -1.95226 4.3752 0
M  V30 2047 H 185.969 -1.12548 2.28484 0
M  V30 2048 H 186.752 0.0902846 3.43181 0
M  V30 2049 N 189.197 -1.51736 -0.425897 0
M  V30 2050 C 190.16 -1.73271 -1.50032 0
M  V30 2051 C 191.16 -0.602639 -1.4908 0
M  V30 2052 O 192.35 -0.87033 -1.509 0
M  V30 2053 C 189.482 -1.79969 -2.89523 0
M  V30 2054 H 190.675 -2.69172 -1.32237 0
M  V30 2055 H 188.228 -1.41899 -0.65532 0
M  V30 2056 H 188.963 -0.859241 -3.1271 0
M  V30 2057 H 188.748 -2.62109 -2.91619 0
M  V30 2058 H 190.238 -1.9843 -3.67444 0
M  V30 2059 N 190.675 0.682077 -1.42076 0
M  V30 2060 C 192.086 1.26246 -1.37546 0
M  V30 2061 C 192.437 1.96092 -0.0651481 0
M  V30 2062 O 191.562 1.99587 0.836297 0
M  V30 2063 C 192.157 2.29594 -2.49143 0
M  V30 2064 C 190.716 2.83175 -2.47969 0
M  V30 2065 C 189.863 1.57395 -2.28303 0
M  V30 2066 H 192.814 0.475937 -1.51395 0
M  V30 2067 H 192.835 3.11175 -2.18976 0
M  V30 2068 H 192.347 1.78729 -3.44496 0
M  V30 2069 H 190.448 3.3818 -1.56413 0
M  V30 2070 H 190.561 3.32687 -3.44755 0
M  V30 2071 H 188.925 1.83699 -1.76428 0
M  V30 2072 H 189.708 1.08507 -3.25701 0
M  V30 2073 N 192.153 1.28127 0.917671 0
M  V30 2074 C 193.1 1.11717 2.0196 0
M  V30 2075 C 194.07 0.0153929 1.66093 0
M  V30 2076 O 195.255 0.179596 1.89953 0
M  V30 2077 C 192.395 0.780927 3.36148 0
M  V30 2078 C 191.508 1.96135 3.84909 0
M  V30 2079 C 190.643 1.56609 5.0759 0
M  V30 2080 C 189.682 2.71339 5.48673 0
M  V30 2081 N 188.819 2.32332 6.62545 0
M  V30 2082 H 193.659 2.06003 2.15329 0
M  V30 2083 H 191.196 1.02535 1.05475 0
M  V30 2084 H 193.154 0.56675 4.13333 0
M  V30 2085 H 191.784 -0.124998 3.22558 0
M  V30 2086 H 190.836 2.28777 3.03916 0
M  V30 2087 H 192.148 2.82165 4.1132 0
M  V30 2088 H 191.302 1.31374 5.92305 0
M  V30 2089 H 190.041 0.677014 4.82978 0
M  V30 2090 H 189.046 2.97276 4.62501 0
M  V30 2091 H 190.271 3.60882 5.75274 0
M  V30 2092 H 188.217 1.45889 6.39572 0
M  V30 2093 H 188.134 3.11899 6.88662 0
M  V30 2094 H 189.402 2.10371 7.50576 0
M  V30 2095 N 193.631 -1.12557 1.10312 0
M  V30 2096 C 195.042 -1.65574 0.862678 0
M  V30 2097 C 195.393 -1.86566 -0.607256 0
M  V30 2098 O 194.518 -1.59121 -1.46662 0
M  V30 2099 C 195.113 -3.00776 1.55947 0
M  V30 2100 C 193.672 -3.50748 1.36576 0
M  V30 2101 C 192.819 -2.25797 1.60968 0
M  V30 2102 H 195.77 -0.963552 1.26101 0
M  V30 2103 H 195.791 -3.67185 0.997753 0
M  V30 2104 H 195.303 -2.85465 2.62928 0
M  V30 2105 H 193.404 -3.71245 0.317531 0
M  V30 2106 H 193.517 -4.30289 2.10686 0
M  V30 2107 H 191.881 -2.32841 1.03234 0
M  V30 2108 H 192.664 -2.13043 2.69198 0
M  V30 2109 N 195.109 -0.891671 -1.2995 0
M  V30 2110 C 196.056 -0.361736 -2.27948 0
M  V30 2111 C 197.026 0.551761 -1.56668 0
M  V30 2112 O 198.211 0.478736 -1.84696 0
M  V30 2113 C 195.351 0.411825 -3.42634 0
M  V30 2114 C 194.464 -0.531651 -4.28716 0
M  V30 2115 C 193.599 0.258167 -5.30572 0
M  V30 2116 C 192.638 -0.680349 -6.08307 0
M  V30 2117 N 191.775 0.0745613 -7.0206 0
M  V30 2118 H 196.615 -1.20254 -2.72659 0
M  V30 2119 H 194.152 -0.604352 -1.34112 0
M  V30 2120 H 196.11 0.876304 -4.07893 0
M  V30 2121 H 194.74 1.21715 -2.98974 0
M  V30 2122 H 193.792 -1.11463 -3.63703 0
M  V30 2123 H 195.104 -1.25038 -4.82874 0
M  V30 2124 H 194.258 0.784204 -6.0161 0
M  V30 2125 H 192.997 1.01008 -4.77126 0
M  V30 2126 H 192.002 -1.21796 -5.3614 0
M  V30 2127 H 193.227 -1.43145 -6.63842 0
M  V30 2128 H 191.173 0.808883 -6.50994 0
M  V30 2129 H 191.09 -0.584409 -7.53738 0
M  V30 2130 H 192.358 0.581123 -7.77331 0
M  V30 2131 N 196.587 1.43421 -0.653314 0
M  V30 2132 C 197.535 2.32546 0.0501531 0
M  V30 2133 C 198.529 1.48617 0.812985 0
M  V30 2134 O 199.735 1.64825 0.723375 0
M  V30 2135 H 196.11 0.751185 0.0350032 0
M  V30 2136 H 198.081 2.89602 -0.719261 0
M  V30 2137 C 196.83 3.32925 1.00279 0
M  V30 2138 H 196.153 3.97532 0.425236 0
M  V30 2139 H 197.593 3.9792 1.46409 0
M  V30 2140 C 196.052 2.63532 2.09886 0
M  V30 2141 O 196.582 2.45092 3.18265 0
M  V30 2142 N 194.788 2.22905 1.86445 0
M  V30 2143 H 194.335 2.38103 0.98309 0
M  V30 2144 H 194.293 1.76805 2.59976 0
M  V30 2145 N 198.065 0.39524 1.52563 0
M  V30 2146 C 199.028 -0.425001 2.25225 0
M  V30 2147 C 200.028 -0.985266 1.27079 0
M  V30 2148 O 201.218 -0.866332 1.5113 0
M  V30 2149 C 198.35 -1.59686 3.01186 0
M  V30 2150 H 199.543 0.211233 2.99155 0
M  V30 2151 H 197.096 0.147472 1.55603 0
M  V30 2152 H 197.831 -2.27035 2.31572 0
M  V30 2153 H 197.616 -1.20176 3.73229 0
M  V30 2154 H 199.106 -2.17743 3.5634 0
M  V30 2155 N 199.544 -1.57102 0.125237 0
M  V30 2156 C 200.772 -1.99761 -0.538797 0
M  V30 2157 C 201.187 -1.00503 -1.59827 0
M  V30 2158 O 200.544 0.00119474 -1.825 0
M  V30 2159 C 200.595 -3.42408 -1.15927 0
M  V30 2160 O 200.316 -4.37869 -0.142143 0
M  V30 2161 C 201.817 -4.00232 -1.90602 0
M  V30 2162 H 199.037 -0.655772 -0.14214 0
M  V30 2163 H 201.581 -2.03383 0.213413 0
M  V30 2164 H 199.736 -3.39706 -1.86223 0
M  V30 2165 H 200.15 -5.21128 -0.593775 0
M  V30 2166 H 201.624 -5.02105 -2.29335 0
M  V30 2167 H 202.101 -3.39721 -2.78363 0
M  V30 2168 H 202.707 -4.06499 -1.25055 0
M  V30 2169 N 201.022 0.148545 -1.56898 0
M  V30 2170 C 202.268 0.862694 -1.83536 0
M  V30 2171 C 202.601 1.80889 -0.706604 0
M  V30 2172 O 201.876 1.92328 0.289885 0
M  V30 2173 C 202.159 1.63853 -3.20662 0
M  V30 2174 C 202.012 0.713925 -4.44098 0
M  V30 2175 C 203.331 2.60133 -3.54991 0
M  V30 2176 H 200.45 0.312179 -0.667618 0
M  V30 2177 H 203.092 0.127953 -1.89569 0
M  V30 2178 H 201.242 2.26489 -3.1565 0
M  V30 2179 H 202.914 0.098686 -4.61194 0
M  V30 2180 H 201.157 0.0234019 -4.33794 0
M  V30 2181 H 201.828 1.29278 -5.36648 0
M  V30 2182 H 204.304 2.07616 -3.60603 0
M  V30 2183 H 203.18 3.11468 -4.51972 0
M  V30 2184 H 203.441 3.41417 -2.80868 0
M  V30 2185 N 202.5 1.5196 0.417844 0
M  V30 2186 C 203.43 1.77634 1.51554 0
M  V30 2187 C 204.411 0.626918 1.58126 0
M  V30 2188 O 205.596 0.871632 1.7354 0
M  V30 2189 C 202.726 1.91911 2.8946 0
M  V30 2190 C 201.68 3.07463 2.97743 0
M  V30 2191 C 201.006 3.06951 4.37819 0
M  V30 2192 C 202.306 4.47082 2.70027 0
M  V30 2193 H 204 2.6955 1.3032 0
M  V30 2194 H 201.546 1.29706 0.625492 0
M  V30 2195 H 203.499 2.08455 3.6623 0
M  V30 2196 H 202.223 0.966598 3.11969 0
M  V30 2197 H 200.882 2.90656 2.23416 0
M  V30 2198 H 200.53 2.09438 4.57323 0
M  V30 2199 H 200.23 3.84556 4.44286 0
M  V30 2200 H 201.754 3.25613 5.16535 0
M  V30 2201 H 203.168 4.6414 3.36522 0
M  V30 2202 H 201.565 5.2654 2.87881 0
M  V30 2203 H 202.635 4.55777 1.65514 0
M  V30 2204 N 203.978 -0.674533 1.42435 0
M  V30 2205 C 205.227 -1.43034 1.42212 0
M  V30 2206 C 205.54 -1.95555 0.0420788 0
M  V30 2207 O 206.746 -2.71374 -0.0827558 0
M  V30 2208 C 205.202 -2.58748 2.50155 0
M  V30 2209 C 204.81 -2.12925 3.94166 0
M  V30 2210 C 206.554 -3.36257 2.59098 0
M  V30 2211 C 204.461 -3.25723 4.93618 0
M  V30 2212 H 203.391 -0.537345 0.528939 0
M  V30 2213 H 206.042 -0.73024 1.68344 0
M  V30 2214 H 204.424 -3.31128 2.17188 0
M  V30 2215 H 205.598 -1.47697 4.36488 0
M  V30 2216 H 203.913 -1.48354 3.89076 0
M  V30 2217 H 206.51 -4.20264 3.30578 0
M  V30 2218 H 206.853 -3.82866 1.63461 0
M  V30 2219 H 207.386 -2.70947 2.9126 0
M  V30 2220 H 204.125 -2.84105 5.90732 0
M  V30 2221 H 203.645 -3.89732 4.55926 0
M  V30 2222 H 205.324 -3.91186 5.15347 0
M  V30 2223 N 205.456 -1.28612 -0.910864 0
M  V30 2224 C 206.702 -1.17116 -1.66299 0
M  V30 2225 C 207.057 0.276917 -1.90397 0
M  V30 2226 O 206.35 1.19795 -1.49532 0
M  V30 2227 C 206.544 -1.90624 -3.0232 0
M  V30 2228 C 206.373 -3.42431 -2.91498 0
M  V30 2229 C 205.143 -4.11773 -2.92867 0
M  V30 2230 C 207.341 -4.38124 -2.69355 0
M  V30 2231 N 205.323 -5.50025 -2.72664 0
M  V30 2232 C 206.694 -5.63759 -2.58023 0
M  V30 2233 C 208.749 -4.28016 -2.54375 0
M  V30 2234 C 207.452 -6.80436 -2.33238 0
M  V30 2235 C 209.478 -5.44433 -2.30969 0
M  V30 2236 C 208.84 -6.69034 -2.20394 0
M  V30 2237 H 204.939 -0.483506 -0.61461 0
M  V30 2238 H 207.523 -1.62299 -1.0755 0
M  V30 2239 H 205.694 -1.4787 -3.5915 0
M  V30 2240 H 207.426 -1.71488 -3.66571 0
M  V30 2241 H 204.181 -3.63378 -3.03732 0
M  V30 2242 H 204.605 -6.22705 -2.65646 0
M  V30 2243 H 209.247 -3.32388 -2.613 0
M  V30 2244 H 206.965 -7.7613 -2.25051 0
M  V30 2245 H 210.551 -5.38504 -2.20238 0
M  V30 2246 H 209.431 -7.57595 -2.02531 0
M  V30 2247 N 206.934 1.1197 -1.10907 0
M  V30 2248 C 208.183 1.82947 -0.849302 0
M  V30 2249 C 208.496 1.85275 0.627112 0
M  V30 2250 O 209.702 2.52296 1.00295 0
M  V30 2251 C 208.158 3.28529 -1.46959 0
M  V30 2252 C 207.766 3.34546 -2.97965 0
M  V30 2253 C 209.51 4.04443 -1.28942 0
M  V30 2254 C 207.417 4.74491 -3.53004 0
M  V30 2255 H 206.347 0.685477 -0.314065 0
M  V30 2256 H 208.998 1.2604 -1.33365 0
M  V30 2257 H 207.38 3.85333 -0.912917 0
M  V30 2258 H 208.554 2.87654 -3.59989 0
M  V30 2259 H 206.869 2.72108 -3.15192 0
M  V30 2260 H 209.466 5.07787 -1.67502 0
M  V30 2261 H 209.809 4.15656 -0.231456 0
M  V30 2262 H 210.342 3.5401 -1.81443 0
M  V30 2263 H 207.081 4.68474 -4.58489 0
M  V30 2264 H 206.601 5.21816 -2.9575 0
M  V30 2265 H 208.28 5.4344 -3.51115 0
M  V30 2266 N 208.412 0.89855 1.29475 0
M  V30 2267 C 209.642 0.538479 1.99459 0
M  V30 2268 C 210.05 -0.880922 1.67441 0
M  V30 2269 O 209.393 -1.59283 0.915127 0
M  V30 2270 C 209.455 0.649564 3.53583 0
M  V30 2271 C 209.119 2.03573 4.09154 0
M  V30 2272 C 210.116 3.00675 4.24135 0
M  V30 2273 C 207.801 2.3448 4.44212 0
M  V30 2274 C 209.795 4.26809 4.73405 0
M  V30 2275 C 207.482 3.60857 4.93179 0
M  V30 2276 C 208.48 4.56836 5.0773 0
M  V30 2277 O 208.168 5.80969 5.55635 0
M  V30 2278 H 207.9 0.205372 0.644048 0
M  V30 2279 H 210.454 1.20958 1.66007 0
M  V30 2280 H 208.684 -0.0785592 3.8662 0
M  V30 2281 H 210.373 0.29881 4.04799 0
M  V30 2282 H 211.139 2.78112 3.97339 0
M  V30 2283 H 207.018 1.60534 4.32145 0
M  V30 2284 H 210.562 5.0173 4.84678 0
M  V30 2285 H 206.459 3.83251 5.19412 0
M  V30 2286 H 207.227 5.83542 5.73952 0
M  V30 2287 N 209.89 -1.43072 0.660911 0
M  V30 2288 C 211.138 -2.01323 0.177094 0
M  V30 2289 C 211.459 -1.5245 -1.2159 0
M  V30 2290 O 210.729 -0.740322 -1.81373 0
M  V30 2291 H 209.309 -0.744382 0.0624804 0
M  V30 2292 H 211.971 -1.75179 0.854305 0
M  V30 2293 H 211.067 -3.11649 0.167641 0
M  V30 2294 N 211.368 -0.403325 -1.52352 0
M  V30 2295 C 212.616 0.174003 -2.0135 0
M  V30 2296 C 212.937 1.46139 -1.29106 0
M  V30 2297 O 212.207 1.91448 -0.415253 0
M  V30 2298 H 210.787 0.0672911 -0.743963 0
M  V30 2299 H 213.449 -0.538235 -1.87321 0
M  V30 2300 H 212.545 0.374254 -3.09848 0
M  V30 2301 N 212.846 1.57033 -0.133567 0
M  V30 2302 C 214.094 1.953 0.519848 0
M  V30 2303 C 214.415 1.01866 1.66278 0
M  V30 2304 O 213.685 0.0776513 1.95746 0
M  V30 2305 H 212.265 0.721091 0.195032 0
M  V30 2306 H 214.927 1.93809 -0.205921 0
M  V30 2307 H 214.023 2.98695 0.904854 0
M  V30 2308 N 214.325 -0.140222 1.56975 0
M  V30 2309 C 215.572 -0.851687 1.83719 0
M  V30 2310 C 215.9 -1.80862 0.715485 0
M  V30 2311 O 215.155 -1.93464 -0.294956 0
M  V30 2312 C 215.454 -1.65386 3.16832 0
M  V30 2313 C 215.12 -0.843112 4.42947 0
M  V30 2314 C 213.782 -0.619464 4.77196 0
M  V30 2315 C 216.134 -0.276582 5.20466 0
M  V30 2316 C 213.462 0.181312 5.8642 0
M  V30 2317 C 215.814 0.51127 6.30531 0
M  V30 2318 C 214.478 0.745432 6.63325 0
M  V30 2319 H 213.748 -0.311654 0.672274 0
M  V30 2320 H 216.395 -0.115006 1.91154 0
M  V30 2321 H 214.7 -2.46084 3.04877 0
M  V30 2322 H 216.397 -2.20793 3.34741 0
M  V30 2323 H 212.987 -1.0275 4.16101 0
M  V30 2324 H 217.171 -0.436632 4.94376 0
M  V30 2325 H 212.427 0.372165 6.10266 0
M  V30 2326 H 216.601 0.957354 6.89788 0
M  V30 2327 H 214.228 1.36778 7.47794 0
M  V30 2328 N 215.803 -1.52179 -0.40978 0
M  V30 2329 C 216.735 -1.71703 -1.51825 0
M  V30 2330 C 217.748 -0.597445 -1.51441 0
M  V30 2331 O 218.937 -0.872582 -1.55719 0
M  V30 2332 C 216.037 -1.74171 -2.90719 0
M  V30 2333 C 215.21 -3.03156 -3.15302 0
M  V30 2334 C 214.269 -2.97445 -4.34065 0
M  V30 2335 O 213.295 -3.71352 -4.31377 0
M  V30 2336 N 214.497 -2.15191 -5.39141 0
M  V30 2337 H 217.262 -2.67334 -1.35472 0
M  V30 2338 H 214.823 -1.50409 -0.599069 0
M  V30 2339 H 216.815 -1.67884 -3.68235 0
M  V30 2340 H 215.385 -0.860166 -3.00533 0
M  V30 2341 H 214.605 -3.23097 -2.25836 0
M  V30 2342 H 215.893 -3.88484 -3.28569 0
M  V30 2343 H 215.291 -1.54573 -5.44173 0
M  V30 2344 H 213.848 -2.1476 -6.15403 0
M  V30 2345 N 217.281 0.66697 -1.42791 0
M  V30 2346 C 218.509 1.45505 -1.47091 0
M  V30 2347 C 218.924 1.8861 -0.0845873 0
M  V30 2348 O 218.281 1.58632 0.90234 0
M  V30 2349 C 218.332 2.69906 -2.40485 0
M  V30 2350 O 218.053 2.28608 -3.73725 0
M  V30 2351 C 219.554 3.63396 -2.53886 0
M  V30 2352 H 216.774 0.447459 -0.500022 0
M  V30 2353 H 219.318 0.818866 -1.8739 0
M  V30 2354 H 217.473 3.29696 -2.03419 0
M  V30 2355 H 217.887 3.08997 -4.23817 0
M  V30 2356 H 219.361 4.47387 -3.2334 0
M  V30 2357 H 219.838 4.09824 -1.57927 0
M  V30 2358 H 220.444 3.09495 -2.91706 0
M  V30 2359 N 218.759 1.29093 0.90403 0
M  V30 2360 C 220.007 1.16583 1.65085 0
M  V30 2361 C 220.328 -0.283933 1.92922 0
M  V30 2362 O 219.598 -1.19509 1.55224 0
M  V30 2363 H 218.178 0.428467 0.611903 0
M  V30 2364 H 220.84 1.61959 1.08422 0
M  V30 2365 H 219.936 1.71266 2.6091 0
M  V30 2366 N 220.237 -1.11381 1.11499 0
M  V30 2367 C 221.465 -1.86934 0.88675 0
M  V30 2368 C 221.88 -1.80195 -0.563476 0
M  V30 2369 O 221.237 -1.18367 -1.38908 0
M  V30 2370 C 221.288 -3.35722 1.34064 0
M  V30 2371 O 221.009 -3.4232 2.73401 0
M  V30 2372 C 222.51 -4.2818 1.14791 0
M  V30 2373 H 219.73 -0.591117 0.317523 0
M  V30 2374 H 222.274 -1.40865 1.48248 0
M  V30 2375 H 220.429 -3.79294 0.788355 0
M  V30 2376 H 220.843 -4.34971 2.93087 0
M  V30 2377 H 222.317 -5.30817 1.5145 0
M  V30 2378 H 222.794 -4.39113 0.0875279 0
M  V30 2379 H 223.4 -3.90402 1.68721 0
M  V30 2380 N 221.715 -0.905404 -1.28997 0
M  V30 2381 C 222.94 -0.549175 -1.99997 0
M  V30 2382 C 223.365 0.860276 -1.67275 0
M  V30 2383 O 222.723 1.57355 -0.900502 0
M  V30 2384 C 222.771 -0.755185 -3.52604 0
M  V30 2385 O 221.875 0.189692 -4.11964 0
M  V30 2386 H 221.216 -0.213899 -0.628604 0
M  V30 2387 H 223.746 -1.21856 -1.64354 0
M  V30 2388 H 223.756 -0.662045 -4.02593 0
M  V30 2389 H 222.431 -1.78271 -3.75755 0
M  V30 2390 H 221.008 0.0485257 -3.72868 0
M  V30 2391 N 223.193 1.4272 -0.668489 0
M  V30 2392 C 224.418 2.06484 -0.194758 0
M  V30 2393 C 224.843 1.49862 1.13679 0
M  V30 2394 O 224.201 0.614582 1.70565 0
M  V30 2395 C 224.249 3.60353 -0.133546 0
M  V30 2396 O 223.353 4.02464 0.899806 0
M  V30 2397 H 222.694 0.656137 -0.10188 0
M  V30 2398 H 225.224 1.82964 -0.915722 0
M  V30 2399 H 225.234 4.07976 0.0447041 0
M  V30 2400 H 223.909 4.00938 -1.1055 0
M  V30 2401 H 222.486 3.66402 0.693109 0
M  V30 2402 N 224.671 0.411399 1.52136 0
M  V30 2403 C 225.601 -0.404015 2.29978 0
M  V30 2404 C 226.582 -1.04412 1.34284 0
M  V30 2405 O 227.767 -1.0527 1.63192 0
M  V30 2406 C 224.897 -1.5197 3.12286 0
M  V30 2407 C 223.851 -1.00448 4.16046 0
M  V30 2408 C 223.177 -2.21393 4.86712 0
M  V30 2409 C 224.477 -0.0569336 5.22269 0
M  V30 2410 H 226.171 0.245529 2.98392 0
M  V30 2411 H 223.717 0.119525 1.43503 0
M  V30 2412 H 225.67 -2.09715 3.6551 0
M  V30 2413 H 224.394 -2.19716 2.41646 0
M  V30 2414 H 223.053 -0.449421 3.63835 0
M  V30 2415 H 222.701 -2.87699 4.12599 0
M  V30 2416 H 222.401 -1.87571 5.56858 0
M  V30 2417 H 223.925 -2.7974 5.4275 0
M  V30 2418 H 225.339 -0.54325 5.7072 0
M  V30 2419 H 223.736 0.192594 5.99791 0
M  V30 2420 H 224.806 0.887663 4.76706 0
M  V30 2421 N 226.149 -1.5696 0.141893 0
M  V30 2422 C 227.099 -2.13074 -0.811383 0
M  V30 2423 C 228.083 -1.05726 -1.21288 0
M  V30 2424 O 229.275 -1.31914 -1.18015 0
M  V30 2425 C 226.404 -2.75186 -2.0525 0
M  V30 2426 C 225.49 -3.8965 -1.67432 0
M  V30 2427 N 225.881 -4.95733 -1.0041 0
M  V30 2428 C 224.179 -4.00262 -1.96739 0
M  V30 2429 C 224.88 -5.75858 -0.822345 0
M  V30 2430 N 223.856 -5.26452 -1.3546 0
M  V30 2431 H 227.658 -2.92465 -0.290031 0
M  V30 2432 H 225.172 -1.6229 -0.0598218 0
M  V30 2433 H 227.169 -3.13745 -2.74535 0
M  V30 2434 H 225.829 -1.97266 -2.57907 0
M  V30 2435 H 226.84 -5.13607 -0.665441 0
M  V30 2436 H 223.517 -3.33412 -2.51282 0
M  V30 2437 H 224.907 -6.71254 -0.294496 0
M  V30 2438 N 227.627 0.131896 -1.57047 0
M  V30 2439 C 228.873 0.843179 -1.84441 0
M  V30 2440 C 229.206 1.80129 -0.725749 0
M  V30 2441 O 228.481 1.92624 0.269469 0
M  V30 2442 C 228.764 1.60442 -3.22382 0
M  V30 2443 C 228.617 0.666782 -4.4483 0
M  V30 2444 C 229.936 2.56354 -3.5773 0
M  V30 2445 H 227.055 0.305081 -0.670891 0
M  V30 2446 H 229.697 0.107839 -1.89694 0
M  V30 2447 H 227.847 2.23128 -3.18035 0
M  V30 2448 H 229.519 0.0497646 -4.61273 0
M  V30 2449 H 227.762 -0.022609 -4.33794 0
M  V30 2450 H 228.433 1.23579 -5.37989 0
M  V30 2451 H 230.909 2.0378 -3.62785 0
M  V30 2452 H 229.785 3.06657 -4.5525 0
M  V30 2453 H 230.046 3.38419 -2.84473 0
M  V30 2454 N 229.106 1.52395 0.401703 0
M  V30 2455 C 230.336 1.70429 1.1678 0
M  V30 2456 C 230.744 0.416702 1.84554 0
M  V30 2457 O 230.087 -0.617697 1.73003 0
M  V30 2458 C 230.149 2.78919 2.26814 0
M  V30 2459 C 229.813 4.20437 1.79113 0
M  V30 2460 C 230.81 5.04028 1.27482 0
M  V30 2461 C 228.495 4.66704 1.85722 0
M  V30 2462 C 230.489 6.31961 0.830913 0
M  V30 2463 C 228.176 5.94625 1.40942 0
M  V30 2464 C 229.174 6.77082 0.897128 0
M  V30 2465 O 228.862 8.02607 0.455822 0
M  V30 2466 H 228.594 0.574272 0.356634 0
M  V30 2467 H 231.148 1.99767 0.477724 0
M  V30 2468 H 229.378 2.44973 2.99207 0
M  V30 2469 H 231.067 2.8548 2.88541 0
M  V30 2470 H 231.833 4.69471 1.21744 0
M  V30 2471 H 227.712 4.0262 2.24539 0
M  V30 2472 H 231.256 6.96271 0.430368 0
M  V30 2473 H 227.153 6.28688 1.46362 0
M  V30 2474 H 227.921 8.16453 0.578457 0
M  V30 2475 N 230.584 -0.659388 1.43143 0
M  V30 2476 C 231.861 -1.41627 1.34912 0
M  V30 2477 C 232.241 -2.11099 -0.00607785 0
M  V30 2478 O 231.589 -2.04353 -1.02236 0
M  V30 2479 C 231.799 -2.40604 2.52805 0
M  V30 2480 C 233.147 -3.04789 2.95616 0
M  V30 2481 O 234.171 -2.50932 2.52807 0
M  V30 2482 O 233.03 -4.02421 3.69756 0
M  V30 2483 H 230.124 -0.63246 0.532844 0
M  V30 2484 H 232.67 -0.686814 1.5518 0
M  V30 2485 H 231.442 -1.88174 3.43083 0
M  V30 2486 H 231.065 -3.21009 2.34604 0
M  V30 2487 N 232.062 -1.29571 -0.897171 0
M  V30 2488 C 233.31 -1.17456 -1.64464 0
M  V30 2489 C 233.631 0.273698 -1.9307 0
M  V30 2490 O 232.901 1.18684 -1.55855 0
M  V30 2491 H 231.481 -0.431706 -0.609622 0
M  V30 2492 H 234.143 -1.62531 -1.07562 0
M  V30 2493 H 233.239 -1.72648 -2.59998 0
M  V30 2494 N 233.54 1.10788 -1.12088 0
M  V30 2495 C 234.487 2.17025 -0.785407 0
M  V30 2496 C 235.457 1.64265 0.246191 0
M  V30 2497 O 236.642 1.90412 0.121584 0
M  V30 2498 C 233.782 3.44249 -0.242177 0
M  V30 2499 C 232.895 4.1098 -1.33115 0
M  V30 2500 C 232.03 5.25911 -0.747741 0
M  V30 2501 C 231.069 5.84538 -1.81609 0
M  V30 2502 N 230.206 6.90853 -1.25167 0
M  V30 2503 H 235.046 2.45066 -1.69548 0
M  V30 2504 H 232.583 1.20297 -0.846582 0
M  V30 2505 H 234.541 4.17101 0.0908026 0
M  V30 2506 H 233.171 3.16571 0.631072 0
M  V30 2507 H 232.223 3.36133 -1.78097 0
M  V30 2508 H 233.535 4.50601 -2.13917 0
M  V30 2509 H 232.689 6.056 -0.365216 0
M  V30 2510 H 231.428 4.87614 0.0915188 0
M  V30 2511 H 230.433 5.03522 -2.20785 0
M  V30 2512 H 231.658 6.249 -2.6585 0
M  V30 2513 H 229.604 6.54562 -0.434174 0
M  V30 2514 H 229.521 7.29166 -1.99633 0
M  V30 2515 H 230.789 7.7433 -0.896259 0
M  V30 2516 N 235.018 0.912232 1.28515 0
M  V30 2517 C 236.265 0.544599 1.95039 0
M  V30 2518 C 236.593 -0.911435 1.71823 0
M  V30 2519 O 235.848 -1.66317 1.03137 0
M  V30 2520 C 236.147 0.798392 3.48368 0
M  V30 2521 C 235.813 2.23374 3.91682 0
M  V30 2522 C 234.475 2.62617 4.03219 0
M  V30 2523 C 236.827 3.16786 4.13879 0
M  V30 2524 C 234.155 3.94429 4.3433 0
M  V30 2525 C 236.507 4.48161 4.46469 0
M  V30 2526 C 235.171 4.8726 4.56217 0
M  V30 2527 H 234.441 0.199283 0.7137 0
M  V30 2528 H 237.088 1.15327 1.52879 0
M  V30 2529 H 235.393 0.106908 3.91654 0
M  V30 2530 H 237.09 0.493141 3.97956 0
M  V30 2531 H 233.68 1.91922 3.83228 0
M  V30 2532 H 237.864 2.87677 4.0442 0
M  V30 2533 H 233.12 4.24426 4.40082 0
M  V30 2534 H 237.294 5.20559 4.62592 0
M  V30 2535 H 234.921 5.89431 4.80078 0
M  V30 2536 N 236.496 -1.42363 0.676048 0
M  V30 2537 C 237.426 -2.33497 0.0124832 0
M  V30 2538 C 238.407 -1.50748 -0.787981 0
M  V30 2539 O 239.592 -1.79346 -0.744884 0
M  V30 2540 C 236.722 -3.34377 -0.938582 0
M  V30 2541 C 235.676 -4.27289 -0.246622 0
M  V30 2542 C 235.002 -5.18386 -1.31071 0
M  V30 2543 C 236.302 -5.14916 0.875125 0
M  V30 2544 H 237.996 -2.89233 0.773593 0
M  V30 2545 H 235.542 -1.39073 0.37346 0
M  V30 2546 H 237.495 -3.97044 -1.41188 0
M  V30 2547 H 236.219 -2.76947 -1.73113 0
M  V30 2548 H 234.878 -3.66018 0.206456 0
M  V30 2549 H 234.526 -4.57282 -2.09528 0
M  V30 2550 H 234.226 -5.81378 -0.852839 0
M  V30 2551 H 235.75 -5.83929 -1.78492 0
M  V30 2552 H 237.164 -5.71262 0.482983 0
M  V30 2553 H 235.561 -5.86747 1.25887 0
M  V30 2554 H 236.631 -4.53242 1.72335 0
M  V30 2555 N 237.974 -0.419461 -1.51915 0
M  V30 2556 C 238.937 0.389116 -2.25873 0
M  V30 2557 C 239.937 0.964924 -1.28631 0
M  V30 2558 O 241.127 0.842179 -1.52489 0
M  V30 2559 C 238.259 1.54874 -3.03689 0
M  V30 2560 H 239.452 -0.258799 -2.98781 0
M  V30 2561 H 237.005 -0.172209 -1.55348 0
M  V30 2562 H 237.74 2.23323 -2.35154 0
M  V30 2563 H 237.525 1.14223 -3.75094 0
M  V30 2564 H 239.015 2.12046 -3.59759 0
M  V30 2565 N 239.452 1.56882 -0.150215 0
M  V30 2566 C 240.868 1.58263 0.20617 0
M  V30 2567 C 241.068 1.16464 1.64434 0
M  V30 2568 O 240.124 0.866422 2.3717 0
M  V30 2569 C 241.437 3.00649 -0.0555025 0
M  V30 2570 C 242.985 3.12999 0.00795388 0
M  V30 2571 C 243.46 4.5744 -0.226429 0
M  V30 2572 N 244.951 4.62875 -0.173469 0
M  V30 2573 C 245.686 5.72454 -0.329288 0
M  V30 2574 N 245.182 6.90669 -0.543005 0
M  V30 2575 N 246.975 5.61467 -0.266666 0
M  V30 2576 H 239.126 1.82345 -1.08922 0
M  V30 2577 H 241.389 0.844149 -0.431413 0
M  V30 2578 H 241.095 3.3563 -1.05096 0
M  V30 2579 H 240.969 3.71337 0.66246 0
M  V30 2580 H 243.356 2.77857 0.993966 0
M  V30 2581 H 243.437 2.4479 -0.742388 0
M  V30 2582 H 243.081 4.93287 -1.20956 0
M  V30 2583 H 243.011 5.2378 0.544274 0
M  V30 2584 H 245.502 3.77898 -0.0130709 0
M  V30 2585 H 245.815 7.70045 -0.651922 0
M  V30 2586 H 244.16 6.92581 -0.579366 0
M  V30 2587 H 247.351 4.67992 -0.100441 0
M  V30 2588 H 247.524 6.46816 -0.391535 0
M  V30 2589 N 240.93 -0.123565 1.57115 0
M  V30 2590 C 242.176 -0.833386 1.84885 0
M  V30 2591 C 242.509 -1.79742 0.735292 0
M  V30 2592 O 241.784 -1.92764 -0.25925 0
M  V30 2593 C 242.067 -1.5873 3.23228 0
M  V30 2594 C 241.92 -0.643183 4.45178 0
M  V30 2595 C 243.239 -2.54453 3.59085 0
M  V30 2596 H 240.358 -0.301518 0.6725 0
M  V30 2597 H 243 -0.097778 1.89748 0
M  V30 2598 H 241.15 -2.21438 3.19214 0
M  V30 2599 H 242.822 -0.0253015 4.61293 0
M  V30 2600 H 241.065 0.0456139 4.33776 0
M  V30 2601 H 241.736 -1.20724 5.38637 0
M  V30 2602 H 244.212 -2.01853 3.63861 0
M  V30 2603 H 243.088 -3.04238 4.5687 0
M  V30 2604 H 243.349 -3.36906 2.86264 0
M  V30 2605 N 242.408 -1.52605 -0.393616 0
M  V30 2606 C 243.318 -1.79971 -1.50492 0
M  V30 2607 C 244.334 -0.686181 -1.59899 0
M  V30 2608 O 245.51 -0.973274 -1.76322 0
M  V30 2609 C 242.575 -1.95867 -2.86072 0
M  V30 2610 C 241.636 -3.19781 -2.86424 0
M  V30 2611 C 240.869 -3.34909 -4.15538 0
M  V30 2612 O 241.092 -2.54948 -5.10253 0
M  V30 2613 O 240.026 -4.28141 -4.23059 0
M  V30 2614 H 243.852 -2.74328 -1.30299 0
M  V30 2615 H 241.437 -1.3764 -0.581005 0
M  V30 2616 H 243.319 -2.08056 -3.66457 0
M  V30 2617 H 241.994 -1.04699 -3.063 0
M  V30 2618 H 240.901 -3.13038 -2.04837 0
M  V30 2619 H 242.234 -4.1078 -2.71147 0
M  V30 2620 N 243.887 0.651787 -1.4349 0
M  V30 2621 C 245.303 0.96762 -1.26922 0
M  V30 2622 C 245.503 2.00602 -0.189982 0
M  V30 2623 O 244.559 2.48793 0.431107 0
M  V30 2624 C 245.872 1.45052 -2.63401 0
M  V30 2625 C 247.42 1.5671 -2.70945 0
M  V30 2626 C 247.895 2.0839 -4.07845 0
M  V30 2627 N 249.386 2.1569 -4.09917 0
M  V30 2628 C 250.121 2.56804 -5.12679 0
M  V30 2629 N 249.617 2.97203 -6.25813 0
M  V30 2630 N 251.41 2.56756 -5.00033 0
M  V30 2631 H 243.561 -0.0353158 -2.12371 0
M  V30 2632 H 245.824 0.0467858 -0.946845 0
M  V30 2633 H 245.53 0.761926 -3.43348 0
M  V30 2634 H 245.404 2.42529 -2.88894 0
M  V30 2635 H 247.791 2.2467 -1.9133 0
M  V30 2636 H 247.872 0.57662 -2.49216 0
M  V30 2637 H 247.516 1.41031 -4.87927 0
M  V30 2638 H 247.446 3.08271 -4.26938 0
M  V30 2639 H 249.937 1.87237 -3.28254 0
M  V30 2640 H 250.25 3.27328 -7.00055 0
M  V30 2641 H 248.595 2.95004 -6.29283 0
M  V30 2642 H 251.786 2.24572 -4.10713 0
M  V30 2643 H 251.959 2.88475 -5.80247 0
M  V30 2644 N 245.365 1.30045 0.890287 0
M  V30 2645 C 246.611 1.18737 1.64406 0
M  V30 2646 C 246.944 -0.258525 1.92472 0
M  V30 2647 O 246.219 -1.18562 1.54186 0
M  V30 2648 C 246.502 2.01087 2.98724 0
M  V30 2649 C 246.355 3.53867 2.77665 0
M  V30 2650 C 247.674 1.84457 3.9958 0
M  V30 2651 H 244.793 0.432698 0.596608 0
M  V30 2652 H 247.435 1.5962 1.0306 0
M  V30 2653 H 245.585 1.66349 3.51084 0
M  V30 2654 H 247.257 3.98637 2.32133 0
M  V30 2655 H 245.5 3.78318 2.12269 0
M  V30 2656 H 246.171 4.06772 3.7315 0
M  V30 2657 H 248.647 2.14817 3.56361 0
M  V30 2658 H 247.523 2.44411 4.91482 0
M  V30 2659 H 247.784 0.802276 4.3476 0
M  V30 2660 N 246.843 -1.10192 1.12674 0
M  V30 2661 C 248.092 -1.81573 0.8783 0
M  V30 2662 C 248.405 -1.86249 -0.597557 0
M  V30 2663 O 249.611 -2.5386 -0.962681 0
M  V30 2664 C 248.067 -3.26149 1.52167 0
M  V30 2665 C 247.675 -3.29763 3.03249 0
M  V30 2666 C 249.419 -4.0234 1.3536 0
M  V30 2667 C 247.326 -4.68815 3.60508 0
M  V30 2668 H 246.256 -0.680394 0.324931 0
M  V30 2669 H 248.907 -1.23902 1.35353 0
M  V30 2670 H 247.289 -3.83832 0.974104 0
M  V30 2671 H 248.463 -2.8189 3.6452 0
M  V30 2672 H 246.778 -2.67059 3.19481 0
M  V30 2673 H 249.375 -5.05058 1.75559 0
M  V30 2674 H 249.718 -4.15235 0.297554 0
M  V30 2675 H 250.251 -3.51079 1.87052 0
M  V30 2676 H 246.99 -4.61121 4.65884 0
M  V30 2677 H 246.51 -5.17045 3.04014 0
M  V30 2678 H 248.189 -5.37785 3.59717 0
M  V30 2679 N 248.321 -0.919034 -1.28029 0
M  V30 2680 C 249.567 -0.555757 -1.95036 0
M  V30 2681 C 249.9 0.899198 -1.72128 0
M  V30 2682 O 249.175 1.64023 -1.04531 0
M  V30 2683 C 249.458 -0.872024 -3.49382 0
M  V30 2684 C 249.311 -2.3801 -3.81669 0
M  V30 2685 C 250.63 -0.37185 -4.38526 0
M  V30 2686 H 247.749 -0.203386 -0.708381 0
M  V30 2687 H 250.391 -1.14924 -1.51303 0
M  V30 2688 H 248.541 -0.366946 -3.86763 0
M  V30 2689 H 250.213 -2.9562 -3.54128 0
M  V30 2690 H 248.456 -2.83289 -3.28526 0
M  V30 2691 H 249.127 -2.55192 -4.8947 0
M  V30 2692 H 251.603 -0.804602 -4.08247 0
M  V30 2693 H 250.479 -0.622173 -5.45362 0
M  V30 2694 H 250.74 0.727934 -4.36066 0
M  V30 2695 N 249.799 1.42003 -0.683588 0
M  V30 2696 C 251.045 2.01712 -0.209825 0
M  V30 2697 C 251.378 1.53968 1.18353 0
M  V30 2698 O 250.653 0.745661 1.79639 0
M  V30 2699 C 250.936 3.59202 -0.254197 0
M  V30 2700 C 250.789 4.17102 -1.68363 0
M  V30 2701 C 252.108 4.38344 0.392709 0
M  V30 2702 H 249.227 0.732891 -0.0777189 0
M  V30 2703 H 251.869 1.68909 -0.87004 0
M  V30 2704 H 250.019 3.87278 0.307954 0
M  V30 2705 H 251.691 3.99946 -2.29871 0
M  V30 2706 H 249.934 3.72597 -2.22157 0
M  V30 2707 H 250.605 5.26249 -1.6663 0
M  V30 2708 H 253.081 4.16011 -0.0859162 0
M  V30 2709 H 251.957 5.47901 0.331063 0
M  V30 2710 H 252.218 4.16887 1.47164 0
M  V30 2711 N 251.277 0.427512 1.51691 0
M  V30 2712 C 252.502 -0.143601 2.06902 0
M  V30 2713 C 252.927 -1.36536 1.29382 0
M  V30 2714 O 252.285 -1.78289 0.329043 0
M  V30 2715 C 252.333 -0.454207 3.57728 0
M  V30 2716 O 251.437 -1.54228 3.82475 0
M  V30 2717 H 250.778 -0.00617128 0.663971 0
M  V30 2718 H 253.308 0.606014 1.95419 0
M  V30 2719 H 253.318 -0.707525 4.01818 0
M  V30 2720 H 251.993 0.438812 4.13579 0
M  V30 2721 H 250.57 -1.2797 3.50254 0
M  V30 2722 N 252.755 -1.56801 0.158532 0
M  V30 2723 C 253.688 -2.13148 -0.815065 0
M  V30 2724 C 254.666 -1.0581 -1.23462 0
M  V30 2725 O 255.85 -1.3371 -1.32868 0
M  V30 2726 C 252.977 -2.6606 -2.09594 0
M  V30 2727 C 252.023 -3.85651 -1.82141 0
M  V30 2728 S 252.856 -5.26041 -1.00207 0
M  V30 2729 C 254.012 -5.8235 -2.29389 0
M  V30 2730 H 254.245 -2.95396 -0.335937 0
M  V30 2731 H 251.778 -1.54299 -0.0559391 0
M  V30 2732 H 253.736 -2.97195 -2.8317 0
M  V30 2733 H 252.397 -1.83921 -2.54621 0
M  V30 2734 H 251.59 -4.20958 -2.77147 0
M  V30 2735 H 251.192 -3.55338 -1.16667 0
M  V30 2736 H 253.484 -5.94485 -3.24952 0
M  V30 2737 H 254.427 -6.79688 -1.9857 0
M  V30 2738 H 254.835 -5.10675 -2.40564 0
M  V30 2739 N 254.233 0.115231 -1.57178 0
M  V30 2740 C 255.181 1.16014 -2.01602 0
M  V30 2741 C 256.175 1.42653 -0.913587 0
M  V30 2742 O 257.381 1.42571 -1.09879 0
M  V30 2743 H 253.756 0.391252 -0.642204 0
M  V30 2744 H 255.727 0.758998 -2.88586 0
M  V30 2745 C 254.476 2.47767 -2.4394 0
M  V30 2746 H 253.799 2.28108 -3.28339 0
M  V30 2747 H 255.239 3.19432 -2.78818 0
M  V30 2748 C 253.698 3.10617 -1.30455 0
M  V30 2749 O 254.228 3.96846 -0.622585 0
M  V30 2750 N 252.434 2.70553 -1.06064 0
M  V30 2751 H 251.981 2.00527 -1.61699 0
M  V30 2752 H 251.939 3.12934 -0.303284 0
M  V30 2753 N 255.711 1.52812 0.385517 0
M  V30 2754 C 256.941 1.71658 1.14966 0
M  V30 2755 C 257.349 0.436253 1.84102 0
M  V30 2756 O 256.692 -0.599313 1.73649 0
M  V30 2757 C 256.754 2.81309 2.23843 0
M  V30 2758 C 256.418 4.22313 1.74644 0
M  V30 2759 C 257.415 5.05352 1.22129 0
M  V30 2760 C 255.1 4.68648 1.80761 0
M  V30 2761 C 257.094 6.32807 0.763838 0
M  V30 2762 C 254.781 5.96086 1.34627 0
M  V30 2763 C 255.779 6.77996 0.825264 0
M  V30 2764 O 255.467 8.03045 0.370669 0
M  V30 2765 H 255.199 0.578022 0.350523 0
M  V30 2766 H 257.753 2.00263 0.456509 0
M  V30 2767 H 255.983 2.48133 2.96592 0
M  V30 2768 H 257.672 2.88524 2.85497 0
M  V30 2769 H 258.438 4.70736 1.16758 0
M  V30 2770 H 254.317 4.04979 2.20256 0
M  V30 2771 H 257.861 6.96689 0.356494 0
M  V30 2772 H 253.758 6.30205 1.39686 0
M  V30 2773 H 254.526 8.17021 0.491829 0
M  V30 2774 N 257.189 -0.644168 1.43834 0
M  V30 2775 C 258.605 -0.960875 1.27434 0
M  V30 2776 C 258.805 -2.00499 0.200618 0
M  V30 2777 O 257.861 -2.49018 -0.417906 0
M  V30 2778 C 259.174 -1.43653 2.64167 0
M  V30 2779 C 260.722 -1.55271 2.71772 0
M  V30 2780 C 261.197 -2.06224 4.08944 0
M  V30 2781 N 262.688 -2.13513 4.11055 0
M  V30 2782 C 263.423 -2.54081 5.14033 0
M  V30 2783 N 262.919 -2.9388 6.27381 0
M  V30 2784 N 264.712 -2.54101 5.01387 0
M  V30 2785 H 256.863 0.0465779 2.12349 0
M  V30 2786 H 259.126 -0.0417638 0.94708 0
M  V30 2787 H 258.832 -0.743706 3.43747 0
M  V30 2788 H 258.706 -2.40993 2.90176 0
M  V30 2789 H 261.093 -2.23653 1.92519 0
M  V30 2790 H 261.174 -0.563395 2.49519 0
M  V30 2791 H 260.818 -1.38441 4.88668 0
M  V30 2792 H 260.748 -3.06003 4.28567 0
M  V30 2793 H 263.239 -1.85493 3.29242 0
M  V30 2794 H 263.552 -3.2361 7.01781 0
M  V30 2795 H 261.897 -2.91663 6.30839 0
M  V30 2796 H 265.088 -2.22391 4.11898 0
M  V30 2797 H 265.261 -2.85394 5.81768 0
M  V30 2798 N 258.668 -1.30515 -0.883378 0
M  V30 2799 C 259.914 -1.19607 -1.63774 0
M  V30 2800 C 260.247 0.248314 -1.92606 0
M  V30 2801 O 259.522 1.17742 -1.54813 0
M  V30 2802 C 259.805 -2.02669 -2.97653 0
M  V30 2803 C 259.658 -3.55335 -2.75784 0
M  V30 2804 C 260.977 -1.86573 -3.98596 0
M  V30 2805 H 258.096 -0.435856 -0.594305 0
M  V30 2806 H 260.738 -1.60165 -1.02212 0
M  V30 2807 H 258.888 -1.68208 -3.50197 0
M  V30 2808 H 260.56 -3.99863 -2.30016 0
M  V30 2809 H 258.803 -3.79438 -2.1026 0
M  V30 2810 H 259.474 -4.08745 -3.70988 0
M  V30 2811 H 261.95 -2.16703 -3.55217 0
M  V30 2812 H 260.826 -2.47014 -4.90179 0
M  V30 2813 H 261.087 -0.825321 -4.34328 0
M  V30 2814 N 260.146 1.09593 -1.13257 0
M  V30 2815 C 261.394 1.81375 -0.891492 0
M  V30 2816 C 261.715 1.86049 0.584009 0
M  V30 2817 O 260.985 1.34481 1.42449 0
M  V30 2818 H 259.565 0.671708 -0.326828 0
M  V30 2819 H 262.227 1.3256 -1.42877 0
M  V30 2820 H 261.323 2.84612 -1.28071 0
M  V30 2821 N 261.624 0.925811 1.2754 0
M  V30 2822 C 262.587 0.428129 2.25166 0
M  V30 2823 C 263.587 -0.452261 1.54309 0
M  V30 2824 O 264.777 -0.253608 1.72344 0
M  V30 2825 C 261.909 -0.384749 3.38722 0
M  V30 2826 H 263.102 1.29066 2.70706 0
M  V30 2827 H 260.655 0.706323 1.3943 0
M  V30 2828 H 261.39 -1.26618 2.98561 0
M  V30 2829 H 261.175 0.246454 3.91325 0
M  V30 2830 H 262.665 -0.723389 4.11287 0
M  V30 2831 N 263.102 -1.41638 0.69111 0
M  V30 2832 C 264.032 -2.3347 0.037248 0
M  V30 2833 C 265.013 -1.51575 -0.771947 0
M  V30 2834 O 266.198 -1.80126 -0.72582 0
M  V30 2835 C 263.328 -3.35354 -0.903064 0
M  V30 2836 C 262.282 -4.27526 -0.201288 0
M  V30 2837 C 261.608 -5.19747 -1.25565 0
M  V30 2838 C 262.908 -5.13959 0.929689 0
M  V30 2839 H 264.602 -2.88397 0.804227 0
M  V30 2840 H 262.148 -1.38669 0.388189 0
M  V30 2841 H 264.101 -3.98519 -1.36969 0
M  V30 2842 H 262.825 -2.78767 -1.70166 0
M  V30 2843 H 261.484 -3.65779 0.245265 0
M  V30 2844 H 261.132 -4.59479 -2.04666 0
M  V30 2845 H 260.832 -5.8225 -0.791128 0
M  V30 2846 H 262.356 -5.85789 -1.72288 0
M  V30 2847 H 263.77 -5.70718 0.543546 0
M  V30 2848 H 262.167 -5.85379 1.32103 0
M  V30 2849 H 263.237 -4.51389 1.77133 0
M  V30 2850 N 264.58 -0.43555 -1.51462 0
M  V30 2851 C 265.828 0.131254 -2.01673 0
M  V30 2852 C 266.149 1.43368 -1.32177 0
M  V30 2853 O 265.419 1.90524 -0.455769 0
M  V30 2854 H 263.999 0.0514954 -0.745223 0
M  V30 2855 H 266.661 -0.577847 -1.86137 0
M  V30 2856 H 265.757 0.308446 -3.10572 0
M  V30 2857 N 266.058 1.56714 -0.166846 0
M  V30 2858 C 267.305 1.96747 0.479252 0
M  V30 2859 C 267.633 1.05263 1.63554 0
M  V30 2860 O 266.888 0.0858098 1.95512 0
M  V30 2861 C 267.187 3.42889 1.00806 0
M  V30 2862 C 266.853 4.50889 -0.0318574 0
M  V30 2863 C 265.515 4.8015 -0.317675 0
M  V30 2864 C 267.867 5.15949 -0.737956 0
M  V30 2865 C 265.195 5.71772 -1.31506 0
M  V30 2866 C 267.547 6.08647 -1.72429 0
M  V30 2867 C 266.211 6.36277 -2.0176 0
M  V30 2868 H 265.481 0.719949 0.175371 0
M  V30 2869 H 268.128 1.89756 -0.257864 0
M  V30 2870 H 266.433 3.4681 1.82291 0
M  V30 2871 H 268.13 3.71203 1.51689 0
M  V30 2872 H 264.72 4.28128 0.201088 0
M  V30 2873 H 268.904 4.93458 -0.530351 0
M  V30 2874 H 264.16 5.91465 -1.54853 0
M  V30 2875 H 268.334 6.58129 -2.27682 0
M  V30 2876 H 265.961 7.07075 -2.79194 0
M  V30 2877 N 267.536 -0.106894 1.57237 0
M  V30 2878 C 268.466 -1.13148 2.04254 0
M  V30 2879 C 269.447 -1.42476 0.929224 0
M  V30 2880 O 270.632 -1.52709 1.19973 0
M  V30 2881 C 267.762 -2.4545 2.45706 0
M  V30 2882 C 266.716 -2.30558 3.60592 0
M  V30 2883 C 266.042 -3.67931 3.87983 0
M  V30 2884 C 267.342 -1.75597 4.91897 0
M  V30 2885 H 269.036 -0.740374 2.90101 0
M  V30 2886 H 266.582 -0.354696 1.39563 0
M  V30 2887 H 268.535 -3.17389 2.77205 0
M  V30 2888 H 267.259 -2.86475 1.56843 0
M  V30 2889 H 265.918 -1.61067 3.29322 0
M  V30 2890 H 265.566 -4.06462 2.96306 0
M  V30 2891 H 265.266 -3.58817 4.65322 0
M  V30 2892 H 266.79 -4.41356 4.21945 0
M  V30 2893 H 268.204 -2.37364 5.21854 0
M  V30 2894 H 266.601 -1.77272 5.73319 0
M  V30 2895 H 267.671 -0.714451 4.79608 0
M  V30 2896 N 269.014 -1.53014 -0.377408 0
M  V30 2897 C 269.977 -1.77957 -1.44444 0
M  V30 2898 C 270.977 -0.649763 -1.47087 0
M  V30 2899 O 272.167 -0.917897 -1.48055 0
M  V30 2900 C 269.299 -1.89089 -2.83651 0
M  V30 2901 H 270.492 -2.73243 -1.23606 0
M  V30 2902 H 268.045 -1.43912 -0.609844 0
M  V30 2903 H 268.78 -0.958293 -3.09818 0
M  V30 2904 H 268.565 -2.71254 -2.83132 0
M  V30 2905 H 270.055 -2.1002 -3.60945 0
M  V30 2906 N 270.492 0.636531 -1.44174 0
M  V30 2907 C 271.422 1.76003 -1.53444 0
M  V30 2908 C 272.403 1.65619 -0.387841 0
M  V30 2909 O 273.588 1.84461 -0.607257 0
M  V30 2910 C 270.718 3.14511 -1.4731 0
M  V30 2911 C 269.672 3.39677 -2.60391 0
M  V30 2912 C 268.998 4.78159 -2.39308 0
M  V30 2913 C 270.298 3.32772 -4.02567 0
M  V30 2914 H 271.992 1.68501 -2.47483 0
M  V30 2915 H 269.538 0.809237 -1.19111 0
M  V30 2916 H 271.491 3.92878 -1.52397 0
M  V30 2917 H 270.215 3.22783 -0.49785 0
M  V30 2918 H 268.874 2.63688 -2.54684 0
M  V30 2919 H 268.522 4.83128 -1.39988 0
M  V30 2920 H 268.222 4.95956 -3.15122 0
M  V30 2921 H 269.746 5.58762 -2.46205 0
M  V30 2922 H 271.16 4.01051 -4.09672 0
M  V30 2923 H 269.557 3.62104 -4.7854 0
M  V30 2924 H 270.627 2.30669 -4.2652 0
M  V30 2925 N 271.97 1.30982 0.876444 0
M  V30 2926 C 273.381 1.18277 1.44456 0
M  V30 2927 C 273.732 -0.213265 1.95037 0
M  V30 2928 O 272.857 -1.11057 1.85729 0
M  V30 2929 C 273.452 2.1411 2.62569 0
M  V30 2930 C 272.011 2.05358 3.15444 0
M  V30 2931 C 271.158 2.03706 1.88146 0
M  V30 2932 H 274.109 1.43127 0.685584 0
M  V30 2933 H 274.13 1.72692 3.39054 0
M  V30 2934 H 273.642 3.15706 2.25724 0
M  V30 2935 H 271.743 1.06934 3.56926 0
M  V30 2936 H 271.856 2.94156 3.78166 0
M  V30 2937 H 270.22 1.48629 2.06837 0
M  V30 2938 H 271.003 3.07047 1.53547 0
M  V30 2939 N 273.449 -1.08991 1.13837 0
M  V30 2940 C 274.697 -1.80899 0.901098 0
M  V30 2941 C 275.018 -1.86356 -0.574134 0
M  V30 2942 O 274.288 -1.35235 -1.41733 0
M  V30 2943 H 272.868 -0.669966 0.330386 0
M  V30 2944 H 275.53 -1.318 1.43578 0
M  V30 2945 H 274.626 -2.83929 1.29578 0
M  V30 2946 N 274.927 -0.932562 -1.27047 0
M  V30 2947 C 275.875 -0.42603 -2.28665 0
M  V30 2948 C 276.869 0.49219 -1.62092 0
M  V30 2949 O 278.075 0.371355 -1.76128 0
M  V30 2950 H 274.45 -0.119213 -0.742491 0
M  V30 2951 H 276.421 -1.29579 -2.68797 0
M  V30 2952 C 275.17 0.301426 -3.46391 0
M  V30 2953 H 274.493 -0.39595 -3.97834 0
M  V30 2954 H 275.933 0.6202 -4.1944 0
M  V30 2955 C 274.392 1.51616 -3.00856 0
M  V30 2956 O 274.922 2.61476 -3.04948 0
M  V30 2957 N 273.128 1.36969 -2.56296 0
M  V30 2958 H 272.675 0.475873 -2.53166 0
M  V30 2959 H 272.633 2.18368 -2.26192 0
M  V30 2960 N 276.405 1.4127 -0.698611 0
M  V30 2961 C 277.816 1.84187 -0.305289 0
M  V30 2962 C 278.167 1.58449 1.15708 0
M  V30 2963 O 277.292 1.05651 1.88856 0
M  V30 2964 C 277.887 3.3435 -0.547314 0
M  V30 2965 C 276.446 3.75826 -0.207878 0
M  V30 2966 C 275.593 2.64647 -0.828099 0
M  V30 2967 H 278.544 1.30778 -0.89904 0
M  V30 2968 H 278.565 3.8001 0.192998 0
M  V30 2969 H 278.077 3.53051 -1.61172 0
M  V30 2970 H 276.178 3.62725 0.852143 0
M  V30 2971 H 276.291 4.74462 -0.665021 0
M  V30 2972 H 274.655 2.53395 -0.257458 0
M  V30 2973 H 275.438 2.86165 -1.89643 0
M  V30 2974 N 277.883 0.443576 1.51229 0
M  V30 2975 C 278.793 -0.370721 2.31652 0
M  V30 2976 C 279.809 -1.02186 1.40833 0
M  V30 2977 O 280.985 -1.01586 1.73903 0
M  V30 2978 C 278.05 -1.45376 3.14749 0
M  V30 2979 C 277.111 -0.822099 4.21355 0
M  V30 2980 C 276.344 -1.85353 5.0048 0
M  V30 2981 O 276.567 -3.07656 4.80316 0
M  V30 2982 O 275.501 -1.4406 5.84406 0
M  V30 2983 H 279.327 0.286002 3.0235 0
M  V30 2984 H 276.912 0.20598 1.47973 0
M  V30 2985 H 278.794 -2.08173 3.66391 0
M  V30 2986 H 277.469 -2.09445 2.46809 0
M  V30 2987 H 276.376 -0.155909 3.73775 0
M  V30 2988 H 277.709 -0.224797 4.91686 0
M  V30 2989 N 279.361 -1.56624 0.175154 0
M  V30 2990 C 280.324 -2.16934 -0.739738 0
M  V30 2991 C 281.324 -1.11842 -1.15533 0
M  V30 2992 O 282.514 -1.37335 -1.07167 0
M  V30 2993 C 279.646 -2.75531 -2.00738 0
M  V30 2994 H 280.839 -2.99131 -0.214639 0
M  V30 2995 H 278.392 -1.56123 -0.0744197 0
M  V30 2996 H 279.127 -1.97078 -2.57548 0
M  V30 2997 H 278.912 -3.52444 -1.71831 0
M  V30 2998 H 280.402 -3.21904 -2.66021 0
M  V30 2999 N 280.839 0.0985539 -1.57292 0
M  V30 3000 C 282.25 0.653457 -1.74891 0
M  V30 3001 C 282.601 1.7929 -0.796838 0
M  V30 3002 O 281.726 2.16385 0.0254886 0
M  V30 3003 C 282.321 1.19216 -3.17133 0
M  V30 3004 C 280.88 1.69316 -3.36168 0
M  V30 3005 C 280.027 0.601294 -2.70702 0
M  V30 3006 H 282.978 -0.127497 -1.58187 0
M  V30 3007 H 282.999 2.06154 -3.19814 0
M  V30 3008 H 282.511 0.362635 -3.86402 0
M  V30 3009 H 280.612 2.5468 -2.71972 0
M  V30 3010 H 280.725 1.78853 -4.44464 0
M  V30 3011 H 279.089 1.0399 -2.32504 0
M  V30 3012 H 279.872 -0.217592 -3.4261 0
M  V30 3013 N 282.317 1.53212 0.369288 0
M  V30 3014 C 283.565 1.68881 1.11012 0
M  V30 3015 C 283.886 0.441285 1.89941 0
M  V30 3016 O 283.156 -0.544623 1.88177 0
M  V30 3017 H 281.736 0.622569 0.412816 0
M  V30 3018 H 284.398 1.90391 0.416802 0
M  V30 3019 H 283.494 2.54822 1.80201 0
M  V30 3020 N 283.795 -0.628877 1.44509 0
M  V30 3021 C 284.743 -1.76193 1.51852 0
M  V30 3022 C 285.737 -1.64849 0.390042 0
M  V30 3023 O 286.943 -1.709 0.565082 0
M  V30 3024 H 283.318 -0.581728 0.476547 0
M  V30 3025 H 285.289 -1.67123 2.47209 0
M  V30 3026 C 284.038 -3.14533 1.48204 0
M  V30 3027 H 283.361 -3.23911 2.34354 0
M  V30 3028 H 284.801 -3.93701 1.57402 0
M  V30 3029 C 283.26 -3.36287 0.203142 0
M  V30 3030 O 283.79 -3.9509 -0.725745 0
M  V30 3031 N 281.996 -2.90408 0.105563 0
M  V30 3032 H 281.543 -2.42739 0.862301 0
M  V30 3033 H 281.501 -3.05339 -0.749371 0
M  V30 3034 N 285.273 -1.31445 -0.869486 0
M  V30 3035 C 286.206 -1.13465 -1.97992 0
M  V30 3036 C 287.184 -0.0380291 -1.62556 0
M  V30 3037 O 288.368 -0.194544 -1.87493 0
M  V30 3038 C 285.495 -0.733822 -3.30655 0
M  V30 3039 C 284.541 -1.83356 -3.85075 0
M  V30 3040 S 285.374 -3.43909 -4.10472 0
M  V30 3041 C 286.53 -3.05763 -5.46132 0
M  V30 3042 H 286.763 -2.07471 -2.1294 0
M  V30 3043 H 284.296 -1.15936 -1.01972 0
M  V30 3044 H 286.254 -0.509306 -4.07328 0
M  V30 3045 H 284.915 0.187123 -3.13542 0
M  V30 3046 H 284.108 -1.50574 -4.80982 0
M  V30 3047 H 283.71 -2.01315 -3.15195 0
M  V30 3048 H 286.002 -2.54686 -6.27807 0
M  V30 3049 H 286.945 -4.00635 -5.83864 0
M  V30 3050 H 287.353 -2.43192 -5.09429 0
M  V30 3051 N 286.751 1.08385 -1.14413 0
M  V30 3052 C 287.999 1.80419 -0.910679 0
M  V30 3053 C 288.32 1.86658 0.564243 0
M  V30 3054 O 287.59 1.35985 1.41014 0
M  V30 3055 H 286.17 0.668204 -0.333934 0
M  V30 3056 H 288.832 1.31037 -1.44275 0
M  V30 3057 H 287.928 2.83238 -1.31082 0
M  V30 3058 N 288.23 0.939286 1.26551 0
M  V30 3059 C 289.16 0.465044 2.28822 0
M  V30 3060 C 290.141 -0.480692 1.63167 0
M  V30 3061 O 291.326 -0.382955 1.90387 0
M  V30 3062 C 288.456 -0.27234 3.46231 0
M  V30 3063 C 287.41 0.58666 4.2396 0
M  V30 3064 C 286.736 -0.280573 5.33963 0
M  V30 3065 C 288.036 1.85704 4.88171 0
M  V30 3066 H 289.73 1.31979 2.68741 0
M  V30 3067 H 287.276 0.636061 1.29191 0
M  V30 3068 H 289.229 -0.615133 4.16886 0
M  V30 3069 H 287.953 -1.16121 3.0526 0
M  V30 3070 H 286.612 0.91232 3.55067 0
M  V30 3071 H 286.26 -1.16874 4.89234 0
M  V30 3072 H 285.96 0.29076 5.8688 0
M  V30 3073 H 287.484 -0.618678 6.07458 0
M  V30 3074 H 288.898 1.58161 5.51052 0
M  V30 3075 H 287.295 2.37279 5.51197 0
M  V30 3076 H 288.365 2.56957 4.11219 0
M  V30 3077 N 289.708 -1.40897 0.706093 0
M  V30 3078 C 290.955 -2.01054 0.241531 0
M  V30 3079 C 291.283 -1.55956 -1.16223 0
M  V30 3080 O 290.538 -0.766336 -1.80072 0
M  V30 3081 C 290.837 -3.5646 0.259099 0
M  V30 3082 C 290.503 -4.21106 1.61184 0
M  V30 3083 C 289.165 -4.38479 1.98216 0
M  V30 3084 C 291.517 -4.57256 2.50132 0
M  V30 3085 C 288.845 -4.89282 3.2376 0
M  V30 3086 C 291.197 -5.09454 3.7502 0
M  V30 3087 C 289.861 -5.25037 4.12181 0
M  V30 3088 H 289.131 -0.73571 0.0883825 0
M  V30 3089 H 291.778 -1.68645 0.907257 0
M  V30 3090 H 290.083 -3.88721 -0.490189 0
M  V30 3091 H 291.78 -4.00826 -0.11804 0
M  V30 3092 H 288.37 -4.07966 1.31384 0
M  V30 3093 H 292.554 -4.43479 2.228 0
M  V30 3094 H 287.81 -4.99531 3.52532 0
M  V30 3095 H 291.984 -5.36404 4.44121 0
M  V30 3096 H 289.611 -5.64164 5.09532 0
M  V30 3097 N 291.186 -0.45159 -1.50991 0
M  V30 3098 C 292.463 0.170707 -1.94854 0
M  V30 3099 C 292.843 1.58788 -1.39103 0
M  V30 3100 O 292.191 2.20913 -0.583921 0
M  V30 3101 C 292.401 0.133929 -3.48743 0
M  V30 3102 C 293.749 0.33248 -4.23296 0
M  V30 3103 O 294.773 0.211403 -3.55572 0
M  V30 3104 O 293.632 0.57486 -5.43468 0
M  V30 3105 H 290.726 0.122264 -0.817912 0
M  V30 3106 H 293.272 -0.510594 -1.61836 0
M  V30 3107 H 292.044 -0.856283 -3.81816 0
M  V30 3108 H 291.667 0.857529 -3.88242 0
M  V30 3109 N 292.664 1.56529 -0.183458 0
M  V30 3110 C 293.596 2.15747 0.773697 0
M  V30 3111 C 294.609 1.1162 1.1851 0
M  V30 3112 O 295.798 1.3876 1.12285 0
M  V30 3113 C 292.898 2.6952 2.05456 0
M  V30 3114 C 292.071 3.98429 1.8048 0
M  V30 3115 C 291.13 4.37145 2.92901 0
M  V30 3116 O 290.156 5.04791 2.6301 0
M  V30 3117 N 291.358 3.99695 4.2098 0
M  V30 3118 H 294.123 2.98505 0.26736 0
M  V30 3119 H 291.684 1.619 -0.0010878 0
M  V30 3120 H 293.676 2.92412 2.79781 0
M  V30 3121 H 292.246 1.91282 2.47245 0
M  V30 3122 H 291.466 3.8379 0.899947 0
M  V30 3123 H 292.754 4.82597 1.61175 0
M  V30 3124 H 292.152 3.4526 4.48121 0
M  V30 3125 H 290.709 4.27562 4.9197 0
M  V30 3126 N 294.142 -0.090211 1.57342 0
M  V30 3127 C 295.074 -1.13541 1.99101 0
M  V30 3128 C 296.087 -1.3604 0.894258 0
M  V30 3129 O 297.276 -1.34606 1.17233 0
M  V30 3130 C 294.376 -2.49001 2.29895 0
M  V30 3131 C 293.549 -2.46712 3.61182 0
M  V30 3132 C 292.608 -3.64136 3.79857 0
M  V30 3133 O 291.634 -3.46405 4.51655 0
M  V30 3134 N 292.836 -4.83802 3.20806 0
M  V30 3135 H 295.601 -0.779942 2.89373 0
M  V30 3136 H 293.162 -0.279125 1.59476 0
M  V30 3137 H 295.154 -3.26166 2.39578 0
M  V30 3138 H 293.724 -2.76619 1.45605 0
M  V30 3139 H 292.944 -1.55058 3.62423 0
M  V30 3140 H 294.232 -2.42265 4.4742 0
M  V30 3141 H 293.63 -5.01112 2.62494 0
M  V30 3142 H 292.187 -5.58543 3.35966 0
M  V30 3143 N 295.62 -1.53406 -0.361157 0
M  V30 3144 C 296.55 -1.83136 -1.44857 0
M  V30 3145 C 297.531 -0.685174 -1.5569 0
M  V30 3146 O 298.716 -0.93544 -1.70186 0
M  V30 3147 C 295.846 -2.02522 -2.82138 0
M  V30 3148 C 294.8 -3.18302 -2.86126 0
M  V30 3149 C 294.126 -3.22989 -4.26125 0
M  V30 3150 C 295.426 -4.56796 -2.53248 0
M  V30 3151 H 297.12 -2.74201 -1.20226 0
M  V30 3152 H 294.666 -1.31938 -0.576922 0
M  V30 3153 H 296.619 -2.21904 -3.58241 0
M  V30 3154 H 295.343 -1.08172 -3.08166 0
M  V30 3155 H 294.002 -2.98747 -2.12475 0
M  V30 3156 H 293.65 -2.26267 -4.49235 0
M  V30 3157 H 293.35 -4.00781 -4.29708 0
M  V30 3158 H 294.874 -3.44559 -5.04094 0
M  V30 3159 H 296.288 -4.7631 -3.19064 0
M  V30 3160 H 294.685 -5.36862 -2.68141 0
M  V30 3161 H 295.755 -4.61606 -1.48484 0
M  V30 3162 N 297.098 0.621204 -1.44841 0
M  V30 3163 C 298.061 1.71459 -1.521 0
M  V30 3164 C 299.061 1.55696 -0.401933 0
M  V30 3165 O 300.251 1.61011 -0.664925 0
M  V30 3166 C 297.383 3.10624 -1.40447 0
M  V30 3167 H 298.576 1.66394 -2.49506 0
M  V30 3168 H 296.129 0.835745 -1.3208 0
M  V30 3169 H 296.864 3.21277 -0.441737 0
M  V30 3170 H 296.649 3.23473 -2.21602 0
M  V30 3171 H 298.139 3.90293 -1.4853 0
M  V30 3172 N 298.576 1.31904 0.862503 0
M  V30 3173 C 299.506 1.22782 1.98612 0
M  V30 3174 C 300.487 0.113362 1.69722 0
M  V30 3175 O 301.672 0.299218 1.91881 0
M  V30 3176 C 298.802 0.942058 3.34279 0
M  V30 3177 C 297.756 2.0169 3.77499 0
M  V30 3178 C 297.082 1.58369 5.10709 0
M  V30 3179 C 298.382 3.43096 3.93805 0
M  V30 3180 H 300.076 2.16788 2.06502 0
M  V30 3181 H 297.622 1.04366 0.992154 0
M  V30 3182 H 299.575 0.864818 4.1243 0
M  V30 3183 H 298.299 -0.0336603 3.26583 0
M  V30 3184 H 296.958 2.08416 3.01593 0
M  V30 3185 H 296.606 0.595628 4.99461 0
M  V30 3186 H 296.306 2.30279 5.40597 0
M  V30 3187 H 297.83 1.52067 5.91361 0
M  V30 3188 H 299.244 3.39003 4.62331 0
M  V30 3189 H 297.641 4.13288 4.35101 0
M  V30 3190 H 298.711 3.83334 2.96957 0
M  V30 3191 N 300.054 -1.07777 1.14986 0
M  V30 3192 C 300.986 -2.14769 0.800436 0
M  V30 3193 C 301.999 -1.61739 -0.185595 0
M  V30 3194 O 303.188 -1.78462 0.0370358 0
M  V30 3195 C 300.288 -3.38481 0.168533 0
M  V30 3196 C 299.461 -4.20876 1.1909 0
M  V30 3197 C 298.52 -5.22976 0.581575 0
M  V30 3198 O 297.546 -5.55388 1.24633 0
M  V30 3199 N 298.748 -5.76976 -0.638706 0
M  V30 3200 H 301.513 -2.45348 1.72118 0
M  V30 3201 H 299.074 -1.23645 1.04515 0
M  V30 3202 H 301.066 -4.03916 -0.251764 0
M  V30 3203 H 299.636 -3.05651 -0.655467 0
M  V30 3204 H 298.856 -3.51322 1.78791 0
M  V30 3205 H 300.144 -4.7274 1.88133 0
M  V30 3206 H 299.542 -5.52886 -1.19723 0
M  V30 3207 H 298.099 -6.44061 -1.00142 0
M  V30 3208 N 301.532 -0.945985 -1.26051 0
M  V30 3209 C 302.778 -0.606539 -1.94146 0
M  V30 3210 C 303.133 0.84586 -1.72809 0
M  V30 3211 O 302.426 1.59781 -1.05738 0
M  V30 3212 C 302.62 -0.890475 -3.46129 0
M  V30 3213 C 302.449 -2.36892 -3.82246 0
M  V30 3214 C 301.219 -3.02494 -4.04753 0
M  V30 3215 C 303.417 -3.34772 -3.90425 0
M  V30 3216 N 301.399 -4.40302 -4.27794 0
M  V30 3217 C 302.77 -4.57855 -4.18054 0
M  V30 3218 C 304.825 -3.2973 -3.73072 0
M  V30 3219 C 303.528 -5.76522 -4.30134 0
M  V30 3220 C 305.554 -4.47727 -3.86386 0
M  V30 3221 C 304.916 -5.69593 -4.14419 0
M  V30 3222 H 301.015 -0.272407 -0.73302 0
M  V30 3223 H 303.599 -1.21638 -1.52027 0
M  V30 3224 H 301.77 -0.309638 -3.87164 0
M  V30 3225 H 303.502 -0.51181 -4.01451 0
M  V30 3226 H 300.257 -2.53095 -4.003 0
M  V30 3227 H 300.681 -5.11646 -4.43337 0
M  V30 3228 H 305.323 -2.36565 -3.50424 0
M  V30 3229 H 303.041 -6.70136 -4.51601 0
M  V30 3230 H 306.627 -4.45363 -3.74356 0
M  V30 3231 H 305.507 -6.59375 -4.24493 0
M  V30 3232 N 303.011 1.40521 -0.713556 0
M  V30 3233 C 304.257 2.01221 -0.252564 0
M  V30 3234 C 304.59 1.56444 1.1506 0
M  V30 3235 O 303.865 0.783597 1.78017 0
M  V30 3236 C 304.148 3.58582 -0.330332 0
M  V30 3237 C 304.001 4.13437 -1.77173 0
M  V30 3238 C 305.32 4.39079 0.299641 0
M  V30 3239 H 302.439 0.731077 -0.0932471 0
M  V30 3240 H 305.081 1.67026 -0.905673 0
M  V30 3241 H 303.231 3.87844 0.225737 0
M  V30 3242 H 304.903 3.9498 -2.38303 0
M  V30 3243 H 303.146 3.67801 -2.3001 0
M  V30 3244 H 303.817 5.22597 -1.77755 0
M  V30 3245 H 306.293 4.15735 -0.174139 0
M  V30 3246 H 305.169 5.4848 0.214771 0
M  V30 3247 H 305.43 4.19915 1.38288 0
M  V30 3248 N 304.489 0.459591 1.5075 0
M  V30 3249 C 305.421 -0.37665 2.26084 0
M  V30 3250 C 306.434 -0.967109 1.30961 0
M  V30 3251 O 307.623 -0.857468 1.56556 0
M  V30 3252 C 304.723 -1.54112 3.01832 0
M  V30 3253 C 303.896 -1.06553 4.24223 0
M  V30 3254 C 302.955 -2.1027 4.82362 0
M  V30 3255 O 301.981 -1.68798 5.43595 0
M  V30 3256 N 303.183 -3.42974 4.68347 0
M  V30 3257 H 305.948 0.269124 2.98489 0
M  V30 3258 H 303.509 0.28972 1.59287 0
M  V30 3259 H 305.501 -2.23165 3.37608 0
M  V30 3260 H 304.071 -2.0918 2.32298 0
M  V30 3261 H 303.291 -0.201274 3.93686 0
M  V30 3262 H 304.579 -0.725516 5.03601 0
M  V30 3263 H 303.977 -3.79385 4.19623 0
M  V30 3264 H 302.534 -4.07858 5.08424 0
M  V30 3265 N 305.967 -1.56429 0.191757 0
M  V30 3266 C 306.914 -2.18936 -0.730454 0
M  V30 3267 C 307.884 -1.13557 -1.21219 0
M  V30 3268 O 309.069 -1.41794 -1.27668 0
M  V30 3269 C 306.209 -2.85013 -1.9458 0
M  V30 3270 C 305.322 -4.04909 -1.50574 0
M  V30 3271 C 304.457 -4.58853 -2.67634 0
M  V30 3272 C 303.496 -5.71114 -2.20217 0
M  V30 3273 N 302.633 -6.19478 -3.30442 0
M  V30 3274 H 307.473 -2.97389 -0.190664 0
M  V30 3275 H 305.01 -1.46869 -0.0823694 0
M  V30 3276 H 306.968 -3.21492 -2.65893 0
M  V30 3277 H 305.598 -2.09129 -2.45896 0
M  V30 3278 H 304.65 -3.74115 -0.688605 0
M  V30 3279 H 305.962 -4.86113 -1.11784 0
M  V30 3280 H 305.116 -4.97619 -3.47074 0
M  V30 3281 H 303.855 -3.76749 -3.09696 0
M  V30 3282 H 302.86 -5.31879 -1.3923 0
M  V30 3283 H 304.085 -6.55033 -1.79189 0
M  V30 3284 H 302.031 -5.40297 -3.72041 0
M  V30 3285 H 301.948 -6.95725 -2.9581 0
M  V30 3286 H 303.216 -6.62898 -4.10106 0
M  V30 3287 N 307.445 0.0818655 -1.57387 0
M  V30 3288 C 308.393 1.11712 -2.04018 0
M  V30 3289 C 309.387 1.40683 -0.94364 0
M  V30 3290 O 310.593 1.40209 -1.12878 0
M  V30 3291 H 306.968 0.377542 -0.650358 0
M  V30 3292 H 308.939 0.697614 -2.90131 0
M  V30 3293 C 307.688 2.42537 -2.49141 0
M  V30 3294 H 307.011 2.21092 -3.33104 0
M  V30 3295 H 308.451 3.13446 -2.85531 0
M  V30 3296 C 306.91 3.0778 -1.37014 0
M  V30 3297 O 307.44 3.95436 -0.706621 0
M  V30 3298 N 305.646 2.68242 -1.11779 0
M  V30 3299 H 305.193 1.97052 -1.65917 0
M  V30 3300 H 305.151 3.1222 -0.369594 0
M  V30 3301 N 308.923 1.53595 0.353017 0
M  V30 3302 C 310.172 1.69603 1.09168 0
M  V30 3303 C 310.485 0.460925 1.90092 0
M  V30 3304 O 311.691 0.501774 2.66823 0
M  V30 3305 C 310.147 2.99872 1.9901 0
M  V30 3306 C 309.755 4.30687 1.23339 0
M  V30 3307 C 311.499 3.25246 2.72792 0
M  V30 3308 C 309.406 5.52036 2.12156 0
M  V30 3309 H 308.336 0.631966 0.411261 0
M  V30 3310 H 310.987 1.80096 0.351802 0
M  V30 3311 H 309.369 2.83212 2.7678 0
M  V30 3312 H 310.543 4.58019 0.505456 0
M  V30 3313 H 308.858 4.11853 0.613663 0
M  V30 3314 H 311.455 4.13095 3.39495 0
M  V30 3315 H 311.798 2.41846 3.38846 0
M  V30 3316 H 312.331 3.42638 2.021 0
M  V30 3317 H 309.07 6.37951 1.50659 0
M  V30 3318 H 308.59 5.28966 2.82764 0
M  V30 3319 H 310.269 5.87313 2.71427 0
M  V30 3320 N 310.401 -0.613514 1.45168 0
M  V30 3321 C 311.364 -1.7065 1.53007 0
M  V30 3322 C 312.364 -1.5548 0.410184 0
M  V30 3323 O 313.554 -1.60656 0.673455 0
M  V30 3324 C 310.686 -3.09875 1.42093 0
M  V30 3325 H 311.879 -1.65068 2.50385 0
M  V30 3326 H 309.432 -0.828728 1.32521 0
M  V30 3327 H 310.167 -3.21039 0.458769 0
M  V30 3328 H 309.952 -3.22293 2.23315 0
M  V30 3329 H 311.442 -3.895 1.50598 0
M  V30 3330 N 311.879 -1.3236 -0.855495 0
M  V30 3331 C 312.842 -1.21164 -1.94556 0
M  V30 3332 C 313.842 -0.134908 -1.60233 0
M  V30 3333 O 315.032 -0.385249 -1.69887 0
M  V30 3334 C 312.164 -0.863192 -3.29791 0
M  V30 3335 H 313.357 -2.18038 -2.05911 0
M  V30 3336 H 310.91 -1.16179 -1.04557 0
M  V30 3337 H 311.645 0.103769 -3.24134 0
M  V30 3338 H 311.43 -1.64166 -3.56078 0
M  V30 3339 H 312.92 -0.809156 -4.09686 0
M  V30 3340 N 313.357 1.07166 -1.15556 0
M  V30 3341 C 314.604 1.79798 -0.931604 0
M  V30 3342 C 314.932 1.8682 0.54115 0
M  V30 3343 O 314.187 1.34942 1.41736 0
M  V30 3344 C 314.486 3.24707 -1.49332 0
M  V30 3345 C 314.152 3.37781 -2.98688 0
M  V30 3346 C 312.814 3.41057 -3.39461 0
M  V30 3347 C 315.166 3.40424 -3.94665 0
M  V30 3348 C 312.494 3.4458 -4.74849 0
M  V30 3349 C 314.846 3.45485 -5.29927 0
M  V30 3350 C 313.51 3.47039 -5.70193 0
M  V30 3351 H 312.78 0.657928 -0.340898 0
M  V30 3352 H 315.427 1.26091 -1.44129 0
M  V30 3353 H 313.732 3.81208 -0.904859 0
M  V30 3354 H 315.429 3.79486 -1.29582 0
M  V30 3355 H 312.019 3.35932 -2.66172 0
M  V30 3356 H 316.203 3.37113 -3.64237 0
M  V30 3357 H 311.459 3.44083 -5.05388 0
M  V30 3358 H 315.633 3.46476 -6.04092 0
M  V30 3359 H 313.26 3.49522 -6.75084 0
M  V30 3360 N 314.835 0.952656 1.25548 0
M  V30 3361 C 316.083 0.605176 1.92826 0
M  V30 3362 C 316.404 -0.860261 1.74999 0
M  V30 3363 O 315.674 -1.6125 1.11244 0
M  V30 3364 H 314.254 0.220832 0.713612 0
M  V30 3365 H 316.916 1.21047 1.52754 0
M  V30 3366 H 316.012 0.832798 3.00784 0
M  V30 3367 N 316.313 -1.40141 0.720998 0
M  V30 3368 C 317.561 -2.0039 0.262323 0
M  V30 3369 C 317.882 -1.57469 -1.15015 0
M  V30 3370 O 317.152 -0.816582 -1.78069 0
M  V30 3371 H 315.732 -0.741063 0.093996 0
M  V30 3372 H 318.394 -1.71398 0.927835 0
M  V30 3373 H 317.49 -3.10658 0.299671 0
M  V30 3374 N 317.792 -0.46758 -1.50504 0
M  V30 3375 C 318.74 0.342482 -2.30065 0
M  V30 3376 C 319.734 0.993596 -1.37201 0
M  V30 3377 O 320.94 0.925102 -1.54408 0
M  V30 3378 H 317.315 0.129283 -0.740803 0
M  V30 3379 H 319.286 -0.34899 -2.96352 0
M  V30 3380 C 318.035 1.4139 -3.17654 0
M  V30 3381 H 317.358 0.922264 -3.89017 0
M  V30 3382 H 318.798 1.95335 -3.76325 0
M  V30 3383 C 317.257 2.4139 -2.35016 0
M  V30 3384 O 317.787 3.46586 -2.03079 0
M  V30 3385 N 315.993 2.13021 -1.97662 0
M  V30 3386 H 315.54 1.27499 -2.23834 0
M  V30 3387 H 315.498 2.80164 -1.42673 0
M  V30 3388 N 319.27 1.56325 -0.20005 0
M  V30 3389 C 320.681 1.8408 0.31167 0
M  V30 3390 C 321.032 1.12087 1.61031 0
M  V30 3391 O 320.157 0.38332 2.12978 0
M  V30 3392 C 320.752 3.33932 0.57226 0
M  V30 3393 C 319.311 3.6208 1.02834 0
M  V30 3394 C 318.458 2.77186 0.079634 0
M  V30 3395 H 321.409 1.52939 -0.423729 0
M  V30 3396 H 321.43 3.52971 1.42096 0
M  V30 3397 H 320.942 3.86303 -0.37308 0
M  V30 3398 H 319.043 3.15147 1.98778 0
M  V30 3399 H 319.156 4.7023 0.917624 0
M  V30 3400 H 317.52 2.47951 0.582448 0
M  V30 3401 H 318.303 3.32347 -0.860238 0
M  V30 3402 N 320.748 -0.0735177 1.57428 0
M  V30 3403 C 321.695 -1.08756 2.0357 0
M  V30 3404 C 322.665 -1.38559 0.916 0
M  V30 3405 O 323.85 -1.49656 1.18354 0
M  V30 3406 C 320.99 -2.39657 2.48311 0
M  V30 3407 C 320.103 -2.16399 3.73892 0
M  V30 3408 C 319.238 -3.40852 4.07423 0
M  V30 3409 C 318.277 -3.1295 5.2605 0
M  V30 3410 N 317.414 -4.29729 5.55228 0
M  V30 3411 H 322.254 -0.687104 2.8997 0
M  V30 3412 H 319.791 -0.327709 1.43403 0
M  V30 3413 H 321.749 -3.16081 2.72303 0
M  V30 3414 H 320.379 -2.77508 1.64891 0
M  V30 3415 H 319.431 -1.30676 3.57251 0
M  V30 3416 H 320.743 -1.91788 4.60455 0
M  V30 3417 H 319.897 -4.25671 4.32306 0
M  V30 3418 H 318.636 -3.68537 3.19425 0
M  V30 3419 H 317.641 -2.26526 5.00965 0
M  V30 3420 H 318.866 -2.86589 6.15665 0
M  V30 3421 H 316.812 -4.57448 4.70188 0
M  V30 3422 H 316.729 -4.08385 6.36206 0
M  V30 3423 H 317.997 -5.1555 5.84661 0
M  V30 3424 N 322.226 -1.5378 -0.344866 0
M  V30 3425 C 323.451 -1.75211 -1.10977 0
M  V30 3426 C 323.876 -0.48936 -1.81623 0
M  V30 3427 O 323.234 0.557925 -1.72502 0
M  V30 3428 C 323.282 -2.93147 -2.09993 0
M  V30 3429 O 322.386 -2.63203 -3.17487 0
M  V30 3430 H 321.727 -0.581241 -0.321021 0
M  V30 3431 H 324.257 -2.00738 -0.395661 0
M  V30 3432 H 324.267 -3.19898 -2.53237 0
M  V30 3433 H 322.942 -3.84731 -1.5797 0
M  V30 3434 H 321.519 -2.47336 -2.79069 0
M  V30 3435 N 323.704 0.605807 -1.45491 0
M  V30 3436 C 324.95 1.36679 -1.49823 0
M  V30 3437 C 325.283 1.93693 -0.140175 0
M  V30 3438 O 324.558 1.75158 0.845581 0
M  V30 3439 C 324.841 2.51337 -2.57879 0
M  V30 3440 C 324.694 1.99508 -4.03134 0
M  V30 3441 C 326.013 3.53463 -2.62205 0
M  V30 3442 H 323.132 0.495617 -0.545466 0
M  V30 3443 H 325.774 0.682732 -1.7731 0
M  V30 3444 H 323.924 3.09691 -2.34571 0
M  V30 3445 H 325.596 1.45789 -4.37656 0
M  V30 3446 H 323.839 1.30496 -4.13707 0
M  V30 3447 H 324.51 2.82169 -4.74431 0
M  V30 3448 H 326.986 3.04953 -2.83095 0
M  V30 3449 H 325.862 4.31178 -3.39672 0
M  V30 3450 H 326.123 4.09197 -1.67363 0
M  V30 3451 N 325.182 1.32811 0.848464 0
M  V30 3452 C 326.41 1.26739 1.63538 0
M  V30 3453 C 326.825 -0.163484 1.88091 0
M  V30 3454 O 326.182 -1.10258 1.45429 0
M  V30 3455 C 326.233 2.03013 2.99112 0
M  V30 3456 O 325.954 3.40518 2.75643 0
M  V30 3457 C 327.455 2.04038 3.93552 0
M  V30 3458 H 324.675 0.437024 0.509167 0
M  V30 3459 H 327.219 1.75033 1.05753 0
M  V30 3460 H 325.374 1.58426 3.53525 0
M  V30 3461 H 325.788 3.79635 3.61908 0
M  V30 3462 H 327.262 2.61877 4.85926 0
M  V30 3463 H 327.739 1.0282 4.26995 0
M  V30 3464 H 328.345 2.486 3.45077 0
M  V30 3465 N 326.66 -1.06551 1.16123 0
M  V30 3466 C 327.59 -2.15935 0.88851 0
M  V30 3467 C 328.571 -1.69306 -0.164135 0
M  V30 3468 O 329.756 -1.94193 -0.0167857 0
M  V30 3469 C 326.886 -3.45149 0.385942 0
M  V30 3470 C 325.84 -4.05271 1.3762 0
M  V30 3471 C 325.166 -5.29664 0.732137 0
M  V30 3472 C 326.466 -4.44355 2.74493 0
M  V30 3473 H 328.16 -2.39006 1.80323 0
M  V30 3474 H 325.706 -1.14866 0.868435 0
M  V30 3475 H 327.659 -4.21004 0.182647 0
M  V30 3476 H 326.383 -3.21689 -0.564274 0
M  V30 3477 H 325.042 -3.3147 1.56599 0
M  V30 3478 H 324.69 -5.02499 -0.224483 0
M  V30 3479 H 324.39 -5.70848 1.39307 0
M  V30 3480 H 325.914 -6.08218 0.538802 0
M  V30 3481 H 327.328 -5.11303 2.59311 0
M  V30 3482 H 325.725 -4.96515 3.37035 0
M  V30 3483 H 326.795 -3.55339 3.29943 0
M  V30 3484 N 328.138 -0.959301 -1.25041 0
M  V30 3485 C 329.385 -0.616611 -1.92884 0
M  V30 3486 C 329.713 0.847036 -1.75087 0
M  V30 3487 O 328.968 1.62374 -1.09239 0
M  V30 3488 C 329.267 -0.927136 -3.45165 0
M  V30 3489 C 328.933 -2.37757 -3.83122 0
M  V30 3490 C 327.595 -2.77402 -3.93194 0
M  V30 3491 C 329.947 -3.31929 -4.01836 0
M  V30 3492 C 327.275 -4.10277 -4.19392 0
M  V30 3493 C 329.627 -4.64423 -4.29528 0
M  V30 3494 C 328.291 -5.03857 -4.37818 0
M  V30 3495 H 327.561 -0.225634 -0.705812 0
M  V30 3496 H 330.208 -1.20921 -1.48493 0
M  V30 3497 H 328.513 -0.252195 -3.90987 0
M  V30 3498 H 330.21 -0.6405 -3.95852 0
M  V30 3499 H 326.8 -2.06013 -3.75841 0
M  V30 3500 H 330.984 -3.02488 -3.93465 0
M  V30 3501 H 326.24 -4.40467 -4.24027 0
M  V30 3502 H 330.414 -5.37369 -4.42953 0
M  V30 3503 H 328.041 -6.06843 -4.57871 0
M  V30 3504 N 329.616 1.39756 -0.72842 0
M  V30 3505 C 330.864 2.00248 -0.272946 0
M  V30 3506 C 331.185 1.58077 1.14178 0
M  V30 3507 O 330.455 0.826014 1.77634 0
M  V30 3508 H 329.035 0.740554 -0.0979247 0
M  V30 3509 H 331.697 1.70903 -0.936912 0
M  V30 3510 H 330.793 3.10495 -0.316142 0
M  V30 3511 N 331.094 0.475555 1.50254 0
M  V30 3512 C 332.004 -0.321501 2.32387 0
M  V30 3513 C 333.02 -0.991755 1.42969 0
M  V30 3514 O 334.196 -0.978747 1.76018 0
M  V30 3515 C 331.261 -1.38667 3.17762 0
M  V30 3516 C 330.322 -0.732538 4.23004 0
M  V30 3517 C 329.555 -1.74695 5.04299 0
M  V30 3518 O 329.778 -2.97399 4.86734 0
M  V30 3519 O 328.712 -1.31631 5.8733 0
M  V30 3520 H 332.538 0.350071 3.01676 0
M  V30 3521 H 330.123 0.237321 1.47503 0
M  V30 3522 H 332.005 -2.00354 3.70724 0
M  V30 3523 H 330.68 -2.04163 2.51196 0
M  V30 3524 H 329.587 -0.0765902 3.74022 0
M  V30 3525 H 330.92 -0.120452 4.92053 0
M  V30 3526 N 332.573 -1.56217 0.208337 0
M  V30 3527 C 333.798 -2.02782 -0.435222 0
M  V30 3528 C 334.223 -1.08738 -1.53485 0
M  V30 3529 O 333.581 -0.0731855 -1.81152 0
M  V30 3530 C 333.629 -3.47687 -0.956335 0
M  V30 3531 O 332.733 -3.56773 -2.06849 0
M  V30 3532 H 332.074 -0.656403 -0.100158 0
M  V30 3533 H 334.604 -2.02033 0.3231 0
M  V30 3534 H 334.614 -3.87745 -1.26955 0
M  V30 3535 H 333.289 -4.15624 -0.15143 0
M  V30 3536 H 331.866 -3.28597 -1.76292 0
M  V30 3537 N 334.051 0.0651679 -1.57465 0
M  V30 3538 C 335.014 1.06117 -2.03155 0
M  V30 3539 C 336.014 1.31204 -0.929632 0
M  V30 3540 O 337.204 1.26813 -1.19432 0
M  V30 3541 C 334.336 2.4032 -2.41783 0
M  V30 3542 H 335.529 0.667231 -2.92383 0
M  V30 3543 H 333.082 0.311075 -1.53173 0
M  V30 3544 H 333.817 2.84532 -1.55601 0
M  V30 3545 H 333.602 2.23451 -3.22199 0
M  V30 3546 H 335.092 3.11898 -2.77685 0
M  V30 3547 N 335.529 1.53961 0.336706 0
M  V30 3548 C 336.777 1.71197 1.07405 0
M  V30 3549 C 337.098 0.481475 1.88962 0
M  V30 3550 O 336.368 -0.504585 1.8929 0
M  V30 3551 H 334.948 0.631185 0.399517 0
M  V30 3552 H 337.61 1.91232 0.376323 0
M  V30 3553 H 336.706 2.58587 1.74755 0
M  V30 3554 N 337.007 -0.598083 1.45811 0
M  V30 3555 C 337.97 -1.69018 1.54808 0
M  V30 3556 C 338.97 -1.55037 0.426652 0
M  V30 3557 O 340.16 -1.59932 0.690456 0
M  V30 3558 C 337.292 -3.0835 1.45371 0
M  V30 3559 H 338.485 -1.62403 2.52121 0
M  V30 3560 H 336.038 -0.814626 1.33392 0
M  V30 3561 H 336.773 -3.20534 0.492793 0
M  V30 3562 H 336.558 -3.19907 2.26721 0
M  V30 3563 H 338.048 -3.8788 1.54721 0
M  V30 3564 N 338.485 -1.33259 -0.841409 0
M  V30 3565 C 339.448 -1.23221 -1.9326 0
M  V30 3566 C 340.448 -0.151895 -1.60081 0
M  V30 3567 O 341.638 -0.403246 -1.69468 0
M  V30 3568 C 338.77 -0.898123 -3.28856 0
M  V30 3569 H 339.963 -2.2021 -2.03587 0
M  V30 3570 H 337.516 -1.17281 -1.03319 0
M  V30 3571 H 338.251 0.0693841 -3.24226 0
M  V30 3572 H 338.036 -1.67934 -3.54317 0
M  V30 3573 H 339.526 -0.852563 -4.08805 0
M  V30 3574 N 339.963 1.05934 -1.16686 0
M  V30 3575 C 341.188 1.83029 -0.975455 0
M  V30 3576 C 341.613 1.82096 0.471452 0
M  V30 3577 O 340.971 1.22443 1.33706 0
M  V30 3578 C 341.019 3.27372 -1.51195 0
M  V30 3579 O 340.123 4.06054 -0.720701 0
M  V30 3580 H 339.464 0.566194 -0.346872 0
M  V30 3581 H 341.994 1.33541 -1.55009 0
M  V30 3582 H 342.004 3.78186 -1.53099 0
M  V30 3583 H 340.679 3.27366 -2.56523 0
M  V30 3584 H 339.256 3.64812 -0.772458 0
M  V30 3585 N 341.441 0.965919 1.2453 0
M  V30 3586 C 342.687 0.62776 1.92839 0
M  V30 3587 C 343.02 -0.834694 1.75347 0
M  V30 3588 O 342.295 -1.60031 1.10546 0
M  V30 3589 C 342.578 1.00109 3.45905 0
M  V30 3590 C 342.431 2.52011 3.72573 0
M  V30 3591 C 343.75 0.53435 4.36844 0
M  V30 3592 H 340.869 0.229537 0.700344 0
M  V30 3593 H 343.511 1.2046 1.46933 0
M  V30 3594 H 341.661 0.510238 3.85135 0
M  V30 3595 H 343.333 3.08559 3.42912 0
M  V30 3596 H 341.576 2.95287 3.17786 0
M  V30 3597 H 342.247 2.73183 4.79661 0
M  V30 3598 H 344.723 0.955565 4.04979 0
M  V30 3599 H 343.599 0.824152 5.42678 0
M  V30 3600 H 343.86 -0.565589 4.38467 0
M  V30 3601 N 342.919 -1.39368 0.735821 0
M  V30 3602 C 344.144 -2.05319 0.293052 0
M  V30 3603 C 344.569 -1.55115 -1.064 0
M  V30 3604 O 343.927 -0.695261 -1.67439 0
M  V30 3605 C 343.975 -3.59305 0.305323 0
M  V30 3606 O 343.079 -4.06299 -0.706761 0
M  V30 3607 H 342.42 -0.650529 0.13307 0
M  V30 3608 H 344.95 -1.78386 1.00197 0
M  V30 3609 H 344.96 -4.07724 0.149997 0
M  V30 3610 H 343.635 -3.95207 1.29553 0
M  V30 3611 H 342.212 -3.69292 -0.517504 0
M  V30 3612 N 344.397 -0.483516 -1.5 0
M  V30 3613 C 345.327 0.293829 -2.31644 0
M  V30 3614 C 346.308 0.978864 -1.39112 0
M  V30 3615 O 347.493 0.973644 -1.68029 0
M  V30 3616 C 344.623 1.36897 -3.19181 0
M  V30 3617 C 343.577 0.804833 -4.20365 0
M  V30 3618 C 342.903 1.9792 -4.96721 0
M  V30 3619 C 344.203 -0.192313 -5.21946 0
M  V30 3620 H 345.897 -0.387616 -2.9688 0
M  V30 3621 H 343.443 -0.187856 -1.42769 0
M  V30 3622 H 345.396 1.92037 -3.751 0
M  V30 3623 H 344.12 2.07936 -2.51853 0
M  V30 3624 H 342.779 0.275319 -3.65565 0
M  V30 3625 H 342.427 2.67686 -4.25856 0
M  V30 3626 H 342.127 1.60789 -5.65173 0
M  V30 3627 H 343.651 2.53526 -5.55479 0
M  V30 3628 H 345.065 0.270333 -5.72662 0
M  V30 3629 H 343.462 -0.478543 -5.98189 0
M  V30 3630 H 344.532 -1.11409 -4.71928 0
M  V30 3631 N 345.875 1.56104 -0.216619 0
M  V30 3632 C 346.825 2.16703 0.708798 0
M  V30 3633 C 347.809 1.11392 1.16106 0
M  V30 3634 O 349.001 1.37395 1.11587 0
M  V30 3635 C 346.13 2.84666 1.91886 0
M  V30 3636 C 345.216 3.97195 1.48651 0
M  V30 3637 N 345.607 4.99959 0.766434 0
M  V30 3638 C 343.905 4.09193 1.77418 0
M  V30 3639 C 344.606 5.79126 0.546659 0
M  V30 3640 N 343.582 5.32315 1.10188 0
M  V30 3641 H 347.384 2.93516 0.150162 0
M  V30 3642 H 344.898 1.6239 -0.0176768 0
M  V30 3643 H 346.895 3.26486 2.59253 0
M  V30 3644 H 345.555 2.09347 2.48202 0
M  V30 3645 H 346.566 5.16197 0.419634 0
M  V30 3646 H 343.243 3.45021 2.35088 0
M  V30 3647 H 344.633 6.71895 -0.026103 0
M  V30 3648 N 347.353 -0.0568162 1.57498 0
M  V30 3649 C 348.283 -1.06593 2.0775 0
M  V30 3650 C 349.264 -1.39448 0.974082 0
M  V30 3651 O 350.449 -1.48815 1.24771 0
M  V30 3652 C 347.579 -2.37509 2.5339 0
M  V30 3653 C 346.533 -2.1897 3.67745 0
M  V30 3654 C 345.859 -3.55402 3.99492 0
M  V30 3655 C 347.159 -1.59859 4.97235 0
M  V30 3656 H 348.853 -0.647706 2.9231 0
M  V30 3657 H 346.399 -0.310116 1.40621 0
M  V30 3658 H 348.352 -3.08409 2.87162 0
M  V30 3659 H 347.076 -2.8134 1.65878 0
M  V30 3660 H 345.735 -1.50508 3.3428 0
M  V30 3661 H 345.383 -3.9683 3.09088 0
M  V30 3662 H 345.083 -3.43831 4.76502 0
M  V30 3663 H 346.607 -4.27708 4.35773 0
M  V30 3664 H 348.021 -2.20642 5.29141 0
M  V30 3665 H 346.418 -1.58942 5.78669 0
M  V30 3666 H 347.488 -0.561506 4.81638 0
M  V30 3667 N 348.832 -1.54138 -0.328536 0
M  V30 3668 C 349.762 -1.86167 -1.40939 0
M  V30 3669 C 350.743 -0.718044 -1.54202 0
M  V30 3670 O 351.928 -0.971328 -1.68163 0
M  V30 3671 C 349.058 -2.08461 -2.77779 0
M  V30 3672 C 348.012 -3.24299 -2.7931 0
M  V30 3673 C 347.338 -3.31955 -4.19178 0
M  V30 3674 C 348.638 -4.62065 -2.43502 0
M  V30 3675 H 350.332 -2.76689 -1.14383 0
M  V30 3676 H 347.878 -1.33132 -0.548806 0
M  V30 3677 H 349.831 -2.29453 -3.53454 0
M  V30 3678 H 348.555 -1.14684 -3.05802 0
M  V30 3679 H 347.214 -3.03187 -2.0609 0
M  V30 3680 H 346.862 -2.35745 -4.44335 0
M  V30 3681 H 346.562 -4.09805 -4.2111 0
M  V30 3682 H 348.086 -3.55175 -4.96672 0
M  V30 3683 H 349.5 -4.8297 -3.08889 0
M  V30 3684 H 347.897 -5.42429 -2.56693 0
M  V30 3685 H 348.967 -4.64652 -1.38659 0
M  V30 3686 N 350.31 0.590341 -1.46126 0
M  V30 3687 C 351.535 1.37991 -1.54833 0
M  V30 3688 C 351.96 1.87163 -0.187506 0
M  V30 3689 O 351.318 1.61133 0.831008 0
M  V30 3690 C 351.366 2.54867 -2.55098 0
M  V30 3691 O 350.47 3.56061 -2.08073 0
M  V30 3692 H 349.811 0.411265 -0.521303 0
M  V30 3693 H 352.341 0.716819 -1.91632 0
M  V30 3694 H 352.351 3.01886 -2.74461 0
M  V30 3695 H 351.026 2.18429 -3.53923 0
M  V30 3696 H 349.603 3.15574 -1.98664 0
M  V30 3697 N 351.788 1.33704 0.83433 0
M  V30 3698 C 353.199 1.22813 1.4062 0
M  V30 3699 C 353.55 -0.151107 1.95617 0
M  V30 3700 O 352.675 -1.05092 1.89168 0
M  V30 3701 C 353.27 2.22355 2.55624 0
M  V30 3702 C 351.829 2.1529 3.08751 0
M  V30 3703 C 350.976 2.09589 1.8157 0
M  V30 3704 H 353.927 1.45236 0.639702 0
M  V30 3705 H 353.948 1.83391 3.33389 0
M  V30 3706 H 353.46 3.22728 2.15566 0
M  V30 3707 H 351.561 1.18235 3.53343 0
M  V30 3708 H 351.674 3.06038 3.68616 0
M  V30 3709 H 350.038 1.55134 2.02004 0
M  V30 3710 H 350.821 3.11777 1.43701 0
M  V30 3711 N 353.266 -1.05314 1.17247 0
M  V30 3712 C 354.514 -1.77941 0.958194 0
M  V30 3713 C 354.835 -1.88089 -0.514556 0
M  V30 3714 O 354.105 -1.39676 -1.37359 0
M  V30 3715 H 352.685 -0.659116 0.351533 0
M  V30 3716 H 355.347 -1.27166 1.47699 0
M  V30 3717 H 354.443 -2.79663 1.38546 0
M  V30 3718 N 354.744 -0.972509 -1.24016 0
M  V30 3719 C 355.969 -0.654417 -1.96805 0
M  V30 3720 C 356.394 0.770398 -1.716 0
M  V30 3721 O 355.752 1.52361 -0.982647 0
M  V30 3722 C 355.8 -0.941031 -3.48105 0
M  V30 3723 O 354.904 -0.0289472 -4.1239 0
M  V30 3724 H 354.245 -0.24692 -0.616382 0
M  V30 3725 H 356.775 -1.30396 -1.57664 0
M  V30 3726 H 356.785 -0.87452 -3.98517 0
M  V30 3727 H 355.46 -1.97939 -3.65777 0
M  V30 3728 H 354.037 -0.149192 -3.72601 0
M  V30 3729 N 356.222 1.38976 -0.743202 0
M  V30 3730 C 357.172 2.27843 -0.084513 0
M  V30 3731 C 358.156 1.44677 0.704094 0
M  V30 3732 O 359.348 1.67511 0.571755 0
M  V30 3733 C 356.477 3.33466 0.815781 0
M  V30 3734 C 355.563 4.24095 0.0208844 0
M  V30 3735 N 355.954 4.95609 -1.0102 0
M  V30 3736 C 354.252 4.45303 0.249293 0
M  V30 3737 C 354.953 5.62287 -1.49024 0
M  V30 3738 N 353.929 5.37571 -0.807377 0
M  V30 3739 H 357.731 2.80593 -0.87436 0
M  V30 3740 H 355.245 1.51755 -0.578283 0
M  V30 3741 H 357.242 3.96008 1.30321 0
M  V30 3742 H 355.902 2.82276 1.6047 0
M  V30 3743 H 356.913 4.98849 -1.39176 0
M  V30 3744 H 353.59 4.0504 1.01237 0
M  V30 3745 H 354.98 6.29519 -2.34853 0
M  V30 3746 N 357.7 0.491464 1.49741 0
M  V30 3747 C 358.925 -0.0557177 2.07325 0
M  V30 3748 C 359.35 -1.30925 1.35056 0
M  V30 3749 O 358.708 -1.76733 0.404365 0
M  V30 3750 C 358.756 -0.302074 3.59333 0
M  V30 3751 O 357.86 -1.37868 3.88672 0
M  V30 3752 H 357.201 0.0219956 0.663636 0
M  V30 3753 H 359.731 0.688352 1.92673 0
M  V30 3754 H 359.741 -0.536464 4.04458 0
M  V30 3755 H 358.416 0.61383 4.11345 0
M  V30 3756 H 356.993 -1.12999 3.55367 0
M  V30 3757 N 359.178 -1.55987 0.224894 0
M  V30 3758 C 360.108 -2.23426 -0.678457 0
M  V30 3759 C 361.089 -1.20709 -1.19847 0
M  V30 3760 O 362.274 -1.49304 -1.24186 0
M  V30 3761 C 359.404 -2.91676 -1.88527 0
M  V30 3762 C 358.358 -4.00893 -1.49896 0
M  V30 3763 C 357.684 -4.56455 -2.78483 0
M  V30 3764 C 358.984 -5.17769 -0.686461 0
M  V30 3765 H 360.678 -2.99175 -0.116173 0
M  V30 3766 H 358.224 -1.43897 -0.054436 0
M  V30 3767 H 360.177 -3.37547 -2.5227 0
M  V30 3768 H 358.901 -2.1338 -2.47258 0
M  V30 3769 H 357.56 -3.55758 -0.884985 0
M  V30 3770 H 357.208 -3.74886 -3.35365 0
M  V30 3771 H 356.908 -5.30169 -2.53368 0
M  V30 3772 H 358.432 -5.05047 -3.43162 0
M  V30 3773 H 359.846 -5.60001 -1.22767 0
M  V30 3774 H 358.243 -5.97735 -0.532259 0
M  V30 3775 H 359.313 -4.83932 0.306196 0
M  V30 3776 N 360.656 0.0484629 -1.57525 0
M  V30 3777 C 361.903 0.743125 -1.88372 0
M  V30 3778 C 362.231 1.76383 -0.819715 0
M  V30 3779 O 361.486 1.94855 0.181659 0
M  V30 3780 C 361.785 1.46632 -3.25935 0
M  V30 3781 C 361.451 0.583427 -4.4711 0
M  V30 3782 C 360.113 0.340191 -4.79996 0
M  V30 3783 C 362.465 -0.0273345 -5.21193 0
M  V30 3784 C 359.793 -0.522903 -5.84365 0
M  V30 3785 C 362.145 -0.878017 -6.26477 0
M  V30 3786 C 360.809 -1.1309 -6.5785 0
M  V30 3787 H 360.079 0.271929 -0.689301 0
M  V30 3788 H 362.726 0.00336166 -1.915 0
M  V30 3789 H 361.031 2.2789 -3.18706 0
M  V30 3790 H 362.728 2.00902 -3.47044 0
M  V30 3791 H 359.318 0.783151 -4.21384 0
M  V30 3792 H 363.502 0.147654 -4.9608 0
M  V30 3793 H 358.758 -0.727335 -6.07058 0
M  V30 3794 H 362.932 -1.35789 -6.83033 0
M  V30 3795 H 360.559 -1.80144 -7.38547 0
M  V30 3796 N 362.134 1.5431 0.320358 0
M  V30 3797 C 363.362 1.76636 1.07738 0
M  V30 3798 C 363.777 0.51649 1.81598 0
M  V30 3799 O 363.134 -0.512942 1.75143 0
M  V30 3800 C 363.185 2.96158 2.07299 0
M  V30 3801 O 362.906 4.16313 1.36438 0
M  V30 3802 C 364.407 3.3072 2.95193 0
M  V30 3803 H 361.627 0.589597 0.320339 0
M  V30 3804 H 364.171 2.01207 0.36551 0
M  V30 3805 H 362.326 2.73851 2.74016 0
M  V30 3806 H 362.74 4.83565 2.03138 0
M  V30 3807 H 364.214 4.17643 3.60941 0
M  V30 3808 H 364.691 2.48026 3.62463 0
M  V30 3809 H 365.297 3.55117 2.34034 0
M  V30 3810 N 363.613 -0.582584 1.46437 0
M  V30 3811 C 365.029 -0.905962 1.31394 0
M  V30 3812 C 365.229 -1.99468 0.285476 0
M  V30 3813 O 364.285 -2.50566 -0.311914 0
M  V30 3814 C 365.598 -1.3232 2.70022 0
M  V30 3815 C 367.146 -1.43604 2.78113 0
M  V30 3816 C 367.621 -1.88694 4.17323 0
M  V30 3817 N 369.112 -1.95887 4.19741 0
M  V30 3818 C 369.847 -2.32051 5.24347 0
M  V30 3819 N 369.343 -2.67006 6.39281 0
M  V30 3820 N 371.136 -2.32606 5.11713 0
M  V30 3821 H 363.287 0.1366 2.1196 0
M  V30 3822 H 365.55 -0.00155736 0.947999 0
M  V30 3823 H 365.256 -0.597242 3.46592 0
M  V30 3824 H 365.13 -2.28469 3.00136 0
M  V30 3825 H 367.517 -2.15286 2.01832 0
M  V30 3826 H 367.598 -0.457059 2.51684 0
M  V30 3827 H 367.242 -1.1759 4.941 0
M  V30 3828 H 367.172 -2.8755 4.4116 0
M  V30 3829 H 369.663 -1.71362 3.36814 0
M  V30 3830 H 369.976 -2.93554 7.14875 0
M  V30 3831 H 368.321 -2.64644 6.42642 0
M  V30 3832 H 371.512 -2.04721 4.2096 0
M  V30 3833 H 371.685 -2.60462 5.93349 0
M  V30 3834 N 365.091 -1.34144 -0.827227 0
M  V30 3835 C 366.054 -1.25264 -1.91942 0
M  V30 3836 C 367.054 -0.168866 -1.59911 0
M  V30 3837 O 368.244 -0.421198 -1.69031 0
M  V30 3838 C 365.376 -0.932952 -3.27885 0
M  V30 3839 H 366.569 -2.22357 -2.0124 0
M  V30 3840 H 364.122 -1.1837 -1.0207 0
M  V30 3841 H 364.857 0.0349917 -3.24281 0
M  V30 3842 H 364.642 -1.71682 -3.52516 0
M  V30 3843 H 366.132 -0.895874 -4.07877 0
M  V30 3844 N 366.569 1.04691 -1.17803 0
M  V30 3845 C 367.818 1.77176 -0.963931 0
M  V30 3846 C 368.131 1.88888 0.508015 0
M  V30 3847 O 369.337 2.58164 0.840465 0
M  V30 3848 C 367.793 3.18518 -1.67555 0
M  V30 3849 C 367.401 3.14919 -3.18637 0
M  V30 3850 C 369.145 3.95424 -1.54402 0
M  V30 3851 C 367.052 4.51081 -3.82466 0
M  V30 3852 H 365.982 0.664116 -0.357023 0
M  V30 3853 H 368.633 1.17303 -1.4111 0
M  V30 3854 H 367.015 3.78748 -1.15613 0
M  V30 3855 H 368.189 2.64178 -3.77554 0
M  V30 3856 H 366.504 2.51512 -3.31859 0
M  V30 3857 H 369.101 4.96106 -1.99456 0
M  V30 3858 H 369.444 4.13343 -0.495329 0
M  V30 3859 H 369.977 3.41754 -2.0359 0
M  V30 3860 H 366.716 4.38368 -4.87354 0
M  V30 3861 H 366.236 5.01951 -3.28337 0
M  V30 3862 H 367.915 5.2001 -3.84965 0
M  V30 3863 N 368.047 0.979072 1.23499 0
M  V30 3864 C 368.977 0.537606 2.27227 0
M  V30 3865 C 369.958 -0.428539 1.64613 0
M  V30 3866 O 371.143 -0.322191 1.91509 0
M  V30 3867 C 368.273 -0.162052 3.46922 0
M  V30 3868 C 367.227 0.721242 4.21879 0
M  V30 3869 C 366.553 -0.110555 5.34586 0
M  V30 3870 C 367.853 2.01141 4.82016 0
M  V30 3871 H 369.547 1.40462 2.64406 0
M  V30 3872 H 367.093 0.67684 1.27102 0
M  V30 3873 H 369.046 -0.482192 4.18632 0
M  V30 3874 H 367.77 -1.06351 3.08799 0
M  V30 3875 H 366.429 1.02482 3.51984 0
M  V30 3876 H 366.077 -1.0125 4.92704 0
M  V30 3877 H 365.777 0.477325 5.85658 0
M  V30 3878 H 367.301 -0.425107 6.09118 0
M  V30 3879 H 368.715 1.75612 5.45741 0
M  V30 3880 H 367.112 2.54695 5.43369 0
M  V30 3881 H 368.182 2.69909 4.02836 0
M  V30 3882 N 369.525 -1.3858 0.750561 0
M  V30 3883 C 370.457 -2.29057 0.0810714 0
M  V30 3884 C 371.47 -1.47596 -0.686973 0
M  V30 3885 O 372.659 -1.70495 -0.528563 0
M  V30 3886 C 369.759 -3.26475 -0.909247 0
M  V30 3887 C 368.932 -4.36945 -0.199478 0
M  V30 3888 C 367.991 -5.14572 -1.10011 0
M  V30 3889 O 367.017 -5.66321 -0.57177 0
M  V30 3890 N 368.219 -5.27262 -2.42849 0
M  V30 3891 H 370.984 -2.87153 0.858087 0
M  V30 3892 H 368.545 -1.50328 0.60109 0
M  V30 3893 H 370.537 -3.75285 -1.51471 0
M  V30 3894 H 369.107 -2.69298 -1.58736 0
M  V30 3895 H 368.327 -3.8981 0.586664 0
M  V30 3896 H 369.615 -5.07963 0.291783 0
M  V30 3897 H 369.013 -4.86763 -2.88233 0
M  V30 3898 H 367.57 -5.79456 -2.98453 0
M  V30 3899 N 371.003 -0.499398 -1.49478 0
M  V30 3900 C 372.228 0.044722 -2.07352 0
M  V30 3901 C 372.653 1.30207 -1.35749 0
M  V30 3902 O 372.011 1.76516 -0.413732 0
M  V30 3903 C 372.059 0.283013 -3.59488 0
M  V30 3904 O 371.163 1.35804 -3.89398 0
M  V30 3905 H 370.504 -0.0255147 -0.66351 0
M  V30 3906 H 373.034 -0.698561 -1.92305 0
M  V30 3907 H 373.044 0.515007 -4.04737 0
M  V30 3908 H 371.719 -0.635636 -4.11014 0
M  V30 3909 H 370.296 1.11113 -3.55961 0
M  V30 3910 N 372.481 1.55866 -0.233164 0
M  V30 3911 C 373.729 1.9821 0.394593 0
M  V30 3912 C 374.05 1.12234 1.59463 0
M  V30 3913 O 373.32 0.201981 1.94856 0
M  V30 3914 H 371.9 0.732034 0.148778 0
M  V30 3915 H 374.562 1.92107 -0.32876 0
M  V30 3916 H 373.658 3.03845 0.713063 0
M  V30 3917 N 373.959 -0.0401083 1.57549 0
M  V30 3918 C 375.184 -0.748931 1.93406 0
M  V30 3919 C 375.609 -1.68686 0.832274 0
M  V30 3920 O 374.967 -1.80047 -0.212818 0
M  V30 3921 C 375.015 -1.4916 3.28304 0
M  V30 3922 O 374.119 -2.6042 3.19774 0
M  V30 3923 H 373.46 -0.202212 0.63246 0
M  V30 3924 H 375.99 0.00112086 2.046 0
M  V30 3925 H 376 -1.86395 3.62934 0
M  V30 3926 H 374.675 -0.80364 4.08062 0
M  V30 3927 H 373.252 -2.25808 2.96758 0
M  V30 3928 N 375.437 -1.54477 -0.31217 0
M  V30 3929 C 376.684 -1.73227 -1.04875 0
M  V30 3930 C 377.012 -0.512042 -1.87639 0
M  V30 3931 O 376.267 0.506131 -1.89042 0
M  V30 3932 C 376.566 -2.967 -1.99258 0
M  V30 3933 C 376.232 -4.30974 -1.32559 0
M  V30 3934 C 374.894 -4.67477 -1.141 0
M  V30 3935 C 377.246 -5.14258 -0.847835 0
M  V30 3936 C 374.574 -5.84852 -0.465326 0
M  V30 3937 C 376.926 -6.32327 -0.185931 0
M  V30 3938 C 375.59 -6.67499 0.0107077 0
M  V30 3939 H 374.86 -0.633881 -0.383765 0
M  V30 3940 H 377.507 -1.88727 -0.324731 0
M  V30 3941 H 375.812 -2.75935 -2.7815 0
M  V30 3942 H 377.509 -3.08401 -2.563 0
M  V30 3943 H 374.099 -4.02262 -1.4793 0
M  V30 3944 H 378.283 -4.86565 -0.978192 0
M  V30 3945 H 373.539 -6.10654 -0.301883 0
M  V30 3946 H 377.713 -6.96135 0.192211 0
M  V30 3947 H 375.34 -7.58306 0.536287 0
M  V30 3948 N 376.915 0.57481 -1.46744 0
M  V30 3949 C 377.863 1.70435 -1.58286 0
M  V30 3950 C 378.857 1.63287 -0.450956 0
M  V30 3951 O 380.063 1.68685 -0.628121 0
M  V30 3952 H 376.438 0.56364 -0.497809 0
M  V30 3953 H 378.409 1.57833 -2.53242 0
M  V30 3954 C 377.158 3.08815 -1.59776 0
M  V30 3955 H 376.481 3.1499 -2.46214 0
M  V30 3956 H 377.921 3.87588 -1.71905 0
M  V30 3957 C 376.38 3.35301 -0.327812 0
M  V30 3958 O 376.91 3.97511 0.57861 0
M  V30 3959 N 375.116 2.89816 -0.213274 0
M  V30 3960 H 374.663 2.39371 -0.951798 0
M  V30 3961 H 374.621 3.0791 0.63553 0
M  V30 3962 N 378.394 1.34581 0.820102 0
M  V30 3963 C 379.357 1.2628 1.91275 0
M  V30 3964 C 380.357 0.177344 1.59819 0
M  V30 3965 O 381.547 0.430156 1.68806 0
M  V30 3966 C 378.679 0.950327 3.27386 0
M  V30 3967 H 379.872 2.23421 2.00057 0
M  V30 3968 H 377.425 1.1891 1.0144 0
M  V30 3969 H 378.16 -0.0177938 3.24295 0
M  V30 3970 H 377.945 1.73549 3.51601 0
M  V30 3971 H 379.435 0.917492 4.07396 0
M  V30 3972 N 379.872 -1.04064 1.18357 0
M  V30 3973 C 381.283 -1.58719 0.98312 0
M  V30 3974 C 381.634 -1.90556 -0.467193 0
M  V30 3975 O 380.759 -1.69561 -1.34454 0
M  V30 3976 C 381.354 -2.88379 1.77828 0
M  V30 3977 C 379.913 -3.3965 1.62218 0
M  V30 3978 C 379.06 -2.13235 1.77274 0
M  V30 3979 H 382.011 -0.867359 1.32901 0
M  V30 3980 H 382.032 -3.58773 1.26737 0
M  V30 3981 H 381.544 -2.65176 2.83379 0
M  V30 3982 H 379.645 -3.67866 0.592036 0
M  V30 3983 H 379.758 -4.13475 2.42023 0
M  V30 3984 H 378.122 -2.24542 1.20221 0
M  V30 3985 H 378.905 -1.92487 2.8426 0
M  V30 3986 N 381.35 -0.985608 -1.22978 0
M  V30 3987 C 382.596 -0.667998 -1.92118 0
M  V30 3988 C 382.951 0.790454 -1.75413 0
M  V30 3989 O 382.244 1.56336 -1.10768 0
M  V30 3990 C 382.438 -1.00014 -3.43121 0
M  V30 3991 C 382.267 -2.48933 -3.74516 0
M  V30 3992 C 381.037 -3.15218 -3.94925 0
M  V30 3993 C 383.235 -3.47024 -3.79577 0
M  V30 3994 N 381.217 -4.53689 -4.13569 0
M  V30 3995 C 382.588 -4.70923 -4.03276 0
M  V30 3996 C 384.643 -3.41432 -3.62393 0
M  V30 3997 C 383.346 -5.89914 -4.11574 0
M  V30 3998 C 385.372 -4.59793 -3.71947 0
M  V30 3999 C 384.734 -5.82489 -3.96088 0
M  V30 4000 H 380.833 -0.295589 -0.723983 0
M  V30 4001 H 383.417 -1.26413 -1.4808 0
M  V30 4002 H 381.588 -0.432655 -3.85983 0
M  V30 4003 H 383.32 -0.63927 -3.99619 0
M  V30 4004 H 380.075 -2.65702 -3.92045 0
M  V30 4005 H 380.499 -5.25492 -4.26834 0
M  V30 4006 H 385.141 -2.47594 -3.4272 0
M  V30 4007 H 382.859 -6.84164 -4.30053 0
M  V30 4008 H 386.445 -4.57048 -3.59998 0
M  V30 4009 H 385.325 -6.72546 -4.033 0
M  V30 4010 N 382.828 1.3818 -0.7579 0
M  V30 4011 C 383.791 2.28764 -0.141286 0
M  V30 4012 C 384.791 1.47388 0.642907 0
M  V30 4013 O 385.981 1.67781 0.468536 0
M  V30 4014 C 383.113 3.31184 0.808069 0
M  V30 4015 H 384.306 2.848 -0.939633 0
M  V30 4016 H 381.859 1.47212 -0.525191 0
M  V30 4017 H 382.594 2.80247 1.63193 0
M  V30 4018 H 382.379 3.91314 0.248104 0
M  V30 4019 H 383.869 3.98909 1.23536 0
M  V30 4020 N 384.306 0.507319 1.49211 0
M  V30 4021 C 385.552 -0.0350047 2.0277 0
M  V30 4022 C 385.885 -1.3606 1.38569 0
M  V30 4023 O 385.16 -1.87321 0.523542 0
M  V30 4024 C 385.443 -0.180916 3.59645 0
M  V30 4025 C 385.296 1.16825 4.34364 0
M  V30 4026 C 386.615 -0.918558 4.30407 0
M  V30 4027 H 383.734 -0.0112473 0.736914 0
M  V30 4028 H 386.376 0.659956 1.7817 0
M  V30 4029 H 384.526 -0.772826 3.80736 0
M  V30 4030 H 386.198 1.79952 4.24753 0
M  V30 4031 H 384.441 1.75594 3.96673 0
M  V30 4032 H 385.112 1.01939 5.42506 0
M  V30 4033 H 387.588 -0.41649 4.1401 0
M  V30 4034 H 386.464 -0.989505 5.39907 0
M  V30 4035 H 386.725 -1.96373 3.96093 0
M  V30 4036 N 385.784 -1.5574 0.241426 0
M  V30 4037 C 387.012 -2.03208 -0.389134 0
M  V30 4038 C 387.427 -1.12082 -1.51931 0
M  V30 4039 O 386.784 -0.134183 -1.82006 0
M  V30 4040 C 386.835 -3.50064 -0.902087 0
M  V30 4041 O 386.556 -4.37717 0.18305 0
M  V30 4042 C 388.057 -4.13268 -1.60389 0
M  V30 4043 H 385.277 -0.664509 -0.0931053 0
M  V30 4044 H 387.821 -2.0124 0.36369 0
M  V30 4045 H 385.976 -3.52583 -1.60511 0
M  V30 4046 H 386.39 -5.24097 -0.205579 0
M  V30 4047 H 387.864 -5.17733 -1.91458 0
M  V30 4048 H 388.341 -3.59434 -2.52397 0
M  V30 4049 H 388.947 -4.14655 -0.945576 0
M  V30 4050 N 387.262 0.0317525 -1.57568 0
M  V30 4051 C 388.487 0.738664 -1.938 0
M  V30 4052 C 388.912 1.68242 -0.841208 0
M  V30 4053 O 388.27 1.80157 0.203267 0
M  V30 4054 C 388.318 1.47417 -3.29091 0
M  V30 4055 O 387.422 2.5872 -3.2115 0
M  V30 4056 H 386.763 0.198856 -0.633524 0
M  V30 4057 H 389.293 -0.0119713 -2.04596 0
M  V30 4058 H 389.303 1.84468 -3.63917 0
M  V30 4059 H 387.978 0.781988 -4.08482 0
M  V30 4060 H 386.555 2.24231 -2.97951 0
M  V30 4061 N 388.74 1.54641 0.303973 0
M  V30 4062 C 389.67 1.88386 1.3796 0
M  V30 4063 C 390.651 0.742485 1.5304 0
M  V30 4064 O 391.836 0.997959 1.66597 0
M  V30 4065 C 388.966 2.12854 2.74427 0
M  V30 4066 C 387.92 3.28702 2.74115 0
M  V30 4067 C 387.246 3.38582 4.13844 0
M  V30 4068 C 388.546 4.65881 2.3612 0
M  V30 4069 H 390.24 2.78474 1.09966 0
M  V30 4070 H 387.786 1.33988 0.527556 0
M  V30 4071 H 389.739 2.35047 3.49758 0
M  V30 4072 H 388.463 1.19535 3.03939 0
M  V30 4073 H 387.122 3.06428 2.0124 0
M  V30 4074 H 386.77 2.42784 4.40528 0
M  V30 4075 H 386.47 4.16453 4.14537 0
M  V30 4076 H 387.994 3.63031 4.90959 0
M  V30 4077 H 389.408 4.87823 3.01167 0
M  V30 4078 H 387.805 5.46444 2.48031 0
M  V30 4079 H 388.875 4.66799 1.3125 0
M  V30 4080 N 390.218 -0.567019 1.47046 0
M  V30 4081 C 391.448 -1.34831 1.56538 0
M  V30 4082 C 391.856 -1.8802 0.21101 0
M  V30 4083 O 391.199 -1.65152 -0.804387 0
M  V30 4084 C 391.261 -2.56139 2.52256 0
M  V30 4085 C 390.925 -2.24307 3.98165 0
M  V30 4086 C 391.922 -1.82192 4.86931 0
M  V30 4087 C 389.607 -2.35968 4.43423 0
M  V30 4088 C 391.601 -1.52153 6.18973 0
M  V30 4089 C 389.288 -2.05542 5.75496 0
M  V30 4090 C 390.286 -1.63701 6.63092 0
M  V30 4091 O 389.974 -1.33657 7.92711 0
M  V30 4092 H 389.706 -0.417683 0.531523 0
M  V30 4093 H 392.26 -0.694726 1.93294 0
M  V30 4094 H 390.49 -3.24356 2.10548 0
M  V30 4095 H 392.179 -3.18214 2.51982 0
M  V30 4096 H 392.945 -1.72684 4.53217 0
M  V30 4097 H 388.824 -2.67495 3.75456 0
M  V30 4098 H 392.368 -1.19421 6.87302 0
M  V30 4099 H 388.265 -2.14679 6.08755 0
M  V30 4100 H 389.033 -1.4737 8.05124 0
M  V30 4101 N 391.696 -1.35014 -0.812953 0
M  V30 4102 C 392.606 -1.2951 -1.95613 0
M  V30 4103 C 393.622 -0.20107 -1.72834 0
M  V30 4104 O 394.798 -0.42932 -1.96771 0
M  V30 4105 C 391.863 -1.06033 -3.30088 0
M  V30 4106 C 390.924 -2.24688 -3.65805 0
M  V30 4107 C 390.157 -2.02322 -4.93864 0
M  V30 4108 O 390.38 -0.986464 -5.61805 0
M  V30 4109 O 389.314 -2.89525 -5.27692 0
M  V30 4110 H 393.14 -2.25705 -2.03202 0
M  V30 4111 H 390.725 -1.15321 -0.949811 0
M  V30 4112 H 392.607 -0.94763 -4.10607 0
M  V30 4113 H 391.282 -0.128852 -3.23443 0
M  V30 4114 H 390.189 -2.41521 -2.85689 0
M  V30 4115 H 391.522 -3.16261 -3.77147 0
M  V30 4116 N 393.175 1.03435 -1.18907 0
M  V30 4117 C 394.138 2.09756 -0.923844 0
M  V30 4118 C 395.138 1.60528 0.093416 0
M  V30 4119 O 396.328 1.73631 -0.140727 0
M  V30 4120 C 393.46 3.38692 -0.387354 0
M  V30 4121 H 394.653 2.34719 -1.86674 0
M  V30 4122 H 392.206 1.19959 -1.00197 0
M  V30 4123 H 392.941 3.19396 0.561845 0
M  V30 4124 H 392.726 3.75742 -1.12074 0
M  V30 4125 H 394.216 4.17016 -0.220694 0
M  V30 4126 N 394.653 0.992116 1.22453 0
M  V30 4127 C 396.069 0.702713 1.43297 0
M  V30 4128 C 396.269 -0.726909 1.87932 0
M  V30 4129 O 395.325 -1.49792 2.0327 0
M  V30 4130 C 396.638 1.70762 2.47509 0
M  V30 4131 C 398.186 1.72298 2.61309 0
M  V30 4132 C 398.661 2.71649 3.68742 0
M  V30 4133 N 400.152 2.70239 3.76199 0
M  V30 4134 C 400.887 3.43778 4.58917 0
M  V30 4135 N 400.383 4.26914 5.45633 0
M  V30 4136 N 402.176 3.32487 4.5322 0
M  V30 4137 H 394.327 1.91543 0.917871 0
M  V30 4138 H 396.59 0.826031 0.465162 0
M  V30 4139 H 396.296 2.73059 2.21657 0
M  V30 4140 H 396.17 1.49985 3.46099 0
M  V30 4141 H 398.557 0.706989 2.86506 0
M  V30 4142 H 398.638 1.97143 1.62997 0
M  V30 4143 H 398.282 3.73397 3.44292 0
M  V30 4144 H 398.212 2.44074 4.66622 0
M  V30 4145 H 400.703 2.09912 3.14237 0
M  V30 4146 H 401.016 4.79855 6.05771 0
M  V30 4147 H 399.361 4.31002 5.45218 0
M  V30 4148 H 402.552 2.6698 3.84499 0
M  V30 4149 H 402.725 3.90058 5.17454 0
M  V30 4150 N 396.131 -1.37776 0.765217 0
M  V30 4151 C 397.079 -2.32209 0.134798 0
M  V30 4152 C 398.073 -1.54607 -0.692315 0
M  V30 4153 O 399.279 -1.70052 -0.590109 0
M  V30 4154 H 395.654 -0.751591 0.0248005 0
M  V30 4155 H 397.625 -2.8297 0.947119 0
M  V30 4156 C 396.374 -3.39841 -0.735063 0
M  V30 4157 H 395.697 -3.99654 -0.107991 0
M  V30 4158 H 397.137 -4.08296 -1.14326 0
M  V30 4159 C 395.596 -2.79378 -1.88281 0
M  V30 4160 O 396.126 -2.69608 -2.97783 0
M  V30 4161 N 394.332 -2.37016 -1.68142 0
M  V30 4162 H 393.879 -2.45162 -0.790772 0
M  V30 4163 H 393.837 -1.96905 -2.45104 0
M  V30 4164 N 397.609 -0.515225 -1.4894 0
M  V30 4165 C 399.025 -0.172099 -1.58669 0
M  V30 4166 C 399.225 1.32405 -1.51892 0
M  V30 4167 O 398.281 2.10116 -1.40027 0
M  V30 4168 C 399.594 -0.761533 -2.90897 0
M  V30 4169 C 401.142 -0.728926 -3.04394 0
M  V30 4170 C 401.617 -1.29667 -4.39261 0
M  V30 4171 N 403.108 -1.25799 -4.4579 0
M  V30 4172 C 403.843 -1.66733 -5.48623 0
M  V30 4173 N 403.339 -2.15327 -6.58488 0
M  V30 4174 N 405.132 -1.58061 -5.39419 0
M  V30 4175 H 397.283 -1.48778 -1.51588 0
M  V30 4176 H 399.546 -0.617968 -0.718901 0
M  V30 4177 H 399.252 -1.81136 -3.01468 0
M  V30 4178 H 399.126 -0.230106 -3.76497 0
M  V30 4179 H 401.513 0.312098 -2.93445 0
M  V30 4180 H 401.594 -1.29766 -2.20442 0
M  V30 4181 H 401.238 -2.33655 -4.50963 0
M  V30 4182 H 401.168 -0.703752 -5.21876 0
M  V30 4183 H 403.659 -0.902102 -3.66975 0
M  V30 4184 H 403.972 -2.44594 -7.33071 0
M  V30 4185 H 402.317 -2.19311 -6.59491 0
M  V30 4186 H 405.508 -1.19906 -4.52482 0
M  V30 4187 H 405.681 -1.90284 -6.19432 0
M  V30 4188 N 399.087 1.5561 -0.249682 0
M  V30 4189 C 400.315 2.03411 0.378352 0
M  V30 4190 C 400.73 1.12886 1.51335 0
M  V30 4191 O 400.087 0.143833 1.81932 0
M  V30 4192 C 400.138 3.50537 0.88351 0
M  V30 4193 O 399.859 4.37614 -0.20626 0
M  V30 4194 C 401.36 4.14113 1.58195 0
M  V30 4195 H 398.58 0.664994 0.08958 0
M  V30 4196 H 401.124 2.01044 -0.374357 0
M  V30 4197 H 399.279 3.5343 1.58639 0
M  V30 4198 H 399.693 5.24199 0.177782 0
M  V30 4199 H 401.167 5.18741 1.8871 0
M  V30 4200 H 401.644 3.60767 2.50487 0
M  V30 4201 H 402.25 4.15151 0.923573 0
M  V30 4202 N 400.565 -0.0233959 1.57583 0
M  V30 4203 C 401.495 -1.02162 2.09965 0
M  V30 4204 C 402.476 -1.3735 1.00344 0
M  V30 4205 O 403.661 -1.46135 1.27899 0
M  V30 4206 C 400.791 -2.32081 2.58371 0
M  V30 4207 C 399.745 -2.1112 3.72307 0
M  V30 4208 C 399.071 -3.46848 4.06941 0
M  V30 4209 C 400.371 -1.49276 5.00514 0
M  V30 4210 H 402.065 -0.585557 2.93618 0
M  V30 4211 H 399.611 -0.280218 1.41247 0
M  V30 4212 H 401.564 -3.02249 2.93639 0
M  V30 4213 H 400.288 -2.77758 1.71808 0
M  V30 4214 H 398.947 -1.43384 3.37397 0
M  V30 4215 H 398.595 -3.90184 3.17436 0
M  V30 4216 H 398.295 -3.33646 4.83688 0
M  V30 4217 H 399.819 -4.18369 4.44747 0
M  V30 4218 H 401.233 -2.09368 5.33702 0
M  V30 4219 H 399.63 -1.46632 5.8191 0
M  V30 4220 H 400.7 -0.459217 4.82721 0
M  V30 4221 N 402.043 -1.548 -0.295768 0
M  V30 4222 C 402.991 -1.86874 -1.38495 0
M  V30 4223 C 403.985 -0.742938 -1.52239 0
M  V30 4224 O 405.191 -0.926999 -1.54294 0
M  V30 4225 H 401.566 -0.592786 -0.462719 0
M  V30 4226 H 403.537 -2.77904 -1.08682 0
M  V30 4227 C 402.286 -2.13732 -2.74252 0
M  V30 4228 H 401.609 -2.99835 -2.64459 0
M  V30 4229 H 403.049 -2.4011 -3.49461 0
M  V30 4230 C 401.508 -0.937539 -3.23592 0
M  V30 4231 O 402.038 -0.160665 -4.01379 0
M  V30 4232 N 400.244 -0.741478 -2.80981 0
M  V30 4233 H 399.791 -1.37489 -2.1784 0
M  V30 4234 H 399.749 0.0597103 -3.14343 0
M  V30 4235 N 403.521 0.559213 -1.47345 0
M  V30 4236 C 404.451 1.67622 -1.62558 0
M  V30 4237 C 405.432 1.63331 -0.475087 0
M  V30 4238 O 406.617 1.80983 -0.704182 0
M  V30 4239 C 403.747 3.0626 -1.63774 0
M  V30 4240 C 402.701 3.25397 -2.7803 0
M  V30 4241 C 402.027 4.64801 -2.64318 0
M  V30 4242 C 403.327 3.10965 -4.19641 0
M  V30 4243 H 405.021 1.55146 -2.56067 0
M  V30 4244 H 402.567 0.744961 -1.23233 0
M  V30 4245 H 404.52 3.84247 -1.73008 0
M  V30 4246 H 403.244 3.1969 -0.66825 0
M  V30 4247 H 401.903 2.49817 -2.68304 0
M  V30 4248 H 401.551 4.75028 -1.65401 0
M  V30 4249 H 401.251 4.78555 -3.40968 0
M  V30 4250 H 402.775 5.44926 -2.75478 0
M  V30 4251 H 404.189 3.78772 -4.30354 0
M  V30 4252 H 402.586 3.36229 -4.97062 0
M  V30 4253 H 403.656 2.07736 -4.38148 0
M  V30 4254 N 404.999 1.35443 0.805782 0
M  V30 4255 C 405.962 1.28301 1.89925 0
M  V30 4256 C 406.962 0.194285 1.59622 0
M  V30 4257 O 408.152 0.448036 1.6834 0
M  V30 4258 C 405.284 0.984997 3.2636 0
M  V30 4259 H 406.477 2.2553 1.97677 0
M  V30 4260 H 404.03 1.19979 1.00173 0
M  V30 4261 H 404.765 0.016603 3.24296 0
M  V30 4262 H 404.55 1.77269 3.4974 0
M  V30 4263 H 406.04 0.960651 4.064 0
M  V30 4264 N 406.477 -1.02803 1.19454 0
M  V30 4265 C 407.424 -2.11099 0.933046 0
M  V30 4266 C 408.394 -1.65571 -0.132447 0
M  V30 4267 O 409.579 -1.90797 0.00987576 0
M  V30 4268 C 406.719 -3.41763 0.478747 0
M  V30 4269 C 405.832 -4.00833 1.6111 0
M  V30 4270 C 404.967 -5.19511 1.10825 0
M  V30 4271 C 404.006 -5.70639 2.21445 0
M  V30 4272 N 403.143 -6.80589 1.72461 0
M  V30 4273 H 407.983 -2.32804 1.86028 0
M  V30 4274 H 405.52 -1.14179 0.927441 0
M  V30 4275 H 407.478 -4.16736 0.196745 0
M  V30 4276 H 406.108 -3.20166 -0.411493 0
M  V30 4277 H 405.16 -3.23066 2.00829 0
M  V30 4278 H 406.472 -4.34794 2.4445 0
M  V30 4279 H 405.626 -6.01645 0.781533 0
M  V30 4280 H 404.365 -4.87086 0.244606 0
M  V30 4281 H 403.37 -4.87116 2.54947 0
M  V30 4282 H 404.595 -6.05102 3.08267 0
M  V30 4283 H 402.541 -6.50016 0.884056 0
M  V30 4284 H 402.458 -7.13681 2.49389 0
M  V30 4285 H 403.726 -7.66317 1.42755 0
M  V30 4286 N 407.956 -0.998596 -1.21925 0
M  V30 4287 C 408.886 -0.573688 -2.26343 0
M  V30 4288 C 409.867 0.402296 -1.65274 0
M  V30 4289 O 411.052 0.291683 -1.91997 0
M  V30 4290 C 408.182 0.106839 -3.47136 0
M  V30 4291 C 407.136 -0.788269 -4.20678 0
M  V30 4292 C 406.462 0.0254927 -5.34694 0
M  V30 4293 C 407.762 -2.08784 -4.78755 0
M  V30 4294 H 409.456 -1.44651 -2.62138 0
M  V30 4295 H 407.002 -0.696975 -1.26009 0
M  V30 4296 H 408.955 0.415531 -4.19346 0
M  V30 4297 H 407.679 1.01424 -3.10452 0
M  V30 4298 H 406.338 -1.08069 -3.50309 0
M  V30 4299 H 405.986 0.933989 -4.94253 0
M  V30 4300 H 405.686 -0.570437 -5.84825 0
M  V30 4301 H 407.21 0.328147 -6.09718 0
M  V30 4302 H 408.624 -1.84272 -5.42878 0
M  V30 4303 H 407.021 -2.63307 -5.39249 0
M  V30 4304 H 408.091 -2.76284 -3.98491 0
M  V30 4305 N 409.434 1.37368 -0.772513 0
M  V30 4306 C 410.662 2.03942 -0.348588 0
M  V30 4307 C 411.077 1.58264 1.02947 0
M  V30 4308 O 410.434 0.764246 1.65727 0
M  V30 4309 C 410.485 3.5946 -0.38351 0
M  V30 4310 O 410.206 4.03468 -1.70721 0
M  V30 4311 C 411.707 4.4327 0.0519152 0
M  V30 4312 H 408.927 0.654931 -0.145966 0
M  V30 4313 H 411.471 1.75686 -1.04665 0
M  V30 4314 H 409.626 3.86486 0.265978 0
M  V30 4315 H 410.04 4.97991 -1.64636 0
M  V30 4316 H 411.514 5.51995 -0.0236733 0
M  V30 4317 H 411.991 4.2514 1.10238 0
M  V30 4318 H 412.597 4.21471 -0.569415 0
M  V30 4319 N 410.912 0.523116 1.48665 0
M  V30 4320 C 412.16 -0.0134497 2.02096 0
M  V30 4321 C 412.481 -1.35418 1.40311 0
M  V30 4322 O 411.751 -1.87543 0.566074 0
M  V30 4323 H 410.331 -0.00795915 0.746958 0
M  V30 4324 H 412.993 0.685388 1.82451 0
M  V30 4325 H 412.089 -0.126849 3.11842 0
M  V30 4326 N 412.39 -1.55475 0.257931 0
M  V30 4327 C 413.63 -2.01112 -0.365129 0
M  V30 4328 C 413.994 -1.1423 -1.54323 0
M  V30 4329 O 415.195 -1.49371 -2.23477 0
M  V30 4330 C 413.466 -3.49353 -0.754117 0
M  V30 4331 S 415.025 -4.16992 -1.36614 0
M  V30 4332 H 411.843 -0.701737 -0.114397 0
M  V30 4333 H 414.445 -1.91855 0.375747 0
M  V30 4334 H 413.149 -4.10246 0.112441 0
M  V30 4335 H 412.68 -3.6256 -1.52689 0
M  V30 4336 H 414.695 -4.19191 -2.65505 0
M  V30 4337 N 413.868 0.0150385 -1.57593 0
M  V30 4338 C 415.093 0.718067 -1.94573 0
M  V30 4339 C 415.518 1.6734 -0.859005 0
M  V30 4340 O 414.876 1.80362 0.184147 0
M  V30 4341 C 414.924 1.43918 -3.30636 0
M  V30 4342 O 414.028 2.55299 -3.23876 0
M  V30 4343 H 413.369 0.192125 -0.635597 0
M  V30 4344 H 415.899 -0.0336708 -2.04572 0
M  V30 4345 H 415.909 1.80598 -3.65853 0
M  V30 4346 H 414.584 0.738619 -4.09289 0
M  V30 4347 H 413.161 2.21058 -3.00312 0
M  V30 4348 N 415.346 1.54954 0.287554 0
M  V30 4349 C 416.762 1.46469 0.633964 0
M  V30 4350 C 416.962 0.666865 1.90145 0
M  V30 4351 O 416.018 0.179906 2.51858 0
M  V30 4352 C 417.331 2.90556 0.774454 0
M  V30 4353 C 418.879 3.00681 0.869462 0
M  V30 4354 C 419.354 4.45993 1.04184 0
M  V30 4355 N 420.845 4.4976 1.10772 0
M  V30 4356 C 421.58 5.59393 1.25964 0
M  V30 4357 N 421.076 6.78923 1.37968 0
M  V30 4358 N 422.869 5.47107 1.28959 0
M  V30 4359 H 415.02 2.05288 -0.545041 0
M  V30 4360 H 417.283 0.930305 -0.182308 0
M  V30 4361 H 416.989 3.51594 -0.086207 0
M  V30 4362 H 416.863 3.38743 1.6593 0
M  V30 4363 H 419.25 2.39749 1.7206 0
M  V30 4364 H 419.331 2.55769 -0.0396831 0
M  V30 4365 H 418.975 5.07524 0.195422 0
M  V30 4366 H 418.905 4.88548 1.96542 0
M  V30 4367 H 421.396 3.63651 1.02794 0
M  V30 4368 H 421.709 7.58231 1.49353 0
M  V30 4369 H 420.054 6.81763 1.34999 0
M  V30 4370 H 423.245 4.52668 1.19202 0
M  V30 4371 H 423.418 6.32595 1.40455 0
M  V30 4372 N 416.824 -0.551391 1.4764 0
M  V30 4373 C 417.734 -1.68525 1.63207 0
M  V30 4374 C 418.75 -1.6621 0.514815 0
M  V30 4375 O 419.926 -1.85551 0.783113 0
M  V30 4376 C 416.991 -3.05025 1.64805 0
M  V30 4377 C 416.052 -3.18362 2.88 0
M  V30 4378 C 415.285 -4.4835 2.89513 0
M  V30 4379 O 415.508 -5.34163 2.00065 0
M  V30 4380 O 414.442 -4.65602 3.81443 0
M  V30 4381 H 418.268 -1.58333 2.59161 0
M  V30 4382 H 415.853 -0.722063 1.30792 0
M  V30 4383 H 417.735 -3.86245 1.68502 0
M  V30 4384 H 416.41 -3.15587 0.720197 0
M  V30 4385 H 415.317 -2.36518 2.89845 0
M  V30 4386 H 416.65 -3.12707 3.80099 0
M  V30 4387 N 418.302 -1.35869 -0.798587 0
M  V30 4388 C 419.25 -1.29491 -1.93222 0
M  V30 4389 C 420.244 -0.18836 -1.6835 0
M  V30 4390 O 421.45 -0.354822 -1.76468 0
M  V30 4391 H 417.825 -0.402901 -0.63496 0
M  V30 4392 H 419.796 -2.25247 -1.9572 0
M  V30 4393 C 418.545 -1.09184 -3.30112 0
M  V30 4394 H 417.868 -1.93574 -3.49813 0
M  V30 4395 H 419.308 -1.08766 -4.09812 0
M  V30 4396 C 417.767 0.203959 -3.36282 0
M  V30 4397 O 418.297 1.19699 -3.83451 0
M  V30 4398 N 416.503 0.245488 -2.89561 0
M  V30 4399 H 416.05 -0.563223 -2.51367 0
M  V30 4400 H 416.008 1.11219 -2.94071 0
M  V30 4401 N 419.78 1.02168 -1.19998 0
M  V30 4402 C 420.69 2.14069 -0.959774 0
M  V30 4403 C 421.706 1.73804 0.082655 0
M  V30 4404 O 422.882 2.01133 -0.103633 0
M  V30 4405 C 419.947 3.42936 -0.509459 0
M  V30 4406 C 419.008 3.97474 -1.62213 0
M  V30 4407 C 418.241 5.2019 -1.19321 0
M  V30 4408 O 418.464 5.70369 -0.0597726 0
M  V30 4409 O 417.398 5.67749 -1.99863 0
M  V30 4410 H 421.224 2.37199 -1.89658 0
M  V30 4411 H 418.809 1.12469 -0.983411 0
M  V30 4412 H 420.691 4.20551 -0.267322 0
M  V30 4413 H 419.366 3.21234 0.398821 0
M  V30 4414 H 418.273 3.21161 -1.9185 0
M  V30 4415 H 419.606 4.23555 -2.50723 0
M  V30 4416 N 421.258 1.00505 1.21394 0
M  V30 4417 C 422.486 0.706609 1.9446 0
M  V30 4418 C 422.901 -0.73081 1.74082 0
M  V30 4419 O 422.258 -1.49446 1.04747 0
M  V30 4420 C 422.309 1.01824 3.46863 0
M  V30 4421 O 422.03 2.39919 3.66566 0
M  V30 4422 C 423.531 0.739216 4.37093 0
M  V30 4423 H 420.751 0.260394 0.618414 0
M  V30 4424 H 423.295 1.34311 1.54211 0
M  V30 4425 H 421.45 0.427343 3.85036 0
M  V30 4426 H 421.864 2.50784 4.6066 0
M  V30 4427 H 423.338 1.00744 5.42729 0
M  V30 4428 H 423.815 -0.326746 4.37983 0
M  V30 4429 H 424.421 1.31173 4.04566 0
M  V30 4430 N 422.737 -1.36956 0.779787 0
M  V30 4431 C 423.647 -2.33965 0.172491 0
M  V30 4432 C 424.663 -1.60574 -0.670222 0
M  V30 4433 O 425.839 -1.92617 -0.588263 0
M  V30 4434 C 422.904 -3.39761 -0.690173 0
M  V30 4435 C 421.965 -4.28964 0.169924 0
M  V30 4436 C 421.198 -5.29707 -0.651662 0
M  V30 4437 O 421.421 -5.38238 -1.88827 0
M  V30 4438 O 420.355 -6.01873 -0.0566264 0
M  V30 4439 H 424.181 -2.87647 0.974321 0
M  V30 4440 H 421.766 -1.39258 0.541078 0
M  V30 4441 H 423.648 -4.04471 -1.1824 0
M  V30 4442 H 422.323 -2.88394 -1.47006 0
M  V30 4443 H 421.23 -3.67326 0.708696 0
M  V30 4444 H 422.563 -4.83656 0.913085 0
M  V30 4445 N 424.215 -0.530993 -1.48385 0
M  V30 4446 C 425.464 0.00474348 -2.01699 0
M  V30 4447 C 425.777 1.35227 -1.41325 0
M  V30 4448 O 426.983 1.97643 -1.86144 0
M  V30 4449 C 425.439 0.0588473 -3.59852 0
M  V30 4450 C 425.047 -1.28385 -4.2921 0
M  V30 4451 C 426.791 0.543358 -4.21008 0
M  V30 4452 C 424.698 -1.19028 -5.79298 0
M  V30 4453 H 423.628 0.00554317 -0.75398 0
M  V30 4454 H 426.279 -0.674924 -1.70637 0
M  V30 4455 H 424.661 0.803612 -3.8776 0
M  V30 4456 H 425.835 -2.04426 -4.12973 0
M  V30 4457 H 424.15 -1.70418 -3.7993 0
M  V30 4458 H 426.747 0.631351 -5.3096 0
M  V30 4459 H 427.09 1.54937 -3.86394 0
M  V30 4460 H 427.623 -0.145754 -3.97533 0
M  V30 4461 H 424.362 -2.17147 -6.18488 0
M  V30 4462 H 423.882 -0.471246 -5.97946 0
M  V30 4463 H 425.561 -0.881365 -6.40969 0
M  V30 4464 N 425.693 1.55336 -0.266172 0
M  V30 4465 C 426.942 1.98574 0.353749 0
M  V30 4466 C 427.255 1.15789 1.57646 0
M  V30 4467 O 428.461 1.49129 2.26876 0
M  V30 4468 C 426.917 3.53403 0.680747 0
M  V30 4469 C 426.525 4.44953 -0.52165 0
M  V30 4470 C 428.269 4.05251 1.26379 0
M  V30 4471 C 426.176 5.91156 -0.169736 0
M  V30 4472 H 425.106 0.741643 0.135949 0
M  V30 4473 H 427.757 1.79743 -0.369421 0
M  V30 4474 H 426.139 3.68001 1.46257 0
M  V30 4475 H 427.313 4.42121 -1.29869 0
M  V30 4476 H 425.628 4.03691 -1.02093 0
M  V30 4477 H 428.225 5.12021 1.54074 0
M  V30 4478 H 428.568 3.53749 2.19471 0
M  V30 4479 H 429.101 3.94057 0.544447 0
M  V30 4480 H 425.84 6.46736 -1.0683 0
M  V30 4481 H 425.36 5.97079 0.570717 0
M  V30 4482 H 427.039 6.4655 0.241245 0
M  V30 4483 N 427.171 -0.0066808 1.57599 0
M  V30 4484 C 428.118 -1.00024 2.08 0
M  V30 4485 C 429.088 -1.34549 0.973943 0
M  V30 4486 O 430.273 -1.44502 1.24595 0
M  V30 4487 C 427.413 -2.2891 2.58252 0
M  V30 4488 C 426.526 -2.00346 3.82734 0
M  V30 4489 C 425.661 -3.23265 4.21513 0
M  V30 4490 C 424.7 -2.90357 5.3885 0
M  V30 4491 N 423.837 -4.05793 5.72954 0
M  V30 4492 H 428.677 -0.563499 2.92624 0
M  V30 4493 H 426.214 -0.266592 1.44664 0
M  V30 4494 H 428.172 -3.04247 2.85464 0
M  V30 4495 H 426.802 -2.70265 1.76512 0
M  V30 4496 H 425.854 -1.15406 3.62471 0
M  V30 4497 H 427.166 -1.72086 4.68175 0
M  V30 4498 H 426.32 -4.06953 4.49971 0
M  V30 4499 H 425.059 -3.54657 3.34768 0
M  V30 4500 H 424.064 -2.05075 5.10122 0
M  V30 4501 H 425.289 -2.60219 6.27266 0
M  V30 4502 H 423.235 -4.37094 4.89167 0
M  V30 4503 H 423.152 -3.81034 6.52954 0
M  V30 4504 H 424.42 -4.90289 6.06001 0
M  V30 4505 N 428.649 -1.55105 -0.279332 0
M  V30 4506 C 429.889 -1.7716 -1.01949 0
M  V30 4507 C 430.253 -0.557511 -1.83728 0
M  V30 4508 O 431.454 -0.656198 -2.60667 0
M  V30 4509 C 429.725 -3.0372 -1.88385 0
M  V30 4510 S 431.284 -3.46868 -2.68752 0
M  V30 4511 H 428.102 -0.62253 -0.343478 0
M  V30 4512 H 430.704 -1.93329 -0.290572 0
M  V30 4513 H 429.408 -3.90184 -1.2722 0
M  V30 4514 H 428.939 -2.902 -2.65608 0
M  V30 4515 H 430.954 -3.05643 -3.90892 0
M  V30 4516 N 430.127 0.543554 -1.4793 0
M  V30 4517 C 431.057 1.65888 -1.64327 0
M  V30 4518 C 432.038 1.62818 -0.492383 0
M  V30 4519 O 433.223 1.80226 -0.723338 0
M  V30 4520 C 430.353 3.04506 -1.67013 0
M  V30 4521 C 429.307 3.2243 -2.81466 0
M  V30 4522 C 428.633 4.61972 -2.69233 0
M  V30 4523 C 429.933 3.06496 -4.22915 0
M  V30 4524 H 431.627 1.52421 -2.57698 0
M  V30 4525 H 429.173 0.731849 -1.24016 0
M  V30 4526 H 431.126 3.82391 -1.77074 0
M  V30 4527 H 429.85 3.18964 -0.70212 0
M  V30 4528 H 428.509 2.46957 -2.70938 0
M  V30 4529 H 428.157 4.73247 -1.7043 0
M  V30 4530 H 427.857 4.74911 -3.46025 0
M  V30 4531 H 429.381 5.41974 -2.81242 0
M  V30 4532 H 430.795 3.74186 -4.34348 0
M  V30 4533 H 429.192 3.30938 -5.006 0
M  V30 4534 H 430.262 2.03077 -4.40327 0
M  V30 4535 N 431.605 1.3629 0.791371 0
M  V30 4536 C 433.021 1.16661 1.08914 0
M  V30 4537 C 433.221 -0.0106266 2.01497 0
M  V30 4538 O 432.277 -0.676596 2.43266 0
M  V30 4539 C 433.59 2.47656 1.70549 0
M  V30 4540 C 435.138 2.54002 1.82899 0
M  V30 4541 C 435.613 3.85078 2.47949 0
M  V30 4542 N 437.104 3.86413 2.5542 0
M  V30 4543 C 437.839 4.84572 3.06557 0
M  V30 4544 N 437.335 5.93124 3.58016 0
M  V30 4545 N 439.128 4.71994 3.05251 0
M  V30 4546 H 431.279 2.11668 0.176238 0
M  V30 4547 H 433.542 0.937486 0.140796 0
M  V30 4548 H 433.248 3.34059 1.09989 0
M  V30 4549 H 433.122 2.63319 2.70079 0
M  V30 4550 H 435.509 1.68018 2.42598 0
M  V30 4551 H 435.59 2.42239 0.821808 0
M  V30 4552 H 435.234 4.71467 1.88895 0
M  V30 4553 H 435.164 3.94135 3.49235 0
M  V30 4554 H 437.655 3.07988 2.18979 0
M  V30 4555 H 437.968 6.63999 3.95381 0
M  V30 4556 H 436.313 5.96796 3.56173 0
M  V30 4557 H 439.504 3.86321 2.64336 0
M  V30 4558 H 439.677 5.48653 3.44796 0
M  V30 4559 N 433.083 -1.0153 1.20538 0
M  V30 4560 C 434.031 -2.12215 0.952235 0
M  V30 4561 C 435.025 -1.69123 -0.0968735 0
M  V30 4562 O 436.231 -1.7992 0.0536006 0
M  V30 4563 H 432.606 -0.693576 0.290613 0
M  V30 4564 H 434.577 -2.3075 1.89201 0
M  V30 4565 C 433.326 -3.43755 0.522287 0
M  V30 4566 H 432.649 -3.7734 1.32115 0
M  V30 4567 H 434.089 -4.22254 0.384389 0
M  V30 4568 C 432.548 -3.28088 -0.765489 0
M  V30 4569 O 433.078 -3.57921 -1.8236 0
M  V30 4570 N 431.284 -2.81333 -0.728011 0
M  V30 4571 H 430.831 -2.57255 0.133332 0
M  V30 4572 H 430.789 -2.71232 -1.58999 0
M  V30 4573 N 434.561 -1.01147 -1.20859 0
M  V30 4574 C 435.508 -0.577354 -2.23462 0
M  V30 4575 C 436.478 0.399922 -1.61214 0
M  V30 4576 O 437.663 0.300515 -1.88419 0
M  V30 4577 C 434.803 0.083372 -3.44999 0
M  V30 4578 C 433.916 -0.937856 -4.21697 0
M  V30 4579 C 433.051 -0.248717 -5.30617 0
M  V30 4580 C 432.09 -1.25705 -5.99053 0
M  V30 4581 N 431.227 -0.594939 -6.99575 0
M  V30 4582 H 436.067 -1.45695 -2.59956 0
M  V30 4583 H 433.604 -0.729428 -1.27741 0
M  V30 4584 H 435.562 0.483535 -4.14388 0
M  V30 4585 H 434.192 0.926645 -3.09214 0
M  V30 4586 H 433.244 -1.45622 -3.51423 0
M  V30 4587 H 434.556 -1.70493 -4.68757 0
M  V30 4588 H 433.71 0.207215 -6.06346 0
M  V30 4589 H 432.449 0.55071 -4.84581 0
M  V30 4590 H 431.454 -1.72343 -5.2209 0
M  V30 4591 H 432.679 -2.05767 -6.47176 0
M  V30 4592 H 430.625 0.184713 -6.5574 0
M  V30 4593 H 430.542 -1.30017 -7.44736 0
M  V30 4594 H 431.81 -0.162427 -7.79331 0
M  V30 4595 N 436.039 1.36541 -0.78704 0
M  V30 4596 C 437.316 1.9355 -0.282424 0
M  V30 4597 C 437.696 1.71919 1.22503 0
M  V30 4598 O 437.044 1.07677 2.01539 0
M  V30 4599 C 437.254 3.4246 -0.672462 0
M  V30 4600 C 438.602 4.19582 -0.650863 0
M  V30 4601 O 439.626 3.50889 -0.612789 0
M  V30 4602 O 438.485 5.42106 -0.691623 0
M  V30 4603 H 435.579 0.824091 -0.0693 0
M  V30 4604 H 438.125 1.45736 -0.869423 0
M  V30 4605 H 436.897 3.51851 -1.71221 0
M  V30 4606 H 436.52 3.97556 -0.0592211 0
M  V30 4607 N 437.518 0.538854 1.48102 0
M  V30 4608 C 438.929 0.100679 1.86428 0
M  V30 4609 C 439.28 -1.32447 1.44749 0
M  V30 4610 O 438.405 -1.99339 0.842199 0
M  V30 4611 C 439 0.175933 3.38343 0
M  V30 4612 C 437.559 -0.207098 3.7583 0
M  V30 4613 C 436.706 0.531741 2.72154 0
M  V30 4614 H 439.657 0.749614 1.3988 0
M  V30 4615 H 439.678 -0.610144 3.75576 0
M  V30 4616 H 439.19 1.21328 3.68648 0
M  V30 4617 H 437.291 -1.24626 3.5114 0
M  V30 4618 H 437.404 0.138687 4.78899 0
M  V30 4619 H 435.768 -0.0230462 2.5469 0
M  V30 4620 H 436.551 1.56989 3.05302 0
M  V30 4621 N 438.996 -1.55193 0.274407 0
M  V30 4622 C 439.928 -2.1989 -0.646595 0
M  V30 4623 C 440.941 -1.1834 -1.11801 0
M  V30 4624 O 442.13 -1.4507 -1.04004 0
M  V30 4625 C 439.23 -2.8104 -1.89393 0
M  V30 4626 C 438.403 -4.08274 -1.56943 0
M  V30 4627 C 437.462 -4.53478 -2.66916 0
M  V30 4628 O 436.488 -5.19267 -2.33132 0
M  V30 4629 N 437.69 -4.2356 -3.9696 0
M  V30 4630 H 440.455 -2.99556 -0.0928686 0
M  V30 4631 H 438.016 -1.61618 0.0954783 0
M  V30 4632 H 440.008 -3.08226 -2.62257 0
M  V30 4633 H 438.578 -2.05372 -2.35672 0
M  V30 4634 H 437.798 -3.88384 -0.674655 0
M  V30 4635 H 439.086 -4.91173 -1.32764 0
M  V30 4636 H 438.484 -3.70799 -4.27229 0
M  V30 4637 H 437.041 -4.55518 -4.66205 0
M  V30 4638 N 440.474 -0.00167713 -1.576 0
M  V30 4639 C 441.384 1.00548 -2.1196 0
M  V30 4640 C 442.4 1.3758 -1.06526 0
M  V30 4641 O 443.576 1.46278 -1.38436 0
M  V30 4642 C 440.641 2.27809 -2.6135 0
M  V30 4643 C 439.702 1.97074 -3.81393 0
M  V30 4644 C 438.935 3.18267 -4.28417 0
M  V30 4645 O 439.158 4.30009 -3.74765 0
M  V30 4646 O 438.092 3.02167 -5.20556 0
M  V30 4647 H 441.918 0.573373 -2.98238 0
M  V30 4648 H 439.503 0.217255 -1.47812 0
M  V30 4649 H 441.385 3.02568 -2.93309 0
M  V30 4650 H 440.06 2.70254 -1.78169 0
M  V30 4651 H 438.967 1.19785 -3.54404 0
M  V30 4652 H 440.3 1.59464 -4.65652 0
M  V30 4653 N 441.952 1.55251 0.271103 0
M  V30 4654 C 443.201 1.75151 1.00025 0
M  V30 4655 C 443.514 0.561041 1.87381 0
M  V30 4656 O 444.72 0.642506 2.63788 0
M  V30 4657 C 443.176 3.09999 1.82835 0
M  V30 4658 C 442.784 4.3662 1.00336 0
M  V30 4659 C 444.528 3.39249 2.55168 0
M  V30 4660 C 442.435 5.62506 1.82595 0
M  V30 4661 H 441.365 0.652877 0.377183 0
M  V30 4662 H 444.016 1.81708 0.255843 0
M  V30 4663 H 442.398 2.97485 2.61378 0
M  V30 4664 H 443.572 4.60055 0.261959 0
M  V30 4665 H 441.887 4.14527 0.394486 0
M  V30 4666 H 444.484 4.3051 3.1712 0
M  V30 4667 H 444.827 2.59467 3.2555 0
M  V30 4668 H 445.36 3.52869 1.83653 0
M  V30 4669 H 442.099 6.45041 1.16631 0
M  V30 4670 H 441.619 5.43211 2.54327 0
M  V30 4671 H 443.298 6.00875 2.39913 0
M  V30 4672 N 443.43 -0.535701 1.48216 0
M  V30 4673 C 444.36 -1.65014 1.65204 0
M  V30 4674 C 445.341 -1.62554 0.501011 0
M  V30 4675 O 446.526 -1.7984 0.732886 0
M  V30 4676 C 443.656 -3.03616 1.68626 0
M  V30 4677 C 442.61 -3.20932 2.83172 0
M  V30 4678 C 441.936 -4.60537 2.71679 0
M  V30 4679 C 443.236 -3.04249 4.24535 0
M  V30 4680 H 444.93 -1.51053 2.58502 0
M  V30 4681 H 442.476 -0.725262 1.24402 0
M  V30 4682 H 444.429 -3.81446 1.79099 0
M  V30 4683 H 443.153 -3.18587 0.719026 0
M  V30 4684 H 441.812 -2.45517 2.72244 0
M  V30 4685 H 441.46 -4.72336 1.72937 0
M  V30 4686 H 441.16 -4.73069 3.48538 0
M  V30 4687 H 442.684 -5.40475 2.84112 0
M  V30 4688 H 444.098 -3.71877 4.36326 0
M  V30 4689 H 442.495 -3.28278 5.02348 0
M  V30 4690 H 443.565 -2.00739 4.41397 0
M  V30 4691 N 444.908 -1.36708 -0.784132 0
M  V30 4692 C 445.838 -1.34153 -1.91116 0
M  V30 4693 C 446.819 -0.212121 -1.68772 0
M  V30 4694 O 448.004 -0.410581 -1.8981 0
M  V30 4695 C 445.134 -1.13535 -3.28218 0
M  V30 4696 C 444.088 -2.23356 -3.65097 0
M  V30 4697 C 443.414 -1.87875 -5.00607 0
M  V30 4698 C 444.714 -3.65473 -3.73131 0
M  V30 4699 H 446.408 -2.28459 -1.93512 0
M  V30 4700 H 443.954 -1.09973 -0.929618 0
M  V30 4701 H 445.907 -1.10381 -4.06687 0
M  V30 4702 H 444.631 -0.156804 -3.26223 0
M  V30 4703 H 443.29 -2.25645 -2.88929 0
M  V30 4704 H 442.938 -0.885814 -4.95139 0
M  V30 4705 H 442.638 -2.61406 -5.26252 0
M  V30 4706 H 444.162 -1.86286 -5.81489 0
M  V30 4707 H 445.576 -3.65382 -4.41779 0
M  V30 4708 H 443.973 -4.37953 -4.10265 0
M  V30 4709 H 445.043 -3.99995 -2.74102 0
M  V30 4710 N 446.386 1.0089 -1.21074 0
M  V30 4711 C 447.334 2.11707 -0.963476 0
M  V30 4712 C 448.328 1.69172 0.0879032 0
M  V30 4713 O 449.534 1.79889 -0.0631415 0
M  V30 4714 H 445.909 0.692026 -0.294287 0
M  V30 4715 H 447.88 2.29743 -1.90422 0
M  V30 4716 C 446.629 3.43473 -0.540509 0
M  V30 4717 H 445.952 3.76634 -1.34114 0
M  V30 4718 H 447.392 4.22044 -0.406777 0
M  V30 4719 C 445.851 3.2849 0.748079 0
M  V30 4720 O 446.381 3.58883 1.8046 0
M  V30 4721 N 444.587 2.81715 0.713081 0
M  V30 4722 H 444.134 2.5718 -0.146973 0
M  V30 4723 H 444.092 2.72071 1.57558 0
M  V30 4724 N 447.864 1.01787 1.20321 0
M  V30 4725 C 448.774 0.598898 2.26827 0
M  V30 4726 C 449.79 -0.36418 1.70146 0
M  V30 4727 O 450.966 -0.224812 2.00141 0
M  V30 4728 C 448.031 -0.0549769 3.46656 0
M  V30 4729 C 447.092 0.954205 4.18561 0
M  V30 4730 C 446.325 0.331439 5.3267 0
M  V30 4731 O 446.548 -0.86851 5.63749 0
M  V30 4732 O 445.482 1.0488 5.92692 0
M  V30 4733 H 449.308 1.48562 2.64883 0
M  V30 4734 H 446.893 0.787434 1.26964 0
M  V30 4735 H 448.775 -0.420102 4.19301 0
M  V30 4736 H 447.45 -0.915876 3.10473 0
M  V30 4737 H 446.357 1.37072 3.48083 0
M  V30 4738 H 447.69 1.78511 4.58688 0
M  V30 4739 N 449.342 -1.36122 0.79427 0
M  V30 4740 C 450.305 -2.28309 0.201889 0
M  V30 4741 C 451.305 -1.49041 -0.603603 0
M  V30 4742 O 452.495 -1.68964 -0.423888 0
M  V30 4743 C 449.627 -3.3321 -0.719978 0
M  V30 4744 H 450.82 -2.82208 1.01481 0
M  V30 4745 H 448.373 -1.45768 0.564037 0
M  V30 4746 H 449.108 -2.84475 -1.55706 0
M  V30 4747 H 448.893 -3.91835 -0.144266 0
M  V30 4748 H 450.383 -4.02044 -1.12916 0
M  V30 4749 N 450.82 -0.546701 -1.47814 0
M  V30 4750 C 452.067 -0.0187407 -2.02491 0
M  V30 4751 C 452.395 1.32685 -1.42215 0
M  V30 4752 O 451.65 1.87413 -0.563454 0
M  V30 4753 C 451.949 0.134869 -3.57145 0
M  V30 4754 C 451.615 -1.13849 -4.3629 0
M  V30 4755 C 450.277 -1.48743 -4.57634 0
M  V30 4756 C 452.629 -1.98277 -4.82012 0
M  V30 4757 C 449.957 -2.67932 -5.21948 0
M  V30 4758 C 452.309 -3.16659 -5.4764 0
M  V30 4759 C 450.973 -3.51879 -5.67219 0
M  V30 4760 H 450.243 -0.0068577 -0.740968 0
M  V30 4761 H 452.89 -0.716097 -1.77607 0
M  V30 4762 H 451.195 0.915118 -3.80963 0
M  V30 4763 H 452.892 0.558556 -3.97091 0
M  V30 4764 H 449.482 -0.856767 -4.19949 0
M  V30 4765 H 453.666 -1.72628 -4.6531 0
M  V30 4766 H 448.922 -2.95401 -5.35302 0
M  V30 4767 H 453.096 -3.82374 -5.82033 0
M  V30 4768 H 450.723 -4.44331 -6.16825 0
M  V30 4769 N 452.299 1.55045 -0.282633 0
M  V30 4770 C 453.545 2.00056 0.332481 0
M  V30 4771 C 453.878 1.1708 1.54939 0
M  V30 4772 O 453.153 0.2427 1.9298 0
M  V30 4773 C 453.436 3.53086 0.70725 0
M  V30 4774 C 453.289 4.46813 -0.517521 0
M  V30 4775 C 454.608 4.12245 1.54084 0
M  V30 4776 H 451.727 0.727268 0.119373 0
M  V30 4777 H 454.369 1.85932 -0.391076 0
M  V30 4778 H 452.519 3.65253 1.32372 0
M  V30 4779 H 454.191 4.46579 -1.15607 0
M  V30 4780 H 452.434 4.18163 -1.1542 0
M  V30 4781 H 453.105 5.51595 -0.211426 0
M  V30 4782 H 455.581 4.03401 1.02013 0
M  V30 4783 H 454.457 5.19515 1.77186 0
M  V30 4784 H 454.718 3.62951 2.52427 0
M  V30 4785 N 453.777 0.010035 1.57597 0
M  V30 4786 C 455.023 -0.673697 1.91283 0
M  V30 4787 C 455.356 -1.72863 0.884979 0
M  V30 4788 O 454.631 -1.94268 -0.0949487 0
M  V30 4789 C 454.914 -1.30766 3.35518 0
M  V30 4790 C 454.767 -0.263578 4.49027 0
M  V30 4791 C 456.086 -2.23105 3.79358 0
M  V30 4792 H 453.205 -0.243439 0.695634 0
M  V30 4793 H 455.847 0.0633864 1.89894 0
M  V30 4794 H 453.997 -1.93588 3.36832 0
M  V30 4795 H 455.669 0.365738 4.59848 0
M  V30 4796 H 453.912 0.413077 4.31829 0
M  V30 4797 H 454.583 -0.746398 5.4693 0
M  V30 4798 H 457.059 -1.70289 3.79659 0
M  V30 4799 H 455.935 -2.64424 4.81011 0
M  V30 4800 H 456.196 -3.11433 3.13787 0
M  V30 4801 N 455.255 -1.55392 -0.262866 0
M  V30 4802 C 456.666 -1.67079 -0.833158 0
M  V30 4803 C 457.017 -0.604539 -1.86654 0
M  V30 4804 O 456.142 0.252138 -2.14926 0
M  V30 4805 C 456.737 -3.02891 -1.51797 0
M  V30 4806 C 455.296 -3.16571 -2.03617 0
M  V30 4807 C 454.443 -2.62909 -0.881701 0
M  V30 4808 H 457.394 -1.58652 -0.0389986 0
M  V30 4809 H 457.415 -2.96445 -2.38538 0
M  V30 4810 H 456.927 -3.80473 -0.765619 0
M  V30 4811 H 455.028 -2.43782 -2.81782 0
M  V30 4812 H 455.141 -4.23271 -2.24452 0
M  V30 4813 H 453.505 -2.20324 -1.27786 0
M  V30 4814 H 454.288 -3.43003 -0.14269 0
M  V30 4815 N 456.733 0.527833 -1.48498 0
M  V30 4816 C 457.963 1.30633 -1.60058 0
M  V30 4817 C 458.371 1.87394 -0.260786 0
M  V30 4818 O 457.714 1.67227 0.760317 0
M  V30 4819 C 457.776 2.49361 -2.58958 0
M  V30 4820 C 457.44 2.13671 -4.03972 0
M  V30 4821 C 458.437 1.69217 -4.91591 0
M  V30 4822 C 456.122 2.24129 -4.49524 0
M  V30 4823 C 458.116 1.35689 -6.2279 0
M  V30 4824 C 455.803 1.90212 -5.80743 0
M  V30 4825 C 456.801 1.46063 -6.67199 0
M  V30 4826 O 456.489 1.12593 -7.95976 0
M  V30 4827 H 456.221 0.403444 -0.54241 0
M  V30 4828 H 458.775 0.643233 -1.95068 0
M  V30 4829 H 457.005 3.18659 -2.19073 0
M  V30 4830 H 458.694 3.11421 -2.6033 0
M  V30 4831 H 459.46 1.60607 -4.57636 0
M  V30 4832 H 455.339 2.57447 -3.82416 0
M  V30 4833 H 458.883 1.01157 -6.90227 0
M  V30 4834 H 454.78 1.98464 -6.14233 0
M  V30 4835 H 455.548 1.25972 -8.08748 0
M  V30 4836 N 458.211 1.37122 0.776871 0
M  V30 4837 C 459.459 1.31787 1.53221 0
M  V30 4838 C 459.78 -0.0987589 1.9475 0
M  V30 4839 O 459.05 -1.0417 1.65908 0
M  V30 4840 H 457.63 0.484839 0.568278 0
M  V30 4841 H 460.292 1.71556 0.924917 0
M  V30 4842 H 459.388 1.95355 2.43398 0
M  V30 4843 N 459.689 -1.00246 1.21608 0
M  V30 4844 C 460.917 -1.77631 1.06089 0
M  V30 4845 C 461.332 -1.84746 -0.38916 0
M  V30 4846 O 460.689 -1.31068 -1.26994 0
M  V30 4847 C 460.74 -3.21415 1.65453 0
M  V30 4848 O 460.461 -3.14703 3.04785 0
M  V30 4849 C 461.962 -4.15289 1.55079 0
M  V30 4850 H 459.182 -0.558162 0.37242 0
M  V30 4851 H 461.726 -1.26093 1.60999 0
M  V30 4852 H 459.881 -3.70053 1.14629 0
M  V30 4853 H 460.295 -4.05056 3.33212 0
M  V30 4854 H 461.769 -5.13965 2.01355 0
M  V30 4855 H 462.246 -4.36279 0.505665 0
M  V30 4856 H 462.852 -3.72543 2.05163 0
M  V30 4857 N 461.167 -1.02423 -1.1978 0
M  V30 4858 C 462.578 -0.748389 -1.71044 0
M  V30 4859 C 462.929 0.732398 -1.82017 0
M  V30 4860 O 462.054 1.57116 -1.48807 0
M  V30 4861 C 462.649 -1.35187 -3.1066 0
M  V30 4862 C 461.208 -1.12472 -3.59203 0
M  V30 4863 C 460.355 -1.45283 -2.36195 0
M  V30 4864 H 463.306 -1.19275 -1.04686 0
M  V30 4865 H 463.327 -0.746408 -3.73107 0
M  V30 4866 H 462.839 -2.4296 -3.02642 0
M  V30 4867 H 460.94 -0.0649983 -3.72543 0
M  V30 4868 H 461.053 -1.81016 -4.43588 0
M  V30 4869 H 459.417 -0.872034 -2.39307 0
M  V30 4870 H 460.2 -2.54129 -2.30811 0
M  V30 4871 N 462.645 1.35699 -0.801477 0
M  V30 4872 C 463.575 2.32436 -0.222658 0
M  V30 4873 C 464.556 1.5723 0.649057 0
M  V30 4874 O 465.741 1.85324 0.580387 0
M  V30 4875 C 462.871 3.41469 0.633719 0
M  V30 4876 C 461.825 4.27774 -0.139083 0
M  V30 4877 C 461.151 5.28082 0.838666 0
M  V30 4878 C 462.451 5.04946 -1.33517 0
M  V30 4879 H 464.145 2.81094 -1.03086 0
M  V30 4880 H 461.691 1.35146 -0.497155 0
M  V30 4881 H 463.644 4.08143 1.04868 0
M  V30 4882 H 462.368 2.91408 1.47475 0
M  V30 4883 H 461.027 3.62673 -0.535156 0
M  V30 4884 H 460.675 4.7429 1.67506 0
M  V30 4885 H 460.375 5.86695 0.32594 0
M  V30 4886 H 461.899 5.97628 1.25194 0
M  V30 4887 H 463.313 5.64593 -0.995349 0
M  V30 4888 H 461.71 5.7303 -1.78202 0
M  V30 4889 H 462.78 4.35886 -2.12442 0
M  V30 4890 N 464.123 0.554532 1.47522 0
M  V30 4891 C 465.348 0.0322661 2.07375 0
M  V30 4892 C 465.773 -1.25079 1.40488 0
M  V30 4893 O 465.131 -1.74859 0.47896 0
M  V30 4894 C 465.179 -0.149397 3.6029 0
M  V30 4895 O 464.283 -1.21259 3.9417 0
M  V30 4896 H 463.624 0.0501228 0.662106 0
M  V30 4897 H 466.154 0.769452 1.8958 0
M  V30 4898 H 466.164 -0.364437 4.06369 0
M  V30 4899 H 464.839 0.787743 4.08372 0
M  V30 4900 H 463.416 -0.97825 3.5984 0
M  V30 4901 N 465.601 -1.54893 0.290851 0
M  V30 4902 C 466.847 -2.0023 -0.321867 0
M  V30 4903 C 467.18 -1.179 -1.54316 0
M  V30 4904 O 466.455 -0.25293 -1.92848 0
M  V30 4905 C 466.738 -3.53456 -0.688515 0
M  V30 4906 C 466.591 -4.46532 0.541209 0
M  V30 4907 C 467.91 -4.13057 -1.51895 0
M  V30 4908 H 465.029 -0.727891 -0.115515 0
M  V30 4909 H 467.671 -1.85722 0.400931 0
M  V30 4910 H 465.821 -3.6595 -1.30433 0
M  V30 4911 H 467.493 -4.4596 1.17973 0
M  V30 4912 H 465.736 -4.17545 1.17636 0
M  V30 4913 H 466.407 -5.51475 0.240675 0
M  V30 4914 H 468.883 -4.03937 -0.99872 0
M  V30 4915 H 467.759 -5.20448 -1.74429 0
M  V30 4916 H 468.02 -3.64284 -2.50498 0
M  V30 4917 N 467.08 -0.0183926 -1.57589 0
M  V30 4918 C 468.028 0.985111 -2.10709 0
M  V30 4919 C 469.022 1.34397 -1.0312 0
M  V30 4920 O 470.228 1.32746 -1.21567 0
M  V30 4921 H 466.603 0.335418 -0.673052 0
M  V30 4922 H 468.574 0.511689 -2.9398 0
M  V30 4923 C 467.323 2.26202 -2.64061 0
M  V30 4924 H 466.646 1.9946 -3.4649 0
M  V30 4925 H 468.086 2.94652 -3.04887 0
M  V30 4926 C 466.545 2.98444 -1.5631 0
M  V30 4927 O 467.075 3.90142 -0.956674 0
M  V30 4928 N 465.281 2.6059 -1.28612 0
M  V30 4929 H 464.828 1.86101 -1.78112 0
M  V30 4930 H 464.786 3.09238 -0.567406 0
M  V30 4931 N 468.558 1.5553 0.254621 0
M  V30 4932 C 469.805 1.77 0.983736 0
M  V30 4933 C 470.133 0.58133 1.85609 0
M  V30 4934 O 469.388 -0.435621 1.9079 0
M  V30 4935 C 469.687 3.03891 1.88109 0
M  V30 4936 C 469.353 4.35597 1.16472 0
M  V30 4937 C 468.015 4.7139 0.966714 0
M  V30 4938 C 470.367 5.1705 0.656387 0
M  V30 4939 C 467.695 5.86176 0.247942 0
M  V30 4940 C 470.047 6.32581 -0.0488807 0
M  V30 4941 C 468.711 6.67 -0.258438 0
M  V30 4942 H 467.981 0.647688 0.359974 0
M  V30 4943 H 470.628 1.89802 0.254463 0
M  V30 4944 H 468.933 2.86068 2.67717 0
M  V30 4945 H 470.63 3.17701 2.44677 0
M  V30 4946 H 467.22 4.07475 1.32899 0
M  V30 4947 H 471.404 4.8986 0.796933 0
M  V30 4948 H 466.66 6.11354 0.075035 0
M  V30 4949 H 470.834 6.94942 -0.450444 0
M  V30 4950 H 468.461 7.55793 -0.817358 0
M  V30 4951 N 470.036 -0.519951 1.48776 0
M  V30 4952 C 471.284 -1.2727 1.56993 0
M  V30 4953 C 471.605 -1.9339 0.25004 0
M  V30 4954 O 470.875 -1.81822 -0.729216 0
M  V30 4955 H 469.455 -0.472732 0.578389 0
M  V30 4956 H 472.117 -0.604234 1.85297 0
M  V30 4957 H 471.213 -2.04669 2.3562 0
M  V30 4958 N 471.514 -1.37532 -0.769588 0
M  V30 4959 C 472.925 -1.29382 -1.346 0
M  V30 4960 C 473.276 0.0576039 -1.96115 0
M  V30 4961 O 472.401 0.95947 -1.93967 0
M  V30 4962 C 472.996 -2.34298 -2.44724 0
M  V30 4963 C 471.555 -2.29776 -2.98128 0
M  V30 4964 C 470.702 -2.18013 -1.71364 0
M  V30 4965 H 473.653 -1.48123 -0.56968 0
M  V30 4966 H 473.674 -1.99089 -3.24259 0
M  V30 4967 H 473.186 -3.32645 -1.99922 0
M  V30 4968 H 471.287 -1.34959 -3.47299 0
M  V30 4969 H 471.4 -3.23276 -3.53595 0
M  V30 4970 H 469.764 -1.64595 -1.94372 0
M  V30 4971 H 470.547 -3.18278 -1.28662 0
M  V30 4972 N 472.992 0.995999 -1.22138 0
M  V30 4973 C 474.22 1.77066 -1.07029 0
M  V30 4974 C 474.635 1.8495 0.379357 0
M  V30 4975 O 473.992 1.3174 1.26297 0
M  V30 4976 C 474.043 3.20533 -1.67155 0
M  V30 4977 O 473.764 3.13082 -3.06449 0
M  V30 4978 C 475.265 4.14461 -1.5728 0
M  V30 4979 H 472.485 0.556179 -0.375374 0
M  V30 4980 H 475.029 1.25238 -1.61666 0
M  V30 4981 H 473.184 3.6944 -1.16589 0
M  V30 4982 H 473.598 4.03283 -3.35355 0
M  V30 4983 H 475.072 5.1289 -2.04078 0
M  V30 4984 H 475.549 4.36005 -0.528795 0
M  V30 4985 H 476.155 3.71449 -2.07136 0
M  V30 4986 N 474.47 1.03057 1.19235 0
M  V30 4987 C 475.716 0.729098 1.89241 0
M  V30 4988 C 476.049 -0.740573 1.79525 0
M  V30 4989 O 475.324 -1.53946 1.18874 0
M  V30 4990 C 475.607 1.18304 3.40112 0
M  V30 4991 C 475.46 2.71406 3.5869 0
M  V30 4992 C 476.779 0.765161 4.33397 0
M  V30 4993 H 473.898 0.266338 0.687192 0
M  V30 4994 H 476.54 1.28079 1.40341 0
M  V30 4995 H 474.69 0.713672 3.81889 0
M  V30 4996 H 476.362 3.26303 3.26074 0
M  V30 4997 H 474.605 3.11717 3.01687 0
M  V30 4998 H 475.276 2.98225 4.64506 0
M  V30 4999 H 477.752 1.16889 3.99345 0
M  V30 5000 H 476.628 1.11065 5.37546 0
M  V30 5001 H 476.889 -0.332372 4.40849 0
M  V30 5002 N 475.948 -1.35272 0.808662 0
M  V30 5003 C 477.225 -1.93077 0.313181 0
M  V30 5004 C 477.605 -1.73847 -1.19752 0
M  V30 5005 O 476.953 -1.1087 -1.998 0
M  V30 5006 C 477.163 -3.41347 0.726859 0
M  V30 5007 C 478.511 -4.18493 0.717532 0
M  V30 5008 O 479.535 -3.4987 0.668535 0
M  V30 5009 O 478.394 -5.40937 0.777779 0
M  V30 5010 H 475.488 -0.822885 0.0824018 0
M  V30 5011 H 478.034 -1.44335 0.892499 0
M  V30 5012 H 476.806 -3.49082 1.76797 0
M  V30 5013 H 476.429 -3.97411 0.122461 0
M  V30 5014 N 477.426 -0.562348 -1.47226 0
M  V30 5015 C 478.674 -0.0401371 -2.0206 0
M  V30 5016 C 478.995 1.3165 -1.43852 0
M  V30 5017 O 478.265 1.85976 -0.615599 0
M  V30 5018 H 476.845 -0.0118479 -0.746906 0
M  V30 5019 H 479.507 -0.73352 -1.8057 0
M  V30 5020 H 478.603 0.0441254 -3.12069 0
M  V30 5021 N 478.904 1.54736 -0.299062 0
M  V30 5022 C 480.181 1.92187 0.363802 0
M  V30 5023 C 480.561 1.22607 1.71845 0
M  V30 5024 O 479.909 0.361141 2.25628 0
M  V30 5025 C 480.119 3.45678 0.480377 0
M  V30 5026 C 481.467 4.17885 0.752147 0
M  V30 5027 O 482.491 3.51702 0.564264 0
M  V30 5028 O 481.35 5.35048 1.11294 0
M  V30 5029 H 478.444 0.801681 0.203066 0
M  V30 5030 H 480.99 1.66115 -0.346978 0
M  V30 5031 H 479.762 3.88443 -0.471999 0
M  V30 5032 H 479.385 3.77779 1.2397 0
M  V30 5033 N 480.382 0.0267497 1.57577 0
M  V30 5034 C 481.629 -0.652404 1.91703 0
M  V30 5035 C 481.957 -1.72271 0.902936 0
M  V30 5036 O 481.212 -1.955 -0.0884843 0
M  V30 5037 C 481.511 -1.30914 3.3256 0
M  V30 5038 C 481.177 -0.369441 4.49384 0
M  V30 5039 C 479.839 -0.110791 4.81072 0
M  V30 5040 C 482.191 0.275971 5.20469 0
M  V30 5041 C 479.519 0.801116 5.81205 0
M  V30 5042 C 481.871 1.17592 6.21575 0
M  V30 5043 C 480.535 1.44348 6.51705 0
M  V30 5044 H 479.805 -0.238732 0.70149 0
M  V30 5045 H 482.452 0.0880091 1.91298 0
M  V30 5046 H 480.757 -2.12425 3.29216 0
M  V30 5047 H 482.454 -1.84115 3.56234 0
M  V30 5048 H 479.044 -0.581211 4.24641 0
M  V30 5049 H 483.228 0.0892 4.9622 0
M  V30 5050 H 478.484 1.01614 6.02897 0
M  V30 5051 H 482.658 1.68223 6.75777 0
M  V30 5052 H 480.285 2.15176 7.29111 0
M  V30 5053 N 481.861 -1.55662 -0.24637 0
M  V30 5054 C 482.791 -1.93377 -1.30873 0
M  V30 5055 C 483.772 -0.798773 -1.50179 0
M  V30 5056 O 484.957 -1.0591 -1.62778 0
M  V30 5057 C 482.087 -2.22893 -2.66338 0
M  V30 5058 C 481.041 -3.38649 -2.61727 0
M  V30 5059 C 480.367 -3.53708 -4.00992 0
M  V30 5060 C 481.667 -4.74323 -2.18666 0
M  V30 5061 H 483.361 -2.82363 -0.995552 0
M  V30 5062 H 480.907 -1.35854 -0.477464 0
M  V30 5063 H 482.86 -2.47866 -3.40794 0
M  V30 5064 H 481.584 -1.30733 -2.99293 0
M  V30 5065 H 480.243 -3.13685 -1.89729 0
M  V30 5066 H 479.891 -2.58967 -4.31214 0
M  V30 5067 H 479.591 -4.31551 -3.98795 0
M  V30 5068 H 481.115 -3.81003 -4.77147 0
M  V30 5069 H 482.529 -4.98665 -2.82854 0
M  V30 5070 H 480.926 -5.55273 -2.27579 0
M  V30 5071 H 481.996 -4.71349 -1.13834 0
M  V30 5072 N 483.339 0.512053 -1.4905 0
M  V30 5073 C 484.567 1.29116 -1.61669 0
M  V30 5074 C 484.982 1.86655 -0.283787 0
M  V30 5075 O 484.339 1.67293 0.729331 0
M  V30 5076 C 484.39 2.4293 -2.67707 0
M  V30 5077 O 484.111 1.87758 -3.95826 0
M  V30 5078 C 485.612 3.34476 -2.90931 0
M  V30 5079 H 482.832 0.392009 -0.544583 0
M  V30 5080 H 485.376 0.615881 -1.95006 0
M  V30 5081 H 483.531 3.06308 -2.37179 0
M  V30 5082 H 483.945 2.62393 -4.54148 0
M  V30 5083 H 485.419 4.10642 -3.68886 0
M  V30 5084 H 485.896 3.90801 -2.00427 0
M  V30 5085 H 486.502 2.76874 -3.22832 0
M  V30 5086 N 484.817 1.37938 0.762283 0
M  V30 5087 C 486.094 1.24196 1.51112 0
M  V30 5088 C 486.474 -0.160409 2.1049 0
M  V30 5089 O 485.822 -1.16904 1.96331 0
M  V30 5090 C 486.032 2.34537 2.58445 0
M  V30 5091 C 487.38 2.7254 3.25588 0
M  V30 5092 O 488.404 2.33783 2.68745 0
M  V30 5093 O 487.263 3.39343 4.28379 0
M  V30 5094 H 484.357 0.485175 0.669727 0
M  V30 5095 H 486.903 1.49743 0.798438 0
M  V30 5096 H 485.675 3.28406 2.12756 0
M  V30 5097 H 485.298 2.10505 3.37303 0
M  V30 5098 N 486.295 -0.989507 1.22664 0
M  V30 5099 C 487.228 -2.07805 0.942985 0
M  V30 5100 C 488.206 -1.6219 -0.115356 0
M  V30 5101 O 489.39 -1.88492 0.0169565 0
M  V30 5102 C 486.517 -3.361 0.418898 0
M  V30 5103 C 485.563 -4.00643 1.46244 0
M  V30 5104 S 486.396 -4.41059 3.03689 0
M  V30 5105 C 487.552 -5.7252 2.52927 0
M  V30 5106 H 487.785 -2.31547 1.86476 0
M  V30 5107 H 485.318 -1.12446 1.05808 0
M  V30 5108 H 487.276 -4.10315 0.123114 0
M  V30 5109 H 485.937 -3.10383 -0.481818 0
M  V30 5110 H 485.13 -4.93033 1.04569 0
M  V30 5111 H 484.732 -3.32767 1.7071 0
M  V30 5112 H 487.024 -6.49017 1.94379 0
M  V30 5113 H 487.967 -6.19026 3.4382 0
M  V30 5114 H 488.375 -5.30083 1.94094 0
M  V30 5115 N 487.773 -1.03688 -1.18687 0
M  V30 5116 C 489.184 -0.766488 -1.70241 0
M  V30 5117 C 489.535 0.713052 -1.82784 0
M  V30 5118 O 488.66 1.55529 -1.50465 0
M  V30 5119 C 489.255 -1.38475 -3.09209 0
M  V30 5120 C 487.814 -1.16276 -3.5799 0
M  V30 5121 C 486.961 -1.4778 -2.34641 0
M  V30 5122 H 489.912 -1.20378 -1.03415 0
M  V30 5123 H 489.933 -0.785939 -3.72295 0
M  V30 5124 H 489.445 -2.46157 -3.00048 0
M  V30 5125 H 487.546 -0.104508 -3.72453 0
M  V30 5126 H 487.659 -1.8571 -4.41643 0
M  V30 5127 H 486.023 -0.897366 -2.38368 0
M  V30 5128 H 486.806 -2.56562 -2.28102 0
M  V30 5129 N 489.251 1.34841 -0.815825 0
M  V30 5130 C 490.528 1.92908 -0.323416 0
M  V30 5131 C 490.908 1.74479 1.18828 0
M  V30 5132 O 490.256 1.11928 1.99209 0
M  V30 5133 C 490.466 3.40957 -0.744952 0
M  V30 5134 C 491.814 4.18107 -0.739716 0
M  V30 5135 O 492.838 3.49511 -0.68708 0
M  V30 5136 O 491.697 5.40517 -0.806456 0
M  V30 5137 H 488.791 0.822436 -0.0867646 0
M  V30 5138 H 491.337 1.4386 -0.90014 0
M  V30 5139 H 490.109 3.4814 -1.78646 0
M  V30 5140 H 489.732 3.97341 -0.143535 0
M  V30 5141 N 490.729 0.570148 1.46925 0
M  V30 5142 C 491.978 0.0487352 2.01641 0
M  V30 5143 C 492.291 -1.31433 1.44861 0
M  V30 5144 O 493.497 -1.92638 1.91318 0
M  V30 5145 C 491.953 0.0365817 3.59881 0
M  V30 5146 C 491.561 1.39719 4.25655 0
M  V30 5147 C 493.305 -0.431545 4.22301 0
M  V30 5148 C 491.212 1.34345 5.75939 0
M  V30 5149 H 490.142 0.0144492 0.753862 0
M  V30 5150 H 492.793 0.719928 1.68788 0
M  V30 5151 H 491.175 -0.700522 3.89755 0
M  V30 5152 H 492.349 2.15303 4.07408 0
M  V30 5153 H 490.664 1.80431 3.75278 0
M  V30 5154 H 493.261 -0.490354 5.32447 0
M  V30 5155 H 493.604 -1.44638 3.90366 0
M  V30 5156 H 494.137 0.251102 3.97007 0
M  V30 5157 H 490.876 2.33469 6.12513 0
M  V30 5158 H 490.396 0.629615 5.96486 0
M  V30 5159 H 492.075 1.051 6.38407 0
M  V30 5160 N 492.207 -1.54576 0.307264 0
M  V30 5161 C 493.137 -2.26708 -0.55907 0
M  V30 5162 C 494.118 -1.26893 -1.1328 0
M  V30 5163 O 495.303 -1.55677 -1.16097 0
M  V30 5164 C 492.433 -3.01259 -1.72801 0
M  V30 5165 C 491.387 -4.08275 -1.28435 0
M  V30 5166 C 490.713 -4.70575 -2.53895 0
M  V30 5167 C 492.013 -5.2068 -0.411038 0
M  V30 5168 H 493.707 -2.9937 0.042576 0
M  V30 5169 H 491.253 -1.43983 0.0219173 0
M  V30 5170 H 493.206 -3.50444 -2.34023 0
M  V30 5171 H 491.93 -2.26187 -2.356 0
M  V30 5172 H 490.589 -3.59949 -0.695161 0
M  V30 5173 H 490.237 -3.92136 -3.15021 0
M  V30 5174 H 489.937 -5.42854 -2.24908 0
M  V30 5175 H 491.461 -5.22527 -3.15908 0
M  V30 5176 H 492.875 -5.65721 -0.929097 0
M  V30 5177 H 491.272 -5.99716 -0.214664 0
M  V30 5178 H 492.342 -4.81629 0.562287 0
M  V30 5179 N 493.685 -0.035106 -1.57561 0
M  V30 5180 C 494.615 0.942993 -2.13612 0
M  V30 5181 C 495.596 1.33531 -1.05373 0
M  V30 5182 O 496.781 1.41287 -1.33235 0
M  V30 5183 C 493.911 2.22332 -2.66807 0
M  V30 5184 C 492.865 1.97156 -3.79886 0
M  V30 5185 C 492.191 3.31506 -4.19533 0
M  V30 5186 C 493.491 1.30596 -5.05709 0
M  V30 5187 H 495.185 0.476179 -2.95589 0
M  V30 5188 H 492.731 0.227602 -1.4219 0
M  V30 5189 H 494.684 2.91142 -3.04654 0
M  V30 5190 H 493.408 2.7119 -1.81999 0
M  V30 5191 H 492.067 1.30763 -3.42486 0
M  V30 5192 H 491.715 3.78134 -3.31698 0
M  V30 5193 H 491.415 3.15465 -4.95738 0
M  V30 5194 H 492.939 4.01574 -4.59968 0
M  V30 5195 H 494.353 1.89416 -5.41105 0
M  V30 5196 H 492.75 1.24934 -5.86951 0
M  V30 5197 H 493.82 0.279742 -4.84092 0
M  V30 5198 N 495.163 1.55791 0.238111 0
M  V30 5199 C 496.073 1.94196 1.31625 0
M  V30 5200 C 497.089 0.843545 1.52185 0
M  V30 5201 O 498.265 1.1457 1.65637 0
M  V30 5202 C 495.33 2.2365 2.64918 0
M  V30 5203 C 494.391 3.46971 2.52804 0
M  V30 5204 C 493.624 3.7501 3.79741 0
M  V30 5205 O 493.847 3.04982 4.82019 0
M  V30 5206 O 492.781 4.68525 3.77846 0
M  V30 5207 H 496.607 2.86044 1.02043 0
M  V30 5208 H 494.192 1.42786 0.439603 0
M  V30 5209 H 496.074 2.43863 3.4367 0
M  V30 5210 H 494.749 1.34979 2.94215 0
M  V30 5211 H 493.656 3.32055 1.72309 0
M  V30 5212 H 494.989 4.35971 2.28451 0
M  V30 5213 N 496.642 -0.504142 1.49319 0
M  V30 5214 C 497.572 -1.61473 1.68667 0
M  V30 5215 C 498.553 -1.61455 0.535378 0
M  V30 5216 O 499.738 -1.78245 0.770868 0
M  V30 5217 C 496.868 -2.99971 1.75028 0
M  V30 5218 C 495.822 -3.14854 2.89916 0
M  V30 5219 C 495.148 -4.54671 2.81387 0
M  V30 5220 C 496.448 -2.95176 4.30893 0
M  V30 5221 H 498.142 -1.45535 2.61648 0
M  V30 5222 H 495.688 -0.698711 1.25913 0
M  V30 5223 H 497.641 -3.77562 1.8715 0
M  V30 5224 H 496.365 -3.1699 0.786441 0
M  V30 5225 H 495.024 -2.39687 2.77391 0
M  V30 5226 H 494.672 -4.68562 1.82917 0
M  V30 5227 H 494.372 -4.6557 3.58494 0
M  V30 5228 H 495.896 -5.34327 2.95512 0
M  V30 5229 H 497.31 -3.62538 4.44116 0
M  V30 5230 H 495.707 -3.17549 5.09198 0
M  V30 5231 H 496.777 -1.91332 4.45556 0
M  V30 5232 N 498.12 -1.38341 -0.754957 0
M  V30 5233 C 499.368 -1.34208 -1.51105 0
M  V30 5234 C 499.689 0.0677634 -1.94882 0
M  V30 5235 O 498.959 1.01517 -1.67544 0
M  V30 5236 H 497.539 -0.493819 -0.560493 0
M  V30 5237 H 500.201 -1.73005 -0.897507 0
M  V30 5238 H 499.297 -1.99203 -2.4026 0
M  V30 5239 N 499.598 0.982988 -1.23187 0
M  V30 5240 C 500.53 2.07729 -0.968572 0
M  V30 5241 C 501.543 1.62702 0.0564821 0
M  V30 5242 O 502.732 1.77603 -0.178733 0
M  V30 5243 C 499.832 3.36071 -0.436974 0
M  V30 5244 C 499.005 4.10081 -1.52159 0
M  V30 5245 C 498.064 5.16701 -0.99532 0
M  V30 5246 O 497.09 5.43727 -1.68373 0
M  V30 5247 N 498.292 5.80226 0.178192 0
M  V30 5248 H 501.057 2.30894 -1.9107 0
M  V30 5249 H 498.618 1.14949 -1.1401 0
M  V30 5250 H 500.61 4.04639 -0.0700051 0
M  V30 5251 H 499.18 3.09893 0.410509 0
M  V30 5252 H 498.4 3.36004 -2.06144 0
M  V30 5253 H 499.688 4.56295 -2.25105 0
M  V30 5254 H 499.086 5.60651 0.754096 0
M  V30 5255 H 497.643 6.49982 0.486449 0
M  V30 5256 N 501.076 1.04316 1.18135 0
M  V30 5257 C 502.323 0.74802 1.88178 0
M  V30 5258 C 502.651 -0.72441 1.80506 0
M  V30 5259 O 501.906 -1.54463 1.20165 0
M  V30 5260 C 502.205 1.16271 3.37958 0
M  V30 5261 C 501.871 2.63585 3.65833 0
M  V30 5262 C 500.533 3.03829 3.73151 0
M  V30 5263 C 502.885 3.58822 3.78016 0
M  V30 5264 C 500.213 4.38194 3.90132 0
M  V30 5265 C 502.565 4.92909 3.96514 0
M  V30 5266 C 501.229 5.3282 4.02068 0
M  V30 5267 H 500.499 0.27372 0.688592 0
M  V30 5268 H 503.146 1.30863 1.39811 0
M  V30 5269 H 501.451 0.520938 3.88321 0
M  V30 5270 H 503.148 0.911672 3.90499 0
M  V30 5271 H 499.738 2.31414 3.60757 0
M  V30 5272 H 503.922 3.28875 3.71692 0
M  V30 5273 H 499.178 4.68631 3.92677 0
M  V30 5274 H 503.352 5.66606 4.04883 0
M  V30 5275 H 500.979 6.36943 4.14979 0
M  V30 5276 N 502.554 -1.34406 0.822964 0
M  V30 5277 C 503.501 -2.29519 0.24284 0
M  V30 5278 C 504.471 -1.5359 -0.632397 0
M  V30 5279 O 505.656 -1.8196 -0.57403 0
M  V30 5280 C 502.796 -3.40032 -0.58925 0
M  V30 5281 C 501.909 -4.30899 0.308236 0
M  V30 5282 C 501.044 -5.28515 -0.533425 0
M  V30 5283 C 500.083 -6.1102 0.363444 0
M  V30 5284 N 499.22 -7.00725 -0.439147 0
M  V30 5285 H 504.06 -2.78537 1.05929 0
M  V30 5286 H 501.597 -1.3707 0.533872 0
M  V30 5287 H 503.555 -4.0279 -1.087 0
M  V30 5288 H 502.185 -2.92248 -1.37081 0
M  V30 5289 H 501.237 -3.69002 0.924203 0
M  V30 5290 H 502.549 -4.88717 0.997862 0
M  V30 5291 H 501.703 -5.96725 -1.09565 0
M  V30 5292 H 500.442 -4.71235 -1.25656 0
M  V30 5293 H 499.447 -5.41743 0.937812 0
M  V30 5294 H 500.672 -6.70381 1.08469 0
M  V30 5295 H 498.618 -6.45913 -1.14595 0
M  V30 5296 H 498.535 -7.55756 0.19209 0
M  V30 5297 H 499.803 -7.73263 -0.984124 0
M  V30 5298 N 504.032 -0.577932 -1.46621 0
M  V30 5299 C 504.979 0.158048 -2.30258 0
M  V30 5300 C 505.949 0.888669 -1.40328 0
M  V30 5301 O 507.134 0.880283 -1.6928 0
M  V30 5302 C 504.274 1.16884 -3.24703 0
M  V30 5303 C 503.387 0.442163 -4.29731 0
M  V30 5304 C 502.522 1.44007 -5.11308 0
M  V30 5305 C 501.561 0.69952 -6.0809 0
M  V30 5306 N 500.698 1.64525 -6.82551 0
M  V30 5307 H 505.538 -0.561242 -2.92667 0
M  V30 5308 H 503.075 -0.288591 -1.44241 0
M  V30 5309 H 505.033 1.7677 -3.779 0
M  V30 5310 H 503.663 1.85591 -2.64113 0
M  V30 5311 H 502.715 -0.271632 -3.79429 0
M  V30 5312 H 504.027 -0.136992 -4.98612 0
M  V30 5313 H 503.181 2.11186 -5.68758 0
M  V30 5314 H 501.92 2.05315 -4.42377 0
M  V30 5315 H 500.925 0.0139217 -5.49798 0
M  V30 5316 H 502.15 0.091894 -6.79038 0
M  V30 5317 H 500.096 2.24653 -6.16334 0
M  V30 5318 H 500.013 1.11878 -7.47676 0
M  V30 5319 H 501.281 2.30754 -7.44562 0
M  V30 5320 N 505.51 1.54411 -0.315457 0
M  V30 5321 C 506.738 2.04833 0.291738 0
M  V30 5322 C 507.153 1.19203 1.46411 0
M  V30 5323 O 506.51 0.220867 1.81159 0
M  V30 5324 C 506.561 3.53969 0.73404 0
M  V30 5325 O 506.282 4.36346 -0.391682 0
M  V30 5326 C 507.783 4.2045 1.40489 0
M  V30 5327 H 505.003 0.668195 0.0612947 0
M  V30 5328 H 507.547 1.99276 -0.45929 0
M  V30 5329 H 505.702 3.5984 1.43506 0
M  V30 5330 H 506.116 5.24481 -0.0447088 0
M  V30 5331 H 507.59 5.26278 1.66539 0
M  V30 5332 H 508.067 3.71067 2.3496 0
M  V30 5333 H 508.673 4.18694 0.746662 0
M  V30 5334 N 506.988 0.0434614 1.5754 0
M  V30 5335 C 507.92 -0.962586 2.08007 0
M  V30 5336 C 508.933 -1.27972 1.00634 0
M  V30 5337 O 510.122 -1.24186 1.28219 0
M  V30 5338 C 507.222 -2.28621 2.50171 0
M  V30 5339 C 506.395 -2.15214 3.80791 0
M  V30 5340 C 505.454 -3.30633 4.09351 0
M  V30 5341 O 504.48 -3.0688 4.79388 0
M  V30 5342 N 505.682 -4.54873 3.60654 0
M  V30 5343 H 508.447 -0.531891 2.94942 0
M  V30 5344 H 506.008 -0.142965 1.61268 0
M  V30 5345 H 508 -3.04689 2.66359 0
M  V30 5346 H 506.57 -2.63283 1.68525 0
M  V30 5347 H 505.79 -1.23785 3.74261 0
M  V30 5348 H 507.078 -2.03475 4.66343 0
M  V30 5349 H 506.476 -4.77063 3.04019 0
M  V30 5350 H 505.033 -5.2806 3.82094 0
M  V30 5351 N 508.466 -1.55915 -0.229846 0
M  V30 5352 C 509.715 -1.77742 -0.953455 0
M  V30 5353 C 510.028 -0.610524 -1.85828 0
M  V30 5354 O 511.234 -0.712219 -2.61992 0
M  V30 5355 C 509.69 -3.14738 -1.74551 0
M  V30 5356 C 509.298 -4.39126 -0.887242 0
M  V30 5357 C 511.042 -3.45895 -2.46084 0
M  V30 5358 C 508.949 -5.67149 -1.67617 0
M  V30 5359 H 507.879 -0.662648 -0.359741 0
M  V30 5360 H 510.53 -1.82322 -0.207576 0
M  V30 5361 H 508.912 -3.04311 -2.53399 0
M  V30 5362 H 510.086 -4.60588 -0.139892 0
M  V30 5363 H 508.401 -4.15427 -0.284443 0
M  V30 5364 H 510.998 -4.38767 -3.05594 0
M  V30 5365 H 511.341 -2.68007 -3.18556 0
M  V30 5366 H 511.874 -3.57614 -1.74233 0
M  V30 5367 H 508.613 -6.47906 -0.994881 0
M  V30 5368 H 508.133 -5.49763 -2.39836 0
M  V30 5369 H 509.812 -6.07025 -2.23898 0
M  V30 5370 N 509.944 0.496216 -1.49584 0
M  V30 5371 C 510.874 1.60576 -1.69521 0
M  V30 5372 C 511.855 1.61169 -0.543933 0
M  V30 5373 O 513.04 1.77834 -0.78031 0
M  V30 5374 C 510.17 2.99038 -1.76616 0
M  V30 5375 C 509.124 3.13312 -2.91581 0
M  V30 5376 C 508.45 4.53172 -2.83794 0
M  V30 5377 C 509.75 2.92886 -4.32452 0
M  V30 5378 H 511.444 1.44146 -2.62416 0
M  V30 5379 H 508.99 0.692024 -1.26282 0
M  V30 5380 H 510.943 3.76564 -1.8915 0
M  V30 5381 H 509.667 3.16568 -0.80324 0
M  V30 5382 H 508.326 2.38213 -2.78658 0
M  V30 5383 H 507.974 4.67585 -1.854 0
M  V30 5384 H 507.674 4.63662 -3.60958 0
M  V30 5385 H 509.198 5.32752 -2.98342 0
M  V30 5386 H 510.612 3.60178 -4.46032 0
M  V30 5387 H 509.009 3.14844 -5.10875 0
M  V30 5388 H 510.079 1.88966 -4.46565 0
M  V30 5389 N 511.423 1.38739 0.74761 0
M  V30 5390 C 512.669 1.35475 1.50912 0
M  V30 5391 C 513.002 -0.0533093 1.94127 0
M  V30 5392 O 512.277 -1.01572 1.65871 0
M  V30 5393 C 512.56 2.31582 2.75757 0
M  V30 5394 C 512.413 3.81274 2.38642 0
M  V30 5395 C 513.732 2.25722 3.77806 0
M  V30 5396 H 510.851 0.493427 0.547447 0
M  V30 5397 H 513.493 1.69634 0.855823 0
M  V30 5398 H 511.643 2.02582 3.31501 0
M  V30 5399 H 513.315 4.20972 1.88626 0
M  V30 5400 H 511.558 3.98664 1.71025 0
M  V30 5401 H 512.229 4.4399 3.27989 0
M  V30 5402 H 514.705 2.51336 3.31616 0
M  V30 5403 H 513.581 2.95069 4.62845 0
M  V30 5404 H 513.842 1.25803 4.23823 0
M  V30 5405 N 512.901 -0.976442 1.23707 0
M  V30 5406 C 514.149 -1.71487 1.06942 0
M  V30 5407 C 514.47 -1.9098 -0.393897 0
M  V30 5408 O 513.74 -1.48128 -1.28198 0
M  V30 5409 H 512.32 -0.635425 0.392739 0
M  V30 5410 H 514.982 -1.17515 1.55487 0
M  V30 5411 H 514.078 -2.70286 1.56051 0
M  V30 5412 N 514.379 -1.04941 -1.1758 0
M  V30 5413 C 515.625 -0.759112 -1.88057 0
M  V30 5414 C 515.958 0.711918 -1.8068 0
M  V30 5415 O 515.233 1.52035 -1.21308 0
M  V30 5416 C 515.516 -1.237 -3.38187 0
M  V30 5417 C 515.369 -2.77078 -3.54327 0
M  V30 5418 C 516.688 -0.834014 -4.32125 0
M  V30 5419 H 513.807 -0.277237 -0.682868 0
M  V30 5420 H 516.449 -1.30296 -1.38286 0
M  V30 5421 H 514.599 -0.774337 -3.80705 0
M  V30 5422 H 516.271 -3.31449 -3.20842 0
M  V30 5423 H 514.514 -3.16477 -2.96689 0
M  V30 5424 H 515.185 -3.05577 -4.59703 0
M  V30 5425 H 517.661 -1.23228 -3.97434 0
M  V30 5426 H 516.537 -1.19603 -5.35711 0
M  V30 5427 H 516.798 0.262195 -4.41322 0
M  V30 5428 N 515.857 1.33968 -0.830081 0
M  V30 5429 C 516.805 2.31301 -0.245435 0
M  V30 5430 C 517.799 1.57734 0.617762 0
M  V30 5431 O 519.005 1.72674 0.508303 0
M  V30 5432 H 515.38 0.749552 -0.0606316 0
M  V30 5433 H 517.351 2.78129 -1.08105 0
M  V30 5434 C 516.1 3.42961 0.572084 0
M  V30 5435 H 515.423 3.99714 -0.0828118 0
M  V30 5436 H 516.863 4.13286 0.94715 0
M  V30 5437 C 515.322 2.88043 1.74737 0
M  V30 5438 O 515.852 2.83508 2.8458 0
M  V30 5439 N 514.058 2.44768 1.56642 0
M  V30 5440 H 513.605 2.48656 0.672901 0
M  V30 5441 H 513.563 2.08375 2.3543 0
M  V30 5442 N 517.335 0.585699 1.46312 0
M  V30 5443 C 518.282 -0.145835 2.30339 0
M  V30 5444 C 519.252 -0.881215 1.40797 0
M  V30 5445 O 520.437 -0.871293 1.69744 0
M  V30 5446 C 517.577 -1.15161 3.25318 0
M  V30 5447 C 516.69 -0.419367 4.2996 0
M  V30 5448 C 515.825 -1.41293 5.12064 0
M  V30 5449 C 514.864 -0.667261 6.08452 0
M  V30 5450 N 514.001 -1.60903 6.83414 0
M  V30 5451 H 518.841 0.576755 2.92365 0
M  V30 5452 H 516.378 0.296237 1.44086 0
M  V30 5453 H 518.336 -1.74763 3.78832 0
M  V30 5454 H 516.966 -1.84188 2.65094 0
M  V30 5455 H 516.018 0.291751 3.7928 0
M  V30 5456 H 517.33 0.163433 4.98532 0
M  V30 5457 H 516.484 -2.08167 5.6987 0
M  V30 5458 H 515.223 -2.02966 4.43459 0
M  V30 5459 H 514.228 0.0152356 5.49798 0
M  V30 5460 H 515.453 -0.0558817 6.79077 0
M  V30 5461 H 513.399 -2.21381 6.17516 0
M  V30 5462 H 513.316 -1.07911 7.48259 0
M  V30 5463 H 514.584 -2.26802 7.45775 0
M  V30 5464 N 518.813 -1.54241 0.323641 0
M  V30 5465 C 520.09 -1.92741 -0.333181 0
M  V30 5466 C 520.47 -1.25326 -1.69872 0
M  V30 5467 O 519.818 -0.396991 -2.25025 0
M  V30 5468 C 520.028 -3.46399 -0.425322 0
M  V30 5469 C 521.376 -4.19029 -0.68557 0
M  V30 5470 O 522.4 -3.52555 -0.50824 0
M  V30 5471 O 521.259 -5.36751 -1.02767 0
M  V30 5472 H 518.353 -0.804811 -0.190286 0
M  V30 5473 H 520.899 -1.65542 0.373361 0
M  V30 5474 H 519.671 -3.87643 0.533737 0
M  V30 5475 H 519.294 -3.79704 -1.17944 0
M  V30 5476 N 520.291 -0.0518155 -1.57515 0
M  V30 5477 C 521.201 0.937539 -2.15052 0
M  V30 5478 C 522.217 1.34121 -1.10849 0
M  V30 5479 O 523.393 1.418 -1.4302 0
M  V30 5480 C 520.458 2.19379 -2.68466 0
M  V30 5481 C 519.519 1.84841 -3.87469 0
M  V30 5482 C 518.752 3.04477 -4.38326 0
M  V30 5483 O 518.975 4.17868 -3.88256 0
M  V30 5484 O 517.909 2.85453 -5.29906 0
M  V30 5485 H 521.735 0.478201 -2.99912 0
M  V30 5486 H 519.32 0.17012 -1.48428 0
M  V30 5487 H 521.202 2.93084 -3.02787 0
M  V30 5488 H 519.877 2.64449 -1.86677 0
M  V30 5489 H 518.784 1.08449 -3.58036 0
M  V30 5490 H 520.117 1.44569 -4.7049 0
M  V30 5491 N 521.769 1.56035 0.221574 0
M  V30 5492 C 523.017 1.78693 0.944102 0
M  V30 5493 C 523.338 0.620317 1.8487 0
M  V30 5494 O 522.608 -0.362784 1.92512 0
M  V30 5495 H 521.188 0.659082 0.351597 0
M  V30 5496 H 523.85 1.93497 0.233435 0
M  V30 5497 H 522.946 2.70837 1.55093 0
M  V30 5498 N 523.247 -0.488276 1.49845 0
M  V30 5499 C 524.475 -1.26527 1.63702 0
M  V30 5500 C 524.89 -1.8618 0.313447 0
M  V30 5501 O 524.247 -1.68432 -0.702624 0
M  V30 5502 C 524.298 -2.3864 2.71538 0
M  V30 5503 O 524.019 -1.81437 3.98763 0
M  V30 5504 C 525.52 -3.29805 2.96215 0
M  V30 5505 H 522.74 -0.383295 0.55075 0
M  V30 5506 H 525.284 -0.584779 1.95961 0
M  V30 5507 H 523.439 -3.02496 2.42023 0
M  V30 5508 H 523.853 -2.55135 4.58265 0
M  V30 5509 H 525.327 -4.04722 3.75372 0
M  V30 5510 H 525.804 -3.87563 2.06619 0
M  V30 5511 H 526.41 -2.71703 3.27196 0
M  V30 5512 N 524.725 -1.39134 -0.740242 0
M  V30 5513 C 525.688 -1.37217 -1.83587 0
M  V30 5514 C 526.688 -0.270221 -1.58513 0
M  V30 5515 O 527.878 -0.527843 -1.6601 0
M  V30 5516 C 525.01 -1.13959 -3.21288 0
M  V30 5517 H 526.203 -2.34705 -1.86691 0
M  V30 5518 H 523.756 -1.24622 -0.94335 0
M  V30 5519 H 524.491 -0.17131 -3.23847 0
M  V30 5520 H 524.276 -1.93754 -3.40884 0
M  V30 5521 H 525.766 -1.15346 -4.01354 0
M  V30 5522 N 526.204 0.969867 -1.24223 0
M  V30 5523 C 527.451 1.71256 -1.08063 0
M  V30 5524 C 527.779 1.90734 0.380872 0
M  V30 5525 O 527.034 1.46469 1.29789 0
M  V30 5526 C 527.333 3.10883 -1.76314 0
M  V30 5527 C 526.999 3.11252 -3.26241 0
M  V30 5528 C 525.661 3.1106 -3.67144 0
M  V30 5529 C 528.013 3.05751 -4.22097 0
M  V30 5530 C 525.341 3.03097 -5.02344 0
M  V30 5531 C 527.693 2.9933 -5.57301 0
M  V30 5532 C 526.357 2.97466 -5.97554 0
M  V30 5533 H 525.627 0.62667 -0.395431 0
M  V30 5534 H 528.274 1.13422 -1.54297 0
M  V30 5535 H 526.579 3.72168 -1.22468 0
M  V30 5536 H 528.276 3.67138 -1.61277 0
M  V30 5537 H 524.866 3.12165 -2.93685 0
M  V30 5538 H 529.05 3.05031 -3.91497 0
M  V30 5539 H 524.306 3.00013 -5.32731 0
M  V30 5540 H 528.48 2.94033 -6.31283 0
M  V30 5541 H 526.107 2.91051 -7.02277 0
M  V30 5542 N 527.682 1.05563 1.17022 0
M  V30 5543 C 528.612 0.681026 2.23348 0
M  V30 5544 C 529.593 -0.322983 1.67005 0
M  V30 5545 O 530.778 -0.199746 1.9317 0
M  V30 5546 C 527.908 0.0589053 3.4725 0
M  V30 5547 C 526.862 0.988082 4.16438 0
M  V30 5548 C 526.188 0.229646 5.34207 0
M  V30 5549 C 527.488 2.31388 4.68249 0
M  V30 5550 H 529.182 1.56993 2.54938 0
M  V30 5551 H 526.728 0.756302 1.2254 0
M  V30 5552 H 528.681 -0.214982 4.20851 0
M  V30 5553 H 527.405 -0.864968 3.14938 0
M  V30 5554 H 526.064 1.24659 3.44754 0
M  V30 5555 H 525.712 -0.697111 4.98146 0
M  V30 5556 H 525.412 0.848815 5.81437 0
M  V30 5557 H 526.936 -0.0368694 6.10589 0
M  V30 5558 H 528.35 2.09964 5.33468 0
M  V30 5559 H 526.747 2.88736 5.26072 0
M  V30 5560 H 527.817 2.94982 3.84855 0
M  V30 5561 N 529.16 -1.33526 0.837174 0
M  V30 5562 C 530.406 -1.9813 0.432704 0
M  V30 5563 C 530.739 -1.66168 -1.00508 0
M  V30 5564 O 530.014 -0.94069 -1.70239 0
M  V30 5565 C 530.297 -3.54151 0.651834 0
M  V30 5566 C 530.15 -3.95806 2.13676 0
M  V30 5567 C 531.469 -4.39993 0.0968937 0
M  V30 5568 H 528.588 -0.719713 0.15869 0
M  V30 5569 H 531.23 -1.58193 1.05237 0
M  V30 5570 H 529.38 -3.88301 0.124369 0
M  V30 5571 H 531.052 -3.71921 2.72896 0
M  V30 5572 H 529.295 -3.45599 2.62191 0
M  V30 5573 H 529.966 -5.0447 2.24084 0
M  V30 5574 H 532.442 -4.12479 0.547733 0
M  V30 5575 H 531.318 -5.48186 0.279917 0
M  V30 5576 H 531.579 -4.3066 -0.9992 0
M  V30 5577 N 530.638 -0.59345 -1.46 0
M  V30 5578 C 531.868 -0.0889642 -2.06408 0
M  V30 5579 C 532.276 1.22597 -1.44106 0
M  V30 5580 O 531.619 1.75448 -0.544398 0
M  V30 5581 C 531.681 0.139902 -3.59228 0
M  V30 5582 C 531.345 -1.09107 -4.43784 0
M  V30 5583 C 532.342 -2.00577 -4.79651 0
M  V30 5584 C 530.027 -1.31593 -4.84756 0
M  V30 5585 C 532.021 -3.12873 -5.55328 0
M  V30 5586 C 529.708 -2.44192 -5.60191 0
M  V30 5587 C 530.706 -3.34661 -5.95392 0
M  V30 5588 O 530.394 -4.45302 -6.69299 0
M  V30 5589 H 530.126 -0.0594613 -0.67338 0
M  V30 5590 H 532.68 -0.817 -1.88452 0
M  V30 5591 H 530.91 0.922672 -3.75531 0
M  V30 5592 H 532.599 0.594228 -4.01527 0
M  V30 5593 H 533.365 -1.84425 -4.48567 0
M  V30 5594 H 529.244 -0.620801 -4.56801 0
M  V30 5595 H 532.788 -3.83511 -5.82722 0
M  V30 5596 H 528.685 -2.60303 -5.90688 0
M  V30 5597 H 529.453 -4.43805 -6.87735 0
M  V30 5598 N 532.116 1.54067 -0.331816 0
M  V30 5599 C 533.364 2.00319 0.267739 0
M  V30 5600 C 533.685 1.22148 1.52003 0
M  V30 5601 O 532.955 0.325494 1.93177 0
M  V30 5602 H 531.535 0.740014 0.101922 0
M  V30 5603 H 534.197 1.89628 -0.450267 0
M  V30 5604 H 533.293 3.07765 0.518385 0
M  V30 5605 N 533.594 0.0601682 1.57485 0
M  V30 5606 C 534.557 -0.896373 2.10945 0
M  V30 5607 C 535.557 -1.23402 1.03095 0
M  V30 5608 O 536.747 -1.16921 1.29132 0
M  V30 5609 C 533.879 -2.20346 2.60116 0
M  V30 5610 H 535.072 -0.432778 2.96761 0
M  V30 5611 H 532.625 -0.188372 1.55161 0
M  V30 5612 H 533.36 -2.71268 1.7772 0
M  V30 5613 H 533.145 -1.9714 3.38937 0
M  V30 5614 H 534.635 -2.88846 3.01592 0
M  V30 5615 N 535.072 -1.5615 -0.213296 0
M  V30 5616 C 536.483 -1.69645 -0.779582 0
M  V30 5617 C 536.834 -0.663615 -1.84636 0
M  V30 5618 O 535.959 0.183633 -2.15619 0
M  V30 5619 C 536.554 -3.07567 -1.42084 0
M  V30 5620 C 535.113 -3.22889 -1.93442 0
M  V30 5621 C 534.26 -2.65581 -0.797612 0
M  V30 5622 H 537.211 -1.58696 0.0114951 0
M  V30 5623 H 537.232 -3.03884 -2.28986 0
M  V30 5624 H 536.744 -3.82716 -0.644187 0
M  V30 5625 H 534.845 -2.52623 -2.73884 0
M  V30 5626 H 534.958 -4.30197 -2.10872 0
M  V30 5627 H 533.322 -2.24278 -1.20712 0
M  V30 5628 H 534.105 -3.43284 -0.033494 0
M  V30 5629 N 536.55 0.480323 -1.50102 0
M  V30 5630 C 537.798 1.23063 -1.60312 0
M  V30 5631 C 538.119 1.92659 -0.301226 0
M  V30 5632 O 537.389 1.83691 0.680753 0
M  V30 5633 H 535.969 0.457231 -0.590719 0
M  V30 5634 H 538.631 0.554893 -1.86834 0
M  V30 5635 H 537.727 1.9835 -2.40964 0
M  V30 5636 N 538.028 1.39524 0.732853 0
M  V30 5637 C 539.275 1.36865 1.49246 0
M  V30 5638 C 539.603 -0.0347118 1.94469 0
M  V30 5639 O 538.858 -1.01596 1.67262 0
M  V30 5640 C 539.157 2.28916 2.74468 0
M  V30 5641 C 538.823 3.76506 2.481 0
M  V30 5642 C 537.485 4.16721 2.40619 0
M  V30 5643 C 539.837 4.69846 2.25598 0
M  V30 5644 C 537.165 5.48334 2.08679 0
M  V30 5645 C 539.517 6.01739 1.95174 0
M  V30 5646 C 538.181 6.41015 1.86163 0
M  V30 5647 H 537.451 0.500824 0.546129 0
M  V30 5648 H 540.098 1.72047 0.840958 0
M  V30 5649 H 538.403 1.86859 3.4437 0
M  V30 5650 H 540.1 2.2415 3.32502 0
M  V30 5651 H 536.69 3.44635 2.54803 0
M  V30 5652 H 540.874 4.39608 2.30344 0
M  V30 5653 H 536.13 5.77685 2.00226 0
M  V30 5654 H 540.304 6.73591 1.76771 0
M  V30 5655 H 537.931 7.42917 1.61179 0
M  V30 5656 N 539.506 -0.963266 1.24736 0
M  V30 5657 C 540.731 -1.74699 1.11781 0
M  V30 5658 C 541.156 -1.85267 -0.325258 0
M  V30 5659 O 540.514 -1.32681 -1.23553 0
M  V30 5660 C 540.562 -3.14322 1.76731 0
M  V30 5661 O 539.666 -3.99043 1.04109 0
M  V30 5662 H 539.007 -0.53684 0.390767 0
M  V30 5663 H 541.537 -1.20801 1.65131 0
M  V30 5664 H 541.547 -3.64824 1.82668 0
M  V30 5665 H 540.222 -3.05946 2.81726 0
M  V30 5666 H 538.799 -3.5752 1.05991 0
M  V30 5667 N 540.985 -1.06182 -1.16461 0
M  V30 5668 C 541.932 -0.671613 -2.20812 0
M  V30 5669 C 542.902 0.331186 -1.62765 0
M  V30 5670 O 544.087 0.22033 -1.89524 0
M  V30 5671 C 541.227 -0.063029 -3.45042 0
M  V30 5672 C 540.34 -1.11587 -4.1734 0
M  V30 5673 C 539.475 -0.473546 -5.29085 0
M  V30 5674 C 538.514 -1.51 -5.93182 0
M  V30 5675 N 537.651 -0.891118 -6.96422 0
M  V30 5676 H 542.491 -1.56589 -2.53542 0
M  V30 5677 H 540.028 -0.782951 -1.24532 0
M  V30 5678 H 541.986 0.307344 -4.16066 0
M  V30 5679 H 540.616 0.794663 -3.12866 0
M  V30 5680 H 539.668 -1.60396 -3.44931 0
M  V30 5681 H 540.98 -1.90221 -4.61104 0
M  V30 5682 H 540.134 -0.0501432 -6.06679 0
M  V30 5683 H 538.873 0.344687 -4.8648 0
M  V30 5684 H 537.878 -1.94331 -5.14311 0
M  V30 5685 H 539.103 -2.33031 -6.37866 0
M  V30 5686 H 537.049 -0.0935753 -6.55933 0
M  V30 5687 H 536.966 -1.61486 -7.38551 0
M  V30 5688 H 538.234 -0.492822 -7.77941 0
M  V30 5689 N 542.463 1.3308 -0.844243 0
M  V30 5690 C 543.74 1.92178 -0.364261 0
M  V30 5691 C 544.12 1.76961 1.15101 0
M  V30 5692 O 543.468 1.16128 1.9679 0
M  V30 5693 C 543.678 3.393 -0.817106 0
M  V30 5694 C 545.026 4.16444 -0.828236 0
M  V30 5695 O 546.05 3.47975 -0.761062 0
M  V30 5696 O 544.909 5.38685 -0.920926 0
M  V30 5697 H 542.003 0.820411 -0.10419 0
M  V30 5698 H 544.549 1.41918 -0.930453 0
M  V30 5699 H 543.321 3.44272 -1.85991 0
M  V30 5700 H 542.944 3.96947 -0.227785 0
M  V30 5701 N 543.941 0.601185 1.45683 0
M  V30 5702 C 544.889 -0.133955 2.32214 0
M  V30 5703 C 545.883 -0.866034 1.45589 0
M  V30 5704 O 547.089 -0.782326 1.6211 0
M  V30 5705 H 543.464 -0.0620613 0.749435 0
M  V30 5706 H 545.435 0.614389 2.92007 0
M  V30 5707 C 544.184 -1.12216 3.29094 0
M  V30 5708 H 543.507 -0.568273 3.95741 0
M  V30 5709 H 544.947 -1.60659 3.92383 0
M  V30 5710 C 543.406 -2.19251 2.55794 0
M  V30 5711 O 543.936 -3.26894 2.33459 0
M  V30 5712 N 542.142 -1.9436 2.16039 0
M  V30 5713 H 541.689 -1.06829 2.34404 0
M  V30 5714 H 541.647 -2.66181 1.67318 0
M  V30 5715 N 545.419 -1.53889 0.339982 0
M  V30 5716 C 546.367 -2.26391 -0.533822 0
M  V30 5717 C 547.361 -1.28404 -1.10493 0
M  V30 5718 O 548.567 -1.46124 -1.05108 0
M  V30 5719 H 544.942 -0.727385 -0.190828 0
M  V30 5720 H 546.913 -2.98233 0.0997484 0
M  V30 5721 C 545.662 -3.04707 -1.67479 0
M  V30 5722 H 544.985 -3.79934 -1.2446 0
M  V30 5723 H 546.425 -3.58657 -2.26144 0
M  V30 5724 C 544.884 -2.13989 -2.60212 0
M  V30 5725 O 545.414 -1.73361 -3.62366 0
M  V30 5726 N 543.62 -1.79141 -2.28816 0
M  V30 5727 H 543.167 -2.12378 -1.45785 0
M  V30 5728 H 543.125 -1.18725 -2.91121 0
M  V30 5729 N 546.897 -0.0685191 -1.57451 0
M  V30 5730 C 548.122 0.613919 -1.98106 0
M  V30 5731 C 548.547 1.62551 -0.946501 0
M  V30 5732 O 547.905 1.81085 0.0882824 0
M  V30 5733 C 547.953 1.26189 -3.378 0
M  V30 5734 O 547.057 2.37773 -3.36954 0
M  V30 5735 H 546.398 0.158163 -0.644888 0
M  V30 5736 H 548.928 -0.142063 -2.04106 0
M  V30 5737 H 548.938 1.60951 -3.74912 0
M  V30 5738 H 547.613 0.520625 -4.12629 0
M  V30 5739 H 546.19 2.04829 -3.11608 0
M  V30 5740 N 548.375 1.56261 0.205012 0
M  V30 5741 C 549.624 1.79236 0.925058 0
M  V30 5742 C 549.937 0.640011 1.84833 0
M  V30 5743 O 551.143 0.753809 2.60826 0
M  V30 5744 C 549.599 3.17475 1.69522 0
M  V30 5745 C 549.207 4.40482 0.817269 0
M  V30 5746 C 550.951 3.49766 2.4055 0
M  V30 5747 C 548.858 5.69744 1.58573 0
M  V30 5748 H 547.788 0.668287 0.349153 0
M  V30 5749 H 550.439 1.82629 0.178544 0
M  V30 5750 H 548.821 3.08304 2.48526 0
M  V30 5751 H 549.995 4.60752 0.0665988 0
M  V30 5752 H 548.31 4.15827 0.218316 0
M  V30 5753 H 550.907 4.43573 2.98575 0
M  V30 5754 H 551.25 2.73041 3.14252 0
M  V30 5755 H 551.783 3.60341 1.68522 0
M  V30 5756 H 548.522 6.49407 0.891679 0
M  V30 5757 H 548.042 5.53509 2.31059 0
M  V30 5758 H 549.721 6.1051 2.14212 0
M  V30 5759 N 549.853 -0.472356 1.50355 0
M  V30 5760 C 551.102 -1.2213 1.60522 0
M  V30 5761 C 551.415 -1.9312 0.310466 0
M  V30 5762 O 552.621 -2.69936 0.291029 0
M  V30 5763 C 551.077 -2.21909 2.83345 0
M  V30 5764 C 550.685 -1.56727 4.19691 0
M  V30 5765 C 552.429 -2.97453 3.02856 0
M  V30 5766 C 550.336 -2.54785 5.33703 0
M  V30 5767 H 549.266 -0.459543 0.597776 0
M  V30 5768 H 551.917 -0.491922 1.76783 0
M  V30 5769 H 550.299 -2.98133 2.60639 0
M  V30 5770 H 551.473 -0.863007 4.52646 0
M  V30 5771 H 549.788 -0.934685 4.05774 0
M  V30 5772 H 552.385 -3.70838 3.85205 0
M  V30 5773 H 552.728 -3.56764 2.14534 0
M  V30 5774 H 553.261 -2.28342 3.25737 0
M  V30 5775 H 550 -2.00214 6.24175 0
M  V30 5776 H 549.52 -3.23367 5.05167 0
M  V30 5777 H 551.199 -3.16639 5.64224 0
M  V30 5778 N 551.331 -1.39911 -0.725443 0
M  V30 5779 C 552.559 -1.40949 -1.51463 0
M  V30 5780 C 552.974 -0.0065242 -1.88799 0
M  V30 5781 O 552.331 0.967163 -1.54765 0
M  V30 5782 C 552.382 -2.29119 -2.79619 0
M  V30 5783 O 552.103 -3.63952 -2.43866 0
M  V30 5784 C 553.604 -2.38642 -3.73584 0
M  V30 5785 H 550.824 -0.481091 -0.467752 0
M  V30 5786 H 553.368 -1.83843 -0.895651 0
M  V30 5787 H 551.523 -1.89612 -3.37826 0
M  V30 5788 H 551.937 -4.10677 -3.26258 0
M  V30 5789 H 553.411 -3.04563 -4.60375 0
M  V30 5790 H 553.888 -1.40846 -4.16004 0
M  V30 5791 H 554.494 -2.78659 -3.21293 0
M  V30 5792 N 552.809 0.956637 -1.25245 0
M  V30 5793 C 554.225 1.22733 -1.02023 0
M  V30 5794 C 554.425 1.99761 0.264186 0
M  V30 5795 O 553.481 2.32814 0.977436 0
M  V30 5796 C 554.794 2.00367 -2.24217 0
M  V30 5797 C 556.342 2.13418 -2.28958 0
M  V30 5798 C 556.817 2.9445 -3.50803 0
M  V30 5799 N 558.308 3.02029 -3.51187 0
M  V30 5800 C 559.043 3.65116 -4.42129 0
M  V30 5801 N 558.539 4.2983 -5.43339 0
M  V30 5802 N 560.332 3.62237 -4.29815 0
M  V30 5803 H 552.483 0.441282 -2.07765 0
M  V30 5804 H 554.746 0.257686 -0.912306 0
M  V30 5805 H 554.452 1.51165 -3.17556 0
M  V30 5806 H 554.326 3.01077 -2.27228 0
M  V30 5807 H 556.713 2.61819 -1.36143 0
M  V30 5808 H 556.794 1.1202 -2.29968 0
M  V30 5809 H 556.438 2.46741 -4.43939 0
M  V30 5810 H 556.368 3.9607 -3.47039 0
M  V30 5811 H 558.859 2.56007 -2.77973 0
M  V30 5812 H 559.172 4.75819 -6.08947 0
M  V30 5813 H 557.517 4.28465 -5.47214 0
M  V30 5814 H 560.708 3.10863 -3.49974 0
M  V30 5815 H 560.881 4.11117 -5.00886 0
M  V30 5816 N 554.287 1.06798 1.15896 0
M  V30 5817 C 555.234 0.683314 2.20453 0
M  V30 5818 C 556.204 -0.32255 1.62938 0
M  V30 5819 O 557.389 -0.210276 1.89638 0
M  V30 5820 C 554.529 0.0813266 3.45004 0
M  V30 5821 C 553.642 1.13799 4.16742 0
M  V30 5822 C 552.777 0.501598 5.28826 0
M  V30 5823 C 551.816 1.54144 5.92373 0
M  V30 5824 N 550.953 0.928038 6.9594 0
M  V30 5825 H 555.793 1.57932 2.52708 0
M  V30 5826 H 553.33 0.789544 1.24115 0
M  V30 5827 H 555.288 -0.285274 4.16224 0
M  V30 5828 H 553.918 -0.77806 3.13283 0
M  V30 5829 H 552.97 1.62223 3.44075 0
M  V30 5830 H 554.282 1.92664 4.60089 0
M  V30 5831 H 553.436 0.0823162 6.06644 0
M  V30 5832 H 552.175 -0.318883 4.86656 0
M  V30 5833 H 551.18 1.97056 5.13273 0
M  V30 5834 H 552.405 2.3641 6.36621 0
M  V30 5835 H 550.351 0.12836 6.55874 0
M  V30 5836 H 550.268 1.65401 7.37685 0
M  V30 5837 H 551.536 0.534071 7.77668 0
M  V30 5838 N 555.766 -1.3263 0.851289 0
M  V30 5839 C 556.676 -2.32722 0.296268 0
M  V30 5840 C 557.692 -1.63901 -0.584162 0
M  V30 5841 O 558.868 -1.95465 -0.485334 0
M  V30 5842 C 555.933 -3.42942 -0.509103 0
M  V30 5843 C 554.994 -4.2746 0.397069 0
M  V30 5844 C 554.227 -5.32416 -0.36996 0
M  V30 5845 O 554.45 -5.47491 -1.6003 0
M  V30 5846 O 553.384 -6.01327 0.262493 0
M  V30 5847 H 557.21 -2.82078 1.12543 0
M  V30 5848 H 554.795 -1.36194 0.614135 0
M  V30 5849 H 556.677 -4.1017 -0.96634 0
M  V30 5850 H 555.352 -2.95781 -1.31512 0
M  V30 5851 H 554.259 -3.63053 0.902411 0
M  V30 5852 H 555.592 -4.78136 1.16818 0
M  V30 5853 N 557.244 -0.608902 -1.45362 0
M  V30 5854 C 558.491 -0.104607 -2.0223 0
M  V30 5855 C 558.819 1.26534 -1.47714 0
M  V30 5856 O 558.074 1.84855 -0.642435 0
M  V30 5857 C 558.373 -0.0167296 -3.57396 0
M  V30 5858 C 558.039 -1.32251 -4.31069 0
M  V30 5859 C 556.701 -1.68019 -4.50914 0
M  V30 5860 C 559.053 -2.18542 -4.73169 0
M  V30 5861 C 556.381 -2.89828 -5.10114 0
M  V30 5862 C 558.733 -3.39602 -5.33717 0
M  V30 5863 C 557.397 -3.7562 -5.51784 0
M  V30 5864 H 556.667 -0.0382785 -0.740011 0
M  V30 5865 H 559.314 -0.790782 -1.7441 0
M  V30 5866 H 557.619 0.752715 -3.84502 0
M  V30 5867 H 559.316 0.389634 -3.99103 0
M  V30 5868 H 555.906 -1.03411 -4.15938 0
M  V30 5869 H 560.09 -1.92208 -4.5757 0
M  V30 5870 H 555.346 -3.17839 -5.22291 0
M  V30 5871 H 559.52 -4.06716 -5.65292 0
M  V30 5872 H 557.147 -4.70093 -5.97425 0
M  V30 5873 N 558.722 1.53707 -0.348139 0
M  V30 5874 C 559.654 2.22725 0.540946 0
M  V30 5875 C 560.667 1.2354 1.06027 0
M  V30 5876 O 561.856 1.49867 0.96964 0
M  V30 5877 C 558.956 2.89756 1.75768 0
M  V30 5878 C 558.129 4.15297 1.37285 0
M  V30 5879 C 557.188 4.65697 2.44976 0
M  V30 5880 O 556.214 5.29798 2.08092 0
M  V30 5881 N 557.416 4.42017 3.763 0
M  V30 5882 H 560.181 2.99658 -0.0501592 0
M  V30 5883 H 557.742 1.60979 -0.17248 0
M  V30 5884 H 559.734 3.20388 2.47252 0
M  V30 5885 H 558.304 2.16382 2.25605 0
M  V30 5886 H 557.524 3.9116 0.488584 0
M  V30 5887 H 558.812 4.96948 1.09179 0
M  V30 5888 H 558.21 3.9076 4.09051 0
M  V30 5889 H 556.767 4.77242 4.4394 0
M  V30 5890 N 560.2 0.0768682 1.57412 0
M  V30 5891 C 561.11 -0.903207 2.16516 0
M  V30 5892 C 562.126 -1.32341 1.12968 0
M  V30 5893 O 563.302 -1.39507 1.45258 0
M  V30 5894 C 560.367 -2.1508 2.71922 0
M  V30 5895 C 559.428 -1.78653 3.90361 0
M  V30 5896 C 558.661 -2.97465 4.43114 0
M  V30 5897 O 558.884 -4.11638 3.94854 0
M  V30 5898 O 557.818 -2.76987 5.3438 0
M  V30 5899 H 561.644 -0.430427 3.00634 0
M  V30 5900 H 559.229 -0.146485 1.4868 0
M  V30 5901 H 561.111 -2.8823 3.07411 0
M  V30 5902 H 559.786 -2.61446 1.9086 0
M  V30 5903 H 558.693 -1.0274 3.59716 0
M  V30 5904 H 560.026 -1.37066 4.7273 0
M  V30 5905 N 561.678 -1.56367 -0.196722 0
M  V30 5906 C 562.926 -1.80172 -0.915554 0
M  V30 5907 C 563.247 -0.649649 -1.8386 0
M  V30 5908 O 562.517 0.332111 -1.93064 0
M  V30 5909 H 561.097 -0.664592 -0.341067 0
M  V30 5910 H 563.759 -1.93844 -0.202622 0
M  V30 5911 H 562.855 -2.7327 -1.50764 0
M  V30 5912 N 563.156 0.464375 -1.50603 0
M  V30 5913 C 564.086 1.56944 -1.72889 0
M  V30 5914 C 565.067 1.59979 -0.577997 0
M  V30 5915 O 566.252 1.76138 -0.817855 0
M  V30 5916 C 563.382 2.95225 -1.8292 0
M  V30 5917 C 562.336 3.07056 -2.98162 0
M  V30 5918 C 561.662 4.47051 -2.93343 0
M  V30 5919 C 562.962 2.83648 -4.38567 0
M  V30 5920 H 564.656 1.38547 -2.65415 0
M  V30 5921 H 562.202 0.665082 -1.27721 0
M  V30 5922 H 564.155 3.72467 -1.97095 0
M  V30 5923 H 562.879 3.14793 -0.870209 0
M  V30 5924 H 561.538 2.32248 -2.83648 0
M  V30 5925 H 561.186 4.63547 -1.95276 0
M  V30 5926 H 560.886 4.55902 -3.70712 0
M  V30 5927 H 562.41 5.26304 -3.09575 0
M  V30 5928 H 563.824 3.50636 -4.53572 0
M  V30 5929 H 562.221 3.03937 -5.17438 0
M  V30 5930 H 563.291 1.79451 -4.50472 0
M  V30 5931 N 564.634 1.40294 0.718013 0
M  V30 5932 C 565.581 1.40367 1.8321 0
M  V30 5933 C 566.551 0.260952 1.64037 0
M  V30 5934 O 567.736 0.458648 1.85205 0
M  V30 5935 C 564.876 1.26965 3.20895 0
M  V30 5936 C 563.989 2.50922 3.51656 0
M  V30 5937 C 563.124 2.29981 4.78834 0
M  V30 5938 C 562.163 3.49527 5.02491 0
M  V30 5939 N 561.3 3.27796 6.20882 0
M  V30 5940 H 566.14 2.35593 1.82482 0
M  V30 5941 H 563.677 1.17012 0.891444 0
M  V30 5942 H 565.635 1.17202 4.00399 0
M  V30 5943 H 564.265 0.353591 3.20858 0
M  V30 5944 H 563.317 2.71223 2.66725 0
M  V30 5945 H 564.629 3.39913 3.65048 0
M  V30 5946 H 563.783 2.17558 5.66351 0
M  V30 5947 H 562.522 1.38411 4.67647 0
M  V30 5948 H 561.527 3.6243 4.1343 0
M  V30 5949 H 562.752 4.42021 5.15553 0
M  V30 5950 H 560.698 2.38906 6.1095 0
M  V30 5951 H 560.615 4.10351 6.34939 0
M  V30 5952 H 561.883 3.19101 7.11193 0
M  V30 5953 N 566.112 -0.949982 1.2575 0
M  V30 5954 C 567.361 -1.68956 1.10168 0
M  V30 5955 C 567.674 -1.92327 -0.356309 0
M  V30 5956 O 568.88 -2.64026 -0.632657 0
M  V30 5957 C 567.336 -3.04196 1.92336 0
M  V30 5958 C 566.944 -2.88603 3.42655 0
M  V30 5959 C 568.688 -3.81904 1.85336 0
M  V30 5960 C 566.595 -4.19262 4.17101 0
M  V30 5961 H 565.525 -0.633645 0.408668 0
M  V30 5962 H 568.176 -1.05719 1.49986 0
M  V30 5963 H 566.558 -3.68363 1.45344 0
M  V30 5964 H 567.732 -2.3334 3.97353 0
M  V30 5965 H 566.047 -2.24345 3.50796 0
M  V30 5966 H 568.644 -4.78688 2.38248 0
M  V30 5967 H 568.987 -4.08099 0.822226 0
M  V30 5968 H 569.52 -3.24495 2.30104 0
M  V30 5969 H 566.259 -3.98254 5.20648 0
M  V30 5970 H 565.779 -4.74273 3.67186 0
M  V30 5971 H 567.458 -4.87775 4.25071 0
M  V30 5972 N 567.59 -1.07411 -1.15328 0
M  V30 5973 C 568.837 -0.797649 -1.86128 0
M  V30 5974 C 569.165 0.676298 -1.82364 0
M  V30 5975 O 568.42 1.51223 -1.24218 0
M  V30 5976 C 568.719 -1.25191 -3.34757 0
M  V30 5977 C 568.385 -2.73191 -3.58716 0
M  V30 5978 C 567.047 -3.13616 -3.64964 0
M  V30 5979 C 569.399 -3.68718 -3.6837 0
M  V30 5980 C 566.727 -4.48383 -3.78377 0
M  V30 5981 C 569.079 -5.03248 -3.83306 0
M  V30 5982 C 567.743 -5.43293 -3.878 0
M  V30 5983 H 567.013 -0.29188 -0.681092 0
M  V30 5984 H 569.66 -1.34524 -1.36292 0
M  V30 5985 H 567.965 -0.623712 -3.86804 0
M  V30 5986 H 569.662 -1.01489 -3.87945 0
M  V30 5987 H 566.252 -2.40898 -3.54494 0
M  V30 5988 H 570.436 -3.38614 -3.62842 0
M  V30 5989 H 565.692 -4.78877 -3.80114 0
M  V30 5990 H 569.866 -5.77142 -3.89718 0
M  V30 5991 H 567.493 -6.47721 -3.97946 0
M  V30 5992 N 569.068 1.32177 -0.85831 0
M  V30 5993 C 570.315 1.97125 -0.463484 0
M  V30 5994 C 570.643 1.67907 0.981705 0
M  V30 5995 O 569.898 0.961717 1.70439 0
M  V30 5996 C 570.197 3.51372 -0.653658 0
M  V30 5997 C 569.863 4.00584 -2.06987 0
M  V30 5998 C 568.525 4.13733 -2.4572 0
M  V30 5999 C 570.877 4.26624 -2.99402 0
M  V30 6000 C 568.205 4.50268 -3.76132 0
M  V30 6001 C 570.557 4.64618 -4.29316 0
M  V30 6002 C 569.221 4.75975 -4.67979 0
M  V30 6003 H 568.491 0.72133 -0.169601 0
M  V30 6004 H 571.138 1.57517 -1.08907 0
M  V30 6005 H 569.443 3.91761 0.0551328 0
M  V30 6006 H 571.14 3.99655 -0.328163 0
M  V30 6007 H 567.73 3.90837 -1.75911 0
M  V30 6008 H 571.914 4.1597 -2.70708 0
M  V30 6009 H 567.17 4.57256 -4.05865 0
M  V30 6010 H 571.344 4.83722 -5.00985 0
M  V30 6011 H 568.971 5.04041 -5.69076 0
M  V30 6012 N 570.547 0.616602 1.45037 0
M  V30 6013 C 571.958 0.199359 1.85633 0
M  V30 6014 C 572.309 -1.24588 1.51566 0
M  V30 6015 O 571.434 -1.94594 0.94668 0
M  V30 6016 C 572.029 0.355033 3.36935 0
M  V30 6017 C 570.588 -0.00758748 3.76399 0
M  V30 6018 C 569.735 0.675256 2.68953 0
M  V30 6019 H 572.686 0.822708 1.3571 0
M  V30 6020 H 572.707 -0.410201 3.78282 0
M  V30 6021 H 572.219 1.40699 3.61698 0
M  V30 6022 H 570.32 -1.05837 3.57252 0
M  V30 6023 H 570.433 0.392346 4.77491 0
M  V30 6024 H 568.797 0.111992 2.54454 0
M  V30 6025 H 569.58 1.72952 2.96551 0
M  V30 6026 N 572.025 -1.5352 0.356285 0
M  V30 6027 C 573.273 -2.00719 -0.235837 0
M  V30 6028 C 573.594 -1.24551 -1.5004 0
M  V30 6029 O 572.864 -0.356185 -1.92635 0
M  V30 6030 H 571.444 -0.741542 -0.0901366 0
M  V30 6031 H 574.106 -1.88887 0.480378 0
M  V30 6032 H 573.202 -3.08551 -0.469357 0
M  V30 6033 N 573.503 -0.0852151 -1.57369 0
M  V30 6034 C 574.749 0.581666 -1.94279 0
M  V30 6035 C 575.082 1.68444 -0.966446 0
M  V30 6036 O 574.357 1.945 0.00215277 0
M  V30 6037 C 574.64 1.14609 -3.41375 0
M  V30 6038 C 574.493 0.0490414 -4.49773 0
M  V30 6039 C 575.812 2.04751 -3.8957 0
M  V30 6040 H 572.931 0.209972 -0.706456 0
M  V30 6041 H 575.573 -0.153915 -1.89376 0
M  V30 6042 H 573.723 1.77297 -3.45685 0
M  V30 6043 H 575.395 -0.584721 -4.57579 0
M  V30 6044 H 573.638 -0.618638 -4.29366 0
M  V30 6045 H 574.309 0.484601 -5.49869 0
M  V30 6046 H 576.785 1.51981 -3.87351 0
M  V30 6047 H 575.661 2.41173 -4.93079 0
M  V30 6048 H 575.922 2.96107 -3.28288 0
M  V30 6049 N 574.981 1.5647 0.188427 0
M  V30 6050 C 576.206 1.85486 0.927891 0
M  V30 6051 C 576.631 0.669575 1.75779 0
M  V30 6052 O 575.989 -0.381573 1.77239 0
M  V30 6053 C 576.037 3.12784 1.7944 0
M  V30 6054 O 575.141 2.93805 2.894 0
M  V30 6055 H 574.482 0.610585 0.260925 0
M  V30 6056 H 577.012 2.037 0.191729 0
M  V30 6057 H 577.022 3.43749 2.19774 0
M  V30 6058 H 575.697 3.98671 1.18468 0
M  V30 6059 H 574.274 2.74153 2.52774 0
M  V30 6060 N 576.459 -0.456382 1.50847 0
M  V30 6061 C 577.369 -1.57805 1.73594 0
M  V30 6062 C 578.385 -1.62599 0.619476 0
M  V30 6063 O 579.561 -1.80195 0.899532 0
M  V30 6064 C 576.626 -2.93926 1.8387 0
M  V30 6065 C 575.687 -2.99402 3.07663 0
M  V30 6066 C 574.92 -4.29031 3.1744 0
M  V30 6067 O 575.143 -5.20358 2.33631 0
M  V30 6068 O 574.077 -4.40401 4.10281 0
M  V30 6069 H 577.903 -1.41531 2.68705 0
M  V30 6070 H 575.488 -0.637422 1.3512 0
M  V30 6071 H 577.37 -3.74747 1.92725 0
M  V30 6072 H 576.045 -3.10368 0.91944 0
M  V30 6073 H 574.952 -2.17606 3.043 0
M  V30 6074 H 576.285 -2.87901 3.99216 0
M  V30 6075 N 577.937 -1.40673 -0.710563 0
M  V30 6076 C 579.184 -1.39222 -1.47049 0
M  V30 6077 C 579.512 0.0037691 -1.945 0
M  V30 6078 O 578.767 0.989224 -1.68857 0
M  V30 6079 C 579.066 -2.33253 -2.70791 0
M  V30 6080 C 578.732 -3.80406 -2.42079 0
M  V30 6081 C 577.394 -4.20496 -2.33959 0
M  V30 6082 C 579.746 -4.73375 -2.18094 0
M  V30 6083 C 577.074 -5.51584 -1.99929 0
M  V30 6084 C 579.426 -6.04768 -1.85576 0
M  V30 6085 C 578.09 -6.43895 -1.75941 0
M  V30 6086 H 577.36 -0.509449 -0.538092 0
M  V30 6087 H 580.007 -1.73363 -0.81348 0
M  V30 6088 H 578.312 -1.92314 -3.41354 0
M  V30 6089 H 580.009 -2.29412 -3.28894 0
M  V30 6090 H 576.599 -3.48645 -2.49288 0
M  V30 6091 H 580.783 -4.43217 -2.23321 0
M  V30 6092 H 576.039 -5.80797 -1.91011 0
M  V30 6093 H 580.213 -6.76318 -1.66033 0
M  V30 6094 H 577.84 -7.45387 -1.4934 0
M  V30 6095 N 579.415 0.9433 -1.26252 0
M  V30 6096 C 580.663 1.68592 -1.11451 0
M  V30 6097 C 580.984 1.91957 0.343123 0
M  V30 6098 O 580.254 1.51475 1.24226 0
M  V30 6099 H 578.834 0.624789 -0.409448 0
M  V30 6100 H 581.496 1.13351 -1.58548 0
M  V30 6101 H 580.592 2.66054 -1.63162 0
M  V30 6102 N 580.893 1.08022 1.14757 0
M  V30 6103 C 581.84 0.706657 2.19716 0
M  V30 6104 C 582.81 -0.30525 1.63271 0
M  V30 6105 O 583.995 -0.19015 1.8985 0
M  V30 6106 C 581.135 0.117914 3.44898 0
M  V30 6107 C 580.248 1.18212 4.15512 0
M  V30 6108 C 579.383 0.557659 5.28265 0
M  V30 6109 C 578.422 1.60418 5.90705 0
M  V30 6110 N 577.559 1.0018 6.94916 0
M  V30 6111 H 582.399 1.60603 2.51019 0
M  V30 6112 H 579.936 0.802664 1.23271 0
M  V30 6113 H 581.894 -0.241112 4.16503 0
M  V30 6114 H 580.524 -0.744788 3.1409 0
M  V30 6115 H 579.576 1.65863 3.42335 0
M  V30 6116 H 580.888 1.97533 4.5802 0
M  V30 6117 H 580.042 0.146654 6.06523 0
M  V30 6118 H 578.781 -0.267249 4.86967 0
M  V30 6119 H 577.786 2.02489 5.11154 0
M  V30 6120 H 579.011 2.43149 6.34078 0
M  V30 6121 H 576.957 0.197917 6.55701 0
M  V30 6122 H 576.874 1.73216 7.35889 0
M  V30 6123 H 578.142 0.616523 7.77058 0
M  V30 6124 N 582.371 -1.3172 0.865308 0
M  V30 6125 C 583.281 -2.32394 0.320935 0
M  V30 6126 C 584.297 -1.64511 -0.566746 0
M  V30 6127 O 585.473 -1.95969 -0.464575 0
M  V30 6128 C 582.538 -3.43462 -0.472701 0
M  V30 6129 C 581.599 -4.27015 0.442385 0
M  V30 6130 C 580.832 -5.32779 -0.313469 0
M  V30 6131 O 581.055 -5.49158 -1.54214 0
M  V30 6132 O 579.989 -6.01015 0.326257 0
M  V30 6133 H 583.815 -2.80868 1.15528 0
M  V30 6134 H 581.4 -1.35535 0.628545 0
M  V30 6135 H 583.282 -4.11172 -0.922781 0
M  V30 6136 H 581.957 -2.97159 -1.28367 0
M  V30 6137 H 580.864 -3.62075 0.940866 0
M  V30 6138 H 582.197 -4.76871 1.21882 0
M  V30 6139 N 583.85 -0.624285 -1.44708 0
M  V30 6140 C 585.075 -0.131171 -2.06985 0
M  V30 6141 C 585.5 1.18234 -1.46295 0
M  V30 6142 O 584.858 1.72375 -0.561842 0
M  V30 6143 C 584.906 -0.0226724 -3.60593 0
M  V30 6144 O 584.01 1.02314 -3.99507 0
M  V30 6145 H 583.351 -0.0816556 -0.65896 0
M  V30 6146 H 585.88 -0.859027 -1.85693 0
M  V30 6147 H 585.891 0.170138 -4.07645 0
M  V30 6148 H 584.566 -0.981685 -4.04148 0
M  V30 6149 H 583.143 0.805452 -3.64097 0
M  V30 6150 N 585.328 1.53329 -0.364422 0
M  V30 6151 C 586.577 2.00421 0.226747 0
M  V30 6152 C 586.89 1.25581 1.49963 0
M  V30 6153 O 588.096 1.63256 2.16933 0
M  V30 6154 C 586.552 3.57017 0.454618 0
M  V30 6155 C 586.16 4.40734 -0.803568 0
M  V30 6156 C 587.904 4.12468 1.00351 0
M  V30 6157 C 585.811 5.8888 -0.545345 0
M  V30 6158 H 584.741 0.748787 0.0885082 0
M  V30 6159 H 587.392 1.7703 -0.482983 0
M  V30 6160 H 585.774 3.76558 1.22558 0
M  V30 6161 H 586.948 4.32967 -1.57723 0
M  V30 6162 H 585.263 3.96381 -1.27559 0
M  V30 6163 H 587.86 5.20783 1.212 0
M  V30 6164 H 588.203 3.6699 1.9653 0
M  V30 6165 H 588.736 3.96721 0.29274 0
M  V30 6166 H 585.475 6.38633 -1.47743 0
M  V30 6167 H 584.995 5.99499 0.189842 0
M  V30 6168 H 586.674 6.46776 -0.170425 0
M  V30 6169 N 586.806 0.0935595 1.57322 0
M  V30 6170 C 587.736 -0.863062 2.16964 0
M  V30 6171 C 588.717 -1.29528 1.10256 0
M  V30 6172 O 589.902 -1.36245 1.38387 0
M  V30 6173 C 587.032 -2.12276 2.74875 0
M  V30 6174 C 585.986 -1.82921 3.86942 0
M  V30 6175 C 585.312 -3.15707 4.31548 0
M  V30 6176 C 586.612 -1.11737 5.10208 0
M  V30 6177 H 588.306 -0.366145 2.97153 0
M  V30 6178 H 585.852 -0.174673 1.42937 0
M  V30 6179 H 587.805 -2.79634 3.1525 0
M  V30 6180 H 586.529 -2.64248 1.91938 0
M  V30 6181 H 585.188 -1.17961 3.47103 0
M  V30 6182 H 584.836 -3.65563 3.45504 0
M  V30 6183 H 584.536 -2.96849 5.07104 0
M  V30 6184 H 586.06 -3.84226 4.74555 0
M  V30 6185 H 587.474 -1.69203 5.47762 0
M  V30 6186 H 585.871 -1.03064 5.91183 0
M  V30 6187 H 586.941 -0.0998818 4.84797 0
M  V30 6188 N 588.284 -1.56567 -0.180126 0
M  V30 6189 C 589.531 -1.81492 -0.898167 0
M  V30 6190 C 589.859 -0.669225 -1.82624 0
M  V30 6191 O 589.114 0.344096 -1.92651 0
M  V30 6192 C 589.413 -3.1252 -1.73395 0
M  V30 6193 C 589.079 -4.40658 -0.955567 0
M  V30 6194 C 587.741 -4.75465 -0.740707 0
M  V30 6195 C 590.093 -5.19593 -0.408948 0
M  V30 6196 C 587.421 -5.86691 0.0320128 0
M  V30 6197 C 589.773 -6.31627 0.350638 0
M  V30 6198 C 588.437 -6.65007 0.576378 0
M  V30 6199 H 587.707 -0.664125 -0.328662 0
M  V30 6200 H 590.354 -1.908 -0.163616 0
M  V30 6201 H 588.659 -2.98515 -2.53763 0
M  V30 6202 H 590.356 -3.29013 -2.29241 0
M  V30 6203 H 586.946 -4.13352 -1.13306 0
M  V30 6204 H 591.13 -4.93104 -0.562307 0
M  V30 6205 H 586.386 -6.11016 0.216735 0
M  V30 6206 H 590.56 -6.92001 0.781497 0
M  V30 6207 H 588.187 -7.51033 1.17703 0
M  V30 6208 N 589.762 0.448376 -1.51087 0
M  V30 6209 C 590.712 1.54156 -1.67988 0
M  V30 6210 C 591.696 1.5178 -0.534015 0
M  V30 6211 O 592.888 1.58419 -0.789448 0
M  V30 6212 C 590.017 2.92437 -1.79822 0
M  V30 6213 C 589.103 2.99611 -3.00157 0
M  V30 6214 N 589.494 2.7655 -4.23502 0
M  V30 6215 C 587.792 3.30764 -2.99184 0
M  V30 6216 C 588.493 2.89281 -5.0467 0
M  V30 6217 N 587.469 3.20473 -4.39088 0
M  V30 6218 H 591.271 1.35061 -2.61028 0
M  V30 6219 H 588.785 0.655504 -1.48583 0
M  V30 6220 H 590.782 3.71068 -1.90037 0
M  V30 6221 H 589.442 3.1256 -0.879554 0
M  V30 6222 H 590.453 2.5169 -4.52628 0
M  V30 6223 H 587.13 3.56732 -2.16907 0
M  V30 6224 H 588.52 2.75499 -6.12821 0
M  V30 6225 N 591.24 1.41047 0.703093 0
M  V30 6226 C 592.47 1.43133 1.48985 0
M  V30 6227 C 592.878 0.0328537 1.89171 0
M  V30 6228 O 592.221 -0.956469 1.56835 0
M  V30 6229 C 592.283 2.26991 2.78775 0
M  V30 6230 C 591.947 3.7525 2.60837 0
M  V30 6231 C 592.944 4.67591 2.27276 0
M  V30 6232 C 590.629 4.19208 2.76712 0
M  V30 6233 C 592.623 6.01877 2.09817 0
M  V30 6234 C 590.31 5.53561 2.5887 0
M  V30 6235 C 591.308 6.4471 2.25472 0
M  V30 6236 O 590.996 7.76584 2.07778 0
M  V30 6237 H 590.728 0.489788 0.465922 0
M  V30 6238 H 593.282 1.85886 0.873822 0
M  V30 6239 H 591.512 1.79038 3.42757 0
M  V30 6240 H 593.201 2.20867 3.40547 0
M  V30 6241 H 593.967 4.34923 2.14633 0
M  V30 6242 H 589.846 3.48572 3.01693 0
M  V30 6243 H 593.39 6.72986 1.83671 0
M  V30 6244 H 589.287 5.85811 2.71102 0
M  V30 6245 H 590.055 7.87649 2.22601 0
M  V30 6246 N 592.718 -0.936591 1.26751 0
M  V30 6247 C 593.946 -1.71758 1.15355 0
M  V30 6248 C 594.361 -1.86549 -0.290683 0
M  V30 6249 O 593.718 -1.37616 -1.19868 0
M  V30 6250 C 593.769 -3.12193 1.82258 0
M  V30 6251 O 593.49 -2.98105 3.21038 0
M  V30 6252 C 594.991 -4.06485 1.76875 0
M  V30 6253 H 592.211 -0.537636 0.401483 0
M  V30 6254 H 594.755 -1.17382 1.67457 0
M  V30 6255 H 592.91 -3.63456 1.34083 0
M  V30 6256 H 593.324 -3.86824 3.54214 0
M  V30 6257 H 594.798 -5.02569 2.28316 0
M  V30 6258 H 595.275 -4.32986 0.736216 0
M  V30 6259 H 595.881 -3.61144 2.24623 0
M  V30 6260 N 594.196 -1.08629 -1.14182 0
M  V30 6261 C 595.473 -0.73002 -1.81466 0
M  V30 6262 C 595.853 0.785996 -1.95922 0
M  V30 6263 O 595.201 1.70535 -1.52086 0
M  V30 6264 C 595.411 -1.45957 -3.17014 0
M  V30 6265 C 596.759 -1.62008 -3.92477 0
M  V30 6266 O 597.783 -1.42141 -3.26611 0
M  V30 6267 O 596.642 -1.94806 -5.106 0
M  V30 6268 H 593.736 -0.261307 -0.784632 0
M  V30 6269 H 596.282 -1.188 -1.2118 0
M  V30 6270 H 595.054 -2.49221 -3.01669 0
M  V30 6271 H 594.677 -0.993222 -3.84995 0
M  V30 6272 N 595.674 1.31259 -0.872281 0
M  V30 6273 C 596.92 1.973 -0.494414 0
M  V30 6274 C 597.275 1.67684 0.94339 0
M  V30 6275 O 596.568 0.964186 1.65572 0
M  V30 6276 C 596.762 3.50659 -0.690889 0
M  V30 6277 C 596.591 3.95179 -2.14624 0
M  V30 6278 C 595.361 4.21405 -2.7883 0
M  V30 6279 C 597.559 4.08948 -3.11875 0
M  V30 6280 N 595.541 4.52295 -4.15093 0
M  V30 6281 C 596.912 4.43576 -4.33174 0
M  V30 6282 C 598.967 3.91334 -3.07835 0
M  V30 6283 C 597.67 4.62429 -5.50956 0
M  V30 6284 C 599.696 4.11381 -4.24876 0
M  V30 6285 C 599.058 4.46343 -5.44938 0
M  V30 6286 H 595.157 0.747411 -0.230002 0
M  V30 6287 H 597.741 1.58741 -1.12736 0
M  V30 6288 H 595.912 3.88301 -0.0875162 0
M  V30 6289 H 597.644 4.03722 -0.281179 0
M  V30 6290 H 594.399 4.14131 -2.29767 0
M  V30 6291 H 594.823 4.71897 -4.8543 0
M  V30 6292 H 599.465 3.6339 -2.16119 0
M  V30 6293 H 597.183 4.8922 -6.43187 0
M  V30 6294 H 600.769 3.99235 -4.23205 0
M  V30 6295 H 599.649 4.6154 -6.33996 0
M  V30 6296 N 597.152 0.631951 1.44375 0
M  V30 6297 C 598.398 0.13697 2.02337 0
M  V30 6298 C 598.731 -1.23826 1.49602 0
M  V30 6299 O 598.006 -1.8221 0.680415 0
M  V30 6300 C 598.289 0.124536 3.59885 0
M  V30 6301 C 598.142 1.53217 4.229 0
M  V30 6302 C 599.461 -0.550481 4.36644 0
M  V30 6303 H 596.58 0.051247 0.735216 0
M  V30 6304 H 599.222 0.808581 1.71936 0
M  V30 6305 H 597.372 -0.44737 3.85916 0
M  V30 6306 H 599.044 2.15303 4.07973 0
M  V30 6307 H 597.287 2.0858 3.80364 0
M  V30 6308 H 597.958 1.4755 5.31914 0
M  V30 6309 H 600.434 -0.0641154 4.16051 0
M  V30 6310 H 599.31 -0.528371 5.46351 0
M  V30 6311 H 599.571 -1.62097 4.11311 0
M  V30 6312 N 598.631 -1.53133 0.372548 0
M  V30 6313 C 599.908 -1.93704 -0.271693 0
M  V30 6314 C 600.288 -1.30667 -1.65799 0
M  V30 6315 O 599.636 -0.46838 -2.23648 0
M  V30 6316 C 599.846 -3.47576 -0.314903 0
M  V30 6317 C 601.194 -4.20998 -0.551912 0
M  V30 6318 O 602.218 -3.53994 -0.39582 0
M  V30 6319 O 601.077 -5.39748 -0.85639 0
M  V30 6320 H 598.171 -0.810457 -0.164586 0
M  V30 6321 H 600.717 -1.6427 0.425838 0
M  V30 6322 H 599.489 -3.85749 0.656792 0
M  V30 6323 H 599.112 -3.83264 -1.05804 0
M  V30 6324 N 600.109 -0.101901 -1.5727 0
M  V30 6325 C 601.386 0.602832 -1.86079 0
M  V30 6326 C 601.766 1.85912 -1 0
M  V30 6327 O 601.114 2.28379 -0.0742488 0
M  V30 6328 C 601.324 0.911694 -3.36881 0
M  V30 6329 C 602.672 1.2722 -4.05093 0
M  V30 6330 O 603.696 1.0025 -3.41802 0
M  V30 6331 O 602.555 1.7776 -5.16782 0
M  V30 6332 H 599.649 0.302366 -0.769743 0
M  V30 6333 H 602.195 -0.135113 -1.69161 0
M  V30 6334 H 600.967 0.0207256 -3.91295 0
M  V30 6335 H 600.59 1.70538 -3.59169 0
M  V30 6336 N 601.587 1.56661 0.17182 0
M  V30 6337 C 602.519 1.92934 1.2373 0
M  V30 6338 C 603.532 0.822385 1.40502 0
M  V30 6339 O 604.721 1.10083 1.40514 0
M  V30 6340 C 601.821 2.16651 2.60607 0
M  V30 6341 C 600.994 3.47878 2.6514 0
M  V30 6342 C 600.053 3.60429 3.83377 0
M  V30 6343 O 599.079 4.33051 3.69398 0
M  V30 6344 N 600.281 2.95241 4.99813 0
M  V30 6345 H 603.046 2.84931 0.929205 0
M  V30 6346 H 600.607 1.5781 0.361588 0
M  V30 6347 H 602.599 2.22312 3.38171 0
M  V30 6348 H 601.169 1.3104 2.83809 0
M  V30 6349 H 600.389 3.53879 1.73675 0
M  V30 6350 H 601.677 4.34232 2.6518 0
M  V30 6351 H 601.075 2.3611 5.14071 0
M  V30 6352 H 599.632 3.06499 5.75241 0
M  V30 6353 N 603.065 -0.440357 1.51323 0
M  V30 6354 C 604.481 -0.7766 1.39431 0
M  V30 6355 C 604.681 -1.95838 0.474296 0
M  V30 6356 O 603.737 -2.52398 -0.0716692 0
M  V30 6357 C 605.05 -1.05981 2.81405 0
M  V30 6358 C 606.598 -1.16442 2.90534 0
M  V30 6359 C 607.073 -1.48058 4.33408 0
M  V30 6360 N 608.564 -1.54988 4.36501 0
M  V30 6361 C 609.299 -1.81017 5.44078 0
M  V30 6362 N 608.795 -2.04858 6.61819 0
M  V30 6363 N 610.588 -1.82774 5.31554 0
M  V30 6364 H 602.739 0.338006 2.09693 0
M  V30 6365 H 605.002 0.0888072 0.943831 0
M  V30 6366 H 604.708 -0.264173 3.50706 0
M  V30 6367 H 604.582 -1.98822 3.20546 0
M  V30 6368 H 606.969 -1.95068 2.21432 0
M  V30 6369 H 607.05 -0.215088 2.54894 0
M  V30 6370 H 606.694 -0.699605 5.03059 0
M  V30 6371 H 606.624 -2.44192 4.66559 0
M  V30 6372 H 609.115 -1.38479 3.51613 0
M  V30 6373 H 609.428 -2.2408 7.396 0
M  V30 6374 H 607.773 -2.02187 6.6494 0
M  V30 6375 H 610.964 -1.63665 4.38556 0
M  V30 6376 H 611.137 -2.02722 6.15474 0
M  V30 6377 N 604.543 -1.41418 -0.695603 0
M  V30 6378 C 605.954 -1.36335 -1.27552 0
M  V30 6379 C 606.305 -0.0464336 -1.96145 0
M  V30 6380 O 605.43 0.855304 -1.9878 0
M  V30 6381 C 606.025 -2.46941 -2.3196 0
M  V30 6382 C 604.584 -2.45256 -2.85529 0
M  V30 6383 C 603.731 -2.2679 -1.59566 0
M  V30 6384 H 606.682 -1.50934 -0.490362 0
M  V30 6385 H 606.703 -2.15997 -3.1325 0
M  V30 6386 H 606.215 -3.42775 -1.82008 0
M  V30 6387 H 604.316 -1.53179 -3.39657 0
M  V30 6388 H 604.429 -3.41565 -3.35961 0
M  V30 6389 H 602.793 -1.74667 -1.85374 0
M  V30 6390 H 603.576 -3.24651 -1.1161 0
M  V30 6391 N 606.021 0.929856 -1.27246 0
M  V30 6392 C 606.931 2.0636 -1.11592 0
M  V30 6393 C 607.947 1.73938 -0.046496 0
M  V30 6394 O 609.123 1.9981 -0.252544 0
M  V30 6395 C 606.188 3.38213 -0.762437 0
M  V30 6396 C 605.249 3.84346 -1.9125 0
M  V30 6397 C 604.482 5.09906 -1.57579 0
M  V30 6398 O 604.705 5.68354 -0.482694 0
M  V30 6399 O 603.639 5.51359 -2.41426 0
M  V30 6400 H 607.465 2.22478 -2.0673 0
M  V30 6401 H 605.05 1.04865 -1.06413 0
M  V30 6402 H 606.932 4.1741 -0.57854 0
M  V30 6403 H 605.607 3.23307 0.159439 0
M  V30 6404 H 604.514 3.06045 -2.15144 0
M  V30 6405 H 605.847 4.0379 -2.81451 0
M  V30 6406 N 607.499 1.09233 1.13605 0
M  V30 6407 C 608.447 0.724572 2.21027 0
M  V30 6408 C 609.441 -0.273595 1.67176 0
M  V30 6409 O 610.647 -0.135266 1.79491 0
M  V30 6410 H 607.022 0.216319 0.720215 0
M  V30 6411 H 608.993 1.63975 2.49309 0
M  V30 6412 C 607.742 0.159126 3.47336 0
M  V30 6413 H 607.065 0.918387 3.89109 0
M  V30 6414 H 608.505 -0.0602851 4.23957 0
M  V30 6415 C 606.964 -1.10514 3.18258 0
M  V30 6416 O 607.494 -2.18869 3.36837 0
M  V30 6417 N 605.7 -1.01886 2.72154 0
M  V30 6418 H 605.247 -0.137027 2.57235 0
M  V30 6419 H 605.205 -1.8655 2.53074 0
M  V30 6420 N 608.977 -1.30795 0.87923 0
M  V30 6421 C 610.207 -2.00237 0.50881 0
M  V30 6422 C 610.615 -1.66115 -0.905682 0
M  V30 6423 O 609.958 -0.89138 -1.60624 0
M  V30 6424 C 610.02 -3.54508 0.597003 0
M  V30 6425 C 609.684 -4.12131 1.97477 0
M  V30 6426 C 610.681 -4.28552 2.94346 0
M  V30 6427 C 608.366 -4.47644 2.2786 0
M  V30 6428 C 610.36 -4.79689 4.19735 0
M  V30 6429 C 608.047 -4.98481 3.53496 0
M  V30 6430 C 609.045 -5.14456 4.49248 0
M  V30 6431 O 608.733 -5.64199 5.72656 0
M  V30 6432 H 608.465 -0.647026 0.195788 0
M  V30 6433 H 611.019 -1.67785 1.1848 0
M  V30 6434 H 609.249 -3.86461 -0.135945 0
M  V30 6435 H 610.938 -4.05198 0.238684 0
M  V30 6436 H 611.704 -4.01424 2.72183 0
M  V30 6437 H 607.583 -4.34481 1.54102 0
M  V30 6438 H 611.127 -4.92073 4.9448 0
M  V30 6439 H 607.024 -5.25044 3.75498 0
M  V30 6440 H 607.792 -5.82551 5.74957 0
M  V30 6441 N 610.455 -0.639598 -1.44038 0
M  V30 6442 C 611.871 -0.305953 -1.5664 0
M  V30 6443 C 612.071 1.19055 -1.62567 0
M  V30 6444 O 611.127 1.97492 -1.57331 0
M  V30 6445 C 612.44 -1.00533 -2.83397 0
M  V30 6446 C 613.988 -0.984278 -2.97121 0
M  V30 6447 C 614.463 -1.66428 -4.26691 0
M  V30 6448 N 615.954 -1.63127 -4.33525 0
M  V30 6449 C 616.689 -2.12629 -5.32519 0
M  V30 6450 N 616.185 -2.70359 -6.3787 0
M  V30 6451 N 617.978 -2.03208 -5.24083 0
M  V30 6452 H 610.129 -1.6109 -1.38434 0
M  V30 6453 H 612.392 -0.676672 -0.663942 0
M  V30 6454 H 612.098 -2.06034 -2.85032 0
M  V30 6455 H 611.972 -0.548362 -3.73193 0
M  V30 6456 H 614.359 0.0622792 -2.95034 0
M  V30 6457 H 614.44 -1.47981 -2.08651 0
M  V30 6458 H 614.084 -2.71034 -4.29538 0
M  V30 6459 H 614.014 -1.14351 -5.14034 0
M  V30 6460 H 616.505 -1.20987 -3.58009 0
M  V30 6461 H 616.818 -3.05842 -7.09704 0
M  V30 6462 H 615.163 -2.74414 -6.38531 0
M  V30 6463 H 618.354 -1.57823 -4.40692 0
M  V30 6464 H 618.527 -2.42097 -6.01077 0
M  V30 6465 N 611.933 1.52934 -0.380664 0
M  V30 6466 C 612.843 2.29921 0.466192 0
M  V30 6467 C 613.859 1.36488 1.07922 0
M  V30 6468 O 615.035 1.69553 1.0869 0
M  V30 6469 C 612.1 3.08468 1.58266 0
M  V30 6470 C 611.161 4.17595 0.995627 0
M  V30 6471 C 610.394 4.92387 2.05889 0
M  V30 6472 O 610.617 4.67184 3.27254 0
M  V30 6473 O 609.551 5.77949 1.68102 0
M  V30 6474 H 613.377 3.03274 -0.160735 0
M  V30 6475 H 610.962 1.48698 -0.144617 0
M  V30 6476 H 612.844 3.57469 2.23145 0
M  V30 6477 H 611.519 2.37937 2.19471 0
M  V30 6478 H 610.426 3.72811 0.310332 0
M  V30 6479 H 611.759 4.90336 0.427918 0
M  V30 6480 N 613.412 0.11024 1.57214 0
M  V30 6481 C 614.375 -0.828808 2.1369 0
M  V30 6482 C 615.375 -1.20059 1.06969 0
M  V30 6483 O 616.565 -1.12754 1.32786 0
M  V30 6484 C 613.697 -2.11959 2.66994 0
M  V30 6485 H 614.89 -0.338146 2.97988 0
M  V30 6486 H 612.443 -0.138913 1.55681 0
M  V30 6487 H 613.178 -2.65476 1.8626 0
M  V30 6488 H 612.963 -1.86258 3.45037 0
M  V30 6489 H 614.453 -2.79105 3.10629 0
M  V30 6490 N 614.89 -1.56749 -0.16351 0
M  V30 6491 C 615.82 -2.00042 -1.20438 0
M  V30 6492 C 616.801 -0.877256 -1.45733 0
M  V30 6493 O 617.986 -1.1439 -1.56935 0
M  V30 6494 C 615.116 -2.36697 -2.54149 0
M  V30 6495 C 614.07 -3.52046 -2.43408 0
M  V30 6496 C 613.396 -3.74466 -3.81679 0
M  V30 6497 C 614.696 -4.85247 -1.93216 0
M  V30 6498 H 616.39 -2.87244 -0.844477 0
M  V30 6499 H 613.936 -1.38194 -0.40478 0
M  V30 6500 H 615.889 -2.65582 -3.27176 0
M  V30 6501 H 614.613 -1.46414 -2.91943 0
M  V30 6502 H 613.272 -3.23301 -1.72834 0
M  V30 6503 H 612.92 -2.81461 -4.1688 0
M  V30 6504 H 612.62 -4.52084 -3.75359 0
M  V30 6505 H 614.144 -4.0576 -4.5628 0
M  V30 6506 H 615.558 -5.12957 -2.56023 0
M  V30 6507 H 613.955 -5.66556 -1.97825 0
M  V30 6508 H 615.025 -4.7672 -0.88689 0
M  V30 6509 N 616.368 0.432326 -1.51554 0
M  V30 6510 C 617.616 1.17901 -1.64146 0
M  V30 6511 C 617.937 1.91604 -0.362367 0
M  V30 6512 O 617.207 1.85764 0.621968 0
M  V30 6513 H 615.787 0.438206 -0.604966 0
M  V30 6514 H 618.449 0.495172 -1.88505 0
M  V30 6515 H 617.545 1.90584 -2.47152 0
M  V30 6516 N 617.846 1.41785 0.688094 0
M  V30 6517 C 619.123 1.32031 1.44316 0
M  V30 6518 C 619.503 -0.0486079 2.11044 0
M  V30 6519 O 618.851 -1.06332 2.02252 0
M  V30 6520 C 619.061 2.47906 2.45649 0
M  V30 6521 C 620.409 2.89415 3.10683 0
M  V30 6522 O 621.433 2.477 2.55975 0
M  V30 6523 O 620.292 3.61573 4.09789 0
M  V30 6524 H 617.386 0.519994 0.643067 0
M  V30 6525 H 619.932 1.53765 0.71794 0
M  V30 6526 H 618.704 3.39222 1.95048 0
M  V30 6527 H 618.327 2.28089 3.25671 0
M  V30 6528 N 619.324 -0.923095 1.27737 0
M  V30 6529 C 620.57 -1.67375 1.14514 0
M  V30 6530 C 620.903 -1.91751 -0.307424 0
M  V30 6531 O 620.178 -1.51119 -1.22447 0
M  V30 6532 C 620.461 -3.03745 1.9342 0
M  V30 6533 C 620.314 -2.86581 3.46686 0
M  V30 6534 C 621.633 -4.04144 1.74228 0
M  V30 6535 H 618.752 -0.607427 0.417374 0
M  V30 6536 H 621.394 -1.07089 1.56946 0
M  V30 6537 H 619.544 -3.55204 1.5736 0
M  V30 6538 H 621.216 -2.42203 3.92601 0
M  V30 6539 H 619.459 -2.21829 3.72793 0
M  V30 6540 H 620.13 -3.83381 3.97143 0
M  V30 6541 H 622.606 -3.61712 2.05678 0
M  V30 6542 H 621.482 -4.97543 2.31824 0
M  V30 6543 H 621.743 -4.36661 0.691373 0
M  V30 6544 N 620.802 -1.09834 -1.13024 0
M  V30 6545 C 622.048 -0.83819 -1.84668 0
M  V30 6546 C 622.381 0.634645 -1.83537 0
M  V30 6547 O 621.656 1.46753 -1.27647 0
M  V30 6548 C 621.939 -1.37933 -3.32636 0
M  V30 6549 C 621.792 -2.91857 -3.42257 0
M  V30 6550 C 623.111 -1.01654 -4.28199 0
M  V30 6551 H 620.23 -0.30595 -0.670495 0
M  V30 6552 H 622.872 -1.36044 -1.32635 0
M  V30 6553 H 621.022 -0.935111 -3.77078 0
M  V30 6554 H 622.694 -3.44759 -3.06495 0
M  V30 6555 H 620.937 -3.28776 -2.83 0
M  V30 6556 H 621.608 -3.24799 -4.46329 0
M  V30 6557 H 624.084 -1.39973 -3.9185 0
M  V30 6558 H 622.96 -1.42217 -5.30156 0
M  V30 6559 H 623.221 0.0747794 -4.42037 0
M  V30 6560 N 622.28 1.30327 -0.886154 0
M  V30 6561 C 623.528 1.9571 -0.504195 0
M  V30 6562 C 623.849 1.70294 0.950003 0
M  V30 6563 O 623.119 1.02718 1.66811 0
M  V30 6564 H 621.699 0.72412 -0.183465 0
M  V30 6565 H 624.361 1.58835 -1.12949 0
M  V30 6566 H 623.457 3.04704 -0.675431 0
M  V30 6567 N 623.758 0.647228 1.43697 0
M  V30 6568 C 625.035 0.0883758 1.954 0
M  V30 6569 C 625.415 -1.39006 1.58873 0
M  V30 6570 O 624.763 -2.11255 0.87083 0
M  V30 6571 C 624.973 0.328263 3.47453 0
M  V30 6572 C 626.321 0.230009 4.23977 0
M  V30 6573 O 627.345 0.260496 3.55246 0
M  V30 6574 O 626.204 0.148615 5.46298 0
M  V30 6575 H 623.298 -0.0130683 0.826897 0
M  V30 6576 H 625.844 0.72005 1.53666 0
M  V30 6577 H 624.616 1.3535 3.67146 0
M  V30 6578 H 624.239 -0.336772 3.96171 0
M  V30 6579 N 625.236 -1.5273 0.388769 0
M  V30 6580 C 626.466 -2.05693 -0.193397 0
M  V30 6581 C 626.874 -1.26038 -1.41107 0
M  V30 6582 O 626.217 -0.30001 -1.81234 0
M  V30 6583 C 626.279 -3.53962 -0.628561 0
M  V30 6584 C 625.943 -4.54519 0.475576 0
M  V30 6585 C 626.94 -5.02526 1.33281 0
M  V30 6586 C 624.625 -4.98174 0.642453 0
M  V30 6587 C 626.619 -5.92812 2.34205 0
M  V30 6588 C 624.306 -5.88262 1.65503 0
M  V30 6589 C 625.304 -6.35473 2.50325 0
M  V30 6590 O 624.992 -7.23781 3.49852 0
M  V30 6591 H 624.724 -0.675197 -0.0329395 0
M  V30 6592 H 627.278 -1.97835 0.552326 0
M  V30 6593 H 625.508 -3.59437 -1.42625 0
M  V30 6594 H 627.197 -3.89669 -1.13633 0
M  V30 6595 H 627.963 -4.6953 1.21519 0
M  V30 6596 H 623.842 -4.60999 -0.00805093 0
M  V30 6597 H 627.386 -6.29585 3.00447 0
M  V30 6598 H 623.283 -6.20672 1.77304 0
M  V30 6599 H 624.051 -7.4184 3.45855 0
M  V30 6600 N 626.714 -0.118576 -1.57153 0
M  V30 6601 C 627.662 0.849114 -2.16547 0
M  V30 6602 C 628.656 1.27567 -1.11458 0
M  V30 6603 O 629.862 1.24746 -1.29763 0
M  V30 6604 H 626.237 0.291935 -0.693021 0
M  V30 6605 H 628.208 0.323693 -2.96639 0
M  V30 6606 C 626.957 2.08951 -2.77912 0
M  V30 6607 H 626.28 1.77021 -3.58474 0
M  V30 6608 H 627.72 2.74666 -3.23008 0
M  V30 6609 C 626.179 2.87899 -1.74974 0
M  V30 6610 O 626.709 3.83268 -1.20285 0
M  V30 6611 N 624.915 2.51884 -1.44924 0
M  V30 6612 H 624.462 1.74397 -1.89587 0
M  V30 6613 H 624.42 3.05003 -0.762921 0
M  V30 6614 N 628.193 1.56834 0.155195 0
M  V30 6615 C 629.44 1.82898 0.869179 0
M  V30 6616 C 629.768 0.698194 1.81537 0
M  V30 6617 O 629.023 -0.313404 1.93174 0
M  V30 6618 C 629.322 3.15239 1.68402 0
M  V30 6619 C 628.988 4.42123 0.885341 0
M  V30 6620 C 627.65 4.76583 0.664971 0
M  V30 6621 C 630.002 5.20178 0.326234 0
M  V30 6622 C 627.33 5.86566 -0.125346 0
M  V30 6623 C 629.682 6.3099 -0.45108 0
M  V30 6624 C 628.346 6.64006 -0.682102 0
M  V30 6625 H 627.616 0.66927 0.318055 0
M  V30 6626 H 630.263 1.91036 0.133241 0
M  V30 6627 H 628.568 3.02515 2.48982 0
M  V30 6628 H 630.265 3.32618 2.23978 0
M  V30 6629 H 626.855 4.15102 1.06716 0
M  V30 6630 H 631.039 4.93936 0.483787 0
M  V30 6631 H 626.295 6.10594 -0.313915 0
M  V30 6632 H 630.469 6.9067 -0.89149 0
M  V30 6633 H 628.096 7.49065 -1.29636 0
M  V30 6634 N 629.671 -0.424282 1.51781 0
M  V30 6635 C 630.92 -1.16961 1.64326 0
M  V30 6636 C 631.233 -1.92035 0.371749 0
M  V30 6637 O 632.439 -2.68873 0.37676 0
M  V30 6638 C 630.895 -2.12782 2.90262 0
M  V30 6639 C 630.503 -1.43295 4.24465 0
M  V30 6640 C 632.247 -2.87667 3.12166 0
M  V30 6641 C 630.154 -2.37676 5.41538 0
M  V30 6642 H 629.084 -0.440293 0.612093 0
M  V30 6643 H 631.735 -0.435431 1.78259 0
M  V30 6644 H 630.117 -2.8969 2.69992 0
M  V30 6645 H 631.291 -0.718564 4.55163 0
M  V30 6646 H 629.606 -0.805118 4.08542 0
M  V30 6647 H 632.203 -3.58395 3.96808 0
M  V30 6648 H 632.546 -3.49758 2.25776 0
M  V30 6649 H 633.079 -2.17863 3.32837 0
M  V30 6650 H 629.818 -1.80255 6.30229 0
M  V30 6651 H 629.338 -3.07132 5.15199 0
M  V30 6652 H 631.017 -2.98529 5.74012 0
M  V30 6653 N 631.149 -1.42148 -0.680565 0
M  V30 6654 C 632.389 -1.4379 -1.45271 0
M  V30 6655 C 632.753 -0.0504426 -1.91934 0
M  V30 6656 O 633.954 0.0583916 -2.68737 0
M  V30 6657 C 632.225 -2.42904 -2.62168 0
M  V30 6658 S 633.784 -2.63201 -3.51099 0
M  V30 6659 H 630.602 -0.509185 -0.496237 0
M  V30 6660 H 633.204 -1.78706 -0.792744 0
M  V30 6661 H 631.908 -3.4249 -2.26116 0
M  V30 6662 H 631.439 -2.09394 -3.33043 0
M  V30 6663 H 633.454 -1.91068 -4.57938 0
M  V30 6664 N 632.627 0.916307 -1.28225 0
M  V30 6665 C 634.038 1.48024 -1.13779 0
M  V30 6666 C 634.389 1.94289 0.273139 0
M  V30 6667 O 633.514 1.82226 1.16716 0
M  V30 6668 C 634.109 2.69029 -2.05935 0
M  V30 6669 C 632.668 3.2161 -1.95561 0
M  V30 6670 C 631.815 1.94321 -1.97825 0
M  V30 6671 H 634.766 0.729272 -1.40951 0
M  V30 6672 H 634.787 3.44204 -1.62184 0
M  V30 6673 H 634.299 2.35325 -3.08616 0
M  V30 6674 H 632.4 3.60045 -0.959076 0
M  V30 6675 H 632.513 3.87032 -2.82388 0
M  V30 6676 H 630.877 2.1131 -1.42198 0
M  V30 6677 H 631.66 1.62917 -3.0218 0
M  V30 6678 N 634.105 1.10431 1.1244 0
M  V30 6679 C 635.068 0.756542 2.16354 0
M  V30 6680 C 636.068 -0.21899 1.59302 0
M  V30 6681 O 637.258 0.00415969 1.742 0
M  V30 6682 C 634.39 0.120612 3.40687 0
M  V30 6683 H 635.583 1.67696 2.48632 0
M  V30 6684 H 633.136 0.904832 1.27446 0
M  V30 6685 H 633.871 -0.810536 3.14008 0
M  V30 6686 H 633.656 0.822693 3.83372 0
M  V30 6687 H 635.146 -0.106945 4.17463 0
M  V30 6688 N 635.583 -1.29855 0.893053 0
M  V30 6689 C 636.513 -2.3035 0.382249 0
M  V30 6690 C 637.494 -1.61328 -0.539203 0
M  V30 6691 O 638.679 -1.88882 -0.451342 0
M  V30 6692 C 635.809 -3.45024 -0.396983 0
M  V30 6693 C 634.763 -4.258 0.433437 0
M  V30 6694 C 634.089 -5.32605 -0.472889 0
M  V30 6695 C 635.389 -4.94549 1.67984 0
M  V30 6696 H 637.083 -2.73325 1.22205 0
M  V30 6697 H 634.629 -1.314 0.589073 0
M  V30 6698 H 636.582 -4.14398 -0.765024 0
M  V30 6699 H 635.306 -3.00875 -1.2705 0
M  V30 6700 H 633.965 -3.58125 0.783723 0
M  V30 6701 H 633.613 -4.84702 -1.34435 0
M  V30 6702 H 633.313 -5.87547 0.0789958 0
M  V30 6703 H 634.837 -6.04832 -0.837269 0
M  V30 6704 H 636.251 -5.56395 1.38192 0
M  V30 6705 H 634.648 -5.59393 2.17254 0
M  V30 6706 H 635.718 -4.20215 2.41965 0
M  V30 6707 N 637.061 -0.65484 -1.43351 0
M  V30 6708 C 637.971 0.0363603 -2.34572 0
M  V30 6709 C 638.987 0.810432 -1.53974 0
M  V30 6710 O 640.163 0.757308 -1.86619 0
M  V30 6711 C 637.228 0.989733 -3.32273 0
M  V30 6712 C 636.289 0.212414 -4.28774 0
M  V30 6713 C 635.522 1.12038 -5.21808 0
M  V30 6714 O 635.745 2.35967 -5.19303 0
M  V30 6715 O 634.679 0.59191 -5.98982 0
M  V30 6716 H 638.505 -0.714527 -2.95175 0
M  V30 6717 H 636.09 -0.415029 -1.4352 0
M  V30 6718 H 637.972 1.53759 -3.92347 0
M  V30 6719 H 636.647 1.72082 -2.74171 0
M  V30 6720 H 635.554 -0.379062 -3.72175 0
M  V30 6721 H 636.887 -0.479138 -4.89862 0
M  V30 6722 N 638.539 1.52521 -0.396863 0
M  V30 6723 C 639.786 2.01672 0.182898 0
M  V30 6724 C 640.114 1.28302 1.46181 0
M  V30 6725 O 639.369 0.374118 1.92091 0
M  V30 6726 C 639.668 3.5403 0.489677 0
M  V30 6727 C 639.334 4.45456 -0.698581 0
M  V30 6728 C 637.996 4.70166 -1.02454 0
M  V30 6729 C 640.348 4.99354 -1.49316 0
M  V30 6730 C 637.676 5.46024 -2.1465 0
M  V30 6731 C 640.028 5.76439 -2.60579 0
M  V30 6732 C 638.692 5.99426 -2.93675 0
M  V30 6733 H 637.962 0.737971 0.066927 0
M  V30 6734 H 640.609 1.83853 -0.535764 0
M  V30 6735 H 638.914 3.69963 1.28976 0
M  V30 6736 H 640.611 3.8956 0.951018 0
M  V30 6737 H 637.201 4.26392 -0.434525 0
M  V30 6738 H 641.385 4.80182 -1.25457 0
M  V30 6739 H 636.641 5.62046 -2.40654 0
M  V30 6740 H 640.815 6.17202 -3.22544 0
M  V30 6741 H 638.442 6.57988 -3.80731 0
M  V30 6742 N 640.017 0.126909 1.57088 0
M  V30 6743 C 641.245 -0.53667 1.99819 0
M  V30 6744 C 641.66 -1.5972 1.00673 0
M  V30 6745 O 641.017 -1.825 0.000747365 0
M  V30 6746 C 641.068 -1.15563 3.42531 0
M  V30 6747 O 640.789 -0.137483 4.37884 0
M  V30 6748 C 642.29 -1.90176 4.00435 0
M  V30 6749 H 639.51 -0.141443 0.655923 0
M  V30 6750 H 642.054 0.215578 2.03361 0
M  V30 6751 H 640.209 -1.85861 3.39904 0
M  V30 6752 H 640.623 -0.588229 5.21191 0
M  V30 6753 H 642.097 -2.28801 5.02349 0
M  V30 6754 H 642.574 -2.78002 3.40017 0
M  V30 6755 H 643.18 -1.24623 4.06632 0
M  V30 6756 N 641.495 -1.56914 -0.146875 0
M  V30 6757 C 642.442 -1.98275 -1.18134 0
M  V30 6758 C 643.412 -0.850367 -1.42681 0
M  V30 6759 O 644.597 -1.11244 -1.55014 0
M  V30 6760 C 641.737 -2.36861 -2.5098 0
M  V30 6761 C 640.85 -3.63391 -2.33605 0
M  V30 6762 C 639.985 -3.91079 -3.59486 0
M  V30 6763 C 639.024 -5.10879 -3.37149 0
M  V30 6764 N 638.161 -5.34577 -4.55161 0
M  V30 6765 H 643.001 -2.8645 -0.821622 0
M  V30 6766 H 640.538 -1.41718 -0.394248 0
M  V30 6767 H 642.496 -2.57262 -3.28439 0
M  V30 6768 H 641.126 -1.51766 -2.84898 0
M  V30 6769 H 640.178 -3.50766 -1.47199 0
M  V30 6770 H 641.49 -4.51007 -2.13059 0
M  V30 6771 H 640.644 -4.11979 -4.45374 0
M  V30 6772 H 639.383 -3.01885 -3.83036 0
M  V30 6773 H 638.388 -4.89853 -2.49649 0
M  V30 6774 H 639.613 -6.01626 -3.14997 0
M  V30 6775 H 637.559 -4.48337 -4.78884 0
M  V30 6776 H 637.476 -6.16463 -4.37618 0
M  V30 6777 H 638.744 -5.59975 -5.42263 0
M  V30 6778 N 642.974 0.416227 -1.52004 0
M  V30 6779 C 643.921 1.50666 -1.74838 0
M  V30 6780 C 644.891 1.55245 -0.590599 0
M  V30 6781 O 646.076 1.71928 -0.827374 0
M  V30 6782 C 643.216 2.88185 -1.89851 0
M  V30 6783 C 642.329 2.92971 -3.17478 0
M  V30 6784 C 641.464 4.21745 -3.22962 0
M  V30 6785 C 640.503 4.20478 -4.4482 0
M  V30 6786 N 639.64 5.40811 -4.47736 0
M  V30 6787 H 644.48 1.30498 -2.67907 0
M  V30 6788 H 642.017 0.633568 -1.32757 0
M  V30 6789 H 643.975 3.68007 -1.96537 0
M  V30 6790 H 642.605 3.06865 -1.00169 0
M  V30 6791 H 641.657 2.05684 -3.19997 0
M  V30 6792 H 642.969 2.87899 -4.07328 0
M  V30 6793 H 642.123 5.09954 -3.28682 0
M  V30 6794 H 640.862 4.29503 -2.31038 0
M  V30 6795 H 639.867 3.30659 -4.39254 0
M  V30 6796 H 641.092 4.14366 -5.38031 0
M  V30 6797 H 639.038 5.4925 -3.58692 0
M  V30 6798 H 638.955 5.37705 -5.31422 0
M  V30 6799 H 640.223 6.30993 -4.57676 0
M  V30 6800 N 644.452 1.42507 0.673017 0
M  V30 6801 C 645.699 1.43072 1.43306 0
M  V30 6802 C 646.027 0.0478004 1.94441 0
M  V30 6803 O 645.282 -0.944106 1.71421 0
M  V30 6804 C 645.581 2.40351 2.64511 0
M  V30 6805 C 645.247 3.8669 2.31908 0
M  V30 6806 C 643.909 4.26551 2.22728 0
M  V30 6807 C 646.261 4.78991 2.05467 0
M  V30 6808 C 643.589 5.56691 1.85234 0
M  V30 6809 C 645.941 6.09476 1.69477 0
M  V30 6810 C 644.605 6.48334 1.58808 0
M  V30 6811 H 643.875 0.523536 0.524395 0
M  V30 6812 H 646.522 1.75459 0.76723 0
M  V30 6813 H 644.827 2.01297 3.36135 0
M  V30 6814 H 646.524 2.38051 3.22696 0
M  V30 6815 H 643.114 3.55132 2.39956 0
M  V30 6816 H 647.298 4.48982 2.11492 0
M  V30 6817 H 642.554 5.85657 1.75545 0
M  V30 6818 H 646.728 6.80482 1.48043 0
M  V30 6819 H 644.355 7.49084 1.29525 0
M  V30 6820 N 645.93 -0.909495 1.28709 0
M  V30 6821 C 647.155 -1.69801 1.1909 0
M  V30 6822 C 647.58 -1.86479 -0.246388 0
M  V30 6823 O 646.938 -1.37802 -1.17815 0
M  V30 6824 C 646.986 -3.06543 1.89904 0
M  V30 6825 O 646.09 -3.94268 1.2094 0
M  V30 6826 H 645.431 -0.519783 0.413185 0
M  V30 6827 H 647.961 -1.13689 1.70106 0
M  V30 6828 H 647.971 -3.56748 1.97977 0
M  V30 6829 H 646.646 -2.93722 2.94449 0
M  V30 6830 H 645.223 -3.52702 1.2106 0
M  V30 6831 N 647.408 -1.11026 -1.11852 0
M  V30 6832 C 648.318 -0.777252 -2.2135 0
M  V30 6833 C 649.334 0.227821 -1.72502 0
M  V30 6834 O 650.51 0.0650587 -2.01295 0
M  V30 6835 C 647.575 -0.220668 -3.45997 0
M  V30 6836 C 646.636 -1.2838 -4.09655 0
M  V30 6837 C 645.869 -0.753678 -5.28352 0
M  V30 6838 O 646.092 0.417779 -5.68868 0
M  V30 6839 O 645.026 -1.51647 -5.82483 0
M  V30 6840 H 648.852 -1.69141 -2.5224 0
M  V30 6841 H 646.437 -0.885836 -1.20305 0
M  V30 6842 H 648.319 0.0855756 -4.21313 0
M  V30 6843 H 646.994 0.666262 -3.16769 0
M  V30 6844 H 645.901 -1.64299 -3.3609 0
M  V30 6845 H 647.234 -2.14396 -4.43052 0
M  V30 6846 N 648.886 1.2938 -0.899927 0
M  V30 6847 C 650.132 1.96206 -0.536153 0
M  V30 6848 C 650.487 1.69647 0.90761 0
M  V30 6849 O 649.78 0.999089 1.63489 0
M  V30 6850 C 649.974 3.49114 -0.765113 0
M  V30 6851 C 649.803 3.90538 -2.22958 0
M  V30 6852 C 648.573 4.15395 -2.87706 0
M  V30 6853 C 650.771 4.0224 -3.20479 0
M  V30 6854 N 648.753 4.43389 -4.24593 0
M  V30 6855 C 650.124 4.34288 -4.42486 0
M  V30 6856 C 652.179 3.84716 -3.16066 0
M  V30 6857 C 650.882 4.50638 -5.6064 0
M  V30 6858 C 652.908 4.02276 -4.33507 0
M  V30 6859 C 652.27 4.34684 -5.54283 0
M  V30 6860 H 648.369 0.742364 -0.245804 0
M  V30 6861 H 650.953 1.56314 -1.16078 0
M  V30 6862 H 649.124 3.88028 -0.169861 0
M  V30 6863 H 650.856 4.03035 -0.366751 0
M  V30 6864 H 647.611 4.09164 -2.385 0
M  V30 6865 H 648.035 4.61494 -4.95331 0
M  V30 6866 H 652.677 3.58724 -2.23778 0
M  V30 6867 H 650.395 4.75467 -6.5342 0
M  V30 6868 H 653.981 3.90169 -4.31578 0
M  V30 6869 H 652.861 4.47988 -6.43643 0
M  V30 6870 N 650.364 0.662433 1.43002 0
M  V30 6871 C 651.612 0.179237 2.01304 0
M  V30 6872 C 651.933 -1.21428 1.52579 0
M  V30 6873 O 651.203 -1.81294 0.742252 0
M  V30 6874 H 649.783 0.0632725 0.744316 0
M  V30 6875 H 652.445 0.856169 1.75088 0
M  V30 6876 H 651.541 0.170957 3.11631 0
M  V30 6877 N 651.842 -1.52309 0.404946 0
M  V30 6878 C 652.79 -2.28452 -0.437321 0
M  V30 6879 C 653.784 -1.32975 -1.04948 0
M  V30 6880 O 654.99 -1.50451 -0.988159 0
M  V30 6881 H 651.365 -0.734824 -0.159805 0
M  V30 6882 H 653.336 -2.97542 0.22615 0
M  V30 6883 C 652.085 -3.11536 -1.54404 0
M  V30 6884 H 651.408 -3.84871 -1.08233 0
M  V30 6885 H 652.848 -3.67926 -2.10729 0
M  V30 6886 C 651.307 -2.24833 -2.50902 0
M  V30 6887 O 651.837 -1.88574 -3.54687 0
M  V30 6888 N 650.043 -1.88685 -2.21012 0
M  V30 6889 H 649.59 -2.18371 -1.36646 0
M  V30 6890 H 649.548 -1.30966 -2.85824 0
M  V30 6891 N 653.32 -0.135238 -1.57019 0
M  V30 6892 C 654.268 0.826099 -2.17436 0
M  V30 6893 C 655.262 1.26378 -1.12805 0
M  V30 6894 O 656.468 1.23363 -1.31079 0
M  V30 6895 H 652.843 0.284568 -0.696078 0
M  V30 6896 H 654.814 0.292212 -2.96966 0
M  V30 6897 C 653.563 2.05991 -2.80112 0
M  V30 6898 H 652.886 1.73209 -3.60331 0
M  V30 6899 H 654.326 2.71225 -3.25903 0
M  V30 6900 C 652.785 2.86027 -1.78017 0
M  V30 6901 O 653.315 3.81971 -1.24344 0
M  V30 6902 N 651.521 2.50332 -1.47588 0
M  V30 6903 H 651.068 1.72377 -1.91426 0
M  V30 6904 H 651.026 3.04177 -0.795228 0
M  V30 6905 N 654.798 1.5699 0.138552 0
M  V30 6906 C 655.761 1.97984 1.15478 0
M  V30 6907 C 656.761 0.867416 1.35398 0
M  V30 6908 O 657.951 1.13387 1.32246 0
M  V30 6909 C 655.083 2.3031 2.51337 0
M  V30 6910 H 656.276 2.88953 0.802896 0
M  V30 6911 H 653.829 1.51555 0.382189 0
M  V30 6912 H 654.564 1.42159 2.91481 0
M  V30 6913 H 654.349 3.11425 2.38237 0
M  V30 6914 H 655.839 2.62834 3.24512 0
M  V30 6915 N 656.276 -0.40816 1.52223 0
M  V30 6916 C 657.523 -1.15502 1.66329 0
M  V30 6917 C 657.851 -1.90474 0.393701 0
M  V30 6918 O 657.106 -1.85507 -0.623356 0
M  V30 6919 C 657.405 -2.17422 2.83659 0
M  V30 6920 C 657.071 -1.5925 4.21841 0
M  V30 6921 C 655.733 -1.4311 4.59427 0
M  V30 6922 C 658.085 -1.16776 5.0795 0
M  V30 6923 C 655.413 -0.830148 5.80797 0
M  V30 6924 C 657.765 -0.580988 6.29926 0
M  V30 6925 C 656.429 -0.406729 6.6626 0
M  V30 6926 H 655.699 -0.422653 0.608642 0
M  V30 6927 H 658.346 -0.442114 1.86327 0
M  V30 6928 H 656.651 -2.94861 2.58001 0
M  V30 6929 H 658.348 -2.75084 2.9177 0
M  V30 6930 H 654.938 -1.72796 3.92224 0
M  V30 6931 H 659.122 -1.28055 4.79495 0
M  V30 6932 H 654.378 -0.68316 6.07571 0
M  V30 6933 H 658.552 -0.243488 6.95974 0
M  V30 6934 H 656.179 0.0610366 7.60175 0
M  V30 6935 N 657.755 -1.42862 -0.66545 0
M  V30 6936 C 659.002 -1.4383 -1.42546 0
M  V30 6937 C 659.33 -0.0581114 -1.94413 0
M  V30 6938 O 658.585 0.935002 -1.71919 0
M  V30 6939 C 658.884 -2.4175 -2.63233 0
M  V30 6940 C 658.55 -3.87915 -2.29854 0
M  V30 6941 C 657.212 -4.27726 -2.20463 0
M  V30 6942 C 659.564 -4.80074 -2.02924 0
M  V30 6943 C 656.892 -5.57666 -1.82279 0
M  V30 6944 C 659.244 -6.10366 -1.66242 0
M  V30 6945 C 657.908 -6.49167 -1.55367 0
M  V30 6946 H 657.178 -0.52631 -0.521612 0
M  V30 6947 H 659.825 -1.75863 -0.757914 0
M  V30 6948 H 658.13 -2.03077 -3.35063 0
M  V30 6949 H 659.827 -2.39759 -3.21429 0
M  V30 6950 H 656.417 -3.564 -2.3807 0
M  V30 6951 H 660.601 -4.50097 -2.09108 0
M  V30 6952 H 655.857 -5.8658 -1.72436 0
M  V30 6953 H 660.031 -6.81258 -1.44432 0
M  V30 6954 H 657.658 -7.49761 -1.2555 0
M  V30 6955 N 659.233 0.902656 -1.29189 0
M  V30 6956 C 660.463 1.68394 -1.19695 0
M  V30 6957 C 660.871 1.87602 0.245384 0
M  V30 6958 O 660.214 1.41084 1.17648 0
M  V30 6959 C 660.276 3.09094 -1.83578 0
M  V30 6960 C 659.94 3.1313 -3.32864 0
M  V30 6961 C 660.937 2.93497 -4.29134 0
M  V30 6962 C 658.622 3.3529 -3.74013 0
M  V30 6963 C 660.616 2.95953 -5.64527 0
M  V30 6964 C 658.303 3.37377 -5.09529 0
M  V30 6965 C 659.301 3.1773 -6.04596 0
M  V30 6966 O 658.989 3.196 -7.37639 0
M  V30 6967 H 658.721 0.532815 -0.416034 0
M  V30 6968 H 661.275 1.1374 -1.71033 0
M  V30 6969 H 659.505 3.65338 -1.26747 0
M  V30 6970 H 661.194 3.69297 -1.68447 0
M  V30 6971 H 661.96 2.76192 -3.98677 0
M  V30 6972 H 657.839 3.49623 -3.00474 0
M  V30 6973 H 661.383 2.80536 -6.38706 0
M  V30 6974 H 657.28 3.54213 -5.39633 0
M  V30 6975 H 658.048 3.35887 -7.46406 0
M  V30 6976 N 660.711 1.11618 1.11262 0
M  V30 6977 C 661.941 0.88745 1.86569 0
M  V30 6978 C 662.349 -0.56636 1.80524 0
M  V30 6979 O 661.692 -1.40289 1.18594 0
M  V30 6980 C 661.754 1.27313 3.36202 0
M  V30 6981 C 661.418 2.73649 3.66013 0
M  V30 6982 C 662.415 3.71863 3.63337 0
M  V30 6983 C 660.1 3.10342 3.9496 0
M  V30 6984 C 662.094 5.04788 3.89188 0
M  V30 6985 C 659.781 4.43451 4.20469 0
M  V30 6986 C 660.779 5.40484 4.17572 0
M  V30 6987 O 660.467 6.71195 4.42439 0
M  V30 6988 H 660.199 0.317543 0.596777 0
M  V30 6989 H 662.753 1.48768 1.41624 0
M  V30 6990 H 660.983 0.616062 3.81761 0
M  V30 6991 H 662.672 1.01991 3.92877 0
M  V30 6992 H 663.438 3.44861 3.41022 0
M  V30 6993 H 659.317 2.35431 3.9635 0
M  V30 6994 H 662.861 5.80516 3.86842 0
M  V30 6995 H 658.758 4.70187 4.42261 0
M  V30 6996 H 659.526 6.77012 4.59997 0
M  V30 6997 N 662.189 -1.289 0.906776 0
M  V30 6998 C 663.436 -1.95269 0.536326 0
M  V30 6999 C 663.764 -1.71435 -0.918711 0
M  V30 7000 O 663.019 -1.02431 -1.66752 0
M  V30 7001 C 663.318 -3.48704 0.783617 0
M  V30 7002 C 662.984 -3.92626 2.21711 0
M  V30 7003 C 661.646 -4.04329 2.60906 0
M  V30 7004 C 663.998 -4.15218 3.15029 0
M  V30 7005 C 661.326 -4.35998 3.92584 0
M  V30 7006 C 663.678 -4.48365 4.46264 0
M  V30 7007 C 662.342 -4.58278 4.85322 0
M  V30 7008 H 661.612 -0.714538 0.196256 0
M  V30 7009 H 664.259 -1.53366 1.14678 0
M  V30 7010 H 662.564 -3.91696 0.0903048 0
M  V30 7011 H 664.261 -3.98162 0.476267 0
M  V30 7012 H 660.851 -3.84038 1.90296 0
M  V30 7013 H 665.035 -4.05636 2.8596 0
M  V30 7014 H 660.291 -4.41878 4.22557 0
M  V30 7015 H 664.465 -4.64795 5.18593 0
M  V30 7016 H 662.092 -4.82573 5.87391 0
M  V30 7017 N 663.667 -0.670007 -1.42649 0
M  V30 7018 C 664.577 0.0114788 -2.34597 0
M  V30 7019 C 665.593 0.794055 -1.54825 0
M  V30 7020 O 666.769 0.737472 -1.87412 0
M  V30 7021 C 663.834 0.954436 -3.33304 0
M  V30 7022 C 662.895 0.166925 -4.28975 0
M  V30 7023 C 662.128 1.06497 -5.22967 0
M  V30 7024 O 662.351 2.30446 -5.21777 0
M  V30 7025 O 661.285 0.528347 -5.99577 0
M  V30 7026 H 665.111 -0.745794 -2.944 0
M  V30 7027 H 662.696 -0.430228 -1.43071 0
M  V30 7028 H 664.578 1.49589 -3.93956 0
M  V30 7029 H 663.253 1.69164 -2.7598 0
M  V30 7030 H 662.16 -0.418515 -3.71752 0
M  V30 7031 H 663.493 -0.531067 -4.89327 0
M  V30 7032 N 665.145 1.52092 -0.413018 0
M  V30 7033 C 666.095 2.23947 0.427993 0
M  V30 7034 C 667.079 1.25229 1.01027 0
M  V30 7035 O 668.271 1.50448 0.932444 0
M  V30 7036 C 665.4 3.0672 1.542 0
M  V30 7037 C 664.486 4.12851 0.970307 0
M  V30 7038 N 664.877 5.05644 0.125611 0
M  V30 7039 C 663.175 4.28404 1.24042 0
M  V30 7040 C 663.876 5.8138 -0.192876 0
M  V30 7041 N 662.852 5.41996 0.417273 0
M  V30 7042 H 666.654 2.93048 -0.223628 0
M  V30 7043 H 664.168 1.60852 -0.223664 0
M  V30 7044 H 666.165 3.56754 2.15714 0
M  V30 7045 H 664.825 2.39159 2.19621 0
M  V30 7046 H 665.836 5.17348 -0.238995 0
M  V30 7047 H 662.513 3.72071 1.89391 0
M  V30 7048 H 663.903 6.66129 -0.878762 0
M  V30 7049 N 666.623 0.143563 1.56945 0
M  V30 7050 C 668.039 -0.212877 1.58174 0
M  V30 7051 C 668.239 -1.64926 1.15766 0
M  V30 7052 O 667.295 -2.37535 0.856361 0
M  V30 7053 C 668.608 0.0427573 3.0067 0
M  V30 7054 C 670.156 -0.0212221 3.12993 0
M  V30 7055 C 670.631 0.207036 4.57532 0
M  V30 7056 N 672.122 0.153845 4.62944 0
M  V30 7057 C 672.857 0.305018 5.72588 0
M  V30 7058 N 672.353 0.513722 6.90893 0
M  V30 7059 N 674.146 0.242862 5.61575 0
M  V30 7060 H 666.297 1.08148 1.82805 0
M  V30 7061 H 668.56 0.427831 0.84597 0
M  V30 7062 H 668.266 1.03672 3.36073 0
M  V30 7063 H 668.14 -0.678195 3.71053 0
M  V30 7064 H 670.527 -1.00574 2.77433 0
M  V30 7065 H 670.608 0.732004 2.45103 0
M  V30 7066 H 670.252 1.18863 4.93795 0
M  V30 7067 H 670.182 -0.566473 5.23544 0
M  V30 7068 H 672.673 -0.00294866 3.779 0
M  V30 7069 H 672.986 0.619273 7.70315 0
M  V30 7070 H 671.331 0.550001 6.9282 0
M  V30 7071 H 674.522 0.0806015 4.68031 0
M  V30 7072 H 674.695 0.364112 6.46976 0
M  V30 7073 N 668.101 -1.57061 -0.130224 0
M  V30 7074 C 669.326 -1.88802 -0.858409 0
M  V30 7075 C 669.751 -0.734353 -1.73173 0
M  V30 7076 O 669.109 0.315529 -1.78533 0
M  V30 7077 C 669.157 -3.19228 -1.67708 0
M  V30 7078 O 668.261 -3.04343 -2.78297 0
M  V30 7079 H 667.602 -0.619849 -0.238083 0
M  V30 7080 H 670.132 -2.04271 -0.115995 0
M  V30 7081 H 670.142 -3.51669 -2.06864 0
M  V30 7082 H 668.817 -4.02793 -1.0359 0
M  V30 7083 H 667.394 -2.83346 -2.42425 0
M  V30 7084 N 669.579 0.400081 -1.52437 0
M  V30 7085 C 670.804 1.17221 -1.71096 0
M  V30 7086 C 671.229 1.83269 -0.423565 0
M  V30 7087 O 670.587 1.70378 0.619751 0
M  V30 7088 C 670.635 2.20425 -2.85386 0
M  V30 7089 O 669.739 3.26769 -2.51586 0
M  V30 7090 H 669.08 0.341766 -0.569291 0
M  V30 7091 H 671.61 0.467772 -1.99181 0
M  V30 7092 H 671.62 2.64605 -3.10561 0
M  V30 7093 H 670.295 1.71737 -3.78786 0
M  V30 7094 H 668.872 2.87804 -2.37114 0
M  V30 7095 N 671.057 1.43213 0.657864 0
M  V30 7096 C 672.004 1.48011 1.77092 0
M  V30 7097 C 672.974 0.330291 1.62783 0
M  V30 7098 O 674.159 0.536787 1.83094 0
M  V30 7099 C 671.299 1.40461 3.15222 0
M  V30 7100 C 670.412 2.65612 3.40697 0
M  V30 7101 C 669.547 2.50083 4.68649 0
M  V30 7102 C 668.586 3.70525 4.87214 0
M  V30 7103 N 667.723 3.53835 6.0642 0
M  V30 7104 H 672.563 2.43121 1.72326 0
M  V30 7105 H 670.1 1.20687 0.841013 0
M  V30 7106 H 672.058 1.34079 3.95068 0
M  V30 7107 H 670.688 0.489359 3.19069 0
M  V30 7108 H 669.74 2.82292 2.54982 0
M  V30 7109 H 671.052 3.5509 3.50303 0
M  V30 7110 H 670.206 2.41383 5.56614 0
M  V30 7111 H 668.945 1.58121 4.61356 0
M  V30 7112 H 667.95 3.79639 3.97686 0
M  V30 7113 H 669.175 4.63489 4.96341 0
M  V30 7114 H 667.121 2.64604 6.00267 0
M  V30 7115 H 667.038 4.36912 6.16963 0
M  V30 7116 H 668.306 3.48978 6.97019 0
M  V30 7117 N 672.536 -0.895792 1.29666 0
M  V30 7118 C 673.466 -2.01673 1.17688 0
M  V30 7119 C 674.447 -1.69955 0.0701317 0
M  V30 7120 O 675.632 -1.9258 0.250289 0
M  V30 7121 C 672.762 -3.36568 0.856681 0
M  V30 7122 C 671.716 -3.82509 1.92017 0
M  V30 7123 C 671.042 -5.14574 1.4532 0
M  V30 7124 C 672.342 -4.02409 3.32963 0
M  V30 7125 H 674.036 -2.11953 2.11463 0
M  V30 7126 H 671.582 -1.01839 1.01807 0
M  V30 7127 H 673.535 -4.14498 0.759577 0
M  V30 7128 H 672.259 -3.26391 -0.116763 0
M  V30 7129 H 670.918 -3.068 2.00673 0
M  V30 7130 H 670.566 -5.00815 0.468325 0
M  V30 7131 H 670.266 -5.46283 2.16447 0
M  V30 7132 H 671.79 -5.9504 1.36968 0
M  V30 7133 H 673.204 -4.70808 3.27127 0
M  V30 7134 H 671.601 -4.45478 4.02082 0
M  V30 7135 H 672.671 -3.06616 3.75652 0
M  V30 7136 N 674.014 -1.12206 -1.10668 0
M  V30 7137 C 675.425 -0.890657 -1.64086 0
M  V30 7138 C 675.776 0.575502 -1.8757 0
M  V30 7139 O 674.901 1.4394 -1.61587 0
M  V30 7140 C 675.496 -1.61029 -2.98085 0
M  V30 7141 C 674.055 -1.4251 -3.48379 0
M  V30 7142 C 673.202 -1.64778 -2.23033 0
M  V30 7143 H 676.153 -1.27718 -0.94201 0
M  V30 7144 H 676.174 -1.05993 -3.65439 0
M  V30 7145 H 675.686 -2.67735 -2.80962 0
M  V30 7146 H 673.787 -0.380497 -3.70652 0
M  V30 7147 H 673.9 -2.17959 -4.26651 0
M  V30 7148 H 672.264 -1.07171 -2.31055 0
M  V30 7149 H 673.047 -2.72776 -2.08443 0
M  V30 7150 N 675.492 1.28418 -0.913599 0
M  V30 7151 C 676.738 1.95627 -0.556933 0
M  V30 7152 C 677.093 1.706 0.889565 0
M  V30 7153 O 676.386 1.01637 1.6242 0
M  V30 7154 C 676.58 3.48283 -0.802099 0
M  V30 7155 C 676.409 3.88151 -2.27088 0
M  V30 7156 C 675.179 4.1232 -2.92096 0
M  V30 7157 C 677.377 3.98819 -3.24728 0
M  V30 7158 N 675.359 4.3886 -4.29272 0
M  V30 7159 C 676.73 4.29571 -4.47067 0
M  V30 7160 C 678.785 3.81342 -3.20129 0
M  V30 7161 C 677.488 4.44667 -5.65388 0
M  V30 7162 C 679.514 3.97656 -4.37749 0
M  V30 7163 C 678.876 4.2878 -5.58862 0
M  V30 7164 H 674.975 0.739715 -0.253664 0
M  V30 7165 H 677.559 1.55074 -1.1773 0
M  V30 7166 H 675.73 3.87826 -0.211007 0
M  V30 7167 H 677.462 4.02623 -0.409478 0
M  V30 7168 H 674.217 4.06611 -2.42826 0
M  V30 7169 H 674.641 4.56214 -5.00198 0
M  V30 7170 H 679.283 3.56331 -2.2757 0
M  V30 7171 H 677.001 4.68509 -6.58426 0
M  V30 7172 H 680.587 3.85569 -4.35692 0
M  V30 7173 H 679.467 4.41136 -6.48359 0
M  V30 7174 N 676.97 0.677563 1.42291 0
M  V30 7175 C 678.381 0.277912 1.8462 0
M  V30 7176 C 678.732 -1.18048 1.56714 0
M  V30 7177 O 677.857 -1.90404 1.02836 0
M  V30 7178 C 678.452 0.497619 3.35126 0
M  V30 7179 C 677.011 0.152063 3.76093 0
M  V30 7180 C 676.158 0.78872 2.65847 0
M  V30 7181 H 679.109 0.879527 1.32098 0
M  V30 7182 H 679.13 -0.24939 3.79682 0
M  V30 7183 H 678.642 1.55913 3.55405 0
M  V30 7184 H 676.743 -0.905896 3.6142 0
M  V30 7185 H 676.856 0.594514 4.75397 0
M  V30 7186 H 675.22 0.219813 2.5375 0
M  V30 7187 H 676.003 1.85374 2.88949 0
M  V30 7188 N 678.448 -1.51871 0.421078 0
M  V30 7189 C 679.358 -2.31077 -0.405069 0
M  V30 7190 C 680.374 -1.39301 -1.04265 0
M  V30 7191 O 681.55 -1.72376 -1.04157 0
M  V30 7192 C 678.615 -3.12556 -1.50032 0
M  V30 7193 C 677.676 -4.20088 -0.884559 0
M  V30 7194 C 676.909 -4.97673 -1.92762 0
M  V30 7195 O 677.132 -4.75696 -3.14753 0
M  V30 7196 O 676.066 -5.82203 -1.52719 0
M  V30 7197 H 679.892 -3.02742 0.241086 0
M  V30 7198 H 677.477 -1.48263 0.183991 0
M  V30 7199 H 679.359 -3.6326 -2.13589 0
M  V30 7200 H 678.034 -2.43672 -2.13086 0
M  V30 7201 H 676.941 -3.73502 -0.211379 0
M  V30 7202 H 678.274 -4.91298 -0.297763 0
M  V30 7203 N 679.926 -0.151884 -1.56866 0
M  V30 7204 C 681.172 0.492327 -1.97352 0
M  V30 7205 C 681.527 1.62156 -1.03553 0
M  V30 7206 O 680.82 1.91467 -0.0714872 0
M  V30 7207 C 681.014 1.04074 -3.41911 0
M  V30 7208 C 680.843 -0.0338306 -4.49687 0
M  V30 7209 C 679.613 -0.476914 -5.03044 0
M  V30 7210 C 681.811 -0.827105 -5.07606 0
M  V30 7211 N 679.793 -1.53382 -5.9443 0
M  V30 7212 C 681.164 -1.73439 -5.95247 0
M  V30 7213 C 683.219 -0.874351 -4.90163 0
M  V30 7214 C 681.922 -2.68488 -6.67313 0
M  V30 7215 C 683.948 -1.81269 -5.62935 0
M  V30 7216 C 683.31 -2.70749 -6.50288 0
M  V30 7217 H 679.409 0.148822 -0.767708 0
M  V30 7218 H 681.993 -0.247615 -1.93119 0
M  V30 7219 H 680.164 1.75027 -3.46728 0
M  V30 7220 H 681.896 1.65197 -3.69448 0
M  V30 7221 H 678.651 -0.0782493 -4.73535 0
M  V30 7222 H 679.075 -2.06217 -6.44828 0
M  V30 7223 H 683.717 -0.196628 -4.22343 0
M  V30 7224 H 681.435 -3.37257 -7.34359 0
M  V30 7225 H 685.021 -1.85511 -5.51432 0
M  V30 7226 H 683.901 -3.42175 -7.0561 0
M  V30 7227 N 681.404 1.57128 0.121893 0
M  V30 7228 C 682.337 1.95327 1.17995 0
M  V30 7229 C 683.315 0.822524 1.40262 0
M  V30 7230 O 684.499 1.08044 1.54463 0
M  V30 7231 C 681.626 2.24699 2.53432 0
M  V30 7232 C 680.672 3.47263 2.4761 0
M  V30 7233 S 681.505 4.99951 1.91857 0
M  V30 7234 C 682.661 5.32473 3.28973 0
M  V30 7235 H 682.894 2.84765 0.854182 0
M  V30 7236 H 680.427 1.50864 0.328534 0
M  V30 7237 H 682.385 2.423 3.31362 0
M  V30 7238 H 681.046 1.3588 2.83188 0
M  V30 7239 H 680.239 3.65171 3.4737 0
M  V30 7240 H 679.841 3.29034 1.778 0
M  V30 7241 H 682.133 5.27478 4.25175 0
M  V30 7242 H 683.076 6.33732 3.15895 0
M  V30 7243 H 683.484 4.59952 3.27268 0
M  V30 7244 N 682.882 -0.391992 1.52647 0
M  V30 7245 C 684.13 -1.13507 1.67214 0
M  V30 7246 C 684.451 -1.90575 0.41304 0
M  V30 7247 O 683.721 -1.87348 -0.572498 0
M  V30 7248 H 682.301 -0.422013 0.616372 0
M  V30 7249 H 684.963 -0.44502 1.89751 0
M  V30 7250 H 684.059 -1.83964 2.52118 0
M  V30 7251 N 684.36 -1.4356 -0.65026 0
M  V30 7252 C 685.606 -1.45549 -1.41221 0
M  V30 7253 C 685.939 -0.0805472 -1.94033 0
M  V30 7254 O 685.214 0.899043 -1.72475 0
M  V30 7255 C 685.497 -2.50028 -2.59148 0
M  V30 7256 C 685.35 -3.96808 -2.1181 0
M  V30 7257 C 686.669 -2.51212 -3.61359 0
M  V30 7258 H 683.788 -0.529967 -0.512156 0
M  V30 7259 H 686.43 -1.75127 -0.736933 0
M  V30 7260 H 684.58 -2.24937 -3.16758 0
M  V30 7261 H 686.252 -4.32966 -1.59178 0
M  V30 7262 H 684.495 -4.09498 -1.43156 0
M  V30 7263 H 685.166 -4.6553 -2.96625 0
M  V30 7264 H 687.642 -2.73583 -3.13515 0
M  V30 7265 H 686.518 -3.26252 -4.41419 0
M  V30 7266 H 686.779 -1.54701 -4.1415 0
M  V30 7267 N 685.838 0.888903 -1.30139 0
M  V30 7268 C 686.771 1.99655 -1.10514 0
M  V30 7269 C 687.749 1.62594 -0.0138934 0
M  V30 7270 O 688.933 1.87762 -0.166689 0
M  V30 7271 C 686.06 3.31708 -0.684655 0
M  V30 7272 C 685.106 3.87755 -1.77619 0
M  V30 7273 S 685.939 4.15532 -3.37777 0
M  V30 7274 C 687.095 5.5061 -2.97622 0
M  V30 7275 H 687.328 2.15996 -2.04287 0
M  V30 7276 H 684.861 1.03682 -1.14409 0
M  V30 7277 H 686.819 4.08039 -0.448782 0
M  V30 7278 H 685.48 3.1323 0.233648 0
M  V30 7279 H 684.673 4.83164 -1.43417 0
M  V30 7280 H 684.275 3.18149 -1.96614 0
M  V30 7281 H 686.567 6.31518 -2.45338 0
M  V30 7282 H 687.51 5.89747 -3.91924 0
M  V30 7283 H 687.918 5.12983 -2.35603 0
M  V30 7284 N 687.317 1.12792 1.10072 0
M  V30 7285 C 688.267 0.768086 2.14673 0
M  V30 7286 C 689.251 -0.234716 1.59179 0
M  V30 7287 O 690.443 -0.039643 1.76956 0
M  V30 7288 C 687.572 0.228472 3.42539 0
M  V30 7289 C 686.658 1.25979 4.04957 0
M  V30 7290 N 687.049 2.4586 4.42025 0
M  V30 7291 C 685.347 1.10602 4.32069 0
M  V30 7292 C 686.048 3.11747 4.9111 0
M  V30 7293 N 685.024 2.39185 4.88151 0
M  V30 7294 H 688.826 1.68029 2.4113 0
M  V30 7295 H 686.34 1.00925 1.27232 0
M  V30 7296 H 688.337 -0.0475216 4.16873 0
M  V30 7297 H 686.997 -0.678136 3.1754 0
M  V30 7298 H 688.008 2.83215 4.33601 0
M  V30 7299 H 684.685 0.257021 4.16708 0
M  V30 7300 H 686.075 4.13862 5.29309 0
M  V30 7301 N 688.795 -1.27931 0.920396 0
M  V30 7302 C 690.043 -1.94304 0.555906 0
M  V30 7303 C 690.364 -1.72753 -0.904519 0
M  V30 7304 O 689.634 -1.07104 -1.64029 0
M  V30 7305 H 688.214 -0.719001 0.202599 0
M  V30 7306 H 690.876 -1.55785 1.1712 0
M  V30 7307 H 689.972 -3.02806 0.755981 0
M  V30 7308 N 690.273 -0.685099 -1.4193 0
M  V30 7309 C 691.503 -0.220052 -2.05425 0
M  V30 7310 C 691.911 1.13185 -1.51611 0
M  V30 7311 O 691.254 1.71631 -0.654875 0
M  V30 7312 C 691.316 -0.0888364 -3.5939 0
M  V30 7313 C 690.98 -1.37109 -4.35947 0
M  V30 7314 C 691.977 -2.30675 -4.65924 0
M  V30 7315 C 689.662 -1.62155 -4.75406 0
M  V30 7316 C 691.656 -3.47556 -5.34306 0
M  V30 7317 C 689.343 -2.79324 -5.43527 0
M  V30 7318 C 690.341 -3.71848 -5.72903 0
M  V30 7319 O 690.029 -4.86966 -6.39624 0
M  V30 7320 H 689.761 -0.102165 -0.668235 0
M  V30 7321 H 692.315 -0.935194 -1.82875 0
M  V30 7322 H 690.545 0.681981 -3.80639 0
M  V30 7323 H 692.234 0.337669 -4.04493 0
M  V30 7324 H 693 -2.12579 -4.3593 0
M  V30 7325 H 688.879 -0.910053 -4.51928 0
M  V30 7326 H 692.423 -4.19794 -5.57153 0
M  V30 7327 H 688.32 -2.97342 -5.72938 0
M  V30 7328 H 689.088 -4.86644 -6.58118 0
M  V30 7329 N 691.751 1.51645 -0.429126 0
M  V30 7330 C 692.661 2.31288 0.392809 0
M  V30 7331 C 693.677 1.39852 1.03525 0
M  V30 7332 O 694.853 1.72926 1.03241 0
M  V30 7333 C 691.918 3.13347 1.48372 0
M  V30 7334 C 690.979 4.20551 0.862268 0
M  V30 7335 C 690.212 4.98688 1.9012 0
M  V30 7336 O 690.435 4.77359 3.12225 0
M  V30 7337 O 689.369 5.83005 1.4963 0
M  V30 7338 H 693.195 3.02609 -0.257138 0
M  V30 7339 H 690.78 1.48163 -0.191851 0
M  V30 7340 H 692.662 3.64387 2.1166 0
M  V30 7341 H 691.337 2.44799 2.1179 0
M  V30 7342 H 690.244 3.73609 0.191568 0
M  V30 7343 H 691.577 4.91449 0.271704 0
M  V30 7344 N 693.229 0.160201 1.56784 0
M  V30 7345 C 694.478 -0.487619 1.95717 0
M  V30 7346 C 694.791 -1.65136 1.0483 0
M  V30 7347 O 695.997 -2.36468 1.33398 0
M  V30 7348 C 694.453 -0.91888 3.47972 0
M  V30 7349 C 694.061 0.218655 4.47466 0
M  V30 7350 C 695.805 -1.53575 3.95746 0
M  V30 7351 C 693.712 -0.231614 5.90946 0
M  V30 7352 H 692.642 -0.185939 0.730714 0
M  V30 7353 H 695.293 0.246657 1.81835 0
M  V30 7354 H 693.675 -1.70881 3.57234 0
M  V30 7355 H 694.849 0.995825 4.49911 0
M  V30 7356 H 693.164 0.744767 4.09685 0
M  V30 7357 H 695.761 -1.88448 5.00391 0
M  V30 7358 H 696.104 -2.42959 3.38048 0
M  V30 7359 H 696.637 -0.810467 3.89456 0
M  V30 7360 H 693.376 0.62718 6.52493 0
M  V30 7361 H 692.896 -0.974379 5.91833 0
M  V30 7362 H 694.575 -0.67922 6.43425 0
M  V30 7363 N 694.707 -1.5719 -0.113559 0
M  V30 7364 C 695.617 -2.04041 -1.15777 0
M  V30 7365 C 696.633 -0.961812 -1.45001 0
M  V30 7366 O 697.809 -1.2737 -1.56009 0
M  V30 7367 C 694.874 -2.43994 -2.46308 0
M  V30 7368 C 693.935 -3.65962 -2.24433 0
M  V30 7369 C 693.168 -4.04 -3.4874 0
M  V30 7370 O 693.391 -3.42321 -4.56259 0
M  V30 7371 O 692.325 -4.97069 -3.3942 0
M  V30 7372 H 696.151 -2.93248 -0.789899 0
M  V30 7373 H 693.736 -1.45828 -0.324748 0
M  V30 7374 H 695.618 -2.70401 -3.23204 0
M  V30 7375 H 694.293 -1.57932 -2.82558 0
M  V30 7376 H 693.2 -3.44697 -1.45377 0
M  V30 7377 H 694.533 -4.52746 -1.93084 0
M  V30 7378 N 696.185 0.383891 -1.52853 0
M  V30 7379 C 697.432 1.12842 -1.68146 0
M  V30 7380 C 697.76 1.89823 -0.423954 0
M  V30 7381 O 697.015 1.86475 0.593765 0
M  V30 7382 C 697.314 2.12881 -2.87082 0
M  V30 7383 C 696.98 1.52519 -4.24322 0
M  V30 7384 C 695.642 1.35783 -4.61645 0
M  V30 7385 C 697.994 1.0868 -5.09743 0
M  V30 7386 C 695.322 0.737643 -5.82044 0
M  V30 7387 C 697.674 0.480699 -6.30771 0
M  V30 7388 C 696.338 0.300681 -6.66822 0
M  V30 7389 H 695.608 0.412917 -0.615289 0
M  V30 7390 H 698.255 0.412416 -1.87006 0
M  V30 7391 H 696.56 2.90719 -2.62659 0
M  V30 7392 H 698.257 2.70408 -2.96109 0
M  V30 7393 H 694.847 1.66534 -3.94923 0
M  V30 7394 H 699.031 1.2041 -4.81472 0
M  V30 7395 H 694.287 0.586415 -6.08581 0
M  V30 7396 H 698.461 0.132733 -6.96273 0
M  V30 7397 H 696.088 -0.181966 -7.59982 0
M  V30 7398 N 697.663 1.43903 0.642637 0
M  V30 7399 C 698.909 1.46296 1.40447 0
M  V30 7400 C 699.242 0.0908361 1.93987 0
M  V30 7401 O 698.517 -0.889884 1.72949 0
M  V30 7402 C 698.8 2.51399 2.57819 0
M  V30 7403 C 698.653 3.97926 2.09702 0
M  V30 7404 C 699.972 2.53125 3.60022 0
M  V30 7405 H 697.091 0.532676 0.509338 0
M  V30 7406 H 699.733 1.75515 0.727635 0
M  V30 7407 H 697.883 2.26614 3.1556 0
M  V30 7408 H 699.555 4.33804 1.5688 0
M  V30 7409 H 697.798 4.10252 1.40982 0
M  V30 7410 H 698.469 4.67096 2.94152 0
M  V30 7411 H 700.945 2.75242 3.12059 0
M  V30 7412 H 699.821 3.28589 4.39682 0
M  V30 7413 H 700.082 1.56895 4.13324 0
M  V30 7414 N 699.141 -0.881989 1.30609 0
M  V30 7415 C 700.388 -1.63405 1.19604 0
M  V30 7416 C 700.716 -1.92905 -0.248574 0
M  V30 7417 O 699.971 -1.55062 -1.19391 0
M  V30 7418 C 700.27 -2.97999 1.97311 0
M  V30 7419 C 699.936 -2.88039 3.46907 0
M  V30 7420 C 698.598 -2.85029 3.877 0
M  V30 7421 C 700.95 -2.75948 4.42156 0
M  V30 7422 C 698.278 -2.67772 5.2203 0
M  V30 7423 C 700.63 -2.60228 5.76597 0
M  V30 7424 C 699.294 -2.55595 6.16626 0
M  V30 7425 H 698.564 -0.597941 0.437662 0
M  V30 7426 H 701.211 -1.02524 1.61744 0
M  V30 7427 H 699.516 -3.62847 1.47815 0
M  V30 7428 H 701.213 -3.55156 1.86186 0
M  V30 7429 H 697.803 -2.91192 3.14492 0
M  V30 7430 H 701.987 -2.77337 4.1158 0
M  V30 7431 H 697.243 -2.62601 5.52133 0
M  V30 7432 H 701.417 -2.49847 6.50038 0
M  V30 7433 H 699.044 -2.41981 7.20659 0
M  V30 7434 N 700.619 -1.13374 -1.09472 0
M  V30 7435 C 701.867 -0.893422 -1.8128 0
M  V30 7436 C 702.188 0.582029 -1.86111 0
M  V30 7437 O 701.458 1.42305 -1.34633 0
M  V30 7438 H 700.038 -0.327543 -0.67136 0
M  V30 7439 H 702.7 -1.43018 -1.32408 0
M  V30 7440 H 701.796 -1.28374 -2.84476 0
M  V30 7441 N 702.098 1.27442 -0.927168 0
M  V30 7442 C 703.028 2.29256 -0.443188 0
M  V30 7443 C 704.009 1.62701 0.49624 0
M  V30 7444 O 705.194 1.90013 0.401105 0
M  V30 7445 C 702.324 3.45955 0.305366 0
M  V30 7446 C 701.278 4.24501 -0.546178 0
M  V30 7447 C 700.604 5.33671 0.331512 0
M  V30 7448 C 701.904 4.89921 -1.81037 0
M  V30 7449 H 703.598 2.69988 -1.29409 0
M  V30 7450 H 701.144 1.29792 -0.623705 0
M  V30 7451 H 703.097 4.1628 0.654885 0
M  V30 7452 H 701.821 3.04138 1.19029 0
M  V30 7453 H 700.48 3.55921 -0.878398 0
M  V30 7454 H 700.128 4.88096 1.21537 0
M  V30 7455 H 699.828 5.87131 -0.234746 0
M  V30 7456 H 701.352 6.0684 0.676614 0
M  V30 7457 H 702.766 5.52536 -1.52895 0
M  V30 7458 H 701.163 5.53436 -2.32009 0
M  V30 7459 H 702.233 4.13652 -2.53021 0
M  V30 7460 N 703.576 0.692616 1.41565 0
M  V30 7461 C 704.987 0.297478 1.84315 0
M  V30 7462 C 705.338 -1.16379 1.57957 0
M  V30 7463 O 704.463 -1.89303 1.0485 0
M  V30 7464 C 705.058 0.533136 3.34579 0
M  V30 7465 C 703.617 0.191944 3.7591 0
M  V30 7466 C 702.764 0.816873 2.64995 0
M  V30 7467 H 705.715 0.893488 1.31158 0
M  V30 7468 H 705.736 -0.209105 3.79925 0
M  V30 7469 H 705.248 1.59674 3.53731 0
M  V30 7470 H 703.349 -0.867512 3.6236 0
M  V30 7471 H 703.462 0.644902 4.7474 0
M  V30 7472 H 701.826 0.246715 2.53502 0
M  V30 7473 H 702.609 1.88429 2.86966 0
M  V30 7474 N 705.054 -1.51416 0.437162 0
M  V30 7475 C 705.984 -2.30631 -0.364922 0
M  V30 7476 C 706.965 -1.36037 -1.02118 0
M  V30 7477 O 708.15 -1.64956 -1.02485 0
M  V30 7478 C 705.28 -3.1482 -1.46648 0
M  V30 7479 C 704.234 -4.17691 -0.933717 0
M  V30 7480 C 703.56 -4.904 -2.13101 0
M  V30 7481 C 704.86 -5.2229 0.0317201 0
M  V30 7482 H 706.554 -2.97932 0.29614 0
M  V30 7483 H 704.1 -1.4328 0.143865 0
M  V30 7484 H 706.053 -3.69017 -2.03481 0
M  V30 7485 H 704.777 -2.4534 -2.15583 0
M  V30 7486 H 703.436 -3.64545 -0.387602 0
M  V30 7487 H 703.084 -4.17423 -2.80654 0
M  V30 7488 H 702.784 -5.59962 -1.78092 0
M  V30 7489 H 704.308 -5.4742 -2.70487 0
M  V30 7490 H 705.722 -5.7156 -0.446302 0
M  V30 7491 H 704.119 -5.99378 0.29437 0
M  V30 7492 H 705.189 -4.75131 0.968447 0
M  V30 7493 N 706.532 -0.168513 -1.56696 0
M  V30 7494 C 707.442 0.775435 -2.21414 0
M  V30 7495 C 708.458 1.25529 -1.20492 0
M  V30 7496 O 709.634 1.30801 -1.53144 0
M  V30 7497 C 706.699 1.9886 -2.83999 0
M  V30 7498 C 705.76 1.5559 -4.00113 0
M  V30 7499 C 704.993 2.71124 -4.59704 0
M  V30 7500 O 705.216 3.87917 -4.18182 0
M  V30 7501 O 704.15 2.4536 -5.4962 0
M  V30 7502 H 707.976 0.254416 -3.02632 0
M  V30 7503 H 705.561 0.0595507 -1.49281 0
M  V30 7504 H 707.443 2.69816 -3.23693 0
M  V30 7505 H 706.118 2.49874 -2.05779 0
M  V30 7506 H 705.025 0.815924 -3.65094 0
M  V30 7507 H 706.358 1.09271 -4.79917 0
M  V30 7508 N 708.01 1.57248 0.105221 0
M  V30 7509 C 709.426 1.52853 0.459153 0
M  V30 7510 C 709.626 0.883674 1.8109 0
M  V30 7511 O 708.682 0.471864 2.48052 0
M  V30 7512 C 709.995 2.97596 0.43096 0
M  V30 7513 C 711.543 3.08758 0.513536 0
M  V30 7514 C 712.018 4.55089 0.515593 0
M  V30 7515 N 713.509 4.59597 0.576639 0
M  V30 7516 C 714.244 5.70253 0.599904 0
M  V30 7517 N 713.74 6.90368 0.579985 0
M  V30 7518 N 715.533 5.58399 0.643953 0
M  V30 7519 H 707.684 1.97547 -0.780306 0
M  V30 7520 H 709.947 0.902758 -0.289363 0
M  V30 7521 H 709.653 3.48201 -0.494903 0
M  V30 7522 H 709.527 3.55756 1.2537 0
M  V30 7523 H 711.914 2.58148 1.42982 0
M  V30 7524 H 711.995 2.53568 -0.337148 0
M  V30 7525 H 711.639 5.06348 -0.396701 0
M  V30 7526 H 711.569 5.08105 1.38335 0
M  V30 7527 H 714.06 3.73144 0.597639 0
M  V30 7528 H 714.373 7.70462 0.600741 0
M  V30 7529 H 712.718 6.92843 0.547191 0
M  V30 7530 H 715.909 4.63467 0.656975 0
M  V30 7531 H 716.082 6.44644 0.658616 0
M  V30 7532 N 709.488 -0.375779 1.53054 0
M  V30 7533 C 710.904 -0.716764 1.426 0
M  V30 7534 C 711.104 -1.93651 0.556931 0
M  V30 7535 O 710.16 -2.52475 0.0354461 0
M  V30 7536 C 711.473 -0.939499 2.85646 0
M  V30 7537 C 713.021 -1.04015 2.95212 0
M  V30 7538 C 713.496 -1.29543 4.39298 0
M  V30 7539 N 714.987 -1.36335 4.42682 0
M  V30 7540 C 715.722 -1.57778 5.51266 0
M  V30 7541 N 715.218 -1.76604 6.69913 0
M  V30 7542 N 717.011 -1.60065 5.38828 0
M  V30 7543 H 709.162 0.42664 2.08071 0
M  V30 7544 H 711.425 0.128758 0.939215 0
M  V30 7545 H 711.131 -0.115189 3.51511 0
M  V30 7546 H 711.005 -1.85048 3.2869 0
M  V30 7547 H 713.392 -1.85501 2.29507 0
M  V30 7548 H 713.473 -0.106785 2.55577 0
M  V30 7549 H 713.117 -0.485611 5.05573 0
M  V30 7550 H 713.047 -2.24184 4.76497 0
M  V30 7551 H 715.538 -1.23441 3.5717 0
M  V30 7552 H 715.851 -1.9251 7.48438 0
M  V30 7553 H 714.196 -1.73802 6.72917 0
M  V30 7554 H 717.387 -1.44917 4.45103 0
M  V30 7555 H 717.56 -1.76435 6.23518 0
M  V30 7556 N 710.966 -1.44241 -0.634997 0
M  V30 7557 C 712.243 -1.37296 -1.39317 0
M  V30 7558 C 712.623 -0.0297532 -2.11079 0
M  V30 7559 O 711.971 0.987524 -2.06059 0
M  V30 7560 C 712.181 -2.56853 -2.36279 0
M  V30 7561 C 713.529 -3.00747 -2.99728 0
M  V30 7562 O 714.553 -2.5703 -2.46605 0
M  V30 7563 O 713.412 -3.76533 -3.96087 0
M  V30 7564 H 710.506 -0.543503 -0.623325 0
M  V30 7565 H 713.052 -1.56324 -0.660376 0
M  V30 7566 H 711.824 -3.46228 -1.82324 0
M  V30 7567 H 711.447 -2.40019 -3.16981 0
M  V30 7568 N 712.444 0.87505 -1.31075 0
M  V30 7569 C 713.392 2.00317 -1.18219 0
M  V30 7570 C 714.386 1.69152 -0.0916872 0
M  V30 7571 O 715.592 1.7821 -0.253229 0
M  V30 7572 H 711.967 0.656981 -0.365895 0
M  V30 7573 H 713.938 2.08293 -2.13674 0
M  V30 7574 C 712.687 3.35821 -0.901095 0
M  V30 7575 H 712.01 3.6032 -1.73233 0
M  V30 7576 H 713.45 4.15366 -0.851295 0
M  V30 7577 C 711.909 3.34563 0.396114 0
M  V30 7578 O 712.439 3.75971 1.41452 0
M  V30 7579 N 710.645 2.87681 0.410832 0
M  V30 7580 H 710.192 2.54179 -0.418415 0
M  V30 7581 H 710.15 2.87223 1.27869 0
M  V30 7582 N 713.922 1.13953 1.08869 0
M  V30 7583 C 715.152 0.926825 1.84644 0
M  V30 7584 C 715.56 -0.527941 1.81685 0
M  V30 7585 O 714.903 -1.37742 1.21543 0
M  V30 7586 C 714.965 1.34416 3.33426 0
M  V30 7587 C 714.629 2.81351 3.60126 0
M  V30 7588 C 715.626 3.79486 3.55368 0
M  V30 7589 C 713.311 3.1865 3.88288 0
M  V30 7590 C 715.305 5.1293 3.78393 0
M  V30 7591 C 712.992 4.5227 4.10968 0
M  V30 7592 C 713.99 5.4922 4.06013 0
M  V30 7593 O 713.678 6.80429 4.28102 0
M  V30 7594 H 713.41 0.33013 0.589907 0
M  V30 7595 H 715.964 1.51738 1.38436 0
M  V30 7596 H 714.194 0.696901 3.80368 0
M  V30 7597 H 715.883 1.10302 3.90626 0
M  V30 7598 H 716.649 3.52017 3.3363 0
M  V30 7599 H 712.528 2.43785 3.91267 0
M  V30 7600 H 716.072 5.88591 3.74442 0
M  V30 7601 H 711.969 4.79462 4.32188 0
M  V30 7602 H 712.737 6.86617 4.45533 0
M  V30 7603 N 715.4 -1.26948 0.933913 0
M  V30 7604 C 716.628 -1.98186 0.59414 0
M  V30 7605 C 717.043 -1.69614 -0.829257 0
M  V30 7606 O 716.4 -0.960213 -1.55197 0
M  V30 7607 C 716.451 -3.52123 0.818026 0
M  V30 7608 O 716.172 -3.79698 2.18543 0
M  V30 7609 C 717.673 -4.40608 0.48781 0
M  V30 7610 H 714.893 -0.632305 0.224569 0
M  V30 7611 H 717.437 -1.61646 1.25263 0
M  V30 7612 H 715.592 -3.86851 0.206246 0
M  V30 7613 H 716.006 -4.7426 2.24005 0
M  V30 7614 H 717.48 -5.47606 0.695126 0
M  V30 7615 H 717.957 -4.35394 -0.576913 0
M  V30 7616 H 718.563 -4.11411 1.078 0
M  V30 7617 N 716.879 -0.700114 -1.41195 0
M  V30 7618 C 717.826 -0.0376652 -2.30769 0
M  V30 7619 C 718.796 0.766544 -1.47354 0
M  V30 7620 O 719.981 0.73365 -1.76131 0
M  V30 7621 C 717.121 0.889452 -3.33441 0
M  V30 7622 C 716.234 0.076373 -4.31932 0
M  V30 7623 C 715.369 1.00155 -5.21673 0
M  V30 7624 C 714.408 0.181644 -6.1183 0
M  V30 7625 N 713.545 1.06087 -6.94039 0
M  V30 7626 H 718.385 -0.80726 -2.86858 0
M  V30 7627 H 715.922 -0.409798 -1.41277 0
M  V30 7628 H 717.88 1.44107 -3.91522 0
M  V30 7629 H 716.51 1.6254 -2.78892 0
M  V30 7630 H 715.562 -0.592223 -3.75762 0
M  V30 7631 H 716.874 -0.559076 -4.95657 0
M  V30 7632 H 716.028 1.62223 -5.8461 0
M  V30 7633 H 714.767 1.67085 -4.58186 0
M  V30 7634 H 713.772 -0.452085 -5.47938 0
M  V30 7635 H 714.997 -0.483925 -6.77374 0
M  V30 7636 H 712.943 1.7161 -6.33156 0
M  V30 7637 H 712.86 0.481094 -7.54468 0
M  V30 7638 H 714.128 1.66822 -7.6144 0
M  V30 7639 N 718.357 1.51182 -0.445186 0
M  V30 7640 C 719.32 2.26501 0.350722 0
M  V30 7641 C 720.32 1.3025 0.942952 0
M  V30 7642 O 721.51 1.53897 0.816175 0
M  V30 7643 C 718.642 3.06274 1.49697 0
M  V30 7644 H 719.835 2.98299 -0.309474 0
M  V30 7645 H 717.388 1.55034 -0.198551 0
M  V30 7646 H 718.123 2.38911 2.19299 0
M  V30 7647 H 717.908 3.76979 1.0784 0
M  V30 7648 H 719.398 3.63306 2.05909 0
M  V30 7649 N 719.835 0.176821 1.56605 0
M  V30 7650 C 720.745 -0.763682 2.21822 0
M  V30 7651 C 721.761 -1.24889 1.21156 0
M  V30 7652 O 722.937 -1.29987 1.53836 0
M  V30 7653 C 720.002 -1.97352 2.8505 0
M  V30 7654 C 719.063 -1.53466 4.00932 0
M  V30 7655 C 718.296 -2.68682 4.61135 0
M  V30 7656 O 718.519 -3.85694 4.20234 0
M  V30 7657 O 717.453 -2.42442 5.50913 0
M  V30 7658 H 721.279 -0.238363 3.02763 0
M  V30 7659 H 718.864 -0.0516331 1.49311 0
M  V30 7660 H 720.746 -2.68096 3.25119 0
M  V30 7661 H 719.421 -2.48779 2.07101 0
M  V30 7662 H 718.328 -0.796551 3.65521 0
M  V30 7663 H 719.661 -1.06724 4.8049 0
M  V30 7664 N 721.313 -1.57302 -0.09688 0
M  V30 7665 C 722.223 -2.05258 -1.13606 0
M  V30 7666 C 723.239 -0.977137 -1.43972 0
M  V30 7667 O 724.415 -1.29018 -1.54649 0
M  V30 7668 C 721.48 -2.46593 -2.43706 0
M  V30 7669 C 720.541 -3.68322 -2.20538 0
M  V30 7670 C 719.774 -4.07676 -3.44435 0
M  V30 7671 O 719.997 -3.47141 -4.52603 0
M  V30 7672 O 718.931 -5.00641 -3.34129 0
M  V30 7673 H 722.757 -2.94069 -0.758752 0
M  V30 7674 H 720.342 -1.46164 -0.309263 0
M  V30 7675 H 722.224 -2.73814 -3.20318 0
M  V30 7676 H 720.899 -1.6092 -2.80867 0
M  V30 7677 H 719.806 -3.4622 -1.41713 0
M  V30 7678 H 721.139 -4.54769 -1.88271 0
M  V30 7679 N 722.791 0.367657 -1.53252 0
M  V30 7680 C 724.04 1.10782 -1.68554 0
M  V30 7681 C 724.353 1.90523 -0.442765 0
M  V30 7682 O 725.559 2.6729 -0.47629 0
M  V30 7683 C 724.015 2.01863 -2.97959 0
M  V30 7684 C 723.623 1.27443 -4.29491 0
M  V30 7685 C 725.367 2.75883 -3.22628 0
M  V30 7686 C 723.274 2.17414 -5.49987 0
M  V30 7687 H 722.204 0.417272 -0.628013 0
M  V30 7688 H 724.855 0.368971 -1.79752 0
M  V30 7689 H 723.237 2.7947 -2.80558 0
M  V30 7690 H 724.411 0.549138 -4.57516 0
M  V30 7691 H 722.726 0.652935 -4.11249 0
M  V30 7692 H 725.323 3.43421 -4.09837 0
M  V30 7693 H 725.666 3.41138 -2.38601 0
M  V30 7694 H 726.199 2.0536 -3.40693 0
M  V30 7695 H 722.938 1.5674 -6.36485 0
M  V30 7696 H 722.458 2.87799 -5.26243 0
M  V30 7697 H 724.137 2.77019 -5.84696 0
M  V30 7698 N 724.269 1.44576 0.627338 0
M  V30 7699 C 725.199 1.54562 1.75022 0
M  V30 7700 C 726.18 0.398378 1.65369 0
M  V30 7701 O 727.365 0.61899 1.84071 0
M  V30 7702 C 724.495 1.49309 3.13567 0
M  V30 7703 C 723.449 2.62549 3.38012 0
M  V30 7704 C 722.775 2.42348 4.76625 0
M  V30 7705 C 724.075 4.04678 3.30202 0
M  V30 7706 H 725.769 2.4855 1.66922 0
M  V30 7707 H 723.315 1.19624 0.801636 0
M  V30 7708 H 725.268 1.54895 3.919 0
M  V30 7709 H 723.992 0.518392 3.2246 0
M  V30 7710 H 722.651 2.56358 2.62061 0
M  V30 7711 H 722.299 1.43062 4.82226 0
M  V30 7712 H 721.999 3.18273 4.93939 0
M  V30 7713 H 723.523 2.49758 5.57183 0
M  V30 7714 H 724.937 4.12217 3.98435 0
M  V30 7715 H 723.334 4.80836 3.5905 0
M  V30 7716 H 724.404 4.2798 2.27949 0
M  V30 7717 N 725.747 -0.868086 1.31537 0
M  V30 7718 C 726.972 -1.65926 1.24432 0
M  V30 7719 C 727.397 -1.87169 -0.186936 0
M  V30 7720 O 726.755 -1.4148 -1.13371 0
M  V30 7721 C 726.803 -3.00347 1.9956 0
M  V30 7722 O 725.907 -3.90221 1.33422 0
M  V30 7723 H 725.248 -0.506375 0.429512 0
M  V30 7724 H 727.778 -1.0822 1.73637 0
M  V30 7725 H 727.788 -3.50269 2.09226 0
M  V30 7726 H 726.463 -2.84205 3.03645 0
M  V30 7727 H 725.04 -3.48672 1.32219 0
M  V30 7728 N 727.225 -1.14528 -1.08264 0
M  V30 7729 C 728.641 -0.885976 -1.3275 0
M  V30 7730 C 728.841 0.472096 -1.95892 0
M  V30 7731 O 727.897 1.21606 -2.21288 0
M  V30 7732 C 729.21 -2.01982 -2.22764 0
M  V30 7733 C 730.758 -2.05329 -2.36239 0
M  V30 7734 C 731.233 -3.1801 -3.29596 0
M  V30 7735 N 732.724 -3.17598 -3.37173 0
M  V30 7736 C 733.459 -4.01426 -4.09444 0
M  V30 7737 N 732.955 -4.95297 -4.8441 0
M  V30 7738 N 734.748 -3.89482 -4.0529 0
M  V30 7739 H 726.899 -2.01996 -0.656607 0
M  V30 7740 H 729.162 -0.880274 -0.351884 0
M  V30 7741 H 728.868 -2.99964 -1.83615 0
M  V30 7742 H 728.742 -1.94421 -3.23234 0
M  V30 7743 H 731.129 -1.07953 -2.74646 0
M  V30 7744 H 731.21 -2.1696 -1.35506 0
M  V30 7745 H 730.854 -4.15633 -2.9191 0
M  V30 7746 H 730.784 -3.03616 -4.30261 0
M  V30 7747 H 733.275 -2.4961 -2.83731 0
M  V30 7748 H 733.588 -5.55723 -5.37021 0
M  V30 7749 H 731.933 -4.99293 -4.83457 0
M  V30 7750 H 735.124 -3.15465 -3.45832 0
M  V30 7751 H 735.297 -4.55039 -4.6135 0
M  V30 7752 N 728.703 1.26451 -0.940633 0
M  V30 7753 C 729.928 1.98407 -0.60412 0
M  V30 7754 C 730.353 1.69584 0.81382 0
M  V30 7755 O 729.711 0.943553 1.54812 0
M  V30 7756 C 729.759 3.50387 -0.852136 0
M  V30 7757 O 728.863 4.1233 0.076013 0
M  V30 7758 H 728.204 0.622466 -0.231153 0
M  V30 7759 H 730.734 1.60932 -1.26342 0
M  V30 7760 H 730.744 4.00614 -0.772816 0
M  V30 7761 H 729.419 3.70696 -1.88566 0
M  V30 7762 H 727.996 3.7286 -0.0543187 0
M  V30 7763 N 730.181 0.707592 1.40822 0
M  V30 7764 C 731.43 0.240705 2.00259 0
M  V30 7765 C 731.743 -1.17027 1.56729 0
M  V30 7766 O 732.949 -1.73526 2.08809 0
M  V30 7767 C 731.405 0.379432 3.57894 0
M  V30 7768 C 731.013 1.79654 4.104 0
M  V30 7769 C 732.757 -0.0270684 4.24491 0
M  V30 7770 C 730.664 1.88628 5.60512 0
M  V30 7771 H 729.594 0.0862369 0.749052 0
M  V30 7772 H 732.245 0.877528 1.61157 0
M  V30 7773 H 730.627 -0.325842 3.94657 0
M  V30 7774 H 731.801 2.53155 3.85032 0
M  V30 7775 H 730.116 2.15379 3.56372 0
M  V30 7776 H 732.713 0.0193743 5.34696 0
M  V30 7777 H 733.056 -1.06772 4.02375 0
M  V30 7778 H 733.589 0.628361 3.92806 0
M  V30 7779 H 730.328 2.90787 5.87472 0
M  V30 7780 H 729.848 1.19528 5.8777 0
M  V30 7781 H 731.527 1.6547 6.25483 0
M  V30 7782 N 731.66 -1.50943 0.453197 0
M  V30 7783 C 732.906 -2.02512 -0.108082 0
M  V30 7784 C 733.239 -1.33574 -1.40967 0
M  V30 7785 O 732.514 -0.455671 -1.89087 0
M  V30 7786 C 732.797 -3.58759 -0.310453 0
M  V30 7787 C 732.65 -4.38293 1.0109 0
M  V30 7788 C 733.969 -4.26816 -1.07313 0
M  V30 7789 H 731.088 -0.73603 -0.0378064 0
M  V30 7790 H 733.73 -1.80433 0.595295 0
M  V30 7791 H 731.88 -3.77702 -0.909582 0
M  V30 7792 H 733.552 -4.30964 1.64523 0
M  V30 7793 H 731.795 -4.02745 1.61179 0
M  V30 7794 H 732.466 -5.45828 0.82315 0
M  V30 7795 H 734.942 -4.1224 -0.565473 0
M  V30 7796 H 733.818 -5.35989 -1.1835 0
M  V30 7797 H 734.079 -3.88757 -2.10525 0
M  V30 7798 N 733.138 -0.185124 -1.56509 0
M  V30 7799 C 734.085 0.739729 -2.18624 0
M  V30 7800 C 735.055 1.217 -1.13042 0
M  V30 7801 O 736.24 1.28268 -1.41251 0
M  V30 7802 C 733.38 1.95787 -2.84186 0
M  V30 7803 C 732.493 1.52289 -4.04267 0
M  V30 7804 C 731.628 2.69576 -4.57714 0
M  V30 7805 C 730.667 2.22636 -5.70175 0
M  V30 7806 N 729.804 3.33065 -6.18071 0
M  V30 7807 H 734.644 0.203269 -2.97306 0
M  V30 7808 H 732.181 0.0885946 -1.46833 0
M  V30 7809 H 734.139 2.67253 -3.20361 0
M  V30 7810 H 732.769 2.4678 -2.08085 0
M  V30 7811 H 731.821 0.704458 -3.7382 0
M  V30 7812 H 733.133 1.13843 -4.85635 0
M  V30 7813 H 732.287 3.4918 -4.96143 0
M  V30 7814 H 731.026 3.1129 -3.75433 0
M  V30 7815 H 730.031 1.41483 -5.31284 0
M  V30 7816 H 731.256 1.81964 -6.54267 0
M  V30 7817 H 729.202 3.74328 -5.38715 0
M  V30 7818 H 729.119 2.98756 -6.94464 0
M  V30 7819 H 730.387 4.12912 -6.61153 0
M  V30 7820 N 734.616 1.57351 0.0885366 0
M  V30 7821 C 736.032 1.53331 0.442916 0
M  V30 7822 C 736.232 0.902831 1.80142 0
M  V30 7823 O 735.288 0.498147 2.47537 0
M  V30 7824 C 736.601 2.98036 0.399372 0
M  V30 7825 C 738.149 3.09286 0.480759 0
M  V30 7826 C 738.624 4.5561 0.467296 0
M  V30 7827 N 740.115 4.60182 0.52786 0
M  V30 7828 C 740.85 5.70857 0.539388 0
M  V30 7829 N 740.346 6.90944 0.506729 0
M  V30 7830 N 742.139 5.59051 0.584691 0
M  V30 7831 H 734.29 1.96709 -0.801215 0
M  V30 7832 H 736.553 0.899639 -0.298922 0
M  V30 7833 H 736.259 3.47656 -0.531806 0
M  V30 7834 H 736.133 3.57066 1.21589 0
M  V30 7835 H 738.52 2.5965 1.40236 0
M  V30 7836 H 738.601 2.53197 -0.364023 0
M  V30 7837 H 738.245 5.05899 -0.450384 0
M  V30 7838 H 738.175 5.09544 1.32938 0
M  V30 7839 H 740.666 3.73757 0.558028 0
M  V30 7840 H 740.979 7.71055 0.518989 0
M  V30 7841 H 739.324 6.93384 0.473675 0
M  V30 7842 H 742.515 4.64138 0.607781 0
M  V30 7843 H 742.688 6.45307 0.590206 0
M  V30 7844 N 736.094 -0.359525 1.53444 0
M  V30 7845 C 737.34 -1.09958 1.71116 0
M  V30 7846 C 737.695 -1.8681 0.460414 0
M  V30 7847 O 736.988 -1.83635 -0.5467 0
M  V30 7848 C 737.182 -2.08287 2.90433 0
M  V30 7849 C 737.011 -1.41098 4.26991 0
M  V30 7850 C 735.781 -1.16255 4.91745 0
M  V30 7851 C 737.979 -0.845517 5.07302 0
M  V30 7852 N 735.961 -0.454798 6.12213 0
M  V30 7853 C 737.332 -0.267455 6.19423 0
M  V30 7854 C 739.387 -0.744797 4.92298 0
M  V30 7855 C 738.09 0.401511 7.18179 0
M  V30 7856 C 740.116 -0.0896013 5.91332 0
M  V30 7857 C 739.478 0.47756 7.02779 0
M  V30 7858 H 735.577 -0.387305 0.679352 0
M  V30 7859 H 738.161 -0.38519 1.90852 0
M  V30 7860 H 736.332 -2.77034 2.72226 0
M  V30 7861 H 738.064 -2.75015 2.96899 0
M  V30 7862 H 734.819 -1.44544 4.51003 0
M  V30 7863 H 735.243 -0.116108 6.769 0
M  V30 7864 H 739.885 -1.16905 4.06317 0
M  V30 7865 H 737.603 0.837694 8.03746 0
M  V30 7866 H 741.189 -0.0125162 5.81799 0
M  V30 7867 H 740.069 0.976522 7.78096 0
M  V30 7868 N 737.572 -1.44907 -0.619662 0
M  V30 7869 C 738.535 -1.52282 -1.71297 0
M  V30 7870 C 739.535 -0.40359 -1.55653 0
M  V30 7871 O 740.725 -0.666638 -1.6094 0
M  V30 7872 C 737.857 -1.40778 -3.10474 0
M  V30 7873 H 739.05 -2.49683 -1.66128 0
M  V30 7874 H 736.603 -1.32168 -0.834339 0
M  V30 7875 H 737.338 -0.445156 -3.2123 0
M  V30 7876 H 737.123 -2.21947 -3.23237 0
M  V30 7877 H 738.613 -1.48946 -3.90135 0
M  V30 7878 N 739.05 0.861098 -1.31996 0
M  V30 7879 C 739.998 1.99052 -1.20337 0
M  V30 7880 C 740.992 1.69045 -0.109623 0
M  V30 7881 O 742.198 1.77931 -0.272117 0
M  V30 7882 H 738.573 0.653064 -0.372843 0
M  V30 7883 H 740.544 2.06015 -2.15872 0
M  V30 7884 C 739.293 3.34846 -0.936663 0
M  V30 7885 H 738.616 3.58462 -1.77045 0
M  V30 7886 H 740.056 4.1444 -0.895302 0
M  V30 7887 C 738.515 3.34965 0.360607 0
M  V30 7888 O 739.045 3.7745 1.37456 0
M  V30 7889 N 737.251 2.88101 0.380296 0
M  V30 7890 H 736.798 2.53721 -0.445351 0
M  V30 7891 H 736.756 2.88563 1.24816 0
M  V30 7892 N 740.528 1.15101 1.07655 0
M  V30 7893 C 741.775 0.923974 1.80191 0
M  V30 7894 C 742.103 -0.549065 1.86589 0
M  V30 7895 O 741.358 -1.42307 1.3434 0
M  V30 7896 C 741.657 1.47954 3.25337 0
M  V30 7897 C 741.323 2.97253 3.39044 0
M  V30 7898 C 739.985 3.38012 3.42493 0
M  V30 7899 C 742.337 3.93219 3.42094 0
M  V30 7900 C 739.665 4.73384 3.4659 0
M  V30 7901 C 742.017 5.28458 3.47728 0
M  V30 7902 C 740.681 5.68717 3.49453 0
M  V30 7903 H 739.951 0.338106 0.659367 0
M  V30 7904 H 742.598 1.43594 1.26701 0
M  V30 7905 H 740.903 0.888691 3.81588 0
M  V30 7906 H 742.6 1.27972 3.80032 0
M  V30 7907 H 739.19 2.64746 3.37057 0
M  V30 7908 H 743.374 3.62805 3.38654 0
M  V30 7909 H 738.63 5.03925 3.46222 0
M  V30 7910 H 742.804 6.02618 3.49034 0
M  V30 7911 H 740.431 6.73596 3.5238 0
M  V30 7912 N 742.006 -1.2595 0.947325 0
M  V30 7913 C 742.969 -2.24407 0.466285 0
M  V30 7914 C 743.969 -1.55054 -0.426005 0
M  V30 7915 O 745.159 -1.7275 -0.224319 0
M  V30 7916 C 742.291 -3.39326 -0.327201 0
M  V30 7917 H 743.484 -2.68477 1.33642 0
M  V30 7918 H 741.037 -1.38211 0.729887 0
M  V30 7919 H 741.772 -3.00667 -1.21532 0
M  V30 7920 H 741.557 -3.9085 0.312839 0
M  V30 7921 H 743.047 -4.12455 -0.653477 0
M  V30 7922 N 743.484 -0.715051 -1.40445 0
M  V30 7923 C 744.431 -0.0621393 -2.30716 0
M  V30 7924 C 745.401 0.750871 -1.48159 0
M  V30 7925 O 746.586 0.714928 -1.76899 0
M  V30 7926 C 743.726 0.854036 -3.34365 0
M  V30 7927 C 742.839 0.0305565 -4.31989 0
M  V30 7928 C 741.974 0.946162 -5.22706 0
M  V30 7929 C 741.013 0.116741 -6.11989 0
M  V30 7930 N 740.15 0.987194 -6.95125 0
M  V30 7931 H 744.99 -0.83764 -2.85985 0
M  V30 7932 H 742.527 -0.424759 -1.40834 0
M  V30 7933 H 744.485 1.39946 -3.93028 0
M  V30 7934 H 743.115 1.59572 -2.806 0
M  V30 7935 H 742.167 -0.632044 -3.75112 0
M  V30 7936 H 743.479 -0.611615 -4.95036 0
M  V30 7937 H 742.633 1.56014 -5.86297 0
M  V30 7938 H 741.372 1.62216 -4.59932 0
M  V30 7939 H 740.377 -0.510176 -5.47428 0
M  V30 7940 H 741.602 -0.555742 -6.76822 0
M  V30 7941 H 739.548 1.64885 -6.3494 0
M  V30 7942 H 739.465 0.401046 -7.54936 0
M  V30 7943 H 740.733 1.58737 -7.63166 0
M  V30 7944 N 744.962 1.50701 -0.461195 0
M  V30 7945 C 746.192 2.06381 0.0950376 0
M  V30 7946 C 746.6 1.32627 1.34933 0
M  V30 7947 O 745.943 0.386137 1.79596 0
M  V30 7948 C 746.005 3.56558 0.458965 0
M  V30 7949 C 745.669 4.51732 -0.691891 0
M  V30 7950 C 746.666 4.95594 -1.57105 0
M  V30 7951 C 744.351 4.94542 -0.879407 0
M  V30 7952 C 746.345 5.80963 -2.62223 0
M  V30 7953 C 744.032 5.79695 -1.93382 0
M  V30 7954 C 745.03 6.22806 -2.80359 0
M  V30 7955 O 744.718 7.06265 -3.83986 0
M  V30 7956 H 744.45 0.676 0.000687488 0
M  V30 7957 H 747.004 1.94974 -0.646087 0
M  V30 7958 H 745.234 3.65832 1.25314 0
M  V30 7959 H 746.923 3.94647 0.949124 0
M  V30 7960 H 747.689 4.63197 -1.43783 0
M  V30 7961 H 743.568 4.60513 -0.211907 0
M  V30 7962 H 747.112 6.14533 -3.30143 0
M  V30 7963 H 743.009 6.11506 -2.06715 0
M  V30 7964 H 743.777 7.24494 -3.80855 0
M  V30 7965 N 746.441 0.193421 1.56409 0
M  V30 7966 C 747.689 -0.444908 1.97142 0
M  V30 7967 C 748.01 -1.62268 1.08139 0
M  V30 7968 O 747.28 -1.95307 0.152326 0
M  V30 7969 H 745.86 -0.16736 0.728011 0
M  V30 7970 H 748.522 0.279763 1.92882 0
M  V30 7971 H 747.618 -0.790159 3.01932 0
M  V30 7972 N 747.919 -1.57396 -0.0801906 0
M  V30 7973 C 748.867 -2.04136 -1.11495 0
M  V30 7974 C 749.861 -0.945137 -1.40583 0
M  V30 7975 O 751.067 -1.13028 -1.40088 0
M  V30 7976 H 747.442 -0.65076 -0.37685 0
M  V30 7977 H 749.413 -2.90205 -0.694526 0
M  V30 7978 C 748.162 -2.49399 -2.42272 0
M  V30 7979 H 747.485 -3.33339 -2.20737 0
M  V30 7980 H 748.925 -2.85864 -3.13142 0
M  V30 7981 C 747.384 -1.37341 -3.07635 0
M  V30 7982 O 747.914 -0.710829 -3.95361 0
M  V30 7983 N 746.12 -1.12064 -2.68123 0
M  V30 7984 H 745.667 -1.66126 -1.96875 0
M  V30 7985 H 745.625 -0.372916 -3.12181 0
M  V30 7986 N 749.397 0.351382 -1.53633 0
M  V30 7987 C 750.808 0.927429 -1.62036 0
M  V30 7988 C 751.159 1.89809 -0.496706 0
M  V30 7989 O 750.284 2.1313 0.374749 0
M  V30 7990 C 750.879 1.68886 -2.93706 0
M  V30 7991 C 749.438 2.21404 -3.04397 0
M  V30 7992 C 748.585 1.03075 -2.57431 0
M  V30 7993 H 751.536 0.129748 -1.58169 0
M  V30 7994 H 751.557 2.55116 -2.82305 0
M  V30 7995 H 751.069 0.982149 -3.75467 0
M  V30 7996 H 749.17 2.95274 -2.27253 0
M  V30 7997 H 749.283 2.48312 -4.09729 0
M  V30 7998 H 747.647 1.40188 -2.12649 0
M  V30 7999 H 748.43 0.338793 -3.41624 0
M  V30 8000 N 750.875 1.45233 0.611969 0
M  V30 8001 C 751.823 1.53898 1.74408 0
M  V30 8002 C 752.817 0.409254 1.64382 0
M  V30 8003 O 754.023 0.584988 1.70229 0
M  V30 8004 H 750.398 0.483303 0.576127 0
M  V30 8005 H 752.369 2.49143 1.64227 0
M  V30 8006 C 751.118 1.51865 3.12782 0
M  V30 8007 H 750.441 2.38118 3.21154 0
M  V30 8008 H 751.881 1.61986 3.91838 0
M  V30 8009 C 750.34 0.242374 3.36027 0
M  V30 8010 O 750.87 -0.679587 3.9591 0
M  V30 8011 N 749.076 0.139448 2.90265 0
M  V30 8012 H 748.623 0.890571 2.41716 0
M  V30 8013 H 748.581 -0.713686 3.06193 0
M  V30 8014 N 752.353 -0.854086 1.3245 0
M  V30 8015 C 753.263 -1.99503 1.23434 0
M  V30 8016 C 754.279 -1.73371 0.147828 0
M  V30 8017 O 755.455 -1.97998 0.368609 0
M  V30 8018 C 752.52 -3.33192 0.958328 0
M  V30 8019 C 751.581 -3.72542 2.13333 0
M  V30 8020 C 750.814 -4.99852 1.8704 0
M  V30 8021 O 751.037 -5.64573 0.813239 0
M  V30 8022 O 749.971 -5.36345 2.73161 0
M  V30 8023 H 753.797 -2.10046 2.1935 0
M  V30 8024 H 751.382 -0.984823 1.12346 0
M  V30 8025 H 753.264 -4.13327 0.820918 0
M  V30 8026 H 751.939 -3.23687 0.0293299 0
M  V30 8027 H 750.846 -2.92981 2.32622 0
M  V30 8028 H 752.179 -3.86694 3.04514 0
M  V30 8029 N 753.831 -1.1567 -1.07043 0
M  V30 8030 C 755.059 -0.957471 -1.83412 0
M  V30 8031 C 755.474 0.494271 -1.82215 0
M  V30 8032 O 754.831 1.34288 -1.23584 0
M  V30 8033 C 754.882 -1.46784 -3.30359 0
M  V30 8034 O 754.603 -2.86271 -3.31633 0
M  V30 8035 C 756.104 -1.31054 -4.23485 0
M  V30 8036 H 753.324 -0.33986 -0.578564 0
M  V30 8037 H 755.868 -1.53518 -1.35102 0
M  V30 8038 H 754.023 -0.932586 -3.76007 0
M  V30 8039 H 754.437 -3.0948 -4.23465 0
M  V30 8040 H 755.911 -1.71605 -5.24648 0
M  V30 8041 H 756.388 -0.255107 -4.38458 0
M  V30 8042 H 756.994 -1.83503 -3.83676 0
M  V30 8043 N 755.309 1.25446 -0.953992 0
M  V30 8044 C 756.241 2.25111 -0.431004 0
M  V30 8045 C 757.254 1.56377 0.452764 0
M  V30 8046 O 758.443 1.76579 0.261144 0
M  V30 8047 C 755.543 3.3655 0.39839 0
M  V30 8048 C 754.716 4.34843 -0.472229 0
M  V30 8049 C 753.775 5.25351 0.29886 0
M  V30 8050 O 752.801 5.68396 -0.302522 0
M  V30 8051 N 754.003 5.5824 1.59211 0
M  V30 8052 H 756.768 2.70619 -1.28785 0
M  V30 8053 H 754.329 1.39346 -0.824281 0
M  V30 8054 H 756.321 3.94059 0.921941 0
M  V30 8055 H 754.891 2.90436 1.15609 0
M  V30 8056 H 754.111 3.76222 -1.17689 0
M  V30 8057 H 755.399 4.97497 -1.06648 0
M  V30 8058 H 754.797 5.25172 2.10264 0
M  V30 8059 H 753.354 6.18336 2.06164 0
M  V30 8060 N 756.787 0.722489 1.40064 0
M  V30 8061 C 757.735 0.063329 2.32514 0
M  V30 8062 C 758.729 -0.73953 1.52405 0
M  V30 8063 O 759.935 -0.642122 1.68157 0
M  V30 8064 H 756.31 0.00167692 0.751998 0
M  V30 8065 H 758.281 0.859656 2.85749 0
M  V30 8066 C 757.03 -0.839219 3.3742 0
M  V30 8067 H 756.353 -0.230836 3.99133 0
M  V30 8068 H 757.793 -1.26827 4.04587 0
M  V30 8069 C 756.252 -1.96783 2.73456 0
M  V30 8070 O 756.782 -3.05933 2.60323 0
M  V30 8071 N 754.988 -1.75351 2.31734 0
M  V30 8072 H 754.535 -0.865787 2.42615 0
M  V30 8073 H 754.493 -2.51043 1.89275 0
M  V30 8074 N 758.265 -1.50454 0.469181 0
M  V30 8075 C 759.213 -2.30101 -0.340033 0
M  V30 8076 C 760.207 -1.37306 -0.992135 0
M  V30 8077 O 761.413 -1.54506 -0.923458 0
M  V30 8078 H 757.788 -0.740941 -0.128495 0
M  V30 8079 H 759.759 -2.96315 0.352144 0
M  V30 8080 C 758.508 -3.17804 -1.41052 0
M  V30 8081 H 757.831 -3.89115 -0.918124 0
M  V30 8082 H 759.271 -3.76533 -1.94934 0
M  V30 8083 C 757.73 -2.35272 -2.4114 0
M  V30 8084 O 758.26 -2.03448 -3.4637 0
M  V30 8085 N 756.466 -1.97889 -2.1281 0
M  V30 8086 H 756.013 -2.2397 -1.27261 0
M  V30 8087 H 755.971 -1.42971 -2.80012 0
M  V30 8088 N 759.743 -0.201713 -1.56304 0
M  V30 8089 C 760.968 0.443815 -2.02596 0
M  V30 8090 C 761.393 1.53945 -1.08086 0
M  V30 8091 O 760.751 1.81182 -0.0655056 0
M  V30 8092 C 760.799 0.971066 -3.47279 0
M  V30 8093 O 759.903 2.0836 -3.55893 0
M  V30 8094 H 759.244 0.10294 -0.655972 0
M  V30 8095 H 761.774 -0.314533 -2.02168 0
M  V30 8096 H 761.784 1.28598 -3.87204 0
M  V30 8097 H 760.459 0.169048 -4.15556 0
M  V30 8098 H 759.036 1.77683 -3.27846 0
M  V30 8099 N 761.222 1.57436 0.0718424 0
M  V30 8100 C 762.45 1.91474 0.783932 0
M  V30 8101 C 762.865 0.797669 1.71122 0
M  V30 8102 O 762.222 -0.228989 1.81058 0
M  V30 8103 C 762.273 3.25259 1.57761 0
M  V30 8104 O 761.994 4.3267 0.687596 0
M  V30 8105 C 763.495 3.7331 2.3907 0
M  V30 8106 H 760.715 0.632901 0.222885 0
M  V30 8107 H 763.259 2.04457 0.0421262 0
M  V30 8108 H 761.414 3.13804 2.27169 0
M  V30 8109 H 761.828 5.09641 1.23962 0
M  V30 8110 H 763.302 4.69551 2.90216 0
M  V30 8111 H 763.779 3.02318 3.18591 0
M  V30 8112 H 764.385 3.8771 1.74818 0
M  V30 8113 N 762.7 -0.34323 1.53817 0
M  V30 8114 C 763.925 -1.1079 1.75329 0
M  V30 8115 C 764.35 -1.81571 0.491293 0
M  V30 8116 O 763.708 -1.72561 -0.556089 0
M  V30 8117 C 763.756 -2.09681 2.9337 0
M  V30 8118 O 762.86 -3.17207 2.63541 0
M  V30 8119 H 762.201 -0.320402 0.581583 0
M  V30 8120 H 764.731 -0.393525 2.0078 0
M  V30 8121 H 764.741 -2.52897 3.20168 0
M  V30 8122 H 763.416 -1.5756 3.84899 0
M  V30 8123 H 761.993 -2.78806 2.47632 0
M  V30 8124 N 764.178 -1.45556 -0.604258 0
M  V30 8125 C 765.424 -1.50958 -1.3632 0
M  V30 8126 C 765.779 -0.15051 -1.9181 0
M  V30 8127 O 765.072 0.838035 -1.72301 0
M  V30 8128 C 765.266 -2.52697 -2.52743 0
M  V30 8129 C 765.095 -3.98364 -2.08654 0
M  V30 8130 C 763.865 -4.66295 -1.94671 0
M  V30 8131 C 766.063 -4.86801 -1.6592 0
M  V30 8132 N 764.045 -5.96669 -1.44428 0
M  V30 8133 C 765.416 -6.06829 -1.27115 0
M  V30 8134 C 767.471 -4.73634 -1.53542 0
M  V30 8135 C 766.174 -7.15149 -0.771676 0
M  V30 8136 C 768.2 -5.82005 -1.04998 0
M  V30 8137 C 767.562 -7.01191 -0.671599 0
M  V30 8138 H 763.661 -0.607329 -0.492621 0
M  V30 8139 H 766.245 -1.82048 -0.69041 0
M  V30 8140 H 764.416 -2.23554 -3.17614 0
M  V30 8141 H 766.148 -2.48227 -3.19633 0
M  V30 8142 H 762.903 -4.21496 -2.15959 0
M  V30 8143 H 763.327 -6.66003 -1.21528 0
M  V30 8144 H 767.969 -3.81898 -1.81421 0
M  V30 8145 H 765.687 -8.06671 -0.480442 0
M  V30 8146 H 769.273 -5.73851 -0.958423 0
M  V30 8147 H 768.153 -7.83619 -0.301752 0
M  V30 8148 N 765.656 0.84705 -1.32902 0
M  V30 8149 C 767.067 1.41785 -1.21466 0
M  V30 8150 C 767.418 1.95464 0.169767 0
M  V30 8151 O 766.543 1.88157 1.06892 0
M  V30 8152 C 767.138 2.57734 -2.19906 0
M  V30 8153 C 765.697 3.10791 -2.12334 0
M  V30 8154 C 764.844 1.83562 -2.07847 0
M  V30 8155 H 767.795 0.653532 -1.44619 0
M  V30 8156 H 767.816 3.35123 -1.80202 0
M  V30 8157 H 767.328 2.18635 -3.20656 0
M  V30 8158 H 765.429 3.54455 -1.14858 0
M  V30 8159 H 765.542 3.71519 -3.02506 0
M  V30 8160 H 763.906 2.03475 -1.53199 0
M  V30 8161 H 764.689 1.4667 -3.10392 0
M  V30 8162 N 767.134 1.16236 1.06428 0
M  V30 8163 C 768.38 0.944431 1.79467 0
M  V30 8164 C 768.713 -0.526558 1.86925 0
M  V30 8165 O 767.988 -1.39061 1.35986 0
M  V30 8166 C 768.271 1.57092 3.24028 0
M  V30 8167 C 768.124 3.11315 3.24658 0
M  V30 8168 C 769.443 1.26447 4.21544 0
M  V30 8169 H 766.562 0.344521 0.651517 0
M  V30 8170 H 769.204 1.43545 1.24478 0
M  V30 8171 H 767.354 1.15337 3.70985 0
M  V30 8172 H 769.026 3.62042 2.85873 0
M  V30 8173 H 767.269 3.44716 2.6335 0
M  V30 8174 H 767.94 3.50269 4.26633 0
M  V30 8175 H 770.416 1.62581 3.83023 0
M  V30 8176 H 769.292 1.72885 5.20963 0
M  V30 8177 H 769.553 0.183068 4.41721 0
M  V30 8178 N 768.612 -1.24939 0.960631 0
M  V30 8179 C 769.859 -1.92818 0.618663 0
M  V30 8180 C 770.187 -1.75177 -0.845173 0
M  V30 8181 O 769.442 -1.09412 -1.62258 0
M  V30 8182 C 769.741 -3.45066 0.930809 0
M  V30 8183 C 769.407 -3.82869 2.38164 0
M  V30 8184 C 768.069 -3.92899 2.7782 0
M  V30 8185 C 770.421 -4.01483 3.32356 0
M  V30 8186 C 767.749 -4.18955 4.10723 0
M  V30 8187 C 770.101 -4.29033 4.6488 0
M  V30 8188 C 768.765 -4.37282 5.04322 0
M  V30 8189 H 768.035 -0.705571 0.226385 0
M  V30 8190 H 770.682 -1.48365 1.21079 0
M  V30 8191 H 768.987 -3.9096 0.256355 0
M  V30 8192 H 770.684 -3.95783 0.644712 0
M  V30 8193 H 767.274 -3.75622 2.06413 0
M  V30 8194 H 771.458 -3.93143 3.02907 0
M  V30 8195 H 766.714 -4.23558 4.40918 0
M  V30 8196 H 770.888 -4.42381 5.3784 0
M  V30 8197 H 768.515 -4.57225 6.0733 0
M  V30 8198 N 770.09 -0.729906 -1.39679 0
M  V30 8199 C 771.037 -0.0866063 -2.30637 0
M  V30 8200 C 772.007 0.735115 -1.48947 0
M  V30 8201 O 773.192 0.696125 -1.77648 0
M  V30 8202 C 770.332 0.818524 -3.35252 0
M  V30 8203 C 769.445 -0.0152635 -4.31997 0
M  V30 8204 C 768.58 0.890669 -5.2368 0
M  V30 8205 C 767.619 0.0518246 -6.12078 0
M  V30 8206 N 766.756 0.913411 -6.96133 0
M  V30 8207 H 771.596 -0.867925 -2.85081 0
M  V30 8208 H 769.133 -0.439673 -1.40376 0
M  V30 8209 H 771.091 1.3577 -3.9449 0
M  V30 8210 H 769.721 1.56587 -2.82277 0
M  V30 8211 H 768.773 -0.671794 -3.74421 0
M  V30 8212 H 770.085 -0.664086 -4.9436 0
M  V30 8213 H 769.239 1.49787 -5.87919 0
M  V30 8214 H 767.978 1.57328 -4.61627 0
M  V30 8215 H 766.983 -0.568209 -5.46856 0
M  V30 8216 H 768.208 -0.627497 -6.76195 0
M  V30 8217 H 766.154 1.58141 -6.36653 0
M  V30 8218 H 766.071 0.320952 -7.55318 0
M  V30 8219 H 767.339 1.50633 -7.64807 0
M  V30 8220 N 771.568 1.50203 -0.477153 0
M  V30 8221 C 772.793 2.07263 0.0754986 0
M  V30 8222 C 773.218 1.33801 1.32208 0
M  V30 8223 O 772.576 0.387482 1.77111 0
M  V30 8224 C 772.624 3.59028 0.336348 0
M  V30 8225 O 771.728 3.87339 1.4157 0
M  V30 8226 H 771.069 0.663815 -0.015662 0
M  V30 8227 H 773.599 1.93321 -0.669936 0
M  V30 8228 H 773.609 4.03927 0.575034 0
M  V30 8229 H 772.284 4.11912 -0.574551 0
M  V30 8230 H 770.861 3.54272 1.16385 0
M  V30 8231 N 773.046 0.209999 1.56195 0
M  V30 8232 C 774.274 -0.429996 2.02382 0
M  V30 8233 C 774.689 -1.54159 1.08998 0
M  V30 8234 O 774.046 -1.82239 0.0974856 0
M  V30 8235 C 774.097 -0.972433 3.48175 0
M  V30 8236 O 773.818 0.0948231 4.37997 0
M  V30 8237 C 775.319 -1.68683 4.09952 0
M  V30 8238 H 772.539 -0.106475 0.662498 0
M  V30 8239 H 775.083 0.323072 2.01932 0
M  V30 8240 H 773.238 -1.67582 3.49278 0
M  V30 8241 H 773.652 -0.31113 5.23576 0
M  V30 8242 H 775.126 -2.01851 5.13771 0
M  V30 8243 H 775.603 -2.59587 3.54276 0
M  V30 8244 H 776.209 -1.02893 4.12666 0
M  V30 8245 N 774.524 -1.57472 -0.0634922 0
M  V30 8246 C 775.434 -2.07621 -1.09227 0
M  V30 8247 C 776.45 -1.00746 -1.41867 0
M  V30 8248 O 777.626 -1.32269 -1.51878 0
M  V30 8249 C 774.691 -2.51707 -2.38421 0
M  V30 8250 C 773.752 -3.72917 -2.12676 0
M  V30 8251 C 772.985 -4.14891 -3.3571 0
M  V30 8252 O 773.208 -3.56663 -4.45137 0
M  V30 8253 O 772.142 -5.07616 -3.23434 0
M  V30 8254 H 775.968 -2.95612 -0.696205 0
M  V30 8255 H 773.553 -1.46787 -0.27819 0
M  V30 8256 H 775.435 -2.80547 -3.14438 0
M  V30 8257 H 774.11 -1.66842 -2.77391 0
M  V30 8258 H 773.017 -3.49148 -1.34337 0
M  V30 8259 H 774.35 -4.5866 -1.78583 0
M  V30 8260 N 776.003 0.335068 -1.53997 0
M  V30 8261 C 776.935 1.4327 -1.78903 0
M  V30 8262 C 777.948 1.48347 -0.670598 0
M  V30 8263 O 779.137 1.51277 -0.947494 0
M  V30 8264 C 776.237 2.81878 -1.88144 0
M  V30 8265 C 775.41 3.00141 -3.18174 0
M  V30 8266 C 774.469 4.19041 -3.18263 0
M  V30 8267 O 773.495 4.12751 -3.9195 0
M  V30 8268 N 774.697 5.28004 -2.41231 0
M  V30 8269 H 777.462 1.22272 -2.73623 0
M  V30 8270 H 775.023 0.524996 -1.53152 0
M  V30 8271 H 777.015 3.59609 -1.85644 0
M  V30 8272 H 775.585 2.9598 -1.00572 0
M  V30 8273 H 774.805 2.09808 -3.33728 0
M  V30 8274 H 776.093 3.0923 -4.04047 0
M  V30 8275 H 775.491 5.35986 -1.8093 0
M  V30 8276 H 774.048 6.04196 -2.44521 0
M  V30 8277 N 777.481 1.45874 0.596531 0
M  V30 8278 C 778.428 1.55389 1.70655 0
M  V30 8279 C 779.398 0.399036 1.61236 0
M  V30 8280 O 780.583 0.61396 1.80652 0
M  V30 8281 C 777.723 1.53705 3.0898 0
M  V30 8282 C 776.836 2.79823 3.29125 0
M  V30 8283 C 775.971 2.69735 4.5762 0
M  V30 8284 C 775.01 3.90856 4.71061 0
M  V30 8285 N 774.147 3.79237 5.90867 0
M  V30 8286 H 778.987 2.50211 1.61859 0
M  V30 8287 H 776.524 1.24146 0.789069 0
M  V30 8288 H 778.482 1.50715 3.89026 0
M  V30 8289 H 777.112 0.624247 3.16706 0
M  V30 8290 H 776.164 2.92852 2.42779 0
M  V30 8291 H 777.476 3.69628 3.34927 0
M  V30 8292 H 776.63 2.64773 5.45875 0
M  V30 8293 H 775.369 1.77547 4.54234 0
M  V30 8294 H 774.374 3.96164 3.81227 0
M  V30 8295 H 775.599 4.84124 4.76236 0
M  V30 8296 H 773.545 2.89825 5.88504 0
M  V30 8297 H 773.462 4.62686 5.97877 0
M  V30 8298 H 774.73 3.78227 6.8159 0
M  V30 8299 N 778.959 -0.83999 1.33349 0
M  V30 8300 C 780.189 -1.62492 1.27593 0
M  V30 8301 C 780.597 -1.88559 -0.155597 0
M  V30 8302 O 779.94 -1.46537 -1.10782 0
M  V30 8303 C 780.002 -2.99984 1.98116 0
M  V30 8304 C 779.666 -2.96892 3.47425 0
M  V30 8305 C 780.663 -2.72688 4.42648 0
M  V30 8306 C 778.348 -3.17063 3.89585 0
M  V30 8307 C 780.342 -2.68681 5.78004 0
M  V30 8308 C 778.029 -3.12682 5.25046 0
M  V30 8309 C 779.027 -2.88522 6.19067 0
M  V30 8310 O 778.715 -2.84042 7.52047 0
M  V30 8311 H 778.447 -0.512358 0.440982 0
M  V30 8312 H 781.001 -1.0545 1.76265 0
M  V30 8313 H 779.231 -3.58875 1.44034 0
M  V30 8314 H 780.92 -3.6084 1.85875 0
M  V30 8315 H 781.686 -2.56856 4.114 0
M  V30 8316 H 777.565 -3.34889 3.16813 0
M  V30 8317 H 781.109 -2.49743 6.51363 0
M  V30 8318 H 777.006 -3.28063 5.55918 0
M  V30 8319 H 777.774 -2.99892 7.61582 0
M  V30 8320 N 780.437 -1.16799 -1.0581 0
M  V30 8321 C 781.367 -0.902241 -2.15364 0
M  V30 8322 C 782.348 0.153351 -1.69407 0
M  V30 8323 O 783.533 0.00442032 -1.94199 0
M  V30 8324 C 780.663 -0.407911 -3.44896 0
M  V30 8325 C 779.617 -1.40197 -4.04387 0
M  V30 8326 C 778.943 -0.765848 -5.29187 0
M  V30 8327 C 780.243 -2.77316 -4.42598 0
M  V30 8328 H 781.937 -1.81841 -2.37853 0
M  V30 8329 H 779.483 -0.875731 -1.14311 0
M  V30 8330 H 781.436 -0.20945 -4.20879 0
M  V30 8331 H 780.16 0.54378 -3.22041 0
M  V30 8332 H 778.819 -1.58707 -3.30466 0
M  V30 8333 H 778.467 0.192482 -5.02632 0
M  V30 8334 H 778.167 -1.42939 -5.69949 0
M  V30 8335 H 779.691 -0.577519 -6.07863 0
M  V30 8336 H 781.105 -2.62561 -5.09642 0
M  V30 8337 H 779.502 -3.4019 -4.94359 0
M  V30 8338 H 780.572 -3.32199 -3.53231 0
M  V30 8339 N 781.915 1.24427 -0.967243 0
M  V30 8340 C 783.143 1.96541 -0.646477 0
M  V30 8341 C 783.558 1.71753 0.783996 0
M  V30 8342 O 782.915 1.00102 1.52597 0
M  V30 8343 C 782.966 3.4983 -0.911098 0
M  V30 8344 O 782.687 3.7377 -2.28534 0
M  V30 8345 C 784.188 4.3916 -0.604458 0
M  V30 8346 H 781.408 0.626129 -0.241255 0
M  V30 8347 H 783.952 1.58268 -1.29505 0
M  V30 8348 H 782.107 3.86168 -0.308741 0
M  V30 8349 H 782.521 4.68154 -2.365 0
M  V30 8350 H 783.995 5.4557 -0.840069 0
M  V30 8351 H 784.472 4.36771 0.461273 0
M  V30 8352 H 785.078 4.08409 -1.1867 0
M  V30 8353 N 783.393 0.737304 1.3929 0
M  V30 8354 C 784.323 0.113988 2.33222 0
M  V30 8355 C 785.304 -0.721695 1.54031 0
M  V30 8356 O 786.489 -0.666206 1.82415 0
M  V30 8357 C 783.619 -0.792319 3.38141 0
M  V30 8358 C 782.573 -0.0606178 4.27957 0
M  V30 8359 C 781.899 -1.08409 5.23595 0
M  V30 8360 C 783.199 1.09817 5.10625 0
M  V30 8361 H 784.893 0.898611 2.85596 0
M  V30 8362 H 782.439 0.433571 1.37318 0
M  V30 8363 H 784.392 -1.23793 4.02807 0
M  V30 8364 H 783.116 -1.60908 2.84211 0
M  V30 8365 H 781.775 0.365393 3.64775 0
M  V30 8366 H 781.423 -1.89449 4.6596 0
M  V30 8367 H 781.123 -0.599269 5.84536 0
M  V30 8368 H 782.647 -1.52936 5.91137 0
M  V30 8369 H 784.061 0.730892 5.68622 0
M  V30 8370 H 782.458 1.51278 5.80719 0
M  V30 8371 H 783.528 1.91878 4.45321 0
M  V30 8372 N 784.871 -1.49948 0.485112 0
M  V30 8373 C 785.819 -2.30449 -0.315609 0
M  V30 8374 C 786.813 -1.38351 -0.977516 0
M  V30 8375 O 788.019 -1.55477 -0.907019 0
M  V30 8376 H 784.394 -0.742262 -0.120629 0
M  V30 8377 H 786.365 -2.95925 0.383552 0
M  V30 8378 C 785.114 -3.19283 -1.37673 0
M  V30 8379 H 784.437 -3.90067 -0.876801 0
M  V30 8380 H 785.877 -3.78579 -1.90929 0
M  V30 8381 C 784.336 -2.37817 -2.38631 0
M  V30 8382 O 784.866 -2.0711 -3.44192 0
M  V30 8383 N 783.072 -2.00135 -2.107 0
M  V30 8384 H 782.619 -2.25307 -1.24878 0
M  V30 8385 H 782.577 -1.45933 -2.7848 0
M  V30 8386 N 786.349 -0.21828 -1.56081 0
M  V30 8387 C 787.577 0.419258 -2.02608 0
M  V30 8388 C 787.992 1.53578 -1.09814 0
M  V30 8389 O 787.349 1.82185 -0.107149 0
M  V30 8390 C 787.4 0.953955 -3.48686 0
M  V30 8391 O 787.121 -0.11805 -4.37941 0
M  V30 8392 C 788.622 1.66506 -4.10841 0
M  V30 8393 H 785.842 0.10296 -0.663054 0
M  V30 8394 H 788.386 -0.333776 -2.01758 0
M  V30 8395 H 786.541 1.65727 -3.50162 0
M  V30 8396 H 786.955 0.283359 -5.23734 0
M  V30 8397 H 788.429 1.99123 -5.14834 0
M  V30 8398 H 788.906 2.57705 -3.55647 0
M  V30 8399 H 789.512 1.00703 -4.13206 0
M  V30 8400 N 787.827 1.57504 0.0551401 0
M  V30 8401 C 788.737 2.08198 1.08124 0
M  V30 8402 C 789.753 1.01496 1.41331 0
M  V30 8403 O 790.929 1.33073 1.51174 0
M  V30 8404 C 787.994 2.52968 2.37083 0
M  V30 8405 C 787.055 3.7404 2.10696 0
M  V30 8406 C 786.288 4.16665 3.33505 0
M  V30 8407 O 786.511 3.59019 4.4324 0
M  V30 8408 O 785.445 5.09324 3.20737 0
M  V30 8409 H 789.271 2.95977 0.680518 0
M  V30 8410 H 786.856 1.46933 0.270401 0
M  V30 8411 H 788.738 2.82211 3.12946 0
M  V30 8412 H 787.413 1.6831 2.76502 0
M  V30 8413 H 786.32 3.49855 1.32484 0
M  V30 8414 H 787.653 4.59601 1.76148 0
M  V30 8415 N 789.305 -0.326896 1.54172 0
M  V30 8416 C 790.53 -1.08924 1.76494 0
M  V30 8417 C 790.955 -1.81039 0.510523 0
M  V30 8418 O 790.313 -1.73141 -0.537756 0
M  V30 8419 C 790.361 -2.06558 2.95578 0
M  V30 8420 O 789.465 -3.14394 2.6689 0
M  V30 8421 H 788.806 -0.314216 0.584948 0
M  V30 8422 H 791.336 -0.372207 2.01186 0
M  V30 8423 H 791.346 -2.49487 3.22832 0
M  V30 8424 H 790.021 -1.53469 3.86549 0
M  V30 8425 H 788.598 -2.76164 2.50576 0
M  V30 8426 N 790.784 -1.46188 -0.588786 0
M  V30 8427 C 792.012 -1.54743 -1.37339 0
M  V30 8428 C 792.427 -0.186446 -1.87877 0
M  V30 8429 O 791.784 0.815247 -1.63279 0
M  V30 8430 C 791.835 -2.54727 -2.56508 0
M  V30 8431 O 791.556 -3.85539 -2.08066 0
M  V30 8432 C 793.057 -2.73163 -3.49137 0
M  V30 8433 H 790.277 -0.523484 -0.419768 0
M  V30 8434 H 792.821 -1.91543 -0.716345 0
M  V30 8435 H 790.976 -2.20948 -3.18215 0
M  V30 8436 H 791.39 -4.39905 -2.85629 0
M  V30 8437 H 792.864 -3.47057 -4.2925 0
M  V30 8438 H 793.341 -1.79856 -4.00685 0
M  V30 8439 H 793.947 -3.08014 -2.9327 0
M  V30 8440 N 792.262 0.832906 -1.33792 0
M  V30 8441 C 793.678 1.1245 -1.13257 0
M  V30 8442 C 793.878 2.01369 0.0725832 0
M  V30 8443 O 792.934 2.41071 0.751082 0
M  V30 8444 C 794.247 1.78084 -2.42294 0
M  V30 8445 C 795.795 1.90624 -2.48257 0
M  V30 8446 C 796.27 2.59673 -3.77271 0
M  V30 8447 N 797.761 2.67181 -3.78376 0
M  V30 8448 C 798.496 3.21313 -4.74916 0
M  V30 8449 N 797.992 3.76086 -5.81835 0
M  V30 8450 N 799.785 3.19621 -4.62384 0
M  V30 8451 H 791.936 0.241244 -2.11026 0
M  V30 8452 H 794.199 0.169557 -0.932713 0
M  V30 8453 H 793.905 1.20209 -3.30519 0
M  V30 8454 H 793.779 2.78049 -2.5489 0
M  V30 8455 H 796.166 2.4765 -1.60478 0
M  V30 8456 H 796.247 0.89591 -2.39598 0
M  V30 8457 H 795.891 2.03304 -4.65435 0
M  V30 8458 H 795.821 3.61189 -3.8321 0
M  V30 8459 H 798.312 2.28346 -3.01108 0
M  V30 8460 H 798.625 4.15612 -6.51526 0
M  V30 8461 H 796.97 3.74357 -5.85561 0
M  V30 8462 H 800.161 2.76091 -3.7801 0
M  V30 8463 H 800.334 3.61504 -5.37791 0
M  V30 8464 N 793.74 1.17359 1.05189 0
M  V30 8465 C 794.989 0.956412 1.77583 0
M  V30 8466 C 795.302 -0.516018 1.88671 0
M  V30 8467 O 796.508 -0.851401 2.57805 0
M  V30 8468 C 794.964 1.66203 3.19225 0
M  V30 8469 C 794.572 3.17299 3.16267 0
M  V30 8470 C 796.316 1.52725 3.96075 0
M  V30 8471 C 794.223 3.8055 4.52698 0
M  V30 8472 H 793.153 0.354204 0.665624 0
M  V30 8473 H 795.804 1.40612 1.17901 0
M  V30 8474 H 794.186 1.14006 3.79234 0
M  V30 8475 H 795.36 3.76431 2.65776 0
M  V30 8476 H 793.675 3.3079 2.52917 0
M  V30 8477 H 796.272 1.97351 4.96947 0
M  V30 8478 H 796.615 0.477803 4.13549 0
M  V30 8479 H 797.148 2.02139 3.42614 0
M  V30 8480 H 793.887 4.85492 4.4043 0
M  V30 8481 H 793.407 3.26206 5.03339 0
M  V30 8482 H 795.086 3.82757 5.21638 0
M  V30 8483 N 795.218 -1.23913 0.973828 0
M  V30 8484 C 796.151 -2.23647 0.45355 0
M  V30 8485 C 797.129 -1.55485 -0.475724 0
M  V30 8486 O 798.313 -1.84083 -0.405689 0
M  V30 8487 C 795.44 -3.36942 -0.344594 0
M  V30 8488 C 794.486 -4.23221 0.527859 0
M  V30 8489 S 795.319 -4.97877 1.97177 0
M  V30 8490 C 796.475 -6.14627 1.18258 0
M  V30 8491 H 796.708 -2.67433 1.29873 0
M  V30 8492 H 794.241 -1.33289 0.779322 0
M  V30 8493 H 796.199 -4.02647 -0.799103 0
M  V30 8494 H 794.86 -2.91703 -1.16482 0
M  V30 8495 H 794.053 -5.03928 -0.0852555 0
M  V30 8496 H 793.655 -3.6255 0.918344 0
M  V30 8497 H 795.947 -6.76066 0.440629 0
M  V30 8498 H 796.89 -6.80311 1.96425 0
M  V30 8499 H 797.298 -5.6009 0.704256 0
M  V30 8500 N 796.696 -0.74468 -1.38897 0
M  V30 8501 C 797.924 -0.307428 -2.04603 0
M  V30 8502 C 798.339 1.06115 -1.56157 0
M  V30 8503 O 797.696 1.67233 -0.730701 0
M  V30 8504 C 797.747 -0.31101 -3.6016 0
M  V30 8505 O 797.468 -1.62557 -4.06825 0
M  V30 8506 C 798.969 0.141213 -4.43075 0
M  V30 8507 H 796.189 -0.132741 -0.657739 0
M  V30 8508 H 798.733 -1.01104 -1.77759 0
M  V30 8509 H 796.888 0.343792 -3.85872 0
M  V30 8510 H 797.302 -1.54569 -5.01207 0
M  V30 8511 H 798.776 0.0875449 -5.51931 0
M  V30 8512 H 799.253 1.18782 -4.22833 0
M  V30 8513 H 799.859 -0.484383 -4.22533 0
M  V30 8514 N 798.174 1.49689 -0.493057 0
M  V30 8515 C 799.121 2.28976 0.28959 0
M  V30 8516 C 800.091 1.35011 0.967536 0
M  V30 8517 O 801.276 1.63964 0.975736 0
M  V30 8518 C 798.416 3.1748 1.35279 0
M  V30 8519 C 797.529 4.26496 0.687418 0
M  V30 8520 C 796.664 5.02226 1.73038 0
M  V30 8521 C 795.703 6.03089 1.04645 0
M  V30 8522 N 794.84 6.72014 2.03325 0
M  V30 8523 H 799.68 2.954 -0.392798 0
M  V30 8524 H 797.217 1.45657 -0.205554 0
M  V30 8525 H 799.175 3.67162 1.98111 0
M  V30 8526 H 797.805 2.53057 2.00405 0
M  V30 8527 H 796.857 3.80362 -0.0540001 0
M  V30 8528 H 798.169 4.98578 0.14864 0
M  V30 8529 H 797.323 5.55737 2.43395 0
M  V30 8530 H 796.062 4.29899 2.303 0
M  V30 8531 H 795.067 5.48817 0.328606 0
M  V30 8532 H 796.292 6.77398 0.480428 0
M  V30 8533 H 794.238 6.02464 2.59564 0
M  V30 8534 H 794.155 7.40046 1.54492 0
M  V30 8535 H 795.423 7.30133 2.72995 0
M  V30 8536 N 799.652 0.226554 1.55963 0
M  V30 8537 C 800.582 -0.676079 2.23498 0
M  V30 8538 C 801.563 -1.19718 1.20837 0
M  V30 8539 O 802.748 -1.24027 1.49436 0
M  V30 8540 C 799.878 -1.88217 2.91876 0
M  V30 8541 C 798.832 -1.4947 4.01052 0
M  V30 8542 C 798.158 -2.77997 4.56751 0
M  V30 8543 C 799.458 -0.680951 5.17842 0
M  V30 8544 H 801.152 -0.112989 2.99187 0
M  V30 8545 H 798.698 -0.0529046 1.43903 0
M  V30 8546 H 800.651 -2.51911 3.37815 0
M  V30 8547 H 799.375 -2.47031 2.13643 0
M  V30 8548 H 798.034 -0.881199 3.55852 0
M  V30 8549 H 797.682 -3.34966 3.75243 0
M  V30 8550 H 797.382 -2.52803 5.30438 0
M  V30 8551 H 798.906 -3.42625 5.05411 0
M  V30 8552 H 800.32 -1.22171 5.60131 0
M  V30 8553 H 798.717 -0.525898 5.97791 0
M  V30 8554 H 799.787 0.311346 4.83899 0
M  V30 8555 N 801.13 -1.57531 -0.0467866 0
M  V30 8556 C 802.546 -1.54451 -0.402107 0
M  V30 8557 C 802.746 -0.950275 -1.77685 0
M  V30 8558 O 801.802 -0.563602 -2.4613 0
M  V30 8559 C 803.115 -2.9899 -0.320212 0
M  V30 8560 C 804.663 -3.10452 -0.398588 0
M  V30 8561 C 805.138 -4.56689 -0.346335 0
M  V30 8562 N 806.629 -4.6142 -0.405666 0
M  V30 8563 C 807.364 -5.72087 -0.387845 0
M  V30 8564 N 806.86 -6.92045 -0.32336 0
M  V30 8565 N 808.653 -5.60404 -0.436263 0
M  V30 8566 H 800.804 -1.94515 0.853087 0
M  V30 8567 H 803.067 -0.891397 0.322669 0
M  V30 8568 H 802.773 -3.46124 0.623794 0
M  V30 8569 H 802.647 -3.60164 -1.1208 0
M  V30 8570 H 805.034 -2.63276 -1.33302 0
M  V30 8571 H 805.115 -2.52142 0.431026 0
M  V30 8572 H 804.759 -5.04527 0.584356 0
M  V30 8573 H 804.689 -5.12889 -1.19382 0
M  V30 8574 H 807.18 -3.75105 -0.458737 0
M  V30 8575 H 807.493 -7.7216 -0.314375 0
M  V30 8576 H 805.838 -6.94396 -0.28967 0
M  V30 8577 H 809.029 -4.65586 -0.48451 0
M  V30 8578 H 809.202 -6.46645 -0.418907 0
M  V30 8579 N 802.608 0.318715 -1.54344 0
M  V30 8580 C 803.571 1.37545 -1.83342 0
M  V30 8581 C 804.571 1.445 -0.705444 0
M  V30 8582 O 805.761 1.44443 -0.973752 0
M  V30 8583 C 802.893 2.76225 -1.99781 0
M  V30 8584 H 804.086 1.13084 -2.77762 0
M  V30 8585 H 801.639 0.554457 -1.46135 0
M  V30 8586 H 802.374 3.05934 -1.07588 0
M  V30 8587 H 802.159 2.7257 -2.81865 0
M  V30 8588 H 803.649 3.52664 -2.23647 0
M  V30 8589 N 804.086 1.46499 0.581025 0
M  V30 8590 C 805.018 1.53225 1.70455 0
M  V30 8591 C 806.031 0.420443 1.57277 0
M  V30 8592 O 807.22 0.688888 1.64671 0
M  V30 8593 C 804.32 1.39803 3.08721 0
M  V30 8594 C 803.493 2.65132 3.47884 0
M  V30 8595 C 802.552 2.45886 4.65217 0
M  V30 8596 O 801.578 3.19615 4.70993 0
M  V30 8597 N 802.78 1.5216 5.60203 0
M  V30 8598 H 805.545 2.50098 1.65139 0
M  V30 8599 H 803.106 1.42576 0.76705 0
M  V30 8600 H 805.098 1.24697 3.8501 0
M  V30 8601 H 803.668 0.51104 3.08394 0
M  V30 8602 H 802.888 2.95169 2.61284 0
M  V30 8603 H 804.176 3.48385 3.70817 0
M  V30 8604 H 803.574 0.913646 5.58273 0
M  V30 8605 H 802.131 1.43017 6.35916 0
M  V30 8606 N 805.565 -0.825799 1.34232 0
M  V30 8607 C 806.497 -1.94401 1.21413 0
M  V30 8608 C 807.51 -1.6218 0.141902 0
M  V30 8609 O 808.699 -1.74109 0.3935 0
M  V30 8610 C 805.799 -3.28257 0.842635 0
M  V30 8611 C 804.972 -3.88521 2.00924 0
M  V30 8612 C 804.031 -5.00752 1.61661 0
M  V30 8613 O 803.057 -5.19201 2.33279 0
M  V30 8614 N 804.259 -5.78084 0.52911 0
M  V30 8615 H 807.024 -2.05931 2.17744 0
M  V30 8616 H 804.585 -1.00223 1.27149 0
M  V30 8617 H 806.577 -4.00781 0.561822 0
M  V30 8618 H 805.147 -3.12585 -0.0304029 0
M  V30 8619 H 804.367 -3.08425 2.45495 0
M  V30 8620 H 805.655 -4.25516 2.78951 0
M  V30 8621 H 805.053 -5.65661 -0.0663322 0
M  V30 8622 H 803.61 -6.51072 0.308017 0
M  V30 8623 N 807.043 -1.17915 -1.04565 0
M  V30 8624 C 808.283 -0.982331 -1.79247 0
M  V30 8625 C 808.647 0.47998 -1.85904 0
M  V30 8626 O 809.848 0.796078 -2.56741 0
M  V30 8627 C 808.119 -1.61329 -3.18916 0
M  V30 8628 S 809.678 -1.56355 -4.09998 0
M  V30 8629 H 806.496 -0.352869 -0.617256 0
M  V30 8630 H 809.098 -1.49971 -1.25415 0
M  V30 8631 H 807.802 -2.66993 -3.11678 0
M  V30 8632 H 807.333 -1.09599 -3.77825 0
M  V30 8633 H 809.348 -0.57593 -4.92846 0
M  V30 8634 N 808.521 1.23394 -0.980386 0
M  V30 8635 C 809.937 1.43961 -0.689008 0
M  V30 8636 C 810.137 1.87229 0.744809 0
M  V30 8637 O 809.193 2.01831 1.51725 0
M  V30 8638 C 810.506 2.49128 -1.68392 0
M  V30 8639 C 812.054 2.62941 -1.69796 0
M  V30 8640 C 812.529 3.71317 -2.68118 0
M  V30 8641 N 814.02 3.7876 -2.66636 0
M  V30 8642 C 814.755 4.62176 -3.39383 0
M  V30 8643 N 814.251 5.49682 -4.21688 0
M  V30 8644 N 816.044 4.56372 -3.28147 0
M  V30 8645 H 808.195 0.936106 -1.90659 0
M  V30 8646 H 810.458 0.473023 -0.821555 0
M  V30 8647 H 810.164 2.24252 -2.70931 0
M  V30 8648 H 810.038 3.47514 -1.46675 0
M  V30 8649 H 812.425 2.87168 -0.679617 0
M  V30 8650 H 812.506 1.64871 -1.95579 0
M  V30 8651 H 812.15 3.4784 -3.70095 0
M  V30 8652 H 812.08 4.68929 -2.3961 0
M  V30 8653 H 814.571 3.16226 -2.06904 0
M  V30 8654 H 814.884 6.10323 -4.74053 0
M  V30 8655 H 813.229 5.49306 -4.25779 0
M  V30 8656 H 816.42 3.87029 -2.63299 0
M  V30 8657 H 816.593 5.21153 -3.85102 0
M  V30 8658 N 809.999 0.752036 1.385 0
M  V30 8659 C 811.246 0.307503 2.00152 0
M  V30 8660 C 811.574 -1.11033 1.59693 0
M  V30 8661 O 810.829 -1.77455 0.825125 0
M  V30 8662 C 811.128 0.376155 3.55415 0
M  V30 8663 C 810.794 1.74942 4.15579 0
M  V30 8664 C 809.456 2.12525 4.31725 0
M  V30 8665 C 811.808 2.65031 4.48785 0
M  V30 8666 C 809.136 3.39671 4.78373 0
M  V30 8667 C 811.488 3.91567 4.96848 0
M  V30 8668 C 810.152 4.2922 5.11201 0
M  V30 8669 H 809.422 0.112523 0.732407 0
M  V30 8670 H 812.069 0.962213 1.65571 0
M  V30 8671 H 810.374 -0.362121 3.90123 0
M  V30 8672 H 812.071 0.0138065 4.00998 0
M  V30 8673 H 808.661 1.44726 4.03426 0
M  V30 8674 H 812.845 2.3726 4.35914 0
M  V30 8675 H 808.101 3.68765 4.8767 0
M  V30 8676 H 812.275 4.61517 5.21512 0
M  V30 8677 H 809.902 5.27805 5.47107 0
M  V30 8678 N 811.477 -1.49425 0.500989 0
M  V30 8679 C 812.723 -2.03369 -0.0355945 0
M  V30 8680 C 813.078 -1.37387 -1.34694 0
M  V30 8681 O 812.371 -0.500516 -1.84947 0
M  V30 8682 C 812.565 -3.56562 -0.24463 0
M  V30 8683 C 812.394 -4.37392 1.04491 0
M  V30 8684 C 811.164 -4.7941 1.59669 0
M  V30 8685 C 813.362 -4.75974 1.94817 0
M  V30 8686 N 811.344 -5.44668 2.83214 0
M  V30 8687 C 812.715 -5.4095 3.0294 0
M  V30 8688 C 814.77 -4.57915 1.95495 0
M  V30 8689 C 813.473 -5.89779 4.11768 0
M  V30 8690 C 815.499 -5.07705 3.03298 0
M  V30 8691 C 814.861 -5.72682 4.1014 0
M  V30 8692 H 810.96 -0.781507 0.0277547 0
M  V30 8693 H 813.544 -1.82594 0.675844 0
M  V30 8694 H 811.715 -3.77221 -0.925126 0
M  V30 8695 H 813.447 -3.97147 -0.778219 0
M  V30 8696 H 810.202 -4.59629 1.14185 0
M  V30 8697 H 810.626 -5.81884 3.46035 0
M  V30 8698 H 815.268 -4.07085 1.14199 0
M  V30 8699 H 812.986 -6.3963 4.93862 0
M  V30 8700 H 816.572 -4.95542 3.04843 0
M  V30 8701 H 815.452 -6.10512 4.92184 0
M  V30 8702 N 812.955 -0.234822 -1.55841 0
M  V30 8703 C 814.183 0.397745 -2.03041 0
M  V30 8704 C 814.598 1.52405 -1.11437 0
M  V30 8705 O 813.955 1.82061 -0.126466 0
M  V30 8706 C 814.006 0.916919 -3.49678 0
M  V30 8707 O 813.727 -0.164493 -4.37791 0
M  V30 8708 C 815.228 1.62139 -4.12584 0
M  V30 8709 H 812.448 0.0959214 -0.664108 0
M  V30 8710 H 814.992 -0.355156 -2.01392 0
M  V30 8711 H 813.147 1.62004 -3.519 0
M  V30 8712 H 813.561 0.227794 -5.24005 0
M  V30 8713 H 815.035 1.93651 -5.16917 0
M  V30 8714 H 815.512 2.53918 -3.58361 0
M  V30 8715 H 816.118 0.963145 -4.14251 0
M  V30 8716 N 814.433 1.57553 0.0384317 0
M  V30 8717 C 815.658 1.93485 0.746872 0
M  V30 8718 C 816.083 0.834069 1.68597 0
M  V30 8719 O 815.441 -0.210902 1.80069 0
M  V30 8720 C 815.489 3.28463 1.4881 0
M  V30 8721 O 814.593 3.20051 2.60079 0
M  V30 8722 H 813.934 0.632675 0.201539 0
M  V30 8723 H 816.464 2.046 -0.00329815 0
M  V30 8724 H 816.474 3.63132 1.86009 0
M  V30 8725 H 815.149 4.08147 0.799297 0
M  V30 8726 H 813.726 2.96998 2.25492 0
M  V30 8727 N 815.911 -0.310526 1.54511 0
M  V30 8728 C 817.158 -1.04691 1.73338 0
M  V30 8729 C 817.486 -1.87584 0.514038 0
M  V30 8730 O 816.741 -1.89096 -0.504119 0
M  V30 8731 C 817.04 -1.98942 2.96912 0
M  V30 8732 C 816.706 -1.321 4.31115 0
M  V30 8733 C 815.368 -1.13603 4.67598 0
M  V30 8734 C 817.72 -0.842362 5.14348 0
M  V30 8735 C 815.048 -0.459102 5.84901 0
M  V30 8736 C 817.4 -0.179202 6.32346 0
M  V30 8737 C 816.064 0.0178111 6.67498 0
M  V30 8738 H 815.334 -0.38309 0.634289 0
M  V30 8739 H 817.981 -0.322723 1.88761 0
M  V30 8740 H 816.286 -2.77856 2.76231 0
M  V30 8741 H 817.983 -2.55972 3.08674 0
M  V30 8742 H 814.573 -1.47502 4.02419 0
M  V30 8743 H 818.757 -0.973013 4.86668 0
M  V30 8744 H 814.013 -0.295385 6.10686 0
M  V30 8745 H 818.187 0.199619 6.96114 0
M  V30 8746 H 815.814 0.544356 7.58249 0
M  V30 8747 N 817.389 -1.46805 -0.573248 0
M  V30 8748 C 818.636 -1.52604 -1.3311 0
M  V30 8749 C 818.964 -0.181633 -1.9365 0
M  V30 8750 O 818.219 0.823775 -1.77517 0
M  V30 8751 C 818.518 -2.58001 -2.47326 0
M  V30 8752 C 818.184 -4.01747 -2.04719 0
M  V30 8753 C 816.846 -4.40881 -1.92814 0
M  V30 8754 C 819.198 -4.92008 -1.71982 0
M  V30 8755 C 816.526 -5.68129 -1.46445 0
M  V30 8756 C 818.878 -6.19703 -1.27089 0
M  V30 8757 C 817.542 -6.57733 -1.13768 0
M  V30 8758 H 816.812 -0.558417 -0.487084 0
M  V30 8759 H 819.459 -1.80327 -0.644538 0
M  V30 8760 H 817.764 -2.23974 -3.2147 0
M  V30 8761 H 819.461 -2.59715 -3.05531 0
M  V30 8762 H 816.051 -3.70819 -2.14922 0
M  V30 8763 H 820.235 -4.62485 -1.8006 0
M  V30 8764 H 815.491 -5.96359 -1.34783 0
M  V30 8765 H 819.665 -6.89064 -1.00814 0
M  V30 8766 H 817.292 -7.56228 -0.776142 0
M  V30 8767 N 818.867 0.818669 -1.34668 0
M  V30 8768 C 820.278 1.39177 -1.24446 0
M  V30 8769 C 820.629 1.9578 0.128268 0
M  V30 8770 O 819.754 1.90382 1.02877 0
M  V30 8771 C 820.349 2.53012 -2.25323 0
M  V30 8772 C 818.908 3.06218 -2.18878 0
M  V30 8773 C 818.055 1.79112 -2.11694 0
M  V30 8774 H 821.006 0.622709 -1.45973 0
M  V30 8775 H 821.027 3.31226 -1.8727 0
M  V30 8776 H 820.539 2.11784 -3.25221 0
M  V30 8777 H 818.64 3.51939 -1.22351 0
M  V30 8778 H 818.753 3.65019 -3.10319 0
M  V30 8779 H 817.117 2.0018 -1.57481 0
M  V30 8780 H 817.9 1.40053 -3.13433 0
M  V30 8781 N 820.346 1.18468 1.03938 0
M  V30 8782 C 821.293 0.912859 2.1198 0
M  V30 8783 C 822.263 -0.14824 1.65437 0
M  V30 8784 O 823.448 -0.008331 1.90798 0
M  V30 8785 C 820.588 0.446114 3.42204 0
M  V30 8786 C 819.701 1.57278 4.02353 0
M  V30 8787 C 818.836 1.05863 5.20544 0
M  V30 8788 C 817.875 2.1599 5.72726 0
M  V30 8789 N 817.012 1.65959 6.82204 0
M  V30 8790 H 821.852 1.83798 2.34569 0
M  V30 8791 H 819.389 0.916504 1.15059 0
M  V30 8792 H 821.347 0.15697 4.16905 0
M  V30 8793 H 819.977 -0.442025 3.19759 0
M  V30 8794 H 819.029 1.97737 3.24968 0
M  V30 8795 H 820.341 2.40289 4.37107 0
M  V30 8796 H 819.495 0.724087 6.02364 0
M  V30 8797 H 818.234 0.198116 4.87297 0
M  V30 8798 H 817.239 2.50287 4.89527 0
M  V30 8799 H 818.464 3.02479 6.08016 0
M  V30 8800 H 816.41 0.82199 6.5083 0
M  V30 8801 H 816.327 2.42567 7.16029 0
M  V30 8802 H 817.595 1.35436 7.67644 0
M  V30 8803 N 821.824 -1.22873 0.986916 0
M  V30 8804 C 823.07 -1.91746 0.660401 0
M  V30 8805 C 823.403 -1.76738 -0.804812 0
M  V30 8806 O 822.678 -1.13246 -1.58131 0
M  V30 8807 C 822.961 -3.44156 1.05966 0
M  V30 8808 C 822.814 -3.68242 2.58298 0
M  V30 8809 C 824.133 -4.35874 0.60842 0
M  V30 8810 H 821.252 -0.696347 0.241391 0
M  V30 8811 H 823.894 -1.44867 1.22937 0
M  V30 8812 H 822.044 -3.84213 0.575534 0
M  V30 8813 H 823.716 -3.37626 3.14335 0
M  V30 8814 H 821.959 -3.12728 3.00638 0
M  V30 8815 H 822.63 -4.74956 2.81285 0
M  V30 8816 H 825.106 -4.03299 1.02417 0
M  V30 8817 H 823.982 -5.41201 0.916142 0
M  V30 8818 H 824.243 -4.39364 -0.491086 0
M  V30 8819 N 823.302 -0.75937 -1.38099 0
M  V30 8820 C 824.232 -0.151077 -2.33011 0
M  V30 8821 C 825.213 0.697099 -1.5516 0
M  V30 8822 O 826.398 0.637101 -1.83452 0
M  V30 8823 C 823.528 0.738423 -3.39359 0
M  V30 8824 C 822.482 -0.0074741 -4.27999 0
M  V30 8825 C 821.808 1.00066 -5.25253 0
M  V30 8826 C 823.108 -1.17926 -5.08813 0
M  V30 8827 H 824.802 -0.943933 -2.84131 0
M  V30 8828 H 822.348 -0.455362 -1.36611 0
M  V30 8829 H 824.301 1.17369 -4.04725 0
M  V30 8830 H 823.025 1.56366 -2.86735 0
M  V30 8831 H 821.684 -0.423379 -3.64147 0
M  V30 8832 H 821.332 1.82012 -4.68914 0
M  V30 8833 H 821.032 0.506199 -5.85416 0
M  V30 8834 H 822.556 1.43512 -5.93495 0
M  V30 8835 H 823.97 -0.821262 -5.67387 0
M  V30 8836 H 822.367 -1.60497 -5.78239 0
M  V30 8837 H 823.437 -1.98938 -4.42212 0
M  V30 8838 N 824.78 1.49157 -0.508906 0
M  V30 8839 C 825.69 2.33045 0.269656 0
M  V30 8840 C 826.706 1.45143 0.959662 0
M  V30 8841 O 827.882 1.78155 0.939295 0
M  V30 8842 C 824.947 3.20772 1.31554 0
M  V30 8843 C 824.008 4.24531 0.638131 0
M  V30 8844 C 823.241 5.08065 1.63418 0
M  V30 8845 O 823.464 4.93238 2.86483 0
M  V30 8846 O 822.398 5.90117 1.18516 0
M  V30 8847 H 826.224 3.00821 -0.417183 0
M  V30 8848 H 823.809 1.46938 -0.270119 0
M  V30 8849 H 825.691 3.75095 1.92047 0
M  V30 8850 H 824.366 2.55681 1.98516 0
M  V30 8851 H 823.273 3.74099 -0.00674357 0
M  V30 8852 H 824.606 4.92199 0.0108155 0
M  V30 8853 N 826.258 0.243083 1.55714 0
M  V30 8854 C 827.191 -0.698623 2.17243 0
M  V30 8855 C 828.169 -1.1756 1.12331 0
M  V30 8856 O 829.353 -1.25444 1.40699 0
M  V30 8857 C 826.48 -1.94901 2.77004 0
M  V30 8858 C 825.526 -1.61022 3.94936 0
M  V30 8859 S 826.359 -0.716173 5.30689 0
M  V30 8860 C 827.515 -1.97565 5.93901 0
M  V30 8861 H 827.748 -0.175724 2.9678 0
M  V30 8862 H 825.281 0.0275727 1.54375 0
M  V30 8863 H 827.239 -2.66687 3.12071 0
M  V30 8864 H 825.9 -2.44304 1.9742 0
M  V30 8865 H 825.093 -2.5398 4.35328 0
M  V30 8866 H 824.695 -0.972829 3.61126 0
M  V30 8867 H 826.987 -2.92333 6.11186 0
M  V30 8868 H 827.93 -1.61528 6.8943 0
M  V30 8869 H 828.338 -2.126 5.22935 0
M  V30 8870 N 827.736 -1.57571 -0.0300757 0
M  V30 8871 C 828.964 -1.93485 -0.732891 0
M  V30 8872 C 829.379 -0.842758 -1.68947 0
M  V30 8873 O 828.736 0.180904 -1.81601 0
M  V30 8874 C 828.787 -3.29328 -1.49082 0
M  V30 8875 O 828.508 -4.34341 -0.572639 0
M  V30 8876 C 830.009 -3.79517 -2.29088 0
M  V30 8877 H 827.229 -0.638588 -0.206026 0
M  V30 8878 H 829.773 -2.04496 0.0120966 0
M  V30 8879 H 827.928 -3.19716 -2.1877 0
M  V30 8880 H 828.342 -5.12748 -1.10406 0
M  V30 8881 H 829.816 -4.77081 -2.77665 0
M  V30 8882 H 830.293 -3.10659 -3.10464 0
M  V30 8883 H 830.899 -3.92208 -1.64477 0
M  V30 8884 N 829.214 0.302327 -1.54673 0
M  V30 8885 C 830.462 1.03565 -1.73547 0
M  V30 8886 C 830.783 1.87843 -0.523448 0
M  V30 8887 O 830.053 1.90367 0.462295 0
M  V30 8888 H 828.633 0.385358 -0.639928 0
M  V30 8889 H 831.295 0.333632 -1.92023 0
M  V30 8890 H 830.391 1.68952 -2.62415 0
M  V30 8891 N 830.692 1.47107 0.565454 0
M  V30 8892 C 831.64 1.59368 1.69424 0
M  V30 8893 C 832.634 0.461344 1.62997 0
M  V30 8894 O 833.84 0.638849 1.68282 0
M  V30 8895 H 830.215 0.501387 0.560459 0
M  V30 8896 H 832.186 2.54242 1.56217 0
M  V30 8897 C 830.935 1.61739 3.07792 0
M  V30 8898 H 830.258 2.48215 3.13416 0
M  V30 8899 H 831.698 1.7437 3.86486 0
M  V30 8900 C 830.157 0.349156 3.35086 0
M  V30 8901 O 830.687 -0.553287 3.97871 0
M  V30 8902 N 828.893 0.231723 2.89675 0
M  V30 8903 H 828.44 0.967021 2.3876 0
M  V30 8904 H 828.398 -0.615911 3.08308 0
M  V30 8905 N 832.17 -0.811516 1.35101 0
M  V30 8906 C 833.419 -1.56343 1.27435 0
M  V30 8907 C 833.732 -1.95019 -0.150696 0
M  V30 8908 O 834.938 -2.6924 -0.349586 0
M  V30 8909 C 833.394 -2.82124 2.23459 0
M  V30 8910 C 833.002 -2.50706 3.71283 0
M  V30 8911 C 834.746 -3.60137 2.24726 0
M  V30 8912 C 832.653 -3.72748 4.59143 0
M  V30 8913 H 831.583 -0.58682 0.473453 0
M  V30 8914 H 834.234 -0.892465 1.60335 0
M  V30 8915 H 832.616 -3.50905 1.83525 0
M  V30 8916 H 833.79 -1.89962 4.19823 0
M  V30 8917 H 832.105 -1.85947 3.72576 0
M  V30 8918 H 834.702 -4.50775 2.87587 0
M  V30 8919 H 835.045 -3.97101 1.24965 0
M  V30 8920 H 835.578 -2.98311 2.63164 0
M  V30 8921 H 832.317 -3.40896 5.59884 0
M  V30 8922 H 831.837 -4.32735 4.15332 0
M  V30 8923 H 833.516 -4.40033 4.74321 0
M  V30 8924 N 833.648 -1.19017 -1.03309 0
M  V30 8925 C 834.925 -0.899659 -1.73682 0
M  V30 8926 C 835.305 0.595677 -2.02521 0
M  V30 8927 O 834.653 1.55263 -1.67648 0
M  V30 8928 C 834.863 -1.75508 -3.01659 0
M  V30 8929 C 836.211 -1.98679 -3.75249 0
M  V30 8930 O 837.235 -1.72624 -3.11576 0
M  V30 8931 O 836.094 -2.42587 -4.89708 0
M  V30 8932 H 833.188 -0.334903 -0.756154 0
M  V30 8933 H 835.734 -1.29809 -1.09305 0
M  V30 8934 H 834.506 -2.7684 -2.76542 0
M  V30 8935 H 834.129 -1.35565 -3.73775 0
M  V30 8936 N 835.127 1.22348 -0.993418 0
M  V30 8937 C 836.037 2.27987 -0.553076 0
M  V30 8938 C 837.053 1.69378 0.398386 0
M  V30 8939 O 838.229 1.99648 0.26509 0
M  V30 8940 C 835.294 3.46475 0.124809 0
M  V30 8941 C 834.355 4.20399 -0.869682 0
M  V30 8942 C 833.588 5.33229 -0.224052 0
M  V30 8943 O 833.811 5.61885 0.981915 0
M  V30 8944 O 832.745 5.94685 -0.929174 0
M  V30 8945 H 836.571 2.67822 -1.43195 0
M  V30 8946 H 834.156 1.28525 -0.761694 0
M  V30 8947 H 836.038 4.18369 0.504496 0
M  V30 8948 H 834.713 3.08565 0.978243 0
M  V30 8949 H 833.62 3.50774 -1.30031 0
M  V30 8950 H 834.953 4.62191 -1.69233 0
M  V30 8951 N 836.605 0.766683 1.37694 0
M  V30 8952 C 837.568 0.155849 2.2867 0
M  V30 8953 C 838.568 -0.633509 1.47795 0
M  V30 8954 O 839.758 -0.457844 1.68076 0
M  V30 8955 C 836.89 -0.786965 3.31692 0
M  V30 8956 H 838.083 0.957748 2.84196 0
M  V30 8957 H 835.636 0.534554 1.46875 0
M  V30 8958 H 836.371 -1.61406 2.8128 0
M  V30 8959 H 836.156 -0.223182 3.91464 0
M  V30 8960 H 837.646 -1.20994 3.99688 0
M  V30 8961 N 838.083 -1.48885 0.516809 0
M  V30 8962 C 838.993 -2.33185 -0.257293 0
M  V30 8963 C 840.009 -1.4565 -0.951952 0
M  V30 8964 O 841.185 -1.78651 -0.929834 0
M  V30 8965 C 838.25 -3.21465 -1.29851 0
M  V30 8966 C 837.311 -4.24863 -0.615608 0
M  V30 8967 C 836.544 -5.08925 -1.60722 0
M  V30 8968 O 836.767 -4.9475 -2.83863 0
M  V30 8969 O 835.701 -5.90737 -1.15384 0
M  V30 8970 H 839.527 -3.00596 0.433131 0
M  V30 8971 H 837.112 -1.46792 0.277908 0
M  V30 8972 H 838.994 -3.76108 -1.90055 0
M  V30 8973 H 837.669 -2.5673 -1.97158 0
M  V30 8974 H 836.576 -3.74091 0.0265829 0
M  V30 8975 H 837.909 -4.92198 0.0152871 0
M  V30 8976 N 839.561 -0.251338 -1.55583 0
M  V30 8977 C 840.807 0.365823 -2.00083 0
M  V30 8978 C 841.162 1.55242 -1.13656 0
M  V30 8979 O 840.455 1.90624 -0.193108 0
M  V30 8980 C 840.649 0.821186 -3.47838 0
M  V30 8981 C 840.478 -0.319746 -4.48562 0
M  V30 8982 C 839.248 -0.795866 -4.98993 0
M  V30 8983 C 841.446 -1.14825 -5.01318 0
M  V30 8984 N 839.428 -1.90875 -5.83472 0
M  V30 8985 C 840.799 -2.10943 -5.83012 0
M  V30 8986 C 842.854 -1.18431 -4.8361 0
M  V30 8987 C 841.557 -3.10383 -6.48888 0
M  V30 8988 C 843.583 -2.16703 -5.50267 0
M  V30 8989 C 842.945 -3.11557 -6.31753 0
M  V30 8990 H 839.044 0.0996971 -0.775619 0
M  V30 8991 H 841.628 -0.36993 -1.91153 0
M  V30 8992 H 839.799 1.52622 -3.57157 0
M  V30 8993 H 841.531 1.41367 -3.79206 0
M  V30 8994 H 838.286 -0.379242 -4.72079 0
M  V30 8995 H 838.71 -2.46808 -6.30408 0
M  V30 8996 H 843.352 -0.464824 -4.20237 0
M  V30 8997 H 841.07 -3.83277 -7.11424 0
M  V30 8998 H 844.656 -2.20204 -5.38518 0
M  V30 8999 H 843.536 -3.86357 -6.82421 0
M  V30 9000 N 841.039 1.57585 0.0217189 0
M  V30 9001 C 841.949 2.10444 1.03684 0
M  V30 9002 C 842.965 1.04472 1.39146 0
M  V30 9003 O 844.141 1.36249 1.48317 0
M  V30 9004 C 841.206 2.5794 2.31664 0
M  V30 9005 C 840.267 3.78425 2.02714 0
M  V30 9006 C 839.5 4.23646 3.24592 0
M  V30 9007 O 839.723 3.6834 4.35525 0
M  V30 9008 O 838.657 5.16013 3.09862 0
M  V30 9009 H 842.483 2.97354 0.617584 0
M  V30 9010 H 840.068 1.47473 0.239174 0
M  V30 9011 H 841.95 2.88785 3.06889 0
M  V30 9012 H 840.625 1.74138 2.7287 0
M  V30 9013 H 839.532 3.52587 1.25033 0
M  V30 9014 H 840.865 4.63234 1.66359 0
M  V30 9015 N 842.517 -0.29412 1.54831 0
M  V30 9016 C 843.763 -1.02602 1.75626 0
M  V30 9017 C 844.118 -1.84689 0.539232 0
M  V30 9018 O 843.411 -1.85788 -0.468322 0
M  V30 9019 C 843.605 -1.95782 2.99006 0
M  V30 9020 C 843.434 -1.22861 4.32591 0
M  V30 9021 C 842.204 -0.95294 4.96233 0
M  V30 9022 C 844.402 -0.629592 5.10432 0
M  V30 9023 N 842.384 -0.194728 6.13591 0
M  V30 9024 C 843.755 -0.00449586 6.2 0
M  V30 9025 C 845.81 -0.535327 4.95014 0
M  V30 9026 C 844.513 0.705754 7.15829 0
M  V30 9027 C 846.539 0.161284 5.9118 0
M  V30 9028 C 845.901 0.775203 7.00121 0
M  V30 9029 H 842 -0.358143 0.695167 0
M  V30 9030 H 844.584 -0.303896 1.92314 0
M  V30 9031 H 842.755 -2.65238 2.83731 0
M  V30 9032 H 844.487 -2.62175 3.08296 0
M  V30 9033 H 841.242 -1.25285 4.56728 0
M  V30 9034 H 841.666 0.171093 6.76784 0
M  V30 9035 H 846.308 -0.995662 4.10909 0
M  V30 9036 H 844.026 1.17784 7.9947 0
M  V30 9037 H 847.612 0.234256 5.81328 0
M  V30 9038 H 846.492 1.30566 7.73254 0
M  V30 9039 N 843.995 -1.47404 -0.557645 0
M  V30 9040 C 844.942 -1.59859 -1.66475 0
M  V30 9041 C 845.912 -0.441644 -1.60121 0
M  V30 9042 O 847.097 -0.661641 -1.78961 0
M  V30 9043 C 844.237 -1.61843 -3.04797 0
M  V30 9044 C 843.35 -2.8845 -3.2159 0
M  V30 9045 C 842.485 -2.81773 -4.50308 0
M  V30 9046 C 841.524 -4.03208 -4.60532 0
M  V30 9047 N 840.661 -3.94769 -5.80604 0
M  V30 9048 H 845.501 -2.54415 -1.55168 0
M  V30 9049 H 843.038 -1.26194 -0.755876 0
M  V30 9050 H 844.996 -1.60976 -3.84893 0
M  V30 9051 H 843.626 -0.707997 -3.1494 0
M  V30 9052 H 842.678 -2.99186 -2.34929 0
M  V30 9053 H 843.99 -3.78379 -3.25009 0
M  V30 9054 H 843.144 -2.79153 -5.38663 0
M  V30 9055 H 841.883 -1.89527 -4.49367 0
M  V30 9056 H 840.888 -4.06133 -3.70589 0
M  V30 9057 H 842.113 -4.9658 -4.63233 0
M  V30 9058 H 840.059 -3.05326 -5.80613 0
M  V30 9059 H 839.976 -4.78375 -5.854 0
M  V30 9060 H 841.244 -3.96165 -6.71322 0
M  V30 9061 N 845.473 0.80434 -1.35529 0
M  V30 9062 C 846.436 1.89788 -1.28503 0
M  V30 9063 C 847.436 1.59601 -0.195983 0
M  V30 9064 O 848.626 1.68292 -0.449827 0
M  V30 9065 C 845.758 3.26255 -0.98847 0
M  V30 9066 H 846.951 1.97436 -2.25741 0
M  V30 9067 H 844.504 1.00046 -1.20086 0
M  V30 9068 H 845.239 3.24294 -0.0200541 0
M  V30 9069 H 845.024 3.49551 -1.77641 0
M  V30 9070 H 846.514 4.06298 -0.964975 0
M  V30 9071 N 846.951 1.19563 1.02676 0
M  V30 9072 C 848.199 0.997593 1.75763 0
M  V30 9073 C 848.52 -0.47253 1.89188 0
M  V30 9074 O 847.79 -1.34214 1.42701 0
M  V30 9075 H 846.37 0.366128 0.651122 0
M  V30 9076 H 849.032 1.50495 1.23844 0
M  V30 9077 H 848.128 1.44741 2.76508 0
M  V30 9078 N 848.429 -1.21819 0.999893 0
M  V30 9079 C 849.676 -1.90752 0.679694 0
M  V30 9080 C 850.004 -1.77777 -0.789014 0
M  V30 9081 O 849.259 -1.14518 -1.58695 0
M  V30 9082 C 849.558 -3.4193 1.04012 0
M  V30 9083 C 849.224 -3.75098 2.50225 0
M  V30 9084 C 847.886 -3.83861 2.90179 0
M  V30 9085 C 850.238 -3.90706 3.44961 0
M  V30 9086 C 847.566 -4.05676 4.23844 0
M  V30 9087 C 849.918 -4.14027 4.78294 0
M  V30 9088 C 848.582 -4.21016 5.17979 0
M  V30 9089 H 847.852 -0.698012 0.248718 0
M  V30 9090 H 850.499 -1.44437 1.25738 0
M  V30 9091 H 848.804 -3.89947 0.380606 0
M  V30 9092 H 850.501 -3.93532 0.770301 0
M  V30 9093 H 847.091 -3.68865 2.18258 0
M  V30 9094 H 851.275 -3.83307 3.15261 0
M  V30 9095 H 846.531 -4.09316 4.5417 0
M  V30 9096 H 850.705 -4.25046 5.51642 0
M  V30 9097 H 848.332 -4.37672 6.21568 0
M  V30 9098 N 849.908 -0.773975 -1.37286 0
M  V30 9099 C 850.858 -0.135245 -2.27599 0
M  V30 9100 C 851.842 0.671691 -1.46209 0
M  V30 9101 O 853.034 0.534299 -1.68743 0
M  V30 9102 C 850.163 0.741298 -3.35201 0
M  V30 9103 C 849.249 -0.0735896 -4.24036 0
M  V30 9104 N 849.64 -1.12035 -4.93236 0
M  V30 9105 C 847.938 0.150038 -4.45748 0
M  V30 9106 C 848.639 -1.61512 -5.58828 0
M  V30 9107 N 847.615 -0.926922 -5.35639 0
M  V30 9108 H 851.417 -0.936646 -2.78575 0
M  V30 9109 H 848.931 -0.611944 -1.50429 0
M  V30 9110 H 850.928 1.21468 -3.98812 0
M  V30 9111 H 849.588 1.54142 -2.8578 0
M  V30 9112 H 850.599 -1.50253 -4.95625 0
M  V30 9113 H 847.276 0.921891 -4.07195 0
M  V30 9114 H 848.666 -2.48818 -6.24131 0
M  V30 9115 N 851.386 1.48609 -0.524698 0
M  V30 9116 C 852.802 1.58557 -0.182199 0
M  V30 9117 C 853.002 1.52732 1.31435 0
M  V30 9118 O 852.058 1.41362 2.0922 0
M  V30 9119 C 853.371 2.90406 -0.78004 0
M  V30 9120 C 854.919 3.03924 -0.748293 0
M  V30 9121 C 855.394 4.38427 -1.32462 0
M  V30 9122 N 856.885 4.4498 -1.28635 0
M  V30 9123 C 857.62 5.47551 -1.70223 0
M  V30 9124 N 857.116 6.57103 -2.19515 0
M  V30 9125 N 858.909 5.38402 -1.61493 0
M  V30 9126 H 851.06 1.50638 -1.4974 0
M  V30 9127 H 853.323 0.714952 -0.622533 0
M  V30 9128 H 853.029 3.00308 -1.83052 0
M  V30 9129 H 852.903 3.76343 -0.254075 0
M  V30 9130 H 855.29 2.93638 0.293407 0
M  V30 9131 H 855.371 2.19611 -1.31167 0
M  V30 9132 H 855.015 4.49466 -2.36522 0
M  V30 9133 H 854.945 5.21418 -0.736967 0
M  V30 9134 H 857.436 3.66393 -0.92545 0
M  V30 9135 H 857.749 7.31499 -2.49257 0
M  V30 9136 H 856.094 6.58081 -2.23506 0
M  V30 9137 H 859.285 4.5171 -1.22785 0
M  V30 9138 H 859.458 6.18208 -1.94225 0
M  V30 9139 N 852.864 0.259585 1.55447 0
M  V30 9140 C 854.11 -0.355207 2.00274 0
M  V30 9141 C 854.465 -1.54637 1.14477 0
M  V30 9142 O 853.758 -1.90519 0.203215 0
M  V30 9143 C 853.952 -0.802727 3.48269 0
M  V30 9144 C 853.781 0.34353 4.48386 0
M  V30 9145 C 852.551 0.822317 4.98564 0
M  V30 9146 C 854.749 1.17482 5.00702 0
M  V30 9147 N 852.731 1.93966 5.82452 0
M  V30 9148 C 854.102 2.14032 5.81885 0
M  V30 9149 C 856.157 1.20994 4.82975 0
M  V30 9150 C 854.86 3.1382 6.47232 0
M  V30 9151 C 856.886 2.19618 5.4911 0
M  V30 9152 C 856.248 3.14903 6.30092 0
M  V30 9153 H 852.347 -0.0955824 0.776137 0
M  V30 9154 H 854.931 0.380062 1.90954 0
M  V30 9155 H 853.102 -1.50726 3.57961 0
M  V30 9156 H 854.834 -1.39354 3.79951 0
M  V30 9157 H 851.589 0.404272 4.71871 0
M  V30 9158 H 852.013 2.50148 6.29091 0
M  V30 9159 H 856.655 0.487104 4.19985 0
M  V30 9160 H 854.373 3.87045 7.09381 0
M  V30 9161 H 857.959 2.23057 5.37342 0
M  V30 9162 H 856.839 3.8997 6.80362 0
M  V30 9163 N 854.342 -1.57594 -0.0133615 0
M  V30 9164 C 855.29 -2.08682 -1.02736 0
M  V30 9165 C 856.284 -1.00391 -1.36448 0
M  V30 9166 O 857.49 -1.18868 -1.35168 0
M  V30 9167 H 853.865 -0.666158 -0.34891 0
M  V30 9168 H 855.836 -2.9289 -0.570815 0
M  V30 9169 C 854.585 -2.5945 -2.31476 0
M  V30 9170 H 853.908 -3.42401 -2.06401 0
M  V30 9171 H 855.348 -2.98888 -3.00735 0
M  V30 9172 C 853.807 -1.50266 -3.01533 0
M  V30 9173 O 854.337 -0.877875 -3.9199 0
M  V30 9174 N 852.543 -1.23336 -2.63129 0
M  V30 9175 H 852.09 -1.74327 -1.89652 0
M  V30 9176 H 852.048 -0.504987 -3.10318 0
M  V30 9177 N 855.82 0.285905 -1.54985 0
M  V30 9178 C 856.768 1.37302 -1.87752 0
M  V30 9179 C 857.762 1.51763 -0.752616 0
M  V30 9180 O 858.968 1.53701 -0.936805 0
M  V30 9181 H 855.343 0.458935 -0.59572 0
M  V30 9182 H 857.314 1.0691 -2.78591 0
M  V30 9183 C 856.063 2.72885 -2.15474 0
M  V30 9184 H 855.386 2.62545 -3.01513 0
M  V30 9185 H 856.826 3.47925 -2.42331 0
M  V30 9186 C 855.285 3.22989 -0.958124 0
M  V30 9187 O 855.815 4.01268 -0.186219 0
M  V30 9188 N 854.021 2.80503 -0.759354 0
M  V30 9189 H 853.568 2.16961 -1.38874 0
M  V30 9190 H 853.526 3.14375 0.0396937 0
M  V30 9191 N 857.298 1.47698 0.54982 0
M  V30 9192 C 858.528 1.58101 1.32995 0
M  V30 9193 C 858.936 0.232939 1.87761 0
M  V30 9194 O 858.279 -0.785058 1.6608 0
M  V30 9195 C 858.341 2.55228 2.53178 0
M  V30 9196 C 858.005 4.00756 2.19645 0
M  V30 9197 C 859.002 4.89025 1.76496 0
M  V30 9198 C 856.687 4.46147 2.30777 0
M  V30 9199 C 858.681 6.20707 1.44919 0
M  V30 9200 C 856.368 5.77856 1.98812 0
M  V30 9201 C 857.366 6.64957 1.55952 0
M  V30 9202 O 857.054 7.94217 1.24396 0
M  V30 9203 H 856.786 0.536362 0.411451 0
M  V30 9204 H 859.34 1.94092 0.67212 0
M  V30 9205 H 857.57 2.14319 3.21876 0
M  V30 9206 H 859.259 2.55678 3.15251 0
M  V30 9207 H 860.025 4.55201 1.67383 0
M  V30 9208 H 855.904 3.78552 2.63096 0
M  V30 9209 H 859.448 6.88649 1.11392 0
M  V30 9210 H 855.345 6.11219 2.0756 0
M  V30 9211 H 856.113 8.06789 1.37964 0
M  V30 9212 N 858.776 -0.797141 1.35954 0
M  V30 9213 C 859.709 -1.91567 1.24005 0
M  V30 9214 C 860.687 -1.62112 0.125868 0
M  V30 9215 O 861.871 -1.86167 0.295638 0
M  V30 9216 C 858.998 -3.26204 0.911535 0
M  V30 9217 C 858.044 -3.74598 2.03909 0
M  V30 9218 S 858.877 -3.91276 3.656 0
M  V30 9219 C 860.033 -5.288 3.34846 0
M  V30 9220 H 860.266 -2.0141 2.18681 0
M  V30 9221 H 857.799 -0.955542 1.2128 0
M  V30 9222 H 859.757 -4.03979 0.728805 0
M  V30 9223 H 858.418 -3.14095 -0.0173159 0
M  V30 9224 H 857.611 -4.72137 1.7636 0
M  V30 9225 H 857.213 -3.03849 2.18064 0
M  V30 9226 H 859.505 -6.13117 2.8826 0
M  V30 9227 H 860.448 -5.61347 4.31619 0
M  V30 9228 H 860.856 -4.95534 2.70382 0
M  V30 9229 N 860.254 -1.20106 -1.0204 0
M  V30 9230 C 861.187 -0.889795 -2.10138 0
M  V30 9231 C 862.165 0.156595 -1.61844 0
M  V30 9232 O 863.349 0.0310192 -1.88474 0
M  V30 9233 C 860.476 -0.333227 -3.37057 0
M  V30 9234 C 859.522 -1.36001 -4.04235 0
M  V30 9235 S 860.355 -2.92366 -4.48645 0
M  V30 9236 C 861.511 -2.38274 -5.78771 0
M  V30 9237 H 861.744 -1.80523 -2.36217 0
M  V30 9238 H 859.277 -1.02912 -1.15102 0
M  V30 9239 H 861.235 -0.0186507 -4.10496 0
M  V30 9240 H 859.896 0.560652 -3.09056 0
M  V30 9241 H 859.089 -0.919874 -4.95534 0
M  V30 9242 H 858.691 -1.62186 -3.37004 0
M  V30 9243 H 860.983 -1.77799 -6.53754 0
M  V30 9244 H 861.926 -3.27955 -6.27576 0
M  V30 9245 H 862.334 -1.8054 -5.34851 0
M  V30 9246 N 861.732 1.21287 -1.00634 0
M  V30 9247 C 863.009 1.86 -0.605257 0
M  V30 9248 C 863.389 1.90139 0.917072 0
M  V30 9249 O 862.737 1.40169 1.80458 0
M  V30 9250 C 862.947 3.26183 -1.24119 0
M  V30 9251 C 864.295 4.02562 -1.35015 0
M  V30 9252 O 865.319 3.35499 -1.19661 0
M  V30 9253 O 864.178 5.22638 -1.59726 0
M  V30 9254 H 861.272 0.800549 -0.207486 0
M  V30 9255 H 863.818 1.28959 -1.10307 0
M  V30 9256 H 862.59 3.17878 -2.28186 0
M  V30 9257 H 862.213 3.90845 -0.729807 0
M  V30 9258 N 863.21 0.781244 1.36873 0
M  V30 9259 C 864.456 0.359455 2.00199 0
M  V30 9260 C 864.811 -1.05495 1.60899 0
M  V30 9261 O 864.104 -1.7173 0.849664 0
M  V30 9262 C 864.298 0.45146 3.54537 0
M  V30 9263 C 864.127 1.87326 4.08826 0
M  V30 9264 C 862.897 2.49606 4.39346 0
M  V30 9265 C 865.095 2.8342 4.29159 0
M  V30 9266 N 863.077 3.8346 4.79408 0
M  V30 9267 C 864.448 4.02091 4.71935 0
M  V30 9268 C 866.503 2.80583 4.11312 0
M  V30 9269 C 865.206 5.18322 4.98733 0
M  V30 9270 C 867.232 3.95995 4.39251 0
M  V30 9271 C 866.594 5.13409 4.82276 0
M  V30 9272 H 862.693 0.178778 0.76129 0
M  V30 9273 H 865.277 1.0171 1.66022 0
M  V30 9274 H 863.448 -0.176055 3.88001 0
M  V30 9275 H 865.18 0.00670219 4.04699 0
M  V30 9276 H 861.935 2.01149 4.28761 0
M  V30 9277 H 862.359 4.52306 5.03735 0
M  V30 9278 H 867.001 1.90974 3.77212 0
M  V30 9279 H 864.719 6.08524 5.31718 0
M  V30 9280 H 868.305 3.95152 4.2702 0
M  V30 9281 H 867.185 6.01232 5.03478 0
M  V30 9282 N 864.689 -1.48329 0.532571 0
M  V30 9283 C 865.636 -2.29663 -0.228779 0
M  V30 9284 C 866.606 -1.37529 -0.931401 0
M  V30 9285 O 867.791 -1.66493 -0.931921 0
M  V30 9286 C 864.931 -3.20955 -1.26814 0
M  V30 9287 C 864.044 -4.28168 -0.574099 0
M  V30 9288 C 863.179 -5.06638 -1.59661 0
M  V30 9289 C 862.218 -6.05651 -0.88618 0
M  V30 9290 N 861.355 -6.77169 -1.85436 0
M  V30 9291 H 866.195 -2.94255 0.47098 0
M  V30 9292 H 863.732 -1.45061 0.2441 0
M  V30 9293 H 865.69 -3.72285 -1.88307 0
M  V30 9294 H 864.32 -2.58281 -1.93625 0
M  V30 9295 H 863.372 -3.80085 0.154827 0
M  V30 9296 H 864.684 -4.98797 -0.0163984 0
M  V30 9297 H 863.838 -5.61995 -2.28576 0
M  V30 9298 H 862.577 -4.35854 -2.18821 0
M  V30 9299 H 861.582 -5.49495 -0.182981 0
M  V30 9300 H 862.807 -6.78434 -0.300659 0
M  V30 9301 H 860.753 -6.09134 -2.43499 0
M  V30 9302 H 860.67 -7.43882 -1.34816 0
M  V30 9303 H 861.938 -7.37114 -2.53541 0
M  V30 9304 N 866.167 -0.267825 -1.55308 0
M  V30 9305 C 867.115 0.638848 -2.23655 0
M  V30 9306 C 868.109 1.16363 -1.2311 0
M  V30 9307 O 869.315 1.1181 -1.41062 0
M  V30 9308 H 865.69 0.224551 -0.717691 0
M  V30 9309 H 867.661 0.0394809 -2.98374 0
M  V30 9310 C 866.41 1.8151 -2.96562 0
M  V30 9311 H 865.733 1.42048 -3.73715 0
M  V30 9312 H 867.173 2.42629 -3.47717 0
M  V30 9313 C 865.632 2.69911 -2.01618 0
M  V30 9314 O 866.162 3.70058 -1.56268 0
M  V30 9315 N 864.368 2.36924 -1.68272 0
M  V30 9316 H 863.915 1.55533 -2.05347 0
M  V30 9317 H 863.873 2.96343 -1.05016 0
M  V30 9318 N 867.645 1.57599 0.00500368 0
M  V30 9319 C 868.577 2.04949 1.02609 0
M  V30 9320 C 869.59 0.966507 1.31006 0
M  V30 9321 O 870.779 1.2434 1.2807 0
M  V30 9322 C 867.879 2.43023 2.36206 0
M  V30 9323 C 867.052 3.73993 2.26821 0
M  V30 9324 C 866.111 3.9899 3.43065 0
M  V30 9325 O 865.137 4.69725 3.21477 0
M  V30 9326 N 866.339 3.46496 4.65748 0
M  V30 9327 H 869.104 2.93167 0.622336 0
M  V30 9328 H 866.665 1.60752 0.192488 0
M  V30 9329 H 868.657 2.56863 3.12735 0
M  V30 9330 H 867.227 1.60349 2.68341 0
M  V30 9331 H 866.447 3.70277 1.35235 0
M  V30 9332 H 867.735 4.59865 2.17719 0
M  V30 9333 H 867.133 2.89206 4.86186 0
M  V30 9334 H 865.69 3.65675 5.3956 0
M  V30 9335 N 869.123 -0.277682 1.55134 0
M  V30 9336 C 870.37 -1.0099 1.7552 0
M  V30 9337 C 870.698 -1.86452 0.553712 0
M  V30 9338 O 869.953 -1.90122 -0.463896 0
M  V30 9339 C 870.252 -1.92599 3.01065 0
M  V30 9340 C 869.918 -1.22926 4.3382 0
M  V30 9341 C 868.58 -1.03659 4.69902 0
M  V30 9342 C 870.932 -0.733071 5.16019 0
M  V30 9343 C 868.26 -0.334933 5.85743 0
M  V30 9344 C 870.612 -0.0450319 6.32584 0
M  V30 9345 C 869.276 0.159393 6.6731 0
M  V30 9346 H 868.546 -0.36955 0.642273 0
M  V30 9347 H 871.193 -0.282611 1.89403 0
M  V30 9348 H 869.498 -2.71934 2.82062 0
M  V30 9349 H 871.195 -2.49367 3.14034 0
M  V30 9350 H 867.785 -1.38933 4.05457 0
M  V30 9351 H 871.969 -0.869565 4.88623 0
M  V30 9352 H 867.225 -0.165783 6.11175 0
M  V30 9353 H 871.399 0.34723 6.95534 0
M  V30 9354 H 869.026 0.70507 7.56923 0
M  V30 9355 N 870.601 -1.47988 -0.541979 0
M  V30 9356 C 871.549 -1.62044 -1.66867 0
M  V30 9357 C 872.543 -0.487217 -1.62242 0
M  V30 9358 O 873.749 -0.66554 -1.67244 0
M  V30 9359 H 870.124 -0.51024 -0.552412 0
M  V30 9360 H 872.095 -2.56695 -1.52153 0
M  V30 9361 C 870.844 -1.66615 -3.0518 0
M  V30 9362 H 870.167 -2.5317 -3.09427 0
M  V30 9363 H 871.607 -1.80496 -3.83663 0
M  V30 9364 C 870.066 -0.402421 -3.34488 0
M  V30 9365 O 870.596 0.48992 -3.98701 0
M  V30 9366 N 868.802 -0.277778 -2.89269 0
M  V30 9367 H 868.349 -1.00488 -2.37192 0
M  V30 9368 H 868.307 0.566784 -3.09249 0
M  V30 9369 N 872.079 0.78992 -1.36375 0
M  V30 9370 C 873.356 1.53584 -1.21126 0
M  V30 9371 C 873.736 2.10124 0.202785 0
M  V30 9372 O 873.084 1.93936 1.20835 0
M  V30 9373 C 873.294 2.63117 -2.29282 0
M  V30 9374 C 874.642 3.31013 -2.65924 0
M  V30 9375 O 875.666 2.734 -2.28321 0
M  V30 9376 O 874.525 4.35129 -3.30643 0
M  V30 9377 H 871.619 0.679366 -0.471583 0
M  V30 9378 H 874.165 0.828446 -1.48104 0
M  V30 9379 H 872.937 2.19329 -3.24053 0
M  V30 9380 H 872.56 3.41476 -2.03666 0
M  V30 9381 N 873.557 1.20646 1.01402 0
M  V30 9382 C 874.787 1.04238 1.78376 0
M  V30 9383 C 875.195 -0.411327 1.84675 0
M  V30 9384 O 874.538 -1.29734 1.30057 0
M  V30 9385 C 874.6 1.55349 3.24202 0
M  V30 9386 C 874.264 3.03684 3.41504 0
M  V30 9387 C 875.261 4.01318 3.30514 0
M  V30 9388 C 872.946 3.42698 3.67237 0
M  V30 9389 C 874.94 5.35956 3.45007 0
M  V30 9390 C 872.627 4.77491 3.81373 0
M  V30 9391 C 873.625 5.73929 3.70263 0
M  V30 9392 O 873.313 7.06277 3.83963 0
M  V30 9393 H 873.045 0.366978 0.567718 0
M  V30 9394 H 875.599 1.60235 1.28506 0
M  V30 9395 H 873.829 0.93739 3.75166 0
M  V30 9396 H 875.518 1.34921 3.8282 0
M  V30 9397 H 876.284 3.72522 3.10568 0
M  V30 9398 H 872.163 2.68175 3.74971 0
M  V30 9399 H 875.707 6.11212 3.36252 0
M  V30 9400 H 871.604 5.05977 4.00821 0
M  V30 9401 H 872.372 7.13561 4.00965 0
M  V30 9402 N 875.035 -1.20752 1.01276 0
M  V30 9403 C 876.263 -1.94006 0.718976 0
M  V30 9404 C 876.678 -1.74544 -0.719711 0
M  V30 9405 O 876.035 -1.05697 -1.48776 0
M  V30 9406 C 876.086 -3.46208 1.04031 0
M  V30 9407 O 875.807 -3.65031 2.42248 0
M  V30 9408 C 877.308 -4.36614 0.767032 0
M  V30 9409 H 874.528 -0.616743 0.264327 0
M  V30 9410 H 877.072 -1.53352 1.3529 0
M  V30 9411 H 875.227 -3.84756 0.451852 0
M  V30 9412 H 875.641 -4.59054 2.53712 0
M  V30 9413 H 877.115 -5.42076 1.04198 0
M  V30 9414 H 877.592 -4.38182 -0.298851 0
M  V30 9415 H 878.198 -4.03723 1.33746 0
M  V30 9416 N 876.513 -0.788492 -1.36457 0
M  V30 9417 C 877.738 -0.371224 -2.04051 0
M  V30 9418 C 878.163 1.004 -1.59064 0
M  V30 9419 O 877.521 1.64663 -0.758679 0
M  V30 9420 C 877.569 -0.442275 -3.57877 0
M  V30 9421 O 876.673 0.55113 -4.08701 0
M  V30 9422 H 876.014 -0.157808 -0.644975 0
M  V30 9423 H 878.544 -1.06935 -1.74431 0
M  V30 9424 H 878.554 -0.305548 -4.06854 0
M  V30 9425 H 877.229 -1.44547 -3.89973 0
M  V30 9426 H 875.806 0.37614 -3.70998 0
M  V30 9427 N 877.991 1.48044 -0.54043 0
M  V30 9428 C 878.938 2.29781 0.216597 0
M  V30 9429 C 879.908 1.38021 0.924094 0
M  V30 9430 O 881.093 1.66985 0.923078 0
M  V30 9431 C 878.233 3.21623 1.2511 0
M  V30 9432 C 877.346 4.28467 0.551384 0
M  V30 9433 C 876.481 5.07477 1.56972 0
M  V30 9434 C 875.52 6.06113 0.854048 0
M  V30 9435 N 874.657 6.78143 1.81842 0
M  V30 9436 H 879.497 2.94001 -0.486578 0
M  V30 9437 H 877.034 1.44929 -0.251789 0
M  V30 9438 H 878.992 3.73279 1.8633 0
M  V30 9439 H 877.622 2.59305 1.92252 0
M  V30 9440 H 876.674 3.79997 -0.174982 0
M  V30 9441 H 877.986 4.98799 -0.0100542 0
M  V30 9442 H 877.14 5.63199 2.25592 0
M  V30 9443 H 875.879 4.37008 2.16507 0
M  V30 9444 H 874.884 5.49585 0.153838 0
M  V30 9445 H 876.109 6.78584 0.264675 0
M  V30 9446 H 874.055 6.10417 2.40265 0
M  V30 9447 H 873.972 7.44587 1.3087 0
M  V30 9448 H 875.24 7.38448 2.49628 0
M  V30 9449 N 879.47 0.276058 1.55163 0
M  V30 9450 C 880.417 -0.611006 2.22565 0
M  V30 9451 C 881.387 -1.14902 1.19945 0
M  V30 9452 O 882.572 -1.19815 1.48489 0
M  V30 9453 C 879.712 -1.78885 2.95117 0
M  V30 9454 C 878.825 -1.2846 4.12458 0
M  V30 9455 C 877.96 -2.42432 4.72652 0
M  V30 9456 C 876.999 -1.89015 5.82185 0
M  V30 9457 N 876.136 -2.96463 6.36439 0
M  V30 9458 H 880.976 -0.0295849 2.97985 0
M  V30 9459 H 878.513 -0.00283607 1.471 0
M  V30 9460 H 880.471 -2.48121 3.35398 0
M  V30 9461 H 879.101 -2.34229 2.22119 0
M  V30 9462 H 878.153 -0.485312 3.77292 0
M  V30 9463 H 879.465 -0.853358 4.91446 0
M  V30 9464 H 878.619 -3.19659 5.15658 0
M  V30 9465 H 877.358 -2.88872 3.92943 0
M  V30 9466 H 876.363 -1.10267 5.38629 0
M  V30 9467 H 877.588 -1.43509 6.63763 0
M  V30 9468 H 875.534 -3.42283 5.59623 0
M  V30 9469 H 875.451 -2.57759 7.10701 0
M  V30 9470 H 876.719 -3.73663 6.84103 0
M  V30 9471 N 880.948 -1.576 0.00335426 0
M  V30 9472 C 881.858 -2.12067 -1.00322 0
M  V30 9473 C 882.874 -1.06672 -1.37467 0
M  V30 9474 O 884.05 -1.38592 -1.46131 0
M  V30 9475 C 881.115 -2.61593 -2.27531 0
M  V30 9476 C 880.176 -3.81602 -1.96668 0
M  V30 9477 C 879.409 -4.28756 -3.17811 0
M  V30 9478 O 879.632 -3.75222 -4.2961 0
M  V30 9479 O 878.566 -5.20877 -3.01613 0
M  V30 9480 H 882.392 -2.98299 -0.570199 0
M  V30 9481 H 879.977 -1.47835 -0.215682 0
M  V30 9482 H 881.859 -2.93631 -3.02256 0
M  V30 9483 H 880.534 -1.78457 -2.70065 0
M  V30 9484 H 879.441 -3.54531 -1.19408 0
M  V30 9485 H 880.774 -4.65822 -1.58968 0
M  V30 9486 N 882.426 0.269451 -1.5528 0
M  V30 9487 C 883.651 1.02299 -1.80415 0
M  V30 9488 C 884.076 1.7902 -0.577363 0
M  V30 9489 O 883.434 1.75018 0.473125 0
M  V30 9490 C 883.482 1.95445 -3.0304 0
M  V30 9491 O 882.586 3.04271 -2.78375 0
M  V30 9492 H 881.927 0.292289 -0.596207 0
M  V30 9493 H 884.457 0.297282 -2.02429 0
M  V30 9494 H 884.467 2.37333 -3.31869 0
M  V30 9495 H 883.142 1.39017 -3.91978 0
M  V30 9496 H 881.719 2.66673 -2.60653 0
M  V30 9497 N 883.904 1.48273 0.534124 0
M  V30 9498 C 885.144 1.57674 1.3007 0
M  V30 9499 C 885.508 0.243256 1.90453 0
M  V30 9500 O 886.709 0.212231 2.67961 0
M  V30 9501 C 884.98 2.68044 2.36405 0
M  V30 9502 S 886.539 2.97183 3.22843 0
M  V30 9503 H 883.357 0.55652 0.442501 0
M  V30 9504 H 885.959 1.85774 0.60896 0
M  V30 9505 H 884.663 3.63498 1.90518 0
M  V30 9506 H 884.194 2.41833 3.10291 0
M  V30 9507 H 886.209 2.36164 4.36396 0
M  V30 9508 N 885.382 -0.782676 1.36792 0
M  V30 9509 C 886.628 -1.54311 1.3159 0
M  V30 9510 C 886.961 -1.93928 -0.102696 0
M  V30 9511 O 886.236 -1.63233 -1.05761 0
M  V30 9512 C 886.519 -2.81561 2.24489 0
M  V30 9513 C 886.372 -2.48268 3.75078 0
M  V30 9514 C 887.691 -3.83428 2.16034 0
M  V30 9515 H 884.81 -0.559828 0.479335 0
M  V30 9516 H 887.452 -0.898717 1.67401 0
M  V30 9517 H 885.602 -3.36549 1.9408 0
M  V30 9518 H 887.274 -1.99279 4.16036 0
M  V30 9519 H 885.517 -1.81116 3.94182 0
M  V30 9520 H 886.188 -3.39183 4.35499 0
M  V30 9521 H 888.664 -3.37905 2.42815 0
M  V30 9522 H 887.54 -4.70204 2.83194 0
M  V30 9523 H 887.801 -4.26887 1.14976 0
M  V30 9524 N 886.86 -1.21182 -1.00761 0
M  V30 9525 C 888.108 -1.02543 -1.74153 0
M  V30 9526 C 888.429 0.442372 -1.89916 0
M  V30 9527 O 887.699 1.31927 -1.44818 0
M  V30 9528 H 886.279 -0.37644 -0.645214 0
M  V30 9529 H 888.941 -1.52446 -1.21434 0
M  V30 9530 H 888.037 -1.49122 -2.7417 0
M  V30 9531 N 888.338 1.20213 -1.01915 0
M  V30 9532 C 889.268 2.25336 -0.612023 0
M  V30 9533 C 890.249 1.65933 0.374186 0
M  V30 9534 O 891.434 1.92464 0.259053 0
M  V30 9535 C 888.564 3.47267 0.047904 0
M  V30 9536 C 887.518 4.1928 -0.859557 0
M  V30 9537 C 886.844 5.3466 -0.0652655 0
M  V30 9538 C 888.144 4.75143 -2.1688 0
M  V30 9539 H 889.838 2.59645 -1.49079 0
M  V30 9540 H 887.384 1.24808 -0.718263 0
M  V30 9541 H 889.337 4.19991 0.344294 0
M  V30 9542 H 888.061 3.12129 0.961404 0
M  V30 9543 H 886.72 3.48425 -1.13999 0
M  V30 9544 H 886.368 4.95767 0.849964 0
M  V30 9545 H 886.068 5.83772 -0.669618 0
M  V30 9546 H 887.592 6.10187 0.224612 0
M  V30 9547 H 889.006 5.39672 -1.9346 0
M  V30 9548 H 887.403 5.34702 -2.72422 0
M  V30 9549 H 888.473 3.93744 -2.83008 0
M  V30 9550 O 889.855 0.931791 1.31909 0
M  V30 9551 H 890.546 0.55575 1.85556 0
M  V30 END ATOM
M  V30 BEGIN BOND
M  V30 END BOND
M  V30 END CTAB
M  END
$$$$
