drugbank_target|P23297 Protein S100-A1 (DB00768)
 OpenBabel12092119473D

  0  0  0     0  0            999 V3000
M  V30 BEGIN CTAB
M  V30 COUNTS 1455 1465 0 0 0
M  V30 BEGIN ATOM
M  V30 1 H -0.908 1.98254 -0.117106 0
M  V30 2 N 0 1.576 0 0
M  V30 3 C 0.933 2.03868 1.02534 0
M  V30 4 C 1.911 0.928543 1.3348 0
M  V30 5 O 3.095 1.19667 1.45644 0
M  V30 6 C 0.222 2.43627 2.35294 0
M  V30 7 C -0.732 3.65373 2.2001 0
M  V30 8 S 0.101 5.13292 1.52614 0
M  V30 9 C 1.257 5.56322 2.86805 0
M  V30 10 H 1.49 2.90518 0.631377 0
M  V30 11 H -0.977 1.52953 0.210867 0
M  V30 12 H 0.981 2.67203 3.11629 0
M  V30 13 H -0.358 1.57376 2.7183 0
M  V30 14 H -1.165 3.90944 3.18086 0
M  V30 15 H -1.563 3.418 1.51819 0
M  V30 16 H 0.729 5.58782 3.83104 0
M  V30 17 H 1.672 6.56266 2.65933 0
M  V30 18 H 2.08 4.83886 2.90714 0
M  V30 19 N 1.4781 -0.272755 1.55222 0
M  V30 20 C 2.7261 -1.00234 1.75492 0
M  V30 21 C 3.0471 -1.8681 0.5592 0
M  V30 22 O 2.3171 -1.91215 -0.425882 0
M  V30 23 H 0.8971 -0.373076 0.647166 0
M  V30 24 H 3.5591 -0.296926 1.92625 0
M  V30 25 H 2.6551 -1.63913 2.65592 0
M  V30 26 N 2.9562 -1.48159 -0.537278 0
M  V30 27 C 4.1812 -1.59707 -1.32319 0
M  V30 28 C 4.6062 -0.254859 -1.86365 0
M  V30 29 O 3.9642 0.772378 -1.64024 0
M  V30 30 C 4.0122 -2.6412 -2.45505 0
M  V30 31 O 3.1162 -2.20774 -3.48328 0
M  V30 32 H 2.4572 -0.535791 -0.392204 0
M  V30 33 H 4.9872 -1.94092 -0.647268 0
M  V30 34 H 4.9972 -2.85166 -2.91795 0
M  V30 35 H 3.6722 -3.61567 -2.05528 0
M  V30 36 H 2.2492 -2.09911 -3.08207 0
M  V30 37 N 4.4343 0.785586 -1.36625 0
M  V30 38 C 5.3443 1.92964 -1.33425 0
M  V30 39 C 6.3603 1.72394 -0.235851 0
M  V30 40 O 7.5363 1.95866 -0.468878 0
M  V30 41 C 4.6013 3.27884 -1.12662 0
M  V30 42 C 3.6623 3.61204 -2.32013 0
M  V30 43 C 2.8953 4.89687 -2.12231 0
M  V30 44 O 3.1183 5.59704 -1.09945 0
M  V30 45 O 2.0523 5.21752 -3.00098 0
M  V30 46 H 5.8783 1.98613 -2.29753 0
M  V30 47 H 3.4633 0.926384 -1.17211 0
M  V30 48 H 5.3453 4.08614 -1.03016 0
M  V30 49 H 4.0203 3.23118 -0.193991 0
M  V30 50 H 2.9273 2.80765 -2.47228 0
M  V30 51 H 4.2603 3.70698 -3.23796 0
M  V30 52 N 5.9124 1.20967 1.01018 0
M  V30 53 C 6.8424 0.988272 2.11555 0
M  V30 54 C 7.8234 -0.0849778 1.69888 0
M  V30 55 O 9.0084 0.0738202 1.9406 0
M  V30 56 C 6.1384 0.546528 3.42973 0
M  V30 57 C 5.0924 1.56375 3.9841 0
M  V30 58 C 4.4184 0.97842 5.25672 0
M  V30 59 C 5.7184 2.94922 4.31066 0
M  V30 60 H 7.4124 1.91276 2.30334 0
M  V30 61 H 4.9584 0.921073 1.1069 0
M  V30 62 H 6.9114 0.378839 4.19694 0
M  V30 63 H 5.6354 -0.413598 3.23971 0
M  V30 64 H 4.2944 1.71891 3.23804 0
M  V30 65 H 3.9424 0.0101688 5.02999 0
M  V30 66 H 3.6424 1.65784 5.63728 0
M  V30 67 H 5.1664 0.821939 6.05043 0
M  V30 68 H 6.5804 2.8288 4.9865 0
M  V30 69 H 4.9774 3.5983 4.80253 0
M  V30 70 H 6.0474 3.4616 3.39561 0
M  V30 71 N 7.3905 -1.2043 1.01659 0
M  V30 72 C 8.3005 -2.2689 0.596484 0
M  V30 73 C 9.3165 -1.70107 -0.36599 0
M  V30 74 O 10.4925 -2.00117 -0.226942 0
M  V30 75 C 7.5575 -3.4665 -0.0586659 0
M  V30 76 C 6.6185 -4.18662 0.949751 0
M  V30 77 C 5.8515 -5.32705 0.32577 0
M  V30 78 O 6.0745 -5.63656 -0.874509 0
M  V30 79 O 5.0085 -5.92803 1.04249 0
M  V30 80 H 8.8345 -2.65041 1.4828 0
M  V30 81 H 6.4195 -1.27048 0.786082 0
M  V30 82 H 8.3015 -4.19256 -0.424564 0
M  V30 83 H 6.9765 -3.10375 -0.91918 0
M  V30 84 H 5.8835 -3.48229 1.36702 0
M  V30 85 H 7.2165 -4.58878 1.78023 0
M  V30 86 N 8.8686 -0.792821 -1.36206 0
M  V30 87 C 10.0966 -0.378825 -2.03402 0
M  V30 88 C 10.5116 1.00586 -1.59774 0
M  V30 89 O 9.8686 1.64574 -0.788764 0
M  V30 90 C 9.9196 -0.43683 -3.58851 0
M  V30 91 O 9.6406 -1.76691 -4.00889 0
M  V30 92 C 11.1416 -0.0138943 -4.43298 0
M  V30 93 H 8.3616 -0.155673 -0.652692 0
M  V30 94 H 10.9056 -1.07261 -1.74113 0
M  V30 95 H 9.0606 0.208575 -3.86838 0
M  V30 96 H 9.4746 -1.72011 -4.95492 0
M  V30 97 H 10.9486 -0.105615 -5.51899 0
M  V30 98 H 11.4256 1.03915 -4.2673 0
M  V30 99 H 12.0316 -0.63192 -4.20579 0
M  V30 100 N 10.3467 1.47872 -0.545128 0
M  V30 101 C 11.3097 2.28337 0.198717 0
M  V30 102 C 12.3097 1.36255 0.853888 0
M  V30 103 O 13.4997 1.59003 0.711606 0
M  V30 104 C 10.6317 3.15585 1.28915 0
M  V30 105 H 11.8247 2.95567 -0.507941 0
M  V30 106 H 9.3777 1.53362 -0.301616 0
M  V30 107 H 10.1127 2.53019 2.02859 0
M  V30 108 H 9.8977 3.83337 0.824309 0
M  V30 109 H 11.3877 3.76243 1.81194 0
M  V30 110 N 11.8248 0.280983 1.55075 0
M  V30 111 C 12.7578 -0.645439 2.18882 0
M  V30 112 C 13.7358 -1.14786 1.15165 0
M  V30 113 O 14.9198 -1.21975 1.43716 0
M  V30 114 C 12.0468 -1.88088 2.81674 0
M  V30 115 C 11.0928 -1.51343 3.98745 0
M  V30 116 S 11.9258 -0.586548 5.32278 0
M  V30 117 C 13.0818 -1.83024 5.98543 0
M  V30 118 H 13.3148 -0.1033 2.9712 0
M  V30 119 H 10.8478 0.0652099 1.54262 0
M  V30 120 H 12.8058 -2.58997 3.18482 0
M  V30 121 H 11.4668 -2.39417 2.03318 0
M  V30 122 H 10.6598 -2.43289 4.41392 0
M  V30 123 H 10.2618 -0.884477 3.63391 0
M  V30 124 H 12.5538 -2.77342 6.18133 0
M  V30 125 H 13.4968 -1.44668 6.93164 0
M  V30 126 H 13.9048 -1.99785 5.27964 0
M  V30 127 N 13.3029 -1.57598 0.00835791 0
M  V30 128 C 14.2129 -2.12385 -0.996487 0
M  V30 129 C 15.2289 -1.07108 -1.37127 0
M  V30 130 O 16.4049 -1.39055 -1.4569 0
M  V30 131 C 13.4699 -2.62314 -2.26699 0
M  V30 132 C 12.5309 -3.82225 -1.95456 0
M  V30 133 C 11.7639 -4.29763 -3.16449 0
M  V30 134 O 11.9869 -3.76584 -4.28416 0
M  V30 135 O 10.9209 -5.21832 -2.99958 0
M  V30 136 H 14.7469 -2.98479 -0.560725 0
M  V30 137 H 12.3319 -1.47903 -0.210987 0
M  V30 138 H 14.2139 -2.94589 -3.01322 0
M  V30 139 H 12.8889 -1.79313 -2.69497 0
M  V30 140 H 11.7959 -3.54909 -1.18282 0
M  V30 141 H 13.1289 -4.66324 -1.57489 0
M  V30 142 N 14.781 0.264519 -1.55364 0
M  V30 143 C 16.009 1.013 -1.80405 0
M  V30 144 C 16.424 1.79618 -0.581622 0
M  V30 145 O 15.781 1.76879 0.449468 0
M  V30 146 C 15.832 1.96487 -3.03439 0
M  V30 147 O 15.553 1.21341 -4.20961 0
M  V30 148 C 17.054 2.83079 -3.41147 0
M  V30 149 H 14.274 0.298875 -0.600762 0
M  V30 150 H 16.818 0.292736 -2.02394 0
M  V30 151 H 14.973 2.63965 -2.83551 0
M  V30 152 H 15.387 1.85573 -4.90574 0
M  V30 153 H 16.861 3.4565 -4.30384 0
M  V30 154 H 17.338 3.53286 -2.60932 0
M  V30 155 H 17.944 2.2108 -3.63323 0
M  V30 156 N 16.2591 1.48442 0.529413 0
M  V30 157 C 17.1891 1.65902 1.64313 0
M  V30 158 C 18.1701 0.507897 1.6234 0
M  V30 159 O 19.3551 0.740503 1.79528 0
M  V30 160 C 16.4851 1.69911 3.02898 0
M  V30 161 C 15.4391 2.8453 3.19729 0
M  V30 162 C 14.7651 2.73629 4.59381 0
M  V30 163 C 16.0651 4.25821 3.02447 0
M  V30 164 H 17.7591 2.5914 1.49955 0
M  V30 165 H 15.3051 1.24709 0.719982 0
M  V30 166 H 17.2581 1.80715 3.80684 0
M  V30 167 H 15.9821 0.732524 3.18279 0
M  V30 168 H 14.6411 2.73283 2.44361 0
M  V30 169 H 14.2891 1.74938 4.71599 0
M  V30 170 H 13.9891 3.50541 4.71588 0
M  V30 171 H 15.5131 2.86401 5.39265 0
M  V30 172 H 16.9271 4.37898 3.70024 0
M  V30 173 H 15.3241 5.03735 3.26146 0
M  V30 174 H 16.3941 4.42244 1.98867 0
M  V30 175 N 17.7372 -0.778329 1.37039 0
M  V30 176 C 18.9862 -1.53189 1.3121 0
M  V30 177 C 19.2992 -1.95328 -0.103095 0
M  V30 178 O 20.5052 -2.70012 -0.283826 0
M  V30 179 C 18.9612 -2.76591 2.30272 0
M  V30 180 C 18.5692 -2.41577 3.77286 0
M  V30 181 C 20.3132 -3.5455 2.33441 0
M  V30 182 C 18.2202 -3.61441 4.68096 0
M  V30 183 H 17.1502 -0.5751 0.487622 0
M  V30 184 H 19.8012 -0.853101 1.62464 0
M  V30 185 H 18.1832 -3.46326 1.92027 0
M  V30 186 H 19.3572 -1.79668 4.2433 0
M  V30 187 H 17.6722 -1.76806 3.76999 0
M  V30 188 H 20.2692 -4.43628 2.98493 0
M  V30 189 H 20.6122 -3.93936 1.34611 0
M  V30 190 H 21.1452 -2.91805 2.7036 0
M  V30 191 H 17.8842 -3.27142 5.6803 0
M  V30 192 H 17.4042 -4.22478 4.25761 0
M  V30 193 H 19.0832 -4.28335 4.8491 0
M  V30 194 N 19.2153 -1.21501 -1.00376 0
M  V30 195 C 20.1633 -0.972442 -2.11297 0
M  V30 196 C 21.1573 0.080731 -1.69208 0
M  V30 197 O 22.3633 -0.0707666 -1.79861 0
M  V30 198 H 18.7383 -0.297218 -0.690772 0
M  V30 199 H 20.7093 -1.91394 -2.28934 0
M  V30 200 C 19.4583 -0.555065 -3.43241 0
M  V30 201 H 18.7813 -1.35709 -3.76062 0
M  V30 202 H 20.2213 -0.424664 -4.21868 0
M  V30 203 C 18.6803 0.734147 -3.28804 0
M  V30 204 O 19.2103 1.78937 -3.59645 0
M  V30 205 N 17.4163 0.701133 -2.82015 0
M  V30 206 H 16.9633 -0.157874 -2.57116 0
M  V30 207 H 16.9213 1.56403 -2.72737 0
M  V30 208 N 20.6934 1.19889 -1.02296 0
M  V30 209 C 21.9394 1.89701 -0.717033 0
M  V30 210 C 22.2724 1.7905 0.751989 0
M  V30 211 O 21.5474 1.17891 1.547 0
M  V30 212 C 21.8304 3.40858 -1.16136 0
M  V30 213 C 21.6834 3.60411 -2.69117 0
M  V30 214 C 23.0024 4.33876 -0.737549 0
M  V30 215 H 20.1214 0.688874 -0.261957 0
M  V30 216 H 22.7634 1.41154 -1.27183 0
M  V30 217 H 20.9134 3.82335 -0.689342 0
M  V30 218 H 22.5854 3.28145 -3.2422 0
M  V30 219 H 20.8284 3.03665 -3.0979 0
M  V30 220 H 21.4994 4.66396 -2.95261 0
M  V30 221 H 23.9754 4.00081 -1.14344 0
M  V30 222 H 22.8514 5.38242 -1.0764 0
M  V30 223 H 23.1124 4.40628 0.360436 0
M  V30 224 N 22.1715 0.800033 1.35784 0
M  V30 225 C 23.4185 0.377342 1.98953 0
M  V30 226 C 23.7465 -1.05378 1.6348 0
M  V30 227 O 23.0015 -1.74459 0.886707 0
M  V30 228 C 23.3005 0.500276 3.53881 0
M  V30 229 C 22.9665 1.89375 4.09204 0
M  V30 230 C 21.6285 2.27499 4.24025 0
M  V30 231 C 23.9805 2.8057 4.39238 0
M  V30 232 C 21.3085 3.562 4.66195 0
M  V30 233 C 23.6605 4.0871 4.82844 0
M  V30 234 C 22.3245 4.46843 4.95871 0
M  V30 235 H 21.5945 0.138079 0.728021 0
M  V30 236 H 24.2415 1.01955 1.62103 0
M  V30 237 H 22.5465 -0.225405 3.91151 0
M  V30 238 H 24.2435 0.154097 4.00704 0
M  V30 239 H 20.8335 1.58753 3.98115 0
M  V30 240 H 25.0175 2.52367 4.27346 0
M  V30 241 H 20.2735 3.85602 4.74469 0
M  V30 242 H 24.4475 4.79481 5.05046 0
M  V30 243 H 22.0745 5.46623 5.28306 0
M  V30 244 N 23.6496 -1.47581 0.552962 0
M  V30 245 C 24.5996 -2.26961 -0.217423 0
M  V30 246 C 25.5836 -1.34099 -0.889168 0
M  V30 247 O 26.7756 -1.58483 -0.788176 0
M  V30 248 C 23.9046 -3.19756 -1.24944 0
M  V30 249 C 22.9906 -4.20097 -0.581327 0
M  V30 250 N 23.3816 -5.04614 0.346171 0
M  V30 251 C 21.6796 -4.38099 -0.835767 0
M  V30 252 C 22.3806 -5.77052 0.733854 0
M  V30 253 N 21.3566 -5.43526 0.0896567 0
M  V30 254 H 25.1586 -2.89688 0.495761 0
M  V30 255 H 22.6726 -1.58068 0.372597 0
M  V30 256 H 24.6696 -3.75305 -1.81527 0
M  V30 257 H 23.3296 -2.58585 -1.96376 0
M  V30 258 H 24.3406 -5.12869 0.720098 0
M  V30 259 H 21.0176 -3.88102 -1.53892 0
M  V30 260 H 22.4076 -6.5504 1.49574 0
M  V30 261 N 25.1277 -0.289203 -1.54924 0
M  V30 262 C 26.0907 0.579144 -2.21762 0
M  V30 263 C 27.0907 1.07047 -1.1999 0
M  V30 264 O 28.2807 0.968384 -1.44803 0
M  V30 265 C 25.4127 1.80055 -2.8947 0
M  V30 266 H 26.6057 -0.00464908 -2.999 0
M  V30 267 H 24.1587 -0.0399306 -1.56249 0
M  V30 268 H 24.8937 2.42449 -2.15381 0
M  V30 269 H 24.6787 1.45602 -3.64064 0
M  V30 270 H 26.1687 2.41773 -3.40493 0
M  V30 271 N 26.6058 1.57591 -0.0167156 0
M  V30 272 C 27.5558 2.05953 0.978137 0
M  V30 273 C 28.5398 0.957532 1.29306 0
M  V30 274 O 29.7318 1.22119 1.28125 0
M  V30 275 C 26.8608 2.58006 2.26468 0
M  V30 276 C 25.9468 3.75113 1.97867 0
M  V30 277 N 26.3378 4.86187 1.39486 0
M  V30 278 C 24.6358 3.83363 2.27924 0
M  V30 279 C 25.3368 5.67502 1.27735 0
M  V30 280 N 24.3128 5.14023 1.76866 0
M  V30 281 H 28.1148 2.89236 0.521522 0
M  V30 282 H 25.6288 1.61301 0.188596 0
M  V30 283 H 27.6258 2.90937 2.98599 0
M  V30 284 H 26.2858 1.76148 2.72767 0
M  V30 285 H 27.2968 5.06695 1.07147 0
M  V30 286 H 23.9738 3.1239 2.76982 0
M  V30 287 H 25.3638 6.66791 0.826978 0
M  V30 288 N 28.0839 -0.256276 1.55502 0
M  V30 289 C 29.3089 -1.00766 1.81276 0
M  V30 290 C 29.7339 -1.78524 0.59252 0
M  V30 291 O 29.0919 -1.75413 -0.45827 0
M  V30 292 C 29.1399 -1.92869 3.04687 0
M  V30 293 O 28.2439 -3.019 2.80945 0
M  V30 294 H 27.5849 -0.287224 0.598664 0
M  V30 295 H 30.1149 -0.280109 2.02674 0
M  V30 296 H 30.1249 -2.34511 3.33869 0
M  V30 297 H 28.7999 -1.35689 3.93143 0
M  V30 298 H 27.3769 -2.64454 2.62904 0
M  V30 299 N 29.562 -1.4872 -0.521534 0
M  V30 300 C 30.81 -1.56857 -1.27437 0
M  V30 301 C 31.131 -0.247982 -1.93417 0
M  V30 302 O 30.401 0.731151 -1.81744 0
M  V30 303 H 28.981 -0.577885 -0.473347 0
M  V30 304 H 31.643 -1.85233 -0.606205 0
M  V30 305 H 30.739 -2.35402 -2.0492 0
M  V30 306 N 31.0401 0.771051 -1.3745 0
M  V30 307 C 31.9871 1.88435 -1.3327 0
M  V30 308 C 32.9571 1.64914 -0.198136 0
M  V30 309 O 34.1421 1.86821 -0.387606 0
M  V30 310 C 31.2821 3.25509 -1.14622 0
M  V30 311 C 30.3951 3.60979 -2.37314 0
M  V30 312 C 29.5301 4.87265 -2.11533 0
M  V30 313 C 28.5691 5.15469 -3.30088 0
M  V30 314 N 27.7061 6.32944 -3.03853 0
M  V30 315 H 32.5461 1.91344 -2.28455 0
M  V30 316 H 30.0831 0.935466 -1.13523 0
M  V30 317 H 32.0411 4.04582 -1.01831 0
M  V30 318 H 30.6711 3.21974 -0.230837 0
M  V30 319 H 29.7231 2.76885 -2.60842 0
M  V30 320 H 31.0351 3.77759 -3.25729 0
M  V30 321 H 30.1891 5.74244 -1.95777 0
M  V30 322 H 28.9281 4.7259 -1.20457 0
M  V30 323 H 27.9331 4.26966 -3.46382 0
M  V30 324 H 29.1581 5.32052 -4.22016 0
M  V30 325 H 27.1041 6.19625 -2.15407 0
M  V30 326 H 27.0211 6.50143 -3.85812 0
M  V30 327 H 28.2891 7.22857 -2.91716 0
M  V30 328 N 32.5182 1.22032 0.997298 0
M  V30 329 C 33.4282 1.00271 2.12092 0
M  V30 330 C 34.4442 -0.047621 1.73935 0
M  V30 331 O 35.6202 0.144136 2.00884 0
M  V30 332 C 32.6852 0.578449 3.4184 0
M  V30 333 C 31.7462 1.70189 3.94125 0
M  V30 334 C 30.9792 1.29778 5.17681 0
M  V30 335 O 31.2022 0.174676 5.70132 0
M  V30 336 O 30.1362 2.11261 5.63607 0
M  V30 337 H 33.9622 1.94398 2.3333 0
M  V30 338 H 31.5472 1.00587 1.10465 0
M  V30 339 H 33.4292 0.351998 4.19927 0
M  V30 340 H 32.1042 -0.334019 3.21972 0
M  V30 341 H 31.0112 1.98282 3.1723 0
M  V30 342 H 32.3442 2.59206 4.18417 0
M  V30 343 N 33.9963 -1.19345 1.0293 0
M  V30 344 C 35.2443 -1.88665 0.724574 0
M  V30 345 C 35.5653 -1.80036 -0.749144 0
M  V30 346 O 34.8353 -1.2111 -1.53978 0
M  V30 347 H 33.4153 -0.698406 0.265025 0
M  V30 348 H 36.0773 -1.44885 1.30362 0
M  V30 349 H 35.1733 -2.94987 1.01926 0
M  V30 350 N 35.4744 -0.807222 -1.35358 0
M  V30 351 C 36.7514 -0.311126 -1.9311 0
M  V30 352 C 37.1314 1.19937 -1.73719 0
M  V30 353 O 36.4794 1.99918 -1.10657 0
M  V30 354 C 36.6894 -0.723226 -3.41424 0
M  V30 355 C 38.0374 -0.713078 -4.18569 0
M  V30 356 O 39.0614 -0.664811 -3.49941 0
M  V30 357 O 37.9204 -0.772022 -5.41019 0
M  V30 358 H 35.0144 -0.081526 -0.822972 0
M  V30 359 H 37.5604 -0.890962 -1.4443 0
M  V30 360 H 36.3324 -1.76426 -3.4927 0
M  V30 361 H 35.9554 -0.118232 -3.97424 0
M  V30 362 N 36.9525 1.47285 -0.560781 0
M  V30 363 C 37.8995 2.30058 0.18491 0
M  V30 364 C 38.8695 1.39281 0.904986 0
M  V30 365 O 40.0545 1.68241 0.899979 0
M  V30 366 C 37.1945 3.23317 1.20666 0
M  V30 367 C 36.3075 4.29186 0.492285 0
M  V30 368 C 35.4425 5.09592 1.49964 0
M  V30 369 C 34.4815 6.07232 0.770439 0
M  V30 370 N 33.6185 6.80584 1.72479 0
M  V30 371 H 38.4585 2.93302 -0.527048 0
M  V30 372 H 35.9955 1.44568 -0.271738 0
M  V30 373 H 37.9535 3.75811 1.81168 0
M  V30 374 H 36.5835 2.61929 1.88661 0
M  V30 375 H 35.6355 3.7972 -0.227333 0
M  V30 376 H 36.9475 4.98738 -0.0787929 0
M  V30 377 H 36.1015 5.66254 2.17809 0
M  V30 378 H 34.8405 4.3995 2.10464 0
M  V30 379 H 33.8455 5.49745 0.0780846 0
M  V30 380 H 35.0705 6.78884 0.171134 0
M  V30 381 H 33.0165 6.1367 2.3183 0
M  V30 382 H 32.9335 7.46319 1.20596 0
M  V30 383 H 34.2015 7.41818 2.39428 0
M  V30 384 N 38.4306 0.297415 1.54768 0
M  V30 385 C 39.6606 -0.315165 2.04182 0
M  V30 386 C 40.0686 -1.4834 1.17439 0
M  V30 387 O 39.4116 -1.82695 0.191891 0
M  V30 388 C 39.4736 -0.837583 3.49607 0
M  V30 389 C 39.1376 0.204912 4.5654 0
M  V30 390 C 40.1346 1.03214 5.09552 0
M  V30 391 C 37.8196 0.345578 5.0111 0
M  V30 392 C 39.8136 1.986 6.05671 0
M  V30 393 C 37.5006 1.30289 5.97049 0
M  V30 394 C 38.4986 2.12159 6.49213 0
M  V30 395 O 38.1866 3.06268 7.43273 0
M  V30 396 H 37.9186 -0.0729646 0.672051 0
M  V30 397 H 40.4726 0.433907 2.00765 0
M  V30 398 H 38.7026 -1.63712 3.50336 0
M  V30 399 H 40.3916 -1.36566 3.82236 0
M  V30 400 H 41.1576 0.934312 4.75916 0
M  V30 401 H 37.0366 -0.28171 4.60138 0
M  V30 402 H 40.5806 2.62542 6.46311 0
M  V30 403 H 36.4776 1.40145 6.30103 0
M  V30 404 H 37.2456 3.01205 7.61064 0
M  V30 405 N 39.9087 -1.5758 0.0250728 0
M  V30 406 C 40.8557 -2.09973 -0.958129 0
M  V30 407 C 41.8257 -1.00085 -1.3256 0
M  V30 408 O 43.0107 -1.27481 -1.41962 0
M  V30 409 C 40.1507 -2.62812 -2.2366 0
M  V30 410 C 39.2637 -3.86693 -1.92594 0
M  V30 411 C 38.3987 -4.27941 -3.14707 0
M  V30 412 C 37.4377 -5.44591 -2.79442 0
M  V30 413 N 36.5747 -5.81014 -3.94167 0
M  V30 414 H 41.4147 -2.937 -0.504428 0
M  V30 415 H 38.9517 -1.45172 -0.237392 0
M  V30 416 H 40.9097 -2.91536 -2.98434 0
M  V30 417 H 39.5397 -1.81922 -2.66654 0
M  V30 418 H 38.5917 -3.64723 -1.0808 0
M  V30 419 H 39.9037 -4.71547 -1.62619 0
M  V30 420 H 39.0577 -4.58079 -3.97804 0
M  V30 421 H 37.7967 -3.41845 -3.4784 0
M  V30 422 H 36.8017 -5.1415 -1.94755 0
M  V30 423 H 38.0267 -6.32382 -2.47528 0
M  V30 424 H 35.9727 -4.97874 -4.2715 0
M  V30 425 H 35.8897 -6.60498 -3.67801 0
M  V30 426 H 37.1577 -6.15756 -4.7798 0
M  V30 427 N 41.3868 0.248026 -1.55636 0
M  V30 428 C 42.3168 1.31079 -1.93237 0
M  V30 429 C 43.2978 1.50264 -0.797174 0
M  V30 430 O 44.4828 1.62891 -1.05737 0
M  V30 431 C 41.6128 2.66575 -2.22609 0
M  V30 432 C 40.5668 2.62087 -3.3837 0
M  V30 433 C 39.8928 4.01369 -3.53281 0
M  V30 434 C 41.1928 2.19171 -4.7409 0
M  V30 435 H 42.8868 0.998556 -2.82257 0
M  V30 436 H 40.4328 0.47891 -1.35803 0
M  V30 437 H 42.3858 3.41057 -2.47503 0
M  V30 438 H 41.1098 2.99432 -1.30414 0
M  V30 439 H 39.7688 1.90063 -3.13483 0
M  V30 440 H 39.4168 4.31489 -2.58508 0
M  V30 441 H 39.1168 3.99254 -4.31127 0
M  V30 442 H 40.6408 4.77552 -3.80495 0
M  V30 443 H 42.0548 2.83384 -4.98363 0
M  V30 444 H 40.4518 2.2817 -5.5503 0
M  V30 445 H 41.5218 1.14336 -4.71227 0
M  V30 446 N 42.8649 1.48995 0.513639 0
M  V30 447 C 44.0899 1.61792 1.29762 0
M  V30 448 C 44.5149 0.284475 1.85936 0
M  V30 449 O 43.8729 -0.746185 1.65232 0
M  V30 450 C 43.9209 2.67993 2.41272 0
M  V30 451 O 43.0249 2.26287 3.44772 0
M  V30 452 H 42.3659 0.541963 0.38363 0
M  V30 453 H 44.8959 1.95097 0.616307 0
M  V30 454 H 44.9059 2.89772 2.87221 0
M  V30 455 H 43.5809 3.64791 1.9975 0
M  V30 456 H 42.1579 2.14788 3.04829 0
M  V30 457 N 44.343 -0.763751 1.37857 0
M  V30 458 C 45.29 -1.87726 1.34267 0
M  V30 459 C 46.26 -1.64807 0.206879 0
M  V30 460 O 47.445 -1.86613 0.397508 0
M  V30 461 C 44.585 -3.24896 1.16346 0
M  V30 462 C 43.698 -3.59716 2.39225 0
M  V30 463 C 42.833 -4.86137 2.14114 0
M  V30 464 C 41.872 -5.13711 3.32817 0
M  V30 465 N 41.009 -6.31323 3.07206 0
M  V30 466 H 45.849 -1.90129 2.29466 0
M  V30 467 H 43.386 -0.929433 1.14017 0
M  V30 468 H 45.344 -4.04036 1.03975 0
M  V30 469 H 43.974 -3.21847 0.247909 0
M  V30 470 H 43.026 -2.75498 2.62307 0
M  V30 471 H 44.338 -3.76027 3.27728 0
M  V30 472 H 43.492 -5.73198 1.9882 0
M  V30 473 H 42.231 -4.71945 1.22961 0
M  V30 474 H 41.236 -4.25123 3.48641 0
M  V30 475 H 42.461 -5.29807 4.24832 0
M  V30 476 H 40.407 -6.18474 2.1869 0
M  V30 477 H 40.324 -6.48087 3.89254 0
M  V30 478 H 41.592 -7.213 2.95546 0
M  V30 479 N 45.8211 -1.22559 -0.990812 0
M  V30 480 C 46.7681 -0.997519 -2.0813 0
M  V30 481 C 47.7381 0.0814702 -1.659 0
M  V30 482 O 48.9231 -0.0685424 -1.90677 0
M  V30 483 C 46.0631 -0.583615 -3.40129 0
M  V30 484 C 45.1761 -1.7336 -3.9569 0
M  V30 485 C 44.3111 -1.26748 -5.15857 0
M  V30 486 C 43.3501 -2.38888 -5.63559 0
M  V30 487 N 42.4871 -1.93308 -6.74964 0
M  V30 488 H 47.3271 -1.93099 -2.26973 0
M  V30 489 H 44.8641 -0.962114 -1.11273 0
M  V30 490 H 46.8221 -0.324801 -4.15934 0
M  V30 491 H 45.4521 0.312845 -3.2128 0
M  V30 492 H 44.5041 -2.10669 -3.16738 0
M  V30 493 H 45.8161 -2.57704 -4.27071 0
M  V30 494 H 44.9701 -0.966173 -5.98957 0
M  V30 495 H 43.7091 -0.394272 -4.86104 0
M  V30 496 H 42.7141 -2.69805 -4.79046 0
M  V30 497 H 43.9391 -3.26728 -5.95336 0
M  V30 498 H 41.8851 -1.08352 -6.4699 0
M  V30 499 H 41.8021 -2.71217 -7.05675 0
M  V30 500 H 43.0701 -1.66252 -7.61564 0
M  V30 501 N 47.2992 1.18797 -1.03562 0
M  V30 502 C 48.2092 2.25913 -0.632505 0
M  V30 503 C 49.2252 1.70668 0.338882 0
M  V30 504 O 50.4012 2.00453 0.195076 0
M  V30 505 C 47.4662 3.467 0.00350942 0
M  V30 506 C 46.5272 4.17098 -1.01624 0
M  V30 507 C 45.7602 5.32119 -0.410478 0
M  V30 508 O 45.9832 5.64976 0.784725 0
M  V30 509 O 44.9172 5.9107 -1.13667 0
M  V30 510 H 48.7432 2.62648 -1.52478 0
M  V30 511 H 46.3282 1.25781 -0.806195 0
M  V30 512 H 48.2102 4.19878 0.35781 0
M  V30 513 H 46.8852 3.11798 0.869686 0
M  V30 514 H 45.7922 3.4601 -1.42224 0
M  V30 515 H 47.1252 4.55987 -1.85301 0
M  V30 516 N 48.7773 0.814389 1.34928 0
M  V30 517 C 49.7073 0.244827 2.32213 0
M  V30 518 C 50.6883 -0.634024 1.57842 0
M  V30 519 O 51.8733 -0.562676 1.8587 0
M  V30 520 C 49.0033 -0.601106 3.42058 0
M  V30 521 C 47.9573 0.179896 4.27622 0
M  V30 522 C 47.2833 -0.788237 5.28858 0
M  V30 523 C 48.5833 1.38329 5.03649 0
M  V30 524 H 50.2773 1.05763 2.80097 0
M  V30 525 H 47.8233 0.510029 1.34665 0
M  V30 526 H 49.7763 -1.00968 4.09125 0
M  V30 527 H 48.5003 -1.44688 2.92802 0
M  V30 528 H 47.1593 0.569739 3.62146 0
M  V30 529 H 46.8073 -1.62973 4.75866 0
M  V30 530 H 46.5073 -0.269942 5.8698 0
M  V30 531 H 48.0313 -1.19485 5.98795 0
M  V30 532 H 49.4453 1.04918 5.63618 0
M  V30 533 H 47.8423 1.83662 5.71304 0
M  V30 534 H 48.9123 2.16592 4.33839 0
M  V30 535 N 50.2554 -1.46986 0.568584 0
M  V30 536 C 51.2024 -2.30153 -0.172707 0
M  V30 537 C 52.1724 -1.39759 -0.897586 0
M  V30 538 O 53.3574 -1.68716 -0.891044 0
M  V30 539 C 50.4974 -3.23952 -1.1895 0
M  V30 540 C 49.6104 -4.29441 -0.469517 0
M  V30 541 C 48.7454 -5.1038 -1.47259 0
M  V30 542 C 47.7844 -6.07632 -0.738225 0
M  V30 543 N 46.9214 -6.8149 -1.68868 0
M  V30 544 H 51.7614 -2.93019 0.542596 0
M  V30 545 H 49.2984 -1.44422 0.279401 0
M  V30 546 H 51.2564 -3.76767 -1.79173 0
M  V30 547 H 49.8864 -2.62926 -1.87269 0
M  V30 548 H 48.9384 -3.79594 0.247467 0
M  V30 549 H 50.2504 -4.98689 0.105241 0
M  V30 550 H 49.4044 -5.67402 -2.14803 0
M  V30 551 H 48.1434 -4.4106 -2.08128 0
M  V30 552 H 47.1484 -5.49778 -0.0489293 0
M  V30 553 H 48.3734 -6.78966 -0.135129 0
M  V30 554 H 46.3194 -6.14891 -2.28573 0
M  V30 555 H 46.2364 -7.46948 -1.16636 0
M  V30 556 H 47.5044 -7.43078 -2.3549 0
M  V30 557 N 51.7335 -0.305618 -1.54608 0
M  V30 558 C 52.6435 0.57778 -2.27374 0
M  V30 559 C 53.6595 1.14451 -1.31061 0
M  V30 560 O 54.8355 1.16831 -1.6405 0
M  V30 561 C 51.9005 1.73123 -3.00382 0
M  V30 562 C 50.9615 1.19812 -4.12242 0
M  V30 563 C 50.1945 2.2966 -4.81759 0
M  V30 564 O 50.4175 3.49651 -4.50666 0
M  V30 565 O 49.3515 1.96091 -5.69062 0
M  V30 566 H 53.1775 -0.012624 -3.03697 0
M  V30 567 H 50.7625 -0.0719184 -1.49227 0
M  V30 568 H 52.6445 2.40315 -3.4616 0
M  V30 569 H 51.3195 2.30815 -2.26949 0
M  V30 570 H 50.2265 0.491798 -3.70853 0
M  V30 571 H 51.5595 0.666566 -4.87666 0
M  V30 572 N 53.2116 1.57565 -0.0334293 0
M  V30 573 C 54.1416 2.13511 0.945265 0
M  V30 574 C 55.1226 1.05231 1.33643 0
M  V30 575 O 56.3076 1.33084 1.41429 0
M  V30 576 C 53.4376 2.6657 2.22616 0
M  V30 577 C 52.3916 3.79676 1.97561 0
M  V30 578 C 51.7176 4.1918 3.31952 0
M  V30 579 C 53.0176 5.0557 1.31135 0
M  V30 580 H 54.7116 2.95538 0.479325 0
M  V30 581 H 52.2576 1.42166 0.229115 0
M  V30 582 H 54.2106 3.04344 2.91466 0
M  V30 583 H 52.9346 1.8171 2.71384 0
M  V30 584 H 51.5936 3.42347 1.31127 0
M  V30 585 H 51.2416 3.31296 3.78487 0
M  V30 586 H 50.9416 4.95402 3.15992 0
M  V30 587 H 52.4656 4.59541 4.02063 0
M  V30 588 H 53.8796 5.40903 1.89992 0
M  V30 589 H 52.2766 5.86818 1.25559 0
M  V30 590 H 53.3466 4.84062 0.284894 0
M  V30 591 N 54.6897 -0.239769 1.55765 0
M  V30 592 C 55.6197 -1.30052 1.9393 0
M  V30 593 C 56.6007 -1.49839 0.805132 0
M  V30 594 O 57.7857 -1.62328 1.06599 0
M  V30 595 C 54.9157 -2.65391 2.2402 0
M  V30 596 C 53.8697 -2.60289 3.39755 0
M  V30 597 C 53.1957 -3.99489 3.55405 0
M  V30 598 C 54.4957 -2.16654 4.75246 0
M  V30 599 H 56.1897 -0.983573 2.82783 0
M  V30 600 H 53.7357 -0.471701 1.36055 0
M  V30 601 H 55.6887 -3.3974 2.49308 0
M  V30 602 H 54.4127 -2.98736 1.32 0
M  V30 603 H 53.0717 -1.88398 3.14487 0
M  V30 604 H 52.7197 -4.30112 2.60793 0
M  V30 605 H 52.4197 -3.96962 4.33238 0
M  V30 606 H 53.9437 -4.75528 3.83022 0
M  V30 607 H 55.3577 -2.80737 4.99859 0
M  V30 608 H 53.7547 -2.25223 5.56232 0
M  V30 609 H 54.8247 -1.11835 4.71827 0
M  V30 610 N 56.1678 -1.49265 -0.50573 0
M  V30 611 C 57.0998 -1.617 -1.62437 0
M  V30 612 C 58.1128 -0.499924 -1.54934 0
M  V30 613 O 59.3018 -0.771785 -1.60953 0
M  V30 614 C 56.4018 -1.5533 -3.01207 0
M  V30 615 C 55.5748 -2.8249 -3.33943 0
M  V30 616 C 54.6338 -2.69238 -4.52103 0
M  V30 617 O 53.6598 -3.43167 -4.5412 0
M  V30 618 N 54.8618 -1.80468 -5.51735 0
M  V30 619 H 57.6268 -2.58177 -1.52199 0
M  V30 620 H 55.1878 -1.46294 -0.693511 0
M  V30 621 H 57.1798 -1.44125 -3.78167 0
M  V30 622 H 55.7498 -0.667297 -3.05395 0
M  V30 623 H 54.9698 -3.08081 -2.45926 0
M  V30 624 H 56.2578 -3.66802 -3.5261 0
M  V30 625 H 55.6558 -1.19653 -5.52901 0
M  V30 626 H 54.2128 -1.75188 -6.27816 0
M  V30 627 N 57.6459 0.756429 -1.3826 0
M  V30 628 C 58.8739 1.54565 -1.3754 0
M  V30 629 C 59.2889 1.88767 0.0355331 0
M  V30 630 O 58.6459 1.52572 1.0014 0
M  V30 631 C 58.6969 2.84654 -2.22833 0
M  V30 632 O 58.4179 2.51912 -3.5843 0
M  V30 633 C 59.9189 3.78807 -2.30261 0
M  V30 634 H 57.1389 0.478353 -0.470553 0
M  V30 635 H 59.6829 0.936381 -1.81803 0
M  V30 636 H 57.8379 3.41965 -1.8204 0
M  V30 637 H 58.2519 3.35325 -4.03308 0
M  V30 638 H 59.7259 4.67045 -2.94233 0
M  V30 639 H 60.2029 4.19038 -1.31545 0
M  V30 640 H 60.8089 3.2742 -2.71433 0
M  V30 641 N 59.124 1.23083 0.984299 0
M  V30 642 C 60.034 1.02515 2.11016 0
M  V30 643 C 61.05 -0.0291702 1.73976 0
M  V30 644 O 62.226 0.165434 2.00719 0
M  V30 645 C 59.291 0.614673 3.41208 0
M  V30 646 C 58.352 1.74359 3.92297 0
M  V30 647 C 57.585 1.35261 5.16275 0
M  V30 648 O 57.808 0.235136 5.69915 0
M  V30 649 O 56.742 2.17227 5.61334 0
M  V30 650 H 60.568 1.96862 2.31255 0
M  V30 651 H 58.153 1.01753 1.09392 0
M  V30 652 H 60.035 0.396518 4.1953 0
M  V30 653 H 58.71 -0.299851 3.22308 0
M  V30 654 H 57.617 2.01635 3.1511 0
M  V30 655 H 58.95 2.63629 4.15645 0
M  V30 656 N 60.6021 -1.18246 1.0419 0
M  V30 657 C 61.5321 -2.24127 0.654914 0
M  V30 658 C 62.5131 -1.66617 -0.342451 0
M  V30 659 O 63.6981 -1.92924 -0.222277 0
M  V30 660 C 60.8281 -3.47295 0.0183757 0
M  V30 661 C 59.7821 -4.17563 0.939414 0
M  V30 662 C 59.1081 -5.34438 0.167286 0
M  V30 663 C 60.4081 -4.70917 2.25908 0
M  V30 664 H 62.1021 -2.56753 1.54007 0
M  V30 665 H 59.6481 -1.23414 0.74195 0
M  V30 666 H 61.6011 -4.20572 -0.264082 0
M  V30 667 H 60.3251 -3.13907 -0.901664 0
M  V30 668 H 58.9841 -3.46186 1.20628 0
M  V30 669 H 58.6321 -4.97298 -0.7552 0
M  V30 670 H 58.3321 -5.82388 0.780901 0
M  V30 671 H 59.8561 -6.10504 -0.108125 0
M  V30 672 H 61.2701 -5.35882 2.03724 0
M  V30 673 H 59.6671 -5.29406 2.82577 0
M  V30 674 H 60.7371 -3.88272 2.9047 0
M  V30 675 N 62.0802 -0.821533 -1.34494 0
M  V30 676 C 63.3052 -0.420873 -2.03085 0
M  V30 677 C 63.7302 0.964915 -1.61465 0
M  V30 678 O 63.0882 1.62763 -0.798607 0
M  V30 679 C 63.1362 -0.529414 -3.56693 0
M  V30 680 O 62.2402 0.451302 -4.09923 0
M  V30 681 H 61.5812 -0.173489 -0.640935 0
M  V30 682 H 64.1112 -1.11157 -1.71771 0
M  V30 683 H 64.1212 -0.404671 -4.05988 0
M  V30 684 H 62.7962 -1.54014 -3.86332 0
M  V30 685 H 61.3732 0.285558 -3.71805 0
M  V30 686 N 63.5583 1.46682 -0.576371 0
M  V30 687 C 64.8063 2.02013 -0.0594163 0
M  V30 688 C 65.1273 1.45101 1.30271 0
M  V30 689 O 64.3973 0.633317 1.8538 0
M  V30 690 H 62.9773 0.746759 -0.0189745 0
M  V30 691 H 65.6393 1.79862 -0.750717 0
M  V30 692 H 64.7353 3.12097 0.014345 0
M  V30 693 N 65.0364 0.313813 1.54444 0
M  V30 694 C 66.2834 -0.291675 2.00388 0
M  V30 695 C 66.6114 -1.52904 1.2021 0
M  V30 696 O 65.8664 -1.93833 0.269707 0
M  V30 697 C 66.1654 -0.680386 3.50864 0
M  V30 698 C 65.8314 0.456699 4.48581 0
M  V30 699 C 64.4934 0.768824 4.75018 0
M  V30 700 C 66.8454 1.22098 5.06697 0
M  V30 701 C 64.1734 1.84812 5.56831 0
M  V30 702 C 66.5254 2.29029 5.89685 0
M  V30 703 C 65.1894 2.60834 6.14428 0
M  V30 704 H 64.4594 -0.106732 0.733273 0
M  V30 705 H 67.1064 0.43557 1.86481 0
M  V30 706 H 65.4114 -1.48791 3.62448 0
M  V30 707 H 67.1084 -1.16026 3.83847 0
M  V30 708 H 63.6984 0.203337 4.28117 0
M  V30 709 H 67.8824 0.993096 4.86263 0
M  V30 710 H 63.1384 2.09912 5.74236 0
M  V30 711 H 67.3124 2.887 6.33739 0
M  V30 712 H 64.9394 3.44596 6.77612 0
M  V30 713 N 66.5145 -1.57545 0.0417849 0
M  V30 714 C 67.4445 -2.14009 -0.933929 0
M  V30 715 C 68.4255 -1.05938 -1.33083 0
M  V30 716 O 69.6105 -1.33833 -1.40721 0
M  V30 717 C 66.7405 -2.67747 -2.21199 0
M  V30 718 C 65.6945 -3.80718 -1.95544 0
M  V30 719 C 65.0205 -4.20935 -3.29724 0
M  V30 720 C 66.3205 -5.06258 -1.28452 0
M  V30 721 H 68.0145 -2.95788 -0.463645 0
M  V30 722 H 65.5605 -1.42285 -0.221573 0
M  V30 723 H 67.5135 -3.05886 -2.89848 0
M  V30 724 H 66.2375 -1.83147 -2.70416 0
M  V30 725 H 64.8965 -3.43037 -1.2931 0
M  V30 726 H 64.5445 -3.33298 -3.76724 0
M  V30 727 H 64.2445 -4.9707 -3.13361 0
M  V30 728 H 65.7685 -4.61666 -3.9962 0
M  V30 729 H 67.1825 -5.41903 -1.8712 0
M  V30 730 H 65.5795 -5.87475 -1.22445 0
M  V30 731 H 66.6495 -4.84207 -0.259219 0
M  V30 732 N 67.9926 0.231505 -1.5589 0
M  V30 733 C 69.2696 0.981096 -1.69215 0
M  V30 734 C 69.6496 2.02799 -0.586164 0
M  V30 735 O 68.9976 2.24823 0.408253 0
M  V30 736 C 69.2076 1.60054 -3.10135 0
M  V30 737 C 70.5556 2.09658 -3.69227 0
M  V30 738 O 71.5796 1.69967 -3.13033 0
M  V30 739 O 70.4386 2.8258 -4.67772 0
M  V30 740 H 67.5326 0.457653 -0.688827 0
M  V30 741 H 70.0786 0.224073 -1.68214 0
M  V30 742 H 68.8506 0.844105 -3.82087 0
M  V30 743 H 68.4736 2.42336 -3.15212 0
M  V30 744 N 69.4707 1.49531 0.497807 0
M  V30 745 C 70.4337 1.65916 1.58128 0
M  V30 746 C 71.4337 0.530825 1.51786 0
M  V30 747 O 72.6237 0.797342 1.54881 0
M  V30 748 C 69.7557 1.65951 2.9778 0
M  V30 749 H 70.9487 2.62556 1.44929 0
M  V30 750 H 68.5017 1.38611 0.722275 0
M  V30 751 H 69.2367 0.709065 3.16453 0
M  V30 752 H 69.0217 2.47897 3.03792 0
M  V30 753 H 70.5117 1.80673 3.76493 0
M  V30 754 N 70.9488 -0.749086 1.3866 0
M  V30 755 C 71.8808 -1.87273 1.32142 0
M  V30 756 C 72.8938 -1.61127 0.232787 0
M  V30 757 O 74.0828 -1.71623 0.49069 0
M  V30 758 C 71.1828 -3.23005 1.02571 0
M  V30 759 C 70.3558 -3.7662 2.22433 0
M  V30 760 C 69.4148 -4.90879 1.89537 0
M  V30 761 O 68.4408 -5.05276 2.62078 0
M  V30 762 N 69.6428 -5.74198 0.853031 0
M  V30 763 H 72.4078 -1.93373 2.28969 0
M  V30 764 H 69.9688 -0.929216 1.32579 0
M  V30 765 H 71.9608 -3.96992 0.786085 0
M  V30 766 H 70.5308 -3.12262 0.145249 0
M  V30 767 H 69.7508 -2.94147 2.62434 0
M  V30 768 H 71.0388 -4.09173 3.02415 0
M  V30 769 H 70.4368 -5.6514 0.25155 0
M  V30 770 H 68.9938 -6.48313 0.67329 0
M  V30 771 N 72.4269 -1.23603 -0.977757 0
M  V30 772 C 73.3739 -1.01954 -2.07061 0
M  V30 773 C 74.3439 0.0638697 -1.65977 0
M  V30 774 O 75.5289 -0.0887624 -1.90593 0
M  V30 775 C 72.6689 -0.619658 -3.39491 0
M  V30 776 C 71.7819 -1.77547 -3.93829 0
M  V30 777 C 70.9169 -1.32212 -5.14484 0
M  V30 778 C 69.9559 -2.44852 -5.60994 0
M  V30 779 N 69.0929 -2.00456 -6.72876 0
M  V30 780 H 73.9329 -1.95495 -2.24913 0
M  V30 781 H 71.4699 -0.973861 -1.10247 0
M  V30 782 H 73.4279 -0.368898 -4.15566 0
M  V30 783 H 72.0579 0.278752 -3.21594 0
M  V30 784 H 71.1099 -2.14016 -3.14486 0
M  V30 785 H 72.4219 -2.62219 -4.24314 0
M  V30 786 H 71.5759 -1.02965 -5.97899 0
M  V30 787 H 70.3149 -0.445808 -4.85658 0
M  V30 788 H 69.3199 -2.74871 -4.76157 0
M  V30 789 H 70.5449 -3.33024 -5.91837 0
M  V30 790 H 68.4909 -1.15208 -6.45804 0
M  V30 791 H 68.4079 -2.78687 -7.02759 0
M  V30 792 H 69.6759 -1.7432 -7.59758 0
M  V30 793 N 73.905 1.17692 -1.04816 0
M  V30 794 C 75.182 1.83768 -0.669963 0
M  V30 795 C 75.562 1.93232 0.849986 0
M  V30 796 O 74.91 1.46397 1.75443 0
M  V30 797 C 75.12 3.21641 -1.35455 0
M  V30 798 C 76.468 3.97592 -1.49017 0
M  V30 799 O 77.492 3.31107 -1.31326 0
M  V30 800 O 76.351 5.16729 -1.77914 0
M  V30 801 H 73.445 0.792799 -0.235368 0
M  V30 802 H 75.991 1.25021 -1.14751 0
M  V30 803 H 74.763 3.097 -2.39168 0
M  V30 804 H 74.386 3.88052 -0.866107 0
M  V30 805 N 75.3831 0.828654 1.34056 0
M  V30 806 C 76.6291 0.42008 1.98402 0
M  V30 807 C 76.9621 -1.01564 1.65525 0
M  V30 808 O 76.2371 -1.70834 0.929831 0
M  V30 809 C 76.5201 0.62927 3.54559 0
M  V30 810 C 76.3731 2.11152 3.97159 0
M  V30 811 C 77.6921 0.0688756 4.40046 0
M  V30 812 H 74.8111 0.154104 0.720709 0
M  V30 813 H 77.4531 1.04228 1.5886 0
M  V30 814 H 75.6031 0.0996418 3.88372 0
M  V30 815 H 77.2751 2.70522 3.73651 0
M  V30 816 H 75.5181 2.59985 3.47261 0
M  V30 817 H 76.1891 2.20868 5.05887 0
M  V30 818 H 78.6651 0.521458 4.1282 0
M  V30 819 H 77.5411 0.245006 5.48353 0
M  V30 820 H 77.8021 -1.0266 4.30015 0
M  V30 821 N 76.8612 -1.46375 0.584142 0
M  V30 822 C 78.1382 -1.956 0.0033388 0
M  V30 823 C 78.5182 -1.52679 -1.45782 0
M  V30 824 O 77.8662 -0.77816 -2.14842 0
M  V30 825 C 78.0762 -3.48551 0.176891 0
M  V30 826 C 79.4242 -4.24576 0.0454609 0
M  V30 827 O 80.4482 -3.56043 0.105801 0
M  V30 828 O 79.3072 -5.46427 -0.0890376 0
M  V30 829 H 76.4012 -0.825547 -0.0490066 0
M  V30 830 H 78.9472 -1.56652 0.65256 0
M  V30 831 H 77.7192 -3.72683 1.1926 0
M  V30 832 H 77.3422 -3.94332 -0.508695 0
M  V30 833 N 78.3393 -0.321999 -1.54275 0
M  V30 834 C 79.3023 0.531975 -2.22941 0
M  V30 835 C 80.3023 1.04478 -1.22234 0
M  V30 836 O 81.4923 0.937452 -1.46825 0
M  V30 837 C 78.6243 1.73874 -2.93224 0
M  V30 838 H 79.8173 -0.0682612 -2.99822 0
M  V30 839 H 77.3703 -0.0730644 -1.56129 0
M  V30 840 H 78.1053 2.37825 -2.20476 0
M  V30 841 H 77.8903 1.37847 -3.6707 0
M  V30 842 H 79.3803 2.34496 -3.45545 0
M  V30 843 N 79.8174 1.5752 -0.0501392 0
M  V30 844 C 81.0634 1.92936 0.624798 0
M  V30 845 C 81.3964 0.928685 1.70555 0
M  V30 846 O 80.6714 -0.0454779 1.94447 0
M  V30 847 C 80.9544 3.38737 1.22185 0
M  V30 848 C 80.8074 4.49552 0.149218 0
M  V30 849 C 82.1264 3.84913 2.13378 0
M  V30 850 H 79.2454 0.701604 0.225657 0
M  V30 851 H 81.8874 1.89671 -0.111693 0
M  V30 852 H 80.0374 3.4165 1.84953 0
M  V30 853 H 81.7094 4.58768 -0.482648 0
M  V30 854 H 79.9524 4.30638 -0.522841 0
M  V30 855 H 80.6234 5.48653 0.606966 0
M  V30 856 H 83.0994 3.8387 1.60572 0
M  V30 857 H 81.9754 4.87584 2.52097 0
M  V30 858 H 82.2364 3.21611 3.03346 0
M  V30 859 N 81.2955 -0.223234 1.56011 0
M  V30 860 C 82.5725 -0.972108 1.69733 0
M  V30 861 C 82.9525 -2.02485 0.59691 0
M  V30 862 O 82.3005 -2.25037 -0.396324 0
M  V30 863 C 82.5105 -1.58407 3.10979 0
M  V30 864 C 83.8585 -2.07696 3.70334 0
M  V30 865 O 84.8825 -1.68304 3.1393 0
M  V30 866 O 83.7415 -2.80096 4.69264 0
M  V30 867 H 80.8355 -0.453993 0.691245 0
M  V30 868 H 83.3815 -0.215149 1.68331 0
M  V30 869 H 82.1535 -0.823831 3.82529 0
M  V30 870 H 81.7765 -2.40661 3.16493 0
M  V30 871 N 82.7736 -1.49793 -0.48987 0
M  V30 872 C 83.7206 -1.67281 -1.59014 0
M  V30 873 C 84.6906 -0.514177 -1.57941 0
M  V30 874 O 85.8756 -0.742533 -1.75759 0
M  V30 875 C 83.0156 -1.75569 -2.97102 0
M  V30 876 C 82.1286 -3.0281 -3.08107 0
M  V30 877 C 81.2636 -3.02008 -4.36995 0
M  V30 878 C 80.3026 -4.23782 -4.41673 0
M  V30 879 N 79.4396 -4.20826 -5.62005 0
M  V30 880 H 84.2796 -2.61224 -1.43409 0
M  V30 881 H 81.8166 -1.29508 -0.697565 0
M  V30 882 H 83.7746 -1.78354 -3.77155 0
M  V30 883 H 82.4046 -0.850827 -3.11385 0
M  V30 884 H 81.4566 -3.09584 -2.21047 0
M  V30 885 H 82.7686 -3.92801 -3.07423 0
M  V30 886 H 81.9226 -3.03418 -5.25378 0
M  V30 887 H 80.6616 -2.09815 -4.4026 0
M  V30 888 H 79.6666 -4.22604 -3.5169 0
M  V30 889 H 80.8916 -5.17181 -4.40115 0
M  V30 890 H 78.8376 -3.31476 -5.66091 0
M  V30 891 H 78.7546 -5.04564 -5.62984 0
M  V30 892 H 80.0226 -4.26355 -6.52565 0
M  V30 893 N 84.2517 0.741722 -1.39055 0
M  V30 894 C 85.4977 1.50336 -1.36113 0
M  V30 895 C 85.8307 1.94148 0.0450796 0
M  V30 896 O 85.1057 1.66301 1.00868 0
M  V30 897 C 85.3887 2.74773 -2.32749 0
M  V30 898 C 85.2417 2.37023 -3.82283 0
M  V30 899 C 86.5607 3.76846 -2.27322 0
M  V30 900 H 83.6797 0.545351 -0.495743 0
M  V30 901 H 86.3217 0.848624 -1.69995 0
M  V30 902 H 84.4717 3.30639 -2.03986 0
M  V30 903 H 86.1437 1.8684 -4.21768 0
M  V30 904 H 84.3867 1.69334 -3.99385 0
M  V30 905 H 85.0577 3.26104 -4.45376 0
M  V30 906 H 87.5337 3.30548 -2.5274 0
M  V30 907 H 86.4097 4.6159 -2.97028 0
M  V30 908 H 86.6707 4.23286 -1.27599 0
M  V30 909 N 85.7298 1.2412 0.971189 0
M  V30 910 C 86.6628 0.97373 2.06382 0
M  V30 911 C 87.6408 -0.0912662 1.62344 0
M  V30 912 O 88.8248 0.0449365 1.88446 0
M  V30 913 C 85.9518 0.468746 3.35441 0
M  V30 914 C 84.9978 1.52176 3.98428 0
M  V30 915 S 85.8308 3.10203 4.36503 0
M  V30 916 C 86.9868 2.61398 5.68702 0
M  V30 917 H 87.2198 1.89893 2.28753 0
M  V30 918 H 84.7528 1.07466 1.10862 0
M  V30 919 H 86.7108 0.184012 4.10087 0
M  V30 920 H 85.3718 -0.435688 3.11064 0
M  V30 921 H 84.5648 1.11876 4.91426 0
M  V30 922 H 84.1668 1.75632 3.30196 0
M  V30 923 H 86.4588 2.03992 6.4606 0
M  V30 924 H 87.4018 3.52972 6.13854 0
M  V30 925 H 87.8098 2.01941 5.27143 0
M  V30 926 N 87.2079 -1.17134 1.05439 0
M  V30 927 C 88.1549 -2.21235 0.657539 0
M  V30 928 C 89.1249 -1.62551 -0.341543 0
M  V30 929 O 90.3099 -1.89379 -0.232393 0
M  V30 930 C 87.4499 -3.45076 0.0410575 0
M  V30 931 C 86.5629 -4.18042 1.08927 0
M  V30 932 C 85.6979 -5.29376 0.439848 0
M  V30 933 C 84.7369 -5.94132 1.4722 0
M  V30 934 N 83.8739 -6.96975 0.846756 0
M  V30 935 H 88.7139 -2.54534 1.54972 0
M  V30 936 H 86.2509 -1.25028 0.775006 0
M  V30 937 H 88.2089 -4.15862 -0.33383 0
M  V30 938 H 86.8389 -3.12353 -0.814568 0
M  V30 939 H 85.8909 -3.45945 1.58196 0
M  V30 940 H 87.2029 -4.62306 1.87282 0
M  V30 941 H 86.3569 -6.06699 0.0115125 0
M  V30 942 H 85.0959 -4.86251 -0.375656 0
M  V30 943 H 84.1009 -5.15538 1.91052 0
M  V30 944 H 85.3259 -6.39337 2.28965 0
M  V30 945 H 83.2719 -6.5598 0.0518075 0
M  V30 946 H 83.1889 -7.39565 1.5678 0
M  V30 947 H 84.4569 -7.78239 0.443277 0
M  V30 948 N 88.686 -0.835752 -1.33615 0
M  V30 949 C 89.596 -0.269088 -2.33052 0
M  V30 950 C 90.612 0.603251 -1.63208 0
M  V30 951 O 91.788 0.508112 -1.94885 0
M  V30 952 C 88.853 0.549091 -3.42324 0
M  V30 953 C 87.914 -0.347156 -4.27894 0
M  V30 954 C 87.147 0.43207 -5.31948 0
M  V30 955 O 87.37 1.66409 -5.45586 0
M  V30 956 O 86.304 -0.192298 -6.01593 0
M  V30 957 H 90.13 -1.09243 -2.83372 0
M  V30 958 H 87.715 -0.598198 -1.36901 0
M  V30 959 H 89.597 1.01414 -4.09015 0
M  V30 960 H 88.272 1.34955 -2.94226 0
M  V30 961 H 87.179 -0.859979 -3.64081 0
M  V30 962 H 88.512 -1.1123 -4.79467 0
M  V30 963 N 90.1641 1.46063 -0.591896 0
M  V30 964 C 91.0941 2.33172 0.123673 0
M  V30 965 C 92.0751 1.45897 0.87453 0
M  V30 966 O 93.2601 1.74698 0.848181 0
M  V30 967 C 90.3901 3.28336 1.13194 0
M  V30 968 C 89.3441 4.25124 0.495324 0
M  V30 969 C 88.6701 5.09863 1.61071 0
M  V30 970 C 89.9701 5.19143 -0.573425 0
M  V30 971 H 91.6641 2.93252 -0.603646 0
M  V30 972 H 89.2101 1.41014 -0.291741 0
M  V30 973 H 91.1631 3.88137 1.64097 0
M  V30 974 H 89.8871 2.66383 1.88965 0
M  V30 975 H 88.5461 3.66599 0.00729452 0
M  V30 976 H 88.1941 4.44288 2.35832 0
M  V30 977 H 87.8941 5.75417 1.19035 0
M  V30 978 H 89.4181 5.72529 2.12233 0
M  V30 979 H 90.8321 5.73106 -0.1491 0
M  V30 980 H 89.2291 5.93089 -0.914636 0
M  V30 981 H 90.2991 4.62519 -1.45617 0
M  V30 982 N 91.6422 0.330177 1.54103 0
M  V30 983 C 92.9192 -0.325007 1.92881 0
M  V30 984 C 93.2992 -1.6934 1.26045 0
M  V30 985 O 92.6472 -2.24855 0.406526 0
M  V30 986 C 92.8572 -0.410634 3.46576 0
M  V30 987 C 94.2052 -0.667801 4.19316 0
M  V30 988 O 95.2292 -0.49329 3.52768 0
M  V30 989 O 94.0882 -1.00491 5.37181 0
M  V30 990 H 91.1822 -0.186873 0.80561 0
M  V30 991 H 93.7282 0.380376 1.65382 0
M  V30 992 H 92.5002 0.550164 3.87413 0
M  V30 993 H 92.1232 -1.16333 3.802 0
M  V30 994 N 93.1203 -1.57491 0.0584922 0
M  V30 995 C 94.0303 -2.15448 -0.928414 0
M  V30 996 C 95.0463 -1.11416 -1.3365 0
M  V30 997 O 96.2223 -1.4362 -1.41193 0
M  V30 998 C 93.2873 -2.69393 -2.18239 0
M  V30 999 C 92.3483 -3.88249 -1.83196 0
M  V30 1000 C 91.5813 -4.39613 -3.02616 0
M  V30 1001 O 91.8043 -3.90023 -4.16219 0
M  V30 1002 O 90.7383 -5.31111 -2.83204 0
M  V30 1003 H 94.5643 -3.00112 -0.465483 0
M  V30 1004 H 92.1493 -1.48499 -0.163826 0
M  V30 1005 H 94.0313 -3.04026 -2.91798 0
M  V30 1006 H 92.7063 -1.87796 -2.63656 0
M  V30 1007 H 91.6133 -3.58492 -1.06931 0
M  V30 1008 H 92.9463 -4.71098 -1.42573 0
M  V30 1009 N 94.5984 0.214957 -1.56127 0
M  V30 1010 C 95.5464 1.28601 -1.93816 0
M  V30 1011 C 96.5404 1.48175 -0.821016 0
M  V30 1012 O 97.7464 1.49271 -1.0059 0
M  V30 1013 H 94.1214 0.431302 -0.616022 0
M  V30 1014 H 96.0924 0.940991 -2.83175 0
M  V30 1015 C 94.8414 2.62779 -2.27689 0
M  V30 1016 H 94.1644 2.48527 -3.13168 0
M  V30 1017 H 95.6044 3.36517 -2.57939 0
M  V30 1018 C 94.0634 3.18285 -1.10436 0
M  V30 1019 O 94.5934 4.00002 -0.368945 0
M  V30 1020 N 92.7994 2.7675 -0.886433 0
M  V30 1021 H 92.3464 2.10404 -1.48619 0
M  V30 1022 H 92.3044 3.14229 -0.103656 0
M  V30 1023 N 96.0765 1.50051 0.48192 0
M  V30 1024 C 97.3245 1.60181 1.23234 0
M  V30 1025 C 97.6455 0.299176 1.92691 0
M  V30 1026 O 96.9155 -0.682708 1.83619 0
M  V30 1027 H 95.4955 0.590232 0.457859 0
M  V30 1028 H 98.1575 1.86775 0.556881 0
M  V30 1029 H 97.2535 2.40753 1.98607 0
M  V30 1030 N 97.5546 -0.734337 1.39446 0
M  V30 1031 C 98.8316 -1.48579 1.27215 0
M  V30 1032 C 99.2116 -2.1077 -0.117968 0
M  V30 1033 O 98.5596 -1.98646 -1.12924 0
M  V30 1034 C 98.7696 -2.53667 2.39696 0
M  V30 1035 C 100.118 -3.20031 2.79044 0
M  V30 1036 O 101.142 -2.6398 2.39151 0
M  V30 1037 O 100.001 -4.21455 3.47905 0
M  V30 1038 H 97.0946 -0.659816 0.49857 0
M  V30 1039 H 99.6406 -0.768106 1.51322 0
M  V30 1040 H 98.4126 -2.06096 3.32626 0
M  V30 1041 H 98.0356 -3.32994 2.17258 0
M  V30 1042 N 99.0327 -1.24633 -0.964593 0
M  V30 1043 C 100.281 -1.08573 -1.70459 0
M  V30 1044 C 100.602 0.375655 -1.91347 0
M  V30 1045 O 99.8717 1.26779 -1.49345 0
M  V30 1046 H 98.4517 -0.398784 -0.631649 0
M  V30 1047 H 101.114 -1.56601 -1.16026 0
M  V30 1048 H 100.21 -1.58623 -2.68785 0
M  V30 1049 N 100.511 1.16574 -1.06058 0
M  V30 1050 C 101.421 2.2452 -0.680282 0
M  V30 1051 C 102.437 1.71348 0.302604 0
M  V30 1052 O 103.613 2.00822 0.152513 0
M  V30 1053 C 100.678 3.46629 -0.0700315 0
M  V30 1054 C 99.7388 4.14849 -1.10448 0
M  V30 1055 C 98.9718 5.31129 -0.523256 0
M  V30 1056 O 99.1948 5.66514 0.664709 0
M  V30 1057 O 98.1288 5.88526 -1.26179 0
M  V30 1058 H 101.955 2.59355 -1.58015 0
M  V30 1059 H 99.5398 1.24043 -0.832694 0
M  V30 1060 H 101.422 4.20543 0.268667 0
M  V30 1061 H 100.097 3.13573 0.803353 0
M  V30 1062 H 99.0038 3.42916 -1.49532 0
M  V30 1063 H 100.337 4.51954 -1.94931 0
M  V30 1064 N 101.989 0.842826 1.3317 0
M  V30 1065 C 103.235 0.441099 1.97945 0
M  V30 1066 C 103.568 -0.998024 1.66593 0
M  V30 1067 O 102.843 -1.69839 0.947898 0
M  V30 1068 C 103.126 0.666841 3.53872 0
M  V30 1069 C 102.979 2.15352 3.94897 0
M  V30 1070 C 104.298 0.115544 4.39948 0
M  V30 1071 H 101.417 0.161739 0.719034 0
M  V30 1072 H 104.059 1.05907 1.57746 0
M  V30 1073 H 102.209 0.140828 3.88245 0
M  V30 1074 H 103.881 2.7447 3.70761 0
M  V30 1075 H 102.124 2.63653 3.44484 0
M  V30 1076 H 102.795 2.26221 5.03516 0
M  V30 1077 H 105.271 0.565213 4.12243 0
M  V30 1078 H 104.147 0.303152 5.48062 0
M  V30 1079 H 104.408 -0.980935 4.3108 0
M  V30 1080 N 103.467 -1.45747 0.599634 0
M  V30 1081 C 104.744 -1.95585 0.0240846 0
M  V30 1082 C 105.124 -1.54217 -1.44154 0
M  V30 1083 O 104.472 -0.800903 -2.14004 0
M  V30 1084 C 104.682 -3.48344 0.21385 0
M  V30 1085 C 106.03 -4.24504 0.0904902 0
M  V30 1086 O 107.054 -3.55911 0.143558 0
M  V30 1087 O 105.913 -5.46491 -0.0310766 0
M  V30 1088 H 103.007 -0.82602 -0.0402478 0
M  V30 1089 H 105.553 -1.55951 0.669139 0
M  V30 1090 H 104.325 -3.71397 1.23206 0
M  V30 1091 H 103.948 -3.9485 -0.466842 0
M  V30 1092 N 104.945 -0.338344 -1.53925 0
M  V30 1093 C 106.192 0.259758 -2.00827 0
M  V30 1094 C 106.52 1.50973 -1.22628 0
M  V30 1095 O 105.775 1.93379 -0.300509 0
M  V30 1096 C 106.074 0.62448 -3.51902 0
M  V30 1097 C 105.74 -0.528006 -4.47798 0
M  V30 1098 C 104.402 -0.844298 -4.73735 0
M  V30 1099 C 106.754 -1.30143 -5.0469 0
M  V30 1100 C 104.082 -1.93648 -5.53821 0
M  V30 1101 C 106.434 -2.38382 -5.85967 0
M  V30 1102 C 105.098 -2.70576 -6.10201 0
M  V30 1103 H 104.368 0.0950523 -0.734878 0
M  V30 1104 H 107.015 -0.465182 -1.85764 0
M  V30 1105 H 105.32 1.43006 -3.64769 0
M  V30 1106 H 107.017 1.09905 -3.85645 0
M  V30 1107 H 103.607 -0.271421 -4.2774 0
M  V30 1108 H 107.791 -1.07033 -4.84621 0
M  V30 1109 H 103.047 -2.19021 -5.70824 0
M  V30 1110 H 107.221 -2.98746 -6.29066 0
M  V30 1111 H 104.848 -3.55333 -6.72044 0
M  V30 1112 N 106.423 1.57458 -0.0668435 0
M  V30 1113 C 107.355 2.09413 0.931601 0
M  V30 1114 C 108.368 1.02522 1.26464 0
M  V30 1115 O 109.557 1.30049 1.22269 0
M  V30 1116 C 106.657 2.53537 2.24882 0
M  V30 1117 C 105.83 3.83944 2.09537 0
M  V30 1118 C 104.889 4.14214 3.2452 0
M  V30 1119 O 103.915 4.83891 2.9973 0
M  V30 1120 N 105.117 3.67367 4.49469 0
M  V30 1121 H 107.882 2.95699 0.488048 0
M  V30 1122 H 105.443 1.61462 0.119009 0
M  V30 1123 H 107.435 2.70853 3.00701 0
M  V30 1124 H 106.005 1.72415 2.60753 0
M  V30 1125 H 105.225 3.76057 1.18215 0
M  V30 1126 H 106.513 4.69312 1.96529 0
M  V30 1127 H 105.911 3.11068 4.72497 0
M  V30 1128 H 104.468 3.89891 5.2233 0
M  V30 1129 N 107.901 -0.206675 1.56239 0
M  V30 1130 C 108.811 -1.27686 1.96808 0
M  V30 1131 C 109.827 -1.50455 0.874035 0
M  V30 1132 O 111.003 -1.63295 1.17884 0
M  V30 1133 C 108.068 -2.60358 2.28942 0
M  V30 1134 C 107.129 -2.45762 3.51994 0
M  V30 1135 C 106.362 -3.72108 3.82585 0
M  V30 1136 O 106.585 -4.75776 3.14631 0
M  V30 1137 O 105.519 -3.6833 4.76043 0
M  V30 1138 H 109.345 -0.962593 2.88041 0
M  V30 1139 H 106.93 -0.410746 1.43643 0
M  V30 1140 H 108.812 -3.38687 2.50737 0
M  V30 1141 H 107.487 -2.91435 1.4088 0
M  V30 1142 H 106.394 -1.65584 3.35459 0
M  V30 1143 H 107.727 -2.19621 4.40486 0
M  V30 1144 N 109.379 -1.50304 -0.473955 0
M  V30 1145 C 110.609 -1.64663 -1.24778 0
M  V30 1146 C 111.017 -0.328174 -1.86332 0
M  V30 1147 O 110.36 0.699536 -1.69859 0
M  V30 1148 C 110.422 -2.6778 -2.39863 0
M  V30 1149 C 110.086 -4.11413 -1.98969 0
M  V30 1150 C 111.083 -4.97372 -1.51385 0
M  V30 1151 C 108.768 -4.57312 -2.07777 0
M  V30 1152 C 110.762 -6.27277 -1.13148 0
M  V30 1153 C 108.449 -5.87223 -1.69152 0
M  V30 1154 C 109.447 -6.72031 -1.21915 0
M  V30 1155 O 109.135 -7.99518 -0.838237 0
M  V30 1156 H 108.867 -0.556602 -0.383627 0
M  V30 1157 H 111.421 -1.9726 -0.572491 0
M  V30 1158 H 109.651 -2.30419 -3.10554 0
M  V30 1159 H 111.34 -2.71388 -3.01833 0
M  V30 1160 H 112.106 -4.63128 -1.44004 0
M  V30 1161 H 107.985 -3.91449 -2.43493 0
M  V30 1162 H 111.529 -6.93425 -0.762077 0
M  V30 1163 H 107.426 -6.20989 -1.76191 0
M  V30 1164 H 108.194 -8.12764 -0.967339 0
M  V30 1165 N 110.857 0.726932 -1.39834 0
M  V30 1166 C 112.103 1.48884 -1.377 0
M  V30 1167 C 112.436 1.94185 0.0244852 0
M  V30 1168 O 111.711 1.67361 0.990986 0
M  V30 1169 C 111.994 2.72288 -2.3565 0
M  V30 1170 C 111.847 2.32956 -3.84775 0
M  V30 1171 C 113.166 3.74414 -2.31306 0
M  V30 1172 H 110.285 0.540062 -0.5015 0
M  V30 1173 H 112.927 0.830547 -1.70886 0
M  V30 1174 H 111.077 3.28457 -2.07481 0
M  V30 1175 H 112.749 1.82356 -4.23726 0
M  V30 1176 H 110.992 1.65088 -4.01159 0
M  V30 1177 H 111.663 3.21362 -4.4881 0
M  V30 1178 H 114.139 3.27849 -2.56231 0
M  V30 1179 H 113.015 4.58414 -3.01907 0
M  V30 1180 H 113.276 4.21909 -1.32081 0
M  V30 1181 N 112.336 1.25143 0.95797 0
M  V30 1182 C 113.582 1.09855 1.70469 0
M  V30 1183 C 113.915 -0.360187 1.90831 0
M  V30 1184 O 113.19 -1.26568 1.47685 0
M  V30 1185 C 113.473 1.8497 3.08963 0
M  V30 1186 C 113.326 3.38652 2.96032 0
M  V30 1187 C 114.645 1.63016 4.08795 0
M  V30 1188 H 111.764 0.400465 0.618706 0
M  V30 1189 H 114.406 1.53933 1.11376 0
M  V30 1190 H 112.556 1.47505 3.59409 0
M  V30 1191 H 114.228 3.85772 2.52938 0
M  V30 1192 H 112.471 3.66534 2.32025 0
M  V30 1193 H 113.142 3.8642 3.94187 0
M  V30 1194 H 115.618 1.95625 3.67247 0
M  V30 1195 H 114.494 2.18015 5.03747 0
M  V30 1196 H 114.755 0.570692 4.38401 0
M  V30 1197 N 113.814 -1.1601 1.06675 0
M  V30 1198 C 114.744 -2.22688 0.702307 0
M  V30 1199 C 115.725 -1.67306 -0.307032 0
M  V30 1200 O 116.91 -1.93352 -0.181305 0
M  V30 1201 C 114.04 -3.47178 0.092038 0
M  V30 1202 C 112.994 -4.15477 1.02777 0
M  V30 1203 C 112.32 -5.33963 0.28061 0
M  V30 1204 C 113.62 -4.66019 2.35846 0
M  V30 1205 H 115.314 -2.53429 1.59419 0
M  V30 1206 H 112.86 -1.21813 0.767961 0
M  V30 1207 H 114.813 -4.21037 -0.174814 0
M  V30 1208 H 113.537 -3.15749 -0.834877 0
M  V30 1209 H 112.196 -3.43549 1.27944 0
M  V30 1210 H 111.844 -4.98788 -0.649545 0
M  V30 1211 H 111.544 -5.806 0.904258 0
M  V30 1212 H 113.068 -6.10596 0.021396 0
M  V30 1213 H 114.482 -5.3144 2.15045 0
M  V30 1214 H 112.879 -5.23293 2.93743 0
M  V30 1215 H 113.949 -3.82023 2.98641 0
M  V30 1216 N 115.292 -0.849877 -1.32721 0
M  V30 1217 C 116.538 -0.451591 -1.97708 0
M  V30 1218 C 116.871 0.989175 -1.6712 0
M  V30 1219 O 116.146 1.69334 -0.956891 0
M  V30 1220 C 116.429 -0.685598 -3.53513 0
M  V30 1221 C 116.282 -2.17444 -3.93749 0
M  V30 1222 C 117.601 -0.138874 -4.39881 0
M  V30 1223 H 114.72 -0.16555 -0.718166 0
M  V30 1224 H 117.362 -1.06742 -1.57182 0
M  V30 1225 H 115.512 -0.161416 -3.88165 0
M  V30 1226 H 117.184 -2.76433 -3.693 0
M  V30 1227 H 115.427 -2.65476 -3.43081 0
M  V30 1228 H 116.098 -2.28888 -5.02309 0
M  V30 1229 H 118.574 -0.587068 -4.11938 0
M  V30 1230 H 117.45 -0.332213 -5.47894 0
M  V30 1231 H 117.711 0.95806 -4.31594 0
M  V30 1232 N 116.77 1.45427 -0.607355 0
M  V30 1233 C 117.733 2.28974 0.101693 0
M  V30 1234 C 118.733 1.39754 0.795329 0
M  V30 1235 O 119.923 1.61878 0.643527 0
M  V30 1236 C 117.055 3.20768 1.15414 0
M  V30 1237 H 118.248 2.93147 -0.632844 0
M  V30 1238 H 115.801 1.51945 -0.366391 0
M  V30 1239 H 116.536 2.61395 1.91945 0
M  V30 1240 H 116.321 3.86489 0.66098 0
M  V30 1241 H 117.811 3.83589 1.65073 0
M  V30 1242 N 118.248 0.346503 1.53744 0
M  V30 1243 C 119.211 -0.496439 2.23759 0
M  V30 1244 C 120.211 -1.0252 1.2388 0
M  V30 1245 O 121.401 -0.913974 1.48297 0
M  V30 1246 C 118.533 -1.69187 2.95954 0
M  V30 1247 H 119.726 0.115952 2.99676 0
M  V30 1248 H 117.279 0.0978939 1.55993 0
M  V30 1249 H 118.014 -2.34288 2.24231 0
M  V30 1250 H 117.799 -1.31989 3.69217 0
M  V30 1251 H 119.289 -2.28969 3.49232 0
M  V30 1252 N 119.726 -1.57421 0.075193 0
M  V30 1253 C 120.656 -2.15942 -0.888324 0
M  V30 1254 C 121.637 -1.08737 -1.30806 0
M  V30 1255 O 122.822 -1.36787 -1.37851 0
M  V30 1256 C 119.952 -2.72379 -2.1547 0
M  V30 1257 C 118.906 -3.8478 -1.87425 0
M  V30 1258 C 118.232 -4.27834 -3.20721 0
M  V30 1259 C 119.532 -5.08869 -1.17684 0
M  V30 1260 H 121.226 -2.96705 -0.400799 0
M  V30 1261 H 118.772 -1.42723 -0.191342 0
M  V30 1262 H 120.725 -3.11965 -2.83295 0
M  V30 1263 H 119.449 -1.88841 -2.6647 0
M  V30 1264 H 118.108 -3.45703 -1.22004 0
M  V30 1265 H 117.756 -3.41214 -3.6957 0
M  V30 1266 H 117.456 -5.03605 -3.02746 0
M  V30 1267 H 118.98 -4.70039 -3.89738 0
M  V30 1268 H 120.394 -5.4575 -1.75584 0
M  V30 1269 H 118.791 -5.8994 -1.09956 0
M  V30 1270 H 119.861 -4.84648 -0.156453 0
M  V30 1271 N 121.204 0.198386 -1.56346 0
M  V30 1272 C 122.432 0.935572 -1.84539 0
M  V30 1273 C 122.847 1.76989 -0.657281 0
M  V30 1274 O 122.204 1.78626 0.374043 0
M  V30 1275 C 122.255 1.8344 -3.11499 0
M  V30 1276 O 121.976 1.03377 -4.25728 0
M  V30 1277 C 123.477 2.68355 -3.52846 0
M  V30 1278 H 120.697 0.273126 -0.612897 0
M  V30 1279 H 123.241 0.20663 -2.03453 0
M  V30 1280 H 121.396 2.51701 -2.94492 0
M  V30 1281 H 121.81 1.64599 -4.98003 0
M  V30 1282 H 123.284 3.27085 -4.44657 0
M  V30 1283 H 123.761 3.41901 -2.75681 0
M  V30 1284 H 124.367 2.05471 -3.72373 0
M  V30 1285 N 122.682 1.50554 0.465978 0
M  V30 1286 C 123.928 1.62038 1.21949 0
M  V30 1287 C 124.261 0.322116 1.9151 0
M  V30 1288 O 123.536 -0.676723 1.82348 0
M  V30 1289 C 123.819 2.80421 2.25912 0
M  V30 1290 C 123.672 4.20144 1.60622 0
M  V30 1291 C 124.991 2.94354 3.27176 0
M  V30 1292 H 122.11 0.589752 0.441998 0
M  V30 1293 H 124.752 1.82956 0.51257 0
M  V30 1294 H 122.902 2.62717 2.86203 0
M  V30 1295 H 124.574 4.49449 1.03889 0
M  V30 1296 H 122.817 4.24165 0.909211 0
M  V30 1297 H 123.488 4.98914 2.36196 0
M  V30 1298 H 125.964 3.10578 2.76913 0
M  V30 1299 H 124.84 3.788 3.97242 0
M  V30 1300 H 125.101 2.05186 3.916 0
M  V30 1301 N 124.16 -0.719506 1.40217 0
M  V30 1302 C 125.123 -1.8153 1.39927 0
M  V30 1303 C 126.123 -1.58095 0.293723 0
M  V30 1304 O 127.313 -1.65209 0.552429 0
M  V30 1305 C 124.445 -3.19561 1.18716 0
M  V30 1306 H 125.638 -1.83186 2.37451 0
M  V30 1307 H 123.191 -0.924746 1.26008 0
M  V30 1308 H 123.926 -3.23557 0.219366 0
M  V30 1309 H 123.711 -3.3797 1.98793 0
M  V30 1310 H 125.201 -3.99598 1.21291 0
M  V30 1311 N 125.638 -1.25649 -0.95132 0
M  V30 1312 C 126.878 -1.11802 -1.71113 0
M  V30 1313 C 127.242 0.334758 -1.89059 0
M  V30 1314 O 128.443 0.595121 -2.62129 0
M  V30 1315 C 126.714 -1.85512 -3.05483 0
M  V30 1316 S 128.273 -1.87597 -3.96677 0
M  V30 1317 H 125.091 -0.399552 -0.588115 0
M  V30 1318 H 127.693 -1.59222 -1.1344 0
M  V30 1319 H 126.397 -2.90299 -2.90094 0
M  V30 1320 H 125.928 -1.38493 -3.68216 0
M  V30 1321 H 127.943 -0.955389 -4.86916 0
M  V30 1322 N 127.117 1.15442 -1.07289 0
M  V30 1323 C 128.065 2.22225 -0.686952 0
M  V30 1324 C 129.059 1.66688 0.30193 0
M  V30 1325 O 130.265 1.79236 0.165712 0
M  V30 1326 H 126.64 0.723783 -0.204064 0
M  V30 1327 H 128.611 2.52056 -1.5972 0
M  V30 1328 C 127.36 3.47556 -0.100149 0
M  V30 1329 H 126.683 3.90612 -0.852211 0
M  V30 1330 H 128.123 4.23794 0.132235 0
M  V30 1331 C 126.582 3.16337 1.159 0
M  V30 1332 O 127.112 3.33074 2.24555 0
M  V30 1333 N 125.318 2.70385 1.06491 0
M  V30 1334 H 124.865 2.56966 0.180668 0
M  V30 1335 H 124.823 2.49871 1.90819 0
M  V30 1336 N 128.595 0.856903 1.32268 0
M  V30 1337 C 129.543 0.291987 2.3076 0
M  V30 1338 C 130.537 -0.585857 1.58947 0
M  V30 1339 O 131.743 -0.47341 1.73663 0
M  V30 1340 H 128.118 0.075721 0.748178 0
M  V30 1341 H 130.089 1.13687 2.75895 0
M  V30 1342 C 128.838 -0.502869 3.44044 0
M  V30 1343 H 128.161 0.163328 3.99466 0
M  V30 1344 H 129.601 -0.863691 4.1511 0
M  V30 1345 C 128.06 -1.68898 2.91505 0
M  V30 1346 O 128.59 -2.78811 2.89184 0
M  V30 1347 N 126.796 -1.51679 2.47875 0
M  V30 1348 H 126.343 -0.622666 2.49961 0
M  V30 1349 H 126.301 -2.31184 2.13076 0
M  V30 1350 N 130.073 -1.45103 0.615059 0
M  V30 1351 C 131.32 -2.02183 0.113179 0
M  V30 1352 C 131.648 -1.48249 -1.25906 0
M  V30 1353 O 130.903 -0.650265 -1.84581 0
M  V30 1354 C 131.202 -3.57386 0.0318797 0
M  V30 1355 C 130.868 -4.30505 1.34077 0
M  V30 1356 C 129.53 -4.50197 1.69929 0
M  V30 1357 C 131.882 -4.72238 2.20546 0
M  V30 1358 C 129.21 -5.08881 2.91988 0
M  V30 1359 C 131.562 -5.32272 3.41861 0
M  V30 1360 C 130.226 -5.50187 3.77956 0
M  V30 1361 H 129.496 -0.739842 0.0414151 0
M  V30 1362 H 132.143 -1.74073 0.798168 0
M  V30 1363 H 130.448 -3.84817 -0.736409 0
M  V30 1364 H 132.145 -3.99264 -0.372712 0
M  V30 1365 H 128.735 -4.15496 1.05173 0
M  V30 1366 H 132.919 -4.56751 1.94146 0
M  V30 1367 H 128.175 -5.20939 3.2005 0
M  V30 1368 H 132.349 -5.63563 4.09109 0
M  V30 1369 H 129.976 -5.95427 4.72622 0
M  V30 1370 N 131.551 -0.354651 -1.53558 0
M  V30 1371 C 132.798 0.238443 -2.01091 0
M  V30 1372 C 133.126 1.49663 -1.24222 0
M  V30 1373 O 132.381 1.93049 -0.321003 0
M  V30 1374 C 132.68 0.587121 -3.52545 0
M  V30 1375 C 132.346 -0.575472 -4.47213 0
M  V30 1376 C 131.008 -0.894497 -4.72813 0
M  V30 1377 C 133.36 -1.35489 -5.03281 0
M  V30 1378 C 130.688 -1.99511 -5.51736 0
M  V30 1379 C 133.04 -2.44583 -5.83405 0
M  V30 1380 C 131.704 -2.77033 -6.07296 0
M  V30 1381 H 130.974 0.0872526 -0.735845 0
M  V30 1382 H 133.621 -0.484859 -1.8526 0
M  V30 1383 H 131.926 1.39129 -3.66265 0
M  V30 1384 H 133.623 1.05809 -3.86789 0
M  V30 1385 H 130.213 -0.316774 -4.27428 0
M  V30 1386 H 134.397 -1.12167 -4.83459 0
M  V30 1387 H 129.653 -2.25063 -5.68469 0
M  V30 1388 H 133.827 -3.05401 -6.25862 0
M  V30 1389 H 131.454 -3.6244 -6.68237 0
M  V30 1390 N 133.029 1.57378 -0.0835403 0
M  V30 1391 C 134.275 1.95025 0.577664 0
M  V30 1392 C 134.63 0.964049 1.66505 0
M  V30 1393 O 133.923 -0.0118235 1.91596 0
M  V30 1394 C 134.117 3.37063 1.1884 0
M  V30 1395 C 133.946 4.49409 0.16171 0
M  V30 1396 C 132.716 5.04642 -0.257756 0
M  V30 1397 C 134.914 5.10722 -0.605634 0
M  V30 1398 N 132.896 6.00537 -1.27393 0
M  V30 1399 C 134.267 6.02225 -1.47395 0
M  V30 1400 C 136.322 4.93501 -0.660418 0
M  V30 1401 C 135.025 6.78355 -2.39221 0
M  V30 1402 C 137.051 5.70283 -1.56623 0
M  V30 1403 C 136.413 6.61444 -2.4222 0
M  V30 1404 H 132.512 0.760512 0.182058 0
M  V30 1405 H 135.096 1.94013 -0.163419 0
M  V30 1406 H 133.267 3.3879 1.89936 0
M  V30 1407 H 134.999 3.61917 1.81103 0
M  V30 1408 H 131.754 4.73428 0.127702 0
M  V30 1409 H 132.178 6.53184 -1.77987 0
M  V30 1410 H 136.82 4.22798 -0.0128221 0
M  V30 1411 H 134.538 7.48327 -3.05011 0
M  V30 1412 H 138.124 5.58976 -1.61361 0
M  V30 1413 H 137.004 7.1982 -3.11174 0
M  V30 1414 N 134.507 -0.190092 1.56449 0
M  V30 1415 C 135.417 -1.25591 1.98152 0
M  V30 1416 C 136.433 -1.49519 0.889944 0
M  V30 1417 O 137.609 -1.62036 1.19609 0
M  V30 1418 C 134.674 -2.57916 2.3169 0
M  V30 1419 C 133.735 -2.42015 3.5458 0
M  V30 1420 C 132.968 -3.6803 3.8651 0
M  V30 1421 O 133.191 -4.72413 3.1966 0
M  V30 1422 O 132.125 -3.6326 4.79923 0
M  V30 1423 H 135.951 -0.931988 2.89046 0
M  V30 1424 H 133.536 -0.395488 1.4407 0
M  V30 1425 H 135.418 -3.36008 2.54316 0
M  V30 1426 H 134.093 -2.89925 1.43963 0
M  V30 1427 H 133 -1.62017 3.37196 0
M  V30 1428 H 134.333 -2.14937 4.4279 0
M  V30 1429 N 135.985 -1.50799 -0.457987 0
M  V30 1430 C 136.933 -1.71162 -1.575 0
M  V30 1431 C 137.927 -0.577592 -1.59249 0
M  V30 1432 O 139.133 -0.758443 -1.63241 0
M  V30 1433 H 135.508 -0.540468 -0.522875 0
M  V30 1434 H 137.479 -2.64837 -1.37492 0
M  V30 1435 C 136.228 -1.83496 -2.95338 0
M  V30 1436 H 135.551 -2.70153 -2.94716 0
M  V30 1437 H 136.991 -2.01765 -3.72917 0
M  V30 1438 C 135.45 -0.589694 -3.31699 0
M  V30 1439 O 135.98 0.265163 -4.00824 0
M  V30 1440 N 134.186 -0.439845 -2.87252 0
M  V30 1441 H 133.733 -1.13655 -2.31172 0
M  V30 1442 H 133.691 0.392159 -3.11945 0
M  V30 1443 N 137.463 0.71206 -1.40597 0
M  V30 1444 C 138.688 1.50617 -1.42581 0
M  V30 1445 C 139.113 1.88079 -0.0282102 0
M  V30 1446 O 138.471 1.53511 0.964579 0
M  V30 1447 C 138.519 2.7557 -2.3258 0
M  V30 1448 O 137.623 3.72414 -1.77148 0
M  V30 1449 H 136.964 0.453966 -0.484573 0
M  V30 1450 H 139.494 0.876649 -1.84868 0
M  V30 1451 H 139.504 3.2406 -2.47889 0
M  V30 1452 H 138.179 2.47639 -3.34138 0
M  V30 1453 H 136.756 3.31276 -1.71204 0
M  V30 1454 O 138.98 1.37088 0.85376 0
M  V30 1455 H 139.671 1.23267 1.49416 0
M  V30 END ATOM
M  V30 BEGIN BOND
M  V30 END BOND
M  V30 END CTAB
M  END
$$$$
