drugbank_target|Q5RT80 Outer membrane protein II (DB04147)
 OpenBabel12092120483D

  0  0  0     0  0            999 V3000
M  V30 BEGIN CTAB
M  V30 COUNTS 4805 4851 0 0 0
M  V30 BEGIN ATOM
M  V30 1 H -0.908 1.98254 -0.117106 0
M  V30 2 N 0 1.576 0 0
M  V30 3 C 0.91 2.11853 1.00774 0
M  V30 4 C 1.926 1.06379 1.37693 0
M  V30 5 O 3.102 1.3828 1.46426 0
M  V30 6 C 0.167 2.61108 2.28087 0
M  V30 7 C -0.772 3.81183 1.9748 0
M  V30 8 C -1.539 4.28079 3.18723 0
M  V30 9 O -1.316 3.74307 4.30407 0
M  V30 10 O -2.382 5.20234 3.02721 0
M  V30 11 H 1.444 2.98177 0.576547 0
M  V30 12 H -0.971 1.47789 0.218828 0
M  V30 13 H 0.911 2.92987 3.0288 0
M  V30 14 H -0.414 1.77881 2.70444 0
M  V30 15 H -1.507 3.54277 1.20162 0
M  V30 16 H -0.174 4.65482 1.5996 0
M  V30 17 N 1.4781 -0.272755 1.55222 0
M  V30 18 C 2.7241 -1.00581 1.761 0
M  V30 19 C 3.0571 -1.85932 0.560625 0
M  V30 20 O 2.3321 -1.89416 -0.441801 0
M  V30 21 C 2.6151 -1.88816 3.06628 0
M  V30 22 C 2.4681 -1.06457 4.37021 0
M  V30 23 C 3.7871 -2.8752 3.33197 0
M  V30 24 H 0.9061 -0.364244 0.640699 0
M  V30 25 H 3.5481 -0.278189 1.87952 0
M  V30 26 H 1.6981 -2.50856 2.96654 0
M  V30 27 H 3.3701 -0.464863 4.58952 0
M  V30 28 H 1.6131 -0.368043 4.32236 0
M  V30 29 H 2.2841 -1.71514 5.24678 0
M  V30 30 H 4.7601 -2.35615 3.42965 0
M  V30 31 H 3.6361 -3.46399 4.25792 0
M  V30 32 H 3.8971 -3.62657 2.52849 0
M  V30 33 N 2.9562 -1.48159 -0.537278 0
M  V30 34 C 4.1812 -1.59707 -1.32319 0
M  V30 35 C 4.6062 -0.254859 -1.86365 0
M  V30 36 O 3.9642 0.772378 -1.64024 0
M  V30 37 C 4.0122 -2.6412 -2.45505 0
M  V30 38 O 3.1162 -2.20774 -3.48328 0
M  V30 39 H 2.4572 -0.535791 -0.392204 0
M  V30 40 H 4.9872 -1.94092 -0.647268 0
M  V30 41 H 4.9972 -2.85166 -2.91795 0
M  V30 42 H 3.6722 -3.61567 -2.05528 0
M  V30 43 H 2.2492 -2.09911 -3.08207 0
M  V30 44 N 4.4343 0.785586 -1.36625 0
M  V30 45 C 5.8503 1.08419 -1.17122 0
M  V30 46 C 6.0503 2.015 0.00208491 0
M  V30 47 O 5.1063 2.43551 0.666278 0
M  V30 48 C 6.4193 1.69498 -2.48377 0
M  V30 49 C 7.9673 1.81821 -2.54775 0
M  V30 50 C 8.4423 2.46315 -3.86126 0
M  V30 51 N 9.9333 2.53779 -3.87492 0
M  V30 52 C 10.6683 3.045 -4.85868 0
M  V30 53 N 10.1643 3.55499 -5.94637 0
M  V30 54 N 11.9573 3.03247 -4.73284 0
M  V30 55 H 4.1083 0.167264 -2.1174 0
M  V30 56 H 6.3713 0.13682 -0.938075 0
M  V30 57 H 6.0773 1.08571 -3.34522 0
M  V30 58 H 5.9513 2.6896 -2.64462 0
M  V30 59 H 8.3383 2.41884 -1.69045 0
M  V30 60 H 8.4193 0.811532 -2.42586 0
M  V30 61 H 8.0633 1.86895 -4.72263 0
M  V30 62 H 7.9933 3.47561 -3.95612 0
M  V30 63 H 10.4843 2.17672 -3.08913 0
M  V30 64 H 10.7973 3.92562 -6.65669 0
M  V30 65 H 9.1423 3.5364 -5.98301 0
M  V30 66 H 12.3333 2.62696 -3.87438 0
M  V30 67 H 12.5063 3.42467 -5.50109 0
M  V30 68 N 5.9124 1.20967 1.01018 0
M  V30 69 C 7.1584 1.02526 1.74975 0
M  V30 70 C 7.4914 -0.4408 1.89131 0
M  V30 71 O 6.7664 -1.32718 1.42184 0
M  V30 72 C 7.0494 1.71699 3.1653 0
M  V30 73 C 6.9024 3.25791 3.10129 0
M  V30 74 C 8.2214 1.45531 4.15342 0
M  V30 75 H 5.3404 0.373863 0.635134 0
M  V30 76 H 7.9824 1.49071 1.17805 0
M  V30 77 H 6.1324 1.32128 3.65341 0
M  V30 78 H 7.8044 3.74697 2.69072 0
M  V30 79 H 6.0474 3.56363 2.47362 0
M  V30 80 H 6.7184 3.69353 4.10222 0
M  V30 81 H 9.1944 1.79872 3.75213 0
M  V30 82 H 8.0704 1.96453 5.1254 0
M  V30 83 H 8.3314 0.384237 4.40427 0
M  V30 84 N 7.3905 -1.2043 1.01659 0
M  V30 85 C 8.3375 -2.23215 0.586822 0
M  V30 86 C 9.3075 -1.61382 -0.393085 0
M  V30 87 O 10.4925 -1.88544 -0.292525 0
M  V30 88 C 7.6325 -3.45032 -0.0687464 0
M  V30 89 C 6.7455 -4.21296 0.955724 0
M  V30 90 C 5.8805 -5.30507 0.271208 0
M  V30 91 C 4.9195 -5.98515 1.28244 0
M  V30 92 N 4.0565 -6.99316 0.62459 0
M  V30 93 H 8.8965 -2.59336 1.46796 0
M  V30 94 H 6.4335 -1.27431 0.734836 0
M  V30 95 H 8.3915 -4.1459 -0.465965 0
M  V30 96 H 7.0215 -3.09604 -0.913529 0
M  V30 97 H 6.0735 -3.50803 1.4711 0
M  V30 98 H 7.3855 -4.6803 1.72479 0
M  V30 99 H 6.5395 -6.06428 -0.18151 0
M  V30 100 H 5.2785 -4.8481 -0.530163 0
M  V30 101 H 4.2835 -5.21355 1.74554 0
M  V30 102 H 5.5085 -6.46298 2.08509 0
M  V30 103 H 3.4545 -6.55812 -0.156914 0
M  V30 104 H 3.3715 -7.44178 1.33172 0
M  V30 105 H 4.6395 -7.79255 0.195462 0
M  V30 106 N 8.8686 -0.792821 -1.36206 0
M  V30 107 C 10.1456 -0.290627 -1.93429 0
M  V30 108 C 10.5256 1.21773 -1.72437 0
M  V30 109 O 9.8736 2.0108 -1.08531 0
M  V30 110 C 10.0836 -0.686973 -3.42172 0
M  V30 111 C 11.4316 -0.668643 -4.19302 0
M  V30 112 O 12.4556 -0.627658 -3.50626 0
M  V30 113 O 11.3146 -0.714597 -5.41808 0
M  V30 114 H 8.4086 -0.0727927 -0.82379 0
M  V30 115 H 10.9546 -0.875593 -1.45367 0
M  V30 116 H 9.7266 -1.72711 -3.51122 0
M  V30 117 H 9.3496 -0.0760733 -3.97527 0
M  V30 118 N 10.3467 1.47872 -0.545128 0
M  V30 119 C 11.3097 2.28337 0.198717 0
M  V30 120 C 12.3097 1.36255 0.853888 0
M  V30 121 O 13.4997 1.59003 0.711606 0
M  V30 122 C 10.6317 3.15585 1.28915 0
M  V30 123 H 11.8247 2.95567 -0.507941 0
M  V30 124 H 9.3777 1.53362 -0.301616 0
M  V30 125 H 10.1127 2.53019 2.02859 0
M  V30 126 H 9.8977 3.83337 0.824309 0
M  V30 127 H 11.3877 3.76243 1.81194 0
M  V30 128 N 11.8248 0.280983 1.55075 0
M  V30 129 C 13.0728 -0.333455 1.9933 0
M  V30 130 C 13.3938 -1.55937 1.17085 0
M  V30 131 O 12.6638 -1.94143 0.261805 0
M  V30 132 H 11.2438 -0.126197 0.736263 0
M  V30 133 H 13.9058 0.387678 1.91005 0
M  V30 134 H 13.0018 -0.619292 3.05894 0
M  V30 135 N 13.3029 -1.57598 0.00835791 0
M  V30 136 C 14.5309 -1.95214 -0.68549 0
M  V30 137 C 14.9459 -0.883706 -1.66841 0
M  V30 138 O 14.3029 0.136565 -1.81988 0
M  V30 139 C 14.3539 -3.32865 -1.41007 0
M  V30 140 O 14.0749 -4.35609 -0.466552 0
M  V30 141 C 15.5759 -3.84991 -2.19765 0
M  V30 142 H 12.7959 -0.643422 -0.190392 0
M  V30 143 H 15.3399 -2.04406 0.0619607 0
M  V30 144 H 13.4949 -3.24956 -2.10908 0
M  V30 145 H 13.9089 -5.15288 -0.978699 0
M  V30 146 H 15.3829 -4.8371 -2.65948 0
M  V30 147 H 15.8599 -3.18137 -3.02796 0
M  V30 148 H 16.4659 -3.96103 -1.54864 0
M  V30 149 N 14.781 0.264519 -1.55364 0
M  V30 150 C 16.011 1.01153 -1.80143 0
M  V30 151 C 16.419 1.80115 -0.579253 0
M  V30 152 O 15.762 1.77813 0.46132 0
M  V30 153 C 15.824 2.01098 -2.97993 0
M  V30 154 C 15.488 1.40995 -4.34706 0
M  V30 155 C 16.485 0.821316 -5.13372 0
M  V30 156 C 14.17 1.43461 -4.81378 0
M  V30 157 C 16.164 0.265339 -6.36847 0
M  V30 158 C 13.851 0.874771 -6.04807 0
M  V30 159 C 14.849 0.291146 -6.82379 0
M  V30 160 O 14.537 -0.260093 -8.03479 0
M  V30 161 H 14.269 0.304125 -0.603725 0
M  V30 162 H 16.823 0.298089 -2.03225 0
M  V30 163 H 15.053 2.76224 -2.70623 0
M  V30 164 H 16.742 2.61997 -3.1002 0
M  V30 165 H 17.508 0.794903 -4.78442 0
M  V30 166 H 13.387 1.87826 -4.21002 0
M  V30 167 H 16.931 -0.190837 -6.97339 0
M  V30 168 H 12.828 0.898452 -6.39217 0
M  V30 169 H 13.596 -0.150265 -8.18362 0
M  V30 170 N 16.2591 1.48442 0.529413 0
M  V30 171 C 17.2061 1.63007 1.63394 0
M  V30 172 C 18.1761 0.47212 1.59249 0
M  V30 173 O 19.3611 0.695673 1.77666 0
M  V30 174 C 16.5011 1.6763 3.01653 0
M  V30 175 C 15.6141 2.94535 3.16027 0
M  V30 176 C 14.7491 2.90316 4.44849 0
M  V30 177 C 13.7881 4.11923 4.52754 0
M  V30 178 N 12.9251 4.05777 5.72965 0
M  V30 179 H 17.7651 2.5733 1.50285 0
M  V30 180 H 15.3021 1.27613 0.731656 0
M  V30 181 H 17.2601 1.68292 3.81751 0
M  V30 182 H 15.8901 0.76797 3.13532 0
M  V30 183 H 14.9421 3.03615 2.29177 0
M  V30 184 H 16.2541 3.84512 3.17729 0
M  V30 185 H 15.4081 2.89382 5.33238 0
M  V30 186 H 14.1471 1.98068 4.45668 0
M  V30 187 H 13.1521 4.13131 3.62771 0
M  V30 188 H 14.3771 5.0533 4.53672 0
M  V30 189 H 12.3231 3.16351 5.74681 0
M  V30 190 H 12.2401 4.8946 5.76164 0
M  V30 191 H 13.5081 4.08904 6.6364 0
M  V30 192 N 17.7372 -0.778329 1.37039 0
M  V30 193 C 18.7002 -1.87301 1.32102 0
M  V30 194 C 19.7002 -1.59198 0.226405 0
M  V30 195 O 20.8902 -1.67403 0.481861 0
M  V30 196 C 18.0222 -3.24309 1.05055 0
M  V30 197 H 19.2152 -1.93093 2.29467 0
M  V30 198 H 16.7682 -0.977358 1.21973 0
M  V30 199 H 17.5032 -3.24196 0.0819373 0
M  V30 200 H 17.2882 -3.46098 1.84279 0
M  V30 201 H 18.7782 -4.04382 1.04234 0
M  V30 202 N 19.2153 -1.21501 -1.00376 0
M  V30 203 C 20.1473 -0.933174 -2.09343 0
M  V30 204 C 21.1603 0.0840896 -1.62583 0
M  V30 205 O 22.3493 -0.148563 -1.77881 0
M  V30 206 C 19.4493 -0.379869 -3.36764 0
M  V30 207 C 18.6223 -1.45176 -4.12605 0
M  V30 208 C 17.6813 -0.907476 -5.18316 0
M  V30 209 O 16.7073 -1.5912 -5.46507 0
M  V30 210 N 17.9093 0.276649 -5.7984 0
M  V30 211 H 20.6743 -1.87124 -2.34104 0
M  V30 212 H 18.2353 -1.12043 -1.16867 0
M  V30 213 H 20.2273 -0.00131488 -4.047 0
M  V30 214 H 18.7973 0.463048 -3.09151 0
M  V30 215 H 18.0173 -2.00411 -3.39454 0
M  V30 216 H 19.3053 -2.17328 -4.6005 0
M  V30 217 H 18.7033 0.849147 -5.59291 0
M  V30 218 H 17.2603 0.596702 -6.49063 0
M  V30 219 N 20.6934 1.19889 -1.02296 0
M  V30 220 C 21.9414 1.89046 -0.714558 0
M  V30 221 C 22.2624 1.79636 0.758681 0
M  V30 222 O 21.5324 1.20292 1.54618 0
M  V30 223 H 20.1124 0.699802 -0.261317 0
M  V30 224 H 22.7744 1.45574 -1.29592 0
M  V30 225 H 21.8704 2.95524 -1.0036 0
M  V30 226 N 22.1715 0.800033 1.35784 0
M  V30 227 C 23.4195 0.376597 1.9856 0
M  V30 228 C 23.7405 -1.05812 1.63795 0
M  V30 229 O 23.0105 -1.73103 0.917171 0
M  V30 230 H 21.5905 0.136261 0.734467 0
M  V30 231 H 24.2525 1.02442 1.65806 0
M  V30 232 H 23.3485 0.477002 3.08433 0
M  V30 233 N 23.6496 -1.47581 0.552962 0
M  V30 234 C 24.5966 -2.29957 -0.197108 0
M  V30 235 C 25.5666 -1.38799 -0.912359 0
M  V30 236 O 26.7516 -1.67761 -0.908888 0
M  V30 237 C 23.8916 -3.22672 -1.22379 0
M  V30 238 C 23.0046 -4.28919 -0.515038 0
M  V30 239 C 22.1396 -5.0879 -1.52664 0
M  V30 240 C 21.1786 -6.06815 -0.802631 0
M  V30 241 N 20.3156 -6.7966 -1.76086 0
M  V30 242 H 25.1556 -2.93578 0.511486 0
M  V30 243 H 22.6926 -1.4471 0.264067 0
M  V30 244 H 24.6506 -3.74845 -1.83159 0
M  V30 245 H 23.2806 -2.60925 -1.90047 0
M  V30 246 H 22.3326 -3.79835 0.207192 0
M  V30 247 H 23.6446 -4.98773 0.0523425 0
M  V30 248 H 22.7986 -5.65091 -2.20809 0
M  V30 249 H 21.5376 -4.38828 -2.12794 0
M  V30 250 H 20.5426 -5.49695 -0.107238 0
M  V30 251 H 21.7676 -6.78784 -0.207135 0
M  V30 252 H 19.7136 -6.12432 -2.35081 0
M  V30 253 H 19.6306 -7.45669 -1.24552 0
M  V30 254 H 20.8986 -7.40538 -2.43359 0
M  V30 255 N 25.1277 -0.289203 -1.54924 0
M  V30 256 C 26.3527 0.329299 -2.04769 0
M  V30 257 C 26.7777 1.4763 -1.16564 0
M  V30 258 O 26.1357 1.80527 -0.167186 0
M  V30 259 C 26.1837 0.774438 -3.52186 0
M  V30 260 O 25.2877 1.88038 -3.67036 0
M  V30 261 H 24.6287 0.0659259 -0.660719 0
M  V30 262 H 27.1587 -0.42761 -2.00082 0
M  V30 263 H 27.1687 1.06642 -3.93816 0
M  V30 264 H 25.8437 -0.0646707 -4.1585 0
M  V30 265 H 24.4207 1.58985 -3.3731 0
M  V30 266 N 26.6058 1.57591 -0.0167156 0
M  V30 267 C 27.5528 2.09462 0.969251 0
M  V30 268 C 28.5228 0.99381 1.33089 0
M  V30 269 O 29.7078 1.26726 1.42636 0
M  V30 270 C 26.8478 2.61622 2.25051 0
M  V30 271 C 25.9608 3.85666 1.94642 0
M  V30 272 C 25.0958 4.26266 3.16972 0
M  V30 273 C 24.1348 5.43101 2.82326 0
M  V30 274 N 23.2718 5.78915 3.97243 0
M  V30 275 H 28.1118 2.93428 0.519997 0
M  V30 276 H 25.6488 1.45044 0.245087 0
M  V30 277 H 27.6068 2.89949 2.99976 0
M  V30 278 H 26.2368 1.80505 2.67615 0
M  V30 279 H 25.2888 3.64145 1.10013 0
M  V30 280 H 26.6008 4.70678 1.65117 0
M  V30 281 H 25.7548 4.55963 4.00228 0
M  V30 282 H 24.4938 3.39996 3.49648 0
M  V30 283 H 23.4988 5.1311 1.97479 0
M  V30 284 H 24.7238 6.3106 2.50879 0
M  V30 285 H 22.6698 4.95602 4.29785 0
M  V30 286 H 22.5868 6.58539 3.71299 0
M  V30 287 H 23.8548 6.13212 4.81239 0
M  V30 288 N 28.0839 -0.256276 1.55502 0
M  V30 289 C 29.3119 -1.00342 1.8094 0
M  V30 290 C 29.7269 -1.79307 0.59114 0
M  V30 291 O 29.0839 -1.77114 -0.440081 0
M  V30 292 C 29.1349 -1.94875 3.04476 0
M  V30 293 O 28.8559 -1.19107 4.21598 0
M  V30 294 C 30.3569 -2.81266 3.42644 0
M  V30 295 H 27.5769 -0.295685 0.602338 0
M  V30 296 H 30.1209 -0.281998 2.02546 0
M  V30 297 H 28.2759 -2.62457 2.84947 0
M  V30 298 H 28.6899 -1.82969 4.91551 0
M  V30 299 H 30.1639 -3.43362 4.32211 0
M  V30 300 H 30.6409 -3.51897 2.62802 0
M  V30 301 H 31.2469 -2.1915 3.64491 0
M  V30 302 N 29.562 -1.4872 -0.521534 0
M  V30 303 C 30.525 -1.63379 -1.60748 0
M  V30 304 C 31.525 -0.50661 -1.52611 0
M  V30 305 O 32.715 -0.772601 -1.5613 0
M  V30 306 C 29.847 -1.61192 -3.00383 0
M  V30 307 H 31.04 -2.60217 -1.49087 0
M  V30 308 H 28.593 -1.37444 -0.744235 0
M  V30 309 H 29.328 -0.65863 -3.17541 0
M  V30 310 H 29.113 -2.43032 -3.07698 0
M  V30 311 H 30.603 -1.7466 -3.7932 0
M  V30 312 N 31.0401 0.771051 -1.3745 0
M  V30 313 C 32.2681 1.56015 -1.35893 0
M  V30 314 C 32.6831 1.88718 0.0555523 0
M  V30 315 O 32.0401 1.51502 1.01752 0
M  V30 316 C 32.0911 2.87001 -2.19801 0
M  V30 317 O 31.8121 2.557 -3.55738 0
M  V30 318 C 33.3131 3.81228 -2.26231 0
M  V30 319 H 30.5331 0.483317 -0.465453 0
M  V30 320 H 33.0771 0.955611 -1.80799 0
M  V30 321 H 31.2321 3.43877 -1.78402 0
M  V30 322 H 31.6461 3.39584 -3.99729 0
M  V30 323 H 33.1201 4.70139 -2.89263 0
M  V30 324 H 33.5971 4.20409 -1.27093 0
M  V30 325 H 34.2031 3.30281 -2.67945 0
M  V30 326 N 32.5182 1.22032 0.997298 0
M  V30 327 C 33.4502 0.944263 2.08845 0
M  V30 328 C 34.4632 -0.0754663 1.62625 0
M  V30 329 O 35.6522 0.157994 1.77799 0
M  V30 330 C 32.7522 0.397723 3.36558 0
M  V30 331 C 31.9252 1.47362 4.11829 0
M  V30 332 C 30.9842 0.934951 5.17827 0
M  V30 333 O 30.0102 1.62016 5.45655 0
M  V30 334 N 31.2122 -0.245895 5.79979 0
M  V30 335 H 33.9772 1.88363 2.33109 0
M  V30 336 H 31.5382 1.12661 1.16272 0
M  V30 337 H 33.5302 0.0227771 4.04694 0
M  V30 338 H 32.1002 -0.446646 3.09393 0
M  V30 339 H 31.3202 2.02208 3.38386 0
M  V30 340 H 32.6082 2.19764 4.58891 0
M  V30 341 H 32.0062 -0.819475 5.59733 0
M  V30 342 H 30.5632 -0.562272 6.4937 0
M  V30 343 N 33.9963 -1.19345 1.0293 0
M  V30 344 C 35.2453 -1.88363 0.721256 0
M  V30 345 C 35.5583 -1.80514 -0.753254 0
M  V30 346 O 36.7643 -2.44788 -1.17436 0
M  V30 347 C 35.2203 -3.37872 1.23978 0
M  V30 348 C 34.8283 -3.54278 2.74211 0
M  V30 349 C 36.5723 -4.12365 1.00775 0
M  V30 350 C 34.4793 -4.97682 3.19479 0
M  V30 351 H 33.4093 -0.705484 0.266098 0
M  V30 352 H 36.0603 -1.34928 1.24365 0
M  V30 353 H 34.4423 -3.90707 0.6453 0
M  V30 354 H 35.6163 -3.11769 3.39318 0
M  V30 355 H 33.9313 -2.93174 2.95699 0
M  V30 356 H 36.5283 -5.18119 1.32123 0
M  V30 357 H 36.8713 -4.16263 -0.0554308 0
M  V30 358 H 37.4043 -3.65668 1.56625 0
M  V30 359 H 34.1433 -4.98945 4.25128 0
M  V30 360 H 33.6633 -5.4095 2.591 0
M  V30 361 H 35.3423 -5.66337 3.12845 0
M  V30 362 N 35.4744 -0.807222 -1.35358 0
M  V30 363 C 36.4374 -0.223665 -2.28106 0
M  V30 364 C 37.4374 0.589354 -1.4961 0
M  V30 365 O 38.6274 0.407745 -1.69361 0
M  V30 366 C 35.7594 0.688149 -3.33882 0
M  V30 367 H 36.9524 -1.04169 -2.81227 0
M  V30 368 H 34.5054 -0.577921 -1.45223 0
M  V30 369 H 35.2404 1.52984 -2.85948 0
M  V30 370 H 35.0254 0.10687 -3.91954 0
M  V30 371 H 36.5154 1.09075 -4.03104 0
M  V30 372 N 36.9525 1.47285 -0.560781 0
M  V30 373 C 38.2295 1.9558 0.0277798 0
M  V30 374 C 38.6095 1.5034 1.48192 0
M  V30 375 O 37.9575 0.743882 2.16052 0
M  V30 376 C 38.1675 3.48789 -0.121418 0
M  V30 377 C 39.5155 4.24594 0.0220912 0
M  V30 378 O 40.5395 3.56166 -0.0491439 0
M  V30 379 O 39.3985 5.46217 0.175958 0
M  V30 380 H 36.4925 0.824663 0.0621342 0
M  V30 381 H 39.0385 1.5767 -0.627556 0
M  V30 382 H 37.8105 3.74533 -1.13316 0
M  V30 383 H 37.4335 3.93473 0.571366 0
M  V30 384 N 38.4306 0.297415 1.54768 0
M  V30 385 C 39.6776 -0.312913 2.00068 0
M  V30 386 C 40.0056 -1.54171 1.18582 0
M  V30 387 O 39.2606 -1.94108 0.249133 0
M  V30 388 C 39.5596 -0.717561 3.50123 0
M  V30 389 C 39.2256 0.409095 4.4904 0
M  V30 390 C 37.8876 0.718399 4.75807 0
M  V30 391 C 40.2396 1.16717 5.07963 0
M  V30 392 C 37.5676 1.78896 5.5876 0
M  V30 393 C 39.9196 2.22762 5.92081 0
M  V30 394 C 38.5836 2.54303 6.1716 0
M  V30 395 H 37.8536 -0.114503 0.7321 0
M  V30 396 H 40.5006 0.415767 1.86932 0
M  V30 397 H 38.8056 -1.52627 3.60849 0
M  V30 398 H 40.5026 -1.20091 3.82595 0
M  V30 399 H 37.0926 0.157918 4.28309 0
M  V30 400 H 41.2766 0.941466 4.87289 0
M  V30 401 H 36.5326 2.0381 5.7643 0
M  V30 402 H 40.7066 2.81962 6.36765 0
M  V30 403 H 38.3336 3.3739 6.81229 0
M  V30 404 N 39.9087 -1.5758 0.0250728 0
M  V30 405 C 41.1567 -1.91255 -0.653151 0
M  V30 406 C 41.4777 -0.901691 -1.729 0
M  V30 407 O 40.7477 0.0573785 -1.95816 0
M  V30 408 H 39.3277 -0.705942 -0.244243 0
M  V30 409 H 41.9897 -1.94767 0.0719209 0
M  V30 410 H 41.0857 -2.91752 -1.10847 0
M  V30 411 N 41.3868 0.248026 -1.55636 0
M  V30 412 C 42.6118 0.998028 -1.81808 0
M  V30 413 C 43.0368 1.78207 -0.601979 0
M  V30 414 O 42.3948 1.75653 0.448961 0
M  V30 415 C 42.4428 1.9125 -3.05705 0
M  V30 416 O 41.5468 3.00406 -2.82542 0
M  V30 417 H 40.8878 0.284045 -0.600179 0
M  V30 418 H 43.4178 0.269357 -2.02819 0
M  V30 419 H 43.4278 2.32737 -3.35108 0
M  V30 420 H 42.1028 1.33602 -3.93857 0
M  V30 421 H 40.6798 2.63056 -2.64303 0
M  V30 422 N 42.8649 1.48995 0.513639 0
M  V30 423 C 43.8119 1.6473 1.61656 0
M  V30 424 C 44.7819 0.488984 1.58739 0
M  V30 425 O 45.9669 0.714478 1.76918 0
M  V30 426 C 43.1069 1.7082 2.99858 0
M  V30 427 C 42.2199 2.9787 3.12885 0
M  V30 428 C 41.3549 2.95017 4.41744 0
M  V30 429 C 40.3939 4.16702 4.48359 0
M  V30 430 N 39.5309 4.11832 5.68629 0
M  V30 431 H 44.3709 2.58909 1.47547 0
M  V30 432 H 41.9079 1.28382 0.71808 0
M  V30 433 H 43.8659 1.72331 3.79944 0
M  V30 434 H 42.4959 0.801181 3.12699 0
M  V30 435 H 41.5479 3.06029 2.25944 0
M  V30 436 H 42.8599 3.8786 3.13633 0
M  V30 437 H 42.0139 2.95021 5.30139 0
M  V30 438 H 40.7529 2.02784 4.43542 0
M  V30 439 H 39.7579 4.16955 3.58369 0
M  V30 440 H 40.9829 5.10113 4.48287 0
M  V30 441 H 38.9289 3.22428 5.71293 0
M  V30 442 H 38.8459 4.95543 5.7094 0
M  V30 443 H 40.1139 4.1592 6.59266 0
M  V30 444 N 44.343 -0.763751 1.37857 0
M  V30 445 C 45.592 -1.51789 1.32827 0
M  V30 446 C 45.905 -1.95426 -0.0823719 0
M  V30 447 O 47.111 -2.70298 -0.255172 0
M  V30 448 C 45.567 -2.74133 2.33193 0
M  V30 449 C 45.175 -2.37562 3.79827 0
M  V30 450 C 46.919 -3.52054 2.37188 0
M  V30 451 C 44.826 -3.56456 4.71904 0
M  V30 452 H 43.756 -0.569896 0.493695 0
M  V30 453 H 46.407 -0.835822 1.63359 0
M  V30 454 H 44.789 -3.4427 1.9569 0
M  V30 455 H 45.963 -1.75157 4.26212 0
M  V30 456 H 44.278 -1.72798 3.78853 0
M  V30 457 H 46.875 -4.40437 3.03182 0
M  V30 458 H 47.218 -3.92486 1.38782 0
M  V30 459 H 47.751 -2.88921 2.7344 0
M  V30 460 H 44.49 -3.21099 5.71468 0
M  V30 461 H 44.01 -4.17938 4.30218 0
M  V30 462 H 45.689 -4.23168 4.89426 0
M  V30 463 N 45.8211 -1.22559 -0.990812 0
M  V30 464 C 47.0691 -1.04933 -1.72724 0
M  V30 465 C 47.3901 0.416158 -1.90508 0
M  V30 466 O 46.6601 1.29918 -1.46622 0
M  V30 467 H 45.2401 -0.385296 -0.639965 0
M  V30 468 H 47.9021 -1.54105 -1.19322 0
M  V30 469 H 46.9981 -1.52886 -2.72089 0
M  V30 470 N 47.2992 1.18797 -1.03562 0
M  V30 471 C 48.5462 1.8865 -0.736023 0
M  V30 472 C 48.8742 1.80041 0.735889 0
M  V30 473 O 48.1292 1.19179 1.55225 0
M  V30 474 C 48.4282 3.38692 -1.14117 0
M  V30 475 C 48.0942 3.67504 -2.6125 0
M  V30 476 C 46.7562 3.75078 -3.01447 0
M  V30 477 C 49.1082 3.80293 -3.56408 0
M  V30 478 C 46.4362 3.92915 -4.35701 0
M  V30 479 C 48.7882 3.99645 -4.90374 0
M  V30 480 C 47.4522 4.05453 -5.30249 0
M  V30 481 H 46.7222 0.690321 -0.26933 0
M  V30 482 H 49.3692 1.40641 -1.29971 0
M  V30 483 H 47.6742 3.88645 -0.496202 0
M  V30 484 H 49.3712 3.91072 -0.886789 0
M  V30 485 H 45.9612 3.62223 -2.29113 0
M  V30 486 H 50.1452 3.73779 -3.26501 0
M  V30 487 H 45.4012 3.95653 -4.66121 0
M  V30 488 H 49.5752 4.08482 -5.64017 0
M  V30 489 H 47.2022 4.19027 -6.34288 0
M  V30 490 N 48.7773 0.814389 1.34928 0
M  V30 491 C 49.7243 0.22822 2.29669 0
M  V30 492 C 50.6943 -0.642164 1.53184 0
M  V30 493 O 51.8793 -0.585605 1.81591 0
M  V30 494 C 49.0193 -0.61089 3.3965 0
M  V30 495 C 48.1323 0.280792 4.31086 0
M  V30 496 C 47.2673 -0.567067 5.28165 0
M  V30 497 C 46.3063 0.324531 6.11239 0
M  V30 498 N 45.4433 -0.483756 7.00431 0
M  V30 499 H 50.2833 1.04153 2.79206 0
M  V30 500 H 47.8203 0.525133 1.37407 0
M  V30 501 H 49.7783 -1.11263 4.0209 0
M  V30 502 H 48.4083 -1.38939 2.91369 0
M  V30 503 H 47.4603 0.900688 3.69583 0
M  V30 504 H 48.7723 0.966723 4.89342 0
M  V30 505 H 47.9263 -1.13363 5.96015 0
M  V30 506 H 46.6653 -1.28654 4.70425 0
M  V30 507 H 45.6703 0.903298 5.42329 0
M  V30 508 H 46.8953 1.04198 6.71059 0
M  V30 509 H 44.8413 -1.18706 6.45171 0
M  V30 510 H 44.7583 0.143965 7.55863 0
M  V30 511 H 46.0263 -1.03334 7.7262 0
M  V30 512 N 50.2554 -1.46986 0.568584 0
M  V30 513 C 51.5034 -2.02041 0.0487022 0
M  V30 514 C 51.8244 -1.44408 -1.31039 0
M  V30 515 O 51.0944 -0.623477 -1.85714 0
M  V30 516 H 49.6744 -0.746849 0.015014 0
M  V30 517 H 52.3364 -1.80257 0.741168 0
M  V30 518 H 51.4324 -3.12085 -0.0308961 0
M  V30 519 N 51.7335 -0.305618 -1.54608 0
M  V30 520 C 52.6655 0.602161 -2.21149 0
M  V30 521 C 53.6785 1.09394 -1.20569 0
M  V30 522 O 54.8675 1.0106 -1.47136 0
M  V30 523 C 51.9675 1.83692 -2.84799 0
M  V30 524 C 51.1405 1.48686 -4.11353 0
M  V30 525 C 50.1995 2.57725 -4.58764 0
M  V30 526 O 49.2255 2.22623 -5.23858 0
M  V30 527 N 50.4275 3.88346 -4.31471 0
M  V30 528 H 53.1925 0.0324966 -2.99682 0
M  V30 529 H 50.7535 -0.128021 -1.61393 0
M  V30 530 H 52.7455 2.55994 -3.13448 0
M  V30 531 H 51.3155 2.31486 -2.10078 0
M  V30 532 H 50.5355 0.596269 -3.89664 0
M  V30 533 H 51.8235 1.22842 -4.93748 0
M  V30 534 H 51.2215 4.19671 -3.79331 0
M  V30 535 H 49.7785 4.56932 -4.64818 0
M  V30 536 N 53.2116 1.57565 -0.0334293 0
M  V30 537 C 54.1216 2.13943 0.962572 0
M  V30 538 C 55.1376 1.09276 1.35406 0
M  V30 539 O 56.3136 1.41355 1.4346 0
M  V30 540 C 53.3786 2.65887 2.22497 0
M  V30 541 C 52.4396 3.85286 1.8935 0
M  V30 542 C 51.6726 4.34743 3.09571 0
M  V30 543 O 51.8956 3.83352 4.22371 0
M  V30 544 O 50.8296 5.26538 2.91618 0
M  V30 545 H 54.6556 2.99333 0.513169 0
M  V30 546 H 52.2406 1.4822 0.18743 0
M  V30 547 H 54.1226 2.99346 2.96598 0
M  V30 548 H 52.7976 1.83578 2.6661 0
M  V30 549 H 51.7046 3.56746 1.1262 0
M  V30 550 H 53.0376 4.68771 1.5005 0
M  V30 551 N 54.6897 -0.239769 1.55765 0
M  V30 552 C 55.9667 -0.990056 1.68693 0
M  V30 553 C 56.3467 -2.03107 0.5754 0
M  V30 554 O 55.6947 -2.24604 -0.42017 0
M  V30 555 C 55.9047 -1.61696 3.09282 0
M  V30 556 C 57.2527 -2.11613 3.6811 0
M  V30 557 O 58.2767 -1.71624 3.12127 0
M  V30 558 O 57.1357 -2.85057 4.66267 0
M  V30 559 H 54.2297 -0.461299 0.686391 0
M  V30 560 H 56.7757 -0.232991 1.68093 0
M  V30 561 H 55.5477 -0.864357 3.81634 0
M  V30 562 H 55.1707 -2.44005 3.13923 0
M  V30 563 N 56.1678 -1.49265 -0.50573 0
M  V30 564 C 57.0978 -1.68495 -1.61653 0
M  V30 565 C 58.0788 -0.53366 -1.61512 0
M  V30 566 O 59.2638 -0.76897 -1.78327 0
M  V30 567 C 56.3938 -1.74709 -3.00157 0
M  V30 568 C 55.3478 -2.89581 -3.15162 0
M  V30 569 C 54.6738 -2.80903 -4.5497 0
M  V30 570 C 55.9738 -4.30578 -2.95634 0
M  V30 571 H 57.6678 -2.61493 -1.45814 0
M  V30 572 H 55.2138 -1.25838 -0.70005 0
M  V30 573 H 57.1668 -1.86748 -3.77761 0
M  V30 574 H 55.8908 -0.783067 -3.17074 0
M  V30 575 H 54.5498 -2.77136 -2.39982 0
M  V30 576 H 54.1978 -1.82419 -4.68756 0
M  V30 577 H 53.8978 -3.57999 -4.65951 0
M  V30 578 H 55.4218 -2.94944 -5.34641 0
M  V30 579 H 56.8358 -4.4373 -3.63011 0
M  V30 580 H 55.2328 -5.0886 -3.18091 0
M  V30 581 H 56.3028 -4.45352 -1.91806 0
M  V30 582 N 57.6459 0.756429 -1.3826 0
M  V30 583 C 58.8939 1.51248 -1.34047 0
M  V30 584 C 59.2149 1.94875 0.0698372 0
M  V30 585 O 58.4849 1.67436 1.01696 0
M  V30 586 H 57.0649 0.561018 -0.493222 0
M  V30 587 H 59.7269 0.899347 -1.7291 0
M  V30 588 H 58.8229 2.40472 -1.98947 0
M  V30 589 N 59.124 1.23083 0.984299 0
M  V30 590 C 60.072 1.00593 2.09723 0
M  V30 591 C 61.066 -0.0538014 1.69315 0
M  V30 592 O 62.272 0.0993719 1.79725 0
M  V30 593 H 58.647 0.30817 0.685956 0
M  V30 594 H 60.618 1.95012 2.2586 0
M  V30 595 C 59.367 0.609601 3.42314 0
M  V30 596 H 58.69 1.41675 3.73856 0
M  V30 597 H 60.13 0.491726 4.21139 0
M  V30 598 C 58.589 -0.681745 3.2993 0
M  V30 599 O 59.119 -1.73192 3.62446 0
M  V30 600 N 57.325 -0.656178 2.83095 0
M  V30 601 H 56.872 0.198759 2.56832 0
M  V30 602 H 56.83 -1.52044 2.75191 0
M  V30 603 N 60.6021 -1.18246 1.0419 0
M  V30 604 C 61.8501 -1.87886 0.744543 0
M  V30 605 C 62.1711 -1.8082 -0.730006 0
M  V30 606 O 61.4411 -1.22736 -1.52685 0
M  V30 607 H 60.0211 -0.695556 0.272417 0
M  V30 608 H 62.6831 -1.43494 1.31892 0
M  V30 609 H 61.7791 -2.9389 1.05049 0
M  V30 610 N 62.0802 -0.821533 -1.34494 0
M  V30 611 C 63.0132 -0.187704 -2.27427 0
M  V30 612 C 63.9912 0.65507 -1.48821 0
M  V30 613 O 65.1752 0.619111 -1.78043 0
M  V30 614 C 62.3022 0.737996 -3.30562 0
M  V30 615 C 61.3482 -0.0270713 -4.26491 0
M  V30 616 S 62.1812 -1.37329 -5.17592 0
M  V30 617 C 63.3372 -0.452427 -6.24263 0
M  V30 618 H 63.5702 -0.975598 -2.80837 0
M  V30 619 H 61.1032 -0.61736 -1.4152 0
M  V30 620 H 63.0612 1.26654 -3.90473 0
M  V30 621 H 61.7222 1.4994 -2.76001 0
M  V30 622 H 60.9152 0.6766 -4.99438 0
M  V30 623 H 60.5172 -0.48612 -3.70827 0
M  V30 624 H 62.8092 0.356557 -6.76561 0
M  V30 625 H 63.7522 -1.15153 -6.98674 0
M  V30 626 H 64.1602 -0.0414755 -5.64485 0
M  V30 627 N 63.5583 1.46682 -0.576371 0
M  V30 628 C 64.5053 2.30241 0.160499 0
M  V30 629 C 65.4753 1.40233 0.890162 0
M  V30 630 O 66.6603 1.69186 0.882084 0
M  V30 631 C 63.8003 3.24578 1.1723 0
M  V30 632 C 62.9133 4.29684 0.446736 0
M  V30 633 C 62.0483 5.11154 1.44551 0
M  V30 634 C 61.0873 6.08015 0.70599 0
M  V30 635 N 60.2243 6.82376 1.65251 0
M  V30 636 H 65.0643 2.92727 -0.558127 0
M  V30 637 H 62.6013 1.44272 -0.287056 0
M  V30 638 H 64.5593 3.77711 1.77172 0
M  V30 639 H 63.1893 2.63916 1.85872 0
M  V30 640 H 62.2413 3.79458 -0.267594 0
M  V30 641 H 63.5533 4.98626 -0.131686 0
M  V30 642 H 62.7073 5.68533 2.11791 0
M  V30 643 H 61.4463 4.42158 2.05786 0
M  V30 644 H 60.4513 5.49796 0.0197725 0
M  V30 645 H 61.6763 6.79028 0.09912 0
M  V30 646 H 59.6223 6.16094 2.25308 0
M  V30 647 H 59.5393 7.47556 1.12673 0
M  V30 648 H 60.8073 7.44316 2.31546 0
M  V30 649 N 65.0364 0.313813 1.54444 0
M  V30 650 C 65.9994 -0.54379 2.22656 0
M  V30 651 C 66.9994 -1.05124 1.21678 0
M  V30 652 O 68.1894 -0.945225 1.46325 0
M  V30 653 C 65.3214 -1.75427 2.92298 0
M  V30 654 H 66.5144 0.0523599 2.99854 0
M  V30 655 H 64.0674 0.0647834 1.56166 0
M  V30 656 H 64.8024 -2.38991 2.19211 0
M  V30 657 H 64.5874 -1.39791 3.66334 0
M  V30 658 H 66.0774 -2.36325 3.44297 0
M  V30 659 N 66.5145 -1.57545 0.0417849 0
M  V30 660 C 67.7635 -1.91494 -0.633492 0
M  V30 661 C 68.0765 -0.921084 -1.72556 0
M  V30 662 O 69.2825 -1.15228 -2.45835 0
M  V30 663 C 67.7385 -3.40072 -1.17808 0
M  V30 664 C 67.3465 -4.47843 -0.118633 0
M  V30 665 C 69.0905 -3.8307 -1.82915 0
M  V30 666 C 66.9975 -5.87529 -0.675578 0
M  V30 667 H 65.9275 -0.714653 -0.24039 0
M  V30 668 H 68.5785 -1.83175 0.109148 0
M  V30 669 H 66.9605 -3.43364 -1.97274 0
M  V30 670 H 68.1345 -4.56128 0.654494 0
M  V30 671 H 66.4495 -4.14128 0.434414 0
M  V30 672 H 69.0465 -4.84794 -2.25563 0
M  V30 673 H 69.3895 -3.1881 -2.67705 0
M  V30 674 H 69.9225 -3.82255 -1.10119 0
M  V30 675 H 66.6615 -6.55362 0.134475 0
M  V30 676 H 66.1815 -5.82824 -1.4169 0
M  V30 677 H 67.8605 -6.36491 -1.1614 0
M  V30 678 N 67.9926 0.231505 -1.5589 0
M  V30 679 C 69.2386 0.954429 -1.79617 0
M  V30 680 C 69.5936 1.82367 -0.613199 0
M  V30 681 O 68.8866 1.87524 0.393094 0
M  V30 682 C 69.0806 1.83577 -3.0665 0
M  V30 683 C 68.9096 1.05334 -4.3719 0
M  V30 684 C 67.6796 0.75225 -4.99669 0
M  V30 685 C 69.8776 0.423444 -5.12554 0
M  V30 686 N 67.8596 -0.052627 -6.13877 0
M  V30 687 C 69.2306 -0.245287 -6.19515 0
M  V30 688 C 71.2856 0.335466 -4.96769 0
M  V30 689 C 69.9886 -0.993566 -7.12405 0
M  V30 690 C 72.0146 -0.399321 -5.9005 0
M  V30 691 C 71.3766 -1.05663 -6.9643 0
M  V30 692 H 67.4756 0.329846 -0.709031 0
M  V30 693 H 70.0596 0.226172 -1.93382 0
M  V30 694 H 68.2306 2.53592 -2.94186 0
M  V30 695 H 69.9626 2.49541 -3.18608 0
M  V30 696 H 66.7176 1.06783 -4.61405 0
M  V30 697 H 67.1416 -0.443609 -6.75545 0
M  V30 698 H 71.7836 0.829311 -4.14587 0
M  V30 699 H 69.5016 -1.49896 -7.94076 0
M  V30 700 H 73.0876 -0.468265 -5.79913 0
M  V30 701 H 71.9676 -1.61612 -7.67366 0
M  V30 702 N 69.4707 1.49531 0.497807 0
M  V30 703 C 70.4027 1.62559 1.61578 0
M  V30 704 C 71.4157 0.508134 1.54667 0
M  V30 705 O 72.6047 0.780309 1.60541 0
M  V30 706 C 69.7047 1.56925 3.00379 0
M  V30 707 C 68.8777 2.84257 3.3244 0
M  V30 708 C 67.9367 2.71632 4.50669 0
M  V30 709 O 66.9627 3.4557 4.52294 0
M  V30 710 N 68.1647 1.83391 5.5077 0
M  V30 711 H 70.9297 2.58981 1.50828 0
M  V30 712 H 68.4907 1.4666 0.685743 0
M  V30 713 H 70.4827 1.46129 3.77397 0
M  V30 714 H 69.0527 0.683483 3.05037 0
M  V30 715 H 68.2727 3.09381 2.44289 0
M  V30 716 H 69.5607 3.68666 3.5066 0
M  V30 717 H 68.9587 1.22583 5.52259 0
M  V30 718 H 67.5157 1.78515 6.26878 0
M  V30 719 N 70.9488 -0.749086 1.3866 0
M  V30 720 C 71.8788 -1.8764 1.38973 0
M  V30 721 C 72.8598 -1.68178 0.255004 0
M  V30 722 O 74.0448 -1.88704 0.458754 0
M  V30 723 C 71.1748 -3.25222 1.21851 0
M  V30 724 C 70.1288 -3.59295 2.32575 0
M  V30 725 C 69.4548 -4.95663 2.00555 0
M  V30 726 C 70.7548 -3.63709 3.7485 0
M  V30 727 H 72.4488 -1.87635 2.3331 0
M  V30 728 H 69.9948 -0.901329 1.12303 0
M  V30 729 H 71.9478 -4.03746 1.20695 0
M  V30 730 H 70.6718 -3.25719 0.239775 0
M  V30 731 H 69.3308 -2.83093 2.32925 0
M  V30 732 H 68.9788 -4.92724 1.01154 0
M  V30 733 H 68.6788 -5.19429 2.74714 0
M  V30 734 H 70.2028 -5.7656 2.01024 0
M  V30 735 H 71.6168 -4.32338 3.76506 0
M  V30 736 H 70.0138 -3.98986 4.48252 0
M  V30 737 H 71.0838 -2.63834 4.06841 0
M  V30 738 N 72.4269 -1.23603 -0.977757 0
M  V30 739 C 73.3369 -1.03632 -2.1047 0
M  V30 740 C 74.3529 0.0199435 -1.73989 0
M  V30 741 O 75.5289 -0.176076 -2.00629 0
M  V30 742 C 72.5939 -0.63276 -3.40877 0
M  V30 743 C 71.6549 -1.76437 -3.91367 0
M  V30 744 C 70.8879 -1.37997 -5.15551 0
M  V30 745 O 71.1109 -0.265357 -5.69782 0
M  V30 746 O 70.0449 -2.20201 -5.60174 0
M  V30 747 H 73.8709 -1.98086 -2.30208 0
M  V30 748 H 71.4559 -1.02332 -1.08851 0
M  V30 749 H 73.3379 -0.418761 -4.19314 0
M  V30 750 H 72.0129 0.282754 -3.22463 0
M  V30 751 H 70.9199 -2.03304 -3.14036 0
M  V30 752 H 72.2529 -2.6583 -4.14241 0
M  V30 753 N 73.905 1.17692 -1.04816 0
M  V30 754 C 74.837 2.21103 -0.603822 0
M  V30 755 C 75.85 1.59411 0.33046 0
M  V30 756 O 77.039 1.7807 0.12379 0
M  V30 757 C 74.139 3.38623 0.136898 0
M  V30 758 C 73.312 4.29888 -0.807137 0
M  V30 759 C 72.371 5.26088 -0.10836 0
M  V30 760 O 71.397 5.64353 -0.741232 0
M  V30 761 N 72.599 5.68882 1.15558 0
M  V30 762 H 75.364 2.59848 -1.49329 0
M  V30 763 H 72.925 1.32553 -0.929587 0
M  V30 764 H 74.917 4.00009 0.614401 0
M  V30 765 H 73.487 2.98508 0.927993 0
M  V30 766 H 72.707 3.65993 -1.46434 0
M  V30 767 H 73.995 4.87759 -1.44807 0
M  V30 768 H 73.393 5.39861 1.69015 0
M  V30 769 H 71.95 6.32429 1.57722 0
M  V30 770 N 75.3831 0.828654 1.34056 0
M  V30 771 C 76.3301 0.252567 2.29414 0
M  V30 772 C 77.3001 -0.62588 1.53857 0
M  V30 773 O 78.4851 -0.566312 1.82202 0
M  V30 774 C 75.6251 -0.574831 3.40279 0
M  V30 775 C 74.7381 0.326499 4.30764 0
M  V30 776 C 73.8731 -0.511016 5.28736 0
M  V30 777 C 72.9121 0.389342 6.1086 0
M  V30 778 N 72.0491 -0.409439 7.00905 0
M  V30 779 H 76.8891 1.07108 2.78086 0
M  V30 780 H 74.4261 0.539677 1.36843 0
M  V30 781 H 76.3841 -1.06992 4.03248 0
M  V30 782 H 75.0141 -1.35841 2.92826 0
M  V30 783 H 74.0661 0.939837 3.68607 0
M  V30 784 H 75.3781 1.01857 4.88289 0
M  V30 785 H 74.5321 -1.07035 5.97184 0
M  V30 786 H 73.2711 -1.23657 4.71763 0
M  V30 787 H 72.2761 0.960769 5.4134 0
M  V30 788 H 73.5011 1.1131 6.69916 0
M  V30 789 H 71.4471 -1.11856 6.46393 0
M  V30 790 H 71.3641 0.224126 7.55668 0
M  V30 791 H 72.6321 -0.951336 7.73673 0
M  V30 792 N 76.8612 -1.46375 0.584142 0
M  V30 793 C 77.8242 -2.28784 -0.138108 0
M  V30 794 C 78.8242 -1.38471 -0.817462 0
M  V30 795 O 80.0142 -1.60833 -0.669199 0
M  V30 796 C 77.1462 -3.18892 -1.20503 0
M  V30 797 H 78.3392 -2.94117 0.586127 0
M  V30 798 H 75.8922 -1.52509 0.342171 0
M  V30 799 H 76.6272 -2.58309 -1.96079 0
M  V30 800 H 76.4122 -3.85388 -0.722384 0
M  V30 801 H 77.9022 -3.80914 -1.71155 0
M  V30 802 N 78.3393 -0.321999 -1.54275 0
M  V30 803 C 79.5643 0.285791 -2.05422 0
M  V30 804 C 79.9893 1.45124 -1.19669 0
M  V30 805 O 79.3473 1.80132 -0.205441 0
M  V30 806 C 79.3953 0.69956 -3.53749 0
M  V30 807 O 78.4993 1.8021 -3.70942 0
M  V30 808 H 77.8403 0.0518962 -0.661969 0
M  V30 809 H 80.3703 -0.469954 -1.9913 0
M  V30 810 H 80.3803 0.982649 -3.9599 0
M  V30 811 H 79.0553 -0.152864 -4.15619 0
M  V30 812 H 77.6323 1.51794 -3.40607 0
M  V30 813 N 79.8174 1.5752 -0.0501392 0
M  V30 814 C 81.0664 1.91827 0.623328 0
M  V30 815 C 81.3794 0.930222 1.72065 0
M  V30 816 O 82.5854 1.1653 2.4522 0
M  V30 817 C 81.0414 3.40692 1.16003 0
M  V30 818 C 80.6494 4.479 0.0948811 0
M  V30 819 C 82.3934 3.84034 1.80881 0
M  V30 820 C 80.3004 5.87879 0.644411 0
M  V30 821 H 79.2304 0.715918 0.236596 0
M  V30 822 H 81.8814 1.83115 -0.118861 0
M  V30 823 H 80.2634 3.44405 1.9545 0
M  V30 824 H 81.4374 4.55775 -0.678675 0
M  V30 825 H 79.7524 4.13892 -0.45637 0
M  V30 826 H 82.3494 4.85984 2.22988 0
M  V30 827 H 82.6924 3.20225 2.6601 0
M  V30 828 H 83.2254 3.82833 1.0809 0
M  V30 829 H 79.9644 6.55282 -0.169229 0
M  V30 830 H 79.4844 5.83567 1.38598 0
M  V30 831 H 81.1634 6.37098 1.12763 0
M  V30 832 N 81.2955 -0.223234 1.56011 0
M  V30 833 C 82.2585 -1.26014 1.9145 0
M  V30 834 C 83.2585 -1.3989 0.792937 0
M  V30 835 O 84.4485 -1.38184 1.0607 0
M  V30 836 C 81.5805 -2.63422 2.16383 0
M  V30 837 H 82.7735 -0.95796 2.84189 0
M  V30 838 H 80.3265 -0.463576 1.49267 0
M  V30 839 H 81.0615 -2.98741 1.2619 0
M  V30 840 H 80.8465 -2.54728 2.98088 0
M  V30 841 H 82.3365 -3.38249 2.44903 0
M  V30 842 N 82.7736 -1.49793 -0.48987 0
M  V30 843 C 84.0216 -1.59525 -1.24081 0
M  V30 844 C 84.3426 -0.288953 -1.92847 0
M  V30 845 O 83.6126 0.692436 -1.83254 0
M  V30 846 H 82.1926 -0.587796 -0.460983 0
M  V30 847 H 84.8546 -1.86477 -0.566778 0
M  V30 848 H 83.9506 -2.39696 -1.99881 0
M  V30 849 N 84.2517 0.741722 -1.39055 0
M  V30 850 C 85.4797 1.53098 -1.39171 0
M  V30 851 C 85.8947 1.88794 0.0155099 0
M  V30 852 O 85.2517 1.53626 0.985159 0
M  V30 853 C 85.3027 2.82274 -2.2584 0
M  V30 854 O 85.0237 2.48097 -3.61081 0
M  V30 855 C 86.5247 3.76343 -2.34266 0
M  V30 856 H 83.7447 0.473335 -0.4756 0
M  V30 857 H 86.2887 0.917045 -1.82785 0
M  V30 858 H 84.4437 3.40015 -1.85656 0
M  V30 859 H 84.8577 3.31029 -4.06842 0
M  V30 860 H 86.3317 4.63898 -2.9917 0
M  V30 861 H 86.8087 4.17619 -1.35982 0
M  V30 862 H 87.4147 3.24523 -2.74891 0
M  V30 863 N 85.7298 1.2412 0.971189 0
M  V30 864 C 86.6778 1.02812 2.08644 0
M  V30 865 C 87.6718 -0.0358403 1.69362 0
M  V30 866 O 88.8778 0.118429 1.7961 0
M  V30 867 H 85.2528 0.315428 0.682649 0
M  V30 868 H 87.2238 1.97397 2.23779 0
M  V30 869 C 85.9728 0.645874 3.41649 0
M  V30 870 H 85.2958 1.45632 3.72332 0
M  V30 871 H 86.7358 0.536366 4.20594 0
M  V30 872 C 85.1948 -0.646713 3.30635 0
M  V30 873 O 85.7248 -1.69338 3.64263 0
M  V30 874 N 83.9308 -0.626115 2.83775 0
M  V30 875 H 83.4778 0.225988 2.56607 0
M  V30 876 H 83.4358 -1.49117 2.76788 0
M  V30 877 N 87.2079 -1.17134 1.05439 0
M  V30 878 C 88.4329 -1.91913 0.786396 0
M  V30 879 C 88.8579 -1.7643 -0.652234 0
M  V30 880 O 88.2159 -1.08372 -1.45345 0
M  V30 881 C 88.2639 -3.40921 1.17497 0
M  V30 882 O 87.3679 -4.11244 0.308589 0
M  V30 883 H 86.7089 -0.598215 0.288158 0
M  V30 884 H 89.2389 -1.48457 1.4079 0
M  V30 885 H 89.2489 -3.91668 1.14281 0
M  V30 886 H 87.9239 -3.5151 2.22292 0
M  V30 887 H 86.5009 -3.70731 0.40157 0
M  V30 888 N 88.686 -0.835752 -1.33615 0
M  V30 889 C 89.934 -0.429109 -1.97492 0
M  V30 890 C 90.255 1.01433 -1.66543 0
M  V30 891 O 89.525 1.70611 -0.962744 0
M  V30 892 H 88.105 -0.155686 -0.730596 0
M  V30 893 H 90.767 -1.06802 -1.63031 0
M  V30 894 H 89.863 -0.55861 -3.0706 0
M  V30 895 N 90.1641 1.46063 -0.591896 0
M  V30 896 C 91.4101 2.03203 -0.0894879 0
M  V30 897 C 91.7651 1.45407 1.25994 0
M  V30 898 O 91.0581 0.61326 1.8152 0
M  V30 899 C 91.2521 3.57391 0.0249813 0
M  V30 900 C 91.0811 4.30142 -1.3118 0
M  V30 901 C 89.8511 4.68688 -1.88838 0
M  V30 902 C 92.0491 4.63098 -2.23708 0
M  V30 903 N 90.0311 5.26228 -3.1616 0
M  V30 904 C 91.4021 5.21305 -3.3562 0
M  V30 905 C 93.4571 4.45031 -2.23274 0
M  V30 906 C 92.1601 5.63351 -4.47245 0
M  V30 907 C 94.1861 4.881 -3.33935 0
M  V30 908 C 93.5481 5.46386 -4.44569 0
M  V30 909 H 89.6471 0.778323 -0.0757431 0
M  V30 910 H 92.2311 1.78094 -0.78681 0
M  V30 911 H 90.4021 3.82195 0.69149 0
M  V30 912 H 92.1341 4.0118 0.532613 0
M  V30 913 H 88.8891 4.5174 -1.42223 0
M  V30 914 H 89.3131 5.59512 -3.8115 0
M  V30 915 H 93.9551 3.99295 -1.39008 0
M  V30 916 H 91.6731 6.08061 -5.32247 0
M  V30 917 H 95.2591 4.75866 -3.34728 0
M  V30 918 H 94.1391 5.79102 -5.28782 0
M  V30 919 N 91.6422 0.330177 1.54103 0
M  V30 920 C 92.8902 -0.269871 2.0029 0
M  V30 921 C 93.2112 -1.52133 1.21986 0
M  V30 922 O 92.4812 -1.93212 0.323438 0
M  V30 923 H 91.0612 -0.10271 0.739905 0
M  V30 924 H 93.7232 0.448249 1.89675 0
M  V30 925 H 92.8192 -0.52166 3.07709 0
M  V30 926 N 93.1203 -1.57491 0.0584922 0
M  V30 927 C 94.0683 -2.13148 -0.931168 0
M  V30 928 C 95.0623 -1.06507 -1.31729 0
M  V30 929 O 96.2683 -1.24906 -1.29609 0
M  V30 930 H 92.6433 -0.68137 -0.31818 0
M  V30 931 H 94.6143 -2.95187 -0.436707 0
M  V30 932 C 93.3633 -2.69732 -2.19408 0
M  V30 933 H 92.6863 -3.51454 -1.90578 0
M  V30 934 H 94.1263 -3.12287 -2.86798 0
M  V30 935 C 92.5853 -1.63855 -2.94369 0
M  V30 936 O 93.1153 -1.05565 -3.87581 0
M  V30 937 N 91.3213 -1.35202 -2.57233 0
M  V30 938 H 90.8683 -1.82791 -1.81508 0
M  V30 939 H 90.8263 -0.645922 -3.07693 0
M  V30 940 N 94.5984 0.214957 -1.56127 0
M  V30 941 C 96.0144 0.564948 -1.49267 0
M  V30 942 C 96.2144 1.86827 -0.754838 0
M  V30 943 O 95.2704 2.50745 -0.297198 0
M  V30 944 C 96.5834 0.638071 -2.93852 0
M  V30 945 C 98.1314 0.728253 -3.0441 0
M  V30 946 C 98.6064 0.832663 -4.50367 0
M  V30 947 N 100.097 0.896712 -4.54437 0
M  V30 948 C 100.832 0.997324 -5.6466 0
M  V30 949 N 100.328 1.06147 -6.8462 0
M  V30 950 N 102.121 1.03297 -5.52527 0
M  V30 951 H 94.2724 -0.640211 -2.02522 0
M  V30 952 H 96.5354 -0.225507 -0.920788 0
M  V30 953 H 96.2414 -0.250126 -3.50809 0
M  V30 954 H 96.1154 1.49947 -3.46115 0
M  V30 955 H 98.5024 1.60689 -2.47514 0
M  V30 956 H 98.5834 -0.158952 -2.55306 0
M  V30 957 H 98.2274 -0.0415417 -5.07883 0
M  V30 958 H 98.1574 1.73538 -4.97184 0
M  V30 959 H 100.648 0.857188 -3.6805 0
M  V30 960 H 100.961 1.1382 -7.64372 0
M  V30 961 H 99.3064 1.03049 -6.87318 0
M  V30 962 H 102.497 0.979558 -4.57736 0
M  V30 963 H 102.67 1.10793 -6.38458 0
M  V30 964 N 96.0765 1.50051 0.48192 0
M  V30 965 C 97.0085 1.64263 1.59844 0
M  V30 966 C 98.0215 0.52451 1.54119 0
M  V30 967 O 99.2105 0.797293 1.59704 0
M  V30 968 C 96.3105 1.60102 2.98698 0
M  V30 969 C 95.4835 2.87767 3.29407 0
M  V30 970 C 94.5425 2.76397 4.47762 0
M  V30 971 O 93.5685 3.50348 4.48603 0
M  V30 972 N 94.7705 1.89222 5.48794 0
M  V30 973 H 97.5355 2.60566 1.48073 0
M  V30 974 H 95.0965 1.47379 0.670149 0
M  V30 975 H 97.0885 1.50123 3.75826 0
M  V30 976 H 95.6585 0.715798 3.04294 0
M  V30 977 H 94.8785 3.11954 2.40994 0
M  V30 978 H 96.1665 3.72365 3.4673 0
M  V30 979 H 95.5645 1.28434 5.50928 0
M  V30 980 H 94.1215 1.85154 6.24949 0
M  V30 981 N 97.5546 -0.734337 1.39446 0
M  V30 982 C 98.7796 -1.52866 1.40167 0
M  V30 983 C 99.2046 -1.881 -0.00171513 0
M  V30 984 O 98.5626 -1.51957 -0.988879 0
M  V30 985 C 98.6106 -2.79235 2.28167 0
M  V30 986 O 97.7146 -3.75185 1.71201 0
M  V30 987 H 97.0556 -0.461618 0.477289 0
M  V30 988 H 99.5856 -0.905949 1.8345 0
M  V30 989 H 99.5956 -3.27963 2.42702 0
M  V30 990 H 98.2706 -2.52923 3.30156 0
M  V30 991 H 96.8476 -3.33958 1.65912 0
M  V30 992 N 99.0327 -1.24633 -0.964593 0
M  V30 993 C 100.28 -1.08788 -1.70796 0
M  V30 994 C 100.608 0.372783 -1.90894 0
M  V30 995 O 99.8627 1.29167 -1.47018 0
M  V30 996 C 100.162 -1.7763 -3.10133 0
M  V30 997 C 99.8277 -3.27557 -3.09866 0
M  V30 998 C 98.4897 -3.6846 -3.09501 0
M  V30 999 C 100.842 -4.23389 -3.03959 0
M  V30 1000 C 98.1697 -5.03624 -3.00965 0
M  V30 1001 C 100.522 -5.58565 -2.96965 0
M  V30 1002 C 99.1857 -5.98809 -2.9493 0
M  V30 1003 H 98.4557 -0.398084 -0.624988 0
M  V30 1004 H 101.103 -1.54777 -1.12767 0
M  V30 1005 H 99.4077 -1.24044 -3.71645 0
M  V30 1006 H 101.105 -1.62832 -3.66451 0
M  V30 1007 H 97.6947 -2.95006 -3.10917 0
M  V30 1008 H 101.879 -3.92787 -3.03368 0
M  V30 1009 H 97.1347 -5.33998 -2.97752 0
M  V30 1010 H 101.309 -6.32523 -2.91354 0
M  V30 1011 H 98.9357 -7.03505 -2.88071 0
M  V30 1012 N 100.511 1.16574 -1.06058 0
M  V30 1013 C 101.76 1.86385 -0.770944 0
M  V30 1014 C 102.073 1.82448 0.705129 0
M  V30 1015 O 103.279 2.47815 1.10905 0
M  V30 1016 C 101.735 3.34466 -1.32893 0
M  V30 1017 C 101.343 3.46883 -2.83507 0
M  V30 1018 C 103.087 4.09548 -1.11672 0
M  V30 1019 C 100.994 4.89036 -3.32562 0
M  V30 1020 H 99.9238 0.698181 -0.284709 0
M  V30 1021 H 102.575 1.31583 -1.27899 0
M  V30 1022 H 100.957 3.88859 -0.748662 0
M  V30 1023 H 102.131 3.02663 -3.47465 0
M  V30 1024 H 100.446 2.85232 -3.03368 0
M  V30 1025 H 103.043 5.14434 -1.45814 0
M  V30 1026 H 103.386 4.16264 -0.0549535 0
M  V30 1027 H 103.919 3.61387 -1.66265 0
M  V30 1028 H 100.658 4.87499 -4.38207 0
M  V30 1029 H 100.178 5.3389 -2.73351 0
M  V30 1030 H 101.857 5.57843 -3.2775 0
M  V30 1031 N 101.989 0.842826 1.3317 0
M  V30 1032 C 103.237 0.439577 1.97262 0
M  V30 1033 C 103.558 -1.00548 1.67078 0
M  V30 1034 O 102.828 -1.70098 0.971779 0
M  V30 1035 H 101.408 0.159558 0.72976 0
M  V30 1036 H 104.07 1.07665 1.62463 0
M  V30 1037 H 103.166 0.574886 3.0676 0
M  V30 1038 N 103.467 -1.45747 0.599634 0
M  V30 1039 C 104.397 -2.33235 -0.111306 0
M  V30 1040 C 105.378 -1.46359 -0.866781 0
M  V30 1041 O 106.563 -1.75146 -0.838904 0
M  V30 1042 C 103.693 -3.28932 -1.11451 0
M  V30 1043 C 102.647 -4.25381 -0.472772 0
M  V30 1044 C 101.973 -5.1071 -1.58365 0
M  V30 1045 C 103.273 -5.18831 0.600948 0
M  V30 1046 H 104.967 -2.92927 0.61919 0
M  V30 1047 H 102.513 -1.40857 0.299215 0
M  V30 1048 H 104.466 -3.89002 -1.62036 0
M  V30 1049 H 103.19 -2.67381 -1.8755 0
M  V30 1050 H 101.849 -3.66598 0.0121472 0
M  V30 1051 H 101.497 -4.45533 -2.33473 0
M  V30 1052 H 101.197 -5.7604 -1.15982 0
M  V30 1053 H 102.721 -5.73647 -2.09194 0
M  V30 1054 H 104.135 -5.73019 0.179491 0
M  V30 1055 H 102.532 -5.92595 0.946076 0
M  V30 1056 H 103.602 -4.6174 1.48068 0
M  V30 1057 N 104.945 -0.338344 -1.53925 0
M  V30 1058 C 105.892 0.520845 -2.24846 0
M  V30 1059 C 106.862 1.09976 -1.24477 0
M  V30 1060 O 108.047 1.13735 -1.53196 0
M  V30 1061 C 105.187 1.6685 -3.02084 0
M  V30 1062 C 104.3 1.11739 -4.17299 0
M  V30 1063 C 103.435 2.23193 -4.82036 0
M  V30 1064 C 102.474 1.65407 -5.89328 0
M  V30 1065 N 101.611 2.70582 -6.47866 0
M  V30 1066 H 106.451 -0.0904881 -2.97863 0
M  V30 1067 H 103.988 -0.0564282 -1.46992 0
M  V30 1068 H 105.946 2.34407 -3.45122 0
M  V30 1069 H 104.576 2.2509 -2.31375 0
M  V30 1070 H 103.628 0.332919 -3.7894 0
M  V30 1071 H 104.94 0.654677 -4.94485 0
M  V30 1072 H 104.094 2.98626 -5.28117 0
M  V30 1073 H 102.833 2.72807 -4.04262 0
M  V30 1074 H 101.838 0.884779 -5.42634 0
M  V30 1075 H 103.063 1.16652 -6.69006 0
M  V30 1076 H 101.009 3.1946 -5.72959 0
M  V30 1077 H 100.926 2.28917 -7.20509 0
M  V30 1078 H 102.194 3.45799 -6.98601 0
M  V30 1079 N 106.423 1.57458 -0.0668435 0
M  V30 1080 C 107.671 1.92919 0.602214 0
M  V30 1081 C 107.992 0.947215 1.70449 0
M  V30 1082 O 107.262 -0.00544117 1.95899 0
M  V30 1083 H 105.842 0.71217 0.22544 0
M  V30 1084 H 108.504 1.94508 -0.123535 0
M  V30 1085 H 107.6 2.94589 1.03073 0
M  V30 1086 N 107.901 -0.206675 1.56239 0
M  V30 1087 C 109.149 -0.927007 1.79586 0
M  V30 1088 C 109.47 -1.8427 0.637929 0
M  V30 1089 O 108.74 -1.92849 -0.344398 0
M  V30 1090 H 107.32 -0.345292 0.662407 0
M  V30 1091 H 109.982 -0.21496 1.93711 0
M  V30 1092 H 109.078 -1.52501 2.72305 0
M  V30 1093 N 109.379 -1.50304 -0.473955 0
M  V30 1094 C 110.626 -1.6115 -1.22625 0
M  V30 1095 C 110.954 -0.310517 -1.92005 0
M  V30 1096 O 110.209 0.703419 -1.82621 0
M  V30 1097 C 110.508 -2.73938 -2.29549 0
M  V30 1098 C 110.174 -4.14519 -1.7744 0
M  V30 1099 C 108.836 -4.5277 -1.62949 0
M  V30 1100 C 111.188 -5.02392 -1.3875 0
M  V30 1101 C 108.516 -5.76639 -1.08187 0
M  V30 1102 C 110.868 -6.26805 -0.854309 0
M  V30 1103 C 109.532 -6.63861 -0.696011 0
M  V30 1104 H 108.802 -0.589691 -0.448715 0
M  V30 1105 H 111.449 -1.84228 -0.522705 0
M  V30 1106 H 109.754 -2.44937 -3.05799 0
M  V30 1107 H 111.451 -2.79534 -2.87509 0
M  V30 1108 H 108.041 -3.8434 -1.89685 0
M  V30 1109 H 112.225 -4.73474 -1.4878 0
M  V30 1110 H 107.481 -6.04027 -0.946666 0
M  V30 1111 H 111.655 -6.94258 -0.545843 0
M  V30 1112 H 109.282 -7.59722 -0.26952 0
M  V30 1113 N 110.857 0.726932 -1.39834 0
M  V30 1114 C 112.105 1.4837 -1.37225 0
M  V30 1115 C 112.426 1.94979 0.0284857 0
M  V30 1116 O 111.696 1.69555 0.981213 0
M  V30 1117 H 110.276 0.55043 -0.505011 0
M  V30 1118 H 112.938 0.862468 -1.74778 0
M  V30 1119 H 112.034 2.36198 -2.04003 0
M  V30 1120 N 112.336 1.25143 0.95797 0
M  V30 1121 C 113.564 1.12424 1.73691 0
M  V30 1122 C 113.979 -0.322304 1.86029 0
M  V30 1123 O 113.336 -1.22186 1.35561 0
M  V30 1124 C 113.387 1.76933 3.15241 0
M  V30 1125 O 113.108 3.15932 3.03511 0
M  V30 1126 C 114.609 1.6995 4.09429 0
M  V30 1127 H 111.829 0.3923 0.544373 0
M  V30 1128 H 114.373 1.6544 1.20207 0
M  V30 1129 H 112.528 1.27895 3.6568 0
M  V30 1130 H 112.942 3.47598 3.9278 0
M  V30 1131 H 114.416 2.19753 5.06372 0
M  V30 1132 H 114.893 0.662619 4.34173 0
M  V30 1133 H 115.499 2.18461 3.64904 0
M  V30 1134 N 113.814 -1.1601 1.06675 0
M  V30 1135 C 115.06 -1.86909 0.786945 0
M  V30 1136 C 115.393 -1.81717 -0.685018 0
M  V30 1137 O 114.668 -1.23551 -1.50218 0
M  V30 1138 C 114.951 -3.36313 1.28707 0
M  V30 1139 C 114.804 -3.50175 2.82308 0
M  V30 1140 C 116.123 -4.3084 0.898071 0
M  V30 1141 H 113.242 -0.678677 0.287343 0
M  V30 1142 H 115.884 -1.36336 1.32334 0
M  V30 1143 H 114.034 -3.79513 0.830768 0
M  V30 1144 H 115.706 -3.15886 3.36175 0
M  V30 1145 H 113.949 -2.91959 3.20847 0
M  V30 1146 H 114.62 -4.55116 3.12368 0
M  V30 1147 H 117.096 -3.95561 1.29114 0
M  V30 1148 H 115.972 -5.33876 1.27543 0
M  V30 1149 H 116.233 -4.41662 -0.196651 0
M  V30 1150 N 115.292 -0.849877 -1.32721 0
M  V30 1151 C 116.708 -0.539102 -1.50219 0
M  V30 1152 C 116.908 0.931271 -1.78689 0
M  V30 1153 O 115.964 1.71455 -1.85363 0
M  V30 1154 C 117.277 -1.42196 -2.64954 0
M  V30 1155 C 118.825 -1.42189 -2.78839 0
M  V30 1156 C 119.3 -2.28985 -3.96648 0
M  V30 1157 N 120.791 -2.26754 -4.03902 0
M  V30 1158 C 121.526 -2.90644 -4.94281 0
M  V30 1159 N 121.022 -3.63629 -5.897 0
M  V30 1160 N 122.815 -2.80057 -4.87365 0
M  V30 1161 H 114.966 -1.80156 -1.12506 0
M  V30 1162 H 117.229 -0.769217 -0.554085 0
M  V30 1163 H 116.935 -2.46733 -2.50631 0
M  V30 1164 H 116.809 -1.10591 -3.60624 0
M  V30 1165 H 119.196 -0.38419 -2.92588 0
M  V30 1166 H 119.277 -1.77807 -1.83898 0
M  V30 1167 H 118.921 -3.32819 -3.83658 0
M  V30 1168 H 118.851 -1.90702 -4.90857 0
M  V30 1169 H 121.342 -1.73688 -3.3562 0
M  V30 1170 H 121.655 -4.09558 -6.55349 0
M  V30 1171 H 120 -3.67737 -5.89741 0
M  V30 1172 H 123.191 -2.22593 -4.11789 0
M  V30 1173 H 123.364 -3.30132 -5.57599 0
M  V30 1174 N 116.77 1.45427 -0.607355 0
M  V30 1175 C 117.733 2.28974 0.101693 0
M  V30 1176 C 118.733 1.39754 0.795329 0
M  V30 1177 O 119.923 1.61878 0.643527 0
M  V30 1178 C 117.055 3.20768 1.15414 0
M  V30 1179 H 118.248 2.93147 -0.632844 0
M  V30 1180 H 115.801 1.51945 -0.366391 0
M  V30 1181 H 116.536 2.61395 1.91945 0
M  V30 1182 H 116.321 3.86489 0.66098 0
M  V30 1183 H 117.811 3.83589 1.65073 0
M  V30 1184 N 118.248 0.346503 1.53744 0
M  V30 1185 C 119.496 -0.248612 2.00565 0
M  V30 1186 C 119.817 -1.5083 1.23593 0
M  V30 1187 O 119.087 -1.92858 0.343912 0
M  V30 1188 H 117.667 -0.0948564 0.740953 0
M  V30 1189 H 120.329 0.468341 1.89189 0
M  V30 1190 H 119.425 -0.488994 3.08245 0
M  V30 1191 N 119.726 -1.57421 0.075193 0
M  V30 1192 C 120.674 -2.14124 -0.908508 0
M  V30 1193 C 121.668 -1.07898 -1.30592 0
M  V30 1194 O 122.874 -1.26273 -1.28277 0
M  V30 1195 H 119.249 -0.684707 -0.310935 0
M  V30 1196 H 121.22 -2.95634 -0.405374 0
M  V30 1197 C 119.969 -2.72044 -2.16535 0
M  V30 1198 H 119.292 -3.53456 -1.86839 0
M  V30 1199 H 120.732 -3.15311 -2.83469 0
M  V30 1200 C 119.191 -1.66968 -2.92615 0
M  V30 1201 O 119.721 -1.0967 -3.86439 0
M  V30 1202 N 117.927 -1.37923 -2.55784 0
M  V30 1203 H 117.474 -1.84706 -1.79559 0
M  V30 1204 H 117.432 -0.67852 -3.06991 0
M  V30 1205 N 121.204 0.198386 -1.56346 0
M  V30 1206 C 122.134 1.24865 -1.9731 0
M  V30 1207 C 123.115 1.47651 -0.844576 0
M  V30 1208 O 124.3 1.59444 -1.10866 0
M  V30 1209 C 121.43 2.59358 -2.30977 0
M  V30 1210 C 120.384 2.5119 -3.46537 0
M  V30 1211 C 119.71 3.89926 -3.65871 0
M  V30 1212 C 121.01 2.03977 -4.80823 0
M  V30 1213 H 122.704 0.908252 -2.85291 0
M  V30 1214 H 120.25 0.435462 -1.37258 0
M  V30 1215 H 122.203 3.33011 -2.58228 0
M  V30 1216 H 120.927 2.95132 -1.39874 0
M  V30 1217 H 119.586 1.79993 -3.19371 0
M  V30 1218 H 119.234 4.23046 -2.72105 0
M  V30 1219 H 118.934 3.85336 -4.4361 0
M  V30 1220 H 120.458 4.65205 -3.95495 0
M  V30 1221 H 121.872 2.67386 -5.07127 0
M  V30 1222 H 120.269 2.10397 -5.62008 0
M  V30 1223 H 121.339 0.992861 -4.74626 0
M  V30 1224 N 122.682 1.50554 0.465978 0
M  V30 1225 C 123.63 1.70324 1.58406 0
M  V30 1226 C 124.624 0.569139 1.59553 0
M  V30 1227 O 125.83 0.749776 1.63641 0
M  V30 1228 H 122.205 0.537688 0.525734 0
M  V30 1229 H 124.176 2.64104 1.38894 0
M  V30 1230 C 122.925 1.81928 2.96307 0
M  V30 1231 H 122.248 2.68586 2.96144 0
M  V30 1232 H 123.688 1.99784 3.73982 0
M  V30 1233 C 122.147 0.572095 3.32007 0
M  V30 1234 O 122.677 -0.286416 4.00678 0
M  V30 1235 N 120.883 0.424606 2.87481 0
M  V30 1236 H 120.43 1.12427 2.31771 0
M  V30 1237 H 120.388 -0.408697 3.11732 0
M  V30 1238 N 124.16 -0.719506 1.40217 0
M  V30 1239 C 125.388 -1.50864 1.41589 0
M  V30 1240 C 125.803 -1.88794 0.0145275 0
M  V30 1241 O 125.16 -1.55174 -0.960594 0
M  V30 1242 C 125.211 -2.78646 2.30302 0
M  V30 1243 O 124.932 -2.42321 3.64983 0
M  V30 1244 C 126.433 -3.72569 2.40224 0
M  V30 1245 H 123.653 -0.465709 0.48307 0
M  V30 1246 H 126.197 -0.88785 1.84221 0
M  V30 1247 H 124.352 -3.37019 1.91042 0
M  V30 1248 H 124.766 -3.24514 4.12057 0
M  V30 1249 H 126.24 -4.5908 3.06512 0
M  V30 1250 H 126.717 -4.15403 1.42608 0
M  V30 1251 H 127.323 -3.20109 2.80019 0
M  V30 1252 N 125.638 -1.25649 -0.95132 0
M  V30 1253 C 126.884 -1.10757 -1.69884 0
M  V30 1254 C 127.217 0.350061 -1.91019 0
M  V30 1255 O 126.492 1.25783 -1.48354 0
M  V30 1256 C 126.775 -1.86606 -3.07978 0
M  V30 1257 C 126.628 -3.40217 -2.94232 0
M  V30 1258 C 127.947 -1.65182 -4.07925 0
M  V30 1259 H 125.066 -0.40374 -0.616574 0
M  V30 1260 H 127.708 -1.54521 -1.10558 0
M  V30 1261 H 125.858 -1.49409 -3.58621 0
M  V30 1262 H 127.53 -3.87108 -2.50889 0
M  V30 1263 H 125.773 -3.67759 -2.30078 0
M  V30 1264 H 126.444 -3.88505 -3.92133 0
M  V30 1265 H 128.92 -1.9757 -3.66204 0
M  V30 1266 H 127.796 -2.20683 -5.02583 0
M  V30 1267 H 128.057 -0.593933 -4.38092 0
M  V30 1268 N 127.117 1.15442 -1.07289 0
M  V30 1269 C 128.047 2.22312 -0.714107 0
M  V30 1270 C 129.028 1.67467 0.298155 0
M  V30 1271 O 130.213 1.93445 0.171048 0
M  V30 1272 C 127.343 3.47124 -0.110448 0
M  V30 1273 C 126.297 4.14926 -1.04979 0
M  V30 1274 C 125.623 5.33807 -0.308924 0
M  V30 1275 C 126.923 4.64762 -2.38314 0
M  V30 1276 H 128.617 2.5258 -1.6076 0
M  V30 1277 H 126.163 1.21404 -0.77441 0
M  V30 1278 H 128.116 4.21124 0.152482 0
M  V30 1279 H 126.84 3.16187 0.81812 0
M  V30 1280 H 125.499 3.42866 -1.29764 0
M  V30 1281 H 125.147 4.99126 0.623084 0
M  V30 1282 H 124.847 5.80113 -0.935036 0
M  V30 1283 H 126.371 6.10576 -0.0537771 0
M  V30 1284 H 127.785 5.30292 -2.1786 0
M  V30 1285 H 126.182 5.21728 -2.96514 0
M  V30 1286 H 127.252 3.80434 -3.00663 0
M  V30 1287 N 128.595 0.856903 1.32268 0
M  V30 1288 C 129.542 0.301172 2.28827 0
M  V30 1289 C 130.512 -0.593104 1.5515 0
M  V30 1290 O 131.697 -0.527537 1.83362 0
M  V30 1291 C 128.837 -0.502523 3.41422 0
M  V30 1292 C 127.95 0.417797 4.29975 0
M  V30 1293 C 127.085 -0.398749 5.29701 0
M  V30 1294 C 126.124 0.518827 6.09897 0
M  V30 1295 N 125.261 -0.260674 7.01616 0
M  V30 1296 H 130.101 1.12983 2.75751 0
M  V30 1297 H 127.638 0.568582 1.35667 0
M  V30 1298 H 129.596 -0.984141 4.05426 0
M  V30 1299 H 128.226 -1.29599 2.95642 0
M  V30 1300 H 127.278 1.01781 3.66531 0
M  V30 1301 H 128.59 1.12191 4.86019 0
M  V30 1302 H 127.744 -0.943435 5.9932 0
M  V30 1303 H 126.483 -1.13622 4.7428 0
M  V30 1304 H 125.488 1.07538 5.39181 0
M  V30 1305 H 126.713 1.25495 6.67404 0
M  V30 1306 H 124.659 -0.981198 6.4862 0
M  V30 1307 H 124.576 0.384364 7.55022 0
M  V30 1308 H 125.844 -0.787014 7.75517 0
M  V30 1309 N 130.073 -1.45103 0.615059 0
M  V30 1310 C 131.35 -1.95549 0.0448276 0
M  V30 1311 C 131.73 -1.55737 -1.4251 0
M  V30 1312 O 131.078 -0.823556 -2.13143 0
M  V30 1313 C 131.288 -3.48098 0.250785 0
M  V30 1314 C 132.636 -4.24384 0.135509 0
M  V30 1315 O 133.66 -3.55738 0.181299 0
M  V30 1316 O 132.519 -5.46493 0.0268878 0
M  V30 1317 H 129.613 -0.8264 -0.0314845 0
M  V30 1318 H 132.159 -1.55232 0.685642 0
M  V30 1319 H 130.931 -3.7007 1.27139 0
M  V30 1320 H 130.554 -3.95323 -0.424937 0
M  V30 1321 N 131.551 -0.354651 -1.53558 0
M  V30 1322 C 132.776 0.242153 -2.05981 0
M  V30 1323 C 133.201 1.42553 -1.2272 0
M  V30 1324 O 132.559 1.79656 -0.243604 0
M  V30 1325 C 132.607 0.624367 -3.55154 0
M  V30 1326 O 131.711 1.72301 -3.74681 0
M  V30 1327 H 131.052 0.0378432 -0.662921 0
M  V30 1328 H 133.582 -0.512087 -1.98088 0
M  V30 1329 H 133.592 0.898433 -3.97985 0
M  V30 1330 H 132.267 -0.240989 -4.15201 0
M  V30 1331 H 130.844 1.44535 -3.4375 0
M  V30 1332 N 133.029 1.57378 -0.0835403 0
M  V30 1333 C 134.277 1.93547 0.581718 0
M  V30 1334 C 134.598 0.96524 1.69435 0
M  V30 1335 O 133.868 0.0153369 1.95894 0
M  V30 1336 H 132.448 0.714521 0.217874 0
M  V30 1337 H 135.11 1.94366 -0.144158 0
M  V30 1338 H 134.206 2.95665 0.999423 0
M  V30 1339 N 134.507 -0.190092 1.56449 0
M  V30 1340 C 135.784 -0.935886 1.71757 0
M  V30 1341 C 136.164 -2.01173 0.639726 0
M  V30 1342 O 135.512 -2.25827 -0.348502 0
M  V30 1343 C 135.722 -1.51775 3.1427 0
M  V30 1344 C 137.07 -1.99794 3.74656 0
M  V30 1345 O 138.094 -1.61607 3.1743 0
M  V30 1346 O 136.953 -2.70079 4.751 0
M  V30 1347 H 134.047 -0.439229 0.700719 0
M  V30 1348 H 136.593 -0.179395 1.68749 0
M  V30 1349 H 135.365 -0.742505 3.84191 0
M  V30 1350 H 134.988 -2.33894 3.21527 0
M  V30 1351 N 135.985 -1.50799 -0.457987 0
M  V30 1352 C 136.933 -1.71162 -1.575 0
M  V30 1353 C 137.927 -0.577592 -1.59249 0
M  V30 1354 O 139.133 -0.758443 -1.63241 0
M  V30 1355 H 135.508 -0.540468 -0.522875 0
M  V30 1356 H 137.479 -2.64837 -1.37492 0
M  V30 1357 C 136.228 -1.83496 -2.95338 0
M  V30 1358 H 135.551 -2.70153 -2.94716 0
M  V30 1359 H 136.991 -2.01765 -3.72917 0
M  V30 1360 C 135.45 -0.589694 -3.31699 0
M  V30 1361 O 135.98 0.265163 -4.00824 0
M  V30 1362 N 134.186 -0.439845 -2.87252 0
M  V30 1363 H 133.733 -1.13655 -2.31172 0
M  V30 1364 H 133.691 0.392159 -3.11945 0
M  V30 1365 N 137.463 0.71206 -1.40597 0
M  V30 1366 C 138.709 1.47416 -1.39271 0
M  V30 1367 C 139.042 1.942 0.00388791 0
M  V30 1368 O 138.317 1.68403 0.973179 0
M  V30 1369 C 138.6 2.69774 -2.38525 0
M  V30 1370 C 138.453 2.28861 -3.87224 0
M  V30 1371 C 139.772 3.71939 -2.35264 0
M  V30 1372 H 136.891 0.534713 -0.5072 0
M  V30 1373 H 139.533 0.812375 -1.71757 0
M  V30 1374 H 137.683 3.26238 -2.10953 0
M  V30 1375 H 139.355 1.77852 -4.25636 0
M  V30 1376 H 137.598 1.60824 -4.02887 0
M  V30 1377 H 138.269 3.16584 -4.52193 0
M  V30 1378 H 140.745 3.25113 -2.59694 0
M  V30 1379 H 139.621 4.55186 -3.06753 0
M  V30 1380 H 139.882 4.20484 -1.36549 0
M  V30 1381 N 138.941 1.26152 0.944643 0
M  V30 1382 C 139.889 1.07215 2.06417 0
M  V30 1383 C 140.883 9.2007e-05 1.694 0
M  V30 1384 O 142.089 0.1565 1.79318 0
M  V30 1385 H 138.464 0.329837 0.675805 0
M  V30 1386 H 140.435 2.02099 2.19541 0
M  V30 1387 C 139.184 0.718197 3.40202 0
M  V30 1388 H 138.507 1.53497 3.69159 0
M  V30 1389 H 139.947 0.625459 4.19361 0
M  V30 1390 C 138.406 -0.576435 3.31932 0
M  V30 1391 O 138.936 -1.61574 3.67773 0
M  V30 1392 N 137.142 -0.565781 2.85039 0
M  V30 1393 H 136.689 0.280367 2.5607 0
M  V30 1394 H 136.647 -1.43213 2.79888 0
M  V30 1395 N 140.419 -1.14872 1.07899 0
M  V30 1396 C 141.382 -2.17986 0.708161 0
M  V30 1397 C 142.382 -1.58775 -0.25442 0
M  V30 1398 O 143.572 -1.74166 -0.034645 0
M  V30 1399 C 140.704 -3.40871 0.0446929 0
M  V30 1400 H 141.897 -2.52306 1.62116 0
M  V30 1401 H 139.45 -1.2943 0.876218 0
M  V30 1402 H 140.185 -3.12124 -0.880281 0
M  V30 1403 H 139.97 -3.8511 0.737091 0
M  V30 1404 H 141.46 -4.17121 -0.19991 0
M  V30 1405 N 141.898 -0.863906 -1.31812 0
M  V30 1406 C 143.144 -0.481841 -1.9761 0
M  V30 1407 C 143.499 0.954048 -1.6708 0
M  V30 1408 O 142.792 1.66182 -0.953624 0
M  V30 1409 C 142.986 -0.668547 -3.51091 0
M  V30 1410 C 142.815 -2.12103 -3.96538 0
M  V30 1411 C 141.585 -2.76141 -4.23171 0
M  V30 1412 C 143.783 -3.09265 -4.10925 0
M  V30 1413 N 141.765 -4.12205 -4.54929 0
M  V30 1414 C 143.136 -4.30341 -4.46326 0
M  V30 1415 C 145.191 -3.05337 -3.93286 0
M  V30 1416 C 143.894 -5.48 -4.65928 0
M  V30 1417 C 145.92 -4.22248 -4.14078 0
M  V30 1418 C 145.282 -5.42085 -4.49804 0
M  V30 1419 H 141.381 -0.225238 -0.74886 0
M  V30 1420 H 143.965 -1.11723 -1.59455 0
M  V30 1421 H 142.136 -0.0627898 -3.88349 0
M  V30 1422 H 143.868 -0.255467 -4.03893 0
M  V30 1423 H 140.623 -2.27125 -4.15585 0
M  V30 1424 H 141.047 -4.82416 -4.74978 0
M  V30 1425 H 145.689 -2.138 -3.64759 0
M  V30 1426 H 143.407 -6.40059 -4.93305 0
M  V30 1427 H 146.993 -4.20654 -4.01922 0
M  V30 1428 H 145.873 -6.31044 -4.65567 0
M  V30 1429 N 143.376 1.44774 -0.622745 0
M  V30 1430 C 144.286 2.34433 0.0886031 0
M  V30 1431 C 145.302 1.52131 0.844529 0
M  V30 1432 O 146.478 1.84886 0.798691 0
M  V30 1433 C 143.543 3.29986 1.0635 0
M  V30 1434 C 142.604 4.28195 0.307873 0
M  V30 1435 C 141.837 5.19183 1.23633 0
M  V30 1436 O 142.06 5.13918 2.47476 0
M  V30 1437 O 140.994 5.97515 0.725189 0
M  V30 1438 H 144.82 2.96693 -0.648599 0
M  V30 1439 H 142.405 1.44408 -0.382957 0
M  V30 1440 H 144.287 3.88825 1.6246 0
M  V30 1441 H 142.962 2.70269 1.78146 0
M  V30 1442 H 141.869 3.72927 -0.296064 0
M  V30 1443 H 143.202 4.90808 -0.3699 0
M  V30 1444 N 144.854 0.36279 1.53368 0
M  V30 1445 C 146.079 -0.231226 2.06107 0
M  V30 1446 C 146.504 -1.419 1.23474 0
M  V30 1447 O 145.862 -1.79524 0.253128 0
M  V30 1448 C 145.91 -0.605523 3.5548 0
M  V30 1449 O 145.014 -1.70312 3.7559 0
M  V30 1450 H 144.355 -0.034327 0.663112 0
M  V30 1451 H 146.885 0.522584 1.97814 0
M  V30 1452 H 146.895 -0.877314 3.98456 0
M  V30 1453 H 145.57 0.263004 4.15068 0
M  V30 1454 H 144.147 -1.4271 3.44512 0
M  V30 1455 N 146.332 -1.57332 0.0918853 0
M  V30 1456 C 147.58 -1.93853 -0.571446 0
M  V30 1457 C 147.901 -0.974212 -1.6892 0
M  V30 1458 O 147.171 -0.0257254 -1.95883 0
M  V30 1459 H 145.751 -0.715666 -0.214082 0
M  V30 1460 H 148.413 -1.94287 0.154464 0
M  V30 1461 H 147.509 -2.96191 -0.983729 0
M  V30 1462 N 147.81 0.181792 -1.56548 0
M  V30 1463 C 149.035 0.920019 -1.85877 0
M  V30 1464 C 149.46 1.75494 -0.677021 0
M  V30 1465 O 148.818 1.77399 0.374056 0
M  V30 1466 C 148.866 1.78112 -3.13542 0
M  V30 1467 O 147.97 2.88152 -2.95029 0
M  V30 1468 H 147.311 0.258334 -0.611686 0
M  V30 1469 H 149.841 0.183092 -2.03779 0
M  V30 1470 H 149.851 2.18314 -3.44678 0
M  V30 1471 H 148.526 1.16777 -3.99169 0
M  V30 1472 H 147.103 2.51609 -2.75222 0
M  V30 1473 N 149.288 1.51039 0.449983 0
M  V30 1474 C 150.236 1.71995 1.5659 0
M  V30 1475 C 151.23 0.586029 1.5894 0
M  V30 1476 O 152.436 0.76709 1.62837 0
M  V30 1477 H 148.811 0.543233 0.520001 0
M  V30 1478 H 150.782 2.65562 1.36085 0
M  V30 1479 C 149.531 1.8506 2.9436 0
M  V30 1480 H 148.854 2.71712 2.93279 0
M  V30 1481 H 150.294 2.0374 3.71842 0
M  V30 1482 C 148.753 0.607277 3.31382 0
M  V30 1483 O 149.283 -0.243903 4.00959 0
M  V30 1484 N 147.489 0.455073 2.87015 0
M  V30 1485 H 147.036 1.14879 2.30566 0
M  V30 1486 H 146.994 -0.375611 3.12148 0
M  V30 1487 N 150.766 -0.704594 1.40972 0
M  V30 1488 C 151.994 -1.49354 1.43182 0
M  V30 1489 C 152.409 -1.88768 0.0345508 0
M  V30 1490 O 151.766 -1.56184 -0.944081 0
M  V30 1491 C 151.817 -2.76187 2.33244 0
M  V30 1492 O 151.538 -2.38436 3.67532 0
M  V30 1493 C 153.039 -3.7 2.44162 0
M  V30 1494 H 150.259 -0.460559 0.487982 0
M  V30 1495 H 152.803 -0.868261 1.85153 0
M  V30 1496 H 150.958 -3.34974 1.94606 0
M  V30 1497 H 151.372 -3.20126 4.15475 0
M  V30 1498 H 152.846 -4.55803 3.11364 0
M  V30 1499 H 153.323 -4.13867 1.47006 0
M  V30 1500 H 153.929 -3.17121 2.83398 0
M  V30 1501 N 152.244 -1.26651 -0.937939 0
M  V30 1502 C 153.154 -1.10276 -2.07066 0
M  V30 1503 C 154.17 -0.0354197 -1.73964 0
M  V30 1504 O 155.346 -0.239816 -1.99967 0
M  V30 1505 C 152.411 -0.740887 -3.38691 0
M  V30 1506 C 151.472 -1.88799 -3.85556 0
M  V30 1507 C 150.705 -1.54329 -5.10899 0
M  V30 1508 O 150.928 -0.446494 -5.6865 0
M  V30 1509 O 149.862 -2.37911 -5.52885 0
M  V30 1510 H 153.688 -2.05309 -2.23789 0
M  V30 1511 H 151.273 -1.05743 -1.0554 0
M  V30 1512 H 153.155 -0.55195 -4.1777 0
M  V30 1513 H 151.83 0.180022 -3.23199 0
M  V30 1514 H 150.737 -2.13191 -3.07409 0
M  V30 1515 H 152.07 -2.78874 -4.05574 0
M  V30 1516 N 153.722 1.14298 -1.08507 0
M  V30 1517 C 154.999 1.81544 -0.728088 0
M  V30 1518 C 155.379 1.95838 0.78808 0
M  V30 1519 O 154.727 1.51904 1.70697 0
M  V30 1520 C 154.937 3.17169 -1.45619 0
M  V30 1521 C 156.285 3.9265 -1.61591 0
M  V30 1522 O 157.309 3.26762 -1.41793 0
M  V30 1523 O 156.168 5.10807 -1.94263 0
M  V30 1524 H 153.262 0.78491 -0.260471 0
M  V30 1525 H 155.808 1.21307 -1.18671 0
M  V30 1526 H 154.58 3.01934 -2.489 0
M  V30 1527 H 154.203 3.851 -0.989124 0
M  V30 1528 N 155.201 0.870884 1.31352 0
M  V30 1529 C 156.447 0.482987 1.96965 0
M  V30 1530 C 156.78 -0.962462 1.68672 0
M  V30 1531 O 156.055 -1.6779 0.98371 0
M  V30 1532 C 156.338 0.741752 3.52378 0
M  V30 1533 C 156.191 2.2368 3.9024 0
M  V30 1534 C 157.51 0.208838 4.39604 0
M  V30 1535 H 154.629 0.176955 0.715441 0
M  V30 1536 H 157.271 1.09229 1.55464 0
M  V30 1537 H 155.421 0.223149 3.87859 0
M  V30 1538 H 157.093 2.82273 3.64856 0
M  V30 1539 H 155.336 2.70901 3.38814 0
M  V30 1540 H 156.007 2.3685 4.98604 0
M  V30 1541 H 158.483 0.652529 4.10952 0
M  V30 1542 H 157.359 0.419336 5.47296 0
M  V30 1543 H 157.62 -0.889275 4.33064 0
M  V30 1544 N 156.679 -1.44442 0.630414 0
M  V30 1545 C 157.609 -2.33418 -0.0618083 0
M  V30 1546 C 158.59 -1.48165 -0.835541 0
M  V30 1547 O 159.775 -1.76886 -0.801564 0
M  V30 1548 C 156.905 -3.31222 -1.04449 0
M  V30 1549 C 155.859 -4.26288 -0.382436 0
M  V30 1550 C 155.185 -5.13954 -1.47497 0
M  V30 1551 C 156.485 -5.1744 0.710865 0
M  V30 1552 H 158.179 -2.91548 0.681184 0
M  V30 1553 H 155.725 -1.40191 0.329026 0
M  V30 1554 H 157.678 -3.92351 -1.53748 0
M  V30 1555 H 156.402 -2.71299 -1.81836 0
M  V30 1556 H 155.061 -3.6649 0.0899054 0
M  V30 1557 H 154.709 -4.50385 -2.2397 0
M  V30 1558 H 154.409 -5.7837 -1.03737 0
M  V30 1559 H 155.933 -5.77955 -1.96979 0
M  V30 1560 H 157.347 -5.72509 0.300996 0
M  V30 1561 H 155.744 -5.90455 1.07156 0
M  V30 1562 H 156.814 -4.58496 1.57829 0
M  V30 1563 N 158.157 -0.370918 -1.53173 0
M  V30 1564 C 159.405 0.216673 -2.00935 0
M  V30 1565 C 159.726 1.48845 -1.25977 0
M  V30 1566 O 158.996 1.92286 -0.374551 0
M  V30 1567 H 157.576 0.0830565 -0.742368 0
M  V30 1568 H 160.238 -0.49838 -1.8842 0
M  V30 1569 H 159.334 0.439893 -3.08984 0
M  V30 1570 N 159.635 1.57281 -0.100228 0
M  V30 1571 C 160.565 2.17328 0.853857 0
M  V30 1572 C 161.546 1.10804 1.2906 0
M  V30 1573 O 162.731 1.38963 1.35657 0
M  V30 1574 C 159.861 2.75772 2.11109 0
M  V30 1575 C 158.815 3.87713 1.81279 0
M  V30 1576 C 158.141 4.32882 3.13874 0
M  V30 1577 C 159.441 5.10677 1.09574 0
M  V30 1578 H 161.135 2.97305 0.353545 0
M  V30 1579 H 158.681 1.43009 0.168612 0
M  V30 1580 H 160.634 3.16433 2.78296 0
M  V30 1581 H 159.358 1.93057 2.63432 0
M  V30 1582 H 158.017 3.476 1.16489 0
M  V30 1583 H 157.665 3.47051 3.64095 0
M  V30 1584 H 157.365 5.08358 2.94696 0
M  V30 1585 H 158.889 4.7618 3.82211 0
M  V30 1586 H 160.303 5.48474 1.66879 0
M  V30 1587 H 158.7 5.91615 1.00557 0
M  V30 1588 H 159.77 4.84835 0.0793299 0
M  V30 1589 N 161.113 -0.173488 1.56642 0
M  V30 1590 C 162.361 -0.888706 1.81512 0
M  V30 1591 C 162.682 -1.82875 0.676872 0
M  V30 1592 O 161.952 -1.93536 -0.303414 0
M  V30 1593 H 160.532 -0.331164 0.669582 0
M  V30 1594 H 163.194 -0.173823 1.94123 0
M  V30 1595 H 162.29 -1.46691 2.75478 0
M  V30 1596 N 162.591 -1.51276 -0.441967 0
M  V30 1597 C 163.819 -1.67516 -1.21434 0
M  V30 1598 C 164.234 -0.37055 -1.85128 0
M  V30 1599 O 163.591 0.650498 -1.70513 0
M  V30 1600 C 163.642 -2.78748 -2.30177 0
M  V30 1601 O 163.363 -4.04154 -1.69089 0
M  V30 1602 C 164.864 -3.06217 -3.20541 0
M  V30 1603 H 162.084 -0.562276 -0.366178 0
M  V30 1604 H 164.628 -1.97666 -0.524244 0
M  V30 1605 H 162.783 -2.5121 -2.94911 0
M  V30 1606 H 163.197 -4.65894 -2.40922 0
M  V30 1607 H 164.671 -3.8764 -3.92987 0
M  V30 1608 H 165.148 -2.18439 -3.81026 0
M  V30 1609 H 165.754 -3.35397 -2.61513 0
M  V30 1610 N 164.069 0.697108 -1.41344 0
M  V30 1611 C 165.318 1.45279 -1.39918 0
M  V30 1612 C 165.631 1.95597 -0.0109624 0
M  V30 1613 O 166.837 2.71208 0.125919 0
M  V30 1614 C 165.293 2.62695 -2.46007 0
M  V30 1615 C 164.901 2.19169 -3.90729 0
M  V30 1616 C 166.645 3.40336 -2.53715 0
M  V30 1617 C 164.552 3.33535 -4.88373 0
M  V30 1618 H 163.482 0.545692 -0.520323 0
M  V30 1619 H 166.133 0.756929 -1.67161 0
M  V30 1620 H 164.515 3.34541 -2.11892 0
M  V30 1621 H 165.689 1.54623 -4.34083 0
M  V30 1622 H 164.004 1.54525 -3.86666 0
M  V30 1623 H 166.601 4.2547 -3.2385 0
M  V30 1624 H 166.944 3.85418 -1.5735 0
M  V30 1625 H 167.477 2.75546 -2.86913 0
M  V30 1626 H 164.216 2.93468 -5.86137 0
M  V30 1627 H 163.736 3.96936 -4.49668 0
M  V30 1628 H 165.415 3.99335 -5.09059 0
M  V30 1629 N 165.547 1.27147 0.931209 0
M  V30 1630 C 166.795 1.13055 1.6752 0
M  V30 1631 C 167.116 -0.324791 1.92276 0
M  V30 1632 O 166.386 -1.22775 1.52654 0
M  V30 1633 H 164.966 0.415391 0.620854 0
M  V30 1634 H 167.628 1.59623 1.11833 0
M  V30 1635 H 166.724 1.65694 2.64485 0
M  V30 1636 N 167.025 -1.13721 1.09112 0
M  V30 1637 C 168.441 -1.36914 0.820174 0
M  V30 1638 C 168.641 -1.93356 -0.567079 0
M  V30 1639 O 167.697 -2.15093 -1.32255 0
M  V30 1640 C 169.01 -2.3235 1.90877 0
M  V30 1641 C 170.558 -2.45973 1.93562 0
M  V30 1642 C 171.033 -3.44714 3.01556 0
M  V30 1643 N 172.524 -3.52263 3.00775 0
M  V30 1644 C 173.259 -4.28536 3.80978 0
M  V30 1645 N 172.755 -5.07991 4.71081 0
M  V30 1646 N 174.548 -4.23804 3.69251 0
M  V30 1647 H 166.699 -0.754348 1.98553 0
M  V30 1648 H 168.962 -0.3944 0.862063 0
M  V30 1649 H 168.668 -1.98027 2.90651 0
M  V30 1650 H 168.542 -3.32332 1.78424 0
M  V30 1651 H 170.929 -2.79584 0.944286 0
M  V30 1652 H 171.01 -1.45926 2.10093 0
M  V30 1653 H 170.654 -3.11835 4.00901 0
M  V30 1654 H 170.584 -4.44558 2.82269 0
M  V30 1655 H 173.075 -2.95567 2.35475 0
M  V30 1656 H 173.388 -5.63487 5.28869 0
M  V30 1657 H 171.733 -5.07235 4.75119 0
M  V30 1658 H 174.924 -3.60806 2.98222 0
M  V30 1659 H 175.097 -4.82995 4.31995 0
M  V30 1660 N 168.503 -0.877838 -1.30888 0
M  V30 1661 C 169.749 -0.493426 -1.96706 0
M  V30 1662 C 170.082 0.953504 -1.6918 0
M  V30 1663 O 169.357 1.67266 -0.992594 0
M  V30 1664 C 169.64 -0.760429 -3.51979 0
M  V30 1665 C 169.493 -2.25747 -3.89048 0
M  V30 1666 C 170.812 -0.232148 -4.39487 0
M  V30 1667 H 167.931 -0.180746 -0.714493 0
M  V30 1668 H 170.573 -1.10052 -1.54882 0
M  V30 1669 H 168.723 -0.243715 -3.87735 0
M  V30 1670 H 170.395 -2.84204 -3.63354 0
M  V30 1671 H 168.638 -2.72694 -3.37373 0
M  V30 1672 H 169.309 -2.39491 -4.97341 0
M  V30 1673 H 171.785 -0.674314 -4.106 0
M  V30 1674 H 170.661 -0.448355 -5.47066 0
M  V30 1675 H 170.922 0.866297 -4.33529 0
M  V30 1676 N 169.982 1.44106 -0.638065 0
M  V30 1677 C 170.892 2.34513 0.0637334 0
M  V30 1678 C 171.908 1.53018 0.828346 0
M  V30 1679 O 173.084 1.85723 0.779036 0
M  V30 1680 C 170.149 3.31095 1.02844 0
M  V30 1681 C 169.21 4.28497 0.26244 0
M  V30 1682 C 168.443 5.20465 1.1812 0
M  V30 1683 O 168.666 5.16514 2.42011 0
M  V30 1684 O 167.6 5.98251 0.661774 0
M  V30 1685 H 171.426 2.95989 -0.68003 0
M  V30 1686 H 169.011 1.43994 -0.398252 0
M  V30 1687 H 170.893 3.90526 1.58327 0
M  V30 1688 H 169.568 2.72144 1.7527 0
M  V30 1689 H 168.475 3.72592 -0.335602 0
M  V30 1690 H 169.808 4.90388 -0.421936 0
M  V30 1691 N 171.46 0.379036 1.52974 0
M  V30 1692 C 172.685 -0.209353 2.06341 0
M  V30 1693 C 173.11 -1.40583 1.24972 0
M  V30 1694 O 172.468 -1.79246 0.272155 0
M  V30 1695 C 172.516 -0.567786 3.56102 0
M  V30 1696 O 171.62 -1.66318 3.77375 0
M  V30 1697 H 170.961 -0.0272919 0.663439 0
M  V30 1698 H 173.491 0.543536 1.97248 0
M  V30 1699 H 173.501 -0.835003 3.99364 0
M  V30 1700 H 172.176 0.307013 4.14765 0
M  V30 1701 H 170.753 -1.39048 3.46006 0
M  V30 1702 N 172.938 -1.57226 0.108567 0
M  V30 1703 C 174.354 -1.5766 -0.248058 0
M  V30 1704 C 174.554 -1.12063 -1.67464 0
M  V30 1705 O 173.61 -0.803236 -2.39383 0
M  V30 1706 C 174.923 -3.0069 -0.0242287 0
M  V30 1707 C 176.471 -3.12868 -0.0909372 0
M  V30 1708 C 176.946 -4.57879 0.105067 0
M  V30 1709 N 178.437 -4.63172 0.0506846 0
M  V30 1710 C 179.172 -5.73126 0.177396 0
M  V30 1711 N 178.668 -6.91866 0.359696 0
M  V30 1712 N 180.461 -5.61977 0.117709 0
M  V30 1713 H 172.612 -1.85169 1.04049 0
M  V30 1714 H 174.875 -0.85529 0.40888 0
M  V30 1715 H 174.581 -3.38299 0.961604 0
M  V30 1716 H 174.455 -3.6945 -0.76068 0
M  V30 1717 H 176.842 -2.75124 -1.06729 0
M  V30 1718 H 176.923 -2.46672 0.677225 0
M  V30 1719 H 176.567 -4.96321 1.07834 0
M  V30 1720 H 176.497 -5.22153 -0.682954 0
M  V30 1721 H 178.988 -3.778 -0.0871266 0
M  V30 1722 H 179.301 -7.71503 0.447529 0
M  V30 1723 H 177.646 -6.93874 0.395536 0
M  V30 1724 H 180.837 -4.68094 -0.0236741 0
M  V30 1725 H 181.01 -6.47627 0.219905 0
M  V30 1726 N 174.416 0.165178 -1.56732 0
M  V30 1727 C 175.326 1.22423 -2.00125 0
M  V30 1728 C 176.342 1.48084 -0.913619 0
M  V30 1729 O 177.518 1.60112 -1.22172 0
M  V30 1730 C 174.583 2.54197 -2.35764 0
M  V30 1731 C 173.644 2.36343 -3.58386 0
M  V30 1732 C 172.877 3.61834 -3.92316 0
M  V30 1733 O 173.1 4.67267 -3.27135 0
M  V30 1734 O 172.034 3.55579 -4.85641 0
M  V30 1735 H 175.86 0.885886 -2.90492 0
M  V30 1736 H 173.445 0.372518 -1.44681 0
M  V30 1737 H 175.327 3.3192 -2.59629 0
M  V30 1738 H 174.002 2.87598 -1.48557 0
M  V30 1739 H 172.909 1.56632 -3.39731 0
M  V30 1740 H 174.242 2.07865 -4.46154 0
M  V30 1741 N 175.894 1.51508 0.433938 0
M  V30 1742 C 177.143 1.63578 1.18005 0
M  V30 1743 C 177.456 0.359514 1.92268 0
M  V30 1744 O 178.662 0.359632 2.69108 0
M  V30 1745 C 177.118 2.88901 2.14626 0
M  V30 1746 C 176.726 4.23544 1.45995 0
M  V30 1747 C 178.47 3.10328 2.89649 0
M  V30 1748 C 176.377 5.40014 2.4112 0
M  V30 1749 H 175.307 0.609277 0.444182 0
M  V30 1750 H 177.958 1.77978 0.446773 0
M  V30 1751 H 176.34 2.68142 2.91403 0
M  V30 1752 H 177.514 4.54696 0.747532 0
M  V30 1753 H 175.829 4.08021 0.831115 0
M  V30 1754 H 178.426 3.94518 3.60915 0
M  V30 1755 H 178.769 2.23544 3.51189 0
M  V30 1756 H 179.302 3.31443 2.19978 0
M  V30 1757 H 176.041 6.29068 1.84264 0
M  V30 1758 H 175.561 5.13233 3.10406 0
M  V30 1759 H 177.24 5.72099 3.02177 0
M  V30 1760 N 177.372 -0.689602 1.41712 0
M  V30 1761 C 178.597 -1.48329 1.44959 0
M  V30 1762 C 179.022 -1.8801 0.0581283 0
M  V30 1763 O 178.38 -1.55026 -0.940035 0
M  V30 1764 C 178.428 -2.71835 2.36935 0
M  V30 1765 O 177.532 -3.69549 1.8305 0
M  V30 1766 H 176.873 -0.446199 0.491734 0
M  V30 1767 H 179.403 -0.847127 1.86239 0
M  V30 1768 H 179.413 -3.20076 2.53013 0
M  V30 1769 H 178.088 -2.42291 3.38035 0
M  V30 1770 H 176.665 -3.2851 1.76452 0
M  V30 1771 N 178.85 -1.27639 -0.924453 0
M  V30 1772 C 180.096 -1.14336 -1.67497 0
M  V30 1773 C 180.429 0.309465 -1.91718 0
M  V30 1774 O 179.704 1.22608 -1.50989 0
M  V30 1775 C 179.987 -1.93096 -3.0395 0
M  V30 1776 C 179.84 -3.46381 -2.8695 0
M  V30 1777 C 181.159 -1.73798 -4.0433 0
M  V30 1778 H 178.278 -0.416728 -0.607871 0
M  V30 1779 H 180.92 -1.56832 -1.07256 0
M  V30 1780 H 179.07 -1.56982 -3.55372 0
M  V30 1781 H 180.742 -3.92343 -2.42621 0
M  V30 1782 H 178.985 -3.72557 -2.22225 0
M  V30 1783 H 179.656 -3.96735 -3.83804 0
M  V30 1784 H 182.132 -2.05293 -3.61931 0
M  V30 1785 H 181.008 -2.31294 -4.97789 0
M  V30 1786 H 181.269 -0.686725 -4.36734 0
M  V30 1787 N 180.328 1.1314 -1.09713 0
M  V30 1788 C 181.744 1.36477 -0.827423 0
M  V30 1789 C 181.944 1.93654 0.556817 0
M  V30 1790 O 181 2.15791 1.31112 0
M  V30 1791 C 182.313 2.31334 -1.92106 0
M  V30 1792 C 183.861 2.44943 -1.94864 0
M  V30 1793 C 184.336 3.4311 -3.0338 0
M  V30 1794 N 185.827 3.50662 -3.02639 0
M  V30 1795 C 186.562 4.2651 -3.83246 0
M  V30 1796 N 186.058 5.05485 -4.73768 0
M  V30 1797 N 187.851 4.2184 -3.71493 0
M  V30 1798 H 180.002 0.743807 -1.9895 0
M  V30 1799 H 182.265 0.389823 -0.864143 0
M  V30 1800 H 181.971 1.96483 -2.91698 0
M  V30 1801 H 181.845 3.31381 -1.80184 0
M  V30 1802 H 184.232 2.79079 -0.959099 0
M  V30 1803 H 184.313 1.4481 -2.10864 0
M  V30 1804 H 183.957 3.09704 -4.02549 0
M  V30 1805 H 183.887 4.43055 -2.84622 0
M  V30 1806 H 186.378 2.94315 -2.37039 0
M  V30 1807 H 186.691 5.60675 -5.3185 0
M  V30 1808 H 185.036 5.04708 -4.77802 0
M  V30 1809 H 188.227 3.5922 -3.00131 0
M  V30 1810 H 188.4 4.80697 -4.3455 0
M  V30 1811 N 181.806 0.884767 1.30421 0
M  V30 1812 C 183.036 0.517293 2.00019 0
M  V30 1813 C 183.444 -0.898632 1.66497 0
M  V30 1814 O 182.787 -1.60245 0.898181 0
M  V30 1815 C 182.849 0.612025 3.54252 0
M  V30 1816 C 182.513 1.99222 4.1129 0
M  V30 1817 C 183.51 2.9616 4.273 0
M  V30 1818 C 181.195 2.29755 4.46674 0
M  V30 1819 C 183.189 4.21764 4.77906 0
M  V30 1820 C 180.876 3.55606 4.96979 0
M  V30 1821 C 181.874 4.51425 5.12547 0
M  V30 1822 O 181.562 5.75043 5.61766 0
M  V30 1823 H 181.294 0.198529 0.64619 0
M  V30 1824 H 183.848 1.1919 1.67281 0
M  V30 1825 H 182.078 -0.119561 3.86515 0
M  V30 1826 H 183.767 0.255859 4.05093 0
M  V30 1827 H 184.533 2.73882 4.00267 0
M  V30 1828 H 180.412 1.55942 4.33824 0
M  V30 1829 H 183.956 4.96561 4.89972 0
M  V30 1830 H 179.853 3.7772 5.23448 0
M  V30 1831 H 180.621 5.77422 5.80109 0
M  V30 1832 N 183.284 -1.43765 0.645699 0
M  V30 1833 C 184.561 -1.9541 0.0862963 0
M  V30 1834 C 184.941 -1.58725 -1.39175 0
M  V30 1835 O 184.289 -0.868581 -2.11348 0
M  V30 1836 C 184.499 -3.47488 0.324565 0
M  V30 1837 C 185.847 -4.24001 0.225497 0
M  V30 1838 O 186.871 -3.55274 0.256715 0
M  V30 1839 O 185.73 -5.46313 0.142801 0
M  V30 1840 H 182.824 -0.826882 -0.0139483 0
M  V30 1841 H 185.37 -1.53743 0.718415 0
M  V30 1842 H 184.142 -3.67289 1.3496 0
M  V30 1843 H 183.765 -3.96135 -0.340987 0
M  V30 1844 N 184.763 -0.387143 -1.52771 0
M  V30 1845 C 185.988 0.198407 -2.06449 0
M  V30 1846 C 186.413 1.39918 -1.25716 0
M  V30 1847 O 185.771 1.79099 -0.281657 0
M  V30 1848 C 185.819 0.548893 -3.56398 0
M  V30 1849 O 184.923 1.64315 -3.78252 0
M  V30 1850 H 184.264 0.0237731 -0.663574 0
M  V30 1851 H 186.794 -0.553989 -1.96957 0
M  V30 1852 H 186.804 0.813812 -3.99801 0
M  V30 1853 H 185.479 -0.329005 -4.14597 0
M  V30 1854 H 184.056 1.37211 -3.46738 0
M  V30 1855 N 186.241 1.57166 -0.116904 0
M  V30 1856 C 187.652 1.82169 0.408809 0
M  V30 1857 C 188.003 1.03393 1.66746 0
M  V30 1858 O 187.128 0.269886 2.1471 0
M  V30 1859 C 187.723 3.30429 0.748466 0
M  V30 1860 C 186.282 3.5612 1.21882 0
M  V30 1861 C 185.429 2.76374 0.226452 0
M  V30 1862 H 188.38 1.5497 -0.342063 0
M  V30 1863 H 188.401 3.44943 1.60607 0
M  V30 1864 H 187.913 3.87737 -0.167784 0
M  V30 1865 H 186.014 3.04168 2.15204 0
M  V30 1866 H 186.127 4.64705 1.16559 0
M  V30 1867 H 184.491 2.44515 0.713063 0
M  V30 1868 H 185.274 3.3644 -0.682859 0
M  V30 1869 N 187.719 -0.156864 1.56817 0
M  V30 1870 C 188.965 -0.872416 1.83076 0
M  V30 1871 C 189.298 -1.81261 0.697001 0
M  V30 1872 O 188.573 -1.92171 -0.30008 0
M  V30 1873 C 188.856 -1.65551 3.19789 0
M  V30 1874 C 188.709 -0.737467 4.43713 0
M  V30 1875 C 190.028 -2.62012 3.53606 0
M  V30 1876 H 187.147 -0.315715 0.665953 0
M  V30 1877 H 189.789 -0.138004 1.89498 0
M  V30 1878 H 187.939 -2.28159 3.14445 0
M  V30 1879 H 189.611 -0.123143 4.61136 0
M  V30 1880 H 187.854 -0.0464067 4.33775 0
M  V30 1881 H 188.525 -1.32122 5.35955 0
M  V30 1882 H 191.001 -2.09525 3.59497 0
M  V30 1883 H 189.877 -3.13861 4.50314 0
M  V30 1884 H 190.138 -3.42902 2.79053 0
M  V30 1885 N 189.197 -1.51736 -0.425897 0
M  V30 1886 C 190.444 -1.6497 -1.17436 0
M  V30 1887 C 190.772 -0.371445 -1.9092 0
M  V30 1888 O 190.027 0.644963 -1.84767 0
M  V30 1889 C 190.326 -2.81103 -2.20717 0
M  V30 1890 C 189.992 -4.19954 -1.64162 0
M  V30 1891 C 188.654 -4.57725 -1.48462 0
M  V30 1892 C 191.006 -5.06552 -1.22696 0
M  V30 1893 C 188.334 -5.79789 -0.897873 0
M  V30 1894 C 190.686 -6.29205 -0.654464 0
M  V30 1895 C 189.35 -6.6574 -0.484456 0
M  V30 1896 H 188.62 -0.603668 -0.429727 0
M  V30 1897 H 191.267 -1.85798 -0.463829 0
M  V30 1898 H 189.572 -2.54542 -2.97852 0
M  V30 1899 H 191.269 -2.8854 -2.78471 0
M  V30 1900 H 187.859 -3.90181 -1.77361 0
M  V30 1901 H 192.043 -4.77968 -1.33642 0
M  V30 1902 H 187.299 -6.06733 -0.75402 0
M  V30 1903 H 191.473 -6.95643 -0.324694 0
M  V30 1904 H 189.1 -7.60195 -0.0276833 0
M  V30 1905 N 190.675 0.682077 -1.42076 0
M  V30 1906 C 191.638 1.77756 -1.44691 0
M  V30 1907 C 192.638 1.5726 -0.335535 0
M  V30 1908 O 193.828 1.63686 -0.596037 0
M  V30 1909 C 190.96 3.16301 -1.27146 0
M  V30 1910 H 192.153 1.76826 -2.42224 0
M  V30 1911 H 189.706 0.891012 -1.28416 0
M  V30 1912 H 190.441 3.22862 -0.305075 0
M  V30 1913 H 190.226 3.32581 -2.07683 0
M  V30 1914 H 191.716 3.96241 -1.31843 0
M  V30 1915 N 192.153 1.28127 0.917671 0
M  V30 1916 C 193.401 1.14825 1.66312 0
M  V30 1917 C 193.722 -0.304379 1.9261 0
M  V30 1918 O 192.992 -1.21149 1.53947 0
M  V30 1919 H 191.572 0.421953 0.616413 0
M  V30 1920 H 194.234 1.608 1.10134 0
M  V30 1921 H 193.33 1.68489 2.62712 0
M  V30 1922 N 193.631 -1.12557 1.10312 0
M  V30 1923 C 194.878 -1.84038 0.844759 0
M  V30 1924 C 195.206 -1.84026 -0.629668 0
M  V30 1925 O 194.461 -1.28026 -1.48013 0
M  V30 1926 C 194.76 -3.31462 1.33669 0
M  V30 1927 C 194.426 -3.51647 2.82232 0
M  V30 1928 C 193.088 -3.56864 3.22802 0
M  V30 1929 C 195.44 -3.58867 3.77974 0
M  V30 1930 C 192.768 -3.66844 4.57867 0
M  V30 1931 C 195.12 -3.70375 5.1284 0
M  V30 1932 C 193.784 -3.73848 5.52986 0
M  V30 1933 H 193.054 -0.673444 0.309119 0
M  V30 1934 H 195.701 -1.32824 1.37949 0
M  V30 1935 H 194.006 -3.85091 0.721949 0
M  V30 1936 H 195.703 -3.85236 1.11329 0
M  V30 1937 H 192.293 -3.48249 2.49842 0
M  V30 1938 H 196.477 -3.54107 3.47738 0
M  V30 1939 H 191.733 -3.67804 4.88396 0
M  V30 1940 H 195.907 -3.74904 5.86873 0
M  V30 1941 H 193.534 -3.81333 6.57639 0
M  V30 1942 N 195.109 -0.891671 -1.2995 0
M  V30 1943 C 196.334 -0.527932 -2.00568 0
M  V30 1944 C 196.759 0.877969 -1.66353 0
M  V30 1945 O 196.117 1.58301 -0.883762 0
M  V30 1946 C 196.165 -0.717745 -3.53385 0
M  V30 1947 O 195.269 0.233376 -4.11739 0
M  V30 1948 H 194.61 -0.20722 -0.630837 0
M  V30 1949 H 197.14 -1.20105 -1.65638 0
M  V30 1950 H 197.15 -0.619307 -4.03272 0
M  V30 1951 H 195.825 -1.74276 -3.77625 0
M  V30 1952 H 194.402 0.0880706 -3.72796 0
M  V30 1953 N 196.587 1.43421 -0.653314 0
M  V30 1954 C 197.835 2.01414 -0.166415 0
M  V30 1955 C 198.156 1.51803 1.22397 0
M  V30 1956 O 197.426 0.730693 1.81763 0
M  V30 1957 H 196.006 0.744703 -0.0585319 0
M  V30 1958 H 198.668 1.75629 -0.845003 0
M  V30 1959 H 197.764 3.11734 -0.151111 0
M  V30 1960 N 198.065 0.39524 1.52563 0
M  V30 1961 C 199.29 -0.187456 2.06551 0
M  V30 1962 C 199.715 -1.39249 1.26457 0
M  V30 1963 O 199.073 -1.78947 0.291151 0
M  V30 1964 C 199.121 -0.529985 3.56684 0
M  V30 1965 O 198.225 -1.62307 3.79118 0
M  V30 1966 H 197.566 -0.0202537 0.663691 0
M  V30 1967 H 200.096 0.564426 1.96661 0
M  V30 1968 H 200.106 -0.792598 4.00227 0
M  V30 1969 H 198.781 0.350987 4.14416 0
M  V30 1970 H 197.358 -1.3537 3.47461 0
M  V30 1971 N 199.544 -1.57102 0.125237 0
M  V30 1972 C 200.79 -1.95697 -0.532035 0
M  V30 1973 C 201.123 -1.009 -1.6593 0
M  V30 1974 O 200.398 -0.047347 -1.94442 0
M  V30 1975 C 200.681 -3.44181 -1.05884 0
M  V30 1976 C 200.534 -4.49752 0.0654392 0
M  V30 1977 C 201.853 -3.94655 -1.9477 0
M  V30 1978 H 198.972 -0.711571 -0.191925 0
M  V30 1979 H 201.614 -1.88923 0.20206 0
M  V30 1980 H 199.764 -3.50085 -1.68442 0
M  V30 1981 H 201.436 -4.55943 0.700982 0
M  V30 1982 H 199.679 -4.27653 0.727709 0
M  V30 1983 H 200.35 -5.50924 -0.344505 0
M  V30 1984 H 202.826 -3.91094 -1.42074 0
M  V30 1985 H 201.702 -4.99057 -2.28546 0
M  V30 1986 H 201.963 -3.35718 -2.87656 0
M  V30 1987 N 201.022 0.148545 -1.56898 0
M  V30 1988 C 201.954 1.20852 -1.9475 0
M  V30 1989 C 202.967 1.39265 -0.843152 0
M  V30 1990 O 204.156 1.38864 -1.12156 0
M  V30 1991 C 201.256 2.57362 -2.20495 0
M  V30 1992 C 200.429 2.59947 -3.51776 0
M  V30 1993 C 199.488 3.77984 -3.6608 0
M  V30 1994 O 198.514 3.62929 -4.38487 0
M  V30 1995 N 199.716 4.95375 -3.02629 0
M  V30 1996 H 202.481 0.886804 -2.86279 0
M  V30 1997 H 200.042 0.338121 -1.5833 0
M  V30 1998 H 202.034 3.34833 -2.27307 0
M  V30 1999 H 200.604 2.81832 -1.35238 0
M  V30 2000 H 199.824 1.68403 -3.56419 0
M  V30 2001 H 201.112 2.58704 -4.38121 0
M  V30 2002 H 200.51 5.10509 -2.43715 0
M  V30 2003 H 199.067 5.70627 -3.15004 0
M  V30 2004 N 202.5 1.5196 0.417844 0
M  V30 2005 C 203.73 1.69181 1.18581 0
M  V30 2006 C 204.138 0.397104 1.84986 0
M  V30 2007 O 203.481 -0.636011 1.72339 0
M  V30 2008 C 203.543 2.76497 2.29759 0
M  V30 2009 C 203.207 4.18514 1.83563 0
M  V30 2010 C 204.204 5.02648 1.32821 0
M  V30 2011 C 201.889 4.64708 1.90661 0
M  V30 2012 C 203.883 6.31044 0.897894 0
M  V30 2013 C 201.57 5.93096 1.47241 0
M  V30 2014 C 202.568 6.76093 0.968891 0
M  V30 2015 O 202.256 8.02078 0.540924 0
M  V30 2016 H 201.988 0.570457 0.362705 0
M  V30 2017 H 204.542 1.99249 0.498885 0
M  V30 2018 H 202.772 2.41786 3.01789 0
M  V30 2019 H 204.461 2.82403 2.91553 0
M  V30 2020 H 205.227 4.68154 1.26716 0
M  V30 2021 H 201.106 4.00216 2.28797 0
M  V30 2022 H 204.65 6.95776 0.504192 0
M  V30 2023 H 200.547 6.271 1.53022 0
M  V30 2024 H 201.315 8.15794 0.66502 0
M  V30 2025 N 203.978 -0.674533 1.42435 0
M  V30 2026 C 205.224 -1.43671 1.43131 0
M  V30 2027 C 205.557 -1.94142 0.0476021 0
M  V30 2028 O 204.832 -1.70924 -0.928188 0
M  V30 2029 C 205.115 -2.63355 2.45594 0
M  V30 2030 C 204.968 -2.18514 3.93156 0
M  V30 2031 C 206.287 -3.65571 2.45043 0
M  V30 2032 H 203.406 -0.521077 0.521198 0
M  V30 2033 H 206.048 -0.766551 1.7385 0
M  V30 2034 H 204.198 -3.2053 2.19528 0
M  V30 2035 H 205.87 -1.66504 4.30202 0
M  V30 2036 H 204.113 -1.50086 4.07009 0
M  V30 2037 H 204.784 -3.04484 4.60428 0
M  V30 2038 H 207.26 -3.18113 2.68223 0
M  V30 2039 H 206.136 -4.46893 3.18713 0
M  V30 2040 H 206.397 -4.16716 1.47649 0
M  V30 2041 N 205.456 -1.28612 -0.910864 0
M  V30 2042 C 206.867 -1.14406 -1.47541 0
M  V30 2043 C 207.218 0.264901 -1.94403 0
M  V30 2044 O 206.343 1.15942 -1.82719 0
M  V30 2045 C 206.938 -2.07073 -2.68153 0
M  V30 2046 C 205.497 -1.96923 -3.20778 0
M  V30 2047 C 204.644 -1.98646 -1.93481 0
M  V30 2048 H 207.595 -1.41259 -0.723291 0
M  V30 2049 H 207.616 -1.63642 -3.43514 0
M  V30 2050 H 207.128 -3.09611 -2.34015 0
M  V30 2051 H 205.229 -0.97433 -3.59635 0
M  V30 2052 H 205.342 -2.84026 -3.85832 0
M  V30 2053 H 203.706 -1.43093 -2.10705 0
M  V30 2054 H 204.489 -3.02868 -1.61634 0
M  V30 2055 N 206.934 1.1197 -1.10907 0
M  V30 2056 C 208.35 1.35591 -0.841852 0
M  V30 2057 C 208.55 1.94233 0.536246 0
M  V30 2058 O 207.606 2.1717 1.28816 0
M  V30 2059 C 208.919 2.29284 -1.94549 0
M  V30 2060 C 210.467 2.42862 -1.97451 0
M  V30 2061 C 210.942 3.39873 -3.07002 0
M  V30 2062 N 212.433 3.47433 -3.06341 0
M  V30 2063 C 213.168 4.22421 -3.87748 0
M  V30 2064 N 212.664 5.00432 -4.79103 0
M  V30 2065 N 214.457 4.17876 -3.75946 0
M  V30 2066 H 206.608 0.722664 -1.99728 0
M  V30 2067 H 208.871 0.380635 -0.868229 0
M  V30 2068 H 208.577 1.93378 -2.93765 0
M  V30 2069 H 208.451 3.29452 -1.83688 0
M  V30 2070 H 210.838 2.78046 -0.988645 0
M  V30 2071 H 210.919 1.42566 -2.12388 0
M  V30 2072 H 210.563 3.05417 -4.05811 0
M  V30 2073 H 210.493 4.40011 -2.89306 0
M  V30 2074 H 212.984 2.91784 -2.40147 0
M  V30 2075 H 213.297 5.55002 -5.37766 0
M  V30 2076 H 211.642 4.99612 -4.83128 0
M  V30 2077 H 214.833 3.56016 -3.03924 0
M  V30 2078 H 215.006 4.76061 -4.39624 0
M  V30 2079 N 208.412 0.89855 1.29475 0
M  V30 2080 C 209.689 0.443416 1.90508 0
M  V30 2081 C 210.069 -1.07685 1.81569 0
M  V30 2082 O 209.417 -1.9182 1.24166 0
M  V30 2083 C 209.627 0.956708 3.35631 0
M  V30 2084 C 210.975 0.999728 4.12663 0
M  V30 2085 O 211.999 0.904299 3.4453 0
M  V30 2086 O 210.858 1.14289 5.34416 0
M  V30 2087 H 207.952 0.138025 0.815401 0
M  V30 2088 H 210.498 0.98834 1.37949 0
M  V30 2089 H 209.27 2.00067 3.36287 0
M  V30 2090 H 208.893 0.391728 3.95666 0
M  V30 2091 N 209.89 -1.43072 0.660911 0
M  V30 2092 C 210.838 -2.32569 -0.0378199 0
M  V30 2093 C 211.832 -1.49046 -0.805092 0
M  V30 2094 O 213.038 -1.65206 -0.714624 0
M  V30 2095 H 209.413 -0.75136 -0.031019 0
M  V30 2096 H 211.384 -2.89216 0.734609 0
M  V30 2097 C 210.133 -3.33453 -0.985124 0
M  V30 2098 H 209.456 -3.97752 -0.404147 0
M  V30 2099 H 210.896 -3.98691 -1.44297 0
M  V30 2100 C 209.355 -2.64642 -2.08486 0
M  V30 2101 O 209.885 -2.46776 -3.16961 0
M  V30 2102 N 208.091 -2.23891 -1.8526 0
M  V30 2103 H 207.638 -2.38621 -0.970449 0
M  V30 2104 H 207.596 -1.78181 -2.59034 0
M  V30 2105 N 211.368 -0.403325 -1.52352 0
M  V30 2106 C 212.331 0.413051 -2.25447 0
M  V30 2107 C 213.331 0.978513 -1.276 0
M  V30 2108 O 214.521 0.858305 -1.51587 0
M  V30 2109 C 211.653 1.58087 -3.02029 0
M  V30 2110 H 212.846 -0.227094 -2.99039 0
M  V30 2111 H 210.399 -0.155722 -1.55522 0
M  V30 2112 H 211.134 2.25804 -2.32772 0
M  V30 2113 H 210.919 1.18195 -3.73861 0
M  V30 2114 H 212.409 2.1585 -3.57489 0
M  V30 2115 N 212.846 1.57033 -0.133567 0
M  V30 2116 C 213.794 2.17348 0.828412 0
M  V30 2117 C 214.788 1.12671 1.26498 0
M  V30 2118 O 215.994 1.30947 1.23502 0
M  V30 2119 H 212.369 0.695775 0.285309 0
M  V30 2120 H 214.34 2.96935 0.295372 0
M  V30 2121 C 213.089 2.79893 2.06289 0
M  V30 2122 H 212.412 3.60147 1.73592 0
M  V30 2123 H 213.852 3.25615 2.71572 0
M  V30 2124 C 212.311 1.77713 2.86216 0
M  V30 2125 O 212.841 1.23937 3.82103 0
M  V30 2126 N 211.047 1.47321 2.50489 0
M  V30 2127 H 210.594 1.91243 1.7258 0
M  V30 2128 H 210.552 0.79199 3.04261 0
M  V30 2129 N 214.325 -0.140222 1.56975 0
M  V30 2130 C 215.602 -0.880769 1.74648 0
M  V30 2131 C 215.982 -1.99036 0.703404 0
M  V30 2132 O 215.33 -2.26821 -0.27648 0
M  V30 2133 C 215.54 -1.417 3.18939 0
M  V30 2134 C 216.888 -1.87774 3.80823 0
M  V30 2135 O 217.912 -1.51427 3.2241 0
M  V30 2136 O 216.771 -2.54827 4.83452 0
M  V30 2137 H 213.865 -0.416713 0.714338 0
M  V30 2138 H 216.411 -0.125618 1.69234 0
M  V30 2139 H 215.183 -0.619902 3.86359 0
M  V30 2140 H 214.806 -2.23546 3.28805 0
M  V30 2141 N 215.803 -1.52179 -0.40978 0
M  V30 2142 C 217.049 -1.66453 -1.15851 0
M  V30 2143 C 217.382 -0.392972 -1.90182 0
M  V30 2144 O 216.657 0.608579 -1.84734 0
M  V30 2145 C 216.94 -2.88612 -2.15349 0
M  V30 2146 C 216.793 -4.25815 -1.44918 0
M  V30 2147 C 218.112 -3.06294 -3.16026 0
M  V30 2148 H 215.231 -0.60575 -0.419805 0
M  V30 2149 H 217.873 -1.84732 -0.444314 0
M  V30 2150 H 216.023 -2.73158 -2.76255 0
M  V30 2151 H 217.695 -4.52995 -0.871365 0
M  V30 2152 H 215.938 -4.27247 -0.751159 0
M  V30 2153 H 216.609 -5.07337 -2.17516 0
M  V30 2154 H 219.085 -3.20641 -2.65195 0
M  V30 2155 H 217.961 -3.93283 -3.8291 0
M  V30 2156 H 218.222 -2.19579 -3.83715 0
M  V30 2157 N 217.281 0.66697 -1.42791 0
M  V30 2158 C 218.558 1.4234 -1.34159 0
M  V30 2159 C 218.938 2.11093 0.0172729 0
M  V30 2160 O 218.286 2.03808 1.03318 0
M  V30 2161 C 218.496 2.41942 -2.51526 0
M  V30 2162 C 219.844 3.06353 -2.93995 0
M  V30 2163 O 220.868 2.52269 -2.51473 0
M  V30 2164 O 219.727 4.04376 -3.67617 0
M  V30 2165 H 216.821 0.635277 -0.529483 0
M  V30 2166 H 219.367 0.695034 -1.54814 0
M  V30 2167 H 218.139 1.89991 -3.42081 0
M  V30 2168 H 217.762 3.22249 -2.32898 0
M  V30 2169 N 218.759 1.29093 0.90403 0
M  V30 2170 C 219.706 1.13853 2.00764 0
M  V30 2171 C 220.676 0.0330084 1.66067 0
M  V30 2172 O 221.861 0.199733 1.89752 0
M  V30 2173 C 219.001 0.816537 3.35301 0
M  V30 2174 C 218.114 2.00206 3.82807 0
M  V30 2175 C 217.249 1.61983 5.059 0
M  V30 2176 C 216.288 2.77143 5.45764 0
M  V30 2177 N 215.425 2.39346 6.60044 0
M  V30 2178 H 220.265 2.08276 2.13132 0
M  V30 2179 H 217.802 1.03648 1.04381 0
M  V30 2180 H 219.76 0.610557 4.12708 0
M  V30 2181 H 218.39 -0.090779 3.22672 0
M  V30 2182 H 217.442 2.31988 3.01473 0
M  V30 2183 H 218.754 2.86512 4.08304 0
M  V30 2184 H 217.908 1.37649 5.90879 0
M  V30 2185 H 216.647 0.728202 4.82233 0
M  V30 2186 H 215.652 3.02165 4.59322 0
M  V30 2187 H 216.877 3.66964 5.71414 0
M  V30 2188 H 214.823 1.52665 6.37989 0
M  V30 2189 H 214.74 3.19185 6.85315 0
M  V30 2190 H 216.008 2.1832 7.48303 0
M  V30 2191 N 220.237 -1.11381 1.11499 0
M  V30 2192 C 221.467 -1.86663 0.885464 0
M  V30 2193 C 221.875 -1.80464 -0.568281 0
M  V30 2194 O 221.218 -1.18445 -1.40415 0
M  V30 2195 C 221.28 -3.36337 1.26956 0
M  V30 2196 C 220.944 -3.66304 2.73259 0
M  V30 2197 C 221.941 -3.63733 3.71476 0
M  V30 2198 C 219.626 -3.9529 3.09921 0
M  V30 2199 C 221.62 -3.89725 5.04374 0
M  V30 2200 C 219.307 -4.20941 4.43004 0
M  V30 2201 C 220.305 -4.18147 5.40039 0
M  V30 2202 O 219.993 -4.43153 6.70724 0
M  V30 2203 H 219.725 -0.597114 0.316908 0
M  V30 2204 H 222.279 -1.41782 1.48617 0
M  V30 2205 H 220.509 -3.81826 0.611999 0
M  V30 2206 H 222.198 -3.92986 1.01573 0
M  V30 2207 H 222.964 -3.41389 3.44498 0
M  V30 2208 H 218.843 -3.966 2.35009 0
M  V30 2209 H 222.387 -3.8746 5.80104 0
M  V30 2210 H 218.284 -4.42761 4.69716 0
M  V30 2211 H 219.052 -4.60717 6.76522 0
M  V30 2212 N 221.715 -0.905404 -1.28997 0
M  V30 2213 C 222.662 -0.385892 -2.27551 0
M  V30 2214 C 223.632 0.535113 -1.57244 0
M  V30 2215 O 224.817 0.459119 -1.85194 0
M  V30 2216 C 221.957 0.375461 -3.43051 0
M  V30 2217 C 221.07 -0.577092 -4.28128 0
M  V30 2218 C 220.205 0.201879 -5.30816 0
M  V30 2219 C 219.244 -0.744829 -6.07551 0
M  V30 2220 N 218.381 9.42587e-05 -7.021 0
M  V30 2221 H 223.221 -1.23139 -2.71368 0
M  V30 2222 H 220.758 -0.618542 -1.33463 0
M  V30 2223 H 222.716 0.832992 -4.088 0
M  V30 2224 H 221.346 1.18537 -3.00248 0
M  V30 2225 H 220.398 -1.15315 -3.62501 0
M  V30 2226 H 221.71 -1.30152 -4.8152 0
M  V30 2227 H 220.864 0.720351 -6.02408 0
M  V30 2228 H 219.603 0.959413 -4.7817 0
M  V30 2229 H 218.608 -1.27475 -5.34818 0
M  V30 2230 H 219.833 -1.50178 -6.62286 0
M  V30 2231 H 217.779 0.739791 -6.51815 0
M  V30 2232 H 217.696 -0.664321 -7.53076 0
M  V30 2233 H 218.964 0.498644 -7.77903 0
M  V30 2234 N 223.193 1.4272 -0.668489 0
M  V30 2235 C 224.143 2.27971 0.0363806 0
M  V30 2236 C 225.127 1.40741 0.779794 0
M  V30 2237 O 226.319 1.64245 0.659745 0
M  V30 2238 C 223.448 3.28673 0.991398 0
M  V30 2239 C 222.534 4.23388 0.245658 0
M  V30 2240 N 222.925 5.00267 -0.746069 0
M  V30 2241 C 221.223 4.43355 0.484988 0
M  V30 2242 C 221.924 5.69396 -1.19009 0
M  V30 2243 N 220.9 5.41095 -0.521287 0
M  V30 2244 H 224.702 2.84833 -0.724394 0
M  V30 2245 H 222.216 1.54607 -0.497028 0
M  V30 2246 H 224.213 3.88543 1.51129 0
M  V30 2247 H 222.873 2.73373 1.75207 0
M  V30 2248 H 223.884 5.05525 -1.12537 0
M  V30 2249 H 220.561 3.99104 1.22565 0
M  V30 2250 H 221.951 6.41083 -2.01153 0
M  V30 2251 N 224.671 0.411399 1.52136 0
M  V30 2252 C 225.899 -0.163076 2.06256 0
M  V30 2253 C 226.314 -1.3867 1.28125 0
M  V30 2254 O 225.671 -1.79423 0.333721 0
M  V30 2255 C 225.722 -0.511252 3.57867 0
M  V30 2256 O 225.443 0.66378 4.33042 0
M  V30 2257 C 226.944 -1.13921 4.28412 0
M  V30 2258 H 224.164 -0.0193897 0.67072 0
M  V30 2259 H 226.708 0.583007 1.96013 0
M  V30 2260 H 224.863 -1.20723 3.6811 0
M  V30 2261 H 225.277 0.372601 5.23175 0
M  V30 2262 H 226.751 -1.33302 5.35663 0
M  V30 2263 H 227.228 -2.11296 3.85033 0
M  V30 2264 H 227.834 -0.483373 4.22544 0
M  V30 2265 N 226.149 -1.5696 0.141893 0
M  V30 2266 C 227.096 -2.16501 -0.799737 0
M  V30 2267 C 228.066 -1.09643 -1.24771 0
M  V30 2268 O 229.251 -1.3766 -1.32115 0
M  V30 2269 C 226.391 -2.78679 -2.03549 0
M  V30 2270 C 225.504 -3.99914 -1.6338 0
M  V30 2271 C 224.639 -4.50106 -2.82096 0
M  V30 2272 C 223.678 -5.63819 -2.38275 0
M  V30 2273 N 222.815 -6.08651 -3.49983 0
M  V30 2274 H 227.655 -2.96632 -0.285179 0
M  V30 2275 H 225.192 -1.46533 -0.129053 0
M  V30 2276 H 227.15 -3.1287 -2.75986 0
M  V30 2277 H 225.78 -2.012 -2.52425 0
M  V30 2278 H 224.832 -3.71735 -0.807279 0
M  V30 2279 H 226.144 -4.82311 -1.27192 0
M  V30 2280 H 225.298 -4.86325 -3.62729 0
M  V30 2281 H 224.037 -3.66706 -3.21525 0
M  V30 2282 H 223.042 -5.2718 -1.56081 0
M  V30 2283 H 224.267 -6.49 -1.99938 0
M  V30 2284 H 222.213 -5.28188 -3.89042 0
M  V30 2285 H 222.13 -6.85961 -3.17794 0
M  V30 2286 H 223.398 -6.49515 -4.30988 0
M  V30 2287 N 227.627 0.131896 -1.57047 0
M  V30 2288 C 228.852 0.860418 -1.8871 0
M  V30 2289 C 229.277 1.73251 -0.73251 0
M  V30 2290 O 228.635 1.785 0.317429 0
M  V30 2291 C 228.683 1.68047 -3.19049 0
M  V30 2292 O 227.787 2.7862 -3.04047 0
M  V30 2293 H 227.128 0.238743 -0.619595 0
M  V30 2294 H 229.658 0.118169 -2.04258 0
M  V30 2295 H 229.668 2.07238 -3.51449 0
M  V30 2296 H 228.343 1.04018 -4.02682 0
M  V30 2297 H 226.92 2.42726 -2.83088 0
M  V30 2298 N 229.106 1.52395 0.401703 0
M  V30 2299 C 230.331 1.70972 1.17403 0
M  V30 2300 C 230.756 0.421615 1.83314 0
M  V30 2301 O 230.114 -0.621564 1.70312 0
M  V30 2302 C 230.162 2.85151 2.20728 0
M  V30 2303 O 229.266 2.51238 3.27037 0
M  V30 2304 H 228.607 0.568927 0.342372 0
M  V30 2305 H 231.137 1.99131 0.469891 0
M  V30 2306 H 231.147 3.10279 2.64936 0
M  V30 2307 H 229.822 3.78603 1.7214 0
M  V30 2308 H 228.399 2.36808 2.88057 0
M  V30 2309 N 230.584 -0.659388 1.43143 0
M  V30 2310 C 232 -0.974337 1.26407 0
M  V30 2311 C 232.2 -2.007 0.179341 0
M  V30 2312 O 231.256 -2.4856 -0.444295 0
M  V30 2313 C 232.569 -1.46447 2.62628 0
M  V30 2314 C 234.117 -1.58144 2.7011 0
M  V30 2315 C 234.592 -2.1055 4.06734 0
M  V30 2316 N 236.083 -2.17861 4.08767 0
M  V30 2317 C 236.818 -2.59519 5.1131 0
M  V30 2318 N 236.314 -3.00518 6.24228 0
M  V30 2319 N 238.107 -2.59404 4.98664 0
M  V30 2320 H 230.258 0.0240528 2.12386 0
M  V30 2321 H 232.521 -0.0518065 0.946583 0
M  V30 2322 H 232.227 -0.780123 3.42939 0
M  V30 2323 H 232.101 -2.44058 2.87603 0
M  V30 2324 H 234.488 -2.25682 1.90136 0
M  V30 2325 H 234.569 -0.589828 2.48907 0
M  V30 2326 H 234.213 -1.43616 4.87172 0
M  V30 2327 H 234.143 -3.10531 4.25298 0
M  V30 2328 H 236.634 -1.88975 3.27257 0
M  V30 2329 H 236.947 -3.31036 6.98309 0
M  V30 2330 H 235.292 -2.98337 6.2771 0
M  V30 2331 H 238.483 -2.26747 4.09516 0
M  V30 2332 H 238.656 -2.91548 5.78709 0
M  V30 2333 N 232.062 -1.29571 -0.897171 0
M  V30 2334 C 232.972 -1.16808 -2.03453 0
M  V30 2335 C 233.988 -0.0907471 -1.73763 0
M  V30 2336 O 235.164 -0.303312 -1.99103 0
M  V30 2337 C 232.229 -0.848264 -3.36163 0
M  V30 2338 C 231.29 -2.0097 -3.79354 0
M  V30 2339 C 230.523 -1.70505 -5.05731 0
M  V30 2340 O 230.746 -0.62718 -5.66941 0
M  V30 2341 O 229.68 -2.5538 -5.45036 0
M  V30 2342 H 233.506 -2.12325 -2.17144 0
M  V30 2343 H 231.091 -1.09047 -1.02123 0
M  V30 2344 H 232.973 -0.684581 -4.15802 0
M  V30 2345 H 231.648 0.0771071 -3.23608 0
M  V30 2346 H 230.555 -2.22863 -3.00471 0
M  V30 2347 H 231.888 -2.91636 -3.96496 0
M  V30 2348 N 233.54 1.10788 -1.12088 0
M  V30 2349 C 234.765 1.87002 -0.896949 0
M  V30 2350 C 235.19 1.79933 0.548261 0
M  V30 2351 O 234.548 1.16662 1.38779 0
M  V30 2352 C 234.596 3.3349 -1.37174 0
M  V30 2353 O 233.7 4.08745 -0.547831 0
M  V30 2354 H 233.041 0.580397 -0.322545 0
M  V30 2355 H 235.571 1.39996 -1.49206 0
M  V30 2356 H 235.581 3.84339 -1.36922 0
M  V30 2357 H 234.256 3.37951 -2.42408 0
M  V30 2358 H 232.833 3.6776 -0.617034 0
M  V30 2359 N 235.018 0.912232 1.28515 0
M  V30 2360 C 236.248 0.559604 1.98877 0
M  V30 2361 C 236.656 -0.863113 1.68366 0
M  V30 2362 O 235.999 -1.58304 0.931969 0
M  V30 2363 C 236.061 0.68703 3.52874 0
M  V30 2364 C 235.725 2.07901 4.06972 0
M  V30 2365 C 236.722 3.05157 4.20922 0
M  V30 2366 C 234.407 2.39178 4.417 0
M  V30 2367 C 236.401 4.31806 4.68852 0
M  V30 2368 C 234.088 3.66068 4.89324 0
M  V30 2369 C 235.086 4.62195 5.02856 0
M  V30 2370 O 234.774 5.86829 5.49442 0
M  V30 2371 H 234.506 0.212191 0.641834 0
M  V30 2372 H 237.06 1.22712 1.64715 0
M  V30 2373 H 235.29 -0.0375486 3.86682 0
M  V30 2374 H 236.979 0.341727 4.04459 0
M  V30 2375 H 237.745 2.82311 3.94367 0
M  V30 2376 H 233.624 1.65109 4.30418 0
M  V30 2377 H 237.168 5.06842 4.79329 0
M  V30 2378 H 233.065 3.88739 5.15318 0
M  V30 2379 H 233.833 5.89597 5.6773 0
M  V30 2380 N 236.496 -1.42363 0.676048 0
M  V30 2381 C 237.446 -2.27987 -0.0242903 0
M  V30 2382 C 238.43 -1.41153 -0.772319 0
M  V30 2383 O 239.622 -1.64592 -0.651025 0
M  V30 2384 C 236.751 -3.29195 -0.973953 0
M  V30 2385 C 235.837 -4.23512 -0.223202 0
M  V30 2386 N 236.228 -4.99865 0.772589 0
M  V30 2387 C 234.526 -4.43606 -0.461469 0
M  V30 2388 C 235.227 -5.68757 1.22027 0
M  V30 2389 N 234.203 -5.40811 0.549975 0
M  V30 2390 H 238.005 -2.84445 0.73949 0
M  V30 2391 H 235.519 -1.54341 0.50522 0
M  V30 2392 H 237.516 -3.89339 -1.49067 0
M  V30 2393 H 236.176 -2.74298 -1.73755 0
M  V30 2394 H 237.187 -5.04921 1.15217 0
M  V30 2395 H 233.864 -3.99749 -1.20446 0
M  V30 2396 H 235.254 -6.40007 2.0455 0
M  V30 2397 N 237.974 -0.419461 -1.51915 0
M  V30 2398 C 238.937 0.389116 -2.25873 0
M  V30 2399 C 239.937 0.964924 -1.28631 0
M  V30 2400 O 241.127 0.842179 -1.52489 0
M  V30 2401 C 238.259 1.54874 -3.03689 0
M  V30 2402 H 239.452 -0.258799 -2.98781 0
M  V30 2403 H 237.005 -0.172209 -1.55348 0
M  V30 2404 H 237.74 2.23323 -2.35154 0
M  V30 2405 H 237.525 1.14223 -3.75094 0
M  V30 2406 H 239.015 2.12046 -3.59759 0
M  V30 2407 N 239.452 1.56882 -0.150215 0
M  V30 2408 C 240.7 1.9584 0.499105 0
M  V30 2409 C 241.021 1.03623 1.65188 0
M  V30 2410 O 240.291 0.0984084 1.95653 0
M  V30 2411 H 238.871 0.723119 0.187373 0
M  V30 2412 H 241.533 1.9358 -0.226466 0
M  V30 2413 H 240.629 2.99638 0.873122 0
M  V30 2414 N 240.93 -0.123565 1.57115 0
M  V30 2415 C 241.86 -1.15309 2.03042 0
M  V30 2416 C 242.841 -1.43454 0.914061 0
M  V30 2417 O 244.026 -1.53973 1.18347 0
M  V30 2418 C 241.156 -2.48043 2.43089 0
M  V30 2419 C 240.11 -2.3437 3.58127 0
M  V30 2420 C 239.436 -3.72026 3.84059 0
M  V30 2421 C 240.736 -1.80804 4.90007 0
M  V30 2422 H 242.43 -0.771102 2.893 0
M  V30 2423 H 239.976 -0.369479 1.39179 0
M  V30 2424 H 241.929 -3.20311 2.73823 0
M  V30 2425 H 240.653 -2.88122 1.53796 0
M  V30 2426 H 239.312 -1.64551 3.27595 0
M  V30 2427 H 238.96 -4.09582 2.91979 0
M  V30 2428 H 238.66 -3.63732 4.6149 0
M  V30 2429 H 240.184 -4.45806 4.1724 0
M  V30 2430 H 241.598 -2.42886 5.19307 0
M  V30 2431 H 239.995 -1.83343 5.71407 0
M  V30 2432 H 241.065 -0.76528 4.78823 0
M  V30 2433 N 242.408 -1.52605 -0.393616 0
M  V30 2434 C 243.355 -1.77055 -1.48054 0
M  V30 2435 C 244.325 -0.61358 -1.54352 0
M  V30 2436 O 245.51 -0.852806 -1.70681 0
M  V30 2437 C 242.65 -1.94108 -2.85335 0
M  V30 2438 C 241.763 -3.21792 -2.88226 0
M  V30 2439 C 240.898 -3.29188 -4.16904 0
M  V30 2440 C 239.937 -4.51013 -4.13828 0
M  V30 2441 N 239.074 -4.55716 -5.34105 0
M  V30 2442 H 243.914 -2.69815 -1.26506 0
M  V30 2443 H 241.451 -1.33683 -0.61379 0
M  V30 2444 H 243.409 -2.01979 -3.65049 0
M  V30 2445 H 242.039 -1.04713 -3.05344 0
M  V30 2446 H 241.091 -3.23015 -2.00911 0
M  V30 2447 H 242.403 -4.11557 -2.8182 0
M  V30 2448 H 241.557 -3.36216 -5.05018 0
M  V30 2449 H 240.296 -2.37389 -4.26026 0
M  V30 2450 H 239.301 -4.44115 -3.24102 0
M  V30 2451 H 240.526 -5.44123 -4.06333 0
M  V30 2452 H 238.472 -3.66807 -5.43865 0
M  V30 2453 H 238.389 -5.39346 -5.29756 0
M  V30 2454 H 239.657 -4.66993 -6.2413 0
M  V30 2455 N 243.887 0.651787 -1.4349 0
M  V30 2456 C 245.117 1.43728 -1.48411 0
M  V30 2457 C 245.525 1.8893 -0.10103 0
M  V30 2458 O 244.868 1.60182 0.899307 0
M  V30 2459 C 244.93 2.70411 -2.36893 0
M  V30 2460 C 244.594 2.4714 -3.8441 0
M  V30 2461 C 245.591 2.10271 -4.75481 0
M  V30 2462 C 243.276 2.6142 -4.28912 0
M  V30 2463 C 245.27 1.87982 -6.0905 0
M  V30 2464 C 242.957 2.38746 -5.62533 0
M  V30 2465 C 243.955 2.02083 -6.5242 0
M  V30 2466 O 243.643 1.79647 -7.8357 0
M  V30 2467 H 243.375 0.447962 -0.506267 0
M  V30 2468 H 245.929 0.80624 -1.88915 0
M  V30 2469 H 244.159 3.36079 -1.91278 0
M  V30 2470 H 245.848 3.32364 -2.33 0
M  V30 2471 H 246.614 1.98814 -4.42378 0
M  V30 2472 H 242.493 2.88931 -3.59222 0
M  V30 2473 H 246.037 1.5929 -6.7917 0
M  V30 2474 H 241.934 2.49806 -5.95203 0
M  V30 2475 H 242.702 1.9406 -7.95162 0
M  V30 2476 N 245.365 1.30045 0.890287 0
M  V30 2477 C 246.275 1.17885 2.02831 0
M  V30 2478 C 247.291 0.0999609 1.73713 0
M  V30 2479 O 248.467 0.313867 1.98939 0
M  V30 2480 C 245.532 0.866079 3.35708 0
M  V30 2481 C 244.593 2.02979 3.78283 0
M  V30 2482 C 243.826 1.73184 5.0482 0
M  V30 2483 O 244.049 0.657237 5.66601 0
M  V30 2484 O 242.983 2.58267 5.43674 0
M  V30 2485 H 246.809 2.13474 2.16015 0
M  V30 2486 H 244.394 1.09587 1.01543 0
M  V30 2487 H 246.276 0.706623 4.15433 0
M  V30 2488 H 244.951 -0.0599443 3.23644 0
M  V30 2489 H 243.858 2.24454 2.99285 0
M  V30 2490 H 245.191 2.93734 3.94944 0
M  V30 2491 N 246.843 -1.10192 1.12674 0
M  V30 2492 C 247.791 -2.18694 0.792196 0
M  V30 2493 C 248.785 -1.67938 -0.222058 0
M  V30 2494 O 249.991 -1.79822 -0.0800074 0
M  V30 2495 H 246.366 -0.713223 0.238364 0
M  V30 2496 H 248.337 -2.44149 1.71564 0
M  V30 2497 C 247.086 -3.46682 0.265859 0
M  V30 2498 H 246.409 -3.86101 1.03761 0
M  V30 2499 H 247.849 -4.23942 0.0701128 0
M  V30 2500 C 246.308 -3.21506 -1.00675 0
M  V30 2501 O 246.838 -3.43408 -2.08408 0
M  V30 2502 N 245.044 -2.75158 -0.934692 0
M  V30 2503 H 244.591 -2.57535 -0.0578604 0
M  V30 2504 H 244.549 -2.58691 -1.7868 0
M  V30 2505 N 248.321 -0.919034 -1.28029 0
M  V30 2506 C 249.284 -0.416182 -2.2539 0
M  V30 2507 C 250.284 0.460438 -1.54067 0
M  V30 2508 O 251.474 0.262744 -1.72207 0
M  V30 2509 C 248.606 0.402707 -3.38513 0
M  V30 2510 H 249.799 -1.27629 -2.71387 0
M  V30 2511 H 247.352 -0.698919 -1.39803 0
M  V30 2512 H 248.087 1.282 -2.97885 0
M  V30 2513 H 247.872 -0.225698 -3.9145 0
M  V30 2514 H 249.362 0.745191 -4.10897 0
M  V30 2515 N 249.799 1.42003 -0.683588 0
M  V30 2516 C 251.047 2.01015 -0.209101 0
M  V30 2517 C 251.368 1.54365 1.19149 0
M  V30 2518 O 250.638 0.769083 1.80172 0
M  V30 2519 H 249.218 0.743294 -0.074315 0
M  V30 2520 H 251.88 1.73798 -0.882066 0
M  V30 2521 H 250.976 3.11343 -0.2172 0
M  V30 2522 N 251.277 0.427512 1.51691 0
M  V30 2523 C 252.524 -0.142229 2.02 0
M  V30 2524 C 252.852 -1.43566 1.31221 0
M  V30 2525 O 252.107 -1.91298 0.412744 0
M  V30 2526 C 252.406 -0.418249 3.54944 0
M  V30 2527 C 252.072 0.788187 4.43958 0
M  V30 2528 C 250.734 1.11906 4.68007 0
M  V30 2529 C 253.086 1.59347 4.96244 0
M  V30 2530 C 250.414 2.25608 5.41588 0
M  V30 2531 C 252.766 2.7214 5.71072 0
M  V30 2532 C 251.43 3.05692 5.93387 0
M  V30 2533 H 250.7 -0.0520451 0.73917 0
M  V30 2534 H 253.347 0.572697 1.82736 0
M  V30 2535 H 251.652 -1.21496 3.72486 0
M  V30 2536 H 253.349 -0.872339 3.91397 0
M  V30 2537 H 249.939 0.520344 4.2543 0
M  V30 2538 H 254.123 1.35106 4.77556 0
M  V30 2539 H 249.379 2.51929 5.57083 0
M  V30 2540 H 253.553 3.34914 6.10578 0
M  V30 2541 H 251.18 3.9391 6.50184 0
M  V30 2542 N 252.755 -1.56801 0.158532 0
M  V30 2543 C 254.002 -1.9649 -0.489679 0
M  V30 2544 C 254.33 -1.04394 -1.6411 0
M  V30 2545 O 253.585 -0.0754401 -1.95555 0
M  V30 2546 C 253.884 -3.4235 -1.02623 0
M  V30 2547 C 253.55 -4.50899 0.00794526 0
M  V30 2548 C 252.212 -4.80312 0.292207 0
M  V30 2549 C 254.564 -5.16333 0.710584 0
M  V30 2550 C 251.892 -5.72461 1.28472 0
M  V30 2551 C 254.244 -6.09553 1.69199 0
M  V30 2552 C 252.908 -6.37339 1.98383 0
M  V30 2553 H 252.178 -0.719009 -0.179186 0
M  V30 2554 H 254.825 -1.8989 0.247798 0
M  V30 2555 H 253.13 -3.45838 -1.84128 0
M  V30 2556 H 254.827 -3.70393 -1.53656 0
M  V30 2557 H 251.417 -4.28015 -0.22379 0
M  V30 2558 H 255.601 -4.93732 0.504174 0
M  V30 2559 H 250.857 -5.92278 1.51714 0
M  V30 2560 H 255.031 -6.59327 2.24189 0
M  V30 2561 H 252.658 -7.08546 2.7544 0
M  V30 2562 N 254.233 0.115231 -1.57178 0
M  V30 2563 C 255.481 0.820727 -1.84685 0
M  V30 2564 C 255.802 1.80237 -0.744279 0
M  V30 2565 O 255.072 1.94529 0.231375 0
M  V30 2566 H 253.652 0.306084 -0.681411 0
M  V30 2567 H 256.314 0.101656 -1.94635 0
M  V30 2568 H 255.41 1.36366 -2.80733 0
M  V30 2569 N 255.711 1.52812 0.385517 0
M  V30 2570 C 256.643 1.74096 1.49074 0
M  V30 2571 C 257.656 0.621462 1.50472 0
M  V30 2572 O 258.845 0.897245 1.54311 0
M  V30 2573 C 255.945 1.78774 2.87911 0
M  V30 2574 C 255.118 3.08134 3.10439 0
M  V30 2575 C 254.177 3.04313 4.29278 0
M  V30 2576 O 253.203 3.78168 4.25415 0
M  V30 2577 N 254.405 2.23741 5.35649 0
M  V30 2578 H 257.17 2.69455 1.31202 0
M  V30 2579 H 254.731 1.51343 0.575065 0
M  V30 2580 H 256.723 1.73721 3.65518 0
M  V30 2581 H 255.293 0.907869 2.99126 0
M  V30 2582 H 254.513 3.26649 2.20667 0
M  V30 2583 H 255.801 3.93662 3.22347 0
M  V30 2584 H 255.199 1.63211 5.41645 0
M  V30 2585 H 253.756 2.24524 6.11909 0
M  V30 2586 N 257.189 -0.644168 1.43834 0
M  V30 2587 C 258.419 -1.42939 1.49171 0
M  V30 2588 C 258.827 -1.88874 0.111048 0
M  V30 2589 O 258.17 -1.60656 -0.8908 0
M  V30 2590 C 258.232 -2.69151 2.38324 0
M  V30 2591 C 257.896 -2.45097 3.85715 0
M  V30 2592 C 258.893 -2.07747 4.76589 0
M  V30 2593 C 256.578 -2.59141 4.30292 0
M  V30 2594 C 258.572 -1.8475 6.10038 0
M  V30 2595 C 256.259 -2.35759 5.63792 0
M  V30 2596 C 257.257 -1.9862 6.53482 0
M  V30 2597 O 256.945 -1.75489 7.84512 0
M  V30 2598 H 256.677 -0.445271 0.508635 0
M  V30 2599 H 259.231 -0.79621 1.8934 0
M  V30 2600 H 257.461 -3.3506 1.93058 0
M  V30 2601 H 259.15 -3.31123 2.3476 0
M  V30 2602 H 259.916 -1.96465 4.43426 0
M  V30 2603 H 255.795 -2.87022 3.60749 0
M  V30 2604 H 259.339 -1.55686 6.80006 0
M  V30 2605 H 255.236 -2.46646 5.9652 0
M  V30 2606 H 256.004 -1.89841 7.9618 0
M  V30 2607 N 258.668 -1.30515 -0.883378 0
M  V30 2608 C 259.631 -1.1701 -1.97082 0
M  V30 2609 C 260.631 -0.10089 -1.60483 0
M  V30 2610 O 261.821 -0.349127 -1.70666 0
M  V30 2611 C 258.953 -0.793045 -3.31547 0
M  V30 2612 H 260.146 -2.13622 -2.10489 0
M  V30 2613 H 257.699 -1.13935 -1.06998 0
M  V30 2614 H 258.434 0.172499 -3.23841 0
M  V30 2615 H 258.219 -1.56576 -3.5948 0
M  V30 2616 H 259.709 -0.722073 -4.1131 0
M  V30 2617 N 260.146 1.09593 -1.13257 0
M  V30 2618 C 261.394 1.81375 -0.891492 0
M  V30 2619 C 261.715 1.86049 0.584009 0
M  V30 2620 O 260.985 1.34481 1.42449 0
M  V30 2621 H 259.565 0.671708 -0.326828 0
M  V30 2622 H 262.227 1.3256 -1.42877 0
M  V30 2623 H 261.323 2.84612 -1.28071 0
M  V30 2624 N 261.624 0.925811 1.2754 0
M  V30 2625 C 262.849 0.580924 1.99098 0
M  V30 2626 C 263.274 -0.833555 1.68622 0
M  V30 2627 O 262.632 -1.55903 0.925422 0
M  V30 2628 C 262.68 0.811186 3.51358 0
M  V30 2629 O 261.784 -0.124129 4.12213 0
M  V30 2630 H 261.125 0.223873 0.625122 0
M  V30 2631 H 263.655 1.24455 1.62395 0
M  V30 2632 H 263.665 0.72601 4.01489 0
M  V30 2633 H 262.34 1.84227 3.72872 0
M  V30 2634 H 260.917 0.0108006 3.72898 0
M  V30 2635 N 263.102 -1.41638 0.69111 0
M  V30 2636 C 264.349 -2.01299 0.220193 0
M  V30 2637 C 264.677 -1.54715 -1.17871 0
M  V30 2638 O 263.932 -0.747193 -1.80874 0
M  V30 2639 C 264.231 -3.56714 0.221277 0
M  V30 2640 C 263.897 -4.22792 1.56709 0
M  V30 2641 C 262.559 -4.40557 1.93554 0
M  V30 2642 C 264.911 -4.59883 2.45268 0
M  V30 2643 C 262.239 -4.92688 3.18552 0
M  V30 2644 C 264.591 -5.13403 3.69595 0
M  V30 2645 C 263.255 -5.29379 4.06589 0
M  V30 2646 H 262.525 -0.736606 0.0805743 0
M  V30 2647 H 265.172 -1.69598 0.889319 0
M  V30 2648 H 263.477 -3.8818 -0.531391 0
M  V30 2649 H 265.174 -4.00678 -0.160547 0
M  V30 2650 H 261.764 -4.09336 1.2705 0
M  V30 2651 H 265.948 -4.45817 2.18084 0
M  V30 2652 H 261.204 -5.03242 3.47214 0
M  V30 2653 H 265.378 -5.41084 4.38407 0
M  V30 2654 H 263.005 -5.69537 5.03519 0
M  V30 2655 N 264.58 -0.43555 -1.51462 0
M  V30 2656 C 265.543 0.365137 -2.26273 0
M  V30 2657 C 266.543 0.951227 -1.29647 0
M  V30 2658 O 267.733 0.825958 -1.53374 0
M  V30 2659 C 264.865 1.51645 -3.05314 0
M  V30 2660 H 266.058 -0.290474 -2.9849 0
M  V30 2661 H 263.611 -0.188676 -1.55157 0
M  V30 2662 H 264.346 2.20816 -2.3751 0
M  V30 2663 H 264.131 1.10238 -3.76284 0
M  V30 2664 H 265.621 2.08218 -3.61987 0
M  V30 2665 N 266.058 1.56714 -0.166846 0
M  V30 2666 C 267.005 2.17746 0.765193 0
M  V30 2667 C 267.975 1.11614 1.23011 0
M  V30 2668 O 269.16 1.39745 1.29908 0
M  V30 2669 C 266.3 2.81882 1.9909 0
M  V30 2670 C 265.413 4.02462 1.56997 0
M  V30 2671 C 264.548 4.54537 2.749 0
M  V30 2672 C 263.587 5.67538 2.29275 0
M  V30 2673 N 262.724 6.14142 3.40255 0
M  V30 2674 H 267.564 2.97048 0.237952 0
M  V30 2675 H 265.101 1.4672 0.105725 0
M  V30 2676 H 267.059 3.17221 2.70974 0
M  V30 2677 H 265.689 2.05191 2.49192 0
M  V30 2678 H 264.741 3.72973 0.748037 0
M  V30 2679 H 266.053 4.84273 1.19503 0
M  V30 2680 H 265.207 4.92035 3.54946 0
M  V30 2681 H 263.946 3.71774 3.1565 0
M  V30 2682 H 262.951 5.29597 1.47674 0
M  V30 2683 H 264.176 6.52099 1.89588 0
M  V30 2684 H 262.122 5.3431 3.8059 0
M  V30 2685 H 262.039 6.9093 3.06841 0
M  V30 2686 H 263.307 6.56289 4.206 0
M  V30 2687 N 267.536 -0.106894 1.57237 0
M  V30 2688 C 268.766 -0.825191 1.89405 0
M  V30 2689 C 269.174 -1.73374 0.757496 0
M  V30 2690 O 268.517 -1.81552 -0.280115 0
M  V30 2691 C 268.579 -1.70102 3.1671 0
M  V30 2692 C 268.243 -0.965523 4.46684 0
M  V30 2693 C 269.24 -0.300741 5.19029 0
M  V30 2694 C 266.925 -0.943105 4.93367 0
M  V30 2695 C 268.919 0.376622 6.36286 0
M  V30 2696 C 266.606 -0.261949 6.10538 0
M  V30 2697 C 267.604 0.396748 6.81847 0
M  V30 2698 O 267.292 1.06701 7.96787 0
M  V30 2699 H 267.024 -0.241852 0.631255 0
M  V30 2700 H 269.578 -0.0921491 2.05193 0
M  V30 2701 H 267.808 -2.47601 2.97036 0
M  V30 2702 H 269.497 -2.29483 3.34802 0
M  V30 2703 H 270.263 -0.309599 4.84011 0
M  V30 2704 H 266.142 -1.44524 4.3776 0
M  V30 2705 H 269.686 0.891334 6.91882 0
M  V30 2706 H 265.583 -0.250896 6.45012 0
M  V30 2707 H 266.351 0.972707 8.127 0
M  V30 2708 N 269.014 -1.53014 -0.377408 0
M  V30 2709 C 269.977 -1.77957 -1.44444 0
M  V30 2710 C 270.977 -0.649763 -1.47087 0
M  V30 2711 O 272.167 -0.917897 -1.48055 0
M  V30 2712 C 269.299 -1.89089 -2.83651 0
M  V30 2713 H 270.492 -2.73243 -1.23606 0
M  V30 2714 H 268.045 -1.43912 -0.609844 0
M  V30 2715 H 268.78 -0.958293 -3.09818 0
M  V30 2716 H 268.565 -2.71254 -2.83132 0
M  V30 2717 H 270.055 -2.1002 -3.60945 0
M  V30 2718 N 270.492 0.636531 -1.44174 0
M  V30 2719 C 271.769 1.39463 -1.37148 0
M  V30 2720 C 272.149 2.11082 -0.027507 0
M  V30 2721 O 271.497 2.05954 0.989716 0
M  V30 2722 C 271.707 2.36552 -2.56601 0
M  V30 2723 C 273.055 3.00048 -3.00427 0
M  V30 2724 O 274.079 2.46878 -2.56767 0
M  V30 2725 O 272.938 3.96488 -3.76111 0
M  V30 2726 H 270.032 0.623903 -0.542839 0
M  V30 2727 H 272.578 0.662039 -1.56253 0
M  V30 2728 H 271.35 1.82692 -3.46034 0
M  V30 2729 H 270.973 3.17236 -2.39681 0
M  V30 2730 N 271.97 1.30982 0.876444 0
M  V30 2731 C 272.9 1.20668 1.99903 0
M  V30 2732 C 273.881 0.095354 1.69833 0
M  V30 2733 O 275.066 0.27885 1.92188 0
M  V30 2734 C 272.196 0.90655 3.3526 0
M  V30 2735 C 271.15 1.97675 3.79617 0
M  V30 2736 C 270.476 1.52943 5.1236 0
M  V30 2737 C 271.776 3.389 3.97422 0
M  V30 2738 H 273.47 2.14586 2.0879 0
M  V30 2739 H 271.016 1.03308 1.00317 0
M  V30 2740 H 272.969 0.821025 4.13324 0
M  V30 2741 H 271.693 -0.0682969 3.26529 0
M  V30 2742 H 270.352 2.05205 3.03787 0
M  V30 2743 H 270 0.54262 5.00065 0
M  V30 2744 H 269.7 2.24532 5.43009 0
M  V30 2745 H 271.224 1.45786 5.92941 0
M  V30 2746 H 272.638 3.34081 4.659 0
M  V30 2747 H 271.035 4.0865 4.3946 0
M  V30 2748 H 272.105 3.80163 3.01006 0
M  V30 2749 N 273.449 -1.08991 1.13837 0
M  V30 2750 C 274.397 -2.17841 0.815347 0
M  V30 2751 C 275.391 -1.68164 -0.204233 0
M  V30 2752 O 276.597 -1.79897 -0.0609304 0
M  V30 2753 H 272.972 -0.710654 0.245915 0
M  V30 2754 H 274.943 -2.42315 1.74143 0
M  V30 2755 C 273.692 -3.46381 0.302614 0
M  V30 2756 H 273.015 -3.84979 1.0785 0
M  V30 2757 H 274.455 -4.23844 0.115074 0
M  V30 2758 C 272.914 -3.22556 -0.972591 0
M  V30 2759 O 273.444 -3.45599 -2.04754 0
M  V30 2760 N 271.65 -2.76134 -0.905455 0
M  V30 2761 H 271.197 -2.57582 -0.0305421 0
M  V30 2762 H 271.155 -2.60571 -1.75926 0
M  V30 2763 N 274.927 -0.932562 -1.27047 0
M  V30 2764 C 276.155 -0.592031 -1.98249 0
M  V30 2765 C 276.57 0.831062 -1.69525 0
M  V30 2766 O 275.927 1.55299 -0.958561 0
M  V30 2767 C 275.978 -0.814279 -3.5221 0
M  V30 2768 O 275.699 -2.18139 -3.7993 0
M  V30 2769 C 277.2 -0.483121 -4.4066 0
M  V30 2770 H 274.42 -0.223896 -0.632544 0
M  V30 2771 H 276.964 -1.25091 -1.61779 0
M  V30 2772 H 275.119 -0.20213 -3.86872 0
M  V30 2773 H 275.533 -2.235 -4.74498 0
M  V30 2774 H 277.007 -0.689298 -5.47679 0
M  V30 2775 H 277.484 0.581546 -4.35333 0
M  V30 2776 H 278.09 -1.07362 -4.11526 0
M  V30 2777 N 276.405 1.4127 -0.698611 0
M  V30 2778 C 277.682 1.94955 -0.158762 0
M  V30 2779 C 278.062 1.63781 1.33188 0
M  V30 2780 O 277.41 0.946423 2.07979 0
M  V30 2781 C 277.62 3.46044 -0.453309 0
M  V30 2782 C 278.968 4.22872 -0.382707 0
M  V30 2783 O 279.992 3.54076 -0.388396 0
M  V30 2784 O 278.851 5.45407 -0.345463 0
M  V30 2785 H 275.945 0.82683 -0.0167505 0
M  V30 2786 H 278.491 1.50971 -0.77498 0
M  V30 2787 H 277.263 3.62028 -1.48498 0
M  V30 2788 H 276.886 3.97128 0.19373 0
M  V30 2789 N 277.883 0.443576 1.51229 0
M  V30 2790 C 278.846 -0.353132 2.26463 0
M  V30 2791 C 279.846 -0.944338 1.3015 0
M  V30 2792 O 281.036 -0.817813 1.5381 0
M  V30 2793 C 278.168 -1.50023 3.06114 0
M  V30 2794 H 279.361 0.3063 2.98332 0
M  V30 2795 H 276.914 0.196902 1.55055 0
M  V30 2796 H 277.649 -2.19553 2.38677 0
M  V30 2797 H 277.434 -1.08241 3.76864 0
M  V30 2798 H 278.924 -2.06296 3.63087 0
M  V30 2799 N 279.361 -1.56624 0.175154 0
M  V30 2800 C 280.271 -2.21741 -0.766042 0
M  V30 2801 C 281.287 -1.21023 -1.25018 0
M  V30 2802 O 282.463 -1.53697 -1.3015 0
M  V30 2803 C 279.528 -2.84839 -1.97655 0
M  V30 2804 C 278.589 -4.00769 -1.53892 0
M  V30 2805 C 277.822 -4.60849 -2.69173 0
M  V30 2806 O 278.045 -4.19823 -3.86141 0
M  V30 2807 O 276.979 -5.50655 -2.43028 0
M  V30 2808 H 280.805 -3.02738 -0.241585 0
M  V30 2809 H 278.39 -1.49305 -0.053222 0
M  V30 2810 H 280.272 -3.24834 -2.68442 0
M  V30 2811 H 278.947 -2.06836 -2.48999 0
M  V30 2812 H 277.854 -3.65436 -0.80044 0
M  V30 2813 H 279.187 -4.80376 -1.07236 0
M  V30 2814 N 280.839 0.0985539 -1.57292 0
M  V30 2815 C 282.255 0.45267 -1.53046 0
M  V30 2816 C 282.455 1.80713 -0.891342 0
M  V30 2817 O 281.511 2.4785 -0.482375 0
M  V30 2818 C 282.824 0.418341 -2.97776 0
M  V30 2819 C 284.372 0.500443 -3.08973 0
M  V30 2820 C 284.847 0.496297 -4.55303 0
M  V30 2821 N 286.338 0.557151 -4.59837 0
M  V30 2822 C 287.073 0.575726 -5.70502 0
M  V30 2823 N 286.569 0.550714 -6.90608 0
M  V30 2824 N 288.362 0.620277 -5.58667 0
M  V30 2825 H 280.513 -0.788673 -1.97215 0
M  V30 2826 H 282.776 -0.293188 -0.901524 0
M  V30 2827 H 282.482 -0.509659 -3.47988 0
M  V30 2828 H 282.356 1.2386 -3.56284 0
M  V30 2829 H 284.743 1.41886 -2.58751 0
M  V30 2830 H 284.824 -0.347894 -2.53423 0
M  V30 2831 H 284.468 -0.418162 -5.06176 0
M  V30 2832 H 284.398 1.3618 -5.08687 0
M  V30 2833 H 286.889 0.581816 -3.73394 0
M  V30 2834 H 287.202 0.568075 -7.70709 0
M  V30 2835 H 285.547 0.517816 -6.93068 0
M  V30 2836 H 288.738 0.637322 -4.63741 0
M  V30 2837 H 288.911 0.631283 -6.44918 0
M  V30 2838 N 282.317 1.53212 0.369288 0
M  V30 2839 C 283.563 1.69466 1.11397 0
M  V30 2840 C 283.896 0.443257 1.89074 0
M  V30 2841 O 283.171 -0.559386 1.86282 0
M  V30 2842 C 283.454 2.9422 2.07621 0
M  V30 2843 C 283.307 4.29508 1.33577 0
M  V30 2844 C 284.626 3.14565 3.07794 0
M  V30 2845 H 281.745 0.616667 0.403597 0
M  V30 2846 H 284.387 1.85845 0.395179 0
M  V30 2847 H 282.537 2.80387 2.68916 0
M  V30 2848 H 284.209 4.55147 0.750955 0
M  V30 2849 H 282.452 4.29088 0.637618 0
M  V30 2850 H 283.123 5.12926 2.03989 0
M  V30 2851 H 285.599 3.2756 2.56601 0
M  V30 2852 H 284.475 4.03297 3.72348 0
M  V30 2853 H 284.736 2.29675 3.77759 0
M  V30 2854 N 283.795 -0.628877 1.44509 0
M  V30 2855 C 284.758 -1.72263 1.51188 0
M  V30 2856 C 285.758 -1.55907 0.39367 0
M  V30 2857 O 286.948 -1.61361 0.656377 0
M  V30 2858 C 284.08 -3.11365 1.38798 0
M  V30 2859 H 285.273 -1.67714 2.4862 0
M  V30 2860 H 282.826 -0.842737 1.31634 0
M  V30 2861 H 283.561 -3.21507 0.424693 0
M  V30 2862 H 283.346 -3.24644 2.19884 0
M  V30 2863 H 284.836 -3.91075 1.46458 0
M  V30 2864 N 285.273 -1.31445 -0.869486 0
M  V30 2865 C 286.519 -1.21337 -1.62496 0
M  V30 2866 C 286.852 0.227872 -1.92858 0
M  V30 2867 O 286.127 1.16094 -1.56053 0
M  V30 2868 C 286.41 -2.05814 -2.95487 0
M  V30 2869 C 286.263 -3.5824 -2.72 0
M  V30 2870 C 287.582 -1.9079 -3.96594 0
M  V30 2871 H 284.701 -0.442135 -0.589649 0
M  V30 2872 H 287.343 -1.6124 -1.00507 0
M  V30 2873 H 285.493 -1.71913 -3.48394 0
M  V30 2874 H 287.165 -4.0228 -2.25762 0
M  V30 2875 H 285.408 -3.81647 -2.06224 0
M  V30 2876 H 286.079 -4.12657 -3.66631 0
M  V30 2877 H 288.555 -2.20459 -3.52898 0
M  V30 2878 H 287.431 -2.52199 -4.87531 0
M  V30 2879 H 287.692 -0.871341 -4.33428 0
M  V30 2880 N 286.751 1.08385 -1.14413 0
M  V30 2881 C 287.699 2.17406 -0.826888 0
M  V30 2882 C 288.693 1.6827 0.195312 0
M  V30 2883 O 289.899 1.79927 0.0513892 0
M  V30 2884 H 286.274 0.70934 -0.249681 0
M  V30 2885 H 288.245 2.41388 -1.75426 0
M  V30 2886 C 286.994 3.46215 -0.320979 0
M  V30 2887 H 286.317 3.84401 -1.0989 0
M  V30 2888 H 287.757 4.23777 -0.137549 0
M  V30 2889 C 286.216 3.23067 0.955472 0
M  V30 2890 O 286.746 3.4668 2.02918 0
M  V30 2891 N 284.952 2.7661 0.890798 0
M  V30 2892 H 284.499 2.57594 0.0168815 0
M  V30 2893 H 284.457 2.61501 1.74542 0
M  V30 2894 N 288.23 0.939286 1.26551 0
M  V30 2895 C 289.458 0.602536 1.97932 0
M  V30 2896 C 289.873 -0.82206 1.69964 0
M  V30 2897 O 289.23 -1.54789 0.966784 0
M  V30 2898 C 289.281 0.832946 3.51773 0
M  V30 2899 O 289.002 2.20151 3.78768 0
M  V30 2900 C 290.503 0.506483 4.40397 0
M  V30 2901 H 287.723 0.227248 0.631347 0
M  V30 2902 H 290.267 1.25948 1.61113 0
M  V30 2903 H 288.422 0.222644 3.8676 0
M  V30 2904 H 288.836 2.26013 4.73306 0
M  V30 2905 H 290.31 0.718333 5.47306 0
M  V30 2906 H 290.787 -0.558451 4.35635 0
M  V30 2907 H 291.393 1.09543 4.10951 0
M  V30 2908 N 289.708 -1.40897 0.706093 0
M  V30 2909 C 290.671 -2.29131 0.0562841 0
M  V30 2910 C 291.671 -1.44901 -0.697166 0
M  V30 2911 O 292.861 -1.65926 -0.530484 0
M  V30 2912 C 289.993 -3.27957 -0.93043 0
M  V30 2913 H 291.186 -2.88091 0.833284 0
M  V30 2914 H 288.739 -1.4906 0.470192 0
M  V30 2915 H 289.474 -2.73997 -1.73482 0
M  V30 2916 H 289.259 -3.90124 -0.393166 0
M  V30 2917 H 290.749 -3.94049 -1.38256 0
M  V30 2918 N 291.186 -0.45159 -1.50991 0
M  V30 2919 C 292.134 0.366864 -2.29689 0
M  V30 2920 C 293.128 1.00809 -1.36139 0
M  V30 2921 O 294.334 0.941427 -1.53418 0
M  V30 2922 H 290.709 0.137133 -0.739391 0
M  V30 2923 H 292.68 -0.317538 -2.96706 0
M  V30 2924 C 291.429 1.44751 -3.16137 0
M  V30 2925 H 290.752 0.963473 -3.88017 0
M  V30 2926 H 292.192 1.99315 -3.74232 0
M  V30 2927 C 290.651 2.43869 -2.32442 0
M  V30 2928 O 291.181 3.4872 -1.99392 0
M  V30 2929 N 289.387 2.15105 -1.95392 0
M  V30 2930 H 288.934 1.29866 -2.22469 0
M  V30 2931 H 288.892 2.81661 -1.39693 0
M  V30 2932 N 292.664 1.56529 -0.183458 0
M  V30 2933 C 293.627 2.17324 0.728223 0
M  V30 2934 C 294.627 1.12453 1.14939 0
M  V30 2935 O 295.817 1.37902 1.06437 0
M  V30 2936 C 292.949 2.76591 1.99274 0
M  V30 2937 H 294.142 2.99241 0.198772 0
M  V30 2938 H 291.695 1.5616 0.0661391 0
M  V30 2939 H 292.43 1.98441 2.56499 0
M  V30 2940 H 292.215 3.5335 1.69959 0
M  V30 2941 H 293.705 3.23311 2.6431 0
M  V30 2942 N 294.142 -0.090211 1.57342 0
M  V30 2943 C 295.092 -1.11557 1.98844 0
M  V30 2944 C 296.076 -1.35503 0.867624 0
M  V30 2945 O 297.268 -1.36113 1.13148 0
M  V30 2946 C 294.397 -2.43446 2.42051 0
M  V30 2947 C 293.483 -2.22853 3.60828 0
M  V30 2948 N 293.874 -1.72141 4.75606 0
M  V30 2949 C 292.172 -2.53401 3.67021 0
M  V30 2950 C 292.873 -1.65932 5.57531 0
M  V30 2951 N 291.849 -2.11323 5.00843 0
M  V30 2952 H 295.651 -0.716499 2.85032 0
M  V30 2953 H 293.165 -0.297567 1.59651 0
M  V30 2954 H 295.162 -3.17644 2.70014 0
M  V30 2955 H 293.822 -2.84087 1.57241 0
M  V30 2956 H 294.833 -1.41268 4.98261 0
M  V30 2957 H 291.51 -2.97532 2.92884 0
M  V30 2958 H 292.9 -1.27733 6.59647 0
M  V30 2959 N 295.62 -1.53406 -0.361157 0
M  V30 2960 C 297.031 -1.61442 -0.937728 0
M  V30 2961 C 297.382 -0.48461 -1.90121 0
M  V30 2962 O 296.507 0.388312 -2.12888 0
M  V30 2963 C 297.102 -2.92624 -1.70753 0
M  V30 2964 C 295.661 -3.02981 -2.23337 0
M  V30 2965 C 294.808 -2.5677 -1.04712 0
M  V30 2966 H 297.759 -1.58083 -0.139816 0
M  V30 2967 H 297.78 -2.80675 -2.56908 0
M  V30 2968 H 297.292 -3.74834 -1.00604 0
M  V30 2969 H 295.393 -2.25368 -2.96715 0
M  V30 2970 H 295.506 -4.0814 -2.50916 0
M  V30 2971 H 293.87 -2.11752 -1.41539 0
M  V30 2972 H 294.653 -3.41402 -0.360539 0
M  V30 2973 N 297.098 0.621204 -1.44841 0
M  V30 2974 C 298.344 1.3826 -1.48365 0
M  V30 2975 C 298.677 1.93831 -0.119624 0
M  V30 2976 O 297.952 1.74251 0.864111 0
M  V30 2977 C 298.235 2.54058 -2.55199 0
M  V30 2978 C 298.088 2.03772 -4.00995 0
M  V30 2979 C 299.407 3.56225 -2.58442 0
M  V30 2980 H 296.526 0.501374 -0.540179 0
M  V30 2981 H 299.168 0.7015 -1.76576 0
M  V30 2982 H 297.318 3.12162 -2.31274 0
M  V30 2983 H 298.99 1.50423 -4.36086 0
M  V30 2984 H 297.233 1.34876 -4.12299 0
M  V30 2985 H 297.904 2.87185 -4.71411 0
M  V30 2986 H 300.38 3.07939 -2.79844 0
M  V30 2987 H 299.256 4.34756 -3.3508 0
M  V30 2988 H 299.517 4.10949 -1.63013 0
M  V30 2989 N 298.576 1.31904 0.862503 0
M  V30 2990 C 299.523 1.20182 1.9704 0
M  V30 2991 C 300.493 0.0858247 1.65878 0
M  V30 2992 O 301.678 0.26 1.8902 0
M  V30 2993 C 298.818 0.922797 3.32533 0
M  V30 2994 C 297.931 2.12284 3.76244 0
M  V30 2995 C 297.066 1.77996 5.00491 0
M  V30 2996 C 296.105 2.94366 5.36671 0
M  V30 2997 N 295.242 2.60223 6.52095 0
M  V30 2998 H 300.082 2.14951 2.06398 0
M  V30 2999 H 297.619 1.06917 1.01031 0
M  V30 3000 H 299.577 0.741548 4.10557 0
M  V30 3001 H 298.207 0.0119227 3.22798 0
M  V30 3002 H 297.259 2.41461 2.9394 0
M  V30 3003 H 298.571 2.99357 3.98982 0
M  V30 3004 H 297.725 1.56377 5.862 0
M  V30 3005 H 296.464 0.881252 4.79672 0
M  V30 3006 H 295.469 3.16625 4.49476 0
M  V30 3007 H 296.694 3.84957 5.59451 0
M  V30 3008 H 294.64 1.72884 6.32809 0
M  V30 3009 H 294.557 3.40827 6.74814 0
M  V30 3010 H 295.825 2.42016 7.40978 0
M  V30 3011 N 300.054 -1.07777 1.14986 0
M  V30 3012 C 301.331 -1.7699 0.832695 0
M  V30 3013 C 301.711 -2.001 -0.672561 0
M  V30 3014 O 301.059 -1.61598 -1.6155 0
M  V30 3015 C 301.269 -3.08139 1.63863 0
M  V30 3016 C 302.617 -3.8256 1.84208 0
M  V30 3017 O 303.641 -3.17939 1.60603 0
M  V30 3018 O 302.5 -4.98612 2.23714 0
M  V30 3019 H 299.594 -0.768389 0.305791 0
M  V30 3020 H 302.14 -1.14182 1.25541 0
M  V30 3021 H 300.912 -2.86909 2.6608 0
M  V30 3022 H 300.535 -3.78678 1.21197 0
M  V30 3023 N 301.532 -0.945985 -1.26051 0
M  V30 3024 C 302.762 -0.612136 -1.97323 0
M  V30 3025 C 303.17 0.818171 -1.70595 0
M  V30 3026 O 302.513 1.55777 -0.973613 0
M  V30 3027 C 302.575 -0.780347 -3.50929 0
M  V30 3028 C 302.239 -2.18619 -4.01317 0
M  V30 3029 C 303.236 -3.16209 -4.12683 0
M  V30 3030 C 300.921 -2.50805 -4.35203 0
M  V30 3031 C 302.915 -4.44085 -4.57238 0
M  V30 3032 C 300.602 -3.78912 -4.79446 0
M  V30 3033 C 301.6 -4.75365 -4.90425 0
M  V30 3034 O 301.288 -6.01191 -5.3369 0
M  V30 3035 H 301.02 -0.229134 -0.635982 0
M  V30 3036 H 303.574 -1.27036 -1.61404 0
M  V30 3037 H 301.804 -0.0649864 -3.86645 0
M  V30 3038 H 303.493 -0.448842 -4.03411 0
M  V30 3039 H 304.259 -2.92668 -3.86744 0
M  V30 3040 H 300.138 -1.76463 -4.2589 0
M  V30 3041 H 303.682 -5.19373 -4.65723 0
M  V30 3042 H 299.579 -4.02265 -5.0483 0
M  V30 3043 H 300.347 -6.04442 -5.51899 0
M  V30 3044 N 303.011 1.40521 -0.713556 0
M  V30 3045 C 303.943 2.29191 -0.0203126 0
M  V30 3046 C 304.956 1.45723 0.725864 0
M  V30 3047 O 306.145 1.69033 0.573581 0
M  V30 3048 C 303.245 3.2395 0.995486 0
M  V30 3049 C 302.418 4.36262 0.315256 0
M  V30 3050 C 301.477 5.11474 1.23616 0
M  V30 3051 O 300.503 5.64606 0.721719 0
M  V30 3052 N 301.705 5.20638 2.56743 0
M  V30 3053 H 304.47 2.89327 -0.781652 0
M  V30 3054 H 302.031 1.51869 -0.561022 0
M  V30 3055 H 304.023 3.71137 1.61368 0
M  V30 3056 H 302.593 2.64995 1.6582 0
M  V30 3057 H 301.813 3.91228 -0.483106 0
M  V30 3058 H 303.101 5.08558 -0.157004 0
M  V30 3059 H 302.499 4.7895 3.01037 0
M  V30 3060 H 301.056 5.71339 3.13712 0
M  V30 3061 N 304.489 0.459591 1.5075 0
M  V30 3062 C 305.735 -0.0994966 2.02556 0
M  V30 3063 C 306.068 -1.40399 1.3417 0
M  V30 3064 O 305.343 -1.88892 0.463683 0
M  V30 3065 C 305.626 -0.295242 3.58888 0
M  V30 3066 C 305.479 1.02947 4.37861 0
M  V30 3067 C 306.798 -1.05502 4.27267 0
M  V30 3068 H 303.917 -0.034686 0.736183 0
M  V30 3069 H 306.559 0.602938 1.8018 0
M  V30 3070 H 304.709 -0.893563 3.78084 0
M  V30 3071 H 306.381 1.66348 4.30263 0
M  V30 3072 H 304.624 1.62885 4.02058 0
M  V30 3073 H 305.295 0.846281 5.45474 0
M  V30 3074 H 307.771 -0.547993 4.12476 0
M  V30 3075 H 306.647 -1.16077 5.36486 0
M  V30 3076 H 306.908 -2.08875 3.89645 0
M  V30 3077 N 305.967 -1.56429 0.191757 0
M  V30 3078 C 306.917 -2.15548 -0.743184 0
M  V30 3079 C 307.901 -1.09531 -1.17863 0
M  V30 3080 O 309.093 -1.35602 -1.13759 0
M  V30 3081 C 306.222 -2.81577 -1.96391 0
M  V30 3082 C 305.308 -3.9478 -1.54951 0
M  V30 3083 N 305.699 -4.98677 -0.845876 0
M  V30 3084 C 303.997 -4.06319 -1.83905 0
M  V30 3085 C 304.698 -5.78183 -0.638724 0
M  V30 3086 N 303.674 -5.30495 -1.18643 0
M  V30 3087 H 307.476 -2.9324 -0.196839 0
M  V30 3088 H 304.99 -1.62398 -0.0081603 0
M  V30 3089 H 306.987 -3.22321 -2.64415 0
M  V30 3090 H 305.647 -2.05371 -2.51501 0
M  V30 3091 H 306.658 -5.15464 -0.501704 0
M  V30 3092 H 303.335 -3.41238 -2.40548 0
M  V30 3093 H 304.725 -6.71851 -0.0807929 0
M  V30 3094 N 307.445 0.0818655 -1.57387 0
M  V30 3095 C 308.861 0.436412 -1.53517 0
M  V30 3096 C 309.061 1.79758 -0.910459 0
M  V30 3097 O 308.117 2.47324 -0.508636 0
M  V30 3098 C 309.43 0.386734 -2.98203 0
M  V30 3099 C 310.978 0.467644 -3.09487 0
M  V30 3100 C 311.453 0.447978 -4.55804 0
M  V30 3101 N 312.944 0.508348 -4.60402 0
M  V30 3102 C 313.679 0.515184 -5.71081 0
M  V30 3103 N 313.175 0.477435 -6.91153 0
M  V30 3104 N 314.968 0.560988 -5.59294 0
M  V30 3105 H 307.119 -0.809546 -1.96367 0
M  V30 3106 H 309.382 -0.302733 -0.898363 0
M  V30 3107 H 309.088 -0.546539 -3.47427 0
M  V30 3108 H 308.962 1.20075 -3.57578 0
M  V30 3109 H 311.349 1.39134 -2.60242 0
M  V30 3110 H 311.43 -0.374753 -2.5304 0
M  V30 3111 H 311.074 -0.471826 -5.05704 0
M  V30 3112 H 311.004 1.30777 -5.10103 0
M  V30 3113 H 313.495 0.54218 -3.7399 0
M  V30 3114 H 313.808 0.486299 -7.71268 0
M  V30 3115 H 312.153 0.444278 -6.93579 0
M  V30 3116 H 315.344 0.5881 -4.64391 0
M  V30 3117 H 315.517 0.562846 -6.45551 0
M  V30 3118 N 308.923 1.53595 0.353017 0
M  V30 3119 C 310.169 1.70638 1.09593 0
M  V30 3120 C 310.502 0.463286 1.88593 0
M  V30 3121 O 309.777 -0.539597 1.86865 0
M  V30 3122 C 310.06 2.96406 2.04489 0
M  V30 3123 C 309.913 4.30901 1.29014 0
M  V30 3124 C 311.232 3.17812 3.0444 0
M  V30 3125 H 308.351 0.620913 0.397034 0
M  V30 3126 H 310.993 1.86254 0.375446 0
M  V30 3127 H 309.143 2.83223 2.65927 0
M  V30 3128 H 310.815 4.55917 0.702638 0
M  V30 3129 H 309.058 4.29741 0.592071 0
M  V30 3130 H 309.729 5.1506 1.98537 0
M  V30 3131 H 312.205 3.30263 2.53112 0
M  V30 3132 H 311.081 4.07223 3.6805 0
M  V30 3133 H 311.342 2.33669 3.75301 0
M  V30 3134 N 310.401 -0.613514 1.45168 0
M  V30 3135 C 311.647 -1.37471 1.49096 0
M  V30 3136 C 311.98 -1.93765 0.129901 0
M  V30 3137 O 311.255 -1.74707 -0.854858 0
M  V30 3138 C 311.538 -2.52701 2.56542 0
M  V30 3139 C 311.391 -2.01643 4.0207 0
M  V30 3140 C 312.71 -3.54849 2.60327 0
M  V30 3141 H 309.829 -0.498502 0.54283 0
M  V30 3142 H 312.471 -0.692125 1.76945 0
M  V30 3143 H 310.621 -3.10931 2.32926 0
M  V30 3144 H 312.293 -1.48108 4.36877 0
M  V30 3145 H 310.536 -1.32688 4.13009 0
M  V30 3146 H 311.207 -2.84681 4.72928 0
M  V30 3147 H 313.683 -3.0645 2.81474 0
M  V30 3148 H 312.559 -4.32973 3.37381 0
M  V30 3149 H 312.82 -4.10079 1.6519 0
M  V30 3150 N 311.879 -1.3236 -0.855495 0
M  V30 3151 C 312.842 -1.21164 -1.94556 0
M  V30 3152 C 313.842 -0.134908 -1.60233 0
M  V30 3153 O 315.032 -0.385249 -1.69887 0
M  V30 3154 C 312.164 -0.863192 -3.29791 0
M  V30 3155 H 313.357 -2.18038 -2.05911 0
M  V30 3156 H 310.91 -1.16179 -1.04557 0
M  V30 3157 H 311.645 0.103769 -3.24134 0
M  V30 3158 H 311.43 -1.64166 -3.56078 0
M  V30 3159 H 312.92 -0.809156 -4.09686 0
M  V30 3160 N 313.357 1.07166 -1.15556 0
M  V30 3161 C 314.605 1.79443 -0.929764 0
M  V30 3162 C 314.926 1.87246 0.544414 0
M  V30 3163 O 314.196 1.37473 1.39564 0
M  V30 3164 H 312.776 0.664625 -0.341003 0
M  V30 3165 H 315.438 1.29499 -1.45657 0
M  V30 3166 H 314.534 2.81832 -1.34079 0
M  V30 3167 N 314.835 0.952656 1.25548 0
M  V30 3168 C 316.065 0.622592 1.96996 0
M  V30 3169 C 316.473 -0.809112 1.71026 0
M  V30 3170 O 315.816 -1.55258 0.981861 0
M  V30 3171 C 315.878 0.798946 3.5051 0
M  V30 3172 C 315.542 2.20744 4.00151 0
M  V30 3173 C 316.539 3.18394 4.11001 0
M  V30 3174 C 314.224 2.5311 4.33867 0
M  V30 3175 C 316.218 4.46504 4.54877 0
M  V30 3176 C 313.905 3.8145 4.7743 0
M  V30 3177 C 314.903 4.77959 4.87897 0
M  V30 3178 O 314.591 6.04012 5.30494 0
M  V30 3179 H 314.323 0.232503 0.634758 0
M  V30 3180 H 316.877 1.2789 1.60728 0
M  V30 3181 H 315.107 0.0854903 3.86605 0
M  V30 3182 H 316.796 0.47023 4.03167 0
M  V30 3183 H 317.562 2.94715 3.85186 0
M  V30 3184 H 313.441 1.78719 4.24948 0
M  V30 3185 H 316.985 5.21835 4.62962 0
M  V30 3186 H 312.882 4.04936 5.0269 0
M  V30 3187 H 313.65 6.0736 5.48685 0
M  V30 3188 N 316.313 -1.40141 0.720998 0
M  V30 3189 C 317.59 -1.94677 0.189757 0
M  V30 3190 C 317.97 -1.65879 -1.30566 0
M  V30 3191 O 317.318 -0.979391 -2.06447 0
M  V30 3192 C 317.528 -3.45279 0.508304 0
M  V30 3193 C 318.876 -4.22209 0.449934 0
M  V30 3194 O 319.9 -3.53413 0.444677 0
M  V30 3195 O 318.759 -5.44788 0.432189 0
M  V30 3196 H 315.853 -0.826459 0.0299026 0
M  V30 3197 H 318.399 -1.49719 0.7989 0
M  V30 3198 H 317.171 -3.59619 1.54239 0
M  V30 3199 H 316.794 -3.97386 -0.130525 0
M  V30 3200 N 317.792 -0.46758 -1.50504 0
M  V30 3201 C 318.755 0.317059 -2.26996 0
M  V30 3202 C 319.755 0.923513 -1.31635 0
M  V30 3203 O 320.945 0.793239 -1.55091 0
M  V30 3204 C 318.077 1.45134 -3.08462 0
M  V30 3205 H 319.27 -0.353723 -2.97807 0
M  V30 3206 H 316.823 -0.221545 -1.54722 0
M  V30 3207 H 317.558 2.15728 -2.4214 0
M  V30 3208 H 317.343 1.02232 -3.78538 0
M  V30 3209 H 318.833 2.00493 -3.66323 0
M  V30 3210 N 319.27 1.56325 -0.20005 0
M  V30 3211 C 320.218 2.20666 0.735482 0
M  V30 3212 C 321.212 1.17934 1.21605 0
M  V30 3213 O 322.418 1.36068 1.17837 0
M  V30 3214 H 318.793 0.70725 0.255542 0
M  V30 3215 H 320.764 2.9792 0.169166 0
M  V30 3216 C 319.513 2.88391 1.94232 0
M  V30 3217 H 318.836 3.67185 1.58161 0
M  V30 3218 H 320.276 3.3684 2.57517 0
M  V30 3219 C 318.735 1.89692 2.78421 0
M  V30 3220 O 319.265 1.40032 3.76502 0
M  V30 3221 N 317.471 1.57813 2.44015 0
M  V30 3222 H 317.018 1.9839 1.64314 0
M  V30 3223 H 316.976 0.920325 3.00628 0
M  V30 3224 N 320.748 -0.0735177 1.57428 0
M  V30 3225 C 322.025 -0.805903 1.78226 0
M  V30 3226 C 322.405 -1.95874 0.787189 0
M  V30 3227 O 321.753 -2.2779 -0.180029 0
M  V30 3228 C 321.963 -1.28045 3.24662 0
M  V30 3229 C 323.311 -1.71453 3.88444 0
M  V30 3230 O 324.335 -1.37616 3.28543 0
M  V30 3231 O 323.194 -2.34093 4.93825 0
M  V30 3232 H 320.288 -0.386041 0.73137 0
M  V30 3233 H 322.834 -0.0537269 1.69615 0
M  V30 3234 H 321.606 -0.455476 3.8864 0
M  V30 3235 H 321.229 -2.094 3.37991 0
M  V30 3236 N 322.226 -1.5378 -0.344866 0
M  V30 3237 C 323.156 -1.84662 -1.42906 0
M  V30 3238 C 324.137 -0.701648 -1.54955 0
M  V30 3239 O 325.322 -0.953438 -1.69184 0
M  V30 3240 C 322.452 -2.05503 -2.79974 0
M  V30 3241 C 321.406 -3.21318 -2.82734 0
M  V30 3242 C 320.732 -3.2749 -4.22675 0
M  V30 3243 C 322.032 -4.59456 -2.48389 0
M  V30 3244 H 323.726 -2.75461 -1.17311 0
M  V30 3245 H 321.272 -1.32542 -0.562896 0
M  V30 3246 H 323.225 -2.25691 -3.55867 0
M  V30 3247 H 321.949 -1.11434 -3.07002 0
M  V30 3248 H 320.608 -3.00984 -2.09294 0
M  V30 3249 H 320.256 -2.31019 -4.4681 0
M  V30 3250 H 319.956 -4.05316 -4.25433 0
M  V30 3251 H 321.48 -3.49887 -5.00412 0
M  V30 3252 H 322.894 -4.79667 -3.13995 0
M  V30 3253 H 321.291 -5.39675 -2.62432 0
M  V30 3254 H 322.361 -4.63155 -1.4358 0
M  V30 3255 N 323.704 0.605807 -1.45491 0
M  V30 3256 C 324.934 1.38934 -1.52908 0
M  V30 3257 C 325.342 1.88513 -0.161086 0
M  V30 3258 O 324.685 1.62962 0.847891 0
M  V30 3259 C 324.747 2.62737 -2.45376 0
M  V30 3260 C 324.411 2.34785 -3.92078 0
M  V30 3261 C 325.408 1.95038 -4.8193 0
M  V30 3262 C 323.093 2.47642 -4.37011 0
M  V30 3263 C 325.087 1.68511 -6.14722 0
M  V30 3264 C 322.774 2.20728 -5.69844 0
M  V30 3265 C 323.772 1.81225 -6.58519 0
M  V30 3266 O 323.46 1.54627 -7.88889 0
M  V30 3267 H 323.192 0.431629 -0.520262 0
M  V30 3268 H 325.746 0.74573 -1.91384 0
M  V30 3269 H 323.976 3.29824 -2.01874 0
M  V30 3270 H 325.665 3.24783 -2.43456 0
M  V30 3271 H 326.431 1.84639 -4.48479 0
M  V30 3272 H 322.31 2.77356 -3.68232 0
M  V30 3273 H 325.854 1.37602 -6.83894 0
M  V30 3274 H 321.751 2.30744 -6.02849 0
M  V30 3275 H 322.519 1.68665 -8.00933 0
M  V30 3276 N 325.182 1.32811 0.848464 0
M  V30 3277 C 326.428 1.23907 1.60546 0
M  V30 3278 C 326.761 -0.197161 1.93197 0
M  V30 3279 O 326.036 -1.13596 1.5788 0
M  V30 3280 C 326.319 2.10489 2.92175 0
M  V30 3281 C 326.172 3.62522 2.66266 0
M  V30 3282 C 327.491 1.97075 3.93509 0
M  V30 3283 H 324.61 0.451459 0.58254 0
M  V30 3284 H 327.252 1.62818 0.979296 0
M  V30 3285 H 325.402 1.77434 3.45614 0
M  V30 3286 H 327.074 4.05821 2.19334 0
M  V30 3287 H 325.317 3.84879 2.00126 0
M  V30 3288 H 325.988 4.18437 3.6002 0
M  V30 3289 H 328.464 2.26045 3.49346 0
M  V30 3290 H 327.34 2.59923 4.83457 0
M  V30 3291 H 327.601 0.940186 4.31987 0
M  V30 3292 N 326.66 -1.06551 1.16123 0
M  V30 3293 C 327.885 -1.83544 0.965735 0
M  V30 3294 C 328.31 -1.81843 -0.481102 0
M  V30 3295 O 327.668 -1.21732 -1.34354 0
M  V30 3296 C 327.716 -3.28169 1.49457 0
M  V30 3297 O 326.82 -4.0643 0.699157 0
M  V30 3298 H 326.161 -0.568026 0.343864 0
M  V30 3299 H 328.691 -1.34362 1.54299 0
M  V30 3300 H 328.701 -3.78992 1.51092 0
M  V30 3301 H 327.376 -3.28722 2.54784 0
M  V30 3302 H 325.953 -3.65216 0.7531 0
M  V30 3303 N 328.138 -0.959301 -1.25041 0
M  V30 3304 C 329.384 -0.617525 -1.9317 0
M  V30 3305 C 329.717 0.843981 -1.74902 0
M  V30 3306 O 328.992 1.60615 -1.09696 0
M  V30 3307 C 329.275 -0.982736 -3.46431 0
M  V30 3308 C 329.128 -2.50032 -3.73904 0
M  V30 3309 C 330.447 -0.511176 -4.37121 0
M  V30 3310 H 327.566 -0.22582 -0.701552 0
M  V30 3311 H 330.208 -1.19679 -1.4757 0
M  V30 3312 H 328.358 -0.489806 -3.854 0
M  V30 3313 H 330.03 -3.06737 -3.44544 0
M  V30 3314 H 328.273 -2.93598 -3.19348 0
M  V30 3315 H 328.944 -2.70635 -4.81103 0
M  V30 3316 H 331.42 -0.934075 -4.0548 0
M  V30 3317 H 330.296 -0.795361 -5.43107 0
M  V30 3318 H 330.557 0.588834 -4.38161 0
M  V30 3319 N 329.616 1.39756 -0.72842 0
M  V30 3320 C 330.579 2.29012 -0.0927297 0
M  V30 3321 C 331.579 1.45992 0.674025 0
M  V30 3322 O 332.769 1.66749 0.50402 0
M  V30 3323 C 329.901 3.29396 0.878137 0
M  V30 3324 H 331.094 2.86729 -0.879011 0
M  V30 3325 H 328.647 1.48293 -0.493847 0
M  V30 3326 H 329.382 2.76722 1.69101 0
M  V30 3327 H 329.167 3.907 0.331051 0
M  V30 3328 H 330.657 3.96199 1.3197 0
M  V30 3329 N 331.094 0.475555 1.50254 0
M  V30 3330 C 332.342 -0.077738 2.0195 0
M  V30 3331 C 332.663 -1.39813 1.35931 0
M  V30 3332 O 331.933 -1.89249 0.506123 0
M  V30 3333 H 330.513 -0.031719 0.746326 0
M  V30 3334 H 333.175 0.626995 1.84539 0
M  V30 3335 H 332.271 -0.225995 3.11281 0
M  V30 3336 N 332.573 -1.56217 0.208337 0
M  V30 3337 C 333.505 -2.1695 -0.739276 0
M  V30 3338 C 334.518 -1.13492 -1.1672 0
M  V30 3339 O 335.707 -1.40529 -1.10063 0
M  V30 3340 C 332.807 -2.72755 -2.01142 0
M  V30 3341 C 331.98 -4.0125 -1.74118 0
M  V30 3342 C 331.039 -4.41749 -2.85909 0
M  V30 3343 O 330.065 -5.08912 -2.54946 0
M  V30 3344 N 331.267 -4.06342 -4.14568 0
M  V30 3345 H 334.032 -2.98893 -0.219837 0
M  V30 3346 H 331.593 -1.61878 0.0268445 0
M  V30 3347 H 333.585 -2.96826 -2.75094 0
M  V30 3348 H 332.155 -1.95191 -2.4417 0
M  V30 3349 H 331.375 -3.85173 -0.838775 0
M  V30 3350 H 332.663 -4.851 -1.53477 0
M  V30 3351 H 332.061 -3.52345 -4.42571 0
M  V30 3352 H 330.618 -4.35335 -4.85105 0
M  V30 3353 N 334.051 0.0651679 -1.57465 0
M  V30 3354 C 335.281 0.774683 -1.91526 0
M  V30 3355 C 335.689 1.71305 -0.803196 0
M  V30 3356 O 335.032 1.82231 0.231881 0
M  V30 3357 C 335.094 1.61645 -3.21109 0
M  V30 3358 C 334.758 0.846753 -4.49087 0
M  V30 3359 C 335.755 0.163024 -5.19644 0
M  V30 3360 C 333.44 0.811966 -4.95694 0
M  V30 3361 C 335.434 -0.54519 -6.35064 0
M  V30 3362 C 333.121 0.0999836 -6.11018 0
M  V30 3363 C 334.119 -0.577388 -6.80555 0
M  V30 3364 O 333.807 -1.27789 -7.93678 0
M  V30 3365 H 333.539 0.225031 -0.637446 0
M  V30 3366 H 336.093 0.0377134 -2.05365 0
M  V30 3367 H 334.323 2.39638 -3.03497 0
M  V30 3368 H 336.012 2.20525 -3.40769 0
M  V30 3369 H 336.778 0.181163 -4.84662 0
M  V30 3370 H 332.657 1.32867 -4.41438 0
M  V30 3371 H 336.201 -1.07446 -6.89276 0
M  V30 3372 H 332.098 0.0797945 -6.45451 0
M  V30 3373 H 332.866 -1.18784 -8.09835 0
M  V30 3374 N 335.529 1.53961 0.336706 0
M  V30 3375 C 336.439 1.85432 1.43708 0
M  V30 3376 C 337.455 0.745053 1.57242 0
M  V30 3377 O 338.631 1.03804 1.72588 0
M  V30 3378 C 335.696 2.06349 2.78605 0
M  V30 3379 C 334.757 3.30191 2.74358 0
M  V30 3380 C 333.99 3.50101 4.02822 0
M  V30 3381 O 334.213 2.7371 5.00439 0
M  V30 3382 O 333.147 4.43547 4.06878 0
M  V30 3383 H 336.973 2.78975 1.20028 0
M  V30 3384 H 334.558 1.39701 0.52952 0
M  V30 3385 H 336.44 2.21513 3.58483 0
M  V30 3386 H 335.115 1.15995 3.02203 0
M  V30 3387 H 334.022 3.20425 1.93078 0
M  V30 3388 H 335.355 4.2056 2.55715 0
M  V30 3389 N 337.007 -0.598083 1.45811 0
M  V30 3390 C 337.97 -1.69018 1.54808 0
M  V30 3391 C 338.97 -1.55037 0.426652 0
M  V30 3392 O 340.16 -1.59932 0.690456 0
M  V30 3393 C 337.292 -3.0835 1.45371 0
M  V30 3394 H 338.485 -1.62403 2.52121 0
M  V30 3395 H 336.038 -0.814626 1.33392 0
M  V30 3396 H 336.773 -3.20534 0.492793 0
M  V30 3397 H 336.558 -3.19907 2.26721 0
M  V30 3398 H 338.048 -3.8788 1.54721 0
M  V30 3399 N 338.485 -1.33259 -0.841409 0
M  V30 3400 C 339.448 -1.23221 -1.9326 0
M  V30 3401 C 340.448 -0.151895 -1.60081 0
M  V30 3402 O 341.638 -0.403246 -1.69468 0
M  V30 3403 C 338.77 -0.898123 -3.28856 0
M  V30 3404 H 339.963 -2.2021 -2.03587 0
M  V30 3405 H 337.516 -1.17281 -1.03319 0
M  V30 3406 H 338.251 0.0693841 -3.24226 0
M  V30 3407 H 338.036 -1.67934 -3.54317 0
M  V30 3408 H 339.526 -0.852563 -4.08805 0
M  V30 3409 N 339.963 1.05934 -1.16686 0
M  V30 3410 C 340.91 2.13499 -0.876748 0
M  V30 3411 C 341.88 1.65162 0.176299 0
M  V30 3412 O 343.065 1.90757 0.0407143 0
M  V30 3413 C 340.205 3.42912 -0.387967 0
M  V30 3414 C 339.318 4.04964 -1.50426 0
M  V30 3415 C 338.453 5.22266 -0.970125 0
M  V30 3416 C 337.492 5.76309 -2.06238 0
M  V30 3417 N 336.629 6.84922 -1.54356 0
M  V30 3418 H 341.469 2.37654 -1.7979 0
M  V30 3419 H 339.006 1.16598 -0.896843 0
M  V30 3420 H 340.964 4.17111 -0.086186 0
M  V30 3421 H 339.594 3.18963 0.496235 0
M  V30 3422 H 338.646 3.28277 -1.92193 0
M  V30 3423 H 339.958 4.41122 -2.32836 0
M  V30 3424 H 339.112 6.03506 -0.621743 0
M  V30 3425 H 337.851 4.87564 -0.115377 0
M  V30 3426 H 336.856 4.93704 -2.41942 0
M  V30 3427 H 338.081 6.13062 -2.92115 0
M  V30 3428 H 336.027 6.52131 -0.711406 0
M  V30 3429 H 335.944 7.20043 -2.30379 0
M  V30 3430 H 337.212 7.69832 -1.22387 0
M  V30 3431 N 341.441 0.965919 1.2453 0
M  V30 3432 C 342.389 0.486506 2.27455 0
M  V30 3433 C 343.383 -0.449041 1.6334 0
M  V30 3434 O 344.589 -0.324527 1.7705 0
M  V30 3435 H 340.964 0.138857 0.739069 0
M  V30 3436 H 342.935 1.3666 2.65267 0
M  V30 3437 C 341.684 -0.209481 3.47068 0
M  V30 3438 H 341.007 0.50129 3.96645 0
M  V30 3439 H 342.447 -0.508775 4.20936 0
M  V30 3440 C 340.906 -1.43586 3.0477 0
M  V30 3441 O 341.436 -2.53299 3.11773 0
M  V30 3442 N 339.642 -1.30126 2.59838 0
M  V30 3443 H 339.189 -0.408583 2.54339 0
M  V30 3444 H 339.147 -2.12294 2.31902 0
M  V30 3445 N 342.919 -1.39368 0.735821 0
M  V30 3446 C 343.867 -2.32443 0.0855131 0
M  V30 3447 C 344.861 -1.53104 -0.724954 0
M  V30 3448 O 346.067 -1.68762 -0.626047 0
M  V30 3449 H 342.442 -0.751948 0.00885257 0
M  V30 3450 H 344.413 -2.84916 0.886883 0
M  V30 3451 C 343.162 -3.38206 -0.806983 0
M  V30 3452 H 342.485 -3.99335 -0.19274 0
M  V30 3453 H 343.925 -4.05779 -1.2296 0
M  V30 3454 C 342.384 -2.75321 -1.94165 0
M  V30 3455 O 342.914 -2.63231 -3.03435 0
M  V30 3456 N 341.12 -2.33396 -1.73132 0
M  V30 3457 H 340.667 -2.4343 -0.842596 0
M  V30 3458 H 340.625 -1.91661 -2.49225 0
M  V30 3459 N 344.397 -0.483516 -1.5 0
M  V30 3460 C 345.307 0.309172 -2.32554 0
M  V30 3461 C 346.323 0.984159 -1.43493 0
M  V30 3462 O 347.499 0.969399 -1.76535 0
M  V30 3463 C 344.564 1.36979 -3.18493 0
M  V30 3464 C 343.625 0.710095 -4.23387 0
M  V30 3465 C 342.858 1.72018 -5.05218 0
M  V30 3466 O 343.081 2.94813 -4.88305 0
M  V30 3467 O 342.015 1.28515 -5.8802 0
M  V30 3468 H 345.841 -0.366064 -3.01486 0
M  V30 3469 H 343.426 -0.24514 -1.47375 0
M  V30 3470 H 345.308 1.98385 -3.71781 0
M  V30 3471 H 343.983 2.02828 -2.52275 0
M  V30 3472 H 342.89 0.0567539 -3.74057 0
M  V30 3473 H 344.223 0.0943557 -4.9211 0
M  V30 3474 N 345.875 1.56104 -0.216619 0
M  V30 3475 C 347.121 1.98466 0.417033 0
M  V30 3476 C 347.454 1.10403 1.59765 0
M  V30 3477 O 346.729 0.160632 1.93836 0
M  V30 3478 C 347.012 3.49769 0.85637 0
M  V30 3479 C 346.865 4.48606 -0.327546 0
M  V30 3480 C 348.184 4.05339 1.7143 0
M  V30 3481 H 345.303 0.721551 0.150112 0
M  V30 3482 H 347.945 1.87423 -0.311864 0
M  V30 3483 H 346.095 3.5931 1.47745 0
M  V30 3484 H 347.767 4.5108 -0.965618 0
M  V30 3485 H 346.01 4.22682 -0.975805 0
M  V30 3486 H 346.681 5.51995 0.0227149 0
M  V30 3487 H 349.157 3.98712 1.19031 0
M  V30 3488 H 348.033 5.11533 1.99061 0
M  V30 3489 H 348.294 3.51918 2.67593 0
M  V30 3490 N 347.353 -0.0568162 1.57498 0
M  V30 3491 C 348.601 -0.751617 1.87604 0
M  V30 3492 C 348.922 -1.77351 0.81066 0
M  V30 3493 O 348.192 -1.95254 -0.159018 0
M  V30 3494 H 346.772 -0.280583 0.692302 0
M  V30 3495 H 349.434 -0.0293483 1.94878 0
M  V30 3496 H 348.53 -1.25852 2.856 0
M  V30 3497 N 348.832 -1.54138 -0.328536 0
M  V30 3498 C 350.057 -1.76378 -1.09112 0
M  V30 3499 C 350.482 -0.508596 -1.81094 0
M  V30 3500 O 349.84 0.539598 -1.73084 0
M  V30 3501 C 349.888 -2.95358 -2.06872 0
M  V30 3502 O 348.992 -2.66556 -3.14677 0
M  V30 3503 H 348.333 -0.584614 -0.314838 0
M  V30 3504 H 350.863 -2.01146 -0.374348 0
M  V30 3505 H 350.873 -3.22566 -2.4983 0
M  V30 3506 H 349.548 -3.86385 -1.5388 0
M  V30 3507 H 348.125 -2.50282 -2.7643 0
M  V30 3508 N 350.31 0.590341 -1.46126 0
M  V30 3509 C 351.559 1.34499 -1.50309 0
M  V30 3510 C 351.872 1.94977 -0.156021 0
M  V30 3511 O 353.078 2.71395 -0.0756037 0
M  V30 3512 C 351.534 2.43723 -2.64815 0
M  V30 3513 C 351.142 1.89582 -4.0591 0
M  V30 3514 C 352.886 3.20579 -2.78262 0
M  V30 3515 C 350.793 2.9639 -5.11769 0
M  V30 3516 H 349.723 0.505593 -0.559368 0
M  V30 3517 H 352.374 0.630848 -1.72315 0
M  V30 3518 H 350.756 3.17902 -2.36124 0
M  V30 3519 H 351.93 1.21997 -4.44357 0
M  V30 3520 H 350.245 1.25418 -3.97063 0
M  V30 3521 H 352.842 4.00276 -3.54519 0
M  V30 3522 H 353.185 3.72684 -1.85505 0
M  V30 3523 H 353.718 2.53505 -3.06562 0
M  V30 3524 H 350.457 2.49181 -6.06291 0
M  V30 3525 H 349.977 3.62487 -4.77873 0
M  V30 3526 H 351.656 3.60474 -5.37278 0
M  V30 3527 N 351.788 1.33704 0.83433 0
M  V30 3528 C 352.735 1.24335 1.94447 0
M  V30 3529 C 353.705 0.120991 1.65659 0
M  V30 3530 O 354.89 0.300035 1.88426 0
M  V30 3531 C 352.03 0.993124 3.30501 0
M  V30 3532 C 351.143 2.20217 3.71657 0
M  V30 3533 C 350.278 1.88572 4.96602 0
M  V30 3534 C 349.317 3.05683 5.30306 0
M  V30 3535 N 348.454 2.73997 6.46429 0
M  V30 3536 H 353.294 2.1928 2.01792 0
M  V30 3537 H 350.831 1.09035 0.987404 0
M  V30 3538 H 352.789 0.828467 4.08892 0
M  V30 3539 H 351.419 0.0803902 3.227 0
M  V30 3540 H 350.471 2.47642 2.88752 0
M  V30 3541 H 351.783 3.07752 3.92543 0
M  V30 3542 H 350.937 1.68776 5.82752 0
M  V30 3543 H 349.676 0.982799 4.77695 0
M  V30 3544 H 348.681 3.26088 4.42659 0
M  V30 3545 H 349.906 3.96737 5.51159 0
M  V30 3546 H 347.852 1.86268 6.28999 0
M  V30 3547 H 347.769 3.55064 6.67432 0
M  V30 3548 H 349.037 2.57679 7.35678 0
M  V30 3549 N 353.266 -1.05314 1.17247 0
M  V30 3550 C 354.514 -1.77941 0.958194 0
M  V30 3551 C 354.835 -1.88089 -0.514556 0
M  V30 3552 O 354.105 -1.39676 -1.37359 0
M  V30 3553 H 352.685 -0.659116 0.351533 0
M  V30 3554 H 355.347 -1.27166 1.47699 0
M  V30 3555 H 354.443 -2.79663 1.38546 0
M  V30 3556 N 354.744 -0.972509 -1.24016 0
M  V30 3557 C 355.691 -0.505969 -2.25186 0
M  V30 3558 C 356.661 0.451009 -1.5986 0
M  V30 3559 O 357.846 0.360307 -1.87367 0
M  V30 3560 C 354.986 0.193089 -3.44559 0
M  V30 3561 C 354.099 -0.803222 -4.24467 0
M  V30 3562 C 353.234 -0.0797793 -5.3114 0
M  V30 3563 C 352.273 -1.06583 -6.02749 0
M  V30 3564 N 351.41 -0.372074 -7.01113 0
M  V30 3565 H 356.25 -1.37351 -2.64459 0
M  V30 3566 H 353.787 -0.688419 -1.29997 0
M  V30 3567 H 355.745 0.615125 -4.1264 0
M  V30 3568 H 354.375 1.02455 -3.06109 0
M  V30 3569 H 353.427 -1.34368 -3.55878 0
M  V30 3570 H 354.739 -1.55494 -4.73944 0
M  V30 3571 H 353.893 0.400015 -6.0538 0
M  V30 3572 H 352.632 0.704597 -4.82583 0
M  V30 3573 H 351.637 -1.55645 -5.27309 0
M  V30 3574 H 352.862 -1.85074 -6.53395 0
M  V30 3575 H 350.808 0.393238 -6.5482 0
M  V30 3576 H 350.725 -1.06258 -7.48495 0
M  V30 3577 H 351.993 0.0855932 -7.79453 0
M  V30 3578 N 356.222 1.38976 -0.743202 0
M  V30 3579 C 357.169 2.30544 -0.10861 0
M  V30 3580 C 358.139 1.49642 0.720869 0
M  V30 3581 O 359.324 1.78304 0.679142 0
M  V30 3582 C 356.464 3.36018 0.786496 0
M  V30 3583 C 355.577 4.31963 -0.0564849 0
M  V30 3584 C 354.712 5.24506 0.840657 0
M  V30 3585 C 353.751 6.121 -0.00658363 0
M  V30 3586 N 352.888 6.96973 0.846943 0
M  V30 3587 H 357.728 2.8424 -0.895088 0
M  V30 3588 H 355.265 1.3995 -0.453048 0
M  V30 3589 H 357.223 3.95768 1.31999 0
M  V30 3590 H 355.853 2.83758 1.53887 0
M  V30 3591 H 354.905 3.73763 -0.707492 0
M  V30 3592 H 356.217 4.93703 -0.711229 0
M  V30 3593 H 355.371 5.89322 1.4417 0
M  V30 3594 H 354.11 4.63107 1.52916 0
M  V30 3595 H 353.115 5.46289 -0.620366 0
M  V30 3596 H 354.34 6.75565 -0.691992 0
M  V30 3597 H 352.286 6.38133 1.52059 0
M  V30 3598 H 352.203 7.5559 0.248864 0
M  V30 3599 H 353.471 7.6621 1.43328 0
M  V30 3600 N 357.7 0.491464 1.49741 0
M  V30 3601 C 358.65 -0.311086 2.25868 0
M  V30 3602 C 359.634 -0.943857 1.30308 0
M  V30 3603 O 360.826 -0.853035 1.55088 0
M  V30 3604 C 357.955 -1.38059 3.14316 0
M  V30 3605 C 357.041 -0.754541 4.17334 0
M  V30 3606 N 357.432 0.137216 5.05614 0
M  V30 3607 C 355.73 -1.01621 4.34269 0
M  V30 3608 C 356.431 0.494614 5.79593 0
M  V30 3609 N 355.407 -0.135169 5.43432 0
M  V30 3610 H 359.209 0.37555 2.91491 0
M  V30 3611 H 356.723 0.306917 1.59473 0
M  V30 3612 H 358.72 -1.96891 3.67477 0
M  V30 3613 H 357.38 -2.06901 2.50244 0
M  V30 3614 H 358.391 0.50741 5.15408 0
M  V30 3615 H 355.068 -1.69808 3.81407 0
M  V30 3616 H 356.458 1.2236 6.60665 0
M  V30 3617 N 359.178 -1.55987 0.224894 0
M  V30 3618 C 360.088 -2.24066 -0.69511 0
M  V30 3619 C 361.104 -1.24939 -1.21104 0
M  V30 3620 O 362.28 -1.5776 -1.25195 0
M  V30 3621 C 359.345 -2.90983 -1.88493 0
M  V30 3622 C 358.406 -4.05462 -1.41064 0
M  V30 3623 C 357.639 -4.69179 -2.54375 0
M  V30 3624 O 357.862 -4.31895 -3.72589 0
M  V30 3625 O 356.796 -5.58108 -2.25386 0
M  V30 3626 H 360.622 -3.03353 -0.145149 0
M  V30 3627 H 358.207 -1.49399 -0.00569476 0
M  V30 3628 H 360.089 -3.33209 -2.57972 0
M  V30 3629 H 358.764 -2.14653 -2.42293 0
M  V30 3630 H 357.671 -3.67798 -0.683774 0
M  V30 3631 H 359.004 -4.83545 -0.918985 0
M  V30 3632 N 360.656 0.0484629 -1.57525 0
M  V30 3633 C 361.588 1.08222 -2.02041 0
M  V30 3634 C 362.601 1.33621 -0.930012 0
M  V30 3635 O 363.79 1.3145 -1.20761 0
M  V30 3636 C 360.89 2.42818 -2.36416 0
M  V30 3637 C 360.063 2.37049 -3.67596 0
M  V30 3638 C 359.122 3.53937 -3.89378 0
M  V30 3639 O 358.148 3.34308 -4.60681 0
M  V30 3640 N 359.35 4.75126 -3.3352 0
M  V30 3641 H 362.115 0.702946 -2.9134 0
M  V30 3642 H 359.676 0.236745 -1.6016 0
M  V30 3643 H 361.668 3.197 -2.48141 0
M  V30 3644 H 360.238 2.72661 -1.52888 0
M  V30 3645 H 359.458 1.45395 -3.66407 0
M  V30 3646 H 360.746 2.30318 -4.53686 0
M  V30 3647 H 360.144 4.93976 -2.75688 0
M  V30 3648 H 358.701 5.49439 -3.50656 0
M  V30 3649 N 362.134 1.5431 0.320358 0
M  V30 3650 C 363.362 1.76636 1.07738 0
M  V30 3651 C 363.777 0.51649 1.81598 0
M  V30 3652 O 363.134 -0.512942 1.75143 0
M  V30 3653 C 363.185 2.96158 2.07299 0
M  V30 3654 O 362.906 4.16313 1.36438 0
M  V30 3655 C 364.407 3.3072 2.95193 0
M  V30 3656 H 361.627 0.589597 0.320339 0
M  V30 3657 H 364.171 2.01207 0.36551 0
M  V30 3658 H 362.326 2.73851 2.74016 0
M  V30 3659 H 362.74 4.83565 2.03138 0
M  V30 3660 H 364.214 4.17643 3.60941 0
M  V30 3661 H 364.691 2.48026 3.62463 0
M  V30 3662 H 365.297 3.55117 2.34034 0
M  V30 3663 N 363.613 -0.582584 1.46437 0
M  V30 3664 C 364.545 -1.70618 1.53043 0
M  V30 3665 C 365.558 -1.57322 0.418769 0
M  V30 3666 O 366.747 -1.64744 0.687136 0
M  V30 3667 C 363.847 -3.08869 1.39474 0
M  V30 3668 C 363.02 -3.48166 2.64762 0
M  V30 3669 C 362.079 -4.65478 2.4539 0
M  V30 3670 O 361.105 -4.71333 3.19114 0
M  V30 3671 N 362.307 -5.60365 1.51564 0
M  V30 3672 H 365.072 -1.65405 2.49923 0
M  V30 3673 H 362.633 -0.768567 1.42494 0
M  V30 3674 H 364.625 -3.85143 1.24287 0
M  V30 3675 H 363.195 -3.08449 0.507758 0
M  V30 3676 H 362.415 -2.61598 2.9489 0
M  V30 3677 H 363.703 -3.71188 3.4799 0
M  V30 3678 H 363.101 -5.5837 0.907705 0
M  V30 3679 H 361.658 -6.36068 1.4234 0
M  V30 3680 N 365.091 -1.34144 -0.827227 0
M  V30 3681 C 366.337 -1.26446 -1.58554 0
M  V30 3682 C 366.67 0.1664 -1.93486 0
M  V30 3683 O 365.945 1.1107 -1.59667 0
M  V30 3684 C 366.228 -2.15111 -2.8879 0
M  V30 3685 C 366.081 -3.66712 -2.60465 0
M  V30 3686 C 367.4 -2.03311 -3.90324 0
M  V30 3687 H 364.519 -0.46067 -0.575284 0
M  V30 3688 H 367.161 -1.64356 -0.953269 0
M  V30 3689 H 365.311 -1.8291 -3.42748 0
M  V30 3690 H 366.983 -4.09259 -2.1285 0
M  V30 3691 H 365.226 -3.88014 -1.93978 0
M  V30 3692 H 365.897 -4.24112 -3.53317 0
M  V30 3693 H 368.373 -2.31574 -3.45706 0
M  V30 3694 H 367.249 -2.67582 -4.79261 0
M  V30 3695 H 367.51 -1.00879 -4.30437 0
M  V30 3696 N 366.569 1.04691 -1.17803 0
M  V30 3697 C 367.532 2.10724 -0.901545 0
M  V30 3698 C 368.532 1.6042 0.110437 0
M  V30 3699 O 369.722 1.7377 -0.122303 0
M  V30 3700 C 366.854 3.39084 -0.351409 0
M  V30 3701 H 368.047 2.36686 -1.84174 0
M  V30 3702 H 365.6 1.21015 -0.98919 0
M  V30 3703 H 366.335 3.18782 0.59569 0
M  V30 3704 H 366.12 3.76909 -1.08083 0
M  V30 3705 H 367.61 4.17227 -0.176451 0
M  V30 3706 N 368.047 0.979072 1.23499 0
M  V30 3707 C 369.01 0.523244 2.23147 0
M  V30 3708 C 370.01 -0.386406 1.56088 0
M  V30 3709 O 371.2 -0.180283 1.73265 0
M  V30 3710 C 368.332 -0.240739 3.40049 0
M  V30 3711 H 369.525 1.40432 2.64989 0
M  V30 3712 H 367.078 0.764824 1.36309 0
M  V30 3713 H 367.813 -1.13841 3.03662 0
M  V30 3714 H 367.598 0.412207 3.89927 0
M  V30 3715 H 369.088 -0.548297 4.13985 0
M  V30 3716 N 369.525 -1.3858 0.750561 0
M  V30 3717 C 370.753 -2.04471 0.316098 0
M  V30 3718 C 371.168 -1.56606 -1.05452 0
M  V30 3719 O 370.525 -0.737784 -1.66922 0
M  V30 3720 C 370.576 -3.60025 0.326275 0
M  V30 3721 O 370.297 -4.06133 1.6428 0
M  V30 3722 C 371.798 -4.43131 -0.122429 0
M  V30 3723 H 369.018 -0.65717 0.135528 0
M  V30 3724 H 371.562 -1.77329 1.01857 0
M  V30 3725 H 369.717 -3.86014 -0.327431 0
M  V30 3726 H 370.131 -5.00547 1.56693 0
M  V30 3727 H 371.605 -5.51963 -0.0641473 0
M  V30 3728 H 372.082 -4.23333 -1.16988 0
M  V30 3729 H 372.688 -4.22323 0.50229 0
M  V30 3730 N 371.003 -0.499398 -1.49478 0
M  V30 3731 C 371.966 0.268838 -2.27618 0
M  V30 3732 C 372.966 0.895383 -1.33565 0
M  V30 3733 O 374.156 0.760164 -1.56739 0
M  V30 3734 C 371.288 1.38559 -3.11471 0
M  V30 3735 H 372.481 -0.416812 -2.96989 0
M  V30 3736 H 370.034 -0.254313 -1.54217 0
M  V30 3737 H 370.769 2.10544 -2.46661 0
M  V30 3738 H 370.554 0.941797 -3.80621 0
M  V30 3739 H 372.044 1.92678 -3.70493 0
M  V30 3740 N 372.481 1.55866 -0.233164 0
M  V30 3741 C 373.444 2.1953 0.658715 0
M  V30 3742 C 374.444 1.16053 1.11303 0
M  V30 3743 O 375.634 1.41218 1.01996 0
M  V30 3744 C 372.766 2.82791 1.90373 0
M  V30 3745 H 373.959 2.99721 0.10347 0
M  V30 3746 H 371.512 1.56291 0.0164245 0
M  V30 3747 H 372.247 2.06501 2.50056 0
M  V30 3748 H 372.032 3.58578 1.58632 0
M  V30 3749 H 373.522 3.31556 2.53891 0
M  V30 3750 N 373.959 -0.0401083 1.57549 0
M  V30 3751 C 375.189 -0.744115 1.92734 0
M  V30 3752 C 375.597 -1.70005 0.830348 0
M  V30 3753 O 374.94 -1.82576 -0.20286 0
M  V30 3754 C 375.002 -1.56516 3.2364 0
M  V30 3755 C 374.666 -0.7752 4.50377 0
M  V30 3756 C 375.663 -0.0803326 5.19838 0
M  V30 3757 C 373.348 -0.733002 4.96923 0
M  V30 3758 C 375.342 0.646154 6.34116 0
M  V30 3759 C 373.029 -0.00276321 6.111 0
M  V30 3760 C 374.027 0.685585 6.7955 0
M  V30 3761 O 373.715 1.40399 7.91545 0
M  V30 3762 H 373.447 -0.214861 0.640945 0
M  V30 3763 H 376.001 -0.00503675 2.05399 0
M  V30 3764 H 374.231 -2.3478 3.07271 0
M  V30 3765 H 375.92 -2.15076 3.44234 0
M  V30 3766 H 376.686 -0.104035 4.84888 0
M  V30 3767 H 372.565 -1.25827 4.43496 0
M  V30 3768 H 376.109 1.18398 6.87479 0
M  V30 3769 H 372.006 0.0229012 6.45496 0
M  V30 3770 H 372.774 1.31653 8.07843 0
M  V30 3771 N 375.437 -1.54477 -0.31217 0
M  V30 3772 C 376.853 -1.45442 -0.657185 0
M  V30 3773 C 377.053 -0.63653 -1.91182 0
M  V30 3774 O 376.109 -0.139815 -2.52113 0
M  V30 3775 C 377.422 -2.89287 -0.82058 0
M  V30 3776 C 378.97 -2.9926 -0.917188 0
M  V30 3777 C 379.445 -4.44279 -1.11267 0
M  V30 3778 N 380.936 -4.4794 -1.17914 0
M  V30 3779 C 381.671 -5.57318 -1.34848 0
M  V30 3780 N 381.167 -6.76642 -1.48752 0
M  V30 3781 N 382.96 -5.44986 -1.37647 0
M  V30 3782 H 375.111 -2.06129 0.512313 0
M  V30 3783 H 377.374 -0.933088 0.167485 0
M  V30 3784 H 377.08 -3.51687 0.0302604 0
M  V30 3785 H 376.954 -3.36061 -1.71298 0
M  V30 3786 H 379.341 -2.36981 -1.75852 0
M  V30 3787 H 379.422 -2.558 -0.00101257 0
M  V30 3788 H 379.066 -5.07149 -0.27614 0
M  V30 3789 H 378.996 -4.85359 -2.04289 0
M  V30 3790 H 381.487 -3.61969 -1.08567 0
M  V30 3791 H 381.8 -7.55758 -1.61397 0
M  V30 3792 H 380.145 -6.79529 -1.45828 0
M  V30 3793 H 383.336 -4.50715 -1.26388 0
M  V30 3794 H 383.509 -6.3028 -1.50501 0
M  V30 3795 N 376.915 0.57481 -1.46744 0
M  V30 3796 C 378.162 1.33272 -1.52462 0
M  V30 3797 C 378.49 1.93669 -0.179572 0
M  V30 3798 O 377.745 1.7743 0.825664 0
M  V30 3799 C 378.044 2.476 -2.57738 0
M  V30 3800 C 377.71 2.05146 -4.01529 0
M  V30 3801 C 376.372 1.93284 -4.40676 0
M  V30 3802 C 378.724 1.72506 -4.91824 0
M  V30 3803 C 376.052 1.47049 -5.67973 0
M  V30 3804 C 378.404 1.27748 -6.19567 0
M  V30 3805 C 377.068 1.14468 -6.57612 0
M  V30 3806 H 376.338 0.487678 -0.557899 0
M  V30 3807 H 378.985 0.646456 -1.80259 0
M  V30 3808 H 377.29 3.21708 -2.23632 0
M  V30 3809 H 378.987 3.05807 -2.5939 0
M  V30 3810 H 375.577 2.15316 -3.7059 0
M  V30 3811 H 379.761 1.80552 -4.62293 0
M  V30 3812 H 375.017 1.35417 -5.96215 0
M  V30 3813 H 379.191 1.01547 -6.88957 0
M  V30 3814 H 376.818 0.78419 -7.56145 0
M  V30 3815 N 378.394 1.34581 0.820102 0
M  V30 3816 C 379.642 1.26845 1.57336 0
M  V30 3817 C 379.963 -0.160667 1.94337 0
M  V30 3818 O 379.233 -1.09396 1.6251 0
M  V30 3819 H 377.813 0.466514 0.583415 0
M  V30 3820 H 380.475 1.68526 0.979027 0
M  V30 3821 H 379.571 1.87513 2.4949 0
M  V30 3822 N 379.872 -1.04064 1.18357 0
M  V30 3823 C 380.82 -2.14187 0.907007 0
M  V30 3824 C 381.814 -1.68879 -0.132725 0
M  V30 3825 O 383.02 -1.79993 0.0154248 0
M  V30 3826 H 379.395 -0.699585 0.275835 0
M  V30 3827 H 381.366 -2.34711 1.84264 0
M  V30 3828 C 380.115 -3.44785 0.449254 0
M  V30 3829 H 379.438 -3.80058 1.24081 0
M  V30 3830 H 380.878 -4.22974 0.294737 0
M  V30 3831 C 379.337 -3.26391 -0.834909 0
M  V30 3832 O 379.867 -3.53973 -1.89911 0
M  V30 3833 N 378.073 -2.79726 -0.787523 0
M  V30 3834 H 377.62 -2.5748 0.0787347 0
M  V30 3835 H 377.578 -2.67798 -1.64716 0
M  V30 3836 N 381.35 -0.985608 -1.22978 0
M  V30 3837 C 382.596 -0.65836 -1.91816 0
M  V30 3838 C 382.929 0.806692 -1.76653 0
M  V30 3839 O 382.204 1.58252 -1.13078 0
M  V30 3840 C 382.487 -1.056 -3.44268 0
M  V30 3841 C 382.34 -2.57906 -3.68516 0
M  V30 3842 C 383.659 -0.603781 -4.35939 0
M  V30 3843 H 380.778 -0.24065 -0.696604 0
M  V30 3844 H 383.42 -1.22783 -1.44998 0
M  V30 3845 H 381.57 -0.571445 -3.84274 0
M  V30 3846 H 383.242 -3.13976 -3.3796 0
M  V30 3847 H 381.485 -3.00305 -3.13048 0
M  V30 3848 H 382.156 -2.80779 -4.75255 0
M  V30 3849 H 384.632 -1.01987 -4.03408 0
M  V30 3850 H 383.508 -0.910383 -5.41298 0
M  V30 3851 H 383.769 0.495761 -4.39312 0
M  V30 3852 N 382.828 1.3818 -0.7579 0
M  V30 3853 C 384.056 2.04301 -0.326937 0
M  V30 3854 C 384.471 1.57163 1.0462 0
M  V30 3855 O 383.828 0.746626 1.66529 0
M  V30 3856 C 383.879 3.59846 -0.345363 0
M  V30 3857 O 383.6 4.05256 -1.66432 0
M  V30 3858 C 385.101 4.4319 0.098927 0
M  V30 3859 H 382.321 0.656443 -0.139012 0
M  V30 3860 H 384.865 1.76786 -1.02796 0
M  V30 3861 H 383.02 3.86182 0.306955 0
M  V30 3862 H 383.434 4.99709 -1.59345 0
M  V30 3863 H 384.908 5.51989 0.0348745 0
M  V30 3864 H 385.385 4.23947 1.14741 0
M  V30 3865 H 385.991 4.22051 -0.52468 0
M  V30 3866 N 384.306 0.507319 1.49211 0
M  V30 3867 C 385.717 0.0611118 1.866 0
M  V30 3868 C 386.068 -1.35488 1.41907 0
M  V30 3869 O 385.193 -2.0108 0.799726 0
M  V30 3870 C 385.788 0.104125 3.3864 0
M  V30 3871 C 384.347 -0.28677 3.75306 0
M  V30 3872 C 383.494 0.473893 2.73221 0
M  V30 3873 H 386.445 0.719775 1.41439 0
M  V30 3874 H 386.466 -0.689672 3.74198 0
M  V30 3875 H 385.978 1.13482 3.71138 0
M  V30 3876 H 384.079 -1.32046 3.48417 0
M  V30 3877 H 384.192 0.0370745 4.79086 0
M  V30 3878 H 382.556 -0.0770644 2.54583 0
M  V30 3879 H 383.339 1.50478 3.08563 0
M  V30 3880 N 385.784 -1.5574 0.241426 0
M  V30 3881 C 387.2 -1.59196 -0.113548 0
M  V30 3882 C 387.4 -1.25852 -1.57364 0
M  V30 3883 O 386.456 -1.00322 -2.31715 0
M  V30 3884 C 387.769 -2.99814 0.230695 0
M  V30 3885 C 389.317 -3.12513 0.174547 0
M  V30 3886 C 389.792 -4.55342 0.492744 0
M  V30 3887 N 391.283 -4.61076 0.443043 0
M  V30 3888 C 392.018 -5.6956 0.662484 0
M  V30 3889 N 391.514 -6.86328 0.944761 0
M  V30 3890 N 393.307 -5.58957 0.593564 0
M  V30 3891 H 385.458 -1.75685 1.19368 0
M  V30 3892 H 387.721 -0.81756 0.479896 0
M  V30 3893 H 387.427 -3.28932 1.24485 0
M  V30 3894 H 387.301 -3.74568 -0.444833 0
M  V30 3895 H 389.688 -2.83179 -0.830277 0
M  V30 3896 H 389.769 -2.40045 0.883845 0
M  V30 3897 H 389.413 -4.85396 1.4951 0
M  V30 3898 H 389.343 -5.26062 -0.23797 0
M  V30 3899 H 391.834 -3.77179 0.233374 0
M  V30 3900 H 392.147 -7.64935 1.09977 0
M  V30 3901 H 390.492 -6.88025 0.982175 0
M  V30 3902 H 393.683 -4.66611 0.373123 0
M  V30 3903 H 393.856 -6.43433 0.767981 0
M  V30 3904 N 387.262 0.0317525 -1.57568 0
M  V30 3905 C 388.508 0.724175 -1.8943 0
M  V30 3906 C 388.841 1.75149 -0.838836 0
M  V30 3907 O 388.116 1.93948 0.146422 0
M  V30 3908 C 388.399 1.39615 -3.31933 0
M  V30 3909 C 388.252 0.382537 -4.4817 0
M  V30 3910 C 389.571 2.33084 -3.73309 0
M  V30 3911 H 386.69 0.261797 -0.688935 0
M  V30 3912 H 389.332 -0.013017 -1.89996 0
M  V30 3913 H 387.482 2.02451 -3.31581 0
M  V30 3914 H 389.154 -0.243689 -4.60656 0
M  V30 3915 H 387.397 -0.29844 -4.32772 0
M  V30 3916 H 388.068 0.891145 -5.44759 0
M  V30 3917 H 390.544 1.80295 -3.7501 0
M  V30 3918 H 389.42 2.77084 -4.73831 0
M  V30 3919 H 389.681 3.19643 -3.05419 0
M  V30 3920 N 388.74 1.54641 0.303973 0
M  V30 3921 C 389.965 1.78092 1.06292 0
M  V30 3922 C 390.39 0.537342 1.80262 0
M  V30 3923 O 389.748 -0.511993 1.7392 0
M  V30 3924 C 389.796 2.98612 2.02147 0
M  V30 3925 O 388.9 2.71528 3.10397 0
M  V30 3926 H 388.241 0.589548 0.305497 0
M  V30 3927 H 390.771 2.01716 0.3423 0
M  V30 3928 H 390.781 3.265 2.44667 0
M  V30 3929 H 389.456 3.88785 1.47714 0
M  V30 3930 H 388.033 2.54648 2.72413 0
M  V30 3931 N 390.218 -0.567019 1.47046 0
M  V30 3932 C 391.448 -1.34831 1.56538 0
M  V30 3933 C 391.856 -1.8802 0.21101 0
M  V30 3934 O 391.199 -1.65152 -0.804387 0
M  V30 3935 C 391.261 -2.56139 2.52256 0
M  V30 3936 C 390.925 -2.24307 3.98165 0
M  V30 3937 C 391.922 -1.82192 4.86931 0
M  V30 3938 C 389.607 -2.35968 4.43423 0
M  V30 3939 C 391.601 -1.52153 6.18973 0
M  V30 3940 C 389.288 -2.05542 5.75496 0
M  V30 3941 C 390.286 -1.63701 6.63092 0
M  V30 3942 O 389.974 -1.33657 7.92711 0
M  V30 3943 H 389.706 -0.417683 0.531523 0
M  V30 3944 H 392.26 -0.694726 1.93294 0
M  V30 3945 H 390.49 -3.24356 2.10548 0
M  V30 3946 H 392.179 -3.18214 2.51982 0
M  V30 3947 H 392.945 -1.72684 4.53217 0
M  V30 3948 H 388.824 -2.67495 3.75456 0
M  V30 3949 H 392.368 -1.19421 6.87302 0
M  V30 3950 H 388.265 -2.14679 6.08755 0
M  V30 3951 H 389.033 -1.4737 8.05124 0
M  V30 3952 N 391.696 -1.35014 -0.812953 0
M  V30 3953 C 392.659 -1.27292 -1.90602 0
M  V30 3954 C 393.659 -0.185817 -1.59723 0
M  V30 3955 O 394.849 -0.439102 -1.68575 0
M  V30 3956 C 391.981 -0.967676 -3.26877 0
M  V30 3957 H 393.174 -2.24479 -1.9887 0
M  V30 3958 H 390.727 -1.19446 -1.00808 0
M  V30 3959 H 391.462 0.0005954 -3.243 0
M  V30 3960 H 391.247 -1.75412 -3.50675 0
M  V30 3961 H 392.737 -0.939085 -4.06904 0
M  V30 3962 N 393.175 1.03435 -1.18907 0
M  V30 3963 C 394.125 2.09924 -0.889706 0
M  V30 3964 C 395.109 1.60261 0.143216 0
M  V30 3965 O 396.301 1.76892 -0.0617122 0
M  V30 3966 C 393.43 3.40669 -0.424168 0
M  V30 3967 C 392.516 3.97082 -1.48952 0
M  V30 3968 N 392.907 4.27227 -2.70759 0
M  V30 3969 C 391.205 4.25029 -1.35152 0
M  V30 3970 C 391.906 4.7246 -3.39347 0
M  V30 3971 N 390.882 4.7366 -2.66735 0
M  V30 3972 H 394.684 2.31116 -1.81555 0
M  V30 3973 H 392.198 1.21246 -1.08042 0
M  V30 3974 H 394.195 4.16461 -0.191176 0
M  V30 3975 H 392.855 3.20901 0.495263 0
M  V30 3976 H 393.866 4.16678 -3.0757 0
M  V30 3977 H 390.543 4.14554 -0.495126 0
M  V30 3978 H 391.933 5.04751 -4.43481 0
M  V30 3979 N 394.653 0.992116 1.22453 0
M  V30 3980 C 395.901 0.666215 1.90804 0
M  V30 3981 C 396.222 -0.804152 1.77647 0
M  V30 3982 O 395.492 -1.57629 1.16318 0
M  V30 3983 H 394.072 0.243423 0.706225 0
M  V30 3984 H 396.734 1.25845 1.48825 0
M  V30 3985 H 395.83 0.928069 2.97982 0
M  V30 3986 N 396.131 -1.37776 0.765217 0
M  V30 3987 C 397.378 -1.99849 0.326588 0
M  V30 3988 C 397.706 -1.60746 -1.09504 0
M  V30 3989 O 396.961 -0.84202 -1.76659 0
M  V30 3990 C 397.26 -3.5504 0.410053 0
M  V30 3991 C 396.926 -4.13891 1.78899 0
M  V30 3992 C 395.588 -4.29678 2.16635 0
M  V30 3993 C 397.94 -4.46236 2.69301 0
M  V30 3994 C 395.268 -4.7511 3.44221 0
M  V30 3995 C 397.62 -4.93089 3.9629 0
M  V30 3996 C 396.284 -5.07082 4.34078 0
M  V30 3997 H 395.554 -0.7313 0.119507 0
M  V30 3998 H 398.201 -1.64645 0.977968 0
M  V30 3999 H 396.506 -3.90451 -0.324878 0
M  V30 4000 H 398.203 -4.00966 0.0520699 0
M  V30 4001 H 394.793 -4.02026 1.48569 0
M  V30 4002 H 398.977 -4.3363 2.41409 0
M  V30 4003 H 394.233 -4.84129 3.73402 0
M  V30 4004 H 398.407 -5.17084 4.66472 0
M  V30 4005 H 396.034 -5.42046 5.33001 0
M  V30 4006 N 397.609 -0.515225 -1.4894 0
M  V30 4007 C 398.556 0.255567 -2.29381 0
M  V30 4008 C 399.526 0.947387 -1.36432 0
M  V30 4009 O 400.711 0.951288 -1.65394 0
M  V30 4010 C 397.851 1.30551 -3.19453 0
M  V30 4011 C 396.964 0.624029 -4.27469 0
M  V30 4012 C 396.099 1.65563 -5.0474 0
M  V30 4013 C 395.138 0.956802 -6.04576 0
M  V30 4014 N 394.275 1.93326 -6.74959 0
M  V30 4015 H 399.115 -0.436607 -2.94784 0
M  V30 4016 H 396.652 -0.227154 -1.45336 0
M  V30 4017 H 398.61 1.92639 -3.70062 0
M  V30 4018 H 397.24 1.96626 -2.56004 0
M  V30 4019 H 396.292 -0.110459 -3.8024 0
M  V30 4020 H 397.604 0.0746092 -4.98744 0
M  V30 4021 H 396.758 2.35119 -5.59289 0
M  V30 4022 H 395.497 2.23893 -4.3327 0
M  V30 4023 H 394.502 0.247097 -5.49244 0
M  V30 4024 H 395.727 0.379814 -6.78037 0
M  V30 4025 H 393.673 2.50591 -6.06251 0
M  V30 4026 H 393.59 1.43489 -7.42258 0
M  V30 4027 H 394.858 2.62126 -7.34105 0
M  V30 4028 N 399.087 1.5561 -0.249682 0
M  V30 4029 C 400.05 2.20217 0.635394 0
M  V30 4030 C 401.05 1.17227 1.10066 0
M  V30 4031 O 402.24 1.42292 1.00492 0
M  V30 4032 C 399.372 2.84794 1.87363 0
M  V30 4033 H 400.565 2.99814 0.0716752 0
M  V30 4034 H 398.118 1.563 -0.000153234 0
M  V30 4035 H 398.853 2.09142 2.47851 0
M  V30 4036 H 398.638 3.60241 1.5482 0
M  V30 4037 H 400.128 3.3423 2.5036 0
M  V30 4038 N 400.565 -0.0233959 1.57583 0
M  V30 4039 C 401.512 -1.02224 2.06927 0
M  V30 4040 C 402.482 -1.35575 0.959617 0
M  V30 4041 O 403.667 -1.45815 1.23055 0
M  V30 4042 C 400.807 -2.31636 2.5581 0
M  V30 4043 C 399.92 -2.04394 3.80588 0
M  V30 4044 C 399.055 -3.27717 4.18061 0
M  V30 4045 C 398.094 -2.96056 5.3574 0
M  V30 4046 N 397.231 -4.11847 5.68618 0
M  V30 4047 H 402.071 -0.594504 2.9201 0
M  V30 4048 H 399.608 -0.281921 1.44373 0
M  V30 4049 H 401.566 -3.07258 2.82221 0
M  V30 4050 H 400.196 -2.72122 1.73636 0
M  V30 4051 H 399.248 -1.19244 3.61227 0
M  V30 4052 H 400.56 -1.77042 4.66323 0
M  V30 4053 H 399.714 -4.11702 4.4563 0
M  V30 4054 H 398.453 -3.58188 3.30988 0
M  V30 4055 H 397.458 -2.10474 5.07918 0
M  V30 4056 H 398.683 -2.66857 6.24471 0
M  V30 4057 H 396.629 -4.42258 4.84504 0
M  V30 4058 H 396.546 -3.87938 6.48876 0
M  V30 4059 H 397.814 -4.96689 6.00766 0
M  V30 4060 N 402.043 -1.548 -0.295768 0
M  V30 4061 C 403.289 -1.74588 -1.03184 0
M  V30 4062 C 403.622 -0.532962 -1.86744 0
M  V30 4063 O 402.897 0.469872 -1.88739 0
M  V30 4064 C 403.18 -3.03791 -1.93347 0
M  V30 4065 C 403.033 -4.35392 -1.12933 0
M  V30 4066 C 404.352 -3.28892 -2.92435 0
M  V30 4067 H 401.471 -0.635221 -0.373715 0
M  V30 4068 H 404.113 -1.87519 -0.30606 0
M  V30 4069 H 402.263 -2.92898 -2.55232 0
M  V30 4070 H 403.935 -4.58211 -0.532943 0
M  V30 4071 H 402.178 -4.31642 -0.432168 0
M  V30 4072 H 402.849 -5.22074 -1.79284 0
M  V30 4073 H 405.325 -3.39429 -2.4068 0
M  V30 4074 H 404.201 -4.20603 -3.52682 0
M  V30 4075 H 404.462 -2.47437 -3.6637 0
M  V30 4076 N 403.521 0.559213 -1.47345 0
M  V30 4077 C 404.469 1.68747 -1.60085 0
M  V30 4078 C 405.463 1.628 -0.46825 0
M  V30 4079 O 406.669 1.68009 -0.645977 0
M  V30 4080 H 403.044 0.558329 -0.503759 0
M  V30 4081 H 405.015 1.55138 -2.54902 0
M  V30 4082 C 403.764 3.07103 -1.63042 0
M  V30 4083 H 403.087 3.12361 -2.49541 0
M  V30 4084 H 404.527 3.85743 -1.76006 0
M  V30 4085 C 402.986 3.34935 -0.363357 0
M  V30 4086 O 403.516 3.98102 0.536416 0
M  V30 4087 N 401.722 2.89574 -0.244 0
M  V30 4088 H 401.269 2.38348 -0.977133 0
M  V30 4089 H 401.227 3.08566 0.602836 0
M  V30 4090 N 404.999 1.35443 0.805782 0
M  V30 4091 C 406.247 1.28507 1.55982 0
M  V30 4092 C 406.568 -0.140046 1.94496 0
M  V30 4093 O 405.838 -1.07666 1.63661 0
M  V30 4094 H 404.418 0.472676 0.578434 0
M  V30 4095 H 407.08 1.69555 0.961098 0
M  V30 4096 H 406.176 1.90148 2.47488 0
M  V30 4097 N 406.477 -1.02803 1.19454 0
M  V30 4098 C 407.723 -1.76478 0.999171 0
M  V30 4099 C 408.056 -1.88456 -0.468828 0
M  V30 4100 O 407.331 -1.40198 -1.34814 0
M  V30 4101 C 407.614 -3.19044 1.66981 0
M  V30 4102 C 407.467 -3.14932 3.21151 0
M  V30 4103 C 408.786 -4.17456 1.39349 0
M  V30 4104 H 405.905 -0.640614 0.364393 0
M  V30 4105 H 408.547 -1.20005 1.47305 0
M  V30 4106 H 406.697 -3.67263 1.2669 0
M  V30 4107 H 408.369 -2.74605 3.70661 0
M  V30 4108 H 406.612 -2.52625 3.52652 0
M  V30 4109 H 407.283 -4.1566 3.63223 0
M  V30 4110 H 409.759 -3.77842 1.74283 0
M  V30 4111 H 408.635 -5.154 1.88823 0
M  V30 4112 H 408.896 -4.40949 0.318813 0
M  V30 4113 N 407.956 -0.998596 -1.21925 0
M  V30 4114 C 408.903 -0.553621 -2.24062 0
M  V30 4115 C 409.873 0.416999 -1.6078 0
M  V30 4116 O 411.058 0.320482 -1.88089 0
M  V30 4117 C 408.198 0.119959 -3.44891 0
M  V30 4118 C 407.311 -0.893077 -4.22668 0
M  V30 4119 C 406.446 -0.192424 -5.30851 0
M  V30 4120 C 405.485 -1.19344 -6.00353 0
M  V30 4121 N 404.622 -0.520707 -7.00166 0
M  V30 4122 H 409.462 -1.4293 -2.61486 0
M  V30 4123 H 406.999 -0.715838 -1.28507 0
M  V30 4124 H 408.957 0.527459 -4.13852 0
M  V30 4125 H 407.587 0.959389 -3.08214 0
M  V30 4126 H 406.639 -1.41886 -3.52948 0
M  V30 4127 H 407.951 -1.65512 -4.70539 0
M  V30 4128 H 407.105 0.271515 -6.06092 0
M  V30 4129 H 405.844 0.602075 -4.83969 0
M  V30 4130 H 404.849 -1.66795 -5.23889 0
M  V30 4131 H 406.074 -1.98891 -6.49322 0
M  V30 4132 H 404.02 0.254252 -6.55507 0
M  V30 4133 H 403.937 -1.2211 -7.46073 0
M  V30 4134 H 405.205 -0.0797596 -7.79459 0
M  V30 4135 N 409.434 1.37368 -0.772513 0
M  V30 4136 C 410.711 1.93839 -0.26188 0
M  V30 4137 C 411.091 1.7061 1.24319 0
M  V30 4138 O 410.439 1.05534 2.02669 0
M  V30 4139 C 410.649 3.43154 -0.636102 0
M  V30 4140 C 411.997 4.20249 -0.606324 0
M  V30 4141 O 413.021 3.5152 -0.575538 0
M  V30 4142 O 411.88 5.42809 -0.634086 0
M  V30 4143 H 408.974 0.82478 -0.0605555 0
M  V30 4144 H 411.52 1.4665 -0.853917 0
M  V30 4145 H 410.292 3.53647 -1.6748 0
M  V30 4146 H 409.915 3.97596 -0.0170516 0
M  V30 4147 N 410.912 0.523116 1.48665 0
M  V30 4148 C 411.875 -0.232592 2.28017 0
M  V30 4149 C 412.875 -0.874021 1.34972 0
M  V30 4150 O 414.065 -0.735132 1.57929 0
M  V30 4151 C 411.197 -1.33586 3.13636 0
M  V30 4152 H 412.39 0.464008 2.96289 0
M  V30 4153 H 409.943 0.278816 1.53793 0
M  V30 4154 H 410.678 -2.06593 2.4998 0
M  V30 4155 H 410.463 -0.881125 3.82071 0
M  V30 4156 H 411.953 -1.86759 3.73511 0
M  V30 4157 N 412.39 -1.55475 0.257931 0
M  V30 4158 C 413.338 -2.23244 -0.653076 0
M  V30 4159 C 414.332 -1.22366 -1.17144 0
M  V30 4160 O 415.538 -1.40347 -1.12706 0
M  V30 4161 H 411.913 -0.716247 -0.229117 0
M  V30 4162 H 413.884 -2.98343 -0.0584788 0
M  V30 4163 C 412.633 -2.95401 -1.83395 0
M  V30 4164 H 411.956 -3.72802 -1.44424 0
M  V30 4165 H 413.396 -3.46165 -2.44838 0
M  V30 4166 C 411.855 -1.99895 -2.71189 0
M  V30 4167 O 412.385 -1.53909 -3.71046 0
M  V30 4168 N 410.591 -1.6676 -2.3799 0
M  V30 4169 H 410.138 -2.04352 -1.56837 0
M  V30 4170 H 410.096 -1.03127 -2.97005 0
M  V30 4171 N 413.868 0.0150385 -1.57593 0
M  V30 4172 C 415.098 0.713359 -1.93894 0
M  V30 4173 C 415.506 1.68663 -0.857289 0
M  V30 4174 O 414.849 1.82876 0.173788 0
M  V30 4175 C 414.911 1.51348 -3.26089 0
M  V30 4176 C 414.575 0.703451 -4.51554 0
M  V30 4177 C 415.572 -0.00237924 -5.199 0
M  V30 4178 C 413.257 0.653854 -4.98026 0
M  V30 4179 C 415.251 -0.746955 -6.33008 0
M  V30 4180 C 412.938 -0.0944578 -6.11027 0
M  V30 4181 C 413.936 -0.793609 -6.78374 0
M  V30 4182 O 413.624 -1.52974 -7.89211 0
M  V30 4183 H 413.356 0.204637 -0.644282 0
M  V30 4184 H 415.91 -0.0276411 -2.05381 0
M  V30 4185 H 414.14 2.29862 -3.10967 0
M  V30 4186 H 415.829 2.09572 -3.47612 0
M  V30 4187 H 416.595 0.0268803 -4.84993 0
M  V30 4188 H 412.474 1.18756 -4.45441 0
M  V30 4189 H 416.018 -1.2932 -6.85509 0
M  V30 4190 H 411.915 -0.125591 -6.45378 0
M  V30 4191 H 412.683 -1.44488 -8.05646 0
M  V30 4192 N 415.346 1.54954 0.287554 0
M  V30 4193 C 416.278 1.83224 1.37701 0
M  V30 4194 C 417.291 0.715898 1.46215 0
M  V30 4195 O 418.48 0.993565 1.48292 0
M  V30 4196 C 415.58 1.96723 2.75959 0
M  V30 4197 C 414.753 3.27253 2.90215 0
M  V30 4198 C 413.812 3.30998 4.09056 0
M  V30 4199 O 412.838 4.04457 4.00503 0
M  V30 4200 N 414.04 2.57353 5.20336 0
M  V30 4201 H 416.805 2.77254 1.138 0
M  V30 4202 H 414.366 1.54694 0.477652 0
M  V30 4203 H 416.358 1.96615 3.5373 0
M  V30 4204 H 414.928 1.09626 2.92747 0
M  V30 4205 H 414.148 3.40022 1.99447 0
M  V30 4206 H 415.436 4.13365 2.96659 0
M  V30 4207 H 414.834 1.97327 5.30169 0
M  V30 4208 H 413.391 2.62984 5.96391 0
M  V30 4209 N 416.824 -0.551391 1.4764 0
M  V30 4210 C 418.054 -1.33163 1.57959 0
M  V30 4211 C 418.462 -1.87785 0.23094 0
M  V30 4212 O 417.805 -1.65996 -0.786825 0
M  V30 4213 C 417.867 -2.53449 2.54958 0
M  V30 4214 C 417.531 -2.20071 4.00522 0
M  V30 4215 C 418.528 -1.77017 4.88836 0
M  V30 4216 C 416.213 -2.31252 4.45901 0
M  V30 4217 C 418.207 -1.4558 6.20552 0
M  V30 4218 C 415.894 -1.99427 5.77644 0
M  V30 4219 C 416.892 -1.56659 6.64791 0
M  V30 4220 O 416.58 -1.25242 7.94084 0
M  V30 4221 H 416.312 -0.412022 0.535923 0
M  V30 4222 H 418.866 -0.674186 1.9402 0
M  V30 4223 H 417.096 -3.22104 2.13976 0
M  V30 4224 H 418.785 -3.15523 2.55343 0
M  V30 4225 H 419.551 -1.67867 4.55023 0
M  V30 4226 H 415.43 -2.63498 3.78272 0
M  V30 4227 H 418.974 -1.12125 6.8853 0
M  V30 4228 H 414.871 -2.08211 6.10998 0
M  V30 4229 H 415.639 -1.38822 8.06642 0
M  V30 4230 N 418.302 -1.35869 -0.798587 0
M  V30 4231 C 419.579 -1.20145 -1.54352 0
M  V30 4232 C 419.959 0.216161 -2.0999 0
M  V30 4233 O 419.307 1.22068 -1.93162 0
M  V30 4234 C 419.517 -2.27602 -2.64572 0
M  V30 4235 C 420.865 -2.63811 -3.32699 0
M  V30 4236 O 421.889 -2.26576 -2.74849 0
M  V30 4237 O 420.748 -3.27866 -4.37226 0
M  V30 4238 H 417.842 -0.467248 -0.682355 0
M  V30 4239 H 420.388 -1.47574 -0.837859 0
M  V30 4240 H 419.16 -3.2265 -2.21388 0
M  V30 4241 H 418.783 -2.01488 -3.42766 0
M  V30 4242 N 419.78 1.02168 -1.19998 0
M  V30 4243 C 420.712 2.10705 -0.901994 0
M  V30 4244 C 421.725 1.6244 0.108216 0
M  V30 4245 O 422.914 1.78082 -0.12214 0
M  V30 4246 C 420.014 3.37291 -0.329834 0
M  V30 4247 C 419.187 4.14714 -1.39035 0
M  V30 4248 C 418.246 5.19606 -0.830432 0
M  V30 4249 O 417.272 5.48809 -1.50989 0
M  V30 4250 N 418.474 5.79366 0.362696 0
M  V30 4251 H 421.239 2.36856 -1.83628 0
M  V30 4252 H 418.8 1.18518 -1.10296 0
M  V30 4253 H 420.792 4.04657 0.0587633 0
M  V30 4254 H 419.362 3.0843 0.508891 0
M  V30 4255 H 418.582 3.42392 -1.9535 0
M  V30 4256 H 419.87 4.63226 -2.10474 0
M  V30 4257 H 419.268 5.57968 0.932081 0
M  V30 4258 H 417.825 6.48106 0.69299 0
M  V30 4259 N 421.258 1.00505 1.21394 0
M  V30 4260 C 422.504 0.688793 1.90745 0
M  V30 4261 C 422.837 -0.778486 1.77914 0
M  V30 4262 O 422.112 -1.56433 1.15581 0
M  V30 4263 C 422.395 1.11063 3.42545 0
M  V30 4264 C 422.248 2.63737 3.64367 0
M  V30 4265 C 423.567 0.673059 4.34923 0
M  V30 4266 H 420.686 0.251702 0.692687 0
M  V30 4267 H 423.328 1.25074 1.43026 0
M  V30 4268 H 421.478 0.632508 3.83317 0
M  V30 4269 H 423.15 3.19313 3.32922 0
M  V30 4270 H 421.393 3.05248 3.08231 0
M  V30 4271 H 422.064 2.88305 4.70727 0
M  V30 4272 H 424.54 1.08392 4.01734 0
M  V30 4273 H 423.416 0.996383 5.39781 0
M  V30 4274 H 423.677 -0.425808 4.40045 0
M  V30 4275 N 422.737 -1.36956 0.779787 0
M  V30 4276 C 423.986 -1.98738 0.344405 0
M  V30 4277 C 424.299 -1.62596 -1.08728 0
M  V30 4278 O 425.505 -2.1754 -1.62445 0
M  V30 4279 C 423.961 -3.5544 0.564829 0
M  V30 4280 C 423.569 -4.00514 2.0073 0
M  V30 4281 C 425.313 -4.24059 0.193471 0
M  V30 4282 C 423.22 -5.49957 2.17489 0
M  V30 4283 H 422.15 -0.743561 0.12503 0
M  V30 4284 H 424.801 -1.56381 0.960057 0
M  V30 4285 H 423.183 -3.95817 -0.120397 0
M  V30 4286 H 424.357 -3.71362 2.72814 0
M  V30 4287 H 422.672 -3.44703 2.336 0
M  V30 4288 H 425.269 -5.33874 0.297097 0
M  V30 4289 H 425.612 -4.07378 -0.857263 0
M  V30 4290 H 426.145 -3.89012 0.831556 0
M  V30 4291 H 422.884 -5.71574 3.2091 0
M  V30 4292 H 422.404 -5.80767 1.49899 0
M  V30 4293 H 424.083 -6.16043 1.97738 0
M  V30 4294 N 424.215 -0.530993 -1.48385 0
M  V30 4295 C 425.461 0.00274135 -2.028 0
M  V30 4296 C 425.794 1.33838 -1.40716 0
M  V30 4297 O 425.069 1.86465 -0.553277 0
M  V30 4298 C 425.352 0.123676 -3.59888 0
M  V30 4299 C 425.205 -1.2372 -4.3245 0
M  V30 4300 C 426.524 0.849967 -4.31814 0
M  V30 4301 H 423.643 -0.000477758 -0.737 0
M  V30 4302 H 426.285 -0.688217 -1.77098 0
M  V30 4303 H 424.435 0.712157 -3.81917 0
M  V30 4304 H 426.107 -1.86687 -4.21836 0
M  V30 4305 H 424.35 -1.81882 -3.93829 0
M  V30 4306 H 425.021 -1.10557 -5.40815 0
M  V30 4307 H 427.497 0.350572 -4.14621 0
M  V30 4308 H 426.373 0.903486 -5.41413 0
M  V30 4309 H 426.634 1.90047 -3.99167 0
M  V30 4310 N 425.693 1.55336 -0.266172 0
M  V30 4311 C 426.941 1.99003 0.35246 0
M  V30 4312 C 427.262 1.15591 1.57047 0
M  V30 4313 O 426.532 0.243268 1.94384 0
M  V30 4314 H 425.112 0.735025 0.133217 0
M  V30 4315 H 427.774 1.91367 -0.369434 0
M  V30 4316 H 426.87 3.05289 0.648453 0
M  V30 4317 N 427.171 -0.0066808 1.57599 0
M  V30 4318 C 428.134 -0.985035 2.06953 0
M  V30 4319 C 429.134 -1.27663 0.977687 0
M  V30 4320 O 430.324 -1.22293 1.24057 0
M  V30 4321 C 427.456 -2.3118 2.50536 0
M  V30 4322 H 428.649 -0.558255 2.94658 0
M  V30 4323 H 426.202 -0.254011 1.54222 0
M  V30 4324 H 426.937 -2.78561 1.66054 0
M  V30 4325 H 426.722 -2.11338 3.3027 0
M  V30 4326 H 428.212 -3.01377 2.8907 0
M  V30 4327 N 428.649 -1.55105 -0.279332 0
M  V30 4328 C 429.926 -1.66119 -1.03267 0
M  V30 4329 C 430.306 -0.523525 -2.04505 0
M  V30 4330 O 429.654 0.477194 -2.23462 0
M  V30 4331 C 429.864 -3.05067 -1.69515 0
M  V30 4332 C 431.212 -3.62606 -2.20912 0
M  V30 4333 O 432.236 -3.07659 -1.79512 0
M  V30 4334 O 431.095 -4.58861 -2.96831 0
M  V30 4335 H 428.189 -0.674429 -0.478618 0
M  V30 4336 H 430.735 -1.67446 -0.275694 0
M  V30 4337 H 429.507 -3.79311 -0.9612 0
M  V30 4338 H 429.13 -3.07611 -2.51915 0
M  V30 4339 N 430.127 0.543554 -1.4793 0
M  V30 4340 C 431.357 1.32324 -1.58663 0
M  V30 4341 C 431.765 1.8766 -0.240896 0
M  V30 4342 O 431.108 1.66411 0.778011 0
M  V30 4343 C 431.17 2.52094 -2.56299 0
M  V30 4344 C 430.834 2.17944 -4.01683 0
M  V30 4345 C 431.831 1.74422 -4.89768 0
M  V30 4346 C 429.516 2.28884 -4.47121 0
M  V30 4347 C 431.51 1.42287 -6.21316 0
M  V30 4348 C 429.197 1.96361 -5.78693 0
M  V30 4349 C 430.195 1.53132 -6.65612 0
M  V30 4350 O 429.883 1.21029 -7.94737 0
M  V30 4351 H 429.615 0.409174 -0.538101 0
M  V30 4352 H 432.169 0.663887 -1.94375 0
M  V30 4353 H 430.399 3.20965 -2.15681 0
M  V30 4354 H 432.088 3.14165 -2.57012 0
M  V30 4355 H 432.854 1.65452 -4.55907 0
M  V30 4356 H 428.733 2.61488 -3.79664 0
M  V30 4357 H 432.277 1.08472 -6.89115 0
M  V30 4358 H 428.174 2.04967 -6.12094 0
M  V30 4359 H 428.942 1.34543 -8.07366 0
M  V30 4360 N 431.605 1.3629 0.791371 0
M  V30 4361 C 432.882 1.20962 1.53712 0
M  V30 4362 C 433.262 -0.205021 2.10102 0
M  V30 4363 O 432.61 -1.21042 1.93807 0
M  V30 4364 C 432.82 2.29002 2.63361 0
M  V30 4365 C 434.168 2.65572 3.31295 0
M  V30 4366 O 435.192 2.2803 2.73643 0
M  V30 4367 O 434.051 3.3018 4.35481 0
M  V30 4368 H 431.145 0.47086 0.679867 0
M  V30 4369 H 433.691 1.48016 0.830021 0
M  V30 4370 H 432.463 3.2382 2.19674 0
M  V30 4371 H 432.086 2.03303 3.41692 0
M  V30 4372 N 433.083 -1.0153 1.20538 0
M  V30 4373 C 434.33 -1.75149 1.01633 0
M  V30 4374 C 434.658 -1.89189 -0.451399 0
M  V30 4375 O 433.913 -1.41551 -1.35136 0
M  V30 4376 C 434.212 -3.17213 1.64654 0
M  V30 4377 C 433.878 -3.23146 3.14464 0
M  V30 4378 C 432.54 -3.24472 3.55347 0
M  V30 4379 C 434.892 -3.21207 4.10458 0
M  V30 4380 C 432.22 -3.21532 4.90748 0
M  V30 4381 C 434.572 -3.19808 5.45807 0
M  V30 4382 C 433.236 -3.19439 5.86102 0
M  V30 4383 H 432.506 -0.640914 0.3719 0
M  V30 4384 H 435.153 -1.19071 1.49981 0
M  V30 4385 H 433.458 -3.76457 1.08571 0
M  V30 4386 H 435.155 -3.72871 1.4754 0
M  V30 4387 H 431.745 -3.2285 2.81897 0
M  V30 4388 H 435.929 -3.19351 3.79906 0
M  V30 4389 H 431.185 -3.19578 5.21229 0
M  V30 4390 H 435.359 -3.1726 6.19935 0
M  V30 4391 H 432.986 -3.16915 6.90991 0
M  V30 4392 N 434.561 -1.01147 -1.20859 0
M  V30 4393 C 435.786 -0.716698 -1.94623 0
M  V30 4394 C 436.211 0.715415 -1.73964 0
M  V30 4395 O 435.569 1.49157 -1.03062 0
M  V30 4396 C 435.617 -1.0513 -3.44935 0
M  V30 4397 O 434.721 -0.160131 -4.12089 0
M  V30 4398 H 434.062 -0.266404 -0.608214 0
M  V30 4399 H 436.592 -1.35346 -1.53436 0
M  V30 4400 H 436.602 -1.00086 -3.95533 0
M  V30 4401 H 435.277 -2.09475 -3.59295 0
M  V30 4402 H 433.854 -0.267657 -3.71938 0
M  V30 4403 N 436.039 1.36541 -0.78704 0
M  V30 4404 C 436.986 2.30082 -0.181901 0
M  V30 4405 C 437.956 1.5186 0.672896 0
M  V30 4406 O 439.141 1.80374 0.622072 0
M  V30 4407 C 436.281 3.3835 0.679197 0
M  V30 4408 C 435.394 4.31565 -0.193882 0
M  V30 4409 C 434.529 5.26915 0.673364 0
M  V30 4410 C 433.568 6.11769 -0.201315 0
M  V30 4411 N 432.705 6.99315 0.624777 0
M  V30 4412 H 437.545 2.81248 -0.985064 0
M  V30 4413 H 435.082 1.38437 -0.497342 0
M  V30 4414 H 437.04 3.99767 1.19341 0
M  V30 4415 H 435.67 2.8851 1.44781 0
M  V30 4416 H 434.722 3.71323 -0.826044 0
M  V30 4417 H 436.034 4.91191 -0.867937 0
M  V30 4418 H 435.188 5.9361 1.25348 0
M  V30 4419 H 433.927 4.67737 1.38105 0
M  V30 4420 H 432.932 5.44039 -0.793849 0
M  V30 4421 H 434.157 6.73022 -0.906568 0
M  V30 4422 H 432.103 6.42648 1.3168 0
M  V30 4423 H 432.02 7.56 0.00835237 0
M  V30 4424 H 433.288 7.70382 1.18879 0
M  V30 4425 N 437.518 0.538854 1.48102 0
M  V30 4426 C 438.934 0.19732 1.58376 0
M  V30 4427 C 439.134 -1.29971 1.5398 0
M  V30 4428 O 438.19 -2.07861 1.43352 0
M  V30 4429 C 439.503 0.807716 2.89649 0
M  V30 4430 C 441.051 0.77726 3.03196 0
M  V30 4431 C 441.526 1.36639 4.37143 0
M  V30 4432 N 443.017 1.32875 4.43732 0
M  V30 4433 C 443.752 1.7544 5.45901 0
M  V30 4434 N 443.248 2.25776 6.54979 0
M  V30 4435 N 445.041 1.66623 5.36836 0
M  V30 4436 H 437.192 1.5117 1.49202 0
M  V30 4437 H 439.455 0.629327 0.708979 0
M  V30 4438 H 439.161 1.85909 2.98548 0
M  V30 4439 H 439.035 0.289975 3.76084 0
M  V30 4440 H 441.422 -0.265374 2.93904 0
M  V30 4441 H 441.503 1.33256 2.18349 0
M  V30 4442 H 441.147 2.408 4.47189 0
M  V30 4443 H 441.077 0.786689 5.20691 0
M  V30 4444 H 443.568 0.96037 3.65493 0
M  V30 4445 H 443.881 2.56226 7.29087 0
M  V30 4446 H 442.226 2.29775 6.55918 0
M  V30 4447 H 445.417 1.27089 4.50517 0
M  V30 4448 H 445.59 2.00115 6.16326 0
M  V30 4449 N 438.996 -1.55193 0.274407 0
M  V30 4450 C 440.224 -2.03987 -0.345943 0
M  V30 4451 C 440.639 -1.15279 -1.4952 0
M  V30 4452 O 439.996 -0.172759 -1.8168 0
M  V30 4453 C 440.047 -3.51898 -0.827631 0
M  V30 4454 O 439.768 -4.37231 0.275855 0
M  V30 4455 C 441.269 -4.16577 -1.51587 0
M  V30 4456 H 438.489 -0.666335 -0.0789892 0
M  V30 4457 H 441.033 -2.00423 0.406294 0
M  V30 4458 H 439.188 -3.55909 -1.52996 0
M  V30 4459 H 439.602 -5.24415 -0.0943638 0
M  V30 4460 H 441.076 -5.21678 -1.80433 0
M  V30 4461 H 441.553 -3.64707 -2.44716 0
M  V30 4462 H 442.159 -4.16568 -0.857409 0
M  V30 4463 N 440.474 -0.00167713 -1.576 0
M  V30 4464 C 441.699 0.69739 -1.95323 0
M  V30 4465 C 442.124 1.6642 -0.876706 0
M  V30 4466 O 441.482 1.80548 0.165007 0
M  V30 4467 C 441.53 1.40403 -3.32144 0
M  V30 4468 O 440.634 2.5185 -3.26566 0
M  V30 4469 H 439.975 0.185373 -0.637599 0
M  V30 4470 H 442.505 -0.0553665 -2.04525 0
M  V30 4471 H 442.515 1.76707 -3.67748 0
M  V30 4472 H 441.19 0.695167 -4.10049 0
M  V30 4473 H 439.767 2.17861 -3.0264 0
M  V30 4474 N 441.952 1.55251 0.271103 0
M  V30 4475 C 442.915 1.87484 1.31842 0
M  V30 4476 C 443.915 0.749545 1.42262 0
M  V30 4477 O 445.105 1.01771 1.4138 0
M  V30 4478 C 442.237 2.0818 2.69951 0
M  V30 4479 H 443.43 2.81108 1.0449 0
M  V30 4480 H 440.983 1.47771 0.509258 0
M  V30 4481 H 441.718 1.16944 3.02481 0
M  V30 4482 H 441.503 2.90114 2.63774 0
M  V30 4483 H 442.993 2.34385 3.4562 0
M  V30 4484 N 443.43 -0.535701 1.48216 0
M  V30 4485 C 444.36 -1.65014 1.65204 0
M  V30 4486 C 445.341 -1.62554 0.501011 0
M  V30 4487 O 446.526 -1.7984 0.732886 0
M  V30 4488 C 443.656 -3.03616 1.68626 0
M  V30 4489 C 442.61 -3.20932 2.83172 0
M  V30 4490 C 441.936 -4.60537 2.71679 0
M  V30 4491 C 443.236 -3.04249 4.24535 0
M  V30 4492 H 444.93 -1.51053 2.58502 0
M  V30 4493 H 442.476 -0.725262 1.24402 0
M  V30 4494 H 444.429 -3.81446 1.79099 0
M  V30 4495 H 443.153 -3.18587 0.719026 0
M  V30 4496 H 441.812 -2.45517 2.72244 0
M  V30 4497 H 441.46 -4.72336 1.72937 0
M  V30 4498 H 441.16 -4.73069 3.48538 0
M  V30 4499 H 442.684 -5.40475 2.84112 0
M  V30 4500 H 444.098 -3.71877 4.36326 0
M  V30 4501 H 442.495 -3.28278 5.02348 0
M  V30 4502 H 443.565 -2.00739 4.41397 0
M  V30 4503 N 444.908 -1.36708 -0.784132 0
M  V30 4504 C 446.154 -1.31426 -1.54451 0
M  V30 4505 C 446.487 0.10476 -1.93917 0
M  V30 4506 O 445.762 1.05934 -1.6312 0
M  V30 4507 C 446.045 -2.24189 -2.818 0
M  V30 4508 C 445.898 -3.74813 -2.48667 0
M  V30 4509 C 447.217 -2.15626 -3.83658 0
M  V30 4510 H 444.336 -0.478739 -0.560337 0
M  V30 4511 H 446.978 -1.67305 -0.900498 0
M  V30 4512 H 445.128 -1.93722 -3.36755 0
M  V30 4513 H 446.8 -4.15823 -1.99722 0
M  V30 4514 H 445.043 -3.93989 -1.81535 0
M  V30 4515 H 445.714 -4.35138 -3.39646 0
M  V30 4516 H 448.19 -2.42456 -3.38163 0
M  V30 4517 H 447.066 -2.82694 -4.70506 0
M  V30 4518 H 447.327 -1.14522 -4.27009 0
M  V30 4519 N 446.386 1.0089 -1.21074 0
M  V30 4520 C 447.611 1.78727 -1.05221 0
M  V30 4521 C 448.036 1.83932 0.393795 0
M  V30 4522 O 447.394 1.28004 1.28393 0
M  V30 4523 C 447.442 3.20665 -1.64944 0
M  V30 4524 O 446.546 4.02632 -0.892273 0
M  V30 4525 H 445.887 0.550973 -0.370574 0
M  V30 4526 H 448.417 1.26847 -1.60534 0
M  V30 4527 H 448.427 3.71352 -1.69002 0
M  V30 4528 H 447.102 3.16191 -2.70177 0
M  V30 4529 H 445.679 3.61207 -0.926492 0
M  V30 4530 N 447.864 1.01787 1.20321 0
M  V30 4531 C 448.827 0.593972 2.2137 0
M  V30 4532 C 449.827 -0.336553 1.57239 0
M  V30 4533 O 451.017 -0.125069 1.7375 0
M  V30 4534 C 448.149 -0.132433 3.40643 0
M  V30 4535 H 449.342 1.48791 2.60387 0
M  V30 4536 H 446.895 0.807803 1.33807 0
M  V30 4537 H 447.63 -1.04123 3.0713 0
M  V30 4538 H 447.415 0.53605 3.88418 0
M  V30 4539 H 448.905 -0.416314 4.1552 0
M  V30 4540 N 449.342 -1.36122 0.79427 0
M  V30 4541 C 450.59 -1.98718 0.368177 0
M  V30 4542 C 450.911 -1.63345 -1.06506 0
M  V30 4543 O 450.181 -0.909825 -1.73491 0
M  V30 4544 H 448.761 -0.735038 0.133146 0
M  V30 4545 H 451.423 -1.66239 1.01739 0
M  V30 4546 H 450.519 -3.08633 0.463923 0
M  V30 4547 N 450.82 -0.546701 -1.47814 0
M  V30 4548 C 452.066 -0.0269594 -2.03382 0
M  V30 4549 C 452.421 1.30406 -1.41464 0
M  V30 4550 O 451.714 1.8332 -0.557151 0
M  V30 4551 C 451.908 0.134869 -3.57145 0
M  V30 4552 C 451.737 -1.17891 -4.33972 0
M  V30 4553 C 450.507 -1.74336 -4.74273 0
M  V30 4554 C 452.705 -2.09361 -4.69758 0
M  V30 4555 N 450.687 -2.99829 -5.35701 0
M  V30 4556 C 452.058 -3.19431 -5.31379 0
M  V30 4557 C 454.113 -2.09484 -4.51687 0
M  V30 4558 C 452.816 -4.2971 -5.76838 0
M  V30 4559 C 454.842 -3.18767 -4.98138 0
M  V30 4560 C 454.204 -4.27557 -5.59799 0
M  V30 4561 H 450.303 -0.0517733 -0.780284 0
M  V30 4562 H 452.887 -0.731673 -1.80429 0
M  V30 4563 H 451.058 0.80869 -3.79888 0
M  V30 4564 H 452.79 0.655726 -3.99352 0
M  V30 4565 H 449.545 -1.28265 -4.559 0
M  V30 4566 H 449.969 -3.63765 -5.70968 0
M  V30 4567 H 454.611 -1.26663 -4.03381 0
M  V30 4568 H 452.329 -5.13297 -6.24141 0
M  V30 4569 H 455.915 -3.19937 -4.85934 0
M  V30 4570 H 454.795 -5.10725 -5.95088 0
M  V30 4571 N 452.299 1.55045 -0.282633 0
M  V30 4572 C 453.229 2.2579 0.595066 0
M  V30 4573 C 454.21 1.25074 1.15284 0
M  V30 4574 O 455.395 1.5381 1.18559 0
M  V30 4575 C 452.525 2.98472 1.77572 0
M  V30 4576 C 451.479 4.0618 1.34914 0
M  V30 4577 C 450.805 4.66477 2.6135 0
M  V30 4578 C 452.105 5.1996 0.493821 0
M  V30 4579 H 453.799 2.994 0.00505653 0
M  V30 4580 H 451.345 1.44 0.000992001 0
M  V30 4581 H 453.298 3.46677 2.39568 0
M  V30 4582 H 452.022 2.2241 2.39168 0
M  V30 4583 H 450.681 3.58797 0.752338 0
M  V30 4584 H 450.329 3.87074 3.2122 0
M  V30 4585 H 450.029 5.39207 2.33516 0
M  V30 4586 H 451.553 5.17435 3.24181 0
M  V30 4587 H 452.967 5.64172 1.01898 0
M  V30 4588 H 451.364 5.99299 0.310047 0
M  V30 4589 H 452.434 4.82462 -0.485593 0
M  V30 4590 N 453.777 0.010035 1.57597 0
M  V30 4591 C 454.724 -0.978122 2.09049 0
M  V30 4592 C 455.694 -1.33509 0.988159 0
M  V30 4593 O 456.879 -1.43172 1.26121 0
M  V30 4594 C 454.019 -2.26158 2.60666 0
M  V30 4595 C 453.132 -1.96275 3.84838 0
M  V30 4596 C 452.267 -3.18776 4.24918 0
M  V30 4597 C 451.306 -2.84625 5.41899 0
M  V30 4598 N 450.443 -3.99693 5.77226 0
M  V30 4599 H 455.283 -0.532431 2.93205 0
M  V30 4600 H 452.82 -0.251234 1.44939 0
M  V30 4601 H 454.778 -3.01202 2.88675 0
M  V30 4602 H 453.408 -2.68378 1.79369 0
M  V30 4603 H 452.46 -1.11555 3.63675 0
M  V30 4604 H 453.772 -1.67111 4.69974 0
M  V30 4605 H 452.926 -4.02157 4.54262 0
M  V30 4606 H 451.665 -3.51087 3.38511 0
M  V30 4607 H 450.67 -1.99653 5.12268 0
M  V30 4608 H 451.895 -2.53551 6.29991 0
M  V30 4609 H 449.841 -4.31882 4.93776 0
M  V30 4610 H 449.758 -3.74087 6.56959 0
M  V30 4611 H 451.026 -4.83834 6.11167 0
M  V30 4612 N 455.255 -1.55392 -0.262866 0
M  V30 4613 C 456.187 -1.85392 -1.34768 0
M  V30 4614 C 457.2 -0.739069 -1.45057 0
M  V30 4615 O 458.389 -1.01703 -1.46693 0
M  V30 4616 C 455.489 -2.01088 -2.72795 0
M  V30 4617 C 454.662 -3.31828 -2.84972 0
M  V30 4618 C 453.721 -3.37464 -4.03738 0
M  V30 4619 O 452.747 -4.10778 -3.94018 0
M  V30 4620 N 453.949 -2.65599 -5.16176 0
M  V30 4621 H 456.714 -2.79029 -1.09375 0
M  V30 4622 H 454.275 -1.55434 -0.452981 0
M  V30 4623 H 456.267 -2.02217 -3.50557 0
M  V30 4624 H 454.837 -1.1427 -2.90966 0
M  V30 4625 H 454.057 -3.43152 -1.94012 0
M  V30 4626 H 455.345 -4.18032 -2.90045 0
M  V30 4627 H 454.743 -2.05736 -5.26962 0
M  V30 4628 H 453.3 -2.72439 -5.92132 0
M  V30 4629 N 456.733 0.527833 -1.48498 0
M  V30 4630 C 457.981 1.28101 -1.56316 0
M  V30 4631 C 458.302 1.9352 -0.239781 0
M  V30 4632 O 457.572 1.81433 0.738849 0
M  V30 4633 H 456.152 0.475793 -0.575873 0
M  V30 4634 H 458.814 0.614052 -1.84974 0
M  V30 4635 H 457.91 2.05916 -2.34532 0
M  V30 4636 N 458.211 1.37122 0.776871 0
M  V30 4637 C 459.158 1.3247 1.88998 0
M  V30 4638 C 460.128 0.191143 1.64997 0
M  V30 4639 O 461.313 0.379683 1.86984 0
M  V30 4640 C 458.453 1.13241 3.25992 0
M  V30 4641 C 457.566 2.35782 3.61982 0
M  V30 4642 C 456.701 2.09465 4.88158 0
M  V30 4643 C 455.74 3.279 5.16864 0
M  V30 4644 N 454.877 3.01167 6.34226 0
M  V30 4645 H 459.717 2.27642 1.9231 0
M  V30 4646 H 457.254 1.13125 0.94027 0
M  V30 4647 H 459.212 1.00115 4.0501 0
M  V30 4648 H 457.842 0.217186 3.22069 0
M  V30 4649 H 456.894 2.59666 2.77989 0
M  V30 4650 H 458.206 3.24125 3.79137 0
M  V30 4651 H 457.36 1.93341 5.75069 0
M  V30 4652 H 456.099 1.18452 4.73097 0
M  V30 4653 H 455.104 3.44569 4.2843 0
M  V30 4654 H 456.329 4.19757 5.33836 0
M  V30 4655 H 454.275 2.12779 6.20533 0
M  V30 4656 H 454.192 3.83052 6.51772 0
M  V30 4657 H 455.46 2.88649 7.24087 0
M  V30 4658 N 459.689 -1.00246 1.21608 0
M  V30 4659 C 460.937 -1.73717 1.0328 0
M  V30 4660 C 461.258 -1.90102 -0.434318 0
M  V30 4661 O 460.528 -1.45376 -1.31311 0
M  V30 4662 H 459.108 -0.643613 0.379172 0
M  V30 4663 H 461.77 -1.20787 1.52959 0
M  V30 4664 H 460.866 -2.73535 1.50283 0
M  V30 4665 N 461.167 -1.02423 -1.1978 0
M  V30 4666 C 462.13 -0.605703 -2.21052 0
M  V30 4667 C 463.13 0.328209 -1.57415 0
M  V30 4668 O 464.32 0.115853 -1.73814 0
M  V30 4669 C 461.452 0.114366 -3.40708 0
M  V30 4670 H 462.645 -1.5017 -2.59594 0
M  V30 4671 H 460.198 -0.814888 -1.33376 0
M  V30 4672 H 460.933 1.02492 -3.07678 0
M  V30 4673 H 460.718 -0.556641 -3.88129 0
M  V30 4674 H 462.208 0.394272 -4.15735 0
M  V30 4675 N 462.645 1.35699 -0.801477 0
M  V30 4676 C 463.893 1.9852 -0.37871 0
M  V30 4677 C 464.214 1.63907 1.05638 0
M  V30 4678 O 463.484 0.919013 1.73006 0
M  V30 4679 H 462.064 0.734322 -0.137042 0
M  V30 4680 H 464.726 1.65697 -1.02619 0
M  V30 4681 H 463.822 3.08382 -0.480284 0
M  V30 4682 N 464.123 0.554532 1.47522 0
M  V30 4683 C 465.07 -0.19466 2.29978 0
M  V30 4684 C 466.04 -0.910882 1.38896 0
M  V30 4685 O 467.225 -0.907102 1.67858 0
M  V30 4686 C 464.365 -1.22035 3.22802 0
M  V30 4687 C 463.478 -0.510474 4.28973 0
M  V30 4688 C 462.613 -1.52123 5.08952 0
M  V30 4689 C 461.652 -0.796173 6.069 0
M  V30 4690 N 460.789 -1.75363 6.79847 0
M  V30 4691 H 465.629 0.51461 2.93523 0
M  V30 4692 H 463.166 0.265607 1.44682 0
M  V30 4693 H 465.124 -1.8276 3.7504 0
M  V30 4694 H 463.754 -1.89769 2.61127 0
M  V30 4695 H 462.806 0.211234 3.79813 0
M  V30 4696 H 464.118 0.0576503 4.98767 0
M  V30 4697 H 463.272 -2.20207 5.65326 0
M  V30 4698 H 462.011 -2.12327 4.39054 0
M  V30 4699 H 461.016 -0.101388 5.49707 0
M  V30 4700 H 462.241 -0.199911 6.78806 0
M  V30 4701 H 460.187 -2.3443 6.12682 0
M  V30 4702 H 460.104 -1.23759 7.45801 0
M  V30 4703 H 461.372 -2.4257 7.40797 0
M  V30 4704 N 465.601 -1.54893 0.290851 0
M  V30 4705 C 466.847 -2.0023 -0.321867 0
M  V30 4706 C 467.18 -1.179 -1.54316 0
M  V30 4707 O 466.455 -0.25293 -1.92848 0
M  V30 4708 C 466.738 -3.53456 -0.688515 0
M  V30 4709 C 466.591 -4.46532 0.541209 0
M  V30 4710 C 467.91 -4.13057 -1.51895 0
M  V30 4711 H 465.029 -0.727891 -0.115515 0
M  V30 4712 H 467.671 -1.85722 0.400931 0
M  V30 4713 H 465.821 -3.6595 -1.30433 0
M  V30 4714 H 467.493 -4.4596 1.17973 0
M  V30 4715 H 465.736 -4.17545 1.17636 0
M  V30 4716 H 466.407 -5.51475 0.240675 0
M  V30 4717 H 468.883 -4.03937 -0.99872 0
M  V30 4718 H 467.759 -5.20448 -1.74429 0
M  V30 4719 H 468.02 -3.64284 -2.50498 0
M  V30 4720 N 467.08 -0.0183926 -1.57589 0
M  V30 4721 C 467.99 0.982943 -2.13015 0
M  V30 4722 C 469.006 1.36443 -1.07979 0
M  V30 4723 O 470.182 1.44802 -1.3998 0
M  V30 4724 C 467.247 2.25024 -2.63752 0
M  V30 4725 C 466.308 1.93018 -3.83461 0
M  V30 4726 C 465.541 3.13706 -4.31769 0
M  V30 4727 O 465.764 4.2601 -3.79305 0
M  V30 4728 O 464.698 2.96629 -5.23732 0
M  V30 4729 H 468.524 0.541709 -2.9883 0
M  V30 4730 H 466.109 0.201565 -1.48034 0
M  V30 4731 H 467.991 2.99441 -2.96502 0
M  V30 4732 H 466.666 2.68349 -1.81026 0
M  V30 4733 H 465.573 1.16019 -3.55655 0
M  V30 4734 H 466.906 1.54516 -4.67317 0
M  V30 4735 N 468.558 1.5553 0.254621 0
M  V30 4736 C 469.49 1.86104 1.33783 0
M  V30 4737 C 470.503 0.746752 1.44663 0
M  V30 4738 O 471.692 1.0248 1.46151 0
M  V30 4739 C 468.792 2.02532 2.71724 0
M  V30 4740 C 467.965 3.33335 2.83208 0
M  V30 4741 C 467.024 3.396 4.01943 0
M  V30 4742 O 466.05 4.12862 3.91834 0
M  V30 4743 N 467.252 2.68332 5.1476 0
M  V30 4744 H 470.017 2.79605 1.07893 0
M  V30 4745 H 467.578 1.55672 0.444732 0
M  V30 4746 H 469.57 2.04074 3.4948 0
M  V30 4747 H 468.14 1.15811 2.90356 0
M  V30 4748 H 467.36 3.44176 1.92189 0
M  V30 4749 H 468.648 4.19565 2.87824 0
M  V30 4750 H 468.046 2.08528 5.25864 0
M  V30 4751 H 466.603 2.75575 5.90679 0
M  V30 4752 N 470.036 -0.519951 1.48776 0
M  V30 4753 C 471.264 -1.29971 1.60982 0
M  V30 4754 C 471.679 -1.86803 0.273885 0
M  V30 4755 O 471.036 -1.66904 -0.738193 0
M  V30 4756 C 471.087 -2.44346 2.66415 0
M  V30 4757 O 470.808 -1.89855 3.94825 0
M  V30 4758 C 472.309 -3.36014 2.89153 0
M  V30 4759 H 469.529 -0.394891 0.542496 0
M  V30 4760 H 472.073 -0.626214 1.94676 0
M  V30 4761 H 470.228 -3.07562 2.35552 0
M  V30 4762 H 470.642 -2.64798 4.5275 0
M  V30 4763 H 472.116 -4.12593 3.66703 0
M  V30 4764 H 472.593 -3.91859 1.98351 0
M  V30 4765 H 473.199 -2.78582 3.21359 0
M  V30 4766 N 471.514 -1.37532 -0.769588 0
M  V30 4767 C 472.477 -1.33292 -1.86456 0
M  V30 4768 C 473.477 -0.236537 -1.59051 0
M  V30 4769 O 474.667 -0.492511 -1.67093 0
M  V30 4770 C 471.799 -1.07118 -3.23633 0
M  V30 4771 H 472.992 -2.30692 -1.91628 0
M  V30 4772 H 470.545 -1.22593 -0.969572 0
M  V30 4773 H 471.28 -0.102578 -3.24138 0
M  V30 4774 H 471.065 -1.86479 -3.44917 0
M  V30 4775 H 472.555 -1.06806 -4.03711 0
M  V30 4776 N 472.992 0.995999 -1.22138 0
M  V30 4777 C 474.217 1.77601 -1.0711 0
M  V30 4778 C 474.642 1.84339 0.374264 0
M  V30 4779 O 474 1.29359 1.27028 0
M  V30 4780 C 474.048 3.18897 -1.68336 0
M  V30 4781 O 473.152 4.01663 -0.934928 0
M  V30 4782 H 472.493 0.547011 -0.376397 0
M  V30 4783 H 475.023 1.25137 -1.6187 0
M  V30 4784 H 475.033 3.69539 -1.72931 0
M  V30 4785 H 473.708 3.13308 -2.73516 0
M  V30 4786 H 472.285 3.60204 -0.964751 0
M  V30 4787 N 474.47 1.03057 1.19235 0
M  V30 4788 C 475.403 0.557384 2.21288 0
M  V30 4789 C 476.381 -0.402675 1.57535 0
M  V30 4790 O 477.565 -0.319376 1.85775 0
M  V30 4791 C 474.692 -0.187041 3.38183 0
M  V30 4792 C 473.738 0.72471 4.20298 0
M  V30 4793 S 474.571 2.20187 4.88137 0
M  V30 4794 C 475.727 1.46801 6.08441 0
M  V30 4795 H 475.96 1.42207 2.61083 0
M  V30 4796 H 473.493 0.840651 1.29508 0
M  V30 4797 H 475.451 -0.610405 4.05936 0
M  V30 4798 H 474.112 -1.02748 2.96819 0
M  V30 4799 H 473.305 0.149911 5.03777 0
M  V30 4800 H 472.907 1.08647 3.57871 0
M  V30 4801 H 475.199 0.755522 6.73274 0
M  V30 4802 H 476.142 2.27946 6.70407 0
M  V30 4803 H 476.55 0.964762 5.56195 0
M  V30 4804 O 475.987 -1.31014 0.944336 0
M  V30 4805 H 476.678 -1.85017 0.573431 0
M  V30 END ATOM
M  V30 BEGIN BOND
M  V30 END BOND
M  V30 END CTAB
M  END
$$$$
