drugbank_target|P45452 Collagenase 3 (DB00786; DB01996; DB02049; DB02071; DB02697; DB03033; DB04759; DB04760; DB04761; DB06423; DB07013; DB07827; DB08388; DB08490; DB08561)
 OpenBabel12092119443D

  0  0  0     0  0            999 V3000
M  V30 BEGIN CTAB
M  V30 COUNTS 7445 7568 0 0 0
M  V30 BEGIN ATOM
M  V30 1 H -0.908 1.98254 -0.117106 0
M  V30 2 N 0 1.576 0 0
M  V30 3 C 0.933 2.03868 1.02534 0
M  V30 4 C 1.911 0.928543 1.3348 0
M  V30 5 O 3.095 1.19667 1.45644 0
M  V30 6 C 0.222 2.43627 2.35294 0
M  V30 7 C -0.732 3.65373 2.2001 0
M  V30 8 S 0.101 5.13292 1.52614 0
M  V30 9 C 1.257 5.56322 2.86805 0
M  V30 10 H 1.49 2.90518 0.631377 0
M  V30 11 H -0.977 1.52953 0.210867 0
M  V30 12 H 0.981 2.67203 3.11629 0
M  V30 13 H -0.358 1.57376 2.7183 0
M  V30 14 H -1.165 3.90944 3.18086 0
M  V30 15 H -1.563 3.418 1.51819 0
M  V30 16 H 0.729 5.58782 3.83104 0
M  V30 17 H 1.672 6.56266 2.65933 0
M  V30 18 H 2.08 4.83886 2.90714 0
M  V30 19 N 1.4781 -0.272755 1.55222 0
M  V30 20 C 2.4281 -1.33946 1.84506 0
M  V30 21 C 3.4121 -1.44682 0.70399 0
M  V30 22 O 4.6041 -1.48358 0.965338 0
M  V30 23 C 1.7331 -2.69968 2.12067 0
M  V30 24 C 0.8191 -2.63341 3.32434 0
M  V30 25 N 1.2101 -2.26335 4.52334 0
M  V30 26 C -0.4919 -2.94402 3.35028 0
M  V30 27 C 0.2091 -2.29705 5.34425 0
M  V30 28 N -0.8149 -2.68188 4.72838 0
M  V30 29 H 2.9871 -1.04343 2.74754 0
M  V30 30 H 0.5011 -0.481389 1.55101 0
M  V30 31 H 2.4981 -3.46916 2.31202 0
M  V30 32 H 1.1581 -3.00459 1.23103 0
M  V30 33 H 2.1691 -1.98309 4.78429 0
M  V30 34 H -1.1539 -3.29603 2.56257 0
M  V30 35 H 0.2361 -2.03653 6.40293 0
M  V30 36 N 2.9562 -1.48159 -0.537278 0
M  V30 37 C 4.3672 -1.49429 -1.11928 0
M  V30 38 C 4.7182 -0.26 -1.9447 0
M  V30 39 O 3.8432 0.633489 -2.0692 0
M  V30 40 C 4.4382 -2.70758 -2.03656 0
M  V30 41 C 2.9972 -2.74923 -2.57088 0
M  V30 42 C 2.1442 -2.42835 -1.3389 0
M  V30 43 H 5.0952 -1.55381 -0.322886 0
M  V30 44 H 5.1162 -2.48861 -2.87834 0
M  V30 45 H 4.6282 -3.60575 -1.43553 0
M  V30 46 H 2.7292 -1.89296 -3.20933 0
M  V30 47 H 2.8422 -3.76157 -2.9672 0
M  V30 48 H 1.2062 -1.93836 -1.65226 0
M  V30 49 H 1.9892 -3.34884 -0.755504 0
M  V30 50 N 4.4343 0.785586 -1.36625 0
M  V30 51 C 5.6823 1.54057 -1.30808 0
M  V30 52 C 6.0033 1.94683 0.111157 0
M  V30 53 O 5.2733 1.65241 1.05224 0
M  V30 54 H 3.8533 0.571354 -0.481211 0
M  V30 55 H 6.5153 0.935821 -1.70963 0
M  V30 56 H 5.6113 2.44637 -1.93801 0
M  V30 57 N 5.9124 1.20967 1.01018 0
M  V30 58 C 7.1584 1.02526 1.74975 0
M  V30 59 C 7.4914 -0.4408 1.89131 0
M  V30 60 O 6.7664 -1.32718 1.42184 0
M  V30 61 C 7.0494 1.71699 3.1653 0
M  V30 62 C 6.9024 3.25791 3.10129 0
M  V30 63 C 8.2214 1.45531 4.15342 0
M  V30 64 H 5.3404 0.373863 0.635134 0
M  V30 65 H 7.9824 1.49071 1.17805 0
M  V30 66 H 6.1324 1.32128 3.65341 0
M  V30 67 H 7.8044 3.74697 2.69072 0
M  V30 68 H 6.0474 3.56363 2.47362 0
M  V30 69 H 6.7184 3.69353 4.10222 0
M  V30 70 H 9.1944 1.79872 3.75213 0
M  V30 71 H 8.0704 1.96453 5.1254 0
M  V30 72 H 8.3314 0.384237 4.40427 0
M  V30 73 N 7.3905 -1.2043 1.01659 0
M  V30 74 C 8.3205 -2.25466 0.607226 0
M  V30 75 C 9.3015 -1.65853 -0.377716 0
M  V30 76 O 10.4865 -1.92409 -0.263149 0
M  V30 77 C 7.6165 -3.47256 -0.0552949 0
M  V30 78 C 6.5705 -4.19462 0.850632 0
M  V30 79 C 5.8965 -5.34673 0.0538859 0
M  V30 80 C 7.1965 -4.75603 2.15868 0
M  V30 81 H 8.8905 -2.59962 1.48526 0
M  V30 82 H 6.4365 -1.2496 0.715605 0
M  V30 83 H 8.3895 -4.19917 -0.353233 0
M  V30 84 H 7.1135 -3.11924 -0.968045 0
M  V30 85 H 5.7725 -3.48667 1.13257 0
M  V30 86 H 5.4205 -4.95585 -0.860514 0
M  V30 87 H 5.1205 -5.83913 0.657192 0
M  V30 88 H 6.6445 -6.10138 -0.237598 0
M  V30 89 H 8.0585 -5.40083 1.92311 0
M  V30 90 H 6.4555 -5.3528 2.71284 0
M  V30 91 H 7.5255 -3.94346 2.82169 0
M  V30 92 N 8.8686 -0.792821 -1.36206 0
M  V30 93 C 9.8316 -0.199459 -2.2833 0
M  V30 94 C 10.8316 0.605189 -1.48977 0
M  V30 95 O 12.0216 0.425685 -1.68919 0
M  V30 96 C 9.1536 0.723523 -3.33134 0
M  V30 97 H 10.3466 -1.01181 -2.82316 0
M  V30 98 H 7.8996 -0.562485 -1.45828 0
M  V30 99 H 8.6346 1.56008 -2.84309 0
M  V30 100 H 8.4196 0.148436 -3.91819 0
M  V30 101 H 9.9096 1.13344 -4.01924 0
M  V30 102 N 10.3467 1.47872 -0.545128 0
M  V30 103 C 11.3097 2.28337 0.198717 0
M  V30 104 C 12.3097 1.36255 0.853888 0
M  V30 105 O 13.4997 1.59003 0.711606 0
M  V30 106 C 10.6317 3.15585 1.28915 0
M  V30 107 H 11.8247 2.95567 -0.507941 0
M  V30 108 H 9.3777 1.53362 -0.301616 0
M  V30 109 H 10.1127 2.53019 2.02859 0
M  V30 110 H 9.8977 3.83337 0.824309 0
M  V30 111 H 11.3877 3.76243 1.81194 0
M  V30 112 N 11.8248 0.280983 1.55075 0
M  V30 113 C 13.0718 -0.334115 1.99725 0
M  V30 114 C 13.3998 -1.5542 1.1694 0
M  V30 115 O 12.6548 -1.94361 0.228531 0
M  V30 116 C 12.9538 -0.754656 3.49342 0
M  V30 117 C 12.6198 0.361445 4.49449 0
M  V30 118 C 11.2818 0.667893 4.76542 0
M  V30 119 C 13.6338 1.11322 5.09173 0
M  V30 120 C 10.9618 1.7296 5.60626 0
M  V30 121 C 13.3138 2.1647 5.9441 0
M  V30 122 C 11.9778 2.47742 6.19822 0
M  V30 123 H 11.2478 -0.122261 0.730844 0
M  V30 124 H 13.8948 0.395917 1.87363 0
M  V30 125 H 12.1998 -1.56446 3.5921 0
M  V30 126 H 13.8968 -1.24142 3.813 0
M  V30 127 H 10.4868 0.112481 4.28452 0
M  V30 128 H 14.6708 0.88973 4.8826 0
M  V30 129 H 9.9268 1.97684 5.78559 0
M  V30 130 H 14.1008 2.75193 6.3972 0
M  V30 131 H 11.7278 3.30145 6.84769 0
M  V30 132 N 13.3029 -1.57598 0.00835791 0
M  V30 133 C 14.2329 -2.1198 -0.979113 0
M  V30 134 C 15.2139 -1.03091 -1.35301 0
M  V30 135 O 16.3989 -1.30818 -1.43528 0
M  V30 136 C 13.5289 -2.62995 -2.26828 0
M  V30 137 C 12.4829 -3.76485 -2.03576 0
M  V30 138 C 11.8089 -4.13846 -3.38579 0
M  V30 139 C 13.1089 -5.0342 -1.39161 0
M  V30 140 H 14.8029 -2.94738 -0.526281 0
M  V30 141 H 12.3489 -1.41783 -0.251704 0
M  V30 142 H 14.3019 -2.99669 -2.96271 0
M  V30 143 H 13.0259 -1.7737 -2.7424 0
M  V30 144 H 11.6849 -3.40217 -1.36557 0
M  V30 145 H 11.3329 -3.25232 -3.83709 0
M  V30 146 H 11.0329 -4.90312 -3.23834 0
M  V30 147 H 12.5569 -4.53086 -4.09323 0
M  V30 148 H 13.9709 -5.37812 -1.98573 0
M  V30 149 H 12.3679 -5.84746 -1.34878 0
M  V30 150 H 13.4379 -4.83548 -0.361868 0
M  V30 151 N 14.781 0.264519 -1.55364 0
M  V30 152 C 16.028 0.994986 -1.7637 0
M  V30 153 C 16.356 1.85976 -0.5695 0
M  V30 154 O 15.611 1.90509 0.44776 0
M  V30 155 C 15.91 1.9004 -3.02687 0
M  V30 156 C 15.576 1.19243 -4.34847 0
M  V30 157 C 14.238 0.996709 -4.70764 0
M  V30 158 C 16.59 0.689296 -5.16622 0
M  V30 159 C 13.918 0.285261 -5.86006 0
M  V30 160 C 16.27 -0.00860079 -6.32599 0
M  V30 161 C 14.934 -0.215963 -6.67151 0
M  V30 162 H 14.204 0.364091 -0.645383 0
M  V30 163 H 16.851 0.266543 -1.89636 0
M  V30 164 H 15.156 2.69533 -2.84357 0
M  V30 165 H 16.853 2.46695 -3.16137 0
M  V30 166 H 13.443 1.3549 -4.06621 0
M  V30 167 H 17.627 0.828108 -4.89342 0
M  V30 168 H 12.883 0.113961 -6.11294 0
M  V30 169 H 17.057 -0.406186 -6.95214 0
M  V30 170 H 14.684 -0.769217 -7.56298 0
M  V30 171 N 16.2591 1.48442 0.529413 0
M  V30 172 C 17.1891 1.65902 1.64313 0
M  V30 173 C 18.1701 0.507897 1.6234 0
M  V30 174 O 19.3551 0.740503 1.79528 0
M  V30 175 C 16.4851 1.69911 3.02898 0
M  V30 176 C 15.4391 2.8453 3.19729 0
M  V30 177 C 14.7651 2.73629 4.59381 0
M  V30 178 C 16.0651 4.25821 3.02447 0
M  V30 179 H 17.7591 2.5914 1.49955 0
M  V30 180 H 15.3051 1.24709 0.719982 0
M  V30 181 H 17.2581 1.80715 3.80684 0
M  V30 182 H 15.9821 0.732524 3.18279 0
M  V30 183 H 14.6411 2.73283 2.44361 0
M  V30 184 H 14.2891 1.74938 4.71599 0
M  V30 185 H 13.9891 3.50541 4.71588 0
M  V30 186 H 15.5131 2.86401 5.39265 0
M  V30 187 H 16.9271 4.37898 3.70024 0
M  V30 188 H 15.3241 5.03735 3.26146 0
M  V30 189 H 16.3941 4.42244 1.98867 0
M  V30 190 N 17.7372 -0.778329 1.37039 0
M  V30 191 C 18.9622 -1.57248 1.35233 0
M  V30 192 C 19.3872 -1.87999 -0.0615568 0
M  V30 193 O 18.7452 -1.48734 -1.03672 0
M  V30 194 C 18.7932 -2.86353 2.19167 0
M  V30 195 O 17.8972 -3.80442 1.59178 0
M  V30 196 H 17.2382 -0.476569 0.462362 0
M  V30 197 H 19.7682 -0.963853 1.80474 0
M  V30 198 H 19.7782 -3.35519 2.32145 0
M  V30 199 H 18.4532 -2.63299 3.21942 0
M  V30 200 H 17.0302 -3.39067 1.55203 0
M  V30 201 N 19.2153 -1.21501 -1.00376 0
M  V30 202 C 20.4613 -1.04457 -1.74529 0
M  V30 203 C 20.8163 0.417386 -1.87818 0
M  V30 204 O 20.1093 1.30556 -1.40234 0
M  V30 205 C 20.3033 -1.67673 -3.15627 0
M  V30 206 C 20.1323 -3.19865 -3.16096 0
M  V30 207 C 18.9023 -3.88915 -3.22604 0
M  V30 208 C 21.1003 -4.16936 -3.01112 0
M  V30 209 N 19.0823 -5.28284 -3.12712 0
M  V30 210 C 20.4533 -5.43066 -2.99131 0
M  V30 211 C 22.5083 -4.07968 -2.85423 0
M  V30 212 C 21.2113 -6.6126 -2.83068 0
M  V30 213 C 23.2373 -5.258 -2.70718 0
M  V30 214 C 22.5993 -6.50842 -2.69414 0
M  V30 215 H 18.6983 -0.436584 -0.648782 0
M  V30 216 H 21.2823 -1.53875 -1.19293 0
M  V30 217 H 19.4533 -1.20822 -3.6913 0
M  V30 218 H 21.1853 -1.43824 -3.78281 0
M  V30 219 H 17.9403 -3.39847 -3.2985 0
M  V30 220 H 18.3643 -6.01284 -3.11105 0
M  V30 221 H 23.0063 -3.1209 -2.85236 0
M  V30 222 H 20.7243 -7.57298 -2.82002 0
M  V30 223 H 24.3103 -5.20683 -2.59577 0
M  V30 224 H 23.1903 -7.40485 -2.5817 0
M  V30 225 N 20.6934 1.19889 -1.02296 0
M  V30 226 C 21.9214 1.9339 -0.735399 0
M  V30 227 C 22.3364 1.75148 0.704887 0
M  V30 228 O 21.6934 1.06954 1.47875 0
M  V30 229 C 21.7444 3.45313 -1.06962 0
M  V30 230 O 21.4654 3.62964 -2.45334 0
M  V30 231 C 22.9664 4.35948 -0.804021 0
M  V30 232 H 20.1864 0.61448 -0.269546 0
M  V30 233 H 22.7304 1.522 -1.36585 0
M  V30 234 H 20.8854 3.84359 -0.484455 0
M  V30 235 H 21.2994 4.56886 -2.57595 0
M  V30 236 H 22.7734 5.41174 -1.0879 0
M  V30 237 H 23.2504 4.3842 0.261691 0
M  V30 238 H 23.8564 4.02574 -1.37164 0
M  V30 239 N 22.1715 0.800033 1.35784 0
M  V30 240 C 23.1215 0.178654 2.27299 0
M  V30 241 C 24.1055 -0.643667 1.47464 0
M  V30 242 O 25.2975 -0.502 1.69732 0
M  V30 243 C 22.4265 -0.677194 3.36555 0
M  V30 244 C 21.5125 0.154497 4.23818 0
M  V30 245 N 21.9035 1.21427 4.91008 0
M  V30 246 C 20.2015 -0.0649462 4.45953 0
M  V30 247 C 20.9025 1.72147 5.55644 0
M  V30 248 N 19.8785 1.02897 5.33773 0
M  V30 249 H 23.6805 0.989637 2.76737 0
M  V30 250 H 21.1945 0.64054 1.49234 0
M  V30 251 H 23.1915 -1.13835 4.01058 0
M  V30 252 H 21.8515 -1.4866 2.8867 0
M  V30 253 H 22.8625 1.59684 4.92668 0
M  V30 254 H 19.5395 -0.844016 4.0888 0
M  V30 255 H 20.9295 2.60683 6.19269 0
M  V30 256 N 23.6496 -1.47581 0.552962 0
M  V30 257 C 24.8896 -2.04379 0.0296245 0
M  V30 258 C 25.2536 -1.4185 -1.29393 0
M  V30 259 O 26.4546 -1.89669 -1.90471 0
M  V30 260 C 24.7256 -3.57339 -0.0661371 0
M  V30 261 S 26.2846 -4.35511 -0.536213 0
M  V30 262 H 23.1026 -0.710625 0.0230991 0
M  V30 263 H 25.7046 -1.81005 0.738734 0
M  V30 264 H 24.4086 -4.00374 0.901596 0
M  V30 265 H 23.9396 -3.85202 -0.798931 0
M  V30 266 H 25.9546 -4.6253 -1.79668 0
M  V30 267 N 25.1277 -0.289203 -1.54924 0
M  V30 268 C 26.5437 0.0645403 -1.59469 0
M  V30 269 C 26.7437 1.53419 -1.30632 0
M  V30 270 O 25.7997 2.2852 -1.074 0
M  V30 271 C 27.1127 -0.32278 -2.98963 0
M  V30 272 C 28.6607 -0.270564 -3.11828 0
M  V30 273 C 29.1357 -0.632532 -4.53611 0
M  V30 274 N 30.6267 -0.584617 -4.59496 0
M  V30 275 C 31.3617 -0.837314 -5.67254 0
M  V30 276 N 30.8577 -1.15536 -6.83098 0
M  V30 277 N 32.6507 -0.765166 -5.56868 0
M  V30 278 H 24.8017 -1.24714 -1.71931 0
M  V30 279 H 27.0647 -0.504809 -0.802416 0
M  V30 280 H 26.7707 -1.34541 -3.24948 0
M  V30 281 H 26.6447 0.32944 -3.75759 0
M  V30 282 H 29.0317 0.742805 -2.85598 0
M  V30 283 H 29.1127 -0.957242 -2.37214 0
M  V30 284 H 28.7567 -1.64365 -4.80569 0
M  V30 285 H 28.6867 0.07609 -5.26545 0
M  V30 286 H 31.1777 -0.349248 -3.76283 0
M  V30 287 H 31.4907 -1.33447 -7.61191 0
M  V30 288 H 29.8357 -1.19328 -6.84679 0
M  V30 289 H 33.0267 -0.516432 -4.65243 0
M  V30 290 H 33.1997 -0.965477 -6.40767 0
M  V30 291 N 26.6058 1.57591 -0.0167156 0
M  V30 292 C 27.5688 2.08393 0.954204 0
M  V30 293 C 28.5688 0.996531 1.26198 0
M  V30 294 O 29.7588 1.25858 1.20438 0
M  V30 295 C 26.8908 2.5394 2.27436 0
M  V30 296 H 28.0838 2.95455 0.514451 0
M  V30 297 H 25.6368 1.54582 0.231089 0
M  V30 298 H 26.3718 1.70171 2.76066 0
M  V30 299 H 26.1568 3.33371 2.06412 0
M  V30 300 H 27.6468 2.93512 2.97053 0
M  V30 301 N 28.0839 -0.256276 1.55502 0
M  V30 302 C 29.0139 -1.32102 1.92539 0
M  V30 303 C 29.9949 -1.50684 0.789194 0
M  V30 304 O 31.1799 -1.63449 1.04872 0
M  V30 305 C 28.3099 -2.67752 2.21192 0
M  V30 306 C 27.2639 -2.63878 3.36975 0
M  V30 307 C 26.5899 -4.03236 3.51147 0
M  V30 308 C 27.8899 -2.21682 4.72921 0
M  V30 309 H 29.5839 -1.01351 2.81724 0
M  V30 310 H 27.1299 -0.486105 1.35547 0
M  V30 311 H 29.0829 -3.42365 2.45691 0
M  V30 312 H 27.8069 -3.0012 1.28824 0
M  V30 313 H 26.4659 -1.91722 3.12471 0
M  V30 314 H 26.1139 -4.32854 2.56216 0
M  V30 315 H 25.8139 -4.01535 4.29003 0
M  V30 316 H 27.3379 -4.79563 3.77957 0
M  V30 317 H 28.7519 -2.86023 4.96854 0
M  V30 318 H 27.1489 -2.3111 5.53812 0
M  V30 319 H 28.2189 -1.16833 4.70615 0
M  V30 320 N 29.562 -1.4872 -0.521534 0
M  V30 321 C 30.973 -1.50607 -1.10337 0
M  V30 322 C 31.324 -0.280612 -1.94183 0
M  V30 323 O 30.449 0.611507 -2.0758 0
M  V30 324 C 31.044 -2.72903 -2.00772 0
M  V30 325 C 29.603 -2.77634 -2.54158 0
M  V30 326 C 28.75 -2.44241 -1.31307 0
M  V30 327 H 31.701 -1.55714 -0.306388 0
M  V30 328 H 31.722 -2.519 -2.85178 0
M  V30 329 H 31.234 -3.62077 -1.39721 0
M  V30 330 H 29.335 -1.92689 -3.18907 0
M  V30 331 H 29.448 -3.79283 -2.92714 0
M  V30 332 H 27.812 -1.95577 -1.63161 0
M  V30 333 H 28.595 -3.35666 -0.719943 0
M  V30 334 N 31.0401 0.771051 -1.3745 0
M  V30 335 C 31.9701 1.89827 -1.3597 0
M  V30 336 C 32.9511 1.68562 -0.228216 0
M  V30 337 O 34.1361 1.8941 -0.428675 0
M  V30 338 C 31.2661 3.2712 -1.16662 0
M  V30 339 C 30.2201 3.6295 -2.2683 0
M  V30 340 C 29.5461 4.98791 -1.92644 0
M  V30 341 C 30.8461 3.69627 -3.69017 0
M  V30 342 H 32.5401 1.91323 -2.30295 0
M  V30 343 H 30.0861 0.919082 -1.10855 0
M  V30 344 H 32.0391 4.05615 -1.14256 0
M  V30 345 H 30.7631 3.26059 -0.187926 0
M  V30 346 H 29.4221 2.86763 -2.28392 0
M  V30 347 H 29.0701 4.94271 -0.933021 0
M  V30 348 H 28.7701 5.23733 -2.66416 0
M  V30 349 H 30.2941 5.79685 -1.91826 0
M  V30 350 H 31.7081 4.38273 -3.69581 0
M  V30 351 H 30.1051 4.06067 -4.41848 0
M  V30 352 H 31.1751 2.70273 -4.02592 0
M  V30 353 N 32.5182 1.22032 0.997298 0
M  V30 354 C 33.9292 1.0397 1.55071 0
M  V30 355 C 34.2802 -0.398192 1.92117 0
M  V30 356 O 33.4052 -1.28254 1.74298 0
M  V30 357 C 34.0002 1.88109 2.81781 0
M  V30 358 C 32.5592 1.74357 3.33581 0
M  V30 359 C 31.7062 1.84846 2.06706 0
M  V30 360 H 34.6572 1.35941 0.818883 0
M  V30 361 H 34.6782 1.39589 3.53971 0
M  V30 362 H 34.1902 2.92754 2.54787 0
M  V30 363 H 32.2912 0.72427 3.65493 0
M  V30 364 H 32.4042 2.56772 4.04481 0
M  V30 365 H 30.7682 1.28238 2.20062 0
M  V30 366 H 31.5512 2.91014 1.82114 0
M  V30 367 N 33.9963 -1.19345 1.0293 0
M  V30 368 C 35.2213 -1.93538 0.745511 0
M  V30 369 C 35.6463 -1.75007 -0.689511 0
M  V30 370 O 35.0043 -1.05265 -1.47611 0
M  V30 371 C 35.0523 -3.43336 1.10239 0
M  V30 372 O 34.1563 -4.11806 0.221289 0
M  V30 373 H 33.4973 -0.604193 0.275404 0
M  V30 374 H 36.0273 -1.5141 1.37609 0
M  V30 375 H 36.0373 -3.94004 1.05947 0
M  V30 376 H 34.7123 -3.56146 2.14786 0
M  V30 377 H 33.2893 -3.715 0.322842 0
M  V30 378 N 35.4744 -0.807222 -1.35358 0
M  V30 379 C 36.7224 -0.387122 -1.98358 0
M  V30 380 C 37.0434 1.04942 -1.64354 0
M  V30 381 O 36.3134 1.72615 -0.926339 0
M  V30 382 H 34.8934 -0.140154 -0.733734 0
M  V30 383 H 37.5554 -1.0332 -1.6526 0
M  V30 384 H 36.6514 -0.493352 -3.08176 0
M  V30 385 N 36.9525 1.47285 -0.560781 0
M  V30 386 C 38.2005 2.02064 -0.0379868 0
M  V30 387 C 38.5215 1.43711 1.31803 0
M  V30 388 O 37.7915 0.61362 1.86042 0
M  V30 389 H 36.3715 0.746918 -0.0110531 0
M  V30 390 H 39.0335 1.80648 -0.731598 0
M  V30 391 H 38.1295 3.12064 0.0474463 0
M  V30 392 N 38.4306 0.297415 1.54768 0
M  V30 393 C 39.7076 -0.365847 1.92148 0
M  V30 394 C 40.0876 -1.71975 1.22424 0
M  V30 395 O 39.4356 -2.25666 0.358739 0
M  V30 396 C 39.6456 -0.484056 3.45627 0
M  V30 397 C 40.9936 -0.756594 4.17805 0
M  V30 398 O 42.0176 -0.568007 3.51642 0
M  V30 399 O 40.8766 -1.11863 5.34929 0
M  V30 400 H 37.9706 -0.203919 0.801465 0
M  V30 401 H 40.5166 0.34521 1.66152 0
M  V30 402 H 39.2886 0.467865 3.88493 0
M  V30 403 H 38.9116 -1.24372 3.77647 0
M  V30 404 N 39.9087 -1.5758 0.0250728 0
M  V30 405 C 40.8187 -2.1343 -0.973905 0
M  V30 406 C 41.8347 -1.08556 -1.35984 0
M  V30 407 O 43.0107 -1.40592 -1.44207 0
M  V30 408 C 40.0757 -2.64703 -2.23904 0
M  V30 409 C 39.1367 -3.84276 -1.91391 0
M  V30 410 C 38.3697 -4.33095 -3.11873 0
M  V30 411 O 38.5927 -3.81107 -4.24398 0
M  V30 412 O 37.5267 -5.24984 -2.94406 0
M  V30 413 H 41.3527 -2.99057 -0.529036 0
M  V30 414 H 38.9377 -1.48118 -0.195288 0
M  V30 415 H 40.8197 -2.97769 -2.98181 0
M  V30 416 H 39.4947 -1.82161 -2.6758 0
M  V30 417 H 38.4017 -3.56143 -1.14511 0
M  V30 418 H 39.7347 -4.67968 -1.52534 0
M  V30 419 N 41.3868 0.248026 -1.55636 0
M  V30 420 C 42.6638 0.998988 -1.68165 0
M  V30 421 C 43.0438 2.03409 -0.564621 0
M  V30 422 O 42.3918 2.24378 0.432076 0
M  V30 423 C 42.6018 1.63334 -3.0842 0
M  V30 424 C 43.9498 2.13562 -3.66983 0
M  V30 425 O 44.9738 1.73277 -3.11213 0
M  V30 426 O 43.8328 2.87526 -4.64749 0
M  V30 427 H 40.9268 0.464933 -0.683935 0
M  V30 428 H 43.4728 0.241902 -1.67967 0
M  V30 429 H 42.2448 0.884583 -3.8117 0
M  V30 430 H 41.8678 2.45666 -3.12624 0
M  V30 431 N 42.8649 1.48995 0.513639 0
M  V30 432 C 44.1419 1.48338 1.27495 0
M  V30 433 C 44.5219 0.204065 2.10111 0
M  V30 434 O 43.8699 -0.813881 2.13514 0
M  V30 435 C 44.0799 2.75498 2.14247 0
M  V30 436 C 45.4279 3.24484 2.73852 0
M  V30 437 O 46.4519 2.76528 2.24523 0
M  V30 438 O 45.3109 4.07974 3.6362 0
M  V30 439 H 42.4049 0.593149 0.576284 0
M  V30 440 H 44.9509 1.61246 0.528948 0
M  V30 441 H 43.7229 3.60109 1.53092 0
M  V30 442 H 43.3459 2.6539 2.96064 0
M  V30 443 N 44.343 -0.763751 1.37857 0
M  V30 444 C 45.273 -1.89103 1.36975 0
M  V30 445 C 46.254 -1.68439 0.237152 0
M  V30 446 O 47.439 -1.8918 0.438713 0
M  V30 447 C 44.569 -3.26496 1.18395 0
M  V30 448 C 43.523 -3.61741 2.28751 0
M  V30 449 C 42.849 -4.97762 1.95286 0
M  V30 450 C 44.149 -3.67665 3.70972 0
M  V30 451 H 45.843 -1.90099 2.31307 0
M  V30 452 H 43.389 -0.91319 1.11341 0
M  V30 453 H 45.342 -4.05003 1.16406 0
M  V30 454 H 44.066 -3.25955 0.205215 0
M  V30 455 H 42.725 -2.85547 2.29909 0
M  V30 456 H 42.373 -4.93769 0.959221 0
M  V30 457 H 42.073 -5.22313 2.69189 0
M  V30 458 H 43.597 -5.7866 1.94898 0
M  V30 459 H 45.011 -4.36307 3.719 0
M  V30 460 H 43.408 -4.03718 4.43995 0
M  V30 461 H 44.478 -2.68134 4.0402 0
M  V30 462 N 45.8211 -1.22559 -0.990812 0
M  V30 463 C 47.0461 -1.07862 -1.77145 0
M  V30 464 C 47.4711 0.366447 -1.84496 0
M  V30 465 O 46.8291 1.26478 -1.29896 0
M  V30 466 C 46.8771 -1.69686 -3.18181 0
M  V30 467 O 45.9811 -0.951946 -4.01263 0
M  V30 468 H 45.3221 -0.378712 -0.545411 0
M  V30 469 H 47.8521 -1.62399 -1.2445 0
M  V30 470 H 47.8621 -1.74496 -3.68802 0
M  V30 471 H 46.5371 -2.74841 -3.12146 0
M  V30 472 H 45.1141 -0.980011 -3.59792 0
M  V30 473 N 47.2992 1.18797 -1.03562 0
M  V30 474 C 48.2092 2.25913 -0.632505 0
M  V30 475 C 49.2252 1.70668 0.338882 0
M  V30 476 O 50.4012 2.00453 0.195076 0
M  V30 477 C 47.4662 3.467 0.00350942 0
M  V30 478 C 46.5272 4.17098 -1.01624 0
M  V30 479 C 45.7602 5.32119 -0.410478 0
M  V30 480 O 45.9832 5.64976 0.784725 0
M  V30 481 O 44.9172 5.9107 -1.13667 0
M  V30 482 H 48.7432 2.62648 -1.52478 0
M  V30 483 H 46.3282 1.25781 -0.806195 0
M  V30 484 H 48.2102 4.19878 0.35781 0
M  V30 485 H 46.8852 3.11798 0.869686 0
M  V30 486 H 45.7922 3.4601 -1.42224 0
M  V30 487 H 47.1252 4.55987 -1.85301 0
M  V30 488 N 48.7773 0.814389 1.34928 0
M  V30 489 C 49.6873 0.231978 2.3345 0
M  V30 490 C 50.7033 -0.629139 1.62228 0
M  V30 491 O 51.8793 -0.539052 1.94052 0
M  V30 492 C 48.9443 -0.603482 3.41407 0
M  V30 493 C 48.0053 0.279037 4.28392 0
M  V30 494 C 47.2383 -0.516643 5.31193 0
M  V30 495 O 47.4613 -1.75068 5.4287 0
M  V30 496 O 46.3953 0.0965652 6.01823 0
M  V30 497 H 50.2213 1.04721 2.85074 0
M  V30 498 H 47.8063 0.576343 1.37836 0
M  V30 499 H 49.6883 -1.07908 4.0735 0
M  V30 500 H 48.3633 -1.39618 2.92042 0
M  V30 501 H 47.2703 0.801948 3.65403 0
M  V30 502 H 48.6033 1.03588 4.81176 0
M  V30 503 N 50.2554 -1.46986 0.568584 0
M  V30 504 C 51.5324 -1.95592 -0.0174074 0
M  V30 505 C 51.9124 -1.51124 -1.47393 0
M  V30 506 O 51.2604 -0.755329 -2.15655 0
M  V30 507 C 51.4704 -3.48719 0.139913 0
M  V30 508 C 52.8184 -4.246 0.000426376 0
M  V30 509 O 53.8424 -3.56135 0.0680316 0
M  V30 510 O 52.7014 -5.46302 -0.146988 0
M  V30 511 H 49.7954 -0.82498 -0.0577599 0
M  V30 512 H 52.3414 -1.57335 0.635909 0
M  V30 513 H 51.1134 -3.73927 1.15301 0
M  V30 514 H 50.7364 -3.93771 -0.550491 0
M  V30 515 N 51.7335 -0.305618 -1.54608 0
M  V30 516 C 52.6635 0.561482 -2.26649 0
M  V30 517 C 53.6445 1.13415 -1.26772 0
M  V30 518 O 54.8295 1.16262 -1.55553 0
M  V30 519 C 51.9595 1.73122 -3.01075 0
M  V30 520 C 50.9135 1.2887 -4.08138 0
M  V30 521 C 50.2395 2.54396 -4.70305 0
M  V30 522 C 51.5395 0.416578 -5.20636 0
M  V30 523 H 53.2335 -0.0393902 -2.99374 0
M  V30 524 H 50.7795 -0.020385 -1.43986 0
M  V30 525 H 52.7325 2.34396 -3.50195 0
M  V30 526 H 51.4565 2.3584 -2.25936 0
M  V30 527 H 50.1155 0.698991 -3.59875 0
M  V30 528 H 49.7635 3.15439 -3.918 0
M  V30 529 H 49.4635 2.25486 -5.42614 0
M  V30 530 H 50.9875 3.16464 -5.2219 0
M  V30 531 H 52.4015 0.935116 -5.65622 0
M  V30 532 H 50.7985 0.221046 -5.99693 0
M  V30 533 H 51.8685 -0.557162 -4.81688 0
M  V30 534 N 53.2116 1.57565 -0.0334293 0
M  V30 535 C 54.1436 2.0739 0.975811 0
M  V30 536 C 55.1566 0.998166 1.2861 0
M  V30 537 O 56.3456 1.27426 1.25 0
M  V30 538 C 53.4456 2.4871 2.30209 0
M  V30 539 C 52.6186 3.79413 2.17634 0
M  V30 540 C 51.6776 4.07237 3.33233 0
M  V30 541 O 50.7036 4.77425 3.09927 0
M  V30 542 N 51.9056 3.5775 4.5716 0
M  V30 543 H 54.6706 2.94598 0.55066 0
M  V30 544 H 52.2316 1.61173 0.15323 0
M  V30 545 H 54.2236 2.64413 3.06378 0
M  V30 546 H 52.7936 1.66845 2.64351 0
M  V30 547 H 52.0136 3.73465 1.26165 0
M  V30 548 H 53.3016 4.65038 2.0644 0
M  V30 549 H 52.6996 3.00976 4.78989 0
M  V30 550 H 51.2566 3.78724 5.30482 0
M  V30 551 N 54.6897 -0.239769 1.55765 0
M  V30 552 C 55.9367 -0.966801 1.7793 0
M  V30 553 C 56.2647 -1.85046 0.599015 0
M  V30 554 O 55.5197 -1.91197 -0.417395 0
M  V30 555 C 55.8187 -1.852 3.05672 0
M  V30 556 C 55.4847 -1.1231 4.36689 0
M  V30 557 C 54.1467 -0.921689 4.72291 0
M  V30 558 C 56.4987 -0.607019 5.17653 0
M  V30 559 C 53.8267 -0.191996 5.86386 0
M  V30 560 C 56.1787 0.109241 6.32506 0
M  V30 561 C 54.8427 0.322073 6.66723 0
M  V30 562 H 54.1127 -0.353778 0.651093 0
M  V30 563 H 56.7597 -0.23634 1.90036 0
M  V30 564 H 55.0647 -2.64975 2.8861 0
M  V30 565 H 56.7617 -2.41635 3.20021 0
M  V30 566 H 53.3517 -1.29004 4.08725 0
M  V30 567 H 57.5357 -0.750153 4.90598 0
M  V30 568 H 52.7917 -0.0166949 6.11398 0
M  V30 569 H 56.9657 0.516737 6.9448 0
M  V30 570 H 54.5927 0.88944 7.54979 0
M  V30 571 N 56.1678 -1.49265 -0.50573 0
M  V30 572 C 57.1308 -1.65075 -1.59006 0
M  V30 573 C 58.1308 -0.522768 -1.52065 0
M  V30 574 O 59.3208 -0.789117 -1.55302 0
M  V30 575 C 56.4528 -1.64369 -2.98656 0
M  V30 576 H 57.6458 -2.61784 -1.46319 0
M  V30 577 H 55.1988 -1.38226 -0.729616 0
M  V30 578 H 55.9338 -0.692272 -3.16825 0
M  V30 579 H 55.7188 -2.46282 -3.05103 0
M  V30 580 H 57.2088 -1.78674 -3.77446 0
M  V30 581 N 57.6459 0.756429 -1.3826 0
M  V30 582 C 58.5559 1.9009 -1.37488 0
M  V30 583 C 59.5719 1.71855 -0.272366 0
M  V30 584 O 60.7479 1.94827 -0.510318 0
M  V30 585 C 57.8129 3.25421 -1.19592 0
M  V30 586 C 56.8739 3.56202 -2.39622 0
M  V30 587 C 56.1069 4.85075 -2.2257 0
M  V30 588 O 56.3299 5.57246 -1.21793 0
M  V30 589 O 55.2639 5.15269 -3.11098 0
M  V30 590 H 59.0899 1.93695 -2.33914 0
M  V30 591 H 56.6749 0.901313 -1.1915 0
M  V30 592 H 58.5569 4.06337 -1.11661 0
M  V30 593 H 57.2319 3.22634 -0.262486 0
M  V30 594 H 56.1389 2.75458 -2.53128 0
M  V30 595 H 57.4719 3.63747 -3.31586 0
M  V30 596 N 59.124 1.23083 0.984299 0
M  V30 597 C 60.54 0.992637 1.24975 0
M  V30 598 C 60.74 -0.308618 1.99123 0
M  V30 599 O 59.796 -1.02905 2.30579 0
M  V30 600 C 61.109 2.19698 2.05312 0
M  V30 601 C 62.657 2.24147 2.18465 0
M  V30 602 C 63.132 3.44157 3.02192 0
M  V30 603 N 64.623 3.44372 3.09777 0
M  V30 604 C 65.358 4.33886 3.74874 0
M  V30 605 N 64.854 5.3363 4.41827 0
M  V30 606 N 66.647 4.21639 3.71721 0
M  V30 607 H 58.798 2.06731 0.487453 0
M  V30 608 H 61.061 0.906339 0.277944 0
M  V30 609 H 60.767 3.1411 1.58201 0
M  V30 610 H 60.641 2.20465 3.06064 0
M  V30 611 H 63.028 1.30277 2.64786 0
M  V30 612 H 63.109 2.27415 1.17115 0
M  V30 613 H 62.753 4.38332 2.56568 0
M  V30 614 H 62.683 3.3813 4.03702 0
M  V30 615 H 65.174 2.72201 2.62135 0
M  V30 616 H 65.487 5.98196 4.89266 0
M  V30 617 H 63.832 5.37534 4.40548 0
M  V30 618 H 67.023 3.42962 3.18582 0
M  V30 619 H 67.196 4.91604 4.22173 0
M  V30 620 N 60.6021 -1.18246 1.0419 0
M  V30 621 C 61.8321 -1.91916 0.764961 0
M  V30 622 C 62.2401 -1.76485 -0.681898 0
M  V30 623 O 61.5831 -1.09275 -1.47664 0
M  V30 624 C 61.6451 -3.4373 1.05309 0
M  V30 625 C 61.3091 -3.8294 2.4941 0
M  V30 626 C 62.3061 -3.86621 3.47592 0
M  V30 627 C 59.9911 -4.142 2.84155 0
M  V30 628 C 61.9851 -4.21013 4.78568 0
M  V30 629 C 59.6721 -4.48262 4.15337 0
M  V30 630 C 60.6701 -4.51645 5.12353 0
M  V30 631 O 60.3581 -4.84911 6.41183 0
M  V30 632 H 60.0901 -0.61606 0.278292 0
M  V30 633 H 62.6441 -1.50947 1.39299 0
M  V30 634 H 60.8741 -3.84946 0.367933 0
M  V30 635 H 62.5631 -3.9865 0.763752 0
M  V30 636 H 63.3291 -3.62607 3.22089 0
M  V30 637 H 59.2081 -4.10743 2.09311 0
M  V30 638 H 62.7521 -4.23568 5.54289 0
M  V30 639 H 58.6491 -4.71737 4.40607 0
M  V30 640 H 59.4171 -5.02809 6.45852 0
M  V30 641 N 62.0802 -0.821533 -1.34494 0
M  V30 642 C 63.0102 -0.257138 -2.3208 0
M  V30 643 C 63.9912 0.625645 -1.58176 0
M  V30 644 O 65.1762 0.552811 -1.86166 0
M  V30 645 C 62.3062 0.582958 -3.42372 0
M  V30 646 C 61.2602 -0.202571 -4.2752 0
M  V30 647 C 60.5862 0.760179 -5.29269 0
M  V30 648 C 61.8862 -1.40998 -5.02908 0
M  V30 649 H 63.5802 -1.07247 -2.79532 0
M  V30 650 H 61.1262 -0.517163 -1.34393 0
M  V30 651 H 63.0792 0.987972 -4.09655 0
M  V30 652 H 61.8032 1.43133 -2.93565 0
M  V30 653 H 60.4622 -0.588936 -3.61838 0
M  V30 654 H 60.1102 1.60447 -4.76724 0
M  V30 655 H 59.8102 0.238809 -5.87115 0
M  V30 656 H 61.3342 1.16308 -5.9942 0
M  V30 657 H 62.7482 -1.07905 -5.63054 0
M  V30 658 H 61.1452 -1.86689 -5.70322 0
M  V30 659 H 62.2152 -2.1889 -4.32684 0
M  V30 660 N 63.5583 1.46682 -0.576371 0
M  V30 661 C 64.9743 1.57822 -0.237562 0
M  V30 662 C 65.1743 1.57237 1.26011 0
M  V30 663 O 64.2303 1.48596 2.04146 0
M  V30 664 C 65.5433 2.87499 -0.881168 0
M  V30 665 C 67.0913 3.01119 -0.85417 0
M  V30 666 C 67.5663 4.33524 -1.4772 0
M  V30 667 N 69.0573 4.40207 -1.44125 0
M  V30 668 C 69.7923 5.4126 -1.89276 0
M  V30 669 N 69.2883 6.49021 -2.42371 0
M  V30 670 N 71.0813 5.32422 -1.80231 0
M  V30 671 H 63.2323 1.45306 -1.54919 0
M  V30 672 H 65.4953 0.692733 -0.647167 0
M  V30 673 H 65.2013 2.9372 -1.93447 0
M  V30 674 H 65.0753 3.75224 -0.385592 0
M  V30 675 H 67.4623 2.94485 0.190491 0
M  V30 676 H 67.5433 2.14887 -1.3877 0
M  V30 677 H 67.1873 4.40916 -2.52103 0
M  V30 678 H 67.1173 5.1852 -0.918947 0
M  V30 679 H 69.6083 3.62931 -1.05307 0
M  V30 680 H 69.9213 7.2233 -2.74698 0
M  V30 681 H 68.2663 6.49858 -2.46393 0
M  V30 682 H 71.4573 4.47137 -1.38514 0
M  V30 683 H 71.6303 6.11034 -2.15735 0
M  V30 684 N 65.0364 0.313813 1.54444 0
M  V30 685 C 66.2614 -0.296681 2.05267 0
M  V30 686 C 66.6864 -1.45757 1.18897 0
M  V30 687 O 66.0444 -1.80239 0.195886 0
M  V30 688 C 66.0924 -0.71831 3.53373 0
M  V30 689 O 65.1964 -1.82175 3.69981 0
M  V30 690 H 64.5374 -0.0554061 0.661684 0
M  V30 691 H 67.0674 0.459387 1.99376 0
M  V30 692 H 67.0774 -1.00364 3.95463 0
M  V30 693 H 65.7524 0.130821 4.15694 0
M  V30 694 H 64.3294 -1.53598 3.39797 0
M  V30 695 N 66.5145 -1.57545 0.0417849 0
M  V30 696 C 67.7445 -1.96339 -0.642995 0
M  V30 697 C 68.1525 -0.917536 -1.65463 0
M  V30 698 O 67.4955 0.107747 -1.83384 0
M  V30 699 C 67.5575 -3.31333 -1.39494 0
M  V30 700 C 67.2215 -4.53796 -0.540204 0
M  V30 701 C 68.2185 -5.19553 0.189806 0
M  V30 702 C 65.9035 -5.0006 -0.473886 0
M  V30 703 C 67.8975 -6.29904 0.974674 0
M  V30 704 C 65.5845 -6.10289 0.314677 0
M  V30 705 C 66.5825 -6.75072 1.03765 0
M  V30 706 O 66.2705 -7.83183 1.81327 0
M  V30 707 H 66.0025 -0.651241 -0.181277 0
M  V30 708 H 68.5565 -2.05148 0.101665 0
M  V30 709 H 66.7865 -3.19052 -2.18502 0
M  V30 710 H 68.4755 -3.54942 -1.96904 0
M  V30 711 H 69.2415 -4.84774 0.147981 0
M  V30 712 H 65.1205 -4.49433 -1.0262 0
M  V30 713 H 68.6645 -6.80401 1.5395 0
M  V30 714 H 64.5615 -6.44506 0.358174 0
M  V30 715 H 65.3295 -7.99913 1.73438 0
M  V30 716 N 67.9926 0.231505 -1.5589 0
M  V30 717 C 69.2226 0.973092 -1.82248 0
M  V30 718 C 69.6306 1.78845 -0.617328 0
M  V30 719 O 68.9736 1.78752 0.423499 0
M  V30 720 C 69.0356 1.94732 -3.02192 0
M  V30 721 C 68.6996 1.31743 -4.37599 0
M  V30 722 C 69.6966 0.712238 -5.14998 0
M  V30 723 C 67.3816 1.33218 -4.84312 0
M  V30 724 C 69.3756 0.130195 -6.37267 0
M  V30 725 C 67.0626 0.746286 -6.06526 0
M  V30 726 C 68.0606 0.146337 -6.82843 0
M  V30 727 O 67.7486 -0.430465 -8.02747 0
M  V30 728 H 67.4806 0.29125 -0.61004 0
M  V30 729 H 70.0346 0.254915 -2.03812 0
M  V30 730 H 68.2646 2.70422 -2.76422 0
M  V30 731 H 69.9536 2.55362 -3.15508 0
M  V30 732 H 70.7196 0.69324 -4.8002 0
M  V30 733 H 66.5986 1.78854 -4.24891 0
M  V30 734 H 70.1426 -0.33871 -6.96777 0
M  V30 735 H 66.0396 0.762663 -6.40979 0
M  V30 736 H 66.8076 -0.323818 -8.17859 0
M  V30 737 N 69.4707 1.49531 0.497807 0
M  V30 738 C 70.4207 1.62829 1.59596 0
M  V30 739 C 71.4047 0.483824 1.53453 0
M  V30 740 O 72.5967 0.736937 1.60929 0
M  V30 741 C 69.7257 1.7011 2.98191 0
M  V30 742 C 68.8117 2.90144 3.09317 0
M  V30 743 N 69.2027 4.1418 2.90324 0
M  V30 744 C 67.5007 2.88148 3.40422 0
M  V30 745 C 68.2017 4.94886 3.05717 0
M  V30 746 N 67.1777 4.28314 3.34736 0
M  V30 747 H 70.9797 2.56446 1.4357 0
M  V30 748 H 68.4937 1.46347 0.704001 0
M  V30 749 H 70.4907 1.77735 3.77115 0
M  V30 750 H 69.1507 0.776315 3.15283 0
M  V30 751 H 70.1617 4.44109 2.66436 0
M  V30 752 H 66.8387 2.05061 3.63671 0
M  V30 753 H 68.2287 6.03432 2.95499 0
M  V30 754 N 70.9488 -0.749086 1.3866 0
M  V30 755 C 72.3598 -1.32664 1.31366 0
M  V30 756 C 72.7108 -1.96179 -0.028484 0
M  V30 757 O 71.8358 -1.9537 -0.93057 0
M  V30 758 C 72.4308 -2.41219 2.37905 0
M  V30 759 C 70.9898 -2.94684 2.34176 0
M  V30 760 C 70.1368 -1.68108 2.20533 0
M  V30 761 H 73.0878 -0.547628 1.48952 0
M  V30 762 H 73.1088 -3.21268 2.0388 0
M  V30 763 H 72.6208 -1.94962 3.35576 0
M  V30 764 H 70.7218 -3.45258 1.401 0
M  V30 765 H 70.8348 -3.48757 3.2849 0
M  V30 766 H 69.1988 -1.91907 1.67463 0
M  V30 767 H 69.9818 -1.23923 3.20153 0
M  V30 768 N 72.4269 -1.23603 -0.977757 0
M  V30 769 C 73.6549 -1.09646 -1.75458 0
M  V30 770 C 74.0699 0.351859 -1.85492 0
M  V30 771 O 73.4269 1.24327 -1.336 0
M  V30 772 C 73.4779 -1.71895 -3.18016 0
M  V30 773 O 73.1989 -3.11063 -3.08498 0
M  V30 774 C 74.6999 -1.63415 -4.12081 0
M  V30 775 H 71.9199 -0.38359 -0.550545 0
M  V30 776 H 74.4639 -1.63507 -1.22824 0
M  V30 777 H 72.6189 -1.22061 -3.67668 0
M  V30 778 H 73.0329 -3.41305 -3.9826 0
M  V30 779 H 74.5069 -2.11669 -5.09804 0
M  V30 780 H 74.9839 -0.593462 -4.35172 0
M  V30 781 H 75.5899 -2.12628 -3.68334 0
M  V30 782 N 73.905 1.17692 -1.04816 0
M  V30 783 C 74.853 2.23632 -0.63966 0
M  V30 784 C 75.847 1.6601 0.337219 0
M  V30 785 O 77.053 1.78844 0.203693 0
M  V30 786 H 73.428 0.727949 -0.188665 0
M  V30 787 H 75.399 2.55387 -1.54337 0
M  V30 788 C 74.148 3.4769 -0.0264051 0
M  V30 789 H 73.471 3.92331 -0.769164 0
M  V30 790 H 74.911 4.23418 0.222098 0
M  V30 791 C 73.37 3.13807 1.22584 0
M  V30 792 O 73.9 3.28236 2.31569 0
M  V30 793 N 72.106 2.68065 1.12202 0
M  V30 794 H 71.653 2.56525 0.235133 0
M  V30 795 H 71.611 2.45767 1.96076 0
M  V30 796 N 75.3831 0.828654 1.34056 0
M  V30 797 C 76.3131 0.269443 2.3194 0
M  V30 798 C 77.2941 -0.617247 1.58506 0
M  V30 799 O 78.4791 -0.542931 1.86456 0
M  V30 800 C 75.6091 -0.564793 3.42677 0
M  V30 801 C 74.5631 0.225241 4.27407 0
M  V30 802 C 73.8891 -0.7321 5.29664 0
M  V30 803 C 75.1891 1.43663 5.02154 0
M  V30 804 H 76.8831 1.08728 2.7896 0
M  V30 805 H 74.4291 0.524283 1.34117 0
M  V30 806 H 76.3821 -0.966233 4.10173 0
M  V30 807 H 75.1061 -1.41574 2.9432 0
M  V30 808 H 73.7651 0.608117 3.61521 0
M  V30 809 H 73.4131 -1.57916 4.77568 0
M  V30 810 H 73.1131 -0.20767 5.87233 0
M  V30 811 H 74.6371 -1.13128 6.00029 0
M  V30 812 H 76.0511 1.1089 5.62473 0
M  V30 813 H 74.4481 1.89711 5.69324 0
M  V30 814 H 75.5181 2.21181 4.31517 0
M  V30 815 N 76.8612 -1.46375 0.584142 0
M  V30 816 C 77.8242 -2.28784 -0.138108 0
M  V30 817 C 78.8242 -1.38471 -0.817462 0
M  V30 818 O 80.0142 -1.60833 -0.669199 0
M  V30 819 C 77.1462 -3.18892 -1.20503 0
M  V30 820 H 78.3392 -2.94117 0.586127 0
M  V30 821 H 75.8922 -1.52509 0.342171 0
M  V30 822 H 76.6272 -2.58309 -1.96079 0
M  V30 823 H 76.4122 -3.85388 -0.722384 0
M  V30 824 H 77.9022 -3.80914 -1.71155 0
M  V30 825 N 78.3393 -0.321999 -1.54275 0
M  V30 826 C 79.5873 0.280489 -2.00144 0
M  V30 827 C 79.9083 1.52777 -1.21178 0
M  V30 828 O 79.1783 1.9338 -0.313187 0
M  V30 829 H 77.7583 0.106632 -0.73935 0
M  V30 830 H 80.4203 -0.438184 -1.8991 0
M  V30 831 H 79.5163 0.537972 -3.07428 0
M  V30 832 N 79.8174 1.5752 -0.0501392 0
M  V30 833 C 81.0664 1.91827 0.623328 0
M  V30 834 C 81.3794 0.930222 1.72065 0
M  V30 835 O 82.5854 1.1653 2.4522 0
M  V30 836 C 81.0414 3.40692 1.16003 0
M  V30 837 C 80.6494 4.479 0.0948811 0
M  V30 838 C 82.3934 3.84034 1.80881 0
M  V30 839 C 80.3004 5.87879 0.644411 0
M  V30 840 H 79.2304 0.715918 0.236596 0
M  V30 841 H 81.8814 1.83115 -0.118861 0
M  V30 842 H 80.2634 3.44405 1.9545 0
M  V30 843 H 81.4374 4.55775 -0.678675 0
M  V30 844 H 79.7524 4.13892 -0.45637 0
M  V30 845 H 82.3494 4.85984 2.22988 0
M  V30 846 H 82.6924 3.20225 2.6601 0
M  V30 847 H 83.2254 3.82833 1.0809 0
M  V30 848 H 79.9644 6.55282 -0.169229 0
M  V30 849 H 79.4844 5.83567 1.38598 0
M  V30 850 H 81.1634 6.37098 1.12763 0
M  V30 851 N 81.2955 -0.223234 1.56011 0
M  V30 852 C 82.2255 -1.27988 1.95298 0
M  V30 853 C 83.2065 -1.48976 0.820979 0
M  V30 854 O 84.3915 -1.61188 1.08315 0
M  V30 855 C 81.5215 -2.63 2.26822 0
M  V30 856 C 80.4755 -2.56671 3.42497 0
M  V30 857 C 79.8015 -3.95697 3.59622 0
M  V30 858 C 81.1015 -2.11601 4.77517 0
M  V30 859 H 82.7955 -0.953525 2.8381 0
M  V30 860 H 80.3415 -0.457244 1.36548 0
M  V30 861 H 82.2945 -3.37077 2.52898 0
M  V30 862 H 81.0185 -2.9732 1.35161 0
M  V30 863 H 79.6775 -1.85051 3.16467 0
M  V30 864 H 79.3255 -4.27322 2.6534 0
M  V30 865 H 79.0255 -3.92345 4.37424 0
M  V30 866 H 80.5495 -4.71438 3.88044 0
M  V30 867 H 81.9635 -2.7542 5.02809 0
M  V30 868 H 80.3605 -2.19311 5.5859 0
M  V30 869 H 81.4305 -1.06824 4.72987 0
M  V30 870 N 82.7736 -1.49793 -0.48987 0
M  V30 871 C 83.7206 -1.67281 -1.59014 0
M  V30 872 C 84.6906 -0.514177 -1.57941 0
M  V30 873 O 85.8756 -0.742533 -1.75759 0
M  V30 874 C 83.0156 -1.75569 -2.97102 0
M  V30 875 C 82.1286 -3.0281 -3.08107 0
M  V30 876 C 81.2636 -3.02008 -4.36995 0
M  V30 877 C 80.3026 -4.23782 -4.41673 0
M  V30 878 N 79.4396 -4.20826 -5.62005 0
M  V30 879 H 84.2796 -2.61224 -1.43409 0
M  V30 880 H 81.8166 -1.29508 -0.697565 0
M  V30 881 H 83.7746 -1.78354 -3.77155 0
M  V30 882 H 82.4046 -0.850827 -3.11385 0
M  V30 883 H 81.4566 -3.09584 -2.21047 0
M  V30 884 H 82.7686 -3.92801 -3.07423 0
M  V30 885 H 81.9226 -3.03418 -5.25378 0
M  V30 886 H 80.6616 -2.09815 -4.4026 0
M  V30 887 H 79.6666 -4.22604 -3.5169 0
M  V30 888 H 80.8916 -5.17181 -4.40115 0
M  V30 889 H 78.8376 -3.31476 -5.66091 0
M  V30 890 H 78.7546 -5.04564 -5.62984 0
M  V30 891 H 80.0226 -4.26355 -6.52565 0
M  V30 892 N 84.2517 0.741722 -1.39055 0
M  V30 893 C 85.1617 1.88621 -1.39496 0
M  V30 894 C 86.1777 1.71557 -0.290578 0
M  V30 895 O 87.3537 1.94275 -0.530954 0
M  V30 896 C 84.4187 3.24134 -1.23037 0
M  V30 897 C 83.4797 3.5364 -2.43387 0
M  V30 898 C 82.7127 4.82687 -2.27703 0
M  V30 899 O 82.9357 5.55922 -1.27696 0
M  V30 900 O 81.8697 5.1194 -3.16545 0
M  V30 901 H 85.6957 1.91203 -2.35956 0
M  V30 902 H 83.2807 0.888625 -1.20099 0
M  V30 903 H 85.1627 4.0513 -1.15964 0
M  V30 904 H 83.8377 3.22337 -0.296691 0
M  V30 905 H 82.7447 2.72758 -2.56035 0
M  V30 906 H 84.0777 3.60209 -3.35425 0
M  V30 907 N 85.7298 1.2412 0.971189 0
M  V30 908 C 86.6778 1.02812 2.08644 0
M  V30 909 C 87.6718 -0.0358403 1.69362 0
M  V30 910 O 88.8778 0.118429 1.7961 0
M  V30 911 H 85.2528 0.315428 0.682649 0
M  V30 912 H 87.2238 1.97397 2.23779 0
M  V30 913 C 85.9728 0.645874 3.41649 0
M  V30 914 H 85.2958 1.45632 3.72332 0
M  V30 915 H 86.7358 0.536366 4.20594 0
M  V30 916 C 85.1948 -0.646713 3.30635 0
M  V30 917 O 85.7248 -1.69338 3.64263 0
M  V30 918 N 83.9308 -0.626115 2.83775 0
M  V30 919 H 83.4778 0.225988 2.56607 0
M  V30 920 H 83.4358 -1.49117 2.76788 0
M  V30 921 N 87.2079 -1.17134 1.05439 0
M  V30 922 C 88.1709 -2.19439 0.661764 0
M  V30 923 C 89.1709 -1.58199 -0.288042 0
M  V30 924 O 90.3609 -1.74053 -0.0715803 0
M  V30 925 C 87.4929 -3.40889 -0.0276209 0
M  V30 926 H 88.6859 -2.55688 1.56728 0
M  V30 927 H 86.2389 -1.31259 0.848567 0
M  V30 928 H 86.9739 -3.10187 -0.94629 0
M  V30 929 H 86.7589 -3.86586 0.655238 0
M  V30 930 H 88.2489 -4.16603 -0.288342 0
M  V30 931 N 88.686 -0.835752 -1.33615 0
M  V30 932 C 89.649 -0.272 -2.2758 0
M  V30 933 C 90.649 0.557487 -1.50827 0
M  V30 934 O 91.839 0.37173 -1.70188 0
M  V30 935 C 88.971 0.617173 -3.35267 0
M  V30 936 H 90.164 -1.10111 -2.78954 0
M  V30 937 H 87.717 -0.608594 -1.43965 0
M  V30 938 H 88.452 1.46884 -2.89129 0
M  V30 939 H 88.237 0.0237066 -3.92093 0
M  V30 940 H 89.727 1.005 -4.05326 0
M  V30 941 N 90.1641 1.46063 -0.591896 0
M  V30 942 C 91.3891 2.07226 -0.0850314 0
M  V30 943 C 91.8141 1.43625 1.21463 0
M  V30 944 O 91.1721 0.523305 1.73583 0
M  V30 945 C 91.2201 3.60554 0.0576567 0
M  V30 946 O 90.3241 3.97128 1.11188 0
M  V30 947 H 89.6651 0.660615 -0.0669568 0
M  V30 948 H 92.1951 1.8756 -0.81745 0
M  V30 949 H 92.2051 4.07165 0.2609 0
M  V30 950 H 90.8801 4.06235 -0.891416 0
M  V30 951 H 89.4571 3.62213 0.886356 0
M  V30 952 N 91.6422 0.330177 1.54103 0
M  V30 953 C 92.8672 -0.274893 2.0557 0
M  V30 954 C 93.2922 -1.44487 1.20437 0
M  V30 955 O 92.6502 -1.80021 0.214991 0
M  V30 956 C 92.6982 -0.68079 3.54115 0
M  V30 957 O 91.8022 -1.7824 3.71893 0
M  V30 958 H 91.1432 -0.0483849 0.662235 0
M  V30 959 H 93.6732 0.480508 1.98878 0
M  V30 960 H 93.6832 -0.961635 3.96505 0
M  V30 961 H 92.3582 0.174903 4.15532 0
M  V30 962 H 90.9352 -1.49985 3.41407 0
M  V30 963 N 93.1203 -1.57491 0.0584922 0
M  V30 964 C 94.0533 -2.07533 -0.948969 0
M  V30 965 C 95.0313 -0.977444 -1.29942 0
M  V30 966 O 96.2153 -1.2499 -1.41102 0
M  V30 967 C 93.3423 -2.52192 -2.2609 0
M  V30 968 C 92.3883 -3.73287 -2.06298 0
M  V30 969 S 93.2213 -5.18603 -1.33459 0
M  V30 970 C 94.3773 -5.66583 -2.65959 0
M  V30 971 H 94.6103 -2.92662 -0.523118 0
M  V30 972 H 92.1433 -1.53631 -0.153954 0
M  V30 973 H 94.1013 -2.78585 -3.01498 0
M  V30 974 H 92.7623 -1.67356 -2.65802 0
M  V30 975 H 91.9553 -4.0248 -3.03357 0
M  V30 976 H 91.5573 -3.47199 -1.39029 0
M  V30 977 H 93.8493 -5.72616 -3.62101 0
M  V30 978 H 94.7923 -6.65684 -2.41393 0
M  V30 979 H 95.2003 -4.94342 -2.72554 0
M  V30 980 N 94.5984 0.214957 -1.56127 0
M  V30 981 C 95.8264 0.955092 -1.83536 0
M  V30 982 C 96.2414 1.77677 -0.638472 0
M  V30 983 O 95.5984 1.78219 0.392968 0
M  V30 984 C 95.6494 1.86734 -3.09536 0
M  V30 985 O 95.3704 1.07887 -4.24608 0
M  V30 986 C 96.8714 2.72082 -3.4998 0
M  V30 987 H 94.0914 0.279611 -0.609966 0
M  V30 988 H 96.6354 0.228197 -2.03223 0
M  V30 989 H 94.7904 2.5481 -2.91806 0
M  V30 990 H 95.2044 1.69872 -4.9623 0
M  V30 991 H 96.6784 3.31782 -4.41163 0
M  V30 992 H 97.1554 3.44806 -2.7204 0
M  V30 993 H 97.7614 2.09409 -3.70173 0
M  V30 994 N 96.0765 1.50051 0.48192 0
M  V30 995 C 96.9865 1.7089 1.60728 0
M  V30 996 C 98.0025 0.591788 1.63627 0
M  V30 997 O 99.1785 0.868817 1.81696 0
M  V30 998 C 96.2435 1.78855 2.97005 0
M  V30 999 C 95.3045 3.02537 3.04581 0
M  V30 1000 C 94.5375 3.10112 4.34357 0
M  V30 1001 O 94.7605 2.24765 5.24249 0
M  V30 1002 O 93.6945 4.02747 4.47301 0
M  V30 1003 H 97.5205 2.66264 1.46072 0
M  V30 1004 H 95.1055 1.34018 0.660264 0
M  V30 1005 H 96.9875 1.86336 3.77964 0
M  V30 1006 H 95.6625 0.866628 3.11883 0
M  V30 1007 H 94.5695 3.00563 2.22739 0
M  V30 1008 H 95.9025 3.94272 2.94636 0
M  V30 1009 N 97.5546 -0.734337 1.39446 0
M  V30 1010 C 98.9706 -1.03997 1.21065 0
M  V30 1011 C 99.1706 -2.01369 0.0727019 0
M  V30 1012 O 98.2266 -2.45856 -0.575426 0
M  V30 1013 C 99.5396 -1.60163 2.54496 0
M  V30 1014 C 101.088 -1.7224 2.61347 0
M  V30 1015 C 101.563 -2.31814 3.95002 0
M  V30 1016 N 103.054 -2.39223 3.96644 0
M  V30 1017 C 103.789 -2.86258 4.96834 0
M  V30 1018 N 103.285 -3.33184 6.07421 0
M  V30 1019 N 105.078 -2.85473 4.84213 0
M  V30 1020 H 97.2286 -0.0885624 2.12215 0
M  V30 1021 H 99.4916 -0.10191 0.942506 0
M  V30 1022 H 99.1976 -0.960811 3.38321 0
M  V30 1023 H 99.0716 -2.5896 2.74262 0
M  V30 1024 H 101.459 -2.35443 1.77906 0
M  V30 1025 H 101.54 -0.720939 2.4543 0
M  V30 1026 H 101.184 -1.69238 4.78875 0
M  V30 1027 H 101.114 -3.32638 4.08239 0
M  V30 1028 H 103.605 -2.06057 3.16779 0
M  V30 1029 H 103.918 -3.67586 6.7978 0
M  V30 1030 H 102.263 -3.31191 6.11013 0
M  V30 1031 H 105.454 -2.48136 3.96921 0
M  V30 1032 H 105.627 -3.21814 5.62441 0
M  V30 1033 N 99.0327 -1.24633 -0.964593 0
M  V30 1034 C 99.9627 -1.06611 -2.07741 0
M  V30 1035 C 100.944 0.0218666 -1.70086 0
M  V30 1036 O 102.129 -0.145793 -1.93652 0
M  V30 1037 C 99.2587 -0.673444 -3.40708 0
M  V30 1038 C 98.2127 -1.71054 -3.92332 0
M  V30 1039 C 97.5387 -1.17285 -5.21678 0
M  V30 1040 C 98.8387 -3.10718 -4.19824 0
M  V30 1041 H 100.533 -1.99693 -2.23076 0
M  V30 1042 H 98.0787 -0.96152 -1.07195 0
M  V30 1043 H 100.032 -0.534345 -4.17998 0
M  V30 1044 H 98.7557 0.293073 -3.25282 0
M  V30 1045 H 97.4147 -1.83791 -3.17201 0
M  V30 1046 H 97.0627 -0.196847 -5.02615 0
M  V30 1047 H 96.7627 -1.86592 -5.57187 0
M  V30 1048 H 98.2867 -1.04593 -6.01575 0
M  V30 1049 H 99.7007 -3.01192 -4.87808 0
M  V30 1050 H 98.0977 -3.77406 -4.66567 0
M  V30 1051 H 99.1677 -3.58524 -3.26479 0
M  V30 1052 N 100.511 1.16574 -1.06058 0
M  V30 1053 C 101.927 1.3904 -0.783585 0
M  V30 1054 C 102.127 1.91784 0.618145 0
M  V30 1055 O 101.183 2.11511 1.37911 0
M  V30 1056 C 102.496 2.37329 -1.84649 0
M  V30 1057 C 104.044 2.51018 -1.86973 0
M  V30 1058 C 104.519 3.52588 -2.92311 0
M  V30 1059 N 106.01 3.60113 -2.91329 0
M  V30 1060 C 106.745 4.38486 -3.69482 0
M  V30 1061 N 106.241 5.20302 -4.57447 0
M  V30 1062 N 108.034 4.33446 -3.57885 0
M  V30 1063 H 100.185 0.806725 -1.96483 0
M  V30 1064 H 102.448 0.417117 -0.851303 0
M  V30 1065 H 102.154 2.05663 -2.85299 0
M  V30 1066 H 102.028 3.36946 -1.6955 0
M  V30 1067 H 104.415 2.81989 -0.869827 0
M  V30 1068 H 104.496 1.51445 -2.0615 0
M  V30 1069 H 104.14 3.22354 -3.92492 0
M  V30 1070 H 104.07 4.51886 -2.70383 0
M  V30 1071 H 106.561 3.01707 -2.27555 0
M  V30 1072 H 106.874 5.77311 -5.13743 0
M  V30 1073 H 105.219 5.19653 -4.61503 0
M  V30 1074 H 108.41 3.68586 -2.88551 0
M  V30 1075 H 108.583 4.94279 -4.19037 0
M  V30 1076 N 101.989 0.842826 1.3317 0
M  V30 1077 C 102.899 0.281444 2.32906 0
M  V30 1078 C 103.915 -0.594587 1.63526 0
M  V30 1079 O 105.091 -0.49777 1.95152 0
M  V30 1080 C 102.156 -0.530929 3.42611 0
M  V30 1081 C 101.217 0.369843 4.27704 0
M  V30 1082 C 100.45 -0.403853 5.3217 0
M  V30 1083 O 100.673 -1.63513 5.46461 0
M  V30 1084 O 99.6069 0.224199 6.01482 0
M  V30 1085 H 103.433 1.10744 2.82789 0
M  V30 1086 H 101.018 0.60545 1.36582 0
M  V30 1087 H 102.9 -0.992437 4.09547 0
M  V30 1088 H 101.575 -1.33392 2.94938 0
M  V30 1089 H 100.482 0.879275 3.6362 0
M  V30 1090 H 101.815 1.13771 4.78871 0
M  V30 1091 N 103.467 -1.45747 0.599634 0
M  V30 1092 C 104.4 -2.27547 -0.172552 0
M  V30 1093 C 105.378 -1.36657 -0.881116 0
M  V30 1094 O 106.562 -1.66081 -0.891595 0
M  V30 1095 C 103.689 -3.14829 -1.24903 0
M  V30 1096 C 102.735 -4.21603 -0.644465 0
M  V30 1097 S 103.568 -5.32754 0.541606 0
M  V30 1098 C 104.724 -6.23604 -0.535656 0
M  V30 1099 H 104.957 -2.92691 0.521468 0
M  V30 1100 H 102.49 -1.49473 0.386947 0
M  V30 1101 H 104.448 -3.65675 -1.86527 0
M  V30 1102 H 103.109 -2.48965 -1.91508 0
M  V30 1103 H 102.302 -4.82566 -1.45417 0
M  V30 1104 H 101.904 -3.73857 -0.103534 0
M  V30 1105 H 104.196 -6.62519 -1.41686 0
M  V30 1106 H 105.139 -7.0809 0.0376246 0
M  V30 1107 H 105.547 -5.58103 -0.84741 0
M  V30 1108 N 104.945 -0.338344 -1.53925 0
M  V30 1109 C 105.877 0.555117 -2.22376 0
M  V30 1110 C 106.89 1.06812 -1.22862 0
M  V30 1111 O 108.079 0.979163 -1.49247 0
M  V30 1112 C 105.179 1.77609 -2.88631 0
M  V30 1113 C 104.352 1.39927 -4.14414 0
M  V30 1114 C 103.411 2.47936 -4.64127 0
M  V30 1115 O 102.437 2.11461 -5.28463 0
M  V30 1116 N 103.639 3.79107 -4.39612 0
M  V30 1117 H 106.404 -0.0310778 -2.99684 0
M  V30 1118 H 103.965 -0.162226 -1.61085 0
M  V30 1119 H 105.957 2.49287 -3.18807 0
M  V30 1120 H 104.527 2.26978 -2.14941 0
M  V30 1121 H 103.747 0.513481 -3.90841 0
M  V30 1122 H 105.035 1.12341 -4.96243 0
M  V30 1123 H 104.433 4.11531 -3.88148 0
M  V30 1124 H 102.99 4.4697 -4.74406 0
M  V30 1125 N 106.423 1.57458 -0.0668435 0
M  V30 1126 C 107.648 1.9804 0.616027 0
M  V30 1127 C 108.073 0.944771 1.62652 0
M  V30 1128 O 107.431 -0.0902094 1.81075 0
M  V30 1129 C 107.479 3.37665 1.26549 0
M  V30 1130 O 106.583 3.36701 2.38131 0
M  V30 1131 H 105.924 0.644719 0.158849 0
M  V30 1132 H 108.454 2.04121 -0.139891 0
M  V30 1133 H 108.464 3.7474 1.6135 0
M  V30 1134 H 107.139 4.12573 0.525016 0
M  V30 1135 H 105.716 3.1139 2.0516 0
M  V30 1136 N 107.901 -0.206675 1.56239 0
M  V30 1137 C 109.148 -0.928842 1.79941 0
M  V30 1138 C 109.476 -1.83734 0.638131 0
M  V30 1139 O 108.731 -1.92039 -0.376746 0
M  V30 1140 C 109.03 -1.78675 3.09532 0
M  V30 1141 C 108.696 -1.03022 4.38973 0
M  V30 1142 C 107.358 -0.821302 4.74139 0
M  V30 1143 C 109.71 -0.497081 5.18824 0
M  V30 1144 C 107.038 -0.0675719 5.86661 0
M  V30 1145 C 109.39 0.24338 6.32132 0
M  V30 1146 C 108.054 0.463422 6.65889 0
M  V30 1147 H 107.324 -0.339887 0.658451 0
M  V30 1148 H 109.971 -0.195977 1.90495 0
M  V30 1149 H 108.276 -2.58794 2.94165 0
M  V30 1150 H 109.973 -2.34792 3.25075 0
M  V30 1151 H 106.563 -1.20306 4.11369 0
M  V30 1152 H 110.747 -0.645921 4.92079 0
M  V30 1153 H 106.003 0.112995 6.11296 0
M  V30 1154 H 110.177 0.66393 6.93228 0
M  V30 1155 H 107.804 1.04938 7.52922 0
M  V30 1156 N 109.379 -1.50304 -0.473955 0
M  V30 1157 C 110.626 -1.6115 -1.22625 0
M  V30 1158 C 110.954 -0.310517 -1.92005 0
M  V30 1159 O 110.209 0.703419 -1.82621 0
M  V30 1160 C 110.508 -2.73938 -2.29549 0
M  V30 1161 C 110.174 -4.14519 -1.7744 0
M  V30 1162 C 108.836 -4.5277 -1.62949 0
M  V30 1163 C 111.188 -5.02392 -1.3875 0
M  V30 1164 C 108.516 -5.76639 -1.08187 0
M  V30 1165 C 110.868 -6.26805 -0.854309 0
M  V30 1166 C 109.532 -6.63861 -0.696011 0
M  V30 1167 H 108.802 -0.589691 -0.448715 0
M  V30 1168 H 111.449 -1.84228 -0.522705 0
M  V30 1169 H 109.754 -2.44937 -3.05799 0
M  V30 1170 H 111.451 -2.79534 -2.87509 0
M  V30 1171 H 108.041 -3.8434 -1.89685 0
M  V30 1172 H 112.225 -4.73474 -1.4878 0
M  V30 1173 H 107.481 -6.04027 -0.946666 0
M  V30 1174 H 111.655 -6.94258 -0.545843 0
M  V30 1175 H 109.282 -7.59722 -0.26952 0
M  V30 1176 N 110.857 0.726932 -1.39834 0
M  V30 1177 C 112.105 1.4837 -1.37225 0
M  V30 1178 C 112.426 1.94979 0.0284857 0
M  V30 1179 O 111.696 1.69555 0.981213 0
M  V30 1180 H 110.276 0.55043 -0.505011 0
M  V30 1181 H 112.938 0.862468 -1.74778 0
M  V30 1182 H 112.034 2.36198 -2.04003 0
M  V30 1183 N 112.336 1.25143 0.95797 0
M  V30 1184 C 113.266 1.07711 2.07173 0
M  V30 1185 C 114.247 -0.0128462 1.70095 0
M  V30 1186 O 115.432 0.156061 1.93572 0
M  V30 1187 C 112.562 0.691503 3.40346 0
M  V30 1188 C 111.516 1.73132 3.9142 0
M  V30 1189 C 110.842 1.20049 5.21049 0
M  V30 1190 C 112.142 3.1294 4.1817 0
M  V30 1191 H 113.836 2.00873 2.22014 0
M  V30 1192 H 111.382 0.967191 1.06684 0
M  V30 1193 H 113.335 0.556505 4.17709 0
M  V30 1194 H 112.059 -0.275819 3.25433 0
M  V30 1195 H 110.718 1.8547 3.16222 0
M  V30 1196 H 110.366 0.223499 5.02503 0
M  V30 1197 H 110.066 1.89545 5.56189 0
M  V30 1198 H 111.59 1.07782 6.01012 0
M  V30 1199 H 113.004 3.03775 4.86203 0
M  V30 1200 H 111.401 3.79875 4.64559 0
M  V30 1201 H 112.471 3.6025 3.24573 0
M  V30 1202 N 113.814 -1.1601 1.06675 0
M  V30 1203 C 114.724 -2.24156 0.692179 0
M  V30 1204 C 115.74 -1.71507 -0.293513 0
M  V30 1205 O 116.916 -2.009 -0.141861 0
M  V30 1206 C 113.981 -3.46587 0.0884131 0
M  V30 1207 C 113.042 -4.14257 1.12646 0
M  V30 1208 C 112.275 -5.30844 0.551416 0
M  V30 1209 O 112.498 -5.66858 -0.634656 0
M  V30 1210 O 111.432 -5.87848 1.29298 0
M  V30 1211 H 115.258 -2.58513 1.59388 0
M  V30 1212 H 112.843 -1.23599 0.83926 0
M  V30 1213 H 114.725 -4.20679 -0.246361 0
M  V30 1214 H 113.4 -3.13994 -0.786712 0
M  V30 1215 H 112.307 -3.42118 1.51348 0
M  V30 1216 H 113.64 -4.50914 1.97325 0
M  V30 1217 N 115.292 -0.849877 -1.32721 0
M  V30 1218 C 116.538 -0.451591 -1.97708 0
M  V30 1219 C 116.871 0.989175 -1.6712 0
M  V30 1220 O 116.146 1.69334 -0.956891 0
M  V30 1221 C 116.429 -0.685598 -3.53513 0
M  V30 1222 C 116.282 -2.17444 -3.93749 0
M  V30 1223 C 117.601 -0.138874 -4.39881 0
M  V30 1224 H 114.72 -0.16555 -0.718166 0
M  V30 1225 H 117.362 -1.06742 -1.57182 0
M  V30 1226 H 115.512 -0.161416 -3.88165 0
M  V30 1227 H 117.184 -2.76433 -3.693 0
M  V30 1228 H 115.427 -2.65476 -3.43081 0
M  V30 1229 H 116.098 -2.28888 -5.02309 0
M  V30 1230 H 118.574 -0.587068 -4.11938 0
M  V30 1231 H 117.45 -0.332213 -5.47894 0
M  V30 1232 H 117.711 0.95806 -4.31594 0
M  V30 1233 N 116.77 1.45427 -0.607355 0
M  V30 1234 C 117.998 2.06614 -0.108814 0
M  V30 1235 C 118.413 1.45204 1.2067 0
M  V30 1236 O 117.77 0.566132 1.73497 0
M  V30 1237 C 117.821 3.61481 0.0375347 0
M  V30 1238 O 117.542 4.20598 -1.22593 0
M  V30 1239 C 119.043 4.39652 0.567561 0
M  V30 1240 H 116.263 0.66747 -0.0687351 0
M  V30 1241 H 118.807 1.86675 -0.835022 0
M  V30 1242 H 116.962 3.80762 0.714068 0
M  V30 1243 H 117.376 5.1377 -1.05547 0
M  V30 1244 H 118.85 5.48518 0.61905 0
M  V30 1245 H 119.327 4.09417 1.58978 0
M  V30 1246 H 119.933 4.25234 -0.0749202 0
M  V30 1247 N 118.248 0.346503 1.53744 0
M  V30 1248 C 119.496 -0.248612 2.00565 0
M  V30 1249 C 119.817 -1.5083 1.23593 0
M  V30 1250 O 119.087 -1.92858 0.343912 0
M  V30 1251 H 117.667 -0.0948564 0.740953 0
M  V30 1252 H 120.329 0.468341 1.89189 0
M  V30 1253 H 119.425 -0.488994 3.08245 0
M  V30 1254 N 119.726 -1.57421 0.075193 0
M  V30 1255 C 120.673 -2.12915 -0.890843 0
M  V30 1256 C 121.643 -1.04252 -1.29309 0
M  V30 1257 O 122.828 -1.31933 -1.37834 0
M  V30 1258 C 119.968 -2.69795 -2.15186 0
M  V30 1259 C 119.081 -3.92624 -1.80194 0
M  V30 1260 C 118.216 -4.37736 -3.00933 0
M  V30 1261 C 117.255 -5.53205 -2.61974 0
M  V30 1262 N 116.392 -5.9326 -3.75483 0
M  V30 1263 H 121.232 -2.95156 -0.410735 0
M  V30 1264 H 118.769 -1.45854 -0.191086 0
M  V30 1265 H 120.727 -3.00883 -2.89008 0
M  V30 1266 H 119.357 -1.90313 -2.60731 0
M  V30 1267 H 118.409 -3.67977 -0.964218 0
M  V30 1268 H 119.721 -4.76482 -1.47534 0
M  V30 1269 H 118.875 -4.70503 -3.8303 0
M  V30 1270 H 117.614 -3.52739 -3.36789 0
M  V30 1271 H 116.619 -5.20086 -1.783 0
M  V30 1272 H 117.844 -6.39936 -2.27284 0
M  V30 1273 H 115.79 -5.11212 -4.11094 0
M  V30 1274 H 115.707 -6.71865 -3.46602 0
M  V30 1275 H 116.975 -6.30651 -4.58148 0
M  V30 1276 N 121.204 0.198386 -1.56346 0
M  V30 1277 C 122.134 1.24865 -1.9731 0
M  V30 1278 C 123.115 1.47651 -0.844576 0
M  V30 1279 O 124.3 1.59444 -1.10866 0
M  V30 1280 C 121.43 2.59358 -2.30977 0
M  V30 1281 C 120.384 2.5119 -3.46537 0
M  V30 1282 C 119.71 3.89926 -3.65871 0
M  V30 1283 C 121.01 2.03977 -4.80823 0
M  V30 1284 H 122.704 0.908252 -2.85291 0
M  V30 1285 H 120.25 0.435462 -1.37258 0
M  V30 1286 H 122.203 3.33011 -2.58228 0
M  V30 1287 H 120.927 2.95132 -1.39874 0
M  V30 1288 H 119.586 1.79993 -3.19371 0
M  V30 1289 H 119.234 4.23046 -2.72105 0
M  V30 1290 H 118.934 3.85336 -4.4361 0
M  V30 1291 H 120.458 4.65205 -3.95495 0
M  V30 1292 H 121.872 2.67386 -5.07127 0
M  V30 1293 H 120.269 2.10397 -5.62008 0
M  V30 1294 H 121.339 0.992861 -4.74626 0
M  V30 1295 N 122.682 1.50554 0.465978 0
M  V30 1296 C 123.959 1.5232 1.22712 0
M  V30 1297 C 124.339 0.270807 2.09356 0
M  V30 1298 O 123.687 -0.745541 2.15995 0
M  V30 1299 C 123.897 2.82175 2.05374 0
M  V30 1300 C 125.245 3.33033 2.6339 0
M  V30 1301 O 126.269 2.83531 2.15612 0
M  V30 1302 O 125.128 4.19336 3.50456 0
M  V30 1303 H 122.222 0.611183 0.557122 0
M  V30 1304 H 124.768 1.62847 0.477381 0
M  V30 1305 H 123.54 3.64797 1.41558 0
M  V30 1306 H 123.163 2.74675 2.87471 0
M  V30 1307 N 124.16 -0.719506 1.40217 0
M  V30 1308 C 125.437 -1.47221 1.28784 0
M  V30 1309 C 125.817 -2.10883 -0.0956067 0
M  V30 1310 O 125.165 -1.99833 -1.10811 0
M  V30 1311 C 125.375 -2.5111 2.42373 0
M  V30 1312 C 126.723 -3.17053 2.82423 0
M  V30 1313 O 127.747 -2.61429 2.41937 0
M  V30 1314 O 126.606 -4.17742 3.52355 0
M  V30 1315 H 123.7 -0.654491 0.50554 0
M  V30 1316 H 126.246 -0.752014 1.52128 0
M  V30 1317 H 125.018 -2.02556 3.34793 0
M  V30 1318 H 124.641 -3.3067 2.20778 0
M  V30 1319 N 125.638 -1.25649 -0.95132 0
M  V30 1320 C 126.586 -1.06118 -2.06982 0
M  V30 1321 C 127.58 0.00889169 -1.69398 0
M  V30 1322 O 128.786 -0.146988 -1.79399 0
M  V30 1323 H 125.161 -0.326248 -0.677544 0
M  V30 1324 H 127.132 -2.00932 -2.2061 0
M  V30 1325 C 125.881 -0.700145 -3.40578 0
M  V30 1326 H 125.204 -1.51537 -3.69968 0
M  V30 1327 H 126.644 -0.603211 -4.19687 0
M  V30 1328 C 125.103 0.59403 -3.31622 0
M  V30 1329 O 125.633 1.63522 -3.66911 0
M  V30 1330 N 123.839 0.58089 -2.84735 0
M  V30 1331 H 123.386 -0.266783 -2.56215 0
M  V30 1332 H 123.344 1.44695 -2.79125 0
M  V30 1333 N 127.117 1.15442 -1.07289 0
M  V30 1334 C 128.345 1.90096 -0.81676 0
M  V30 1335 C 128.76 1.7798 0.629966 0
M  V30 1336 O 128.117 1.1313 1.43206 0
M  V30 1337 C 128.168 3.40466 -1.21512 0
M  V30 1338 O 127.889 3.52232 -2.60508 0
M  V30 1339 C 129.39 4.32145 -0.988198 0
M  V30 1340 H 126.61 0.602495 -0.295366 0
M  V30 1341 H 129.154 1.4627 -1.42918 0
M  V30 1342 H 127.309 3.81958 -0.647039 0
M  V30 1343 H 127.723 4.45549 -2.76742 0
M  V30 1344 H 129.197 5.36072 -1.31645 0
M  V30 1345 H 129.674 4.39135 0.0755063 0
M  V30 1346 H 130.28 3.96395 -1.54115 0
M  V30 1347 N 128.595 0.856903 1.32268 0
M  V30 1348 C 129.525 0.31858 2.31316 0
M  V30 1349 C 130.506 -0.583487 1.59779 0
M  V30 1350 O 131.691 -0.503259 1.87566 0
M  V30 1351 C 128.821 -0.491979 3.43798 0
M  V30 1352 C 127.775 0.315849 4.26833 0
M  V30 1353 C 127.101 -0.619586 5.31098 0
M  V30 1354 C 128.401 1.54282 4.98993 0
M  V30 1355 H 130.095 1.14621 2.76591 0
M  V30 1356 H 127.641 0.552613 1.32974 0
M  V30 1357 H 129.594 -0.879012 4.1213 0
M  V30 1358 H 128.318 -1.35299 2.97257 0
M  V30 1359 H 126.977 0.684664 3.6015 0
M  V30 1360 H 126.625 -1.47751 4.8081 0
M  V30 1361 H 126.325 -0.0830621 5.87541 0
M  V30 1362 H 127.849 -1.00375 6.02293 0
M  V30 1363 H 129.263 1.22796 5.59995 0
M  V30 1364 H 127.66 2.01745 5.65172 0
M  V30 1365 H 128.73 2.30285 4.26728 0
M  V30 1366 N 130.073 -1.45103 0.615059 0
M  V30 1367 C 131.35 -1.95549 0.0448276 0
M  V30 1368 C 131.73 -1.55737 -1.4251 0
M  V30 1369 O 131.078 -0.823556 -2.13143 0
M  V30 1370 C 131.288 -3.48098 0.250785 0
M  V30 1371 C 132.636 -4.24384 0.135509 0
M  V30 1372 O 133.66 -3.55738 0.181299 0
M  V30 1373 O 132.519 -5.46493 0.0268878 0
M  V30 1374 H 129.613 -0.8264 -0.0314845 0
M  V30 1375 H 132.159 -1.55232 0.685642 0
M  V30 1376 H 130.931 -3.7007 1.27139 0
M  V30 1377 H 130.554 -3.95323 -0.424937 0
M  V30 1378 N 131.551 -0.354651 -1.53558 0
M  V30 1379 C 132.797 0.238797 -2.01389 0
M  V30 1380 C 133.13 1.49309 -1.2418 0
M  V30 1381 O 132.405 1.91638 -0.332457 0
M  V30 1382 C 132.688 0.541771 -3.56001 0
M  V30 1383 C 132.541 -0.725388 -4.43912 0
M  V30 1384 C 133.86 1.34685 -4.18984 0
M  V30 1385 H 130.979 0.0853177 -0.732045 0
M  V30 1386 H 133.621 -0.477384 -1.83905 0
M  V30 1387 H 131.771 1.15189 -3.71031 0
M  V30 1388 H 133.443 -1.36313 -4.407 0
M  V30 1389 H 131.686 -1.34801 -4.12324 0
M  V30 1390 H 132.357 -0.468505 -5.50008 0
M  V30 1391 H 134.833 0.830837 -4.07721 0
M  V30 1392 H 133.709 1.52759 -5.27215 0
M  V30 1393 H 133.97 2.35221 -3.74331 0
M  V30 1394 N 133.029 1.57378 -0.0835403 0
M  V30 1395 C 133.962 2.09016 0.915833 0
M  V30 1396 C 134.94 0.997993 1.2837 0
M  V30 1397 O 136.124 1.27219 1.39096 0
M  V30 1398 C 133.251 2.55757 2.22049 0
M  V30 1399 C 132.297 3.76522 2.00333 0
M  V30 1400 S 133.13 5.20661 1.25191 0
M  V30 1401 C 134.286 5.70743 2.56912 0
M  V30 1402 H 134.519 2.93457 0.476492 0
M  V30 1403 H 132.052 1.53856 0.129493 0
M  V30 1404 H 134.01 2.83346 2.97027 0
M  V30 1405 H 132.671 1.71564 2.63106 0
M  V30 1406 H 131.864 4.07256 2.96916 0
M  V30 1407 H 131.466 3.49367 1.33488 0
M  V30 1408 H 133.758 5.78304 3.52946 0
M  V30 1409 H 134.701 6.6944 2.30772 0
M  V30 1410 H 135.109 4.98616 2.64655 0
M  V30 1411 N 134.507 -0.190092 1.56449 0
M  V30 1412 C 135.454 -1.23557 1.94942 0
M  V30 1413 C 136.424 -1.44972 0.810696 0
M  V30 1414 O 137.609 -1.58023 1.06927 0
M  V30 1415 C 134.749 -2.57416 2.2985 0
M  V30 1416 C 133.862 -2.43537 3.5681 0
M  V30 1417 C 132.997 -3.70134 3.81017 0
M  V30 1418 C 132.036 -3.51109 5.01387 0
M  V30 1419 N 131.173 -4.6973 5.21822 0
M  V30 1420 H 136.013 -0.900304 2.84075 0
M  V30 1421 H 133.55 -0.43318 1.40577 0
M  V30 1422 H 135.508 -3.35409 2.48106 0
M  V30 1423 H 134.138 -2.88975 1.43852 0
M  V30 1424 H 133.19 -1.56816 3.46573 0
M  V30 1425 H 134.502 -2.25415 4.4496 0
M  V30 1426 H 133.656 -4.56566 3.9954 0
M  V30 1427 H 132.395 -3.91215 2.91207 0
M  V30 1428 H 131.4 -2.63063 4.82782 0
M  V30 1429 H 132.625 -3.31468 5.9271 0
M  V30 1430 H 130.571 -4.91065 4.34961 0
M  V30 1431 H 130.488 -4.54452 6.0416 0
M  V30 1432 H 131.756 -5.57499 5.44808 0
M  V30 1433 N 135.985 -1.50799 -0.457987 0
M  V30 1434 C 136.932 -1.70617 -1.5543 0
M  V30 1435 C 137.902 -0.547562 -1.56815 0
M  V30 1436 O 139.087 -0.779647 -1.74144 0
M  V30 1437 C 136.227 -1.81831 -2.93311 0
M  V30 1438 C 135.34 -3.09278 -3.01615 0
M  V30 1439 C 134.475 -3.11209 -4.30491 0
M  V30 1440 C 133.514 -4.33055 -4.32585 0
M  V30 1441 N 132.651 -4.32652 -5.52952 0
M  V30 1442 H 137.491 -2.64207 -1.37836 0
M  V30 1443 H 135.028 -1.30959 -0.669937 0
M  V30 1444 H 136.986 -1.86314 -3.73287 0
M  V30 1445 H 135.616 -0.916685 -3.0951 0
M  V30 1446 H 134.668 -3.14203 -2.1443 0
M  V30 1447 H 135.98 -3.99233 -2.99022 0
M  V30 1448 H 135.134 -3.14494 -5.18824 0
M  V30 1449 H 133.873 -2.19106 -4.35711 0
M  V30 1450 H 132.878 -4.29969 -3.42647 0
M  V30 1451 H 134.103 -5.264 -4.29046 0
M  V30 1452 H 132.049 -3.43409 -5.58933 0
M  V30 1453 H 131.966 -5.16392 -5.52155 0
M  V30 1454 H 133.234 -4.40101 -6.43375 0
M  V30 1455 N 137.463 0.71206 -1.40597 0
M  V30 1456 C 138.874 1.29135 -1.34837 0
M  V30 1457 C 139.225 1.96186 -0.0235395 0
M  V30 1458 O 138.35 1.97768 0.878444 0
M  V30 1459 C 138.945 2.34827 -2.44217 0
M  V30 1460 C 137.504 2.88371 -2.41907 0
M  V30 1461 C 136.651 1.62202 -2.24913 0
M  V30 1462 H 139.602 0.507944 -1.50352 0
M  V30 1463 H 139.623 3.15749 -2.12327 0
M  V30 1464 H 139.135 1.85996 -3.40627 0
M  V30 1465 H 137.236 3.41422 -1.49204 0
M  V30 1466 H 137.349 3.39925 -3.37621 0
M  V30 1467 H 135.713 1.874 -1.72492 0
M  V30 1468 H 136.496 1.15391 -3.23326 0
M  V30 1469 N 138.941 1.26152 0.944643 0
M  V30 1470 C 140.357 1.03189 1.21754 0
M  V30 1471 C 140.557 -0.245112 2.00004 0
M  V30 1472 O 139.613 -0.955176 2.33736 0
M  V30 1473 C 140.926 2.26119 1.98219 0
M  V30 1474 C 142.474 2.30984 2.11224 0
M  V30 1475 C 142.949 3.53597 2.91089 0
M  V30 1476 N 144.44 3.54053 2.98664 0
M  V30 1477 C 145.175 4.45593 3.60881 0
M  V30 1478 N 144.671 5.47416 4.24626 0
M  V30 1479 N 146.464 4.33252 3.58119 0
M  V30 1480 H 138.615 2.08177 0.421437 0
M  V30 1481 H 140.878 0.914723 0.248969 0
M  V30 1482 H 140.584 3.18984 1.48128 0
M  V30 1483 H 140.458 2.3009 2.98895 0
M  V30 1484 H 142.845 1.38635 2.60508 0
M  V30 1485 H 142.926 2.31026 1.09821 0
M  V30 1486 H 142.57 4.46273 2.42493 0
M  V30 1487 H 142.5 3.50802 3.92741 0
M  V30 1488 H 144.991 2.80403 2.53343 0
M  V30 1489 H 145.304 6.13459 4.69987 0
M  V30 1490 H 143.649 5.51278 4.23223 0
M  V30 1491 H 146.84 3.52924 3.0751 0
M  V30 1492 H 147.013 5.04786 4.06319 0
M  V30 1493 N 140.419 -1.14872 1.07899 0
M  V30 1494 C 141.659 -1.8745 0.814965 0
M  V30 1495 C 142.023 -1.80758 -0.64733 0
M  V30 1496 O 143.224 -2.48422 -1.02664 0
M  V30 1497 C 141.495 -3.32286 1.31607 0
M  V30 1498 S 143.054 -4.22537 1.18357 0
M  V30 1499 H 139.872 -0.646833 0.295174 0
M  V30 1500 H 142.474 -1.38555 1.37923 0
M  V30 1501 H 141.178 -3.34703 2.37491 0
M  V30 1502 H 140.709 -3.86238 0.747261 0
M  V30 1503 H 142.724 -4.96044 0.124586 0
M  V30 1504 N 141.898 -0.863906 -1.31812 0
M  V30 1505 C 143.146 -0.470904 -1.96537 0
M  V30 1506 C 143.467 0.978771 -1.68657 0
M  V30 1507 O 142.737 1.6853 -0.998717 0
M  V30 1508 H 141.317 -0.171148 -0.72713 0
M  V30 1509 H 143.979 -1.10236 -1.60729 0
M  V30 1510 H 143.075 -0.623616 -3.05806 0
M  V30 1511 N 143.376 1.44774 -0.622745 0
M  V30 1512 C 144.622 2.0242 -0.124083 0
M  V30 1513 C 144.955 1.4881 1.24777 0
M  V30 1514 O 144.23 0.668799 1.8264 0
M  V30 1515 C 144.513 3.59957 -0.101619 0
M  V30 1516 C 144.366 4.23867 -1.50521 0
M  V30 1517 C 145.685 4.36284 0.578272 0
M  V30 1518 H 142.804 0.735528 -0.0465645 0
M  V30 1519 H 145.446 1.72447 -0.797617 0
M  V30 1520 H 143.596 3.85623 0.471934 0
M  V30 1521 H 145.268 4.09336 -2.12701 0
M  V30 1522 H 143.511 3.81684 -2.06154 0
M  V30 1523 H 144.182 5.32843 -1.4416 0
M  V30 1524 H 146.658 4.16001 0.0906057 0
M  V30 1525 H 145.534 5.46004 0.563149 0
M  V30 1526 H 145.795 4.10271 1.64713 0
M  V30 1527 N 144.854 0.36279 1.53368 0
M  V30 1528 C 146.265 -0.117022 1.86333 0
M  V30 1529 C 146.616 -1.48397 1.28347 0
M  V30 1530 O 145.741 -2.07787 0.604428 0
M  V30 1531 C 146.336 -0.21912 3.38091 0
M  V30 1532 C 144.895 -0.643184 3.70864 0
M  V30 1533 C 144.042 0.211318 2.76494 0
M  V30 1534 H 146.993 0.581687 1.47655 0
M  V30 1535 H 147.014 -1.04319 3.6592 0
M  V30 1536 H 146.526 0.775902 3.80265 0
M  V30 1537 H 144.627 -1.64654 3.34245 0
M  V30 1538 H 144.74 -0.41973 4.77258 0
M  V30 1539 H 143.104 -0.319367 2.5269 0
M  V30 1540 H 143.887 1.20383 3.21501 0
M  V30 1541 N 146.332 -1.57332 0.0918853 0
M  V30 1542 C 147.609 -1.85691 -0.614668 0
M  V30 1543 C 147.989 -0.988146 -1.86545 0
M  V30 1544 O 147.337 -0.0597055 -2.28422 0
M  V30 1545 C 147.547 -3.36294 -0.933126 0
M  V30 1546 C 148.895 -4.04275 -1.29796 0
M  V30 1547 O 149.919 -3.41157 -1.02424 0
M  V30 1548 O 148.778 -5.1564 -1.81047 0
M  V30 1549 H 145.872 -0.767802 -0.307261 0
M  V30 1550 H 148.418 -1.69244 0.12434 0
M  V30 1551 H 147.19 -3.91273 -0.0456404 0
M  V30 1552 H 146.813 -3.58076 -1.72822 0
M  V30 1553 N 147.81 0.181792 -1.56548 0
M  V30 1554 C 149.056 0.901431 -1.81665 0
M  V30 1555 C 149.389 1.82347 -0.668075 0
M  V30 1556 O 148.664 1.91669 0.330615 0
M  V30 1557 C 148.947 1.70618 -3.17115 0
M  V30 1558 C 148.8 0.807964 -4.42484 0
M  V30 1559 C 150.119 2.67605 -3.49393 0
M  V30 1560 H 147.238 0.32627 -0.660846 0
M  V30 1561 H 149.88 0.168134 -1.89255 0
M  V30 1562 H 148.03 2.33133 -3.10775 0
M  V30 1563 H 149.702 0.19649 -4.60881 0
M  V30 1564 H 147.945 0.115411 -4.33646 0
M  V30 1565 H 148.616 1.40632 -5.33785 0
M  V30 1566 H 151.092 2.15218 -3.56118 0
M  V30 1567 H 149.968 3.20985 -4.45264 0
M  V30 1568 H 150.229 3.47298 -2.73563 0
M  V30 1569 N 149.288 1.51039 0.449983 0
M  V30 1570 C 150.536 1.62759 1.19808 0
M  V30 1571 C 150.857 0.339981 1.92013 0
M  V30 1572 O 150.127 -0.643606 1.85026 0
M  V30 1573 H 148.707 0.599811 0.445237 0
M  V30 1574 H 151.369 1.87914 0.517138 0
M  V30 1575 H 150.465 2.44911 1.93455 0
M  V30 1576 N 150.766 -0.704594 1.40972 0
M  V30 1577 C 151.676 -1.84856 1.44448 0
M  V30 1578 C 152.692 -1.70726 0.335961 0
M  V30 1579 O 153.868 -1.92799 0.582276 0
M  V30 1580 C 150.933 -3.20758 1.31587 0
M  V30 1581 C 149.994 -3.47063 2.52677 0
M  V30 1582 C 149.227 -4.76481 2.4042 0
M  V30 1583 O 149.45 -5.52341 1.42391 0
M  V30 1584 O 148.384 -5.03367 3.30007 0
M  V30 1585 H 152.21 -1.8488 2.40942 0
M  V30 1586 H 149.795 -0.85647 1.22413 0
M  V30 1587 H 151.677 -4.01913 1.26665 0
M  V30 1588 H 150.352 -3.21438 0.382049 0
M  V30 1589 H 149.259 -2.65873 2.63177 0
M  V30 1590 H 150.592 -3.5119 3.44858 0
M  V30 1591 N 152.244 -1.26651 -0.937939 0
M  V30 1592 C 153.474 -1.15006 -1.71631 0
M  V30 1593 C 153.882 0.297026 -1.86854 0
M  V30 1594 O 153.225 1.21493 -1.37786 0
M  V30 1595 C 153.287 -1.74984 -3.14039 0
M  V30 1596 C 152.951 -3.24103 -3.2219 0
M  V30 1597 C 153.948 -4.20877 -3.05219 0
M  V30 1598 C 151.633 -3.64625 -3.45476 0
M  V30 1599 C 153.627 -5.56151 -3.11408 0
M  V30 1600 C 151.314 -5.00032 -3.513 0
M  V30 1601 C 152.312 -5.95604 -3.34282 0
M  V30 1602 O 152 -7.28545 -3.3982 0
M  V30 1603 H 151.732 -0.401183 -0.544085 0
M  V30 1604 H 154.286 -1.67832 -1.18413 0
M  V30 1605 H 152.516 -1.16624 -3.68695 0
M  V30 1606 H 154.205 -1.58199 -3.73802 0
M  V30 1607 H 154.971 -3.90908 -2.87081 0
M  V30 1608 H 150.85 -2.90718 -3.57777 0
M  V30 1609 H 154.394 -6.30727 -2.98043 0
M  V30 1610 H 150.291 -5.29659 -3.68959 0
M  V30 1611 H 151.059 -7.3686 -3.56343 0
M  V30 1612 N 153.722 1.14298 -1.08507 0
M  V30 1613 C 154.67 2.21483 -0.710483 0
M  V30 1614 C 155.664 1.66998 0.284234 0
M  V30 1615 O 156.87 1.79401 0.146692 0
M  V30 1616 H 153.245 0.721578 -0.211729 0
M  V30 1617 H 155.216 2.50348 -1.62384 0
M  V30 1618 C 153.965 3.4743 -0.137007 0
M  V30 1619 H 153.288 3.89686 -0.893592 0
M  V30 1620 H 154.728 4.2391 0.0872789 0
M  V30 1621 C 153.187 3.17548 1.12538 0
M  V30 1622 O 153.717 3.35437 2.21009 0
M  V30 1623 N 151.923 2.71499 1.03617 0
M  V30 1624 H 151.47 2.57143 0.153403 0
M  V30 1625 H 151.428 2.51881 1.88158 0
M  V30 1626 N 155.201 0.870884 1.31352 0
M  V30 1627 C 156.447 0.482987 1.96965 0
M  V30 1628 C 156.78 -0.962462 1.68672 0
M  V30 1629 O 156.055 -1.6779 0.98371 0
M  V30 1630 C 156.338 0.741752 3.52378 0
M  V30 1631 C 156.191 2.2368 3.9024 0
M  V30 1632 C 157.51 0.208838 4.39604 0
M  V30 1633 H 154.629 0.176955 0.715441 0
M  V30 1634 H 157.271 1.09229 1.55464 0
M  V30 1635 H 155.421 0.223149 3.87859 0
M  V30 1636 H 157.093 2.82273 3.64856 0
M  V30 1637 H 155.336 2.70901 3.38814 0
M  V30 1638 H 156.007 2.3685 4.98604 0
M  V30 1639 H 158.483 0.652529 4.10952 0
M  V30 1640 H 157.359 0.419336 5.47296 0
M  V30 1641 H 157.62 -0.889275 4.33064 0
M  V30 1642 N 156.679 -1.44442 0.630414 0
M  V30 1643 C 157.926 -2.02052 0.134617 0
M  V30 1644 C 158.254 -1.49576 -1.24327 0
M  V30 1645 O 157.509 -0.669806 -1.83881 0
M  V30 1646 C 157.808 -3.57332 0.0697835 0
M  V30 1647 C 157.474 -4.29058 1.38635 0
M  V30 1648 C 156.136 -4.4837 1.74694 0
M  V30 1649 C 158.488 -4.69872 2.25543 0
M  V30 1650 C 155.816 -5.05756 2.97369 0
M  V30 1651 C 158.168 -5.28616 3.47487 0
M  V30 1652 C 156.832 -5.46147 3.8377 0
M  V30 1653 H 156.102 -0.739361 0.0492598 0
M  V30 1654 H 158.749 -1.73217 0.816586 0
M  V30 1655 H 157.054 -3.85577 -0.695553 0
M  V30 1656 H 158.751 -3.99637 -0.330344 0
M  V30 1657 H 155.341 -4.14357 1.09574 0
M  V30 1658 H 159.525 -4.54666 1.98979 0
M  V30 1659 H 154.781 -5.17515 3.25558 0
M  V30 1660 H 158.955 -5.59192 4.15063 0
M  V30 1661 H 156.582 -5.9038 4.7891 0
M  V30 1662 N 158.157 -0.370918 -1.53173 0
M  V30 1663 C 159.568 0.107139 -1.86392 0
M  V30 1664 C 159.919 1.47714 -1.29132 0
M  V30 1665 O 159.044 2.07464 -0.615439 0
M  V30 1666 C 159.639 0.201187 -3.38202 0
M  V30 1667 C 158.198 0.623507 -3.712 0
M  V30 1668 C 157.345 -0.225978 -2.76378 0
M  V30 1669 H 160.296 -0.58951 -1.47345 0
M  V30 1670 H 160.317 1.02377 -3.66468 0
M  V30 1671 H 159.829 -0.796058 -3.79848 0
M  V30 1672 H 157.93 1.62879 -3.35114 0
M  V30 1673 H 158.043 0.394414 -4.77474 0
M  V30 1674 H 156.407 0.305962 -2.52856 0
M  V30 1675 H 157.19 -1.22086 -3.20858 0
M  V30 1676 N 159.635 1.57281 -0.100228 0
M  V30 1677 C 161.051 1.57527 0.256416 0
M  V30 1678 C 161.251 1.11173 1.68056 0
M  V30 1679 O 160.307 0.79053 2.39806 0
M  V30 1680 C 161.62 3.00673 0.0401747 0
M  V30 1681 C 163.168 3.12815 0.107528 0
M  V30 1682 C 163.643 4.57929 -0.0807834 0
M  V30 1683 N 165.134 4.63193 -0.0261207 0
M  V30 1684 C 165.869 5.73212 -0.146999 0
M  V30 1685 N 165.365 6.92047 -0.322999 0
M  V30 1686 N 167.158 5.62031 -0.0879044 0
M  V30 1687 H 159.309 1.85718 -1.03065 0
M  V30 1688 H 161.572 0.857446 -0.404339 0
M  V30 1689 H 161.278 3.38804 -0.943649 0
M  V30 1690 H 161.152 3.69042 0.780262 0
M  V30 1691 H 163.539 2.74554 1.08186 0
M  V30 1692 H 163.62 2.47028 -0.664134 0
M  V30 1693 H 163.264 4.96886 -1.05201 0
M  V30 1694 H 163.194 5.21783 0.710635 0
M  V30 1695 H 165.685 3.77748 0.107161 0
M  V30 1696 H 165.998 7.7173 -0.406608 0
M  V30 1697 H 164.343 6.94074 -0.358733 0
M  V30 1698 H 167.534 4.68075 0.048498 0
M  V30 1699 H 167.707 6.47734 -0.185557 0
M  V30 1700 N 161.113 -0.173488 1.56642 0
M  V30 1701 C 162.341 -0.906095 1.86004 0
M  V30 1702 C 162.756 -1.75921 0.685355 0
M  V30 1703 O 162.113 -1.79198 -0.345578 0
M  V30 1704 C 162.164 -1.78462 3.14378 0
M  V30 1705 O 161.885 -0.965914 4.27319 0
M  V30 1706 C 163.386 -2.62707 3.57071 0
M  V30 1707 H 160.606 -0.263341 0.617165 0
M  V30 1708 H 163.15 -0.174236 2.03756 0
M  V30 1709 H 161.305 -2.46984 2.98459 0
M  V30 1710 H 161.719 -1.56655 5.00559 0
M  V30 1711 H 163.193 -3.19969 4.49804 0
M  V30 1712 H 163.67 -3.37472 2.81086 0
M  V30 1713 H 164.276 -1.99521 3.75595 0
M  V30 1714 N 162.591 -1.51276 -0.441967 0
M  V30 1715 C 163.521 -1.752 -1.54361 0
M  V30 1716 C 164.502 -0.601682 -1.59103 0
M  V30 1717 O 165.687 -0.843913 -1.74905 0
M  V30 1718 C 162.817 -1.87282 -2.92477 0
M  V30 1719 C 161.771 -3.02687 -3.02596 0
M  V30 1720 C 161.097 -2.99947 -4.42647 0
M  V30 1721 C 162.397 -4.4273 -2.77106 0
M  V30 1722 H 164.091 -2.67442 -1.34592 0
M  V30 1723 H 161.637 -1.28694 -0.646048 0
M  V30 1724 H 163.59 -2.02602 -3.695 0
M  V30 1725 H 162.314 -0.916844 -3.13467 0
M  V30 1726 H 160.973 -2.87065 -2.28012 0
M  V30 1727 H 160.621 -2.02136 -4.60597 0
M  V30 1728 H 160.321 -3.77439 -4.50348 0
M  V30 1729 H 161.845 -3.17354 -5.2165 0
M  V30 1730 H 163.259 -4.58727 -3.43864 0
M  V30 1731 H 161.656 -5.21893 -2.96222 0
M  V30 1732 H 162.726 -4.53087 -1.72744 0
M  V30 1733 N 164.069 0.697108 -1.41344 0
M  V30 1734 C 165.016 1.81106 -1.43071 0
M  V30 1735 C 165.986 1.63632 -0.285275 0
M  V30 1736 O 167.171 1.84504 -0.486091 0
M  V30 1737 C 164.311 3.18975 -1.31715 0
M  V30 1738 C 163.424 3.47892 -2.56115 0
M  V30 1739 C 162.559 4.75367 -2.37064 0
M  V30 1740 C 161.598 4.97247 -3.56948 0
M  V30 1741 N 160.735 6.15947 -3.36977 0
M  V30 1742 H 165.575 1.78965 -2.38276 0
M  V30 1743 H 163.112 0.873975 -1.18322 0
M  V30 1744 H 165.07 3.98615 -1.23133 0
M  V30 1745 H 163.7 3.20297 -0.401183 0
M  V30 1746 H 162.752 2.62669 -2.75153 0
M  V30 1747 H 164.064 3.59962 -3.45295 0
M  V30 1748 H 163.218 5.63059 -2.25941 0
M  V30 1749 H 161.957 4.65541 -1.45338 0
M  V30 1750 H 160.962 4.08004 -3.68527 0
M  V30 1751 H 162.187 5.08934 -4.49626 0
M  V30 1752 H 160.133 6.07336 -2.47949 0
M  V30 1753 H 160.05 6.28777 -4.19732 0
M  V30 1754 H 161.318 7.06377 -3.29623 0
M  V30 1755 N 165.547 1.27147 0.931209 0
M  V30 1756 C 166.793 1.14455 1.68141 0
M  V30 1757 C 167.148 -0.307172 1.89932 0
M  V30 1758 O 166.441 -1.22158 1.47607 0
M  V30 1759 C 166.635 1.8579 3.05314 0
M  V30 1760 C 166.464 3.3775 2.96909 0
M  V30 1761 C 165.234 4.07062 2.99381 0
M  V30 1762 C 167.432 4.33783 2.76291 0
M  V30 1763 N 165.414 5.45618 2.8138 0
M  V30 1764 C 166.785 5.59582 2.6696 0
M  V30 1765 C 168.84 4.23915 2.61152 0
M  V30 1766 C 167.543 6.76639 2.44033 0
M  V30 1767 C 169.569 5.40689 2.39602 0
M  V30 1768 C 168.931 6.65443 2.3101 0
M  V30 1769 H 165.03 0.473667 0.622225 0
M  V30 1770 H 167.614 1.60568 1.10118 0
M  V30 1771 H 165.785 1.42138 3.61457 0
M  V30 1772 H 167.517 1.65634 3.69253 0
M  V30 1773 H 164.272 3.585 3.09475 0
M  V30 1774 H 164.696 6.184 2.75519 0
M  V30 1775 H 169.338 3.28189 2.66555 0
M  V30 1776 H 167.056 7.72451 2.3737 0
M  V30 1777 H 170.642 5.34932 2.28778 0
M  V30 1778 H 169.522 7.54277 2.14558 0
M  V30 1779 N 167.025 -1.13721 1.09112 0
M  V30 1780 C 168.25 -1.89314 0.847053 0
M  V30 1781 C 168.675 -1.78416 -0.595774 0
M  V30 1782 O 168.033 -1.12942 -1.41823 0
M  V30 1783 C 168.081 -3.3701 1.28284 0
M  V30 1784 O 167.185 -4.10054 0.439267 0
M  V30 1785 H 166.526 -0.588745 0.307044 0
M  V30 1786 H 169.056 -1.43902 1.45442 0
M  V30 1787 H 169.066 -3.87834 1.26683 0
M  V30 1788 H 167.741 -3.4426 2.33363 0
M  V30 1789 H 166.318 -3.69266 0.519312 0
M  V30 1790 N 168.503 -0.877838 -1.30888 0
M  V30 1791 C 169.45 -0.337538 -2.28318 0
M  V30 1792 C 170.42 0.568346 -1.56074 0
M  V30 1793 O 171.605 0.498298 -1.84178 0
M  V30 1794 C 168.745 0.448142 -3.42178 0
M  V30 1795 C 167.858 -0.48615 -4.29256 0
M  V30 1796 C 166.993 0.314427 -5.30269 0
M  V30 1797 C 166.032 -0.615791 -6.08995 0
M  V30 1798 N 165.169 0.14902 -7.01942 0
M  V30 1799 H 170.009 -1.17356 -2.73919 0
M  V30 1800 H 167.546 -0.590094 -1.34745 0
M  V30 1801 H 169.504 0.919517 -4.06941 0
M  V30 1802 H 168.134 1.24879 -2.97666 0
M  V30 1803 H 167.186 -1.076 -3.64865 0
M  V30 1804 H 168.498 -1.19909 -4.84173 0
M  V30 1805 H 167.652 0.847969 -6.00745 0
M  V30 1806 H 166.391 1.06062 -4.76027 0
M  V30 1807 H 165.396 -1.16102 -5.37401 0
M  V30 1808 H 166.621 -1.36097 -6.65323 0
M  V30 1809 H 164.567 0.877884 -6.50099 0
M  V30 1810 H 164.484 -0.504433 -7.54315 0
M  V30 1811 H 165.752 0.663537 -7.76671 0
M  V30 1812 N 169.982 1.44106 -0.638065 0
M  V30 1813 C 170.915 2.27924 0.112161 0
M  V30 1814 C 171.893 1.38945 0.844574 0
M  V30 1815 O 173.077 1.68386 0.847248 0
M  V30 1816 C 170.204 3.18029 1.16512 0
M  V30 1817 C 169.25 4.23163 0.532458 0
M  V30 1818 S 170.083 5.31131 -0.682666 0
M  V30 1819 C 171.239 6.24805 0.37013 0
M  V30 1820 H 171.472 2.91205 -0.598887 0
M  V30 1821 H 169.005 1.48394 -0.426441 0
M  V30 1822 H 170.963 3.70492 1.76766 0
M  V30 1823 H 169.624 2.53955 1.8484 0
M  V30 1824 H 168.817 4.86252 1.32571 0
M  V30 1825 H 168.419 3.74 0.00437644 0
M  V30 1826 H 170.711 6.66042 1.24071 0
M  V30 1827 H 171.654 7.07741 -0.225349 0
M  V30 1828 H 172.062 5.60154 0.699141 0
M  V30 1829 N 171.46 0.379036 1.52974 0
M  V30 1830 C 172.408 -0.476033 2.27677 0
M  V30 1831 C 173.402 -1.0719 1.31174 0
M  V30 1832 O 174.608 -1.01355 1.48752 0
M  V30 1833 H 170.983 -0.172255 0.732006 0
M  V30 1834 H 172.954 0.175615 2.97883 0
M  V30 1835 C 171.703 -1.5967 3.0887 0
M  V30 1836 H 171.026 -1.1475 3.82978 0
M  V30 1837 H 172.466 -2.16943 3.64296 0
M  V30 1838 C 170.925 -2.54682 2.20542 0
M  V30 1839 O 171.455 -3.57836 1.82527 0
M  V30 1840 N 169.661 -2.24183 1.84907 0
M  V30 1841 H 169.208 -1.40333 2.1602 0
M  V30 1842 H 169.166 -2.88006 1.26096 0
M  V30 1843 N 172.938 -1.57226 0.108567 0
M  V30 1844 C 173.868 -2.17778 -0.84232 0
M  V30 1845 C 174.849 -1.11487 -1.2847 0
M  V30 1846 O 176.034 -1.39681 -1.34918 0
M  V30 1847 C 173.164 -2.76888 -2.09644 0
M  V30 1848 C 172.118 -3.88669 -1.79221 0
M  V30 1849 C 171.444 -4.34541 -3.11574 0
M  V30 1850 C 172.744 -5.11251 -1.06864 0
M  V30 1851 H 174.438 -2.97489 -0.337774 0
M  V30 1852 H 171.984 -1.43097 -0.161025 0
M  V30 1853 H 173.937 -3.17904 -2.76614 0
M  V30 1854 H 172.661 -1.94451 -2.62405 0
M  V30 1855 H 171.32 -3.48213 -1.14644 0
M  V30 1856 H 170.968 -3.48977 -3.62249 0
M  V30 1857 H 170.668 -5.09914 -2.91996 0
M  V30 1858 H 172.192 -4.782 -3.7968 0
M  V30 1859 H 173.606 -5.49352 -1.63968 0
M  V30 1860 H 172.003 -5.9214 -0.974178 0
M  V30 1861 H 173.073 -4.8487 -0.0536168 0
M  V30 1862 N 174.416 0.165178 -1.56732 0
M  V30 1863 C 175.644 0.896218 -1.86482 0
M  V30 1864 C 176.059 1.75555 -0.694675 0
M  V30 1865 O 175.416 1.79379 0.33607 0
M  V30 1866 C 175.467 1.76792 -3.1532 0
M  V30 1867 O 175.188 0.943239 -4.27825 0
M  V30 1868 C 176.689 2.6081 -3.58459 0
M  V30 1869 H 173.909 0.260064 -0.618553 0
M  V30 1870 H 176.453 0.163428 -2.03846 0
M  V30 1871 H 174.608 2.45398 -2.99764 0
M  V30 1872 H 175.022 1.53998 -5.01383 0
M  V30 1873 H 176.496 3.17579 -4.51495 0
M  V30 1874 H 176.973 3.35977 -2.82872 0
M  V30 1875 H 177.579 1.97526 -3.76648 0
M  V30 1876 N 175.894 1.51508 0.433938 0
M  V30 1877 C 177.124 1.67914 1.20369 0
M  V30 1878 C 177.532 0.377461 1.85397 0
M  V30 1879 O 176.875 -0.654255 1.71654 0
M  V30 1880 C 176.937 2.74045 2.32679 0
M  V30 1881 C 176.601 4.16543 1.87991 0
M  V30 1882 C 177.598 5.01211 1.38145 0
M  V30 1883 C 175.283 4.6266 1.95579 0
M  V30 1884 C 177.277 6.30056 0.964774 0
M  V30 1885 C 174.964 5.91501 1.53523 0
M  V30 1886 C 175.962 6.75027 1.04055 0
M  V30 1887 O 175.65 8.01459 0.625964 0
M  V30 1888 H 175.382 0.566578 0.368735 0
M  V30 1889 H 177.936 1.98709 0.51999 0
M  V30 1890 H 176.166 2.38572 3.04336 0
M  V30 1891 H 177.855 2.79295 2.94532 0
M  V30 1892 H 178.621 4.66783 1.31675 0
M  V30 1893 H 174.5 3.97767 2.33029 0
M  V30 1894 H 178.044 6.95202 0.57796 0
M  V30 1895 H 173.941 6.25442 1.59665 0
M  V30 1896 H 174.709 8.15043 0.751509 0
M  V30 1897 N 177.372 -0.689602 1.41712 0
M  V30 1898 C 178.788 -1.00093 1.24312 0
M  V30 1899 C 178.988 -2.01036 0.136729 0
M  V30 1900 O 178.044 -2.47562 -0.496918 0
M  V30 1901 C 179.357 -1.51985 2.59463 0
M  V30 1902 C 180.905 -1.63838 2.66695 0
M  V30 1903 C 181.38 -2.1913 4.02177 0
M  V30 1904 N 182.871 -2.26483 4.04054 0
M  V30 1905 C 183.606 -2.70306 5.0569 0
M  V30 1906 N 183.102 -3.13691 6.17713 0
M  V30 1907 N 184.895 -2.69923 4.9305 0
M  V30 1908 H 177.046 -0.0210029 2.1239 0
M  V30 1909 H 179.309 -0.0718733 0.945272 0
M  V30 1910 H 179.015 -0.85269 3.41207 0
M  V30 1911 H 178.889 -2.50103 2.82362 0
M  V30 1912 H 181.276 -2.29664 1.85306 0
M  V30 1913 H 181.357 -0.642492 2.476 0
M  V30 1914 H 181.001 -1.53918 4.84016 0
M  V30 1915 H 180.931 -3.19482 4.18615 0
M  V30 1916 H 183.422 -1.95874 3.23174 0
M  V30 1917 H 183.735 -3.45773 6.9113 0
M  V30 1918 H 182.08 -3.11585 6.21241 0
M  V30 1919 H 185.271 -2.35382 4.04614 0
M  V30 1920 H 185.444 -3.03758 5.72394 0
M  V30 1921 N 178.85 -1.27639 -0.924453 0
M  V30 1922 C 180.099 -1.13549 -1.66702 0
M  V30 1923 C 180.412 0.317487 -1.93006 0
M  V30 1924 O 181.618 0.579333 -2.65247 0
M  V30 1925 C 180.074 -1.98426 -3.00259 0
M  V30 1926 C 179.682 -3.484 -2.81641 0
M  V30 1927 C 181.426 -1.92993 -3.78092 0
M  V30 1928 C 179.333 -4.25464 -4.10773 0
M  V30 1929 H 178.263 -0.421351 -0.625283 0
M  V30 1930 H 180.914 -1.52085 -1.02676 0
M  V30 1931 H 179.296 -1.52736 -3.6536 0
M  V30 1932 H 180.47 -4.01973 -2.25287 0
M  V30 1933 H 178.785 -3.55245 -2.17232 0
M  V30 1934 H 181.382 -2.47844 -4.7379 0
M  V30 1935 H 181.725 -0.904281 -4.0636 0
M  V30 1936 H 182.258 -2.36595 -3.19793 0
M  V30 1937 H 178.997 -5.28566 -3.87683 0
M  V30 1938 H 178.517 -3.76667 -4.66779 0
M  V30 1939 H 180.196 -4.34812 -4.79111 0
M  V30 1940 N 180.328 1.1314 -1.09713 0
M  V30 1941 C 181.574 1.84757 -0.836224 0
M  V30 1942 C 181.907 1.8347 0.636598 0
M  V30 1943 O 181.182 1.27491 1.46889 0
M  V30 1944 C 181.465 3.32782 -1.37578 0
M  V30 1945 C 181.318 3.42567 -2.91493 0
M  V30 1946 C 182.637 4.28307 -1.01198 0
M  V30 1947 H 179.756 0.67082 -0.305236 0
M  V30 1948 H 182.398 1.3278 -1.35903 0
M  V30 1949 H 180.548 3.77177 -0.931097 0
M  V30 1950 H 182.22 3.06862 -3.44432 0
M  V30 1951 H 180.463 2.83349 -3.28475 0
M  V30 1952 H 181.134 4.46674 -3.24324 0
M  V30 1953 H 183.61 3.91999 -1.39556 0
M  V30 1954 H 182.486 5.30307 -1.41653 0
M  V30 1955 H 182.747 4.42029 0.0794833 0
M  V30 1956 N 181.806 0.884767 1.30421 0
M  V30 1957 C 182.754 0.340869 2.30089 0
M  V30 1958 C 183.748 -0.55201 1.60154 0
M  V30 1959 O 184.954 -0.436467 1.74628 0
M  V30 1960 H 181.329 0.0915739 0.746404 0
M  V30 1961 H 183.3 1.19513 2.73421 0
M  V30 1962 C 182.049 -0.429779 3.45034 0
M  V30 1963 H 181.372 0.248024 3.9903 0
M  V30 1964 H 182.812 -0.775445 4.16849 0
M  V30 1965 C 181.271 -1.62677 2.95022 0
M  V30 1966 O 181.801 -2.72614 2.95033 0
M  V30 1967 N 180.007 -1.46387 2.51036 0
M  V30 1968 H 179.554 -0.569506 2.51226 0
M  V30 1969 H 179.512 -2.26612 2.17932 0
M  V30 1970 N 183.284 -1.43765 0.645699 0
M  V30 1971 C 184.514 -2.05953 0.163318 0
M  V30 1972 C 184.922 -1.48432 -1.17322 0
M  V30 1973 O 184.265 -0.607295 -1.73371 0
M  V30 1974 C 184.327 -3.59499 -0.0103065 0
M  V30 1975 C 183.991 -4.39563 1.25035 0
M  V30 1976 C 184.988 -4.72108 2.17739 0
M  V30 1977 C 182.673 -4.79697 1.48983 0
M  V30 1978 C 184.667 -5.43688 3.3269 0
M  V30 1979 C 182.354 -5.51023 2.64229 0
M  V30 1980 C 183.352 -5.8294 3.55908 0
M  V30 1981 O 183.04 -6.5281 4.69142 0
M  V30 1982 H 182.772 -0.670798 0.0836986 0
M  V30 1983 H 185.326 -1.85384 0.884407 0
M  V30 1984 H 183.556 -3.78613 -0.78669 0
M  V30 1985 H 185.245 -4.03408 -0.449087 0
M  V30 1986 H 186.011 -4.41627 2.00476 0
M  V30 1987 H 181.89 -4.54266 0.785078 0
M  V30 1988 H 185.434 -5.68517 4.04269 0
M  V30 1989 H 181.331 -5.8092 2.81429 0
M  V30 1990 H 182.099 -6.71288 4.6831 0
M  V30 1991 N 184.763 -0.387143 -1.52771 0
M  V30 1992 C 185.991 0.195869 -2.05971 0
M  V30 1993 C 186.406 1.40691 -1.25903 0
M  V30 1994 O 185.763 1.79931 -0.305134 0
M  V30 1995 C 185.814 0.56812 -3.57008 0
M  V30 1996 O 185.535 -0.594803 -4.34043 0
M  V30 1997 C 187.036 1.20723 -4.26545 0
M  V30 1998 H 184.256 0.0300578 -0.670326 0
M  V30 1999 H 186.8 -0.551749 -1.96916 0
M  V30 2000 H 184.955 1.26564 -3.66143 0
M  V30 2001 H 185.369 -0.289322 -5.23701 0
M  V30 2002 H 186.843 1.41807 -5.33474 0
M  V30 2003 H 187.32 2.17395 -3.81623 0
M  V30 2004 H 187.926 0.550535 -4.21722 0
M  V30 2005 N 186.241 1.57166 -0.116904 0
M  V30 2006 C 187.652 1.82169 0.408809 0
M  V30 2007 C 188.003 1.03393 1.66746 0
M  V30 2008 O 187.128 0.269886 2.1471 0
M  V30 2009 C 187.723 3.30429 0.748466 0
M  V30 2010 C 186.282 3.5612 1.21882 0
M  V30 2011 C 185.429 2.76374 0.226452 0
M  V30 2012 H 188.38 1.5497 -0.342063 0
M  V30 2013 H 188.401 3.44943 1.60607 0
M  V30 2014 H 187.913 3.87737 -0.167784 0
M  V30 2015 H 186.014 3.04168 2.15204 0
M  V30 2016 H 186.127 4.64705 1.16559 0
M  V30 2017 H 184.491 2.44515 0.713063 0
M  V30 2018 H 185.274 3.3644 -0.682859 0
M  V30 2019 N 187.719 -0.156864 1.56817 0
M  V30 2020 C 188.996 -0.899244 1.73704 0
M  V30 2021 C 189.376 -1.99771 0.682254 0
M  V30 2022 O 188.724 -2.26515 -0.300522 0
M  V30 2023 C 188.934 -1.45075 3.17418 0
M  V30 2024 C 190.282 -1.91802 3.7881 0
M  V30 2025 O 191.306 -1.54838 3.20786 0
M  V30 2026 O 190.165 -2.5994 4.80722 0
M  V30 2027 H 187.259 -0.424267 0.709878 0
M  V30 2028 H 189.805 -0.143561 1.69092 0
M  V30 2029 H 188.577 -0.660846 3.85679 0
M  V30 2030 H 188.2 -2.27021 3.26416 0
M  V30 2031 N 189.197 -1.51736 -0.425897 0
M  V30 2032 C 190.13 -1.68574 -1.53812 0
M  V30 2033 C 191.108 -0.53328 -1.53606 0
M  V30 2034 O 192.292 -0.758555 -1.72564 0
M  V30 2035 C 189.419 -1.70977 -2.92377 0
M  V30 2036 C 188.465 -2.92324 -3.10563 0
M  V30 2037 S 189.298 -4.52952 -2.85648 0
M  V30 2038 C 190.454 -4.58117 -4.26474 0
M  V30 2039 H 190.687 -2.62647 -1.39298 0
M  V30 2040 H 188.22 -1.41564 -0.616361 0
M  V30 2041 H 190.178 -1.73047 -3.72243 0
M  V30 2042 H 188.839 -0.78061 -3.04245 0
M  V30 2043 H 188.032 -2.90439 -4.11899 0
M  V30 2044 H 187.634 -2.88055 -2.38538 0
M  V30 2045 H 189.926 -4.34462 -5.19855 0
M  V30 2046 H 190.869 -5.59983 -4.33388 0
M  V30 2047 H 191.277 -3.8732 -4.10662 0
M  V30 2048 N 190.675 0.682077 -1.42076 0
M  V30 2049 C 191.903 1.47057 -1.4554 0
M  V30 2050 C 192.318 1.8869 -0.0645779 0
M  V30 2051 O 191.675 1.57666 0.919115 0
M  V30 2052 C 191.726 2.72442 -2.37609 0
M  V30 2053 O 191.447 2.32559 -3.71279 0
M  V30 2054 C 192.948 3.66069 -2.50017 0
M  V30 2055 H 190.168 0.452737 -0.495248 0
M  V30 2056 H 192.712 0.838695 -1.8651 0
M  V30 2057 H 190.867 3.31835 -1.9991 0
M  V30 2058 H 191.281 3.13475 -4.20516 0
M  V30 2059 H 192.755 4.50792 -3.18576 0
M  V30 2060 H 193.232 4.11476 -1.53572 0
M  V30 2061 H 193.838 3.12572 -2.88407 0
M  V30 2062 N 192.153 1.28127 0.917671 0
M  V30 2063 C 193.103 1.08361 2.00604 0
M  V30 2064 C 194.087 0.00847518 1.60898 0
M  V30 2065 O 195.279 0.228167 1.75523 0
M  V30 2066 C 192.408 0.743376 3.35155 0
M  V30 2067 C 191.494 1.85716 3.81275 0
M  V30 2068 N 191.885 3.09822 3.99805 0
M  V30 2069 C 190.183 1.74612 4.10398 0
M  V30 2070 C 190.884 3.82368 4.38372 0
M  V30 2071 N 189.86 3.10192 4.4641 0
M  V30 2072 H 193.662 2.02531 2.12975 0
M  V30 2073 H 191.176 1.18989 1.10523 0
M  V30 2074 H 193.173 0.582859 4.12805 0
M  V30 2075 H 191.833 -0.190595 3.2414 0
M  V30 2076 H 192.844 3.45475 3.85833 0
M  V30 2077 H 189.521 0.883657 4.08041 0
M  V30 2078 H 190.911 4.89082 4.60704 0
M  V30 2079 N 193.631 -1.12557 1.10312 0
M  V30 2080 C 194.856 -1.88405 0.867085 0
M  V30 2081 C 195.281 -1.79038 -0.576817 0
M  V30 2082 O 194.639 -1.14439 -1.40618 0
M  V30 2083 C 194.687 -3.3563 1.31851 0
M  V30 2084 O 193.791 -4.09565 0.482734 0
M  V30 2085 H 193.132 -0.585455 0.313271 0
M  V30 2086 H 195.662 -1.42352 1.4696 0
M  V30 2087 H 195.672 -3.86469 1.3079 0
M  V30 2088 H 194.347 -3.41765 2.37001 0
M  V30 2089 H 192.924 -3.68695 0.558448 0
M  V30 2090 N 195.109 -0.891671 -1.2995 0
M  V30 2091 C 196.019 -0.367691 -2.31701 0
M  V30 2092 C 197.035 0.533486 -1.6562 0
M  V30 2093 O 198.211 0.424997 -1.96865 0
M  V30 2094 C 195.276 0.403406 -3.44345 0
M  V30 2095 C 194.337 -0.528328 -4.26037 0
M  V30 2096 C 193.57 0.206063 -5.33302 0
M  V30 2097 O 193.793 1.43119 -5.52153 0
M  V30 2098 O 192.727 -0.447281 -6.00236 0
M  V30 2099 H 196.553 -1.21163 -2.78484 0
M  V30 2100 H 194.138 -0.655725 -1.34241 0
M  V30 2101 H 196.02 0.839753 -4.12948 0
M  V30 2102 H 194.695 1.22354 -2.99685 0
M  V30 2103 H 193.602 -1.01362 -3.60106 0
M  V30 2104 H 194.935 -1.31465 -4.74318 0
M  V30 2105 N 196.587 1.43421 -0.653314 0
M  V30 2106 C 197.833 2.02111 -0.166992 0
M  V30 2107 C 198.166 1.51423 1.21592 0
M  V30 2108 O 197.441 0.707389 1.8118 0
M  V30 2109 C 197.724 3.5966 -0.177948 0
M  V30 2110 C 197.577 4.20579 -1.59478 0
M  V30 2111 C 198.896 4.37413 0.4856 0
M  V30 2112 H 196.015 0.734374 -0.0621557 0
M  V30 2113 H 198.657 1.70717 -0.834016 0
M  V30 2114 H 196.807 3.86537 0.390032 0
M  V30 2115 H 198.479 4.04732 -2.21336 0
M  V30 2116 H 196.722 3.77226 -2.14204 0
M  V30 2117 H 197.393 5.29665 -1.5543 0
M  V30 2118 H 199.869 4.161 0.00234528 0
M  V30 2119 H 198.745 5.47075 0.447207 0
M  V30 2120 H 199.006 4.13672 1.55974 0
M  V30 2121 N 198.065 0.39524 1.52563 0
M  V30 2122 C 198.975 -0.444232 2.30356 0
M  V30 2123 C 199.991 -1.06615 1.37511 0
M  V30 2124 O 201.167 -1.07067 1.70583 0
M  V30 2125 C 198.232 -1.55315 3.09964 0
M  V30 2126 C 197.293 -0.955734 4.18526 0
M  V30 2127 C 196.526 -2.01181 4.9433 0
M  V30 2128 O 196.749 -3.22781 4.70285 0
M  V30 2129 O 195.683 -1.62579 5.79527 0
M  V30 2130 H 199.509 0.189667 3.03107 0
M  V30 2131 H 197.094 0.1588 1.48554 0
M  V30 2132 H 198.976 -2.19724 3.59582 0
M  V30 2133 H 197.651 -2.17191 2.4002 0
M  V30 2134 H 196.558 -0.274743 3.7309 0
M  V30 2135 H 197.891 -0.381109 4.90722 0
M  V30 2136 N 199.544 -1.57102 0.125237 0
M  V30 2137 C 200.491 -2.15641 -0.822655 0
M  V30 2138 C 201.461 -1.08313 -1.25927 0
M  V30 2139 O 202.646 -1.36251 -1.33567 0
M  V30 2140 C 199.786 -2.76504 -2.06494 0
M  V30 2141 C 198.899 -3.98158 -1.67612 0
M  V30 2142 C 198.034 -4.47088 -2.86854 0
M  V30 2143 C 197.073 -5.6126 -2.44242 0
M  V30 2144 N 196.21 -6.04905 -3.56419 0
M  V30 2145 H 201.05 -2.96313 -0.316625 0
M  V30 2146 H 198.587 -1.46388 -0.144588 0
M  V30 2147 H 200.545 -3.09925 -2.79289 0
M  V30 2148 H 199.175 -1.98512 -2.54545 0
M  V30 2149 H 198.227 -3.70858 -0.846661 0
M  V30 2150 H 199.539 -4.80934 -1.32301 0
M  V30 2151 H 198.693 -4.82451 -3.67867 0
M  V30 2152 H 197.432 -3.63275 -3.25396 0
M  V30 2153 H 196.437 -5.25495 -1.61663 0
M  V30 2154 H 197.662 -6.46843 -2.0681 0
M  V30 2155 H 195.608 -5.24032 -3.94623 0
M  V30 2156 H 195.525 -6.82552 -3.25051 0
M  V30 2157 H 196.793 -6.44907 -4.37853 0
M  V30 2158 N 201.022 0.148545 -1.56898 0
M  V30 2159 C 201.985 1.16736 -1.97244 0
M  V30 2160 C 202.985 1.35947 -0.858777 0
M  V30 2161 O 204.175 1.32966 -1.12542 0
M  V30 2162 C 201.307 2.52798 -2.28705 0
M  V30 2163 H 202.5 0.821279 -2.88435 0
M  V30 2164 H 200.053 0.391831 -1.51309 0
M  V30 2165 H 200.788 2.92381 -1.403 0
M  V30 2166 H 200.573 2.40216 -3.09901 0
M  V30 2167 H 202.063 3.26179 -2.60762 0
M  V30 2168 N 202.5 1.5196 0.417844 0
M  V30 2169 C 203.747 1.65591 1.16559 0
M  V30 2170 C 204.075 0.381565 1.90721 0
M  V30 2171 O 203.33 -0.635156 1.85106 0
M  V30 2172 C 203.629 2.82269 2.19223 0
M  V30 2173 C 203.295 4.20819 1.61933 0
M  V30 2174 C 201.957 4.58506 1.46033 0
M  V30 2175 C 204.309 5.07196 1.20008 0
M  V30 2176 C 201.637 5.80257 0.867113 0
M  V30 2177 C 203.989 6.29544 0.621086 0
M  V30 2178 C 202.653 6.65987 0.449144 0
M  V30 2179 H 201.923 0.605939 0.42652 0
M  V30 2180 H 204.57 1.86041 0.45397 0
M  V30 2181 H 202.875 2.56118 2.96498 0
M  V30 2182 H 204.572 2.90012 2.76936 0
M  V30 2183 H 201.162 3.91116 1.7529 0
M  V30 2184 H 205.346 4.7867 1.31105 0
M  V30 2185 H 200.602 6.07124 0.721833 0
M  V30 2186 H 204.776 6.95805 0.287798 0
M  V30 2187 H 202.403 7.60199 -0.012632 0
M  V30 2188 N 203.978 -0.674533 1.42435 0
M  V30 2189 C 204.925 -1.78807 1.45934 0
M  V30 2190 C 205.895 -1.63157 0.311271 0
M  V30 2191 O 207.08 -1.83707 0.515383 0
M  V30 2192 C 204.22 -3.16839 1.36773 0
M  V30 2193 C 203.333 -3.43774 2.61617 0
M  V30 2194 C 202.468 -4.71536 2.44597 0
M  V30 2195 C 201.507 -4.91505 3.64814 0
M  V30 2196 N 200.644 -6.10508 3.46734 0
M  V30 2197 H 205.484 -1.75151 2.41093 0
M  V30 2198 H 203.021 -0.85504 1.19697 0
M  V30 2199 H 204.979 -3.96606 1.29459 0
M  V30 2200 H 203.609 -3.19619 0.452089 0
M  V30 2201 H 202.661 -2.58259 2.79297 0
M  V30 2202 H 203.973 -3.54423 3.50978 0
M  V30 2203 H 203.127 -5.59393 2.3487 0
M  V30 2204 H 201.866 -4.6317 1.52726 0
M  V30 2205 H 200.871 -4.0209 3.74972 0
M  V30 2206 H 202.096 -5.01716 4.57665 0
M  V30 2207 H 200.042 -6.03315 2.5758 0
M  V30 2208 H 199.959 -6.2202 4.29682 0
M  V30 2209 H 201.227 -7.01044 3.40819 0
M  V30 2210 N 205.456 -1.28612 -0.910864 0
M  V30 2211 C 206.403 -1.12786 -2.01365 0
M  V30 2212 C 207.373 -0.024201 -1.66082 0
M  V30 2213 O 208.558 -0.189667 -1.89855 0
M  V30 2214 C 205.698 -0.798743 -3.35729 0
M  V30 2215 C 204.811 -1.98173 -3.83864 0
M  V30 2216 C 203.946 -1.59298 -5.06752 0
M  V30 2217 C 202.985 -2.74245 -5.47226 0
M  V30 2218 N 202.122 -2.35842 -6.61304 0
M  V30 2219 H 206.962 -2.07142 -2.14234 0
M  V30 2220 H 204.499 -1.03093 -1.0493 0
M  V30 2221 H 206.457 -0.588662 -4.13026 0
M  V30 2222 H 205.087 0.10789 -3.2262 0
M  V30 2223 H 204.139 -2.30386 -3.02699 0
M  V30 2224 H 205.451 -2.84343 -4.09818 0
M  V30 2225 H 204.605 -1.34513 -5.916 0
M  V30 2226 H 203.344 -0.702618 -4.82612 0
M  V30 2227 H 202.349 -2.99725 -4.60918 0
M  V30 2228 H 203.574 -3.63928 -5.73353 0
M  V30 2229 H 201.52 -1.49279 -6.38789 0
M  V30 2230 H 201.437 -3.15546 -6.86998 0
M  V30 2231 H 202.705 -2.14348 -7.4945 0
M  V30 2232 N 206.934 1.1197 -1.10907 0
M  V30 2233 C 207.897 2.16031 -0.765707 0
M  V30 2234 C 208.897 1.59393 0.212235 0
M  V30 2235 O 210.087 1.74196 -0.0115441 0
M  V30 2236 C 207.219 3.40632 -0.135053 0
M  V30 2237 H 208.412 2.47919 -1.68748 0
M  V30 2238 H 205.965 1.27061 -0.910226 0
M  V30 2239 H 206.7 3.14348 0.797218 0
M  V30 2240 H 206.485 3.8302 -0.838937 0
M  V30 2241 H 207.975 4.17505 0.0892469 0
M  V30 2242 N 208.412 0.89855 1.29475 0
M  V30 2243 C 209.659 0.523882 1.95606 0
M  V30 2244 C 209.987 -0.929608 1.70847 0
M  V30 2245 O 209.242 -1.67401 1.01367 0
M  V30 2246 C 209.541 0.761398 3.49195 0
M  V30 2247 C 209.207 2.19207 3.94029 0
M  V30 2248 C 207.869 2.58326 4.05982 0
M  V30 2249 C 210.221 3.12379 4.17216 0
M  V30 2250 C 207.549 3.898 4.38489 0
M  V30 2251 C 209.901 4.43401 4.51197 0
M  V30 2252 C 208.565 4.82394 4.61359 0
M  V30 2253 H 207.835 0.191702 0.715773 0
M  V30 2254 H 210.482 1.13699 1.54094 0
M  V30 2255 H 208.787 0.0653622 3.91745 0
M  V30 2256 H 210.484 0.450904 3.98457 0
M  V30 2257 H 207.074 1.87846 3.85242 0
M  V30 2258 H 211.258 2.83371 4.07449 0
M  V30 2259 H 206.514 4.19734 4.44559 0
M  V30 2260 H 210.688 5.15623 4.68087 0
M  V30 2261 H 208.315 5.84306 4.86303 0
M  V30 2262 N 209.89 -1.43072 0.660911 0
M  V30 2263 C 210.837 -2.30785 -0.0259884 0
M  V30 2264 C 211.807 -1.45184 -0.806888 0
M  V30 2265 O 212.992 -1.74041 -0.781943 0
M  V30 2266 C 210.132 -3.30861 -0.981067 0
M  V30 2267 C 209.245 -4.31558 -0.195458 0
M  V30 2268 C 208.38 -5.18712 -1.14503 0
M  V30 2269 C 207.419 -6.11097 -0.350299 0
M  V30 2270 N 206.556 -6.90849 -1.25186 0
M  V30 2271 H 211.396 -2.88975 0.727846 0
M  V30 2272 H 208.933 -1.42353 0.370682 0
M  V30 2273 H 210.891 -3.87399 -1.54849 0
M  V30 2274 H 209.521 -2.74304 -1.70169 0
M  V30 2275 H 208.573 -3.77252 0.488374 0
M  V30 2276 H 209.885 -4.9701 0.422176 0
M  V30 2277 H 209.039 -5.79914 -1.78284 0
M  V30 2278 H 207.778 -4.53404 -1.79656 0
M  V30 2279 H 206.783 -5.48976 0.300808 0
M  V30 2280 H 208.008 -6.7845 0.296941 0
M  V30 2281 H 205.954 -6.28182 -1.89005 0
M  V30 2282 H 205.871 -7.52854 -0.688971 0
M  V30 2283 H 207.139 -7.5655 -1.87757 0
M  V30 2284 N 211.368 -0.403325 -1.52352 0
M  V30 2285 C 212.614 0.174605 -2.02047 0
M  V30 2286 C 212.947 1.45282 -1.28867 0
M  V30 2287 O 212.222 1.90483 -0.393257 0
M  V30 2288 C 212.505 0.428238 -3.57545 0
M  V30 2289 C 212.358 -0.866248 -4.4138 0
M  V30 2290 C 213.677 1.21287 -4.23057 0
M  V30 2291 H 210.796 0.0619851 -0.734389 0
M  V30 2292 H 213.438 -0.53565 -1.82293 0
M  V30 2293 H 211.588 1.03327 -3.74507 0
M  V30 2294 H 213.26 -1.50265 -4.3614 0
M  V30 2295 H 211.503 -1.47851 -4.07827 0
M  V30 2296 H 212.174 -0.643249 -5.48239 0
M  V30 2297 H 214.65 0.700703 -4.10158 0
M  V30 2298 H 213.526 1.35909 -5.31808 0
M  V30 2299 H 213.787 2.23193 -3.81625 0
M  V30 2300 N 212.846 1.57033 -0.133567 0
M  V30 2301 C 214.092 1.96764 0.515326 0
M  V30 2302 C 214.447 1.01653 1.63353 0
M  V30 2303 O 213.74 0.0491374 1.91537 0
M  V30 2304 C 213.934 3.40674 1.08057 0
M  V30 2305 C 213.763 4.49696 0.0186522 0
M  V30 2306 C 212.533 5.03567 -0.418174 0
M  V30 2307 C 214.731 5.08536 -0.767809 0
M  V30 2308 N 212.713 5.9618 -1.46434 0
M  V30 2309 C 214.084 5.97231 -1.6648 0
M  V30 2310 C 216.139 4.9115 -0.817087 0
M  V30 2311 C 214.842 6.70401 -2.60681 0
M  V30 2312 C 216.868 5.65012 -1.74687 0
M  V30 2313 C 216.23 6.53403 -2.63141 0
M  V30 2314 H 212.329 0.765919 0.157771 0
M  V30 2315 H 214.913 1.93395 -0.22506 0
M  V30 2316 H 213.084 3.44662 1.79061 0
M  V30 2317 H 214.816 3.67495 1.69497 0
M  V30 2318 H 211.571 4.73594 -0.0229803 0
M  V30 2319 H 211.995 6.47191 -1.98678 0
M  V30 2320 H 216.637 4.22543 -0.147326 0
M  V30 2321 H 214.355 7.38245 -3.28664 0
M  V30 2322 H 217.941 5.53559 -1.79063 0
M  V30 2323 H 216.821 7.09556 -3.33917 0
M  V30 2324 N 214.325 -0.140222 1.56975 0
M  V30 2325 C 215.55 -0.870414 1.88251 0
M  V30 2326 C 215.975 -1.73637 0.723312 0
M  V30 2327 O 215.333 -1.78329 -0.32689 0
M  V30 2328 C 215.381 -1.69737 3.18154 0
M  V30 2329 O 214.485 -2.80229 3.02565 0
M  V30 2330 H 213.826 -0.242025 0.61832 0
M  V30 2331 H 216.356 -0.128999 2.04193 0
M  V30 2332 H 216.366 -2.09099 3.50345 0
M  V30 2333 H 215.041 -1.06152 4.02125 0
M  V30 2334 H 213.618 -2.44224 2.81796 0
M  V30 2335 N 215.803 -1.52179 -0.40978 0
M  V30 2336 C 217.08 -1.56769 -1.16974 0
M  V30 2337 C 217.46 -0.348322 -2.08206 0
M  V30 2338 O 216.808 0.664862 -2.18613 0
M  V30 2339 C 217.018 -2.89603 -1.9476 0
M  V30 2340 C 218.366 -3.42579 -2.50849 0
M  V30 2341 O 219.39 -2.91338 -2.04941 0
M  V30 2342 O 218.249 -4.32054 -3.34652 0
M  V30 2343 H 215.343 -0.631439 -0.534054 0
M  V30 2344 H 217.889 -1.64507 -0.416613 0
M  V30 2345 H 216.661 -3.698 -1.27921 0
M  V30 2346 H 216.284 -2.85155 -2.77079 0
M  V30 2347 N 217.281 0.66697 -1.42791 0
M  V30 2348 C 218.527 1.4291 -1.43891 0
M  V30 2349 C 218.86 1.94114 -0.0578972 0
M  V30 2350 O 218.135 1.71414 0.91911 0
M  V30 2351 C 218.418 2.62049 -2.46987 0
M  V30 2352 C 218.271 2.16426 -3.94309 0
M  V30 2353 C 219.59 3.64266 -2.46978 0
M  V30 2354 H 216.709 0.518306 -0.523954 0
M  V30 2355 H 219.351 0.757321 -1.74255 0
M  V30 2356 H 217.501 3.19361 -2.21225 0
M  V30 2357 H 219.173 1.64221 -4.31079 0
M  V30 2358 H 217.416 1.47925 -4.078 0
M  V30 2359 H 218.087 3.02038 -4.62036 0
M  V30 2360 H 220.563 3.16686 -2.69906 0
M  V30 2361 H 219.439 4.45196 -3.21079 0
M  V30 2362 H 219.7 4.15927 -1.49857 0
M  V30 2363 N 218.759 1.29093 0.90403 0
M  V30 2364 C 219.987 1.19689 1.68766 0
M  V30 2365 C 220.402 -0.243113 1.87228 0
M  V30 2366 O 219.759 -1.16326 1.40621 0
M  V30 2367 C 219.81 1.90144 3.07453 0
M  V30 2368 O 219.531 3.2852 2.89838 0
M  V30 2369 C 221.032 1.87162 4.01852 0
M  V30 2370 H 218.252 0.415035 0.527244 0
M  V30 2371 H 220.796 1.7039 1.13082 0
M  V30 2372 H 218.951 1.43289 3.59926 0
M  V30 2373 H 219.365 3.63944 3.77684 0
M  V30 2374 H 220.839 2.41032 4.96596 0
M  V30 2375 H 221.316 0.84617 4.30972 0
M  V30 2376 H 221.922 2.33741 3.5531 0
M  V30 2377 N 220.237 -1.11381 1.11499 0
M  V30 2378 C 221.648 -1.6465 0.880191 0
M  V30 2379 C 221.999 -1.87199 -0.587434 0
M  V30 2380 O 221.124 -1.60667 -1.44966 0
M  V30 2381 C 221.719 -2.99105 1.59128 0
M  V30 2382 C 220.278 -3.49279 1.40289 0
M  V30 2383 C 219.425 -2.24077 1.63354 0
M  V30 2384 H 222.376 -0.950123 1.27116 0
M  V30 2385 H 222.397 -3.66107 1.03664 0
M  V30 2386 H 221.909 -2.82661 2.65941 0
M  V30 2387 H 220.01 -3.70887 0.356888 0
M  V30 2388 H 220.123 -4.2803 2.15238 0
M  V30 2389 H 218.487 -2.31733 1.05698 0
M  V30 2390 H 219.27 -2.10175 2.71443 0
M  V30 2391 N 221.715 -0.905404 -1.28997 0
M  V30 2392 C 222.645 -0.404212 -2.29975 0
M  V30 2393 C 223.626 0.523784 -1.61835 0
M  V30 2394 O 224.811 0.433298 -1.89304 0
M  V30 2395 C 221.941 0.364042 -3.45387 0
M  V30 2396 C 220.895 -0.474048 -4.25367 0
M  V30 2397 C 220.221 0.422045 -5.33032 0
M  V30 2398 C 221.521 -1.72696 -4.92923 0
M  V30 2399 H 223.215 -1.24807 -2.72146 0
M  V30 2400 H 220.761 -0.601585 -1.30832 0
M  V30 2401 H 222.714 0.725447 -4.15109 0
M  V30 2402 H 221.438 1.24174 -3.02074 0
M  V30 2403 H 220.097 -0.81786 -3.57361 0
M  V30 2404 H 219.745 1.29804 -4.85963 0
M  V30 2405 H 219.445 -0.135057 -5.87445 0
M  V30 2406 H 220.969 0.779517 -6.05604 0
M  V30 2407 H 222.383 -1.43495 -5.55051 0
M  V30 2408 H 220.78 -2.22582 -5.57295 0
M  V30 2409 H 221.85 -2.45964 -4.17887 0
M  V30 2410 N 223.193 1.4272 -0.668489 0
M  V30 2411 C 224.141 2.32586 0.0254857 0
M  V30 2412 C 225.135 1.49471 0.797176 0
M  V30 2413 O 226.341 1.65583 0.705853 0
M  V30 2414 H 222.716 0.751514 0.0270339 0
M  V30 2415 H 224.687 2.88823 -0.749936 0
M  V30 2416 C 223.436 3.3397 0.967427 0
M  V30 2417 H 222.759 3.97961 0.383048 0
M  V30 2418 H 224.199 3.9945 1.42181 0
M  V30 2419 C 222.658 2.65744 2.0708 0
M  V30 2420 O 223.188 2.48454 3.15648 0
M  V30 2421 N 221.394 2.2487 1.8407 0
M  V30 2422 H 220.941 2.39132 0.95778 0
M  V30 2423 H 220.899 1.79552 2.58086 0
M  V30 2424 N 224.671 0.411399 1.52136 0
M  V30 2425 C 225.918 -0.163645 2.01838 0
M  V30 2426 C 226.246 -1.4495 1.29691 0
M  V30 2427 O 225.501 -1.91725 0.392431 0
M  V30 2428 C 225.8 -0.455872 3.54481 0
M  V30 2429 C 225.466 0.741055 4.44769 0
M  V30 2430 C 224.128 1.06936 4.69167 0
M  V30 2431 C 226.48 1.54075 4.97906 0
M  V30 2432 C 223.808 2.19851 5.43951 0
M  V30 2433 C 226.16 2.66067 5.73926 0
M  V30 2434 C 224.824 2.99381 5.96596 0
M  V30 2435 H 224.094 -0.0598821 0.738576 0
M  V30 2436 H 226.741 0.553283 1.83333 0
M  V30 2437 H 225.046 -1.2544 3.71177 0
M  V30 2438 H 226.743 -0.913802 3.90449 0
M  V30 2439 H 223.333 0.475192 4.25958 0
M  V30 2440 H 227.517 1.30033 4.78963 0
M  V30 2441 H 222.773 2.46006 5.59724 0
M  V30 2442 H 226.947 3.28419 6.14096 0
M  V30 2443 H 224.574 3.86992 6.54325 0
M  V30 2444 N 226.149 -1.5696 0.141893 0
M  V30 2445 C 227.377 -2.00322 -0.517579 0
M  V30 2446 C 227.792 -1.02193 -1.58752 0
M  V30 2447 O 227.149 -0.0181619 -1.82491 0
M  V30 2448 C 227.2 -3.43618 -1.12289 0
M  V30 2449 O 226.921 -4.37995 -0.0956929 0
M  V30 2450 C 228.422 -4.02231 -1.86347 0
M  V30 2451 H 225.642 -0.657243 -0.135177 0
M  V30 2452 H 228.186 -2.03146 0.234973 0
M  V30 2453 H 226.341 -3.41662 -1.82609 0
M  V30 2454 H 226.755 -5.21729 -0.538469 0
M  V30 2455 H 228.229 -5.04509 -2.23997 0
M  V30 2456 H 228.706 -3.42655 -2.74744 0
M  V30 2457 H 229.312 -4.07802 -1.20737 0
M  V30 2458 N 227.627 0.131896 -1.57047 0
M  V30 2459 C 229.043 0.485031 -1.52051 0
M  V30 2460 C 229.243 1.82563 -0.85281 0
M  V30 2461 O 228.299 2.48817 -0.429694 0
M  V30 2462 C 229.612 0.481409 -2.96821 0
M  V30 2463 C 231.16 0.565868 -3.07842 0
M  V30 2464 C 231.635 0.592762 -4.54148 0
M  V30 2465 N 233.126 0.654564 -4.58552 0
M  V30 2466 C 233.861 0.696608 -5.69153 0
M  V30 2467 N 233.357 0.697078 -6.89284 0
M  V30 2468 N 235.15 0.738639 -5.57226 0
M  V30 2469 H 227.301 -0.746664 -1.98843 0
M  V30 2470 H 229.564 -0.273999 -0.90754 0
M  V30 2471 H 229.27 -0.435731 -3.4899 0
M  V30 2472 H 229.144 1.3139 -3.53577 0
M  V30 2473 H 231.531 1.47343 -2.55684 0
M  V30 2474 H 231.612 -0.29406 -2.54104 0
M  V30 2475 H 231.256 -0.310701 -5.06949 0
M  V30 2476 H 231.186 1.46939 -5.05684 0
M  V30 2477 H 233.677 0.660887 -3.72076 0
M  V30 2478 H 233.99 0.731426 -7.69331 0
M  V30 2479 H 232.335 0.66471 -6.91814 0
M  V30 2480 H 235.526 0.735545 -4.62285 0
M  V30 2481 H 235.699 0.767938 -6.43434 0
M  V30 2482 N 229.106 1.52395 0.401703 0
M  V30 2483 C 230.036 1.79231 1.49661 0
M  V30 2484 C 231.017 0.643654 1.57452 0
M  V30 2485 O 232.202 0.889989 1.72606 0
M  V30 2486 C 229.332 1.94971 2.87409 0
M  V30 2487 C 228.286 3.10604 2.94465 0
M  V30 2488 C 227.612 3.11577 4.34538 0
M  V30 2489 C 228.912 4.49921 2.6527 0
M  V30 2490 H 230.606 2.70917 1.27454 0
M  V30 2491 H 228.152 1.30362 0.6117 0
M  V30 2492 H 230.105 2.12328 3.63999 0
M  V30 2493 H 228.829 0.999632 3.10926 0
M  V30 2494 H 227.488 2.93009 2.20321 0
M  V30 2495 H 227.136 2.14277 4.55076 0
M  V30 2496 H 226.836 3.89247 4.40183 0
M  V30 2497 H 228.36 3.31073 5.13053 0
M  V30 2498 H 229.774 4.67683 3.31581 0
M  V30 2499 H 228.171 5.29564 2.82281 0
M  V30 2500 H 229.241 4.57507 1.60671 0
M  V30 2501 N 230.584 -0.659388 1.43143 0
M  V30 2502 C 231.534 -1.7655 1.44271 0
M  V30 2503 C 232.518 -1.57847 0.311961 0
M  V30 2504 O 233.71 -1.68064 0.555306 0
M  V30 2505 C 230.839 -3.15104 1.36251 0
M  V30 2506 C 229.925 -3.39377 2.54331 0
M  V30 2507 N 230.316 -3.34153 3.79704 0
M  V30 2508 C 228.614 -3.70072 2.48922 0
M  V30 2509 C 229.315 -3.58337 4.58225 0
M  V30 2510 N 228.291 -3.79851 3.88863 0
M  V30 2511 H 232.093 -1.70928 2.39083 0
M  V30 2512 H 229.607 -0.860823 1.37708 0
M  V30 2513 H 231.604 -3.94389 1.35141 0
M  V30 2514 H 230.264 -3.21913 0.424531 0
M  V30 2515 H 231.275 -3.13704 4.1208 0
M  V30 2516 H 227.952 -3.84034 1.63781 0
M  V30 2517 H 229.342 -3.60129 5.67236 0
M  V30 2518 N 232.062 -1.29571 -0.897171 0
M  V30 2519 C 233.339 -1.08365 -1.62839 0
M  V30 2520 C 233.719 0.371331 -2.07808 0
M  V30 2521 O 233.067 1.3606 -1.83576 0
M  V30 2522 C 233.277 -2.0735 -2.80726 0
M  V30 2523 C 234.625 -2.38406 -3.51351 0
M  V30 2524 O 235.649 -2.05564 -2.90898 0
M  V30 2525 O 234.508 -2.9453 -4.60341 0
M  V30 2526 H 231.602 -0.415345 -0.715134 0
M  V30 2527 H 234.148 -1.40952 -0.945018 0
M  V30 2528 H 232.92 -3.05339 -2.44711 0
M  V30 2529 H 232.543 -1.75507 -3.56767 0
M  V30 2530 N 233.54 1.10788 -1.12088 0
M  V30 2531 C 234.788 1.8231 -0.872205 0
M  V30 2532 C 235.109 1.85419 0.603709 0
M  V30 2533 O 234.379 1.32963 1.43867 0
M  V30 2534 H 232.959 0.675137 -0.319686 0
M  V30 2535 H 235.621 1.34068 -1.41463 0
M  V30 2536 H 234.717 2.85955 -1.25045 0
M  V30 2537 N 235.018 0.912232 1.28515 0
M  V30 2538 C 236.267 0.540504 1.94323 0
M  V30 2539 C 236.58 -0.920044 1.72611 0
M  V30 2540 O 237.786 -1.39986 2.32629 0
M  V30 2541 C 236.242 0.915803 3.48053 0
M  V30 2542 C 235.85 2.39598 3.78546 0
M  V30 2543 C 237.594 0.614588 4.20027 0
M  V30 2544 C 235.501 2.71148 5.25578 0
M  V30 2545 H 234.431 0.198418 0.727424 0
M  V30 2546 H 237.082 1.11094 1.46049 0
M  V30 2547 H 235.464 0.274168 3.9505 0
M  V30 2548 H 236.638 3.08422 3.42364 0
M  V30 2549 H 234.953 2.66749 3.1974 0
M  V30 2550 H 237.55 0.827002 5.28266 0
M  V30 2551 H 237.893 -0.447531 4.13887 0
M  V30 2552 H 238.426 1.21462 3.78803 0
M  V30 2553 H 235.165 3.76207 5.36794 0
M  V30 2554 H 234.685 2.0696 5.62963 0
M  V30 2555 H 236.364 2.58072 5.93302 0
M  V30 2556 N 236.496 -1.42363 0.676048 0
M  V30 2557 C 237.459 -2.29199 0.00766941 0
M  V30 2558 C 238.459 -1.43389 -0.727745 0
M  V30 2559 O 239.649 -1.64764 -0.56556 0
M  V30 2560 C 236.781 -3.2591 -0.999785 0
M  V30 2561 H 237.974 -2.89794 0.771988 0
M  V30 2562 H 235.527 -1.50024 0.438468 0
M  V30 2563 H 236.262 -2.70256 -1.79255 0
M  V30 2564 H 236.047 -3.89202 -0.475829 0
M  V30 2565 H 237.537 -3.91028 -1.46583 0
M  V30 2566 N 237.974 -0.419461 -1.51915 0
M  V30 2567 C 239.251 0.211999 -1.94448 0
M  V30 2568 C 239.631 1.61703 -1.35703 0
M  V30 2569 O 238.979 2.22102 -0.536931 0
M  V30 2570 C 239.189 0.207872 -3.4838 0
M  V30 2571 C 240.537 0.422192 -4.22496 0
M  V30 2572 O 241.561 0.286778 -3.55044 0
M  V30 2573 O 240.42 0.690009 -5.42126 0
M  V30 2574 H 237.514 0.139586 -0.815135 0
M  V30 2575 H 240.06 -0.476151 -1.62883 0
M  V30 2576 H 238.832 -0.775102 -3.83546 0
M  V30 2577 H 238.455 0.939688 -3.86336 0
M  V30 2578 N 239.452 1.56882 -0.150215 0
M  V30 2579 C 240.701 1.95403 0.500071 0
M  V30 2580 C 241.014 1.03777 1.658 0
M  V30 2581 O 242.22 1.31889 2.37313 0
M  V30 2582 C 240.676 3.4738 0.941018 0
M  V30 2583 C 240.284 4.47596 -0.190158 0
M  V30 2584 C 242.028 3.9476 1.56091 0
M  V30 2585 C 239.935 5.90787 0.269237 0
M  V30 2586 H 238.865 0.729515 0.190588 0
M  V30 2587 H 241.516 1.81988 -0.235074 0
M  V30 2588 H 239.898 3.56138 1.73152 0
M  V30 2589 H 241.072 4.50536 -0.967157 0
M  V30 2590 H 239.387 4.10151 -0.718666 0
M  V30 2591 H 241.984 4.99181 1.9163 0
M  V30 2592 H 242.327 3.36494 2.45107 0
M  V30 2593 H 242.86 3.88932 0.835249 0
M  V30 2594 H 239.599 6.52879 -0.585621 0
M  V30 2595 H 239.119 5.912 1.01204 0
M  V30 2596 H 240.798 6.42979 0.720176 0
M  V30 2597 N 240.93 -0.123565 1.57115 0
M  V30 2598 C 241.863 -1.18202 1.95201 0
M  V30 2599 C 242.841 -1.40349 0.821031 0
M  V30 2600 O 244.025 -1.54578 1.07879 0
M  V30 2601 C 241.152 -2.53671 2.24429 0
M  V30 2602 C 240.198 -2.4798 3.46999 0
M  V30 2603 S 241.031 -1.92389 4.99747 0
M  V30 2604 C 242.187 -3.2954 5.32123 0
M  V30 2605 H 242.42 -0.857212 2.84674 0
M  V30 2606 H 239.953 -0.33014 1.50829 0
M  V30 2607 H 241.911 -3.3162 2.41947 0
M  V30 2608 H 240.572 -2.83332 1.35579 0
M  V30 2609 H 239.765 -3.47758 3.64801 0
M  V30 2610 H 239.367 -1.7815 3.28844 0
M  V30 2611 H 241.659 -4.25736 5.27025 0
M  V30 2612 H 242.602 -3.16569 6.33395 0
M  V30 2613 H 243.01 -3.27758 4.59603 0
M  V30 2614 N 242.408 -1.52605 -0.393616 0
M  V30 2615 C 243.657 -1.66649 -1.13627 0
M  V30 2616 C 243.97 -0.410364 -1.91247 0
M  V30 2617 O 245.176 -0.430854 -2.68059 0
M  V30 2618 C 243.632 -2.9449 -2.06891 0
M  V30 2619 C 243.24 -4.27266 -1.34714 0
M  V30 2620 C 244.984 -3.17899 -2.81319 0
M  V30 2621 C 242.891 -5.46217 -2.26717 0
M  V30 2622 H 241.821 -0.62084 -0.427871 0
M  V30 2623 H 244.472 -1.791 -0.399428 0
M  V30 2624 H 242.854 -2.75774 -2.84191 0
M  V30 2625 H 244.028 -4.56518 -0.626714 0
M  V30 2626 H 242.343 -4.10081 -0.722643 0
M  V30 2627 H 244.94 -4.03949 -3.50328 0
M  V30 2628 H 245.283 -2.32777 -3.45139 0
M  V30 2629 H 245.816 -3.37159 -2.11113 0
M  V30 2630 H 242.555 -6.33733 -1.67521 0
M  V30 2631 H 242.075 -5.21283 -2.96689 0
M  V30 2632 H 243.754 -5.7991 -2.86903 0
M  V30 2633 N 243.887 0.651787 -1.4349 0
M  V30 2634 C 245.112 1.44434 -1.48841 0
M  V30 2635 C 245.537 1.8779 -0.107955 0
M  V30 2636 O 244.895 1.57464 0.898602 0
M  V30 2637 C 244.943 2.65458 -2.44059 0
M  V30 2638 O 244.047 3.64566 -1.92784 0
M  V30 2639 H 243.388 0.433005 -0.503391 0
M  V30 2640 H 245.918 0.797451 -1.88419 0
M  V30 2641 H 245.928 3.13255 -2.6141 0
M  V30 2642 H 244.603 2.33244 -3.4434 0
M  V30 2643 H 243.18 3.23716 -1.851 0
M  V30 2644 N 245.365 1.30045 0.890287 0
M  V30 2645 C 246.612 1.18561 1.64163 0
M  V30 2646 C 246.94 -0.260852 1.92743 0
M  V30 2647 O 246.195 -1.20376 1.54299 0
M  V30 2648 C 246.494 1.95409 2.99249 0
M  V30 2649 C 246.16 3.45066 2.90242 0
M  V30 2650 C 244.822 3.85878 2.87492 0
M  V30 2651 C 247.174 4.4039 2.78758 0
M  V30 2652 C 244.502 5.20314 2.7109 0
M  V30 2653 C 246.854 5.74928 2.63894 0
M  V30 2654 C 245.518 6.14986 2.59516 0
M  V30 2655 H 244.788 0.433846 0.600715 0
M  V30 2656 H 247.435 1.61088 1.03552 0
M  V30 2657 H 245.74 1.45501 3.63781 0
M  V30 2658 H 247.437 1.8392 3.56334 0
M  V30 2659 H 244.027 3.12631 2.93189 0
M  V30 2660 H 248.211 4.09806 2.79952 0
M  V30 2661 H 243.467 5.50449 2.66112 0
M  V30 2662 H 247.641 6.48434 2.53981 0
M  V30 2663 H 245.268 7.19104 2.46565 0
M  V30 2664 N 246.843 -1.10192 1.12674 0
M  V30 2665 C 248.091 -1.81845 0.881861 0
M  V30 2666 C 248.412 -1.85737 -0.593867 0
M  V30 2667 O 247.682 -1.33724 -1.4316 0
M  V30 2668 H 246.262 -0.673432 0.323261 0
M  V30 2669 H 248.924 -1.33316 1.42172 0
M  V30 2670 H 248.02 -2.85288 1.2656 0
M  V30 2671 N 248.321 -0.919034 -1.28029 0
M  V30 2672 C 249.57 -0.550802 -1.94034 0
M  V30 2673 C 249.883 0.910877 -1.73096 0
M  V30 2674 O 251.089 1.3875 -2.33368 0
M  V30 2675 C 249.545 -0.934249 -3.47563 0
M  V30 2676 C 249.153 -2.41602 -3.7727 0
M  V30 2677 C 250.897 -0.636854 -4.19696 0
M  V30 2678 C 248.804 -2.73932 -5.24133 0
M  V30 2679 H 247.734 -0.202273 -0.726362 0
M  V30 2680 H 250.385 -1.11867 -1.45458 0
M  V30 2681 H 248.767 -0.295115 -3.94899 0
M  V30 2682 H 249.941 -3.10233 -3.40723 0
M  V30 2683 H 248.256 -2.68441 -3.18321 0
M  V30 2684 H 250.853 -0.855005 -5.2782 0
M  V30 2685 H 251.196 0.425575 -4.14119 0
M  V30 2686 H 251.729 -1.23469 -3.78154 0
M  V30 2687 H 248.468 -3.79049 -5.34792 0
M  V30 2688 H 247.988 -2.09942 -5.61858 0
M  V30 2689 H 249.667 -2.61215 -5.91925 0
M  V30 2690 N 249.799 1.42003 -0.683588 0
M  V30 2691 C 250.746 2.30798 -0.0107309 0
M  V30 2692 C 251.716 1.4645 0.783688 0
M  V30 2693 O 252.901 1.75263 0.754156 0
M  V30 2694 C 250.041 3.3238 0.928306 0
M  V30 2695 C 249.154 4.31814 0.126776 0
M  V30 2696 C 248.289 5.20468 1.06236 0
M  V30 2697 C 247.328 6.11577 0.253035 0
M  V30 2698 N 246.465 6.92754 1.14179 0
M  V30 2699 H 251.305 2.8778 -0.773727 0
M  V30 2700 H 248.842 1.41745 -0.393283 0
M  V30 2701 H 250.8 3.89813 1.48666 0
M  V30 2702 H 249.43 2.76976 1.65783 0
M  V30 2703 H 248.482 3.76427 -0.54833 0
M  V30 2704 H 249.794 4.96276 -0.501192 0
M  V30 2705 H 248.948 5.82677 1.69035 0
M  V30 2706 H 247.687 4.56204 1.7242 0
M  V30 2707 H 246.692 5.48428 -0.388108 0
M  V30 2708 H 247.917 6.77892 -0.404839 0
M  V30 2709 H 245.863 6.3111 1.78987 0
M  V30 2710 H 245.78 7.53855 0.569111 0
M  V30 2711 H 247.048 7.59441 1.75697 0
M  V30 2712 N 251.277 0.427512 1.51691 0
M  V30 2713 C 252.187 -0.39527 2.31246 0
M  V30 2714 C 253.203 -1.03674 1.39742 0
M  V30 2715 O 254.379 -1.03425 1.72816 0
M  V30 2716 C 251.444 -1.48706 3.13189 0
M  V30 2717 C 250.505 -0.866743 4.20459 0
M  V30 2718 C 249.738 -1.90651 4.98486 0
M  V30 2719 O 249.961 -3.12733 4.77026 0
M  V30 2720 O 248.895 -1.5025 5.82845 0
M  V30 2721 H 252.721 0.253918 3.02637 0
M  V30 2722 H 250.306 0.190274 1.48183 0
M  V30 2723 H 252.188 -2.12047 3.64162 0
M  V30 2724 H 250.863 -2.12051 2.44573 0
M  V30 2725 H 249.77 -0.195544 3.73589 0
M  V30 2726 H 251.103 -0.276934 4.9142 0
M  V30 2727 N 252.755 -1.56801 0.158532 0
M  V30 2728 C 253.705 -2.13923 -0.788738 0
M  V30 2729 C 254.689 -1.07006 -1.2016 0
M  V30 2730 O 255.881 -1.33159 -1.1661 0
M  V30 2731 C 253.01 -2.77348 -2.02319 0
M  V30 2732 C 252.096 -3.91404 -1.6329 0
M  V30 2733 N 252.487 -4.9677 -0.951463 0
M  V30 2734 C 250.785 -4.02326 -1.92482 0
M  V30 2735 C 251.486 -5.76698 -0.761221 0
M  V30 2736 N 250.462 -5.27859 -1.29869 0
M  V30 2737 H 254.264 -2.92757 -0.258995 0
M  V30 2738 H 251.778 -1.62344 -0.0426055 0
M  V30 2739 H 253.775 -3.16639 -2.71192 0
M  V30 2740 H 252.435 -1.99991 -2.558 0
M  V30 2741 H 253.446 -5.14284 -0.610928 0
M  V30 2742 H 250.123 -3.36059 -2.47732 0
M  V30 2743 H 251.513 -6.71529 -0.223284 0
M  V30 2744 N 254.233 0.115231 -1.57178 0
M  V30 2745 C 255.481 0.820727 -1.84685 0
M  V30 2746 C 255.802 1.80237 -0.744279 0
M  V30 2747 O 255.072 1.94529 0.231375 0
M  V30 2748 H 253.652 0.306084 -0.681411 0
M  V30 2749 H 256.314 0.101656 -1.94635 0
M  V30 2750 H 255.41 1.36366 -2.80733 0
M  V30 2751 N 255.711 1.52812 0.385517 0
M  V30 2752 C 256.988 1.5861 1.14465 0
M  V30 2753 C 257.368 0.381402 2.07626 0
M  V30 2754 O 256.716 -0.629999 2.19643 0
M  V30 2755 C 256.926 2.92664 1.90128 0
M  V30 2756 C 258.274 3.46526 2.45367 0
M  V30 2757 O 259.298 2.94562 2.0028 0
M  V30 2758 O 258.157 4.37323 3.27736 0
M  V30 2759 H 255.251 0.639855 0.523941 0
M  V30 2760 H 257.797 1.65149 0.390389 0
M  V30 2761 H 256.569 3.71788 1.22022 0
M  V30 2762 H 256.192 2.89527 2.72507 0
M  V30 2763 N 257.189 -0.644168 1.43834 0
M  V30 2764 C 258.436 -1.40395 1.4593 0
M  V30 2765 C 258.764 -1.94305 0.0869658 0
M  V30 2766 O 258.019 -1.73288 -0.909378 0
M  V30 2767 C 258.318 -2.59615 2.45631 0
M  V30 2768 C 257.984 -2.2407 3.91284 0
M  V30 2769 C 256.646 -2.14089 4.30952 0
M  V30 2770 C 258.998 -1.95775 4.83034 0
M  V30 2771 C 256.326 -1.73981 5.6031 0
M  V30 2772 C 258.678 -1.57163 6.12766 0
M  V30 2773 C 257.342 -1.45713 6.51402 0
M  V30 2774 H 256.612 -0.513741 0.533995 0
M  V30 2775 H 259.259 -0.731724 1.76969 0
M  V30 2776 H 257.564 -3.32011 2.08028 0
M  V30 2777 H 259.261 -3.17834 2.44504 0
M  V30 2778 H 255.851 -2.32753 3.59895 0
M  V30 2779 H 260.035 -2.02403 4.53152 0
M  V30 2780 H 255.291 -1.63709 5.89075 0
M  V30 2781 H 259.465 -1.34303 6.83327 0
M  V30 2782 H 257.092 -1.14406 7.51542 0
M  V30 2783 N 258.668 -1.30515 -0.883378 0
M  V30 2784 C 259.898 -1.22182 -1.66599 0
M  V30 2785 C 260.306 0.217507 -1.87946 0
M  V30 2786 O 259.649 1.1554 -1.42815 0
M  V30 2787 C 259.711 -1.88146 -3.06335 0
M  V30 2788 C 259.375 -3.37476 -3.08154 0
M  V30 2789 C 260.372 -4.33443 -2.87094 0
M  V30 2790 C 258.057 -3.7895 -3.29701 0
M  V30 2791 C 260.051 -5.68858 -2.8754 0
M  V30 2792 C 257.738 -5.14482 -3.29776 0
M  V30 2793 C 258.736 -6.09246 -3.0872 0
M  V30 2794 O 258.424 -7.42302 -3.08615 0
M  V30 2795 H 258.156 -0.423898 -0.52658 0
M  V30 2796 H 260.71 -1.72703 -1.11188 0
M  V30 2797 H 258.94 -1.32157 -3.63416 0
M  V30 2798 H 260.629 -1.7391 -3.66756 0
M  V30 2799 H 261.395 -4.02733 -2.70243 0
M  V30 2800 H 257.274 -3.05631 -3.45124 0
M  V30 2801 H 260.818 -6.428 -2.71024 0
M  V30 2802 H 256.715 -5.44832 -3.46163 0
M  V30 2803 H 257.483 -7.5131 -3.24769 0
M  V30 2804 N 260.146 1.09593 -1.13257 0
M  V30 2805 C 261.557 1.63229 -0.906274 0
M  V30 2806 C 261.908 1.8811 0.557578 0
M  V30 2807 O 261.033 1.62953 1.42391 0
M  V30 2808 C 261.628 2.96535 -1.63867 0
M  V30 2809 C 260.187 3.47003 -1.45828 0
M  V30 2810 C 259.334 2.2145 -1.66898 0
M  V30 2811 H 262.285 0.92978 -1.28611 0
M  V30 2812 H 262.306 3.64411 -1.09476 0
M  V30 2813 H 261.818 2.78394 -2.70404 0
M  V30 2814 H 259.919 3.70272 -0.415848 0
M  V30 2815 H 260.032 4.24551 -2.2202 0
M  V30 2816 H 258.396 2.30022 -1.09371 0
M  V30 2817 H 259.179 2.0583 -2.74752 0
M  V30 2818 N 261.624 0.925811 1.2754 0
M  V30 2819 C 262.871 0.565255 1.94451 0
M  V30 2820 C 263.199 -0.89316 1.7278 0
M  V30 2821 O 262.454 -1.65213 1.04895 0
M  V30 2822 C 262.753 0.835296 3.47502 0
M  V30 2823 C 262.419 2.27515 3.89291 0
M  V30 2824 C 261.081 2.66879 4.00411 0
M  V30 2825 C 263.433 3.21158 4.10496 0
M  V30 2826 C 260.761 3.99014 4.30122 0
M  V30 2827 C 263.113 4.52871 4.4169 0
M  V30 2828 C 261.777 4.92072 4.51023 0
M  V30 2829 H 261.047 0.206841 0.711546 0
M  V30 2830 H 263.694 1.16942 1.51647 0
M  V30 2831 H 261.999 0.148442 3.91519 0
M  V30 2832 H 263.696 0.535322 3.97411 0
M  V30 2833 H 260.286 1.95976 3.81171 0
M  V30 2834 H 264.47 2.9195 4.01346 0
M  V30 2835 H 259.726 4.2907 4.35556 0
M  V30 2836 H 263.9 5.25436 4.57045 0
M  V30 2837 H 261.527 5.9449 4.738 0
M  V30 2838 N 263.102 -1.41638 0.69111 0
M  V30 2839 C 264.379 -1.95036 0.148421 0
M  V30 2840 C 264.759 -1.63072 -1.34055 0
M  V30 2841 O 264.107 -0.93538 -2.08478 0
M  V30 2842 C 264.317 -3.46279 0.434951 0
M  V30 2843 C 265.665 -4.23069 0.360275 0
M  V30 2844 O 266.689 -3.54277 0.369613 0
M  V30 2845 O 265.548 -5.45583 0.316534 0
M  V30 2846 H 262.642 -0.826908 0.0123654 0
M  V30 2847 H 265.188 -1.5138 0.766963 0
M  V30 2848 H 263.96 -3.6281 1.46576 0
M  V30 2849 H 263.583 -3.97019 -0.214787 0
M  V30 2850 N 264.58 -0.43555 -1.51462 0
M  V30 2851 C 265.828 0.131254 -2.01673 0
M  V30 2852 C 266.149 1.43368 -1.32177 0
M  V30 2853 O 265.419 1.90524 -0.455769 0
M  V30 2854 H 263.999 0.0514954 -0.745223 0
M  V30 2855 H 266.661 -0.577847 -1.86137 0
M  V30 2856 H 265.757 0.308446 -3.10572 0
M  V30 2857 N 266.058 1.56714 -0.166846 0
M  V30 2858 C 267.469 1.83378 0.350646 0
M  V30 2859 C 267.82 1.08646 1.63372 0
M  V30 2860 O 266.945 0.338058 2.13743 0
M  V30 2861 C 267.54 3.32643 0.642963 0
M  V30 2862 C 266.099 3.59818 1.10491 0
M  V30 2863 C 265.246 2.76954 0.138411 0
M  V30 2864 H 268.197 1.53803 -0.391193 0
M  V30 2865 H 268.218 3.49878 1.49551 0
M  V30 2866 H 267.73 3.87007 -0.291055 0
M  V30 2867 H 265.831 3.1086 2.05418 0
M  V30 2868 H 265.944 4.68178 1.01716 0
M  V30 2869 H 264.308 2.4666 0.634911 0
M  V30 2870 H 265.091 3.34097 -0.789549 0
M  V30 2871 N 267.536 -0.106894 1.57237 0
M  V30 2872 C 268.761 -0.830287 1.90055 0
M  V30 2873 C 269.186 -1.72064 0.75998 0
M  V30 2874 O 268.544 -1.78982 -0.288991 0
M  V30 2875 C 268.592 -1.6295 3.21683 0
M  V30 2876 O 267.696 -2.73748 3.08441 0
M  V30 2877 H 267.037 -0.228855 0.623315 0
M  V30 2878 H 269.567 -0.085658 2.04421 0
M  V30 2879 H 269.577 -2.01621 3.54701 0
M  V30 2880 H 268.252 -0.975989 4.04286 0
M  V30 2881 H 266.829 -2.38192 2.86913 0
M  V30 2882 N 269.014 -1.53014 -0.377408 0
M  V30 2883 C 270.262 -1.6829 -1.11906 0
M  V30 2884 C 270.583 -0.431206 -1.90173 0
M  V30 2885 O 269.853 0.554595 -1.87886 0
M  V30 2886 H 268.433 -0.620371 -0.416112 0
M  V30 2887 H 271.095 -1.90167 -0.426893 0
M  V30 2888 H 270.191 -2.53862 -1.8155 0
M  V30 2889 N 270.492 0.636531 -1.44174 0
M  V30 2890 C 271.422 1.76003 -1.53444 0
M  V30 2891 C 272.403 1.65619 -0.387841 0
M  V30 2892 O 273.588 1.84461 -0.607257 0
M  V30 2893 C 270.718 3.14511 -1.4731 0
M  V30 2894 C 269.672 3.39677 -2.60391 0
M  V30 2895 C 268.998 4.78159 -2.39308 0
M  V30 2896 C 270.298 3.32772 -4.02567 0
M  V30 2897 H 271.992 1.68501 -2.47483 0
M  V30 2898 H 269.538 0.809237 -1.19111 0
M  V30 2899 H 271.491 3.92878 -1.52397 0
M  V30 2900 H 270.215 3.22783 -0.49785 0
M  V30 2901 H 268.874 2.63688 -2.54684 0
M  V30 2902 H 268.522 4.83128 -1.39988 0
M  V30 2903 H 268.222 4.95956 -3.15122 0
M  V30 2904 H 269.746 5.58762 -2.46205 0
M  V30 2905 H 271.16 4.01051 -4.09672 0
M  V30 2906 H 269.557 3.62104 -4.7854 0
M  V30 2907 H 270.627 2.30669 -4.2652 0
M  V30 2908 N 271.97 1.30982 0.876444 0
M  V30 2909 C 272.9 1.20668 1.99903 0
M  V30 2910 C 273.881 0.095354 1.69833 0
M  V30 2911 O 275.066 0.27885 1.92188 0
M  V30 2912 C 272.196 0.90655 3.3526 0
M  V30 2913 C 271.15 1.97675 3.79617 0
M  V30 2914 C 270.476 1.52943 5.1236 0
M  V30 2915 C 271.776 3.389 3.97422 0
M  V30 2916 H 273.47 2.14586 2.0879 0
M  V30 2917 H 271.016 1.03308 1.00317 0
M  V30 2918 H 272.969 0.821025 4.13324 0
M  V30 2919 H 271.693 -0.0682969 3.26529 0
M  V30 2920 H 270.352 2.05205 3.03787 0
M  V30 2921 H 270 0.54262 5.00065 0
M  V30 2922 H 269.7 2.24532 5.43009 0
M  V30 2923 H 271.224 1.45786 5.92941 0
M  V30 2924 H 272.638 3.34081 4.659 0
M  V30 2925 H 271.035 4.0865 4.3946 0
M  V30 2926 H 272.105 3.80163 3.01006 0
M  V30 2927 N 273.449 -1.08991 1.13837 0
M  V30 2928 C 274.412 -2.13925 0.822715 0
M  V30 2929 C 275.412 -1.599 -0.1699 0
M  V30 2930 O 276.602 -1.74104 0.0577251 0
M  V30 2931 C 273.734 -3.40155 0.225318 0
M  V30 2932 H 274.927 -2.43358 1.75262 0
M  V30 2933 H 272.48 -1.24603 0.943594 0
M  V30 2934 H 273.215 -3.16352 -0.713594 0
M  V30 2935 H 273 -3.80661 0.940193 0
M  V30 2936 H 274.49 -4.17594 0.0214784 0
M  V30 2937 N 274.927 -0.932562 -1.27047 0
M  V30 2938 C 275.877 -0.406392 -2.24349 0
M  V30 2939 C 276.861 0.492066 -1.53191 0
M  V30 2940 O 278.053 0.328717 -1.73921 0
M  V30 2941 C 275.182 0.335214 -3.41659 0
M  V30 2942 C 274.268 -0.58004 -4.20115 0
M  V30 2943 N 274.659 -1.70203 -4.76303 0
M  V30 2944 C 272.957 -0.383974 -4.44344 0
M  V30 2945 C 273.658 -2.27167 -5.35509 0
M  V30 2946 N 272.634 -1.56068 -5.20715 0
M  V30 2947 H 276.436 -1.26299 -2.65378 0
M  V30 2948 H 273.95 -0.787408 -1.42034 0
M  V30 2949 H 275.947 0.729142 -4.10474 0
M  V30 2950 H 274.607 1.18868 -3.0216 0
M  V30 2951 H 275.618 -2.08433 -4.74106 0
M  V30 2952 H 272.295 0.428436 -4.15296 0
M  V30 2953 H 273.685 -3.21654 -5.89905 0
M  V30 2954 N 276.405 1.4127 -0.698611 0
M  V30 2955 C 277.368 2.29158 -0.044132 0
M  V30 2956 C 278.368 1.44529 0.704841 0
M  V30 2957 O 279.558 1.65643 0.539276 0
M  V30 2958 C 276.69 3.27459 0.947809 0
M  V30 2959 H 277.883 2.88529 -0.817994 0
M  V30 2960 H 275.436 1.49307 -0.46228 0
M  V30 2961 H 276.171 2.73073 1.74933 0
M  V30 2962 H 275.956 3.8991 0.41385 0
M  V30 2963 H 277.446 3.93311 1.40344 0
M  V30 2964 N 277.883 0.443576 1.51229 0
M  V30 2965 C 279.13 -0.120796 2.02139 0
M  V30 2966 C 279.458 -1.42166 1.32736 0
M  V30 2967 O 278.713 -1.90849 0.43301 0
M  V30 2968 C 279.012 -0.380579 3.55368 0
M  V30 2969 C 278.678 0.83523 4.43097 0
M  V30 2970 C 277.34 1.16864 4.66794 0
M  V30 2971 C 279.692 1.64601 4.94526 0
M  V30 2972 C 277.02 2.31339 5.39165 0
M  V30 2973 C 279.372 2.78181 5.68153 0
M  V30 2974 C 278.036 3.11969 5.90112 0
M  V30 2975 H 277.306 -0.0442023 0.73968 0
M  V30 2976 H 279.953 0.592046 1.82118 0
M  V30 2977 H 278.258 -1.17538 3.73754 0
M  V30 2978 H 279.955 -0.830777 3.923 0
M  V30 2979 H 276.545 0.565437 4.24854 0
M  V30 2980 H 280.729 1.40163 4.76097 0
M  V30 2981 H 275.985 2.57823 5.5438 0
M  V30 2982 H 280.159 3.41371 6.06992 0
M  V30 2983 H 277.786 4.00784 6.45969 0
M  V30 2984 N 279.361 -1.56624 0.175154 0
M  V30 2985 C 280.772 -1.83561 -0.340916 0
M  V30 2986 C 281.123 -1.09511 -1.62794 0
M  V30 2987 O 280.248 -0.349389 -2.13561 0
M  V30 2988 C 280.843 -3.32979 -0.625313 0
M  V30 2989 C 279.402 -3.60399 -1.08581 0
M  V30 2990 C 278.549 -2.77024 -0.123722 0
M  V30 2991 H 281.5 -1.53593 0.399344 0
M  V30 2992 H 281.521 -3.50666 -1.47694 0
M  V30 2993 H 281.033 -3.86847 0.311575 0
M  V30 2994 H 279.134 -3.11945 -2.03767 0
M  V30 2995 H 279.247 -4.68711 -0.992317 0
M  V30 2996 H 277.611 -2.46993 -0.621821 0
M  V30 2997 H 278.394 -3.33674 0.807256 0
M  V30 2998 N 280.839 0.0985539 -1.57292 0
M  V30 2999 C 282.25 0.653457 -1.74891 0
M  V30 3000 C 282.601 1.7929 -0.796838 0
M  V30 3001 O 281.726 2.16385 0.0254886 0
M  V30 3002 C 282.321 1.19216 -3.17133 0
M  V30 3003 C 280.88 1.69316 -3.36168 0
M  V30 3004 C 280.027 0.601294 -2.70702 0
M  V30 3005 H 282.978 -0.127497 -1.58187 0
M  V30 3006 H 282.999 2.06154 -3.19814 0
M  V30 3007 H 282.511 0.362635 -3.86402 0
M  V30 3008 H 280.612 2.5468 -2.71972 0
M  V30 3009 H 280.725 1.78853 -4.44464 0
M  V30 3010 H 279.089 1.0399 -2.32504 0
M  V30 3011 H 279.872 -0.217592 -3.4261 0
M  V30 3012 N 282.317 1.53212 0.369288 0
M  V30 3013 C 283.565 1.68881 1.11012 0
M  V30 3014 C 283.886 0.441285 1.89941 0
M  V30 3015 O 283.156 -0.544623 1.88177 0
M  V30 3016 H 281.736 0.622569 0.412816 0
M  V30 3017 H 284.398 1.90391 0.416802 0
M  V30 3018 H 283.494 2.54822 1.80201 0
M  V30 3019 N 283.795 -0.628877 1.44509 0
M  V30 3020 C 285.206 -1.21054 1.42137 0
M  V30 3021 C 285.557 -1.95715 0.137881 0
M  V30 3022 O 284.682 -2.02554 -0.761645 0
M  V30 3023 C 285.277 -2.20189 2.57493 0
M  V30 3024 C 283.836 -2.73777 2.58308 0
M  V30 3025 C 282.983 -1.48813 2.33987 0
M  V30 3026 H 285.934 -0.41942 1.53057 0
M  V30 3027 H 285.955 -3.02833 2.30375 0
M  V30 3028 H 285.467 -1.6582 3.50892 0
M  V30 3029 H 283.568 -3.32142 1.68856 0
M  V30 3030 H 283.681 -3.19662 3.56865 0
M  V30 3031 H 282.045 -1.77024 1.83124 0
M  V30 3032 H 282.828 -0.963442 3.29504 0
M  V30 3033 N 285.273 -1.31445 -0.869486 0
M  V30 3034 C 286.221 -1.19067 -1.99814 0
M  V30 3035 C 287.215 -0.0988569 -1.69111 0
M  V30 3036 O 288.421 -0.260781 -1.78101 0
M  V30 3037 H 284.796 -0.368677 -0.655425 0
M  V30 3038 H 286.767 -2.14555 -2.07385 0
M  V30 3039 C 285.516 -0.915323 -3.35436 0
M  V30 3040 H 284.839 -1.74759 -3.59582 0
M  V30 3041 H 286.279 -0.868895 -4.15001 0
M  V30 3042 C 284.738 0.381928 -3.34728 0
M  V30 3043 O 285.268 1.39857 -3.76567 0
M  V30 3044 N 283.474 0.398633 -2.87853 0
M  V30 3045 H 283.021 -0.429186 -2.54 0
M  V30 3046 H 282.979 1.26651 -2.87762 0
M  V30 3047 N 286.751 1.08385 -1.14413 0
M  V30 3048 C 287.981 1.8425 -0.934644 0
M  V30 3049 C 288.389 1.81907 0.520234 0
M  V30 3050 O 287.732 1.22126 1.37226 0
M  V30 3051 C 287.794 3.32853 -1.35828 0
M  V30 3052 C 287.458 3.5893 -2.82875 0
M  V30 3053 C 288.455 3.53756 -3.80989 0
M  V30 3054 C 286.14 3.86934 -3.20293 0
M  V30 3055 C 288.134 3.76216 -5.14529 0
M  V30 3056 C 285.821 4.09047 -4.54008 0
M  V30 3057 C 286.819 4.03682 -5.50936 0
M  V30 3058 O 286.507 4.25214 -6.82238 0
M  V30 3059 H 286.239 0.588502 -0.332628 0
M  V30 3060 H 288.793 1.37792 -1.52324 0
M  V30 3061 H 287.023 3.8007 -0.713019 0
M  V30 3062 H 288.712 3.90154 -1.11957 0
M  V30 3063 H 289.478 3.32135 -3.53428 0
M  V30 3064 H 285.357 3.9023 -2.45442 0
M  V30 3065 H 288.901 3.71943 -5.90173 0
M  V30 3066 H 284.798 4.30151 -4.8129 0
M  V30 3067 H 285.566 4.42619 -6.88499 0
M  V30 3068 N 288.23 0.939286 1.26551 0
M  V30 3069 C 289.478 0.58469 1.93457 0
M  V30 3070 C 289.799 -0.878774 1.74076 0
M  V30 3071 O 289.069 -1.62421 1.09528 0
M  V30 3072 H 287.649 0.21325 0.715914 0
M  V30 3073 H 290.311 1.1942 1.54029 0
M  V30 3074 H 289.407 0.800849 3.0165 0
M  V30 3075 N 289.708 -1.40897 0.706093 0
M  V30 3076 C 290.956 -2.00657 0.241054 0
M  V30 3077 C 291.277 -1.56241 -1.16678 0
M  V30 3078 O 290.547 -0.79765 -1.78926 0
M  V30 3079 H 289.127 -0.742018 0.0861308 0
M  V30 3080 H 291.789 -1.72372 0.909604 0
M  V30 3081 H 290.885 -3.10958 0.266705 0
M  V30 3082 N 291.186 -0.45159 -1.50991 0
M  V30 3083 C 292.463 0.170707 -1.94854 0
M  V30 3084 C 292.843 1.58788 -1.39103 0
M  V30 3085 O 292.191 2.20913 -0.583921 0
M  V30 3086 C 292.401 0.133929 -3.48743 0
M  V30 3087 C 293.749 0.33248 -4.23296 0
M  V30 3088 O 294.773 0.211403 -3.55572 0
M  V30 3089 O 293.632 0.57486 -5.43468 0
M  V30 3090 H 290.726 0.122264 -0.817912 0
M  V30 3091 H 293.272 -0.510594 -1.61836 0
M  V30 3092 H 292.044 -0.856283 -3.81816 0
M  V30 3093 H 291.667 0.857529 -3.88242 0
M  V30 3094 N 292.664 1.56529 -0.183458 0
M  V30 3095 C 293.627 2.17324 0.728223 0
M  V30 3096 C 294.627 1.12453 1.14939 0
M  V30 3097 O 295.817 1.37902 1.06437 0
M  V30 3098 C 292.949 2.76591 1.99274 0
M  V30 3099 H 294.142 2.99241 0.198772 0
M  V30 3100 H 291.695 1.5616 0.0661391 0
M  V30 3101 H 292.43 1.98441 2.56499 0
M  V30 3102 H 292.215 3.5335 1.69959 0
M  V30 3103 H 293.705 3.23311 2.6431 0
M  V30 3104 N 294.142 -0.090211 1.57342 0
M  V30 3105 C 295.092 -1.11557 1.98844 0
M  V30 3106 C 296.076 -1.35503 0.867624 0
M  V30 3107 O 297.268 -1.36113 1.13148 0
M  V30 3108 C 294.397 -2.43446 2.42051 0
M  V30 3109 C 293.483 -2.22853 3.60828 0
M  V30 3110 N 293.874 -1.72141 4.75606 0
M  V30 3111 C 292.172 -2.53401 3.67021 0
M  V30 3112 C 292.873 -1.65932 5.57531 0
M  V30 3113 N 291.849 -2.11323 5.00843 0
M  V30 3114 H 295.651 -0.716499 2.85032 0
M  V30 3115 H 293.165 -0.297567 1.59651 0
M  V30 3116 H 295.162 -3.17644 2.70014 0
M  V30 3117 H 293.822 -2.84087 1.57241 0
M  V30 3118 H 294.833 -1.41268 4.98261 0
M  V30 3119 H 291.51 -2.97532 2.92884 0
M  V30 3120 H 292.9 -1.27733 6.59647 0
M  V30 3121 N 295.62 -1.53406 -0.361157 0
M  V30 3122 C 296.867 -1.69802 -1.10333 0
M  V30 3123 C 297.195 -0.452087 -1.89173 0
M  V30 3124 O 296.45 0.566017 -1.87336 0
M  V30 3125 C 296.749 -2.90211 -2.08596 0
M  V30 3126 C 296.415 -4.26539 -1.46203 0
M  V30 3127 C 295.077 -4.6361 -1.28915 0
M  V30 3128 C 297.429 -5.113 -1.01101 0
M  V30 3129 C 294.757 -5.83075 -0.651157 0
M  V30 3130 C 297.109 -6.31415 -0.387007 0
M  V30 3131 C 295.773 -6.67195 -0.201657 0
M  V30 3132 H 295.043 -0.621351 -0.403737 0
M  V30 3133 H 297.69 -1.87598 -0.384609 0
M  V30 3134 H 295.995 -2.66946 -2.86788 0
M  V30 3135 H 297.692 -3.00091 -2.65982 0
M  V30 3136 H 294.282 -3.97352 -1.60653 0
M  V30 3137 H 298.466 -4.83206 -1.13249 0
M  V30 3138 H 293.722 -6.09385 -0.496006 0
M  V30 3139 H 297.896 -6.96394 -0.0293563 0
M  V30 3140 H 295.523 -7.59628 0.294766 0
M  V30 3141 N 297.098 0.621204 -1.44841 0
M  V30 3142 C 298.375 1.38 -1.38619 0
M  V30 3143 C 298.755 2.11041 -0.0498935 0
M  V30 3144 O 298.103 2.06992 0.967816 0
M  V30 3145 C 298.313 2.33817 -2.59096 0
M  V30 3146 C 299.661 2.96844 -3.03593 0
M  V30 3147 O 300.685 2.44141 -2.59371 0
M  V30 3148 O 299.544 3.92476 -3.80296 0
M  V30 3149 H 296.638 0.61811 -0.549426 0
M  V30 3150 H 299.184 0.645429 -1.56947 0
M  V30 3151 H 297.956 1.79012 -3.47952 0
M  V30 3152 H 297.579 3.14676 -2.43032 0
M  V30 3153 N 298.576 1.31904 0.862503 0
M  V30 3154 C 299.853 1.12644 1.59908 0
M  V30 3155 C 300.233 -0.316104 2.0872 0
M  V30 3156 O 299.581 -1.31145 1.87118 0
M  V30 3157 C 299.791 2.1472 2.7513 0
M  V30 3158 C 301.139 2.47637 3.44907 0
M  V30 3159 O 302.163 2.13205 2.85346 0
M  V30 3160 O 301.022 3.06632 4.52371 0
M  V30 3161 H 298.116 0.43416 0.703871 0
M  V30 3162 H 300.662 1.43408 0.907314 0
M  V30 3163 H 299.434 3.1172 2.3653 0
M  V30 3164 H 299.057 1.84905 3.51989 0
M  V30 3165 N 300.054 -1.07777 1.14986 0
M  V30 3166 C 301.331 -1.7699 0.832695 0
M  V30 3167 C 301.711 -2.001 -0.672561 0
M  V30 3168 O 301.059 -1.61598 -1.6155 0
M  V30 3169 C 301.269 -3.08139 1.63863 0
M  V30 3170 C 302.617 -3.8256 1.84208 0
M  V30 3171 O 303.641 -3.17939 1.60603 0
M  V30 3172 O 302.5 -4.98612 2.23714 0
M  V30 3173 H 299.594 -0.768389 0.305791 0
M  V30 3174 H 302.14 -1.14182 1.25541 0
M  V30 3175 H 300.912 -2.86909 2.6608 0
M  V30 3176 H 300.535 -3.78678 1.21197 0
M  V30 3177 N 301.532 -0.945985 -1.26051 0
M  V30 3178 C 302.442 -0.465633 -2.29933 0
M  V30 3179 C 303.458 0.462761 -1.67733 0
M  V30 3180 O 304.634 0.341118 -1.9849 0
M  V30 3181 C 301.699 0.256994 -3.45746 0
M  V30 3182 C 300.76 -0.708549 -4.23412 0
M  V30 3183 C 299.993 -0.0203135 -5.33696 0
M  V30 3184 O 300.216 1.19571 -5.57726 0
M  V30 3185 O 299.15 -0.701459 -5.97799 0
M  V30 3186 H 302.976 -1.32866 -2.73094 0
M  V30 3187 H 300.561 -0.712071 -1.31339 0
M  V30 3188 H 302.443 0.663852 -4.16138 0
M  V30 3189 H 301.118 1.09533 -3.04605 0
M  V30 3190 H 300.025 -1.16545 -3.55483 0
M  V30 3191 H 301.358 -1.51465 -4.68315 0
M  V30 3192 N 303.011 1.40521 -0.713556 0
M  V30 3193 C 304.239 2.05237 -0.261775 0
M  V30 3194 C 304.654 1.53755 1.09567 0
M  V30 3195 O 304.011 0.693268 1.6882 0
M  V30 3196 C 304.062 3.60763 -0.230706 0
M  V30 3197 O 303.783 4.10345 -1.53455 0
M  V30 3198 C 305.284 4.42651 0.239874 0
M  V30 3199 H 302.504 0.660533 -0.118057 0
M  V30 3200 H 305.048 1.79967 -0.971192 0
M  V30 3201 H 303.203 3.8501 0.429661 0
M  V30 3202 H 303.617 5.04526 -1.43366 0
M  V30 3203 H 305.091 5.51599 0.210468 0
M  V30 3204 H 305.568 4.20082 1.28171 0
M  V30 3205 H 306.174 4.23507 -0.390142 0
M  V30 3206 N 304.489 0.459591 1.5075 0
M  V30 3207 C 305.735 -0.091664 2.03193 0
M  V30 3208 C 306.09 -1.38432 1.3362 0
M  V30 3209 O 305.383 -1.86257 0.449322 0
M  V30 3210 C 305.577 -0.342866 3.55752 0
M  V30 3211 C 305.406 0.923888 4.40107 0
M  V30 3212 C 304.176 1.46388 4.83631 0
M  V30 3213 C 306.374 1.81617 4.81165 0
M  V30 3214 N 304.356 2.68086 5.52271 0
M  V30 3215 C 305.727 2.87907 5.49099 0
M  V30 3216 C 307.782 1.82793 4.63132 0
M  V30 3217 C 306.485 3.95347 6.0091 0
M  V30 3218 C 308.511 2.89182 5.15876 0
M  V30 3219 C 307.873 3.94191 5.83774 0
M  V30 3220 H 303.972 0.00619247 0.781975 0
M  V30 3221 H 306.556 0.625233 1.84388 0
M  V30 3222 H 304.727 -1.0288 3.74527 0
M  V30 3223 H 306.459 -0.887445 3.9485 0
M  V30 3224 H 303.214 1.01466 4.62603 0
M  V30 3225 H 303.638 3.29857 5.91205 0
M  V30 3226 H 308.28 1.0293 4.1008 0
M  V30 3227 H 305.998 4.76035 6.53006 0
M  V30 3228 H 309.584 2.91061 5.0376 0
M  V30 3229 H 308.464 4.75161 6.23853 0
M  V30 3230 N 305.967 -1.56429 0.191757 0
M  V30 3231 C 307.195 -2.01867 -0.453586 0
M  V30 3232 C 307.61 -1.07191 -1.5542 0
M  V30 3233 O 306.967 -0.0762108 -1.82341 0
M  V30 3234 C 307.018 -3.47017 -1.013 0
M  V30 3235 O 306.739 -4.38078 0.0437005 0
M  V30 3236 C 308.24 -4.07956 -1.73456 0
M  V30 3237 H 305.46 -0.661211 -0.114199 0
M  V30 3238 H 308.004 -2.02295 0.299483 0
M  V30 3239 H 306.159 -3.47298 -1.71647 0
M  V30 3240 H 306.573 -5.23178 -0.372212 0
M  V30 3241 H 308.047 -5.1138 -2.07833 0
M  V30 3242 H 308.524 -3.51222 -2.63704 0
M  V30 3243 H 309.13 -4.11437 -1.07702 0
M  V30 3244 N 307.445 0.0818655 -1.57387 0
M  V30 3245 C 308.67 0.799946 -1.91352 0
M  V30 3246 C 309.095 1.70833 -0.787258 0
M  V30 3247 O 308.453 1.79419 0.26048 0
M  V30 3248 C 308.501 1.57812 -3.24234 0
M  V30 3249 O 307.605 2.68806 -3.12757 0
M  V30 3250 H 306.946 0.21891 -0.626877 0
M  V30 3251 H 309.476 0.0531256 -2.04531 0
M  V30 3252 H 309.486 1.95952 -3.57864 0
M  V30 3253 H 308.161 0.911548 -4.05788 0
M  V30 3254 H 306.738 2.33597 -2.90666 0
M  V30 3255 N 308.923 1.53595 0.353017 0
M  V30 3256 C 310.148 1.7462 1.11904 0
M  V30 3257 C 310.573 0.479721 1.8188 0
M  V30 3258 O 309.931 -0.567066 1.72204 0
M  V30 3259 C 309.979 2.92029 2.11545 0
M  V30 3260 O 309.083 2.61516 3.18878 0
M  V30 3261 H 308.424 0.579531 0.324099 0
M  V30 3262 H 310.954 2.00525 0.406301 0
M  V30 3263 H 310.964 3.18551 2.5493 0
M  V30 3264 H 309.639 3.83888 1.60008 0
M  V30 3265 H 308.216 2.45852 2.80377 0
M  V30 3266 N 310.401 -0.613514 1.45168 0
M  V30 3267 C 311.626 -1.40437 1.52618 0
M  V30 3268 C 312.051 -1.87438 0.157707 0
M  V30 3269 O 311.409 -1.59791 -0.856537 0
M  V30 3270 C 311.457 -2.58894 2.51011 0
M  V30 3271 O 310.561 -3.59326 2.02382 0
M  V30 3272 H 309.902 -0.419506 0.514695 0
M  V30 3273 H 312.432 -0.747215 1.90467 0
M  V30 3274 H 312.442 -3.06214 2.69624 0
M  V30 3275 H 311.117 -2.24032 3.50403 0
M  V30 3276 H 309.694 -3.18695 1.93618 0
M  V30 3277 N 311.879 -1.3236 -0.855495 0
M  V30 3278 C 312.826 -1.21225 -1.964 0
M  V30 3279 C 313.796 -0.0946204 -1.6583 0
M  V30 3280 O 314.981 -0.27002 -1.8888 0
M  V30 3281 C 312.121 -0.940419 -3.32039 0
M  V30 3282 C 311.234 -2.14276 -3.75113 0
M  V30 3283 C 310.369 -1.80648 -4.9954 0
M  V30 3284 C 309.408 -2.97208 -5.35102 0
M  V30 3285 N 308.545 -2.63678 -6.50706 0
M  V30 3286 H 313.385 -2.16042 -2.05255 0
M  V30 3287 H 310.922 -1.07451 -1.00463 0
M  V30 3288 H 312.88 -0.763311 -4.10158 0
M  V30 3289 H 311.51 -0.0290413 -3.22787 0
M  V30 3290 H 310.562 -2.43017 -2.92655 0
M  V30 3291 H 311.874 -3.01468 -3.97389 0
M  V30 3292 H 311.028 -1.59484 -5.85363 0
M  V30 3293 H 309.767 -0.906678 -4.79198 0
M  V30 3294 H 308.772 -3.19004 -4.47791 0
M  V30 3295 H 309.997 -3.87918 -5.57401 0
M  V30 3296 H 307.943 -1.76238 -6.31883 0
M  V30 3297 H 307.86 -3.444 -6.72997 0
M  V30 3298 H 309.128 -2.45942 -7.39684 0
M  V30 3299 N 313.357 1.07166 -1.15556 0
M  V30 3300 C 314.605 1.79443 -0.929764 0
M  V30 3301 C 314.926 1.87246 0.544414 0
M  V30 3302 O 314.196 1.37473 1.39564 0
M  V30 3303 H 312.776 0.664625 -0.341003 0
M  V30 3304 H 315.438 1.29499 -1.45657 0
M  V30 3305 H 314.534 2.81832 -1.34079 0
M  V30 3306 N 314.835 0.952656 1.25548 0
M  V30 3307 C 316.065 0.622592 1.96996 0
M  V30 3308 C 316.473 -0.809112 1.71026 0
M  V30 3309 O 315.816 -1.55258 0.981861 0
M  V30 3310 C 315.878 0.798946 3.5051 0
M  V30 3311 C 315.542 2.20744 4.00151 0
M  V30 3312 C 316.539 3.18394 4.11001 0
M  V30 3313 C 314.224 2.5311 4.33867 0
M  V30 3314 C 316.218 4.46504 4.54877 0
M  V30 3315 C 313.905 3.8145 4.7743 0
M  V30 3316 C 314.903 4.77959 4.87897 0
M  V30 3317 O 314.591 6.04012 5.30494 0
M  V30 3318 H 314.323 0.232503 0.634758 0
M  V30 3319 H 316.877 1.2789 1.60728 0
M  V30 3320 H 315.107 0.0854903 3.86605 0
M  V30 3321 H 316.796 0.47023 4.03167 0
M  V30 3322 H 317.562 2.94715 3.85186 0
M  V30 3323 H 313.441 1.78719 4.24948 0
M  V30 3324 H 316.985 5.21835 4.62962 0
M  V30 3325 H 312.882 4.04936 5.0269 0
M  V30 3326 H 313.65 6.0736 5.48685 0
M  V30 3327 N 316.313 -1.40141 0.720998 0
M  V30 3328 C 317.261 -2.3252 0.0608547 0
M  V30 3329 C 318.255 -1.52326 -0.741152 0
M  V30 3330 O 319.461 -1.68089 -0.643911 0
M  V30 3331 H 315.836 -0.751999 0.000876664 0
M  V30 3332 H 317.807 -2.8584 0.856614 0
M  V30 3333 C 316.556 -3.37331 -0.842809 0
M  V30 3334 H 315.879 -3.99108 -0.235084 0
M  V30 3335 H 317.319 -4.04452 -1.27257 0
M  V30 3336 C 315.778 -2.73246 -1.97074 0
M  V30 3337 O 316.308 -2.59998 -3.06209 0
M  V30 3338 N 314.514 -2.31547 -1.75597 0
M  V30 3339 H 314.061 -2.42522 -0.868368 0
M  V30 3340 H 314.019 -1.89007 -2.51244 0
M  V30 3341 N 317.792 -0.46758 -1.50504 0
M  V30 3342 C 318.722 0.318381 -2.31319 0
M  V30 3343 C 319.703 0.993564 -1.38066 0
M  V30 3344 O 320.888 0.991411 -1.66987 0
M  V30 3345 C 318.018 1.40275 -3.17711 0
M  V30 3346 C 316.972 0.849373 -4.19487 0
M  V30 3347 C 316.298 2.03177 -4.94594 0
M  V30 3348 C 317.598 -0.136942 -5.2212 0
M  V30 3349 H 319.292 -0.356106 -2.97275 0
M  V30 3350 H 316.838 -0.172703 -1.42961 0
M  V30 3351 H 318.791 1.96004 -3.73042 0
M  V30 3352 H 317.515 2.10596 -2.49634 0
M  V30 3353 H 316.174 0.314076 -3.65252 0
M  V30 3354 H 315.822 2.72187 -4.22993 0
M  V30 3355 H 315.522 1.66774 -5.63436 0
M  V30 3356 H 317.046 2.59403 -5.52759 0
M  V30 3357 H 318.46 0.331056 -5.72343 0
M  V30 3358 H 316.857 -0.41507 -5.98663 0
M  V30 3359 H 317.927 -1.06398 -4.73083 0
M  V30 3360 N 319.27 1.56325 -0.20005 0
M  V30 3361 C 320.517 1.97719 0.437411 0
M  V30 3362 C 320.845 1.08709 1.61284 0
M  V30 3363 O 320.1 0.127261 1.95286 0
M  V30 3364 C 320.399 3.4495 0.935103 0
M  V30 3365 C 320.065 4.5072 -0.12749 0
M  V30 3366 C 318.727 4.79368 -0.419451 0
M  V30 3367 C 321.079 5.14268 -0.847231 0
M  V30 3368 C 318.407 5.68854 -1.43604 0
M  V30 3369 C 320.759 6.04852 -1.85301 0
M  V30 3370 C 319.423 6.31855 -2.15211 0
M  V30 3371 H 318.693 0.723507 0.16006 0
M  V30 3372 H 321.34 1.89166 -0.298056 0
M  V30 3373 H 319.645 3.50599 1.74894 0
M  V30 3374 H 321.342 3.74337 1.43781 0
M  V30 3375 H 317.932 4.28458 0.11023 0
M  V30 3376 H 322.116 4.92222 -0.634901 0
M  V30 3377 H 317.372 5.88047 -1.67364 0
M  V30 3378 H 321.546 6.53152 -2.41591 0
M  V30 3379 H 319.173 7.00994 -2.94129 0
M  V30 3380 N 320.748 -0.0735177 1.57428 0
M  V30 3381 C 321.678 -1.0879 2.06608 0
M  V30 3382 C 322.659 -1.40473 0.959237 0
M  V30 3383 O 323.844 -1.5013 1.23185 0
M  V30 3384 C 320.974 -2.40183 2.50857 0
M  V30 3385 C 319.928 -2.22858 3.65402 0
M  V30 3386 C 319.254 -3.59619 3.957 0
M  V30 3387 C 320.554 -1.65123 4.95511 0
M  V30 3388 H 322.248 -0.678673 2.91607 0
M  V30 3389 H 319.794 -0.325013 1.40284 0
M  V30 3390 H 321.747 -3.11437 2.83874 0
M  V30 3391 H 320.471 -2.83083 1.62885 0
M  V30 3392 H 319.13 -1.54045 3.32664 0
M  V30 3393 H 318.778 -4.00086 3.04861 0
M  V30 3394 H 318.478 -3.48866 4.72828 0
M  V30 3395 H 320.002 -4.32306 4.31212 0
M  V30 3396 H 321.416 -2.26241 5.26771 0
M  V30 3397 H 319.813 -1.65071 5.7695 0
M  V30 3398 H 320.883 -0.612559 4.81015 0
M  V30 3399 N 322.226 -1.5378 -0.344866 0
M  V30 3400 C 323.472 -1.71216 -1.08687 0
M  V30 3401 C 323.805 -0.473281 -1.88345 0
M  V30 3402 O 323.08 0.52968 -1.87149 0
M  V30 3403 C 323.363 -2.97486 -2.02914 0
M  V30 3404 C 323.216 -4.31579 -1.26727 0
M  V30 3405 C 324.535 -3.19422 -3.0275 0
M  V30 3406 H 321.654 -0.62301 -0.393735 0
M  V30 3407 H 324.296 -1.8645 -0.365563 0
M  V30 3408 H 322.446 -2.84629 -2.64421 0
M  V30 3409 H 324.118 -4.56284 -0.67845 0
M  V30 3410 H 322.361 -4.30049 -0.569273 0
M  V30 3411 H 323.032 -5.16106 -1.95803 0
M  V30 3412 H 325.508 -3.316 -2.51357 0
M  V30 3413 H 324.384 -4.09169 -3.65885 0
M  V30 3414 H 324.645 -2.35656 -3.74057 0
M  V30 3415 N 323.704 0.605807 -1.45491 0
M  V30 3416 C 324.667 1.69836 -1.5391 0
M  V30 3417 C 325.667 1.55261 -0.418424 0
M  V30 3418 O 326.857 1.60296 -0.681965 0
M  V30 3419 C 323.989 3.09117 -1.43734 0
M  V30 3420 H 325.182 1.63738 -2.51257 0
M  V30 3421 H 322.735 0.821689 -1.32959 0
M  V30 3422 H 323.47 3.20791 -0.475788 0
M  V30 3423 H 323.255 3.21104 -2.25021 0
M  V30 3424 H 324.745 3.88696 -1.52661 0
M  V30 3425 N 325.182 1.32811 0.848464 0
M  V30 3426 C 326.145 1.22194 1.9391 0
M  V30 3427 C 327.145 0.143404 1.60159 0
M  V30 3428 O 328.335 0.394253 1.6968 0
M  V30 3429 C 325.467 0.88067 3.29328 0
M  V30 3430 H 326.66 2.19127 2.04752 0
M  V30 3431 H 324.213 1.16731 1.0394 0
M  V30 3432 H 324.948 -0.0865776 3.24184 0
M  V30 3433 H 324.733 1.66052 3.55203 0
M  V30 3434 H 326.223 0.830871 4.09251 0
M  V30 3435 N 326.66 -1.06551 1.16123 0
M  V30 3436 C 327.61 -2.12209 0.833736 0
M  V30 3437 C 328.594 -1.59825 -0.185656 0
M  V30 3438 O 329.786 -1.76994 0.0147906 0
M  V30 3439 C 326.915 -3.41674 0.333697 0
M  V30 3440 C 326.001 -4.00892 1.38372 0
M  V30 3441 N 326.392 -4.34256 2.59337 0
M  V30 3442 C 324.69 -4.28463 1.23836 0
M  V30 3443 C 325.391 -4.81291 3.26701 0
M  V30 3444 N 324.367 -4.80565 2.54083 0
M  V30 3445 H 328.169 -2.35849 1.75364 0
M  V30 3446 H 325.683 -1.24068 1.04789 0
M  V30 3447 H 327.68 -4.16822 0.0806918 0
M  V30 3448 H 326.34 -3.19475 -0.58017 0
M  V30 3449 H 327.351 -4.24687 2.96415 0
M  V30 3450 H 324.028 -4.15721 0.38504 0
M  V30 3451 H 325.418 -5.16332 4.29943 0
M  V30 3452 N 328.138 -0.959301 -1.25041 0
M  V30 3453 C 329.048 -0.489994 -2.29426 0
M  V30 3454 C 330.064 0.444944 -1.68215 0
M  V30 3455 O 331.24 0.320046 -1.98841 0
M  V30 3456 C 328.305 0.220309 -3.45999 0
M  V30 3457 C 327.366 -0.753418 -4.22637 0
M  V30 3458 C 326.599 -0.076918 -5.33645 0
M  V30 3459 O 326.822 1.13649 -5.58963 0
M  V30 3460 O 325.756 -0.764824 -5.97021 0
M  V30 3461 H 329.582 -1.35755 -2.71669 0
M  V30 3462 H 327.167 -0.725961 -1.30576 0
M  V30 3463 H 329.049 0.619677 -4.16819 0
M  V30 3464 H 327.724 1.06296 -3.0575 0
M  V30 3465 H 326.631 -1.20308 -3.54227 0
M  V30 3466 H 327.964 -1.56423 -4.66683 0
M  V30 3467 N 329.616 1.39756 -0.72842 0
M  V30 3468 C 330.863 2.00645 -0.273487 0
M  V30 3469 C 331.191 1.57786 1.13727 0
M  V30 3470 O 330.446 0.794886 1.7883 0
M  V30 3471 C 330.745 3.56002 -0.315776 0
M  V30 3472 C 330.411 4.18489 -1.67863 0
M  V30 3473 C 329.073 4.3527 -2.05166 0
M  V30 3474 C 331.425 4.53219 -2.57375 0
M  V30 3475 C 328.753 4.84069 -3.31503 0
M  V30 3476 C 331.105 5.03423 -3.83077 0
M  V30 3477 C 329.769 5.18413 -4.20481 0
M  V30 3478 H 329.039 0.734211 -0.100076 0
M  V30 3479 H 331.686 1.6718 -0.933972 0
M  V30 3480 H 329.991 3.89452 0.428285 0
M  V30 3481 H 331.688 4.00963 0.0542575 0
M  V30 3482 H 328.278 4.05824 -1.37858 0
M  V30 3483 H 332.462 4.39878 -2.29827 0
M  V30 3484 H 327.718 4.93859 -3.60435 0
M  V30 3485 H 331.892 5.2927 -4.52599 0
M  V30 3486 H 329.519 5.55987 -5.18443 0
M  V30 3487 N 331.094 0.475555 1.50254 0
M  V30 3488 C 332.342 -0.077738 2.0195 0
M  V30 3489 C 332.663 -1.39813 1.35931 0
M  V30 3490 O 331.933 -1.89249 0.506123 0
M  V30 3491 H 330.513 -0.031719 0.746326 0
M  V30 3492 H 333.175 0.626995 1.84539 0
M  V30 3493 H 332.271 -0.225995 3.11281 0
M  V30 3494 N 332.573 -1.56217 0.208337 0
M  V30 3495 C 333.523 -2.16324 -0.720281 0
M  V30 3496 C 334.507 -1.10775 -1.16695 0
M  V30 3497 O 335.699 -1.36801 -1.12314 0
M  V30 3498 C 332.828 -2.83644 -1.93393 0
M  V30 3499 C 331.914 -3.96401 -1.50755 0
M  V30 3500 N 332.305 -4.99546 -0.792937 0
M  V30 3501 C 330.603 -4.08246 -1.79585 0
M  V30 3502 C 331.304 -5.78828 -0.577364 0
M  V30 3503 N 330.28 -5.31723 -1.1301 0
M  V30 3504 H 334.082 -2.93432 -0.165725 0
M  V30 3505 H 331.596 -1.62397 0.00906463 0
M  V30 3506 H 333.593 -3.25107 -2.60981 0
M  V30 3507 H 332.253 -2.08027 -2.49308 0
M  V30 3508 H 333.264 -5.15967 -0.447004 0
M  V30 3509 H 329.941 -3.4377 -2.36915 0
M  V30 3510 H 331.331 -6.71899 -0.00952956 0
M  V30 3511 N 334.051 0.0651679 -1.57465 0
M  V30 3512 C 335.276 0.779605 -1.9219 0
M  V30 3513 C 335.701 1.69988 -0.805333 0
M  V30 3514 O 335.059 1.79685 0.241435 0
M  V30 3515 C 335.107 1.54364 -3.2589 0
M  V30 3516 O 334.211 2.65474 -3.1559 0
M  V30 3517 H 333.552 0.212249 -0.629163 0
M  V30 3518 H 336.082 0.0314294 -2.04576 0
M  V30 3519 H 336.092 1.92146 -3.59922 0
M  V30 3520 H 334.767 0.868457 -4.06732 0
M  V30 3521 H 333.344 2.30501 -2.93128 0
M  V30 3522 N 335.529 1.53961 0.336706 0
M  V30 3523 C 336.459 1.85417 1.41925 0
M  V30 3524 C 337.44 0.709856 1.5458 0
M  V30 3525 O 338.625 0.962396 1.68676 0
M  V30 3526 C 335.755 2.06985 2.78881 0
M  V30 3527 C 334.709 3.22813 2.81026 0
M  V30 3528 C 334.035 3.29727 4.20932 0
M  V30 3529 C 335.335 4.60767 2.45949 0
M  V30 3530 H 337.029 2.76079 1.15848 0
M  V30 3531 H 334.575 1.32839 0.555859 0
M  V30 3532 H 336.528 2.27575 3.54665 0
M  V30 3533 H 335.252 1.13061 3.06406 0
M  V30 3534 H 333.911 3.0209 2.07695 0
M  V30 3535 H 333.559 2.33385 4.45579 0
M  V30 3536 H 333.259 4.07566 4.23277 0
M  V30 3537 H 334.783 3.52536 4.98549 0
M  V30 3538 H 336.197 4.81325 3.11446 0
M  V30 3539 H 334.594 5.4106 2.59566 0
M  V30 3540 H 335.664 4.6391 1.41122 0
M  V30 3541 N 337.007 -0.598083 1.45811 0
M  V30 3542 C 338.255 -1.35413 1.50026 0
M  V30 3543 C 338.576 -1.94444 0.147177 0
M  V30 3544 O 337.846 -1.77701 -0.824571 0
M  V30 3545 H 336.426 -0.502727 0.552517 0
M  V30 3546 H 339.088 -0.701606 1.81834 0
M  V30 3547 H 338.184 -2.16871 2.2444 0
M  V30 3548 N 338.485 -1.33259 -0.841409 0
M  V30 3549 C 339.415 -1.25926 -1.96634 0
M  V30 3550 C 340.396 -0.140349 -1.6952 0
M  V30 3551 O 341.581 -0.329707 -1.91381 0
M  V30 3552 C 338.711 -0.99512 -3.32738 0
M  V30 3553 C 337.665 -2.0767 -3.74242 0
M  V30 3554 C 336.991 -1.66474 -5.08125 0
M  V30 3555 C 338.291 -3.49318 -3.88297 0
M  V30 3556 H 339.985 -2.20046 -2.03027 0
M  V30 3557 H 337.531 -1.05931 -0.975425 0
M  V30 3558 H 339.484 -0.930323 -4.11002 0
M  V30 3559 H 338.208 -0.0183004 -3.26595 0
M  V30 3560 H 336.867 -2.13187 -2.98239 0
M  V30 3561 H 336.515 -0.675012 -4.9845 0
M  V30 3562 H 336.215 -2.3885 -5.36865 0
M  V30 3563 H 337.739 -1.61455 -5.88867 0
M  V30 3564 H 339.153 -3.46316 -4.56879 0
M  V30 3565 H 337.55 -4.20158 -4.28471 0
M  V30 3566 H 338.62 -3.8801 -2.9082 0
M  V30 3567 N 339.963 1.05934 -1.16686 0
M  V30 3568 C 341.24 1.75643 -0.860747 0
M  V30 3569 C 341.62 2.01144 0.640641 0
M  V30 3570 O 340.968 1.64147 1.58959 0
M  V30 3571 C 341.178 3.05493 -1.68745 0
M  V30 3572 C 342.526 3.79581 -1.90271 0
M  V30 3573 O 343.55 3.15344 -1.65641 0
M  V30 3574 O 342.409 4.9499 -2.31618 0
M  V30 3575 H 339.503 0.763426 -0.317977 0
M  V30 3576 H 342.049 1.1217 -1.27342 0
M  V30 3577 H 340.821 2.8264 -2.70611 0
M  V30 3578 H 340.444 3.76702 -1.27206 0
M  V30 3579 N 341.441 0.965919 1.2453 0
M  V30 3580 C 342.391 0.465731 2.23193 0
M  V30 3581 C 343.375 -0.451277 1.54442 0
M  V30 3582 O 344.567 -0.282489 1.74731 0
M  V30 3583 C 341.696 -0.244511 3.42428 0
M  V30 3584 C 340.782 0.691222 4.18429 0
M  V30 3585 N 341.173 1.82771 4.71623 0
M  V30 3586 C 339.471 0.501649 4.4317 0
M  V30 3587 C 340.172 2.41285 5.29298 0
M  V30 3588 N 339.148 1.69819 5.16394 0
M  V30 3589 H 342.95 1.33291 2.61937 0
M  V30 3590 H 340.464 0.824789 1.39896 0
M  V30 3591 H 342.461 -0.620056 4.12263 0
M  V30 3592 H 341.121 -1.10815 3.05205 0
M  V30 3593 H 342.132 2.20929 4.68413 0
M  V30 3594 H 338.809 -0.318177 4.16286 0
M  V30 3595 H 340.199 3.37181 5.8117 0
M  V30 3596 N 342.919 -1.39368 0.735821 0
M  V30 3597 C 344.144 -2.05319 0.293052 0
M  V30 3598 C 344.569 -1.55115 -1.064 0
M  V30 3599 O 343.927 -0.695261 -1.67439 0
M  V30 3600 C 343.975 -3.59305 0.305323 0
M  V30 3601 O 343.079 -4.06299 -0.706761 0
M  V30 3602 H 342.42 -0.650529 0.13307 0
M  V30 3603 H 344.95 -1.78386 1.00197 0
M  V30 3604 H 344.96 -4.07724 0.149997 0
M  V30 3605 H 343.635 -3.95207 1.29553 0
M  V30 3606 H 342.212 -3.69292 -0.517504 0
M  V30 3607 N 344.397 -0.483516 -1.5 0
M  V30 3608 C 345.344 0.304164 -2.28787 0
M  V30 3609 C 346.314 0.976114 -1.34392 0
M  V30 3610 O 347.499 0.986156 -1.63339 0
M  V30 3611 C 344.639 1.37298 -3.16612 0
M  V30 3612 C 343.752 0.714561 -4.26049 0
M  V30 3613 C 342.887 1.76232 -5.01114 0
M  V30 3614 C 341.926 1.08483 -6.0241 0
M  V30 3615 N 341.063 2.076 -6.70706 0
M  V30 3616 H 345.903 -0.373981 -2.95644 0
M  V30 3617 H 343.44 -0.196275 -1.45785 0
M  V30 3618 H 345.398 2.00445 -3.65893 0
M  V30 3619 H 344.028 2.02012 -2.51776 0
M  V30 3620 H 343.08 -0.0297798 -3.80388 0
M  V30 3621 H 344.392 0.180383 -4.98474 0
M  V30 3622 H 343.546 2.46929 -5.54176 0
M  V30 3623 H 342.285 2.33033 -4.28424 0
M  V30 3624 H 341.29 0.363545 -5.48597 0
M  V30 3625 H 342.515 0.523551 -6.77079 0
M  V30 3626 H 340.461 2.63394 -6.00799 0
M  V30 3627 H 340.378 1.59201 -7.39047 0
M  V30 3628 H 341.646 2.77639 -7.2838 0
M  V30 3629 N 345.875 1.56104 -0.216619 0
M  V30 3630 C 347.152 1.89988 0.465165 0
M  V30 3631 C 347.532 1.13326 1.78102 0
M  V30 3632 O 346.88 0.241033 2.27225 0
M  V30 3633 C 347.09 3.42646 0.662939 0
M  V30 3634 C 348.438 4.13311 0.972602 0
M  V30 3635 O 349.462 3.48217 0.749901 0
M  V30 3636 O 348.321 5.28396 1.39499 0
M  V30 3637 H 345.415 0.78979 0.245276 0
M  V30 3638 H 347.961 1.67721 -0.258436 0
M  V30 3639 H 346.733 3.90399 -0.26543 0
M  V30 3640 H 346.356 3.70677 1.43821 0
M  V30 3641 N 347.353 -0.0568162 1.57498 0
M  V30 3642 C 348.764 -0.606858 1.76562 0
M  V30 3643 C 349.115 -1.77114 0.844094 0
M  V30 3644 O 348.24 -2.16376 0.0318911 0
M  V30 3645 C 348.835 -1.10766 3.20182 0
M  V30 3646 C 347.394 -1.60344 3.40539 0
M  V30 3647 C 346.541 -0.529311 2.72201 0
M  V30 3648 H 349.492 0.169393 1.57793 0
M  V30 3649 H 349.513 -1.97602 3.25167 0
M  V30 3650 H 349.025 -0.26006 3.87228 0
M  V30 3651 H 347.126 -2.47379 2.78629 0
M  V30 3652 H 347.239 -1.67006 4.4905 0
M  V30 3653 H 345.603 -0.977893 2.35179 0
M  V30 3654 H 346.386 0.308352 3.41912 0
M  V30 3655 N 348.832 -1.54138 -0.328536 0
M  V30 3656 C 350.08 -1.71765 -1.06496 0
M  V30 3657 C 350.401 -0.49149 -1.88704 0
M  V30 3658 O 349.671 0.494539 -1.89555 0
M  V30 3659 H 348.251 -0.633295 -0.396164 0
M  V30 3660 H 350.913 -1.91429 -0.366176 0
M  V30 3661 H 350.009 -2.5951 -1.73381 0
M  V30 3662 N 350.31 0.590341 -1.46126 0
M  V30 3663 C 351.273 1.68194 -1.55703 0
M  V30 3664 C 352.273 1.54808 -0.434868 0
M  V30 3665 O 353.463 1.59564 -0.698928 0
M  V30 3666 C 350.595 3.07575 -1.47005 0
M  V30 3667 H 351.788 1.61064 -2.52979 0
M  V30 3668 H 349.341 0.807541 -1.33823 0
M  V30 3669 H 350.076 3.20268 -0.509785 0
M  V30 3670 H 349.861 3.187 -2.28414 0
M  V30 3671 H 351.351 3.87055 -1.56776 0
M  V30 3672 N 351.788 1.33704 0.83433 0
M  V30 3673 C 352.718 1.26967 1.95963 0
M  V30 3674 C 353.699 0.149337 1.69443 0
M  V30 3675 O 354.884 0.339852 1.91203 0
M  V30 3676 C 352.014 1.01275 3.32206 0
M  V30 3677 C 350.968 2.09652 3.73136 0
M  V30 3678 C 350.294 1.69166 5.07235 0
M  V30 3679 C 351.594 3.51372 3.86439 0
M  V30 3680 H 353.288 2.2112 2.01857 0
M  V30 3681 H 350.834 1.06447 0.969793 0
M  V30 3682 H 352.787 0.952106 4.10503 0
M  V30 3683 H 351.511 0.0356203 3.26581 0
M  V30 3684 H 350.17 2.14766 2.97104 0
M  V30 3685 H 349.818 0.701437 4.98085 0
M  V30 3686 H 349.518 2.41694 5.35591 0
M  V30 3687 H 351.042 1.64576 5.88003 0
M  V30 3688 H 352.456 3.48734 4.55036 0
M  V30 3689 H 350.853 4.22425 4.26236 0
M  V30 3690 H 351.923 3.89546 2.88759 0
M  V30 3691 N 353.266 -1.05314 1.17247 0
M  V30 3692 C 354.199 -2.12512 0.831507 0
M  V30 3693 C 355.177 -1.61351 -0.201168 0
M  V30 3694 O 356.361 -1.88317 -0.0829831 0
M  V30 3695 C 353.488 -3.37848 0.24015 0
M  V30 3696 C 352.534 -4.07832 1.24801 0
M  V30 3697 S 353.367 -4.56537 2.79882 0
M  V30 3698 C 354.523 -5.85122 2.22223 0
M  V30 3699 H 354.756 -2.41106 1.7394 0
M  V30 3700 H 352.289 -1.17896 0.996988 0
M  V30 3701 H 354.247 -4.10391 -0.0945588 0
M  V30 3702 H 352.908 -3.07392 -0.645668 0
M  V30 3703 H 352.101 -4.97883 0.78287 0
M  V30 3704 H 351.703 -3.41348 1.52831 0
M  V30 3705 H 353.995 -6.58408 1.59703 0
M  V30 3706 H 354.938 -6.36381 3.10523 0
M  V30 3707 H 355.346 -5.39626 1.65722 0
M  V30 3708 N 354.744 -0.972509 -1.24016 0
M  V30 3709 C 355.991 -0.637034 -1.92219 0
M  V30 3710 C 356.319 0.828418 -1.75976 0
M  V30 3711 O 355.574 1.61206 -1.10955 0
M  V30 3712 C 355.873 -0.963694 -3.44162 0
M  V30 3713 C 355.539 -2.41807 -3.80579 0
M  V30 3714 C 354.201 -2.81556 -3.9023 0
M  V30 3715 C 356.553 -3.36172 -3.98293 0
M  V30 3716 C 353.881 -4.14702 -4.15017 0
M  V30 3717 C 356.233 -4.68952 -4.24578 0
M  V30 3718 C 354.897 -5.08472 -4.32449 0
M  V30 3719 H 354.167 -0.233107 -0.703379 0
M  V30 3720 H 356.814 -1.2249 -1.47202 0
M  V30 3721 H 355.119 -0.29365 -3.90698 0
M  V30 3722 H 356.816 -0.682449 -3.9515 0
M  V30 3723 H 353.406 -2.09988 -3.73635 0
M  V30 3724 H 357.59 -3.06644 -3.90234 0
M  V30 3725 H 352.846 -4.4494 -4.19331 0
M  V30 3726 H 357.02 -5.42037 -4.37229 0
M  V30 3727 H 354.647 -6.11665 -4.51409 0
M  V30 3728 N 356.222 1.38976 -0.743202 0
M  V30 3729 C 357.633 1.83123 -0.363732 0
M  V30 3730 C 357.984 1.6205 1.10609 0
M  V30 3731 O 357.109 1.11606 1.854 0
M  V30 3732 C 357.704 3.32439 -0.653408 0
M  V30 3733 C 356.263 3.74974 -0.327338 0
M  V30 3734 C 355.41 2.61878 -0.911875 0
M  V30 3735 H 358.361 1.27852 -0.940191 0
M  V30 3736 H 358.382 3.80432 0.0720031 0
M  V30 3737 H 357.894 3.47745 -1.72323 0
M  V30 3738 H 355.995 3.65252 0.736314 0
M  V30 3739 H 356.108 4.72106 -0.815631 0
M  V30 3740 H 354.472 2.52448 -0.337944 0
M  V30 3741 H 355.255 2.79987 -1.98651 0
M  V30 3742 N 357.7 0.491464 1.49741 0
M  V30 3743 C 358.949 -0.0582189 2.01616 0
M  V30 3744 C 359.262 -1.38927 1.3769 0
M  V30 3745 O 360.468 -2.02509 1.80838 0
M  V30 3746 C 358.924 -0.154235 3.59569 0
M  V30 3747 C 358.532 1.1696 4.32463 0
M  V30 3748 C 360.276 -0.65479 4.1942 0
M  V30 3749 C 358.183 1.03627 5.8225 0
M  V30 3750 H 357.113 -0.0255317 0.753568 0
M  V30 3751 H 359.764 0.629445 1.72367 0
M  V30 3752 H 358.146 -0.906138 3.85493 0
M  V30 3753 H 359.32 1.93405 4.18248 0
M  V30 3754 H 357.635 1.60285 3.84315 0
M  V30 3755 H 360.232 -0.771903 5.29099 0
M  V30 3756 H 360.575 -1.65127 3.8215 0
M  V30 3757 H 361.108 0.040304 3.9778 0
M  V30 3758 H 357.847 2.00672 6.24028 0
M  V30 3759 H 357.367 0.312546 5.98985 0
M  V30 3760 H 359.046 0.711114 6.4308 0
M  V30 3761 N 359.178 -1.55987 0.224894 0
M  V30 3762 C 360.408 -2.02489 -0.41007 0
M  V30 3763 C 360.816 -1.10391 -1.53657 0
M  V30 3764 O 360.159 -0.106458 -1.83391 0
M  V30 3765 C 360.221 -3.45319 -0.999757 0
M  V30 3766 C 359.885 -4.56999 -0.00827976 0
M  V30 3767 C 360.882 -5.13812 0.793314 0
M  V30 3768 C 358.567 -5.02176 0.111442 0
M  V30 3769 C 360.561 -6.14276 1.7013 0
M  V30 3770 C 358.248 -6.02477 1.02296 0
M  V30 3771 C 359.246 -6.58403 1.81643 0
M  V30 3772 O 358.934 -7.56751 2.71262 0
M  V30 3773 H 358.666 -0.667915 -0.104235 0
M  V30 3774 H 361.22 -2.0257 0.339782 0
M  V30 3775 H 359.45 -3.42318 -1.79876 0
M  V30 3776 H 361.139 -3.7545 -1.54248 0
M  V30 3777 H 361.905 -4.79756 0.711288 0
M  V30 3778 H 357.784 -4.58323 -0.49605 0
M  V30 3779 H 361.328 -6.57854 2.32107 0
M  V30 3780 H 357.225 -6.35954 1.10599 0
M  V30 3781 H 357.993 -7.74286 2.65375 0
M  V30 3782 N 360.656 0.0484629 -1.57525 0
M  V30 3783 C 361.884 0.755421 -1.92616 0
M  V30 3784 C 362.299 1.69919 -0.822984 0
M  V30 3785 O 361.656 1.81378 0.202085 0
M  V30 3786 C 361.707 1.52915 -3.27566 0
M  V30 3787 O 361.428 0.62329 -4.33644 0
M  V30 3788 C 362.929 2.33502 -3.76818 0
M  V30 3789 H 360.149 0.213465 -0.63614 0
M  V30 3790 H 362.693 0.0117698 -2.04497 0
M  V30 3791 H 360.848 2.22486 -3.17142 0
M  V30 3792 H 361.262 1.16383 -5.11425 0
M  V30 3793 H 362.736 2.83214 -4.73808 0
M  V30 3794 H 363.213 3.14068 -3.07014 0
M  V30 3795 H 363.819 1.69043 -3.90262 0
M  V30 3796 N 362.134 1.5431 0.320358 0
M  V30 3797 C 363.364 1.7638 1.07582 0
M  V30 3798 C 363.772 0.513944 1.82086 0
M  V30 3799 O 363.115 -0.525123 1.76035 0
M  V30 3800 C 363.177 2.9055 2.1171 0
M  V30 3801 C 362.841 4.2934 1.56575 0
M  V30 3802 C 363.838 5.10077 1.00586 0
M  V30 3803 C 361.523 4.75893 1.60722 0
M  V30 3804 C 363.517 6.35477 0.494756 0
M  V30 3805 C 361.204 6.0126 1.09224 0
M  V30 3806 C 362.202 6.80886 0.53696 0
M  V30 3807 O 361.89 8.03894 0.0297371 0
M  V30 3808 H 361.622 0.592369 0.325692 0
M  V30 3809 H 364.176 2.02019 0.37116 0
M  V30 3810 H 362.406 2.60489 2.85801 0
M  V30 3811 H 364.095 3.00373 2.73003 0
M  V30 3812 H 364.861 4.75265 0.966869 0
M  V30 3813 H 360.74 4.13957 2.02882 0
M  V30 3814 H 364.284 6.97574 0.0606842 0
M  V30 3815 H 360.181 6.35562 1.12831 0
M  V30 3816 H 360.949 8.18372 0.14486 0
M  V30 3817 N 363.613 -0.582584 1.46437 0
M  V30 3818 C 364.841 -1.36682 1.55324 0
M  V30 3819 C 365.256 -1.87796 0.194409 0
M  V30 3820 O 364.613 -1.63623 -0.808318 0
M  V30 3821 C 364.664 -2.55426 2.55812 0
M  V30 3822 O 364.385 -2.0643 3.86417 0
M  V30 3823 C 365.886 -3.47976 2.74641 0
M  V30 3824 H 363.106 -0.417545 0.525259 0
M  V30 3825 H 365.65 -0.708219 1.91845 0
M  V30 3826 H 363.805 -3.17275 2.22295 0
M  V30 3827 H 364.219 -2.83762 4.41111 0
M  V30 3828 H 365.693 -4.27775 3.48874 0
M  V30 3829 H 366.17 -3.99919 1.81553 0
M  V30 3830 H 366.776 -2.91962 3.09255 0
M  V30 3831 N 365.091 -1.34144 -0.827227 0
M  V30 3832 C 366.339 -1.26009 -1.58007 0
M  V30 3833 C 366.66 0.170971 -1.94249 0
M  V30 3834 O 365.93 1.10256 -1.61927 0
M  V30 3835 H 364.51 -0.463414 -0.585881 0
M  V30 3836 H 367.172 -1.68005 -0.987951 0
M  V30 3837 H 366.268 -1.86187 -2.50481 0
M  V30 3838 N 366.569 1.04691 -1.17803 0
M  V30 3839 C 367.516 2.12557 -0.899343 0
M  V30 3840 C 368.486 1.65339 0.158771 0
M  V30 3841 O 369.671 1.90789 0.0204797 0
M  V30 3842 C 366.811 3.42481 -0.424315 0
M  V30 3843 C 365.924 4.03346 -1.54713 0
M  V30 3844 C 365.059 5.21208 -1.02546 0
M  V30 3845 C 364.098 5.74089 -2.12339 0
M  V30 3846 N 363.235 6.83247 -1.61612 0
M  V30 3847 H 368.075 2.35734 -1.823 0
M  V30 3848 H 365.612 1.1564 -0.909159 0
M  V30 3849 H 367.57 4.16996 -0.130421 0
M  V30 3850 H 366.2 3.19471 0.462377 0
M  V30 3851 H 365.252 3.2622 -1.95664 0
M  V30 3852 H 366.564 4.38628 -2.37501 0
M  V30 3853 H 365.718 6.02812 -0.685718 0
M  V30 3854 H 364.457 4.87414 -0.167084 0
M  V30 3855 H 363.462 4.91111 -2.47165 0
M  V30 3856 H 364.687 6.0993 -2.98601 0
M  V30 3857 H 362.633 6.5134 -0.780533 0
M  V30 3858 H 362.55 7.17559 -2.38003 0
M  V30 3859 H 363.818 7.68491 -1.30545 0
M  V30 3860 N 368.047 0.979072 1.23499 0
M  V30 3861 C 369.272 0.664845 1.96455 0
M  V30 3862 C 369.697 -0.761287 1.72006 0
M  V30 3863 O 369.055 -1.51837 0.990713 0
M  V30 3864 C 369.103 0.959479 3.47601 0
M  V30 3865 O 368.207 0.0508168 4.12369 0
M  V30 3866 H 367.548 0.250185 0.615064 0
M  V30 3867 H 370.078 1.31231 1.5697 0
M  V30 3868 H 370.088 0.895642 3.98048 0
M  V30 3869 H 368.763 1.99876 3.64723 0
M  V30 3870 H 367.34 0.16895 3.72517 0
M  V30 3871 N 369.525 -1.3858 0.750561 0
M  V30 3872 C 370.475 -2.27795 0.0965949 0
M  V30 3873 C 371.459 -1.45048 -0.696411 0
M  V30 3874 O 372.651 -1.67812 -0.562863 0
M  V30 3875 C 369.78 -3.33894 -0.798085 0
M  V30 3876 C 368.866 -4.241 0.0016067 0
M  V30 3877 N 369.257 -4.95067 1.03647 0
M  V30 3878 C 367.555 -4.45429 -0.225674 0
M  V30 3879 C 368.256 -5.61489 1.52004 0
M  V30 3880 N 367.232 -5.37135 0.835874 0
M  V30 3881 H 371.034 -2.80125 0.889228 0
M  V30 3882 H 368.548 -1.51446 0.586323 0
M  V30 3883 H 370.545 -3.96693 -1.28219 0
M  V30 3884 H 369.205 -2.83123 -1.5897 0
M  V30 3885 H 370.216 -4.98104 1.41819 0
M  V30 3886 H 366.893 -4.05571 -0.990872 0
M  V30 3887 H 368.283 -6.28264 2.38188 0
M  V30 3888 N 371.003 -0.499398 -1.49478 0
M  V30 3889 C 372.25 0.0456899 -2.02448 0
M  V30 3890 C 372.578 1.37142 -1.37921 0
M  V30 3891 O 371.833 1.89111 -0.503544 0
M  V30 3892 C 372.132 0.248424 -3.56536 0
M  V30 3893 C 371.798 -0.999107 -4.39692 0
M  V30 3894 C 370.46 -1.34108 -4.62135 0
M  V30 3895 C 372.812 -1.82842 -4.88076 0
M  V30 3896 C 370.14 -2.51191 -5.30208 0
M  V30 3897 C 372.492 -2.99076 -5.57437 0
M  V30 3898 C 371.156 -3.33655 -5.78127 0
M  V30 3899 H 370.426 0.0167191 -0.740811 0
M  V30 3900 H 373.073 -0.65923 -1.79795 0
M  V30 3901 H 371.378 1.03586 -3.77859 0
M  V30 3902 H 373.075 0.684605 -3.95113 0
M  V30 3903 H 369.665 -0.722729 -4.22463 0
M  V30 3904 H 373.849 -1.57737 -4.70566 0
M  V30 3905 H 369.105 -2.78221 -5.44429 0
M  V30 3906 H 373.279 -3.63664 -5.93904 0
M  V30 3907 H 370.906 -4.24483 -6.30649 0
M  V30 3908 N 372.481 1.55866 -0.233164 0
M  V30 3909 C 373.414 2.16794 0.712442 0
M  V30 3910 C 374.392 1.1158 1.18273 0
M  V30 3911 O 375.576 1.39897 1.26337 0
M  V30 3912 C 372.703 2.75757 1.96661 0
M  V30 3913 C 371.749 3.93902 1.63533 0
M  V30 3914 S 372.582 5.30223 0.74995 0
M  V30 3915 C 373.738 5.92631 2.01343 0
M  V30 3916 H 373.971 2.96662 0.194617 0
M  V30 3917 H 371.504 1.5439 -0.0177425 0
M  V30 3918 H 373.462 3.10367 2.68668 0
M  V30 3919 H 372.123 1.9586 2.45556 0
M  V30 3920 H 371.316 4.33702 2.56747 0
M  V30 3921 H 370.918 3.60499 0.995804 0
M  V30 3922 H 373.21 6.09312 2.96219 0
M  V30 3923 H 374.153 6.88388 1.65915 0
M  V30 3924 H 374.561 5.21571 2.15925 0
M  V30 3925 N 373.959 -0.0401083 1.57549 0
M  V30 3926 C 374.889 -1.04384 2.08869 0
M  V30 3927 C 375.87 -1.38407 0.988817 0
M  V30 3928 O 377.055 -1.47483 1.26342 0
M  V30 3929 C 374.185 -2.34808 2.55895 0
M  V30 3930 C 373.139 -2.15057 3.70047 0
M  V30 3931 C 372.465 -3.51145 4.03239 0
M  V30 3932 C 373.765 -1.54576 4.98902 0
M  V30 3933 H 375.459 -0.616666 2.92981 0
M  V30 3934 H 373.005 -0.295184 1.40942 0
M  V30 3935 H 374.958 -3.05346 2.90417 0
M  V30 3936 H 373.682 -2.79565 1.68853 0
M  V30 3937 H 372.341 -1.46954 3.35857 0
M  V30 3938 H 371.989 -3.93529 3.13279 0
M  V30 3939 H 371.689 -3.38758 4.80122 0
M  V30 3940 H 373.213 -4.23062 4.40285 0
M  V30 3941 H 374.627 -2.15017 5.31451 0
M  V30 3942 H 373.024 -1.52796 5.80322 0
M  V30 3943 H 374.094 -0.51039 4.82206 0
M  V30 3944 N 375.437 -1.54477 -0.31217 0
M  V30 3945 C 376.848 -1.64344 -0.885891 0
M  V30 3946 C 377.199 -0.54485 -1.88483 0
M  V30 3947 O 376.324 0.320387 -2.14015 0
M  V30 3948 C 376.919 -2.97908 -1.61357 0
M  V30 3949 C 375.478 -3.09933 -2.13585 0
M  V30 3950 C 374.625 -2.59971 -0.964897 0
M  V30 3951 H 377.576 -1.58448 -0.0894528 0
M  V30 3952 H 377.597 -2.88706 -2.47848 0
M  V30 3953 H 377.109 -3.77845 -0.886277 0
M  V30 3954 H 375.21 -2.34694 -2.89395 0
M  V30 3955 H 375.323 -4.15916 -2.37804 0
M  V30 3956 H 373.687 -2.16147 -1.34731 0
M  V30 3957 H 374.47 -3.42376 -0.251742 0
M  V30 3958 N 376.915 0.57481 -1.46744 0
M  V30 3959 C 378.192 1.3352 -1.4294 0
M  V30 3960 C 378.572 2.10775 -0.117009 0
M  V30 3961 O 377.92 2.09966 0.901474 0
M  V30 3962 C 378.13 2.25456 -2.66403 0
M  V30 3963 C 379.478 2.87035 -3.12883 0
M  V30 3964 O 380.502 2.35766 -2.67007 0
M  V30 3965 O 379.361 3.80179 -3.92589 0
M  V30 3966 H 376.455 0.600318 -0.568812 0
M  V30 3967 H 379.001 0.595171 -1.58921 0
M  V30 3968 H 377.773 1.67851 -3.53471 0
M  V30 3969 H 377.396 3.06785 -2.52921 0
M  V30 3970 N 378.394 1.34581 0.820102 0
M  V30 3971 C 379.671 1.17675 1.56244 0
M  V30 3972 C 380.051 -0.249541 2.0962 0
M  V30 3973 O 379.399 -1.25125 1.91196 0
M  V30 3974 C 379.609 2.23364 2.6816 0
M  V30 3975 C 380.957 2.58485 3.36854 0
M  V30 3976 O 381.981 2.22175 2.78418 0
M  V30 3977 O 380.84 3.20868 4.42386 0
M  V30 3978 H 377.934 0.456333 0.689702 0
M  V30 3979 H 380.48 1.46222 0.861231 0
M  V30 3980 H 379.252 3.19087 2.26493 0
M  V30 3981 H 378.875 1.96009 3.45928 0
M  V30 3982 N 379.872 -1.04064 1.18357 0
M  V30 3983 C 381.149 -1.74252 0.888581 0
M  V30 3984 C 381.529 -2.02138 -0.60856 0
M  V30 3985 O 380.877 -1.66656 -1.56327 0
M  V30 3986 C 381.087 -3.0277 1.73584 0
M  V30 3987 C 382.435 -3.76506 1.96286 0
M  V30 3988 O 383.459 -3.12668 1.70637 0
M  V30 3989 O 382.318 -4.91243 2.39464 0
M  V30 3990 H 379.412 -0.758271 0.330082 0
M  V30 3991 H 381.958 -1.1013 1.2911 0
M  V30 3992 H 380.73 -2.78299 2.75073 0
M  V30 3993 H 380.353 -3.74631 1.33183 0
M  V30 3994 N 381.35 -0.985608 -1.22978 0
M  V30 3995 C 382.596 -0.65836 -1.91816 0
M  V30 3996 C 382.929 0.806692 -1.76653 0
M  V30 3997 O 382.204 1.58252 -1.13078 0
M  V30 3998 C 382.487 -1.056 -3.44268 0
M  V30 3999 C 382.34 -2.57906 -3.68516 0
M  V30 4000 C 383.659 -0.603781 -4.35939 0
M  V30 4001 H 380.778 -0.24065 -0.696604 0
M  V30 4002 H 383.42 -1.22783 -1.44998 0
M  V30 4003 H 381.57 -0.571445 -3.84274 0
M  V30 4004 H 383.242 -3.13976 -3.3796 0
M  V30 4005 H 381.485 -3.00305 -3.13048 0
M  V30 4006 H 382.156 -2.80779 -4.75255 0
M  V30 4007 H 384.632 -1.01987 -4.03408 0
M  V30 4008 H 383.508 -0.910383 -5.41298 0
M  V30 4009 H 383.769 0.495761 -4.39312 0
M  V30 4010 N 382.828 1.3818 -0.7579 0
M  V30 4011 C 383.76 2.2901 -0.0932177 0
M  V30 4012 C 384.773 1.47958 0.679136 0
M  V30 4013 O 385.962 1.70773 0.519514 0
M  V30 4014 C 383.062 3.26953 0.89192 0
M  V30 4015 C 382.235 4.37045 0.176303 0
M  V30 4016 C 381.294 5.15148 1.07281 0
M  V30 4017 O 380.32 5.66616 0.541728 0
M  V30 4018 N 381.522 5.28542 2.40049 0
M  V30 4019 H 384.287 2.86694 -0.873303 0
M  V30 4020 H 381.848 1.50007 -0.609054 0
M  V30 4021 H 383.84 3.76083 1.49479 0
M  V30 4022 H 382.41 2.70136 1.57306 0
M  V30 4023 H 381.63 3.89493 -0.607328 0
M  V30 4024 H 382.918 5.07801 -0.318718 0
M  V30 4025 H 382.316 4.88285 2.85647 0
M  V30 4026 H 380.873 5.8103 2.95376 0
M  V30 4027 N 384.306 0.507319 1.49211 0
M  V30 4028 C 385.554 -0.0348839 2.0207 0
M  V30 4029 C 385.875 -1.36898 1.38866 0
M  V30 4030 O 385.145 -1.88133 0.546151 0
M  V30 4031 H 383.725 -0.0158812 0.746831 0
M  V30 4032 H 386.387 0.665998 1.83168 0
M  V30 4033 H 385.483 -0.159917 3.1169 0
M  V30 4034 N 385.784 -1.5574 0.241426 0
M  V30 4035 C 387.033 -1.97986 -0.385295 0
M  V30 4036 C 387.346 -1.13267 -1.59468 0
M  V30 4037 O 388.552 -1.45501 -2.2922 0
M  V30 4038 C 387.008 -3.52275 -0.736884 0
M  V30 4039 C 386.616 -4.45726 0.450796 0
M  V30 4040 C 388.36 -4.03189 -1.3281 0
M  V30 4041 C 386.267 -5.91352 0.0756662 0
M  V30 4042 H 385.197 -0.739386 -0.147731 0
M  V30 4043 H 387.848 -1.80308 0.340779 0
M  V30 4044 H 386.23 -3.65628 -1.52094 0
M  V30 4045 H 387.404 -4.44131 1.22819 0
M  V30 4046 H 385.719 -4.05264 0.956573 0
M  V30 4047 H 388.316 -5.09505 -1.62201 0
M  V30 4048 H 388.659 -3.50212 -2.25071 0
M  V30 4049 H 389.192 -3.93141 -0.607069 0
M  V30 4050 H 385.931 -6.48354 0.965272 0
M  V30 4051 H 385.451 -5.96095 -0.665635 0
M  V30 4052 H 387.13 -6.46084 -0.344075 0
M  V30 4053 N 387.262 0.0317525 -1.57568 0
M  V30 4054 C 388.194 1.06073 -2.03178 0
M  V30 4055 C 389.207 1.32627 -0.944132 0
M  V30 4056 O 390.396 1.30162 -1.22148 0
M  V30 4057 C 387.496 2.40297 -2.38978 0
M  V30 4058 C 386.669 2.33137 -3.70089 0
M  V30 4059 C 385.728 3.49787 -3.9311 0
M  V30 4060 O 384.754 3.29403 -4.64201 0
M  V30 4061 N 385.956 4.71562 -3.38541 0
M  V30 4062 H 388.721 0.672006 -2.92069 0
M  V30 4063 H 386.282 0.219745 -1.60402 0
M  V30 4064 H 388.274 3.1705 -2.51518 0
M  V30 4065 H 386.844 2.71024 -1.55771 0
M  V30 4066 H 386.064 1.415 -3.67928 0
M  V30 4067 H 387.352 2.25493 -4.56104 0
M  V30 4068 H 386.75 4.91024 -2.80912 0
M  V30 4069 H 385.307 5.45689 -3.56464 0
M  V30 4070 N 388.74 1.54641 0.303973 0
M  V30 4071 C 389.965 1.78092 1.06292 0
M  V30 4072 C 390.39 0.537342 1.80262 0
M  V30 4073 O 389.748 -0.511993 1.7392 0
M  V30 4074 C 389.796 2.98612 2.02147 0
M  V30 4075 O 388.9 2.71528 3.10397 0
M  V30 4076 H 388.241 0.589548 0.305497 0
M  V30 4077 H 390.771 2.01716 0.3423 0
M  V30 4078 H 390.781 3.265 2.44667 0
M  V30 4079 H 389.456 3.88785 1.47714 0
M  V30 4080 H 388.033 2.54648 2.72413 0
M  V30 4081 N 390.218 -0.567019 1.47046 0
M  V30 4082 C 391.148 -1.68482 1.61667 0
M  V30 4083 C 392.129 -1.6358 0.466418 0
M  V30 4084 O 393.314 -1.81354 0.694574 0
M  V30 4085 C 390.444 -3.07124 1.62148 0
M  V30 4086 C 389.398 -3.26867 2.76301 0
M  V30 4087 C 388.724 -4.66196 2.61849 0
M  V30 4088 C 390.024 -3.13186 4.17986 0
M  V30 4089 H 391.718 -1.56502 2.5524 0
M  V30 4090 H 389.264 -0.751486 1.22836 0
M  V30 4091 H 391.217 -3.8516 1.70968 0
M  V30 4092 H 389.941 -3.2004 0.651287 0
M  V30 4093 H 388.6 -2.51237 2.66975 0
M  V30 4094 H 388.248 -4.75898 1.62879 0
M  V30 4095 H 387.948 -4.80356 3.38425 0
M  V30 4096 H 389.472 -5.46379 2.72584 0
M  V30 4097 H 390.886 -3.81049 4.2834 0
M  V30 4098 H 389.283 -3.3886 4.95272 0
M  V30 4099 H 390.353 -2.10057 4.3704 0
M  V30 4100 N 391.696 -1.35014 -0.812953 0
M  V30 4101 C 392.926 -1.30841 -1.59888 0
M  V30 4102 C 393.334 0.117576 -1.88834 0
M  V30 4103 O 392.677 1.07807 -1.48739 0
M  V30 4104 C 392.739 -2.0412 -2.95931 0
M  V30 4105 C 392.403 -3.53336 -2.89832 0
M  V30 4106 C 393.4 -4.48052 -2.63714 0
M  V30 4107 C 391.085 -3.95894 -3.0915 0
M  V30 4108 C 393.079 -5.833 -2.56982 0
M  V30 4109 C 390.766 -5.31239 -3.0204 0
M  V30 4110 C 391.764 -6.24754 -2.75991 0
M  V30 4111 O 391.452 -7.57617 -2.68833 0
M  V30 4112 H 391.184 -0.451215 -0.50337 0
M  V30 4113 H 393.738 -1.78354 -1.01877 0
M  V30 4114 H 391.968 -1.51235 -3.559 0
M  V30 4115 H 393.657 -1.93107 -3.57022 0
M  V30 4116 H 394.423 -4.16492 -2.48515 0
M  V30 4117 H 390.302 -3.23495 -3.28438 0
M  V30 4118 H 393.846 -6.56263 -2.36569 0
M  V30 4119 H 389.743 -5.62415 -3.16796 0
M  V30 4120 H 390.511 -7.67469 -2.84487 0
M  V30 4121 N 393.175 1.03435 -1.18907 0
M  V30 4122 C 394.423 1.76394 -0.986382 0
M  V30 4123 C 394.744 1.88883 0.484567 0
M  V30 4124 O 394.014 1.41843 1.3512 0
M  V30 4125 H 392.594 0.65344 -0.361975 0
M  V30 4126 H 395.256 1.248 -1.49703 0
M  V30 4127 H 394.352 2.77424 -1.42978 0
M  V30 4128 N 394.653 0.992116 1.22453 0
M  V30 4129 C 396.064 0.702776 1.72968 0
M  V30 4130 C 396.415 -0.780399 1.80012 0
M  V30 4131 O 395.54 -1.61007 1.44589 0
M  V30 4132 C 396.135 1.26903 3.14135 0
M  V30 4133 C 394.694 1.02909 3.62059 0
M  V30 4134 C 393.841 1.38969 2.39964 0
M  V30 4135 H 396.792 1.16457 1.07812 0
M  V30 4136 H 396.813 0.647223 3.74955 0
M  V30 4137 H 396.325 2.34851 3.08977 0
M  V30 4138 H 394.426 -0.0337979 3.72585 0
M  V30 4139 H 394.539 1.69191 4.48231 0
M  V30 4140 H 392.903 0.808279 2.41535 0
M  V30 4141 H 393.686 2.4792 2.37467 0
M  V30 4142 N 396.131 -1.37776 0.765217 0
M  V30 4143 C 397.379 -1.99454 0.325943 0
M  V30 4144 C 397.7 -1.61049 -1.09947 0
M  V30 4145 O 396.97 -0.872821 -1.75381 0
M  V30 4146 H 395.55 -0.737697 0.117525 0
M  V30 4147 H 398.212 -1.68359 0.981895 0
M  V30 4148 H 397.308 -3.09547 0.398353 0
M  V30 4149 N 397.609 -0.515225 -1.4894 0
M  V30 4150 C 398.886 0.0879088 -1.95402 0
M  V30 4151 C 399.266 1.52745 -1.45712 0
M  V30 4152 O 398.614 2.18238 -0.677093 0
M  V30 4153 C 398.824 -0.0141055 -3.48997 0
M  V30 4154 C 400.172 0.152646 -4.24326 0
M  V30 4155 O 401.196 0.0604025 -3.56149 0
M  V30 4156 O 400.055 0.34384 -5.45417 0
M  V30 4157 H 397.149 0.0874636 -0.822362 0
M  V30 4158 H 399.695 -0.578775 -1.59525 0
M  V30 4159 H 398.467 -1.01745 -3.77841 0
M  V30 4160 H 398.09 0.692091 -3.9153 0
M  V30 4161 N 399.087 1.5561 -0.249682 0
M  V30 4162 C 399.997 2.25143 0.659375 0
M  V30 4163 C 401.013 1.2685 1.19101 0
M  V30 4164 O 402.189 1.59732 1.22669 0
M  V30 4165 C 399.254 2.93945 1.8384 0
M  V30 4166 C 398.315 4.07655 1.34596 0
M  V30 4167 C 397.548 4.73167 2.46878 0
M  V30 4168 O 397.771 4.37768 3.65671 0
M  V30 4169 O 396.705 5.61623 2.16478 0
M  V30 4170 H 400.531 3.03545 0.0968698 0
M  V30 4171 H 398.116 1.49389 -0.018074 0
M  V30 4172 H 399.998 3.37271 2.52638 0
M  V30 4173 H 398.673 2.18481 2.38847 0
M  V30 4174 H 397.58 3.68839 0.625174 0
M  V30 4175 H 398.913 4.84946 0.841941 0
M  V30 4176 N 400.565 -0.0233959 1.57583 0
M  V30 4177 C 401.842 -0.748794 1.807 0
M  V30 4178 C 402.222 -1.9327 0.849106 0
M  V30 4179 O 401.57 -2.28247 -0.107468 0
M  V30 4180 C 401.78 -1.17651 3.28571 0
M  V30 4181 C 403.128 -1.59008 3.93702 0
M  V30 4182 O 404.152 -1.27094 3.32755 0
M  V30 4183 O 403.011 -2.18264 5.01022 0
M  V30 4184 H 400.105 -0.362578 0.743281 0
M  V30 4185 H 402.651 0.000261958 1.697 0
M  V30 4186 H 401.423 -0.331603 3.89892 0
M  V30 4187 H 401.046 -1.98541 3.44481 0
M  V30 4188 N 402.043 -1.548 -0.295768 0
M  V30 4189 C 403.454 -1.65274 -0.868411 0
M  V30 4190 C 403.805 -0.56481 -1.87894 0
M  V30 4191 O 402.93 0.29767 -2.14343 0
M  V30 4192 C 403.525 -2.99603 -1.58188 0
M  V30 4193 C 402.084 -3.12181 -2.10286 0
M  V30 4194 C 401.231 -2.6098 -0.93727 0
M  V30 4195 H 404.182 -1.58534 -0.0726422 0
M  V30 4196 H 404.203 -2.91319 -2.44772 0
M  V30 4197 H 403.715 -3.78764 -0.846151 0
M  V30 4198 H 401.816 -2.3775 -2.8689 0
M  V30 4199 H 401.929 -4.18415 -2.33379 0
M  V30 4200 H 400.293 -2.17564 -1.32431 0
M  V30 4201 H 401.076 -3.42623 -0.215414 0
M  V30 4202 N 403.521 0.559213 -1.47345 0
M  V30 4203 C 404.469 1.68747 -1.60085 0
M  V30 4204 C 405.463 1.628 -0.46825 0
M  V30 4205 O 406.669 1.68009 -0.645977 0
M  V30 4206 H 403.044 0.558329 -0.503759 0
M  V30 4207 H 405.015 1.55138 -2.54902 0
M  V30 4208 C 403.764 3.07103 -1.63042 0
M  V30 4209 H 403.087 3.12361 -2.49541 0
M  V30 4210 H 404.527 3.85743 -1.76006 0
M  V30 4211 C 402.986 3.34935 -0.363357 0
M  V30 4212 O 403.516 3.98102 0.536416 0
M  V30 4213 N 401.722 2.89574 -0.244 0
M  V30 4214 H 401.269 2.38348 -0.977133 0
M  V30 4215 H 401.227 3.08566 0.602836 0
M  V30 4216 N 404.999 1.35443 0.805782 0
M  V30 4217 C 406.41 1.25768 1.37983 0
M  V30 4218 C 406.761 -0.10958 1.95894 0
M  V30 4219 O 405.886 -1.01056 1.91355 0
M  V30 4220 C 406.481 2.27727 2.5085 0
M  V30 4221 C 405.04 2.2179 3.04115 0
M  V30 4222 C 404.187 2.13393 1.77084 0
M  V30 4223 H 407.138 1.4656 0.608752 0
M  V30 4224 H 407.159 1.90422 3.29424 0
M  V30 4225 H 406.671 3.27227 2.08671 0
M  V30 4226 H 404.772 1.25703 3.50756 0
M  V30 4227 H 404.885 3.13788 3.62042 0
M  V30 4228 H 403.249 1.59384 1.98668 0
M  V30 4229 H 404.032 3.14755 1.37056 0
M  V30 4230 N 406.477 -1.02803 1.19454 0
M  V30 4231 C 407.424 -2.11099 0.933046 0
M  V30 4232 C 408.394 -1.65571 -0.132447 0
M  V30 4233 O 409.579 -1.90797 0.00987576 0
M  V30 4234 C 406.719 -3.41763 0.478747 0
M  V30 4235 C 405.832 -4.00833 1.6111 0
M  V30 4236 C 404.967 -5.19511 1.10825 0
M  V30 4237 C 404.006 -5.70639 2.21445 0
M  V30 4238 N 403.143 -6.80589 1.72461 0
M  V30 4239 H 407.983 -2.32804 1.86028 0
M  V30 4240 H 405.52 -1.14179 0.927441 0
M  V30 4241 H 407.478 -4.16736 0.196745 0
M  V30 4242 H 406.108 -3.20166 -0.411493 0
M  V30 4243 H 405.16 -3.23066 2.00829 0
M  V30 4244 H 406.472 -4.34794 2.4445 0
M  V30 4245 H 405.626 -6.01645 0.781533 0
M  V30 4246 H 404.365 -4.87086 0.244606 0
M  V30 4247 H 403.37 -4.87116 2.54947 0
M  V30 4248 H 404.595 -6.05102 3.08267 0
M  V30 4249 H 402.541 -6.50016 0.884056 0
M  V30 4250 H 402.458 -7.13681 2.49389 0
M  V30 4251 H 403.726 -7.66317 1.42755 0
M  V30 4252 N 407.956 -0.998596 -1.21925 0
M  V30 4253 C 408.906 -0.524743 -2.21879 0
M  V30 4254 C 409.89 0.41017 -1.55584 0
M  V30 4255 O 411.082 0.236063 -1.75419 0
M  V30 4256 C 408.211 0.153636 -3.42956 0
M  V30 4257 C 407.297 -0.801918 -4.16449 0
M  V30 4258 N 407.688 -1.95211 -4.66611 0
M  V30 4259 C 405.986 -0.618972 -4.41684 0
M  V30 4260 C 406.687 -2.55234 -5.22715 0
M  V30 4261 N 405.663 -1.83451 -5.1171 0
M  V30 4262 H 409.465 -1.40189 -2.58311 0
M  V30 4263 H 406.979 -0.86159 -1.3766 0
M  V30 4264 H 408.976 0.510534 -4.13762 0
M  V30 4265 H 407.636 1.02684 -3.08036 0
M  V30 4266 H 408.647 -2.33271 -4.62391 0
M  V30 4267 H 405.324 0.207694 -4.16983 0
M  V30 4268 H 406.714 -3.52471 -5.72026 0
M  V30 4269 N 409.434 1.37368 -0.772513 0
M  V30 4270 C 410.845 1.8231 -0.402493 0
M  V30 4271 C 411.196 1.6436 1.07146 0
M  V30 4272 O 410.321 1.15514 1.82991 0
M  V30 4273 C 410.916 3.30979 -0.723776 0
M  V30 4274 C 409.475 3.74195 -0.406802 0
M  V30 4275 C 408.622 2.59885 -0.967218 0
M  V30 4276 H 411.573 1.25829 -0.967099 0
M  V30 4277 H 411.594 3.80499 -0.00870832 0
M  V30 4278 H 411.106 3.44011 -1.7966 0
M  V30 4279 H 409.207 3.66732 0.658673 0
M  V30 4280 H 409.32 4.7027 -0.915588 0
M  V30 4281 H 407.684 2.51674 -0.391416 0
M  V30 4282 H 408.467 2.7571 -2.04546 0
M  V30 4283 N 410.912 0.523116 1.48665 0
M  V30 4284 C 411.859 -0.243398 2.29513 0
M  V30 4285 C 412.829 -0.940139 1.36933 0
M  V30 4286 O 414.014 -0.942503 1.65896 0
M  V30 4287 C 411.154 -1.28855 3.20141 0
M  V30 4288 C 410.267 -0.60135 4.27794 0
M  V30 4289 C 409.402 -1.62884 5.05611 0
M  V30 4290 C 408.441 -0.924726 6.05075 0
M  V30 4291 N 407.578 -1.89744 6.75975 0
M  V30 4292 H 412.418 0.452234 2.94549 0
M  V30 4293 H 409.955 0.234858 1.45213 0
M  V30 4294 H 411.913 -1.90674 3.71079 0
M  V30 4295 H 410.543 -1.95266 2.57043 0
M  V30 4296 H 409.595 0.130623 3.80176 0
M  V30 4297 H 410.907 -0.0481585 4.98777 0
M  V30 4298 H 410.061 -2.32149 5.60528 0
M  V30 4299 H 408.8 -2.21592 4.34452 0
M  V30 4300 H 407.805 -0.217966 5.49368 0
M  V30 4301 H 409.03 -0.343851 6.78229 0
M  V30 4302 H 406.976 -2.47373 6.07571 0
M  V30 4303 H 406.893 -1.3955 7.43009 0
M  V30 4304 H 408.161 -2.58229 7.35485 0
M  V30 4305 N 412.39 -1.55475 0.257931 0
M  V30 4306 C 413.618 -2.03609 -0.367559 0
M  V30 4307 C 414.033 -1.13687 -1.50734 0
M  V30 4308 O 413.39 -0.153479 -1.81853 0
M  V30 4309 C 413.441 -3.51001 -0.864908 0
M  V30 4310 O 413.162 -4.37499 0.229465 0
M  V30 4311 C 414.663 -4.14946 -1.55997 0
M  V30 4312 H 411.883 -0.665459 -0.0860521 0
M  V30 4313 H 414.427 -2.00843 0.385014 0
M  V30 4314 H 412.582 -3.54266 -1.56762 0
M  V30 4315 H 412.996 -5.24286 -0.14998 0
M  V30 4316 H 414.47 -5.19735 -1.85956 0
M  V30 4317 H 414.947 -3.6209 -2.4857 0
M  V30 4318 H 415.553 -4.15635 -0.901543 0
M  V30 4319 N 413.868 0.0150385 -1.57593 0
M  V30 4320 C 415.279 0.559832 -1.78109 0
M  V30 4321 C 415.63 1.74814 -0.890756 0
M  V30 4322 O 414.755 2.16216 -0.0892482 0
M  V30 4323 C 415.35 1.02238 -3.23006 0
M  V30 4324 C 413.909 1.51258 -3.44671 0
M  V30 4325 C 413.056 0.456955 -2.73509 0
M  V30 4326 H 416.007 -0.211169 -1.57289 0
M  V30 4327 H 416.028 1.88912 -3.30292 0
M  V30 4328 H 415.54 0.157302 -3.87781 0
M  V30 4329 H 413.641 2.39905 -2.8509 0
M  V30 4330 H 413.754 1.55042 -4.5332 0
M  V30 4331 H 412.118 0.915196 -2.37689 0
M  V30 4332 H 412.901 -0.398896 -3.40975 0
M  V30 4333 N 415.346 1.54954 0.287554 0
M  V30 4334 C 416.623 1.65569 1.04146 0
M  V30 4335 C 417.003 0.512672 2.0478 0
M  V30 4336 O 416.351 -0.489038 2.23205 0
M  V30 4337 C 416.561 3.04163 1.71131 0
M  V30 4338 C 417.909 3.61429 2.22832 0
M  V30 4339 O 418.933 3.06702 1.81141 0
M  V30 4340 O 417.792 4.57281 2.9926 0
M  V30 4341 H 414.886 0.671881 0.482188 0
M  V30 4342 H 417.432 1.67297 0.28457 0
M  V30 4343 H 416.204 3.78796 0.981303 0
M  V30 4344 H 415.827 3.06271 2.53543 0
M  V30 4345 N 416.824 -0.551391 1.4764 0
M  V30 4346 C 417.771 -1.65796 1.60563 0
M  V30 4347 C 418.741 -1.59932 0.448428 0
M  V30 4348 O 419.926 -1.78679 0.669222 0
M  V30 4349 C 417.066 -3.04108 1.63133 0
M  V30 4350 C 416.179 -3.20365 2.89811 0
M  V30 4351 C 415.314 -4.49109 2.8368 0
M  V30 4352 C 414.353 -4.58819 4.05156 0
M  V30 4353 N 413.49 -5.78926 3.97227 0
M  V30 4354 H 418.33 -1.54088 2.5507 0
M  V30 4355 H 415.867 -0.75052 1.26513 0
M  V30 4356 H 417.825 -3.84207 1.62606 0
M  V30 4357 H 416.455 -3.14637 0.721341 0
M  V30 4358 H 415.507 -2.33659 3.00179 0
M  V30 4359 H 416.819 -3.23402 3.79753 0
M  V30 4360 H 415.973 -5.37475 2.81434 0
M  V30 4361 H 414.712 -4.4856 1.91431 0
M  V30 4362 H 413.717 -3.68864 4.077 0
M  V30 4363 H 414.942 -4.61124 4.98539 0
M  V30 4364 H 412.888 -5.79314 3.07785 0
M  V30 4365 H 412.805 -5.83367 4.80853 0
M  V30 4366 H 414.073 -6.69637 3.99007 0
M  V30 4367 N 418.302 -1.35869 -0.798587 0
M  V30 4368 C 419.542 -1.30961 -1.56935 0
M  V30 4369 C 419.906 0.112404 -1.91671 0
M  V30 4370 O 421.107 0.285937 -2.67275 0
M  V30 4371 C 419.378 -2.19811 -2.81811 0
M  V30 4372 S 420.937 -2.32498 -3.72143 0
M  V30 4373 H 417.755 -0.465297 -0.537606 0
M  V30 4374 H 420.357 -1.71344 -0.941346 0
M  V30 4375 H 419.061 -3.22095 -2.54329 0
M  V30 4376 H 418.592 -1.80415 -3.49591 0
M  V30 4377 H 420.607 -1.5157 -4.72484 0
M  V30 4378 N 419.78 1.02168 -1.19998 0
M  V30 4379 C 421.057 1.72816 -0.916191 0
M  V30 4380 C 421.437 2.03081 0.576325 0
M  V30 4381 O 420.785 1.69122 1.53656 0
M  V30 4382 C 420.995 2.9997 -1.78378 0
M  V30 4383 C 422.343 3.73336 -2.02251 0
M  V30 4384 O 423.367 3.09914 -1.75589 0
M  V30 4385 O 422.226 4.87371 -2.47249 0
M  V30 4386 H 419.32 0.752924 -0.342103 0
M  V30 4387 H 421.866 1.08062 -1.30846 0
M  V30 4388 H 420.638 2.73888 -2.79466 0
M  V30 4389 H 420.261 3.72464 -1.39126 0
M  V30 4390 N 421.258 1.00505 1.21394 0
M  V30 4391 C 422.669 0.721082 1.72213 0
M  V30 4392 C 423.02 -0.761263 1.80829 0
M  V30 4393 O 422.145 -1.59464 1.46288 0
M  V30 4394 C 422.74 1.30228 3.12772 0
M  V30 4395 C 421.299 1.06743 3.60947 0
M  V30 4396 C 420.446 1.41507 2.38477 0
M  V30 4397 H 423.397 1.17594 1.06571 0
M  V30 4398 H 423.418 0.686955 3.74247 0
M  V30 4399 H 422.93 2.38115 3.06468 0
M  V30 4400 H 421.031 0.00572162 3.726 0
M  V30 4401 H 421.144 1.73936 4.46411 0
M  V30 4402 H 419.508 0.833852 2.40664 0
M  V30 4403 H 420.291 2.50424 2.34824 0
M  V30 4404 N 422.737 -1.36956 0.779787 0
M  V30 4405 C 423.962 -2.04283 0.358224 0
M  V30 4406 C 424.387 -1.58422 -1.01411 0
M  V30 4407 O 423.745 -0.748179 -1.65142 0
M  V30 4408 C 423.793 -3.58152 0.419479 0
M  V30 4409 O 422.897 -4.08342 -0.577142 0
M  V30 4410 H 422.238 -0.645967 0.153698 0
M  V30 4411 H 424.768 -1.75108 1.05822 0
M  V30 4412 H 424.778 -4.07041 0.279636 0
M  V30 4413 H 423.453 -3.90886 1.42061 0
M  V30 4414 H 422.03 -3.70751 -0.399755 0
M  V30 4415 N 424.215 -0.530993 -1.48385 0
M  V30 4416 C 425.145 0.219985 -2.32461 0
M  V30 4417 C 426.126 0.934111 -1.42156 0
M  V30 4418 O 427.311 0.919694 -1.71042 0
M  V30 4419 C 424.441 1.26674 -3.23375 0
M  V30 4420 C 423.395 0.67069 -4.22712 0
M  V30 4421 C 422.721 1.82017 -5.02766 0
M  V30 4422 C 424.021 -0.358268 -5.2107 0
M  V30 4423 H 425.715 -0.48187 -2.95497 0
M  V30 4424 H 423.261 -0.233182 -1.42099 0
M  V30 4425 H 425.214 1.80006 -3.81019 0
M  V30 4426 H 423.938 1.99818 -2.58341 0
M  V30 4427 H 422.597 0.158878 -3.66256 0
M  V30 4428 H 422.245 2.54002 -4.34157 0
M  V30 4429 H 421.945 1.42727 -5.70003 0
M  V30 4430 H 423.469 2.35725 -5.63264 0
M  V30 4431 H 424.883 0.0880081 -5.73232 0
M  V30 4432 H 423.28 -0.66861 -5.96364 0
M  V30 4433 H 424.35 -1.26367 -4.68145 0
M  V30 4434 N 425.693 1.55336 -0.266172 0
M  V30 4435 C 426.918 2.04258 0.359661 0
M  V30 4436 C 427.343 1.14359 1.49344 0
M  V30 4437 O 426.701 0.140369 1.80756 0
M  V30 4438 C 426.749 3.50997 0.826635 0
M  V30 4439 O 425.853 3.64204 1.93466 0
M  V30 4440 H 425.194 0.659668 0.075727 0
M  V30 4441 H 427.724 2.00694 -0.39786 0
M  V30 4442 H 427.734 3.9219 1.12477 0
M  V30 4443 H 426.409 4.159 -0.00293032 0
M  V30 4444 H 424.986 3.34913 1.63974 0
M  V30 4445 N 427.171 -0.0066808 1.57599 0
M  V30 4446 C 428.101 -0.999296 2.11036 0
M  V30 4447 C 429.082 -1.36278 1.01795 0
M  V30 4448 O 430.267 -1.4477 1.29442 0
M  V30 4449 C 427.397 -2.29328 2.60818 0
M  V30 4450 C 426.351 -2.07159 3.74525 0
M  V30 4451 C 425.677 -3.42512 4.10596 0
M  V30 4452 C 426.977 -1.43959 5.02069 0
M  V30 4453 H 428.671 -0.554382 2.94223 0
M  V30 4454 H 426.217 -0.265221 1.41536 0
M  V30 4455 H 428.17 -2.99117 2.96828 0
M  V30 4456 H 426.894 -2.7592 1.74745 0
M  V30 4457 H 425.553 -1.39797 3.38899 0
M  V30 4458 H 425.201 -3.86795 3.21556 0
M  V30 4459 H 424.901 -3.28498 4.87199 0
M  V30 4460 H 426.425 -4.13628 4.4916 0
M  V30 4461 H 427.839 -2.03696 5.35893 0
M  V30 4462 H 426.236 -1.40452 5.83432 0
M  V30 4463 H 427.306 -0.407992 4.83181 0
M  V30 4464 N 428.649 -1.55105 -0.279332 0
M  V30 4465 C 429.926 -1.66119 -1.03267 0
M  V30 4466 C 430.306 -0.523525 -2.04505 0
M  V30 4467 O 429.654 0.477194 -2.23462 0
M  V30 4468 C 429.864 -3.05067 -1.69515 0
M  V30 4469 C 431.212 -3.62606 -2.20912 0
M  V30 4470 O 432.236 -3.07659 -1.79512 0
M  V30 4471 O 431.095 -4.58861 -2.96831 0
M  V30 4472 H 428.189 -0.674429 -0.478618 0
M  V30 4473 H 430.735 -1.67446 -0.275694 0
M  V30 4474 H 429.507 -3.79311 -0.9612 0
M  V30 4475 H 429.13 -3.07611 -2.51915 0
M  V30 4476 N 430.127 0.543554 -1.4793 0
M  V30 4477 C 431.09 1.63156 -1.60975 0
M  V30 4478 C 432.09 1.53346 -0.483899 0
M  V30 4479 O 433.28 1.5726 -0.749339 0
M  V30 4480 C 430.412 3.02743 -1.56716 0
M  V30 4481 H 431.605 1.52934 -2.57975 0
M  V30 4482 H 429.158 0.764557 -1.36324 0
M  V30 4483 H 429.893 3.18484 -0.611418 0
M  V30 4484 H 429.678 3.11272 -2.38438 0
M  V30 4485 H 431.168 3.81871 -1.6901 0
M  V30 4486 N 431.605 1.3629 0.791371 0
M  V30 4487 C 432.854 1.29742 1.54434 0
M  V30 4488 C 433.167 -0.121729 1.95221 0
M  V30 4489 O 434.373 -0.309579 2.69729 0
M  V30 4490 C 432.829 2.27623 2.78776 0
M  V30 4491 C 432.437 3.74963 2.45166 0
M  V30 4492 C 434.181 2.30047 3.56761 0
M  V30 4493 C 432.088 4.64626 3.65891 0
M  V30 4494 H 431.018 0.482113 0.579727 0
M  V30 4495 H 433.669 1.61642 0.868565 0
M  V30 4496 H 432.051 1.88714 3.48142 0
M  V30 4497 H 433.225 4.22596 1.83709 0
M  V30 4498 H 431.54 3.75295 1.80396 0
M  V30 4499 H 434.137 2.94247 4.46456 0
M  V30 4500 H 434.48 1.30846 3.95203 0
M  V30 4501 H 435.013 2.67563 2.94372 0
M  V30 4502 H 431.752 5.64883 3.32547 0
M  V30 4503 H 431.272 4.2171 4.26521 0
M  V30 4504 H 432.951 4.80801 4.32943 0
M  V30 4505 N 433.083 -1.0153 1.20538 0
M  V30 4506 C 434.311 -1.78746 1.04199 0
M  V30 4507 C 434.726 -1.84323 -0.408733 0
M  V30 4508 O 434.083 -1.29714 -1.28377 0
M  V30 4509 C 434.134 -3.23152 1.62035 0
M  V30 4510 O 433.855 -3.17918 3.0143 0
M  V30 4511 C 435.356 -4.16911 1.50666 0
M  V30 4512 H 432.576 -0.56208 0.366479 0
M  V30 4513 H 435.12 -1.27794 1.59653 0
M  V30 4514 H 433.275 -3.71248 1.10697 0
M  V30 4515 H 433.689 -4.08567 3.28897 0
M  V30 4516 H 435.163 -5.16072 1.95892 0
M  V30 4517 H 435.64 -4.36791 0.459363 0
M  V30 4518 H 436.246 -3.74698 2.01201 0
M  V30 4519 N 434.561 -1.01147 -1.20859 0
M  V30 4520 C 435.786 -0.716698 -1.94623 0
M  V30 4521 C 436.211 0.715415 -1.73964 0
M  V30 4522 O 435.569 1.49157 -1.03062 0
M  V30 4523 C 435.617 -1.0513 -3.44935 0
M  V30 4524 O 434.721 -0.160131 -4.12089 0
M  V30 4525 H 434.062 -0.266404 -0.608214 0
M  V30 4526 H 436.592 -1.35346 -1.53436 0
M  V30 4527 H 436.602 -1.00086 -3.95533 0
M  V30 4528 H 435.277 -2.09475 -3.59295 0
M  V30 4529 H 433.854 -0.267657 -3.71938 0
M  V30 4530 N 436.039 1.36541 -0.78704 0
M  V30 4531 C 436.969 2.32659 -0.197992 0
M  V30 4532 C 437.95 1.56533 0.665697 0
M  V30 4533 O 439.135 1.84698 0.60001 0
M  V30 4534 C 436.265 3.40778 0.669901 0
M  V30 4535 C 435.219 4.27897 -0.0937039 0
M  V30 4536 C 434.545 5.27163 0.894629 0
M  V30 4537 C 435.845 5.06334 -1.28154 0
M  V30 4538 H 437.539 2.82171 -1.00099 0
M  V30 4539 H 435.085 1.35665 -0.482793 0
M  V30 4540 H 437.038 4.07008 1.09191 0
M  V30 4541 H 435.762 2.89827 1.50558 0
M  V30 4542 H 434.421 3.6322 -0.49666 0
M  V30 4543 H 434.069 4.72486 1.72527 0
M  V30 4544 H 433.769 5.86317 0.388149 0
M  V30 4545 H 435.293 5.96266 1.31525 0
M  V30 4546 H 436.707 5.65617 -0.93541 0
M  V30 4547 H 435.104 5.74888 -1.72115 0
M  V30 4548 H 436.174 4.38114 -2.07807 0
M  V30 4549 N 437.518 0.538854 1.48102 0
M  V30 4550 C 438.934 0.19732 1.58376 0
M  V30 4551 C 439.134 -1.29971 1.5398 0
M  V30 4552 O 438.19 -2.07861 1.43352 0
M  V30 4553 C 439.503 0.807716 2.89649 0
M  V30 4554 C 441.051 0.77726 3.03196 0
M  V30 4555 C 441.526 1.36639 4.37143 0
M  V30 4556 N 443.017 1.32875 4.43732 0
M  V30 4557 C 443.752 1.7544 5.45901 0
M  V30 4558 N 443.248 2.25776 6.54979 0
M  V30 4559 N 445.041 1.66623 5.36836 0
M  V30 4560 H 437.192 1.5117 1.49202 0
M  V30 4561 H 439.455 0.629327 0.708979 0
M  V30 4562 H 439.161 1.85909 2.98548 0
M  V30 4563 H 439.035 0.289975 3.76084 0
M  V30 4564 H 441.422 -0.265374 2.93904 0
M  V30 4565 H 441.503 1.33256 2.18349 0
M  V30 4566 H 441.147 2.408 4.47189 0
M  V30 4567 H 441.077 0.786689 5.20691 0
M  V30 4568 H 443.568 0.96037 3.65493 0
M  V30 4569 H 443.881 2.56226 7.29087 0
M  V30 4570 H 442.226 2.29775 6.55918 0
M  V30 4571 H 445.417 1.27089 4.50517 0
M  V30 4572 H 445.59 2.00115 6.16326 0
M  V30 4573 N 438.996 -1.55193 0.274407 0
M  V30 4574 C 440.244 -1.99187 -0.341902 0
M  V30 4575 C 440.565 -1.16422 -1.56431 0
M  V30 4576 O 439.835 -0.253573 -1.94252 0
M  V30 4577 H 438.415 -0.735721 -0.129317 0
M  V30 4578 H 441.077 -1.91168 0.379578 0
M  V30 4579 H 440.173 -3.05629 -0.632253 0
M  V30 4580 N 440.474 -0.00167713 -1.576 0
M  V30 4581 C 441.384 1.00548 -2.1196 0
M  V30 4582 C 442.4 1.3758 -1.06526 0
M  V30 4583 O 443.576 1.46278 -1.38436 0
M  V30 4584 C 440.641 2.27809 -2.6135 0
M  V30 4585 C 439.702 1.97074 -3.81393 0
M  V30 4586 C 438.935 3.18267 -4.28417 0
M  V30 4587 O 439.158 4.30009 -3.74765 0
M  V30 4588 O 438.092 3.02167 -5.20556 0
M  V30 4589 H 441.918 0.573373 -2.98238 0
M  V30 4590 H 439.503 0.217255 -1.47812 0
M  V30 4591 H 441.385 3.02568 -2.93309 0
M  V30 4592 H 440.06 2.70254 -1.78169 0
M  V30 4593 H 438.967 1.19785 -3.54404 0
M  V30 4594 H 440.3 1.59464 -4.65652 0
M  V30 4595 N 441.952 1.55251 0.271103 0
M  V30 4596 C 443.18 1.79974 1.02064 0
M  V30 4597 C 443.595 0.574003 1.79863 0
M  V30 4598 O 442.952 -0.456962 1.76686 0
M  V30 4599 C 443.003 3.02603 1.97772 0
M  V30 4600 O 442.724 4.20443 1.23124 0
M  V30 4601 C 444.225 3.39944 2.84522 0
M  V30 4602 H 441.445 0.599489 0.301419 0
M  V30 4603 H 443.989 2.02268 0.301313 0
M  V30 4604 H 442.144 2.8243 2.65165 0
M  V30 4605 H 442.558 4.89783 1.87651 0
M  V30 4606 H 444.032 4.28915 3.47471 0
M  V30 4607 H 444.509 2.59432 3.54389 0
M  V30 4608 H 445.115 3.62383 2.22618 0
M  V30 4609 N 443.43 -0.535701 1.48216 0
M  V30 4610 C 444.363 -1.65726 1.56876 0
M  V30 4611 C 445.341 -1.57094 0.419542 0
M  V30 4612 O 446.525 -1.77648 0.630352 0
M  V30 4613 C 443.652 -3.04096 1.49142 0
M  V30 4614 C 442.698 -3.31105 2.68834 0
M  V30 4615 S 443.531 -3.18001 4.30854 0
M  V30 4616 C 444.687 -4.58828 4.25709 0
M  V30 4617 H 444.92 -1.58129 2.51759 0
M  V30 4618 H 442.453 -0.718218 1.36678 0
M  V30 4619 H 444.411 -3.839 1.45366 0
M  V30 4620 H 443.072 -3.09139 0.556067 0
M  V30 4621 H 442.265 -4.32033 2.59545 0
M  V30 4622 H 441.867 -2.58961 2.69843 0
M  V30 4623 H 444.159 -5.5023 3.95289 0
M  V30 4624 H 445.102 -4.73172 5.26796 0
M  V30 4625 H 445.51 -4.37883 3.56257 0
M  V30 4626 N 444.908 -1.36708 -0.784132 0
M  V30 4627 C 446.157 -1.30559 -1.53744 0
M  V30 4628 C 446.47 0.111374 -1.95283 0
M  V30 4629 O 447.676 0.29527 -2.6989 0
M  V30 4630 C 446.132 -2.29098 -2.77565 0
M  V30 4631 C 445.74 -3.76258 -2.43174 0
M  V30 4632 C 447.484 -2.31936 -3.55536 0
M  V30 4633 C 445.391 -4.6656 -3.63422 0
M  V30 4634 H 444.321 -0.48518 -0.577162 0
M  V30 4635 H 446.972 -1.62101 -0.859981 0
M  V30 4636 H 445.354 -1.90557 -3.47137 0
M  V30 4637 H 446.528 -4.23565 -1.81465 0
M  V30 4638 H 444.843 -3.76246 -1.78403 0
M  V30 4639 H 447.44 -2.9661 -4.44889 0
M  V30 4640 H 447.783 -1.3294 -3.94503 0
M  V30 4641 H 448.316 -2.6912 -2.92949 0
M  V30 4642 H 445.055 -5.66638 -3.29547 0
M  V30 4643 H 444.575 -4.23966 -4.24279 0
M  V30 4644 H 446.254 -4.8309 -4.30387 0
M  V30 4645 N 446.386 1.0089 -1.21074 0
M  V30 4646 C 447.633 1.74607 -1.0256 0
M  V30 4647 C 447.961 1.89426 0.44136 0
M  V30 4648 O 447.216 1.42266 1.34384 0
M  V30 4649 C 447.515 3.16335 -1.66334 0
M  V30 4650 C 447.181 3.21474 -3.16173 0
M  V30 4651 C 445.843 3.22583 -3.57062 0
M  V30 4652 C 448.195 3.19025 -4.12156 0
M  V30 4653 C 445.523 3.18925 -4.92446 0
M  V30 4654 C 447.875 3.16909 -5.47496 0
M  V30 4655 C 446.539 3.16326 -5.87787 0
M  V30 4656 H 445.809 0.638933 -0.375294 0
M  V30 4657 H 448.456 1.18274 -1.50611 0
M  V30 4658 H 446.761 3.75876 -1.10566 0
M  V30 4659 H 448.458 3.72083 -1.49516 0
M  V30 4660 H 445.048 3.2135 -2.83605 0
M  V30 4661 H 449.232 3.17332 -3.81595 0
M  V30 4662 H 444.488 3.16809 -5.22917 0
M  V30 4663 H 448.662 3.13968 -6.21609 0
M  V30 4664 H 446.289 3.13246 -6.92662 0
M  V30 4665 N 447.864 1.01787 1.20321 0
M  V30 4666 C 448.811 0.589197 2.23153 0
M  V30 4667 C 449.781 -0.391367 1.61423 0
M  V30 4668 O 450.966 -0.290518 1.88575 0
M  V30 4669 C 448.106 -0.0650747 3.45039 0
M  V30 4670 C 447.219 0.960207 4.21194 0
M  V30 4671 C 446.354 0.276854 5.30478 0
M  V30 4672 C 445.393 1.2888 5.98378 0
M  V30 4673 N 444.53 0.632031 6.99249 0
M  V30 4674 H 449.37 1.47071 2.59179 0
M  V30 4675 H 446.907 0.736192 1.27352 0
M  V30 4676 H 448.865 -0.461552 4.14639 0
M  V30 4677 H 447.495 -0.910233 3.09701 0
M  V30 4678 H 446.547 1.47484 3.50646 0
M  V30 4679 H 447.859 1.72977 4.67847 0
M  V30 4680 H 447.013 -0.175056 6.06447 0
M  V30 4681 H 445.752 -0.525004 4.84866 0
M  V30 4682 H 444.757 1.75109 5.21169 0
M  V30 4683 H 445.982 2.09196 6.46076 0
M  V30 4684 H 443.928 -0.149935 6.55829 0
M  V30 4685 H 443.845 1.33964 7.44036 0
M  V30 4686 H 445.113 0.203755 7.79234 0
M  V30 4687 N 449.342 -1.36122 0.79427 0
M  V30 4688 C 450.619 -1.93398 0.292685 0
M  V30 4689 C 450.999 -1.72567 -1.21589 0
M  V30 4690 O 450.347 -1.08745 -2.00965 0
M  V30 4691 C 450.557 -3.42099 0.690614 0
M  V30 4692 C 451.905 -4.19231 0.673105 0
M  V30 4693 O 452.929 -3.50559 0.631389 0
M  V30 4694 O 451.788 -5.41732 0.720362 0
M  V30 4695 H 448.882 -0.823712 0.0736693 0
M  V30 4696 H 451.428 -1.45273 0.87714 0
M  V30 4697 H 450.2 -3.50938 1.73085 0
M  V30 4698 H 449.823 -3.97519 0.0803036 0
M  V30 4699 N 450.82 -0.546701 -1.47814 0
M  V30 4700 C 452.236 -0.205717 -1.58269 0
M  V30 4701 C 452.436 1.29153 -1.54667 0
M  V30 4702 O 451.492 2.07098 -1.44453 0
M  V30 4703 C 452.805 -0.823065 -2.89216 0
M  V30 4704 C 454.353 -0.793328 -3.02779 0
M  V30 4705 C 454.828 -1.38955 -4.36412 0
M  V30 4706 N 456.319 -1.35227 -4.43021 0
M  V30 4707 C 457.054 -1.78333 -5.44963 0
M  V30 4708 N 456.55 -2.29246 -6.53772 0
M  V30 4709 N 458.343 -1.69467 -5.35945 0
M  V30 4710 H 450.494 -1.5196 -1.48398 0
M  V30 4711 H 452.757 -0.633078 -0.705632 0
M  V30 4712 H 452.463 -1.8749 -2.97558 0
M  V30 4713 H 452.337 -0.309915 -3.75925 0
M  V30 4714 H 454.724 0.249784 -2.94041 0
M  V30 4715 H 454.805 -1.34412 -2.17639 0
M  V30 4716 H 454.449 -2.43168 -4.45906 0
M  V30 4717 H 454.379 -0.814291 -5.20266 0
M  V30 4718 H 456.87 -0.979739 -3.64979 0
M  V30 4719 H 457.183 -2.60089 -7.27718 0
M  V30 4720 H 455.528 -2.3325 -6.5469 0
M  V30 4721 H 458.719 -1.29477 -4.49837 0
M  V30 4722 H 458.892 -2.03381 -6.15256 0
M  V30 4723 N 452.299 1.55045 -0.282633 0
M  V30 4724 C 453.546 1.9976 0.33199 0
M  V30 4725 C 453.874 1.17105 1.55295 0
M  V30 4726 O 453.129 0.230599 1.94337 0
M  V30 4727 C 453.428 3.49422 0.750938 0
M  V30 4728 C 453.094 4.4941 -0.366228 0
M  V30 4729 C 451.756 4.76471 -0.672964 0
M  V30 4730 C 454.108 5.09054 -1.11864 0
M  V30 4731 C 451.436 5.60442 -1.73556 0
M  V30 4732 C 453.788 5.9418 -2.17102 0
M  V30 4733 C 452.452 6.19558 -2.48402 0
M  V30 4734 H 451.722 0.730974 0.121484 0
M  V30 4735 H 454.369 1.8732 -0.39791 0
M  V30 4736 H 452.674 3.59377 1.56063 0
M  V30 4737 H 454.371 3.81432 1.23736 0
M  V30 4738 H 450.961 4.2844 -0.117041 0
M  V30 4739 H 455.145 4.88165 -0.894925 0
M  V30 4740 H 450.401 5.78349 -1.983 0
M  V30 4741 H 454.575 6.39427 -2.75873 0
M  V30 4742 H 452.202 6.84417 -3.30874 0
M  V30 4743 N 453.777 0.010035 1.57597 0
M  V30 4744 C 455.024 -0.6727 1.91 0
M  V30 4745 C 455.352 -1.73219 0.884614 0
M  V30 4746 O 454.607 -1.95395 -0.109215 0
M  V30 4747 C 454.906 -1.34434 3.31153 0
M  V30 4748 C 454.572 -0.417083 4.48967 0
M  V30 4749 C 453.234 -0.161809 4.80928 0
M  V30 4750 C 455.586 0.220753 5.20732 0
M  V30 4751 C 452.914 0.739426 5.82022 0
M  V30 4752 C 455.266 1.10993 6.22787 0
M  V30 4753 C 453.93 1.37428 6.532 0
M  V30 4754 H 453.2 -0.246158 0.698918 0
M  V30 4755 H 455.847 0.0677145 1.9138 0
M  V30 4756 H 454.152 -2.15905 3.26944 0
M  V30 4757 H 455.849 -1.87883 3.54261 0
M  V30 4758 H 452.439 -0.626217 4.24001 0
M  V30 4759 H 456.623 0.0365643 4.96287 0
M  V30 4760 H 451.879 0.952139 6.03941 0
M  V30 4761 H 456.053 1.61046 6.77523 0
M  V30 4762 H 453.68 2.0743 7.31353 0
M  V30 4763 N 455.255 -1.55392 -0.262866 0
M  V30 4764 C 456.501 -1.77657 -0.990424 0
M  V30 4765 C 456.856 -0.576333 -1.83565 0
M  V30 4766 O 456.149 0.430795 -1.86694 0
M  V30 4767 C 456.343 -3.02889 -1.89718 0
M  V30 4768 C 456.172 -4.34979 -1.14121 0
M  V30 4769 C 454.942 -4.98052 -0.852768 0
M  V30 4770 C 457.14 -5.11597 -0.526625 0
M  V30 4771 N 455.122 -6.13859 -0.0710649 0
M  V30 4772 C 456.493 -6.19883 0.12042 0
M  V30 4773 C 458.548 -4.95992 -0.435485 0
M  V30 4774 C 457.251 -7.14262 0.849833 0
M  V30 4775 C 459.277 -5.90735 0.280359 0
M  V30 4776 C 458.639 -6.98417 0.916103 0
M  V30 4777 H 454.738 -0.702242 -0.344064 0
M  V30 4778 H 457.322 -1.92887 -0.265088 0
M  V30 4779 H 455.493 -2.89017 -2.59468 0
M  V30 4780 H 457.225 -3.13516 -2.5591 0
M  V30 4781 H 453.98 -4.5916 -1.16058 0
M  V30 4782 H 454.404 -6.76302 0.307413 0
M  V30 4783 H 459.046 -4.12832 -0.912671 0
M  V30 4784 H 456.764 -7.96935 1.33867 0
M  V30 4785 H 460.35 -5.80738 0.351332 0
M  V30 4786 H 459.23 -7.70467 1.46119 0
M  V30 4787 N 456.733 0.527833 -1.48498 0
M  V30 4788 C 458.149 0.856571 -1.34666 0
M  V30 4789 C 458.349 1.98271 -0.35931 0
M  V30 4790 O 457.405 2.51551 0.218703 0
M  V30 4791 C 458.718 1.22207 -2.74747 0
M  V30 4792 C 460.266 1.33183 -2.83251 0
M  V30 4793 C 460.741 1.73075 -4.24039 0
M  V30 4794 N 462.232 1.80174 -4.26722 0
M  V30 4795 C 462.967 2.1243 -5.32598 0
M  V30 4796 N 462.463 2.43096 -6.4875 0
M  V30 4797 N 464.256 2.13454 -5.19994 0
M  V30 4798 H 456.407 -0.215174 -2.11307 0
M  V30 4799 H 458.67 -0.0336281 -0.947403 0
M  V30 4800 H 458.376 0.468195 -3.4857 0
M  V30 4801 H 458.25 2.17173 -3.08409 0
M  V30 4802 H 460.637 2.07647 -2.09683 0
M  V30 4803 H 460.718 0.363333 -2.53206 0
M  V30 4804 H 460.362 0.991712 -4.98124 0
M  V30 4805 H 460.292 2.70979 -4.51529 0
M  V30 4806 H 462.783 1.58744 -3.42942 0
M  V30 4807 H 463.096 2.6682 -7.25277 0
M  V30 4808 H 461.441 2.40611 -6.52021 0
M  V30 4809 H 464.632 1.88956 -4.28268 0
M  V30 4810 H 464.805 2.38261 -6.02608 0
M  V30 4811 N 458.211 1.37122 0.776871 0
M  V30 4812 C 459.141 1.35164 1.90402 0
M  V30 4813 C 460.122 0.221069 1.68657 0
M  V30 4814 O 461.307 0.420642 1.8959 0
M  V30 4815 C 458.437 1.15274 3.27611 0
M  V30 4816 C 457.391 2.25289 3.63908 0
M  V30 4817 C 456.717 1.90527 4.99603 0
M  V30 4818 C 458.017 3.67446 3.71188 0
M  V30 4819 H 459.711 2.29482 1.92297 0
M  V30 4820 H 457.257 1.10465 0.923773 0
M  V30 4821 H 459.21 1.12536 4.06096 0
M  V30 4822 H 457.934 0.174102 3.26136 0
M  V30 4823 H 456.593 2.27174 2.87728 0
M  V30 4824 H 456.241 0.91206 4.94662 0
M  V30 4825 H 455.941 2.64193 5.24858 0
M  V30 4826 H 457.465 1.89367 5.80493 0
M  V30 4827 H 458.879 3.67719 4.39836 0
M  V30 4828 H 457.276 4.40123 4.07936 0
M  V30 4829 H 458.346 4.01443 2.71977 0
M  V30 4830 N 459.689 -1.00246 1.21608 0
M  V30 4831 C 460.639 -2.07492 0.945051 0
M  V30 4832 C 461.623 -1.60585 -0.100675 0
M  V30 4833 O 462.815 -1.76667 0.10859 0
M  V30 4834 C 459.944 -3.39425 0.514342 0
M  V30 4835 C 459.03 -3.92993 1.59428 0
M  V30 4836 N 459.421 -4.19898 2.81991 0
M  V30 4837 C 457.719 -4.21297 1.46374 0
M  V30 4838 C 458.42 -4.63297 3.51754 0
M  V30 4839 N 457.396 -4.66421 2.79199 0
M  V30 4840 H 461.198 -2.26222 1.87619 0
M  V30 4841 H 458.712 -1.18339 1.11219 0
M  V30 4842 H 460.709 -4.15808 0.301527 0
M  V30 4843 H 459.369 -3.22101 -0.410008 0
M  V30 4844 H 460.38 -4.08377 3.1851 0
M  V30 4845 H 457.057 -4.13095 0.604863 0
M  V30 4846 H 458.447 -4.92816 4.56708 0
M  V30 4847 N 461.167 -1.02423 -1.1978 0
M  V30 4848 C 462.578 -0.748389 -1.71044 0
M  V30 4849 C 462.929 0.732398 -1.82017 0
M  V30 4850 O 462.054 1.57116 -1.48807 0
M  V30 4851 C 462.649 -1.35187 -3.1066 0
M  V30 4852 C 461.208 -1.12472 -3.59203 0
M  V30 4853 C 460.355 -1.45283 -2.36195 0
M  V30 4854 H 463.306 -1.19275 -1.04686 0
M  V30 4855 H 463.327 -0.746408 -3.73107 0
M  V30 4856 H 462.839 -2.4296 -3.02642 0
M  V30 4857 H 460.94 -0.0649983 -3.72543 0
M  V30 4858 H 461.053 -1.81016 -4.43588 0
M  V30 4859 H 459.417 -0.872034 -2.39307 0
M  V30 4860 H 460.2 -2.54129 -2.30811 0
M  V30 4861 N 462.645 1.35699 -0.801477 0
M  V30 4862 C 463.577 2.28598 -0.166028 0
M  V30 4863 C 464.59 1.50044 0.631721 0
M  V30 4864 O 465.779 1.72339 0.464921 0
M  V30 4865 C 462.879 3.29625 0.787451 0
M  V30 4866 C 462.052 4.37384 0.037171 0
M  V30 4867 C 461.111 5.183 0.908375 0
M  V30 4868 O 460.137 5.68053 0.361189 0
M  V30 4869 N 461.339 5.35912 2.23112 0
M  V30 4870 H 464.104 2.83771 -0.964071 0
M  V30 4871 H 461.665 1.47994 -0.656469 0
M  V30 4872 H 463.657 3.80648 1.37439 0
M  V30 4873 H 462.227 2.75004 1.48632 0
M  V30 4874 H 461.447 3.87364 -0.730935 0
M  V30 4875 H 462.735 5.0653 -0.480109 0
M  V30 4876 H 462.133 4.97125 2.69968 0
M  V30 4877 H 460.69 5.90133 2.76741 0
M  V30 4878 N 464.123 0.554532 1.47522 0
M  V30 4879 C 465.055 -0.232106 2.28022 0
M  V30 4880 C 466.068 -0.881865 1.36847 0
M  V30 4881 O 467.257 -0.756168 1.61692 0
M  V30 4882 C 464.357 -1.34604 3.11022 0
M  V30 4883 C 463.53 -0.793582 4.30141 0
M  V30 4884 C 462.589 -1.79168 4.94758 0
M  V30 4885 O 461.615 -1.33886 5.5323 0
M  V30 4886 N 462.817 -3.12495 4.89211 0
M  V30 4887 H 465.582 0.458407 2.96173 0
M  V30 4888 H 463.143 0.390433 1.57122 0
M  V30 4889 H 465.135 -2.01243 3.51118 0
M  V30 4890 H 463.705 -1.93983 2.45131 0
M  V30 4891 H 462.925 0.0495025 3.94169 0
M  V30 4892 H 464.213 -0.403776 5.07195 0
M  V30 4893 H 463.611 -3.51931 4.42901 0
M  V30 4894 H 462.168 -3.74698 5.33333 0
M  V30 4895 N 465.601 -1.54893 0.290851 0
M  V30 4896 C 466.847 -2.0023 -0.321867 0
M  V30 4897 C 467.18 -1.179 -1.54316 0
M  V30 4898 O 466.455 -0.25293 -1.92848 0
M  V30 4899 C 466.738 -3.53456 -0.688515 0
M  V30 4900 C 466.591 -4.46532 0.541209 0
M  V30 4901 C 467.91 -4.13057 -1.51895 0
M  V30 4902 H 465.029 -0.727891 -0.115515 0
M  V30 4903 H 467.671 -1.85722 0.400931 0
M  V30 4904 H 465.821 -3.6595 -1.30433 0
M  V30 4905 H 467.493 -4.4596 1.17973 0
M  V30 4906 H 465.736 -4.17545 1.17636 0
M  V30 4907 H 466.407 -5.51475 0.240675 0
M  V30 4908 H 468.883 -4.03937 -0.99872 0
M  V30 4909 H 467.759 -5.20448 -1.74429 0
M  V30 4910 H 468.02 -3.64284 -2.50498 0
M  V30 4911 N 467.08 -0.0183926 -1.57589 0
M  V30 4912 C 468.357 0.700621 -1.82622 0
M  V30 4913 C 468.737 1.90951 -0.90005 0
M  V30 4914 O 468.085 2.28452 0.0469145 0
M  V30 4915 C 468.295 1.08899 -3.31575 0
M  V30 4916 C 469.643 1.48514 -3.9778 0
M  V30 4917 O 470.667 1.18227 -3.36007 0
M  V30 4918 O 469.526 2.04903 -5.06633 0
M  V30 4919 H 466.62 0.342743 -0.752633 0
M  V30 4920 H 469.166 -0.0452548 -1.6964 0
M  V30 4921 H 467.938 0.228113 -3.90635 0
M  V30 4922 H 467.561 1.89338 -3.49624 0
M  V30 4923 N 468.558 1.5553 0.254621 0
M  V30 4924 C 469.521 1.88872 1.29846 0
M  V30 4925 C 470.521 0.764591 1.41459 0
M  V30 4926 O 471.711 1.03265 1.40293 0
M  V30 4927 C 468.843 2.11032 2.67728 0
M  V30 4928 H 470.036 2.82201 1.01502 0
M  V30 4929 H 467.589 1.48303 0.493556 0
M  V30 4930 H 468.324 1.20146 3.01223 0
M  V30 4931 H 468.109 2.92895 2.60682 0
M  V30 4932 H 469.599 2.38038 3.43115 0
M  V30 4933 N 470.036 -0.519951 1.48776 0
M  V30 4934 C 470.946 -1.65025 1.66745 0
M  V30 4935 C 471.962 -1.6508 0.549954 0
M  V30 4936 O 473.138 -1.83848 0.822295 0
M  V30 4937 C 470.203 -3.0146 1.71238 0
M  V30 4938 C 469.264 -3.12182 2.94688 0
M  V30 4939 C 468.497 -4.42109 2.98958 0
M  V30 4940 O 468.72 -5.29799 2.1135 0
M  V30 4941 O 467.654 -4.57406 3.91233 0
M  V30 4942 H 471.48 -1.52801 2.62461 0
M  V30 4943 H 469.065 -0.694157 1.32294 0
M  V30 4944 H 470.947 -3.82584 1.76657 0
M  V30 4945 H 469.622 -3.13988 0.786975 0
M  V30 4946 H 468.529 -2.30316 2.94797 0
M  V30 4947 H 469.862 -3.04574 3.86646 0
M  V30 4948 N 471.514 -1.37532 -0.769588 0
M  V30 4949 C 472.444 -1.36172 -1.89682 0
M  V30 4950 C 473.425 -0.23001 -1.68538 0
M  V30 4951 O 474.61 -0.43069 -1.89364 0
M  V30 4952 C 471.74 -1.1701 -3.26995 0
M  V30 4953 C 470.694 -2.27216 -3.62708 0
M  V30 4954 C 470.02 -1.93174 -4.98586 0
M  V30 4955 C 471.32 -3.6941 -3.69234 0
M  V30 4956 H 473.014 -2.30499 -1.91078 0
M  V30 4957 H 470.56 -1.10953 -0.917902 0
M  V30 4958 H 472.513 -1.14688 -4.05493 0
M  V30 4959 H 471.237 -0.191395 -3.26039 0
M  V30 4960 H 469.896 -2.28697 -2.86519 0
M  V30 4961 H 469.544 -0.938281 -4.94171 0
M  V30 4962 H 469.244 -2.66973 -5.23449 0
M  V30 4963 H 470.768 -1.92443 -5.79481 0
M  V30 4964 H 472.182 -3.70047 -4.37879 0
M  V30 4965 H 470.579 -4.4228 -4.05597 0
M  V30 4966 H 471.649 -4.0288 -2.69844 0
M  V30 4967 N 472.992 0.995999 -1.22138 0
M  V30 4968 C 474.239 1.7351 -1.04406 0
M  V30 4969 C 474.567 1.89884 0.421244 0
M  V30 4970 O 473.822 1.43683 1.32867 0
M  V30 4971 C 474.121 3.14553 -1.6968 0
M  V30 4972 C 473.787 3.18102 -3.19565 0
M  V30 4973 C 472.449 3.18778 -3.60464 0
M  V30 4974 C 474.801 3.14636 -4.15516 0
M  V30 4975 C 472.129 3.13684 -4.95801 0
M  V30 4976 C 474.481 3.11084 -5.50826 0
M  V30 4977 C 473.145 3.10074 -5.91109 0
M  V30 4978 H 472.415 0.634916 -0.38205 0
M  V30 4979 H 475.062 1.1667 -1.51857 0
M  V30 4980 H 473.367 3.74682 -1.14546 0
M  V30 4981 H 475.064 3.70477 -1.53454 0
M  V30 4982 H 471.654 3.18324 -2.86998 0
M  V30 4983 H 475.838 3.13266 -3.84939 0
M  V30 4984 H 471.094 3.11245 -5.26247 0
M  V30 4985 H 475.268 3.07357 -6.24904 0
M  V30 4986 H 472.895 3.05882 -6.95946 0
M  V30 4987 N 474.47 1.03057 1.19235 0
M  V30 4988 C 475.4 0.633497 2.24742 0
M  V30 4989 C 476.381 -0.358335 1.66283 0
M  V30 4990 O 477.566 -0.240676 1.92703 0
M  V30 4991 C 474.696 -0.0147648 3.47297 0
M  V30 4992 C 473.65 0.899527 4.18441 0
M  V30 4993 C 472.976 0.116281 5.34574 0
M  V30 4994 C 474.276 2.21404 4.73051 0
M  V30 4995 H 475.97 1.5155 2.58211 0
M  V30 4996 H 473.516 0.73014 1.24117 0
M  V30 4997 H 475.469 -0.304202 4.20301 0
M  V30 4998 H 474.193 -0.931577 3.13032 0
M  V30 4999 H 472.852 1.17319 3.47321 0
M  V30 5000 H 472.5 -0.802619 4.96555 0
M  V30 5001 H 472.2 0.725293 5.83107 0
M  V30 5002 H 473.724 -0.166376 6.10373 0
M  V30 5003 H 475.138 1.98601 5.37802 0
M  V30 5004 H 473.535 2.77512 5.32078 0
M  V30 5005 H 474.605 2.86752 3.91026 0
M  V30 5006 N 475.948 -1.35272 0.808662 0
M  V30 5007 C 477.176 -2.02946 0.402537 0
M  V30 5008 C 477.591 -1.60937 -0.987147 0
M  V30 5009 O 476.948 -0.807917 -1.63643 0
M  V30 5010 C 476.999 -3.58317 0.47868 0
M  V30 5011 O 476.72 -3.98799 1.81358 0
M  V30 5012 C 478.221 -4.43251 0.0656281 0
M  V30 5013 H 475.441 -0.650831 0.163279 0
M  V30 5014 H 477.985 -1.72849 1.09286 0
M  V30 5015 H 476.14 -3.87055 -0.163415 0
M  V30 5016 H 476.554 -4.93451 1.77781 0
M  V30 5017 H 478.028 -5.51738 0.170017 0
M  V30 5018 H 478.505 -4.27913 -0.989278 0
M  V30 5019 H 479.111 -4.19813 0.68096 0
M  V30 5020 N 477.426 -0.562348 -1.47226 0
M  V30 5021 C 478.373 0.182461 -2.30078 0
M  V30 5022 C 479.343 0.903503 -1.39377 0
M  V30 5023 O 480.528 0.898188 -1.68337 0
M  V30 5024 C 477.668 1.20322 -3.23445 0
M  V30 5025 C 476.781 0.487717 -4.29238 0
M  V30 5026 C 475.916 1.49422 -5.09752 0
M  V30 5027 C 474.955 0.763976 -6.07314 0
M  V30 5028 N 474.092 1.71755 -6.80768 0
M  V30 5029 H 478.932 -0.530169 -2.93246 0
M  V30 5030 H 476.469 -0.273276 -1.44539 0
M  V30 5031 H 478.427 1.80768 -3.76004 0
M  V30 5032 H 477.057 1.88382 -2.6213 0
M  V30 5033 H 476.109 -0.231374 -3.79696 0
M  V30 5034 H 477.421 -0.0841003 -4.98729 0
M  V30 5035 H 476.575 2.17206 -5.66486 0
M  V30 5036 H 475.314 2.09995 -4.40174 0
M  V30 5037 H 474.319 0.0722344 -5.49753 0
M  V30 5038 H 475.544 0.16391 -6.78902 0
M  V30 5039 H 473.49 2.31177 -6.13916 0
M  V30 5040 H 473.407 1.19802 -7.46447 0
M  V30 5041 H 474.675 2.38638 -7.42073 0
M  V30 5042 N 478.904 1.54736 -0.299062 0
M  V30 5043 C 480.129 2.04975 0.316254 0
M  V30 5044 C 480.554 1.17501 1.46885 0
M  V30 5045 O 479.912 0.178678 1.80417 0
M  V30 5046 C 479.96 3.52672 0.751997 0
M  V30 5047 O 479.064 3.68226 1.85697 0
M  V30 5048 H 478.405 0.661126 0.0617175 0
M  V30 5049 H 480.935 1.99805 -0.440341 0
M  V30 5050 H 480.945 3.94488 1.04133 0
M  V30 5051 H 479.62 4.158 -0.0911482 0
M  V30 5052 H 478.197 3.38316 1.56834 0
M  V30 5053 N 480.382 0.0267497 1.57577 0
M  V30 5054 C 481.629 -0.652404 1.91703 0
M  V30 5055 C 481.957 -1.72271 0.902936 0
M  V30 5056 O 481.212 -1.955 -0.0884843 0
M  V30 5057 C 481.511 -1.30914 3.3256 0
M  V30 5058 C 481.177 -0.369441 4.49384 0
M  V30 5059 C 479.839 -0.110791 4.81072 0
M  V30 5060 C 482.191 0.275971 5.20469 0
M  V30 5061 C 479.519 0.801116 5.81205 0
M  V30 5062 C 481.871 1.17592 6.21575 0
M  V30 5063 C 480.535 1.44348 6.51705 0
M  V30 5064 H 479.805 -0.238732 0.70149 0
M  V30 5065 H 482.452 0.0880091 1.91298 0
M  V30 5066 H 480.757 -2.12425 3.29216 0
M  V30 5067 H 482.454 -1.84115 3.56234 0
M  V30 5068 H 479.044 -0.581211 4.24641 0
M  V30 5069 H 483.228 0.0892 4.9622 0
M  V30 5070 H 478.484 1.01614 6.02897 0
M  V30 5071 H 482.658 1.68223 6.75777 0
M  V30 5072 H 480.285 2.15176 7.29111 0
M  V30 5073 N 481.861 -1.55662 -0.24637 0
M  V30 5074 C 483.107 -1.78698 -0.971525 0
M  V30 5075 C 483.462 -0.59577 -1.82944 0
M  V30 5076 O 482.755 0.41097 -1.87141 0
M  V30 5077 C 482.949 -3.04885 -1.86494 0
M  V30 5078 C 482.778 -4.36165 -1.09501 0
M  V30 5079 C 481.548 -4.98929 -0.799895 0
M  V30 5080 C 483.746 -5.12126 -0.472334 0
M  V30 5081 N 481.728 -6.139 -0.00595299 0
M  V30 5082 C 483.099 -6.1972 0.18616 0
M  V30 5083 C 485.154 -4.96426 -0.382854 0
M  V30 5084 C 483.857 -7.13321 0.925542 0
M  V30 5085 C 485.883 -5.90405 0.342999 0
M  V30 5086 C 485.245 -6.97407 0.990128 0
M  V30 5087 H 481.344 -0.705852 -0.336597 0
M  V30 5088 H 483.928 -1.93157 -0.244615 0
M  V30 5089 H 482.099 -2.91753 -2.56388 0
M  V30 5090 H 483.831 -3.16212 -2.5257 0
M  V30 5091 H 480.586 -4.60365 -1.11181 0
M  V30 5092 H 481.01 -6.75938 0.379127 0
M  V30 5093 H 485.652 -4.13777 -0.868834 0
M  V30 5094 H 483.37 -7.9547 1.42312 0
M  V30 5095 H 486.956 -5.80333 0.412907 0
M  V30 5096 H 485.836 -7.68874 1.54282 0
M  V30 5097 N 483.339 0.512053 -1.4905 0
M  V30 5098 C 484.75 1.09376 -1.51307 0
M  V30 5099 C 485.101 1.94 -0.292971 0
M  V30 5100 O 484.226 2.07965 0.598277 0
M  V30 5101 C 484.821 1.99031 -2.74176 0
M  V30 5102 C 483.38 2.52385 -2.79247 0
M  V30 5103 C 482.527 1.29749 -2.45073 0
M  V30 5104 H 485.478 0.296467 -1.55906 0
M  V30 5105 H 485.499 2.83569 -2.53711 0
M  V30 5106 H 485.011 1.37412 -3.62959 0
M  V30 5107 H 483.112 3.17673 -1.94716 0
M  V30 5108 H 483.225 2.90293 -3.81139 0
M  V30 5109 H 481.589 1.61912 -1.96612 0
M  V30 5110 H 482.372 0.698555 -3.36118 0
M  V30 5111 N 484.817 1.37938 0.762283 0
M  V30 5112 C 485.727 1.36681 1.90671 0
M  V30 5113 C 486.743 0.265078 1.71969 0
M  V30 5114 O 487.919 0.502055 1.95042 0
M  V30 5115 C 484.984 1.18211 3.25925 0
M  V30 5116 C 484.045 2.3811 3.57214 0
M  V30 5117 C 483.278 2.20512 4.86014 0
M  V30 5118 O 483.501 1.19429 5.57757 0
M  V30 5119 O 482.435 3.08911 5.16583 0
M  V30 5120 H 486.261 2.33091 1.94685 0
M  V30 5121 H 483.846 1.18767 0.906356 0
M  V30 5122 H 485.728 1.09937 4.06807 0
M  V30 5123 H 484.403 0.248807 3.22742 0
M  V30 5124 H 483.31 2.51958 2.76529 0
M  V30 5125 H 484.643 3.30041 3.65149 0
M  V30 5126 N 486.295 -0.989507 1.22664 0
M  V30 5127 C 487.225 -2.09847 1.02404 0
M  V30 5128 C 488.206 -1.70007 -0.0561303 0
M  V30 5129 O 489.391 -1.93906 0.106748 0
M  V30 5130 C 486.521 -3.41996 0.604663 0
M  V30 5131 C 485.475 -3.95699 1.63115 0
M  V30 5132 C 484.801 -5.23936 1.0675 0
M  V30 5133 C 486.101 -4.25999 3.02196 0
M  V30 5134 H 487.795 -2.27054 1.95158 0
M  V30 5135 H 485.341 -1.09111 0.939727 0
M  V30 5136 H 487.294 -4.1899 0.45002 0
M  V30 5137 H 486.018 -3.24626 -0.35855 0
M  V30 5138 H 484.677 -3.2084 1.77362 0
M  V30 5139 H 484.325 -5.02909 0.0955422 0
M  V30 5140 H 484.025 -5.60833 1.75328 0
M  V30 5141 H 485.549 -6.0356 0.924516 0
M  V30 5142 H 486.963 -4.93777 2.91303 0
M  V30 5143 H 485.36 -4.74076 3.67929 0
M  V30 5144 H 486.43 -3.33636 3.51873 0
M  V30 5145 N 487.773 -1.03688 -1.18687 0
M  V30 5146 C 489.184 -0.766488 -1.70241 0
M  V30 5147 C 489.535 0.713052 -1.82784 0
M  V30 5148 O 488.66 1.55529 -1.50465 0
M  V30 5149 C 489.255 -1.38475 -3.09209 0
M  V30 5150 C 487.814 -1.16276 -3.5799 0
M  V30 5151 C 486.961 -1.4778 -2.34641 0
M  V30 5152 H 489.912 -1.20378 -1.03415 0
M  V30 5153 H 489.933 -0.785939 -3.72295 0
M  V30 5154 H 489.445 -2.46157 -3.00048 0
M  V30 5155 H 487.546 -0.104508 -3.72453 0
M  V30 5156 H 487.659 -1.8571 -4.41643 0
M  V30 5157 H 486.023 -0.897366 -2.38368 0
M  V30 5158 H 486.806 -2.56562 -2.28102 0
M  V30 5159 N 489.251 1.34841 -0.815825 0
M  V30 5160 C 490.199 2.31549 -0.220888 0
M  V30 5161 C 491.193 1.5707 0.634457 0
M  V30 5162 O 492.399 1.72125 0.526589 0
M  V30 5163 H 488.774 0.750153 -0.0526782 0
M  V30 5164 H 490.745 2.7926 -1.05149 0
M  V30 5165 C 489.494 3.42335 0.608427 0
M  V30 5166 H 488.817 3.9978 -0.0404121 0
M  V30 5167 H 490.257 4.12258 0.990931 0
M  V30 5168 C 488.716 2.86173 1.77782 0
M  V30 5169 O 489.246 2.80474 2.87571 0
M  V30 5170 N 487.452 2.43093 1.59229 0
M  V30 5171 H 486.999 2.47928 0.699237 0
M  V30 5172 H 486.957 2.05866 2.37627 0
M  V30 5173 N 490.729 0.570148 1.46925 0
M  V30 5174 C 492.145 0.23087 1.57921 0
M  V30 5175 C 492.345 -1.26676 1.56702 0
M  V30 5176 O 491.401 -2.04774 1.47729 0
M  V30 5177 C 492.714 0.868973 2.8787 0
M  V30 5178 C 494.262 0.841397 3.01479 0
M  V30 5179 C 494.737 1.45881 4.34146 0
M  V30 5180 N 496.228 1.42258 4.40814 0
M  V30 5181 C 496.963 1.8698 5.42057 0
M  V30 5182 N 496.459 2.39618 6.50042 0
M  V30 5183 N 498.252 1.77972 5.33181 0
M  V30 5184 H 490.403 1.54301 1.45962 0
M  V30 5185 H 492.666 0.644224 0.69547 0
M  V30 5186 H 492.372 1.922 2.94537 0
M  V30 5187 H 492.246 0.369682 3.75384 0
M  V30 5188 H 494.633 -0.202973 2.94401 0
M  V30 5189 H 494.714 1.37858 2.15474 0
M  V30 5190 H 494.358 2.50231 4.4198 0
M  V30 5191 H 494.288 0.896958 5.18905 0
M  V30 5192 H 496.779 1.03768 3.63374 0
M  V30 5193 H 497.092 2.71633 7.23488 0
M  V30 5194 H 495.437 2.43636 6.50897 0
M  V30 5195 H 498.628 1.36617 4.4772 0
M  V30 5196 H 498.801 2.13143 6.11943 0
M  V30 5197 N 492.207 -1.54576 0.307264 0
M  V30 5198 C 493.456 -1.99442 -0.300976 0
M  V30 5199 C 493.769 -1.19928 -1.5452 0
M  V30 5200 O 494.975 -1.55092 -2.22842 0
M  V30 5201 C 493.431 -3.55084 -0.586809 0
M  V30 5202 C 493.039 -4.43413 0.639438 0
M  V30 5203 C 494.783 -4.0846 -1.1559 0
M  V30 5204 C 492.69 -5.90499 0.326411 0
M  V30 5205 H 491.62 -0.744986 -0.116238 0
M  V30 5206 H 494.271 -1.787 0.416947 0
M  V30 5207 H 492.653 -3.71749 -1.36449 0
M  V30 5208 H 493.827 -4.38522 1.41545 0
M  V30 5209 H 492.142 -4.00842 1.1276 0
M  V30 5210 H 494.739 -5.15926 -1.40445 0
M  V30 5211 H 495.082 -3.59443 -2.10015 0
M  V30 5212 H 495.615 -3.95362 -0.439778 0
M  V30 5213 H 492.354 -6.43676 1.23939 0
M  V30 5214 H 491.874 -5.98382 -0.412212 0
M  V30 5215 H 493.553 -6.46962 -0.0697393 0
M  V30 5216 N 493.685 -0.035106 -1.57561 0
M  V30 5217 C 494.962 0.681212 -1.83354 0
M  V30 5218 C 495.342 1.89986 -0.920252 0
M  V30 5219 O 494.69 2.28489 0.0226815 0
M  V30 5220 C 494.9 1.05376 -3.32712 0
M  V30 5221 C 496.248 1.44286 -3.99333 0
M  V30 5222 O 497.272 1.14656 -3.37242 0
M  V30 5223 O 496.131 1.99518 -5.08778 0
M  V30 5224 H 493.225 0.334741 -0.756226 0
M  V30 5225 H 495.771 -0.0632448 -1.69582 0
M  V30 5226 H 494.543 0.186668 -3.90854 0
M  V30 5227 H 494.166 1.85619 -3.51613 0
M  V30 5228 N 495.163 1.55791 0.238111 0
M  V30 5229 C 496.126 1.90239 1.27835 0
M  V30 5230 C 497.126 0.779552 1.4064 0
M  V30 5231 O 498.316 1.04747 1.3919 0
M  V30 5232 C 495.448 2.13859 2.65475 0
M  V30 5233 H 496.641 2.83262 0.985034 0
M  V30 5234 H 494.194 1.48818 0.477799 0
M  V30 5235 H 494.929 1.23334 2.99932 0
M  V30 5236 H 494.714 2.95643 2.57561 0
M  V30 5237 H 496.204 2.41664 3.40571 0
M  V30 5238 N 496.642 -0.504142 1.49319 0
M  V30 5239 C 497.605 -1.5883 1.65244 0
M  V30 5240 C 498.605 -1.52009 0.524386 0
M  V30 5241 O 499.795 -1.55218 0.79077 0
M  V30 5242 C 496.927 -2.98481 1.64687 0
M  V30 5243 H 498.12 -1.4604 2.61939 0
M  V30 5244 H 495.673 -0.728144 1.38303 0
M  V30 5245 H 496.408 -3.16751 0.695644 0
M  V30 5246 H 496.193 -3.0484 2.46607 0
M  V30 5247 H 497.683 -3.77256 1.79075 0
M  V30 5248 N 498.12 -1.38341 -0.754957 0
M  V30 5249 C 499.35 -1.37504 -1.54195 0
M  V30 5250 C 499.758 0.0373787 -1.89163 0
M  V30 5251 O 499.101 1.01402 -1.53178 0
M  V30 5252 C 499.163 -2.16488 -2.87008 0
M  V30 5253 C 498.827 -3.65311 -2.74585 0
M  V30 5254 C 499.824 -4.58834 -2.44474 0
M  V30 5255 C 497.509 -4.08649 -2.9208 0
M  V30 5256 C 499.503 -5.93675 -2.32011 0
M  V30 5257 C 497.19 -5.43571 -2.79237 0
M  V30 5258 C 498.188 -6.35898 -2.49245 0
M  V30 5259 O 497.876 -7.68338 -2.36458 0
M  V30 5260 H 497.608 -0.472159 -0.483779 0
M  V30 5261 H 500.162 -1.82515 -0.94221 0
M  V30 5262 H 498.392 -1.66194 -3.49166 0
M  V30 5263 H 500.081 -2.08076 -3.4851 0
M  V30 5264 H 500.847 -4.26657 -2.30627 0
M  V30 5265 H 496.726 -3.37134 -3.14422 0
M  V30 5266 H 500.27 -6.65706 -2.08522 0
M  V30 5267 H 496.167 -5.75345 -2.92657 0
M  V30 5268 H 496.935 -7.78845 -2.5168 0
M  V30 5269 N 499.598 0.982988 -1.23187 0
M  V30 5270 C 500.508 2.10907 -1.02739 0
M  V30 5271 C 501.524 1.73979 0.0273188 0
M  V30 5272 O 502.7 2.00702 -0.16757 0
M  V30 5273 C 499.765 3.41142 -0.618304 0
M  V30 5274 C 498.826 3.92112 -1.74777 0
M  V30 5275 C 498.059 5.16131 -1.3581 0
M  V30 5276 O 498.282 5.6989 -0.241201 0
M  V30 5277 O 497.216 5.61103 -2.17824 0
M  V30 5278 H 501.042 2.31046 -1.97108 0
M  V30 5279 H 498.627 1.09284 -1.01869 0
M  V30 5280 H 500.509 4.19488 -0.400982 0
M  V30 5281 H 499.184 3.2234 0.296421 0
M  V30 5282 H 498.091 3.14895 -2.0197 0
M  V30 5283 H 499.424 4.15364 -2.64071 0
M  V30 5284 N 501.076 1.04316 1.18135 0
M  V30 5285 C 502.026 0.606731 2.19779 0
M  V30 5286 C 503.01 -0.352144 1.56999 0
M  V30 5287 O 504.202 -0.170795 1.76174 0
M  V30 5288 C 501.331 -0.0262443 3.4329 0
M  V30 5289 C 500.417 0.955928 4.13186 0
M  V30 5290 N 500.808 2.12395 4.59045 0
M  V30 5291 C 499.106 0.782473 4.39082 0
M  V30 5292 C 499.807 2.74458 5.12882 0
M  V30 5293 N 498.783 2.02316 5.04548 0
M  V30 5294 H 502.585 1.49679 2.5293 0
M  V30 5295 H 500.099 0.912088 1.34368 0
M  V30 5296 H 502.096 -0.356617 4.15372 0
M  V30 5297 H 500.756 -0.911811 3.11635 0
M  V30 5298 H 501.767 2.50272 4.53414 0
M  V30 5299 H 498.444 -0.0527906 4.17467 0
M  V30 5300 H 499.834 3.73459 5.5855 0
M  V30 5301 N 502.554 -1.34406 0.822964 0
M  V30 5302 C 503.965 -1.8069 0.469879 0
M  V30 5303 C 504.316 -1.68223 -1.00972 0
M  V30 5304 O 503.441 -1.22226 -1.78577 0
M  V30 5305 C 504.036 -3.28064 0.846118 0
M  V30 5306 C 502.595 -3.72428 0.545402 0
M  V30 5307 C 501.742 -2.56116 1.06301 0
M  V30 5308 H 504.693 -1.22153 1.01313 0
M  V30 5309 H 504.714 -3.80205 0.149922 0
M  V30 5310 H 504.226 -3.37107 1.92304 0
M  V30 5311 H 502.327 -3.68924 -0.522109 0
M  V30 5312 H 502.44 -4.66548 1.0895 0
M  V30 5313 H 500.804 -2.50048 0.484554 0
M  V30 5314 H 501.587 -2.67928 2.14638 0
M  V30 5315 N 504.032 -0.577932 -1.46621 0
M  V30 5316 C 505.257 -0.0652536 -2.07297 0
M  V30 5317 C 505.682 1.22828 -1.4246 0
M  V30 5318 O 505.04 1.74075 -0.506718 0
M  V30 5319 C 505.088 0.0920589 -3.60482 0
M  V30 5320 O 504.192 1.14972 -3.96049 0
M  V30 5321 H 503.533 -0.06065 -0.661224 0
M  V30 5322 H 506.063 -0.799515 -1.88332 0
M  V30 5323 H 506.073 0.299741 -4.06897 0
M  V30 5324 H 504.748 -0.852612 -4.07067 0
M  V30 5325 H 503.325 0.920879 -3.61351 0
M  V30 5326 N 505.51 1.54411 -0.315457 0
M  V30 5327 C 506.46 2.20772 0.569549 0
M  V30 5328 C 507.444 1.18551 1.08787 0
M  V30 5329 O 508.636 1.44213 1.02624 0
M  V30 5330 C 505.765 2.96293 1.73394 0
M  V30 5331 C 504.851 4.05844 1.2309 0
M  V30 5332 N 505.242 5.03822 0.446927 0
M  V30 5333 C 503.54 4.19648 1.51035 0
M  V30 5334 C 504.241 5.8143 0.17725 0
M  V30 5335 N 503.217 5.38245 0.761118 0
M  V30 5336 H 507.019 2.93877 -0.0368076 0
M  V30 5337 H 504.533 1.61949 -0.120915 0
M  V30 5338 H 506.53 3.42313 2.37965 0
M  V30 5339 H 505.19 2.24708 2.34386 0
M  V30 5340 H 506.201 5.17821 0.0905027 0
M  V30 5341 H 502.878 3.59274 2.1267 0
M  V30 5342 H 504.268 6.70369 -0.45335 0
M  V30 5343 N 506.988 0.0434614 1.5754 0
M  V30 5344 C 508.265 -0.671479 1.83713 0
M  V30 5345 C 508.645 -1.89495 0.930315 0
M  V30 5346 O 507.993 -2.28498 -0.0105639 0
M  V30 5347 C 508.203 -1.0361 3.33266 0
M  V30 5348 C 509.551 -1.42167 4.00092 0
M  V30 5349 O 510.575 -1.12866 3.37846 0
M  V30 5350 O 509.434 -1.96817 5.09829 0
M  V30 5351 H 506.528 -0.330726 0.75799 0
M  V30 5352 H 509.074 0.0722373 1.69546 0
M  V30 5353 H 507.846 -0.165938 3.90948 0
M  V30 5354 H 507.469 -1.83751 3.52592 0
M  V30 5355 N 508.466 -1.55915 -0.229846 0
M  V30 5356 C 509.396 -1.94754 -1.28815 0
M  V30 5357 C 510.377 -0.814657 -1.49323 0
M  V30 5358 O 511.562 -1.07631 -1.61645 0
M  V30 5359 C 508.692 -2.25705 -2.63959 0
M  V30 5360 C 507.646 -3.41406 -2.5812 0
M  V30 5361 C 506.972 -3.57941 -3.97218 0
M  V30 5362 C 508.272 -4.76616 -2.13623 0
M  V30 5363 H 509.966 -2.83404 -0.965547 0
M  V30 5364 H 507.512 -1.36353 -0.463028 0
M  V30 5365 H 509.465 -2.51467 -3.38146 0
M  V30 5366 H 508.189 -1.339 -2.9789 0
M  V30 5367 H 506.848 -3.1568 -1.86391 0
M  V30 5368 H 506.496 -2.63526 -4.28443 0
M  V30 5369 H 506.196 -4.35757 -3.94195 0
M  V30 5370 H 507.72 -3.86042 -4.73079 0
M  V30 5371 H 509.134 -5.01637 -2.77549 0
M  V30 5372 H 507.531 -5.57655 -2.21677 0
M  V30 5373 H 508.601 -4.7253 -1.08829 0
M  V30 5374 N 509.944 0.496216 -1.49584 0
M  V30 5375 C 511.193 1.24668 -1.58558 0
M  V30 5376 C 511.506 1.9359 -0.279703 0
M  V30 5377 O 512.712 2.70365 -0.248048 0
M  V30 5378 C 511.168 2.26388 -2.79779 0
M  V30 5379 C 510.776 1.63384 -4.17145 0
M  V30 5380 C 512.52 3.02233 -2.98086 0
M  V30 5381 C 510.427 2.63243 -5.29582 0
M  V30 5382 H 509.357 0.468995 -0.590389 0
M  V30 5383 H 512.008 0.519985 -1.75978 0
M  V30 5384 H 510.39 3.02241 -2.55863 0
M  V30 5385 H 511.564 0.93491 -4.51216 0
M  V30 5386 H 509.879 0.999121 -4.04236 0
M  V30 5387 H 512.476 3.76919 -3.79257 0
M  V30 5388 H 512.819 3.60132 -2.08831 0
M  V30 5389 H 513.352 2.33495 -3.22063 0
M  V30 5390 H 510.091 2.10119 -6.20911 0
M  V30 5391 H 509.611 3.31363 -4.99959 0
M  V30 5392 H 511.29 3.25575 -5.59115 0
M  V30 5393 N 511.423 1.38739 0.74761 0
M  V30 5394 C 512.67 1.35274 1.50689 0
M  V30 5395 C 512.998 -0.0553359 1.94421 0
M  V30 5396 O 512.253 -1.03365 1.66175 0
M  V30 5397 C 512.552 2.25992 2.7688 0
M  V30 5398 C 512.218 3.73854 2.5208 0
M  V30 5399 C 510.88 4.14145 2.45025 0
M  V30 5400 C 513.232 4.67427 2.30568 0
M  V30 5401 C 510.56 5.4609 2.14483 0
M  V30 5402 C 512.912 5.99635 2.01545 0
M  V30 5403 C 511.576 6.39004 1.92951 0
M  V30 5404 H 510.846 0.495003 0.55141 0
M  V30 5405 H 513.493 1.71145 0.859158 0
M  V30 5406 H 511.798 1.83196 3.46333 0
M  V30 5407 H 513.495 2.20611 3.34861 0
M  V30 5408 H 510.085 3.41913 2.58444 0
M  V30 5409 H 514.269 4.3714 2.34994 0
M  V30 5410 H 509.525 5.75528 2.06342 0
M  V30 5411 H 513.699 6.71678 1.83906 0
M  V30 5412 H 511.326 7.41165 1.6905 0
M  V30 5413 N 512.901 -0.976442 1.23707 0
M  V30 5414 C 514.15 -1.71254 1.06559 0
M  V30 5415 C 514.463 -1.91528 -0.397024 0
M  V30 5416 O 515.669 -2.62625 -0.688518 0
M  V30 5417 C 514.125 -3.08207 1.8584 0
M  V30 5418 C 513.733 -2.95806 3.36456 0
M  V30 5419 C 515.477 -3.85749 1.77194 0
M  V30 5420 C 513.384 -4.28015 4.08114 0
M  V30 5421 H 512.314 -0.642171 0.395136 0
M  V30 5422 H 514.965 -1.08877 1.4771 0
M  V30 5423 H 513.347 -3.71363 1.37498 0
M  V30 5424 H 514.521 -2.41716 3.92314 0
M  V30 5425 H 512.836 -2.31736 3.45959 0
M  V30 5426 H 515.433 -4.83633 2.28041 0
M  V30 5427 H 515.776 -4.09752 0.735477 0
M  V30 5428 H 516.309 -3.29303 2.23169 0
M  V30 5429 H 513.048 -4.09208 5.12083 0
M  V30 5430 H 512.568 -4.81955 3.57043 0
M  V30 5431 H 514.247 -4.96681 4.14629 0
M  V30 5432 N 514.379 -1.04941 -1.1758 0
M  V30 5433 C 515.626 -0.757989 -1.87779 0
M  V30 5434 C 515.954 0.714827 -1.80888 0
M  V30 5435 O 515.209 1.53824 -1.20982 0
M  V30 5436 C 515.508 -1.18062 -3.37337 0
M  V30 5437 C 515.174 -2.65521 -3.6443 0
M  V30 5438 C 513.836 -3.05804 -3.71534 0
M  V30 5439 C 516.188 -3.60822 -3.76108 0
M  V30 5440 C 513.516 -4.40256 -3.87803 0
M  V30 5441 C 515.868 -4.95005 -3.93895 0
M  V30 5442 C 514.532 -5.34945 -3.99237 0
M  V30 5443 H 513.802 -0.277368 -0.68713 0
M  V30 5444 H 516.449 -1.31603 -1.39115 0
M  V30 5445 H 514.754 -0.541525 -3.8804 0
M  V30 5446 H 516.451 -0.932368 -3.9001 0
M  V30 5447 H 513.041 -2.33324 -3.59524 0
M  V30 5448 H 517.225 -3.30841 -3.69943 0
M  V30 5449 H 512.481 -4.70707 -3.90186 0
M  V30 5450 H 516.655 -5.68746 -4.01872 0
M  V30 5451 H 514.282 -6.39135 -4.11596 0
M  V30 5452 N 515.857 1.33968 -0.830081 0
M  V30 5453 C 517.273 1.51003 -0.516742 0
M  V30 5454 C 517.473 1.77286 0.957694 0
M  V30 5455 O 516.529 1.82797 1.74188 0
M  V30 5456 C 517.842 2.67036 -1.38247 0
M  V30 5457 C 519.39 2.80919 -1.38034 0
M  V30 5458 C 519.865 4.00004 -2.23071 0
M  V30 5459 N 521.356 4.07224 -2.20733 0
M  V30 5460 C 522.091 4.98541 -2.83275 0
M  V30 5461 N 521.587 5.95033 -3.54835 0
M  V30 5462 N 523.38 4.91469 -2.72791 0
M  V30 5463 H 515.531 1.15168 -1.78466 0
M  V30 5464 H 517.794 0.565443 -0.760906 0
M  V30 5465 H 517.5 2.54266 -2.42985 0
M  V30 5466 H 517.374 3.62226 -1.05225 0
M  V30 5467 H 519.761 2.93127 -0.340713 0
M  V30 5468 H 519.842 1.86517 -1.75057 0
M  V30 5469 H 519.486 3.88557 -3.27087 0
M  V30 5470 H 519.416 4.93634 -1.83394 0
M  V30 5471 H 521.907 3.38162 -1.68687 0
M  V30 5472 H 522.22 6.61357 -3.99784 0
M  V30 5473 H 520.565 5.95135 -3.58942 0
M  V30 5474 H 523.756 4.15048 -2.16456 0
M  V30 5475 H 523.929 5.62439 -3.21818 0
M  V30 5476 N 517.335 0.585699 1.46312 0
M  V30 5477 C 518.583 0.072278 2.01971 0
M  V30 5478 C 518.904 -1.29345 1.45928 0
M  V30 5479 O 518.174 -1.84973 0.645109 0
M  V30 5480 H 516.754 0.023729 0.746623 0
M  V30 5481 H 519.416 0.762155 1.7938 0
M  V30 5482 H 518.512 0.00552767 3.121 0
M  V30 5483 N 518.813 -1.54241 0.323641 0
M  V30 5484 C 520.229 -1.59574 -0.0290018 0
M  V30 5485 C 520.429 -1.34017 -1.50472 0
M  V30 5486 O 519.485 -1.12464 -2.26071 0
M  V30 5487 C 520.798 -2.98169 0.389295 0
M  V30 5488 C 522.346 -3.11148 0.339958 0
M  V30 5489 C 522.821 -4.5209 0.733418 0
M  V30 5490 N 524.312 -4.5808 0.686827 0
M  V30 5491 C 525.047 -5.65248 0.963464 0
M  V30 5492 N 524.543 -6.80355 1.30724 0
M  V30 5493 N 526.336 -5.55025 0.88902 0
M  V30 5494 H 518.487 -1.6911 1.28512 0
M  V30 5495 H 520.75 -0.790972 0.522558 0
M  V30 5496 H 520.456 -3.21871 1.41746 0
M  V30 5497 H 520.33 -3.76399 -0.245657 0
M  V30 5498 H 522.717 -2.87182 -0.679002 0
M  V30 5499 H 522.798 -2.35023 1.00985 0
M  V30 5500 H 522.442 -4.76788 1.75029 0
M  V30 5501 H 522.372 -5.26584 0.0412189 0
M  V30 5502 H 524.863 -3.75411 0.43298 0
M  V30 5503 H 525.176 -7.58029 1.5037 0
M  V30 5504 H 523.521 -6.81851 1.3455 0
M  V30 5505 H 526.712 -4.63977 0.619939 0
M  V30 5506 H 526.885 -6.38458 1.10797 0
M  V30 5507 N 520.291 -0.0518155 -1.57515 0
M  V30 5508 C 521.238 0.922352 -2.11569 0
M  V30 5509 C 522.208 1.30842 -1.02321 0
M  V30 5510 O 523.393 1.39778 -1.29872 0
M  V30 5511 C 520.533 2.19167 -2.6657 0
M  V30 5512 C 519.646 1.86003 -3.89906 0
M  V30 5513 C 518.781 3.07398 -4.33221 0
M  V30 5514 C 517.82 2.70158 -5.49255 0
M  V30 5515 N 516.957 3.84248 -5.8762 0
M  V30 5516 H 521.797 0.454506 -2.94514 0
M  V30 5517 H 519.334 0.212718 -1.45554 0
M  V30 5518 H 521.292 2.93443 -2.96559 0
M  V30 5519 H 519.922 2.63528 -1.86421 0
M  V30 5520 H 518.974 1.01874 -3.66505 0
M  V30 5521 H 520.286 1.54592 -4.74239 0
M  V30 5522 H 519.44 3.89972 -4.64765 0
M  V30 5523 H 518.179 3.41988 -3.477 0
M  V30 5524 H 517.184 1.86001 -5.17382 0
M  V30 5525 H 518.409 2.36759 -6.36492 0
M  V30 5526 H 516.355 4.18638 -5.05053 0
M  V30 5527 H 516.272 3.56538 -6.66646 0
M  V30 5528 H 517.54 4.6746 -6.2378 0
M  V30 5529 N 521.769 1.56035 0.221574 0
M  V30 5530 C 523.016 1.79047 0.94597 0
M  V30 5531 C 523.344 0.62057 1.84334 0
M  V30 5532 O 522.599 -0.395053 1.91671 0
M  V30 5533 C 522.898 3.07813 1.8162 0
M  V30 5534 C 522.564 4.3797 1.07206 0
M  V30 5535 C 521.226 4.73334 0.866508 0
M  V30 5536 C 523.578 5.18326 0.546565 0
M  V30 5537 C 520.906 5.8657 0.123549 0
M  V30 5538 C 523.258 6.32335 -0.18305 0
M  V30 5539 C 521.922 6.66301 -0.399861 0
M  V30 5540 H 521.192 0.655178 0.346155 0
M  V30 5541 H 523.839 1.90299 0.214146 0
M  V30 5542 H 522.144 2.91682 2.61589 0
M  V30 5543 H 523.841 3.2282 2.37884 0
M  V30 5544 H 520.431 4.10202 1.24226 0
M  V30 5545 H 524.615 4.9144 0.692847 0
M  V30 5546 H 519.871 6.11376 -0.0546591 0
M  V30 5547 H 524.045 6.9383 -0.59775 0
M  V30 5548 H 521.672 7.53889 -0.977489 0
M  V30 5549 N 523.247 -0.488276 1.49845 0
M  V30 5550 C 524.493 -1.24065 1.61182 0
M  V30 5551 C 524.848 -1.9004 0.300435 0
M  V30 5552 O 524.141 -1.78341 -0.700365 0
M  V30 5553 C 524.335 -2.32152 2.71735 0
M  V30 5554 C 524.164 -1.76778 4.13497 0
M  V30 5555 C 522.934 -1.57513 4.80123 0
M  V30 5556 C 525.132 -1.27242 4.98311 0
M  V30 5557 N 523.114 -0.972015 6.06156 0
M  V30 5558 C 524.485 -0.791457 6.14928 0
M  V30 5559 C 526.54 -1.15934 4.84214 0
M  V30 5560 C 525.243 -0.208593 7.18997 0
M  V30 5561 C 527.269 -0.590436 5.88445 0
M  V30 5562 C 526.631 -0.119767 7.04298 0
M  V30 5563 H 522.73 -0.443487 0.644083 0
M  V30 5564 H 525.314 -0.545551 1.86901 0
M  V30 5565 H 523.485 -2.99108 2.47768 0
M  V30 5566 H 525.217 -2.99187 2.72523 0
M  V30 5567 H 521.972 -1.82247 4.37131 0
M  V30 5568 H 522.396 -0.689367 6.73481 0
M  V30 5569 H 527.038 -1.5092 3.94947 0
M  V30 5570 H 524.756 0.153501 8.07954 0
M  V30 5571 H 528.342 -0.505548 5.79599 0
M  V30 5572 H 527.222 0.313568 7.83573 0
M  V30 5573 N 524.725 -1.39134 -0.740242 0
M  V30 5574 C 525.688 -1.37217 -1.83587 0
M  V30 5575 C 526.688 -0.270221 -1.58513 0
M  V30 5576 O 527.878 -0.527843 -1.6601 0
M  V30 5577 C 525.01 -1.13959 -3.21288 0
M  V30 5578 H 526.203 -2.34705 -1.86691 0
M  V30 5579 H 523.756 -1.24622 -0.94335 0
M  V30 5580 H 524.491 -0.17131 -3.23847 0
M  V30 5581 H 524.276 -1.93754 -3.40884 0
M  V30 5582 H 525.766 -1.15346 -4.01354 0
M  V30 5583 N 526.204 0.969867 -1.24223 0
M  V30 5584 C 527.134 2.08191 -1.05729 0
M  V30 5585 C 528.115 1.70075 0.0290765 0
M  V30 5586 O 529.3 1.93712 -0.137583 0
M  V30 5587 C 526.43 3.40991 -0.658995 0
M  V30 5588 C 525.384 3.93054 -1.69389 0
M  V30 5589 C 524.71 5.22171 -1.15072 0
M  V30 5590 C 526.01 4.21137 -3.08935 0
M  V30 5591 H 527.704 2.23921 -1.98746 0
M  V30 5592 H 525.25 1.07602 -0.956967 0
M  V30 5593 H 527.203 4.18221 -0.51662 0
M  V30 5594 H 525.927 3.25155 0.30686 0
M  V30 5595 H 524.586 3.17977 -1.82444 0
M  V30 5596 H 524.234 5.02694 -0.175539 0
M  V30 5597 H 523.934 5.57973 -1.84229 0
M  V30 5598 H 525.458 6.02013 -1.02042 0
M  V30 5599 H 526.872 4.8908 -2.99121 0
M  V30 5600 H 525.269 4.68163 -3.75425 0
M  V30 5601 H 526.339 3.27996 -3.57137 0
M  V30 5602 N 527.682 1.05563 1.17022 0
M  V30 5603 C 528.63 0.653887 2.2322 0
M  V30 5604 C 529.624 -0.326642 1.66221 0
M  V30 5605 O 530.83 -0.192301 1.7897 0
M  V30 5606 H 527.205 0.193297 0.726733 0
M  V30 5607 H 529.176 1.5596 2.54399 0
M  V30 5608 C 527.925 0.0485434 3.47666 0
M  V30 5609 H 527.248 0.79413 3.91834 0
M  V30 5610 H 528.688 -0.195133 4.23551 0
M  V30 5611 C 527.147 -1.20583 3.14581 0
M  V30 5612 O 527.677 -2.29475 3.29703 0
M  V30 5613 N 525.883 -1.10493 2.68774 0
M  V30 5614 H 525.43 -0.218795 2.56669 0
M  V30 5615 H 525.388 -1.94507 2.47011 0
M  V30 5616 N 529.16 -1.33526 0.837174 0
M  V30 5617 C 530.408 -1.97446 0.431211 0
M  V30 5618 C 530.729 -1.6665 -1.01255 0
M  V30 5619 O 529.999 -0.964559 -1.70508 0
M  V30 5620 H 528.579 -0.73043 0.156463 0
M  V30 5621 H 531.241 -1.62918 1.06976 0
M  V30 5622 H 530.337 -3.07001 0.561877 0
M  V30 5623 N 530.638 -0.59345 -1.46 0
M  V30 5624 C 531.868 -0.0889642 -2.06408 0
M  V30 5625 C 532.276 1.22597 -1.44106 0
M  V30 5626 O 531.619 1.75448 -0.544398 0
M  V30 5627 C 531.681 0.139902 -3.59228 0
M  V30 5628 C 531.345 -1.09107 -4.43784 0
M  V30 5629 C 532.342 -2.00577 -4.79651 0
M  V30 5630 C 530.027 -1.31593 -4.84756 0
M  V30 5631 C 532.021 -3.12873 -5.55328 0
M  V30 5632 C 529.708 -2.44192 -5.60191 0
M  V30 5633 C 530.706 -3.34661 -5.95392 0
M  V30 5634 O 530.394 -4.45302 -6.69299 0
M  V30 5635 H 530.126 -0.0594613 -0.67338 0
M  V30 5636 H 532.68 -0.817 -1.88452 0
M  V30 5637 H 530.91 0.922672 -3.75531 0
M  V30 5638 H 532.599 0.594228 -4.01527 0
M  V30 5639 H 533.365 -1.84425 -4.48567 0
M  V30 5640 H 529.244 -0.620801 -4.56801 0
M  V30 5641 H 532.788 -3.83511 -5.82722 0
M  V30 5642 H 528.685 -2.60303 -5.90688 0
M  V30 5643 H 529.453 -4.43805 -6.87735 0
M  V30 5644 N 532.116 1.54067 -0.331816 0
M  V30 5645 C 533.393 1.92915 0.322955 0
M  V30 5646 C 533.773 1.26225 1.69205 0
M  V30 5647 O 533.121 0.408919 2.24811 0
M  V30 5648 C 533.331 3.46619 0.406946 0
M  V30 5649 C 534.679 4.19386 0.663339 0
M  V30 5650 O 535.703 3.5282 0.489536 0
M  V30 5651 O 534.562 5.37288 0.999193 0
M  V30 5652 H 531.656 0.805808 0.186016 0
M  V30 5653 H 534.202 1.65342 -0.382135 0
M  V30 5654 H 532.974 3.87354 -0.554287 0
M  V30 5655 H 532.597 3.80324 1.15929 0
M  V30 5656 N 533.594 0.0601682 1.57485 0
M  V30 5657 C 534.843 -0.611101 1.9222 0
M  V30 5658 C 535.156 -1.71469 0.941159 0
M  V30 5659 O 536.362 -2.44473 1.18089 0
M  V30 5660 C 534.818 -1.13832 3.41424 0
M  V30 5661 C 534.426 -0.0663596 4.47951 0
M  V30 5662 C 536.17 -1.78432 3.85178 0
M  V30 5663 C 534.077 -0.606965 5.88277 0
M  V30 5664 H 533.007 -0.232033 0.71741 0
M  V30 5665 H 535.658 0.130518 1.83035 0
M  V30 5666 H 534.04 -1.93254 3.45643 0
M  V30 5667 H 535.214 0.707682 4.55333 0
M  V30 5668 H 533.529 0.482715 4.13593 0
M  V30 5669 H 536.126 -2.1989 4.87394 0
M  V30 5670 H 536.469 -2.63966 3.21913 0
M  V30 5671 H 537.002 -1.05651 3.83514 0
M  V30 5672 H 533.741 0.21095 6.5516 0
M  V30 5673 H 533.261 -1.34879 5.84438 0
M  V30 5674 H 534.94 -1.08704 6.37803 0
M  V30 5675 N 535.072 -1.5615 -0.213296 0
M  V30 5676 C 536.002 -1.96109 -1.26742 0
M  V30 5677 C 536.983 -0.830448 -1.48451 0
M  V30 5678 O 538.168 -1.09339 -1.60495 0
M  V30 5679 C 535.298 -2.28492 -2.61551 0
M  V30 5680 C 534.252 -3.44124 -2.54485 0
M  V30 5681 C 533.578 -3.62134 -3.93399 0
M  V30 5682 C 534.878 -4.78855 -2.08556 0
M  V30 5683 H 536.572 -2.84412 -0.935434 0
M  V30 5684 H 534.118 -1.36836 -0.44854 0
M  V30 5685 H 536.071 -2.55039 -3.3546 0
M  V30 5686 H 534.795 -1.37052 -2.96453 0
M  V30 5687 H 533.454 -3.17639 -1.83033 0
M  V30 5688 H 533.102 -2.68055 -4.25623 0
M  V30 5689 H 532.802 -4.39913 -3.89551 0
M  V30 5690 H 534.326 -3.91038 -4.68958 0
M  V30 5691 H 535.74 -5.04552 -2.72213 0
M  V30 5692 H 534.137 -5.59975 -2.1575 0
M  V30 5693 H 535.207 -4.73657 -1.03811 0
M  V30 5694 N 536.55 0.480323 -1.50102 0
M  V30 5695 C 537.46 1.60547 -1.71061 0
M  V30 5696 C 538.476 1.63564 -0.593529 0
M  V30 5697 O 539.652 1.81604 -0.870751 0
M  V30 5698 C 536.717 2.96814 -1.79171 0
M  V30 5699 C 535.778 3.04259 -3.02861 0
M  V30 5700 C 535.011 4.34027 -3.10574 0
M  V30 5701 O 535.234 5.24009 -2.25323 0
M  V30 5702 O 534.168 4.46873 -4.03223 0
M  V30 5703 H 537.994 1.45788 -2.6642 0
M  V30 5704 H 535.579 0.658838 -1.34088 0
M  V30 5705 H 537.461 3.77765 -1.86738 0
M  V30 5706 H 536.136 3.11791 -0.869947 0
M  V30 5707 H 535.043 2.22419 -3.008 0
M  V30 5708 H 536.376 2.94216 -3.94586 0
M  V30 5709 N 538.028 1.39524 0.732853 0
M  V30 5710 C 539.276 1.36594 1.48951 0
M  V30 5711 C 539.597 -0.0367507 1.94965 0
M  V30 5712 O 538.867 -0.988391 1.69138 0
M  V30 5713 H 537.447 0.502673 0.552566 0
M  V30 5714 H 540.109 1.74411 0.869869 0
M  V30 5715 H 539.205 2.03 2.3706 0
M  V30 5716 N 539.506 -0.963266 1.24736 0
M  V30 5717 C 540.736 -1.73913 1.11524 0
M  V30 5718 C 541.144 -1.86218 -0.334612 0
M  V30 5719 O 540.487 -1.3531 -1.24245 0
M  V30 5720 C 540.549 -3.17501 1.68622 0
M  V30 5721 C 540.213 -3.28655 3.17546 0
M  V30 5722 C 541.21 -3.13637 4.14642 0
M  V30 5723 C 538.895 -3.52753 3.5759 0
M  V30 5724 C 540.889 -3.2255 5.49764 0
M  V30 5725 C 538.576 -3.61303 4.92852 0
M  V30 5726 C 539.574 -3.46214 5.88748 0
M  V30 5727 O 539.262 -3.5443 7.2155 0
M  V30 5728 H 538.994 -0.552057 0.390139 0
M  V30 5729 H 541.548 -1.2177 1.65412 0
M  V30 5730 H 539.778 -3.70969 1.09172 0
M  V30 5731 H 541.467 -3.76914 1.50635 0
M  V30 5732 H 542.233 -2.94899 3.85045 0
M  V30 5733 H 538.112 -3.63561 2.83451 0
M  V30 5734 H 541.656 -3.1069 6.24594 0
M  V30 5735 H 537.553 -3.79556 5.22118 0
M  V30 5736 H 538.321 -3.71116 7.29531 0
M  V30 5737 N 540.985 -1.06182 -1.16461 0
M  V30 5738 C 542.396 -0.802426 -1.68576 0
M  V30 5739 C 542.747 0.67412 -1.84255 0
M  V30 5740 O 541.872 1.52303 -1.5373 0
M  V30 5741 C 542.467 -1.45002 -3.06202 0
M  V30 5742 C 541.026 -1.23843 -3.55443 0
M  V30 5743 C 540.173 -1.52724 -2.31454 0
M  V30 5744 H 543.124 -1.22545 -1.00839 0
M  V30 5745 H 543.145 -0.864731 -3.70544 0
M  V30 5746 H 542.657 -2.52466 -2.94759 0
M  V30 5747 H 540.758 -0.183487 -3.72148 0
M  V30 5748 H 540.871 -1.95036 -4.37604 0
M  V30 5749 H 539.235 -0.947726 -2.36411 0
M  V30 5750 H 540.018 -2.61343 -2.22609 0
M  V30 5751 N 542.463 1.3308 -0.844243 0
M  V30 5752 C 543.41 2.29104 -0.279323 0
M  V30 5753 C 544.38 1.54577 0.607882 0
M  V30 5754 O 545.565 1.8285 0.545009 0
M  V30 5755 C 542.705 3.40927 0.53508 0
M  V30 5756 C 541.818 4.30354 -0.376749 0
M  V30 5757 C 540.953 5.29297 0.449276 0
M  V30 5758 C 539.992 6.10365 -0.460606 0
M  V30 5759 N 539.129 7.01335 0.327612 0
M  V30 5760 H 543.969 2.76817 -1.10346 0
M  V30 5761 H 541.506 1.36203 -0.555611 0
M  V30 5762 H 543.464 4.04469 1.02278 0
M  V30 5763 H 542.094 2.94391 1.32414 0
M  V30 5764 H 541.146 3.67485 -0.982791 0
M  V30 5765 H 542.458 4.87067 -1.07549 0
M  V30 5766 H 541.612 5.98392 1.00058 0
M  V30 5767 H 540.351 4.73174 1.18143 0
M  V30 5768 H 539.356 5.40182 -1.02388 0
M  V30 5769 H 540.581 6.68571 -1.1912 0
M  V30 5770 H 538.527 6.47655 1.04305 0
M  V30 5771 H 538.444 7.55355 -0.3123 0
M  V30 5772 H 539.712 7.74731 0.86098 0
M  V30 5773 N 543.941 0.601185 1.45683 0
M  V30 5774 C 544.888 -0.121396 2.30481 0
M  V30 5775 C 545.858 -0.866232 1.41724 0
M  V30 5776 O 547.043 -0.85324 1.70659 0
M  V30 5777 C 544.183 -1.11704 3.26521 0
M  V30 5778 C 543.296 -0.373741 4.3038 0
M  V30 5779 C 542.431 -1.35854 5.13534 0
M  V30 5780 C 541.47 -0.602689 6.09126 0
M  V30 5781 N 540.607 -1.53645 6.85082 0
M  V30 5782 H 545.447 0.607732 2.91737 0
M  V30 5783 H 542.984 0.311502 1.43764 0
M  V30 5784 H 544.942 -1.70735 3.80664 0
M  V30 5785 H 543.572 -1.81366 2.67032 0
M  V30 5786 H 542.624 0.331962 3.78949 0
M  V30 5787 H 543.936 0.2163 4.98331 0
M  V30 5788 H 543.09 -2.02111 5.72046 0
M  V30 5789 H 541.829 -1.98251 4.45587 0
M  V30 5790 H 540.834 0.0735482 5.49751 0
M  V30 5791 H 542.059 0.0161467 6.79098 0
M  V30 5792 H 540.005 -2.14819 6.1983 0
M  V30 5793 H 539.922 -0.999688 7.49361 0
M  V30 5794 H 541.19 -2.1888 7.48139 0
M  V30 5795 N 545.419 -1.53889 0.339982 0
M  V30 5796 C 546.668 -2.00035 -0.258604 0
M  V30 5797 C 546.981 -1.23179 -1.51942 0
M  V30 5798 O 548.187 -1.59784 -2.19503 0
M  V30 5799 C 546.643 -3.56249 -0.511359 0
M  V30 5800 C 546.251 -4.41957 0.733349 0
M  V30 5801 C 547.995 -4.1082 -1.069 0
M  V30 5802 C 545.902 -5.89673 0.451591 0
M  V30 5803 H 544.832 -0.747284 -0.10041 0
M  V30 5804 H 547.483 -1.77776 0.454758 0
M  V30 5805 H 545.865 -3.7456 -1.28533 0
M  V30 5806 H 547.039 -4.35421 1.50815 0
M  V30 5807 H 545.354 -3.9836 1.21237 0
M  V30 5808 H 547.951 -5.18789 -1.2947 0
M  V30 5809 H 548.294 -3.63817 -2.02343 0
M  V30 5810 H 548.827 -3.96205 -0.355817 0
M  V30 5811 H 545.566 -6.40903 1.37565 0
M  V30 5812 H 545.086 -5.99122 -0.285193 0
M  V30 5813 H 546.765 -6.46965 0.0675067 0
M  V30 5814 N 546.897 -0.0685191 -1.57451 0
M  V30 5815 C 548.122 0.613919 -1.98106 0
M  V30 5816 C 548.547 1.62551 -0.946501 0
M  V30 5817 O 547.905 1.81085 0.0882824 0
M  V30 5818 C 547.953 1.26189 -3.378 0
M  V30 5819 O 547.057 2.37773 -3.36954 0
M  V30 5820 H 546.398 0.158163 -0.644888 0
M  V30 5821 H 548.928 -0.142063 -2.04106 0
M  V30 5822 H 548.938 1.60951 -3.74912 0
M  V30 5823 H 547.613 0.520625 -4.12629 0
M  V30 5824 H 546.19 2.04829 -3.11608 0
M  V30 5825 N 548.375 1.56261 0.205012 0
M  V30 5826 C 549.285 1.96944 1.27476 0
M  V30 5827 C 550.301 0.875636 1.50362 0
M  V30 5828 O 551.477 1.18058 1.6317 0
M  V30 5829 C 548.542 2.29219 2.60115 0
M  V30 5830 C 547.603 3.52255 2.45387 0
M  V30 5831 C 546.836 3.8298 3.71701 0
M  V30 5832 O 547.059 3.15138 4.75441 0
M  V30 5833 O 545.993 4.76435 3.67823 0
M  V30 5834 H 549.819 2.88144 0.959527 0
M  V30 5835 H 547.404 1.43686 0.409217 0
M  V30 5836 H 549.286 2.51098 3.3842 0
M  V30 5837 H 547.961 1.4119 2.91285 0
M  V30 5838 H 546.868 3.35635 1.65227 0
M  V30 5839 H 548.201 4.40719 2.19152 0
M  V30 5840 N 549.853 -0.472356 1.50355 0
M  V30 5841 C 550.783 -1.57859 1.72055 0
M  V30 5842 C 551.764 -1.60283 0.569505 0
M  V30 5843 O 552.949 -1.7657 0.808503 0
M  V30 5844 C 550.079 -2.96191 1.81351 0
M  V30 5845 C 549.033 -3.08633 2.96529 0
M  V30 5846 C 548.359 -4.486 2.90968 0
M  V30 5847 C 549.659 -2.85969 4.37057 0
M  V30 5848 H 551.353 -1.39953 2.64676 0
M  V30 5849 H 548.899 -0.671846 1.27367 0
M  V30 5850 H 550.852 -3.73507 1.95117 0
M  V30 5851 H 549.576 -3.15251 0.853502 0
M  V30 5852 H 548.235 -2.33749 2.82413 0
M  V30 5853 H 547.883 -4.64577 1.92815 0
M  V30 5854 H 547.583 -4.57861 3.68289 0
M  V30 5855 H 549.107 -5.27938 3.0678 0
M  V30 5856 H 550.521 -3.53036 4.51706 0
M  V30 5857 H 548.918 -3.06677 5.15819 0
M  V30 5858 H 549.988 -1.81838 4.49514 0
M  V30 5859 N 551.331 -1.39911 -0.725443 0
M  V30 5860 C 552.579 -1.37382 -1.48224 0
M  V30 5861 C 552.9 0.0264107 -1.94982 0
M  V30 5862 O 552.17 0.979408 -1.6966 0
M  V30 5863 H 550.75 -0.505596 -0.549892 0
M  V30 5864 H 553.412 -1.7487 -0.860608 0
M  V30 5865 H 552.508 -2.04254 -2.3598 0
M  V30 5866 N 552.809 0.956637 -1.25245 0
M  V30 5867 C 553.739 2.07058 -1.07931 0
M  V30 5868 C 554.72 1.70096 0.0110361 0
M  V30 5869 O 555.905 1.93555 -0.158121 0
M  V30 5870 C 553.035 3.40272 -0.695124 0
M  V30 5871 C 551.989 3.91235 -1.73549 0
M  V30 5872 C 551.315 5.20921 -1.20604 0
M  V30 5873 C 552.615 4.17837 -3.13385 0
M  V30 5874 H 554.309 2.218 -2.01109 0
M  V30 5875 H 551.855 1.06581 -0.968326 0
M  V30 5876 H 553.808 4.1765 -0.560949 0
M  V30 5877 H 552.532 3.25462 0.272355 0
M  V30 5878 H 551.191 3.16025 -1.85807 0
M  V30 5879 H 550.839 5.02479 -0.228846 0
M  V30 5880 H 550.539 5.55987 -1.90136 0
M  V30 5881 H 552.063 6.00897 -1.08421 0
M  V30 5882 H 553.477 4.8588 -3.04292 0
M  V30 5883 H 551.874 4.64154 -3.80369 0
M  V30 5884 H 552.944 3.2419 -3.60595 0
M  V30 5885 N 554.287 1.06798 1.15896 0
M  V30 5886 C 555.698 0.811355 1.68149 0
M  V30 5887 C 556.049 -0.664339 1.8461 0
M  V30 5888 O 555.174 -1.51485 1.54535 0
M  V30 5889 C 555.769 1.46624 3.05429 0
M  V30 5890 C 554.328 1.25726 3.54781 0
M  V30 5891 C 553.475 1.53949 2.3064 0
M  V30 5892 H 556.426 1.23078 1.00187 0
M  V30 5893 H 556.447 0.88437 3.7008 0
M  V30 5894 H 555.959 2.54025 2.93416 0
M  V30 5895 H 554.06 0.20322 3.72045 0
M  V30 5896 H 554.173 1.97354 4.36564 0
M  V30 5897 H 552.537 0.96025 2.35905 0
M  V30 5898 H 553.32 2.6252 2.2122 0
M  V30 5899 N 555.766 -1.3263 0.851289 0
M  V30 5900 C 556.713 -2.28952 0.291469 0
M  V30 5901 C 557.683 -1.54897 -0.599676 0
M  V30 5902 O 558.868 -1.83137 -0.535305 0
M  V30 5903 C 556.008 -3.41206 -0.516992 0
M  V30 5904 C 555.121 -4.30148 0.399566 0
M  V30 5905 C 554.256 -5.29527 -0.4212 0
M  V30 5906 C 553.295 -6.10112 0.492969 0
M  V30 5907 N 552.432 -7.01499 -0.290414 0
M  V30 5908 H 557.272 -2.76228 1.11813 0
M  V30 5909 H 554.809 -1.35907 0.562826 0
M  V30 5910 H 556.767 -4.05005 -1.00132 0
M  V30 5911 H 555.397 -2.9509 -1.30851 0
M  V30 5912 H 554.449 -3.66959 1.00227 0
M  V30 5913 H 555.761 -4.8649 1.1013 0
M  V30 5914 H 554.915 -5.98914 -0.968832 0
M  V30 5915 H 553.654 -4.73794 -1.15632 0
M  V30 5916 H 552.659 -5.39632 1.05251 0
M  V30 5917 H 553.884 -6.6793 1.22664 0
M  V30 5918 H 551.83 -6.48199 -1.00868 0
M  V30 5919 H 551.747 -7.55178 0.352354 0
M  V30 5920 H 553.015 -7.75176 -0.819882 0
M  V30 5921 N 557.244 -0.608902 -1.45362 0
M  V30 5922 C 558.154 0.110969 -2.34337 0
M  V30 5923 C 559.17 0.859007 -1.51318 0
M  V30 5924 O 560.346 0.816296 -1.84116 0
M  V30 5925 C 557.411 1.09494 -3.28956 0
M  V30 5926 C 556.472 0.348718 -4.27881 0
M  V30 5927 C 555.705 1.28582 -5.17979 0
M  V30 5928 O 555.928 2.52369 -5.11533 0
M  V30 5929 O 554.862 0.782172 -5.96796 0
M  V30 5930 H 558.688 -0.620258 -2.97299 0
M  V30 5931 H 556.273 -0.36916 -1.44767 0
M  V30 5932 H 558.155 1.66163 -3.87257 0
M  V30 5933 H 556.83 1.80717 -2.68557 0
M  V30 5934 H 555.737 -0.260465 -3.73192 0
M  V30 5935 H 557.07 -0.323049 -4.91139 0
M  V30 5936 N 558.722 1.53707 -0.348139 0
M  V30 5937 C 559.968 2.01286 0.247332 0
M  V30 5938 C 560.301 1.23546 1.49834 0
M  V30 5939 O 559.576 0.324331 1.91777 0
M  V30 5940 C 559.859 3.55768 0.556858 0
M  V30 5941 C 559.712 4.44216 -0.706564 0
M  V30 5942 C 561.031 4.1841 1.3646 0
M  V30 5943 H 558.15 0.731677 0.0884201 0
M  V30 5944 H 560.792 1.84106 -0.469584 0
M  V30 5945 H 558.942 3.70539 1.16761 0
M  V30 5946 H 560.614 4.41274 -1.34444 0
M  V30 5947 H 558.857 4.12892 -1.33052 0
M  V30 5948 H 559.528 5.50202 -0.445186 0
M  V30 5949 H 562.004 4.07365 0.848113 0
M  V30 5950 H 560.88 5.26563 1.54992 0
M  V30 5951 H 561.141 3.7333 2.36805 0
M  V30 5952 N 560.2 0.0768682 1.57412 0
M  V30 5953 C 561.147 -0.888577 2.13009 0
M  V30 5954 C 562.117 -1.29198 1.0439 0
M  V30 5955 O 563.302 -1.37694 1.3208 0
M  V30 5956 C 560.442 -2.14899 2.70023 0
M  V30 5957 C 559.555 -1.79777 3.92816 0
M  V30 5958 C 558.69 -3.00467 4.38056 0
M  V30 5959 C 557.729 -2.61385 5.53484 0
M  V30 5960 N 556.866 -3.74851 5.93659 0
M  V30 5961 H 561.706 -0.407593 2.95199 0
M  V30 5962 H 559.243 -0.189534 1.45874 0
M  V30 5963 H 561.201 -2.88688 3.0119 0
M  V30 5964 H 559.831 -2.60529 1.9059 0
M  V30 5965 H 558.883 -0.960301 3.68079 0
M  V30 5966 H 560.195 -1.47027 4.76639 0
M  V30 5967 H 559.349 -3.82529 4.7091 0
M  V30 5968 H 558.088 -3.36413 3.53097 0
M  V30 5969 H 557.093 -1.77746 5.20275 0
M  V30 5970 H 558.318 -2.26603 6.40178 0
M  V30 5971 H 556.264 -4.1055 5.11649 0
M  V30 5972 H 556.181 -3.45887 6.72234 0
M  V30 5973 H 557.449 -4.57477 6.31138 0
M  V30 5974 N 561.678 -1.56367 -0.196722 0
M  V30 5975 C 562.625 -1.94417 -1.24382 0
M  V30 5976 C 563.595 -0.804543 -1.45315 0
M  V30 5977 O 564.78 -1.06256 -1.58475 0
M  V30 5978 C 561.92 -2.28757 -2.58388 0
M  V30 5979 C 561.033 -3.55775 -2.45047 0
M  V30 5980 C 560.168 -3.79445 -3.71746 0
M  V30 5981 C 559.207 -4.99894 -3.53231 0
M  V30 5982 N 558.344 -5.19826 -4.71938 0
M  V30 5983 H 563.184 -2.83691 -0.912338 0
M  V30 5984 H 560.721 -1.40392 -0.439135 0
M  V30 5985 H 562.679 -2.46682 -3.36457 0
M  V30 5986 H 561.309 -1.42625 -2.89582 0
M  V30 5987 H 560.361 -3.45905 -1.58284 0
M  V30 5988 H 561.673 -4.44 -2.27299 0
M  V30 5989 H 560.827 -3.97601 -4.58256 0
M  V30 5990 H 559.566 -2.89546 -3.92446 0
M  V30 5991 H 558.571 -4.81662 -2.65107 0
M  V30 5992 H 559.796 -5.913 -3.33978 0
M  V30 5993 H 557.742 -4.32875 -4.92905 0
M  V30 5994 H 557.659 -6.02228 -4.57009 0
M  V30 5995 H 558.927 -5.42439 -5.59803 0
M  V30 5996 N 563.156 0.464375 -1.50603 0
M  V30 5997 C 564.405 1.21277 -1.61167 0
M  V30 5998 C 564.718 1.92953 -0.320704 0
M  V30 5999 O 565.924 2.69778 -0.30534 0
M  V30 6000 C 564.38 2.20403 -2.84518 0
M  V30 6001 C 563.988 1.54499 -4.20516 0
M  V30 6002 C 565.732 2.95843 -3.0443 0
M  V30 6003 C 563.639 2.51951 -5.35047 0
M  V30 6004 H 562.569 0.456367 -0.600204 0
M  V30 6005 H 565.22 0.48254 -1.77042 0
M  V30 6006 H 563.602 2.96746 -2.62217 0
M  V30 6007 H 564.776 0.83899 -4.53098 0
M  V30 6008 H 563.091 0.913152 -4.06264 0
M  V30 6009 H 565.688 3.6879 -3.87167 0
M  V30 6010 H 566.031 3.55622 -2.16423 0
M  V30 6011 H 566.564 2.26611 -3.26944 0
M  V30 6012 H 563.303 1.96901 -6.25228 0
M  V30 6013 H 562.823 3.20683 -5.06875 0
M  V30 6014 H 564.502 3.13643 -5.65895 0
M  V30 6015 N 564.634 1.40294 0.718013 0
M  V30 6016 C 565.859 1.41941 1.5122 0
M  V30 6017 C 566.284 0.0202371 1.88089 0
M  V30 6018 O 565.642 -0.971078 1.53101 0
M  V30 6019 C 565.69 2.3141 2.76554 0
M  V30 6020 O 564.794 1.75567 3.73162 0
M  V30 6021 H 564.135 0.482644 0.456016 0
M  V30 6022 H 566.665 1.84494 0.884478 0
M  V30 6023 H 566.675 2.46513 3.25108 0
M  V30 6024 H 565.35 3.33085 2.49053 0
M  V30 6025 H 563.927 1.69798 3.31999 0
M  V30 6026 N 566.112 -0.949982 1.2575 0
M  V30 6027 C 567.075 -2.02894 1.06615 0
M  V30 6028 C 568.075 -1.60791 0.0173905 0
M  V30 6029 O 569.265 -1.72249 0.260003 0
M  V30 6030 C 566.397 -3.35219 0.619751 0
M  V30 6031 H 567.59 -2.21302 2.02399 0
M  V30 6032 H 565.143 -1.12772 1.08223 0
M  V30 6033 H 565.878 -3.22508 -0.340486 0
M  V30 6034 H 565.663 -3.67129 1.37692 0
M  V30 6035 H 567.153 -4.14505 0.507443 0
M  V30 6036 N 567.59 -1.07411 -1.15328 0
M  V30 6037 C 568.553 -0.698914 -2.18284 0
M  V30 6038 C 569.553 0.261149 -1.58665 0
M  V30 6039 O 570.743 0.0420277 -1.74149 0
M  V30 6040 C 567.875 -0.0302427 -3.40887 0
M  V30 6041 H 569.068 -1.61045 -2.52991 0
M  V30 6042 H 566.621 -0.870724 -1.298 0
M  V30 6043 H 567.356 0.893505 -3.11748 0
M  V30 6044 H 567.141 -0.720759 -3.85419 0
M  V30 6045 H 568.631 0.21759 -4.17033 0
M  V30 6046 N 569.068 1.32177 -0.85831 0
M  V30 6047 C 570.314 1.97417 -0.46417 0
M  V30 6048 C 570.647 1.67746 0.978514 0
M  V30 6049 O 569.922 0.967654 1.68721 0
M  V30 6050 C 570.205 3.53069 -0.708094 0
M  V30 6051 C 570.058 3.92357 -2.19946 0
M  V30 6052 C 571.377 4.39783 -0.166881 0
M  V30 6053 H 568.496 0.717097 -0.17012 0
M  V30 6054 H 571.138 1.56499 -1.07741 0
M  V30 6055 H 569.288 3.88054 -0.186128 0
M  V30 6056 H 570.96 3.67533 -2.78779 0
M  V30 6057 H 569.203 3.41384 -2.67656 0
M  V30 6058 H 569.874 5.00841 -2.32082 0
M  V30 6059 H 572.35 4.11556 -0.613285 0
M  V30 6060 H 571.226 5.47671 -0.367093 0
M  V30 6061 H 571.487 4.32196 0.930559 0
M  V30 6062 N 570.547 0.616602 1.45037 0
M  V30 6063 C 571.497 -0.118543 2.27692 0
M  V30 6064 C 572.481 -0.830025 1.37838 0
M  V30 6065 O 573.673 -0.718528 1.6176 0
M  V30 6066 C 570.802 -1.10924 3.24886 0
M  V30 6067 C 569.888 -0.398134 4.22227 0
M  V30 6068 N 570.279 0.565233 5.02632 0
M  V30 6069 C 568.577 -0.644506 4.41319 0
M  V30 6070 C 569.278 0.984043 5.73316 0
M  V30 6071 N 568.254 0.325879 5.42622 0
M  V30 6072 H 572.056 0.621239 2.87259 0
M  V30 6073 H 569.57 0.440968 1.56299 0
M  V30 6074 H 571.567 -1.65038 3.82842 0
M  V30 6075 H 570.227 -1.84948 2.66879 0
M  V30 6076 H 571.238 0.942395 5.09254 0
M  V30 6077 H 567.915 -1.36873 3.94426 0
M  V30 6078 H 569.305 1.77911 6.47918 0
M  V30 6079 N 572.025 -1.5352 0.356285 0
M  V30 6080 C 573.272 -2.01117 -0.236303 0
M  V30 6081 C 573.6 -1.24381 -1.49531 0
M  V30 6082 O 572.855 -0.323057 -1.93015 0
M  V30 6083 C 573.154 -3.52607 -0.583369 0
M  V30 6084 C 572.82 -4.47151 0.58023 0
M  V30 6085 C 571.482 -4.72718 0.899528 0
M  V30 6086 C 573.834 -5.03137 1.36024 0
M  V30 6087 C 571.162 -5.51523 2.00098 0
M  V30 6088 C 573.514 -5.83145 2.45204 0
M  V30 6089 C 572.178 -6.07001 2.77679 0
M  V30 6090 H 571.448 -0.735938 -0.0864695 0
M  V30 6091 H 574.095 -1.85209 0.48683 0
M  V30 6092 H 572.4 -3.66413 -1.38739 0
M  V30 6093 H 574.097 -3.86901 -1.05397 0
M  V30 6094 H 570.687 -4.27394 0.321322 0
M  V30 6095 H 574.871 -4.83339 1.12682 0
M  V30 6096 H 570.127 -5.68229 2.25668 0
M  V30 6097 H 574.301 -6.25537 3.06067 0
M  V30 6098 H 571.928 -6.67851 3.63151 0
M  V30 6099 N 573.503 -0.0852151 -1.57369 0
M  V30 6100 C 574.413 0.891712 -2.16992 0
M  V30 6101 C 575.429 1.3174 -1.13669 0
M  V30 6102 O 576.605 1.38735 -1.45995 0
M  V30 6103 C 573.67 2.13635 -2.73059 0
M  V30 6104 C 572.731 1.7658 -3.91303 0
M  V30 6105 C 571.964 2.95111 -4.44686 0
M  V30 6106 O 572.187 4.09539 -3.97032 0
M  V30 6107 O 571.121 2.74149 -5.35841 0
M  V30 6108 H 574.947 0.414477 -3.00858 0
M  V30 6109 H 572.532 0.138598 -1.48756 0
M  V30 6110 H 574.414 2.86595 -3.08935 0
M  V30 6111 H 573.089 2.6043 -1.92244 0
M  V30 6112 H 571.996 1.00831 -3.60255 0
M  V30 6113 H 573.329 1.34557 -4.7345 0
M  V30 6114 N 574.981 1.5647 0.188427 0
M  V30 6115 C 576.258 1.71857 0.934058 0
M  V30 6116 C 576.638 0.641867 2.01105 0
M  V30 6117 O 575.986 -0.346098 2.25864 0
M  V30 6118 C 576.196 3.14431 1.5144 0
M  V30 6119 C 577.544 3.74869 1.99396 0
M  V30 6120 O 578.568 3.17601 1.61269 0
M  V30 6121 O 577.427 4.75387 2.69573 0
M  V30 6122 H 574.521 0.701186 0.438483 0
M  V30 6123 H 577.067 1.68768 0.177599 0
M  V30 6124 H 575.839 3.8427 0.738416 0
M  V30 6125 H 575.462 3.21775 2.33552 0
M  V30 6126 N 576.459 -0.456382 1.50847 0
M  V30 6127 C 577.687 -1.23026 1.66349 0
M  V30 6128 C 578.102 -1.85473 0.352868 0
M  V30 6129 O 577.459 -1.69885 -0.666739 0
M  V30 6130 C 577.51 -2.32827 2.76539 0
M  V30 6131 O 577.231 -1.72938 4.02522 0
M  V30 6132 C 578.732 -3.23448 3.03144 0
M  V30 6133 H 575.952 -0.371527 0.558756 0
M  V30 6134 H 578.496 -0.543082 1.97157 0
M  V30 6135 H 576.651 -2.97294 2.48384 0
M  V30 6136 H 577.065 -2.45357 4.63573 0
M  V30 6137 H 578.539 -3.96669 3.83872 0
M  V30 6138 H 579.016 -3.83094 2.14793 0
M  V30 6139 H 579.622 -2.64702 3.32886 0
M  V30 6140 N 577.937 -1.40673 -0.710563 0
M  V30 6141 C 579.185 -1.38947 -1.46759 0
M  V30 6142 C 579.506 0.00572879 -1.94999 0
M  V30 6143 O 578.776 0.961358 -1.70689 0
M  V30 6144 H 577.356 -0.5114 -0.544499 0
M  V30 6145 H 580.018 -1.75773 -0.842012 0
M  V30 6146 H 579.114 -2.06745 -2.33801 0
M  V30 6147 N 579.415 0.9433 -1.26252 0
M  V30 6148 C 580.362 2.0417 -1.07625 0
M  V30 6149 C 581.332 1.6609 0.0180738 0
M  V30 6150 O 582.517 1.90276 -0.141289 0
M  V30 6151 C 579.657 3.37653 -0.713043 0
M  V30 6152 C 578.77 3.88783 -1.8834 0
M  V30 6153 C 577.905 5.10642 -1.4635 0
M  V30 6154 C 576.944 5.54028 -2.60229 0
M  V30 6155 N 576.081 6.67092 -2.18936 0
M  V30 6156 H 580.921 2.19436 -2.01623 0
M  V30 6157 H 578.458 1.07519 -1.00389 0
M  V30 6158 H 580.416 4.14391 -0.483358 0
M  V30 6159 H 579.046 3.22241 0.18996 0
M  V30 6160 H 578.098 3.08464 -2.22608 0
M  V30 6161 H 579.41 4.16922 -2.73821 0
M  V30 6162 H 578.564 5.94832 -1.19414 0
M  V30 6163 H 577.303 4.84244 -0.579568 0
M  V30 6164 H 576.308 4.68396 -2.87898 0
M  V30 6165 H 577.533 5.82429 -3.49219 0
M  V30 6166 H 575.479 6.42381 -1.32974 0
M  V30 6167 H 575.396 6.94806 -2.97961 0
M  V30 6168 H 576.664 7.54662 -1.95206 0
M  V30 6169 N 580.893 1.08022 1.14757 0
M  V30 6170 C 582.121 0.828847 1.89572 0
M  V30 6171 C 582.536 -0.618621 1.78377 0
M  V30 6172 O 581.893 -1.42482 1.1404 0
M  V30 6173 C 581.944 1.23677 3.39685 0
M  V30 6174 O 581.665 2.62746 3.50566 0
M  V30 6175 C 583.166 1.01569 4.31507 0
M  V30 6176 H 580.386 0.299196 0.600602 0
M  V30 6177 H 582.93 1.43846 1.45357 0
M  V30 6178 H 581.085 0.671347 3.81539 0
M  V30 6179 H 581.499 2.79573 4.43778 0
M  V30 6180 H 582.973 1.35055 5.35223 0
M  V30 6181 H 583.45 -0.0475433 4.39174 0
M  V30 6182 H 584.056 1.56636 3.95405 0
M  V30 6183 N 582.371 -1.3172 0.865308 0
M  V30 6184 C 583.301 -2.31109 0.333302 0
M  V30 6185 C 584.282 -1.60148 -0.573301 0
M  V30 6186 O 585.467 -1.87882 -0.491305 0
M  V30 6187 C 582.597 -3.44104 -0.470078 0
M  V30 6188 C 581.551 -4.26623 0.343021 0
M  V30 6189 C 580.877 -5.31482 -0.585756 0
M  V30 6190 C 582.177 -4.98001 1.57456 0
M  V30 6191 H 583.871 -2.75855 1.1638 0
M  V30 6192 H 581.417 -1.3262 0.561069 0
M  V30 6193 H 583.37 -4.12682 -0.852752 0
M  V30 6194 H 582.094 -2.98112 -1.33404 0
M  V30 6195 H 580.753 -3.59707 0.707583 0
M  V30 6196 H 580.401 -4.81741 -1.44686 0
M  V30 6197 H 580.101 -5.87582 -0.0456494 0
M  V30 6198 H 581.625 -6.0292 -0.965375 0
M  V30 6199 H 583.039 -5.59201 1.26359 0
M  V30 6200 H 581.436 -5.63876 2.05339 0
M  V30 6201 H 582.506 -4.25253 2.32997 0
M  V30 6202 N 583.85 -0.624285 -1.44708 0
M  V30 6203 C 584.779 0.0717025 -2.3339 0
M  V30 6204 C 585.76 0.841814 -1.47809 0
M  V30 6205 O 586.946 0.809056 -1.76544 0
M  V30 6206 C 584.076 1.05852 -3.30776 0
M  V30 6207 C 583.029 0.400503 -4.26122 0
M  V30 6208 C 582.356 1.49674 -5.13324 0
M  V30 6209 C 583.656 -0.688924 -5.17737 0
M  V30 6210 H 585.35 -0.668819 -2.91834 0
M  V30 6211 H 582.896 -0.32308 -1.40329 0
M  V30 6212 H 584.849 1.5541 -3.91696 0
M  V30 6213 H 583.572 1.82984 -2.70526 0
M  V30 6214 H 582.231 -0.0743687 -3.66525 0
M  V30 6215 H 581.88 2.25877 -4.49431 0
M  V30 6216 H 581.58 1.06188 -5.77926 0
M  V30 6217 H 583.104 1.99427 -5.77115 0
M  V30 6218 H 584.518 -0.276724 -5.72632 0
M  V30 6219 H 582.915 -1.04652 -5.90904 0
M  V30 6220 H 583.985 -1.55884 -4.5916 0
M  V30 6221 N 585.328 1.53329 -0.364422 0
M  V30 6222 C 586.575 2.01239 0.225634 0
M  V30 6223 C 586.903 1.25172 1.48869 0
M  V30 6224 O 586.158 0.333289 1.92841 0
M  V30 6225 C 586.457 3.52911 0.564661 0
M  V30 6226 C 586.123 4.46837 -0.603936 0
M  V30 6227 C 584.785 4.72234 -0.924585 0
M  V30 6228 C 587.137 5.02409 -1.38691 0
M  V30 6229 C 584.465 5.50454 -2.0302 0
M  V30 6230 C 586.817 5.81836 -2.48293 0
M  V30 6231 C 585.481 6.0552 -2.80894 0
M  V30 6232 H 584.751 0.736386 0.0825654 0
M  V30 6233 H 587.398 1.84948 -0.496645 0
M  V30 6234 H 585.703 3.67144 1.36794 0
M  V30 6235 H 587.4 3.87455 1.03344 0
M  V30 6236 H 583.99 4.27217 -0.343983 0
M  V30 6237 H 588.174 4.82735 -1.15243 0
M  V30 6238 H 583.43 5.67024 -2.28678 0
M  V30 6239 H 587.604 6.23905 -3.0938 0
M  V30 6240 H 585.231 6.65916 -3.66688 0
M  V30 6241 N 586.806 0.0935595 1.57322 0
M  V30 6242 C 588.031 -0.582324 1.99057 0
M  V30 6243 C 588.456 -1.61025 0.972242 0
M  V30 6244 O 587.814 -1.81202 -0.0594622 0
M  V30 6245 C 587.862 -1.20799 3.39765 0
M  V30 6246 O 586.966 -2.32382 3.40694 0
M  V30 6247 H 586.307 -0.147884 0.647323 0
M  V30 6248 H 588.837 0.174516 2.03854 0
M  V30 6249 H 588.847 -1.54966 3.77425 0
M  V30 6250 H 587.522 -0.454914 4.13405 0
M  V30 6251 H 586.099 -1.99845 3.14827 0
M  V30 6252 N 588.284 -1.56567 -0.180126 0
M  V30 6253 C 589.532 -1.81133 -0.896392 0
M  V30 6254 C 589.853 -0.669114 -1.83161 0
M  V30 6255 O 589.123 0.311616 -1.93406 0
M  V30 6256 H 587.703 -0.668172 -0.333999 0
M  V30 6257 H 590.365 -1.94048 -0.182051 0
M  V30 6258 H 589.461 -2.74854 -1.47857 0
M  V30 6259 N 589.762 0.448376 -1.51087 0
M  V30 6260 C 590.71 1.56407 -1.72161 0
M  V30 6261 C 591.704 1.58878 -0.587721 0
M  V30 6262 O 592.91 1.62755 -0.768822 0
M  V30 6263 H 589.285 0.519423 -0.543786 0
M  V30 6264 H 591.256 1.35803 -2.65707 0
M  V30 6265 C 590.005 2.94163 -1.85373 0
M  V30 6266 H 589.328 2.9299 -2.72024 0
M  V30 6267 H 590.768 3.71625 -2.04135 0
M  V30 6268 C 589.227 3.31317 -0.610803 0
M  V30 6269 O 589.757 4.00985 0.239636 0
M  V30 6270 N 587.963 2.86966 -0.458127 0
M  V30 6271 H 587.51 2.30443 -1.15124 0
M  V30 6272 H 587.468 3.12188 0.372289 0
M  V30 6273 N 591.24 1.41047 0.703093 0
M  V30 6274 C 592.172 1.38228 1.82827 0
M  V30 6275 C 593.185 0.285637 1.60275 0
M  V30 6276 O 594.374 0.54685 1.69917 0
M  V30 6277 C 591.474 1.13136 3.19458 0
M  V30 6278 C 590.647 2.34695 3.69103 0
M  V30 6279 C 589.706 2.05574 4.84382 0
M  V30 6280 O 588.732 2.78549 4.96386 0
M  V30 6281 N 589.934 1.04135 5.71083 0
M  V30 6282 H 592.699 2.35203 1.85741 0
M  V30 6283 H 590.26 1.35562 0.885125 0
M  V30 6284 H 592.252 0.916183 3.94193 0
M  V30 6285 H 590.822 0.247836 3.11616 0
M  V30 6286 H 590.042 2.71963 2.85359 0
M  V30 6287 H 591.33 3.15705 3.99009 0
M  V30 6288 H 590.728 0.43722 5.64008 0
M  V30 6289 H 589.285 0.886078 6.45749 0
M  V30 6290 N 592.718 -0.936591 1.26751 0
M  V30 6291 C 593.964 -1.6858 1.12733 0
M  V30 6292 C 594.297 -1.91414 -0.327745 0
M  V30 6293 O 593.572 -1.49812 -1.24043 0
M  V30 6294 C 593.855 -3.05779 1.90187 0
M  V30 6295 C 593.708 -2.90242 3.43627 0
M  V30 6296 C 595.027 -4.0597 1.69931 0
M  V30 6297 H 592.146 -0.61182 0.410908 0
M  V30 6298 H 594.788 -1.08747 1.55801 0
M  V30 6299 H 592.938 -3.56853 1.53584 0
M  V30 6300 H 594.61 -2.46354 3.9001 0
M  V30 6301 H 592.853 -2.2577 3.70419 0
M  V30 6302 H 593.524 -3.87572 3.93055 0
M  V30 6303 H 596 -3.63874 2.0183 0
M  V30 6304 H 594.876 -4.99974 2.26534 0
M  V30 6305 H 595.137 -4.37369 0.64502 0
M  V30 6306 N 594.196 -1.08629 -1.14182 0
M  V30 6307 C 595.442 -0.828415 -1.85766 0
M  V30 6308 C 595.797 0.638947 -1.81481 0
M  V30 6309 O 595.09 1.46386 -1.23619 0
M  V30 6310 C 595.284 -1.28734 -3.3341 0
M  V30 6311 C 595.113 -2.79778 -3.52071 0
M  V30 6312 C 593.883 -3.47554 -3.66789 0
M  V30 6313 C 596.081 -3.77945 -3.48801 0
M  V30 6314 N 594.063 -4.87107 -3.73631 0
M  V30 6315 C 595.434 -5.03406 -3.61914 0
M  V30 6316 C 597.489 -3.70917 -3.32152 0
M  V30 6317 C 596.192 -6.22673 -3.60098 0
M  V30 6318 C 598.218 -4.89662 -3.31641 0
M  V30 6319 C 597.58 -6.13962 -3.45296 0
M  V30 6320 H 593.679 -0.355884 -0.696327 0
M  V30 6321 H 596.263 -1.38508 -1.36834 0
M  V30 6322 H 594.434 -0.75822 -3.80927 0
M  V30 6323 H 596.166 -0.975649 -3.92764 0
M  V30 6324 H 592.921 -2.97972 -3.68116 0
M  V30 6325 H 593.345 -5.59775 -3.80763 0
M  V30 6326 H 597.987 -2.75749 -3.20504 0
M  V30 6327 H 595.705 -7.1815 -3.70522 0
M  V30 6328 H 599.291 -4.85914 -3.19968 0
M  V30 6329 H 598.171 -7.04307 -3.44851 0
M  V30 6330 N 595.674 1.31259 -0.872281 0
M  V30 6331 C 597.09 1.49283 -0.564521 0
M  V30 6332 C 597.29 1.80243 0.900807 0
M  V30 6333 O 596.346 1.88246 1.68284 0
M  V30 6334 C 597.659 2.62503 -1.46673 0
M  V30 6335 C 599.207 2.76386 -1.46901 0
M  V30 6336 C 599.682 3.92705 -2.35684 0
M  V30 6337 N 601.173 3.99995 -2.33577 0
M  V30 6338 C 601.908 4.89276 -2.98992 0
M  V30 6339 N 601.404 5.83443 -3.73585 0
M  V30 6340 N 603.197 4.82541 -2.88289 0
M  V30 6341 H 595.348 1.09432 -1.82039 0
M  V30 6342 H 597.611 0.540949 -0.77851 0
M  V30 6343 H 597.317 2.46407 -2.50951 0
M  V30 6344 H 597.191 3.58695 -1.16696 0
M  V30 6345 H 599.578 2.91894 -0.433796 0
M  V30 6346 H 599.659 1.80853 -1.80903 0
M  V30 6347 H 599.303 3.77954 -3.39283 0
M  V30 6348 H 599.233 4.87549 -1.99006 0
M  V30 6349 H 601.724 3.32624 -1.7936 0
M  V30 6350 H 602.037 6.48303 -4.20622 0
M  V30 6351 H 600.382 5.83415 -3.77694 0
M  V30 6352 H 603.573 4.07951 -2.2955 0
M  V30 6353 H 603.746 5.51916 -3.39549 0
M  V30 6354 N 597.152 0.631951 1.44375 0
M  V30 6355 C 598.382 0.143658 2.061 0
M  V30 6356 C 598.79 -1.18733 1.47306 0
M  V30 6357 O 598.133 -1.73943 0.590724 0
M  V30 6358 C 598.195 -0.0446102 3.59472 0
M  V30 6359 C 597.859 1.20835 4.40736 0
M  V30 6360 C 598.856 2.13224 4.74164 0
M  V30 6361 C 596.541 1.44399 4.81097 0
M  V30 6362 C 598.535 3.27487 5.46838 0
M  V30 6363 C 596.222 2.58959 5.53519 0
M  V30 6364 C 597.22 3.50329 5.86309 0
M  V30 6365 O 596.908 4.62891 6.57257 0
M  V30 6366 H 596.64 0.0772939 0.671567 0
M  V30 6367 H 599.194 0.866677 1.8622 0
M  V30 6368 H 597.424 -0.822783 3.77845 0
M  V30 6369 H 599.113 -0.487561 4.02961 0
M  V30 6370 H 599.879 1.96253 4.4352 0
M  V30 6371 H 595.758 0.741696 4.54994 0
M  V30 6372 H 599.302 3.98826 5.72349 0
M  V30 6373 H 595.199 2.75873 5.83579 0
M  V30 6374 H 595.967 4.61883 6.75726 0
M  V30 6375 N 598.631 -1.53133 0.372548 0
M  V30 6376 C 599.908 -1.93704 -0.271693 0
M  V30 6377 C 600.288 -1.30667 -1.65799 0
M  V30 6378 O 599.636 -0.46838 -2.23648 0
M  V30 6379 C 599.846 -3.47576 -0.314903 0
M  V30 6380 C 601.194 -4.20998 -0.551912 0
M  V30 6381 O 602.218 -3.53994 -0.39582 0
M  V30 6382 O 601.077 -5.39748 -0.85639 0
M  V30 6383 H 598.171 -0.810457 -0.164586 0
M  V30 6384 H 600.717 -1.6427 0.425838 0
M  V30 6385 H 599.489 -3.85749 0.656792 0
M  V30 6386 H 599.112 -3.83264 -1.05804 0
M  V30 6387 N 600.109 -0.101901 -1.5727 0
M  V30 6388 C 601.386 0.602832 -1.86079 0
M  V30 6389 C 601.766 1.85912 -1 0
M  V30 6390 O 601.114 2.28379 -0.0742488 0
M  V30 6391 C 601.324 0.911694 -3.36881 0
M  V30 6392 C 602.672 1.2722 -4.05093 0
M  V30 6393 O 603.696 1.0025 -3.41802 0
M  V30 6394 O 602.555 1.7776 -5.16782 0
M  V30 6395 H 599.649 0.302366 -0.769743 0
M  V30 6396 H 602.195 -0.135113 -1.69161 0
M  V30 6397 H 600.967 0.0207256 -3.91295 0
M  V30 6398 H 600.59 1.70538 -3.59169 0
M  V30 6399 N 601.587 1.56661 0.17182 0
M  V30 6400 C 602.815 1.861 0.904115 0
M  V30 6401 C 603.23 0.687227 1.75848 0
M  V30 6402 O 602.587 -0.343671 1.79235 0
M  V30 6403 C 602.638 3.14568 1.78127 0
M  V30 6404 O 602.359 4.27422 0.961366 0
M  V30 6405 C 603.86 3.5735 2.62327 0
M  V30 6406 H 601.08 0.617445 0.262684 0
M  V30 6407 H 603.624 2.03775 0.172068 0
M  V30 6408 H 601.779 2.98721 2.46666 0
M  V30 6409 H 602.193 5.00725 1.56123 0
M  V30 6410 H 603.667 4.50144 3.1949 0
M  V30 6411 H 604.144 2.81445 3.37173 0
M  V30 6412 H 604.75 3.75807 1.99121 0
M  V30 6413 N 603.065 -0.440357 1.51323 0
M  V30 6414 C 604.013 -1.55492 1.72988 0
M  V30 6415 C 605.007 -1.58564 0.596138 0
M  V30 6416 O 606.213 -1.62345 0.777443 0
M  V30 6417 H 602.588 -0.516532 0.546533 0
M  V30 6418 H 604.559 -1.34392 2.66423 0
M  V30 6419 C 603.308 -2.93176 1.86931 0
M  V30 6420 H 602.631 -2.91543 2.73574 0
M  V30 6421 H 604.071 -3.70537 2.06103 0
M  V30 6422 C 602.53 -3.30988 0.628365 0
M  V30 6423 O 603.06 -4.01106 -0.218367 0
M  V30 6424 N 601.266 -2.86719 0.473339 0
M  V30 6425 H 600.813 -2.2983 1.16345 0
M  V30 6426 H 600.771 -3.12381 -0.355727 0
M  V30 6427 N 604.543 -1.41418 -0.695603 0
M  V30 6428 C 605.493 -1.39731 -1.80165 0
M  V30 6429 C 606.477 -0.271689 -1.5859 0
M  V30 6430 O 607.669 -0.512354 -1.69422 0
M  V30 6431 C 604.798 -1.28187 -3.1847 0
M  V30 6432 C 603.884 -2.45612 -3.45739 0
M  V30 6433 N 604.275 -3.71077 -3.43708 0
M  V30 6434 C 602.573 -2.39424 -3.76288 0
M  V30 6435 C 603.274 -4.48957 -3.69882 0
M  V30 6436 N 602.25 -3.7907 -3.89624 0
M  V30 6437 H 606.052 -2.34656 -1.76957 0
M  V30 6438 H 603.566 -1.35473 -0.89559 0
M  V30 6439 H 605.563 -1.2506 -3.977 0
M  V30 6440 H 604.223 -0.342468 -3.22889 0
M  V30 6441 H 605.234 -4.03963 -3.2409 0
M  V30 6442 H 601.911 -1.53955 -3.88077 0
M  V30 6443 H 603.301 -5.57887 -3.74448 0
M  V30 6444 N 606.021 0.929856 -1.27246 0
M  V30 6445 C 607.27 1.67182 -1.12842 0
M  V30 6446 C 607.583 1.9287 0.325666 0
M  V30 6447 O 608.789 2.64999 0.590572 0
M  V30 6448 C 607.245 3.01097 -1.97151 0
M  V30 6449 C 606.853 2.83115 -3.47203 0
M  V30 6450 C 608.597 3.78907 -1.91389 0
M  V30 6451 C 606.504 4.12573 -4.23719 0
M  V30 6452 H 605.434 0.627064 -0.418697 0
M  V30 6453 H 608.085 1.0332 -1.51649 0
M  V30 6454 H 606.467 3.66004 -1.51186 0
M  V30 6455 H 607.641 2.26989 -4.01015 0
M  V30 6456 H 605.956 2.18736 -3.54321 0
M  V30 6457 H 608.553 4.74837 -2.45834 0
M  V30 6458 H 608.896 4.0674 -0.887047 0
M  V30 6459 H 609.429 3.20794 -2.35237 0
M  V30 6460 H 606.168 3.8992 -5.26918 0
M  V30 6461 H 605.688 4.68371 -3.74685 0
M  V30 6462 H 607.367 4.8095 -4.32777 0
M  V30 6463 N 607.499 1.09233 1.13605 0
M  V30 6464 C 608.432 0.6739 2.18023 0
M  V30 6465 C 609.41 -0.318603 1.59448 0
M  V30 6466 O 610.594 -0.220452 1.87206 0
M  V30 6467 C 607.721 -0.00751458 3.38699 0
M  V30 6468 C 606.767 0.946481 4.15865 0
M  V30 6469 S 607.6 2.45753 4.75779 0
M  V30 6470 C 608.756 1.78846 5.99804 0
M  V30 6471 H 608.989 1.55846 2.53178 0
M  V30 6472 H 606.522 0.908118 1.2487 0
M  V30 6473 H 608.48 -0.394368 4.08601 0
M  V30 6474 H 607.141 -0.868693 3.01849 0
M  V30 6475 H 606.334 0.416742 5.02274 0
M  V30 6476 H 605.936 1.27464 3.51609 0
M  V30 6477 H 608.228 1.11135 6.68323 0
M  V30 6478 H 609.171 2.63163 6.57382 0
M  V30 6479 H 609.579 1.25823 5.50299 0
M  V30 6480 N 608.977 -1.30795 0.87923 0
M  V30 6481 C 610.254 -1.91145 0.415086 0
M  V30 6482 C 610.634 -1.7995 -1.10368 0
M  V30 6483 O 609.982 -1.21305 -1.93642 0
M  V30 6484 C 610.192 -3.37014 0.906778 0
M  V30 6485 C 611.54 -4.14101 0.938358 0
M  V30 6486 O 612.564 -3.45834 0.853053 0
M  V30 6487 O 611.423 -5.36054 1.06342 0
M  V30 6488 H 608.517 -0.81736 0.125905 0
M  V30 6489 H 611.063 -1.39401 0.967753 0
M  V30 6490 H 609.835 -3.3922 1.95053 0
M  V30 6491 H 609.458 -3.96204 0.332948 0
M  V30 6492 N 610.455 -0.639598 -1.44038 0
M  V30 6493 C 611.402 0.0602458 -2.30721 0
M  V30 6494 C 612.372 0.828352 -1.43971 0
M  V30 6495 O 613.557 0.807693 -1.72861 0
M  V30 6496 C 610.697 1.03008 -3.29368 0
M  V30 6497 C 609.81 0.259502 -4.3122 0
M  V30 6498 C 608.945 1.22191 -5.16955 0
M  V30 6499 C 607.984 0.440978 -6.10509 0
M  V30 6500 N 607.121 1.35428 -6.88915 0
M  V30 6501 H 611.961 -0.684867 -2.90023 0
M  V30 6502 H 609.498 -0.349509 -1.42888 0
M  V30 6503 H 611.456 1.60583 -3.85057 0
M  V30 6504 H 610.086 1.74222 -2.71747 0
M  V30 6505 H 609.138 -0.432317 -3.77935 0
M  V30 6506 H 610.45 -0.348347 -4.97582 0
M  V30 6507 H 609.604 1.86873 -5.77203 0
M  V30 6508 H 608.343 1.86367 -4.50687 0
M  V30 6509 H 607.348 -0.219279 -5.49363 0
M  V30 6510 H 608.573 -0.196192 -6.78817 0
M  V30 6511 H 606.519 1.9831 -6.25307 0
M  V30 6512 H 606.436 0.800657 -7.51748 0
M  V30 6513 H 607.704 1.98967 -7.53679 0
M  V30 6514 N 611.933 1.52934 -0.380664 0
M  V30 6515 C 613.21 1.93845 0.261417 0
M  V30 6516 C 613.59 1.31544 1.65104 0
M  V30 6517 O 612.938 0.480234 2.23397 0
M  V30 6518 C 613.148 3.47739 0.296466 0
M  V30 6519 C 614.496 4.21284 0.529578 0
M  V30 6520 O 615.52 3.54199 0.377041 0
M  V30 6521 O 614.379 5.40195 0.827753 0
M  V30 6522 H 611.473 0.811318 0.160285 0
M  V30 6523 H 614.019 1.64042 -0.434544 0
M  V30 6524 H 612.791 3.85395 -0.67724 0
M  V30 6525 H 612.414 3.8382 1.0377 0
M  V30 6526 N 613.412 0.11024 1.57214 0
M  V30 6527 C 614.642 -0.557025 1.98949 0
M  V30 6528 C 615.05 -1.61317 0.988606 0
M  V30 6529 O 614.393 -1.83679 -0.0279159 0
M  V30 6530 C 614.455 -1.24956 3.37085 0
M  V30 6531 C 614.119 -0.342398 4.55716 0
M  V30 6532 C 615.116 0.415511 5.18237 0
M  V30 6533 C 612.801 -0.256029 5.01647 0
M  V30 6534 C 614.795 1.24761 6.25071 0
M  V30 6535 C 612.482 0.579713 6.08344 0
M  V30 6536 C 613.48 1.33017 6.69922 0
M  V30 6537 O 613.168 2.15205 7.74559 0
M  V30 6538 H 612.9 -0.152792 0.658506 0
M  V30 6539 H 615.454 0.19076 2.04512 0
M  V30 6540 H 613.684 -2.04424 3.2825 0
M  V30 6541 H 615.373 -1.81286 3.63167 0
M  V30 6542 H 616.139 0.358605 4.83672 0
M  V30 6543 H 612.018 -0.829831 4.5347 0
M  V30 6544 H 615.562 1.83386 6.73064 0
M  V30 6545 H 611.459 0.638044 6.42339 0
M  V30 6546 H 612.227 2.08052 7.91617 0
M  V30 6547 N 614.89 -1.56749 -0.16351 0
M  V30 6548 C 616.301 -1.72039 -0.725216 0
M  V30 6549 C 616.652 -0.72202 -1.82432 0
M  V30 6550 O 615.777 0.114942 -2.16095 0
M  V30 6551 C 616.372 -3.11932 -1.32227 0
M  V30 6552 C 614.931 -3.28879 -1.83072 0
M  V30 6553 C 614.078 -2.67984 -0.712716 0
M  V30 6554 H 617.029 -1.58579 0.0619772 0
M  V30 6555 H 617.05 -3.11015 -2.19202 0
M  V30 6556 H 616.562 -3.84572 -0.522103 0
M  V30 6557 H 614.663 -2.61209 -2.65708 0
M  V30 6558 H 614.776 -4.36688 -1.97079 0
M  V30 6559 H 613.14 -2.28005 -1.13515 0
M  V30 6560 H 613.923 -3.43216 0.0757361 0
M  V30 6561 N 616.368 0.432326 -1.51554 0
M  V30 6562 C 617.784 0.769195 -1.39841 0
M  V30 6563 C 617.984 1.95584 -0.484675 0
M  V30 6564 O 617.04 2.52433 0.0582829 0
M  V30 6565 C 618.353 1.04487 -2.81963 0
M  V30 6566 C 619.901 1.149 -2.91148 0
M  V30 6567 C 620.376 1.45758 -4.34187 0
M  V30 6568 N 621.867 1.52671 -4.37317 0
M  V30 6569 C 622.602 1.78129 -5.4503 0
M  V30 6570 N 622.098 2.01345 -6.62897 0
M  V30 6571 N 623.891 1.79953 -5.32516 0
M  V30 6572 H 616.042 -0.349122 -2.09511 0
M  V30 6573 H 618.305 -0.0938113 -0.943347 0
M  V30 6574 H 618.011 0.24557 -3.50842 0
M  V30 6575 H 617.885 1.97119 -3.21596 0
M  V30 6576 H 620.272 1.93891 -2.22464 0
M  V30 6577 H 620.353 0.201568 -2.55005 0
M  V30 6578 H 619.997 0.672917 -5.03423 0
M  V30 6579 H 619.927 2.41715 -4.67848 0
M  V30 6580 H 622.418 1.36612 -3.52343 0
M  V30 6581 H 622.731 2.20155 -7.40778 0
M  V30 6582 H 621.076 1.98657 -6.66003 0
M  V30 6583 H 624.267 1.61337 -4.39418 0
M  V30 6584 H 624.44 1.99455 -6.1654 0
M  V30 6585 N 617.846 1.41785 0.688094 0
M  V30 6586 C 618.776 1.47 1.8142 0
M  V30 6587 C 619.757 0.327881 1.6691 0
M  V30 6588 O 620.942 0.540362 1.86531 0
M  V30 6589 C 618.072 1.35876 3.19617 0
M  V30 6590 C 617.026 2.47976 3.48844 0
M  V30 6591 C 616.352 2.21915 4.86475 0
M  V30 6592 C 617.652 3.90309 3.47068 0
M  V30 6593 H 619.346 2.41247 1.77314 0
M  V30 6594 H 616.892 1.16116 0.851651 0
M  V30 6595 H 618.845 1.38134 3.98117 0
M  V30 6596 H 617.569 0.38116 3.24368 0
M  V30 6597 H 616.228 2.45013 2.72698 0
M  V30 6598 H 615.876 1.2248 4.8786 0
M  V30 6599 H 615.576 2.97037 5.06994 0
M  V30 6600 H 617.1 2.25901 5.67275 0
M  V30 6601 H 618.514 3.94947 4.1556 0
M  V30 6602 H 616.911 4.65175 3.7912 0
M  V30 6603 H 617.981 4.17927 2.45896 0
M  V30 6604 N 619.324 -0.923095 1.27737 0
M  V30 6605 C 620.573 -1.66581 1.13727 0
M  V30 6606 C 620.886 -1.9304 -0.315433 0
M  V30 6607 O 622.092 -2.65309 -0.57651 0
M  V30 6608 C 620.548 -3.00047 1.98745 0
M  V30 6609 C 620.156 -2.8127 3.48699 0
M  V30 6610 C 621.9 -3.77887 1.93395 0
M  V30 6611 C 619.807 -4.1032 4.25901 0
M  V30 6612 H 618.737 -0.624834 0.422017 0
M  V30 6613 H 621.388 -1.02514 1.52194 0
M  V30 6614 H 619.77 -3.65197 1.53125 0
M  V30 6615 H 620.944 -2.24859 4.02213 0
M  V30 6616 H 619.259 -2.16854 3.55476 0
M  V30 6617 H 621.856 -4.73526 2.48348 0
M  V30 6618 H 622.199 -4.06264 0.908605 0
M  V30 6619 H 622.732 -3.19541 2.36935 0
M  V30 6620 H 619.471 -3.8712 5.28978 0
M  V30 6621 H 618.991 -4.66377 3.77163 0
M  V30 6622 H 620.67 -4.78648 4.35321 0
M  V30 6623 N 620.802 -1.09834 -1.13024 0
M  V30 6624 C 621.712 -0.753731 -2.22162 0
M  V30 6625 C 622.728 0.246105 -1.72251 0
M  V30 6626 O 623.904 0.0864051 -2.01215 0
M  V30 6627 C 620.969 -0.183958 -3.46212 0
M  V30 6628 C 620.03 -1.24028 -4.10993 0
M  V30 6629 C 619.263 -0.697597 -5.29121 0
M  V30 6630 O 619.486 0.478092 -5.68393 0
M  V30 6631 O 618.42 -1.4546 -5.84059 0
M  V30 6632 H 622.246 -1.66456 -2.5402 0
M  V30 6633 H 619.831 -0.873026 -1.21238 0
M  V30 6634 H 621.713 0.130257 -4.21199 0
M  V30 6635 H 620.388 0.699823 -3.16045 0
M  V30 6636 H 619.295 -1.60725 -3.37814 0
M  V30 6637 H 620.628 -2.09685 -4.45301 0
M  V30 6638 N 622.28 1.30327 -0.886154 0
M  V30 6639 C 623.19 2.31854 -0.357866 0
M  V30 6640 C 624.206 1.65392 0.540502 0
M  V30 6641 O 625.382 1.96683 0.433339 0
M  V30 6642 C 622.447 3.44171 0.417999 0
M  V30 6643 C 621.508 4.26257 -0.510263 0
M  V30 6644 C 620.741 5.3321 0.228669 0
M  V30 6645 O 620.964 5.51542 1.45458 0
M  V30 6646 O 619.898 6.0042 -0.421832 0
M  V30 6647 H 623.724 2.78995 -1.19982 0
M  V30 6648 H 621.309 1.34518 -0.650028 0
M  V30 6649 H 623.191 4.12588 0.857251 0
M  V30 6650 H 621.866 2.99164 1.23623 0
M  V30 6651 H 620.773 3.60533 -0.99835 0
M  V30 6652 H 622.106 4.74871 -1.29454 0
M  V30 6653 N 623.758 0.647228 1.43697 0
M  V30 6654 C 625.035 0.0883758 1.954 0
M  V30 6655 C 625.415 -1.39006 1.58873 0
M  V30 6656 O 624.763 -2.11255 0.87083 0
M  V30 6657 C 624.973 0.328263 3.47453 0
M  V30 6658 C 626.321 0.230009 4.23977 0
M  V30 6659 O 627.345 0.260496 3.55246 0
M  V30 6660 O 626.204 0.148615 5.46298 0
M  V30 6661 H 623.298 -0.0130683 0.826897 0
M  V30 6662 H 625.844 0.72005 1.53666 0
M  V30 6663 H 624.616 1.3535 3.67146 0
M  V30 6664 H 624.239 -0.336772 3.96171 0
M  V30 6665 N 625.236 -1.5273 0.388769 0
M  V30 6666 C 626.483 -2.01573 -0.19359 0
M  V30 6667 C 626.811 -1.27525 -1.46859 0
M  V30 6668 O 626.066 -0.363926 -1.92286 0
M  V30 6669 C 626.365 -3.53765 -0.508445 0
M  V30 6670 C 626.031 -4.4582 0.674947 0
M  V30 6671 C 624.693 -4.70703 0.999596 0
M  V30 6672 C 627.045 -5.00138 1.46666 0
M  V30 6673 C 624.373 -5.47155 2.11751 0
M  V30 6674 C 626.725 -5.77812 2.57518 0
M  V30 6675 C 625.389 -6.00975 2.90492 0
M  V30 6676 H 624.659 -0.737606 -0.0708397 0
M  V30 6677 H 627.306 -1.84134 0.526006 0
M  V30 6678 H 625.611 -3.69274 -1.30936 0
M  V30 6679 H 627.308 -3.8905 -0.971664 0
M  V30 6680 H 623.898 -4.26616 0.411906 0
M  V30 6681 H 628.082 -4.8084 1.22909 0
M  V30 6682 H 623.338 -5.63314 2.3767 0
M  V30 6683 H 627.512 -6.18904 3.19267 0
M  V30 6684 H 625.139 -6.59998 3.77236 0
M  V30 6685 N 626.714 -0.118576 -1.57153 0
M  V30 6686 C 628.125 0.40687 -1.82213 0
M  V30 6687 C 628.476 1.66636 -1.03571 0
M  V30 6688 O 627.601 2.14682 -0.272171 0
M  V30 6689 C 628.196 0.744949 -3.30509 0
M  V30 6690 C 626.755 1.21503 -3.5625 0
M  V30 6691 C 625.902 0.223511 -2.76398 0
M  V30 6692 H 628.853 -0.343712 -1.54933 0
M  V30 6693 H 628.874 1.6024 -3.45114 0
M  V30 6694 H 628.386 -0.171911 -3.87719 0
M  V30 6695 H 626.487 2.1488 -3.04396 0
M  V30 6696 H 626.6 1.16065 -4.64829 0
M  V30 6697 H 624.964 0.71046 -2.44591 0
M  V30 6698 H 625.747 -0.686439 -3.36367 0
M  V30 6699 N 628.193 1.56834 0.155195 0
M  V30 6700 C 629.441 1.82536 0.867462 0
M  V30 6701 C 629.762 0.698168 1.82073 0
M  V30 6702 O 629.032 -0.280807 1.93877 0
M  V30 6703 H 627.612 0.673401 0.323327 0
M  V30 6704 H 630.274 1.94313 0.151156 0
M  V30 6705 H 629.37 2.77171 1.43466 0
M  V30 6706 N 629.671 -0.424282 1.51781 0
M  V30 6707 C 630.92 -1.16961 1.64326 0
M  V30 6708 C 631.233 -1.92035 0.371749 0
M  V30 6709 O 632.439 -2.68873 0.37676 0
M  V30 6710 C 630.895 -2.12782 2.90262 0
M  V30 6711 C 630.503 -1.43295 4.24465 0
M  V30 6712 C 632.247 -2.87667 3.12166 0
M  V30 6713 C 630.154 -2.37676 5.41538 0
M  V30 6714 H 629.084 -0.440293 0.612093 0
M  V30 6715 H 631.735 -0.435431 1.78259 0
M  V30 6716 H 630.117 -2.8969 2.69992 0
M  V30 6717 H 631.291 -0.718564 4.55163 0
M  V30 6718 H 629.606 -0.805118 4.08542 0
M  V30 6719 H 632.203 -3.58395 3.96808 0
M  V30 6720 H 632.546 -3.49758 2.25776 0
M  V30 6721 H 633.079 -2.17863 3.32837 0
M  V30 6722 H 629.818 -1.80255 6.30229 0
M  V30 6723 H 629.338 -3.07132 5.15199 0
M  V30 6724 H 631.017 -2.98529 5.74012 0
M  V30 6725 N 631.149 -1.42148 -0.680565 0
M  V30 6726 C 632.397 -1.42029 -1.43779 0
M  V30 6727 C 632.718 -0.0356347 -1.94967 0
M  V30 6728 O 631.988 0.924936 -1.7269 0
M  V30 6729 H 630.568 -0.522835 -0.533529 0
M  V30 6730 H 633.23 -1.7752 -0.804538 0
M  V30 6731 H 632.326 -2.11658 -2.29363 0
M  V30 6732 N 632.627 0.916307 -1.28225 0
M  V30 6733 C 633.904 1.64429 -1.05936 0
M  V30 6734 C 634.284 2.07234 0.402139 0
M  V30 6735 O 633.632 1.81535 1.3877 0
M  V30 6736 C 633.842 2.83773 -2.03159 0
M  V30 6737 C 635.19 3.54852 -2.33164 0
M  V30 6738 O 636.214 2.93918 -2.01223 0
M  V30 6739 O 635.073 4.64663 -2.87664 0
M  V30 6740 H 632.167 0.721221 -0.404683 0
M  V30 6741 H 634.713 0.965838 -1.39534 0
M  V30 6742 H 633.485 2.49217 -3.01673 0
M  V30 6743 H 633.108 3.59333 -1.70192 0
M  V30 6744 N 634.105 1.10431 1.1244 0
M  V30 6745 C 635.052 0.753103 2.18167 0
M  V30 6746 C 636.022 -0.270549 1.63882 0
M  V30 6747 O 637.207 -0.149837 1.90211 0
M  V30 6748 C 634.347 0.191046 3.44571 0
M  V30 6749 C 633.46 1.26999 4.12911 0
M  V30 6750 C 632.595 0.669586 5.26963 0
M  V30 6751 C 631.634 1.72912 5.87169 0
M  V30 6752 N 630.771 1.14898 6.92635 0
M  V30 6753 H 635.611 1.65892 2.47556 0
M  V30 6754 H 633.148 0.828631 1.21541 0
M  V30 6755 H 635.106 -0.152712 4.1692 0
M  V30 6756 H 633.736 -0.677997 3.15599 0
M  V30 6757 H 632.788 1.73087 3.3874 0
M  V30 6758 H 634.1 2.07204 4.53727 0
M  V30 6759 H 633.254 0.275274 6.06075 0
M  V30 6760 H 631.993 -0.163895 4.87425 0
M  V30 6761 H 630.998 2.13286 5.06744 0
M  V30 6762 H 632.223 2.56544 6.28778 0
M  V30 6763 H 630.169 0.336956 6.55134 0
M  V30 6764 H 630.086 1.88786 7.32049 0
M  V30 6765 H 631.354 0.78121 7.75576 0
M  V30 6766 N 635.583 -1.29855 0.893053 0
M  V30 6767 C 636.829 -1.96116 0.516349 0
M  V30 6768 C 637.162 -1.70281 -0.933695 0
M  V30 6769 O 636.437 -1.01205 -1.66096 0
M  V30 6770 C 636.72 -3.51068 0.801455 0
M  V30 6771 C 636.573 -3.86387 2.30272 0
M  V30 6772 C 637.892 -4.39186 0.283423 0
M  V30 6773 H 635.011 -0.712335 0.189072 0
M  V30 6774 H 637.653 -1.53587 1.11852 0
M  V30 6775 H 635.803 -3.87424 0.288949 0
M  V30 6776 H 637.475 -3.60012 2.88425 0
M  V30 6777 H 635.718 -3.34167 2.76613 0
M  V30 6778 H 636.389 -4.94512 2.45279 0
M  V30 6779 H 638.865 -4.09785 0.722187 0
M  V30 6780 H 637.741 -5.46505 0.512169 0
M  V30 6781 H 638.002 -4.34511 -0.815643 0
M  V30 6782 N 637.061 -0.65484 -1.43351 0
M  V30 6783 C 638.338 -0.0987371 -1.95351 0
M  V30 6784 C 638.718 1.38161 -1.59608 0
M  V30 6785 O 638.066 2.10791 -0.882021 0
M  V30 6786 C 638.276 -0.346684 -3.47274 0
M  V30 6787 C 639.624 -0.25249 -4.23849 0
M  V30 6788 O 640.648 -0.279332 -3.55103 0
M  V30 6789 O 639.507 -0.177584 -5.46211 0
M  V30 6790 H 636.601 0.0086829 -0.826954 0
M  V30 6791 H 639.147 -0.728189 -1.53282 0
M  V30 6792 H 637.919 -1.37296 -3.66423 0
M  V30 6793 H 637.542 0.315757 -3.96344 0
M  V30 6794 N 638.539 1.52521 -0.396863 0
M  V30 6795 C 639.502 2.2527 0.422604 0
M  V30 6796 C 640.502 1.27184 0.983913 0
M  V30 6797 O 641.692 1.51222 0.864723 0
M  V30 6798 C 638.824 3.01356 1.59365 0
M  V30 6799 H 640.017 2.99133 -0.214416 0
M  V30 6800 H 637.57 1.55587 -0.149128 0
M  V30 6801 H 638.305 2.31813 2.26789 0
M  V30 6802 H 638.09 3.73357 1.19779 0
M  V30 6803 H 639.58 3.56571 2.17363 0
M  V30 6804 N 640.017 0.126909 1.57088 0
M  V30 6805 C 641.263 -0.529952 1.95753 0
M  V30 6806 C 641.596 -1.65823 1.01077 0
M  V30 6807 O 640.871 -1.94437 0.0494162 0
M  V30 6808 C 641.154 -1.05517 3.44294 0
M  V30 6809 C 641.007 0.0702253 4.49745 0
M  V30 6810 C 642.326 -1.9435 3.94862 0
M  V30 6811 H 639.445 -0.191168 0.711775 0
M  V30 6812 H 642.087 0.204071 1.88901 0
M  V30 6813 H 640.237 -1.68069 3.50264 0
M  V30 6814 H 641.909 0.705834 4.55868 0
M  V30 6815 H 640.152 0.732259 4.27575 0
M  V30 6816 H 640.823 -0.338642 5.5096 0
M  V30 6817 H 643.299 -1.41658 3.91244 0
M  V30 6818 H 642.175 -2.28015 4.993 0
M  V30 6819 H 642.436 -2.87299 3.36024 0
M  V30 6820 N 641.495 -1.56914 -0.146875 0
M  V30 6821 C 642.725 -1.87243 -0.873126 0
M  V30 6822 C 643.133 -0.713127 -1.75246 0
M  V30 6823 O 642.476 0.326228 -1.8078 0
M  V30 6824 C 642.538 -3.12279 -1.78107 0
M  V30 6825 C 642.202 -4.44082 -1.07889 0
M  V30 6826 C 643.199 -5.18096 -0.432734 0
M  V30 6827 C 640.884 -4.90807 -1.06836 0
M  V30 6828 C 642.878 -6.37039 0.214569 0
M  V30 6829 C 640.565 -6.09674 -0.417243 0
M  V30 6830 C 641.563 -6.82636 0.223093 0
M  V30 6831 O 641.251 -7.99245 0.863884 0
M  V30 6832 H 640.983 -0.624896 -0.257839 0
M  V30 6833 H 643.537 -2.04892 -0.14434 0
M  V30 6834 H 641.767 -2.90639 -2.5508 0
M  V30 6835 H 643.456 -3.28854 -2.37929 0
M  V30 6836 H 644.222 -4.83066 -0.432677 0
M  V30 6837 H 640.101 -4.3394 -1.55618 0
M  V30 6838 H 643.645 -6.93927 0.714965 0
M  V30 6839 H 639.542 -6.44165 -0.414967 0
M  V30 6840 H 640.31 -8.14912 0.765564 0
M  V30 6841 N 642.974 0.416227 -1.52004 0
M  V30 6842 C 643.884 1.53147 -1.77717 0
M  V30 6843 C 644.9 1.609 -0.662368 0
M  V30 6844 O 646.076 1.77747 -0.946991 0
M  V30 6845 C 643.141 2.88948 -1.91598 0
M  V30 6846 C 642.202 2.9114 -3.15493 0
M  V30 6847 C 641.435 4.20464 -3.28703 0
M  V30 6848 O 641.658 5.13981 -2.47345 0
M  V30 6849 O 640.592 4.29368 -4.21813 0
M  V30 6850 H 644.418 1.34357 -2.72363 0
M  V30 6851 H 642.003 0.601373 -1.36762 0
M  V30 6852 H 643.885 3.69505 -2.02593 0
M  V30 6853 H 642.56 3.07821 -1.00141 0
M  V30 6854 H 641.467 2.09461 -3.09962 0
M  V30 6855 H 642.8 2.77216 -4.06709 0
M  V30 6856 N 644.452 1.42507 0.673017 0
M  V30 6857 C 645.399 1.46124 1.78651 0
M  V30 6858 C 646.369 0.313007 1.63124 0
M  V30 6859 O 647.554 0.517337 1.83653 0
M  V30 6860 C 644.694 1.3711 3.16694 0
M  V30 6861 C 643.807 2.61983 3.43495 0
M  V30 6862 C 642.942 2.45098 4.71275 0
M  V30 6863 C 641.981 3.65336 4.91117 0
M  V30 6864 N 641.118 3.47383 6.10139 0
M  V30 6865 H 645.958 2.4128 1.74895 0
M  V30 6866 H 643.495 1.19788 0.853766 0
M  V30 6867 H 645.453 1.29881 3.96468 0
M  V30 6868 H 644.083 0.45549 3.1957 0
M  V30 6869 H 643.135 2.79571 2.57961 0
M  V30 6870 H 644.447 3.51355 3.5405 0
M  V30 6871 H 643.601 2.35466 5.59143 0
M  V30 6872 H 642.34 1.53219 4.63007 0
M  V30 6873 H 641.345 3.754 4.0169 0
M  V30 6874 H 642.57 4.58199 5.01229 0
M  V30 6875 H 640.516 2.58222 6.0304 0
M  V30 6876 H 640.433 4.30344 6.21563 0
M  V30 6877 H 641.701 3.41565 7.00681 0
M  V30 6878 N 645.93 -0.909495 1.28709 0
M  V30 6879 C 646.878 -2.03381 1.12866 0
M  V30 6880 C 647.872 -1.69335 0.0468074 0
M  V30 6881 O 649.078 -1.78819 0.205891 0
M  V30 6882 H 645.453 -0.666452 0.348348 0
M  V30 6883 H 647.424 -2.13885 2.08077 0
M  V30 6884 C 646.173 -3.38092 0.811742 0
M  V30 6885 H 645.496 -3.64786 1.63619 0
M  V30 6886 H 646.936 -4.17477 0.740869 0
M  V30 6887 C 645.395 -3.33395 -0.484679 0
M  V30 6888 O 645.925 -3.72089 -1.5137 0
M  V30 6889 N 644.131 -2.86491 -0.486961 0
M  V30 6890 H 643.678 -2.55199 0.350877 0
M  V30 6891 H 643.636 -2.83731 -1.3544 0
M  V30 6892 N 647.408 -1.11026 -1.11852 0
M  V30 6893 C 648.656 -0.854769 -1.83134 0
M  V30 6894 C 648.977 0.621375 -1.84835 0
M  V30 6895 O 648.247 1.45129 -1.31584 0
M  V30 6896 H 646.827 -0.313229 -0.678157 0
M  V30 6897 H 649.489 -1.40178 -1.35411 0
M  V30 6898 H 648.585 -1.22311 -2.87135 0
M  V30 6899 N 648.886 1.2938 -0.899927 0
M  V30 6900 C 650.116 1.99402 -0.540601 0
M  V30 6901 C 650.524 1.67534 0.87914 0
M  V30 6902 O 649.867 0.916821 1.59186 0
M  V30 6903 C 649.929 3.53514 -0.653326 0
M  V30 6904 C 649.593 4.08937 -2.04009 0
M  V30 6905 C 650.59 4.23815 -3.01126 0
M  V30 6906 C 648.275 4.43962 -2.34953 0
M  V30 6907 C 650.269 4.72951 -4.27313 0
M  V30 6908 C 647.956 4.92795 -3.61382 0
M  V30 6909 C 648.954 5.07244 -4.57376 0
M  V30 6910 O 648.642 5.55017 -5.8156 0
M  V30 6911 H 648.374 0.64383 -0.206057 0
M  V30 6912 H 650.928 1.65878 -1.21134 0
M  V30 6913 H 649.158 3.86628 0.0744449 0
M  V30 6914 H 650.847 4.04767 -0.303118 0
M  V30 6915 H 651.613 3.97043 -2.78535 0
M  V30 6916 H 647.492 4.31974 -1.60994 0
M  V30 6917 H 651.036 4.84144 -5.02245 0
M  V30 6918 H 646.933 5.19004 -3.83804 0
M  V30 6919 H 647.701 5.73331 -5.84153 0
M  V30 6920 N 650.364 0.662433 1.43002 0
M  V30 6921 C 651.613 0.176873 2.00923 0
M  V30 6922 C 651.926 -1.21954 1.52927 0
M  V30 6923 O 653.132 -1.80081 2.03182 0
M  V30 6924 C 651.588 0.265379 3.5892 0
M  V30 6925 C 651.196 1.66507 4.15908 0
M  V30 6926 C 652.94 -0.162103 4.2419 0
M  V30 6927 C 650.847 1.707 5.66229 0
M  V30 6928 H 649.777 0.0623627 0.751417 0
M  V30 6929 H 652.428 0.825813 1.63868 0
M  V30 6930 H 650.81 -0.451235 3.93421 0
M  V30 6931 H 651.984 2.40777 3.92891 0
M  V30 6932 H 650.299 2.03932 3.63044 0
M  V30 6933 H 652.896 -0.150745 5.34487 0
M  V30 6934 H 653.239 -1.19519 3.98774 0
M  V30 6935 H 653.772 0.503075 3.94606 0
M  V30 6936 H 650.511 2.7195 5.96426 0
M  V30 6937 H 650.031 1.00768 5.91275 0
M  V30 6938 H 651.71 1.45487 6.3043 0
M  V30 6939 N 651.842 -1.52309 0.404946 0
M  V30 6940 C 653.072 -2.05886 -0.171569 0
M  V30 6941 C 653.48 -1.27527 -1.39762 0
M  V30 6942 O 652.823 -0.319215 -1.80905 0
M  V30 6943 C 652.885 -3.54609 -0.590983 0
M  V30 6944 C 652.549 -4.53989 0.523757 0
M  V30 6945 C 653.546 -5.01084 1.38604 0
M  V30 6946 C 651.231 -4.97465 0.695255 0
M  V30 6947 C 653.225 -5.90295 2.4048 0
M  V30 6948 C 650.912 -5.86473 1.71733 0
M  V30 6949 C 651.91 -6.32782 2.57051 0
M  V30 6950 O 651.598 -7.20029 3.57509 0
M  V30 6951 H 651.33 -0.675508 -0.0257763 0
M  V30 6952 H 653.884 -1.97238 0.573278 0
M  V30 6953 H 652.114 -3.60929 -1.38805 0
M  V30 6954 H 653.803 -3.90853 -1.09494 0
M  V30 6955 H 654.569 -4.68214 1.26492 0
M  V30 6956 H 650.448 -4.60982 0.0408447 0
M  V30 6957 H 653.992 -6.26363 3.07108 0
M  V30 6958 H 649.889 -6.18756 1.83877 0
M  V30 6959 H 650.657 -7.3813 3.53703 0
M  V30 6960 N 653.32 -0.135238 -1.57019 0
M  V30 6961 C 654.567 0.518794 -1.95742 0
M  V30 6962 C 654.895 1.65642 -1.01947 0
M  V30 6963 O 654.15 1.95645 -0.0464016 0
M  V30 6964 C 654.449 1.07694 -3.40788 0
M  V30 6965 C 654.115 0.058992 -4.50861 0
M  V30 6966 C 652.777 -0.220872 -4.80693 0
M  V30 6967 C 655.129 -0.633856 -5.17331 0
M  V30 6968 C 652.457 -1.19959 -5.74305 0
M  V30 6969 C 654.809 -1.60131 -6.11997 0
M  V30 6970 C 653.473 -1.889 -6.40213 0
M  V30 6971 H 652.743 0.18984 -0.716269 0
M  V30 6972 H 655.39 -0.219581 -1.90237 0
M  V30 6973 H 653.695 1.89241 -3.43067 0
M  V30 6974 H 655.392 1.59137 -3.68071 0
M  V30 6975 H 651.982 0.287304 -4.27636 0
M  V30 6976 H 656.166 -0.430823 -4.94427 0
M  V30 6977 H 651.422 -1.42905 -5.94465 0
M  V30 6978 H 655.596 -2.14376 -6.62583 0
M  V30 6979 H 653.223 -2.64891 -7.12556 0
M  V30 6980 N 654.798 1.5699 0.138552 0
M  V30 6981 C 656.045 1.83809 0.849732 0
M  V30 6982 C 656.373 0.717409 1.80786 0
M  V30 6983 O 655.628 -0.292897 1.93496 0
M  V30 6984 C 655.927 3.17007 1.65049 0
M  V30 6985 C 655.593 4.43037 0.838398 0
M  V30 6986 C 654.255 4.77262 0.614385 0
M  V30 6987 C 656.607 5.20495 0.271044 0
M  V30 6988 C 653.935 5.864 -0.187552 0
M  V30 6989 C 656.287 6.30476 -0.517979 0
M  V30 6990 C 654.951 6.63245 -0.75249 0
M  V30 6991 H 654.221 0.672605 0.310939 0
M  V30 6992 H 656.868 1.91166 0.112971 0
M  V30 6993 H 655.173 3.05138 2.4576 0
M  V30 6994 H 656.87 3.34975 2.20437 0
M  V30 6995 H 653.46 4.16211 1.02307 0
M  V30 6996 H 657.644 4.94422 0.431371 0
M  V30 6997 H 652.9 6.10226 -0.378659 0
M  V30 6998 H 657.074 6.89686 -0.964694 0
M  V30 6999 H 654.701 7.47648 -1.37573 0
M  V30 7000 N 656.276 -0.40816 1.52223 0
M  V30 7001 C 657.224 -1.51788 1.76248 0
M  V30 7002 C 658.218 -1.57264 0.629638 0
M  V30 7003 O 659.424 -1.60659 0.811704 0
M  V30 7004 H 655.799 -0.504823 0.557367 0
M  V30 7005 H 657.77 -1.2871 2.69214 0
M  V30 7006 C 656.519 -2.89145 1.93107 0
M  V30 7007 H 655.842 -2.85674 2.79697 0
M  V30 7008 H 657.282 -3.66082 2.13916 0
M  V30 7009 C 655.741 -3.29581 0.698431 0
M  V30 7010 O 656.271 -4.01479 -0.133238 0
M  V30 7011 N 654.477 -2.85651 0.53405 0
M  V30 7012 H 654.024 -2.2731 1.21194 0
M  V30 7013 H 653.982 -3.13065 -0.289387 0
M  V30 7014 N 657.755 -1.42862 -0.66545 0
M  V30 7015 C 659.003 -1.43546 -1.42264 0
M  V30 7016 C 659.324 -0.0563116 -1.94919 0
M  V30 7017 O 658.594 0.906568 -1.73661 0
M  V30 7018 H 657.174 -0.528464 -0.527953 0
M  V30 7019 H 659.836 -1.78363 -0.785665 0
M  V30 7020 H 658.932 -2.14079 -2.27105 0
M  V30 7021 N 659.233 0.902656 -1.29189 0
M  V30 7022 C 660.644 1.46809 -1.15343 0
M  V30 7023 C 660.995 1.94568 0.252517 0
M  V30 7024 O 660.12 1.83454 1.14777 0
M  V30 7025 C 660.715 2.66829 -2.08776 0
M  V30 7026 C 659.274 3.19518 -1.98961 0
M  V30 7027 C 658.421 1.92212 -1.99874 0
M  V30 7028 H 661.372 0.714282 -1.41717 0
M  V30 7029 H 661.393 3.42465 -1.65826 0
M  V30 7030 H 660.905 2.32039 -3.11094 0
M  V30 7031 H 659.006 3.59008 -0.99721 0
M  V30 7032 H 659.119 3.84016 -2.86477 0
M  V30 7033 H 657.483 2.0979 -1.44431 0
M  V30 7034 H 658.266 1.59702 -3.03891 0
M  V30 7035 N 660.711 1.11618 1.11262 0
M  V30 7036 C 661.96 0.860934 1.82403 0
M  V30 7037 C 662.273 -0.615303 1.8567 0
M  V30 7038 O 663.479 -0.986861 2.52929 0
M  V30 7039 C 661.935 1.49048 3.27586 0
M  V30 7040 C 661.543 3.00089 3.32642 0
M  V30 7041 C 663.287 1.31515 4.03614 0
M  V30 7042 C 661.194 3.56019 4.72234 0
M  V30 7043 H 660.124 0.318423 0.683464 0
M  V30 7044 H 662.775 1.34165 1.25188 0
M  V30 7045 H 661.157 0.937434 3.84744 0
M  V30 7046 H 662.331 3.61813 2.85356 0
M  V30 7047 H 660.646 3.16919 2.70096 0
M  V30 7048 H 663.243 1.70732 5.0671 0
M  V30 7049 H 663.586 0.257917 4.155 0
M  V30 7050 H 664.119 1.83694 3.52848 0
M  V30 7051 H 660.858 4.61463 4.65545 0
M  V30 7052 H 660.378 2.99066 5.19923 0
M  V30 7053 H 662.057 3.54568 5.41193 0
M  V30 7054 N 662.189 -1.289 0.906776 0
M  V30 7055 C 663.121 -2.26556 0.347159 0
M  V30 7056 C 664.134 -1.54589 -0.51049 0
M  V30 7057 O 665.323 -1.75489 -0.326501 0
M  V30 7058 C 662.423 -3.3484 -0.523024 0
M  V30 7059 C 661.596 -4.36296 0.310515 0
M  V30 7060 C 660.655 -5.23879 -0.493634 0
M  V30 7061 O 659.681 -5.69127 0.0913569 0
M  V30 7062 N 660.883 -5.51946 -1.7982 0
M  V30 7063 H 663.648 -2.75212 1.18652 0
M  V30 7064 H 661.209 -1.42309 0.771996 0
M  V30 7065 H 663.201 -3.90366 -1.06756 0
M  V30 7066 H 661.771 -2.85946 -1.26309 0
M  V30 7067 H 660.991 -3.80331 1.03644 0
M  V30 7068 H 662.279 -5.01113 0.881106 0
M  V30 7069 H 661.677 -5.17006 -2.2961 0
M  V30 7070 H 660.234 -6.10258 -2.28971 0
M  V30 7071 N 663.667 -0.670007 -1.42649 0
M  V30 7072 C 664.914 -0.190286 -2.01604 0
M  V30 7073 C 665.242 1.20155 -1.52948 0
M  V30 7074 O 664.497 1.81964 -0.72026 0
M  V30 7075 C 664.796 -0.168298 -3.57004 0
M  V30 7076 C 664.462 -1.50415 -4.25072 0
M  V30 7077 C 663.124 -1.86992 -4.43382 0
M  V30 7078 C 665.476 -2.38414 -4.63474 0
M  V30 7079 C 662.804 -3.11203 -4.97363 0
M  V30 7080 C 665.156 -3.61933 -5.18833 0
M  V30 7081 C 663.82 -3.98685 -5.35356 0
M  V30 7082 H 663.09 -0.0696305 -0.737721 0
M  V30 7083 H 665.737 -0.864044 -1.70899 0
M  V30 7084 H 664.042 0.588958 -3.87348 0
M  V30 7085 H 665.739 0.22001 -4.00396 0
M  V30 7086 H 662.329 -1.20959 -4.11177 0
M  V30 7087 H 666.513 -2.11442 -4.49006 0
M  V30 7088 H 661.769 -3.39705 -5.08341 0
M  V30 7089 H 665.943 -4.30326 -5.47533 0
M  V30 7090 H 663.57 -4.95009 -5.76949 0
M  V30 7091 N 665.145 1.52092 -0.413018 0
M  V30 7092 C 666.055 2.30858 0.417318 0
M  V30 7093 C 667.071 1.38746 1.05003 0
M  V30 7094 O 668.247 1.71821 1.05069 0
M  V30 7095 C 665.312 3.11756 1.51687 0
M  V30 7096 C 664.373 4.19613 0.906825 0
M  V30 7097 C 663.606 4.96644 1.95399 0
M  V30 7098 O 663.829 4.7402 3.17271 0
M  V30 7099 O 662.763 5.81385 1.55805 0
M  V30 7100 H 666.589 3.02865 -0.225028 0
M  V30 7101 H 664.174 1.48358 -0.176126 0
M  V30 7102 H 666.056 3.62122 2.15512 0
M  V30 7103 H 664.731 2.42539 2.14375 0
M  V30 7104 H 663.638 3.73385 0.231183 0
M  V30 7105 H 664.971 4.91134 0.323814 0
M  V30 7106 N 666.623 0.143563 1.56945 0
M  V30 7107 C 667.853 -0.514699 2.00086 0
M  V30 7108 C 668.261 -1.59184 1.0226 0
M  V30 7109 O 667.604 -1.83697 0.0110514 0
M  V30 7110 C 667.666 -1.17778 3.39659 0
M  V30 7111 C 667.33 -0.245657 4.56339 0
M  V30 7112 C 668.327 0.525343 5.17239 0
M  V30 7113 C 666.012 -0.149564 5.02077 0
M  V30 7114 C 668.006 1.37992 6.22284 0
M  V30 7115 C 665.693 0.708621 6.06978 0
M  V30 7116 C 666.691 1.47197 6.6695 0
M  V30 7117 O 666.379 2.31586 7.6982 0
M  V30 7118 H 666.111 -0.138789 0.661599 0
M  V30 7119 H 668.665 0.234098 2.04062 0
M  V30 7120 H 666.895 -1.97415 3.32512 0
M  V30 7121 H 668.584 -1.73542 3.6693 0
M  V30 7122 H 669.35 0.461118 4.82803 0
M  V30 7123 H 665.229 -0.733457 4.55128 0
M  V30 7124 H 668.773 1.97621 6.69023 0
M  V30 7125 H 664.67 0.77415 6.40841 0
M  V30 7126 H 665.438 2.24796 7.87025 0
M  V30 7127 N 668.101 -1.57061 -0.130224 0
M  V30 7128 C 669.326 -1.88802 -0.858409 0
M  V30 7129 C 669.751 -0.734353 -1.73173 0
M  V30 7130 O 669.109 0.315529 -1.78533 0
M  V30 7131 C 669.157 -3.19228 -1.67708 0
M  V30 7132 O 668.261 -3.04343 -2.78297 0
M  V30 7133 H 667.602 -0.619849 -0.238083 0
M  V30 7134 H 670.132 -2.04271 -0.115995 0
M  V30 7135 H 670.142 -3.51669 -2.06864 0
M  V30 7136 H 668.817 -4.02793 -1.0359 0
M  V30 7137 H 667.394 -2.83346 -2.42425 0
M  V30 7138 N 669.579 0.400081 -1.52437 0
M  V30 7139 C 670.828 1.14332 -1.66166 0
M  V30 7140 C 671.141 1.91419 -0.402253 0
M  V30 7141 O 672.347 2.6824 -0.419487 0
M  V30 7142 C 670.803 2.08137 -2.9361 0
M  V30 7143 C 670.411 1.36524 -4.26691 0
M  V30 7144 C 672.155 2.82664 -3.16703 0
M  V30 7145 C 670.062 2.29031 -5.45251 0
M  V30 7146 H 668.992 0.430499 -0.61902 0
M  V30 7147 H 671.643 0.407017 -1.78929 0
M  V30 7148 H 670.025 2.85358 -2.74567 0
M  V30 7149 H 671.199 0.646061 -4.56249 0
M  V30 7150 H 669.514 0.74002 -4.09771 0
M  V30 7151 H 672.111 3.52037 -4.0246 0
M  V30 7152 H 672.454 3.46122 -2.31312 0
M  V30 7153 H 672.987 2.12541 -3.36261 0
M  V30 7154 H 669.726 1.70206 -6.33017 0
M  V30 7155 H 669.246 2.98896 -5.2002 0
M  V30 7156 H 670.925 2.89359 -5.78689 0
M  V30 7157 N 671.057 1.43213 0.657864 0
M  V30 7158 C 672.303 1.45795 1.41829 0
M  V30 7159 C 672.658 0.0792176 1.92237 0
M  V30 7160 O 671.951 -0.901406 1.69072 0
M  V30 7161 C 672.145 2.43143 2.61947 0
M  V30 7162 C 671.974 3.90345 2.23295 0
M  V30 7163 C 670.744 4.58749 2.11843 0
M  V30 7164 C 672.942 4.80308 1.83873 0
M  V30 7165 N 670.924 5.90898 1.66473 0
M  V30 7166 C 672.295 6.01693 1.49549 0
M  V30 7167 C 674.35 4.67609 1.71015 0
M  V30 7168 C 673.053 7.11792 1.03657 0
M  V30 7169 C 675.079 5.77707 1.26527 0
M  V30 7170 C 674.441 6.98215 0.931379 0
M  V30 7171 H 670.54 0.588628 0.514822 0
M  V30 7172 H 673.124 1.7936 0.7575 0
M  V30 7173 H 671.295 2.11612 3.25692 0
M  V30 7174 H 673.027 2.36193 3.28626 0
M  V30 7175 H 669.782 4.1319 2.31453 0
M  V30 7176 H 670.206 6.61034 1.46163 0
M  V30 7177 H 674.848 3.74902 1.95469 0
M  V30 7178 H 672.566 8.04332 0.779502 0
M  V30 7179 H 676.152 5.69899 1.17074 0
M  V30 7180 H 675.032 7.81959 0.592379 0
M  V30 7181 N 672.536 -0.895792 1.29666 0
M  V30 7182 C 673.761 -1.68528 1.20885 0
M  V30 7183 C 674.186 -1.8673 -0.226595 0
M  V30 7184 O 673.544 -1.39044 -1.16347 0
M  V30 7185 C 673.592 -3.04512 1.93144 0
M  V30 7186 O 672.696 -3.92963 1.25115 0
M  V30 7187 H 672.037 -0.515371 0.418675 0
M  V30 7188 H 674.567 -1.11878 1.71302 0
M  V30 7189 H 674.577 -3.54628 2.0175 0
M  V30 7190 H 673.252 -2.90582 2.97548 0
M  V30 7191 H 671.829 -3.51399 1.24794 0
M  V30 7192 N 674.014 -1.12206 -1.10668 0
M  V30 7193 C 674.962 -0.782918 -2.19028 0
M  V30 7194 C 675.956 0.229175 -1.67843 0
M  V30 7195 O 677.162 0.0876295 -1.79787 0
M  V30 7196 H 673.537 -0.235339 -0.714227 0
M  V30 7197 H 675.508 -1.70527 -2.44874 0
M  V30 7198 C 674.257 -0.25116 -3.46792 0
M  V30 7199 H 673.58 -1.02123 -3.86537 0
M  V30 7200 H 675.02 -0.0521409 -4.23968 0
M  V30 7201 C 673.479 1.02037 -3.21076 0
M  V30 7202 O 674.009 2.09862 -3.42522 0
M  V30 7203 N 672.215 0.946348 -2.74759 0
M  V30 7204 H 671.762 0.068777 -2.57508 0
M  V30 7205 H 671.72 1.79775 -2.57931 0
M  V30 7206 N 675.492 1.28418 -0.913599 0
M  V30 7207 C 676.908 1.47411 -0.611728 0
M  V30 7208 C 677.108 1.83018 0.843008 0
M  V30 7209 O 676.164 1.93505 1.6221 0
M  V30 7210 C 677.477 2.57703 -1.5495 0
M  V30 7211 C 679.025 2.71572 -1.5562 0
M  V30 7212 C 679.5 3.85008 -2.48058 0
M  V30 7213 N 680.991 3.92361 -2.46184 0
M  V30 7214 C 681.726 4.79516 -3.14407 0
M  V30 7215 N 681.222 5.71262 -3.91958 0
M  V30 7216 N 683.015 4.73125 -3.03495 0
M  V30 7217 H 675.166 1.03585 -1.85429 0
M  V30 7218 H 677.429 0.515907 -0.795326 0
M  V30 7219 H 677.135 2.38298 -2.58663 0
M  V30 7220 H 677.009 3.54801 -1.28048 0
M  V30 7221 H 679.396 2.90366 -0.526441 0
M  V30 7222 H 679.477 1.75006 -1.86565 0
M  V30 7223 H 679.121 3.66969 -3.51136 0
M  V30 7224 H 679.051 4.80971 -2.14416 0
M  V30 7225 H 681.542 3.26749 -1.89851 0
M  V30 7226 H 681.855 6.34593 -4.41034 0
M  V30 7227 H 680.2 5.71103 -3.96063 0
M  V30 7228 H 683.391 4.00442 -2.42413 0
M  V30 7229 H 683.564 5.40834 -3.56935 0
M  V30 7230 N 676.97 0.677563 1.42291 0
M  V30 7231 C 678.219 0.198173 2.00724 0
M  V30 7232 C 678.532 -1.20325 1.54211 0
M  V30 7233 O 679.738 -1.77916 2.05081 0
M  V30 7234 C 678.194 0.303432 3.58619 0
M  V30 7235 C 677.802 1.70909 4.14119 0
M  V30 7236 C 679.546 -0.117103 4.24338 0
M  V30 7237 C 677.453 1.76696 5.64387 0
M  V30 7238 H 676.383 0.070329 0.750713 0
M  V30 7239 H 679.034 0.843147 1.62982 0
M  V30 7240 H 677.416 -0.409482 3.93877 0
M  V30 7241 H 678.59 2.44931 3.90315 0
M  V30 7242 H 676.905 2.07771 3.6086 0
M  V30 7243 H 679.502 -0.0940471 5.34617 0
M  V30 7244 H 679.845 -1.15283 4.00019 0
M  V30 7245 H 680.378 0.5449 3.9405 0
M  V30 7246 H 677.117 2.7826 5.93508 0
M  V30 7247 H 676.637 1.07034 5.90173 0
M  V30 7248 H 678.316 1.52166 6.28852 0
M  V30 7249 N 678.448 -1.51871 0.421078 0
M  V30 7250 C 679.694 -2.02237 -0.151014 0
M  V30 7251 C 680.027 -1.30554 -1.43768 0
M  V30 7252 O 679.302 -0.41546 -1.90011 0
M  V30 7253 C 679.585 -3.5802 -0.386482 0
M  V30 7254 C 679.438 -4.40339 0.9177 0
M  V30 7255 C 680.757 -4.24444 -1.16342 0
M  V30 7256 H 677.876 -0.735062 -0.0534102 0
M  V30 7257 H 680.518 -1.81656 0.556888 0
M  V30 7258 H 678.668 -3.75688 -0.989494 0
M  V30 7259 H 680.34 -4.34357 1.55344 0
M  V30 7260 H 678.583 -4.06073 1.526 0
M  V30 7261 H 679.254 -5.47451 0.707187 0
M  V30 7262 H 681.73 -4.10948 -0.652788 0
M  V30 7263 H 680.606 -5.33358 -1.29693 0
M  V30 7264 H 680.867 -3.84204 -2.18724 0
M  V30 7265 N 679.926 -0.151884 -1.56866 0
M  V30 7266 C 681.342 0.204486 -1.58285 0
M  V30 7267 C 681.542 1.6431 -1.16639 0
M  V30 7268 O 680.598 2.37077 -0.868946 0
M  V30 7269 C 681.911 -0.0587019 -3.00643 0
M  V30 7270 C 683.459 0.00462303 -3.13 0
M  V30 7271 C 683.934 -0.231297 -4.57416 0
M  V30 7272 N 685.425 -0.178394 -4.62856 0
M  V30 7273 C 686.16 -0.335379 -5.72418 0
M  V30 7274 N 685.656 -0.550355 -6.90611 0
M  V30 7275 N 687.449 -0.272641 -5.61438 0
M  V30 7276 H 679.6 -1.09116 -1.82229 0
M  V30 7277 H 681.863 -0.432311 -0.843689 0
M  V30 7278 H 681.569 -1.05453 -3.35518 0
M  V30 7279 H 681.443 0.658508 -3.71407 0
M  V30 7280 H 683.83 0.991009 -2.77962 0
M  V30 7281 H 683.911 -0.744992 -2.44711 0
M  V30 7282 H 683.555 -1.2148 -4.93158 0
M  V30 7283 H 683.485 0.5387 -5.23837 0
M  V30 7284 H 685.976 -0.0170923 -3.77896 0
M  V30 7285 H 686.289 -0.660116 -7.69976 0
M  V30 7286 H 684.634 -0.586736 -6.92519 0
M  V30 7287 H 687.825 -0.105421 -4.67981 0
M  V30 7288 H 687.998 -0.398418 -6.46774 0
M  V30 7289 N 681.404 1.57128 0.121893 0
M  V30 7290 C 682.65 1.84974 0.831418 0
M  V30 7291 C 682.983 0.737204 1.79663 0
M  V30 7292 O 682.258 -0.257199 1.92792 0
M  V30 7293 C 682.541 3.23397 1.58386 0
M  V30 7294 C 682.394 4.45246 0.638445 0
M  V30 7295 C 683.713 3.59355 2.54071 0
M  V30 7296 H 680.832 0.67282 0.300803 0
M  V30 7297 H 683.474 1.89759 0.0957587 0
M  V30 7298 H 681.624 3.19449 2.21098 0
M  V30 7299 H 683.296 4.61295 0.0203925 0
M  V30 7300 H 681.539 4.33771 -0.05023 0
M  V30 7301 H 682.21 5.38765 1.20151 0
M  V30 7302 H 684.686 3.64075 2.01465 0
M  V30 7303 H 683.562 4.57193 3.03752 0
M  V30 7304 H 683.823 2.86622 3.36601 0
M  V30 7305 N 682.882 -0.391992 1.52647 0
M  V30 7306 C 683.815 -1.50019 1.71958 0
M  V30 7307 C 684.793 -1.5238 0.567365 0
M  V30 7308 O 685.977 -1.70831 0.796806 0
M  V30 7309 C 683.104 -2.88496 1.77447 0
M  V30 7310 C 682.15 -3.03974 2.99169 0
M  V30 7311 S 682.983 -2.75487 4.59203 0
M  V30 7312 C 684.139 -4.16163 4.67503 0
M  V30 7313 H 684.372 -1.33413 2.65685 0
M  V30 7314 H 681.905 -0.584674 1.42902 0
M  V30 7315 H 683.863 -3.68296 1.81296 0
M  V30 7316 H 682.524 -3.02431 0.848188 0
M  V30 7317 H 681.717 -4.05328 2.99542 0
M  V30 7318 H 681.319 -2.32062 2.93297 0
M  V30 7319 H 683.611 -5.10048 4.45934 0
M  V30 7320 H 684.554 -4.20806 5.69498 0
M  V30 7321 H 684.962 -4.01933 3.96371 0
M  V30 7322 N 684.36 -1.4356 -0.65026 0
M  V30 7323 C 685.771 -1.40324 -1.2315 0
M  V30 7324 C 686.122 -0.108812 -1.95898 0
M  V30 7325 O 685.247 0.79163 -2.01401 0
M  V30 7326 C 685.842 -2.54195 -2.23987 0
M  V30 7327 C 684.401 -2.54215 -2.77582 0
M  V30 7328 C 683.548 -2.31752 -1.5227 0
M  V30 7329 H 686.499 -1.52418 -0.442095 0
M  V30 7330 H 686.52 -2.25854 -3.0622 0
M  V30 7331 H 686.032 -3.48392 -1.71011 0
M  V30 7332 H 684.133 -1.63907 -3.34612 0
M  V30 7333 H 684.246 -3.52081 -3.24925 0
M  V30 7334 H 682.61 -1.80476 -1.79723 0
M  V30 7335 H 683.393 -3.28037 -1.01225 0
M  V30 7336 N 685.838 0.888903 -1.30139 0
M  V30 7337 C 686.801 1.97576 -1.16174 0
M  V30 7338 C 687.801 1.60525 -0.094086 0
M  V30 7339 O 688.991 1.70812 -0.341889 0
M  V30 7340 C 686.123 3.3188 -0.778983 0
M  V30 7341 H 687.316 2.11393 -2.12728 0
M  V30 7342 H 684.869 1.0748 -1.1348 0
M  V30 7343 H 685.604 3.23765 0.186225 0
M  V30 7344 H 685.389 3.60141 -1.55051 0
M  V30 7345 H 686.879 4.11612 -0.704631 0
M  V30 7346 N 687.317 1.12792 1.10072 0
M  V30 7347 C 688.265 0.794523 2.18609 0
M  V30 7348 C 689.259 -0.220271 1.67962 0
M  V30 7349 O 690.465 -0.0780938 1.79831 0
M  V30 7350 H 686.84 0.239123 0.712969 0
M  V30 7351 H 688.811 1.71823 2.43966 0
M  V30 7352 C 687.56 0.269548 3.46654 0
M  V30 7353 H 686.883 1.04171 3.8599 0
M  V30 7354 H 688.323 0.0746242 4.23934 0
M  V30 7355 C 686.782 -1.00333 3.21613 0
M  V30 7356 O 687.312 -2.08042 3.4363 0
M  V30 7357 N 685.518 -0.931763 2.75257 0
M  V30 7358 H 685.065 -0.0551197 2.57541 0
M  V30 7359 H 685.023 -1.78405 2.58881 0
M  V30 7360 N 688.795 -1.27931 0.920396 0
M  V30 7361 C 690.02 -1.99343 0.572478 0
M  V30 7362 C 690.445 -1.68267 -0.840696 0
M  V30 7363 O 689.803 -0.918805 -1.56294 0
M  V30 7364 C 689.851 -3.51698 0.796284 0
M  V30 7365 O 688.955 -4.12157 -0.141602 0
M  V30 7366 H 688.296 -0.626065 0.221221 0
M  V30 7367 H 690.826 -1.62921 1.23765 0
M  V30 7368 H 690.836 -4.01793 0.708984 0
M  V30 7369 H 689.511 -3.73649 1.82644 0
M  V30 7370 H 688.088 -3.729 -0.005007 0
M  V30 7371 N 690.273 -0.685099 -1.4193 0
M  V30 7372 C 691.522 -0.208816 -2.00616 0
M  V30 7373 C 691.835 1.19506 -1.54847 0
M  V30 7374 O 693.041 1.76826 -2.06021 0
M  V30 7375 C 691.497 -0.322446 -3.58453 0
M  V30 7376 C 691.105 -1.73102 -4.13206 0
M  V30 7377 C 692.849 0.0945979 -4.24395 0
M  V30 7378 C 690.756 -1.79687 -5.63442 0
M  V30 7379 H 689.686 -0.0743092 -0.750329 0
M  V30 7380 H 692.337 -0.851778 -1.62533 0
M  V30 7381 H 690.719 0.388588 -3.94089 0
M  V30 7382 H 691.893 -2.46997 -3.8901 0
M  V30 7383 H 690.208 -2.09682 -3.59753 0
M  V30 7384 H 692.805 0.0656937 -5.3466 0
M  V30 7385 H 693.148 1.1316 -4.00625 0
M  V30 7386 H 693.681 -0.56579 -3.93756 0
M  V30 7387 H 690.42 -2.81404 -5.92024 0
M  V30 7388 H 689.94 -1.10162 -5.89597 0
M  V30 7389 H 691.619 -1.55498 -6.28036 0
M  V30 7390 N 691.751 1.51645 -0.429126 0
M  V30 7391 C 692.681 2.30434 0.377148 0
M  V30 7392 C 693.662 1.35493 1.02838 0
M  V30 7393 O 694.847 1.6441 1.03359 0
M  V30 7394 C 691.977 3.14038 1.48315 0
M  V30 7395 C 690.931 4.1719 0.955855 0
M  V30 7396 C 690.257 4.89263 2.15698 0
M  V30 7397 C 691.557 5.223 -0.00402136 0
M  V30 7398 H 693.251 2.98085 -0.280336 0
M  V30 7399 H 690.797 1.43354 -0.136265 0
M  V30 7400 H 692.75 3.67933 2.05435 0
M  V30 7401 H 691.474 2.44193 2.16881 0
M  V30 7402 H 690.133 3.64335 0.406929 0
M  V30 7403 H 689.781 4.15929 2.82864 0
M  V30 7404 H 689.481 5.59009 1.81059 0
M  V30 7405 H 691.005 5.45978 2.73387 0
M  V30 7406 H 692.419 5.71315 0.476607 0
M  V30 7407 H 690.816 5.99525 -0.26258 0
M  V30 7408 H 691.886 4.75638 -0.943236 0
M  V30 7409 N 693.229 0.160201 1.56784 0
M  V30 7410 C 694.475 -0.481855 1.9761 0
M  V30 7411 C 694.83 -1.61605 1.04411 0
M  V30 7412 O 694.123 -1.91426 0.0816402 0
M  V30 7413 C 694.317 -1.02259 3.42459 0
M  V30 7414 C 694.146 0.0576781 4.49663 0
M  V30 7415 C 692.916 0.503585 5.02784 0
M  V30 7416 C 695.114 0.854013 5.0716 0
M  V30 7417 N 693.096 1.56532 5.93608 0
M  V30 7418 C 694.467 1.76593 5.94319 0
M  V30 7419 C 696.522 0.900333 4.89692 0
M  V30 7420 C 695.225 2.72023 6.6588 0
M  V30 7421 C 697.251 1.84252 5.61965 0
M  V30 7422 C 696.613 2.74194 6.48843 0
M  V30 7423 H 692.712 -0.144748 0.768487 0
M  V30 7424 H 695.296 0.257853 1.92985 0
M  V30 7425 H 693.467 -1.73186 3.47651 0
M  V30 7426 H 695.199 -1.63235 3.70319 0
M  V30 7427 H 691.954 0.103361 4.73487 0
M  V30 7428 H 692.378 2.09634 6.43726 0
M  V30 7429 H 697.02 0.219023 4.22232 0
M  V30 7430 H 694.738 3.41147 7.3256 0
M  V30 7431 H 698.324 1.88433 5.5044 0
M  V30 7432 H 697.204 3.45912 7.03786 0
M  V30 7433 N 694.707 -1.5719 -0.113559 0
M  V30 7434 C 695.947 -1.86958 -0.82621 0
M  V30 7435 C 696.311 -0.748884 -1.76793 0
M  V30 7436 O 697.512 -0.92847 -2.52256 0
M  V30 7437 C 695.783 -3.21957 -1.55173 0
M  V30 7438 S 697.342 -3.73371 -2.3052 0
M  V30 7439 H 694.16 -0.655394 -0.275643 0
M  V30 7440 H 696.762 -1.95318 -0.0842684 0
M  V30 7441 H 695.466 -4.01459 -0.851977 0
M  V30 7442 H 694.997 -3.16688 -2.33393 0
M  V30 7443 H 697.012 -3.45308 -3.56338 0
M  V30 7444 O 696.224 0.257811 -1.59429 0
M  V30 7445 H 696.915 0.901882 -1.71423 0
M  V30 END ATOM
M  V30 BEGIN BOND
M  V30 END BOND
M  V30 END CTAB
M  END
$$$$
