drugbank_target|Q59771 Phenylalanine dehydrogenase (DB02494; DB03884)
 OpenBabel12092120473D

  0  0  0     0  0            999 V3000
M  V30 BEGIN CTAB
M  V30 COUNTS 5091 5129 0 0 0
M  V30 BEGIN ATOM
M  V30 1 H -0.908 1.98254 -0.117106 0
M  V30 2 N 0 1.576 0 0
M  V30 3 C 0.933 2.03868 1.02534 0
M  V30 4 C 1.911 0.928543 1.3348 0
M  V30 5 O 3.095 1.19667 1.45644 0
M  V30 6 C 0.222 2.43627 2.35294 0
M  V30 7 C -0.732 3.65373 2.2001 0
M  V30 8 S 0.101 5.13292 1.52614 0
M  V30 9 C 1.257 5.56322 2.86805 0
M  V30 10 H 1.49 2.90518 0.631377 0
M  V30 11 H -0.977 1.52953 0.210867 0
M  V30 12 H 0.981 2.67203 3.11629 0
M  V30 13 H -0.358 1.57376 2.7183 0
M  V30 14 H -1.165 3.90944 3.18086 0
M  V30 15 H -1.563 3.418 1.51819 0
M  V30 16 H 0.729 5.58782 3.83104 0
M  V30 17 H 1.672 6.56266 2.65933 0
M  V30 18 H 2.08 4.83886 2.90714 0
M  V30 19 N 1.4781 -0.272755 1.55222 0
M  V30 20 C 2.7031 -1.02683 1.80197 0
M  V30 21 C 3.1281 -1.79142 0.573551 0
M  V30 22 O 2.4861 -1.74917 -0.476849 0
M  V30 23 C 2.5341 -1.9609 3.02624 0
M  V30 24 O 1.6381 -3.04863 2.77727 0
M  V30 25 H 0.9791 -0.293557 0.595584 0
M  V30 26 H 3.5091 -0.30159 2.02365 0
M  V30 27 H 3.5191 -2.38039 3.31363 0
M  V30 28 H 2.1941 -1.39851 3.91682 0
M  V30 29 H 0.7711 -2.67228 2.60084 0
M  V30 30 N 2.9562 -1.48159 -0.537278 0
M  V30 31 C 4.2052 -1.5506 -1.28993 0
M  V30 32 C 4.5182 -0.226211 -1.94288 0
M  V30 33 O 5.7242 -0.173395 -2.70946 0
M  V30 34 C 4.1802 -2.73429 -2.34018 0
M  V30 35 C 3.7882 -4.1248 -1.74825 0
M  V30 36 C 5.5322 -2.89638 -3.10339 0
M  V30 37 C 3.4392 -5.22121 -2.77747 0
M  V30 38 H 2.3692 -0.577231 -0.485098 0
M  V30 39 H 5.0202 -1.74478 -0.568317 0
M  V30 40 H 3.4022 -2.47431 -3.09182 0
M  V30 41 H 4.5762 -4.48466 -1.05899 0
M  V30 42 H 2.8912 -4.01327 -1.11022 0
M  V30 43 H 5.4882 -3.68718 -3.87235 0
M  V30 44 H 5.8312 -1.9882 -3.65754 0
M  V30 45 H 6.3642 -3.15502 -2.42288 0
M  V30 46 H 3.1032 -6.1488 -2.27161 0
M  V30 47 H 2.6232 -4.90631 -3.45024 0
M  V30 48 H 4.3022 -5.49924 -3.4087 0
M  V30 49 N 4.4343 0.785586 -1.36625 0
M  V30 50 C 5.7113 1.53198 -1.21613 0
M  V30 51 C 6.0913 2.10187 0.196113 0
M  V30 52 O 5.4393 1.94318 1.20219 0
M  V30 53 C 5.6493 2.62388 -2.30116 0
M  V30 54 C 6.9973 3.30167 -2.66974 0
M  V30 55 O 8.0213 2.72674 -2.29188 0
M  V30 56 O 6.8803 4.34077 -3.32023 0
M  V30 57 H 3.9743 0.677865 -0.473738 0
M  V30 58 H 6.5203 0.823739 -1.48367 0
M  V30 59 H 5.2923 2.18299 -3.24748 0
M  V30 60 H 4.9153 3.40827 -2.0475 0
M  V30 61 N 5.9124 1.20967 1.01018 0
M  V30 62 C 7.1374 1.0503 1.78839 0
M  V30 63 C 7.5624 -0.395752 1.8389 0
M  V30 64 O 6.9204 -1.28529 1.27867 0
M  V30 65 C 6.9684 1.64602 3.2084 0
M  V30 66 O 6.0724 0.887988 4.02726 0
M  V30 67 H 5.4134 0.369987 0.551367 0
M  V30 68 H 7.9434 1.60399 1.27018 0
M  V30 69 H 7.9534 1.68607 3.71532 0
M  V30 70 H 6.6284 2.69841 3.16479 0
M  V30 71 H 5.2054 0.922648 3.61305 0
M  V30 72 N 7.3905 -1.2043 1.01659 0
M  V30 73 C 8.3535 -2.21433 0.591616 0
M  V30 74 C 9.3535 -1.57203 -0.338226 0
M  V30 75 O 10.5435 -1.73737 -0.126918 0
M  V30 76 C 7.6755 -3.40628 -0.136058 0
M  V30 77 H 8.8685 -2.60545 1.48514 0
M  V30 78 H 6.4215 -1.33893 0.806379 0
M  V30 79 H 7.1565 -3.07019 -1.04449 0
M  V30 80 H 6.9415 -3.88475 0.531917 0
M  V30 81 H 8.4315 -4.15475 -0.420735 0
M  V30 82 N 8.8686 -0.792821 -1.36206 0
M  V30 83 C 9.7986 -0.207853 -2.32573 0
M  V30 84 C 10.7796 0.659055 -1.56813 0
M  V30 85 O 11.9646 0.592176 -1.84951 0
M  V30 86 C 9.0946 0.655449 -3.41059 0
M  V30 87 C 8.0486 -0.111842 -4.27854 0
M  V30 88 C 7.3746 0.872274 -5.27537 0
M  V30 89 C 8.6746 -1.30299 -5.05786 0
M  V30 90 H 10.3686 -1.01294 -2.81744 0
M  V30 91 H 7.9146 -0.48854 -1.3546 0
M  V30 92 H 9.8676 1.07464 -4.07467 0
M  V30 93 H 8.5916 1.49328 -2.90463 0
M  V30 94 H 7.2506 -0.512053 -3.63006 0
M  V30 95 H 6.8986 1.70523 -4.73214 0
M  V30 96 H 6.5986 0.363291 -5.86476 0
M  V30 97 H 8.1226 1.28996 -5.96818 0
M  V30 98 H 9.5366 -0.959379 -5.65216 0
M  V30 99 H 7.9336 -1.7455 -5.74154 0
M  V30 100 H 9.0036 -2.09663 -4.37229 0
M  V30 101 N 10.3467 1.47872 -0.545128 0
M  V30 102 C 11.2947 2.31533 0.222512 0
M  V30 103 C 12.2887 1.42177 0.920985 0
M  V30 104 O 13.4947 1.59005 0.843645 0
M  V30 105 H 9.8697 0.746519 0.0906278 0
M  V30 106 H 11.8407 2.94139 -0.50246 0
M  V30 107 C 10.5897 3.2457 1.24699 0
M  V30 108 H 9.9127 3.93283 0.718944 0
M  V30 109 H 11.3527 3.85963 1.75523 0
M  V30 110 C 9.8117 2.47237 2.28856 0
M  V30 111 O 10.3417 2.20808 3.35569 0
M  V30 112 N 8.5477 2.08461 2.02466 0
M  V30 113 H 8.0947 2.30155 1.157 0
M  V30 114 H 8.0527 1.57033 2.72375 0
M  V30 115 N 11.8248 0.280983 1.55075 0
M  V30 116 C 13.0708 -0.327573 2.00745 0
M  V30 117 C 13.4258 -1.53045 1.16598 0
M  V30 118 O 12.7188 -1.90221 0.229451 0
M  V30 119 C 12.9128 -0.754656 3.49342 0
M  V30 120 C 12.7418 0.40529 4.4787 0
M  V30 121 C 11.5118 0.890947 4.97383 0
M  V30 122 C 13.7098 1.24371 4.99035 0
M  V30 123 N 11.6918 2.01975 5.79724 0
M  V30 124 C 13.0628 2.22031 5.7888 0
M  V30 125 C 15.1178 1.27638 4.81262 0
M  V30 126 C 13.8208 3.22709 6.42846 0
M  V30 127 C 15.8468 2.27164 5.46031 0
M  V30 128 C 15.2088 3.23556 6.25692 0
M  V30 129 H 11.3078 -0.0848774 0.77738 0
M  V30 130 H 13.8918 0.406342 1.90413 0
M  V30 131 H 12.0628 -1.45778 3.60005 0
M  V30 132 H 13.7948 -1.34105 3.81835 0
M  V30 133 H 10.5498 0.469262 4.71269 0
M  V30 134 H 10.9738 2.58794 6.25584 0
M  V30 135 H 15.6158 0.544936 4.19274 0
M  V30 136 H 13.3338 3.96784 7.0398 0
M  V30 137 H 16.9198 2.30441 5.34217 0
M  V30 138 H 15.7998 3.99309 6.74924 0
M  V30 139 N 13.3029 -1.57598 0.00835791 0
M  V30 140 C 14.5799 -1.82172 -0.712235 0
M  V30 141 C 14.9599 -0.887873 -1.9152 0
M  V30 142 O 14.3079 0.06146 -2.28417 0
M  V30 143 C 14.5179 -3.30875 -1.11008 0
M  V30 144 C 15.8659 -3.96826 -1.51044 0
M  V30 145 O 16.8899 -3.35248 -1.20364 0
M  V30 146 O 15.7489 -5.05318 -2.08125 0
M  V30 147 H 12.8429 -0.750435 -0.347529 0
M  V30 148 H 15.3889 -1.69665 0.0344523 0
M  V30 149 H 14.1609 -3.90481 -0.252982 0
M  V30 150 H 13.7839 -3.48412 -1.9156 0
M  V30 151 N 14.781 0.264519 -1.55364 0
M  V30 152 C 16.029 0.993021 -1.76021 0
M  V30 153 C 16.35 1.86511 -0.569099 0
M  V30 154 O 15.62 1.91438 0.415735 0
M  V30 155 H 14.2 0.369639 -0.649135 0
M  V30 156 H 16.862 0.286707 -1.9278 0
M  V30 157 H 15.958 1.62502 -2.66457 0
M  V30 158 N 16.2591 1.48442 0.529413 0
M  V30 159 C 17.1691 1.6569 1.66084 0
M  V30 160 C 18.1851 0.539432 1.65427 0
M  V30 161 O 19.3611 0.810572 1.84368 0
M  V30 162 C 16.4261 1.69315 3.02545 0
M  V30 163 C 15.4871 2.92694 3.14052 0
M  V30 164 C 14.7201 2.96137 4.44003 0
M  V30 165 O 14.9431 2.07973 5.31134 0
M  V30 166 O 13.8771 3.88312 4.59888 0
M  V30 167 H 17.7031 2.61483 1.54469 0
M  V30 168 H 15.2881 1.3185 0.702567 0
M  V30 169 H 17.1701 1.74217 3.83701 0
M  V30 170 H 15.8451 0.766966 3.14483 0
M  V30 171 H 14.7521 2.93324 2.32189 0
M  V30 172 H 16.0851 3.84699 3.0703 0
M  V30 173 N 17.7372 -0.778329 1.37039 0
M  V30 174 C 18.6702 -1.8984 1.26633 0
M  V30 175 C 19.6482 -1.61923 0.148197 0
M  V30 176 O 20.8322 -1.85742 0.321265 0
M  V30 177 C 17.9592 -3.24916 0.956403 0
M  V30 178 C 17.0052 -3.71752 2.09051 0
M  V30 179 S 17.8382 -3.86201 3.70957 0
M  V30 180 C 18.9942 -5.24135 3.42101 0
M  V30 181 H 19.2272 -1.98377 2.21436 0
M  V30 182 H 16.7602 -0.938738 1.22585 0
M  V30 183 H 18.7182 -4.02936 0.784409 0
M  V30 184 H 17.3792 -3.14089 0.0259713 0
M  V30 185 H 16.5722 -4.69661 1.8285 0
M  V30 186 H 16.1742 -3.00815 2.2223 0
M  V30 187 H 18.4662 -6.09086 2.96682 0
M  V30 188 H 19.4092 -5.55346 4.39314 0
M  V30 189 H 19.8172 -4.91761 2.77185 0
M  V30 190 N 19.2153 -1.21501 -1.00376 0
M  V30 191 C 20.4433 -1.059 -1.77744 0
M  V30 192 C 20.8583 0.391125 -1.84704 0
M  V30 193 O 20.2153 1.27133 -1.30933 0
M  V30 194 C 20.2663 -1.65111 -3.21591 0
M  V30 195 O 19.9873 -3.0445 -3.15027 0
M  V30 196 C 21.4883 -1.54637 -4.15454 0
M  V30 197 H 18.7083 -0.371825 -0.558558 0
M  V30 198 H 21.2523 -1.60865 -1.26264 0
M  V30 199 H 19.4073 -1.14235 -3.70175 0
M  V30 200 H 19.8213 -3.3278 -4.0541 0
M  V30 201 H 21.2953 -2.00808 -5.14179 0
M  V30 202 H 21.7723 -0.501022 -4.36333 0
M  V30 203 H 22.3783 -2.04767 -3.72761 0
M  V30 204 N 20.6934 1.19889 -1.02296 0
M  V30 205 C 21.9394 1.89701 -0.717033 0
M  V30 206 C 22.2724 1.7905 0.751989 0
M  V30 207 O 21.5474 1.17891 1.547 0
M  V30 208 C 21.8304 3.40858 -1.16136 0
M  V30 209 C 21.6834 3.60411 -2.69117 0
M  V30 210 C 23.0024 4.33876 -0.737549 0
M  V30 211 H 20.1214 0.688874 -0.261957 0
M  V30 212 H 22.7634 1.41154 -1.27183 0
M  V30 213 H 20.9134 3.82335 -0.689342 0
M  V30 214 H 22.5854 3.28145 -3.2422 0
M  V30 215 H 20.8284 3.03665 -3.0979 0
M  V30 216 H 21.4994 4.66396 -2.95261 0
M  V30 217 H 23.9754 4.00081 -1.14344 0
M  V30 218 H 22.8514 5.38242 -1.0764 0
M  V30 219 H 23.1124 4.40628 0.360436 0
M  V30 220 N 22.1715 0.800033 1.35784 0
M  V30 221 C 23.3995 0.389606 2.03199 0
M  V30 222 C 23.8145 -0.997375 1.60306 0
M  V30 223 O 23.1715 -1.64154 0.797481 0
M  V30 224 C 23.2225 0.455855 3.58614 0
M  V30 225 O 22.9435 1.78815 3.99946 0
M  V30 226 C 24.4445 0.0374032 4.43284 0
M  V30 227 H 21.6645 0.159132 0.651857 0
M  V30 228 H 24.2085 1.08183 1.73541 0
M  V30 229 H 22.3635 -0.188057 3.86943 0
M  V30 230 H 22.7775 1.74636 4.94573 0
M  V30 231 H 24.2515 0.134882 5.51835 0
M  V30 232 H 24.7285 -1.01651 4.27275 0
M  V30 233 H 25.3345 0.654215 4.20238 0
M  V30 234 N 23.6496 -1.47581 0.552962 0
M  V30 235 C 25.0656 -1.5818 0.212424 0
M  V30 236 C 25.2656 -1.55213 -1.28496 0
M  V30 237 O 24.3216 -1.45329 -2.06484 0
M  V30 238 C 25.6346 -2.88865 0.835318 0
M  V30 239 C 27.1826 -3.0244 0.806156 0
M  V30 240 C 27.6576 -4.35819 1.40804 0
M  V30 241 N 29.1486 -4.42444 1.37103 0
M  V30 242 C 29.8836 -5.44202 1.80641 0
M  V30 243 N 29.3796 -6.52795 2.32015 0
M  V30 244 N 31.1726 -5.35222 1.71738 0
M  V30 245 H 23.3236 -1.47753 1.52587 0
M  V30 246 H 25.5866 -0.702941 0.636064 0
M  V30 247 H 25.2926 -2.9676 1.88749 0
M  V30 248 H 25.1666 -3.7579 0.325848 0
M  V30 249 H 27.5536 -2.94144 -0.237317 0
M  V30 250 H 27.6346 -2.17068 1.35334 0
M  V30 251 H 27.2786 -4.44871 2.45056 0
M  V30 252 H 27.2086 -5.19916 0.836338 0
M  V30 253 H 29.6996 -3.6456 0.995202 0
M  V30 254 H 30.0126 -7.26609 2.63171 0
M  V30 255 H 28.3576 -6.53696 2.36023 0
M  V30 256 H 31.5486 -4.49284 1.31382 0
M  V30 257 H 31.7216 -6.14389 2.05987 0
M  V30 258 N 25.1277 -0.289203 -1.54924 0
M  V30 259 C 26.3747 0.323519 -1.99899 0
M  V30 260 C 26.7027 1.54797 -1.17762 0
M  V30 261 O 25.9577 1.94237 -0.238835 0
M  V30 262 C 26.2567 0.736119 -3.49737 0
M  V30 263 C 25.9227 -0.385276 -4.49251 0
M  V30 264 C 24.5847 -0.693156 -4.76181 0
M  V30 265 C 26.9367 -1.14021 -5.08575 0
M  V30 266 C 24.2647 -1.7593 -5.59701 0
M  V30 267 C 26.6167 -2.19619 -5.93254 0
M  V30 268 C 25.2807 -2.51026 -6.185 0
M  V30 269 H 24.5507 0.118384 -0.731482 0
M  V30 270 H 27.1977 -0.405847 -1.8715 0
M  V30 271 H 25.5027 1.54539 -3.60035 0
M  V30 272 H 27.1997 1.22118 -3.81953 0
M  V30 273 H 23.7897 -0.135202 -4.28387 0
M  V30 274 H 27.9737 -0.915611 -4.87781 0
M  V30 275 H 23.2297 -2.0075 -5.77503 0
M  V30 276 H 27.4037 -2.78581 -6.38252 0
M  V30 277 H 25.0307 -3.33772 -6.83008 0
M  V30 278 N 26.6058 1.57591 -0.0167156 0
M  V30 279 C 27.8828 1.82547 0.702564 0
M  V30 280 C 28.2628 0.898018 1.91047 0
M  V30 281 O 27.6108 -0.0493456 2.28447 0
M  V30 282 C 27.8208 3.31459 1.09251 0
M  V30 283 C 29.1688 3.97622 1.48937 0
M  V30 284 O 30.1928 3.35881 1.18584 0
M  V30 285 O 29.0518 5.06415 2.05442 0
M  V30 286 H 26.1458 0.752268 0.343544 0
M  V30 287 H 28.6918 1.69644 -0.0434495 0
M  V30 288 H 27.4638 3.9061 0.23227 0
M  V30 289 H 27.0868 3.49422 1.89709 0
M  V30 290 N 28.0839 -0.256276 1.55502 0
M  V30 291 C 29.4999 -0.604325 1.47716 0
M  V30 292 C 29.6999 -1.88763 0.705039 0
M  V30 293 O 28.7559 -2.51445 0.230613 0
M  V30 294 C 30.0689 -0.715756 2.92057 0
M  V30 295 C 31.6169 -0.808706 3.02372 0
M  V30 296 C 32.0919 -0.951777 4.48001 0
M  V30 297 N 33.5829 -1.01688 4.519 0
M  V30 298 C 34.3179 -1.14668 5.61817 0
M  V30 299 N 33.8139 -1.24261 6.81565 0
M  V30 300 N 35.6069 -1.1791 5.49594 0
M  V30 301 H 27.7579 0.586291 2.04148 0
M  V30 302 H 30.0209 0.201015 0.926443 0
M  V30 303 H 29.7269 0.157027 3.51349 0
M  V30 304 H 29.6009 -1.59071 3.42018 0
M  V30 305 H 31.9879 -1.67195 2.43166 0
M  V30 306 H 32.0689 0.0912063 2.55637 0
M  V30 307 H 31.7129 -0.0931291 5.07815 0
M  V30 308 H 31.6429 -1.86659 4.92408 0
M  V30 309 H 34.1339 -0.954468 3.65648 0
M  V30 310 H 34.4469 -1.34046 7.61086 0
M  V30 311 H 32.7919 -1.21236 6.84344 0
M  V30 312 H 35.9829 -1.10057 4.54978 0
M  V30 313 H 36.1559 -1.27681 6.35296 0
M  V30 314 N 29.562 -1.4872 -0.521534 0
M  V30 315 C 30.472 -1.66569 -1.65203 0
M  V30 316 C 31.488 -0.548197 -1.65139 0
M  V30 317 O 32.664 -0.820339 -1.83936 0
M  V30 318 C 29.729 -1.70917 -3.01642 0
M  V30 319 C 28.79 -2.94356 -3.12495 0
M  V30 320 C 28.023 -2.98487 -4.42426 0
M  V30 321 O 28.246 -2.10786 -5.30024 0
M  V30 322 O 27.18 -3.90746 -4.57822 0
M  V30 323 H 31.006 -2.62298 -1.5308 0
M  V30 324 H 28.591 -1.3222 -0.695565 0
M  V30 325 H 30.473 -1.7625 -3.82771 0
M  V30 326 H 29.148 -0.783633 -3.14071 0
M  V30 327 H 28.055 -2.94552 -2.3063 0
M  V30 328 H 29.388 -3.86322 -3.04986 0
M  V30 329 N 31.0401 0.771051 -1.3745 0
M  V30 330 C 32.2681 1.56015 -1.35893 0
M  V30 331 C 32.6831 1.88718 0.0555523 0
M  V30 332 O 32.0401 1.51502 1.01752 0
M  V30 333 C 32.0911 2.87001 -2.19801 0
M  V30 334 O 31.8121 2.557 -3.55738 0
M  V30 335 C 33.3131 3.81228 -2.26231 0
M  V30 336 H 30.5331 0.483317 -0.465453 0
M  V30 337 H 33.0771 0.955611 -1.80799 0
M  V30 338 H 31.2321 3.43877 -1.78402 0
M  V30 339 H 31.6461 3.39584 -3.99729 0
M  V30 340 H 33.1201 4.70139 -2.89263 0
M  V30 341 H 33.5971 4.20409 -1.27093 0
M  V30 342 H 34.2031 3.30281 -2.67945 0
M  V30 343 N 32.5182 1.22032 0.997298 0
M  V30 344 C 33.7662 1.04016 1.73278 0
M  V30 345 C 34.0872 -0.426255 1.90284 0
M  V30 346 O 33.3572 -1.30694 1.45931 0
M  V30 347 H 31.9372 0.381897 0.642 0
M  V30 348 H 34.5992 1.5347 1.20137 0
M  V30 349 H 33.6952 1.51441 2.72896 0
M  V30 350 N 33.9963 -1.19345 1.0293 0
M  V30 351 C 34.9593 -2.20793 0.615069 0
M  V30 352 C 35.9593 -1.57553 -0.321533 0
M  V30 353 O 37.1493 -1.73862 -0.108483 0
M  V30 354 C 34.2813 -3.40754 -0.0999222 0
M  V30 355 H 35.4743 -2.58955 1.51269 0
M  V30 356 H 33.0273 -1.3303 0.820534 0
M  V30 357 H 33.7623 -3.0811 -1.01187 0
M  V30 358 H 33.5473 -3.87889 0.57309 0
M  V30 359 H 35.0373 -4.15898 -0.376645 0
M  V30 360 N 35.4744 -0.807222 -1.35358 0
M  V30 361 C 36.4244 -0.190706 -2.27201 0
M  V30 362 C 37.4084 0.635838 -1.47804 0
M  V30 363 O 38.6004 0.492991 -1.69996 0
M  V30 364 C 35.7294 0.659337 -3.36909 0
M  V30 365 C 34.8154 -0.176971 -4.23731 0
M  V30 366 N 35.2064 -1.24029 -4.90357 0
M  V30 367 C 33.5044 0.0412953 -4.45981 0
M  V30 368 C 34.2054 -1.75092 -5.54723 0
M  V30 369 N 33.1814 -1.05727 -5.33219 0
M  V30 370 H 36.9834 -1.0043 -2.76208 0
M  V30 371 H 34.4974 -0.648445 -1.48892 0
M  V30 372 H 36.4944 1.11706 -4.01656 0
M  V30 373 H 35.1544 1.47127 -2.89454 0
M  V30 374 H 36.1654 -1.62295 -4.91814 0
M  V30 375 H 32.8424 0.82232 -4.09322 0
M  V30 376 H 34.2324 -2.63963 -6.17878 0
M  V30 377 N 36.9525 1.47285 -0.560781 0
M  V30 378 C 38.1995 2.02464 -0.038062 0
M  V30 379 C 38.5275 1.43474 1.31322 0
M  V30 380 O 37.7825 0.581311 1.86867 0
M  V30 381 C 38.0815 3.57258 0.100784 0
M  V30 382 C 37.7475 4.35184 -1.18007 0
M  V30 383 C 36.4095 4.56194 -1.53103 0
M  V30 384 C 38.7615 4.80098 -2.02867 0
M  V30 385 C 36.0895 5.19367 -2.729 0
M  V30 386 C 38.4415 5.44593 -3.21871 0
M  V30 387 C 37.1055 5.63835 -3.57276 0
M  V30 388 H 36.3755 0.740869 -0.0139279 0
M  V30 389 H 39.0225 1.76916 -0.733012 0
M  V30 390 H 37.3275 3.81819 0.878724 0
M  V30 391 H 39.0245 3.97606 0.520639 0
M  V30 392 H 35.6145 4.19113 -0.8968 0
M  V30 393 H 39.7985 4.63642 -1.7706 0
M  V30 394 H 35.0545 5.32459 -3.00496 0
M  V30 395 H 39.2285 5.78358 -3.87911 0
M  V30 396 H 36.8555 6.12557 -4.50197 0
M  V30 397 N 38.4306 0.297415 1.54768 0
M  V30 398 C 39.6766 -0.313376 2.00364 0
M  V30 399 C 40.0096 -1.53815 1.18553 0
M  V30 400 O 39.2846 -1.92739 0.261103 0
M  V30 401 C 39.5676 -0.673525 3.53745 0
M  V30 402 C 39.4206 0.560133 4.46299 0
M  V30 403 C 40.7396 -1.50143 4.13697 0
M  V30 404 H 37.8586 -0.112428 0.728374 0
M  V30 405 H 40.5006 0.4088 1.8555 0
M  V30 406 H 38.6506 -1.28881 3.665 0
M  V30 407 H 40.3226 1.19863 4.45455 0
M  V30 408 H 38.5656 1.19405 4.17043 0
M  V30 409 H 39.2366 0.26405 5.51368 0
M  V30 410 H 41.7126 -0.981588 4.04356 0
M  V30 411 H 40.5886 -1.72221 5.21182 0
M  V30 412 H 40.8496 -2.48952 3.65343 0
M  V30 413 N 39.9087 -1.5758 0.0250728 0
M  V30 414 C 41.1577 -1.90811 -0.653767 0
M  V30 415 C 41.4707 -0.90273 -1.73523 0
M  V30 416 O 42.6767 -1.12614 -2.47043 0
M  V30 417 C 41.1327 -3.38804 -1.21409 0
M  V30 418 C 40.7407 -4.47692 -0.166126 0
M  V30 419 C 42.4847 -3.81108 -1.86967 0
M  V30 420 C 40.3917 -5.86779 -0.737856 0
M  V30 421 H 39.3217 -0.712063 -0.247956 0
M  V30 422 H 41.9727 -1.83281 0.0897137 0
M  V30 423 H 40.3547 -3.41252 -2.00905 0
M  V30 424 H 41.5287 -4.56797 0.606079 0
M  V30 425 H 39.8437 -4.14565 0.390466 0
M  V30 426 H 42.4407 -4.82375 -2.30692 0
M  V30 427 H 42.7837 -3.15953 -2.71071 0
M  V30 428 H 43.3167 -3.81065 -1.14167 0
M  V30 429 H 40.0557 -6.55468 0.0649577 0
M  V30 430 H 39.5757 -5.81288 -1.47864 0
M  V30 431 H 41.2547 -6.35223 -1.22884 0
M  V30 432 N 41.3868 0.248026 -1.55636 0
M  V30 433 C 42.8028 0.596483 -1.48035 0
M  V30 434 C 43.0028 1.88386 -0.715039 0
M  V30 435 O 42.0588 2.51319 -0.243944 0
M  V30 436 C 43.3718 0.700258 -2.92433 0
M  V30 437 C 44.9198 0.792659 -3.02797 0
M  V30 438 C 45.3948 0.928005 -4.485 0
M  V30 439 N 46.8858 0.992903 -4.52433 0
M  V30 440 C 47.6208 1.11687 -5.62418 0
M  V30 441 N 47.1168 1.20645 -6.82214 0
M  V30 442 N 48.9098 1.14994 -5.50212 0
M  V30 443 H 41.0608 -0.597109 -2.03834 0
M  V30 444 H 43.3238 -0.205925 -0.925364 0
M  V30 445 H 43.0298 -0.175658 -3.51261 0
M  V30 446 H 42.9038 1.57255 -3.42857 0
M  V30 447 H 45.2908 1.65903 -2.4405 0
M  V30 448 H 45.3718 -0.104762 -2.55585 0
M  V30 449 H 45.0158 0.0661971 -5.07857 0
M  V30 450 H 44.9458 1.84045 -4.93391 0
M  V30 451 H 47.4368 0.935064 -3.66149 0
M  V30 452 H 47.7498 1.30008 -7.61786 0
M  V30 453 H 46.0948 1.17605 -6.84977 0
M  V30 454 H 49.2858 1.07643 -4.55555 0
M  V30 455 H 49.4588 1.24311 -6.35965 0
M  V30 456 N 42.8649 1.48995 0.513639 0
M  V30 457 C 43.7949 1.67636 1.62544 0
M  V30 458 C 44.7759 0.525087 1.61793 0
M  V30 459 O 45.9609 0.759502 1.78732 0
M  V30 460 C 43.0909 1.73114 3.01079 0
M  V30 461 C 42.0449 2.87905 3.16693 0
M  V30 462 C 41.3709 2.78486 4.56453 0
M  V30 463 C 42.6709 4.29005 2.97913 0
M  V30 464 H 44.3649 2.60716 1.47198 0
M  V30 465 H 41.9109 1.25465 0.706714 0
M  V30 466 H 43.8639 1.84742 3.78746 0
M  V30 467 H 42.5879 0.766241 3.17484 0
M  V30 468 H 41.2469 2.75859 2.41448 0
M  V30 469 H 40.8949 1.7993 4.69717 0
M  V30 470 H 40.5949 3.55523 4.67843 0
M  V30 471 H 42.1189 2.92104 5.36197 0
M  V30 472 H 43.5329 4.41798 3.65359 0
M  V30 473 H 41.9299 5.07166 3.20785 0
M  V30 474 H 42.9999 4.44329 1.94165 0
M  V30 475 N 44.343 -0.763751 1.37857 0
M  V30 476 C 45.62 -1.51244 1.24035 0
M  V30 477 C 46 -2.10472 -0.162649 0
M  V30 478 O 45.348 -1.96206 -1.17112 0
M  V30 479 C 45.558 -2.58694 2.34261 0
M  V30 480 C 46.906 -3.25878 2.72193 0
M  V30 481 O 47.93 -2.68993 2.33497 0
M  V30 482 O 46.789 -4.2874 3.38887 0
M  V30 483 H 43.883 -0.670243 0.484462 0
M  V30 484 H 46.429 -0.800031 1.49658 0
M  V30 485 H 45.201 -2.13105 3.2818 0
M  V30 486 H 44.824 -3.37527 2.10146 0
M  V30 487 N 45.8211 -1.22559 -0.990812 0
M  V30 488 C 47.0461 -1.07862 -1.77145 0
M  V30 489 C 47.4711 0.366447 -1.84496 0
M  V30 490 O 46.8291 1.26478 -1.29896 0
M  V30 491 C 46.8771 -1.69686 -3.18181 0
M  V30 492 O 45.9811 -0.951946 -4.01263 0
M  V30 493 H 45.3221 -0.378712 -0.545411 0
M  V30 494 H 47.8521 -1.62399 -1.2445 0
M  V30 495 H 47.8621 -1.74496 -3.68802 0
M  V30 496 H 46.5371 -2.74841 -3.12146 0
M  V30 497 H 45.1141 -0.980011 -3.59792 0
M  V30 498 N 47.2992 1.18797 -1.03562 0
M  V30 499 C 48.5272 1.92599 -0.755869 0
M  V30 500 C 48.9422 1.75886 0.686271 0
M  V30 501 O 48.2992 1.08517 1.46732 0
M  V30 502 C 48.3502 3.44159 -1.10619 0
M  V30 503 O 48.0712 3.60341 -2.4917 0
M  V30 504 C 49.5722 4.3507 -0.850214 0
M  V30 505 H 46.7922 0.611587 -0.276048 0
M  V30 506 H 49.3362 1.50742 -1.38192 0
M  V30 507 H 47.4912 3.83823 -0.525194 0
M  V30 508 H 47.9052 4.54128 -2.62427 0
M  V30 509 H 49.3792 5.39989 -1.14523 0
M  V30 510 H 49.8562 4.38673 0.215176 0
M  V30 511 H 50.4622 4.01097 -1.41426 0
M  V30 512 N 48.7773 0.814389 1.34928 0
M  V30 513 C 49.7093 0.187834 2.28429 0
M  V30 514 C 50.7223 -0.617374 1.5064 0
M  V30 515 O 51.9113 -0.448454 1.72775 0
M  V30 516 C 49.0113 -0.755962 3.30361 0
M  V30 517 C 48.1843 0.00456686 4.374 0
M  V30 518 C 47.2433 -0.858876 5.19143 0
M  V30 519 O 46.2693 -0.306968 5.68372 0
M  V30 520 N 47.4713 -2.17988 5.38016 0
M  V30 521 H 50.2363 0.991105 2.82838 0
M  V30 522 H 47.7973 0.670561 1.4736 0
M  V30 523 H 49.7893 -1.338 3.81942 0
M  V30 524 H 48.3593 -1.46001 2.7641 0
M  V30 525 H 47.5793 0.767865 3.86649 0
M  V30 526 H 48.8673 0.528422 5.06049 0
M  V30 527 H 48.2653 -2.65212 4.99679 0
M  V30 528 H 46.8223 -2.71098 5.92747 0
M  V30 529 N 50.2554 -1.46986 0.568584 0
M  V30 530 C 51.1854 -2.32946 -0.160753 0
M  V30 531 C 52.1664 -1.44487 -0.897631 0
M  V30 532 O 53.3514 -1.73327 -0.875867 0
M  V30 533 C 50.4814 -3.26494 -1.18403 0
M  V30 534 C 49.4354 -4.24282 -0.562895 0
M  V30 535 C 48.7614 -5.07236 -1.69163 0
M  V30 536 C 50.0614 -5.19989 0.490761 0
M  V30 537 H 51.7554 -2.94175 0.556916 0
M  V30 538 H 49.3014 -1.4146 0.26927 0
M  V30 539 H 51.2544 -3.85477 -1.70251 0
M  V30 540 H 49.9784 -2.63343 -1.93179 0
M  V30 541 H 48.6374 -3.66541 -0.0656164 0
M  V30 542 H 48.2854 -4.4048 -2.42871 0
M  V30 543 H 47.9854 -5.7345 -1.28174 0
M  V30 544 H 49.5094 -5.6908 -2.21314 0
M  V30 545 H 50.9234 -5.73271 0.0579047 0
M  V30 546 H 49.3204 -5.94469 0.820165 0
M  V30 547 H 50.3904 -4.64777 1.3824 0
M  V30 548 N 51.7335 -0.305618 -1.54608 0
M  V30 549 C 52.9815 0.301701 -1.99835 0
M  V30 550 C 53.3025 1.54054 -1.19551 0
M  V30 551 O 52.5725 1.93702 -0.292658 0
M  V30 552 H 51.1525 0.114468 -0.738178 0
M  V30 553 H 53.8145 -0.418016 -1.90364 0
M  V30 554 H 52.9105 0.570548 -3.06841 0
M  V30 555 N 53.2116 1.57565 -0.0334293 0
M  V30 556 C 54.6226 1.79746 0.504798 0
M  V30 557 C 54.9736 0.944091 1.71992 0
M  V30 558 O 54.0986 0.155694 2.15839 0
M  V30 559 C 54.6936 3.25997 0.922567 0
M  V30 560 C 53.2526 3.49159 1.40588 0
M  V30 561 C 52.3996 2.74785 0.372633 0
M  V30 562 H 55.3506 1.56565 -0.259436 0
M  V30 563 H 55.3716 3.35945 1.78666 0
M  V30 564 H 54.8836 3.88081 0.0379825 0
M  V30 565 H 52.9846 2.92332 2.31025 0
M  V30 566 H 53.0976 4.57873 1.41028 0
M  V30 567 H 51.4616 2.40391 0.841672 0
M  V30 568 H 52.2446 3.39587 -0.503559 0
M  V30 569 N 54.6897 -0.239769 1.55765 0
M  V30 570 C 55.6527 -1.28038 1.90103 0
M  V30 571 C 56.6527 -1.40723 0.778055 0
M  V30 572 O 57.8427 -1.39301 1.04599 0
M  V30 573 C 54.9747 -2.65702 2.13577 0
M  V30 574 H 56.1677 -0.988048 2.83157 0
M  V30 575 H 53.7207 -0.479382 1.48767 0
M  V30 576 H 54.4557 -3.00063 1.23015 0
M  V30 577 H 54.2407 -2.57875 2.95369 0
M  V30 578 H 55.7307 -3.40828 2.41301 0
M  V30 579 N 56.1678 -1.49265 -0.50573 0
M  V30 580 C 57.1308 -1.65075 -1.59006 0
M  V30 581 C 58.1308 -0.522768 -1.52065 0
M  V30 582 O 59.3208 -0.789117 -1.55302 0
M  V30 583 C 56.4528 -1.64369 -2.98656 0
M  V30 584 H 57.6458 -2.61784 -1.46319 0
M  V30 585 H 55.1988 -1.38226 -0.729616 0
M  V30 586 H 55.9338 -0.692272 -3.16825 0
M  V30 587 H 55.7188 -2.46282 -3.05103 0
M  V30 588 H 57.2088 -1.78674 -3.77446 0
M  V30 589 N 57.6459 0.756429 -1.3826 0
M  V30 590 C 58.8939 1.51248 -1.34047 0
M  V30 591 C 59.2149 1.94875 0.0698372 0
M  V30 592 O 58.4849 1.67436 1.01696 0
M  V30 593 H 57.0649 0.561018 -0.493222 0
M  V30 594 H 59.7269 0.899347 -1.7291 0
M  V30 595 H 58.8229 2.40472 -1.98947 0
M  V30 596 N 59.124 1.23083 0.984299 0
M  V30 597 C 60.372 1.05848 1.72165 0
M  V30 598 C 60.693 -0.406049 1.90726 0
M  V30 599 O 59.963 -1.29139 1.47309 0
M  V30 600 H 58.543 0.388685 0.637913 0
M  V30 601 H 61.205 1.54736 1.18503 0
M  V30 602 H 60.301 1.54327 2.71274 0
M  V30 603 N 60.6021 -1.18246 1.0419 0
M  V30 604 C 61.8301 -1.92195 0.766072 0
M  V30 605 C 62.2451 -1.76247 -0.676933 0
M  V30 606 O 61.6021 -1.09293 -1.46155 0
M  V30 607 C 61.6531 -3.43568 1.12442 0
M  V30 608 O 61.3741 -3.59015 2.51078 0
M  V30 609 C 62.8751 -4.34613 0.873275 0
M  V30 610 H 60.0951 -0.610114 0.279288 0
M  V30 611 H 62.6391 -1.50007 1.38989 0
M  V30 612 H 60.7941 -3.8354 0.545542 0
M  V30 613 H 61.2081 -4.5273 2.64831 0
M  V30 614 H 62.6821 -5.39374 1.17385 0
M  V30 615 H 63.1591 -4.38781 -0.191909 0
M  V30 616 H 63.7651 -4.00341 1.43551 0
M  V30 617 N 62.0802 -0.821533 -1.34494 0
M  V30 618 C 63.4962 -0.507117 -1.51329 0
M  V30 619 C 63.6962 0.968964 -1.76673 0
M  V30 620 O 62.7522 1.75348 -1.81685 0
M  V30 621 C 64.0652 -1.36544 -2.67911 0
M  V30 622 C 65.6132 -1.36242 -2.81793 0
M  V30 623 C 66.0882 -2.2052 -4.01416 0
M  V30 624 N 67.5792 -2.18136 -4.08621 0
M  V30 625 C 68.3142 -2.80095 -5.00334 0
M  V30 626 N 67.8102 -3.51039 -5.9728 0
M  V30 627 N 69.6032 -2.69656 -4.93196 0
M  V30 628 H 61.7542 -1.77729 -1.16302 0
M  V30 629 H 64.0172 -0.757291 -0.570276 0
M  V30 630 H 63.7232 -2.41361 -2.55808 0
M  V30 631 H 63.5972 -1.02917 -3.62888 0
M  V30 632 H 65.9842 -0.322041 -2.93338 0
M  V30 633 H 66.0652 -1.73866 -1.87628 0
M  V30 634 H 65.7092 -3.24607 -3.90631 0
M  V30 635 H 65.6392 -1.80247 -4.94791 0
M  V30 636 H 68.1302 -1.6653 -3.39229 0
M  V30 637 H 68.4432 -3.95565 -6.63889 0
M  V30 638 H 66.7882 -3.55145 -5.97409 0
M  V30 639 H 69.9792 -2.13808 -4.16418 0
M  V30 640 H 70.1522 -3.1823 -5.64476 0
M  V30 641 N 63.5583 1.46682 -0.576371 0
M  V30 642 C 64.5213 2.28707 0.150239 0
M  V30 643 C 65.5213 1.38035 0.824794 0
M  V30 644 O 66.7113 1.60476 0.677719 0
M  V30 645 C 63.8433 3.18248 1.22192 0
M  V30 646 H 65.0363 2.94423 -0.570521 0
M  V30 647 H 62.5893 1.52688 -0.334078 0
M  V30 648 H 63.3243 2.57265 1.97447 0
M  V30 649 H 63.1093 3.85 0.742812 0
M  V30 650 H 64.5993 3.80001 1.73172 0
M  V30 651 N 65.0364 0.313813 1.54444 0
M  V30 652 C 65.9994 -0.54379 2.22656 0
M  V30 653 C 66.9994 -1.05124 1.21678 0
M  V30 654 O 68.1894 -0.945225 1.46325 0
M  V30 655 C 65.3214 -1.75427 2.92298 0
M  V30 656 H 66.5144 0.0523599 2.99854 0
M  V30 657 H 64.0674 0.0647834 1.56166 0
M  V30 658 H 64.8024 -2.38991 2.19211 0
M  V30 659 H 64.5874 -1.39791 3.66334 0
M  V30 660 H 66.0774 -2.36325 3.44297 0
M  V30 661 N 66.5145 -1.57545 0.0417849 0
M  V30 662 C 67.4465 -2.07904 -0.964799 0
M  V30 663 C 68.4595 -1.00497 -1.28079 0
M  V30 664 O 69.6485 -1.28087 -1.24322 0
M  V30 665 C 66.7485 -2.49928 -2.28887 0
M  V30 666 C 65.9215 -3.80562 -2.15619 0
M  V30 667 C 64.9805 -4.08999 -3.31069 0
M  V30 668 O 64.0065 -4.79061 -3.0739 0
M  V30 669 N 65.2085 -3.6017 -4.55256 0
M  V30 670 H 67.9735 -2.94886 -0.535029 0
M  V30 671 H 65.5345 -1.61252 -0.144681 0
M  V30 672 H 67.5265 -2.66034 -3.04972 0
M  V30 673 H 66.0965 -1.68245 -2.63463 0
M  V30 674 H 65.3165 -3.74129 -1.24183 0
M  V30 675 H 66.6045 -4.66126 -2.03971 0
M  V30 676 H 66.0025 -3.03512 -4.77386 0
M  V30 677 H 64.5595 -3.81532 -5.28466 0
M  V30 678 N 67.9926 0.231505 -1.5589 0
M  V30 679 C 69.2226 0.973092 -1.82248 0
M  V30 680 C 69.6306 1.78845 -0.617328 0
M  V30 681 O 68.9736 1.78752 0.423499 0
M  V30 682 C 69.0356 1.94732 -3.02192 0
M  V30 683 C 68.6996 1.31743 -4.37599 0
M  V30 684 C 69.6966 0.712238 -5.14998 0
M  V30 685 C 67.3816 1.33218 -4.84312 0
M  V30 686 C 69.3756 0.130195 -6.37267 0
M  V30 687 C 67.0626 0.746286 -6.06526 0
M  V30 688 C 68.0606 0.146337 -6.82843 0
M  V30 689 O 67.7486 -0.430465 -8.02747 0
M  V30 690 H 67.4806 0.29125 -0.61004 0
M  V30 691 H 70.0346 0.254915 -2.03812 0
M  V30 692 H 68.2646 2.70422 -2.76422 0
M  V30 693 H 69.9536 2.55362 -3.15508 0
M  V30 694 H 70.7196 0.69324 -4.8002 0
M  V30 695 H 66.5986 1.78854 -4.24891 0
M  V30 696 H 70.1426 -0.33871 -6.96777 0
M  V30 697 H 66.0396 0.762663 -6.40979 0
M  V30 698 H 66.8076 -0.323818 -8.17859 0
M  V30 699 N 69.4707 1.49531 0.497807 0
M  V30 700 C 70.6957 1.63159 1.28039 0
M  V30 701 C 71.1207 0.30418 1.85624 0
M  V30 702 O 70.4787 -0.728618 1.66015 0
M  V30 703 C 70.5267 2.70537 2.38416 0
M  V30 704 O 69.6307 2.29931 3.42353 0
M  V30 705 H 68.9717 0.546001 0.377861 0
M  V30 706 H 71.5017 1.9574 0.59558 0
M  V30 707 H 71.5117 2.92802 2.84132 0
M  V30 708 H 70.1867 3.6689 1.95869 0
M  V30 709 H 68.7637 2.18009 3.02533 0
M  V30 710 N 70.9488 -0.749086 1.3866 0
M  V30 711 C 71.8808 -1.87273 1.32142 0
M  V30 712 C 72.8938 -1.61127 0.232787 0
M  V30 713 O 74.0828 -1.71623 0.49069 0
M  V30 714 C 71.1828 -3.23005 1.02571 0
M  V30 715 C 70.3558 -3.7662 2.22433 0
M  V30 716 C 69.4148 -4.90879 1.89537 0
M  V30 717 O 68.4408 -5.05276 2.62078 0
M  V30 718 N 69.6428 -5.74198 0.853031 0
M  V30 719 H 72.4078 -1.93373 2.28969 0
M  V30 720 H 69.9688 -0.929216 1.32579 0
M  V30 721 H 71.9608 -3.96992 0.786085 0
M  V30 722 H 70.5308 -3.12262 0.145249 0
M  V30 723 H 69.7508 -2.94147 2.62434 0
M  V30 724 H 71.0388 -4.09173 3.02415 0
M  V30 725 H 70.4368 -5.6514 0.25155 0
M  V30 726 H 68.9938 -6.48313 0.67329 0
M  V30 727 N 72.4269 -1.23603 -0.977757 0
M  V30 728 C 73.3569 -1.04401 -2.0886 0
M  V30 729 C 74.3379 0.0399052 -1.70053 0
M  V30 730 O 75.5229 -0.125246 -1.93796 0
M  V30 731 C 72.6529 -0.637269 -3.41403 0
M  V30 732 C 71.6069 -1.66883 -3.94124 0
M  V30 733 C 70.9329 -1.11745 -5.22893 0
M  V30 734 C 72.2329 -3.06247 -4.23096 0
M  V30 735 H 73.9269 -1.97316 -2.25182 0
M  V30 736 H 71.4729 -0.950096 -1.08209 0
M  V30 737 H 73.4259 -0.48998 -4.18542 0
M  V30 738 H 72.1499 0.327557 -3.24953 0
M  V30 739 H 70.8089 -1.80416 -3.19133 0
M  V30 740 H 70.4569 -0.143527 -5.02795 0
M  V30 741 H 70.1569 -1.80672 -5.59134 0
M  V30 742 H 71.6809 -0.982067 -6.02651 0
M  V30 743 H 73.0949 -2.96001 -4.90975 0
M  V30 744 H 71.4919 -3.72436 -4.70544 0
M  V30 745 H 72.5619 -3.55041 -3.30263 0
M  V30 746 N 73.905 1.17692 -1.04816 0
M  V30 747 C 74.868 2.19787 -0.650117 0
M  V30 748 C 75.868 1.58044 0.296427 0
M  V30 749 O 77.058 1.74012 0.0808097 0
M  V30 750 C 74.19 3.40869 0.0456987 0
M  V30 751 H 75.383 2.56516 -1.5537 0
M  V30 752 H 72.936 1.31708 -0.841594 0
M  V30 753 H 73.671 3.09681 0.962726 0
M  V30 754 H 73.456 3.86928 -0.634727 0
M  V30 755 H 74.946 4.16445 0.310432 0
M  V30 756 N 75.3831 0.828654 1.34056 0
M  V30 757 C 76.6601 0.341809 1.9259 0
M  V30 758 C 77.0401 -1.17158 1.75605 0
M  V30 759 O 76.3881 -1.98132 1.13824 0
M  V30 760 C 76.5981 0.777453 3.4023 0
M  V30 761 C 77.9461 0.779579 4.17382 0
M  V30 762 O 78.9701 0.7204 3.48839 0
M  V30 763 O 77.8291 0.857996 5.39723 0
M  V30 764 H 74.9231 0.0946085 0.821571 0
M  V30 765 H 77.4691 0.913827 1.42994 0
M  V30 766 H 76.2411 1.8196 3.46419 0
M  V30 767 H 75.8641 0.181444 3.97186 0
M  V30 768 N 76.8612 -1.46375 0.584142 0
M  V30 769 C 77.8242 -2.28784 -0.138108 0
M  V30 770 C 78.8242 -1.38471 -0.817462 0
M  V30 771 O 80.0142 -1.60833 -0.669199 0
M  V30 772 C 77.1462 -3.18892 -1.20503 0
M  V30 773 H 78.3392 -2.94117 0.586127 0
M  V30 774 H 75.8922 -1.52509 0.342171 0
M  V30 775 H 76.6272 -2.58309 -1.96079 0
M  V30 776 H 76.4122 -3.85388 -0.722384 0
M  V30 777 H 77.9022 -3.80914 -1.71155 0
M  V30 778 N 78.3393 -0.321999 -1.54275 0
M  V30 779 C 79.2693 0.537411 -2.27231 0
M  V30 780 C 80.2503 1.12064 -1.27968 0
M  V30 781 O 81.4353 1.14606 -1.56777 0
M  V30 782 C 78.5653 1.69919 -3.02894 0
M  V30 783 C 77.5193 1.24534 -4.09482 0
M  V30 784 C 76.8453 2.49394 -4.72977 0
M  V30 785 C 78.1453 0.361335 -5.21049 0
M  V30 786 H 79.8393 -0.0711406 -2.99315 0
M  V30 787 H 77.3853 -0.0356555 -1.43956 0
M  V30 788 H 79.3383 2.30668 -3.52662 0
M  V30 789 H 78.0623 2.33431 -2.28424 0
M  V30 790 H 76.7213 0.660782 -3.60596 0
M  V30 791 H 76.3693 3.11265 -3.95124 0
M  V30 792 H 76.0693 2.19718 -5.44975 0
M  V30 793 H 77.5933 3.10908 -5.25517 0
M  V30 794 H 79.0073 0.875072 -5.66582 0
M  V30 795 H 77.4043 0.157428 -5.99893 0
M  V30 796 H 78.4743 -0.60822 -4.8107 0
M  V30 797 N 79.8174 1.5752 -0.0501392 0
M  V30 798 C 81.0454 1.96963 0.633492 0
M  V30 799 C 81.4604 0.927631 1.6444 0
M  V30 800 O 80.8174 -0.0882665 1.82286 0
M  V30 801 C 80.8684 3.36487 1.32132 0
M  V30 802 O 80.5894 4.36693 0.350894 0
M  V30 803 C 82.0904 3.90682 2.09481 0
M  V30 804 H 79.3104 0.648244 0.173266 0
M  V30 805 H 81.8544 2.0417 -0.116134 0
M  V30 806 H 80.0094 3.30434 2.02218 0
M  V30 807 H 80.4234 5.17702 0.841735 0
M  V30 808 H 81.8974 4.90591 2.5303 0
M  V30 809 H 82.3744 3.26053 2.94255 0
M  V30 810 H 82.9804 4.00069 1.44307 0
M  V30 811 N 81.2955 -0.223234 1.56011 0
M  V30 812 C 82.5725 -0.972108 1.69733 0
M  V30 813 C 82.9525 -2.02485 0.59691 0
M  V30 814 O 82.3005 -2.25037 -0.396324 0
M  V30 815 C 82.5105 -1.58407 3.10979 0
M  V30 816 C 83.8585 -2.07696 3.70334 0
M  V30 817 O 84.8825 -1.68304 3.1393 0
M  V30 818 O 83.7415 -2.80096 4.69264 0
M  V30 819 H 80.8355 -0.453993 0.691245 0
M  V30 820 H 83.3815 -0.215149 1.68331 0
M  V30 821 H 82.1535 -0.823831 3.82529 0
M  V30 822 H 81.7765 -2.40661 3.16493 0
M  V30 823 N 82.7736 -1.49793 -0.48987 0
M  V30 824 C 83.7366 -1.66752 -1.57246 0
M  V30 825 C 84.7366 -0.538867 -1.51502 0
M  V30 826 O 85.9266 -0.805545 -1.54456 0
M  V30 827 C 83.0586 -1.67528 -2.96896 0
M  V30 828 H 84.2516 -2.63321 -1.43534 0
M  V30 829 H 81.8046 -1.38992 -0.714914 0
M  V30 830 H 82.5396 -0.725837 -3.16073 0
M  V30 831 H 82.3246 -2.49504 -3.02473 0
M  V30 832 H 83.8146 -1.82667 -3.7553 0
M  V30 833 N 84.2517 0.741722 -1.39055 0
M  V30 834 C 85.4997 1.49818 -1.35643 0
M  V30 835 C 85.8207 1.94938 0.0491642 0
M  V30 836 O 85.0907 1.68505 0.999141 0
M  V30 837 H 83.6707 0.555755 -0.499144 0
M  V30 838 H 86.3327 0.880957 -1.73854 0
M  V30 839 H 85.4287 2.38348 -2.01486 0
M  V30 840 N 85.7298 1.2412 0.971189 0
M  V30 841 C 86.6768 1.0305 2.06517 0
M  V30 842 C 87.6468 -0.0550666 1.66009 0
M  V30 843 O 88.8318 0.0988688 1.90544 0
M  V30 844 C 85.9718 0.637653 3.39158 0
M  V30 845 C 85.0848 1.79633 3.92882 0
M  V30 846 C 84.2198 1.34939 5.13775 0
M  V30 847 C 83.2588 2.47823 5.59687 0
M  V30 848 N 82.3958 2.04022 6.71803 0
M  V30 849 H 87.2358 1.96685 2.23873 0
M  V30 850 H 84.7728 0.979694 1.09729 0
M  V30 851 H 86.7308 0.390931 4.15364 0
M  V30 852 H 85.3608 -0.261693 3.21737 0
M  V30 853 H 84.4128 2.15681 3.13346 0
M  V30 854 H 85.7248 2.64466 4.22918 0
M  V30 855 H 84.8788 1.06134 5.97345 0
M  V30 856 H 83.6178 0.471557 4.85415 0
M  V30 857 H 82.6228 2.77392 4.74693 0
M  V30 858 H 83.8478 3.36158 5.90063 0
M  V30 859 H 81.7938 1.18632 6.45184 0
M  V30 860 H 81.7108 2.82409 7.01271 0
M  V30 861 H 82.9788 1.78347 7.58823 0
M  V30 862 N 87.2079 -1.17134 1.05439 0
M  V30 863 C 88.1379 -2.2342 0.678649 0
M  V30 864 C 89.1189 -1.66971 -0.32476 0
M  V30 865 O 90.3039 -1.93149 -0.201802 0
M  V30 866 C 87.4339 -3.47256 0.0552099 0
M  V30 867 C 86.3879 -4.16543 0.98365 0
M  V30 868 C 85.7139 -5.34231 0.223961 0
M  V30 869 C 87.0139 -4.68495 2.3089 0
M  V30 870 H 88.7079 -2.55105 1.56722 0
M  V30 871 H 86.2539 -1.2262 0.754998 0
M  V30 872 H 88.2069 -4.20828 -0.21946 0
M  V30 873 H 86.9309 -3.14846 -0.868319 0
M  V30 874 H 85.5899 -3.44887 1.24293 0
M  V30 875 H 85.2379 -4.98071 -0.702412 0
M  V30 876 H 84.9379 -5.81527 0.842627 0
M  V30 877 H 86.4619 -6.10585 -0.0433671 0
M  V30 878 H 87.8759 -5.33691 2.09396 0
M  V30 879 H 86.2729 -5.26379 2.88176 0
M  V30 880 H 87.3429 -3.85169 2.94572 0
M  V30 881 N 88.686 -0.835752 -1.33615 0
M  V30 882 C 89.649 -0.272 -2.2758 0
M  V30 883 C 90.649 0.557487 -1.50827 0
M  V30 884 O 91.839 0.37173 -1.70188 0
M  V30 885 C 88.971 0.617173 -3.35267 0
M  V30 886 H 90.164 -1.10111 -2.78954 0
M  V30 887 H 87.717 -0.608594 -1.43965 0
M  V30 888 H 88.452 1.46884 -2.89129 0
M  V30 889 H 88.237 0.0237066 -3.92093 0
M  V30 890 H 89.727 1.005 -4.05326 0
M  V30 891 N 90.1641 1.46063 -0.591896 0
M  V30 892 C 91.4121 2.01938 -0.0808391 0
M  V30 893 C 91.7331 1.46475 1.28725 0
M  V30 894 O 91.0031 0.652944 1.84698 0
M  V30 895 H 89.5831 0.746516 -0.0268938 0
M  V30 896 H 92.2451 1.79055 -0.769752 0
M  V30 897 H 91.3411 3.12094 -0.0187578 0
M  V30 898 N 91.6422 0.330177 1.54103 0
M  V30 899 C 92.6052 -0.520144 2.2322 0
M  V30 900 C 93.6052 -1.03828 1.22786 0
M  V30 901 O 94.7952 -0.929652 1.4732 0
M  V30 902 C 91.9272 -1.72317 2.94142 0
M  V30 903 H 93.1202 0.0841605 2.99782 0
M  V30 904 H 90.6732 0.0813433 1.56088 0
M  V30 905 H 91.4082 -2.36653 2.21734 0
M  V30 906 H 91.1932 -1.35898 3.67796 0
M  V30 907 H 92.6832 -2.3266 3.46784 0
M  V30 908 N 93.1203 -1.57491 0.0584922 0
M  V30 909 C 94.0533 -2.07533 -0.948969 0
M  V30 910 C 95.0313 -0.977444 -1.29942 0
M  V30 911 O 96.2153 -1.2499 -1.41102 0
M  V30 912 C 93.3423 -2.52192 -2.2609 0
M  V30 913 C 92.3883 -3.73287 -2.06298 0
M  V30 914 S 93.2213 -5.18603 -1.33459 0
M  V30 915 C 94.3773 -5.66583 -2.65959 0
M  V30 916 H 94.6103 -2.92662 -0.523118 0
M  V30 917 H 92.1433 -1.53631 -0.153954 0
M  V30 918 H 94.1013 -2.78585 -3.01498 0
M  V30 919 H 92.7623 -1.67356 -2.65802 0
M  V30 920 H 91.9553 -4.0248 -3.03357 0
M  V30 921 H 91.5573 -3.47199 -1.39029 0
M  V30 922 H 93.8493 -5.72616 -3.62101 0
M  V30 923 H 94.7923 -6.65684 -2.41393 0
M  V30 924 H 95.2003 -4.94342 -2.72554 0
M  V30 925 N 94.5984 0.214957 -1.56127 0
M  V30 926 C 95.8264 0.955092 -1.83536 0
M  V30 927 C 96.2414 1.77677 -0.638472 0
M  V30 928 O 95.5984 1.78219 0.392968 0
M  V30 929 C 95.6494 1.86734 -3.09536 0
M  V30 930 O 95.3704 1.07887 -4.24608 0
M  V30 931 C 96.8714 2.72082 -3.4998 0
M  V30 932 H 94.0914 0.279611 -0.609966 0
M  V30 933 H 96.6354 0.228197 -2.03223 0
M  V30 934 H 94.7904 2.5481 -2.91806 0
M  V30 935 H 95.2044 1.69872 -4.9623 0
M  V30 936 H 96.6784 3.31782 -4.41163 0
M  V30 937 H 97.1554 3.44806 -2.7204 0
M  V30 938 H 97.7614 2.09409 -3.70173 0
M  V30 939 N 96.0765 1.50051 0.48192 0
M  V30 940 C 97.0065 1.71046 1.58951 0
M  V30 941 C 97.9875 0.559288 1.60642 0
M  V30 942 O 99.1725 0.797243 1.77081 0
M  V30 943 C 96.3025 1.79462 2.97339 0
M  V30 944 C 95.2565 2.94558 3.10515 0
M  V30 945 C 94.5825 2.88105 4.50444 0
M  V30 946 C 95.8825 4.35227 2.88747 0
M  V30 947 H 97.5765 2.6378 1.41635 0
M  V30 948 H 95.1225 1.26936 0.679942 0
M  V30 949 H 97.0755 1.92734 3.74742 0
M  V30 950 H 95.7995 0.833412 3.15788 0
M  V30 951 H 94.4585 2.80918 2.35543 0
M  V30 952 H 94.1065 1.89853 4.65795 0
M  V30 953 H 93.8065 3.65366 4.60197 0
M  V30 954 H 95.3305 3.03412 5.29881 0
M  V30 955 H 96.7445 4.49449 3.55905 0
M  V30 956 H 95.1415 5.13856 3.09955 0
M  V30 957 H 96.2115 4.48347 1.84696 0
M  V30 958 N 97.5546 -0.734337 1.39446 0
M  V30 959 C 98.5016 -1.84835 1.38219 0
M  V30 960 C 99.4716 -1.64331 0.24179 0
M  V30 961 O 100.657 -1.85728 0.437002 0
M  V30 962 C 97.7966 -3.22355 1.23212 0
M  V30 963 C 96.9096 -3.5456 2.46801 0
M  V30 964 C 96.0446 -4.81485 2.24377 0
M  V30 965 C 95.0836 -5.06536 3.43639 0
M  V30 966 N 94.2206 -6.24665 3.20528 0
M  V30 967 H 99.0606 -1.85219 2.33448 0
M  V30 968 H 96.5976 -0.905039 1.15963 0
M  V30 969 H 98.5556 -4.0174 1.12522 0
M  V30 970 H 97.1856 -3.21248 0.316121 0
M  V30 971 H 96.2376 -2.69872 2.68092 0
M  V30 972 H 97.5496 -3.6899 3.3563 0
M  V30 973 H 96.7036 -5.68852 2.10933 0
M  V30 974 H 95.4426 -4.6923 1.32944 0
M  V30 975 H 94.4476 -4.17632 3.5758 0
M  V30 976 H 95.6726 -5.20676 4.35974 0
M  V30 977 H 93.6186 -6.13696 2.3176 0
M  V30 978 H 93.5356 -6.39685 4.02913 0
M  V30 979 H 94.8036 -7.14868 3.10779 0
M  V30 980 N 99.0327 -1.24633 -0.964593 0
M  V30 981 C 99.9657 -0.984662 -2.05863 0
M  V30 982 C 100.944 0.0826554 -1.6239 0
M  V30 983 O 102.128 -0.0549296 -1.8842 0
M  V30 984 C 99.2547 -0.486529 -3.35187 0
M  V30 985 C 98.3007 -1.54286 -3.97615 0
M  V30 986 S 99.1337 -3.12513 -4.34851 0
M  V30 987 C 100.29 -2.6441 -5.67308 0
M  V30 988 H 100.523 -1.91104 -2.27743 0
M  V30 989 H 98.0557 -1.08052 -1.10291 0
M  V30 990 H 100.014 -0.205757 -4.09984 0
M  V30 991 H 98.6747 0.419186 -3.1129 0
M  V30 992 H 97.8677 -1.14481 -4.90826 0
M  V30 993 H 97.4697 -1.7738 -3.2926 0
M  V30 994 H 99.7617 -2.07416 -6.44969 0
M  V30 995 H 100.705 -3.56222 -6.11973 0
M  V30 996 H 101.113 -2.04734 -5.26065 0
M  V30 997 N 100.511 1.16574 -1.06058 0
M  V30 998 C 101.474 2.19085 -0.673392 0
M  V30 999 C 102.474 1.5835 0.279648 0
M  V30 1000 O 103.664 1.74088 0.0623488 0
M  V30 1001 C 100.796 3.40899 0.00954234 0
M  V30 1002 H 101.989 2.54853 -1.58081 0
M  V30 1003 H 99.5418 1.30808 -0.855516 0
M  V30 1004 H 100.277 3.10684 0.929826 0
M  V30 1005 H 100.062 3.86233 -0.67573 0
M  V30 1006 H 101.552 4.1675 0.266245 0
M  V30 1007 N 101.989 0.842826 1.3317 0
M  V30 1008 C 103.235 0.441099 1.97945 0
M  V30 1009 C 103.568 -0.998024 1.66593 0
M  V30 1010 O 102.843 -1.69839 0.947898 0
M  V30 1011 C 103.126 0.666841 3.53872 0
M  V30 1012 C 102.979 2.15352 3.94897 0
M  V30 1013 C 104.298 0.115544 4.39948 0
M  V30 1014 H 101.417 0.161739 0.719034 0
M  V30 1015 H 104.059 1.05907 1.57746 0
M  V30 1016 H 102.209 0.140828 3.88245 0
M  V30 1017 H 103.881 2.7447 3.70761 0
M  V30 1018 H 102.124 2.63653 3.44484 0
M  V30 1019 H 102.795 2.26221 5.03516 0
M  V30 1020 H 105.271 0.565213 4.12243 0
M  V30 1021 H 104.147 0.303152 5.48062 0
M  V30 1022 H 104.408 -0.980935 4.3108 0
M  V30 1023 N 103.467 -1.45747 0.599634 0
M  V30 1024 C 104.692 -2.07178 0.0960198 0
M  V30 1025 C 105.117 -1.44268 -1.207 0
M  V30 1026 O 104.475 -0.532503 -1.73303 0
M  V30 1027 C 104.523 -3.60579 -0.0385348 0
M  V30 1028 O 103.627 -3.97713 -1.0908 0
M  V30 1029 H 102.968 -0.660251 0.0704593 0
M  V30 1030 H 105.498 -1.87124 0.827385 0
M  V30 1031 H 105.508 -4.07298 -0.239304 0
M  V30 1032 H 104.183 -4.05756 0.912947 0
M  V30 1033 H 102.76 -3.62678 -0.867135 0
M  V30 1034 N 104.945 -0.338344 -1.53925 0
M  V30 1035 C 105.893 0.536231 -2.26335 0
M  V30 1036 C 106.887 1.1063 -1.28286 0
M  V30 1037 O 108.093 1.05264 -1.46012 0
M  V30 1038 H 104.468 0.191602 -0.727181 0
M  V30 1039 H 106.439 -0.0965747 -2.98244 0
M  V30 1040 C 105.188 1.67803 -3.04528 0
M  V30 1041 H 104.511 1.24864 -3.79801 0
M  V30 1042 H 105.951 2.26526 -3.58416 0
M  V30 1043 C 104.41 2.60439 -2.13712 0
M  V30 1044 O 104.94 3.6255 -1.72975 0
M  V30 1045 N 103.146 2.29006 -1.78898 0
M  V30 1046 H 102.693 1.46011 -2.12223 0
M  V30 1047 H 102.651 2.91248 -1.18416 0
M  V30 1048 N 106.423 1.57458 -0.0668435 0
M  V30 1049 C 107.353 2.15468 0.899764 0
M  V30 1050 C 108.334 1.08042 1.31381 0
M  V30 1051 O 109.519 1.36054 1.38574 0
M  V30 1052 C 106.649 2.71232 2.16911 0
M  V30 1053 C 105.603 3.83781 1.89463 0
M  V30 1054 C 104.929 4.26127 3.22986 0
M  V30 1055 C 106.229 5.08238 1.20381 0
M  V30 1056 H 107.923 2.96488 0.416529 0
M  V30 1057 H 105.469 1.4262 0.198908 0
M  V30 1058 H 107.422 3.10458 2.84945 0
M  V30 1059 H 106.146 1.87426 2.67468 0
M  V30 1060 H 104.805 3.45051 1.23836 0
M  V30 1061 H 104.453 3.39249 3.71374 0
M  V30 1062 H 104.153 5.01993 3.05413 0
M  V30 1063 H 105.677 4.67966 3.92225 0
M  V30 1064 H 107.091 5.44811 1.78475 0
M  V30 1065 H 105.488 5.89349 1.13083 0
M  V30 1066 H 106.558 4.84558 0.182153 0
M  V30 1067 N 107.901 -0.206675 1.56239 0
M  V30 1068 C 109.312 -0.772383 1.69974 0
M  V30 1069 C 109.663 -1.84353 0.671436 0
M  V30 1070 O 108.788 -2.15695 -0.174491 0
M  V30 1071 C 109.383 -1.40779 3.08167 0
M  V30 1072 C 107.942 -1.92072 3.23706 0
M  V30 1073 C 107.089 -0.786347 2.65917 0
M  V30 1074 H 110.04 0.0182223 1.5869 0
M  V30 1075 H 110.061 -2.27696 3.04852 0
M  V30 1076 H 109.573 -0.627958 3.82986 0
M  V30 1077 H 107.674 -2.7281 2.53782 0
M  V30 1078 H 107.787 -2.09046 4.31087 0
M  V30 1079 H 106.151 -1.1976 2.24788 0
M  V30 1080 H 106.934 -0.0189416 3.43295 0
M  V30 1081 N 109.379 -1.50304 -0.473955 0
M  V30 1082 C 110.312 -1.63595 -1.59097 0
M  V30 1083 C 111.29 -0.484142 -1.55225 0
M  V30 1084 O 112.474 -0.703271 -1.7489 0
M  V30 1085 C 109.601 -1.61589 -2.97669 0
M  V30 1086 C 108.647 -2.82295 -3.19705 0
M  V30 1087 S 109.48 -4.43635 -2.99913 0
M  V30 1088 C 110.636 -4.44317 -4.40832 0
M  V30 1089 H 110.869 -2.58082 -1.47583 0
M  V30 1090 H 108.402 -1.39531 -0.661087 0
M  V30 1091 H 110.36 -1.61116 -3.7756 0
M  V30 1092 H 109.021 -0.683421 -3.06575 0
M  V30 1093 H 108.214 -2.77188 -4.20931 0
M  V30 1094 H 107.816 -2.8032 -2.47582 0
M  V30 1095 H 110.108 -4.17703 -5.33414 0
M  V30 1096 H 111.051 -5.45911 -4.50984 0
M  V30 1097 H 111.459 -3.74059 -4.22777 0
M  V30 1098 N 110.857 0.726932 -1.39834 0
M  V30 1099 C 112.105 1.4837 -1.37225 0
M  V30 1100 C 112.426 1.94979 0.0284857 0
M  V30 1101 O 111.696 1.69555 0.981213 0
M  V30 1102 H 110.276 0.55043 -0.505011 0
M  V30 1103 H 112.938 0.862468 -1.74778 0
M  V30 1104 H 112.034 2.36198 -2.04003 0
M  V30 1105 N 112.336 1.25143 0.95797 0
M  V30 1106 C 113.584 1.09476 1.69881 0
M  V30 1107 C 113.905 -0.365502 1.91544 0
M  V30 1108 O 113.175 -1.25985 1.50015 0
M  V30 1109 H 111.755 0.402128 0.629525 0
M  V30 1110 H 114.417 1.57214 1.15194 0
M  V30 1111 H 113.513 1.60046 2.6794 0
M  V30 1112 N 113.814 -1.1601 1.06675 0
M  V30 1113 C 115.062 -1.86264 0.784229 0
M  V30 1114 C 115.383 -1.82328 -0.691488 0
M  V30 1115 O 114.653 -1.25947 -1.50047 0
M  V30 1116 H 113.233 -0.689621 0.28711 0
M  V30 1117 H 115.895 -1.40664 1.34906 0
M  V30 1118 H 114.991 -2.91595 1.11259 0
M  V30 1119 N 115.292 -0.849877 -1.32721 0
M  V30 1120 C 116.239 -0.289033 -2.28983 0
M  V30 1121 C 117.209 0.601324 -1.54833 0
M  V30 1122 O 118.394 0.537253 -1.8308 0
M  V30 1123 C 115.534 0.520623 -3.4115 0
M  V30 1124 C 114.647 -0.394989 -4.3019 0
M  V30 1125 C 113.782 0.426834 -5.29482 0
M  V30 1126 C 112.821 -0.486476 -6.10164 0
M  V30 1127 N 111.958 0.297879 -7.01468 0
M  V30 1128 H 116.798 -1.11519 -2.76347 0
M  V30 1129 H 114.335 -0.56138 -1.35967 0
M  V30 1130 H 116.293 1.00563 -4.04899 0
M  V30 1131 H 114.923 1.31165 -2.9495 0
M  V30 1132 H 113.975 -0.99836 -3.67065 0
M  V30 1133 H 115.287 -1.09612 -4.86607 0
M  V30 1134 H 114.441 0.975205 -5.98811 0
M  V30 1135 H 113.18 1.16136 -4.73671 0
M  V30 1136 H 112.185 -1.04677 -5.39743 0
M  V30 1137 H 113.41 -1.21953 -6.6806 0
M  V30 1138 H 111.356 1.01558 -6.48091 0
M  V30 1139 H 111.273 -0.344318 -7.55216 0
M  V30 1140 H 112.541 0.828131 -7.75089 0
M  V30 1141 N 116.77 1.45427 -0.607355 0
M  V30 1142 C 117.995 2.07124 -0.107006 0
M  V30 1143 C 118.42 1.44906 1.19933 0
M  V30 1144 O 117.778 0.541687 1.73019 0
M  V30 1145 C 117.826 3.60595 0.0194119 0
M  V30 1146 O 116.93 3.98285 1.0697 0
M  V30 1147 H 116.271 0.659868 -0.0739597 0
M  V30 1148 H 118.801 1.86683 -0.837297 0
M  V30 1149 H 118.811 4.07419 0.2177 0
M  V30 1150 H 117.486 4.05266 -0.934453 0
M  V30 1151 H 116.063 3.63133 0.847889 0
M  V30 1152 N 118.248 0.346503 1.53744 0
M  V30 1153 C 119.494 -0.249473 2.0126 0
M  V30 1154 C 119.827 -1.49965 1.23386 0
M  V30 1155 O 119.102 -1.91811 0.32229 0
M  V30 1156 C 119.385 -0.560643 3.55709 0
M  V30 1157 C 119.238 0.701836 4.44291 0
M  V30 1158 C 120.557 -1.36905 4.18264 0
M  V30 1159 H 117.676 -0.0891987 0.731582 0
M  V30 1160 H 120.318 0.467624 1.84156 0
M  V30 1161 H 118.468 -1.17156 3.70414 0
M  V30 1162 H 120.14 1.33974 4.41417 0
M  V30 1163 H 118.383 1.32612 4.13033 0
M  V30 1164 H 119.054 0.43933 5.50249 0
M  V30 1165 H 121.53 -0.852448 4.07275 0
M  V30 1166 H 120.406 -1.55553 5.26398 0
M  V30 1167 H 120.667 -2.37203 3.73078 0
M  V30 1168 N 119.726 -1.57421 0.075193 0
M  V30 1169 C 120.975 -1.92794 -0.592731 0
M  V30 1170 C 121.288 -0.957478 -1.70563 0
M  V30 1171 O 122.494 -1.20417 -2.43335 0
M  V30 1172 C 120.95 -3.42495 -1.10569 0
M  V30 1173 C 120.558 -4.47994 -0.0236121 0
M  V30 1174 C 122.302 -3.86864 -1.74748 0
M  V30 1175 C 120.209 -5.88829 -0.550803 0
M  V30 1176 H 119.139 -0.719591 -0.225177 0
M  V30 1177 H 121.79 -1.82902 0.147978 0
M  V30 1178 H 120.172 -3.47471 -1.89947 0
M  V30 1179 H 121.346 -4.54637 0.751099 0
M  V30 1180 H 119.661 -4.13113 0.522159 0
M  V30 1181 H 122.258 -4.8947 -2.15229 0
M  V30 1182 H 122.601 -3.24417 -2.60882 0
M  V30 1183 H 123.134 -3.84504 -1.01986 0
M  V30 1184 H 119.873 -6.54929 0.273457 0
M  V30 1185 H 119.393 -5.85698 -1.29296 0
M  V30 1186 H 121.072 -6.38811 -1.02613 0
M  V30 1187 N 121.204 0.198386 -1.56346 0
M  V30 1188 C 122.167 1.22952 -1.93431 0
M  V30 1189 C 123.167 1.38611 -0.815092 0
M  V30 1190 O 124.357 1.36479 -1.08255 0
M  V30 1191 C 121.489 2.59946 -2.20546 0
M  V30 1192 H 122.682 0.912626 -2.85677 0
M  V30 1193 H 120.235 0.43977 -1.49986 0
M  V30 1194 H 120.97 2.96696 -1.30927 0
M  V30 1195 H 120.755 2.49953 -3.02102 0
M  V30 1196 H 122.245 3.3431 -2.50253 0
M  V30 1197 N 122.682 1.50554 0.465978 0
M  V30 1198 C 123.612 1.72722 1.57128 0
M  V30 1199 C 124.593 0.576294 1.6004 0
M  V30 1200 O 125.778 0.81598 1.76225 0
M  V30 1201 C 122.908 1.82605 2.95419 0
M  V30 1202 C 121.862 2.97835 3.07373 0
M  V30 1203 C 121.188 2.92867 4.47363 0
M  V30 1204 C 122.488 4.38265 2.84114 0
M  V30 1205 H 124.182 2.65267 1.38829 0
M  V30 1206 H 121.728 1.2765 0.666441 0
M  V30 1207 H 123.681 1.96698 3.72677 0
M  V30 1208 H 122.405 0.866858 3.14886 0
M  V30 1209 H 121.064 2.83401 2.3255 0
M  V30 1210 H 120.712 1.94783 4.63755 0
M  V30 1211 H 120.412 3.70227 4.56296 0
M  V30 1212 H 121.936 3.09015 5.26633 0
M  V30 1213 H 123.35 4.53198 3.51118 0
M  V30 1214 H 121.747 5.17115 3.04487 0
M  V30 1215 H 122.817 4.50281 1.7993 0
M  V30 1216 N 124.16 -0.719506 1.40217 0
M  V30 1217 C 125.571 -1.29848 1.34151 0
M  V30 1218 C 125.922 -1.96196 0.0131349 0
M  V30 1219 O 125.047 -1.973 -0.88892 0
M  V30 1220 C 125.642 -2.36118 2.42968 0
M  V30 1221 C 124.201 -2.8965 2.40374 0
M  V30 1222 C 123.348 -1.63393 2.24049 0
M  V30 1223 H 126.299 -0.51591 1.5008 0
M  V30 1224 H 126.32 -3.16871 2.10649 0
M  V30 1225 H 125.832 -1.878 3.39636 0
M  V30 1226 H 123.933 -3.42208 1.47392 0
M  V30 1227 H 124.046 -3.4171 3.35814 0
M  V30 1228 H 122.41 -1.88312 1.71495 0
M  V30 1229 H 123.193 -1.17104 3.2271 0
M  V30 1230 N 125.638 -1.25649 -0.95132 0
M  V30 1231 C 126.601 -1.06399 -2.03007 0
M  V30 1232 C 127.601 -0.0156794 -1.60792 0
M  V30 1233 O 128.791 -0.25817 -1.72276 0
M  V30 1234 C 125.923 -0.616184 -3.35285 0
M  V30 1235 H 127.116 -2.02164 -2.21517 0
M  V30 1236 H 124.669 -1.08103 -1.12887 0
M  V30 1237 H 125.404 0.343917 -3.22471 0
M  V30 1238 H 125.189 -1.37301 -3.67275 0
M  V30 1239 H 126.679 -0.503032 -4.14559 0
M  V30 1240 N 127.117 1.15442 -1.07289 0
M  V30 1241 C 128.528 1.67803 -0.818475 0
M  V30 1242 C 128.879 1.8489 0.656507 0
M  V30 1243 O 128.004 1.55176 1.50829 0
M  V30 1244 C 128.599 3.04805 -1.47917 0
M  V30 1245 C 127.158 3.54245 -1.27229 0
M  V30 1246 C 126.305 2.29986 -1.54925 0
M  V30 1247 H 129.256 0.996646 -1.23502 0
M  V30 1248 H 129.277 3.69702 -0.90005 0
M  V30 1249 H 128.789 2.92336 -2.55267 0
M  V30 1250 H 126.89 3.71956 -0.21899 0
M  V30 1251 H 127.003 4.35723 -1.99203 0
M  V30 1252 H 125.367 2.35496 -0.970242 0
M  V30 1253 H 126.15 2.20105 -2.63455 0
M  V30 1254 N 128.595 0.856903 1.32268 0
M  V30 1255 C 130.011 0.547061 1.49931 0
M  V30 1256 C 130.211 -0.921781 1.7918 0
M  V30 1257 O 129.267 -1.70469 1.8627 0
M  V30 1258 C 130.58 1.43599 2.64196 0
M  V30 1259 C 132.128 1.43665 2.78081 0
M  V30 1260 C 132.603 2.31085 3.95428 0
M  V30 1261 N 134.094 2.28893 4.02694 0
M  V30 1262 C 134.829 2.93262 4.92732 0
M  V30 1263 N 134.325 3.66751 5.87763 0
M  V30 1264 N 136.118 2.82638 4.85873 0
M  V30 1265 H 128.269 1.8075 1.11549 0
M  V30 1266 H 130.532 0.772144 0.549997 0
M  V30 1267 H 130.238 2.48058 2.49319 0
M  V30 1268 H 130.112 1.12502 3.60032 0
M  V30 1269 H 132.499 0.399701 2.92381 0
M  V30 1270 H 132.58 1.7878 1.82952 0
M  V30 1271 H 132.224 3.34849 3.81888 0
M  V30 1272 H 132.154 1.93302 4.89839 0
M  V30 1273 H 134.645 1.75466 3.34694 0
M  V30 1274 H 134.958 4.13027 6.53168 0
M  V30 1275 H 133.303 3.70859 5.87783 0
M  V30 1276 H 136.494 2.24774 4.10602 0
M  V30 1277 H 136.667 3.33084 5.55841 0
M  V30 1278 N 130.073 -1.45103 0.615059 0
M  V30 1279 C 131.023 -2.27679 -0.120966 0
M  V30 1280 C 132.007 -1.3775 -0.831491 0
M  V30 1281 O 133.199 -1.61683 -0.720249 0
M  V30 1282 C 130.328 -3.24767 -1.1127 0
M  V30 1283 C 129.414 -4.22184 -0.402627 0
M  V30 1284 N 129.805 -5.02692 0.559884 0
M  V30 1285 C 128.103 -4.4125 -0.649202 0
M  V30 1286 C 128.804 -5.73421 0.977942 0
M  V30 1287 N 127.78 -5.42657 0.320104 0
M  V30 1288 H 131.582 -2.87325 0.618181 0
M  V30 1289 H 129.096 -1.56345 0.439304 0
M  V30 1290 H 131.093 -3.82666 -1.65446 0
M  V30 1291 H 129.753 -2.66682 -1.85232 0
M  V30 1292 H 130.764 -5.09354 0.936976 0
M  V30 1293 H 127.441 -3.9428 -1.37293 0
M  V30 1294 H 128.831 -6.48107 1.77222 0
M  V30 1295 N 131.551 -0.354651 -1.53558 0
M  V30 1296 C 132.776 0.242153 -2.05981 0
M  V30 1297 C 133.201 1.42553 -1.2272 0
M  V30 1298 O 132.559 1.79656 -0.243604 0
M  V30 1299 C 132.607 0.624367 -3.55154 0
M  V30 1300 O 131.711 1.72301 -3.74681 0
M  V30 1301 H 131.052 0.0378432 -0.662921 0
M  V30 1302 H 133.582 -0.512087 -1.98088 0
M  V30 1303 H 133.592 0.898433 -3.97985 0
M  V30 1304 H 132.267 -0.240989 -4.15201 0
M  V30 1305 H 130.844 1.44535 -3.4375 0
M  V30 1306 N 133.029 1.57378 -0.0835403 0
M  V30 1307 C 134.278 1.93106 0.582498 0
M  V30 1308 C 134.591 0.96651 1.70053 0
M  V30 1309 O 135.797 1.21705 2.42693 0
M  V30 1310 C 134.253 3.43076 1.08751 0
M  V30 1311 C 133.861 4.48 -0.000146404 0
M  V30 1312 C 135.605 3.87785 1.72694 0
M  V30 1313 C 133.512 5.89113 0.519568 0
M  V30 1314 H 132.442 0.720775 0.221358 0
M  V30 1315 H 135.093 1.82821 -0.157675 0
M  V30 1316 H 133.475 3.48474 1.88101 0
M  V30 1317 H 134.649 4.54233 -0.775199 0
M  V30 1318 H 132.964 4.1283 -0.54406 0
M  V30 1319 H 135.561 4.90604 2.1263 0
M  V30 1320 H 135.904 3.25796 2.59158 0
M  V30 1321 H 136.437 3.8504 0.999457 0
M  V30 1322 H 133.176 6.54775 -0.308186 0
M  V30 1323 H 132.696 5.86376 1.26188 0
M  V30 1324 H 134.375 6.39346 0.992237 0
M  V30 1325 N 134.507 -0.190092 1.56449 0
M  V30 1326 C 135.784 -0.935886 1.71757 0
M  V30 1327 C 136.164 -2.01173 0.639726 0
M  V30 1328 O 135.512 -2.25827 -0.348502 0
M  V30 1329 C 135.722 -1.51775 3.1427 0
M  V30 1330 C 137.07 -1.99794 3.74656 0
M  V30 1331 O 138.094 -1.61607 3.1743 0
M  V30 1332 O 136.953 -2.70079 4.751 0
M  V30 1333 H 134.047 -0.439229 0.700719 0
M  V30 1334 H 136.593 -0.179395 1.68749 0
M  V30 1335 H 135.365 -0.742505 3.84191 0
M  V30 1336 H 134.988 -2.33894 3.21527 0
M  V30 1337 N 135.985 -1.50799 -0.457987 0
M  V30 1338 C 137.396 -1.55152 -1.0385 0
M  V30 1339 C 137.747 -0.362719 -1.92818 0
M  V30 1340 O 136.872 0.522915 -2.09987 0
M  V30 1341 C 137.467 -2.81173 -1.89017 0
M  V30 1342 C 136.026 -2.88164 -2.42154 0
M  V30 1343 C 135.173 -2.49591 -1.20829 0
M  V30 1344 H 138.124 -1.56874 -0.240068 0
M  V30 1345 H 138.145 -2.63769 -2.74238 0
M  V30 1346 H 137.657 -3.67677 -1.24238 0
M  V30 1347 H 135.758 -2.06042 -3.10447 0
M  V30 1348 H 135.871 -3.91356 -2.76364 0
M  V30 1349 H 134.235 -2.02322 -1.54719 0
M  V30 1350 H 135.018 -3.38418 -0.576927 0
M  V30 1351 N 137.463 0.71206 -1.40597 0
M  V30 1352 C 138.688 1.50617 -1.42581 0
M  V30 1353 C 139.113 1.88079 -0.0282102 0
M  V30 1354 O 138.471 1.53511 0.964579 0
M  V30 1355 C 138.519 2.7557 -2.3258 0
M  V30 1356 O 137.623 3.72414 -1.77148 0
M  V30 1357 H 136.964 0.453966 -0.484573 0
M  V30 1358 H 139.494 0.876649 -1.84868 0
M  V30 1359 H 139.504 3.2406 -2.47889 0
M  V30 1360 H 138.179 2.47639 -3.34138 0
M  V30 1361 H 136.756 3.31276 -1.71204 0
M  V30 1362 N 138.941 1.26152 0.944643 0
M  V30 1363 C 140.169 1.14259 1.72489 0
M  V30 1364 C 140.584 -0.302555 1.8636 0
M  V30 1365 O 139.941 -1.20741 1.36849 0
M  V30 1366 C 139.992 1.80266 3.13347 0
M  V30 1367 O 139.713 3.19133 3.00143 0
M  V30 1368 C 141.214 1.74283 4.07603 0
M  V30 1369 H 138.434 0.398051 0.540181 0
M  V30 1370 H 140.978 1.66706 1.18446 0
M  V30 1371 H 139.133 1.31766 3.64303 0
M  V30 1372 H 139.547 3.51744 3.89071 0
M  V30 1373 H 141.021 2.25111 5.04013 0
M  V30 1374 H 141.498 0.708631 4.33446 0
M  V30 1375 H 142.104 2.22319 3.62567 0
M  V30 1376 N 140.419 -1.14872 1.07899 0
M  V30 1377 C 141.665 -1.86289 0.81657 0
M  V30 1378 C 142.02 -1.8107 -0.65049 0
M  V30 1379 O 141.313 -1.22684 -1.47171 0
M  V30 1380 C 141.507 -3.34223 1.26609 0
M  V30 1381 C 141.336 -3.53846 2.77531 0
M  V30 1382 C 140.106 -3.68995 3.45212 0
M  V30 1383 C 142.304 -3.51201 3.75716 0
M  V30 1384 N 140.286 -3.76725 4.84718 0
M  V30 1385 C 141.657 -3.65112 5.01092 0
M  V30 1386 C 143.712 -3.34507 3.68794 0
M  V30 1387 C 142.415 -3.64056 6.20368 0
M  V30 1388 C 144.441 -3.34752 4.8754 0
M  V30 1389 C 143.803 -3.49199 6.11751 0
M  V30 1390 H 139.902 -0.698579 0.351443 0
M  V30 1391 H 142.486 -1.37713 1.37634 0
M  V30 1392 H 140.657 -3.81402 0.73395 0
M  V30 1393 H 142.389 -3.93377 0.95062 0
M  V30 1394 H 139.144 -3.70006 2.95622 0
M  V30 1395 H 139.568 -3.8432 5.5734 0
M  V30 1396 H 144.21 -3.22253 2.73702 0
M  V30 1397 H 141.928 -3.75087 7.15776 0
M  V30 1398 H 145.514 -3.23055 4.83866 0
M  V30 1399 H 144.394 -3.49328 7.02097 0
M  V30 1400 N 141.898 -0.863906 -1.31812 0
M  V30 1401 C 142.861 -0.320212 -2.26952 0
M  V30 1402 C 143.861 0.525369 -1.51975 0
M  V30 1403 O 145.051 0.335547 -1.70938 0
M  V30 1404 C 142.183 0.545919 -3.365 0
M  V30 1405 H 143.376 -1.16004 -2.76556 0
M  V30 1406 H 140.929 -0.638995 -1.42641 0
M  V30 1407 H 141.664 1.40718 -2.92179 0
M  V30 1408 H 141.449 -0.0594674 -3.92055 0
M  V30 1409 H 142.939 0.918796 -4.07367 0
M  V30 1410 N 143.376 1.44774 -0.622745 0
M  V30 1411 C 144.792 1.56986 -0.287652 0
M  V30 1412 C 144.992 1.61167 1.20944 0
M  V30 1413 O 144.048 1.55015 1.99315 0
M  V30 1414 C 145.361 2.84551 -0.972188 0
M  V30 1415 C 146.909 2.9825 -0.949536 0
M  V30 1416 C 147.384 4.28605 -1.61437 0
M  V30 1417 N 148.875 4.35399 -1.58057 0
M  V30 1418 C 149.61 5.34964 -2.064 0
M  V30 1419 N 149.106 6.40981 -2.62897 0
M  V30 1420 N 150.899 5.26419 -1.97078 0
M  V30 1421 H 143.05 1.40304 -1.59463 0
M  V30 1422 H 145.313 0.671794 -0.668878 0
M  V30 1423 H 145.019 2.87417 -2.02693 0
M  V30 1424 H 144.893 3.73807 -0.504771 0
M  V30 1425 H 147.28 2.94941 0.0967067 0
M  V30 1426 H 147.361 2.10364 -1.45536 0
M  V30 1427 H 147.005 4.32672 -2.66002 0
M  V30 1428 H 146.935 5.15334 -1.08344 0
M  V30 1429 H 149.426 3.59397 -1.16801 0
M  V30 1430 H 149.739 7.13225 -2.97539 0
M  V30 1431 H 148.084 6.4169 -2.66943 0
M  V30 1432 H 151.275 4.42504 -1.52669 0
M  V30 1433 H 151.448 6.03861 -2.35066 0
M  V30 1434 N 144.854 0.36279 1.53368 0
M  V30 1435 C 146.103 -0.22888 2.00397 0
M  V30 1436 C 146.416 -1.50096 1.25421 0
M  V30 1437 O 147.622 -2.17106 1.63025 0
M  V30 1438 C 146.078 -0.458417 3.56969 0
M  V30 1439 C 145.686 0.798877 4.4082 0
M  V30 1440 C 147.43 -1.00789 4.12361 0
M  V30 1441 C 145.337 0.539078 5.88938 0
M  V30 1442 H 144.267 -0.089305 0.748693 0
M  V30 1443 H 146.918 0.481099 1.77081 0
M  V30 1444 H 145.3 -1.22959 3.76427 0
M  V30 1445 H 146.474 1.57262 4.33134 0
M  V30 1446 H 144.789 1.27137 3.96516 0
M  V30 1447 H 147.386 -1.21754 5.20653 0
M  V30 1448 H 147.729 -1.9692 3.66781 0
M  V30 1449 H 148.262 -0.296961 3.9669 0
M  V30 1450 H 145.001 1.47064 6.3879 0
M  V30 1451 H 144.521 -0.196222 5.99479 0
M  V30 1452 H 146.2 0.163542 6.46793 0
M  V30 1453 N 146.332 -1.57332 0.0918853 0
M  V30 1454 C 147.262 -2.16872 -0.865371 0
M  V30 1455 C 148.243 -1.10118 -1.29646 0
M  V30 1456 O 149.428 -1.38242 -1.36392 0
M  V30 1457 C 146.558 -2.74649 -2.12569 0
M  V30 1458 C 145.512 -3.86747 -1.83333 0
M  V30 1459 C 144.838 -4.31212 -3.16166 0
M  V30 1460 C 146.138 -5.10089 -1.1228 0
M  V30 1461 H 147.832 -2.97114 -0.369307 0
M  V30 1462 H 145.378 -1.42918 -0.176194 0
M  V30 1463 H 147.331 -3.14952 -2.7997 0
M  V30 1464 H 146.055 -1.91657 -2.64452 0
M  V30 1465 H 144.714 -3.46978 -1.18331 0
M  V30 1466 H 144.362 -3.45115 -3.6593 0
M  V30 1467 H 144.062 -5.06788 -2.97388 0
M  V30 1468 H 145.586 -4.74146 -3.84731 0
M  V30 1469 H 147 -5.47582 -1.69785 0
M  V30 1470 H 145.397 -5.91073 -1.03693 0
M  V30 1471 H 146.467 -4.84786 -0.105041 0
M  V30 1472 N 147.81 0.181792 -1.56548 0
M  V30 1473 C 149.226 0.53316 -1.50431 0
M  V30 1474 C 149.426 1.85184 -0.794297 0
M  V30 1475 O 148.482 2.50058 -0.350318 0
M  V30 1476 C 149.795 0.575597 -2.9514 0
M  V30 1477 C 151.343 0.663519 -3.05886 0
M  V30 1478 C 151.818 0.736946 -4.52032 0
M  V30 1479 N 153.309 0.800118 -4.56237 0
M  V30 1480 C 154.044 0.877327 -5.66649 0
M  V30 1481 N 153.54 0.916016 -6.86718 0
M  V30 1482 N 155.333 0.915542 -5.54594 0
M  V30 1483 H 147.484 -0.683025 -2.01118 0
M  V30 1484 H 149.747 -0.244988 -0.915797 0
M  V30 1485 H 149.453 -0.324482 -3.502 0
M  V30 1486 H 149.327 1.42572 -3.49218 0
M  V30 1487 H 151.714 1.55403 -2.50867 0
M  V30 1488 H 151.795 -0.21307 -2.54911 0
M  V30 1489 H 151.439 -0.149262 -5.07681 0
M  V30 1490 H 151.369 1.62953 -5.00753 0
M  V30 1491 H 153.86 0.778926 -3.69785 0
M  V30 1492 H 154.173 0.975813 -7.66614 0
M  V30 1493 H 152.518 0.884469 -6.89349 0
M  V30 1494 H 155.709 0.882245 -4.59711 0
M  V30 1495 H 155.882 0.972253 -6.40665 0
M  V30 1496 N 149.288 1.51039 0.449983 0
M  V30 1497 C 150.537 1.62317 1.19733 0
M  V30 1498 C 150.85 0.339101 1.92638 0
M  V30 1499 O 152.056 0.331069 2.69474 0
M  V30 1500 C 150.512 2.86608 2.17678 0
M  V30 1501 C 150.12 4.21972 1.50479 0
M  V30 1502 C 151.864 3.07239 2.92924 0
M  V30 1503 C 149.771 5.37426 2.46834 0
M  V30 1504 H 148.701 0.604532 0.450619 0
M  V30 1505 H 151.352 1.77494 0.465625 0
M  V30 1506 H 149.734 2.65037 2.94231 0
M  V30 1507 H 150.908 4.53878 0.795716 0
M  V30 1508 H 149.223 4.07117 0.874344 0
M  V30 1509 H 151.82 3.90668 3.65079 0
M  V30 1510 H 152.163 2.19807 3.5354 0
M  V30 1511 H 152.696 3.29091 2.23481 0
M  V30 1512 H 149.435 6.27079 1.90926 0
M  V30 1513 H 148.955 5.09912 3.15832 0
M  V30 1514 H 150.634 5.68862 3.08228 0
M  V30 1515 N 150.766 -0.704594 1.40972 0
M  V30 1516 C 151.716 -1.81051 1.38581 0
M  V30 1517 C 152.7 -1.58759 0.261585 0
M  V30 1518 O 153.892 -1.69745 0.501556 0
M  V30 1519 C 151.021 -3.19279 1.26157 0
M  V30 1520 C 150.107 -3.47296 2.43405 0
M  V30 1521 N 150.498 -3.46064 3.68881 0
M  V30 1522 C 148.796 -3.77804 2.37023 0
M  V30 1523 C 149.497 -3.72733 4.46592 0
M  V30 1524 N 148.473 -3.9203 3.76581 0
M  V30 1525 H 152.275 -1.78448 2.33525 0
M  V30 1526 H 149.789 -0.904198 1.349 0
M  V30 1527 H 151.786 -3.98488 1.22526 0
M  V30 1528 H 150.446 -3.231 0.321902 0
M  V30 1529 H 151.457 -3.26656 4.01891 0
M  V30 1530 H 148.134 -3.8905 1.51481 0
M  V30 1531 H 149.524 -3.77993 5.55492 0
M  V30 1532 N 152.244 -1.26651 -0.937939 0
M  V30 1533 C 153.207 -1.08546 -2.01867 0
M  V30 1534 C 154.207 -0.0327327 -1.60767 0
M  V30 1535 O 155.397 -0.276427 -1.71993 0
M  V30 1536 C 152.529 -0.651711 -3.34613 0
M  V30 1537 H 153.722 -2.04502 -2.1936 0
M  V30 1538 H 151.275 -1.09294 -1.11734 0
M  V30 1539 H 152.01 0.309696 -3.22818 0
M  V30 1540 H 151.795 -1.41189 -3.65798 0
M  V30 1541 H 153.285 -0.546973 -4.14002 0
M  V30 1542 N 153.722 1.14298 -1.08507 0
M  V30 1543 C 154.632 2.23027 -0.727753 0
M  V30 1544 C 155.648 1.71952 0.26619 0
M  V30 1545 O 156.824 2.011 0.109882 0
M  V30 1546 C 153.889 3.46403 -0.143541 0
M  V30 1547 C 152.95 4.12413 -1.19223 0
M  V30 1548 C 152.183 5.29899 -0.635798 0
M  V30 1549 O 152.406 5.67796 0.544393 0
M  V30 1550 O 151.34 5.85717 -1.38634 0
M  V30 1551 H 155.166 2.55945 -1.63481 0
M  V30 1552 H 152.751 1.22248 -0.858817 0
M  V30 1553 H 154.633 4.21018 0.179404 0
M  V30 1554 H 153.308 3.15206 0.736659 0
M  V30 1555 H 152.215 3.39667 -1.56772 0
M  V30 1556 H 153.548 4.47718 -2.04474 0
M  V30 1557 N 155.201 0.870884 1.31352 0
M  V30 1558 C 156.149 0.316445 2.30437 0
M  V30 1559 C 157.143 -0.568965 1.59559 0
M  V30 1560 O 158.349 -0.454964 1.74155 0
M  V30 1561 H 154.724 0.0836521 0.747333 0
M  V30 1562 H 156.695 1.16606 2.74673 0
M  V30 1563 C 155.444 -0.46635 3.44558 0
M  V30 1564 H 154.767 0.205687 3.99271 0
M  V30 1565 H 156.207 -0.819614 4.16003 0
M  V30 1566 C 154.666 -1.65797 2.9328 0
M  V30 1567 O 155.196 -2.75728 2.92125 0
M  V30 1568 N 153.402 -1.49041 2.4947 0
M  V30 1569 H 152.949 -0.59612 2.50608 0
M  V30 1570 H 152.907 -2.28911 2.15516 0
M  V30 1571 N 156.679 -1.44442 0.630414 0
M  V30 1572 C 157.928 -2.01267 0.132073 0
M  V30 1573 C 158.241 -1.50172 -1.25331 0
M  V30 1574 O 159.447 -1.9912 -1.84562 0
M  V30 1575 C 157.903 -3.59422 0.185362 0
M  V30 1576 C 157.511 -4.19514 1.57201 0
M  V30 1577 C 159.255 -4.23724 -0.256553 0
M  V30 1578 C 157.162 -5.69891 1.58045 0
M  V30 1579 H 156.092 -0.752619 0.0456092 0
M  V30 1580 H 158.743 -1.65666 0.789106 0
M  V30 1581 H 157.125 -3.92318 -0.538759 0
M  V30 1582 H 158.299 -3.98156 2.31966 0
M  V30 1583 H 156.614 -3.67496 1.95795 0
M  V30 1584 H 159.211 -5.34019 -0.269767 0
M  V30 1585 H 159.554 -3.96013 -1.28372 0
M  V30 1586 H 160.087 -3.95629 0.41505 0
M  V30 1587 H 156.826 -6.02336 2.58597 0
M  V30 1588 H 156.346 -5.93373 0.875725 0
M  V30 1589 H 158.025 -6.33515 1.31408 0
M  V30 1590 N 158.157 -0.370918 -1.53173 0
M  V30 1591 C 159.434 0.273754 -1.93675 0
M  V30 1592 C 159.814 1.65938 -1.3049 0
M  V30 1593 O 159.162 2.23698 -0.465999 0
M  V30 1594 C 159.372 0.318602 -3.47543 0
M  V30 1595 C 160.72 0.556392 -4.20939 0
M  V30 1596 O 161.744 0.399587 -3.53952 0
M  V30 1597 O 160.603 0.862133 -5.39657 0
M  V30 1598 H 157.697 0.165448 -0.810281 0
M  V30 1599 H 160.243 -0.42409 -1.64315 0
M  V30 1600 H 159.015 -0.652687 -3.85818 0
M  V30 1601 H 158.638 1.06212 -3.83151 0
M  V30 1602 N 159.635 1.57281 -0.100228 0
M  V30 1603 C 160.582 2.14305 0.856858 0
M  V30 1604 C 161.552 1.06296 1.27634 0
M  V30 1605 O 162.737 1.34109 1.35718 0
M  V30 1606 C 159.877 2.73184 2.10866 0
M  V30 1607 C 158.99 3.95442 1.73925 0
M  V30 1608 C 158.125 4.42468 2.93931 0
M  V30 1609 C 157.164 5.57303 2.5314 0
M  V30 1610 N 156.301 5.99158 3.65997 0
M  V30 1611 H 161.141 2.95772 0.363726 0
M  V30 1612 H 158.678 1.46139 0.167858 0
M  V30 1613 H 160.636 3.05442 2.84185 0
M  V30 1614 H 159.266 1.94437 2.57671 0
M  V30 1615 H 158.318 3.69464 0.905554 0
M  V30 1616 H 159.63 4.78769 1.39935 0
M  V30 1617 H 158.784 4.76537 3.75496 0
M  V30 1618 H 157.523 3.58052 3.31134 0
M  V30 1619 H 156.528 5.22857 1.70003 0
M  V30 1620 H 157.753 6.43471 2.17075 0
M  V30 1621 H 155.699 5.17687 4.02909 0
M  V30 1622 H 155.616 6.77295 3.35869 0
M  V30 1623 H 156.884 6.3786 4.48057 0
M  V30 1624 N 161.113 -0.173488 1.56642 0
M  V30 1625 C 162.043 -1.2171 1.99271 0
M  V30 1626 C 163.024 -1.46289 0.867959 0
M  V30 1627 O 164.209 -1.5766 1.13388 0
M  V30 1628 C 161.339 -2.55651 2.35074 0
M  V30 1629 C 160.293 -2.45645 3.50489 0
M  V30 1630 C 159.619 -3.84056 3.72028 0
M  V30 1631 C 160.919 -1.96302 4.84007 0
M  V30 1632 H 162.613 -0.86275 2.867 0
M  V30 1633 H 160.159 -0.413571 1.37933 0
M  V30 1634 H 162.112 -3.2886 2.63494 0
M  V30 1635 H 160.836 -2.92869 1.44552 0
M  V30 1636 H 159.495 -1.7489 3.22194 0
M  V30 1637 H 159.143 -4.18664 2.788 0
M  V30 1638 H 158.843 -3.7823 4.49684 0
M  V30 1639 H 160.367 -4.58854 4.02846 0
M  V30 1640 H 161.781 -2.59284 5.11317 0
M  V30 1641 H 160.178 -2.01429 5.65284 0
M  V30 1642 H 161.248 -0.917226 4.76146 0
M  V30 1643 N 162.591 -1.51276 -0.441967 0
M  V30 1644 C 163.816 -1.67799 -1.21895 0
M  V30 1645 C 164.241 -0.372864 -1.84367 0
M  V30 1646 O 163.599 0.666501 -1.68604 0
M  V30 1647 C 163.647 -2.79199 -2.28211 0
M  V30 1648 O 162.751 -2.42479 -3.33583 0
M  V30 1649 H 162.092 -0.559649 -0.357336 0
M  V30 1650 H 164.622 -1.97815 -0.522522 0
M  V30 1651 H 164.632 -3.03146 -2.73069 0
M  V30 1652 H 163.307 -3.73906 -1.82118 0
M  V30 1653 H 161.884 -2.29087 -2.94234 0
M  V30 1654 N 164.069 0.697108 -1.41344 0
M  V30 1655 C 165.317 1.45426 -1.40341 0
M  V30 1656 C 165.638 1.94996 -0.0128787 0
M  V30 1657 O 164.908 1.71599 0.945027 0
M  V30 1658 H 163.488 0.539594 -0.516573 0
M  V30 1659 H 166.15 0.825201 -1.76569 0
M  V30 1660 H 165.246 2.31817 -2.08967 0
M  V30 1661 N 165.547 1.27147 0.931209 0
M  V30 1662 C 166.495 1.09398 2.05268 0
M  V30 1663 C 167.489 0.0180591 1.6939 0
M  V30 1664 O 168.695 0.17551 1.79142 0
M  V30 1665 H 165.07 0.336986 0.672268 0
M  V30 1666 H 167.041 2.04416 2.17386 0
M  V30 1667 C 165.79 0.75424 3.39421 0
M  V30 1668 H 165.113 1.57404 3.67511 0
M  V30 1669 H 166.553 0.669903 4.18674 0
M  V30 1670 C 165.012 -0.541197 3.32525 0
M  V30 1671 O 165.542 -1.57664 3.69466 0
M  V30 1672 N 163.748 -0.535517 2.85623 0
M  V30 1673 H 163.295 0.307511 2.55758 0
M  V30 1674 H 163.253 -1.40236 2.81392 0
M  V30 1675 N 167.025 -1.13721 1.09112 0
M  V30 1676 C 168.255 -1.88499 0.845671 0
M  V30 1677 C 168.663 -1.79218 -0.606432 0
M  V30 1678 O 168.006 -1.1544 -1.42896 0
M  V30 1679 C 168.068 -3.38954 1.19793 0
M  V30 1680 C 167.732 -3.72018 2.65428 0
M  V30 1681 C 168.729 -3.7153 3.63677 0
M  V30 1682 C 166.414 -4.01775 3.01467 0
M  V30 1683 C 168.408 -4.00336 4.95994 0
M  V30 1684 C 166.095 -4.30243 4.33975 0
M  V30 1685 C 167.093 -4.29508 5.31048 0
M  V30 1686 O 166.781 -4.5728 6.61173 0
M  V30 1687 H 166.513 -0.603702 0.304171 0
M  V30 1688 H 169.067 -1.44903 1.45576 0
M  V30 1689 H 167.297 -3.83039 0.530871 0
M  V30 1690 H 168.986 -3.95052 0.932146 0
M  V30 1691 H 169.752 -3.4862 3.37179 0
M  V30 1692 H 165.631 -4.01496 2.26544 0
M  V30 1693 H 169.175 -3.99678 5.71755 0
M  V30 1694 H 165.072 -4.52625 4.60219 0
M  V30 1695 H 165.84 -4.74964 6.66597 0
M  V30 1696 N 168.503 -0.877838 -1.30888 0
M  V30 1697 C 169.749 -0.502773 -1.97088 0
M  V30 1698 C 170.104 0.936274 -1.68082 0
M  V30 1699 O 169.397 1.65162 -0.971196 0
M  V30 1700 C 169.591 -0.705748 -3.50363 0
M  V30 1701 C 169.42 -2.16297 -3.94266 0
M  V30 1702 C 168.19 -2.80614 -4.20219 0
M  V30 1703 C 170.388 -3.13606 -4.07622 0
M  V30 1704 N 168.37 -4.17007 -4.50532 0
M  V30 1705 C 169.741 -4.35051 -4.41736 0
M  V30 1706 C 171.796 -3.09491 -3.90026 0
M  V30 1707 C 170.499 -5.52911 -4.60089 0
M  V30 1708 C 172.525 -4.26616 -4.09576 0
M  V30 1709 C 171.887 -5.46825 -4.44029 0
M  V30 1710 H 167.986 -0.233168 -0.746429 0
M  V30 1711 H 170.57 -1.13408 -1.58261 0
M  V30 1712 H 168.741 -0.103976 -3.88261 0
M  V30 1713 H 170.473 -0.298291 -4.03599 0
M  V30 1714 H 167.228 -2.3152 -4.13153 0
M  V30 1715 H 167.652 -4.87426 -4.69834 0
M  V30 1716 H 172.294 -2.17657 -3.62471 0
M  V30 1717 H 170.012 -6.45255 -4.86489 0
M  V30 1718 H 173.598 -4.24894 -3.97438 0
M  V30 1719 H 172.478 -6.35947 -4.58848 0
M  V30 1720 N 169.982 1.44106 -0.638065 0
M  V30 1721 C 171.21 2.06336 -0.152615 0
M  V30 1722 C 171.625 1.47731 1.17563 0
M  V30 1723 O 170.982 0.602806 1.72257 0
M  V30 1724 C 171.033 3.61479 -0.0391491 0
M  V30 1725 O 170.754 4.17903 -1.31487 0
M  V30 1726 C 172.255 4.40757 0.474176 0
M  V30 1727 H 169.475 0.665862 -0.0828776 0
M  V30 1728 H 172.019 1.84862 -0.87443 0
M  V30 1729 H 170.174 3.82191 0.633142 0
M  V30 1730 H 170.588 5.11416 -1.16421 0
M  V30 1731 H 172.062 5.49707 0.502562 0
M  V30 1732 H 172.539 4.12697 1.50258 0
M  V30 1733 H 173.145 4.24979 -0.165102 0
M  V30 1734 N 171.46 0.379036 1.52974 0
M  V30 1735 C 172.708 -0.206014 2.01047 0
M  V30 1736 C 173.029 -1.48175 1.26765 0
M  V30 1737 O 172.299 -1.92085 0.384743 0
M  V30 1738 H 170.879 -0.0791184 0.742798 0
M  V30 1739 H 173.541 0.508366 1.88153 0
M  V30 1740 H 172.637 -0.423501 3.09213 0
M  V30 1741 N 172.938 -1.57226 0.108567 0
M  V30 1742 C 174.349 -1.8195 -0.418464 0
M  V30 1743 C 174.7 -1.02508 -1.67292 0
M  V30 1744 O 173.825 -0.258496 -2.14851 0
M  V30 1745 C 174.42 -3.30028 -0.765979 0
M  V30 1746 C 172.979 -3.55469 -1.23769 0
M  V30 1747 C 172.126 -2.7625 -0.241106 0
M  V30 1748 H 175.077 -1.55149 0.33384 0
M  V30 1749 H 175.098 -3.44086 -1.62434 0
M  V30 1750 H 174.61 -3.87821 0.147219 0
M  V30 1751 H 172.711 -3.03022 -2.16814 0
M  V30 1752 H 172.824 -4.6408 -1.19022 0
M  V30 1753 H 171.188 -2.44133 -0.72602 0
M  V30 1754 H 171.971 -3.36797 0.665007 0
M  V30 1755 N 174.416 0.165178 -1.56732 0
M  V30 1756 C 175.693 0.908443 -1.73224 0
M  V30 1757 C 176.073 2.0013 -0.67165 0
M  V30 1758 O 175.421 2.26353 0.31253 0
M  V30 1759 C 175.631 1.46756 -3.16644 0
M  V30 1760 C 176.979 1.93809 -3.77787 0
M  V30 1761 O 178.003 1.56537 -3.1996 0
M  V30 1762 O 176.862 2.62486 -4.79336 0
M  V30 1763 H 173.956 0.428025 -0.707618 0
M  V30 1764 H 176.502 0.152526 -1.69013 0
M  V30 1765 H 175.274 0.68129 -3.85323 0
M  V30 1766 H 174.897 2.28749 -3.25207 0
M  V30 1767 N 175.894 1.51508 0.433938 0
M  V30 1768 C 177.14 1.64588 1.18484 0
M  V30 1769 C 177.473 0.362666 1.90784 0
M  V30 1770 O 176.748 -0.637892 1.83742 0
M  V30 1771 C 177.031 2.85149 2.19913 0
M  V30 1772 C 176.884 4.23456 1.51674 0
M  V30 1773 C 178.203 3.01227 3.20858 0
M  V30 1774 H 175.322 0.598994 0.429389 0
M  V30 1775 H 177.964 1.84002 0.473647 0
M  V30 1776 H 176.114 2.68729 2.80566 0
M  V30 1777 H 177.786 4.51552 0.943322 0
M  V30 1778 H 176.029 4.25998 0.819035 0
M  V30 1779 H 176.7 5.03812 2.2556 0
M  V30 1780 H 179.176 3.16382 2.70263 0
M  V30 1781 H 178.052 3.87141 3.89118 0
M  V30 1782 H 178.313 2.13447 3.8716 0
M  V30 1783 N 177.372 -0.689602 1.41712 0
M  V30 1784 C 178.32 -1.82475 1.44242 0
M  V30 1785 C 179.314 -1.66354 0.319774 0
M  V30 1786 O 180.52 -1.73143 0.492089 0
M  V30 1787 H 176.895 -0.601416 0.451445 0
M  V30 1788 H 178.866 -1.77458 2.39899 0
M  V30 1789 C 177.615 -3.20535 1.3473 0
M  V30 1790 H 176.938 -3.33559 2.20405 0
M  V30 1791 H 178.378 -4.00023 1.40562 0
M  V30 1792 C 176.837 -3.36846 0.0603281 0
M  V30 1793 O 177.367 -3.91656 -0.892663 0
M  V30 1794 N 175.573 -2.90595 -0.0177039 0
M  V30 1795 H 175.12 -2.46178 0.758572 0
M  V30 1796 H 175.078 -3.01886 -0.878201 0
M  V30 1797 N 178.85 -1.27639 -0.924453 0
M  V30 1798 C 180.078 -1.16989 -1.70649 0
M  V30 1799 C 180.493 0.272869 -1.86818 0
M  V30 1800 O 179.85 1.18549 -1.38753 0
M  V30 1801 C 179.901 -1.85229 -3.10439 0
M  V30 1802 O 179.622 -3.23868 -2.95028 0
M  V30 1803 C 181.123 -1.80746 -4.04779 0
M  V30 1804 H 178.343 -0.406595 -0.53378 0
M  V30 1805 H 180.887 -1.68569 -1.15778 0
M  V30 1806 H 179.042 -1.37545 -3.6216 0
M  V30 1807 H 179.456 -3.57889 -3.83426 0
M  V30 1808 H 180.93 -2.33101 -5.00368 0
M  V30 1809 H 181.407 -0.777499 -4.32263 0
M  V30 1810 H 182.013 -2.28059 -3.58984 0
M  V30 1811 N 180.328 1.1314 -1.09713 0
M  V30 1812 C 181.276 2.20717 -0.733934 0
M  V30 1813 C 182.27 1.6729 0.266506 0
M  V30 1814 O 183.476 1.79547 0.127656 0
M  V30 1815 H 179.851 0.719292 -0.21937 0
M  V30 1816 H 181.822 2.48611 -1.6503 0
M  V30 1817 C 180.571 3.47265 -0.173849 0
M  V30 1818 H 179.894 3.88716 -0.934873 0
M  V30 1819 H 181.334 4.23979 0.0423126 0
M  V30 1820 C 179.793 3.18724 1.09164 0
M  V30 1821 O 180.323 3.37762 2.17439 0
M  V30 1822 N 178.529 2.72583 1.00732 0
M  V30 1823 H 178.076 2.57291 0.126121 0
M  V30 1824 H 178.034 2.53862 1.85476 0
M  V30 1825 N 181.806 0.884767 1.30421 0
M  V30 1826 C 183.031 0.517288 2.00845 0
M  V30 1827 C 183.456 -0.886779 1.65885 0
M  V30 1828 O 182.814 -1.58768 0.875354 0
M  V30 1829 C 182.862 0.698994 3.5376 0
M  V30 1830 O 181.966 -0.255208 4.1161 0
M  V30 1831 H 181.307 0.203872 0.631927 0
M  V30 1832 H 183.837 1.19225 1.66272 0
M  V30 1833 H 183.847 0.597912 4.03595 0
M  V30 1834 H 182.522 1.72271 3.78544 0
M  V30 1835 H 181.099 -0.10784 3.72744 0
M  V30 1836 N 183.284 -1.43765 0.645699 0
M  V30 1837 C 184.247 -2.29163 -0.0409488 0
M  V30 1838 C 185.247 -1.41813 -0.757996 0
M  V30 1839 O 186.437 -1.63527 -0.600382 0
M  V30 1840 C 183.569 -3.23716 -1.06869 0
M  V30 1841 H 184.762 -2.91366 0.710345 0
M  V30 1842 H 182.315 -1.5092 0.406547 0
M  V30 1843 H 183.05 -2.66393 -1.84947 0
M  V30 1844 H 182.835 -3.88105 -0.558277 0
M  V30 1845 H 184.325 -3.87831 -1.54845 0
M  V30 1846 N 184.763 -0.387143 -1.52771 0
M  V30 1847 C 186.04 0.253197 -1.93954 0
M  V30 1848 C 186.42 1.64545 -1.32243 0
M  V30 1849 O 185.768 2.23191 -0.489699 0
M  V30 1850 C 185.978 0.281722 -3.47861 0
M  V30 1851 C 187.326 0.511715 -4.21505 0
M  V30 1852 O 188.35 0.362023 -3.54356 0
M  V30 1853 O 187.209 0.804847 -5.40541 0
M  V30 1854 H 184.303 0.156845 -0.811991 0
M  V30 1855 H 186.849 -0.441494 -1.63856 0
M  V30 1856 H 185.621 -0.693571 -3.85104 0
M  V30 1857 H 185.244 1.02142 -3.84256 0
M  V30 1858 N 186.241 1.57166 -0.116904 0
M  V30 1859 C 187.174 2.10912 0.871291 0
M  V30 1860 C 188.152 1.025 1.26224 0
M  V30 1861 O 189.336 1.3014 1.36366 0
M  V30 1862 C 186.463 2.6041 2.16574 0
M  V30 1863 C 185.509 3.80687 1.92302 0
M  V30 1864 S 186.342 5.23199 1.14119 0
M  V30 1865 C 187.498 5.76064 2.44748 0
M  V30 1866 H 187.731 2.94401 0.414138 0
M  V30 1867 H 185.264 1.54096 0.096829 0
M  V30 1868 H 187.222 2.89583 2.9095 0
M  V30 1869 H 185.883 1.77106 2.59408 0
M  V30 1870 H 185.076 4.13462 2.8821 0
M  V30 1871 H 184.678 3.5212 1.26047 0
M  V30 1872 H 186.97 5.8566 3.406 0
M  V30 1873 H 187.913 6.74184 2.16521 0
M  V30 1874 H 188.321 5.04117 2.54019 0
M  V30 1875 N 187.719 -0.156864 1.56817 0
M  V30 1876 C 188.996 -0.899244 1.73704 0
M  V30 1877 C 189.376 -1.99771 0.682254 0
M  V30 1878 O 188.724 -2.26515 -0.300522 0
M  V30 1879 C 188.934 -1.45075 3.17418 0
M  V30 1880 C 190.282 -1.91802 3.7881 0
M  V30 1881 O 191.306 -1.54838 3.20786 0
M  V30 1882 O 190.165 -2.5994 4.80722 0
M  V30 1883 H 187.259 -0.424267 0.709878 0
M  V30 1884 H 189.805 -0.143561 1.69092 0
M  V30 1885 H 188.577 -0.660846 3.85679 0
M  V30 1886 H 188.2 -2.27021 3.26416 0
M  V30 1887 N 189.197 -1.51736 -0.425897 0
M  V30 1888 C 190.425 -1.68794 -1.1965 0
M  V30 1889 C 190.84 -0.390164 -1.84725 0
M  V30 1890 O 190.197 0.632376 -1.71194 0
M  V30 1891 C 190.248 -2.81174 -2.27208 0
M  V30 1892 O 189.969 -4.05925 -1.64793 0
M  V30 1893 C 191.47 -3.09599 -3.17275 0
M  V30 1894 H 188.69 -0.566128 -0.360194 0
M  V30 1895 H 191.234 -1.98211 -0.503249 0
M  V30 1896 H 189.389 -2.54324 -2.9223 0
M  V30 1897 H 189.803 -4.68423 -2.35967 0
M  V30 1898 H 191.277 -3.91786 -3.88854 0
M  V30 1899 H 191.754 -2.22468 -3.78688 0
M  V30 1900 H 192.36 -3.38151 -2.57941 0
M  V30 1901 N 190.675 0.682077 -1.42076 0
M  V30 1902 C 191.605 1.80796 -1.47767 0
M  V30 1903 C 192.586 1.6677 -0.334954 0
M  V30 1904 O 193.771 1.863 -0.548264 0
M  V30 1905 C 190.901 3.19038 -1.37229 0
M  V30 1906 C 189.855 3.47789 -2.49453 0
M  V30 1907 C 189.181 4.8553 -2.23975 0
M  V30 1908 C 190.481 3.45411 -3.91776 0
M  V30 1909 H 192.175 1.7629 -2.41997 0
M  V30 1910 H 189.721 0.846721 -1.16476 0
M  V30 1911 H 191.674 3.97528 -1.39821 0
M  V30 1912 H 190.398 3.24204 -0.394907 0
M  V30 1913 H 189.057 2.71657 -2.46166 0
M  V30 1914 H 188.705 4.87337 -1.24547 0
M  V30 1915 H 188.405 5.0573 -2.99184 0
M  V30 1916 H 189.929 5.66312 -2.28304 0
M  V30 1917 H 191.343 4.13882 -3.96705 0
M  V30 1918 H 189.74 3.77145 -4.66778 0
M  V30 1919 H 190.81 2.44122 -4.18966 0
M  V30 1920 N 192.153 1.28127 0.917671 0
M  V30 1921 C 193.101 1.11569 2.04096 0
M  V30 1922 C 194.095 0.0360242 1.69362 0
M  V30 1923 O 195.301 0.194501 1.78946 0
M  V30 1924 H 191.676 0.344097 0.668656 0
M  V30 1925 H 193.647 2.06711 2.15205 0
M  V30 1926 C 192.396 0.790197 3.38602 0
M  V30 1927 H 191.719 1.61293 3.6582 0
M  V30 1928 H 193.159 0.714271 4.1794 0
M  V30 1929 C 191.618 -0.505897 3.3308 0
M  V30 1930 O 192.148 -1.53736 3.71117 0
M  V30 1931 N 190.354 -0.505193 2.86175 0
M  V30 1932 H 189.901 0.334621 2.55417 0
M  V30 1933 H 189.859 -1.37243 2.82863 0
M  V30 1934 N 193.631 -1.12557 1.10312 0
M  V30 1935 C 194.908 -1.80363 0.756878 0
M  V30 1936 C 195.288 -1.97067 -0.756824 0
M  V30 1937 O 194.636 -1.54601 -1.68259 0
M  V30 1938 C 194.846 -3.14812 1.50647 0
M  V30 1939 C 196.194 -3.90029 1.67817 0
M  V30 1940 O 197.218 -3.24464 1.46974 0
M  V30 1941 O 196.077 -5.07652 2.02365 0
M  V30 1942 H 193.171 -0.780667 0.272926 0
M  V30 1943 H 195.717 -1.19404 1.20586 0
M  V30 1944 H 194.489 -2.97936 2.53672 0
M  V30 1945 H 194.112 -3.83478 1.05026 0
M  V30 1946 N 195.109 -0.891671 -1.2995 0
M  V30 1947 C 196.337 -0.52866 -2.00032 0
M  V30 1948 C 196.752 0.884574 -1.66795 0
M  V30 1949 O 196.109 1.5827 -0.908669 0
M  V30 1950 C 196.16 -0.701814 -3.54622 0
M  V30 1951 O 195.881 -2.05942 -3.86678 0
M  V30 1952 C 197.382 -0.342683 -4.41973 0
M  V30 1953 H 194.602 -0.203659 -0.639347 0
M  V30 1954 H 197.146 -1.19881 -1.65677 0
M  V30 1955 H 195.301 -0.0789468 -3.8732 0
M  V30 1956 H 195.715 -2.08291 -4.81368 0
M  V30 1957 H 197.189 -0.514709 -5.49595 0
M  V30 1958 H 197.666 0.71975 -4.33262 0
M  V30 1959 H 198.272 -0.942154 -4.14733 0
M  V30 1960 N 196.587 1.43421 -0.653314 0
M  V30 1961 C 197.815 2.06163 -0.174491 0
M  V30 1962 C 198.23 1.48969 1.1599 0
M  V30 1963 O 197.587 0.621042 1.71608 0
M  V30 1964 C 197.638 3.61417 -0.0774865 0
M  V30 1965 O 197.359 4.16485 -1.35912 0
M  V30 1966 C 198.86 4.41235 0.427402 0
M  V30 1967 H 196.08 0.664946 -0.0899353 0
M  V30 1968 H 198.624 1.83924 -0.893988 0
M  V30 1969 H 196.779 3.82841 0.59257 0
M  V30 1970 H 197.193 5.10153 -1.21839 0
M  V30 1971 H 198.667 5.5021 0.44423 0
M  V30 1972 H 199.144 4.14268 1.45873 0
M  V30 1973 H 199.75 4.2478 -0.210167 0
M  V30 1974 N 198.065 0.39524 1.52563 0
M  V30 1975 C 198.975 -0.444232 2.30356 0
M  V30 1976 C 199.991 -1.06615 1.37511 0
M  V30 1977 O 201.167 -1.07067 1.70583 0
M  V30 1978 C 198.232 -1.55315 3.09964 0
M  V30 1979 C 197.293 -0.955734 4.18526 0
M  V30 1980 C 196.526 -2.01181 4.9433 0
M  V30 1981 O 196.749 -3.22781 4.70285 0
M  V30 1982 O 195.683 -1.62579 5.79527 0
M  V30 1983 H 199.509 0.189667 3.03107 0
M  V30 1984 H 197.094 0.1588 1.48554 0
M  V30 1985 H 198.976 -2.19724 3.59582 0
M  V30 1986 H 197.651 -2.17191 2.4002 0
M  V30 1987 H 196.558 -0.274743 3.7309 0
M  V30 1988 H 197.891 -0.381109 4.90722 0
M  V30 1989 N 199.544 -1.57102 0.125237 0
M  V30 1990 C 200.791 -1.95407 -0.531248 0
M  V30 1991 C 201.119 -1.0089 -1.66287 0
M  V30 1992 O 200.374 -0.0339431 -1.95671 0
M  V30 1993 C 200.673 -3.40096 -1.09862 0
M  V30 1994 C 200.339 -4.50815 -0.0876989 0
M  V30 1995 C 199.001 -4.80824 0.19026 0
M  V30 1996 C 201.353 -5.17724 0.600902 0
M  V30 1997 C 198.681 -5.75058 1.163 0
M  V30 1998 C 201.033 -6.13005 1.56231 0
M  V30 1999 C 199.697 -6.41403 1.8482 0
M  V30 2000 H 198.967 -0.715046 -0.194397 0
M  V30 2001 H 201.614 -1.90373 0.207463 0
M  V30 2002 H 199.919 -3.41855 -1.91422 0
M  V30 2003 H 201.616 -3.6705 -1.61478 0
M  V30 2004 H 198.206 -4.27444 -0.314528 0
M  V30 2005 H 202.39 -4.94691 0.399333 0
M  V30 2006 H 197.646 -5.95362 1.39117 0
M  V30 2007 H 201.82 -6.63934 2.10153 0
M  V30 2008 H 199.447 -7.14229 2.60349 0
M  V30 2009 N 201.022 0.148545 -1.56898 0
M  V30 2010 C 202.268 0.862694 -1.83536 0
M  V30 2011 C 202.601 1.80889 -0.706604 0
M  V30 2012 O 201.876 1.92328 0.289885 0
M  V30 2013 C 202.159 1.63853 -3.20662 0
M  V30 2014 C 202.012 0.713925 -4.44098 0
M  V30 2015 C 203.331 2.60133 -3.54991 0
M  V30 2016 H 200.45 0.312179 -0.667618 0
M  V30 2017 H 203.092 0.127953 -1.89569 0
M  V30 2018 H 201.242 2.26489 -3.1565 0
M  V30 2019 H 202.914 0.098686 -4.61194 0
M  V30 2020 H 201.157 0.0234019 -4.33794 0
M  V30 2021 H 201.828 1.29278 -5.36648 0
M  V30 2022 H 204.304 2.07616 -3.60603 0
M  V30 2023 H 203.18 3.11468 -4.51972 0
M  V30 2024 H 203.441 3.41417 -2.80868 0
M  V30 2025 N 202.5 1.5196 0.417844 0
M  V30 2026 C 203.747 1.65591 1.16559 0
M  V30 2027 C 204.075 0.381565 1.90721 0
M  V30 2028 O 203.33 -0.635156 1.85106 0
M  V30 2029 C 203.629 2.82269 2.19223 0
M  V30 2030 C 203.295 4.20819 1.61933 0
M  V30 2031 C 201.957 4.58506 1.46033 0
M  V30 2032 C 204.309 5.07196 1.20008 0
M  V30 2033 C 201.637 5.80257 0.867113 0
M  V30 2034 C 203.989 6.29544 0.621086 0
M  V30 2035 C 202.653 6.65987 0.449144 0
M  V30 2036 H 201.923 0.605939 0.42652 0
M  V30 2037 H 204.57 1.86041 0.45397 0
M  V30 2038 H 202.875 2.56118 2.96498 0
M  V30 2039 H 204.572 2.90012 2.76936 0
M  V30 2040 H 201.162 3.91116 1.7529 0
M  V30 2041 H 205.346 4.7867 1.31105 0
M  V30 2042 H 200.602 6.07124 0.721833 0
M  V30 2043 H 204.776 6.95805 0.287798 0
M  V30 2044 H 202.403 7.60199 -0.012632 0
M  V30 2045 N 203.978 -0.674533 1.42435 0
M  V30 2046 C 205.226 -1.43175 1.42637 0
M  V30 2047 C 205.547 -1.94951 0.0438992 0
M  V30 2048 O 204.817 -1.7308 -0.917607 0
M  V30 2049 H 203.397 -0.531307 0.525092 0
M  V30 2050 H 206.059 -0.797006 1.77859 0
M  V30 2051 H 205.155 -2.28463 2.12629 0
M  V30 2052 N 205.456 -1.28612 -0.910864 0
M  V30 2053 C 206.872 -1.06381 -1.18976 0
M  V30 2054 C 207.072 0.191998 -2.00583 0
M  V30 2055 O 206.128 0.892869 -2.36187 0
M  V30 2056 C 207.441 -2.31295 -1.92154 0
M  V30 2057 C 208.989 -2.36503 -2.05025 0
M  V30 2058 C 209.464 -3.61191 -2.81612 0
M  V30 2059 N 210.955 -3.61847 -2.89172 0
M  V30 2060 C 211.69 -4.55004 -3.4894 0
M  V30 2061 N 211.186 -5.58482 -4.09963 0
M  V30 2062 N 212.979 -4.42594 -3.46506 0
M  V30 2063 H 205.13 -2.09221 -0.366094 0
M  V30 2064 H 207.393 -0.921003 -0.224629 0
M  V30 2065 H 207.099 -3.228 -1.39618 0
M  V30 2066 H 206.973 -2.37934 -2.9269 0
M  V30 2067 H 209.36 -1.45494 -2.5674 0
M  V30 2068 H 209.441 -2.33857 -1.03657 0
M  V30 2069 H 209.085 -4.52545 -2.30576 0
M  V30 2070 H 209.015 -3.61092 -3.83302 0
M  V30 2071 H 211.506 -2.87022 -2.45819 0
M  V30 2072 H 211.819 -6.25704 -4.53557 0
M  V30 2073 H 210.164 -5.62305 -4.08459 0
M  V30 2074 H 213.355 -3.60953 -2.98045 0
M  V30 2075 H 213.528 -5.15381 -3.92793 0
M  V30 2076 N 206.934 1.1197 -1.10907 0
M  V30 2077 C 208.159 1.87942 -0.877064 0
M  V30 2078 C 208.584 1.79341 0.567314 0
M  V30 2079 O 207.942 1.15184 1.40009 0
M  V30 2080 C 207.99 3.34926 -1.33629 0
M  V30 2081 O 207.094 4.09303 -0.504447 0
M  V30 2082 H 206.435 0.583785 -0.316371 0
M  V30 2083 H 208.965 1.4157 -1.47712 0
M  V30 2084 H 208.975 3.8577 -1.32837 0
M  V30 2085 H 207.65 3.40504 -2.3881 0
M  V30 2086 H 206.227 3.68393 -0.577993 0
M  V30 2087 N 208.412 0.89855 1.29475 0
M  V30 2088 C 209.342 0.39201 2.30186 0
M  V30 2089 C 210.323 -0.532359 1.61555 0
M  V30 2090 O 211.508 -0.443331 1.89072 0
M  V30 2091 C 208.638 -0.382353 3.45189 0
M  V30 2092 C 207.592 0.451483 4.25612 0
M  V30 2093 C 206.918 -0.450307 5.328 0
M  V30 2094 C 208.218 1.70079 4.93832 0
M  V30 2095 H 209.912 1.23362 2.72804 0
M  V30 2096 H 207.458 0.594638 1.31149 0
M  V30 2097 H 209.411 -0.747451 4.14718 0
M  V30 2098 H 208.135 -1.25774 3.01411 0
M  V30 2099 H 206.794 0.798897 3.57789 0
M  V30 2100 H 206.442 -1.32379 4.85268 0
M  V30 2101 H 206.142 0.103902 5.87508 0
M  V30 2102 H 207.666 -0.811623 6.05182 0
M  V30 2103 H 209.08 1.40549 5.55805 0
M  V30 2104 H 207.477 2.19623 5.58467 0
M  V30 2105 H 208.547 2.43744 4.19186 0
M  V30 2106 N 209.89 -1.43072 0.660911 0
M  V30 2107 C 210.8 -2.34585 -0.0264163 0
M  V30 2108 C 211.816 -1.54316 -0.803898 0
M  V30 2109 O 212.992 -1.86939 -0.749391 0
M  V30 2110 C 210.057 -3.32689 -0.975639 0
M  V30 2111 C 209.118 -4.2886 -0.194236 0
M  V30 2112 C 208.351 -5.22278 -1.09825 0
M  V30 2113 O 208.574 -5.20299 -2.33763 0
M  V30 2114 O 207.508 -5.99228 -0.566513 0
M  V30 2115 H 211.334 -2.94869 0.727034 0
M  V30 2116 H 208.919 -1.43342 0.42111 0
M  V30 2117 H 210.801 -3.92995 -1.52094 0
M  V30 2118 H 209.476 -2.74898 -1.70918 0
M  V30 2119 H 208.383 -3.72011 0.394835 0
M  V30 2120 H 209.716 -4.89655 0.499899 0
M  V30 2121 N 211.368 -0.403325 -1.52352 0
M  V30 2122 C 212.784 -0.0539281 -1.59509 0
M  V30 2123 C 212.984 1.43307 -1.41652 0
M  V30 2124 O 212.04 2.19924 -1.24056 0
M  V30 2125 C 213.353 -0.543654 -2.95745 0
M  V30 2126 C 214.901 -0.501125 -3.08962 0
M  V30 2127 C 215.376 -0.967267 -4.47669 0
M  V30 2128 N 216.867 -0.923849 -4.53893 0
M  V30 2129 C 217.602 -1.25578 -5.5948 0
M  V30 2130 N 217.098 -1.65889 -6.72646 0
M  V30 2131 N 218.891 -1.17613 -5.49658 0
M  V30 2132 H 211.042 -1.37123 -1.62206 0
M  V30 2133 H 213.305 -0.56294 -0.76276 0
M  V30 2134 H 213.011 -1.58275 -3.14073 0
M  V30 2135 H 212.885 0.0498042 -3.77167 0
M  V30 2136 H 215.272 0.528909 -2.90321 0
M  V30 2137 H 215.353 -1.13056 -2.2946 0
M  V30 2138 H 214.997 -1.9956 -4.67053 0
M  V30 2139 H 214.927 -0.314698 -5.25659 0
M  V30 2140 H 217.418 -0.627403 -3.72655 0
M  V30 2141 H 217.731 -1.89543 -7.49195 0
M  V30 2142 H 216.076 -1.69787 -6.73942 0
M  V30 2143 H 219.267 -0.860115 -4.6013 0
M  V30 2144 H 219.44 -1.43812 -6.3184 0
M  V30 2145 N 212.846 1.57033 -0.133567 0
M  V30 2146 C 214.094 1.953 0.519848 0
M  V30 2147 C 214.415 1.01866 1.66278 0
M  V30 2148 O 213.685 0.0776513 1.95746 0
M  V30 2149 H 212.265 0.721091 0.195032 0
M  V30 2150 H 214.927 1.93809 -0.205921 0
M  V30 2151 H 214.023 2.98695 0.904854 0
M  V30 2152 N 214.325 -0.140222 1.56975 0
M  V30 2153 C 215.573 -0.850005 1.83356 0
M  V30 2154 C 215.894 -1.81399 0.71551 0
M  V30 2155 O 215.164 -1.94136 -0.262294 0
M  V30 2156 H 213.744 -0.316886 0.676456 0
M  V30 2157 H 216.406 -0.132608 1.94448 0
M  V30 2158 H 215.502 -1.40814 2.78528 0
M  V30 2159 N 215.803 -1.52179 -0.40978 0
M  V30 2160 C 216.766 -1.74853 -1.48186 0
M  V30 2161 C 217.766 -0.618417 -1.48433 0
M  V30 2162 O 218.956 -0.886286 -1.49969 0
M  V30 2163 C 216.088 -1.8303 -2.87598 0
M  V30 2164 H 217.281 -2.70559 -1.29374 0
M  V30 2165 H 214.834 -1.42586 -0.640233 0
M  V30 2166 H 215.569 -0.89236 -3.11781 0
M  V30 2167 H 215.354 -2.65187 -2.88822 0
M  V30 2168 H 216.844 -2.02316 -3.65319 0
M  V30 2169 N 217.281 0.66697 -1.42791 0
M  V30 2170 C 218.529 1.42417 -1.43394 0
M  V30 2171 C 218.85 1.94925 -0.0542373 0
M  V30 2172 O 218.12 1.73564 0.908415 0
M  V30 2173 H 216.7 0.528515 -0.527902 0
M  V30 2174 H 219.362 0.787562 -1.78279 0
M  V30 2175 H 218.458 2.27333 -2.13837 0
M  V30 2176 N 218.759 1.29093 0.90403 0
M  V30 2177 C 219.984 1.19809 1.69294 0
M  V30 2178 C 220.409 -0.238481 1.86582 0
M  V30 2179 O 219.767 -1.1723 1.383 0
M  V30 2180 C 219.815 1.91202 3.05736 0
M  V30 2181 O 218.919 1.22611 3.93752 0
M  V30 2182 H 218.26 0.415385 0.518027 0
M  V30 2183 H 220.79 1.70586 1.12967 0
M  V30 2184 H 220.8 1.99487 3.55906 0
M  V30 2185 H 219.475 2.95692 2.92471 0
M  V30 2186 H 218.052 1.22554 3.52186 0
M  V30 2187 N 220.237 -1.11381 1.11499 0
M  V30 2188 C 221.462 -1.87475 0.887019 0
M  V30 2189 C 221.887 -1.79639 -0.557796 0
M  V30 2190 O 221.245 -1.15924 -1.39396 0
M  V30 2191 C 221.293 -3.34213 1.35403 0
M  V30 2192 O 220.397 -4.0903 0.526146 0
M  V30 2193 H 219.738 -0.582099 0.319463 0
M  V30 2194 H 222.268 -1.40785 1.48461 0
M  V30 2195 H 222.278 -3.8506 1.34881 0
M  V30 2196 H 220.953 -3.39232 2.40612 0
M  V30 2197 H 219.53 -3.68082 0.597522 0
M  V30 2198 N 221.715 -0.905404 -1.28997 0
M  V30 2199 C 222.678 -0.392253 -2.25819 0
M  V30 2200 C 223.678 0.476753 -1.5357 0
M  V30 2201 O 224.868 0.280994 -1.71919 0
M  V30 2202 C 222 0.438588 -3.38067 0
M  V30 2203 H 223.193 -1.24743 -2.72725 0
M  V30 2204 H 220.746 -0.684051 -1.40536 0
M  V30 2205 H 221.481 1.31352 -2.96508 0
M  V30 2206 H 221.266 -0.184167 -3.91667 0
M  V30 2207 H 222.756 0.78873 -4.10084 0
M  V30 2208 N 223.193 1.4272 -0.668489 0
M  V30 2209 C 224.44 2.01624 -0.18814 0
M  V30 2210 C 224.768 1.5282 1.20317 0
M  V30 2211 O 224.023 0.718323 1.8204 0
M  V30 2212 C 224.322 3.57021 -0.164499 0
M  V30 2213 C 223.988 4.25232 -1.49962 0
M  V30 2214 C 222.65 4.4358 -1.8652 0
M  V30 2215 C 225.002 4.63727 -2.37921 0
M  V30 2216 C 222.33 4.97694 -3.10674 0
M  V30 2217 C 224.682 5.19218 -3.6138 0
M  V30 2218 C 223.346 5.3578 -3.98115 0
M  V30 2219 H 222.616 0.737795 -0.0688454 0
M  V30 2220 H 225.263 1.70991 -0.862225 0
M  V30 2221 H 223.568 3.87285 0.593079 0
M  V30 2222 H 225.265 4.00372 0.224271 0
M  V30 2223 H 221.855 4.11306 -1.20522 0
M  V30 2224 H 226.039 4.4923 -2.10964 0
M  V30 2225 H 221.295 5.08702 -3.39164 0
M  V30 2226 H 225.469 5.4799 -4.29743 0
M  V30 2227 H 223.096 5.77475 -4.94395 0
M  V30 2228 N 224.671 0.411399 1.52136 0
M  V30 2229 C 225.899 -0.163076 2.06256 0
M  V30 2230 C 226.314 -1.3867 1.28125 0
M  V30 2231 O 225.671 -1.79423 0.333721 0
M  V30 2232 C 225.722 -0.511252 3.57867 0
M  V30 2233 O 225.443 0.66378 4.33042 0
M  V30 2234 C 226.944 -1.13921 4.28412 0
M  V30 2235 H 224.164 -0.0193897 0.67072 0
M  V30 2236 H 226.708 0.583007 1.96013 0
M  V30 2237 H 224.863 -1.20723 3.6811 0
M  V30 2238 H 225.277 0.372601 5.23175 0
M  V30 2239 H 226.751 -1.33302 5.35663 0
M  V30 2240 H 227.228 -2.11296 3.85033 0
M  V30 2241 H 227.834 -0.483373 4.22544 0
M  V30 2242 N 226.149 -1.5696 0.141893 0
M  V30 2243 C 227.377 -2.00322 -0.517579 0
M  V30 2244 C 227.792 -1.02193 -1.58752 0
M  V30 2245 O 227.149 -0.0181619 -1.82491 0
M  V30 2246 C 227.2 -3.43618 -1.12289 0
M  V30 2247 O 226.921 -4.37995 -0.0956929 0
M  V30 2248 C 228.422 -4.02231 -1.86347 0
M  V30 2249 H 225.642 -0.657243 -0.135177 0
M  V30 2250 H 228.186 -2.03146 0.234973 0
M  V30 2251 H 226.341 -3.41662 -1.82609 0
M  V30 2252 H 226.755 -5.21729 -0.538469 0
M  V30 2253 H 228.229 -5.04509 -2.23997 0
M  V30 2254 H 228.706 -3.42655 -2.74744 0
M  V30 2255 H 229.312 -4.07802 -1.20737 0
M  V30 2256 N 227.627 0.131896 -1.57047 0
M  V30 2257 C 228.59 1.14638 -1.98471 0
M  V30 2258 C 229.59 1.35029 -0.873148 0
M  V30 2259 O 230.78 1.31764 -1.13946 0
M  V30 2260 C 227.912 2.50358 -2.31373 0
M  V30 2261 H 229.105 0.79064 -2.8929 0
M  V30 2262 H 226.658 0.375761 -1.51716 0
M  V30 2263 H 227.393 2.90876 -1.43393 0
M  V30 2264 H 227.178 2.36915 -3.12432 0
M  V30 2265 H 228.668 3.23395 -2.64207 0
M  V30 2266 N 229.106 1.52395 0.401703 0
M  V30 2267 C 230.352 1.67065 1.14966 0
M  V30 2268 C 230.685 0.403052 1.89971 0
M  V30 2269 O 229.96 -0.598774 1.85054 0
M  V30 2270 C 230.243 2.8975 2.13815 0
M  V30 2271 C 230.096 4.26578 1.42658 0
M  V30 2272 C 231.415 3.07965 3.14397 0
M  V30 2273 H 228.534 0.607968 0.416587 0
M  V30 2274 H 231.176 1.84965 0.434511 0
M  V30 2275 H 229.326 2.74619 2.74803 0
M  V30 2276 H 230.998 4.53451 0.847329 0
M  V30 2277 H 229.241 4.27639 0.72849 0
M  V30 2278 H 229.912 5.08483 2.14823 0
M  V30 2279 H 232.388 3.22043 2.63491 0
M  V30 2280 H 231.264 3.95308 3.80819 0
M  V30 2281 H 231.525 2.21611 3.82545 0
M  V30 2282 N 230.584 -0.659388 1.43143 0
M  V30 2283 C 231.832 -1.41654 1.44147 0
M  V30 2284 C 232.153 -1.94893 0.0645739 0
M  V30 2285 O 231.423 -1.74044 -0.899198 0
M  V30 2286 H 230.003 -0.525708 0.530697 0
M  V30 2287 H 232.665 -0.778097 1.78694 0
M  V30 2288 H 231.761 -2.26195 2.1504 0
M  V30 2289 N 232.062 -1.29571 -0.897171 0
M  V30 2290 C 233.308 -1.17863 -1.65034 0
M  V30 2291 C 233.641 0.268729 -1.92332 0
M  V30 2292 O 232.916 1.19378 -1.53555 0
M  V30 2293 C 233.199 -1.995 -2.99786 0
M  V30 2294 C 233.052 -3.5239 -2.79538 0
M  V30 2295 C 234.371 -1.82335 -4.00552 0
M  V30 2296 H 231.49 -0.429528 -0.598895 0
M  V30 2297 H 234.132 -1.59072 -1.03905 0
M  V30 2298 H 232.282 -1.64485 -3.51962 0
M  V30 2299 H 233.954 -3.97401 -2.34244 0
M  V30 2300 H 232.197 -3.77187 -2.14273 0
M  V30 2301 H 232.868 -4.04787 -3.75302 0
M  V30 2302 H 235.344 -2.12924 -3.57495 0
M  V30 2303 H 234.22 -2.41801 -4.92771 0
M  V30 2304 H 234.481 -0.779209 -4.35179 0
M  V30 2305 N 233.54 1.10788 -1.12088 0
M  V30 2306 C 234.787 1.82671 -0.873931 0
M  V30 2307 C 235.115 1.85004 0.600311 0
M  V30 2308 O 234.37 1.30365 1.45957 0
M  V30 2309 C 234.669 3.29294 -1.38926 0
M  V30 2310 C 234.335 3.47113 -2.87791 0
M  V30 2311 C 232.997 3.51684 -3.28439 0
M  V30 2312 C 235.349 3.52808 -3.83635 0
M  V30 2313 C 232.677 3.59513 -4.63646 0
M  V30 2314 C 235.029 3.62169 -5.18668 0
M  V30 2315 C 233.693 3.65003 -5.58864 0
M  V30 2316 H 232.963 0.668441 -0.319794 0
M  V30 2317 H 235.61 1.30613 -1.40045 0
M  V30 2318 H 233.915 3.83894 -0.783122 0
M  V30 2319 H 235.612 3.83416 -1.17443 0
M  V30 2320 H 232.202 3.4423 -2.5535 0
M  V30 2321 H 236.386 3.4853 -3.53328 0
M  V30 2322 H 231.642 3.59987 -4.94185 0
M  V30 2323 H 235.816 3.6552 -5.92763 0
M  V30 2324 H 233.443 3.70822 -6.63623 0
M  V30 2325 N 235.018 0.912232 1.28515 0
M  V30 2326 C 235.928 0.404506 2.31086 0
M  V30 2327 C 236.944 -0.50707 1.66448 0
M  V30 2328 O 238.12 -0.393624 1.97516 0
M  V30 2329 C 235.185 -0.348572 3.44943 0
M  V30 2330 C 234.246 0.59604 4.25142 0
M  V30 2331 C 233.479 -0.121194 5.33562 0
M  V30 2332 O 233.702 -1.34317 5.5436 0
M  V30 2333 O 232.636 0.542716 5.99448 0
M  V30 2334 H 236.462 1.25579 2.76521 0
M  V30 2335 H 234.047 0.676998 1.33181 0
M  V30 2336 H 235.929 -0.77395 4.14232 0
M  V30 2337 H 234.604 -1.17571 3.01594 0
M  V30 2338 H 233.511 1.07079 3.58448 0
M  V30 2339 H 234.844 1.38995 4.72167 0
M  V30 2340 N 236.496 -1.42363 0.676048 0
M  V30 2341 C 237.459 -2.29199 0.00766941 0
M  V30 2342 C 238.459 -1.43389 -0.727745 0
M  V30 2343 O 239.649 -1.64764 -0.56556 0
M  V30 2344 C 236.781 -3.2591 -0.999785 0
M  V30 2345 H 237.974 -2.89794 0.771988 0
M  V30 2346 H 235.527 -1.50024 0.438468 0
M  V30 2347 H 236.262 -2.70256 -1.79255 0
M  V30 2348 H 236.047 -3.89202 -0.475829 0
M  V30 2349 H 237.537 -3.91028 -1.46583 0
M  V30 2350 N 237.974 -0.419461 -1.51915 0
M  V30 2351 C 238.907 0.445751 -2.23804 0
M  V30 2352 C 239.885 1.03951 -1.25031 0
M  V30 2353 O 241.069 1.08541 -1.54114 0
M  V30 2354 C 238.196 1.61964 -2.97465 0
M  V30 2355 C 237.242 1.14828 -4.10751 0
M  V30 2356 S 238.075 0.104938 -5.35397 0
M  V30 2357 C 239.231 1.28391 -6.1259 0
M  V30 2358 H 239.464 -0.164627 -2.96844 0
M  V30 2359 H 236.997 -0.203833 -1.53049 0
M  V30 2360 H 238.955 2.29271 -3.40507 0
M  V30 2361 H 237.616 2.20139 -2.24048 0
M  V30 2362 H 236.809 2.02561 -4.61503 0
M  V30 2363 H 236.411 0.553712 -3.69878 0
M  V30 2364 H 238.703 2.20563 -6.40592 0
M  V30 2365 H 239.646 0.816724 -7.03374 0
M  V30 2366 H 240.054 1.51439 -5.43807 0
M  V30 2367 N 239.452 1.56882 -0.150215 0
M  V30 2368 C 240.399 2.16922 0.788244 0
M  V30 2369 C 241.369 1.10303 1.24187 0
M  V30 2370 O 242.554 1.38359 1.31383 0
M  V30 2371 C 239.694 2.79754 2.02068 0
M  V30 2372 C 238.807 4.00775 1.61257 0
M  V30 2373 C 237.942 4.51595 2.79705 0
M  V30 2374 C 236.981 5.65074 2.35282 0
M  V30 2375 N 236.118 6.10499 3.4675 0
M  V30 2376 H 240.958 2.96779 0.269444 0
M  V30 2377 H 238.495 1.46599 0.12128 0
M  V30 2378 H 240.453 3.14329 2.74323 0
M  V30 2379 H 239.083 2.02536 2.51354 0
M  V30 2380 H 238.135 3.72158 0.787553 0
M  V30 2381 H 239.447 4.82978 1.24633 0
M  V30 2382 H 238.601 4.88242 3.60145 0
M  V30 2383 H 237.34 3.68406 3.19576 0
M  V30 2384 H 236.345 5.28 1.53283 0
M  V30 2385 H 237.57 6.50052 1.96493 0
M  V30 2386 H 235.516 5.30243 3.86236 0
M  V30 2387 H 235.433 6.87637 3.14152 0
M  V30 2388 H 236.701 6.51791 4.27537 0
M  V30 2389 N 240.93 -0.123565 1.57115 0
M  V30 2390 C 241.893 -1.13583 1.99076 0
M  V30 2391 C 242.893 -1.34564 0.880296 0
M  V30 2392 O 244.083 -1.31158 1.14644 0
M  V30 2393 C 241.215 -2.49128 2.32698 0
M  V30 2394 H 242.408 -0.775287 2.89706 0
M  V30 2395 H 239.961 -0.36771 1.51913 0
M  V30 2396 H 240.696 -2.90111 1.44934 0
M  V30 2397 H 240.481 -2.35255 3.13684 0
M  V30 2398 H 241.971 -3.2199 2.65918 0
M  V30 2399 N 242.408 -1.52605 -0.393616 0
M  V30 2400 C 243.636 -1.71294 -1.16043 0
M  V30 2401 C 244.051 -0.429259 -1.83855 0
M  V30 2402 O 243.408 0.595921 -1.72496 0
M  V30 2403 C 243.459 -2.8593 -2.21193 0
M  V30 2404 O 243.18 -4.09329 -1.56146 0
M  V30 2405 C 244.681 -3.16259 -3.10636 0
M  V30 2406 H 241.901 -0.573641 -0.348104 0
M  V30 2407 H 244.445 -1.99234 -0.461092 0
M  V30 2408 H 242.6 -2.60465 -2.86769 0
M  V30 2409 H 243.014 -4.73323 -2.25978 0
M  V30 2410 H 244.488 -3.99946 -3.80456 0
M  V30 2411 H 244.965 -2.3045 -3.73884 0
M  V30 2412 H 245.571 -3.43547 -2.50711 0
M  V30 2413 N 243.887 0.651787 -1.4349 0
M  V30 2414 C 245.133 1.41376 -1.45398 0
M  V30 2415 C 245.466 1.94041 -0.0784823 0
M  V30 2416 O 244.741 1.72379 0.900878 0
M  V30 2417 C 245.024 2.59414 -2.49752 0
M  V30 2418 C 244.877 2.12232 -3.96582 0
M  V30 2419 C 246.196 3.61626 -2.50827 0
M  V30 2420 H 243.315 0.512719 -0.529422 0
M  V30 2421 H 245.957 0.738796 -1.75048 0
M  V30 2422 H 244.107 3.16997 -2.246 0
M  V30 2423 H 245.779 1.59639 -4.32797 0
M  V30 2424 H 244.022 1.43592 -4.09346 0
M  V30 2425 H 244.693 2.9712 -4.65214 0
M  V30 2426 H 247.169 3.13805 -2.7325 0
M  V30 2427 H 246.045 4.41766 -3.25783 0
M  V30 2428 H 246.306 4.14314 -1.5426 0
M  V30 2429 N 245.365 1.30045 0.890287 0
M  V30 2430 C 246.328 1.15963 1.977 0
M  V30 2431 C 247.328 0.0923777 1.60534 0
M  V30 2432 O 248.518 0.340071 1.70848 0
M  V30 2433 C 245.65 0.775451 3.31963 0
M  V30 2434 H 246.843 2.12502 2.11619 0
M  V30 2435 H 244.396 1.13366 1.07601 0
M  V30 2436 H 245.131 -0.189671 3.23745 0
M  V30 2437 H 244.916 1.54668 3.60306 0
M  V30 2438 H 246.406 0.700251 4.11687 0
M  V30 2439 N 246.843 -1.10192 1.12674 0
M  V30 2440 C 247.793 -2.14754 0.765801 0
M  V30 2441 C 248.777 -1.59154 -0.236409 0
M  V30 2442 O 249.969 -1.76951 -0.0415261 0
M  V30 2443 C 247.098 -3.42563 0.224827 0
M  V30 2444 C 246.184 -4.05091 1.25548 0
M  V30 2445 N 246.575 -4.42287 2.4539 0
M  V30 2446 C 244.873 -4.32186 1.10142 0
M  V30 2447 C 245.574 -4.91441 3.11224 0
M  V30 2448 N 244.55 -4.88405 2.38666 0
M  V30 2449 H 248.352 -2.41309 1.67772 0
M  V30 2450 H 245.866 -1.27339 1.00789 0
M  V30 2451 H 247.863 -4.16868 -0.0519578 0
M  V30 2452 H 246.523 -3.17467 -0.681515 0
M  V30 2453 H 247.534 -4.33902 2.82754 0
M  V30 2454 H 244.211 -4.16735 0.252587 0
M  V30 2455 H 245.601 -5.29749 4.13298 0
M  V30 2456 N 248.321 -0.919034 -1.28029 0
M  V30 2457 C 249.737 -0.617972 -1.4715 0
M  V30 2458 C 249.937 0.835242 -1.83374 0
M  V30 2459 O 248.993 1.61388 -1.94191 0
M  V30 2460 C 250.306 -1.56041 -2.57044 0
M  V30 2461 C 251.854 -1.56769 -2.7091 0
M  V30 2462 C 252.329 -2.49688 -3.83953 0
M  V30 2463 N 253.82 -2.47845 -3.91314 0
M  V30 2464 C 254.555 -3.16437 -4.78179 0
M  V30 2465 N 254.051 -3.94376 -5.69596 0
M  V30 2466 N 255.844 -3.05498 -4.71834 0
M  V30 2467 H 247.995 -1.85866 -1.02798 0
M  V30 2468 H 250.258 -0.797506 -0.512531 0
M  V30 2469 H 249.964 -2.59671 -2.372 0
M  V30 2470 H 249.838 -1.29551 -3.54255 0
M  V30 2471 H 252.225 -0.538745 -2.90141 0
M  V30 2472 H 252.306 -1.87305 -1.74214 0
M  V30 2473 H 251.95 -3.52688 -3.65477 0
M  V30 2474 H 251.88 -2.16453 -4.80058 0
M  V30 2475 H 254.371 -1.91234 -3.25941 0
M  V30 2476 H 254.684 -4.43721 -6.32718 0
M  V30 2477 H 253.029 -3.98481 -5.69419 0
M  V30 2478 H 256.22 -2.44108 -3.99411 0
M  V30 2479 H 256.393 -3.59225 -5.39316 0
M  V30 2480 N 249.799 1.42003 -0.683588 0
M  V30 2481 C 251.047 2.01015 -0.209101 0
M  V30 2482 C 251.368 1.54365 1.19149 0
M  V30 2483 O 250.638 0.769083 1.80172 0
M  V30 2484 H 249.218 0.743294 -0.074315 0
M  V30 2485 H 251.88 1.73798 -0.882066 0
M  V30 2486 H 250.976 3.11343 -0.2172 0
M  V30 2487 N 251.277 0.427512 1.51691 0
M  V30 2488 C 252.207 -0.3796 2.30394 0
M  V30 2489 C 253.188 -1.02982 1.35384 0
M  V30 2490 O 254.373 -1.03534 1.643 0
M  V30 2491 C 251.503 -1.48649 3.1388 0
M  V30 2492 C 250.457 -0.960294 4.17088 0
M  V30 2493 C 249.783 -2.16219 4.89033 0
M  V30 2494 C 251.083 -0.00153679 5.223 0
M  V30 2495 H 252.777 0.277164 2.98114 0
M  V30 2496 H 250.323 0.134739 1.43368 0
M  V30 2497 H 252.276 -2.05826 3.67714 0
M  V30 2498 H 251 -2.1714 2.43962 0
M  V30 2499 H 249.659 -0.410806 3.64291 0
M  V30 2500 H 249.307 -2.83307 4.15628 0
M  V30 2501 H 249.007 -1.81654 5.58816 0
M  V30 2502 H 250.531 -2.73968 5.45687 0
M  V30 2503 H 251.945 -0.482687 5.71264 0
M  V30 2504 H 250.342 0.256199 5.99553 0
M  V30 2505 H 251.412 0.938174 4.75738 0
M  V30 2506 N 252.755 -1.56801 0.158532 0
M  V30 2507 C 254.003 -1.96102 -0.488712 0
M  V30 2508 C 254.324 -1.04498 -1.64636 0
M  V30 2509 O 253.594 -0.108783 -1.95598 0
M  V30 2510 H 252.174 -0.724102 -0.183535 0
M  V30 2511 H 254.836 -1.93457 0.236728 0
M  V30 2512 H 253.932 -3.00097 -0.857219 0
M  V30 2513 N 254.233 0.115231 -1.57178 0
M  V30 2514 C 255.458 0.840354 -1.89612 0
M  V30 2515 C 255.883 1.72464 -0.750845 0
M  V30 2516 O 255.241 1.78826 0.298478 0
M  V30 2517 C 255.289 1.64654 -3.20814 0
M  V30 2518 O 254.393 2.7538 -3.06985 0
M  V30 2519 H 253.734 0.232158 -0.622092 0
M  V30 2520 H 256.264 0.0964977 -2.04372 0
M  V30 2521 H 256.274 2.03499 -3.53627 0
M  V30 2522 H 254.949 0.997416 -4.03763 0
M  V30 2523 H 253.526 2.3971 -2.85646 0
M  V30 2524 N 255.711 1.52812 0.385517 0
M  V30 2525 C 256.641 1.80808 1.47752 0
M  V30 2526 C 257.622 0.660318 1.5676 0
M  V30 2527 O 258.807 0.908246 1.71652 0
M  V30 2528 C 255.937 1.98008 2.85324 0
M  V30 2529 C 254.891 3.13709 2.91154 0
M  V30 2530 C 254.217 3.16169 4.31209 0
M  V30 2531 C 255.517 4.52709 2.60483 0
M  V30 2532 H 257.211 2.72253 1.24573 0
M  V30 2533 H 254.757 1.31003 0.597839 0
M  V30 2534 H 256.71 2.16176 3.61726 0
M  V30 2535 H 255.434 1.03255 3.09848 0
M  V30 2536 H 254.093 2.95329 2.17201 0
M  V30 2537 H 253.741 2.19092 4.52778 0
M  V30 2538 H 253.441 3.93894 4.36029 0
M  V30 2539 H 254.965 3.36496 5.09512 0
M  V30 2540 H 256.379 4.71173 3.26602 0
M  V30 2541 H 254.776 5.32528 2.76648 0
M  V30 2542 H 255.846 4.59186 1.55809 0
M  V30 2543 N 257.189 -0.644168 1.43834 0
M  V30 2544 C 258.466 -1.40188 1.36406 0
M  V30 2545 C 258.846 -2.11094 0.0163124 0
M  V30 2546 O 258.194 -2.05426 -1.00062 0
M  V30 2547 C 258.404 -2.3791 2.55343 0
M  V30 2548 C 259.752 -3.01637 2.98832 0
M  V30 2549 O 260.776 -2.48237 2.55455 0
M  V30 2550 O 259.635 -3.98477 3.74003 0
M  V30 2551 H 256.729 -0.626773 0.539523 0
M  V30 2552 H 259.275 -0.670317 1.559 0
M  V30 2553 H 258.047 -1.84525 3.4506 0
M  V30 2554 H 257.67 -3.18503 2.37995 0
M  V30 2555 N 258.668 -1.30515 -0.883378 0
M  V30 2556 C 259.916 -1.19194 -1.63209 0
M  V30 2557 C 260.237 0.253205 -1.93349 0
M  V30 2558 O 259.507 1.17025 -1.57105 0
M  V30 2559 H 258.087 -0.438148 -0.605009 0
M  V30 2560 H 260.749 -1.63663 -1.05832 0
M  V30 2561 H 259.845 -1.75396 -2.58153 0
M  V30 2562 N 260.146 1.09593 -1.13257 0
M  V30 2563 C 261.076 2.18214 -0.830946 0
M  V30 2564 C 262.057 1.68812 0.208966 0
M  V30 2565 O 263.242 1.9408 0.0682666 0
M  V30 2566 C 260.372 3.46051 -0.294296 0
M  V30 2567 C 259.326 4.08778 -1.26826 0
M  V30 2568 C 258.652 5.31419 -0.591449 0
M  V30 2569 C 259.952 4.51476 -2.62615 0
M  V30 2570 H 261.646 2.43703 -1.73923 0
M  V30 2571 H 259.192 1.17128 -0.837675 0
M  V30 2572 H 261.145 4.2134 -0.0709606 0
M  V30 2573 H 259.869 3.20079 0.649366 0
M  V30 2574 H 258.528 3.35505 -1.47756 0
M  V30 2575 H 258.176 5.01727 0.357633 0
M  V30 2576 H 257.876 5.74341 -1.24123 0
M  V30 2577 H 259.4 6.09433 -0.377355 0
M  V30 2578 H 260.814 5.17999 -2.45663 0
M  V30 2579 H 259.211 5.05277 -3.23752 0
M  V30 2580 H 260.281 3.63962 -3.20406 0
M  V30 2581 N 261.624 0.925811 1.2754 0
M  V30 2582 C 262.852 0.581509 1.9856 0
M  V30 2583 C 263.267 -0.840041 1.69082 0
M  V30 2584 O 262.624 -1.55805 0.950312 0
M  V30 2585 C 262.675 0.795589 3.52637 0
M  V30 2586 O 262.396 2.16121 3.81082 0
M  V30 2587 C 263.897 0.459744 4.4091 0
M  V30 2588 H 261.117 0.220538 0.633722 0
M  V30 2589 H 263.661 1.24232 1.6244 0
M  V30 2590 H 261.816 0.18161 3.86974 0
M  V30 2591 H 262.23 2.2098 4.75676 0
M  V30 2592 H 263.704 0.660244 5.48037 0
M  V30 2593 H 264.181 -0.604625 4.35018 0
M  V30 2594 H 264.787 1.05178 4.12089 0
M  V30 2595 N 263.102 -1.41638 0.69111 0
M  V30 2596 C 264.348 -2.01598 0.220519 0
M  V30 2597 C 264.681 -1.54594 -1.17535 0
M  V30 2598 O 263.956 -0.755177 -1.79241 0
M  V30 2599 C 264.239 -3.59062 0.273243 0
M  V30 2600 C 264.092 -4.16203 1.70573 0
M  V30 2601 C 265.411 -4.38546 -0.369457 0
M  V30 2602 H 262.53 -0.732468 0.0816045 0
M  V30 2603 H 265.172 -1.68445 0.878986 0
M  V30 2604 H 263.322 -3.87435 -0.287411 0
M  V30 2605 H 264.994 -3.98722 2.31989 0
M  V30 2606 H 263.237 -3.71414 2.2413 0
M  V30 2607 H 263.908 -5.25358 1.69419 0
M  V30 2608 H 266.384 -4.1596 0.107977 0
M  V30 2609 H 265.26 -5.48069 -0.302002 0
M  V30 2610 H 265.521 -4.17662 -1.44951 0
M  V30 2611 N 264.58 -0.43555 -1.51462 0
M  V30 2612 C 265.51 0.367376 -2.30592 0
M  V30 2613 C 266.491 1.02263 -1.35928 0
M  V30 2614 O 267.676 1.02661 -1.64847 0
M  V30 2615 C 264.806 1.46983 -3.14664 0
M  V30 2616 C 263.76 0.938161 -4.17591 0
M  V30 2617 C 263.086 2.13622 -4.90173 0
M  V30 2618 C 264.386 -0.0261621 -5.22293 0
M  V30 2619 H 266.08 -0.292969 -2.97963 0
M  V30 2620 H 263.626 -0.14234 -1.43295 0
M  V30 2621 H 265.579 2.03873 -3.688 0
M  V30 2622 H 264.303 2.15843 -2.4511 0
M  V30 2623 H 262.962 0.391481 -3.64504 0
M  V30 2624 H 262.61 2.81098 -4.17124 0
M  V30 2625 H 262.31 1.78688 -5.59772 0
M  V30 2626 H 263.834 2.7107 -5.47132 0
M  V30 2627 H 265.248 0.452384 -5.71512 0
M  V30 2628 H 263.645 -0.287992 -5.99409 0
M  V30 2629 H 264.715 -0.963391 -4.75233 0
M  V30 2630 N 266.058 1.56714 -0.166846 0
M  V30 2631 C 267.304 1.97039 0.479962 0
M  V30 2632 C 267.637 1.05264 1.63197 0
M  V30 2633 O 266.912 0.0988833 1.94248 0
M  V30 2634 C 267.195 3.46867 0.967212 0
M  V30 2635 C 267.048 4.49421 -0.18466 0
M  V30 2636 C 268.367 3.9968 1.84238 0
M  V30 2637 H 265.486 0.71641 0.172992 0
M  V30 2638 H 268.128 1.8832 -0.252079 0
M  V30 2639 H 266.278 3.54428 1.59101 0
M  V30 2640 H 267.95 4.53924 -0.821621 0
M  V30 2641 H 266.193 4.25573 -0.840837 0
M  V30 2642 H 266.864 5.51644 0.198317 0
M  V30 2643 H 269.34 3.94723 1.31655 0
M  V30 2644 H 268.216 5.04941 2.15234 0
M  V30 2645 H 268.477 3.43226 2.78654 0
M  V30 2646 N 267.536 -0.106894 1.57237 0
M  V30 2647 C 268.468 -1.15646 1.97885 0
M  V30 2648 C 269.481 -1.36981 0.879779 0
M  V30 2649 O 270.67 -1.35841 1.15799 0
M  V30 2650 C 267.77 -2.51425 2.27241 0
M  V30 2651 C 266.943 -2.50529 3.58545 0
M  V30 2652 C 266.002 -3.68145 3.75973 0
M  V30 2653 O 265.028 -3.51176 4.47956 0
M  V30 2654 N 266.23 -4.87177 3.15656 0
M  V30 2655 H 268.995 -0.81059 2.8853 0
M  V30 2656 H 266.556 -0.296024 1.59171 0
M  V30 2657 H 268.548 -3.28689 2.36105 0
M  V30 2658 H 267.118 -2.78147 1.42663 0
M  V30 2659 H 266.338 -1.58894 3.60758 0
M  V30 2660 H 267.626 -2.46997 4.44826 0
M  V30 2661 H 267.024 -5.03868 2.57165 0
M  V30 2662 H 265.581 -5.62075 3.30023 0
M  V30 2663 N 269.014 -1.53014 -0.377408 0
M  V30 2664 C 270.262 -1.6829 -1.11906 0
M  V30 2665 C 270.583 -0.431206 -1.90173 0
M  V30 2666 O 269.853 0.554595 -1.87886 0
M  V30 2667 H 268.433 -0.620371 -0.416112 0
M  V30 2668 H 271.095 -1.90167 -0.426893 0
M  V30 2669 H 270.191 -2.53862 -1.8155 0
M  V30 2670 N 270.492 0.636531 -1.44174 0
M  V30 2671 C 271.422 1.76003 -1.53444 0
M  V30 2672 C 272.403 1.65619 -0.387841 0
M  V30 2673 O 273.588 1.84461 -0.607257 0
M  V30 2674 C 270.718 3.14511 -1.4731 0
M  V30 2675 C 269.672 3.39677 -2.60391 0
M  V30 2676 C 268.998 4.78159 -2.39308 0
M  V30 2677 C 270.298 3.32772 -4.02567 0
M  V30 2678 H 271.992 1.68501 -2.47483 0
M  V30 2679 H 269.538 0.809237 -1.19111 0
M  V30 2680 H 271.491 3.92878 -1.52397 0
M  V30 2681 H 270.215 3.22783 -0.49785 0
M  V30 2682 H 268.874 2.63688 -2.54684 0
M  V30 2683 H 268.522 4.83128 -1.39988 0
M  V30 2684 H 268.222 4.95956 -3.15122 0
M  V30 2685 H 269.746 5.58762 -2.46205 0
M  V30 2686 H 271.16 4.01051 -4.09672 0
M  V30 2687 H 269.557 3.62104 -4.7854 0
M  V30 2688 H 270.627 2.30669 -4.2652 0
M  V30 2689 N 271.97 1.30982 0.876444 0
M  V30 2690 C 273.218 1.20058 1.62575 0
M  V30 2691 C 273.539 -0.242947 1.93481 0
M  V30 2692 O 272.809 -1.1619 1.57724 0
M  V30 2693 H 271.389 0.44135 0.602677 0
M  V30 2694 H 274.051 1.64222 1.04962 0
M  V30 2695 H 273.147 1.76762 2.57219 0
M  V30 2696 N 273.449 -1.08991 1.13837 0
M  V30 2697 C 274.412 -2.13925 0.822715 0
M  V30 2698 C 275.412 -1.599 -0.1699 0
M  V30 2699 O 276.602 -1.74104 0.0577251 0
M  V30 2700 C 273.734 -3.40155 0.225318 0
M  V30 2701 H 274.927 -2.43358 1.75262 0
M  V30 2702 H 272.48 -1.24603 0.943594 0
M  V30 2703 H 273.215 -3.16352 -0.713594 0
M  V30 2704 H 273 -3.80661 0.940193 0
M  V30 2705 H 274.49 -4.17594 0.0214784 0
M  V30 2706 N 274.927 -0.932562 -1.27047 0
M  V30 2707 C 276.173 -0.576412 -1.94436 0
M  V30 2708 C 276.506 0.880891 -1.73072 0
M  V30 2709 O 275.781 1.62905 -1.06264 0
M  V30 2710 C 276.064 -0.909031 -3.48437 0
M  V30 2711 C 275.917 -2.42044 -3.79123 0
M  V30 2712 C 277.236 -0.418341 -4.38107 0
M  V30 2713 H 274.355 -0.210888 -0.706184 0
M  V30 2714 H 276.997 -1.16522 -1.50075 0
M  V30 2715 H 275.147 -0.407947 -3.86352 0
M  V30 2716 H 276.819 -2.99359 -3.50973 0
M  V30 2717 H 275.062 -2.86758 -3.25503 0
M  V30 2718 H 275.733 -2.6037 -4.86736 0
M  V30 2719 H 278.209 -0.847856 -4.0737 0
M  V30 2720 H 277.085 -0.679981 -5.44672 0
M  V30 2721 H 277.346 0.681642 -4.36814 0
M  V30 2722 N 276.405 1.4127 -0.698611 0
M  V30 2723 C 277.653 2.00782 -0.230409 0
M  V30 2724 C 277.974 1.5562 1.17505 0
M  V30 2725 O 277.244 0.78815 1.79346 0
M  V30 2726 H 275.824 0.742464 -0.0821944 0
M  V30 2727 H 278.486 1.72852 -0.90045 0
M  V30 2728 H 277.582 3.11095 -0.25021 0
M  V30 2729 N 277.883 0.443576 1.51229 0
M  V30 2730 C 279.131 -0.120557 2.0174 0
M  V30 2731 C 279.452 -1.42665 1.32935 0
M  V30 2732 O 278.722 -1.9028 0.465866 0
M  V30 2733 H 277.302 -0.0475426 0.745486 0
M  V30 2734 H 279.964 0.587711 1.85828 0
M  V30 2735 H 279.06 -0.291972 3.10731 0
M  V30 2736 N 279.361 -1.56624 0.175154 0
M  V30 2737 C 280.586 -2.01813 -0.478137 0
M  V30 2738 C 281.011 -1.05457 -1.55757 0
M  V30 2739 O 280.369 -0.0347439 -1.81267 0
M  V30 2740 C 280.417 -3.45581 -1.02987 0
M  V30 2741 O 279.521 -3.52305 -2.14371 0
M  V30 2742 H 278.862 -0.65413 -0.114059 0
M  V30 2743 H 281.392 -2.02673 0.280173 0
M  V30 2744 H 281.402 -3.84965 -1.35151 0
M  V30 2745 H 280.077 -4.1521 -0.239556 0
M  V30 2746 H 278.654 -3.24783 -1.83222 0
M  V30 2747 N 280.839 0.0985539 -1.57292 0
M  V30 2748 C 281.769 1.12064 -2.04851 0
M  V30 2749 C 282.75 1.41981 -0.936767 0
M  V30 2750 O 283.935 1.52071 -1.20781 0
M  V30 2751 C 281.065 2.44144 -2.47004 0
M  V30 2752 C 280.019 2.28643 -3.6181 0
M  V30 2753 C 279.345 3.65869 -3.89929 0
M  V30 2754 C 280.645 1.72986 -4.92822 0
M  V30 2755 H 282.339 0.724979 -2.9049 0
M  V30 2756 H 279.885 0.34729 -1.39749 0
M  V30 2757 H 281.838 3.15914 -2.78884 0
M  V30 2758 H 280.562 2.85639 -1.5836 0
M  V30 2759 H 279.221 1.59318 -3.30172 0
M  V30 2760 H 278.869 4.04885 -2.98458 0
M  V30 2761 H 278.569 3.56344 -4.67218 0
M  V30 2762 H 280.093 4.39112 -4.2428 0
M  V30 2763 H 281.507 2.34593 -5.23105 0
M  V30 2764 H 279.904 1.74229 -5.74251 0
M  V30 2765 H 280.974 0.689007 -4.7998 0
M  V30 2766 N 282.317 1.53212 0.369288 0
M  V30 2767 C 283.28 1.7872 1.43498 0
M  V30 2768 C 284.28 0.657554 1.46741 0
M  V30 2769 O 285.47 0.925736 1.47566 0
M  V30 2770 C 282.602 1.90591 2.82645 0
M  V30 2771 H 283.795 2.73894 1.22156 0
M  V30 2772 H 281.348 1.44233 0.602203 0
M  V30 2773 H 282.083 0.974709 3.09306 0
M  V30 2774 H 281.868 2.72751 2.8169 0
M  V30 2775 H 283.358 2.11931 3.59826 0
M  V30 2776 N 283.795 -0.628877 1.44509 0
M  V30 2777 C 285.02 -1.42048 1.5112 0
M  V30 2778 C 285.445 -1.87594 0.137818 0
M  V30 2779 O 284.803 -1.58873 -0.873437 0
M  V30 2780 C 284.851 -2.61541 2.48251 0
M  V30 2781 O 283.955 -3.61453 1.98559 0
M  V30 2782 H 283.296 -0.424942 0.510216 0
M  V30 2783 H 285.826 -0.767374 1.89664 0
M  V30 2784 H 285.836 -3.09057 2.66361 0
M  V30 2785 H 284.511 -2.27736 3.48007 0
M  V30 2786 H 283.088 -3.20731 1.90227 0
M  V30 2787 N 285.273 -1.31445 -0.869486 0
M  V30 2788 C 286.203 -1.21727 -1.99261 0
M  V30 2789 C 287.184 -0.104359 -1.6978 0
M  V30 2790 O 288.369 -0.289038 -1.92037 0
M  V30 2791 C 285.499 -0.924317 -3.34774 0
M  V30 2792 C 284.453 -1.99685 -3.78563 0
M  V30 2793 C 283.779 -1.55658 -5.11541 0
M  V30 2794 C 285.079 -3.41003 -3.95619 0
M  V30 2795 H 286.773 -2.1569 -2.07649 0
M  V30 2796 H 284.319 -1.03839 -0.997675 0
M  V30 2797 H 286.272 -0.842934 -4.12883 0
M  V30 2798 H 284.996 0.0509793 -3.2656 0
M  V30 2799 H 283.655 -2.06813 -3.02694 0
M  V30 2800 H 283.303 -0.569132 -4.9977 0
M  V30 2801 H 283.003 -2.27409 -5.41811 0
M  V30 2802 H 284.527 -1.48928 -5.92159 0
M  V30 2803 H 285.941 -3.36547 -4.64122 0
M  V30 2804 H 284.338 -4.10975 -4.37286 0
M  V30 2805 H 285.408 -3.81754 -2.98985 0
M  V30 2806 N 286.751 1.08385 -1.14413 0
M  V30 2807 C 287.714 2.13486 -0.834048 0
M  V30 2808 C 288.714 1.59988 0.161418 0
M  V30 2809 O 289.904 1.74071 -0.0669575 0
M  V30 2810 C 287.036 3.4003 -0.243354 0
M  V30 2811 H 288.229 2.42425 -1.7655 0
M  V30 2812 H 285.782 1.24101 -0.950189 0
M  V30 2813 H 286.517 3.16726 0.696807 0
M  V30 2814 H 286.302 3.80157 -0.960367 0
M  V30 2815 H 287.792 4.17577 -0.0436242 0
M  V30 2816 N 288.23 0.939286 1.26551 0
M  V30 2817 C 289.193 0.451987 2.24699 0
M  V30 2818 C 290.193 -0.435869 1.5478 0
M  V30 2819 O 291.383 -0.235314 1.72603 0
M  V30 2820 C 288.515 -0.348801 3.39111 0
M  V30 2821 H 289.708 1.3193 2.69322 0
M  V30 2822 H 287.261 0.721072 1.38673 0
M  V30 2823 H 287.996 -1.23444 2.99887 0
M  V30 2824 H 287.781 0.287945 3.91041 0
M  V30 2825 H 289.271 -0.679726 4.12031 0
M  V30 2826 N 289.708 -1.40897 0.706093 0
M  V30 2827 C 290.618 -2.3455 0.0482286 0
M  V30 2828 C 291.634 -1.56796 -0.754396 0
M  V30 2829 O 292.81 -1.89228 -0.689538 0
M  V30 2830 C 289.875 -3.35625 -0.869303 0
M  V30 2831 C 288.936 -4.29261 -0.0576994 0
M  V30 2832 C 288.169 -5.25508 -0.931531 0
M  V30 2833 O 288.392 -5.27472 -2.17092 0
M  V30 2834 O 287.326 -6.00727 -0.375587 0
M  V30 2835 H 291.152 -2.92407 0.820476 0
M  V30 2836 H 288.737 -1.4193 0.4665 0
M  V30 2837 H 290.619 -3.97635 -1.39514 0
M  V30 2838 H 289.294 -2.80196 -1.62086 0
M  V30 2839 H 288.201 -3.70566 0.512988 0
M  V30 2840 H 289.534 -4.87817 0.655426 0
M  V30 2841 N 291.186 -0.45159 -1.50991 0
M  V30 2842 C 292.149 0.341117 -2.26647 0
M  V30 2843 C 293.149 0.937422 -1.30649 0
M  V30 2844 O 294.339 0.809644 -1.54241 0
M  V30 2845 C 291.471 1.48398 -3.06905 0
M  V30 2846 H 292.664 -0.322117 -2.98165 0
M  V30 2847 H 290.217 -0.205122 -1.54948 0
M  V30 2848 H 290.952 2.18284 -2.39838 0
M  V30 2849 H 290.737 1.06241 -3.77432 0
M  V30 2850 H 292.227 2.04367 -3.64176 0
M  V30 2851 N 292.664 1.56529 -0.183458 0
M  V30 2852 C 293.912 1.96855 0.457452 0
M  V30 2853 C 294.233 1.07104 1.62953 0
M  V30 2854 O 293.503 0.139887 1.954 0
M  V30 2855 H 292.083 0.72693 0.171992 0
M  V30 2856 H 294.745 1.93056 -0.267476 0
M  V30 2857 H 293.841 3.01423 0.809368 0
M  V30 2858 N 294.142 -0.090211 1.57342 0
M  V30 2859 C 295.105 -1.09335 2.01441 0
M  V30 2860 C 296.105 -1.32666 0.908641 0
M  V30 2861 O 297.295 -1.28697 1.174 0
M  V30 2862 C 294.427 -2.44136 2.3793 0
M  V30 2863 H 295.62 -0.713662 2.91285 0
M  V30 2864 H 293.173 -0.335404 1.52659 0
M  V30 2865 H 293.908 -2.86972 1.51055 0
M  V30 2866 H 293.693 -2.28548 3.18603 0
M  V30 2867 H 295.183 -3.16277 2.72688 0
M  V30 2868 N 295.62 -1.53406 -0.361157 0
M  V30 2869 C 296.552 -1.76446 -1.46286 0
M  V30 2870 C 297.565 -0.645322 -1.49464 0
M  V30 2871 O 298.754 -0.921681 -1.52864 0
M  V30 2872 C 295.854 -1.83332 -2.85031 0
M  V30 2873 C 295.027 -3.13033 -3.05498 0
M  V30 2874 C 294.086 -3.11104 -4.24383 0
M  V30 2875 O 293.112 -3.84888 -4.19344 0
M  V30 2876 N 294.314 -2.32234 -5.32022 0
M  V30 2877 H 297.079 -2.71508 -1.26899 0
M  V30 2878 H 294.64 -1.52238 -0.550915 0
M  V30 2879 H 296.632 -1.79514 -3.62708 0
M  V30 2880 H 295.202 -0.955342 -2.97644 0
M  V30 2881 H 294.422 -3.30119 -2.15442 0
M  V30 2882 H 295.71 -3.9874 -3.16044 0
M  V30 2883 H 295.108 -1.71807 -5.38979 0
M  V30 2884 H 293.665 -2.3423 -6.08259 0
M  V30 2885 N 297.098 0.621204 -1.44841 0
M  V30 2886 C 298.028 1.74366 -1.55303 0
M  V30 2887 C 299.009 1.65199 -0.405385 0
M  V30 2888 O 300.194 1.83807 -0.626787 0
M  V30 2889 C 297.324 3.12931 -1.50637 0
M  V30 2890 C 296.278 3.36896 -2.63979 0
M  V30 2891 C 295.604 4.75594 -2.44366 0
M  V30 2892 C 296.904 3.28483 -4.06074 0
M  V30 2893 H 298.598 1.65867 -2.49256 0
M  V30 2894 H 296.144 0.796558 -1.19962 0
M  V30 2895 H 298.097 3.9124 -1.56555 0
M  V30 2896 H 296.821 3.22237 -0.532057 0
M  V30 2897 H 295.48 2.60972 -2.57467 0
M  V30 2898 H 295.128 4.81616 -1.45105 0
M  V30 2899 H 294.828 4.92586 -3.20364 0
M  V30 2900 H 296.352 5.5612 -2.52117 0
M  V30 2901 H 297.766 3.96684 -4.13902 0
M  V30 2902 H 296.163 3.57008 -4.82354 0
M  V30 2903 H 297.233 2.26133 -4.28943 0
M  V30 2904 N 298.576 1.31904 0.862503 0
M  V30 2905 C 299.506 1.22782 1.98612 0
M  V30 2906 C 300.487 0.113362 1.69722 0
M  V30 2907 O 301.672 0.299218 1.91881 0
M  V30 2908 C 298.802 0.942058 3.34279 0
M  V30 2909 C 297.756 2.0169 3.77499 0
M  V30 2910 C 297.082 1.58369 5.10709 0
M  V30 2911 C 298.382 3.43096 3.93805 0
M  V30 2912 H 300.076 2.16788 2.06502 0
M  V30 2913 H 297.622 1.04366 0.992154 0
M  V30 2914 H 299.575 0.864818 4.1243 0
M  V30 2915 H 298.299 -0.0336603 3.26583 0
M  V30 2916 H 296.958 2.08416 3.01593 0
M  V30 2917 H 296.606 0.595628 4.99461 0
M  V30 2918 H 296.306 2.30279 5.40597 0
M  V30 2919 H 297.83 1.52067 5.91361 0
M  V30 2920 H 299.244 3.39003 4.62331 0
M  V30 2921 H 297.641 4.13288 4.35101 0
M  V30 2922 H 298.711 3.83334 2.96957 0
M  V30 2923 N 300.054 -1.07777 1.14986 0
M  V30 2924 C 301.3 -1.80557 0.923422 0
M  V30 2925 C 301.633 -1.86298 -0.548337 0
M  V30 2926 O 300.908 -1.34354 -1.40639 0
M  V30 2927 C 301.191 -3.25839 1.53299 0
M  V30 2928 C 301.044 -3.28269 3.07505 0
M  V30 2929 C 302.363 -4.22991 1.21518 0
M  V30 2930 H 299.482 -0.655493 0.336894 0
M  V30 2931 H 302.124 -1.26144 1.42083 0
M  V30 2932 H 300.274 -3.72306 1.10999 0
M  V30 2933 H 301.946 -2.90079 3.58681 0
M  V30 2934 H 300.189 -2.67355 3.4162 0
M  V30 2935 H 300.86 -4.30691 3.45266 0
M  V30 2936 H 303.336 -3.84894 1.581 0
M  V30 2937 H 302.212 -5.22945 1.66793 0
M  V30 2938 H 302.473 -4.41904 0.131505 0
M  V30 2939 N 301.532 -0.945985 -1.26051 0
M  V30 2940 C 302.495 -0.463897 -2.24456 0
M  V30 2941 C 303.495 0.427655 -1.55009 0
M  V30 2942 O 304.685 0.226157 -1.72726 0
M  V30 2943 C 301.817 0.330812 -3.39291 0
M  V30 2944 H 303.01 -1.33357 -2.68619 0
M  V30 2945 H 300.563 -0.728416 -1.38289 0
M  V30 2946 H 301.298 1.21852 -3.00537 0
M  V30 2947 H 301.083 -0.308679 -3.90883 0
M  V30 2948 H 302.573 0.657865 -4.12386 0
M  V30 2949 N 303.011 1.40521 -0.713556 0
M  V30 2950 C 304.288 1.94775 -0.17943 0
M  V30 2951 C 304.668 1.65184 1.31444 0
M  V30 2952 O 304.016 0.968429 2.06963 0
M  V30 2953 C 304.226 3.45543 -0.489986 0
M  V30 2954 C 305.574 4.22442 -0.427536 0
M  V30 2955 O 306.598 3.53644 -0.425929 0
M  V30 2956 O 305.457 5.4501 -0.403292 0
M  V30 2957 H 302.551 0.826606 -0.0255192 0
M  V30 2958 H 305.097 1.5014 -0.790949 0
M  V30 2959 H 303.869 3.60432 -1.5233 0
M  V30 2960 H 303.492 3.97311 0.151598 0
M  V30 2961 N 304.489 0.459591 1.5075 0
M  V30 2962 C 305.717 -0.0973749 2.06671 0
M  V30 2963 C 306.132 -1.34524 1.32472 0
M  V30 2964 O 305.489 -1.7827 0.390634 0
M  V30 2965 C 305.54 -0.39714 3.59312 0
M  V30 2966 O 305.261 0.801214 4.30711 0
M  V30 2967 C 306.762 -1.00234 4.31819 0
M  V30 2968 H 303.982 0.00195854 0.670997 0
M  V30 2969 H 306.526 0.645072 1.94059 0
M  V30 2970 H 304.681 -1.08951 3.71764 0
M  V30 2971 H 305.095 0.538857 5.21725 0
M  V30 2972 H 306.569 -1.16193 5.39632 0
M  V30 2973 H 307.046 -1.98939 3.91561 0
M  V30 2974 H 307.652 -0.348699 4.23868 0
M  V30 2975 N 305.967 -1.56429 0.191757 0
M  V30 2976 C 307.244 -1.89224 -0.495332 0
M  V30 2977 C 307.624 -1.10478 -1.79883 0
M  V30 2978 O 306.972 -0.204852 -2.2758 0
M  V30 2979 C 307.182 -3.41548 -0.717367 0
M  V30 2980 C 308.53 -4.11711 -1.03823 0
M  V30 2981 O 309.554 -3.4698 -0.805204 0
M  V30 2982 O 308.413 -5.2611 -1.47887 0
M  V30 2983 H 305.507 -0.785788 -0.25781 0
M  V30 2984 H 308.053 -1.68111 0.231721 0
M  V30 2985 H 306.825 -3.90772 0.203287 0
M  V30 2986 H 306.448 -3.68342 -1.497 0
M  V30 2987 N 307.445 0.0818655 -1.57387 0
M  V30 2988 C 308.673 0.796108 -1.9097 0
M  V30 2989 C 309.088 1.71626 -0.786757 0
M  V30 2990 O 308.445 1.80908 0.240513 0
M  V30 2991 C 308.496 1.59829 -3.24248 0
M  V30 2992 O 308.217 0.715131 -4.32224 0
M  V30 2993 C 309.718 2.41442 -3.7178 0
M  V30 2994 H 306.938 0.22691 -0.631469 0
M  V30 2995 H 309.482 0.0551439 -2.04426 0
M  V30 2996 H 307.637 2.29163 -3.12351 0
M  V30 2997 H 308.051 1.27205 -5.08841 0
M  V30 2998 H 309.525 2.932 -4.67694 0
M  V30 2999 H 310.002 3.2051 -3.00283 0
M  V30 3000 H 310.608 1.77283 -3.86589 0
M  V30 3001 N 308.923 1.53595 0.353017 0
M  V30 3002 C 309.833 1.83897 1.45667 0
M  V30 3003 C 310.849 0.728334 1.58023 0
M  V30 3004 O 312.025 1.01968 1.73679 0
M  V30 3005 C 309.09 2.03383 2.80778 0
M  V30 3006 C 308.151 3.27262 2.77845 0
M  V30 3007 C 307.384 3.45809 4.06512 0
M  V30 3008 O 307.607 2.68387 5.03314 0
M  V30 3009 O 306.541 4.39207 4.11559 0
M  V30 3010 H 310.367 2.77686 1.2298 0
M  V30 3011 H 307.952 1.39132 0.544308 0
M  V30 3012 H 309.834 2.17698 3.60812 0
M  V30 3013 H 308.509 1.12783 3.03417 0
M  V30 3014 H 307.416 3.18359 1.96465 0
M  V30 3015 H 308.749 4.17824 2.60161 0
M  V30 3016 N 310.401 -0.613514 1.45168 0
M  V30 3017 C 311.817 -0.933629 1.29443 0
M  V30 3018 C 312.017 -2.00028 0.243101 0
M  V30 3019 O 311.073 -2.49848 -0.364992 0
M  V30 3020 C 312.386 -1.38018 2.67155 0
M  V30 3021 C 313.934 -1.49471 2.75004 0
M  V30 3022 C 314.409 -1.97503 4.13227 0
M  V30 3023 N 315.9 -2.04746 4.15491 0
M  V30 3024 C 316.635 -2.43121 5.19307 0
M  V30 3025 N 316.131 -2.80506 6.33473 0
M  V30 3026 N 317.924 -2.43408 5.06664 0
M  V30 3027 H 310.075 0.0916097 2.12202 0
M  V30 3028 H 312.338 -0.0216655 0.947752 0
M  V30 3029 H 312.044 -0.670625 3.45247 0
M  V30 3030 H 311.918 -2.34784 2.95222 0
M  V30 3031 H 314.305 -2.19519 1.9722 0
M  V30 3032 H 314.386 -0.510342 2.50657 0
M  V30 3033 H 314.03 -1.28045 4.91495 0
M  V30 3034 H 313.96 -2.96843 4.34962 0
M  V30 3035 H 316.451 -1.78468 3.33103 0
M  V30 3036 H 316.764 -3.08652 7.08487 0
M  V30 3037 H 315.109 -2.78216 6.36884 0
M  V30 3038 H 318.3 -2.13604 4.16523 0
M  V30 3039 H 318.473 -2.72989 5.87691 0
M  V30 3040 N 311.879 -1.3236 -0.855495 0
M  V30 3041 C 313.125 -1.23054 -1.612 0
M  V30 3042 C 313.458 0.207404 -1.93089 0
M  V30 3043 O 312.733 1.14432 -1.57275 0
M  V30 3044 C 313.016 -2.08937 -2.93287 0
M  V30 3045 C 312.869 -3.61105 -2.68185 0
M  V30 3046 C 314.188 -1.94986 -3.94549 0
M  V30 3047 H 311.307 -0.448364 -0.584926 0
M  V30 3048 H 313.949 -1.62297 -0.987917 0
M  V30 3049 H 312.099 -1.75599 -3.46551 0
M  V30 3050 H 313.771 -4.04652 -2.21483 0
M  V30 3051 H 312.014 -3.83813 -2.02164 0
M  V30 3052 H 312.685 -4.16522 -3.62234 0
M  V30 3053 H 315.161 -2.24189 -3.5054 0
M  V30 3054 H 314.037 -2.57356 -4.84829 0
M  V30 3055 H 314.298 -0.917263 -4.3248 0
M  V30 3056 N 313.357 1.07166 -1.15556 0
M  V30 3057 C 314.32 2.12589 -0.856644 0
M  V30 3058 C 315.32 1.6015 0.14444 0
M  V30 3059 O 316.51 1.7399 -0.0854163 0
M  V30 3060 C 313.642 3.39753 -0.279405 0
M  V30 3061 H 314.835 2.40539 -1.79112 0
M  V30 3062 H 312.388 1.23086 -0.963298 0
M  V30 3063 H 313.123 3.17447 0.663174 0
M  V30 3064 H 312.908 3.79117 -1.00063 0
M  V30 3065 H 314.398 4.17507 -0.0879113 0
M  V30 3066 N 314.835 0.952656 1.25548 0
M  V30 3067 C 315.785 0.442033 2.23674 0
M  V30 3068 C 316.769 -0.467632 1.53955 0
M  V30 3069 O 317.961 -0.301006 1.74422 0
M  V30 3070 C 315.09 -0.280816 3.4215 0
M  V30 3071 C 314.176 0.646803 4.19139 0
M  V30 3072 N 314.567 1.77759 4.73535 0
M  V30 3073 C 312.865 0.454617 4.43677 0
M  V30 3074 C 313.566 2.35658 5.31827 0
M  V30 3075 N 312.542 1.64333 5.18166 0
M  V30 3076 H 316.344 1.30505 2.63336 0
M  V30 3077 H 313.858 0.809904 1.40763 0
M  V30 3078 H 315.855 -0.663747 4.11582 0
M  V30 3079 H 314.515 -1.14046 3.04012 0
M  V30 3080 H 315.526 2.15949 4.7073 0
M  V30 3081 H 312.203 -0.362312 4.15925 0
M  V30 3082 H 313.593 3.30998 5.84713 0
M  V30 3083 N 316.313 -1.40141 0.720998 0
M  V30 3084 C 317.276 -2.29058 0.0805834 0
M  V30 3085 C 318.276 -1.45632 -0.681758 0
M  V30 3086 O 319.466 -1.6648 -0.512856 0
M  V30 3087 C 316.598 -3.28925 -0.895593 0
M  V30 3088 H 317.791 -2.87191 0.863793 0
M  V30 3089 H 315.344 -1.48553 0.485975 0
M  V30 3090 H 316.079 -2.75822 -1.70566 0
M  V30 3091 H 315.864 -3.90519 -0.351766 0
M  V30 3092 H 317.354 -3.95494 -1.34069 0
M  V30 3093 N 317.792 -0.46758 -1.50504 0
M  V30 3094 C 319.038 0.0887532 -2.02606 0
M  V30 3095 C 319.371 1.39686 -1.34913 0
M  V30 3096 O 318.646 1.88644 -0.473694 0
M  V30 3097 C 318.929 0.276206 -3.59039 0
M  V30 3098 C 318.782 -1.05267 -4.37309 0
M  V30 3099 C 320.101 1.03235 -4.27821 0
M  V30 3100 H 317.22 0.0307814 -0.736357 0
M  V30 3101 H 319.862 -0.612485 -1.79857 0
M  V30 3102 H 318.012 0.8735 -3.78553 0
M  V30 3103 H 319.684 -1.68628 -4.29374 0
M  V30 3104 H 317.927 -1.65015 -4.01189 0
M  V30 3105 H 318.598 -0.875197 -5.45018 0
M  V30 3106 H 321.074 0.526111 -4.12761 0
M  V30 3107 H 319.95 1.1323 -5.37094 0
M  V30 3108 H 320.211 2.06806 -3.90748 0
M  V30 3109 N 319.27 1.56325 -0.20005 0
M  V30 3110 C 320.233 2.18084 0.705132 0
M  V30 3111 C 321.233 1.13666 1.1374 0
M  V30 3112 O 322.423 1.39023 1.04968 0
M  V30 3113 C 319.555 2.78689 1.96329 0
M  V30 3114 H 320.748 2.99435 0.167023 0
M  V30 3115 H 318.301 1.56221 0.0495725 0
M  V30 3116 H 319.036 2.0115 2.5438 0
M  V30 3117 H 318.821 3.55133 1.66202 0
M  V30 3118 H 320.311 3.26096 2.60866 0
M  V30 3119 N 320.748 -0.0735177 1.57428 0
M  V30 3120 C 321.678 -1.0879 2.06608 0
M  V30 3121 C 322.659 -1.40473 0.959237 0
M  V30 3122 O 323.844 -1.5013 1.23185 0
M  V30 3123 C 320.974 -2.40183 2.50857 0
M  V30 3124 C 319.928 -2.22858 3.65402 0
M  V30 3125 C 319.254 -3.59619 3.957 0
M  V30 3126 C 320.554 -1.65123 4.95511 0
M  V30 3127 H 322.248 -0.678673 2.91607 0
M  V30 3128 H 319.794 -0.325013 1.40284 0
M  V30 3129 H 321.747 -3.11437 2.83874 0
M  V30 3130 H 320.471 -2.83083 1.62885 0
M  V30 3131 H 319.13 -1.54045 3.32664 0
M  V30 3132 H 318.778 -4.00086 3.04861 0
M  V30 3133 H 318.478 -3.48866 4.72828 0
M  V30 3134 H 320.002 -4.32306 4.31212 0
M  V30 3135 H 321.416 -2.26241 5.26771 0
M  V30 3136 H 319.813 -1.65071 5.7695 0
M  V30 3137 H 320.883 -0.612559 4.81015 0
M  V30 3138 N 322.226 -1.5378 -0.344866 0
M  V30 3139 C 323.474 -1.70625 -1.08311 0
M  V30 3140 C 323.795 -0.471447 -1.89215 0
M  V30 3141 O 323.065 0.514616 -1.8902 0
M  V30 3142 H 321.645 -0.629058 -0.402859 0
M  V30 3143 H 324.307 -1.9103 -0.386459 0
M  V30 3144 H 323.403 -2.57656 -1.76124 0
M  V30 3145 N 323.704 0.605807 -1.45491 0
M  V30 3146 C 324.654 1.71074 -1.50724 0
M  V30 3147 C 325.638 1.5658 -0.37033 0
M  V30 3148 O 326.83 1.65887 -0.617299 0
M  V30 3149 C 323.959 3.0983 -1.47852 0
M  V30 3150 C 323.045 3.29704 -2.66751 0
M  V30 3151 N 323.436 3.19831 -3.91844 0
M  V30 3152 C 321.734 3.60579 -2.62486 0
M  V30 3153 C 322.435 3.41083 -4.71208 0
M  V30 3154 N 321.411 3.65157 -4.02693 0
M  V30 3155 H 325.213 1.61937 -2.45263 0
M  V30 3156 H 322.727 0.80912 -1.40808 0
M  V30 3157 H 324.724 3.89101 -1.49686 0
M  V30 3158 H 323.384 3.20115 -0.543714 0
M  V30 3159 H 324.395 2.98194 -4.23439 0
M  V30 3160 H 321.072 3.7769 -1.77922 0
M  V30 3161 H 322.462 3.38828 -5.80211 0
M  V30 3162 N 325.182 1.32811 0.848464 0
M  V30 3163 C 326.41 1.26739 1.63538 0
M  V30 3164 C 326.825 -0.163484 1.88091 0
M  V30 3165 O 326.182 -1.10258 1.45429 0
M  V30 3166 C 326.233 2.03013 2.99112 0
M  V30 3167 O 325.954 3.40518 2.75643 0
M  V30 3168 C 327.455 2.04038 3.93552 0
M  V30 3169 H 324.675 0.437024 0.509167 0
M  V30 3170 H 327.219 1.75033 1.05753 0
M  V30 3171 H 325.374 1.58426 3.53525 0
M  V30 3172 H 325.788 3.79635 3.61908 0
M  V30 3173 H 327.262 2.61877 4.85926 0
M  V30 3174 H 327.739 1.0282 4.26995 0
M  V30 3175 H 328.345 2.486 3.45077 0
M  V30 3176 N 326.66 -1.06551 1.16123 0
M  V30 3177 C 327.623 -2.12132 0.867906 0
M  V30 3178 C 328.623 -1.60224 -0.135944 0
M  V30 3179 O 329.813 -1.73943 0.0946422 0
M  V30 3180 C 326.945 -3.396 0.297419 0
M  V30 3181 H 328.138 -2.39586 1.80385 0
M  V30 3182 H 325.691 -1.22574 0.969812 0
M  V30 3183 H 326.426 -3.17794 -0.64633 0
M  V30 3184 H 326.211 -3.78581 1.02073 0
M  V30 3185 H 327.701 -4.17455 0.110052 0
M  V30 3186 N 328.138 -0.959301 -1.25041 0
M  V30 3187 C 329.384 -0.617525 -1.9317 0
M  V30 3188 C 329.717 0.843981 -1.74902 0
M  V30 3189 O 328.992 1.60615 -1.09696 0
M  V30 3190 C 329.275 -0.982736 -3.46431 0
M  V30 3191 C 329.128 -2.50032 -3.73904 0
M  V30 3192 C 330.447 -0.511176 -4.37121 0
M  V30 3193 H 327.566 -0.22582 -0.701552 0
M  V30 3194 H 330.208 -1.19679 -1.4757 0
M  V30 3195 H 328.358 -0.489806 -3.854 0
M  V30 3196 H 330.03 -3.06737 -3.44544 0
M  V30 3197 H 328.273 -2.93598 -3.19348 0
M  V30 3198 H 328.944 -2.70635 -4.81103 0
M  V30 3199 H 331.42 -0.934075 -4.0548 0
M  V30 3200 H 330.296 -0.795361 -5.43107 0
M  V30 3201 H 330.557 0.588834 -4.38161 0
M  V30 3202 N 329.616 1.39756 -0.72842 0
M  V30 3203 C 330.579 2.29012 -0.0927297 0
M  V30 3204 C 331.579 1.45992 0.674025 0
M  V30 3205 O 332.769 1.66749 0.50402 0
M  V30 3206 C 329.901 3.29396 0.878137 0
M  V30 3207 H 331.094 2.86729 -0.879011 0
M  V30 3208 H 328.647 1.48293 -0.493847 0
M  V30 3209 H 329.382 2.76722 1.69101 0
M  V30 3210 H 329.167 3.907 0.331051 0
M  V30 3211 H 330.657 3.96199 1.3197 0
M  V30 3212 N 331.094 0.475555 1.50254 0
M  V30 3213 C 332.024 -0.30611 2.31485 0
M  V30 3214 C 333.005 -0.986228 1.38591 0
M  V30 3215 O 334.19 -0.982541 1.67511 0
M  V30 3216 C 331.32 -1.38588 3.1845 0
M  V30 3217 C 330.274 -0.827115 4.19932 0
M  V30 3218 C 329.6 -2.00551 4.95665 0
M  V30 3219 C 330.9 0.16463 5.2204 0
M  V30 3220 H 332.594 0.371866 2.97082 0
M  V30 3221 H 330.14 0.180282 1.42867 0
M  V30 3222 H 332.093 -1.94023 3.74076 0
M  V30 3223 H 330.817 -2.09269 2.50747 0
M  V30 3224 H 329.476 -0.294702 3.65414 0
M  V30 3225 H 329.124 -2.6994 4.2443 0
M  V30 3226 H 328.824 -1.63784 5.64313 0
M  V30 3227 H 330.348 -2.56468 5.54127 0
M  V30 3228 H 331.762 -0.300699 5.72511 0
M  V30 3229 H 330.159 0.446813 5.98434 0
M  V30 3230 H 331.229 1.08905 4.72512 0
M  V30 3231 N 332.573 -1.56217 0.208337 0
M  V30 3232 C 333.483 -2.23316 -0.718836 0
M  V30 3233 C 334.499 -1.23648 -1.22422 0
M  V30 3234 O 335.675 -1.56423 -1.26861 0
M  V30 3235 C 332.74 -2.88968 -1.91568 0
M  V30 3236 C 331.801 -4.03943 -1.45357 0
M  V30 3237 C 331.034 -4.66455 -2.59337 0
M  V30 3238 O 331.257 -4.27919 -3.77149 0
M  V30 3239 O 330.191 -5.55686 -2.31293 0
M  V30 3240 H 334.017 -3.03182 -0.177315 0
M  V30 3241 H 331.602 -1.49384 -0.0215402 0
M  V30 3242 H 333.484 -3.30455 -2.61491 0
M  V30 3243 H 332.159 -2.12071 -2.44556 0
M  V30 3244 H 331.066 -3.67052 -0.722746 0
M  V30 3245 H 332.399 -4.82543 -0.970219 0
M  V30 3246 N 334.051 0.0651679 -1.57465 0
M  V30 3247 C 335.328 0.79644 -1.78651 0
M  V30 3248 C 335.708 1.95454 -0.797566 0
M  V30 3249 O 335.056 2.27882 0.167946 0
M  V30 3250 C 335.266 1.26322 -3.25337 0
M  V30 3251 C 336.614 1.6939 -3.89348 0
M  V30 3252 O 337.638 1.35872 -3.29268 0
M  V30 3253 O 336.497 2.31471 -4.95059 0
M  V30 3254 H 333.591 0.382157 -0.733407 0
M  V30 3255 H 336.137 0.0447311 -1.69641 0
M  V30 3256 H 334.909 0.434859 -3.88876 0
M  V30 3257 H 334.532 2.07604 -3.39096 0
M  V30 3258 N 335.529 1.53961 0.336706 0
M  V30 3259 C 336.775 1.7179 1.07777 0
M  V30 3260 C 337.108 0.483263 1.88091 0
M  V30 3261 O 336.383 -0.519747 1.87427 0
M  V30 3262 C 336.666 2.98558 2.01334 0
M  V30 3263 C 336.519 4.32245 1.24437 0
M  V30 3264 C 337.838 3.21023 3.01052 0
M  V30 3265 H 334.957 0.625089 0.390426 0
M  V30 3266 H 337.599 1.86641 0.35567 0
M  V30 3267 H 335.749 2.86028 2.62908 0
M  V30 3268 H 337.421 4.56637 0.654243 0
M  V30 3269 H 335.664 4.30344 0.546458 0
M  V30 3270 H 336.335 5.17137 1.93063 0
M  V30 3271 H 338.811 3.32929 2.49595 0
M  V30 3272 H 337.687 4.11104 3.6371 0
M  V30 3273 H 337.948 2.37637 3.72802 0
M  V30 3274 N 337.007 -0.598083 1.45811 0
M  V30 3275 C 337.937 -1.71873 1.58057 0
M  V30 3276 C 338.918 -1.64533 0.431615 0
M  V30 3277 O 340.103 -1.82787 0.65595 0
M  V30 3278 C 337.233 -3.10495 1.55597 0
M  V30 3279 C 336.187 -3.32654 2.69305 0
M  V30 3280 C 335.513 -4.71646 2.51902 0
M  V30 3281 C 336.813 -3.21981 4.11248 0
M  V30 3282 H 338.507 -1.61881 2.51863 0
M  V30 3283 H 336.053 -0.777372 1.21214 0
M  V30 3284 H 338.006 -3.88699 1.6276 0
M  V30 3285 H 336.73 -3.2135 0.583255 0
M  V30 3286 H 335.389 -2.56843 2.61586 0
M  V30 3287 H 335.037 -4.79246 1.52748 0
M  V30 3288 H 334.737 -4.87426 3.2816 0
M  V30 3289 H 336.261 -5.52038 2.60933 0
M  V30 3290 H 337.675 -3.90049 4.20161 0
M  V30 3291 H 336.072 -3.49289 4.87972 0
M  V30 3292 H 337.142 -2.1928 4.32486 0
M  V30 3293 N 338.485 -1.33259 -0.841409 0
M  V30 3294 C 339.71 -1.2775 -1.63385 0
M  V30 3295 C 340.135 0.149188 -1.87507 0
M  V30 3296 O 339.493 1.10498 -1.43736 0
M  V30 3297 C 339.541 -2.05571 -2.96265 0
M  V30 3298 O 338.645 -1.41257 -3.87453 0
M  V30 3299 H 337.986 -0.439627 -0.497618 0
M  V30 3300 H 340.516 -1.75782 -1.04699 0
M  V30 3301 H 340.526 -2.16241 -3.45982 0
M  V30 3302 H 339.201 -3.09309 -2.7803 0
M  V30 3303 H 337.778 -1.39217 -3.45938 0
M  V30 3304 N 339.963 1.05934 -1.16686 0
M  V30 3305 C 341.191 1.8249 -0.974929 0
M  V30 3306 C 341.606 1.82679 0.476861 0
M  V30 3307 O 340.963 1.2486 1.33103 0
M  V30 3308 C 341.014 3.28943 -1.49929 0
M  V30 3309 O 340.735 3.28886 -2.89423 0
M  V30 3310 C 342.236 4.22215 -1.35089 0
M  V30 3311 H 339.456 0.575295 -0.345365 0
M  V30 3312 H 342 1.33631 -1.548 0
M  V30 3313 H 340.155 3.751 -0.968423 0
M  V30 3314 H 340.569 4.20493 -3.13506 0
M  V30 3315 H 342.043 5.22987 -1.76603 0
M  V30 3316 H 342.52 4.38195 -0.296935 0
M  V30 3317 H 343.126 3.81907 -1.87155 0
M  V30 3318 N 341.441 0.965919 1.2453 0
M  V30 3319 C 342.852 0.665929 1.7442 0
M  V30 3320 C 343.203 -0.818407 1.78316 0
M  V30 3321 O 342.328 -1.64037 1.41141 0
M  V30 3322 C 342.923 1.20211 3.16757 0
M  V30 3323 C 341.482 0.952059 3.6416 0
M  V30 3324 C 340.629 1.33848 2.42858 0
M  V30 3325 H 343.58 1.14144 1.10258 0
M  V30 3326 H 343.601 0.567544 3.76244 0
M  V30 3327 H 343.113 2.28244 3.13889 0
M  V30 3328 H 341.214 -0.112821 3.72429 0
M  V30 3329 H 341.327 1.59645 4.51719 0
M  V30 3330 H 339.691 0.756864 2.43195 0
M  V30 3331 H 340.474 2.42827 2.42673 0
M  V30 3332 N 342.919 -1.39368 0.735821 0
M  V30 3333 C 344.159 -2.02349 0.288813 0
M  V30 3334 C 344.523 -1.57127 -1.10341 0
M  V30 3335 O 345.724 -2.12312 -1.64854 0
M  V30 3336 C 343.995 -3.55288 0.387986 0
M  V30 3337 S 345.554 -4.38795 0.0209408 0
M  V30 3338 H 342.372 -0.701944 0.113115 0
M  V30 3339 H 344.974 -1.70164 0.962518 0
M  V30 3340 H 343.678 -3.85691 1.40252 0
M  V30 3341 H 343.209 -3.92227 -0.303512 0
M  V30 3342 H 345.224 -4.81595 -1.19503 0
M  V30 3343 N 344.397 -0.483516 -1.5 0
M  V30 3344 C 345.674 0.129337 -1.95172 0
M  V30 3345 C 346.054 1.55802 -1.4244 0
M  V30 3346 O 345.402 2.19625 -0.630649 0
M  V30 3347 C 345.612 0.0599251 -3.48949 0
M  V30 3348 C 346.96 0.242617 -4.23906 0
M  V30 3349 O 347.984 0.135933 -3.55941 0
M  V30 3350 O 346.843 0.459454 -5.44565 0
M  V30 3351 H 343.937 0.104887 -0.820322 0
M  V30 3352 H 346.483 -0.544807 -1.60717 0
M  V30 3353 H 345.255 -0.937079 -3.79914 0
M  V30 3354 H 344.878 0.774984 -3.89974 0
M  V30 3355 N 345.875 1.56104 -0.216619 0
M  V30 3356 C 347.121 1.98466 0.417033 0
M  V30 3357 C 347.454 1.10403 1.59765 0
M  V30 3358 O 346.729 0.160632 1.93836 0
M  V30 3359 C 347.012 3.49769 0.85637 0
M  V30 3360 C 346.865 4.48606 -0.327546 0
M  V30 3361 C 348.184 4.05339 1.7143 0
M  V30 3362 H 345.303 0.721551 0.150112 0
M  V30 3363 H 347.945 1.87423 -0.311864 0
M  V30 3364 H 346.095 3.5931 1.47745 0
M  V30 3365 H 347.767 4.5108 -0.965618 0
M  V30 3366 H 346.01 4.22682 -0.975805 0
M  V30 3367 H 346.681 5.51995 0.0227149 0
M  V30 3368 H 349.157 3.98712 1.19031 0
M  V30 3369 H 348.033 5.11533 1.99061 0
M  V30 3370 H 348.294 3.51918 2.67593 0
M  V30 3371 N 347.353 -0.0568162 1.57498 0
M  V30 3372 C 348.6 -0.753104 1.87975 0
M  V30 3373 C 348.928 -1.76815 0.81035 0
M  V30 3374 O 348.183 -1.94756 -0.19199 0
M  V30 3375 C 348.482 -1.48359 3.25153 0
M  V30 3376 C 348.148 -0.60713 4.46794 0
M  V30 3377 C 346.81 -0.365642 4.79809 0
M  V30 3378 C 349.162 -0.000305978 5.212 0
M  V30 3379 C 346.49 0.491905 5.84634 0
M  V30 3380 C 348.842 0.844781 6.26934 0
M  V30 3381 C 347.506 1.096 6.58441 0
M  V30 3382 H 346.776 -0.27558 0.687849 0
M  V30 3383 H 349.423 -0.0135173 1.91495 0
M  V30 3384 H 347.728 -2.29577 3.17492 0
M  V30 3385 H 349.425 -2.02739 3.45974 0
M  V30 3386 H 346.015 -0.805487 4.20963 0
M  V30 3387 H 350.199 -0.173961 4.95995 0
M  V30 3388 H 345.455 0.695131 6.07436 0
M  V30 3389 H 349.629 1.32165 6.83744 0
M  V30 3390 H 347.256 1.76224 7.39492 0
M  V30 3391 N 348.832 -1.54138 -0.328536 0
M  V30 3392 C 349.795 -1.82462 -1.38709 0
M  V30 3393 C 350.795 -0.696229 -1.44946 0
M  V30 3394 O 351.985 -0.964535 -1.4506 0
M  V30 3395 C 349.117 -1.98018 -2.77492 0
M  V30 3396 H 350.31 -2.77037 -1.14851 0
M  V30 3397 H 347.863 -1.45779 -0.563751 0
M  V30 3398 H 348.598 -1.05637 -3.06613 0
M  V30 3399 H 348.383 -2.80124 -2.74359 0
M  V30 3400 H 349.873 -2.21396 -3.54081 0
M  V30 3401 N 350.31 0.590341 -1.46126 0
M  V30 3402 C 351.721 1.17243 -1.45296 0
M  V30 3403 C 352.072 1.95281 -0.189723 0
M  V30 3404 O 351.197 2.04502 0.707674 0
M  V30 3405 C 351.792 2.13284 -2.6324 0
M  V30 3406 C 350.351 2.66832 -2.65476 0
M  V30 3407 C 349.498 1.42557 -2.3785 0
M  V30 3408 H 352.449 0.378692 -1.54116 0
M  V30 3409 H 352.47 2.96619 -2.38323 0
M  V30 3410 H 351.982 1.56459 -3.55165 0
M  V30 3411 H 350.083 3.27548 -1.77603 0
M  V30 3412 H 350.196 3.10088 -3.65215 0
M  V30 3413 H 348.56 1.72107 -1.87753 0
M  V30 3414 H 349.343 0.875741 -3.31942 0
M  V30 3415 N 351.788 1.33704 0.83433 0
M  V30 3416 C 353.028 1.26754 1.60352 0
M  V30 3417 C 353.392 -0.163182 1.91305 0
M  V30 3418 O 354.593 -0.3567 2.66423 0
M  V30 3419 C 352.864 2.12262 2.8754 0
M  V30 3420 S 354.423 2.22549 3.78176 0
M  V30 3421 H 351.241 0.450879 0.549753 0
M  V30 3422 H 353.843 1.68788 0.986444 0
M  V30 3423 H 352.547 3.15238 2.62779 0
M  V30 3424 H 352.078 1.71082 3.54252 0
M  V30 3425 H 354.093 1.3899 4.76336 0
M  V30 3426 N 353.266 -1.05314 1.17247 0
M  V30 3427 C 354.229 -2.112 0.890357 0
M  V30 3428 C 355.229 -1.60359 -0.118943 0
M  V30 3429 O 356.419 -1.73833 0.113086 0
M  V30 3430 C 353.551 -3.39266 0.333422 0
M  V30 3431 H 354.744 -2.37659 1.82916 0
M  V30 3432 H 352.297 -1.21538 0.982758 0
M  V30 3433 H 353.032 -3.18462 -0.612587 0
M  V30 3434 H 352.817 -3.77477 1.06082 0
M  V30 3435 H 354.307 -4.17315 0.154322 0
M  V30 3436 N 354.744 -0.972509 -1.24016 0
M  V30 3437 C 355.677 -0.45117 -2.23696 0
M  V30 3438 C 356.655 0.477378 -1.55434 0
M  V30 3439 O 357.839 0.407647 -1.84039 0
M  V30 3440 C 354.966 0.34818 -3.36906 0
M  V30 3441 C 354.012 -0.523355 -4.23277 0
M  V30 3442 S 354.845 -1.96647 -4.98087 0
M  V30 3443 C 356.001 -1.17604 -6.14752 0
M  V30 3444 H 356.234 -1.29588 -2.67571 0
M  V30 3445 H 353.767 -0.777903 -1.33372 0
M  V30 3446 H 355.725 0.803387 -4.02562 0
M  V30 3447 H 354.386 1.16792 -2.91579 0
M  V30 3448 H 353.579 0.0906181 -5.03919 0
M  V30 3449 H 353.181 -0.914485 -3.62647 0
M  V30 3450 H 355.473 -0.433434 -6.76112 0
M  V30 3451 H 356.416 -1.95701 -6.8052 0
M  V30 3452 H 356.824 -0.698295 -5.60164 0
M  V30 3453 N 356.222 1.38976 -0.743202 0
M  V30 3454 C 357.47 1.99948 -0.29417 0
M  V30 3455 C 357.791 1.59279 1.12495 0
M  V30 3456 O 357.061 0.844808 1.76748 0
M  V30 3457 H 355.641 0.739473 -0.105774 0
M  V30 3458 H 358.303 1.699 -0.954986 0
M  V30 3459 H 357.399 3.10142 -0.349056 0
M  V30 3460 N 357.7 0.491464 1.49741 0
M  V30 3461 C 358.948 -0.0563141 2.02022 0
M  V30 3462 C 359.269 -1.38363 1.37407 0
M  V30 3463 O 358.539 -1.88702 0.526166 0
M  V30 3464 H 357.119 -0.0238014 0.746621 0
M  V30 3465 H 359.781 0.646533 1.83864 0
M  V30 3466 H 358.877 -0.192967 3.11503 0
M  V30 3467 N 359.178 -1.55987 0.224894 0
M  V30 3468 C 360.424 -1.98684 -0.406502 0
M  V30 3469 C 360.757 -1.11248 -1.59177 0
M  V30 3470 O 360.032 -0.170909 -1.93748 0
M  V30 3471 C 360.315 -3.50218 -0.837808 0
M  V30 3472 C 360.168 -4.48426 0.351332 0
M  V30 3473 C 361.487 -4.06243 -1.69278 0
M  V30 3474 H 358.606 -0.722337 -0.146283 0
M  V30 3475 H 361.248 -1.87255 0.321799 0
M  V30 3476 H 359.398 -3.60089 -1.45837 0
M  V30 3477 H 361.07 -4.50562 0.989526 0
M  V30 3478 H 359.313 -4.22159 0.998207 0
M  V30 3479 H 359.984 -5.52 0.00655905 0
M  V30 3480 H 362.46 -3.99337 -1.16914 0
M  V30 3481 H 361.336 -5.12581 -1.96346 0
M  V30 3482 H 361.597 -3.53332 -2.65723 0
M  V30 3483 N 360.656 0.0484629 -1.57525 0
M  V30 3484 C 361.905 0.742065 -1.87553 0
M  V30 3485 C 362.218 1.77545 -0.820802 0
M  V30 3486 O 363.424 2.52027 -1.00967 0
M  V30 3487 C 361.88 1.37081 -3.32771 0
M  V30 3488 C 361.488 0.374786 -4.4643 0
M  V30 3489 C 363.232 2.04542 -3.71972 0
M  V30 3490 C 361.139 1.01077 -5.82698 0
M  V30 3491 H 360.069 0.280903 -0.699721 0
M  V30 3492 H 362.72 -0.00411877 -1.835 0
M  V30 3493 H 361.102 2.16605 -3.31509 0
M  V30 3494 H 362.276 -0.392331 -4.59127 0
M  V30 3495 H 360.591 -0.196653 -4.15935 0
M  V30 3496 H 363.188 2.52943 -4.71088 0
M  V30 3497 H 363.531 2.85515 -3.02964 0
M  V30 3498 H 364.064 1.31819 -3.75325 0
M  V30 3499 H 360.803 0.240878 -6.55057 0
M  V30 3500 H 360.323 1.74819 -5.73758 0
M  V30 3501 H 362.002 1.52383 -6.28799 0
M  V30 3502 N 362.134 1.5431 0.320358 0
M  V30 3503 C 363.362 1.76636 1.07738 0
M  V30 3504 C 363.777 0.51649 1.81598 0
M  V30 3505 O 363.134 -0.512942 1.75143 0
M  V30 3506 C 363.185 2.96158 2.07299 0
M  V30 3507 O 362.906 4.16313 1.36438 0
M  V30 3508 C 364.407 3.3072 2.95193 0
M  V30 3509 H 361.627 0.589597 0.320339 0
M  V30 3510 H 364.171 2.01207 0.36551 0
M  V30 3511 H 362.326 2.73851 2.74016 0
M  V30 3512 H 362.74 4.83565 2.03138 0
M  V30 3513 H 364.214 4.17643 3.60941 0
M  V30 3514 H 364.691 2.48026 3.62463 0
M  V30 3515 H 365.297 3.55117 2.34034 0
M  V30 3516 N 363.613 -0.582584 1.46437 0
M  V30 3517 C 364.841 -1.36682 1.55324 0
M  V30 3518 C 365.256 -1.87796 0.194409 0
M  V30 3519 O 364.613 -1.63623 -0.808318 0
M  V30 3520 C 364.664 -2.55426 2.55812 0
M  V30 3521 O 364.385 -2.0643 3.86417 0
M  V30 3522 C 365.886 -3.47976 2.74641 0
M  V30 3523 H 363.106 -0.417545 0.525259 0
M  V30 3524 H 365.65 -0.708219 1.91845 0
M  V30 3525 H 363.805 -3.17275 2.22295 0
M  V30 3526 H 364.219 -2.83762 4.41111 0
M  V30 3527 H 365.693 -4.27775 3.48874 0
M  V30 3528 H 366.17 -3.99919 1.81553 0
M  V30 3529 H 366.776 -2.91962 3.09255 0
M  V30 3530 N 365.091 -1.34144 -0.827227 0
M  V30 3531 C 366.001 -1.27428 -1.96975 0
M  V30 3532 C 367.017 -0.182728 -1.73038 0
M  V30 3533 O 368.193 -0.408426 -1.97215 0
M  V30 3534 C 365.258 -1.02526 -3.31194 0
M  V30 3535 C 364.319 -2.20796 -3.68168 0
M  V30 3536 C 363.552 -1.97073 -4.95982 0
M  V30 3537 O 363.775 -0.926822 -5.6282 0
M  V30 3538 O 362.709 -2.83912 -5.30733 0
M  V30 3539 H 366.535 -2.23537 -2.05584 0
M  V30 3540 H 364.12 -1.14307 -0.961989 0
M  V30 3541 H 366.002 -0.904026 -4.11589 0
M  V30 3542 H 364.677 -0.0945389 -3.23562 0
M  V30 3543 H 363.584 -2.38477 -2.88235 0
M  V30 3544 H 364.917 -3.12243 -3.8048 0
M  V30 3545 N 366.569 1.04691 -1.17803 0
M  V30 3546 C 367.815 1.78045 -0.970969 0
M  V30 3547 C 368.148 1.87686 0.498751 0
M  V30 3548 O 367.423 1.38035 1.37027 0
M  V30 3549 C 367.706 3.2166 -1.61884 0
M  V30 3550 C 367.559 3.20001 -3.161 0
M  V30 3551 C 368.878 4.1962 -1.3269 0
M  V30 3552 H 365.997 0.64633 -0.354155 0
M  V30 3553 H 368.639 1.22333 -1.45378 0
M  V30 3554 H 366.789 3.69232 -1.20831 0
M  V30 3555 H 368.461 2.80467 -3.66246 0
M  V30 3556 H 366.704 2.58203 -3.48588 0
M  V30 3557 H 367.375 4.21386 -3.56564 0
M  V30 3558 H 369.851 3.80567 -1.68249 0
M  V30 3559 H 368.727 5.18339 -1.80599 0
M  V30 3560 H 368.988 4.414 -0.248622 0
M  V30 3561 N 368.047 0.979072 1.23499 0
M  V30 3562 C 369.01 0.523244 2.23147 0
M  V30 3563 C 370.01 -0.386406 1.56088 0
M  V30 3564 O 371.2 -0.180283 1.73265 0
M  V30 3565 C 368.332 -0.240739 3.40049 0
M  V30 3566 H 369.525 1.40432 2.64989 0
M  V30 3567 H 367.078 0.764824 1.36309 0
M  V30 3568 H 367.813 -1.13841 3.03662 0
M  V30 3569 H 367.598 0.412207 3.89927 0
M  V30 3570 H 369.088 -0.548297 4.13985 0
M  V30 3571 N 369.525 -1.3858 0.750561 0
M  V30 3572 C 370.941 -1.53759 0.427824 0
M  V30 3573 C 371.141 -1.71401 -1.05943 0
M  V30 3574 O 370.197 -1.72331 -1.84549 0
M  V30 3575 C 371.51 -2.74642 1.22443 0
M  V30 3576 C 373.058 -2.88489 1.2142 0
M  V30 3577 C 373.533 -4.12329 1.9937 0
M  V30 3578 N 375.024 -4.194 1.96616 0
M  V30 3579 C 375.759 -5.14209 2.53727 0
M  V30 3580 N 375.255 -6.14709 3.19539 0
M  V30 3581 N 377.048 -5.06537 2.43673 0
M  V30 3582 H 369.199 -1.25377 1.71447 0
M  V30 3583 H 371.462 -0.608844 0.726645 0
M  V30 3584 H 371.168 -2.68 2.27747 0
M  V30 3585 H 371.042 -3.67745 0.839273 0
M  V30 3586 H 373.429 -2.94614 0.169232 0
M  V30 3587 H 373.51 -1.96406 1.63885 0
M  V30 3588 H 373.154 -4.06966 3.03877 0
M  V30 3589 H 373.084 -5.03486 1.54302 0
M  V30 3590 H 375.575 -3.47421 1.48684 0
M  V30 3591 H 375.888 -6.8354 3.60545 0
M  V30 3592 H 374.233 -6.1505 3.23633 0
M  V30 3593 H 377.424 -4.26962 1.91889 0
M  V30 3594 H 377.597 -5.80245 2.88479 0
M  V30 3595 N 371.003 -0.499398 -1.49478 0
M  V30 3596 C 372.231 0.0425456 -2.06856 0
M  V30 3597 C 372.646 1.30964 -1.35992 0
M  V30 3598 O 372.003 1.77172 -0.437762 0
M  V30 3599 C 372.054 0.301735 -3.60239 0
M  V30 3600 O 371.775 -0.915127 -4.28436 0
M  V30 3601 C 373.276 0.887499 -4.34325 0
M  V30 3602 H 370.496 -0.0197482 -0.670709 0
M  V30 3603 H 373.04 -0.696297 -1.92281 0
M  V30 3604 H 371.195 0.990556 -3.74522 0
M  V30 3605 H 371.609 -0.676993 -5.20113 0
M  V30 3606 H 373.083 1.01845 -5.42523 0
M  V30 3607 H 373.56 1.88488 -3.96698 0
M  V30 3608 H 374.166 0.236196 -4.24644 0
M  V30 3609 N 372.481 1.55866 -0.233164 0
M  V30 3610 C 373.411 2.23783 0.666599 0
M  V30 3611 C 374.392 1.21343 1.19205 0
M  V30 3612 O 375.577 1.4996 1.23392 0
M  V30 3613 C 372.707 2.92671 1.86978 0
M  V30 3614 C 371.661 4.01682 1.47768 0
M  V30 3615 C 370.987 4.57926 2.76058 0
M  V30 3616 C 372.287 5.18126 0.658993 0
M  V30 3617 H 373.981 2.99232 0.100306 0
M  V30 3618 H 371.527 1.43924 0.046804 0
M  V30 3619 H 373.48 3.3888 2.50476 0
M  V30 3620 H 372.204 2.14688 2.46123 0
M  V30 3621 H 370.863 3.56222 0.866106 0
M  V30 3622 H 370.511 3.76659 3.33372 0
M  V30 3623 H 370.211 5.31505 2.50552 0
M  V30 3624 H 371.735 5.06859 3.40479 0
M  V30 3625 H 373.149 5.60644 1.19795 0
M  V30 3626 H 371.546 5.98009 0.500552 0
M  V30 3627 H 372.616 4.83763 -0.331856 0
M  V30 3628 N 373.959 -0.0401083 1.57549 0
M  V30 3629 C 375.236 -0.767917 1.79896 0
M  V30 3630 C 375.616 -1.9416 0.82856 0
M  V30 3631 O 374.964 -2.2812 -0.131671 0
M  V30 3632 C 375.174 -1.2113 3.27305 0
M  V30 3633 C 376.522 -1.63175 3.91994 0
M  V30 3634 O 377.546 -1.30616 3.31388 0
M  V30 3635 O 376.405 -2.23565 4.98679 0
M  V30 3636 H 373.499 -0.370441 0.739393 0
M  V30 3637 H 376.045 -0.017737 1.69691 0
M  V30 3638 H 374.817 -0.372937 3.89519 0
M  V30 3639 H 374.44 -2.02183 3.42356 0
M  V30 3640 N 375.437 -1.54477 -0.31217 0
M  V30 3641 C 376.677 -1.74958 -1.05684 0
M  V30 3642 C 377.041 -0.518414 -1.84869 0
M  V30 3643 O 378.242 -0.600759 -2.62001 0
M  V30 3644 C 376.513 -2.99656 -1.94785 0
M  V30 3645 S 378.072 -3.4109 -2.76049 0
M  V30 3646 H 374.89 -0.615104 -0.356606 0
M  V30 3647 H 377.492 -1.92669 -0.331514 0
M  V30 3648 H 376.196 -3.87397 -1.35468 0
M  V30 3649 H 375.727 -2.845 -2.71704 0
M  V30 3650 H 377.742 -2.97283 -3.97287 0
M  V30 3651 N 376.915 0.57481 -1.46744 0
M  V30 3652 C 378.14 1.36341 -1.56288 0
M  V30 3653 C 378.565 1.86954 -0.207347 0
M  V30 3654 O 377.923 1.62006 0.813871 0
M  V30 3655 C 377.971 2.52147 -2.57787 0
M  V30 3656 O 377.075 3.53834 -2.11838 0
M  V30 3657 H 376.416 0.405713 -0.525636 0
M  V30 3658 H 378.946 0.696453 -1.92382 0
M  V30 3659 H 378.956 2.98958 -2.77648 0
M  V30 3660 H 377.631 2.14663 -3.5622 0
M  V30 3661 H 376.208 3.1345 -2.01999 0
M  V30 3662 N 378.394 1.34581 0.820102 0
M  V30 3663 C 379.64 1.27285 1.57881 0
M  V30 3664 C 379.973 -0.156137 1.93571 0
M  V30 3665 O 379.248 -1.10222 1.60254 0
M  V30 3666 C 379.531 2.16639 2.87645 0
M  V30 3667 C 379.384 3.68088 2.58517 0
M  V30 3668 C 380.703 2.05378 3.8924 0
M  V30 3669 H 377.822 0.463714 0.572833 0
M  V30 3670 H 380.464 1.64859 0.944539 0
M  V30 3671 H 378.614 1.84725 3.41773 0
M  V30 3672 H 380.286 4.10382 2.10676 0
M  V30 3673 H 378.529 3.89038 1.91917 0
M  V30 3674 H 379.2 4.2598 3.51063 0
M  V30 3675 H 381.676 2.33404 3.44473 0
M  V30 3676 H 380.552 2.7012 4.77835 0
M  V30 3677 H 380.813 1.0316 4.29896 0
M  V30 3678 N 379.872 -1.04064 1.18357 0
M  V30 3679 C 381.118 -1.77528 0.980397 0
M  V30 3680 C 381.451 -1.87948 -0.48879 0
M  V30 3681 O 380.726 -1.3876 -1.36293 0
M  V30 3682 C 381.009 -3.20797 1.63588 0
M  V30 3683 C 380.862 -3.1832 3.17793 0
M  V30 3684 C 382.181 -4.18911 1.34914 0
M  V30 3685 H 379.3 -0.644443 0.357578 0
M  V30 3686 H 381.942 -1.2156 1.46024 0
M  V30 3687 H 380.092 -3.68586 1.22788 0
M  V30 3688 H 381.764 -2.78521 3.67728 0
M  V30 3689 H 380.007 -2.56351 3.49952 0
M  V30 3690 H 380.678 -4.19489 3.58794 0
M  V30 3691 H 383.154 -3.7967 1.70265 0
M  V30 3692 H 382.03 -5.17374 1.83346 0
M  V30 3693 H 382.291 -4.41262 0.272027 0
M  V30 3694 N 381.35 -0.985608 -1.22978 0
M  V30 3695 C 382.313 -0.535071 -2.22867 0
M  V30 3696 C 383.313 0.378123 -1.56291 0
M  V30 3697 O 384.503 0.171092 -1.73358 0
M  V30 3698 C 381.635 0.222702 -3.40172 0
M  V30 3699 H 382.828 -1.41835 -2.6424 0
M  V30 3700 H 380.381 -0.772042 -1.35901 0
M  V30 3701 H 381.116 1.12229 -3.04262 0
M  V30 3702 H 380.901 -0.43288 -3.89703 0
M  V30 3703 H 382.391 0.526335 -4.1427 0
M  V30 3704 N 382.828 1.3818 -0.7579 0
M  V30 3705 C 384.076 1.99624 -0.315361 0
M  V30 3706 C 384.397 1.60464 1.10799 0
M  V30 3707 O 383.667 0.863507 1.75842 0
M  V30 3708 H 382.247 0.73831 -0.113611 0
M  V30 3709 H 384.909 1.68878 -0.972952 0
M  V30 3710 H 384.005 3.09754 -0.381931 0
M  V30 3711 N 384.306 0.507319 1.49211 0
M  V30 3712 C 385.269 -0.256763 2.27757 0
M  V30 3713 C 386.269 -0.888287 1.34038 0
M  V30 3714 O 387.459 -0.751841 1.5714 0
M  V30 3715 C 384.591 -1.36905 3.12202 0
M  V30 3716 H 385.784 0.432557 2.96764 0
M  V30 3717 H 383.337 0.262488 1.5408 0
M  V30 3718 H 384.072 -2.09233 2.47775 0
M  V30 3719 H 383.857 -0.921599 3.81115 0
M  V30 3720 H 385.347 -1.9071 3.7151 0
M  V30 3721 N 385.784 -1.5574 0.241426 0
M  V30 3722 C 386.747 -2.19877 -0.647063 0
M  V30 3723 C 387.747 -1.16642 -1.10686 0
M  V30 3724 O 388.937 -1.41757 -1.01245 0
M  V30 3725 C 386.069 -2.83797 -1.88871 0
M  V30 3726 H 387.262 -2.99772 -0.087574 0
M  V30 3727 H 384.815 -1.56298 -0.00813574 0
M  V30 3728 H 385.55 -2.07824 -2.48957 0
M  V30 3729 H 385.335 -3.59414 -1.56728 0
M  V30 3730 H 386.825 -3.32898 -2.52129 0
M  V30 3731 N 387.262 0.0317525 -1.57568 0
M  V30 3732 C 388.21 1.05165 -2.07468 0
M  V30 3733 C 389.204 1.3761 -0.98792 0
M  V30 3734 O 390.41 1.36546 -1.17282 0
M  V30 3735 H 386.785 0.35666 -0.66204 0
M  V30 3736 H 388.756 0.604958 -2.92203 0
M  V30 3737 C 387.505 2.34488 -2.56731 0
M  V30 3738 H 386.828 2.10383 -3.39969 0
M  V30 3739 H 388.268 3.04203 -2.95358 0
M  V30 3740 C 386.727 3.03266 -1.46736 0
M  V30 3741 O 387.257 3.92988 -0.832069 0
M  V30 3742 N 385.463 2.6455 -1.20256 0
M  V30 3743 H 385.01 1.91674 -1.72102 0
M  V30 3744 H 384.968 3.10886 -0.468737 0
M  V30 3745 N 388.74 1.54641 0.303973 0
M  V30 3746 C 389.688 1.86137 1.39484 0
M  V30 3747 C 390.682 0.734854 1.52631 0
M  V30 3748 O 391.888 0.918803 1.54784 0
M  V30 3749 H 388.263 0.590324 0.465856 0
M  V30 3750 H 390.234 2.77324 1.10154 0
M  V30 3751 C 388.983 2.12274 2.75382 0
M  V30 3752 H 388.306 2.98429 2.66046 0
M  V30 3753 H 389.746 2.38254 3.5073 0
M  V30 3754 C 388.205 0.920365 3.24085 0
M  V30 3755 O 388.735 0.139377 4.01458 0
M  V30 3756 N 386.941 0.726566 2.81371 0
M  V30 3757 H 386.488 1.36332 2.18567 0
M  V30 3758 H 386.446 -0.0763799 3.14307 0
M  V30 3759 N 390.218 -0.567019 1.47046 0
M  V30 3760 C 391.464 -1.32658 1.53394 0
M  V30 3761 C 391.797 -1.93254 0.19148 0
M  V30 3762 O 391.072 -1.77338 -0.798844 0
M  V30 3763 C 391.355 -2.44412 2.64452 0
M  V30 3764 C 391.208 -1.88749 4.08282 0
M  V30 3765 C 392.527 -3.46387 2.71485 0
M  V30 3766 H 389.646 -0.48098 0.558415 0
M  V30 3767 H 392.288 -0.635481 1.79058 0
M  V30 3768 H 390.438 -3.03363 2.427 0
M  V30 3769 H 392.11 -1.34134 4.41368 0
M  V30 3770 H 390.353 -1.19481 4.17021 0
M  V30 3771 H 391.024 -2.69491 4.81745 0
M  V30 3772 H 393.5 -2.9734 2.91081 0
M  V30 3773 H 392.376 -4.2202 3.50985 0
M  V30 3774 H 392.637 -4.04616 1.78153 0
M  V30 3775 N 391.696 -1.35014 -0.812953 0
M  V30 3776 C 392.945 -1.27269 -1.56479 0
M  V30 3777 C 393.258 0.152771 -1.95002 0
M  V30 3778 O 394.464 0.352451 -2.69203 0
M  V30 3779 C 392.92 -2.23159 -2.82362 0
M  V30 3780 C 392.528 -3.71016 -2.511 0
M  V30 3781 C 394.272 -2.24342 -3.60376 0
M  V30 3782 C 392.179 -4.58746 -3.73237 0
M  V30 3783 H 391.109 -0.472829 -0.587324 0
M  V30 3784 H 393.76 -1.6024 -0.894171 0
M  V30 3785 H 392.142 -1.83151 -3.51101 0
M  V30 3786 H 393.316 -4.1962 -1.90409 0
M  V30 3787 H 391.631 -3.72378 -1.86343 0
M  V30 3788 H 394.228 -2.87107 -4.51081 0
M  V30 3789 H 394.571 -1.24542 -3.97234 0
M  V30 3790 H 395.104 -2.62846 -2.98591 0
M  V30 3791 H 391.843 -5.59521 -3.41492 0
M  V30 3792 H 391.363 -4.14871 -4.33176 0
M  V30 3793 H 393.042 -4.73852 -4.40537 0
M  V30 3794 N 393.175 1.03435 -1.18907 0
M  V30 3795 C 394.138 2.09756 -0.923844 0
M  V30 3796 C 395.138 1.60528 0.093416 0
M  V30 3797 O 396.328 1.73631 -0.140727 0
M  V30 3798 C 393.46 3.38692 -0.387354 0
M  V30 3799 H 394.653 2.34719 -1.86674 0
M  V30 3800 H 392.206 1.19959 -1.00197 0
M  V30 3801 H 392.941 3.19396 0.561845 0
M  V30 3802 H 392.726 3.75742 -1.12074 0
M  V30 3803 H 394.216 4.17016 -0.220694 0
M  V30 3804 N 394.653 0.992116 1.22453 0
M  V30 3805 C 395.93 0.583508 1.86694 0
M  V30 3806 C 396.31 -0.9392 1.89056 0
M  V30 3807 O 395.658 -1.82081 1.38053 0
M  V30 3808 C 395.868 1.20304 3.2761 0
M  V30 3809 C 397.216 1.30308 4.0411 0
M  V30 3810 O 398.24 1.15737 3.36873 0
M  V30 3811 O 397.099 1.53615 5.24466 0
M  V30 3812 H 394.193 0.198129 0.802916 0
M  V30 3813 H 396.739 1.08794 1.30238 0
M  V30 3814 H 395.511 2.24461 3.2052 0
M  V30 3815 H 395.134 0.684144 3.9167 0
M  V30 3816 N 396.131 -1.37776 0.765217 0
M  V30 3817 C 397.041 -2.34135 0.147666 0
M  V30 3818 C 398.057 -1.59854 -0.687215 0
M  V30 3819 O 399.233 -1.91983 -0.608659 0
M  V30 3820 C 396.298 -3.3901 -0.72617 0
M  V30 3821 C 395.359 -4.2912 0.124417 0
M  V30 3822 C 394.592 -5.28986 -0.707807 0
M  V30 3823 O 394.815 -5.36205 -1.94525 0
M  V30 3824 O 393.749 -6.01779 -0.12046 0
M  V30 3825 H 397.575 -2.88664 0.943758 0
M  V30 3826 H 395.16 -1.39824 0.526277 0
M  V30 3827 H 397.042 -4.03195 -1.22524 0
M  V30 3828 H 395.717 -2.86819 -1.50056 0
M  V30 3829 H 394.624 -3.68057 0.669696 0
M  V30 3830 H 395.957 -4.84598 0.861736 0
M  V30 3831 N 397.609 -0.515225 -1.4894 0
M  V30 3832 C 398.572 0.244681 -2.2789 0
M  V30 3833 C 399.572 0.881166 -1.34507 0
M  V30 3834 O 400.762 0.743497 -1.57537 0
M  V30 3835 C 397.894 1.35247 -3.12923 0
M  V30 3836 H 399.087 -0.448289 -2.96531 0
M  V30 3837 H 396.64 -0.270656 -1.53939 0
M  V30 3838 H 397.375 2.07916 -2.48881 0
M  V30 3839 H 397.16 0.901374 -3.81599 0
M  V30 3840 H 398.65 1.88737 -3.72516 0
M  V30 3841 N 399.087 1.5561 -0.249682 0
M  V30 3842 C 400.05 2.20217 0.635394 0
M  V30 3843 C 401.05 1.17227 1.10066 0
M  V30 3844 O 402.24 1.42292 1.00492 0
M  V30 3845 C 399.372 2.84794 1.87363 0
M  V30 3846 H 400.565 2.99814 0.0716752 0
M  V30 3847 H 398.118 1.563 -0.000153234 0
M  V30 3848 H 398.853 2.09142 2.47851 0
M  V30 3849 H 398.638 3.60241 1.5482 0
M  V30 3850 H 400.128 3.3423 2.5036 0
M  V30 3851 N 400.565 -0.0233959 1.57583 0
M  V30 3852 C 401.79 -0.728376 1.94189 0
M  V30 3853 C 402.215 -1.67793 0.850119 0
M  V30 3854 O 401.573 -1.80262 -0.19371 0
M  V30 3855 C 401.621 -1.45669 3.29868 0
M  V30 3856 O 400.725 -2.57013 3.22518 0
M  V30 3857 H 400.066 -0.195493 0.63457 0
M  V30 3858 H 402.596 0.0228214 2.04587 0
M  V30 3859 H 402.606 -1.82535 3.6489 0
M  V30 3860 H 401.281 -0.760314 4.08891 0
M  V30 3861 H 399.858 -2.22648 2.99136 0
M  V30 3862 N 402.043 -1.548 -0.295768 0
M  V30 3863 C 403.32 -1.65014 -1.05023 0
M  V30 3864 C 403.7 -0.501805 -2.05049 0
M  V30 3865 O 403.048 0.500869 -2.22943 0
M  V30 3866 C 403.258 -3.03252 -1.72741 0
M  V30 3867 C 404.606 -3.60242 -2.24746 0
M  V30 3868 O 405.63 -3.05737 -1.82765 0
M  V30 3869 O 404.489 -4.55687 -3.01681 0
M  V30 3870 H 401.583 -0.669314 -0.485744 0
M  V30 3871 H 404.129 -1.67144 -0.293438 0
M  V30 3872 H 402.901 -3.7827 -1.00138 0
M  V30 3873 H 402.524 -3.04922 -2.55163 0
M  V30 3874 N 403.521 0.559213 -1.47345 0
M  V30 3875 C 404.77 1.31281 -1.53128 0
M  V30 3876 C 405.083 1.94602 -0.197344 0
M  V30 3877 O 406.289 2.71173 -0.133154 0
M  V30 3878 C 404.745 2.38051 -2.69925 0
M  V30 3879 C 404.353 1.8093 -4.0984 0
M  V30 3880 C 406.097 3.14604 -2.84999 0
M  V30 3881 C 404.004 2.85468 -5.1794 0
M  V30 3882 H 402.934 0.493614 -0.569966 0
M  V30 3883 H 405.585 0.594155 -1.73615 0
M  V30 3884 H 403.967 3.12822 -2.42814 0
M  V30 3885 H 405.141 1.12544 -4.46845 0
M  V30 3886 H 403.456 1.16967 -3.99634 0
M  V30 3887 H 406.053 3.92666 -3.62929 0
M  V30 3888 H 406.396 3.68665 -1.93369 0
M  V30 3889 H 406.929 2.46945 -3.1187 0
M  V30 3890 H 403.668 2.36264 -6.1144 0
M  V30 3891 H 403.188 3.52269 -4.85455 0
M  V30 3892 H 404.867 3.48996 -5.44803 0
M  V30 3893 N 404.999 1.35443 0.805782 0
M  V30 3894 C 405.929 1.31095 1.93226 0
M  V30 3895 C 406.91 0.185244 1.69088 0
M  V30 3896 O 408.095 0.380332 1.90439 0
M  V30 3897 C 405.225 1.08299 3.29983 0
M  V30 3898 C 404.179 2.17519 3.68605 0
M  V30 3899 C 403.505 1.79887 5.03532 0
M  V30 3900 C 404.805 3.5949 3.78898 0
M  V30 3901 H 406.499 2.25352 1.97122 0
M  V30 3902 H 404.045 1.0848 0.946996 0
M  V30 3903 H 405.998 1.03897 4.08391 0
M  V30 3904 H 404.722 0.104885 3.26432 0
M  V30 3905 H 403.381 2.2102 2.92482 0
M  V30 3906 H 403.029 0.80693 4.96485 0
M  V30 3907 H 402.729 2.53001 5.30344 0
M  V30 3908 H 404.253 1.77011 5.84379 0
M  V30 3909 H 405.667 3.58307 4.47536 0
M  V30 3910 H 404.064 4.31371 4.1718 0
M  V30 3911 H 405.134 3.95584 2.80431 0
M  V30 3912 N 406.477 -1.02803 1.19454 0
M  V30 3913 C 407.427 -2.0945 0.900827 0
M  V30 3914 C 408.411 -1.60335 -0.134715 0
M  V30 3915 O 409.603 -1.76857 0.0710924 0
M  V30 3916 C 406.732 -3.4044 0.442229 0
M  V30 3917 C 405.818 -3.96286 1.51056 0
M  V30 3918 N 406.209 -4.25785 2.73021 0
M  V30 3919 C 404.507 -4.24307 1.37404 0
M  V30 3920 C 405.208 -4.70654 3.41848 0
M  V30 3921 N 404.184 -4.72238 2.69243 0
M  V30 3922 H 407.986 -2.3015 1.82779 0
M  V30 3923 H 405.5 -1.20672 1.08683 0
M  V30 3924 H 407.497 -4.16354 0.21326 0
M  V30 3925 H 406.157 -3.21159 -0.478238 0
M  V30 3926 H 407.168 -4.15041 3.09776 0
M  V30 3927 H 403.845 -4.14285 0.517103 0
M  V30 3928 H 405.235 -5.02392 4.46152 0
M  V30 3929 N 407.956 -0.998596 -1.21925 0
M  V30 3930 C 408.919 -0.558679 -2.22287 0
M  V30 3931 C 409.919 0.361525 -1.56683 0
M  V30 3932 O 411.109 0.152695 -1.73529 0
M  V30 3933 C 408.241 0.18661 -3.40389 0
M  V30 3934 H 409.434 -1.4463 -2.62721 0
M  V30 3935 H 406.987 -0.786413 -1.35075 0
M  V30 3936 H 407.722 1.08996 -3.05435 0
M  V30 3937 H 407.507 -0.474188 -3.89222 0
M  V30 3938 H 408.997 0.482367 -4.14805 0
M  V30 3939 N 409.434 1.37368 -0.772513 0
M  V30 3940 C 410.85 1.53059 -0.452231 0
M  V30 3941 C 411.05 1.73065 1.03203 0
M  V30 3942 O 410.106 1.75245 1.81784 0
M  V30 3943 C 411.419 2.72659 -1.26797 0
M  V30 3944 C 412.967 2.86521 -1.25995 0
M  V30 3945 C 413.442 4.09105 -2.05905 0
M  V30 3946 N 414.933 4.16219 -2.03263 0
M  V30 3947 C 415.668 5.10107 -2.61875 0
M  V30 3948 N 415.164 6.09547 -3.29278 0
M  V30 3949 N 416.957 5.02596 -2.51701 0
M  V30 3950 H 409.108 1.22634 -1.7342 0
M  V30 3951 H 411.371 0.597206 -0.736239 0
M  V30 3952 H 411.077 2.64343 -2.31982 0
M  V30 3953 H 410.951 3.66363 -0.897672 0
M  V30 3954 H 413.338 2.94308 -0.216081 0
M  V30 3955 H 413.419 1.93774 -1.66989 0
M  V30 3956 H 413.063 4.0208 -3.10313 0
M  V30 3957 H 412.993 5.00968 -1.62292 0
M  V30 3958 H 415.484 3.45012 -1.54192 0
M  V30 3959 H 415.797 6.77718 -3.71374 0
M  V30 3960 H 414.142 6.09824 -3.33377 0
M  V30 3961 H 417.333 4.23855 -1.98657 0
M  V30 3962 H 417.506 5.75582 -2.97673 0
M  V30 3963 N 410.912 0.523116 1.48665 0
M  V30 3964 C 412.16 -0.0134497 2.02096 0
M  V30 3965 C 412.481 -1.35418 1.40311 0
M  V30 3966 O 411.751 -1.87543 0.566074 0
M  V30 3967 H 410.331 -0.00795915 0.746958 0
M  V30 3968 H 412.993 0.685388 1.82451 0
M  V30 3969 H 412.089 -0.126849 3.11842 0
M  V30 3970 N 412.39 -1.55475 0.257931 0
M  V30 3971 C 413.639 -1.98383 -0.364275 0
M  V30 3972 C 413.952 -1.14952 -1.58258 0
M  V30 3973 O 415.158 -1.47924 -2.27664 0
M  V30 3974 C 413.614 -3.53037 -0.699479 0
M  V30 3975 C 413.222 -4.45223 0.498046 0
M  V30 3976 C 414.966 -4.04575 -1.28526 0
M  V30 3977 C 412.873 -5.91238 0.138383 0
M  V30 3978 H 411.803 -0.740911 -0.13988 0
M  V30 3979 H 414.454 -1.79936 0.359883 0
M  V30 3980 H 412.836 -3.6722 -1.48207 0
M  V30 3981 H 414.01 -4.42803 1.27522 0
M  V30 3982 H 412.325 -4.04226 0.999503 0
M  V30 3983 H 414.922 -5.11196 -1.56788 0
M  V30 3984 H 415.265 -3.5258 -2.21344 0
M  V30 3985 H 415.798 -3.93762 -0.565337 0
M  V30 3986 H 412.537 -6.47294 1.03398 0
M  V30 3987 H 412.057 -5.96768 -0.602374 0
M  V30 3988 H 413.736 -6.46413 -0.27553 0
M  V30 3989 N 413.868 0.0150385 -1.57593 0
M  V30 3990 C 414.798 1.01047 -2.10503 0
M  V30 3991 C 415.779 1.36816 -1.01071 0
M  V30 3992 O 416.964 1.45455 -1.28672 0
M  V30 3993 C 414.094 2.30708 -2.59598 0
M  V30 3994 C 413.048 2.09142 -3.73421 0
M  V30 3995 C 412.374 3.44685 -4.08774 0
M  V30 3996 C 413.674 1.46619 -5.01298 0
M  V30 3997 H 415.368 0.569978 -2.93925 0
M  V30 3998 H 412.914 0.272724 -1.41394 0
M  V30 3999 H 414.867 3.00687 -2.95238 0
M  V30 4000 H 413.591 2.76843 -1.73279 0
M  V30 4001 H 412.25 1.41592 -3.38153 0
M  V30 4002 H 411.898 3.88495 -3.195 0
M  V30 4003 H 411.598 3.31077 -4.8545 0
M  V30 4004 H 413.122 4.16004 -4.4696 0
M  V30 4005 H 414.536 2.06535 -5.34805 0
M  V30 4006 H 412.933 1.43544 -5.82679 0
M  V30 4007 H 414.003 0.433611 -4.82957 0
M  V30 4008 N 415.346 1.54954 0.287554 0
M  V30 4009 C 416.576 1.78622 1.03816 0
M  V30 4010 C 416.984 0.552451 1.80955 0
M  V30 4011 O 416.327 -0.487665 1.77109 0
M  V30 4012 C 416.389 2.94975 2.055 0
M  V30 4013 C 416.053 4.32565 1.47433 0
M  V30 4014 C 417.05 5.12096 0.897436 0
M  V30 4015 C 414.735 4.79195 1.50591 0
M  V30 4016 C 416.729 6.36383 0.359851 0
M  V30 4017 C 414.416 6.03441 0.964459 0
M  V30 4018 C 415.414 6.81872 0.392413 0
M  V30 4019 O 415.102 8.03777 -0.140788 0
M  V30 4020 H 414.834 0.599144 0.313053 0
M  V30 4021 H 417.388 2.02761 0.328225 0
M  V30 4022 H 415.618 2.66493 2.80211 0
M  V30 4023 H 417.307 3.06097 2.6657 0
M  V30 4024 H 418.073 4.77209 0.865841 0
M  V30 4025 H 413.952 4.18167 1.94055 0
M  V30 4026 H 417.496 6.97545 -0.0872951 0
M  V30 4027 H 413.393 6.37813 0.993246 0
M  V30 4028 H 414.161 8.18495 -0.0287617 0
M  V30 4029 N 416.824 -0.551391 1.4764 0
M  V30 4030 C 417.787 -1.64007 1.60107 0
M  V30 4031 C 418.787 -1.53601 0.47576 0
M  V30 4032 O 419.977 -1.57655 0.740988 0
M  V30 4033 C 417.109 -3.03569 1.55108 0
M  V30 4034 H 418.302 -1.543 2.57161 0
M  V30 4035 H 415.855 -0.771776 1.35917 0
M  V30 4036 H 416.59 -3.18804 0.594519 0
M  V30 4037 H 416.375 -3.12532 2.36783 0
M  V30 4038 H 417.865 -3.82762 1.66982 0
M  V30 4039 N 418.302 -1.35869 -0.798587 0
M  V30 4040 C 419.713 -1.26498 -1.37314 0
M  V30 4041 C 420.064 0.0991899 -1.95949 0
M  V30 4042 O 419.189 1.0004 -1.91888 0
M  V30 4043 C 419.784 -2.29054 -2.49639 0
M  V30 4044 C 418.343 -2.234 -3.02935 0
M  V30 4045 C 417.49 -2.14329 -1.75949 0
M  V30 4046 H 420.441 -1.46881 -0.600971 0
M  V30 4047 H 420.462 -1.92166 -3.28409 0
M  V30 4048 H 419.974 -3.2833 -2.06933 0
M  V30 4049 H 418.075 -1.27562 -3.50084 0
M  V30 4050 H 418.188 -3.15703 -3.60372 0
M  V30 4051 H 416.552 -1.60435 -1.9782 0
M  V30 4052 H 417.335 -3.15477 -1.35384 0
M  V30 4053 N 419.78 1.02168 -1.19998 0
M  V30 4054 C 421.057 1.72816 -0.916191 0
M  V30 4055 C 421.437 2.03081 0.576325 0
M  V30 4056 O 420.785 1.69122 1.53656 0
M  V30 4057 C 420.995 2.9997 -1.78378 0
M  V30 4058 C 422.343 3.73336 -2.02251 0
M  V30 4059 O 423.367 3.09914 -1.75589 0
M  V30 4060 O 422.226 4.87371 -2.47249 0
M  V30 4061 H 419.32 0.752924 -0.342103 0
M  V30 4062 H 421.866 1.08062 -1.30846 0
M  V30 4063 H 420.638 2.73888 -2.79466 0
M  V30 4064 H 420.261 3.72464 -1.39126 0
M  V30 4065 N 421.258 1.00505 1.21394 0
M  V30 4066 C 422.505 0.687774 1.90462 0
M  V30 4067 C 422.833 -0.78147 1.7811 0
M  V30 4068 O 422.088 -1.58208 1.1519 0
M  V30 4069 C 422.387 1.0546 3.41486 0
M  V30 4070 C 422.053 2.51812 3.74034 0
M  V30 4071 C 420.715 2.91804 3.82628 0
M  V30 4072 C 423.067 3.46614 3.8924 0
M  V30 4073 C 420.395 4.2556 4.03876 0
M  V30 4074 C 422.747 4.80044 4.11995 0
M  V30 4075 C 421.411 5.19759 4.18816 0
M  V30 4076 H 420.681 0.251674 0.696951 0
M  V30 4077 H 423.328 1.26349 1.43903 0
M  V30 4078 H 421.633 0.397133 3.89782 0
M  V30 4079 H 423.33 0.786976 3.93202 0
M  V30 4080 H 419.92 2.1982 3.67936 0
M  V30 4081 H 424.104 3.16883 3.81967 0
M  V30 4082 H 419.36 4.55901 4.07387 0
M  V30 4083 H 423.534 5.53439 4.22704 0
M  V30 4084 H 421.161 6.23418 4.35033 0
M  V30 4085 N 422.737 -1.36956 0.779787 0
M  V30 4086 C 423.983 -1.99787 0.348281 0
M  V30 4087 C 424.316 -1.61756 -1.07465 0
M  V30 4088 O 423.591 -0.867639 -1.74075 0
M  V30 4089 C 423.874 -3.56597 0.50104 0
M  V30 4090 C 423.727 -4.04513 1.96697 0
M  V30 4091 C 425.046 -4.40008 -0.0898097 0
M  V30 4092 H 422.165 -0.725796 0.128022 0
M  V30 4093 H 424.807 -1.62514 0.984331 0
M  V30 4094 H 422.957 -3.88479 -0.0404347 0
M  V30 4095 H 424.629 -3.83161 2.56876 0
M  V30 4096 H 422.872 -3.56408 2.47297 0
M  V30 4097 H 423.543 -5.1352 2.02486 0
M  V30 4098 H 426.019 -4.14431 0.372293 0
M  V30 4099 H 424.895 -5.4888 0.0471605 0
M  V30 4100 H 425.156 -4.26035 -1.18096 0
M  V30 4101 N 424.215 -0.530993 -1.48385 0
M  V30 4102 C 425.178 0.220497 -2.28137 0
M  V30 4103 C 426.178 0.866851 -1.35434 0
M  V30 4104 O 427.368 0.726746 -1.58316 0
M  V30 4105 C 424.5 1.31921 -3.1434 0
M  V30 4106 H 425.693 -0.479714 -2.96038 0
M  V30 4107 H 423.246 -0.286968 -1.53643 0
M  V30 4108 H 423.981 2.05264 -2.51072 0
M  V30 4109 H 423.766 0.86085 -3.82533 0
M  V30 4110 H 425.256 1.84776 -3.74497 0
M  V30 4111 N 425.693 1.55336 -0.266172 0
M  V30 4112 C 426.641 2.23587 0.641228 0
M  V30 4113 C 427.635 1.22986 1.16494 0
M  V30 4114 O 428.841 1.40943 1.1196 0
M  V30 4115 H 425.216 0.717452 0.225315 0
M  V30 4116 H 427.187 2.9837 0.0426561 0
M  V30 4117 C 425.936 2.96369 1.81826 0
M  V30 4118 H 425.259 3.73563 1.42445 0
M  V30 4119 H 426.699 3.47459 2.42998 0
M  V30 4120 C 425.158 2.0133 2.70125 0
M  V30 4121 O 425.688 1.55875 3.70224 0
M  V30 4122 N 423.894 1.6802 2.37102 0
M  V30 4123 H 423.441 2.05181 1.55751 0
M  V30 4124 H 423.399 1.047 2.96454 0
M  V30 4125 N 427.171 -0.0066808 1.57599 0
M  V30 4126 C 428.134 -0.985035 2.06953 0
M  V30 4127 C 429.134 -1.27663 0.977687 0
M  V30 4128 O 430.324 -1.22293 1.24057 0
M  V30 4129 C 427.456 -2.3118 2.50536 0
M  V30 4130 H 428.649 -0.558255 2.94658 0
M  V30 4131 H 426.202 -0.254011 1.54222 0
M  V30 4132 H 426.937 -2.78561 1.66054 0
M  V30 4133 H 426.722 -2.11338 3.3027 0
M  V30 4134 H 428.212 -3.01377 2.8907 0
M  V30 4135 N 428.649 -1.55105 -0.279332 0
M  V30 4136 C 429.897 -1.75066 -1.00977 0
M  V30 4137 C 430.218 -0.551276 -1.87045 0
M  V30 4138 O 429.488 0.433984 -1.91032 0
M  V30 4139 H 428.068 -0.645578 -0.375816 0
M  V30 4140 H 430.73 -1.92497 -0.305089 0
M  V30 4141 H 429.826 -2.64894 -1.65038 0
M  V30 4142 N 430.127 0.543554 -1.4793 0
M  V30 4143 C 431.375 1.29752 -1.54948 0
M  V30 4144 C 431.696 1.93764 -0.219242 0
M  V30 4145 O 430.966 1.80639 0.75805 0
M  V30 4146 H 429.546 0.481874 -0.570795 0
M  V30 4147 H 432.208 0.633636 -1.84312 0
M  V30 4148 H 431.304 2.08392 -2.32334 0
M  V30 4149 N 431.605 1.3629 0.791371 0
M  V30 4150 C 432.568 1.30309 1.88553 0
M  V30 4151 C 433.568 0.211204 1.59407 0
M  V30 4152 O 434.758 0.465865 1.67855 0
M  V30 4153 C 431.89 1.01956 3.25297 0
M  V30 4154 H 433.083 2.27614 1.95273 0
M  V30 4155 H 430.636 1.21035 0.988953 0
M  V30 4156 H 431.371 0.050998 3.2426 0
M  V30 4157 H 431.156 1.80968 3.4784 0
M  V30 4158 H 432.646 1.0037 4.05359 0
M  V30 4159 N 433.083 -1.0153 1.20538 0
M  V30 4160 C 434.332 -1.74558 1.01057 0
M  V30 4161 C 434.645 -1.90168 -0.457756 0
M  V30 4162 O 435.851 -2.60301 -0.771722 0
M  V30 4163 C 434.307 -3.13963 1.75941 0
M  V30 4164 C 433.915 -3.06361 3.26875 0
M  V30 4165 C 435.659 -3.91191 1.64832 0
M  V30 4166 C 433.566 -4.40782 3.94291 0
M  V30 4167 H 432.496 -0.654417 0.374505 0
M  V30 4168 H 435.147 -1.13521 1.44171 0
M  V30 4169 H 433.529 -3.75549 1.25614 0
M  V30 4170 H 434.703 -2.54074 3.84425 0
M  V30 4171 H 433.018 -2.42625 3.38411 0
M  V30 4172 H 435.615 -4.90644 2.12539 0
M  V30 4173 H 435.958 -4.11884 0.604745 0
M  V30 4174 H 436.491 -3.36236 2.12579 0
M  V30 4175 H 433.23 -4.25292 4.98805 0
M  V30 4176 H 432.75 -4.9307 3.41529 0
M  V30 4177 H 434.429 -5.09621 3.98617 0
M  V30 4178 N 434.561 -1.01147 -1.20859 0
M  V30 4179 C 435.511 -0.548247 -2.2131 0
M  V30 4180 C 436.495 0.393646 -1.5601 0
M  V30 4181 O 437.687 0.217445 -1.75659 0
M  V30 4182 C 434.816 0.117252 -3.431 0
M  V30 4183 C 433.902 -0.846043 -4.15575 0
M  V30 4184 N 434.293 -2.00149 -4.64515 0
M  V30 4185 C 432.591 -0.665783 -4.41003 0
M  V30 4186 C 433.292 -2.60764 -5.19978 0
M  V30 4187 N 432.268 -1.88868 -5.09735 0
M  V30 4188 H 436.07 -1.42921 -2.56809 0
M  V30 4189 H 433.584 -0.876142 -1.36739 0
M  V30 4190 H 435.581 0.46662 -4.1428 0
M  V30 4191 H 434.241 0.994115 -3.09107 0
M  V30 4192 H 435.252 -2.38162 -4.5989 0
M  V30 4193 H 431.929 0.163456 -4.1718 0
M  V30 4194 H 433.319 -3.58519 -5.68255 0
M  V30 4195 N 436.039 1.36541 -0.78704 0
M  V30 4196 C 436.969 2.32659 -0.197992 0
M  V30 4197 C 437.95 1.56533 0.665697 0
M  V30 4198 O 439.135 1.84698 0.60001 0
M  V30 4199 C 436.265 3.40778 0.669901 0
M  V30 4200 C 435.219 4.27897 -0.0937039 0
M  V30 4201 C 434.545 5.27163 0.894629 0
M  V30 4202 C 435.845 5.06334 -1.28154 0
M  V30 4203 H 437.539 2.82171 -1.00099 0
M  V30 4204 H 435.085 1.35665 -0.482793 0
M  V30 4205 H 437.038 4.07008 1.09191 0
M  V30 4206 H 435.762 2.89827 1.50558 0
M  V30 4207 H 434.421 3.6322 -0.49666 0
M  V30 4208 H 434.069 4.72486 1.72527 0
M  V30 4209 H 433.769 5.86317 0.388149 0
M  V30 4210 H 435.293 5.96266 1.31525 0
M  V30 4211 H 436.707 5.65617 -0.93541 0
M  V30 4212 H 435.104 5.74888 -1.72115 0
M  V30 4213 H 436.174 4.38114 -2.07807 0
M  V30 4214 N 437.518 0.538854 1.48102 0
M  V30 4215 C 438.764 0.00801365 2.02798 0
M  V30 4216 C 439.097 -1.3309 1.41424 0
M  V30 4217 O 438.372 -1.86169 0.563158 0
M  V30 4218 C 438.655 -0.104589 3.59948 0
M  V30 4219 C 438.508 1.26012 4.31788 0
M  V30 4220 C 439.827 -0.827055 4.32259 0
M  V30 4221 H 436.946 0.00438624 0.736987 0
M  V30 4222 H 439.588 0.6976 1.7673 0
M  V30 4223 H 437.738 -0.691893 3.82289 0
M  V30 4224 H 439.41 1.88922 4.2084 0
M  V30 4225 H 437.653 1.83968 3.92859 0
M  V30 4226 H 438.324 1.13424 5.40221 0
M  V30 4227 H 440.8 -0.328578 4.14801 0
M  V30 4228 H 439.676 -0.87476 5.41885 0
M  V30 4229 H 439.937 -1.87927 4.0017 0
M  V30 4230 N 438.996 -1.55193 0.274407 0
M  V30 4231 C 440.244 -1.99187 -0.341902 0
M  V30 4232 C 440.565 -1.16422 -1.56431 0
M  V30 4233 O 439.835 -0.253573 -1.94252 0
M  V30 4234 H 438.415 -0.735721 -0.129317 0
M  V30 4235 H 441.077 -1.91168 0.379578 0
M  V30 4236 H 440.173 -3.05629 -0.632253 0
M  V30 4237 N 440.474 -0.00167713 -1.576 0
M  V30 4238 C 441.89 0.354422 -1.55615 0
M  V30 4239 C 442.09 1.74679 -1.00447 0
M  V30 4240 O 441.146 2.4428 -0.639022 0
M  V30 4241 C 442.459 0.22812 -2.99833 0
M  V30 4242 C 444.007 0.302934 -3.11531 0
M  V30 4243 C 444.482 0.205737 -4.57538 0
M  V30 4244 N 445.973 0.263584 -4.62449 0
M  V30 4245 C 446.708 0.211742 -5.73009 0
M  V30 4246 N 446.204 0.110399 -6.92712 0
M  V30 4247 N 447.997 0.263729 -5.61481 0
M  V30 4248 H 440.148 -0.912498 -1.918 0
M  V30 4249 H 442.411 -0.349928 -0.881053 0
M  V30 4250 H 442.117 -0.729934 -3.44042 0
M  V30 4251 H 441.991 1.00951 -3.6344 0
M  V30 4252 H 444.378 1.25143 -2.67251 0
M  V30 4253 H 444.459 -0.508357 -2.50698 0
M  V30 4254 H 444.103 -0.739225 -5.02492 0
M  V30 4255 H 444.033 1.03554 -5.16318 0
M  V30 4256 H 446.524 0.343173 -3.76339 0
M  V30 4257 H 446.837 0.0767828 -7.72762 0
M  V30 4258 H 445.182 0.0760025 -6.94958 0
M  V30 4259 H 448.373 0.34111 -4.66855 0
M  V30 4260 H 448.546 0.219862 -6.47627 0
M  V30 4261 N 441.952 1.55251 0.271103 0
M  V30 4262 C 442.862 1.9136 1.35714 0
M  V30 4263 C 443.878 0.811075 1.5394 0
M  V30 4264 O 445.054 1.11031 1.6803 0
M  V30 4265 C 442.119 2.1798 2.69603 0
M  V30 4266 C 441.18 3.4153 2.60107 0
M  V30 4267 C 440.413 3.66871 3.8761 0
M  V30 4268 O 440.636 2.94689 4.8838 0
M  V30 4269 O 439.57 4.60405 3.87699 0
M  V30 4270 H 443.396 2.83815 1.08088 0
M  V30 4271 H 440.981 1.41821 0.469792 0
M  V30 4272 H 442.863 2.36518 3.48765 0
M  V30 4273 H 441.538 1.28708 2.97012 0
M  V30 4274 H 440.445 3.28325 1.79314 0
M  V30 4275 H 441.778 4.31027 2.37647 0
M  V30 4276 N 443.43 -0.535701 1.48216 0
M  V30 4277 C 444.676 -1.29375 1.56173 0
M  V30 4278 C 445.009 -1.92804 0.232429 0
M  V30 4279 O 444.284 -1.78992 -0.761048 0
M  V30 4280 C 444.567 -2.38747 2.69577 0
M  V30 4281 C 444.42 -1.80046 4.12193 0
M  V30 4282 C 445.739 -3.40551 2.78771 0
M  V30 4283 H 442.858 -0.469027 0.568491 0
M  V30 4284 H 445.5 -0.597358 1.80365 0
M  V30 4285 H 443.65 -2.98147 2.4908 0
M  V30 4286 H 445.322 -1.24742 4.44114 0
M  V30 4287 H 443.565 -1.10609 4.19462 0
M  V30 4288 H 444.236 -2.59212 4.87353 0
M  V30 4289 H 446.712 -2.91099 2.97322 0
M  V30 4290 H 445.588 -4.1448 3.59857 0
M  V30 4291 H 445.849 -4.00746 1.86696 0
M  V30 4292 N 444.908 -1.36708 -0.784132 0
M  V30 4293 C 445.838 -1.34153 -1.91116 0
M  V30 4294 C 446.819 -0.212121 -1.68772 0
M  V30 4295 O 448.004 -0.410581 -1.8981 0
M  V30 4296 C 445.134 -1.13535 -3.28218 0
M  V30 4297 C 444.088 -2.23356 -3.65097 0
M  V30 4298 C 443.414 -1.87875 -5.00607 0
M  V30 4299 C 444.714 -3.65473 -3.73131 0
M  V30 4300 H 446.408 -2.28459 -1.93512 0
M  V30 4301 H 443.954 -1.09973 -0.929618 0
M  V30 4302 H 445.907 -1.10381 -4.06687 0
M  V30 4303 H 444.631 -0.156804 -3.26223 0
M  V30 4304 H 443.29 -2.25645 -2.88929 0
M  V30 4305 H 442.938 -0.885814 -4.95139 0
M  V30 4306 H 442.638 -2.61406 -5.26252 0
M  V30 4307 H 444.162 -1.86286 -5.81489 0
M  V30 4308 H 445.576 -3.65382 -4.41779 0
M  V30 4309 H 443.973 -4.37953 -4.10265 0
M  V30 4310 H 445.043 -3.99995 -2.74102 0
M  V30 4311 N 446.386 1.0089 -1.21074 0
M  V30 4312 C 447.634 1.74262 -1.02358 0
M  V30 4313 C 447.955 1.89869 0.444393 0
M  V30 4314 O 447.225 1.44677 1.32081 0
M  V30 4315 H 445.805 0.645615 -0.375754 0
M  V30 4316 H 448.467 1.21596 -1.52317 0
M  V30 4317 H 447.563 2.74328 -1.4883 0
M  V30 4318 N 447.864 1.01787 1.20321 0
M  V30 4319 C 449.11 0.718699 1.90279 0
M  V30 4320 C 449.465 -0.743669 1.77447 0
M  V30 4321 O 448.758 -1.53345 1.14874 0
M  V30 4322 C 448.952 1.09076 3.40349 0
M  V30 4323 C 448.781 2.58775 3.67784 0
M  V30 4324 C 447.551 3.25578 3.86428 0
M  V30 4325 C 449.749 3.56966 3.70243 0
M  V30 4326 N 447.731 4.64495 4.01395 0
M  V30 4327 C 449.102 4.8145 3.90649 0
M  V30 4328 C 451.157 3.5092 3.53213 0
M  V30 4329 C 449.86 6.00619 3.95789 0
M  V30 4330 C 451.886 4.69493 3.59625 0
M  V30 4331 C 451.248 5.92786 3.80505 0
M  V30 4332 H 447.347 0.31468 0.715891 0
M  V30 4333 H 449.931 1.30295 1.44677 0
M  V30 4334 H 448.102 0.534839 3.847 0
M  V30 4335 H 449.834 0.744997 3.97784 0
M  V30 4336 H 446.589 2.76003 3.84862 0
M  V30 4337 H 447.013 5.36624 4.12752 0
M  V30 4338 H 451.655 2.56593 3.36035 0
M  V30 4339 H 449.373 6.95326 4.11762 0
M  V30 4340 H 452.959 4.66432 3.47754 0
M  V30 4341 H 451.839 6.83003 3.85327 0
M  V30 4342 N 449.342 -1.36122 0.79427 0
M  V30 4343 C 450.567 -2.03891 0.379871 0
M  V30 4344 C 450.992 -1.59488 -0.997251 0
M  V30 4345 O 450.35 -0.765652 -1.64339 0
M  V30 4346 C 450.398 -3.57687 0.457442 0
M  V30 4347 O 449.502 -4.08931 -0.5338 0
M  V30 4348 H 448.843 -0.6443 0.160541 0
M  V30 4349 H 451.373 -1.73976 1.07673 0
M  V30 4350 H 451.383 -4.06721 0.322792 0
M  V30 4351 H 450.058 -3.89357 1.46199 0
M  V30 4352 H 448.635 -3.71154 -0.360409 0
M  V30 4353 N 450.82 -0.546701 -1.47814 0
M  V30 4354 C 451.73 0.21026 -2.33656 0
M  V30 4355 C 452.746 0.922413 -1.47538 0
M  V30 4356 O 453.922 0.893652 -1.80488 0
M  V30 4357 C 450.987 1.23348 -3.24016 0
M  V30 4358 C 450.048 0.529883 -4.26017 0
M  V30 4359 C 449.281 1.50435 -5.12059 0
M  V30 4360 O 449.504 2.73837 -5.00369 0
M  V30 4361 O 448.438 1.03459 -5.92942 0
M  V30 4362 H 452.264 -0.493605 -2.99662 0
M  V30 4363 H 449.849 -0.307427 -1.46203 0
M  V30 4364 H 451.731 1.82438 -3.79861 0
M  V30 4365 H 450.406 1.91945 -2.60651 0
M  V30 4366 H 449.313 -0.101948 -3.73961 0
M  V30 4367 H 450.646 -0.11445 -4.92067 0
M  V30 4368 N 452.299 1.55045 -0.282633 0
M  V30 4369 C 453.524 2.04628 0.337977 0
M  V30 4370 C 453.949 1.15937 1.48123 0
M  V30 4371 O 453.307 0.159532 1.80597 0
M  V30 4372 C 453.355 3.51854 0.78936 0
M  V30 4373 O 452.459 3.66236 1.89592 0
M  V30 4374 H 451.8 0.660434 0.0687261 0
M  V30 4375 H 454.33 2.00261 -0.419124 0
M  V30 4376 H 454.34 3.93361 1.08311 0
M  V30 4377 H 453.015 4.15873 -0.0470419 0
M  V30 4378 H 451.592 3.36633 1.60413 0
M  V30 4379 N 453.777 0.010035 1.57597 0
M  V30 4380 C 455.023 -0.673697 1.91283 0
M  V30 4381 C 455.356 -1.72863 0.884979 0
M  V30 4382 O 454.631 -1.94268 -0.0949487 0
M  V30 4383 C 454.914 -1.30766 3.35518 0
M  V30 4384 C 454.767 -0.263578 4.49027 0
M  V30 4385 C 456.086 -2.23105 3.79358 0
M  V30 4386 H 453.205 -0.243439 0.695634 0
M  V30 4387 H 455.847 0.0633864 1.89894 0
M  V30 4388 H 453.997 -1.93588 3.36832 0
M  V30 4389 H 455.669 0.365738 4.59848 0
M  V30 4390 H 453.912 0.413077 4.31829 0
M  V30 4391 H 454.583 -0.746398 5.4693 0
M  V30 4392 H 457.059 -1.70289 3.79659 0
M  V30 4393 H 455.935 -2.64424 4.81011 0
M  V30 4394 H 456.196 -3.11433 3.13787 0
M  V30 4395 N 455.255 -1.55392 -0.262866 0
M  V30 4396 C 456.501 -1.76737 -0.99458 0
M  V30 4397 C 456.834 -0.572453 -1.85571 0
M  V30 4398 O 456.109 0.429732 -1.89693 0
M  V30 4399 C 456.392 -3.07824 -1.8686 0
M  V30 4400 C 456.245 -4.3769 -1.03672 0
M  V30 4401 C 457.564 -3.35021 -2.85393 0
M  V30 4402 H 454.683 -0.643005 -0.360157 0
M  V30 4403 H 457.325 -1.88126 -0.266216 0
M  V30 4404 H 455.475 -2.98245 -2.48962 0
M  V30 4405 H 457.147 -4.59238 -0.43563 0
M  V30 4406 H 455.39 -4.32461 -0.340513 0
M  V30 4407 H 456.061 -5.25759 -1.6817 0
M  V30 4408 H 458.537 -3.44458 -2.33426 0
M  V30 4409 H 457.413 -4.27989 -3.43681 0
M  V30 4410 H 457.674 -2.55153 -3.61039 0
M  V30 4411 N 456.733 0.527833 -1.48498 0
M  V30 4412 C 457.683 1.62844 -1.5958 0
M  V30 4413 C 458.667 1.54397 -0.452809 0
M  V30 4414 O 459.859 1.62381 -0.704364 0
M  V30 4415 C 456.988 3.01557 -1.64067 0
M  V30 4416 C 456.074 3.151 -2.83853 0
M  V30 4417 N 456.465 2.9861 -4.08247 0
M  V30 4418 C 454.763 3.46158 -2.8123 0
M  V30 4419 C 455.464 3.15626 -4.88626 0
M  V30 4420 N 454.44 3.43298 -4.21483 0
M  V30 4421 H 458.242 1.48708 -2.53502 0
M  V30 4422 H 455.756 0.733343 -1.44899 0
M  V30 4423 H 457.753 3.8062 -1.70101 0
M  V30 4424 H 456.413 3.16783 -0.712636 0
M  V30 4425 H 457.424 2.75329 -4.3865 0
M  V30 4426 H 454.101 3.67728 -1.97692 0
M  V30 4427 H 455.491 3.07596 -5.97356 0
M  V30 4428 N 458.211 1.37122 0.776871 0
M  V30 4429 C 459.121 1.34651 1.9211 0
M  V30 4430 C 460.137 0.246824 1.7224 0
M  V30 4431 O 461.313 0.48134 1.95563 0
M  V30 4432 C 458.378 1.14748 3.2716 0
M  V30 4433 C 457.439 2.34308 3.5972 0
M  V30 4434 C 456.672 2.15345 4.88326 0
M  V30 4435 O 456.895 1.13507 5.58992 0
M  V30 4436 O 455.829 3.03414 5.1983 0
M  V30 4437 H 459.655 2.31013 1.97146 0
M  V30 4438 H 457.24 1.17799 0.918901 0
M  V30 4439 H 459.122 1.05616 4.0795 0
M  V30 4440 H 457.797 0.214562 3.22988 0
M  V30 4441 H 456.704 2.49011 2.79185 0
M  V30 4442 H 458.037 3.26149 3.68629 0
M  V30 4443 N 459.689 -1.00246 1.21608 0
M  V30 4444 C 461.105 -1.26435 0.973975 0
M  V30 4445 C 461.305 -1.98642 -0.338143 0
M  V30 4446 O 460.361 -2.29026 -1.06317 0
M  V30 4447 C 461.674 -2.08551 2.16626 0
M  V30 4448 C 463.222 -2.21769 2.20879 0
M  V30 4449 C 463.697 -3.07267 3.39633 0
M  V30 4450 N 465.188 -3.14855 3.39736 0
M  V30 4451 C 465.923 -3.81274 4.28273 0
M  V30 4452 N 465.419 -4.497 5.27012 0
M  V30 4453 N 467.212 -3.7794 4.16074 0
M  V30 4454 H 459.363 -0.518089 2.05984 0
M  V30 4455 H 461.626 -0.291368 0.902113 0
M  V30 4456 H 461.332 -1.62847 3.11727 0
M  V30 4457 H 461.206 -3.09303 2.15897 0
M  V30 4458 H 463.593 -2.66691 1.26332 0
M  V30 4459 H 463.674 -1.20478 2.25652 0
M  V30 4460 H 463.318 -2.63047 4.34475 0
M  V30 4461 H 463.248 -4.08678 3.321 0
M  V30 4462 H 465.739 -2.66147 2.6828 0
M  V30 4463 H 466.052 -4.98092 5.90867 0
M  V30 4464 H 464.397 -4.48479 5.30935 0
M  V30 4465 H 467.588 -3.23638 3.38195 0
M  V30 4466 H 467.761 -4.29424 4.85282 0
M  V30 4467 N 461.167 -1.02423 -1.1978 0
M  V30 4468 C 462.13 -0.605703 -2.21052 0
M  V30 4469 C 463.13 0.328209 -1.57415 0
M  V30 4470 O 464.32 0.115853 -1.73814 0
M  V30 4471 C 461.452 0.114366 -3.40708 0
M  V30 4472 H 462.645 -1.5017 -2.59594 0
M  V30 4473 H 460.198 -0.814888 -1.33376 0
M  V30 4474 H 460.933 1.02492 -3.07678 0
M  V30 4475 H 460.718 -0.556641 -3.88129 0
M  V30 4476 H 462.208 0.394272 -4.15735 0
M  V30 4477 N 462.645 1.35699 -0.801477 0
M  V30 4478 C 463.891 1.99208 -0.380022 0
M  V30 4479 C 464.224 1.63445 1.04878 0
M  V30 4480 O 463.499 0.895223 1.72673 0
M  V30 4481 C 463.782 3.55755 -0.557708 0
M  V30 4482 C 463.635 4.01332 -2.03107 0
M  V30 4483 C 464.954 4.40096 0.0197968 0
M  V30 4484 H 462.073 0.723667 -0.139552 0
M  V30 4485 H 464.715 1.60928 -1.01006 0
M  V30 4486 H 462.865 3.88494 -0.0213741 0
M  V30 4487 H 464.537 3.79026 -2.62939 0
M  V30 4488 H 462.78 3.52429 -2.52936 0
M  V30 4489 H 463.451 5.10234 -2.1063 0
M  V30 4490 H 465.927 4.13786 -0.438179 0
M  V30 4491 H 464.803 5.48735 -0.134477 0
M  V30 4492 H 465.064 4.2786 1.11303 0
M  V30 4493 N 464.123 0.554532 1.47522 0
M  V30 4494 C 465.086 -0.184174 2.28459 0
M  V30 4495 C 466.086 -0.845195 1.36796 0
M  V30 4496 O 467.276 -0.701467 1.59452 0
M  V30 4497 C 464.408 -1.26903 3.16399 0
M  V30 4498 H 465.601 0.526751 2.95238 0
M  V30 4499 H 463.154 0.311375 1.53167 0
M  V30 4500 H 463.889 -2.01244 2.54306 0
M  V30 4501 H 463.674 -0.799883 3.83854 0
M  V30 4502 H 465.164 -1.78794 3.77389 0
M  V30 4503 N 465.601 -1.54893 0.290851 0
M  V30 4504 C 466.85 -1.99111 -0.322113 0
M  V30 4505 C 467.163 -1.18283 -1.55784 0
M  V30 4506 O 468.369 -1.5272 -2.24475 0
M  V30 4507 C 466.825 -3.54442 -0.624438 0
M  V30 4508 C 466.433 -4.44066 0.592373 0
M  V30 4509 C 468.177 -4.07211 -1.19916 0
M  V30 4510 C 466.084 -5.90812 0.263762 0
M  V30 4511 H 465.014 -0.743712 -0.124133 0
M  V30 4512 H 467.665 -1.79132 0.39797 0
M  V30 4513 H 466.047 -3.70281 -1.40384 0
M  V30 4514 H 467.221 -4.39999 1.36886 0
M  V30 4515 H 465.536 -4.02015 1.08502 0
M  V30 4516 H 468.133 -5.14407 -1.45909 0
M  V30 4517 H 468.476 -3.57196 -2.13815 0
M  V30 4518 H 469.009 -3.94873 -0.481687 0
M  V30 4519 H 465.748 -6.44955 1.17105 0
M  V30 4520 H 465.268 -5.97911 -0.475655 0
M  V30 4521 H 466.947 -6.46852 -0.138354 0
M  V30 4522 N 467.08 -0.0183926 -1.57589 0
M  V30 4523 C 468.328 0.661253 -1.90976 0
M  V30 4524 C 468.649 1.73281 -0.894353 0
M  V30 4525 O 467.919 1.9579 0.0656788 0
M  V30 4526 H 466.499 0.247233 -0.704901 0
M  V30 4527 H 469.161 -0.0636639 -1.94796 0
M  V30 4528 H 468.257 1.12083 -2.9128 0
M  V30 4529 N 468.558 1.5553 0.254621 0
M  V30 4530 C 469.835 1.6774 1.00611 0
M  V30 4531 C 470.215 0.555993 2.03647 0
M  V30 4532 O 469.563 -0.441583 2.24193 0
M  V30 4533 C 469.773 3.07725 1.6464 0
M  V30 4534 C 471.121 3.66074 2.15116 0
M  V30 4535 O 472.145 3.10476 1.74595 0
M  V30 4536 O 471.004 4.63526 2.89493 0
M  V30 4537 H 468.098 0.681958 0.467828 0
M  V30 4538 H 470.644 1.67863 0.24902 0
M  V30 4539 H 469.416 3.80792 0.900734 0
M  V30 4540 H 469.039 3.1158 2.46989 0
M  V30 4541 N 470.036 -0.519951 1.48776 0
M  V30 4542 C 471.264 -1.29971 1.60982 0
M  V30 4543 C 471.679 -1.86803 0.273885 0
M  V30 4544 O 471.036 -1.66904 -0.738193 0
M  V30 4545 C 471.087 -2.44346 2.66415 0
M  V30 4546 O 470.808 -1.89855 3.94825 0
M  V30 4547 C 472.309 -3.36014 2.89153 0
M  V30 4548 H 469.529 -0.394891 0.542496 0
M  V30 4549 H 472.073 -0.626214 1.94676 0
M  V30 4550 H 470.228 -3.07562 2.35552 0
M  V30 4551 H 470.642 -2.64798 4.5275 0
M  V30 4552 H 472.116 -4.12593 3.66703 0
M  V30 4553 H 472.593 -3.91859 1.98351 0
M  V30 4554 H 473.199 -2.78582 3.21359 0
M  V30 4555 N 471.514 -1.37532 -0.769588 0
M  V30 4556 C 472.444 -1.36172 -1.89682 0
M  V30 4557 C 473.425 -0.23001 -1.68538 0
M  V30 4558 O 474.61 -0.43069 -1.89364 0
M  V30 4559 C 471.74 -1.1701 -3.26995 0
M  V30 4560 C 470.694 -2.27216 -3.62708 0
M  V30 4561 C 470.02 -1.93174 -4.98586 0
M  V30 4562 C 471.32 -3.6941 -3.69234 0
M  V30 4563 H 473.014 -2.30499 -1.91078 0
M  V30 4564 H 470.56 -1.10953 -0.917902 0
M  V30 4565 H 472.513 -1.14688 -4.05493 0
M  V30 4566 H 471.237 -0.191395 -3.26039 0
M  V30 4567 H 469.896 -2.28697 -2.86519 0
M  V30 4568 H 469.544 -0.938281 -4.94171 0
M  V30 4569 H 469.244 -2.66973 -5.23449 0
M  V30 4570 H 470.768 -1.92443 -5.79481 0
M  V30 4571 H 472.182 -3.70047 -4.37879 0
M  V30 4572 H 470.579 -4.4228 -4.05597 0
M  V30 4573 H 471.649 -4.0288 -2.69844 0
M  V30 4574 N 472.992 0.995999 -1.22138 0
M  V30 4575 C 473.94 2.10673 -0.985876 0
M  V30 4576 C 474.934 1.69255 0.0699553 0
M  V30 4577 O 476.14 1.79812 -0.0822176 0
M  V30 4578 H 472.515 0.688865 -0.30161 0
M  V30 4579 H 474.486 2.27711 -1.92848 0
M  V30 4580 C 473.235 3.42881 -0.576909 0
M  V30 4581 H 472.558 3.75191 -1.38101 0
M  V30 4582 H 473.998 4.21589 -0.451518 0
M  V30 4583 C 472.457 3.29265 0.713196 0
M  V30 4584 O 472.987 3.60777 1.76643 0
M  V30 4585 N 471.193 2.82456 0.683162 0
M  V30 4586 H 470.74 2.5701 -0.174242 0
M  V30 4587 H 470.698 2.73727 1.54663 0
M  V30 4588 N 474.47 1.03057 1.19235 0
M  V30 4589 C 475.402 0.570932 2.21975 0
M  V30 4590 C 476.415 -0.354088 1.58903 0
M  V30 4591 O 477.604 -0.150211 1.77867 0
M  V30 4592 C 474.704 -0.187152 3.38383 0
M  V30 4593 C 473.877 0.743231 4.31039 0
M  V30 4594 C 472.936 0.0302493 5.26191 0
M  V30 4595 O 471.962 0.657371 5.65391 0
M  V30 4596 N 473.164 -1.23991 5.67104 0
M  V30 4597 H 475.929 1.45456 2.62036 0
M  V30 4598 H 473.49 0.909807 1.33918 0
M  V30 4599 H 475.482 -0.673715 3.99053 0
M  V30 4600 H 474.052 -0.972205 2.97098 0
M  V30 4601 H 473.272 1.40985 3.68126 0
M  V30 4602 H 474.56 1.3755 4.89854 0
M  V30 4603 H 473.958 -1.77011 5.37293 0
M  V30 4604 H 472.515 -1.67093 6.30018 0
M  V30 4605 N 475.948 -1.35272 0.808662 0
M  V30 4606 C 477.194 -1.99003 0.390581 0
M  V30 4607 C 477.527 -1.63999 -1.0401 0
M  V30 4608 O 476.802 -0.904368 -1.72196 0
M  V30 4609 C 477.085 -3.55454 0.576566 0
M  V30 4610 C 476.938 -4.00249 2.05233 0
M  V30 4611 C 478.257 -4.401 0.00354277 0
M  V30 4612 H 475.376 -0.722917 0.143388 0
M  V30 4613 H 478.018 -1.6039 1.01858 0
M  V30 4614 H 476.168 -3.88477 0.0419766 0
M  V30 4615 H 477.84 -3.77626 2.64946 0
M  V30 4616 H 476.083 -3.51082 2.54801 0
M  V30 4617 H 476.754 -5.0911 2.13333 0
M  V30 4618 H 479.23 -4.13548 0.460117 0
M  V30 4619 H 478.106 -5.48656 0.163575 0
M  V30 4620 H 478.367 -4.28444 -1.09032 0
M  V30 4621 N 477.426 -0.562348 -1.47226 0
M  V30 4622 C 478.673 -0.0402165 -2.0246 0
M  V30 4623 C 479.001 1.31169 -1.43614 0
M  V30 4624 O 478.256 1.86805 -0.5833 0
M  V30 4625 C 478.555 0.0969817 -3.57268 0
M  V30 4626 C 478.221 -1.1847 -4.35058 0
M  V30 4627 C 476.883 -1.53588 -4.56031 0
M  V30 4628 C 479.235 -2.03378 -4.79882 0
M  V30 4629 C 476.563 -2.73452 -5.19077 0
M  V30 4630 C 478.915 -3.2245 -5.44251 0
M  V30 4631 C 477.579 -3.57876 -5.63455 0
M  V30 4632 H 476.849 -0.0147163 -0.740854 0
M  V30 4633 H 479.496 -0.734895 -1.76838 0
M  V30 4634 H 477.801 0.87466 -3.81912 0
M  V30 4635 H 479.498 0.516408 -3.97661 0
M  V30 4636 H 476.088 -0.90126 -4.19017 0
M  V30 4637 H 480.272 -1.77553 -4.63453 0
M  V30 4638 H 475.528 -3.01062 -5.32139 0
M  V30 4639 H 479.702 -3.88526 -5.77945 0
M  V30 4640 H 477.329 -4.50849 -6.12078 0
M  V30 4641 N 478.904 1.54736 -0.299062 0
M  V30 4642 C 479.814 2.27127 0.587413 0
M  V30 4643 C 480.83 1.30575 1.15005 0
M  V30 4644 O 482.006 1.63554 1.17525 0
M  V30 4645 C 479.071 2.99645 1.74395 0
M  V30 4646 C 478.132 4.11731 1.21559 0
M  V30 4647 C 477.365 4.80781 2.317 0
M  V30 4648 O 477.588 4.4918 3.51558 0
M  V30 4649 O 476.522 5.68226 1.98501 0
M  V30 4650 H 480.348 3.037 0.000250109 0
M  V30 4651 H 477.933 1.49256 -0.0655919 0
M  V30 4652 H 479.815 3.45138 2.4178 0
M  V30 4653 H 478.49 2.25969 2.31775 0
M  V30 4654 H 477.397 3.70641 0.507514 0
M  V30 4655 H 478.73 4.87379 0.687233 0
M  V30 4656 N 480.382 0.0267497 1.57577 0
M  V30 4657 C 481.631 -0.651736 1.9088 0
M  V30 4658 C 481.944 -1.73427 0.904576 0
M  V30 4659 O 483.15 -2.46923 1.12877 0
M  V30 4660 C 481.606 -1.21048 3.38933 0
M  V30 4661 C 481.214 -0.161362 4.47709 0
M  V30 4662 C 482.958 -1.86562 3.81307 0
M  V30 4663 C 480.865 -0.731611 5.86857 0
M  V30 4664 H 479.795 -0.247198 0.712326 0
M  V30 4665 H 482.446 0.0916641 1.83271 0
M  V30 4666 H 480.828 -2.00542 3.41466 0
M  V30 4667 H 482.002 0.61094 4.56732 0
M  V30 4668 H 480.317 0.394877 4.14523 0
M  V30 4669 H 482.914 -2.30178 4.8262 0
M  V30 4670 H 483.257 -2.70735 3.16241 0
M  V30 4671 H 483.79 -1.13762 3.81186 0
M  V30 4672 H 480.529 0.0719329 6.55461 0
M  V30 4673 H 480.049 -1.47245 5.81445 0
M  V30 4674 H 481.728 -1.22208 6.35354 0
M  V30 4675 N 481.861 -1.55662 -0.24637 0
M  V30 4676 C 483.086 -1.81914 -0.996093 0
M  V30 4677 C 483.511 -0.603875 -1.78143 0
M  V30 4678 O 482.869 0.447091 -1.75701 0
M  V30 4679 C 482.917 -3.05908 -1.90925 0
M  V30 4680 O 482.021 -2.82861 -3.00105 0
M  V30 4681 H 481.362 -0.600481 -0.283406 0
M  V30 4682 H 483.892 -2.02848 -0.267199 0
M  V30 4683 H 483.902 -3.35356 -2.3238 0
M  V30 4684 H 482.577 -3.93999 -1.33183 0
M  V30 4685 H 481.154 -2.64583 -2.62775 0
M  V30 4686 N 483.339 0.512053 -1.4905 0
M  V30 4687 C 484.616 1.27337 -1.48474 0
M  V30 4688 C 484.996 2.1009 -0.206301 0
M  V30 4689 O 484.344 2.136 0.811609 0
M  V30 4690 C 484.554 2.13954 -2.75726 0
M  V30 4691 C 485.902 2.73507 -3.24776 0
M  V30 4692 O 486.926 2.24229 -2.76767 0
M  V30 4693 O 485.785 3.63186 -4.08361 0
M  V30 4694 H 482.879 0.575652 -0.593762 0
M  V30 4695 H 485.425 0.527232 -1.61302 0
M  V30 4696 H 484.197 1.52709 -3.60272 0
M  V30 4697 H 483.82 2.95782 -2.65705 0
M  V30 4698 N 484.817 1.37938 0.762283 0
M  V30 4699 C 485.765 1.34569 1.89721 0
M  V30 4700 C 486.759 0.232929 1.67791 0
M  V30 4701 O 487.965 0.401485 1.75465 0
M  V30 4702 H 484.34 0.419594 0.624055 0
M  V30 4703 H 486.311 2.30357 1.8968 0
M  V30 4704 C 485.06 1.17898 3.27101 0
M  V30 4705 H 484.383 2.02781 3.44558 0
M  V30 4706 H 485.823 1.19593 4.06784 0
M  V30 4707 C 484.282 -0.114728 3.36705 0
M  V30 4708 O 484.812 -1.0949 3.8649 0
M  V30 4709 N 483.018 -0.16863 2.9011 0
M  V30 4710 H 482.565 0.62967 2.49786 0
M  V30 4711 H 482.523 -1.03383 2.96916 0
M  V30 4712 N 486.295 -0.989507 1.22664 0
M  V30 4713 C 487.572 -1.70326 0.961688 0
M  V30 4714 C 487.952 -2.04537 -0.522279 0
M  V30 4715 O 487.3 -1.73136 -1.49118 0
M  V30 4716 C 487.51 -2.95135 1.86269 0
M  V30 4717 C 488.858 -3.67842 2.12078 0
M  V30 4718 O 489.882 -3.0515 1.83745 0
M  V30 4719 O 488.741 -4.80644 2.60083 0
M  V30 4720 H 485.835 -0.743589 0.361946 0
M  V30 4721 H 488.381 -1.04555 1.33665 0
M  V30 4722 H 487.153 -2.66382 2.8663 0
M  V30 4723 H 486.776 -3.68645 1.48952 0
M  V30 4724 N 487.773 -1.03688 -1.18687 0
M  V30 4725 C 489.021 -0.736572 -1.88199 0
M  V30 4726 C 489.342 0.737665 -1.80509 0
M  V30 4727 O 488.612 1.53204 -1.22088 0
M  V30 4728 H 487.192 -0.269466 -0.696704 0
M  V30 4729 H 489.854 -1.31282 -1.44052 0
M  V30 4730 H 488.95 -1.03802 -2.94332 0
M  V30 4731 N 489.251 1.34841 -0.815825 0
M  V30 4732 C 490.497 1.98793 -0.401129 0
M  V30 4733 C 490.83 1.64548 1.03139 0
M  V30 4734 O 490.105 0.913487 1.71714 0
M  V30 4735 C 490.388 3.55143 -0.595409 0
M  V30 4736 C 490.241 3.99155 -2.07352 0
M  V30 4737 C 491.56 4.40092 -0.0268823 0
M  V30 4738 H 488.679 0.722146 -0.14722 0
M  V30 4739 H 491.321 1.59847 -1.02707 0
M  V30 4740 H 489.471 3.8845 -0.0625779 0
M  V30 4741 H 491.143 3.76216 -2.66945 0
M  V30 4742 H 489.386 3.49726 -2.56659 0
M  V30 4743 H 490.057 5.07971 -2.1603 0
M  V30 4744 H 492.533 4.13298 -0.482042 0
M  V30 4745 H 491.409 5.48562 -0.19267 0
M  V30 4746 H 491.67 4.29016 1.06759 0
M  V30 4747 N 490.729 0.570148 1.46925 0
M  V30 4748 C 491.957 0.0561966 2.06824 0
M  V30 4749 C 492.372 -1.24326 1.42086 0
M  V30 4750 O 491.729 -1.74882 0.521794 0
M  V30 4751 C 491.78 -0.129517 3.61268 0
M  V30 4752 O 491.501 1.1185 4.23581 0
M  V30 4753 C 493.002 -0.679266 4.38065 0
M  V30 4754 H 490.222 0.0517261 0.669003 0
M  V30 4755 H 492.766 0.787243 1.8874 0
M  V30 4756 H 490.921 -0.810739 3.78822 0
M  V30 4757 H 491.335 0.924375 5.1629 0
M  V30 4758 H 492.809 -0.758445 5.46765 0
M  V30 4759 H 493.286 -1.69346 4.05239 0
M  V30 4760 H 493.892 -0.0333237 4.25287 0
M  V30 4761 N 492.207 -1.54576 0.307264 0
M  V30 4762 C 493.618 -1.8579 -0.184121 0
M  V30 4763 C 493.969 -1.22914 -1.52927 0
M  V30 4764 O 493.094 -0.529126 -2.09831 0
M  V30 4765 C 493.689 -3.37081 -0.340862 0
M  V30 4766 C 492.248 -3.68304 -0.776465 0
M  V30 4767 C 491.395 -2.77076 0.111503 0
M  V30 4768 H 494.346 -1.49656 0.528078 0
M  V30 4769 H 494.367 -3.61922 -1.17443 0
M  V30 4770 H 493.879 -3.82815 0.638309 0
M  V30 4771 H 491.98 -3.28092 -1.76596 0
M  V30 4772 H 492.093 -4.75434 -0.591512 0
M  V30 4773 H 490.457 -2.51374 -0.410256 0
M  V30 4774 H 491.24 -3.25632 1.08714 0
M  V30 4775 N 493.685 -0.035106 -1.57561 0
M  V30 4776 C 494.962 0.681212 -1.83354 0
M  V30 4777 C 495.342 1.89986 -0.920252 0
M  V30 4778 O 494.69 2.28489 0.0226815 0
M  V30 4779 C 494.9 1.05376 -3.32712 0
M  V30 4780 C 496.248 1.44286 -3.99333 0
M  V30 4781 O 497.272 1.14656 -3.37242 0
M  V30 4782 O 496.131 1.99518 -5.08778 0
M  V30 4783 H 493.225 0.334741 -0.756226 0
M  V30 4784 H 495.771 -0.0632448 -1.69582 0
M  V30 4785 H 494.543 0.186668 -3.90854 0
M  V30 4786 H 494.166 1.85619 -3.51613 0
M  V30 4787 N 495.163 1.55791 0.238111 0
M  V30 4788 C 496.073 1.94196 1.31625 0
M  V30 4789 C 497.089 0.843545 1.52185 0
M  V30 4790 O 498.265 1.1457 1.65637 0
M  V30 4791 C 495.33 2.2365 2.64918 0
M  V30 4792 C 494.391 3.46971 2.52804 0
M  V30 4793 C 493.624 3.7501 3.79741 0
M  V30 4794 O 493.847 3.04982 4.82019 0
M  V30 4795 O 492.781 4.68525 3.77846 0
M  V30 4796 H 496.607 2.86044 1.02043 0
M  V30 4797 H 494.192 1.42786 0.439603 0
M  V30 4798 H 496.074 2.43863 3.4367 0
M  V30 4799 H 494.749 1.34979 2.94215 0
M  V30 4800 H 493.656 3.32055 1.72309 0
M  V30 4801 H 494.989 4.35971 2.28451 0
M  V30 4802 N 496.642 -0.504142 1.49319 0
M  V30 4803 C 497.605 -1.5883 1.65244 0
M  V30 4804 C 498.605 -1.52009 0.524386 0
M  V30 4805 O 499.795 -1.55218 0.79077 0
M  V30 4806 C 496.927 -2.98481 1.64687 0
M  V30 4807 H 498.12 -1.4604 2.61939 0
M  V30 4808 H 495.673 -0.728144 1.38303 0
M  V30 4809 H 496.408 -3.16751 0.695644 0
M  V30 4810 H 496.193 -3.0484 2.46607 0
M  V30 4811 H 497.683 -3.77256 1.79075 0
M  V30 4812 N 498.12 -1.38341 -0.754957 0
M  V30 4813 C 499.083 -1.35262 -1.85032 0
M  V30 4814 C 500.083 -0.253393 -1.58791 0
M  V30 4815 O 501.273 -0.510205 -1.66561 0
M  V30 4816 C 498.405 -1.10544 -3.22479 0
M  V30 4817 H 499.598 -2.32712 -1.8917 0
M  V30 4818 H 497.151 -1.23614 -0.956515 0
M  V30 4819 H 497.886 -0.136952 -3.24011 0
M  V30 4820 H 497.671 -1.90127 -3.4292 0
M  V30 4821 H 499.161 -1.11082 -4.02555 0
M  V30 4822 N 499.598 0.982988 -1.23187 0
M  V30 4823 C 501.014 1.2487 -0.993967 0
M  V30 4824 C 501.214 1.99155 0.306498 0
M  V30 4825 O 500.27 2.30688 1.0266 0
M  V30 4826 C 501.583 2.05078 -2.19917 0
M  V30 4827 C 503.131 2.18227 -2.2438 0
M  V30 4828 C 503.606 3.01825 -3.44479 0
M  V30 4829 N 505.097 3.09411 -3.44702 0
M  V30 4830 C 505.832 3.74412 -4.34285 0
M  V30 4831 N 505.328 4.41259 -5.341 0
M  V30 4832 N 507.121 3.71273 -4.22035 0
M  V30 4833 H 499.272 0.485253 -2.06783 0
M  V30 4834 H 501.535 0.276979 -0.906635 0
M  V30 4835 H 501.241 1.57867 -3.14279 0
M  V30 4836 H 501.115 3.05829 -2.2079 0
M  V30 4837 H 503.502 2.64648 -1.30559 0
M  V30 4838 H 503.583 1.16873 -2.2754 0
M  V30 4839 H 503.227 2.56102 -4.38605 0
M  V30 4840 H 503.157 4.03342 -3.38559 0
M  V30 4841 H 505.648 2.61845 -2.7248 0
M  V30 4842 H 505.961 4.88629 -5.98717 0
M  V30 4843 H 504.306 4.39975 -5.38002 0
M  V30 4844 H 507.497 3.18217 -3.43301 0
M  V30 4845 H 507.67 4.21649 -4.92053 0
M  V30 4846 N 501.076 1.04316 1.18135 0
M  V30 4847 C 502.304 0.768117 1.92113 0
M  V30 4848 C 502.719 -0.675057 1.76319 0
M  V30 4849 O 502.076 -1.46038 1.09449 0
M  V30 4850 C 502.127 1.12808 3.43448 0
M  V30 4851 O 501.848 2.5146 3.58747 0
M  V30 4852 C 503.349 0.8779 4.3452 0
M  V30 4853 H 500.569 0.279937 0.609817 0
M  V30 4854 H 503.113 1.39149 1.49859 0
M  V30 4855 H 501.268 0.549623 3.83481 0
M  V30 4856 H 501.682 2.65313 4.52448 0
M  V30 4857 H 503.156 1.17959 5.39249 0
M  V30 4858 H 503.633 -0.187239 4.38801 0
M  V30 4859 H 504.239 1.43977 4.00188 0
M  V30 4860 N 502.554 -1.34406 0.822964 0
M  V30 4861 C 503.484 -2.32052 0.259608 0
M  V30 4862 C 504.465 -1.58243 -0.623961 0
M  V30 4863 O 505.65 -1.86224 -0.55083 0
M  V30 4864 C 502.78 -3.42434 -0.579314 0
M  V30 4865 C 501.734 -4.27499 0.20712 0
M  V30 4866 C 501.06 -5.29349 -0.754547 0
M  V30 4867 C 502.36 -5.02758 1.41533 0
M  V30 4868 H 504.054 -2.79418 1.07545 0
M  V30 4869 H 501.6 -1.34338 0.518593 0
M  V30 4870 H 503.553 -4.0976 -0.983612 0
M  V30 4871 H 502.277 -2.93717 -1.4282 0
M  V30 4872 H 500.936 -3.61776 0.592787 0
M  V30 4873 H 500.584 -4.76895 -1.59939 0
M  V30 4874 H 500.284 -5.8714 -0.232561 0
M  V30 4875 H 501.808 -5.99544 -1.1567 0
M  V30 4876 H 503.222 -5.62938 1.08504 0
M  V30 4877 H 501.619 -5.70123 1.87296 0
M  V30 4878 H 502.689 -4.32451 2.1935 0
M  V30 4879 N 504.032 -0.577932 -1.46621 0
M  V30 4880 C 504.995 0.147805 -2.28723 0
M  V30 4881 C 505.995 0.823325 -1.38123 0
M  V30 4882 O 507.185 0.676011 -1.60548 0
M  V30 4883 C 504.317 1.21853 -3.18378 0
M  V30 4884 H 505.51 -0.573654 -2.94362 0
M  V30 4885 H 503.063 -0.335703 -1.52652 0
M  V30 4886 H 503.798 1.97173 -2.57475 0
M  V30 4887 H 503.583 0.738714 -3.85078 0
M  V30 4888 H 505.073 1.72768 -3.80186 0
M  V30 4889 N 505.51 1.54411 -0.315457 0
M  V30 4890 C 506.758 2.00023 0.288971 0
M  V30 4891 C 507.079 1.20529 1.5329 0
M  V30 4892 O 506.349 0.304986 1.93511 0
M  V30 4893 H 504.929 0.738891 0.109766 0
M  V30 4894 H 507.591 1.90094 -0.430129 0
M  V30 4895 H 506.687 3.07198 0.550999 0
M  V30 4896 N 506.988 0.0434614 1.5754 0
M  V30 4897 C 508.404 -0.313039 1.565 0
M  V30 4898 C 508.604 -1.71954 1.05043 0
M  V30 4899 O 507.66 -2.425 0.703564 0
M  V30 4900 C 508.973 -0.148544 3.00333 0
M  V30 4901 C 510.521 -0.220231 3.12224 0
M  V30 4902 C 510.996 -0.0843565 4.57922 0
M  V30 4903 N 512.487 -0.140881 4.62986 0
M  V30 4904 C 513.222 -0.0597443 5.73369 0
M  V30 4905 N 512.718 0.0733004 6.92761 0
M  V30 4906 N 514.511 -0.11477 5.61983 0
M  V30 4907 H 506.662 0.96303 1.89313 0
M  V30 4908 H 508.925 0.373164 0.871466 0
M  V30 4909 H 508.631 0.820894 3.41986 0
M  V30 4910 H 508.505 -0.912798 3.65989 0
M  V30 4911 H 510.892 -1.18014 2.70475 0
M  V30 4912 H 510.973 0.574646 2.49262 0
M  V30 4913 H 510.617 0.872192 5.00355 0
M  V30 4914 H 510.547 -0.898281 5.18882 0
M  V30 4915 H 513.038 -0.243273 3.77116 0
M  V30 4916 H 513.351 0.128128 7.72694 0
M  V30 4917 H 511.696 0.10828 6.94916 0
M  V30 4918 H 514.887 -0.217212 4.67596 0
M  V30 4919 H 515.06 -0.0480779 6.47982 0
M  V30 4920 N 508.466 -1.55915 -0.229846 0
M  V30 4921 C 509.882 -1.48721 -0.579166 0
M  V30 4922 C 510.082 -0.736976 -1.87539 0
M  V30 4923 O 509.138 -0.273258 -2.51017 0
M  V30 4924 C 510.451 -2.9323 -0.666082 0
M  V30 4925 C 511.999 -3.03701 -0.757267 0
M  V30 4926 C 512.474 -4.49552 -0.8756 0
M  V30 4927 N 513.965 -4.53561 -0.940035 0
M  V30 4928 C 514.7 -5.63683 -1.05116 0
M  V30 4929 N 514.196 -6.83576 -1.12675 0
M  V30 4930 N 515.989 -5.51516 -1.08565 0
M  V30 4931 H 508.14 -2.03123 0.620857 0
M  V30 4932 H 510.403 -0.922898 0.21671 0
M  V30 4933 H 510.109 -3.51032 0.21664 0
M  V30 4934 H 509.983 -3.44668 -1.53243 0
M  V30 4935 H 512.37 -2.45969 -1.63043 0
M  V30 4936 H 512.451 -2.55446 0.134583 0
M  V30 4937 H 512.095 -5.079 -0.00692351 0
M  V30 4938 H 512.025 -4.95506 -1.78274 0
M  V30 4939 H 514.516 -3.67215 -0.892269 0
M  V30 4940 H 514.829 -7.63251 -1.21109 0
M  V30 4941 H 513.174 -6.86303 -1.09603 0
M  V30 4942 H 516.365 -4.5678 -1.02319 0
M  V30 4943 H 516.538 -6.37372 -1.1688 0
M  V30 4944 N 509.944 0.496216 -1.49584 0
M  V30 4945 C 510.907 1.57952 -1.66084 0
M  V30 4946 C 511.907 1.51729 -0.53244 0
M  V30 4947 O 513.097 1.54796 -0.79899 0
M  V30 4948 C 510.229 2.97604 -1.66268 0
M  V30 4949 H 511.422 1.44649 -2.6271 0
M  V30 4950 H 508.975 0.7208 -1.38687 0
M  V30 4951 H 509.71 3.16378 -0.712432 0
M  V30 4952 H 509.495 3.03528 -2.4822 0
M  V30 4953 H 510.985 3.76301 -1.81073 0
M  V30 4954 N 511.423 1.38739 0.74761 0
M  V30 4955 C 512.839 1.20067 1.05148 0
M  V30 4956 C 513.039 0.0534835 2.01429 0
M  V30 4957 O 512.095 -0.59886 2.45296 0
M  V30 4958 C 513.408 2.52957 1.62584 0
M  V30 4959 C 514.956 2.59692 1.74726 0
M  V30 4960 C 515.431 3.92772 2.35573 0
M  V30 4961 N 516.922 3.94343 2.42997 0
M  V30 4962 C 517.657 4.9408 2.90985 0
M  V30 4963 N 517.153 6.04214 3.38965 0
M  V30 4964 N 518.946 4.81466 2.9008 0
M  V30 4965 H 511.097 2.12121 0.108808 0
M  V30 4966 H 513.36 0.941491 0.110899 0
M  V30 4967 H 513.066 3.37389 0.993051 0
M  V30 4968 H 512.94 2.71779 2.61565 0
M  V30 4969 H 515.327 1.75651 2.3713 0
M  V30 4970 H 515.408 2.44731 0.744326 0
M  V30 4971 H 515.052 4.77238 1.738 0
M  V30 4972 H 514.982 4.05046 3.36519 0
M  V30 4973 H 517.473 3.14799 2.0907 0
M  V30 4974 H 517.786 6.76241 3.74056 0
M  V30 4975 H 516.131 6.07825 3.37007 0
M  V30 4976 H 519.322 3.94535 2.51912 0
M  V30 4977 H 519.495 5.59344 3.27166 0
M  V30 4978 N 512.901 -0.976442 1.23707 0
M  V30 4979 C 513.811 -2.10359 1.03856 0
M  V30 4980 C 514.827 -1.73991 -0.0180919 0
M  V30 4981 O 516.003 -2.0061 0.178211 0
M  V30 4982 C 513.068 -3.40809 0.636387 0
M  V30 4983 C 512.129 -3.91179 1.76854 0
M  V30 4984 C 511.362 -5.15404 1.38546 0
M  V30 4985 O 511.585 -5.69754 0.27142 0
M  V30 4986 O 510.519 -5.5994 2.20797 0
M  V30 4987 H 514.345 -2.29997 1.98331 0
M  V30 4988 H 511.93 -1.08742 1.02448 0
M  V30 4989 H 513.812 -4.19269 0.423223 0
M  V30 4990 H 512.487 -3.22493 -0.279322 0
M  V30 4991 H 511.394 -3.13819 2.03638 0
M  V30 4992 H 512.727 -4.13958 2.6627 0
M  V30 4993 N 514.379 -1.04941 -1.1758 0
M  V30 4994 C 515.342 -0.652456 -2.19717 0
M  V30 4995 C 516.342 0.294745 -1.58076 0
M  V30 4996 O 517.532 0.0789579 -1.74021 0
M  V30 4997 C 514.664 0.0420712 -3.40874 0
M  V30 4998 H 515.857 -1.55642 -2.5635 0
M  V30 4999 H 513.41 -0.842995 -1.31618 0
M  V30 5000 H 514.145 0.95943 -3.09783 0
M  V30 5001 H 513.93 -0.638844 -3.86861 0
M  V30 5002 H 515.42 0.306 -4.16477 0
M  V30 5003 N 515.857 1.33968 -0.830081 0
M  V30 5004 C 517.082 2.02813 -0.433796 0
M  V30 5005 C 517.507 1.62076 0.954614 0
M  V30 5006 O 516.865 0.808955 1.62252 0
M  V30 5007 C 516.913 3.56348 -0.552115 0
M  V30 5008 O 516.017 4.10202 0.425191 0
M  V30 5009 H 515.358 0.639817 -0.177567 0
M  V30 5010 H 517.888 1.7106 -1.12248 0
M  V30 5011 H 517.898 4.05722 -0.430513 0
M  V30 5012 H 516.573 3.85344 -1.56471 0
M  V30 5013 H 515.15 3.71979 0.261878 0
M  V30 5014 N 517.335 0.585699 1.46312 0
M  V30 5015 C 518.563 0.0781299 2.06752 0
M  V30 5016 C 518.978 -1.22812 1.43396 0
M  V30 5017 O 518.335 -1.74318 0.540314 0
M  V30 5018 C 518.386 -0.0911927 3.61385 0
M  V30 5019 O 518.107 1.16336 4.22371 0
M  V30 5020 C 519.608 -0.632765 4.38761 0
M  V30 5021 H 516.828 0.0588188 0.668417 0
M  V30 5022 H 519.372 0.807218 1.87894 0
M  V30 5023 H 517.527 -0.770514 3.7966 0
M  V30 5024 H 517.941 0.979082 5.15281 0
M  V30 5025 H 519.415 -0.70041 5.47538 0
M  V30 5026 H 519.892 -1.65039 4.07012 0
M  V30 5027 H 520.498 0.0117856 4.25298 0
M  V30 5028 N 518.813 -1.54241 0.323641 0
M  V30 5029 C 520.041 -2.04985 -0.280871 0
M  V30 5030 C 520.456 -1.19978 -1.45777 0
M  V30 5031 O 519.813 -0.230471 -1.81039 0
M  V30 5032 C 519.864 -3.54353 -0.715258 0
M  V30 5033 O 519.585 -4.36132 0.414817 0
M  V30 5034 C 521.086 -4.21189 -1.38257 0
M  V30 5035 H 518.306 -0.66851 -0.0577502 0
M  V30 5036 H 520.85 -1.99029 0.469852 0
M  V30 5037 H 519.005 -3.60596 -1.41596 0
M  V30 5038 H 519.419 -5.2445 0.0725227 0
M  V30 5039 H 520.893 -5.27154 -1.63745 0
M  V30 5040 H 521.37 -3.72307 -2.32989 0
M  V30 5041 H 521.976 -4.19085 -0.724447 0
M  V30 5042 N 520.291 -0.0518155 -1.57515 0
M  V30 5043 C 521.519 0.631395 -1.9703 0
M  V30 5044 C 521.934 1.64341 -0.92938 0
M  V30 5045 O 521.291 1.82296 0.0863266 0
M  V30 5046 C 521.342 1.31774 -3.36627 0
M  V30 5047 O 521.063 0.346247 -4.3673 0
M  V30 5048 C 522.564 2.09065 -3.90905 0
M  V30 5049 H 519.784 0.172576 -0.648428 0
M  V30 5050 H 522.328 -0.118306 -2.04158 0
M  V30 5051 H 520.483 2.01867 -3.30649 0
M  V30 5052 H 520.897 0.836226 -5.17791 0
M  V30 5053 H 522.371 2.52508 -4.9086 0
M  V30 5054 H 522.848 2.93908 -3.26366 0
M  V30 5055 H 523.454 1.43882 -4.00223 0
M  V30 5056 N 521.769 1.56035 0.221574 0
M  V30 5057 C 522.732 1.91584 1.2581 0
M  V30 5058 C 523.732 0.794425 1.39805 0
M  V30 5059 O 524.922 1.06217 1.38071 0
M  V30 5060 C 522.054 2.16663 2.63192 0
M  V30 5061 H 523.247 2.8429 0.954935 0
M  V30 5062 H 520.8 1.49316 0.461988 0
M  V30 5063 H 521.535 1.26508 2.98607 0
M  V30 5064 H 521.32 2.98358 2.5441 0
M  V30 5065 H 522.81 2.45262 3.37988 0
M  V30 5066 N 523.247 -0.488276 1.49845 0
M  V30 5067 C 524.475 -1.26527 1.63702 0
M  V30 5068 C 524.89 -1.8618 0.313447 0
M  V30 5069 O 524.247 -1.68432 -0.702624 0
M  V30 5070 C 524.298 -2.3864 2.71538 0
M  V30 5071 O 524.019 -1.81437 3.98763 0
M  V30 5072 C 525.52 -3.29805 2.96215 0
M  V30 5073 H 522.74 -0.383295 0.55075 0
M  V30 5074 H 525.284 -0.584779 1.95961 0
M  V30 5075 H 523.439 -3.02496 2.42023 0
M  V30 5076 H 523.853 -2.55135 4.58265 0
M  V30 5077 H 525.327 -4.04722 3.75372 0
M  V30 5078 H 525.804 -3.87563 2.06619 0
M  V30 5079 H 526.41 -2.71703 3.27196 0
M  V30 5080 N 524.725 -1.39134 -0.740242 0
M  V30 5081 C 525.688 -1.37217 -1.83587 0
M  V30 5082 C 526.688 -0.270221 -1.58513 0
M  V30 5083 O 527.878 -0.527843 -1.6601 0
M  V30 5084 C 525.01 -1.13959 -3.21288 0
M  V30 5085 H 526.203 -2.34705 -1.86691 0
M  V30 5086 H 523.756 -1.24622 -0.94335 0
M  V30 5087 H 524.491 -0.17131 -3.23847 0
M  V30 5088 H 524.276 -1.93754 -3.40884 0
M  V30 5089 H 525.766 -1.15346 -4.01354 0
M  V30 5090 O 526.242 0.881206 -1.3534 0
M  V30 5091 H 526.933 1.51869 -1.20231 0
M  V30 END ATOM
M  V30 BEGIN BOND
M  V30 END BOND
M  V30 END CTAB
M  END
$$$$
