drugbank_target|P19634 Sodium/hydrogen exchanger 1 (DB00594; DB02624; DB06468)
 OpenBabel12092119393D

  0  0  0     0  0            999 V3000
M  V30 BEGIN CTAB
M  V30 COUNTS 12956 13117 0 0 0
M  V30 BEGIN ATOM
M  V30 1 H -0.908 1.98254 -0.117106 0
M  V30 2 N 0 1.576 0 0
M  V30 3 C 0.933 2.03868 1.02534 0
M  V30 4 C 1.911 0.928543 1.3348 0
M  V30 5 O 3.095 1.19667 1.45644 0
M  V30 6 C 0.222 2.43627 2.35294 0
M  V30 7 C -0.732 3.65373 2.2001 0
M  V30 8 S 0.101 5.13292 1.52614 0
M  V30 9 C 1.257 5.56322 2.86805 0
M  V30 10 H 1.49 2.90518 0.631377 0
M  V30 11 H -0.977 1.52953 0.210867 0
M  V30 12 H 0.981 2.67203 3.11629 0
M  V30 13 H -0.358 1.57376 2.7183 0
M  V30 14 H -1.165 3.90944 3.18086 0
M  V30 15 H -1.563 3.418 1.51819 0
M  V30 16 H 0.729 5.58782 3.83104 0
M  V30 17 H 1.672 6.56266 2.65933 0
M  V30 18 H 2.08 4.83886 2.90714 0
M  V30 19 N 1.4781 -0.272755 1.55222 0
M  V30 20 C 2.7241 -1.00581 1.761 0
M  V30 21 C 3.0571 -1.85932 0.560625 0
M  V30 22 O 2.3321 -1.89416 -0.441801 0
M  V30 23 C 2.6151 -1.88816 3.06628 0
M  V30 24 C 2.4681 -1.06457 4.37021 0
M  V30 25 C 3.7871 -2.8752 3.33197 0
M  V30 26 H 0.9061 -0.364244 0.640699 0
M  V30 27 H 3.5481 -0.278189 1.87952 0
M  V30 28 H 1.6981 -2.50856 2.96654 0
M  V30 29 H 3.3701 -0.464863 4.58952 0
M  V30 30 H 1.6131 -0.368043 4.32236 0
M  V30 31 H 2.2841 -1.71514 5.24678 0
M  V30 32 H 4.7601 -2.35615 3.42965 0
M  V30 33 H 3.6361 -3.46399 4.25792 0
M  V30 34 H 3.8971 -3.62657 2.52849 0
M  V30 35 N 2.9562 -1.48159 -0.537278 0
M  V30 36 C 3.8862 -1.65029 -1.6519 0
M  V30 37 C 4.8672 -0.499281 -1.62607 0
M  V30 38 O 6.0522 -0.730972 -1.79918 0
M  V30 39 C 3.1822 -1.68303 -3.03795 0
M  V30 40 C 2.1362 -2.8283 -3.21234 0
M  V30 41 C 1.4622 -2.71189 -4.60826 0
M  V30 42 C 2.7622 -4.24211 -3.04701 0
M  V30 43 H 4.4562 -2.58341 -1.51328 0
M  V30 44 H 2.0022 -1.24325 -0.726585 0
M  V30 45 H 3.9552 -1.78693 -3.81637 0
M  V30 46 H 2.6792 -0.715635 -3.18663 0
M  V30 47 H 1.3382 -2.71983 -2.45807 0
M  V30 48 H 0.9862 -1.72435 -4.7252 0
M  V30 49 H 0.6862 -3.48035 -4.7344 0
M  V30 50 H 2.2102 -2.83537 -5.40777 0
M  V30 51 H 3.6242 -4.3593 -3.72341 0
M  V30 52 H 2.0212 -5.01998 -3.28813 0
M  V30 53 H 3.0912 -4.41184 -2.01209 0
M  V30 54 N 4.4343 0.785586 -1.36625 0
M  V30 55 C 5.8503 1.08419 -1.17122 0
M  V30 56 C 6.0503 2.015 0.00208491 0
M  V30 57 O 5.1063 2.43551 0.666278 0
M  V30 58 C 6.4193 1.69498 -2.48377 0
M  V30 59 C 7.9673 1.81821 -2.54775 0
M  V30 60 C 8.4423 2.46315 -3.86126 0
M  V30 61 N 9.9333 2.53779 -3.87492 0
M  V30 62 C 10.6683 3.045 -4.85868 0
M  V30 63 N 10.1643 3.55499 -5.94637 0
M  V30 64 N 11.9573 3.03247 -4.73284 0
M  V30 65 H 4.1083 0.167264 -2.1174 0
M  V30 66 H 6.3713 0.13682 -0.938075 0
M  V30 67 H 6.0773 1.08571 -3.34522 0
M  V30 68 H 5.9513 2.6896 -2.64462 0
M  V30 69 H 8.3383 2.41884 -1.69045 0
M  V30 70 H 8.4193 0.811532 -2.42586 0
M  V30 71 H 8.0633 1.86895 -4.72263 0
M  V30 72 H 7.9933 3.47561 -3.95612 0
M  V30 73 H 10.4843 2.17672 -3.08913 0
M  V30 74 H 10.7973 3.92562 -6.65669 0
M  V30 75 H 9.1423 3.5364 -5.98301 0
M  V30 76 H 12.3333 2.62696 -3.87438 0
M  V30 77 H 12.5063 3.42467 -5.50109 0
M  V30 78 N 5.9124 1.20967 1.01018 0
M  V30 79 C 7.1374 1.0503 1.78839 0
M  V30 80 C 7.5624 -0.395752 1.8389 0
M  V30 81 O 6.9204 -1.28529 1.27867 0
M  V30 82 C 6.9684 1.64602 3.2084 0
M  V30 83 O 6.0724 0.887988 4.02726 0
M  V30 84 H 5.4134 0.369987 0.551367 0
M  V30 85 H 7.9434 1.60399 1.27018 0
M  V30 86 H 7.9534 1.68607 3.71532 0
M  V30 87 H 6.6284 2.69841 3.16479 0
M  V30 88 H 5.2054 0.922648 3.61305 0
M  V30 89 N 7.3905 -1.2043 1.01659 0
M  V30 90 C 8.6385 -1.89423 0.704522 0
M  V30 91 C 8.9595 -1.79231 -0.768197 0
M  V30 92 O 8.2295 -1.1947 -1.55254 0
M  V30 93 H 6.8095 -0.701178 0.257602 0
M  V30 94 H 9.4715 -1.4626 1.28818 0
M  V30 95 H 8.5675 -2.96052 0.987916 0
M  V30 96 N 8.8686 -0.792821 -1.36206 0
M  V30 97 C 10.1176 -0.363353 -1.984 0
M  V30 98 C 10.4306 1.07172 -1.63626 0
M  V30 99 O 11.6366 1.60362 -2.19081 0
M  V30 100 C 10.0926 -0.59872 -3.54885 0
M  V30 101 C 9.7006 -2.04543 -3.9858 0
M  V30 102 C 11.4446 -0.233926 -4.23855 0
M  V30 103 C 9.3516 -2.22727 -5.47856 0
M  V30 104 H 8.2816 -0.13212 -0.742334 0
M  V30 105 H 10.9326 -0.974935 -1.55458 0
M  V30 106 H 9.3146 0.0826222 -3.95914 0
M  V30 107 H 10.4886 -2.76345 -3.68741 0
M  V30 108 H 8.8036 -2.36879 -3.42458 0
M  V30 109 H 11.4006 -0.348027 -5.33566 0
M  V30 110 H 11.7436 0.818351 -4.08177 0
M  V30 111 H 12.2766 -0.868639 -3.882 0
M  V30 112 H 9.0156 -3.2635 -5.68486 0
M  V30 113 H 8.5356 -1.55434 -5.7931 0
M  V30 114 H 10.2146 -2.03607 -6.14128 0
M  V30 115 N 10.3467 1.47872 -0.545128 0
M  V30 116 C 11.5867 2.04391 -0.0187854 0
M  V30 117 C 11.9507 1.41162 1.30144 0
M  V30 118 O 13.1517 1.88656 1.91474 0
M  V30 119 C 11.4227 3.57299 0.0850867 0
M  V30 120 S 12.9817 4.35221 0.559302 0
M  V30 121 H 9.7997 0.710737 -0.0193301 0
M  V30 122 H 12.4017 1.81395 -0.729125 0
M  V30 123 H 11.1057 4.00847 -0.880351 0
M  V30 124 H 10.6367 3.84773 0.819348 0
M  V30 125 H 12.6517 4.61571 1.82118 0
M  V30 126 N 11.8248 0.280983 1.55075 0
M  V30 127 C 13.0728 -0.333455 1.9933 0
M  V30 128 C 13.3938 -1.55937 1.17085 0
M  V30 129 O 12.6638 -1.94143 0.261805 0
M  V30 130 H 11.2438 -0.126197 0.736263 0
M  V30 131 H 13.9058 0.387678 1.91005 0
M  V30 132 H 13.0018 -0.619292 3.05894 0
M  V30 133 N 13.3029 -1.57598 0.00835791 0
M  V30 134 C 14.2329 -2.1198 -0.979113 0
M  V30 135 C 15.2139 -1.03091 -1.35301 0
M  V30 136 O 16.3989 -1.30818 -1.43528 0
M  V30 137 C 13.5289 -2.62995 -2.26828 0
M  V30 138 C 12.4829 -3.76485 -2.03576 0
M  V30 139 C 11.8089 -4.13846 -3.38579 0
M  V30 140 C 13.1089 -5.0342 -1.39161 0
M  V30 141 H 14.8029 -2.94738 -0.526281 0
M  V30 142 H 12.3489 -1.41783 -0.251704 0
M  V30 143 H 14.3019 -2.99669 -2.96271 0
M  V30 144 H 13.0259 -1.7737 -2.7424 0
M  V30 145 H 11.6849 -3.40217 -1.36557 0
M  V30 146 H 11.3329 -3.25232 -3.83709 0
M  V30 147 H 11.0329 -4.90312 -3.23834 0
M  V30 148 H 12.5569 -4.53086 -4.09323 0
M  V30 149 H 13.9709 -5.37812 -1.98573 0
M  V30 150 H 12.3679 -5.84746 -1.34878 0
M  V30 151 H 13.4379 -4.83548 -0.361868 0
M  V30 152 N 14.781 0.264519 -1.55364 0
M  V30 153 C 16.006 1.01726 -1.80739 0
M  V30 154 C 16.431 1.78836 -0.583044 0
M  V30 155 O 15.789 1.75167 0.467566 0
M  V30 156 C 15.837 1.94482 -3.03659 0
M  V30 157 O 14.941 3.03386 -2.7934 0
M  V30 158 H 14.282 0.290395 -0.597132 0
M  V30 159 H 16.812 0.290854 -2.02522 0
M  V30 160 H 16.822 2.36278 -3.32621 0
M  V30 161 H 15.497 1.37772 -3.92418 0
M  V30 162 H 14.074 2.65844 -2.61498 0
M  V30 163 N 16.2591 1.48442 0.529413 0
M  V30 164 C 17.6701 1.5002 1.11134 0
M  V30 165 C 18.0211 0.27031 1.94329 0
M  V30 166 O 17.1461 -0.622507 2.07253 0
M  V30 167 C 17.7411 2.71834 2.02217 0
M  V30 168 C 16.3001 2.76283 2.55627 0
M  V30 169 C 15.4471 2.43542 1.326 0
M  V30 170 H 18.3981 1.5555 0.314641 0
M  V30 171 H 18.4191 2.50384 2.8651 0
M  V30 172 H 17.9311 3.61331 1.41639 0
M  V30 173 H 16.0321 1.90995 3.19924 0
M  V30 174 H 16.1451 3.77725 2.94721 0
M  V30 175 H 14.5091 1.94709 1.64196 0
M  V30 176 H 15.2921 3.3528 0.737734 0
M  V30 177 N 17.7372 -0.778329 1.37039 0
M  V30 178 C 18.6872 -1.88142 1.28789 0
M  V30 179 C 19.6712 -1.59923 0.177063 0
M  V30 180 O 20.8632 -1.72165 0.410873 0
M  V30 181 C 17.9922 -3.25518 1.09055 0
M  V30 182 C 17.0782 -3.5971 2.24654 0
M  V30 183 N 17.4692 -3.65131 3.50018 0
M  V30 184 C 15.7672 -3.89837 2.16663 0
M  V30 185 C 16.4682 -3.95882 4.26207 0
M  V30 186 N 15.4442 -4.11441 3.55271 0
M  V30 187 H 19.2462 -1.90575 2.23737 0
M  V30 188 H 16.7602 -0.974435 1.29917 0
M  V30 189 H 18.7572 -4.04423 1.0123 0
M  V30 190 H 17.4172 -3.24353 0.15018 0
M  V30 191 H 18.4282 -3.475 3.84011 0
M  V30 192 H 15.1052 -3.96533 1.30645 0
M  V30 193 H 16.4952 -4.06907 5.34674 0
M  V30 194 N 19.2153 -1.21501 -1.00376 0
M  V30 195 C 20.6313 -0.972629 -1.26539 0
M  V30 196 C 20.8313 0.340257 -1.98606 0
M  V30 197 O 19.8873 1.06561 -2.28913 0
M  V30 198 C 21.2003 -2.16404 -2.08781 0
M  V30 199 C 22.7483 -2.20643 -2.22004 0
M  V30 200 C 23.2233 -3.39306 -3.07629 0
M  V30 201 N 24.7143 -3.39401 -3.15217 0
M  V30 202 C 25.4493 -4.27867 -3.81729 0
M  V30 203 N 24.9453 -5.26533 -4.5026 0
M  V30 204 N 26.7383 -4.15672 -3.78382 0
M  V30 205 H 18.8893 -2.05929 -0.520281 0
M  V30 206 H 21.1523 -0.901803 -0.292328 0
M  V30 207 H 20.8583 -3.11554 -1.63178 0
M  V30 208 H 20.7323 -2.15567 -3.09533 0
M  V30 209 H 23.1193 -1.26048 -2.66825 0
M  V30 210 H 23.2003 -2.25523 -1.20718 0
M  V30 211 H 22.8443 -4.34195 -2.63509 0
M  V30 212 H 22.7743 -3.31665 -4.09031 0
M  V30 213 H 25.2653 -2.67997 -2.66432 0
M  V30 214 H 25.5783 -5.90337 -4.98721 0
M  V30 215 H 23.9233 -5.30457 -4.49044 0
M  V30 216 H 27.1143 -3.3785 -3.23998 0
M  V30 217 H 27.2873 -4.84825 -4.2994 0
M  V30 218 N 20.6934 1.19889 -1.02296 0
M  V30 219 C 21.9424 1.88743 -0.711257 0
M  V30 220 C 22.2554 1.80112 0.762817 0
M  V30 221 O 23.4614 2.44161 1.18733 0
M  V30 222 C 21.9174 3.38525 -1.22185 0
M  V30 223 C 21.5254 3.55727 -2.72328 0
M  V30 224 C 23.2694 4.12893 -0.985864 0
M  V30 225 C 21.1764 4.99369 -3.16835 0
M  V30 226 H 20.1064 0.706885 -0.262353 0
M  V30 227 H 22.7574 1.35586 -1.23648 0
M  V30 228 H 21.1394 3.91044 -0.624571 0
M  V30 229 H 22.3134 3.13564 -3.3766 0
M  V30 230 H 20.6284 2.94739 -2.9414 0
M  V30 231 H 23.2254 5.18813 -1.29374 0
M  V30 232 H 23.5684 4.16228 0.0775055 0
M  V30 233 H 24.1014 3.66494 -1.54684 0
M  V30 234 H 20.8404 5.01193 -4.22476 0
M  V30 235 H 20.3604 5.42317 -2.56228 0
M  V30 236 H 22.0394 5.67988 -3.09837 0
M  V30 237 N 22.1715 0.800033 1.35784 0
M  V30 238 C 23.4185 0.377342 1.98953 0
M  V30 239 C 23.7465 -1.05378 1.6348 0
M  V30 240 O 23.0015 -1.74459 0.886707 0
M  V30 241 C 23.3005 0.500276 3.53881 0
M  V30 242 C 22.9665 1.89375 4.09204 0
M  V30 243 C 21.6285 2.27499 4.24025 0
M  V30 244 C 23.9805 2.8057 4.39238 0
M  V30 245 C 21.3085 3.562 4.66195 0
M  V30 246 C 23.6605 4.0871 4.82844 0
M  V30 247 C 22.3245 4.46843 4.95871 0
M  V30 248 H 21.5945 0.138079 0.728021 0
M  V30 249 H 24.2415 1.01955 1.62103 0
M  V30 250 H 22.5465 -0.225405 3.91151 0
M  V30 251 H 24.2435 0.154097 4.00704 0
M  V30 252 H 20.8335 1.58753 3.98115 0
M  V30 253 H 25.0175 2.52367 4.27346 0
M  V30 254 H 20.2735 3.85602 4.74469 0
M  V30 255 H 24.4475 4.79481 5.05046 0
M  V30 256 H 22.0745 5.46623 5.28306 0
M  V30 257 N 23.6496 -1.47581 0.552962 0
M  V30 258 C 25.0606 -1.86324 0.118463 0
M  V30 259 C 25.4116 -1.46006 -1.3106 0
M  V30 260 O 24.5366 -0.861182 -1.98526 0
M  V30 261 C 25.1316 -3.3816 0.20821 0
M  V30 262 C 23.6906 -3.7601 -0.171226 0
M  V30 263 C 22.8376 -2.71634 0.557686 0
M  V30 264 H 25.7886 -1.39159 0.762928 0
M  V30 265 H 25.8096 -3.76141 -0.574278 0
M  V30 266 H 25.3216 -3.67473 1.24841 0
M  V30 267 H 23.4226 -3.52313 -1.21269 0
M  V30 268 H 23.5356 -4.78745 0.184379 0
M  V30 269 H 21.8996 -2.547 0.00125792 0
M  V30 270 H 22.6826 -3.0379 1.59896 0
M  V30 271 N 25.1277 -0.289203 -1.54924 0
M  V30 272 C 26.3527 0.329299 -2.04769 0
M  V30 273 C 26.7777 1.4763 -1.16564 0
M  V30 274 O 26.1357 1.80527 -0.167186 0
M  V30 275 C 26.1837 0.774438 -3.52186 0
M  V30 276 O 25.2877 1.88038 -3.67036 0
M  V30 277 H 24.6287 0.0659259 -0.660719 0
M  V30 278 H 27.1587 -0.42761 -2.00082 0
M  V30 279 H 27.1687 1.06642 -3.93816 0
M  V30 280 H 25.8437 -0.0646707 -4.1585 0
M  V30 281 H 24.4207 1.58985 -3.3731 0
M  V30 282 N 26.6058 1.57591 -0.0167156 0
M  V30 283 C 27.5358 2.12496 0.967858 0
M  V30 284 C 28.5168 1.03807 1.34752 0
M  V30 285 O 29.7018 1.31577 1.42833 0
M  V30 286 C 26.8318 2.64194 2.25431 0
M  V30 287 C 25.7858 3.77559 2.01576 0
M  V30 288 C 25.1118 4.15636 3.36379 0
M  V30 289 C 26.4118 5.04151 1.36489 0
M  V30 290 H 28.1058 2.95013 0.510643 0
M  V30 291 H 25.6518 1.41915 0.244181 0
M  V30 292 H 27.6048 3.01236 2.94678 0
M  V30 293 H 26.3288 1.78821 2.73296 0
M  V30 294 H 24.9878 3.40937 1.34751 0
M  V30 295 H 24.6358 3.27263 3.81979 0
M  V30 296 H 24.3358 4.92022 3.21229 0
M  V30 297 H 25.8598 4.5525 4.06915 0
M  V30 298 H 27.2738 5.38857 1.95718 0
M  V30 299 H 25.6708 5.85453 1.31776 0
M  V30 300 H 26.7408 4.83733 0.336219 0
M  V30 301 N 28.0839 -0.256276 1.55502 0
M  V30 302 C 29.0139 -1.32102 1.92539 0
M  V30 303 C 29.9949 -1.50684 0.789194 0
M  V30 304 O 31.1799 -1.63449 1.04872 0
M  V30 305 C 28.3099 -2.67752 2.21192 0
M  V30 306 C 27.2639 -2.63878 3.36975 0
M  V30 307 C 26.5899 -4.03236 3.51147 0
M  V30 308 C 27.8899 -2.21682 4.72921 0
M  V30 309 H 29.5839 -1.01351 2.81724 0
M  V30 310 H 27.1299 -0.486105 1.35547 0
M  V30 311 H 29.0829 -3.42365 2.45691 0
M  V30 312 H 27.8069 -3.0012 1.28824 0
M  V30 313 H 26.4659 -1.91722 3.12471 0
M  V30 314 H 26.1139 -4.32854 2.56216 0
M  V30 315 H 25.8139 -4.01535 4.29003 0
M  V30 316 H 27.3379 -4.79563 3.77957 0
M  V30 317 H 28.7519 -2.86023 4.96854 0
M  V30 318 H 27.1489 -2.3111 5.53812 0
M  V30 319 H 28.2189 -1.16833 4.70615 0
M  V30 320 N 29.562 -1.4872 -0.521534 0
M  V30 321 C 30.808 -1.574 -1.27879 0
M  V30 322 C 31.141 -0.250817 -1.92573 0
M  V30 323 O 30.416 0.743934 -1.79711 0
M  V30 324 C 30.699 -2.71843 -2.36164 0
M  V30 325 C 30.552 -4.13893 -1.76105 0
M  V30 326 C 31.871 -2.82008 -3.37875 0
M  V30 327 H 28.99 -0.572941 -0.463581 0
M  V30 328 H 31.632 -1.80927 -0.580119 0
M  V30 329 H 29.782 -2.51914 -2.95756 0
M  V30 330 H 31.454 -4.45284 -1.20499 0
M  V30 331 H 29.697 -4.20498 -1.06601 0
M  V30 332 H 30.368 -4.89804 -2.5455 0
M  V30 333 H 32.844 -3.00086 -2.88249 0
M  V30 334 H 31.72 -3.63796 -4.11028 0
M  V30 335 H 31.981 -1.90511 -3.98946 0
M  V30 336 N 31.0401 0.771051 -1.3745 0
M  V30 337 C 32.2861 1.5319 -1.32894 0
M  V30 338 C 32.6191 1.94008 0.0862511 0
M  V30 339 O 31.8941 1.64124 1.04373 0
M  V30 340 C 32.1771 2.79648 -2.26868 0
M  V30 341 C 32.0301 2.45079 -3.77169 0
M  V30 342 C 33.3491 3.81583 -2.19277 0
M  V30 343 H 30.4681 0.555744 -0.484064 0
M  V30 344 H 33.1101 0.884492 -1.68157 0
M  V30 345 H 31.2601 3.34891 -1.96926 0
M  V30 346 H 32.9321 1.95745 -4.1771 0
M  V30 347 H 31.1751 1.77767 -3.95704 0
M  V30 348 H 31.8461 3.35478 -4.38359 0
M  V30 349 H 34.3221 3.35835 -2.45671 0
M  V30 350 H 33.1981 4.67787 -2.87171 0
M  V30 351 H 33.4591 4.25897 -1.18592 0
M  V30 352 N 32.5182 1.22032 0.997298 0
M  V30 353 C 33.7642 1.04376 1.73878 0
M  V30 354 C 34.0972 -0.420716 1.89588 0
M  V30 355 O 33.3722 -1.31202 1.43583 0
M  V30 356 C 33.6552 1.75047 3.14691 0
M  V30 357 C 33.5082 3.29062 3.06656 0
M  V30 358 C 34.8272 1.49928 4.13775 0
M  V30 359 H 31.9462 0.380578 0.631133 0
M  V30 360 H 34.5882 1.50312 1.16217 0
M  V30 361 H 32.7382 1.35996 3.63919 0
M  V30 362 H 34.4102 3.7753 2.65083 0
M  V30 363 H 32.6532 3.58967 2.43568 0
M  V30 364 H 33.3242 3.73683 4.06282 0
M  V30 365 H 35.8002 1.83842 3.73285 0
M  V30 366 H 34.6762 2.01878 5.10428 0
M  V30 367 H 34.9372 0.430929 4.39995 0
M  V30 368 N 33.9963 -1.19345 1.0293 0
M  V30 369 C 34.9593 -2.20793 0.615069 0
M  V30 370 C 35.9593 -1.57553 -0.321533 0
M  V30 371 O 37.1493 -1.73862 -0.108483 0
M  V30 372 C 34.2813 -3.40754 -0.0999222 0
M  V30 373 H 35.4743 -2.58955 1.51269 0
M  V30 374 H 33.0273 -1.3303 0.820534 0
M  V30 375 H 33.7623 -3.0811 -1.01187 0
M  V30 376 H 33.5473 -3.87889 0.57309 0
M  V30 377 H 35.0373 -4.15898 -0.376645 0
M  V30 378 N 35.4744 -0.807222 -1.35358 0
M  V30 379 C 36.4044 -0.232509 -2.3234 0
M  V30 380 C 37.3854 0.642386 -1.57504 0
M  V30 381 O 38.5704 0.572526 -1.85569 0
M  V30 382 C 35.7004 0.619238 -3.41735 0
M  V30 383 C 34.6544 -0.157215 -4.27711 0
M  V30 384 C 33.9804 0.816273 -5.28433 0
M  V30 385 C 35.2804 -1.35656 -5.04376 0
M  V30 386 H 36.9744 -1.04276 -2.80654 0
M  V30 387 H 34.5204 -0.50288 -1.34934 0
M  V30 388 H 36.4734 1.03137 -4.08584 0
M  V30 389 H 35.1974 1.46239 -2.92031 0
M  V30 390 H 33.8564 -0.550525 -3.62443 0
M  V30 391 H 33.5044 1.65494 -4.74996 0
M  V30 392 H 33.2044 0.301067 -5.86828 0
M  V30 393 H 34.7284 1.22659 -5.98153 0
M  V30 394 H 36.1424 -1.01927 -5.64166 0
M  V30 395 H 34.5394 -1.8063 -5.7227 0
M  V30 396 H 35.6094 -2.14288 -4.34981 0
M  V30 397 N 36.9525 1.47285 -0.560781 0
M  V30 398 C 38.1985 2.02764 -0.0381184 0
M  V30 399 C 38.5315 1.43384 1.30976 0
M  V30 400 O 37.8065 0.590733 1.85312 0
M  V30 401 C 38.0895 3.60064 0.0511427 0
M  V30 402 C 37.9425 4.2987 -1.32408 0
M  V30 403 C 39.2615 4.33439 0.762795 0
M  V30 404 H 36.3805 0.736841 -0.0153264 0
M  V30 405 H 39.0225 1.75675 -0.723759 0
M  V30 406 H 37.1725 3.83274 0.635065 0
M  V30 407 H 38.8445 4.17989 -1.95148 0
M  V30 408 H 37.0875 3.90085 -1.8978 0
M  V30 409 H 37.7585 5.38478 -1.21431 0
M  V30 410 H 40.2345 4.15243 0.266965 0
M  V30 411 H 39.1105 5.43124 0.794221 0
M  V30 412 H 39.3715 4.02915 1.81966 0
M  V30 413 N 38.4306 0.297415 1.54768 0
M  V30 414 C 39.6786 -0.312295 1.99673 0
M  V30 415 C 39.9996 -1.54686 1.18732 0
M  V30 416 O 39.2696 -1.93854 0.282382 0
M  V30 417 H 37.8496 -0.118381 0.73756 0
M  V30 418 H 40.5116 0.407915 1.90583 0
M  V30 419 H 39.6076 -0.586813 3.06534 0
M  V30 420 N 39.9087 -1.5758 0.0250728 0
M  V30 421 C 40.8387 -2.13007 -0.956575 0
M  V30 422 C 41.8197 -1.0452 -1.342 0
M  V30 423 O 43.0047 -1.32332 -1.42133 0
M  V30 424 C 40.1347 -2.65386 -2.24026 0
M  V30 425 C 39.0887 -3.78623 -1.99571 0
M  V30 426 C 38.4147 -4.17414 -3.3417 0
M  V30 427 C 39.7147 -5.04867 -1.33814 0
M  V30 428 H 41.4087 -2.9528 -0.494991 0
M  V30 429 H 38.9547 -1.42042 -0.236651 0
M  V30 430 H 40.9077 -3.02794 -2.93076 0
M  V30 431 H 39.6317 -1.80268 -2.72343 0
M  V30 432 H 38.2907 -3.41646 -1.32941 0
M  V30 433 H 37.9387 -3.29284 -3.80238 0
M  V30 434 H 37.6387 -4.93719 -3.18615 0
M  V30 435 H 39.1627 -4.57402 -4.04495 0
M  V30 436 H 40.5767 -5.39888 -1.92857 0
M  V30 437 H 38.9737 -5.86144 -1.28669 0
M  V30 438 H 40.0437 -4.83904 -0.310561 0
M  V30 439 N 41.3868 0.248026 -1.55636 0
M  V30 440 C 42.3168 1.31079 -1.93237 0
M  V30 441 C 43.2978 1.50264 -0.797174 0
M  V30 442 O 44.4828 1.62891 -1.05737 0
M  V30 443 C 41.6128 2.66575 -2.22609 0
M  V30 444 C 40.5668 2.62087 -3.3837 0
M  V30 445 C 39.8928 4.01369 -3.53281 0
M  V30 446 C 41.1928 2.19171 -4.7409 0
M  V30 447 H 42.8868 0.998556 -2.82257 0
M  V30 448 H 40.4328 0.47891 -1.35803 0
M  V30 449 H 42.3858 3.41057 -2.47503 0
M  V30 450 H 41.1098 2.99432 -1.30414 0
M  V30 451 H 39.7688 1.90063 -3.13483 0
M  V30 452 H 39.4168 4.31489 -2.58508 0
M  V30 453 H 39.1168 3.99254 -4.31127 0
M  V30 454 H 40.6408 4.77552 -3.80495 0
M  V30 455 H 42.0548 2.83384 -4.98363 0
M  V30 456 H 40.4518 2.2817 -5.5503 0
M  V30 457 H 41.5218 1.14336 -4.71227 0
M  V30 458 N 42.8649 1.48995 0.513639 0
M  V30 459 C 44.2759 1.5119 1.09537 0
M  V30 460 C 44.6269 0.290906 1.94031 0
M  V30 461 O 43.7519 -0.60049 2.07902 0
M  V30 462 C 44.3469 2.73964 1.99322 0
M  V30 463 C 42.9059 2.78978 2.52682 0
M  V30 464 C 42.0529 2.44934 1.30009 0
M  V30 465 H 45.0039 1.55875 0.298125 0
M  V30 466 H 45.0249 2.53409 2.83838 0
M  V30 467 H 44.5369 3.62813 1.37799 0
M  V30 468 H 42.6379 1.94378 3.1788 0
M  V30 469 H 42.7509 3.8083 2.90698 0
M  V30 470 H 41.1149 1.9644 1.62122 0
M  V30 471 H 41.8979 3.36043 0.702131 0
M  V30 472 N 44.343 -0.763751 1.37857 0
M  V30 473 C 45.589 -1.52483 1.33704 0
M  V30 474 C 45.922 -1.94051 -0.0759612 0
M  V30 475 O 45.197 -1.64675 -1.03501 0
M  V30 476 C 45.48 -2.78441 2.28348 0
M  V30 477 C 45.333 -2.43075 3.78463 0
M  V30 478 C 46.652 -3.80415 2.21298 0
M  V30 479 H 43.771 -0.553169 0.487005 0
M  V30 480 H 46.413 -0.875562 1.68624 0
M  V30 481 H 44.563 -3.33842 1.987 0
M  V30 482 H 46.235 -1.93527 4.18742 0
M  V30 483 H 44.478 -1.75666 3.96641 0
M  V30 484 H 45.149 -3.33149 4.40132 0
M  V30 485 H 47.625 -3.34527 2.47449 0
M  V30 486 H 46.501 -4.66257 2.89647 0
M  V30 487 H 46.762 -4.25262 1.20849 0
M  V30 488 N 45.8211 -1.22559 -0.990812 0
M  V30 489 C 46.7511 -1.0218 -2.09956 0
M  V30 490 C 47.7321 0.0579394 -1.70001 0
M  V30 491 O 48.9171 -0.104684 -1.93918 0
M  V30 492 C 46.0471 -0.601023 -3.4206 0
M  V30 493 C 45.0011 -1.62694 -3.95872 0
M  V30 494 C 44.3271 -1.06193 -5.24049 0
M  V30 495 C 45.6271 -3.01743 -4.2632 0
M  V30 496 H 47.3211 -1.94916 -2.27262 0
M  V30 497 H 44.8671 -0.938566 -1.09211 0
M  V30 498 H 46.8201 -0.445561 -4.19038 0
M  V30 499 H 45.5441 0.362005 -3.24588 0
M  V30 500 H 44.2031 -1.77021 -3.21028 0
M  V30 501 H 43.8511 -0.0901903 -5.02919 0
M  V30 502 H 43.5511 -1.74732 -5.61019 0
M  V30 503 H 45.0751 -0.918092 -6.03658 0
M  V30 504 H 46.4891 -2.90777 -4.94087 0
M  V30 505 H 44.8861 -3.67425 -4.74467 0
M  V30 506 H 45.9561 -3.51518 -3.34011 0
M  V30 507 N 47.2992 1.18797 -1.03562 0
M  V30 508 C 48.7152 1.40671 -0.753917 0
M  V30 509 C 48.9152 1.9043 0.658686 0
M  V30 510 O 47.9712 2.08538 1.42366 0
M  V30 511 C 49.2842 2.41192 -1.79574 0
M  V30 512 C 50.8322 2.54928 -1.81606 0
M  V30 513 C 51.3072 3.58709 -2.84766 0
M  V30 514 N 52.7982 3.66212 -2.83625 0
M  V30 515 C 53.5332 4.46225 -3.60098 0
M  V30 516 N 53.0292 5.29888 -4.46308 0
M  V30 517 N 54.8222 4.40939 -3.4861 0
M  V30 518 H 46.9732 0.848221 -1.94728 0
M  V30 519 H 49.2362 0.435081 -0.842264 0
M  V30 520 H 48.9422 2.11669 -2.80872 0
M  V30 521 H 48.8162 3.40467 -1.62365 0
M  V30 522 H 51.2032 2.83771 -0.809817 0
M  V30 523 H 51.2842 1.55784 -2.02891 0
M  V30 524 H 50.9282 3.30607 -3.85566 0
M  V30 525 H 50.8582 4.57519 -2.60737 0
M  V30 526 H 53.3492 3.06466 -2.21105 0
M  V30 527 H 53.6622 5.88078 -5.01382 0
M  V30 528 H 52.0072 5.29326 -4.50377 0
M  V30 529 H 55.1982 3.74624 -2.80668 0
M  V30 530 H 55.3712 5.03056 -4.08459 0
M  V30 531 N 48.7773 0.814389 1.34928 0
M  V30 532 C 50.0023 0.410097 2.03305 0
M  V30 533 C 50.4273 -0.973464 1.60951 0
M  V30 534 O 49.7853 -1.63185 0.789964 0
M  V30 535 C 49.8333 0.51049 3.56968 0
M  V30 536 O 48.9373 -0.473035 4.09678 0
M  V30 537 H 48.2783 0.170088 0.641846 0
M  V30 538 H 50.8083 1.10244 1.72358 0
M  V30 539 H 50.8183 0.383135 4.06197 0
M  V30 540 H 49.4933 1.51963 3.87144 0
M  V30 541 H 48.0703 -0.305272 3.71648 0
M  V30 542 N 50.2554 -1.46986 0.568584 0
M  V30 543 C 51.2054 -2.27179 -0.193339 0
M  V30 544 C 52.1894 -1.35035 -0.874895 0
M  V30 545 O 53.3814 -1.5931 -0.771322 0
M  V30 546 C 50.5104 -3.21063 -1.21546 0
M  V30 547 C 49.5964 -4.2069 -0.536738 0
M  V30 548 N 49.9874 -5.04218 0.399673 0
M  V30 549 C 48.2854 -4.38961 -0.789254 0
M  V30 550 C 48.9864 -5.76242 0.795017 0
M  V30 551 N 47.9624 -5.434 0.1473 0
M  V30 552 H 51.7644 -2.89146 0.526458 0
M  V30 553 H 49.2784 -1.57664 0.389342 0
M  V30 554 H 51.2754 -3.77209 -1.77536 0
M  V30 555 H 49.9354 -2.60654 -1.93623 0
M  V30 556 H 50.9464 -5.12077 0.774454 0
M  V30 557 H 47.6234 -3.89713 -1.49767 0
M  V30 558 H 49.0134 -6.53417 1.56513 0
M  V30 559 N 51.7335 -0.305618 -1.54608 0
M  V30 560 C 52.9815 0.301701 -1.99835 0
M  V30 561 C 53.3025 1.54054 -1.19551 0
M  V30 562 O 52.5725 1.93702 -0.292658 0
M  V30 563 H 51.1525 0.114468 -0.738178 0
M  V30 564 H 53.8145 -0.418016 -1.90364 0
M  V30 565 H 52.9105 0.570548 -3.06841 0
M  V30 566 N 53.2116 1.57565 -0.0334293 0
M  V30 567 C 54.1416 2.13511 0.945265 0
M  V30 568 C 55.1226 1.05231 1.33643 0
M  V30 569 O 56.3076 1.33084 1.41429 0
M  V30 570 C 53.4376 2.6657 2.22616 0
M  V30 571 C 52.3916 3.79676 1.97561 0
M  V30 572 C 51.7176 4.1918 3.31952 0
M  V30 573 C 53.0176 5.0557 1.31135 0
M  V30 574 H 54.7116 2.95538 0.479325 0
M  V30 575 H 52.2576 1.42166 0.229115 0
M  V30 576 H 54.2106 3.04344 2.91466 0
M  V30 577 H 52.9346 1.8171 2.71384 0
M  V30 578 H 51.5936 3.42347 1.31127 0
M  V30 579 H 51.2416 3.31296 3.78487 0
M  V30 580 H 50.9416 4.95402 3.15992 0
M  V30 581 H 52.4656 4.59541 4.02063 0
M  V30 582 H 53.8796 5.40903 1.89992 0
M  V30 583 H 52.2766 5.86818 1.25559 0
M  V30 584 H 53.3466 4.84062 0.284894 0
M  V30 585 N 54.6897 -0.239769 1.55765 0
M  V30 586 C 55.6217 -1.32001 1.87372 0
M  V30 587 C 56.6347 -1.43944 0.760522 0
M  V30 588 O 57.8237 -1.45167 1.0387 0
M  V30 589 C 54.9237 -2.69779 2.05115 0
M  V30 590 C 54.0967 -2.80014 3.36022 0
M  V30 591 C 53.1557 -3.98684 3.4342 0
M  V30 592 O 52.1817 -3.87877 4.16582 0
M  V30 593 N 53.3837 -5.12176 2.73232 0
M  V30 594 H 56.1487 -1.0522 2.80622 0
M  V30 595 H 53.7097 -0.429857 1.56089 0
M  V30 596 H 55.7017 -3.47517 2.07399 0
M  V30 597 H 54.2717 -2.89237 1.18577 0
M  V30 598 H 53.4917 -1.88896 3.45994 0
M  V30 599 H 54.7797 -2.83808 4.22292 0
M  V30 600 H 54.1777 -5.2385 2.13536 0
M  V30 601 H 52.7347 -5.88022 2.81199 0
M  V30 602 N 56.1678 -1.49265 -0.50573 0
M  V30 603 C 57.0978 -1.68495 -1.61653 0
M  V30 604 C 58.0788 -0.53366 -1.61512 0
M  V30 605 O 59.2638 -0.76897 -1.78327 0
M  V30 606 C 56.3938 -1.74709 -3.00157 0
M  V30 607 C 55.3478 -2.89581 -3.15162 0
M  V30 608 C 54.6738 -2.80903 -4.5497 0
M  V30 609 C 55.9738 -4.30578 -2.95634 0
M  V30 610 H 57.6678 -2.61493 -1.45814 0
M  V30 611 H 55.2138 -1.25838 -0.70005 0
M  V30 612 H 57.1668 -1.86748 -3.77761 0
M  V30 613 H 55.8908 -0.783067 -3.17074 0
M  V30 614 H 54.5498 -2.77136 -2.39982 0
M  V30 615 H 54.1978 -1.82419 -4.68756 0
M  V30 616 H 53.8978 -3.57999 -4.65951 0
M  V30 617 H 55.4218 -2.94944 -5.34641 0
M  V30 618 H 56.8358 -4.4373 -3.63011 0
M  V30 619 H 55.2328 -5.0886 -3.18091 0
M  V30 620 H 56.3028 -4.45352 -1.91806 0
M  V30 621 N 57.6459 0.756429 -1.3826 0
M  V30 622 C 58.8709 1.55077 -1.37717 0
M  V30 623 C 59.2959 1.88073 0.03164 0
M  V30 624 O 58.6539 1.50364 1.01293 0
M  V30 625 C 58.7019 2.8283 -2.23695 0
M  V30 626 O 57.8059 3.77862 -1.6521 0
M  V30 627 H 57.1469 0.469152 -0.469885 0
M  V30 628 H 59.6769 0.935019 -1.81985 0
M  V30 629 H 59.6869 3.31783 -2.37453 0
M  V30 630 H 58.3619 2.58144 -3.2609 0
M  V30 631 H 56.9389 3.36555 -1.60578 0
M  V30 632 N 59.124 1.23083 0.984299 0
M  V30 633 C 60.535 1.05609 1.5396 0
M  V30 634 C 60.886 -0.377793 1.92528 0
M  V30 635 O 60.011 -1.26398 1.75649 0
M  V30 636 C 60.606 1.91087 2.7977 0
M  V30 637 C 59.165 1.77885 3.31713 0
M  V30 638 C 58.312 1.87028 2.04733 0
M  V30 639 H 61.263 1.36802 0.804419 0
M  V30 640 H 61.284 1.43336 3.5247 0
M  V30 641 H 60.796 2.9544 2.51668 0
M  V30 642 H 58.897 0.762995 3.64704 0
M  V30 643 H 59.01 2.61047 4.01735 0
M  V30 644 H 57.374 1.30565 2.18689 0
M  V30 645 H 58.157 2.92929 1.79017 0
M  V30 646 N 60.6021 -1.18246 1.0419 0
M  V30 647 C 61.8301 -1.92195 0.766072 0
M  V30 648 C 62.2451 -1.76247 -0.676933 0
M  V30 649 O 61.6021 -1.09293 -1.46155 0
M  V30 650 C 61.6531 -3.43568 1.12442 0
M  V30 651 O 61.3741 -3.59015 2.51078 0
M  V30 652 C 62.8751 -4.34613 0.873275 0
M  V30 653 H 60.0951 -0.610114 0.279288 0
M  V30 654 H 62.6391 -1.50007 1.38989 0
M  V30 655 H 60.7941 -3.8354 0.545542 0
M  V30 656 H 61.2081 -4.5273 2.64831 0
M  V30 657 H 62.6821 -5.39374 1.17385 0
M  V30 658 H 63.1591 -4.38781 -0.191909 0
M  V30 659 H 63.7651 -4.00341 1.43551 0
M  V30 660 N 62.0802 -0.821533 -1.34494 0
M  V30 661 C 63.0432 -0.247847 -2.27856 0
M  V30 662 C 64.0432 0.573453 -1.50227 0
M  V30 663 O 65.2332 0.389759 -1.69784 0
M  V30 664 C 62.3652 0.652698 -3.34593 0
M  V30 665 H 63.5582 -1.07146 -2.80107 0
M  V30 666 H 61.1112 -0.593291 -1.44602 0
M  V30 667 H 61.8462 1.49943 -2.87555 0
M  V30 668 H 61.6312 0.065292 -3.92046 0
M  V30 669 H 63.1212 1.04793 -4.04238 0
M  V30 670 N 63.5583 1.46682 -0.576371 0
M  V30 671 C 64.7833 2.07304 -0.0630475 0
M  V30 672 C 65.2083 1.42329 1.2298 0
M  V30 673 O 64.5663 0.504865 1.74129 0
M  V30 674 C 64.6143 3.60472 0.095895 0
M  V30 675 O 63.7183 3.95927 1.15394 0
M  V30 676 H 63.0593 0.661288 -0.0599463 0
M  V30 677 H 65.5893 1.88417 -0.797511 0
M  V30 678 H 65.5993 4.06865 0.304071 0
M  V30 679 H 64.2743 4.07157 -0.84828 0
M  V30 680 H 62.8513 3.61252 0.924724 0
M  V30 681 N 65.0364 0.313813 1.54444 0
M  V30 682 C 66.2644 -0.293918 2.04802 0
M  V30 683 C 66.6794 -1.46537 1.19047 0
M  V30 684 O 66.0364 -1.81182 0.218939 0
M  V30 685 C 66.0874 -0.737806 3.53891 0
M  V30 686 O 65.8084 0.387038 4.36387 0
M  V30 687 C 67.3094 -1.40936 4.203 0
M  V30 688 H 64.5294 -0.0620057 0.668129 0
M  V30 689 H 67.0734 0.457169 1.99324 0
M  V30 690 H 65.2284 -1.43889 3.59687 0
M  V30 691 H 65.6424 0.0391274 5.24485 0
M  V30 692 H 67.1164 -1.67099 5.26101 0
M  V30 693 H 67.5934 -2.35355 3.70816 0
M  V30 694 H 68.1994 -0.751117 4.18615 0
M  V30 695 N 66.5145 -1.57545 0.0417849 0
M  V30 696 C 67.7635 -1.91494 -0.633492 0
M  V30 697 C 68.0765 -0.921084 -1.72556 0
M  V30 698 O 69.2825 -1.15228 -2.45835 0
M  V30 699 C 67.7385 -3.40072 -1.17808 0
M  V30 700 C 67.3465 -4.47843 -0.118633 0
M  V30 701 C 69.0905 -3.8307 -1.82915 0
M  V30 702 C 66.9975 -5.87529 -0.675578 0
M  V30 703 H 65.9275 -0.714653 -0.24039 0
M  V30 704 H 68.5785 -1.83175 0.109148 0
M  V30 705 H 66.9605 -3.43364 -1.97274 0
M  V30 706 H 68.1345 -4.56128 0.654494 0
M  V30 707 H 66.4495 -4.14128 0.434414 0
M  V30 708 H 69.0465 -4.84794 -2.25563 0
M  V30 709 H 69.3895 -3.1881 -2.67705 0
M  V30 710 H 69.9225 -3.82255 -1.10119 0
M  V30 711 H 66.6615 -6.55362 0.134475 0
M  V30 712 H 66.1815 -5.82824 -1.4169 0
M  V30 713 H 67.8605 -6.36491 -1.1614 0
M  V30 714 N 67.9926 0.231505 -1.5589 0
M  V30 715 C 69.4086 0.580748 -1.48659 0
M  V30 716 C 69.6086 1.87617 -0.73498 0
M  V30 717 O 68.6646 2.51046 -0.270586 0
M  V30 718 C 69.9776 0.669202 -2.93159 0
M  V30 719 C 71.5256 0.760499 -3.03621 0
M  V30 720 C 72.0006 0.880383 -4.49459 0
M  V30 721 N 73.4916 0.944861 -4.53461 0
M  V30 722 C 74.2266 1.05716 -5.63571 0
M  V30 723 N 73.7226 1.13403 -6.83456 0
M  V30 724 N 75.5156 1.09152 -5.514 0
M  V30 725 H 67.6666 -0.618695 -2.03189 0
M  V30 726 H 69.9296 -0.215728 -0.923128 0
M  V30 727 H 69.6356 -0.212904 -3.51055 0
M  V30 728 H 69.5096 1.5361 -3.44505 0
M  V30 729 H 71.8966 1.63305 -2.45796 0
M  V30 730 H 71.9776 -0.131864 -2.5546 0
M  V30 731 H 71.6216 0.0123284 -5.07899 0
M  V30 732 H 71.5516 1.78802 -4.95316 0
M  V30 733 H 74.0426 0.896176 -3.6712 0
M  V30 734 H 74.3556 1.21921 -7.63122 0
M  V30 735 H 72.7006 1.10333 -6.86186 0
M  V30 736 H 75.8916 1.02805 -4.56671 0
M  V30 737 H 76.0646 1.17558 -6.37247 0
M  V30 738 N 69.4707 1.49531 0.497807 0
M  V30 739 C 70.6957 1.63159 1.28039 0
M  V30 740 C 71.1207 0.30418 1.85624 0
M  V30 741 O 70.4787 -0.728618 1.66015 0
M  V30 742 C 70.5267 2.70537 2.38416 0
M  V30 743 O 69.6307 2.29931 3.42353 0
M  V30 744 H 68.9717 0.546001 0.377861 0
M  V30 745 H 71.5017 1.9574 0.59558 0
M  V30 746 H 71.5117 2.92802 2.84132 0
M  V30 747 H 70.1867 3.6689 1.95869 0
M  V30 748 H 68.7637 2.18009 3.02533 0
M  V30 749 N 70.9488 -0.749086 1.3866 0
M  V30 750 C 72.1738 -1.54344 1.38538 0
M  V30 751 C 72.5988 -1.88088 -0.0216655 0
M  V30 752 O 71.9568 -1.50899 -1.00494 0
M  V30 753 C 72.0048 -2.8164 2.25192 0
M  V30 754 O 71.1088 -3.7698 1.67212 0
M  V30 755 H 70.4498 -0.466654 0.472367 0
M  V30 756 H 72.9798 -0.925355 1.82478 0
M  V30 757 H 72.9898 -3.30519 2.3921 0
M  V30 758 H 71.6648 -2.56411 3.27454 0
M  V30 759 H 70.2418 -3.35699 1.6236 0
M  V30 760 N 72.4269 -1.23603 -0.977757 0
M  V30 761 C 73.3369 -1.03632 -2.1047 0
M  V30 762 C 74.3529 0.0199435 -1.73989 0
M  V30 763 O 75.5289 -0.176076 -2.00629 0
M  V30 764 C 72.5939 -0.63276 -3.40877 0
M  V30 765 C 71.6549 -1.76437 -3.91367 0
M  V30 766 C 70.8879 -1.37997 -5.15551 0
M  V30 767 O 71.1109 -0.265357 -5.69782 0
M  V30 768 O 70.0449 -2.20201 -5.60174 0
M  V30 769 H 73.8709 -1.98086 -2.30208 0
M  V30 770 H 71.4559 -1.02332 -1.08851 0
M  V30 771 H 73.3379 -0.418761 -4.19314 0
M  V30 772 H 72.0129 0.282754 -3.22463 0
M  V30 773 H 70.9199 -2.03304 -3.14036 0
M  V30 774 H 72.2529 -2.6583 -4.14241 0
M  V30 775 N 73.905 1.17692 -1.04816 0
M  V30 776 C 75.316 1.69501 -0.782698 0
M  V30 777 C 75.667 1.83456 0.695577 0
M  V30 778 O 74.792 1.51942 1.54086 0
M  V30 779 C 75.387 3.07874 -1.41419 0
M  V30 780 C 73.946 3.56864 -1.19686 0
M  V30 781 C 73.093 2.3322 -1.50012 0
M  V30 782 H 76.044 1.02262 -1.2136 0
M  V30 783 H 76.065 3.71528 -0.821428 0
M  V30 784 H 75.577 2.97685 -2.49009 0
M  V30 785 H 73.678 3.72337 -0.140043 0
M  V30 786 H 73.791 4.39851 -1.89916 0
M  V30 787 H 72.155 2.37501 -0.920071 0
M  V30 788 H 72.938 2.25644 -2.58727 0
M  V30 789 N 75.3831 0.828654 1.34056 0
M  V30 790 C 76.7941 0.477534 1.8049 0
M  V30 791 C 77.1451 -1.00258 1.6865 0
M  V30 792 O 76.2701 -1.78057 1.22982 0
M  V30 793 C 76.8651 0.860018 3.27703 0
M  V30 794 C 75.4241 0.561185 3.72193 0
M  V30 795 C 74.5711 1.07385 2.55663 0
M  V30 796 H 77.5221 1.0183 1.21722 0
M  V30 797 H 77.5431 0.166038 3.80138 0
M  V30 798 H 77.0551 1.93731 3.36288 0
M  V30 799 H 75.1561 -0.506465 3.69142 0
M  V30 800 H 75.2691 1.10926 4.66082 0
M  V30 801 H 73.6331 0.495149 2.49841 0
M  V30 802 H 74.4161 2.15771 2.67016 0
M  V30 803 N 76.8612 -1.46375 0.584142 0
M  V30 804 C 78.2772 -1.57694 0.245929 0
M  V30 805 C 78.4772 -1.57903 -1.25175 0
M  V30 806 O 77.5332 -1.49676 -2.03355 0
M  V30 807 C 78.8462 -2.87028 0.896402 0
M  V30 808 C 80.3942 -3.00662 0.870127 0
M  V30 809 C 80.8692 -4.32734 1.50017 0
M  V30 810 N 82.3602 -4.39436 1.46458 0
M  V30 811 C 83.0952 -5.40248 1.92144 0
M  V30 812 N 82.5912 -6.47726 2.4581 0
M  V30 813 N 84.3842 -5.31459 1.83052 0
M  V30 814 H 76.5352 -1.44483 1.55687 0
M  V30 815 H 78.7982 -0.689291 0.650831 0
M  V30 816 H 78.5042 -2.9269 1.95002 0
M  V30 817 H 78.3782 -3.75014 0.405486 0
M  V30 818 H 80.7652 -2.94581 -0.174871 0
M  V30 819 H 80.8462 -2.14148 1.39908 0
M  V30 820 H 80.4902 -4.39573 2.54437 0
M  V30 821 H 80.4202 -5.18025 0.946432 0
M  V30 822 H 82.9112 -3.62367 1.07231 0
M  V30 823 H 83.2242 -7.20863 2.78525 0
M  V30 824 H 81.5692 -6.48542 2.49836 0
M  V30 825 H 84.7602 -4.46396 1.40883 0
M  V30 826 H 84.9332 -6.09881 2.18973 0
M  V30 827 N 78.3393 -0.321999 -1.54275 0
M  V30 828 C 79.2493 0.553631 -2.27974 0
M  V30 829 C 80.2653 1.13054 -1.32268 0
M  V30 830 O 81.4413 1.15084 -1.6528 0
M  V30 831 C 78.5063 1.69927 -3.02201 0
M  V30 832 C 77.5673 1.15433 -4.1349 0
M  V30 833 C 76.8003 2.24537 -4.84168 0
M  V30 834 O 77.0233 3.44852 -4.5435 0
M  V30 835 O 75.9573 1.90044 -5.7111 0
M  V30 836 H 79.7833 -0.0448345 -3.03667 0
M  V30 837 H 77.3683 -0.0877418 -1.49142 0
M  V30 838 H 79.2503 2.3663 -3.48689 0
M  V30 839 H 77.9253 2.28395 -2.29385 0
M  V30 840 H 76.8323 0.452436 -3.71354 0
M  V30 841 H 78.1653 0.614805 -4.88345 0
M  V30 842 N 79.8174 1.5752 -0.0501392 0
M  V30 843 C 81.2334 1.56631 0.306402 0
M  V30 844 C 81.4334 1.0577 1.71508 0
M  V30 845 O 80.4894 0.713837 2.422 0
M  V30 846 C 81.8024 3.00393 0.135811 0
M  V30 847 C 83.3504 3.12315 0.206993 0
M  V30 848 C 83.8254 4.57954 0.064944 0
M  V30 849 N 85.3164 4.63041 0.121254 0
M  V30 850 C 86.0514 5.73389 0.0354381 0
M  V30 851 N 85.5474 6.92724 -0.102666 0
M  V30 852 N 87.3404 5.62026 0.090946 0
M  V30 853 H 79.4914 1.88903 -0.971046 0
M  V30 854 H 81.7544 0.869876 -0.376855 0
M  V30 855 H 81.4604 3.41635 -0.835384 0
M  V30 856 H 81.3344 3.66373 0.897275 0
M  V30 857 H 83.7214 2.70973 1.16866 0
M  V30 858 H 83.8024 2.49016 -0.585208 0
M  V30 859 H 83.4464 4.99981 -0.893394 0
M  V30 860 H 83.3764 5.19258 0.876277 0
M  V30 861 H 85.8674 3.77216 0.227284 0
M  V30 862 H 86.1804 7.72633 -0.160882 0
M  V30 863 H 84.5254 6.94864 -0.137737 0
M  V30 864 H 87.7164 4.67684 0.197388 0
M  V30 865 H 87.8894 6.47997 0.0206089 0
M  V30 866 N 81.2955 -0.223234 1.56011 0
M  V30 867 C 82.5205 -0.968978 1.83373 0
M  V30 868 C 82.9455 -1.77227 0.630254 0
M  V30 869 O 82.3035 -1.76345 -0.420959 0
M  V30 870 C 82.3515 -1.86363 3.08709 0
M  V30 871 O 81.4555 -2.95873 2.87285 0
M  V30 872 H 80.7965 -0.274461 0.604622 0
M  V30 873 H 83.3265 -0.237056 2.03222 0
M  V30 874 H 83.3365 -2.27376 3.38768 0
M  V30 875 H 82.0115 -1.27319 3.95933 0
M  V30 876 H 80.5885 -2.58818 2.68454 0
M  V30 877 N 82.7736 -1.49793 -0.48987 0
M  V30 878 C 84.0226 -1.59085 -1.23995 0
M  V30 879 C 84.3356 -0.287907 -1.9347 0
M  V30 880 O 85.5416 -0.259506 -2.70257 0
M  V30 881 C 83.9976 -2.80736 -2.252 0
M  V30 882 C 83.6056 -4.17833 -1.61614 0
M  V30 883 C 85.3496 -2.99364 -3.00967 0
M  V30 884 C 83.2566 -5.30693 -2.60996 0
M  V30 885 H 82.1866 -0.592372 -0.466488 0
M  V30 886 H 84.8376 -1.76197 -0.51252 0
M  V30 887 H 83.2196 -2.57142 -3.01154 0
M  V30 888 H 84.3936 -4.51608 -0.915774 0
M  V30 889 H 82.7086 -4.04656 -0.981977 0
M  V30 890 H 85.3056 -3.80851 -3.75308 0
M  V30 891 H 85.6486 -2.10356 -3.59244 0
M  V30 892 H 86.1816 -3.2305 -2.32128 0
M  V30 893 H 82.9206 -6.21796 -2.07485 0
M  V30 894 H 82.4406 -5.01359 -3.2924 0
M  V30 895 H 84.1196 -5.6049 -3.23202 0
M  V30 896 N 84.2517 0.741722 -1.39055 0
M  V30 897 C 85.4997 1.49818 -1.35643 0
M  V30 898 C 85.8207 1.94938 0.0491642 0
M  V30 899 O 85.0907 1.68505 0.999141 0
M  V30 900 H 83.6707 0.555755 -0.499144 0
M  V30 901 H 86.3327 0.880957 -1.73854 0
M  V30 902 H 85.4287 2.38348 -2.01486 0
M  V30 903 N 85.7298 1.2412 0.971189 0
M  V30 904 C 87.0068 0.986867 1.6888 0
M  V30 905 C 87.3868 -0.491857 2.0529 0
M  V30 906 O 86.7348 -1.46531 1.75331 0
M  V30 907 C 86.9448 1.9063 2.92338 0
M  V30 908 C 88.2928 2.17515 3.64654 0
M  V30 909 O 89.3168 1.88254 3.02388 0
M  V30 910 O 88.1758 2.6719 4.7673 0
M  V30 911 H 85.2698 0.372944 0.738134 0
M  V30 912 H 87.8158 1.35203 1.02559 0
M  V30 913 H 86.5878 2.90552 2.62097 0
M  V30 914 H 86.2108 1.54408 3.66393 0
M  V30 915 N 87.2079 -1.17134 1.05439 0
M  V30 916 C 88.4539 -1.87733 0.767077 0
M  V30 917 C 88.7869 -1.8098 -0.704253 0
M  V30 918 O 88.0619 -1.21951 -1.5152 0
M  V30 919 C 88.3449 -3.37659 1.25133 0
M  V30 920 C 88.1979 -3.53149 2.78578 0
M  V30 921 C 89.5169 -4.31768 0.852324 0
M  V30 922 H 86.6359 -0.681687 0.280129 0
M  V30 923 H 89.2779 -1.37732 1.30881 0
M  V30 924 H 87.4279 -3.80373 0.790469 0
M  V30 925 H 89.0999 -3.19434 3.32806 0
M  V30 926 H 87.3429 -2.95345 3.17732 0
M  V30 927 H 88.0139 -4.58403 3.07523 0
M  V30 928 H 90.4899 -3.96909 1.24911 0
M  V30 929 H 89.3659 -5.35199 1.21873 0
M  V30 930 H 89.6269 -4.41429 -0.243485 0
M  V30 931 N 88.686 -0.835752 -1.33615 0
M  V30 932 C 89.914 -0.443344 -2.02094 0
M  V30 933 C 90.329 0.954522 -1.62894 0
M  V30 934 O 89.686 1.61982 -0.840723 0
M  V30 935 C 89.737 -0.550775 -3.5728 0
M  V30 936 O 89.458 -1.89356 -3.95065 0
M  V30 937 C 90.959 -0.154919 -4.43029 0
M  V30 938 H 88.179 -0.176359 -0.647409 0
M  V30 939 H 90.723 -1.12746 -1.70612 0
M  V30 940 H 88.878 0.0853997 -3.87306 0
M  V30 941 H 89.292 -1.87687 -4.89769 0
M  V30 942 H 90.766 -0.281144 -5.51284 0
M  V30 943 H 91.243 0.902863 -4.2982 0
M  V30 944 H 91.849 -0.765404 -4.18356 0
M  V30 945 N 90.1641 1.46063 -0.591896 0
M  V30 946 C 91.3921 2.06717 -0.0868936 0
M  V30 947 C 91.8071 1.43916 1.22203 0
M  V30 948 O 91.1641 0.547698 1.74088 0
M  V30 949 C 91.2151 3.6142 0.0758725 0
M  V30 950 O 90.9361 4.21874 -1.18126 0
M  V30 951 C 92.4371 4.39025 0.61416 0
M  V30 952 H 89.6571 0.668162 -0.0616518 0
M  V30 953 H 92.2011 1.8755 -0.815175 0
M  V30 954 H 90.3561 3.79983 0.754413 0
M  V30 955 H 90.7701 5.14861 -1.00092 0
M  V30 956 H 92.2441 5.4783 0.677193 0
M  V30 957 H 92.7211 4.07708 1.63312 0
M  V30 958 H 93.3271 4.2529 -0.0298142 0
M  V30 959 N 91.6422 0.330177 1.54103 0
M  V30 960 C 92.6052 -0.520144 2.2322 0
M  V30 961 C 93.6052 -1.03828 1.22786 0
M  V30 962 O 94.7952 -0.929652 1.4732 0
M  V30 963 C 91.9272 -1.72317 2.94142 0
M  V30 964 H 93.1202 0.0841605 2.99782 0
M  V30 965 H 90.6732 0.0813433 1.56088 0
M  V30 966 H 91.4082 -2.36653 2.21734 0
M  V30 967 H 91.1932 -1.35898 3.67796 0
M  V30 968 H 92.6832 -2.3266 3.46784 0
M  V30 969 N 93.1203 -1.57491 0.0584922 0
M  V30 970 C 94.5313 -1.80526 -0.476138 0
M  V30 971 C 94.8823 -0.971334 -1.70469 0
M  V30 972 O 94.0073 -0.190012 -2.15564 0
M  V30 973 C 94.6023 -3.27424 -0.870587 0
M  V30 974 C 93.1613 -3.51351 -1.35015 0
M  V30 975 C 92.3083 -2.75343 -0.32887 0
M  V30 976 H 95.2593 -1.56133 0.284312 0
M  V30 977 H 95.2803 -3.38745 -1.73299 0
M  V30 978 H 94.7923 -3.88093 0.0237627 0
M  V30 979 H 92.8933 -2.95971 -2.26345 0
M  V30 980 H 93.0063 -4.60059 -1.33726 0
M  V30 981 H 91.3703 -2.417 -0.803321 0
M  V30 982 H 92.1533 -3.38743 0.557521 0
M  V30 983 N 94.5984 0.214957 -1.56127 0
M  V30 984 C 96.0094 0.781386 -1.69562 0
M  V30 985 C 96.3604 1.84707 -0.66165 0
M  V30 986 O 95.4854 2.156 0.185927 0
M  V30 987 C 96.0804 1.42411 -3.07416 0
M  V30 988 C 94.6394 1.93786 -3.22683 0
M  V30 989 C 93.7864 0.800438 -2.65496 0
M  V30 990 H 96.7374 -0.00980633 -1.58697 0
M  V30 991 H 96.7584 2.29309 -3.0364 0
M  V30 992 H 96.2704 0.64826 -3.82648 0
M  V30 993 H 94.3714 2.74152 -2.52332 0
M  V30 994 H 94.4844 2.1133 -4.29973 0
M  V30 995 H 92.8484 1.2095 -2.2415 0
M  V30 996 H 93.6314 0.0371471 -3.4328 0
M  V30 997 N 96.0765 1.50051 0.48192 0
M  V30 998 C 96.9865 1.7089 1.60728 0
M  V30 999 C 98.0025 0.591788 1.63627 0
M  V30 1000 O 99.1785 0.868817 1.81696 0
M  V30 1001 C 96.2435 1.78855 2.97005 0
M  V30 1002 C 95.3045 3.02537 3.04581 0
M  V30 1003 C 94.5375 3.10112 4.34357 0
M  V30 1004 O 94.7605 2.24765 5.24249 0
M  V30 1005 O 93.6945 4.02747 4.47301 0
M  V30 1006 H 97.5205 2.66264 1.46072 0
M  V30 1007 H 95.1055 1.34018 0.660264 0
M  V30 1008 H 96.9875 1.86336 3.77964 0
M  V30 1009 H 95.6625 0.866628 3.11883 0
M  V30 1010 H 94.5695 3.00563 2.22739 0
M  V30 1011 H 95.9025 3.94272 2.94636 0
M  V30 1012 N 97.5546 -0.734337 1.39446 0
M  V30 1013 C 98.8006 -1.49613 1.36908 0
M  V30 1014 C 99.1336 -1.94169 -0.0347829 0
M  V30 1015 O 98.4086 -1.66833 -0.999847 0
M  V30 1016 C 98.6916 -2.73534 2.34203 0
M  V30 1017 C 98.5446 -2.34993 3.83534 0
M  V30 1018 C 99.8636 -3.75635 2.29317 0
M  V30 1019 H 96.9826 -0.542714 0.498629 0
M  V30 1020 H 99.6246 -0.839597 1.70443 0
M  V30 1021 H 97.7746 -3.29553 2.05736 0
M  V30 1022 H 99.4466 -1.84601 4.22753 0
M  V30 1023 H 97.6896 -1.67213 4.00278 0
M  V30 1024 H 98.3606 -3.23738 4.47099 0
M  V30 1025 H 100.837 -3.29203 2.54489 0
M  V30 1026 H 99.7126 -4.60008 2.99472 0
M  V30 1027 H 99.9736 -4.22603 1.29842 0
M  V30 1028 N 99.0327 -1.24633 -0.964593 0
M  V30 1029 C 100.261 -1.11501 -1.74285 0
M  V30 1030 C 100.676 0.332165 -1.85855 0
M  V30 1031 O 100.033 1.22903 -1.34911 0
M  V30 1032 C 100.084 -1.75258 -3.16175 0
M  V30 1033 O 99.8047 -3.14318 -3.05182 0
M  V30 1034 C 101.306 -1.67776 -4.10324 0
M  V30 1035 H 98.5257 -0.389407 -0.546446 0
M  V30 1036 H 101.07 -1.64801 -1.21083 0
M  V30 1037 H 99.2247 -1.25954 -3.66353 0
M  V30 1038 H 99.6387 -3.4551 -3.94618 0
M  V30 1039 H 101.113 -2.17064 -5.0753 0
M  V30 1040 H 101.59 -0.639584 -4.34518 0
M  V30 1041 H 102.196 -2.16522 -3.66058 0
M  V30 1042 N 100.511 1.16574 -1.06058 0
M  V30 1043 C 101.922 1.68662 -0.800632 0
M  V30 1044 C 102.273 1.84184 0.67608 0
M  V30 1045 O 101.398 1.53568 1.52466 0
M  V30 1046 C 101.993 3.06356 -1.44676 0
M  V30 1047 C 100.552 3.55575 -1.23465 0
M  V30 1048 C 99.6988 2.31616 -1.52477 0
M  V30 1049 H 102.65 1.00969 -1.22438 0
M  V30 1050 H 102.671 3.70636 -0.860788 0
M  V30 1051 H 102.183 2.95027 -2.52152 0
M  V30 1052 H 100.284 3.72167 -0.179527 0
M  V30 1053 H 100.397 4.37812 -1.94571 0
M  V30 1054 H 98.7608 2.36512 -0.945209 0
M  V30 1055 H 99.5438 2.22887 -2.61106 0
M  V30 1056 N 101.989 0.842826 1.3317 0
M  V30 1057 C 102.899 0.281444 2.32906 0
M  V30 1058 C 103.915 -0.594587 1.63526 0
M  V30 1059 O 105.091 -0.49777 1.95152 0
M  V30 1060 C 102.156 -0.530929 3.42611 0
M  V30 1061 C 101.217 0.369843 4.27704 0
M  V30 1062 C 100.45 -0.403853 5.3217 0
M  V30 1063 O 100.673 -1.63513 5.46461 0
M  V30 1064 O 99.6069 0.224199 6.01482 0
M  V30 1065 H 103.433 1.10744 2.82789 0
M  V30 1066 H 101.018 0.60545 1.36582 0
M  V30 1067 H 102.9 -0.992437 4.09547 0
M  V30 1068 H 101.575 -1.33392 2.94938 0
M  V30 1069 H 100.482 0.879275 3.6362 0
M  V30 1070 H 101.815 1.13771 4.78871 0
M  V30 1071 N 103.467 -1.45747 0.599634 0
M  V30 1072 C 104.692 -2.07178 0.0960198 0
M  V30 1073 C 105.117 -1.44268 -1.207 0
M  V30 1074 O 104.475 -0.532503 -1.73303 0
M  V30 1075 C 104.523 -3.60579 -0.0385348 0
M  V30 1076 O 103.627 -3.97713 -1.0908 0
M  V30 1077 H 102.968 -0.660251 0.0704593 0
M  V30 1078 H 105.498 -1.87124 0.827385 0
M  V30 1079 H 105.508 -4.07298 -0.239304 0
M  V30 1080 H 104.183 -4.05756 0.912947 0
M  V30 1081 H 102.76 -3.62678 -0.867135 0
M  V30 1082 N 104.945 -0.338344 -1.53925 0
M  V30 1083 C 106.361 0.0137736 -1.59594 0
M  V30 1084 C 106.561 1.49186 -1.35447 0
M  V30 1085 O 105.617 2.24987 -1.14616 0
M  V30 1086 C 106.93 -0.41773 -2.97784 0
M  V30 1087 C 108.478 -0.369633 -3.1081 0
M  V30 1088 C 108.953 -0.776524 -4.51369 0
M  V30 1089 N 110.444 -0.730506 -4.57403 0
M  V30 1090 C 111.179 -1.01736 -5.64303 0
M  V30 1091 N 110.675 -1.3721 -6.79077 0
M  V30 1092 N 112.468 -0.941942 -5.54151 0
M  V30 1093 H 104.619 -1.3012 -1.67876 0
M  V30 1094 H 106.882 -0.530082 -0.78595 0
M  V30 1095 H 106.588 -1.44811 -3.20504 0
M  V30 1096 H 106.462 0.209729 -3.76616 0
M  V30 1097 H 108.849 0.651568 -2.87817 0
M  V30 1098 H 108.93 -1.03223 -2.34049 0
M  V30 1099 H 108.574 -1.79571 -4.75096 0
M  V30 1100 H 108.504 -0.0914649 -5.26521 0
M  V30 1101 H 110.995 -0.468783 -3.74981 0
M  V30 1102 H 111.308 -1.57597 -7.5656 0
M  V30 1103 H 109.653 -1.4105 -6.80536 0
M  V30 1104 H 112.844 -0.664184 -4.63364 0
M  V30 1105 H 113.017 -1.16884 -6.37371 0
M  V30 1106 N 106.423 1.57458 -0.0668435 0
M  V30 1107 C 107.834 1.80776 0.466558 0
M  V30 1108 C 108.185 0.980361 1.69951 0
M  V30 1109 O 107.31 0.201441 2.1546 0
M  V30 1110 C 107.905 3.27881 0.85321 0
M  V30 1111 C 106.464 3.52062 1.3315 0
M  V30 1112 C 105.611 2.75513 0.314264 0
M  V30 1113 H 108.562 1.5598 -0.292588 0
M  V30 1114 H 108.583 3.39659 1.715 0
M  V30 1115 H 108.095 3.88075 -0.0443439 0
M  V30 1116 H 106.196 2.97167 2.24772 0
M  V30 1117 H 106.309 4.60762 1.31285 0
M  V30 1118 H 104.673 2.42123 0.790492 0
M  V30 1119 H 105.456 3.38442 -0.575477 0
M  V30 1120 N 107.901 -0.206675 1.56239 0
M  V30 1121 C 109.147 -0.930218 1.80208 0
M  V30 1122 C 109.48 -1.83387 0.638981 0
M  V30 1123 O 108.755 -1.91119 -0.361066 0
M  V30 1124 C 109.038 -1.75641 3.1436 0
M  V30 1125 C 108.891 -0.878257 4.41142 0
M  V30 1126 C 110.21 -2.73129 3.45092 0
M  V30 1127 H 107.329 -0.336742 0.655571 0
M  V30 1128 H 109.971 -0.198222 1.88963 0
M  V30 1129 H 108.121 -2.38048 3.07027 0
M  V30 1130 H 109.793 -0.269787 4.6051 0
M  V30 1131 H 108.036 -0.184385 4.33408 0
M  V30 1132 H 108.707 -1.49106 5.3148 0
M  V30 1133 H 111.183 -2.20856 3.52649 0
M  V30 1134 H 110.059 -3.28028 4.40101 0
M  V30 1135 H 110.32 -3.51606 2.68003 0
M  V30 1136 N 109.379 -1.50304 -0.473955 0
M  V30 1137 C 110.327 -1.69482 -1.59307 0
M  V30 1138 C 111.321 -0.560669 -1.59853 0
M  V30 1139 O 112.527 -0.741087 -1.64036 0
M  V30 1140 H 108.902 -0.534892 -0.528578 0
M  V30 1141 H 110.873 -2.63364 -1.40293 0
M  V30 1142 C 109.622 -1.80354 -2.97267 0
M  V30 1143 H 108.945 -2.67012 -2.97564 0
M  V30 1144 H 110.385 -1.97798 -3.75036 0
M  V30 1145 C 108.844 -0.55448 -3.32306 0
M  V30 1146 O 109.374 0.307661 -4.0052 0
M  V30 1147 N 107.58 -0.409354 -2.87702 0
M  V30 1148 H 107.127 -1.11196 -2.32364 0
M  V30 1149 H 107.085 0.425223 -3.11511 0
M  V30 1150 N 110.857 0.726932 -1.39834 0
M  V30 1151 C 111.807 1.83232 -1.35683 0
M  V30 1152 C 112.791 1.59155 -0.236295 0
M  V30 1153 O 113.983 1.70522 -0.474488 0
M  V30 1154 C 111.112 3.21246 -1.21062 0
M  V30 1155 C 110.198 3.51125 -2.37849 0
M  V30 1156 N 110.589 3.51889 -3.63329 0
M  V30 1157 C 108.887 3.81527 -2.30982 0
M  V30 1158 C 109.588 3.79791 -4.40606 0
M  V30 1159 N 108.564 3.97971 -3.70297 0
M  V30 1160 H 112.366 1.8214 -2.30656 0
M  V30 1161 H 109.88 0.925545 -1.33444 0
M  V30 1162 H 111.877 4.00387 -1.16171 0
M  V30 1163 H 110.537 3.23572 -0.270458 0
M  V30 1164 H 111.548 3.33008 -3.96643 0
M  V30 1165 H 108.225 3.91411 -1.45272 0
M  V30 1166 H 109.615 3.86783 -5.49408 0
M  V30 1167 N 112.336 1.25143 0.95797 0
M  V30 1168 C 113.561 1.12521 1.74223 0
M  V30 1169 C 113.986 -0.317402 1.85403 0
M  V30 1170 O 113.344 -1.2299 1.33204 0
M  V30 1171 C 113.392 1.78062 3.1357 0
M  V30 1172 O 112.496 1.058 3.98598 0
M  V30 1173 H 111.837 0.39304 0.535178 0
M  V30 1174 H 114.367 1.65641 1.201 0
M  V30 1175 H 114.377 1.84213 3.64046 0
M  V30 1176 H 113.052 2.83021 3.04749 0
M  V30 1177 H 111.629 1.07506 3.57067 0
M  V30 1178 N 113.814 -1.1601 1.06675 0
M  V30 1179 C 115.06 -1.86909 0.786945 0
M  V30 1180 C 115.393 -1.81717 -0.685018 0
M  V30 1181 O 114.668 -1.23551 -1.50218 0
M  V30 1182 C 114.951 -3.36313 1.28707 0
M  V30 1183 C 114.804 -3.50175 2.82308 0
M  V30 1184 C 116.123 -4.3084 0.898071 0
M  V30 1185 H 113.242 -0.678677 0.287343 0
M  V30 1186 H 115.884 -1.36336 1.32334 0
M  V30 1187 H 114.034 -3.79513 0.830768 0
M  V30 1188 H 115.706 -3.15886 3.36175 0
M  V30 1189 H 113.949 -2.91959 3.20847 0
M  V30 1190 H 114.62 -4.55116 3.12368 0
M  V30 1191 H 117.096 -3.95561 1.29114 0
M  V30 1192 H 115.972 -5.33876 1.27543 0
M  V30 1193 H 116.233 -4.41662 -0.196651 0
M  V30 1194 N 115.292 -0.849877 -1.32721 0
M  V30 1195 C 116.52 -0.464754 -2.01613 0
M  V30 1196 C 116.935 0.937191 -1.63897 0
M  V30 1197 O 116.292 1.61081 -0.857856 0
M  V30 1198 C 116.343 -0.588638 -3.56675 0
M  V30 1199 O 116.064 -1.93535 -3.93034 0
M  V30 1200 C 117.565 -0.2019 -4.4284 0
M  V30 1201 H 114.785 -0.183215 -0.645502 0
M  V30 1202 H 117.329 -1.1455 -1.69407 0
M  V30 1203 H 115.484 0.0443159 -3.87375 0
M  V30 1204 H 115.898 -1.92871 -4.87751 0
M  V30 1205 H 117.372 -0.339599 -5.50954 0
M  V30 1206 H 117.849 0.857224 -4.30753 0
M  V30 1207 H 118.455 -0.809733 -4.17521 0
M  V30 1208 N 116.77 1.45427 -0.607355 0
M  V30 1209 C 118.047 1.9557 -0.0344566 0
M  V30 1210 C 118.427 1.54979 1.43334 0
M  V30 1211 O 117.775 0.812241 2.13576 0
M  V30 1212 C 117.985 3.48226 -0.232321 0
M  V30 1213 C 119.333 4.2445 -0.113001 0
M  V30 1214 O 120.357 3.55829 -0.162431 0
M  V30 1215 O 119.216 5.465 0.00209442 0
M  V30 1216 H 116.31 0.826222 0.0358667 0
M  V30 1217 H 118.856 1.55594 -0.6774 0
M  V30 1218 H 117.628 3.70739 -1.25174 0
M  V30 1219 H 117.251 3.95092 0.445896 0
M  V30 1220 N 118.248 0.346503 1.53744 0
M  V30 1221 C 119.198 -0.524953 2.21874 0
M  V30 1222 C 120.182 -1.06376 1.20718 0
M  V30 1223 O 121.374 -0.996972 1.46251 0
M  V30 1224 C 118.503 -1.6739 2.99726 0
M  V30 1225 C 117.589 -1.14888 4.08242 0
M  V30 1226 N 117.98 -0.345329 5.0462 0
M  V30 1227 C 116.278 -1.4255 4.22606 0
M  V30 1228 C 116.979 -0.0600706 5.81669 0
M  V30 1229 N 115.955 -0.65252 5.39669 0
M  V30 1230 H 119.757 0.0960091 2.93743 0
M  V30 1231 H 117.271 0.15352 1.61673 0
M  V30 1232 H 119.268 -2.3102 3.47038 0
M  V30 1233 H 117.928 -2.29811 2.29384 0
M  V30 1234 H 118.939 0.0138439 5.17898 0
M  V30 1235 H 115.616 -2.05389 3.63486 0
M  V30 1236 H 117.006 0.588321 6.69319 0
M  V30 1237 N 119.726 -1.57421 0.075193 0
M  V30 1238 C 120.974 -1.93236 -0.591974 0
M  V30 1239 C 121.295 -0.956241 -1.69944 0
M  V30 1240 O 120.565 -0.00494792 -1.95899 0
M  V30 1241 H 119.145 -0.713355 -0.22166 0
M  V30 1242 H 121.807 -1.9444 0.133848 0
M  V30 1243 H 120.903 -2.95131 -1.01509 0
M  V30 1244 N 121.204 0.198386 -1.56346 0
M  V30 1245 C 122.137 1.27381 -1.89339 0
M  V30 1246 C 123.115 1.44106 -0.753134 0
M  V30 1247 O 124.299 1.59549 -1.00381 0
M  V30 1248 C 121.426 2.6409 -2.12071 0
M  V30 1249 C 120.472 2.64253 -3.34772 0
M  V30 1250 S 121.305 2.16013 -4.89999 0
M  V30 1251 C 122.461 3.54553 -5.15794 0
M  V30 1252 H 122.694 0.992058 -2.8026 0
M  V30 1253 H 120.227 0.401726 -1.49082 0
M  V30 1254 H 122.185 3.42786 -2.2585 0
M  V30 1255 H 120.846 2.89478 -1.21906 0
M  V30 1256 H 120.039 3.64768 -3.47794 0
M  V30 1257 H 119.641 1.93637 -3.1997 0
M  V30 1258 H 121.933 4.50396 -5.06112 0
M  V30 1259 H 122.876 3.46428 -6.1757 0
M  V30 1260 H 123.284 3.49313 -4.43442 0
M  V30 1261 N 122.682 1.50554 0.465978 0
M  V30 1262 C 123.629 1.6979 1.56333 0
M  V30 1263 C 124.599 0.539239 1.57103 0
M  V30 1264 O 125.784 0.770401 1.74555 0
M  V30 1265 C 122.924 1.80273 2.94271 0
M  V30 1266 C 122.037 3.07674 3.0325 0
M  V30 1267 C 121.172 3.08922 4.32135 0
M  V30 1268 C 120.211 4.30755 4.34875 0
M  V30 1269 N 119.348 4.29714 5.55239 0
M  V30 1270 H 124.188 2.63472 1.39235 0
M  V30 1271 H 121.725 1.30602 0.676873 0
M  V30 1272 H 123.683 1.84332 3.74269 0
M  V30 1273 H 122.313 0.900258 3.09992 0
M  V30 1274 H 121.365 3.13062 2.16094 0
M  V30 1275 H 122.677 3.97642 3.01135 0
M  V30 1276 H 121.831 3.11738 5.20485 0
M  V30 1277 H 120.57 2.16792 4.36866 0
M  V30 1278 H 119.575 4.28146 3.44922 0
M  V30 1279 H 120.8 5.24117 4.31831 0
M  V30 1280 H 118.746 3.4044 5.60746 0
M  V30 1281 H 118.663 5.13456 5.54886 0
M  V30 1282 H 119.931 4.36683 6.457 0
M  V30 1283 N 124.16 -0.719506 1.40217 0
M  V30 1284 C 125.571 -1.29848 1.34151 0
M  V30 1285 C 125.922 -1.96196 0.0131349 0
M  V30 1286 O 125.047 -1.973 -0.88892 0
M  V30 1287 C 125.642 -2.36118 2.42968 0
M  V30 1288 C 124.201 -2.8965 2.40374 0
M  V30 1289 C 123.348 -1.63393 2.24049 0
M  V30 1290 H 126.299 -0.51591 1.5008 0
M  V30 1291 H 126.32 -3.16871 2.10649 0
M  V30 1292 H 125.832 -1.878 3.39636 0
M  V30 1293 H 123.933 -3.42208 1.47392 0
M  V30 1294 H 124.046 -3.4171 3.35814 0
M  V30 1295 H 122.41 -1.88312 1.71495 0
M  V30 1296 H 123.193 -1.17104 3.2271 0
M  V30 1297 N 125.638 -1.25649 -0.95132 0
M  V30 1298 C 127.054 -1.02542 -1.223 0
M  V30 1299 C 127.254 0.255715 -1.99871 0
M  V30 1300 O 126.31 0.967558 -2.33226 0
M  V30 1301 C 127.623 -2.25065 -1.99415 0
M  V30 1302 C 129.171 -2.29861 -2.12446 0
M  V30 1303 C 129.646 -3.52048 -2.92961 0
M  V30 1304 N 131.137 -3.52465 -3.00538 0
M  V30 1305 C 131.872 -4.43672 -3.63239 0
M  V30 1306 N 131.368 -5.45157 -4.27523 0
M  V30 1307 N 133.161 -4.31346 -3.60412 0
M  V30 1308 H 125.312 -2.07951 -0.432471 0
M  V30 1309 H 127.575 -0.91339 -0.253816 0
M  V30 1310 H 127.281 -3.18194 -1.49817 0
M  V30 1311 H 127.155 -2.28502 -3.00111 0
M  V30 1312 H 129.542 -1.37252 -2.61239 0
M  V30 1313 H 129.623 -2.3044 -1.11044 0
M  V30 1314 H 129.267 -4.44981 -2.44856 0
M  V30 1315 H 129.197 -3.48715 -3.94596 0
M  V30 1316 H 131.688 -2.79056 -2.54826 0
M  V30 1317 H 132.001 -6.10958 -4.73234 0
M  V30 1318 H 130.346 -5.49025 -4.26141 0
M  V30 1319 H 133.537 -3.51288 -3.09377 0
M  V30 1320 H 133.71 -5.02624 -4.0899 0
M  V30 1321 N 127.117 1.15442 -1.07289 0
M  V30 1322 C 128.064 2.20161 -0.692653 0
M  V30 1323 C 129.034 1.63073 0.31564 0
M  V30 1324 O 130.219 1.89725 0.202235 0
M  V30 1325 C 127.359 3.44967 -0.0959509 0
M  V30 1326 C 126.472 4.16256 -1.15564 0
M  V30 1327 C 125.607 5.28609 -0.524011 0
M  V30 1328 C 124.646 5.91715 -1.56653 0
M  V30 1329 N 123.783 6.9554 -0.957531 0
M  V30 1330 H 128.623 2.52037 -1.59002 0
M  V30 1331 H 126.16 1.2378 -0.794798 0
M  V30 1332 H 128.118 4.16341 0.267628 0
M  V30 1333 H 126.748 3.1361 0.764772 0
M  V30 1334 H 125.8 3.43385 -1.6368 0
M  V30 1335 H 127.112 4.59268 -1.94613 0
M  V30 1336 H 126.266 6.06604 -0.108032 0
M  V30 1337 H 125.005 4.86787 0.29825 0
M  V30 1338 H 124.01 5.12433 -1.9923 0
M  V30 1339 H 125.235 6.35614 -2.39107 0
M  V30 1340 H 123.181 6.55814 -0.156162 0
M  V30 1341 H 123.098 7.36977 -1.68526 0
M  V30 1342 H 124.366 7.77435 -0.567032 0
M  V30 1343 N 128.595 0.856903 1.32268 0
M  V30 1344 C 129.558 0.308171 2.27119 0
M  V30 1345 C 130.558 -0.533421 1.51695 0
M  V30 1346 O 131.748 -0.344607 1.70757 0
M  V30 1347 C 128.88 -0.563757 3.36206 0
M  V30 1348 H 130.073 1.14535 2.77167 0
M  V30 1349 H 127.626 0.631421 1.42978 0
M  V30 1350 H 128.361 -1.42266 2.91429 0
M  V30 1351 H 128.146 0.0386749 3.92081 0
M  V30 1352 H 129.636 -0.940386 4.06874 0
M  V30 1353 N 130.073 -1.45103 0.615059 0
M  V30 1354 C 131.32 -2.02183 0.113179 0
M  V30 1355 C 131.648 -1.48249 -1.25906 0
M  V30 1356 O 130.903 -0.650265 -1.84581 0
M  V30 1357 C 131.202 -3.57386 0.0318797 0
M  V30 1358 C 130.868 -4.30505 1.34077 0
M  V30 1359 C 129.53 -4.50197 1.69929 0
M  V30 1360 C 131.882 -4.72238 2.20546 0
M  V30 1361 C 129.21 -5.08881 2.91988 0
M  V30 1362 C 131.562 -5.32272 3.41861 0
M  V30 1363 C 130.226 -5.50187 3.77956 0
M  V30 1364 H 129.496 -0.739842 0.0414151 0
M  V30 1365 H 132.143 -1.74073 0.798168 0
M  V30 1366 H 130.448 -3.84817 -0.736409 0
M  V30 1367 H 132.145 -3.99264 -0.372712 0
M  V30 1368 H 128.735 -4.15496 1.05173 0
M  V30 1369 H 132.919 -4.56751 1.94146 0
M  V30 1370 H 128.175 -5.20939 3.2005 0
M  V30 1371 H 132.349 -5.63563 4.09109 0
M  V30 1372 H 129.976 -5.95427 4.72622 0
M  V30 1373 N 131.551 -0.354651 -1.53558 0
M  V30 1374 C 132.962 0.126902 -1.86268 0
M  V30 1375 C 133.313 1.49075 -1.27558 0
M  V30 1376 O 132.438 2.08105 -0.5934 0
M  V30 1377 C 133.033 0.237046 -3.3797 0
M  V30 1378 C 131.592 0.662842 -3.70518 0
M  V30 1379 C 130.739 -0.196652 -2.76602 0
M  V30 1380 H 133.69 -0.573849 -1.47962 0
M  V30 1381 H 133.711 1.06259 -3.65362 0
M  V30 1382 H 133.223 -0.755725 -3.80671 0
M  V30 1383 H 131.324 1.66424 -3.33367 0
M  V30 1384 H 131.437 0.445034 -4.77029 0
M  V30 1385 H 129.801 0.332763 -2.52517 0
M  V30 1386 H 130.584 -1.18676 -3.22135 0
M  V30 1387 N 133.029 1.57378 -0.0835403 0
M  V30 1388 C 134.275 1.94217 0.583733 0
M  V30 1389 C 134.608 0.964653 1.68547 0
M  V30 1390 O 133.883 -0.00422258 1.945 0
M  V30 1391 C 134.166 3.41253 1.14972 0
M  V30 1392 C 134.019 4.49768 0.0538277 0
M  V30 1393 C 135.338 3.89352 2.05166 0
M  V30 1394 H 132.457 0.706233 0.210724 0
M  V30 1395 H 135.099 1.89392 -0.1519 0
M  V30 1396 H 133.249 3.45496 1.77665 0
M  V30 1397 H 134.921 4.57641 -0.579851 0
M  V30 1398 H 133.164 4.29432 -0.614068 0
M  V30 1399 H 133.835 5.49817 0.490452 0
M  V30 1400 H 136.311 3.87189 1.52393 0
M  V30 1401 H 135.187 4.92822 2.41698 0
M  V30 1402 H 135.448 3.27973 2.96456 0
M  V30 1403 N 134.507 -0.190092 1.56449 0
M  V30 1404 C 135.437 -1.23816 1.97969 0
M  V30 1405 C 136.418 -1.47201 0.852395 0
M  V30 1406 O 137.603 -1.58854 1.1171 0
M  V30 1407 C 134.733 -2.5813 2.3235 0
M  V30 1408 C 133.687 -2.49348 3.47864 0
M  V30 1409 C 133.013 -3.8798 3.67934 0
M  V30 1410 C 134.313 -2.01424 4.81898 0
M  V30 1411 H 136.007 -0.89311 2.85769 0
M  V30 1412 H 133.553 -0.428177 1.37487 0
M  V30 1413 H 135.506 -3.31637 2.59991 0
M  V30 1414 H 134.23 -2.94386 1.41438 0
M  V30 1415 H 132.889 -1.78297 3.20321 0
M  V30 1416 H 132.537 -4.21597 2.74344 0
M  V30 1417 H 132.237 -3.82978 4.45648 0
M  V30 1418 H 133.761 -4.63101 3.97957 0
M  V30 1419 H 135.175 -2.64693 5.08538 0
M  V30 1420 H 133.572 -2.07413 5.63116 0
M  V30 1421 H 134.642 -0.967677 4.75146 0
M  V30 1422 N 135.985 -1.50799 -0.457987 0
M  V30 1423 C 137.233 -1.62121 -1.2067 0
M  V30 1424 C 137.554 -0.329793 -1.92191 0
M  V30 1425 O 136.824 0.653409 -1.84682 0
M  V30 1426 H 135.404 -0.597441 -0.448411 0
M  V30 1427 H 138.066 -1.87637 -0.527096 0
M  V30 1428 H 137.162 -2.43882 -1.94751 0
M  V30 1429 N 137.463 0.71206 -1.40597 0
M  V30 1430 C 138.712 1.46754 -1.38369 0
M  V30 1431 C 139.025 1.95598 0.0097839 0
M  V30 1432 O 140.231 2.71059 0.154677 0
M  V30 1433 C 138.687 2.65289 -2.43207 0
M  V30 1434 C 138.295 2.23301 -3.88382 0
M  V30 1435 C 140.039 3.43008 -2.50091 0
M  V30 1436 C 137.946 3.38696 -4.84808 0
M  V30 1437 H 136.876 0.55118 -0.514506 0
M  V30 1438 H 139.527 0.774616 -1.66349 0
M  V30 1439 H 137.909 3.36769 -2.08332 0
M  V30 1440 H 139.083 1.59218 -4.32419 0
M  V30 1441 H 137.398 1.58618 -3.85006 0
M  V30 1442 H 139.995 4.28881 -3.1932 0
M  V30 1443 H 140.338 3.87065 -1.53253 0
M  V30 1444 H 140.871 2.78574 -2.83974 0
M  V30 1445 H 137.61 2.99668 -5.82992 0
M  V30 1446 H 137.13 4.01683 -4.45433 0
M  V30 1447 H 138.809 4.04712 -5.04794 0
M  V30 1448 N 138.941 1.26152 0.944643 0
M  V30 1449 C 140.218 1.02247 1.66748 0
M  V30 1450 C 140.598 -0.448202 2.06287 0
M  V30 1451 O 139.946 -1.42779 1.78399 0
M  V30 1452 C 140.156 1.96788 2.88228 0
M  V30 1453 C 141.504 2.25201 3.59958 0
M  V30 1454 O 142.528 1.94626 2.98327 0
M  V30 1455 O 141.387 2.77242 4.70956 0
M  V30 1456 H 138.481 0.388517 0.730057 0
M  V30 1457 H 141.027 1.37348 0.99668 0
M  V30 1458 H 139.799 2.96047 2.55875 0
M  V30 1459 H 139.422 1.62145 3.63035 0
M  V30 1460 N 140.419 -1.14872 1.07899 0
M  V30 1461 C 141.649 -1.89386 0.825631 0
M  V30 1462 C 142.057 -1.78565 -0.625406 0
M  V30 1463 O 141.4 -1.13918 -1.44113 0
M  V30 1464 C 141.462 -3.40206 1.16191 0
M  V30 1465 C 141.126 -3.74812 2.61467 0
M  V30 1466 C 142.123 -3.75367 3.59716 0
M  V30 1467 C 139.808 -4.0495 2.97189 0
M  V30 1468 C 141.802 -4.05574 4.9172 0
M  V30 1469 C 139.489 -4.34821 4.29388 0
M  V30 1470 C 140.487 -4.35116 5.26463 0
M  V30 1471 O 140.175 -4.64267 6.56286 0
M  V30 1472 H 139.907 -0.606894 0.297751 0
M  V30 1473 H 142.461 -1.46438 1.44031 0
M  V30 1474 H 140.691 -3.8358 0.490214 0
M  V30 1475 H 142.38 -3.96018 0.890193 0
M  V30 1476 H 143.146 -3.52176 3.33462 0
M  V30 1477 H 139.025 -4.03876 2.22273 0
M  V30 1478 H 142.569 -4.05719 5.67484 0
M  V30 1479 H 138.466 -4.5748 4.55392 0
M  V30 1480 H 139.234 -4.82007 6.61522 0
M  V30 1481 N 141.898 -0.863906 -1.31812 0
M  V30 1482 C 143.126 -0.486111 -2.01108 0
M  V30 1483 C 143.541 0.919755 -1.64882 0
M  V30 1484 O 142.898 1.60162 -0.874893 0
M  V30 1485 C 142.949 -0.626435 -3.56031 0
M  V30 1486 O 142.67 -1.97693 -3.90959 0
M  V30 1487 C 144.171 -0.248857 -4.42601 0
M  V30 1488 H 141.391 -0.190052 -0.643523 0
M  V30 1489 H 143.935 -1.1634 -1.68182 0
M  V30 1490 H 142.09 0.00322717 -3.874 0
M  V30 1491 H 142.504 -1.98034 -4.85678 0
M  V30 1492 H 143.978 -0.398016 -5.50563 0
M  V30 1493 H 144.455 0.811489 -4.31638 0
M  V30 1494 H 145.061 -0.853971 -4.16638 0
M  V30 1495 N 143.376 1.44774 -0.622745 0
M  V30 1496 C 144.326 2.2774 0.108889 0
M  V30 1497 C 145.31 1.38189 0.824175 0
M  V30 1498 O 146.502 1.62063 0.711664 0
M  V30 1499 C 143.631 3.25353 1.09546 0
M  V30 1500 C 142.717 4.22392 0.380232 0
M  V30 1501 N 143.108 5.02388 -0.586535 0
M  V30 1502 C 141.406 4.41588 0.625792 0
M  V30 1503 C 142.107 5.72894 -1.00834 0
M  V30 1504 N 141.083 5.42479 -0.348878 0
M  V30 1505 H 144.885 2.86993 -0.63341 0
M  V30 1506 H 142.399 1.5611 -0.447589 0
M  V30 1507 H 144.396 3.83538 1.63414 0
M  V30 1508 H 143.056 2.6766 1.83815 0
M  V30 1509 H 144.067 5.0885 -0.963975 0
M  V30 1510 H 140.744 3.95003 1.352 0
M  V30 1511 H 142.134 6.47158 -1.80656 0
M  V30 1512 N 144.854 0.36279 1.53368 0
M  V30 1513 C 146.1 -0.228113 2.01513 0
M  V30 1514 C 146.433 -1.48648 1.2497 0
M  V30 1515 O 145.708 -1.91459 0.342616 0
M  V30 1516 C 145.991 -0.522884 3.56284 0
M  V30 1517 C 145.844 0.74892 4.43521 0
M  V30 1518 C 147.163 -1.32461 4.19693 0
M  V30 1519 H 144.282 -0.0814343 0.732487 0
M  V30 1520 H 146.924 0.48713 1.83649 0
M  V30 1521 H 145.074 -1.1322 3.71636 0
M  V30 1522 H 146.746 1.38648 4.39971 0
M  V30 1523 H 144.989 1.36986 4.11603 0
M  V30 1524 H 145.66 0.497667 5.49752 0
M  V30 1525 H 148.136 -0.809203 4.08156 0
M  V30 1526 H 147.012 -1.49961 5.28018 0
M  V30 1527 H 147.273 -2.33232 3.75573 0
M  V30 1528 N 146.332 -1.57332 0.0918853 0
M  V30 1529 C 147.748 -1.57389 -0.264766 0
M  V30 1530 C 147.948 -1.10281 -1.68643 0
M  V30 1531 O 147.004 -0.777801 -2.40222 0
M  V30 1532 C 148.317 -3.00648 -0.0561195 0
M  V30 1533 C 149.865 -3.12754 -0.124116 0
M  V30 1534 C 150.34 -4.57965 0.0564972 0
M  V30 1535 N 151.831 -4.632 0.00155611 0
M  V30 1536 C 152.566 -5.73281 0.116598 0
M  V30 1537 N 152.062 -6.92208 0.286294 0
M  V30 1538 N 153.855 -5.6207 0.0580973 0
M  V30 1539 H 146.006 -1.86262 1.02079 0
M  V30 1540 H 148.269 -0.859579 0.399786 0
M  V30 1541 H 147.975 -3.393 0.925669 0
M  V30 1542 H 147.849 -3.68623 -0.799823 0
M  V30 1543 H 150.236 -2.73976 -1.09641 0
M  V30 1544 H 150.317 -2.47377 0.651024 0
M  V30 1545 H 149.961 -4.97436 1.02564 0
M  V30 1546 H 149.891 -5.21399 -0.738297 0
M  V30 1547 H 152.382 -3.77686 -0.127192 0
M  V30 1548 H 152.695 -7.71934 0.365676 0
M  V30 1549 H 151.04 -6.94254 0.32192 0
M  V30 1550 H 154.231 -4.68043 -0.0733204 0
M  V30 1551 H 154.404 -6.47824 0.151203 0
M  V30 1552 N 147.81 0.181792 -1.56548 0
M  V30 1553 C 149.038 0.915947 -1.85521 0
M  V30 1554 C 149.453 1.76282 -0.676016 0
M  V30 1555 O 148.81 1.79012 0.355077 0
M  V30 1556 C 148.861 1.80126 -3.13427 0
M  V30 1557 O 148.582 0.988562 -4.26801 0
M  V30 1558 C 150.083 2.64597 -3.55673 0
M  V30 1559 H 147.303 0.26661 -0.61576 0
M  V30 1560 H 149.847 0.185039 -2.03661 0
M  V30 1561 H 148.002 2.48563 -2.97145 0
M  V30 1562 H 148.416 1.59308 -4.99721 0
M  V30 1563 H 149.89 3.2235 -4.48101 0
M  V30 1564 H 150.367 3.38958 -2.79292 0
M  V30 1565 H 150.973 2.0151 -3.74532 0
M  V30 1566 N 149.288 1.51039 0.449983 0
M  V30 1567 C 150.699 1.557 1.03026 0
M  V30 1568 C 151.05 0.372939 1.92623 0
M  V30 1569 O 150.175 -0.511771 2.10261 0
M  V30 1570 C 150.77 2.82171 1.87523 0
M  V30 1571 C 149.329 2.89444 2.40622 0
M  V30 1572 C 148.476 2.50228 1.19504 0
M  V30 1573 H 151.427 1.56999 0.231745 0
M  V30 1574 H 151.448 2.65219 2.72835 0
M  V30 1575 H 150.96 3.68331 1.22286 0
M  V30 1576 H 149.061 2.07685 3.0935 0
M  V30 1577 H 149.174 3.92816 2.74285 0
M  V30 1578 H 147.538 2.03139 1.53644 0
M  V30 1579 H 148.321 3.38719 0.558972 0
M  V30 1580 N 150.766 -0.704594 1.40972 0
M  V30 1581 C 152.013 -1.46458 1.39844 0
M  V30 1582 C 152.341 -1.94499 0.00447594 0
M  V30 1583 O 151.596 -1.69275 -0.982057 0
M  V30 1584 C 151.895 -2.698 2.34399 0
M  V30 1585 C 151.561 -2.40464 3.81429 0
M  V30 1586 C 150.223 -2.32174 4.21484 0
M  V30 1587 C 152.575 -2.16086 4.74296 0
M  V30 1588 C 149.903 -1.97589 5.52427 0
M  V30 1589 C 152.255 -1.83011 6.05549 0
M  V30 1590 C 150.919 -1.7321 6.44635 0
M  V30 1591 H 150.189 -0.535927 0.511725 0
M  V30 1592 H 152.836 -0.806124 1.73706 0
M  V30 1593 H 151.141 -3.40536 1.93759 0
M  V30 1594 H 152.838 -3.27919 2.30804 0
M  V30 1595 H 149.428 -2.47808 3.49699 0
M  V30 1596 H 153.612 -2.2144 4.4416 0
M  V30 1597 H 148.868 -1.88547 5.81601 0
M  V30 1598 H 153.042 -1.63164 6.77016 0
M  V30 1599 H 150.669 -1.46179 7.46013 0
M  V30 1600 N 152.244 -1.26651 -0.937939 0
M  V30 1601 C 153.154 -1.10276 -2.07066 0
M  V30 1602 C 154.17 -0.0354197 -1.73964 0
M  V30 1603 O 155.346 -0.239816 -1.99967 0
M  V30 1604 C 152.411 -0.740887 -3.38691 0
M  V30 1605 C 151.472 -1.88799 -3.85556 0
M  V30 1606 C 150.705 -1.54329 -5.10899 0
M  V30 1607 O 150.928 -0.446494 -5.6865 0
M  V30 1608 O 149.862 -2.37911 -5.52885 0
M  V30 1609 H 153.688 -2.05309 -2.23789 0
M  V30 1610 H 151.273 -1.05743 -1.0554 0
M  V30 1611 H 153.155 -0.55195 -4.1777 0
M  V30 1612 H 151.83 0.180022 -3.23199 0
M  V30 1613 H 150.737 -2.13191 -3.07409 0
M  V30 1614 H 152.07 -2.78874 -4.05574 0
M  V30 1615 N 153.722 1.14298 -1.08507 0
M  V30 1616 C 154.971 1.84708 -0.810305 0
M  V30 1617 C 155.284 1.83903 0.666271 0
M  V30 1618 O 156.49 2.50112 1.05624 0
M  V30 1619 C 154.946 3.31572 -1.39957 0
M  V30 1620 C 154.554 3.40791 -2.90801 0
M  V30 1621 C 156.298 4.07087 -1.20334 0
M  V30 1622 C 154.205 4.81872 -3.4286 0
M  V30 1623 H 153.135 0.691985 -0.299454 0
M  V30 1624 H 155.786 1.28841 -1.30661 0
M  V30 1625 H 154.168 3.87183 -0.830976 0
M  V30 1626 H 155.342 2.95225 -3.53806 0
M  V30 1627 H 153.657 2.78732 -3.0935 0
M  V30 1628 H 156.254 5.11225 -1.56693 0
M  V30 1629 H 156.597 4.16054 -0.143237 0
M  V30 1630 H 157.13 3.57779 -1.73893 0
M  V30 1631 H 153.869 4.78094 -4.48449 0
M  V30 1632 H 153.389 5.27972 -2.84615 0
M  V30 1633 H 155.068 5.50765 -3.39509 0
M  V30 1634 N 155.201 0.870884 1.31352 0
M  V30 1635 C 156.426 0.495957 2.01383 0
M  V30 1636 C 156.851 -0.904324 1.64935 0
M  V30 1637 O 156.209 -1.59687 0.858466 0
M  V30 1638 C 156.257 0.661433 3.54482 0
M  V30 1639 O 155.361 -0.298851 4.11316 0
M  V30 1640 H 154.702 0.197158 0.634054 0
M  V30 1641 H 157.232 1.17455 1.67527 0
M  V30 1642 H 157.242 0.555072 4.04207 0
M  V30 1643 H 155.917 1.68246 3.8035 0
M  V30 1644 H 154.494 -0.147368 3.72609 0
M  V30 1645 N 156.679 -1.44442 0.630414 0
M  V30 1646 C 157.609 -2.33418 -0.0618083 0
M  V30 1647 C 158.59 -1.48165 -0.835541 0
M  V30 1648 O 159.775 -1.76886 -0.801564 0
M  V30 1649 C 156.905 -3.31222 -1.04449 0
M  V30 1650 C 155.859 -4.26288 -0.382436 0
M  V30 1651 C 155.185 -5.13954 -1.47497 0
M  V30 1652 C 156.485 -5.1744 0.710865 0
M  V30 1653 H 158.179 -2.91548 0.681184 0
M  V30 1654 H 155.725 -1.40191 0.329026 0
M  V30 1655 H 157.678 -3.92351 -1.53748 0
M  V30 1656 H 156.402 -2.71299 -1.81836 0
M  V30 1657 H 155.061 -3.6649 0.0899054 0
M  V30 1658 H 154.709 -4.50385 -2.2397 0
M  V30 1659 H 154.409 -5.7837 -1.03737 0
M  V30 1660 H 155.933 -5.77955 -1.96979 0
M  V30 1661 H 157.347 -5.72509 0.300996 0
M  V30 1662 H 155.744 -5.90455 1.07156 0
M  V30 1663 H 156.814 -4.58496 1.57829 0
M  V30 1664 N 158.157 -0.370918 -1.53173 0
M  V30 1665 C 159.403 0.209976 -2.02313 0
M  V30 1666 C 159.758 1.45987 -1.25322 0
M  V30 1667 O 159.051 1.8856 -0.339965 0
M  V30 1668 C 159.245 0.549696 -3.53147 0
M  V30 1669 C 159.074 -0.665721 -4.44745 0
M  V30 1670 C 157.844 -1.17942 -4.91343 0
M  V30 1671 C 160.042 -1.53255 -4.90935 0
M  V30 1672 N 158.024 -2.35431 -5.66962 0
M  V30 1673 C 159.395 -2.55403 -5.64951 0
M  V30 1674 C 161.45 -1.5548 -4.73002 0
M  V30 1675 C 160.153 -3.5964 -6.22938 0
M  V30 1676 C 162.179 -2.58613 -5.31858 0
M  V30 1677 C 161.541 -3.59485 -6.05764 0
M  V30 1678 H 157.64 0.0394095 -0.781006 0
M  V30 1679 H 160.224 -0.516666 -1.8772 0
M  V30 1680 H 158.395 1.24541 -3.67891 0
M  V30 1681 H 160.127 1.11614 -3.89004 0
M  V30 1682 H 156.882 -0.743228 -4.67732 0
M  V30 1683 H 157.306 -2.94827 -6.09431 0
M  V30 1684 H 161.948 -0.788457 -4.15383 0
M  V30 1685 H 159.666 -4.37153 -6.79649 0
M  V30 1686 H 163.252 -2.61195 -5.19873 0
M  V30 1687 H 162.132 -4.3798 -6.50495 0
M  V30 1688 N 159.635 1.57281 -0.100228 0
M  V30 1689 C 160.884 1.93713 0.561984 0
M  V30 1690 C 161.197 0.984492 1.69018 0
M  V30 1691 O 162.403 1.24273 2.41389 0
M  V30 1692 C 160.859 3.4421 1.05106 0
M  V30 1693 C 160.467 4.47975 -0.0476628 0
M  V30 1694 C 162.211 3.89595 1.68571 0
M  V30 1695 C 160.118 5.89631 0.457055 0
M  V30 1696 H 159.048 0.723082 0.2137 0
M  V30 1697 H 161.699 1.82644 -0.177057 0
M  V30 1698 H 160.081 3.50449 1.84395 0
M  V30 1699 H 161.255 4.53385 -0.823333 0
M  V30 1700 H 159.57 4.1223 -0.587816 0
M  V30 1701 H 162.167 4.92832 2.07414 0
M  V30 1702 H 162.51 3.28526 2.55688 0
M  V30 1703 H 163.043 3.86078 0.958562 0
M  V30 1704 H 159.782 6.54411 -0.377616 0
M  V30 1705 H 159.302 5.87681 1.19962 0
M  V30 1706 H 160.981 6.40363 0.92437 0
M  V30 1707 N 161.113 -0.173488 1.56642 0
M  V30 1708 C 162.043 -1.2171 1.99271 0
M  V30 1709 C 163.024 -1.46289 0.867959 0
M  V30 1710 O 164.209 -1.5766 1.13388 0
M  V30 1711 C 161.339 -2.55651 2.35074 0
M  V30 1712 C 160.293 -2.45645 3.50489 0
M  V30 1713 C 159.619 -3.84056 3.72028 0
M  V30 1714 C 160.919 -1.96302 4.84007 0
M  V30 1715 H 162.613 -0.86275 2.867 0
M  V30 1716 H 160.159 -0.413571 1.37933 0
M  V30 1717 H 162.112 -3.2886 2.63494 0
M  V30 1718 H 160.836 -2.92869 1.44552 0
M  V30 1719 H 159.495 -1.7489 3.22194 0
M  V30 1720 H 159.143 -4.18664 2.788 0
M  V30 1721 H 158.843 -3.7823 4.49684 0
M  V30 1722 H 160.367 -4.58854 4.02846 0
M  V30 1723 H 161.781 -2.59284 5.11317 0
M  V30 1724 H 160.178 -2.01429 5.65284 0
M  V30 1725 H 161.248 -0.917226 4.76146 0
M  V30 1726 N 162.591 -1.51276 -0.441967 0
M  V30 1727 C 163.521 -1.752 -1.54361 0
M  V30 1728 C 164.502 -0.601682 -1.59103 0
M  V30 1729 O 165.687 -0.843913 -1.74905 0
M  V30 1730 C 162.817 -1.87282 -2.92477 0
M  V30 1731 C 161.771 -3.02687 -3.02596 0
M  V30 1732 C 161.097 -2.99947 -4.42647 0
M  V30 1733 C 162.397 -4.4273 -2.77106 0
M  V30 1734 H 164.091 -2.67442 -1.34592 0
M  V30 1735 H 161.637 -1.28694 -0.646048 0
M  V30 1736 H 163.59 -2.02602 -3.695 0
M  V30 1737 H 162.314 -0.916844 -3.13467 0
M  V30 1738 H 160.973 -2.87065 -2.28012 0
M  V30 1739 H 160.621 -2.02136 -4.60597 0
M  V30 1740 H 160.321 -3.77439 -4.50348 0
M  V30 1741 H 161.845 -3.17354 -5.2165 0
M  V30 1742 H 163.259 -4.58727 -3.43864 0
M  V30 1743 H 161.656 -5.21893 -2.96222 0
M  V30 1744 H 162.726 -4.53087 -1.72744 0
M  V30 1745 N 164.069 0.697108 -1.41344 0
M  V30 1746 C 165.032 1.79281 -1.42797 0
M  V30 1747 C 166.032 1.57607 -0.318837 0
M  V30 1748 O 167.222 1.64309 -0.578642 0
M  V30 1749 C 164.354 3.17632 -1.23785 0
M  V30 1750 H 165.547 1.79385 -2.40335 0
M  V30 1751 H 163.1 0.904582 -1.27464 0
M  V30 1752 H 163.835 3.23167 -0.270814 0
M  V30 1753 H 163.62 3.34765 -2.04144 0
M  V30 1754 H 165.11 3.97617 -1.27633 0
M  V30 1755 N 165.547 1.27147 0.931209 0
M  V30 1756 C 166.787 1.14511 1.69312 0
M  V30 1757 C 167.151 -0.304638 1.89568 0
M  V30 1758 O 168.352 -0.553343 2.63043 0
M  V30 1759 C 166.623 1.90349 3.02493 0
M  V30 1760 S 168.182 1.93884 3.93642 0
M  V30 1761 H 165 0.408858 0.581684 0
M  V30 1762 H 167.602 1.61006 1.10893 0
M  V30 1763 H 166.306 2.94877 2.85439 0
M  V30 1764 H 165.837 1.44333 3.65966 0
M  V30 1765 H 167.852 1.03273 4.85334 0
M  V30 1766 N 167.025 -1.13721 1.09112 0
M  V30 1767 C 167.955 -2.21148 0.749385 0
M  V30 1768 C 168.936 -1.6792 -0.271475 0
M  V30 1769 O 170.121 -1.93693 -0.140251 0
M  V30 1770 C 167.251 -3.46905 0.165659 0
M  V30 1771 C 166.205 -4.13203 1.11567 0
M  V30 1772 C 165.531 -5.33248 0.393809 0
M  V30 1773 C 166.831 -4.60912 2.45678 0
M  V30 1774 H 168.525 -2.4999 1.64758 0
M  V30 1775 H 166.071 -1.20156 0.793626 0
M  V30 1776 H 168.024 -4.21313 -0.085466 0
M  V30 1777 H 166.748 -3.17449 -0.767714 0
M  V30 1778 H 165.407 -3.40758 1.35202 0
M  V30 1779 H 165.055 -5.00054 -0.543599 0
M  V30 1780 H 164.755 -5.78552 1.02721 0
M  V30 1781 H 166.279 -6.10413 0.150908 0
M  V30 1782 H 167.693 -5.26759 2.26269 0
M  V30 1783 H 166.09 -5.16944 3.04776 0
M  V30 1784 H 167.16 -3.75603 3.06677 0
M  V30 1785 N 168.503 -0.877838 -1.30888 0
M  V30 1786 C 169.436 -0.283995 -2.26426 0
M  V30 1787 C 170.414 0.591361 -1.51465 0
M  V30 1788 O 171.598 0.54304 -1.80509 0
M  V30 1789 C 168.725 0.597129 -3.33395 0
M  V30 1790 C 167.771 -0.207937 -4.25993 0
M  V30 1791 S 168.604 -1.59158 -5.11301 0
M  V30 1792 C 169.76 -0.716791 -6.21782 0
M  V30 1793 H 169.993 -1.09383 -2.76446 0
M  V30 1794 H 167.526 -0.676828 -1.38775 0
M  V30 1795 H 169.484 1.09978 -3.95493 0
M  V30 1796 H 168.145 1.38099 -2.82113 0
M  V30 1797 H 167.338 0.464163 -5.01858 0
M  V30 1798 H 166.94 -0.642963 -3.68432 0
M  V30 1799 H 169.232 0.0692833 -6.77465 0
M  V30 1800 H 170.175 -1.44682 -6.93161 0
M  V30 1801 H 170.583 -0.280855 -5.63801 0
M  V30 1802 N 169.982 1.44106 -0.638065 0
M  V30 1803 C 170.929 2.30715 0.062701 0
M  V30 1804 C 171.899 1.43882 0.829883 0
M  V30 1805 O 173.084 1.72775 0.809532 0
M  V30 1806 C 170.224 3.29258 1.03358 0
M  V30 1807 C 169.337 4.31192 0.26409 0
M  V30 1808 C 168.472 5.16825 1.22741 0
M  V30 1809 C 167.511 6.10462 0.447475 0
M  V30 1810 N 166.648 6.8877 1.36161 0
M  V30 1811 H 171.488 2.90096 -0.681781 0
M  V30 1812 H 169.025 1.42925 -0.347988 0
M  V30 1813 H 170.983 3.84886 1.60992 0
M  V30 1814 H 169.613 2.71562 1.74511 0
M  V30 1815 H 168.665 3.77981 -0.428295 0
M  V30 1816 H 169.977 4.97619 -0.343052 0
M  V30 1817 H 169.131 5.77004 1.87487 0
M  V30 1818 H 167.87 4.50488 1.86847 0
M  V30 1819 H 166.875 5.49386 -0.213433 0
M  V30 1820 H 168.1 6.78837 -0.188968 0
M  V30 1821 H 166.046 6.25096 1.98975 0
M  V30 1822 H 165.963 7.51663 0.808656 0
M  V30 1823 H 167.231 7.53467 1.99769 0
M  V30 1824 N 171.46 0.379036 1.52974 0
M  V30 1825 C 172.709 -0.207612 2.00629 0
M  V30 1826 C 173.022 -1.48758 1.27006 0
M  V30 1827 O 174.228 -2.15365 1.65318 0
M  V30 1828 C 172.684 -0.42053 3.57435 0
M  V30 1829 C 172.292 0.845587 4.39948 0
M  V30 1830 C 174.036 -0.964102 4.13407 0
M  V30 1831 C 171.943 0.601513 5.88333 0
M  V30 1832 H 170.873 -0.0813591 0.749598 0
M  V30 1833 H 173.524 0.499853 1.76561 0
M  V30 1834 H 171.906 -1.18959 3.7771 0
M  V30 1835 H 173.08 1.61848 4.31442 0
M  V30 1836 H 171.395 1.31336 3.95145 0
M  V30 1837 H 173.992 -1.16225 5.21916 0
M  V30 1838 H 174.335 -1.93019 3.68849 0
M  V30 1839 H 174.868 -0.25487 3.96983 0
M  V30 1840 H 171.607 1.53831 6.37194 0
M  V30 1841 H 171.127 -0.132628 5.99653 0
M  V30 1842 H 172.806 0.232134 6.46583 0
M  V30 1843 N 172.938 -1.57226 0.108567 0
M  V30 1844 C 174.186 -1.94448 -0.550853 0
M  V30 1845 C 174.507 -0.992074 -1.67878 0
M  V30 1846 O 173.777 -0.0465 -1.95845 0
M  V30 1847 H 172.357 -0.717897 -0.206479 0
M  V30 1848 H 175.019 -1.94112 0.175062 0
M  V30 1849 H 174.115 -2.97218 -0.952259 0
M  V30 1850 N 174.416 0.165178 -1.56732 0
M  V30 1851 C 175.663 0.880807 -1.8234 0
M  V30 1852 C 175.991 1.81977 -0.686621 0
M  V30 1853 O 175.246 1.92971 0.325697 0
M  V30 1854 C 175.545 1.70405 -3.1416 0
M  V30 1855 C 175.211 0.913475 -4.4155 0
M  V30 1856 C 173.873 0.695303 -4.7615 0
M  V30 1857 C 176.225 0.359349 -5.1996 0
M  V30 1858 C 173.553 -0.0879947 -5.86634 0
M  V30 1859 C 175.905 -0.410893 -6.31264 0
M  V30 1860 C 174.569 -0.639808 -6.64427 0
M  V30 1861 H 173.839 0.32231 -0.667231 0
M  V30 1862 H 176.486 0.145402 -1.90947 0
M  V30 1863 H 174.791 2.50903 -3.00923 0
M  V30 1864 H 176.488 2.26091 -3.31186 0
M  V30 1865 H 173.078 1.09357 -4.14414 0
M  V30 1866 H 177.262 0.515228 -4.93618 0
M  V30 1867 H 172.518 -0.27503 -6.10781 0
M  V30 1868 H 176.692 -0.847494 -6.91224 0
M  V30 1869 H 174.319 -1.24864 -7.49875 0
M  V30 1870 N 175.894 1.51508 0.433938 0
M  V30 1871 C 176.844 1.69451 1.52546 0
M  V30 1872 C 177.828 0.548474 1.51263 0
M  V30 1873 O 179.02 0.804529 1.57659 0
M  V30 1874 C 176.149 1.82604 2.90707 0
M  V30 1875 C 175.235 3.03002 2.96733 0
M  V30 1876 N 175.626 4.26121 2.72496 0
M  V30 1877 C 173.924 3.02327 3.27894 0
M  V30 1878 C 174.625 5.07407 2.84452 0
M  V30 1879 N 173.601 4.42126 3.16269 0
M  V30 1880 H 177.403 2.62305 1.32564 0
M  V30 1881 H 174.917 1.49202 0.641297 0
M  V30 1882 H 176.914 1.93569 3.69238 0
M  V30 1883 H 175.574 0.909339 3.11707 0
M  V30 1884 H 176.585 4.55009 2.4736 0
M  V30 1885 H 173.262 2.20301 3.54646 0
M  V30 1886 H 174.652 6.15422 2.69639 0
M  V30 1887 N 177.372 -0.689602 1.41712 0
M  V30 1888 C 178.618 -1.45181 1.41599 0
M  V30 1889 C 178.951 -1.94181 0.0270081 0
M  V30 1890 O 178.226 -1.6993 -0.946265 0
M  V30 1891 C 178.509 -2.65945 2.42787 0
M  V30 1892 C 178.362 -2.22672 3.90816 0
M  V30 1893 C 179.681 -3.68149 2.41151 0
M  V30 1894 H 176.8 -0.526576 0.515642 0
M  V30 1895 H 179.442 -0.784947 1.73028 0
M  V30 1896 H 177.592 -3.2284 2.16116 0
M  V30 1897 H 179.264 -1.71058 4.28412 0
M  V30 1898 H 177.507 -1.54394 4.05395 0
M  V30 1899 H 178.178 -3.0935 4.57172 0
M  V30 1900 H 180.654 -3.2094 2.64834 0
M  V30 1901 H 179.53 -4.50248 3.13955 0
M  V30 1902 H 179.791 -4.18259 1.43221 0
M  V30 1903 N 178.85 -1.27639 -0.924453 0
M  V30 1904 C 180.099 -1.13549 -1.66702 0
M  V30 1905 C 180.412 0.317487 -1.93006 0
M  V30 1906 O 181.618 0.579333 -2.65247 0
M  V30 1907 C 180.074 -1.98426 -3.00259 0
M  V30 1908 C 179.682 -3.484 -2.81641 0
M  V30 1909 C 181.426 -1.92993 -3.78092 0
M  V30 1910 C 179.333 -4.25464 -4.10773 0
M  V30 1911 H 178.263 -0.421351 -0.625283 0
M  V30 1912 H 180.914 -1.52085 -1.02676 0
M  V30 1913 H 179.296 -1.52736 -3.6536 0
M  V30 1914 H 180.47 -4.01973 -2.25287 0
M  V30 1915 H 178.785 -3.55245 -2.17232 0
M  V30 1916 H 181.382 -2.47844 -4.7379 0
M  V30 1917 H 181.725 -0.904281 -4.0636 0
M  V30 1918 H 182.258 -2.36595 -3.19793 0
M  V30 1919 H 178.997 -5.28566 -3.87683 0
M  V30 1920 H 178.517 -3.76667 -4.66779 0
M  V30 1921 H 180.196 -4.34812 -4.79111 0
M  V30 1922 N 180.328 1.1314 -1.09713 0
M  V30 1923 C 181.739 1.66029 -0.853885 0
M  V30 1924 C 182.09 1.86241 0.617142 0
M  V30 1925 O 181.215 1.5834 1.47503 0
M  V30 1926 C 181.81 3.01599 -1.5435 0
M  V30 1927 C 180.369 3.51467 -1.34714 0
M  V30 1928 C 179.516 2.26648 -1.59769 0
M  V30 1929 H 182.467 0.970226 -1.25588 0
M  V30 1930 H 182.488 3.67709 -0.978267 0
M  V30 1931 H 182 2.86856 -2.6141 0
M  V30 1932 H 180.101 3.71408 -0.297838 0
M  V30 1933 H 180.214 4.314 -2.08401 0
M  V30 1934 H 178.578 2.33385 -1.01998 0
M  V30 1935 H 179.361 2.14467 -2.68065 0
M  V30 1936 N 181.806 0.884767 1.30421 0
M  V30 1937 C 183.034 0.518044 2.0031 0
M  V30 1938 C 183.449 -0.893408 1.66324 0
M  V30 1939 O 182.806 -1.5875 0.900262 0
M  V30 1940 C 182.857 0.682997 3.54989 0
M  V30 1941 O 182.578 2.03888 3.87764 0
M  V30 1942 C 184.079 0.31924 4.42149 0
M  V30 1943 H 181.299 0.200265 0.640418 0
M  V30 1944 H 183.843 1.19001 1.6631 0
M  V30 1945 H 181.998 0.0584052 3.87356 0
M  V30 1946 H 182.412 2.05735 4.82466 0
M  V30 1947 H 183.886 0.485555 5.4986 0
M  V30 1948 H 184.363 -0.742717 4.32875 0
M  V30 1949 H 184.969 0.920147 4.15227 0
M  V30 1950 N 183.284 -1.43765 0.645699 0
M  V30 1951 C 184.533 -2.01116 0.153412 0
M  V30 1952 C 184.846 -1.51493 -1.23731 0
M  V30 1953 O 186.052 -2.01067 -1.8244 0
M  V30 1954 C 184.508 -3.59206 0.223473 0
M  V30 1955 C 184.116 -4.17823 1.61642 0
M  V30 1956 C 185.86 -4.23972 -0.211597 0
M  V30 1957 C 183.767 -5.68183 1.64081 0
M  V30 1958 H 182.697 -0.752093 0.0535891 0
M  V30 1959 H 185.348 -1.6482 0.806633 0
M  V30 1960 H 183.73 -3.92867 -0.497118 0
M  V30 1961 H 184.904 -3.95674 2.36176 0
M  V30 1962 H 183.219 -3.65399 1.99681 0
M  V30 1963 H 185.816 -5.34275 -0.213112 0
M  V30 1964 H 186.159 -3.97352 -1.24165 0
M  V30 1965 H 186.692 -3.95166 0.456988 0
M  V30 1966 H 183.431 -5.99559 2.64971 0
M  V30 1967 H 182.951 -5.9241 0.938611 0
M  V30 1968 H 184.63 -6.32085 1.3812 0
M  V30 1969 N 184.763 -0.387143 -1.52771 0
M  V30 1970 C 185.988 0.198407 -2.06449 0
M  V30 1971 C 186.413 1.39918 -1.25716 0
M  V30 1972 O 185.771 1.79099 -0.281657 0
M  V30 1973 C 185.819 0.548893 -3.56398 0
M  V30 1974 O 184.923 1.64315 -3.78252 0
M  V30 1975 H 184.264 0.0237731 -0.663574 0
M  V30 1976 H 186.794 -0.553989 -1.96957 0
M  V30 1977 H 186.804 0.813812 -3.99801 0
M  V30 1978 H 185.479 -0.329005 -4.14597 0
M  V30 1979 H 184.056 1.37211 -3.46738 0
M  V30 1980 N 186.241 1.57166 -0.116904 0
M  V30 1981 C 187.466 1.999 0.55271 0
M  V30 1982 C 187.891 0.996039 1.59564 0
M  V30 1983 O 187.249 -0.032556 1.81271 0
M  V30 1984 C 187.297 3.4152 1.15742 0
M  V30 1985 O 186.401 3.44106 2.27299 0
M  V30 1986 H 185.742 0.649447 0.138258 0
M  V30 1987 H 188.272 2.03573 -0.204759 0
M  V30 1988 H 188.282 3.79684 1.49346 0
M  V30 1989 H 186.957 4.14034 0.393493 0
M  V30 1990 H 185.534 3.17759 1.9515 0
M  V30 1991 N 187.719 -0.156864 1.56817 0
M  V30 1992 C 188.968 -0.869504 1.81996 0
M  V30 1993 C 189.281 -1.82777 0.696545 0
M  V30 1994 O 190.487 -2.58384 0.833658 0
M  V30 1995 C 188.943 -1.59679 3.22538 0
M  V30 1996 C 188.551 -0.681431 4.42787 0
M  V30 1997 C 190.295 -2.2968 3.56997 0
M  V30 1998 C 188.202 -1.40978 5.74351 0
M  V30 1999 H 187.132 -0.328438 0.678708 0
M  V30 2000 H 189.783 -0.1223 1.83092 0
M  V30 2001 H 188.165 -2.38927 3.158 0
M  V30 2002 H 189.339 0.0751166 4.60739 0
M  V30 2003 H 187.654 -0.0903431 4.16302 0
M  V30 2004 H 190.251 -2.84794 4.52544 0
M  V30 2005 H 190.594 -3.05707 2.82576 0
M  V30 2006 H 191.127 -1.57361 3.65352 0
M  V30 2007 H 187.866 -0.691561 6.51842 0
M  V30 2008 H 187.386 -2.13929 5.60352 0
M  V30 2009 H 189.065 -1.95337 6.16808 0
M  V30 2010 N 189.197 -1.51736 -0.425897 0
M  V30 2011 C 190.443 -1.65214 -1.1761 0
M  V30 2012 C 190.776 -0.372778 -1.90589 0
M  V30 2013 O 190.051 0.628139 -1.84078 0
M  V30 2014 C 190.334 -2.86312 -2.18398 0
M  V30 2015 C 190.187 -4.24254 -1.49426 0
M  V30 2016 C 191.506 -3.02925 -3.19256 0
M  V30 2017 H 188.625 -0.601263 -0.426206 0
M  V30 2018 H 191.267 -1.8425 -0.463882 0
M  V30 2019 H 189.417 -2.70213 -2.79137 0
M  V30 2020 H 191.089 -4.52046 -0.919362 0
M  V30 2021 H 189.332 -4.26426 -0.796432 0
M  V30 2022 H 190.003 -5.05001 -2.22885 0
M  V30 2023 H 192.479 -3.1781 -2.68581 0
M  V30 2024 H 191.355 -3.89199 -3.8706 0
M  V30 2025 H 191.616 -2.15497 -3.86023 0
M  V30 2026 N 190.675 0.682077 -1.42076 0
M  V30 2027 C 192.086 1.26246 -1.37546 0
M  V30 2028 C 192.437 1.96092 -0.0651481 0
M  V30 2029 O 191.562 1.99587 0.836297 0
M  V30 2030 C 192.157 2.29594 -2.49143 0
M  V30 2031 C 190.716 2.83175 -2.47969 0
M  V30 2032 C 189.863 1.57395 -2.28303 0
M  V30 2033 H 192.814 0.475937 -1.51395 0
M  V30 2034 H 192.835 3.11175 -2.18976 0
M  V30 2035 H 192.347 1.78729 -3.44496 0
M  V30 2036 H 190.448 3.3818 -1.56413 0
M  V30 2037 H 190.561 3.32687 -3.44755 0
M  V30 2038 H 188.925 1.83699 -1.76428 0
M  V30 2039 H 189.708 1.08507 -3.25701 0
M  V30 2040 N 192.153 1.28127 0.917671 0
M  V30 2041 C 193.063 1.13556 2.05286 0
M  V30 2042 C 194.079 0.0630914 1.73886 0
M  V30 2043 O 195.255 0.271598 1.9956 0
M  V30 2044 C 192.32 0.794676 3.3747 0
M  V30 2045 C 191.381 1.94909 3.82504 0
M  V30 2046 C 190.614 1.62437 5.0838 0
M  V30 2047 O 190.837 0.536905 5.67867 0
M  V30 2048 O 189.771 2.46677 5.4903 0
M  V30 2049 H 193.597 2.08844 2.20495 0
M  V30 2050 H 191.182 1.07409 1.03845 0
M  V30 2051 H 193.064 0.618344 4.16839 0
M  V30 2052 H 191.739 -0.128581 3.23445 0
M  V30 2053 H 190.646 2.18055 3.03978 0
M  V30 2054 H 191.979 2.85291 4.01086 0
M  V30 2055 N 193.631 -1.12557 1.10312 0
M  V30 2056 C 194.856 -1.88405 0.867085 0
M  V30 2057 C 195.281 -1.79038 -0.576817 0
M  V30 2058 O 194.639 -1.14439 -1.40618 0
M  V30 2059 C 194.687 -3.3563 1.31851 0
M  V30 2060 O 193.791 -4.09565 0.482734 0
M  V30 2061 H 193.132 -0.585455 0.313271 0
M  V30 2062 H 195.662 -1.42352 1.4696 0
M  V30 2063 H 195.672 -3.86469 1.3079 0
M  V30 2064 H 194.347 -3.41765 2.37001 0
M  V30 2065 H 192.924 -3.68695 0.558448 0
M  V30 2066 N 195.109 -0.891671 -1.2995 0
M  V30 2067 C 196.349 -0.520296 -1.97667 0
M  V30 2068 C 196.713 0.914797 -1.68806 0
M  V30 2069 O 197.914 1.39263 -2.29911 0
M  V30 2070 C 196.185 -0.795222 -3.48441 0
M  V30 2071 S 197.744 -0.526953 -4.35624 0
M  V30 2072 H 194.562 -0.19333 -0.684211 0
M  V30 2073 H 197.164 -1.15238 -1.57926 0
M  V30 2074 H 195.868 -1.83805 -3.66938 0
M  V30 2075 H 195.399 -0.15095 -3.9311 0
M  V30 2076 H 197.414 0.631533 -4.92165 0
M  V30 2077 N 196.587 1.43421 -0.653314 0
M  V30 2078 C 197.517 2.33487 0.0246656 0
M  V30 2079 C 198.498 1.49475 0.811863 0
M  V30 2080 O 199.683 1.78139 0.773322 0
M  V30 2081 C 196.813 3.32841 0.99166 0
M  V30 2082 C 195.767 4.26842 0.314568 0
M  V30 2083 C 195.093 5.16236 1.39302 0
M  V30 2084 C 196.393 5.16243 -0.793095 0
M  V30 2085 H 198.087 2.90427 -0.727481 0
M  V30 2086 H 195.633 1.39649 -0.351287 0
M  V30 2087 H 197.586 3.94747 1.47487 0
M  V30 2088 H 196.31 2.74158 1.77497 0
M  V30 2089 H 194.969 3.663 -0.148199 0
M  V30 2090 H 194.617 4.53891 2.16776 0
M  V30 2091 H 194.317 5.79948 0.945223 0
M  V30 2092 H 195.841 5.81015 1.87759 0
M  V30 2093 H 197.255 5.71958 -0.392039 0
M  V30 2094 H 195.652 5.88676 -1.16536 0
M  V30 2095 H 196.722 4.55927 -1.65103 0
M  V30 2096 N 198.065 0.39524 1.52563 0
M  V30 2097 C 198.995 -0.428384 2.29537 0
M  V30 2098 C 199.976 -1.05831 1.33169 0
M  V30 2099 O 201.161 -1.06995 1.62067 0
M  V30 2100 C 198.291 -1.55274 3.10656 0
M  V30 2101 C 197.245 -1.04855 4.14957 0
M  V30 2102 C 196.571 -2.26543 4.84337 0
M  V30 2103 C 197.871 -0.112324 5.22179 0
M  V30 2104 H 199.565 0.213867 2.98635 0
M  V30 2105 H 197.111 0.104298 1.43622 0
M  V30 2106 H 199.064 -2.1358 3.63265 0
M  V30 2107 H 197.788 -2.22266 2.39302 0
M  V30 2108 H 196.447 -0.487985 3.63338 0
M  V30 2109 H 196.095 -2.92059 4.09525 0
M  V30 2110 H 195.795 -1.93466 5.54837 0
M  V30 2111 H 197.319 -2.85481 5.39753 0
M  V30 2112 H 198.733 -0.603752 5.70112 0
M  V30 2113 H 197.13 0.128968 5.99961 0
M  V30 2114 H 198.2 0.837052 4.77621 0
M  V30 2115 N 199.544 -1.57102 0.125237 0
M  V30 2116 C 200.793 -1.94582 -0.531095 0
M  V30 2117 C 201.106 -1.01126 -1.6743 0
M  V30 2118 O 202.312 -1.28097 -2.39381 0
M  V30 2119 C 200.768 -3.45839 -0.996164 0
M  V30 2120 C 200.376 -4.47842 0.118926 0
M  V30 2121 C 202.12 -3.92227 -1.62352 0
M  V30 2122 C 200.027 -5.90284 -0.363192 0
M  V30 2123 H 198.957 -0.726391 -0.20217 0
M  V30 2124 H 201.608 -1.82339 0.206092 0
M  V30 2125 H 199.99 -3.53338 -1.78796 0
M  V30 2126 H 201.164 -4.52018 0.895358 0
M  V30 2127 H 199.479 -4.11243 0.653324 0
M  V30 2128 H 202.076 -4.96069 -1.99548 0
M  V30 2129 H 202.419 -3.32552 -2.50429 0
M  V30 2130 H 202.952 -3.87554 -0.897019 0
M  V30 2131 H 199.691 -6.53728 0.481679 0
M  V30 2132 H 199.211 -5.89515 -1.10597 0
M  V30 2133 H 200.89 -6.41752 -0.822377 0
M  V30 2134 N 201.022 0.148545 -1.56898 0
M  V30 2135 C 202.268 0.862694 -1.83536 0
M  V30 2136 C 202.601 1.80889 -0.706604 0
M  V30 2137 O 201.876 1.92328 0.289885 0
M  V30 2138 C 202.159 1.63853 -3.20662 0
M  V30 2139 C 202.012 0.713925 -4.44098 0
M  V30 2140 C 203.331 2.60133 -3.54991 0
M  V30 2141 H 200.45 0.312179 -0.667618 0
M  V30 2142 H 203.092 0.127953 -1.89569 0
M  V30 2143 H 201.242 2.26489 -3.1565 0
M  V30 2144 H 202.914 0.098686 -4.61194 0
M  V30 2145 H 201.157 0.0234019 -4.33794 0
M  V30 2146 H 201.828 1.29278 -5.36648 0
M  V30 2147 H 204.304 2.07616 -3.60603 0
M  V30 2148 H 203.18 3.11468 -4.51972 0
M  V30 2149 H 203.441 3.41417 -2.80868 0
M  V30 2150 N 202.5 1.5196 0.417844 0
M  V30 2151 C 203.746 1.65836 1.16732 0
M  V30 2152 C 204.079 0.382881 1.90388 0
M  V30 2153 O 203.354 -0.618368 1.84408 0
M  V30 2154 C 203.637 2.87466 2.16876 0
M  V30 2155 C 203.49 4.25041 1.47174 0
M  V30 2156 C 204.809 3.04613 3.17646 0
M  V30 2157 H 201.928 0.603515 0.423011 0
M  V30 2158 H 204.57 1.84494 0.454105 0
M  V30 2159 H 202.72 2.71689 2.777 0
M  V30 2160 H 204.392 4.52527 0.895376 0
M  V30 2161 H 202.635 4.26843 0.773806 0
M  V30 2162 H 203.306 5.06176 2.20204 0
M  V30 2163 H 205.782 3.1923 2.66892 0
M  V30 2164 H 204.658 3.91247 3.8499 0
M  V30 2165 H 204.919 2.17541 3.84874 0
M  V30 2166 N 203.978 -0.674533 1.42435 0
M  V30 2167 C 205.226 -1.43175 1.42637 0
M  V30 2168 C 205.547 -1.94951 0.0438992 0
M  V30 2169 O 204.817 -1.7308 -0.917607 0
M  V30 2170 H 203.397 -0.531307 0.525092 0
M  V30 2171 H 206.059 -0.797006 1.77859 0
M  V30 2172 H 205.155 -2.28463 2.12629 0
M  V30 2173 N 205.456 -1.28612 -0.910864 0
M  V30 2174 C 206.386 -1.15326 -2.03032 0
M  V30 2175 C 207.367 -0.0502924 -1.70026 0
M  V30 2176 O 208.552 -0.227797 -1.92859 0
M  V30 2177 C 205.682 -0.817343 -3.37545 0
M  V30 2178 C 204.636 -1.8754 -3.84724 0
M  V30 2179 C 203.962 -1.39305 -5.16235 0
M  V30 2180 C 205.262 -3.28244 -4.06267 0
M  V30 2181 H 206.956 -2.08975 -2.14406 0
M  V30 2182 H 204.502 -1.00612 -1.03021 0
M  V30 2183 H 206.455 -0.711151 -4.15356 0
M  V30 2184 H 205.179 0.154846 -3.26233 0
M  V30 2185 H 203.838 -1.97079 -3.09121 0
M  V30 2186 H 203.486 -0.409846 -5.01328 0
M  V30 2187 H 203.186 -2.10057 -5.48771 0
M  V30 2188 H 204.71 -1.30014 -5.96598 0
M  V30 2189 H 206.124 -3.21611 -4.74594 0
M  V30 2190 H 204.521 -3.96855 -4.5014 0
M  V30 2191 H 205.591 -3.72048 -3.10979 0
M  V30 2192 N 206.934 1.1197 -1.10907 0
M  V30 2193 C 207.864 2.19928 -0.784473 0
M  V30 2194 C 208.845 1.6833 0.244726 0
M  V30 2195 O 210.03 1.93892 0.109418 0
M  V30 2196 C 207.16 3.46597 -0.220827 0
M  V30 2197 C 206.114 4.11376 -1.18127 0
M  V30 2198 C 205.44 5.32554 -0.478594 0
M  V30 2199 C 206.74 4.56945 -2.52979 0
M  V30 2200 H 208.434 2.47337 -1.68715 0
M  V30 2201 H 205.98 1.18879 -0.812642 0
M  V30 2202 H 207.933 4.21396 0.0184278 0
M  V30 2203 H 206.657 3.1863 0.717113 0
M  V30 2204 H 205.316 3.38564 -1.40606 0
M  V30 2205 H 204.964 5.00856 0.463976 0
M  V30 2206 H 204.664 5.76844 -1.11912 0
M  V30 2207 H 206.188 6.10096 -0.248 0
M  V30 2208 H 207.602 5.23093 -2.3462 0
M  V30 2209 H 205.999 5.1203 -3.12962 0
M  V30 2210 H 207.069 3.70676 -3.12614 0
M  V30 2211 N 208.412 0.89855 1.29475 0
M  V30 2212 C 209.658 0.524658 1.95896 0
M  V30 2213 C 209.991 -0.926468 1.70676 0
M  V30 2214 O 209.266 -1.65665 1.01908 0
M  V30 2215 C 209.549 0.81633 3.50725 0
M  V30 2216 C 209.402 2.31907 3.85408 0
M  V30 2217 C 210.721 0.302038 4.39062 0
M  V30 2218 H 207.84 0.19209 0.711527 0
M  V30 2219 H 210.482 1.12502 1.53112 0
M  V30 2220 H 208.632 0.305369 3.87298 0
M  V30 2221 H 210.304 2.89949 3.58786 0
M  V30 2222 H 208.547 2.78027 3.32992 0
M  V30 2223 H 209.218 2.47373 4.93468 0
M  V30 2224 H 211.694 0.739551 4.09475 0
M  V30 2225 H 210.57 0.535331 5.46283 0
M  V30 2226 H 210.831 -0.797216 4.34853 0
M  V30 2227 N 209.89 -1.43072 0.660911 0
M  V30 2228 C 211.138 -2.01323 0.177094 0
M  V30 2229 C 211.459 -1.5245 -1.2159 0
M  V30 2230 O 210.729 -0.740322 -1.81373 0
M  V30 2231 H 209.309 -0.744382 0.0624804 0
M  V30 2232 H 211.971 -1.75179 0.854305 0
M  V30 2233 H 211.067 -3.11649 0.167641 0
M  V30 2234 N 211.368 -0.403325 -1.52352 0
M  V30 2235 C 212.616 0.174003 -2.0135 0
M  V30 2236 C 212.937 1.46139 -1.29106 0
M  V30 2237 O 212.207 1.91448 -0.415253 0
M  V30 2238 H 210.787 0.0672911 -0.743963 0
M  V30 2239 H 213.449 -0.538235 -1.87321 0
M  V30 2240 H 212.545 0.374254 -3.09848 0
M  V30 2241 N 212.846 1.57033 -0.133567 0
M  V30 2242 C 213.776 2.1909 0.807567 0
M  V30 2243 C 214.757 1.13517 1.26681 0
M  V30 2244 O 215.942 1.41809 1.32679 0
M  V30 2245 C 213.072 2.80188 2.05212 0
M  V30 2246 C 212.026 3.91471 1.73015 0
M  V30 2247 C 211.352 4.39443 3.04622 0
M  V30 2248 C 212.652 5.12886 0.987168 0
M  V30 2249 H 214.346 2.97988 0.290403 0
M  V30 2250 H 211.892 1.43335 0.138239 0
M  V30 2251 H 213.845 3.22264 2.71521 0
M  V30 2252 H 212.569 1.98601 2.59278 0
M  V30 2253 H 211.228 3.49993 1.0909 0
M  V30 2254 H 210.876 3.54695 3.56651 0
M  V30 2255 H 210.576 5.14495 2.83847 0
M  V30 2256 H 212.1 4.8418 3.72024 0
M  V30 2257 H 213.514 5.51891 1.55208 0
M  V30 2258 H 211.911 5.93615 0.87985 0
M  V30 2259 H 212.981 4.84894 -0.0235286 0
M  V30 2260 N 214.325 -0.140222 1.56975 0
M  V30 2261 C 215.574 -0.850152 1.82908 0
M  V30 2262 C 215.887 -1.82028 0.715892 0
M  V30 2263 O 217.093 -2.57485 0.861016 0
M  V30 2264 C 215.549 -1.5625 3.24213 0
M  V30 2265 C 215.157 -0.63443 4.43485 0
M  V30 2266 C 216.901 -2.25881 3.59413 0
M  V30 2267 C 214.808 -1.34879 5.75814 0
M  V30 2268 H 213.738 -0.321221 0.682153 0
M  V30 2269 H 216.389 -0.102874 1.83211 0
M  V30 2270 H 214.771 -2.35565 3.18316 0
M  V30 2271 H 215.945 0.12398 4.60633 0
M  V30 2272 H 214.26 -0.0461836 4.16374 0
M  V30 2273 H 216.857 -2.79978 4.5554 0
M  V30 2274 H 217.2 -3.02693 2.85802 0
M  V30 2275 H 217.733 -1.53477 3.67001 0
M  V30 2276 H 214.472 -0.622385 6.52539 0
M  V30 2277 H 213.992 -2.07974 5.6259 0
M  V30 2278 H 215.671 -1.88784 6.18845 0
M  V30 2279 N 215.803 -1.52179 -0.40978 0
M  V30 2280 C 216.75 -1.75475 -1.49924 0
M  V30 2281 C 217.72 -0.597175 -1.54994 0
M  V30 2282 O 218.905 -0.834655 -1.71575 0
M  V30 2283 C 216.045 -1.9107 -2.87378 0
M  V30 2284 C 215.158 -3.18717 -2.91622 0
M  V30 2285 C 214.293 -3.24747 -4.20372 0
M  V30 2286 C 213.332 -4.46598 -4.18588 0
M  V30 2287 N 212.469 -4.50025 -5.38908 0
M  V30 2288 H 217.309 -2.68458 -1.29361 0
M  V30 2289 H 214.846 -1.33024 -0.627934 0
M  V30 2290 H 216.804 -1.98096 -3.6717 0
M  V30 2291 H 215.434 -1.01469 -3.06437 0
M  V30 2292 H 214.486 -3.20866 -2.04326 0
M  V30 2293 H 215.798 -4.08544 -2.86169 0
M  V30 2294 H 214.952 -3.30841 -5.08556 0
M  V30 2295 H 213.691 -2.32857 -4.28519 0
M  V30 2296 H 212.696 -4.40652 -3.28794 0
M  V30 2297 H 213.921 -5.39783 -4.12081 0
M  V30 2298 H 211.867 -3.61017 -5.47725 0
M  V30 2299 H 211.784 -5.33697 -5.35447 0
M  V30 2300 H 213.052 -4.60347 -6.29048 0
M  V30 2301 N 217.281 0.66697 -1.42791 0
M  V30 2302 C 218.529 1.42417 -1.43394 0
M  V30 2303 C 218.85 1.94925 -0.0542373 0
M  V30 2304 O 218.12 1.73564 0.908415 0
M  V30 2305 H 216.7 0.528515 -0.527902 0
M  V30 2306 H 219.362 0.787562 -1.78279 0
M  V30 2307 H 218.458 2.27333 -2.13837 0
M  V30 2308 N 218.759 1.29093 0.90403 0
M  V30 2309 C 220.005 1.16986 1.65656 0
M  V30 2310 C 220.338 -0.278925 1.92186 0
M  V30 2311 O 219.613 -1.2019 1.5292 0
M  V30 2312 C 219.896 1.97908 3.0084 0
M  V30 2313 C 219.749 3.50903 2.81403 0
M  V30 2314 C 221.068 1.80208 4.01513 0
M  V30 2315 H 218.187 0.426346 0.601164 0
M  V30 2316 H 220.829 1.58518 1.04747 0
M  V30 2317 H 218.979 1.62616 3.52829 0
M  V30 2318 H 220.651 3.96153 2.36348 0
M  V30 2319 H 218.894 3.76045 2.1627 0
M  V30 2320 H 219.565 4.02791 3.77443 0
M  V30 2321 H 222.041 2.11025 3.58619 0
M  V30 2322 H 220.917 2.39184 4.94047 0
M  V30 2323 H 221.178 0.756119 4.35586 0
M  V30 2324 N 220.237 -1.11381 1.11499 0
M  V30 2325 C 221.485 -1.8277 0.862524 0
M  V30 2326 C 221.806 -1.85097 -0.613534 0
M  V30 2327 O 221.076 -1.32198 -1.4457 0
M  V30 2328 H 219.656 -0.676823 0.316101 0
M  V30 2329 H 222.318 -1.34816 1.4075 0
M  V30 2330 H 221.414 -2.86614 1.23527 0
M  V30 2331 N 221.715 -0.905404 -1.28997 0
M  V30 2332 C 222.625 -0.392246 -2.31298 0
M  V30 2333 C 223.641 0.515889 -1.66176 0
M  V30 2334 O 224.817 0.404093 -1.97304 0
M  V30 2335 C 221.882 0.36686 -3.44754 0
M  V30 2336 C 220.943 -0.573485 -4.25452 0
M  V30 2337 C 220.176 0.149488 -5.33491 0
M  V30 2338 O 220.399 1.37255 -5.5364 0
M  V30 2339 O 219.333 -0.510919 -5.99728 0
M  V30 2340 H 223.159 -1.2411 -2.77183 0
M  V30 2341 H 220.744 -0.669926 -1.33538 0
M  V30 2342 H 222.626 0.795907 -4.13816 0
M  V30 2343 H 221.301 1.19169 -3.00966 0
M  V30 2344 H 220.208 -1.05176 -3.59011 0
M  V30 2345 H 221.541 -1.36489 -4.72897 0
M  V30 2346 N 223.193 1.4272 -0.668489 0
M  V30 2347 C 224.421 2.05966 -0.196348 0
M  V30 2348 C 224.836 1.50191 1.14403 0
M  V30 2349 O 224.193 0.639208 1.7094 0
M  V30 2350 C 224.244 3.61314 -0.115815 0
M  V30 2351 O 223.965 4.1502 -1.40322 0
M  V30 2352 C 225.466 4.41663 0.380579 0
M  V30 2353 H 222.686 0.663954 -0.0969829 0
M  V30 2354 H 225.23 1.82966 -0.913446 0
M  V30 2355 H 223.385 3.83448 0.551931 0
M  V30 2356 H 223.799 5.08832 -1.27243 0
M  V30 2357 H 225.273 5.5065 0.385848 0
M  V30 2358 H 225.75 4.15792 1.41471 0
M  V30 2359 H 226.356 4.24534 -0.255209 0
M  V30 2360 N 224.671 0.411399 1.52136 0
M  V30 2361 C 226.082 -0.0576826 1.86611 0
M  V30 2362 C 226.433 -1.44238 1.33003 0
M  V30 2363 O 225.558 -2.05759 0.670228 0
M  V30 2364 C 226.153 -0.111448 3.38617 0
M  V30 2365 C 224.712 -0.52487 3.72723 0
M  V30 2366 C 223.859 0.299176 2.75681 0
M  V30 2367 H 226.81 0.628368 1.4573 0
M  V30 2368 H 226.831 -0.926252 3.69054 0
M  V30 2369 H 226.343 0.896488 3.77604 0
M  V30 2370 H 224.444 -1.53936 3.39315 0
M  V30 2371 H 224.557 -0.267681 4.78352 0
M  V30 2372 H 222.921 -0.238814 2.53578 0
M  V30 2373 H 223.704 1.3055 3.17508 0
M  V30 2374 N 226.149 -1.5696 0.141893 0
M  V30 2375 C 227.56 -1.82797 -0.379776 0
M  V30 2376 C 227.911 -1.06033 -1.6508 0
M  V30 2377 O 227.036 -0.304011 -2.14254 0
M  V30 2378 C 227.631 -3.31578 -0.695802 0
M  V30 2379 C 226.19 -3.58014 -1.16201 0
M  V30 2380 C 225.337 -2.76699 -0.182455 0
M  V30 2381 H 228.288 -1.54406 0.366675 0
M  V30 2382 H 228.309 -3.47454 -1.55099 0
M  V30 2383 H 227.821 -3.87421 0.229449 0
M  V30 2384 H 225.922 -3.07553 -2.10338 0
M  V30 2385 H 226.035 -4.66501 -1.09151 0
M  V30 2386 H 224.399 -2.45618 -0.674072 0
M  V30 2387 H 225.182 -3.35311 0.736297 0
M  V30 2388 N 227.627 0.131896 -1.57047 0
M  V30 2389 C 228.874 0.841932 -1.84168 0
M  V30 2390 C 229.202 1.8048 -0.725066 0
M  V30 2391 O 228.457 1.93618 0.284692 0
M  V30 2392 C 228.756 1.63703 -3.17704 0
M  V30 2393 C 228.422 0.81961 -4.43388 0
M  V30 2394 C 227.084 0.594148 -4.77518 0
M  V30 2395 C 229.436 0.248977 -5.20605 0
M  V30 2396 C 226.764 -0.212409 -5.86315 0
M  V30 2397 C 229.116 -0.544701 -6.30251 0
M  V30 2398 C 227.78 -0.780599 -6.6292 0
M  V30 2399 H 227.05 0.308085 -0.673917 0
M  V30 2400 H 229.697 0.104867 -1.91213 0
M  V30 2401 H 228.002 2.44464 -3.06177 0
M  V30 2402 H 229.699 2.19015 -3.35907 0
M  V30 2403 H 226.289 1.00542 -4.16641 0
M  V30 2404 H 230.473 0.410408 -4.946 0
M  V30 2405 H 225.729 -0.404524 -6.1006 0
M  V30 2406 H 229.903 -0.993922 -6.89271 0
M  V30 2407 H 227.53 -1.40742 -7.47058 0
M  V30 2408 N 229.106 1.52395 0.401703 0
M  V30 2409 C 230.036 1.79231 1.49661 0
M  V30 2410 C 231.017 0.643654 1.57452 0
M  V30 2411 O 232.202 0.889989 1.72606 0
M  V30 2412 C 229.332 1.94971 2.87409 0
M  V30 2413 C 228.286 3.10604 2.94465 0
M  V30 2414 C 227.612 3.11577 4.34538 0
M  V30 2415 C 228.912 4.49921 2.6527 0
M  V30 2416 H 230.606 2.70917 1.27454 0
M  V30 2417 H 228.152 1.30362 0.6117 0
M  V30 2418 H 230.105 2.12328 3.63999 0
M  V30 2419 H 228.829 0.999632 3.10926 0
M  V30 2420 H 227.488 2.93009 2.20321 0
M  V30 2421 H 227.136 2.14277 4.55076 0
M  V30 2422 H 226.836 3.89247 4.40183 0
M  V30 2423 H 228.36 3.31073 5.13053 0
M  V30 2424 H 229.774 4.67683 3.31581 0
M  V30 2425 H 228.171 5.29564 2.82281 0
M  V30 2426 H 229.241 4.57507 1.60671 0
M  V30 2427 N 230.584 -0.659388 1.43143 0
M  V30 2428 C 231.516 -1.7849 1.43784 0
M  V30 2429 C 232.529 -1.5932 0.334787 0
M  V30 2430 O 233.718 -1.68155 0.598842 0
M  V30 2431 C 230.818 -3.15828 1.22906 0
M  V30 2432 C 229.991 -3.61711 2.45934 0
M  V30 2433 C 229.05 -4.77831 2.20371 0
M  V30 2434 O 228.076 -4.87586 2.93681 0
M  V30 2435 N 229.278 -5.67611 1.21647 0
M  V30 2436 H 232.043 -1.7842 2.40803 0
M  V30 2437 H 229.604 -0.84302 1.3822 0
M  V30 2438 H 231.596 -3.91189 1.03697 0
M  V30 2439 H 230.166 -3.10707 0.343542 0
M  V30 2440 H 229.386 -2.76861 2.80609 0
M  V30 2441 H 230.674 -3.89112 3.27825 0
M  V30 2442 H 230.072 -5.62397 0.610449 0
M  V30 2443 H 228.629 -6.42719 1.08423 0
M  V30 2444 N 232.062 -1.29571 -0.897171 0
M  V30 2445 C 233.287 -1.20705 -1.68656 0
M  V30 2446 C 233.712 0.228582 -1.86706 0
M  V30 2447 O 233.07 1.16494 -1.3892 0
M  V30 2448 C 233.118 -1.9282 -3.04717 0
M  V30 2449 O 232.222 -1.24697 -3.93096 0
M  V30 2450 H 231.563 -0.418126 -0.515816 0
M  V30 2451 H 234.093 -1.71183 -1.12061 0
M  V30 2452 H 234.103 -2.01372 -3.54843 0
M  V30 2453 H 232.778 -2.97239 -2.90899 0
M  V30 2454 H 231.355 -1.2442 -3.51531 0
M  V30 2455 N 233.54 1.10788 -1.12088 0
M  V30 2456 C 234.817 1.79136 -0.785476 0
M  V30 2457 C 235.197 1.98246 0.725377 0
M  V30 2458 O 234.545 1.57258 1.65778 0
M  V30 2459 C 234.755 3.12375 -1.55636 0
M  V30 2460 C 236.103 3.8731 -1.74001 0
M  V30 2461 O 237.127 3.22085 -1.52117 0
M  V30 2462 O 235.986 5.04369 -2.10415 0
M  V30 2463 H 233.08 0.776226 -0.285311 0
M  V30 2464 H 235.626 1.1747 -1.2247 0
M  V30 2465 H 234.398 2.93863 -2.5838 0
M  V30 2466 H 234.021 3.81758 -1.11114 0
M  V30 2467 N 235.018 0.912232 1.28515 0
M  V30 2468 C 236.264 0.545405 1.95328 0
M  V30 2469 C 236.597 -0.908313 1.71649 0
M  V30 2470 O 235.872 -1.64575 1.03659 0
M  V30 2471 C 236.155 0.853483 3.4984 0
M  V30 2472 C 236.008 2.35982 3.82926 0
M  V30 2473 C 237.327 0.348589 4.38717 0
M  V30 2474 H 234.446 0.199626 0.709449 0
M  V30 2475 H 237.088 1.1412 1.5191 0
M  V30 2476 H 235.238 0.34643 3.86952 0
M  V30 2477 H 236.91 2.93738 3.55691 0
M  V30 2478 H 235.153 2.81543 3.30024 0
M  V30 2479 H 235.824 2.52593 4.90816 0
M  V30 2480 H 238.3 0.78294 4.08668 0
M  V30 2481 H 237.176 0.593242 5.45685 0
M  V30 2482 H 237.437 -0.751049 4.35674 0
M  V30 2483 N 236.496 -1.42363 0.676048 0
M  V30 2484 C 237.743 -2.01522 0.19883 0
M  V30 2485 C 238.071 -1.53456 -1.19505 0
M  V30 2486 O 237.326 -0.727967 -1.81657 0
M  V30 2487 C 237.625 -3.56929 0.183431 0
M  V30 2488 C 237.291 -4.24431 1.52215 0
M  V30 2489 C 235.953 -4.42585 1.8887 0
M  V30 2490 C 238.305 -4.62459 2.40377 0
M  V30 2491 C 235.633 -4.96039 3.13309 0
M  V30 2492 C 237.985 -5.17294 3.64129 0
M  V30 2493 C 236.649 -5.33661 4.00951 0
M  V30 2494 H 235.919 -0.737419 0.0727571 0
M  V30 2495 H 238.566 -1.70531 0.871281 0
M  V30 2496 H 236.871 -3.87594 -0.572532 0
M  V30 2497 H 238.568 -4.00486 -0.203035 0
M  V30 2498 H 235.158 -4.10661 1.22701 0
M  V30 2499 H 239.342 -4.48105 2.13343 0
M  V30 2500 H 234.598 -5.06896 3.41857 0
M  V30 2501 H 238.772 -5.45704 4.32644 0
M  V30 2502 H 236.399 -5.74845 4.9745 0
M  V30 2503 N 237.974 -0.419461 -1.51915 0
M  V30 2504 C 239.221 0.152939 -2.01922 0
M  V30 2505 C 239.549 1.4426 -1.30458 0
M  V30 2506 O 238.804 1.91514 -0.402593 0
M  V30 2507 C 239.103 0.437067 -3.54717 0
M  V30 2508 C 238.769 -0.764632 -4.44369 0
M  V30 2509 C 237.431 -1.09423 -4.68594 0
M  V30 2510 C 239.783 -1.56713 -4.97082 0
M  V30 2511 C 237.111 -2.22732 -5.42777 0
M  V30 2512 C 239.463 -2.69107 -5.72507 0
M  V30 2513 C 238.127 -3.02541 -5.95 0
M  V30 2514 H 237.397 0.0559644 -0.738884 0
M  V30 2515 H 240.044 -0.562998 -1.83037 0
M  V30 2516 H 238.349 1.23469 -3.71837 0
M  V30 2517 H 240.046 0.893083 -3.90928 0
M  V30 2518 H 236.636 -0.497775 -4.257 0
M  V30 2519 H 240.82 -1.32571 -4.78266 0
M  V30 2520 H 236.076 -2.48971 -5.58411 0
M  V30 2521 H 240.25 -3.31671 -6.12346 0
M  V30 2522 H 237.877 -3.90457 -6.52264 0
M  V30 2523 N 239.452 1.56882 -0.150215 0
M  V30 2524 C 240.382 2.19935 0.784284 0
M  V30 2525 C 241.363 1.14854 1.25469 0
M  V30 2526 O 242.548 1.43209 1.31168 0
M  V30 2527 C 239.678 2.82349 2.02229 0
M  V30 2528 C 238.632 3.93285 1.68853 0
M  V30 2529 C 237.958 4.42649 2.99944 0
M  V30 2530 C 239.258 5.13904 0.932714 0
M  V30 2531 H 240.952 2.9828 0.258781 0
M  V30 2532 H 238.498 1.43473 0.123029 0
M  V30 2533 H 240.451 3.25126 2.68088 0
M  V30 2534 H 239.175 2.0134 2.57157 0
M  V30 2535 H 237.834 3.5113 1.05371 0
M  V30 2536 H 237.482 3.58458 3.52869 0
M  V30 2537 H 237.182 5.17476 2.78374 0
M  V30 2538 H 238.706 4.88099 3.66868 0
M  V30 2539 H 240.12 5.53506 1.49345 0
M  V30 2540 H 238.517 5.94515 0.81684 0
M  V30 2541 H 239.587 4.84842 -0.0749568 0
M  V30 2542 N 240.93 -0.123565 1.57115 0
M  V30 2543 C 242.177 -0.832153 1.84612 0
M  V30 2544 C 242.505 -1.80093 0.734627 0
M  V30 2545 O 241.76 -1.93766 -0.27442 0
M  V30 2546 C 242.059 -1.62016 3.18568 0
M  V30 2547 C 241.725 -0.796084 4.43817 0
M  V30 2548 C 240.387 -0.568816 4.77826 0
M  V30 2549 C 242.739 -0.221364 5.2073 0
M  V30 2550 C 240.067 0.243499 5.86194 0
M  V30 2551 C 242.419 0.578117 6.29953 0
M  V30 2552 C 241.083 0.815744 6.62497 0
M  V30 2553 H 240.353 -0.304507 0.675542 0
M  V30 2554 H 243 -0.0947248 1.91266 0
M  V30 2555 H 241.305 -2.42837 3.0747 0
M  V30 2556 H 243.002 -2.17231 3.37064 0
M  V30 2557 H 239.592 -0.983307 4.17168 0
M  V30 2558 H 243.776 -0.384173 4.94811 0
M  V30 2559 H 239.032 0.436871 6.09837 0
M  V30 2560 H 243.206 1.03046 6.88734 0
M  V30 2561 H 240.833 1.44701 7.46301 0
M  V30 2562 N 242.408 -1.52605 -0.393616 0
M  V30 2563 C 243.338 -1.80022 -1.48709 0
M  V30 2564 C 244.319 -0.651995 -1.57108 0
M  V30 2565 O 245.504 -0.89913 -1.72132 0
M  V30 2566 C 242.634 -1.96492 -2.86371 0
M  V30 2567 C 241.588 -3.12161 -2.92813 0
M  V30 2568 C 240.914 -3.13877 -4.3288 0
M  V30 2569 C 242.214 -4.51322 -2.6288 0
M  V30 2570 H 243.908 -2.71589 -1.26015 0
M  V30 2571 H 241.454 -1.30684 -0.604778 0
M  V30 2572 H 243.407 -2.14255 -3.62867 0
M  V30 2573 H 242.131 -1.01611 -3.10391 0
M  V30 2574 H 240.79 -2.94173 -2.18764 0
M  V30 2575 H 240.438 -2.16687 -4.53933 0
M  V30 2576 H 240.138 -3.91576 -4.38112 0
M  V30 2577 H 241.662 -3.33789 -5.1129 0
M  V30 2578 H 243.076 -4.69435 -3.29096 0
M  V30 2579 H 241.473 -5.31053 -2.79468 0
M  V30 2580 H 242.543 -4.58353 -1.58242 0
M  V30 2581 N 243.887 0.651787 -1.4349 0
M  V30 2582 C 244.817 1.77621 -1.51569 0
M  V30 2583 C 245.798 1.66022 -0.370253 0
M  V30 2584 O 246.983 1.85095 -0.587658 0
M  V30 2585 C 244.113 3.16056 -1.43966 0
M  V30 2586 C 243.067 3.4242 -2.56774 0
M  V30 2587 C 242.393 4.8067 -2.34223 0
M  V30 2588 C 243.693 3.37023 -3.99015 0
M  V30 2589 H 245.387 1.71117 -2.45681 0
M  V30 2590 H 242.933 0.821825 -1.18246 0
M  V30 2591 H 244.886 3.94472 -1.48221 0
M  V30 2592 H 243.61 3.23293 -0.463586 0
M  V30 2593 H 242.269 2.66375 -2.51873 0
M  V30 2594 H 241.917 4.84585 -1.34856 0
M  V30 2595 H 241.617 4.9927 -3.09844 0
M  V30 2596 H 243.141 5.61342 -2.40265 0
M  V30 2597 H 244.555 4.05374 -4.05395 0
M  V30 2598 H 242.952 3.67159 -4.74673 0
M  V30 2599 H 244.022 2.3518 -4.2405 0
M  V30 2600 N 245.365 1.30045 0.890287 0
M  V30 2601 C 246.776 1.16738 1.45702 0
M  V30 2602 C 247.127 -0.233939 1.948 0
M  V30 2603 O 246.252 -1.13021 1.84541 0
M  V30 2604 C 246.847 2.11313 2.64825 0
M  V30 2605 C 245.406 2.02001 3.17604 0
M  V30 2606 C 244.553 2.01699 1.90296 0
M  V30 2607 H 247.504 1.42392 0.700726 0
M  V30 2608 H 247.525 1.69086 3.40867 0
M  V30 2609 H 247.037 3.13294 2.2906 0
M  V30 2610 H 245.138 1.03142 3.5804 0
M  V30 2611 H 245.251 2.90128 3.81264 0
M  V30 2612 H 243.615 1.46427 2.08402 0
M  V30 2613 H 244.398 3.05402 1.56795 0
M  V30 2614 N 246.843 -1.10192 1.12674 0
M  V30 2615 C 248.254 -1.63707 0.897604 0
M  V30 2616 C 248.605 -1.87812 -0.567546 0
M  V30 2617 O 247.73 -1.62196 -1.43253 0
M  V30 2618 C 248.325 -2.974 1.62292 0
M  V30 2619 C 246.884 -3.47772 1.43986 0
M  V30 2620 C 246.031 -2.22332 1.65722 0
M  V30 2621 H 248.982 -0.936587 1.28116 0
M  V30 2622 H 249.003 -3.64986 1.07541 0
M  V30 2623 H 248.515 -2.79824 2.68924 0
M  V30 2624 H 246.616 -3.70487 0.396206 0
M  V30 2625 H 246.729 -4.25723 2.19765 0
M  V30 2626 H 245.093 -2.30599 1.08149 0
M  V30 2627 H 245.876 -2.07285 2.73657 0
M  V30 2628 N 248.321 -0.919034 -1.28029 0
M  V30 2629 C 249.57 -0.550802 -1.94034 0
M  V30 2630 C 249.883 0.910877 -1.73096 0
M  V30 2631 O 251.089 1.3875 -2.33368 0
M  V30 2632 C 249.545 -0.934249 -3.47563 0
M  V30 2633 C 249.153 -2.41602 -3.7727 0
M  V30 2634 C 250.897 -0.636854 -4.19696 0
M  V30 2635 C 248.804 -2.73932 -5.24133 0
M  V30 2636 H 247.734 -0.202273 -0.726362 0
M  V30 2637 H 250.385 -1.11867 -1.45458 0
M  V30 2638 H 248.767 -0.295115 -3.94899 0
M  V30 2639 H 249.941 -3.10233 -3.40723 0
M  V30 2640 H 248.256 -2.68441 -3.18321 0
M  V30 2641 H 250.853 -0.855005 -5.2782 0
M  V30 2642 H 251.196 0.425575 -4.14119 0
M  V30 2643 H 251.729 -1.23469 -3.78154 0
M  V30 2644 H 248.468 -3.79049 -5.34792 0
M  V30 2645 H 247.988 -2.09942 -5.61858 0
M  V30 2646 H 249.667 -2.61215 -5.91925 0
M  V30 2647 N 249.799 1.42003 -0.683588 0
M  V30 2648 C 251.048 2.00638 -0.206681 0
M  V30 2649 C 251.361 1.5472 1.19671 0
M  V30 2650 O 252.567 2.05833 1.77045 0
M  V30 2651 C 251.023 3.58487 -0.318632 0
M  V30 2652 C 250.631 4.1339 -1.72663 0
M  V30 2653 C 252.375 4.24384 0.0991141 0
M  V30 2654 C 250.282 5.63633 -1.79087 0
M  V30 2655 H 249.212 0.750408 -0.0735107 0
M  V30 2656 H 251.863 1.62624 -0.850048 0
M  V30 2657 H 250.245 3.94047 0.392781 0
M  V30 2658 H 251.419 3.89273 -2.46583 0
M  V30 2659 H 249.734 3.59976 -2.09299 0
M  V30 2660 H 252.331 5.34652 0.0713833 0
M  V30 2661 H 252.674 4.00505 1.13586 0
M  V30 2662 H 253.207 3.93816 -0.561599 0
M  V30 2663 H 249.946 5.92323 -2.80774 0
M  V30 2664 H 249.466 5.89714 -1.09535 0
M  V30 2665 H 251.145 6.28201 -1.5483 0
M  V30 2666 N 251.277 0.427512 1.51691 0
M  V30 2667 C 252.207 -0.3796 2.30394 0
M  V30 2668 C 253.188 -1.02982 1.35384 0
M  V30 2669 O 254.373 -1.03534 1.643 0
M  V30 2670 C 251.503 -1.48649 3.1388 0
M  V30 2671 C 250.457 -0.960294 4.17088 0
M  V30 2672 C 249.783 -2.16219 4.89033 0
M  V30 2673 C 251.083 -0.00153679 5.223 0
M  V30 2674 H 252.777 0.277164 2.98114 0
M  V30 2675 H 250.323 0.134739 1.43368 0
M  V30 2676 H 252.276 -2.05826 3.67714 0
M  V30 2677 H 251 -2.1714 2.43962 0
M  V30 2678 H 249.659 -0.410806 3.64291 0
M  V30 2679 H 249.307 -2.83307 4.15628 0
M  V30 2680 H 249.007 -1.81654 5.58816 0
M  V30 2681 H 250.531 -2.73968 5.45687 0
M  V30 2682 H 251.945 -0.482687 5.71264 0
M  V30 2683 H 250.342 0.256199 5.99553 0
M  V30 2684 H 251.412 0.938174 4.75738 0
M  V30 2685 N 252.755 -1.56801 0.158532 0
M  V30 2686 C 254.032 -1.88131 -0.535357 0
M  V30 2687 C 254.412 -1.06638 -1.82186 0
M  V30 2688 O 253.76 -0.156533 -2.27963 0
M  V30 2689 C 253.97 -3.39949 -0.789653 0
M  V30 2690 C 255.318 -4.09416 -1.12533 0
M  V30 2691 O 256.342 -3.45194 -0.878622 0
M  V30 2692 O 255.201 -5.22855 -1.59014 0
M  V30 2693 H 252.295 -0.780143 -0.27442 0
M  V30 2694 H 254.841 -1.68564 0.19601 0
M  V30 2695 H 253.613 -3.91115 0.120353 0
M  V30 2696 H 253.236 -3.65084 -1.57479 0
M  V30 2697 N 254.233 0.115231 -1.57178 0
M  V30 2698 C 255.196 1.12526 -1.99676 0
M  V30 2699 C 256.196 1.34095 -0.88742 0
M  V30 2700 O 257.386 1.30548 -1.15337 0
M  V30 2701 C 254.518 2.4789 -2.34015 0
M  V30 2702 H 255.711 0.759912 -2.90113 0
M  V30 2703 H 253.264 0.359648 -1.52106 0
M  V30 2704 H 253.999 2.89339 -1.4647 0
M  V30 2705 H 253.784 2.33588 -3.14927 0
M  V30 2706 H 255.274 3.20575 -2.67622 0
M  V30 2707 N 255.711 1.52812 0.385517 0
M  V30 2708 C 256.959 1.67694 1.12797 0
M  V30 2709 C 257.28 0.421115 1.90399 0
M  V30 2710 O 256.55 -0.564551 1.87589 0
M  V30 2711 H 255.13 0.618155 0.419396 0
M  V30 2712 H 257.792 1.89938 0.436972 0
M  V30 2713 H 256.888 2.52896 1.82894 0
M  V30 2714 N 257.189 -0.644168 1.43834 0
M  V30 2715 C 258.419 -1.42939 1.49171 0
M  V30 2716 C 258.827 -1.88874 0.111048 0
M  V30 2717 O 258.17 -1.60656 -0.8908 0
M  V30 2718 C 258.232 -2.69151 2.38324 0
M  V30 2719 C 257.896 -2.45097 3.85715 0
M  V30 2720 C 258.893 -2.07747 4.76589 0
M  V30 2721 C 256.578 -2.59141 4.30292 0
M  V30 2722 C 258.572 -1.8475 6.10038 0
M  V30 2723 C 256.259 -2.35759 5.63792 0
M  V30 2724 C 257.257 -1.9862 6.53482 0
M  V30 2725 O 256.945 -1.75489 7.84512 0
M  V30 2726 H 256.677 -0.445271 0.508635 0
M  V30 2727 H 259.231 -0.79621 1.8934 0
M  V30 2728 H 257.461 -3.3506 1.93058 0
M  V30 2729 H 259.15 -3.31123 2.3476 0
M  V30 2730 H 259.916 -1.96465 4.43426 0
M  V30 2731 H 255.795 -2.87022 3.60749 0
M  V30 2732 H 259.339 -1.55686 6.80006 0
M  V30 2733 H 255.236 -2.46646 5.9652 0
M  V30 2734 H 256.004 -1.89841 7.9618 0
M  V30 2735 N 258.668 -1.30515 -0.883378 0
M  V30 2736 C 259.915 -1.1943 -1.63532 0
M  V30 2737 C 260.243 0.250627 -1.92878 0
M  V30 2738 O 259.498 1.19556 -1.54935 0
M  V30 2739 C 259.797 -1.96994 -2.98209 0
M  V30 2740 C 259.463 -3.466 -2.88408 0
M  V30 2741 C 258.125 -3.87397 -2.85442 0
M  V30 2742 C 260.477 -4.41863 -2.76418 0
M  V30 2743 C 257.805 -5.21745 -2.68327 0
M  V30 2744 C 260.157 -5.7632 -2.60841 0
M  V30 2745 C 258.821 -6.16354 -2.56251 0
M  V30 2746 H 258.091 -0.437025 -0.598406 0
M  V30 2747 H 260.738 -1.61635 -1.02696 0
M  V30 2748 H 259.043 -1.47429 -3.63004 0
M  V30 2749 H 260.74 -1.85808 -3.55354 0
M  V30 2750 H 257.33 -3.14182 -2.91527 0
M  V30 2751 H 261.514 -4.11285 -2.77775 0
M  V30 2752 H 256.77 -5.51853 -2.63189 0
M  V30 2753 H 260.944 -6.49772 -2.50538 0
M  V30 2754 H 258.571 -7.20401 -2.42748 0
M  V30 2755 N 260.146 1.09593 -1.13257 0
M  V30 2756 C 261.076 2.18214 -0.830946 0
M  V30 2757 C 262.057 1.68812 0.208966 0
M  V30 2758 O 263.242 1.9408 0.0682666 0
M  V30 2759 C 260.372 3.46051 -0.294296 0
M  V30 2760 C 259.326 4.08778 -1.26826 0
M  V30 2761 C 258.652 5.31419 -0.591449 0
M  V30 2762 C 259.952 4.51476 -2.62615 0
M  V30 2763 H 261.646 2.43703 -1.73923 0
M  V30 2764 H 259.192 1.17128 -0.837675 0
M  V30 2765 H 261.145 4.2134 -0.0709606 0
M  V30 2766 H 259.869 3.20079 0.649366 0
M  V30 2767 H 258.528 3.35505 -1.47756 0
M  V30 2768 H 258.176 5.01727 0.357633 0
M  V30 2769 H 257.876 5.74341 -1.24123 0
M  V30 2770 H 259.4 6.09433 -0.377355 0
M  V30 2771 H 260.814 5.17999 -2.45663 0
M  V30 2772 H 259.211 5.05277 -3.23752 0
M  V30 2773 H 260.281 3.63962 -3.20406 0
M  V30 2774 N 261.624 0.925811 1.2754 0
M  V30 2775 C 263.035 0.610102 1.7645 0
M  V30 2776 C 263.386 -0.874723 1.75622 0
M  V30 2777 O 262.511 -1.68444 1.35851 0
M  V30 2778 C 263.106 1.10073 3.20421 0
M  V30 2779 C 261.665 0.835723 3.67005 0
M  V30 2780 C 260.812 1.26054 2.46993 0
M  V30 2781 H 263.763 1.10579 1.13833 0
M  V30 2782 H 263.784 0.447557 3.77859 0
M  V30 2783 H 263.296 2.18143 3.20991 0
M  V30 2784 H 261.397 -0.231249 3.71882 0
M  V30 2785 H 261.51 1.45193 4.56569 0
M  V30 2786 H 259.874 0.679111 2.45479 0
M  V30 2787 H 260.657 2.34984 2.50275 0
M  V30 2788 N 263.102 -1.41638 0.69111 0
M  V30 2789 C 264.032 -2.3347 0.037248 0
M  V30 2790 C 265.013 -1.51575 -0.771947 0
M  V30 2791 O 266.198 -1.80126 -0.72582 0
M  V30 2792 C 263.328 -3.35354 -0.903064 0
M  V30 2793 C 262.282 -4.27526 -0.201288 0
M  V30 2794 C 261.608 -5.19747 -1.25565 0
M  V30 2795 C 262.908 -5.13959 0.929689 0
M  V30 2796 H 264.602 -2.88397 0.804227 0
M  V30 2797 H 262.148 -1.38669 0.388189 0
M  V30 2798 H 264.101 -3.98519 -1.36969 0
M  V30 2799 H 262.825 -2.78767 -1.70166 0
M  V30 2800 H 261.484 -3.65779 0.245265 0
M  V30 2801 H 261.132 -4.59479 -2.04666 0
M  V30 2802 H 260.832 -5.8225 -0.791128 0
M  V30 2803 H 262.356 -5.85789 -1.72288 0
M  V30 2804 H 263.77 -5.70718 0.543546 0
M  V30 2805 H 262.167 -5.85379 1.32103 0
M  V30 2806 H 263.237 -4.51389 1.77133 0
M  V30 2807 N 264.58 -0.43555 -1.51462 0
M  V30 2808 C 265.996 -0.0877501 -1.59359 0
M  V30 2809 C 266.196 1.4027 -1.4466 0
M  V30 2810 O 265.252 2.17243 -1.28693 0
M  V30 2811 C 266.565 -0.606264 -2.94525 0
M  V30 2812 C 268.113 -0.566548 -3.0783 0
M  V30 2813 C 268.588 -1.06201 -4.45517 0
M  V30 2814 N 270.079 -1.01992 -4.51832 0
M  V30 2815 C 270.814 -1.37417 -5.5669 0
M  V30 2816 N 270.31 -1.80119 -6.68976 0
M  V30 2817 N 272.103 -1.29245 -5.47039 0
M  V30 2818 H 264.254 -1.40533 -1.59261 0
M  V30 2819 H 266.517 -0.578992 -0.750648 0
M  V30 2820 H 266.223 -1.64901 -3.10645 0
M  V30 2821 H 266.097 -0.0302097 -3.77188 0
M  V30 2822 H 268.484 0.467208 -2.91378 0
M  V30 2823 H 268.565 -1.17898 -2.2701 0
M  V30 2824 H 268.209 -2.09422 -4.62715 0
M  V30 2825 H 268.139 -0.426127 -5.24873 0
M  V30 2826 H 270.63 -0.706308 -3.71241 0
M  V30 2827 H 270.943 -2.05392 -7.45006 0
M  V30 2828 H 269.288 -1.84044 -6.70189 0
M  V30 2829 H 272.479 -0.957522 -4.58202 0
M  V30 2830 H 272.652 -1.57182 -6.28648 0
M  V30 2831 N 266.058 1.56714 -0.166846 0
M  V30 2832 C 266.99 2.14914 0.796537 0
M  V30 2833 C 268.003 1.10357 1.19688 0
M  V30 2834 O 269.192 1.37561 1.13751 0
M  V30 2835 C 266.292 2.67326 2.08303 0
M  V30 2836 C 265.465 3.96493 1.84696 0
M  V30 2837 C 264.524 4.34014 2.97521 0
M  V30 2838 O 263.55 5.01973 2.6835 0
M  V30 2839 N 264.752 3.95208 4.25196 0
M  V30 2840 H 267.517 2.98205 0.299006 0
M  V30 2841 H 265.078 1.61892 0.0160839 0
M  V30 2842 H 267.07 2.89428 2.82867 0
M  V30 2843 H 265.64 1.88649 2.4926 0
M  V30 2844 H 264.86 3.82814 0.940602 0
M  V30 2845 H 266.148 4.8086 1.66285 0
M  V30 2846 H 265.546 3.40487 4.51758 0
M  V30 2847 H 264.103 4.2232 4.96477 0
M  V30 2848 N 267.536 -0.106894 1.57237 0
M  V30 2849 C 268.783 -0.812526 1.85484 0
M  V30 2850 C 269.111 -1.79304 0.753687 0
M  V30 2851 O 268.366 -1.94047 -0.253853 0
M  V30 2852 C 268.665 -1.58628 3.20268 0
M  V30 2853 C 268.331 -0.748967 4.44636 0
M  V30 2854 C 266.993 -0.518104 4.78403 0
M  V30 2855 C 269.345 -0.166122 5.20935 0
M  V30 2856 C 266.673 0.305659 5.85903 0
M  V30 2857 C 269.025 0.644899 6.29304 0
M  V30 2858 C 267.689 0.885965 6.61594 0
M  V30 2859 H 266.959 -0.297324 0.678734 0
M  V30 2860 H 269.606 -0.0744332 1.91355 0
M  V30 2861 H 267.911 -2.39562 3.10028 0
M  V30 2862 H 269.608 -2.13643 3.39349 0
M  V30 2863 H 266.198 -0.939006 4.18187 0
M  V30 2864 H 270.382 -0.33167 4.95191 0
M  V30 2865 H 265.638 0.501528 6.0934 0
M  V30 2866 H 269.812 1.10345 6.87602 0
M  V30 2867 H 267.439 1.52609 7.44725 0
M  V30 2868 N 269.014 -1.53014 -0.377408 0
M  V30 2869 C 270.242 -1.72515 -1.14219 0
M  V30 2870 C 270.657 -0.448735 -1.8339 0
M  V30 2871 O 270.014 0.577592 -1.73119 0
M  V30 2872 C 270.065 -2.8826 -2.18148 0
M  V30 2873 O 269.786 -4.10962 -1.51795 0
M  V30 2874 C 271.287 -3.19536 -3.07264 0
M  V30 2875 H 268.507 -0.577301 -0.342001 0
M  V30 2876 H 271.051 -1.99712 -0.439935 0
M  V30 2877 H 269.206 -2.63492 -2.83991 0
M  V30 2878 H 269.62 -4.75693 -2.20945 0
M  V30 2879 H 271.094 -4.03959 -3.76193 0
M  V30 2880 H 271.571 -2.34403 -3.71419 0
M  V30 2881 H 272.177 -3.46186 -2.47053 0
M  V30 2882 N 270.492 0.636531 -1.44174 0
M  V30 2883 C 271.402 1.77754 -1.53103 0
M  V30 2884 C 272.418 1.68928 -0.417034 0
M  V30 2885 O 273.594 1.89801 -0.6736 0
M  V30 2886 C 270.659 3.14115 -1.46741 0
M  V30 2887 C 269.72 3.34612 -2.68948 0
M  V30 2888 C 268.953 4.64467 -2.6288 0
M  V30 2889 O 269.176 5.44919 -1.68581 0
M  V30 2890 O 268.11 4.87049 -3.53648 0
M  V30 2891 H 271.936 1.73174 -2.49489 0
M  V30 2892 H 269.521 0.79709 -1.2636 0
M  V30 2893 H 271.403 3.95412 -1.45696 0
M  V30 2894 H 270.078 3.19249 -0.534975 0
M  V30 2895 H 268.985 2.53014 -2.75562 0
M  V30 2896 H 270.318 3.34336 -3.61221 0
M  V30 2897 N 271.97 1.30982 0.876444 0
M  V30 2898 C 272.918 1.18006 2.00443 0
M  V30 2899 C 273.912 0.0898871 1.69161 0
M  V30 2900 O 275.118 0.251333 1.78237 0
M  V30 2901 H 271.493 0.365196 0.65737 0
M  V30 2902 H 273.464 2.13453 2.0852 0
M  V30 2903 C 272.213 0.897521 3.35916 0
M  V30 2904 H 271.536 1.7285 3.60504 0
M  V30 2905 H 272.976 0.846874 4.15456 0
M  V30 2906 C 271.435 -0.399674 3.34521 0
M  V30 2907 O 271.965 -1.41852 3.7582 0
M  V30 2908 N 270.171 -0.413893 2.87637 0
M  V30 2909 H 269.718 0.41571 2.54224 0
M  V30 2910 H 269.676 -1.28175 2.87086 0
M  V30 2911 N 273.449 -1.08991 1.13837 0
M  V30 2912 C 274.379 -2.17771 0.842507 0
M  V30 2913 C 275.36 -1.6892 -0.20001 0
M  V30 2914 O 276.545 -1.94113 -0.0579731 0
M  V30 2915 C 273.675 -3.4589 0.312644 0
M  V30 2916 C 272.629 -4.08099 1.28992 0
M  V30 2917 C 271.955 -5.31098 0.619623 0
M  V30 2918 C 273.255 -4.50077 2.65005 0
M  V30 2919 H 274.949 -2.42777 1.75213 0
M  V30 2920 H 272.495 -1.16682 0.843875 0
M  V30 2921 H 274.448 -4.21297 0.0933043 0
M  V30 2922 H 273.172 -3.20419 -0.632382 0
M  V30 2923 H 271.831 -3.34717 1.49533 0
M  V30 2924 H 271.479 -5.0191 -0.33102 0
M  V30 2925 H 271.179 -5.73674 1.27167 0
M  V30 2926 H 272.703 -6.09224 0.409669 0
M  V30 2927 H 274.117 -5.16688 2.48407 0
M  V30 2928 H 272.514 -5.03553 3.26427 0
M  V30 2929 H 273.584 -3.62257 3.22332 0
M  V30 2930 N 274.927 -0.932562 -1.27047 0
M  V30 2931 C 276.175 -0.574422 -1.93765 0
M  V30 2932 C 276.496 0.887993 -1.73608 0
M  V30 2933 O 275.766 1.62999 -1.08665 0
M  V30 2934 H 274.346 -0.209451 -0.717035 0
M  V30 2935 H 277.008 -1.18601 -1.5466 0
M  V30 2936 H 276.104 -0.784841 -3.02071 0
M  V30 2937 N 276.405 1.4127 -0.698611 0
M  V30 2938 C 277.633 2.05503 -0.239992 0
M  V30 2939 C 278.048 1.52584 1.11191 0
M  V30 2940 O 277.405 0.675323 1.69545 0
M  V30 2941 C 277.456 3.60987 -0.192429 0
M  V30 2942 O 277.177 4.1195 -1.49094 0
M  V30 2943 C 278.678 4.42371 0.28681 0
M  V30 2944 H 275.898 0.661748 -0.111045 0
M  V30 2945 H 278.442 1.80987 -0.95205 0
M  V30 2946 H 276.597 3.84533 0.470472 0
M  V30 2947 H 277.011 5.06018 -1.38007 0
M  V30 2948 H 278.485 5.51344 0.26896 0
M  V30 2949 H 278.962 4.18699 1.32619 0
M  V30 2950 H 279.568 4.23897 -0.345201 0
M  V30 2951 N 277.883 0.443576 1.51229 0
M  V30 2952 C 279.132 -0.122332 2.01329 0
M  V30 2953 C 279.445 -1.43237 1.33201 0
M  V30 2954 O 280.651 -2.0816 1.74304 0
M  V30 2955 C 279.107 -0.268551 3.58897 0
M  V30 2956 C 278.715 1.03142 4.35965 0
M  V30 2957 C 280.459 -0.787894 4.17124 0
M  V30 2958 C 278.366 0.850504 5.85252 0
M  V30 2959 H 277.296 -0.0494929 0.752374 0
M  V30 2960 H 279.947 0.574289 1.74282 0
M  V30 2961 H 278.329 -1.02832 3.82415 0
M  V30 2962 H 279.503 1.80001 4.24189 0
M  V30 2963 H 277.818 1.47977 3.89219 0
M  V30 2964 H 280.415 -0.939841 5.26375 0
M  V30 2965 H 280.758 -1.77201 3.76703 0
M  V30 2966 H 281.291 -0.0862669 3.97706 0
M  V30 2967 H 278.03 1.80718 6.30096 0
M  V30 2968 H 277.55 0.121825 5.99676 0
M  V30 2969 H 279.229 0.506163 6.45017 0
M  V30 2970 N 279.361 -1.56624 0.175154 0
M  V30 2971 C 280.291 -2.21155 -0.749195 0
M  V30 2972 C 281.272 -1.16836 -1.23626 0
M  V30 2973 O 282.457 -1.45277 -1.28873 0
M  V30 2974 C 279.587 -2.8553 -1.97711 0
M  V30 2975 C 278.541 -3.95921 -1.62575 0
M  V30 2976 C 277.867 -4.47365 -2.92864 0
M  V30 2977 C 279.167 -5.15323 -0.850838 0
M  V30 2978 H 280.861 -2.98653 -0.211295 0
M  V30 2979 H 278.407 -1.43651 -0.100188 0
M  V30 2980 H 280.36 -3.2935 -2.62881 0
M  V30 2981 H 279.084 -2.05406 -2.53921 0
M  V30 2982 H 277.743 -3.52762 -0.997719 0
M  V30 2983 H 277.391 -3.64027 -3.47122 0
M  V30 2984 H 277.091 -5.21839 -2.70106 0
M  V30 2985 H 278.615 -4.93873 -3.59056 0
M  V30 2986 H 280.029 -5.55812 -1.40521 0
M  V30 2987 H 278.426 -5.95739 -0.722154 0
M  V30 2988 H 279.496 -4.84661 0.152082 0
M  V30 2989 N 280.839 0.0985539 -1.57292 0
M  V30 2990 C 282.088 0.801358 -1.85098 0
M  V30 2991 C 282.401 1.80066 -0.763902 0
M  V30 2992 O 283.607 2.55112 -0.928981 0
M  V30 2993 C 282.063 1.47599 -3.28242 0
M  V30 2994 C 281.671 0.516624 -4.45011 0
M  V30 2995 C 283.415 2.16272 -3.65276 0
M  V30 2996 C 281.322 1.19564 -5.79188 0
M  V30 2997 H 280.252 0.303022 -0.69043 0
M  V30 2998 H 282.903 0.0542623 -1.8342 0
M  V30 2999 H 281.285 2.27042 -3.2445 0
M  V30 3000 H 282.459 -0.246065 -4.60143 0
M  V30 3001 H 280.774 -0.064227 -4.1635 0
M  V30 3002 H 283.371 2.67802 -4.62803 0
M  V30 3003 H 283.714 2.95009 -2.93727 0
M  V30 3004 H 284.247 1.43693 -3.70941 0
M  V30 3005 H 280.986 0.449157 -6.53959 0
M  V30 3006 H 280.506 1.92984 -5.67906 0
M  V30 3007 H 282.185 1.7231 -6.23633 0
M  V30 3008 N 282.317 1.53212 0.369288 0
M  V30 3009 C 283.564 1.69215 1.11232 0
M  V30 3010 C 283.892 0.442048 1.8941 0
M  V30 3011 O 283.147 -0.575944 1.87033 0
M  V30 3012 C 283.446 2.89101 2.10132 0
M  V30 3013 C 283.112 4.25758 1.48463 0
M  V30 3014 C 281.774 4.6292 1.31372 0
M  V30 3015 C 284.126 5.10757 1.03811 0
M  V30 3016 C 281.454 5.82722 0.68207 0
M  V30 3017 C 283.806 6.31201 0.420487 0
M  V30 3018 C 282.47 6.67079 0.237038 0
M  V30 3019 H 281.74 0.619201 0.407027 0
M  V30 3020 H 284.387 1.87391 0.394552 0
M  V30 3021 H 282.692 2.65421 2.88199 0
M  V30 3022 H 284.389 2.98676 2.6757 0
M  V30 3023 H 280.979 3.96494 1.62758 0
M  V30 3024 H 285.163 4.82599 1.1581 0
M  V30 3025 H 280.419 6.09113 0.528316 0
M  V30 3026 H 284.593 6.96368 0.0662874 0
M  V30 3027 H 282.22 7.59774 -0.254477 0
M  V30 3028 N 283.795 -0.628877 1.44509 0
M  V30 3029 C 284.758 -1.72263 1.51188 0
M  V30 3030 C 285.758 -1.55907 0.39367 0
M  V30 3031 O 286.948 -1.61361 0.656377 0
M  V30 3032 C 284.08 -3.11365 1.38798 0
M  V30 3033 H 285.273 -1.67714 2.4862 0
M  V30 3034 H 282.826 -0.842737 1.31634 0
M  V30 3035 H 283.561 -3.21507 0.424693 0
M  V30 3036 H 283.346 -3.24644 2.19884 0
M  V30 3037 H 284.836 -3.91075 1.46458 0
M  V30 3038 N 285.273 -1.31445 -0.869486 0
M  V30 3039 C 286.519 -1.21337 -1.62496 0
M  V30 3040 C 286.852 0.227872 -1.92858 0
M  V30 3041 O 286.127 1.16094 -1.56053 0
M  V30 3042 C 286.41 -2.05814 -2.95487 0
M  V30 3043 C 286.263 -3.5824 -2.72 0
M  V30 3044 C 287.582 -1.9079 -3.96594 0
M  V30 3045 H 284.701 -0.442135 -0.589649 0
M  V30 3046 H 287.343 -1.6124 -1.00507 0
M  V30 3047 H 285.493 -1.71913 -3.48394 0
M  V30 3048 H 287.165 -4.0228 -2.25762 0
M  V30 3049 H 285.408 -3.81647 -2.06224 0
M  V30 3050 H 286.079 -4.12657 -3.66631 0
M  V30 3051 H 288.555 -2.20459 -3.52898 0
M  V30 3052 H 287.431 -2.52199 -4.87531 0
M  V30 3053 H 287.692 -0.871341 -4.33428 0
M  V30 3054 N 286.751 1.08385 -1.14413 0
M  V30 3055 C 287.997 1.81044 -0.913834 0
M  V30 3056 C 288.33 1.86004 0.558209 0
M  V30 3057 O 287.605 1.33606 1.4135 0
M  V30 3058 C 287.888 3.26648 -1.51569 0
M  V30 3059 C 287.741 3.29895 -3.0576 0
M  V30 3060 C 289.06 4.23629 -1.19273 0
M  V30 3061 H 286.179 0.65727 -0.333414 0
M  V30 3062 H 288.821 1.26896 -1.41412 0
M  V30 3063 H 286.971 3.72889 -1.09023 0
M  V30 3064 H 288.643 2.91977 -3.57137 0
M  V30 3065 H 286.886 2.69163 -3.40197 0
M  V30 3066 H 287.557 4.32516 -3.42977 0
M  V30 3067 H 290.033 3.85727 -1.56057 0
M  V30 3068 H 288.909 5.23822 -1.64017 0
M  V30 3069 H 289.17 4.41968 -0.108068 0
M  V30 3070 N 288.23 0.939286 1.26551 0
M  V30 3071 C 289.478 0.58469 1.93457 0
M  V30 3072 C 289.799 -0.878774 1.74076 0
M  V30 3073 O 289.069 -1.62421 1.09528 0
M  V30 3074 H 287.649 0.21325 0.715914 0
M  V30 3075 H 290.311 1.1942 1.54029 0
M  V30 3076 H 289.407 0.800849 3.0165 0
M  V30 3077 N 289.708 -1.40897 0.706093 0
M  V30 3078 C 290.936 -2.05373 0.250887 0
M  V30 3079 C 291.351 -1.53172 -1.10381 0
M  V30 3080 O 290.708 -0.684305 -1.69185 0
M  V30 3081 C 290.759 -3.6088 0.211571 0
M  V30 3082 O 290.48 -4.11153 1.51276 0
M  V30 3083 C 291.981 -4.42517 -0.263346 0
M  V30 3084 H 289.201 -0.66115 0.114552 0
M  V30 3085 H 291.745 -1.80479 0.961635 0
M  V30 3086 H 289.9 -3.84777 -0.450073 0
M  V30 3087 H 290.314 -5.05279 1.40689 0
M  V30 3088 H 291.788 -5.51479 -0.239718 0
M  V30 3089 H 292.265 -4.19396 -1.30397 0
M  V30 3090 H 292.871 -4.23708 0.367677 0
M  V30 3091 N 291.186 -0.45159 -1.50991 0
M  V30 3092 C 292.116 0.342898 -2.30969 0
M  V30 3093 C 293.097 1.00815 -1.37005 0
M  V30 3094 O 294.282 1.00907 -1.65926 0
M  V30 3095 C 291.412 1.43637 -3.16205 0
M  V30 3096 C 290.366 0.893818 -4.18563 0
M  V30 3097 C 289.692 2.08411 -4.92411 0
M  V30 3098 C 290.992 -0.0815568 -5.22236 0
M  V30 3099 H 292.686 -0.324556 -2.97636 0
M  V30 3100 H 290.232 -0.157531 -1.43136 0
M  V30 3101 H 292.185 1.9995 -3.70942 0
M  V30 3102 H 290.909 2.13232 -2.47386 0
M  V30 3103 H 289.568 0.352798 -3.64898 0
M  V30 3104 H 289.216 2.76658 -4.20082 0
M  V30 3105 H 288.916 1.72741 -5.61636 0
M  V30 3106 H 290.44 2.65251 -5.49976 0
M  V30 3107 H 291.854 0.391742 -5.7196 0
M  V30 3108 H 290.251 -0.351551 -5.99069 0
M  V30 3109 H 291.321 -1.01374 -4.74185 0
M  V30 3110 N 292.664 1.56529 -0.183458 0
M  V30 3111 C 293.91 1.98304 0.452466 0
M  V30 3112 C 294.265 1.06799 1.60037 0
M  V30 3113 O 293.558 0.110049 1.91284 0
M  V30 3114 C 293.752 3.43939 0.971637 0
M  V30 3115 C 293.581 4.49528 -0.124425 0
M  V30 3116 C 292.351 5.01981 -0.578168 0
M  V30 3117 C 294.549 5.05836 -0.929207 0
M  V30 3118 N 292.531 5.91219 -1.65327 0
M  V30 3119 C 293.902 5.91632 -1.85396 0
M  V30 3120 C 295.957 4.88302 -0.972929 0
M  V30 3121 C 294.66 6.61768 -2.81878 0
M  V30 3122 C 296.686 5.59168 -1.92574 0
M  V30 3123 C 296.048 6.44701 -2.83795 0
M  V30 3124 H 292.147 0.770551 0.133324 0
M  V30 3125 H 294.731 1.92581 -0.286473 0
M  V30 3126 H 292.902 3.50184 1.68006 0
M  V30 3127 H 294.634 3.72702 1.5772 0
M  V30 3128 H 291.389 4.73282 -0.173639 0
M  V30 3129 H 291.813 6.40543 -2.19167 0
M  V30 3130 H 296.455 4.21861 -0.28168 0
M  V30 3131 H 294.173 7.27415 -3.51984 0
M  V30 3132 H 297.759 5.47582 -1.96583 0
M  V30 3133 H 296.639 6.98573 -3.56322 0
M  V30 3134 N 294.142 -0.090211 1.57342 0
M  V30 3135 C 295.09 -1.12792 2.03422 0
M  V30 3136 C 296.084 -1.41182 0.936166 0
M  V30 3137 O 297.29 -1.40805 1.12133 0
M  V30 3138 H 293.665 -0.380986 0.648347 0
M  V30 3139 H 295.636 -0.71299 2.89757 0
M  V30 3140 C 294.385 -2.43855 2.47851 0
M  V30 3141 H 293.708 -2.22855 3.31927 0
M  V30 3142 H 295.148 -3.14955 2.83865 0
M  V30 3143 C 293.607 -3.08503 1.3538 0
M  V30 3144 O 294.137 -3.95805 0.685641 0
M  V30 3145 N 292.343 -2.68831 1.10355 0
M  V30 3146 H 291.89 -1.97929 1.64869 0
M  V30 3147 H 291.848 -3.12412 0.353031 0
M  V30 3148 N 295.62 -1.53406 -0.361157 0
M  V30 3149 C 296.583 -1.79479 -1.42548 0
M  V30 3150 C 297.583 -0.665327 -1.4639 0
M  V30 3151 O 298.773 -0.933549 -1.47073 0
M  V30 3152 C 295.905 -1.92087 -2.8163 0
M  V30 3153 H 297.098 -2.74538 -1.20701 0
M  V30 3154 H 294.651 -1.4455 -0.594546 0
M  V30 3155 H 295.386 -0.991099 -3.08784 0
M  V30 3156 H 295.171 -2.74241 -2.80239 0
M  V30 3157 H 296.661 -2.13836 -3.58697 0
M  V30 3158 N 297.098 0.621204 -1.44841 0
M  V30 3159 C 298.345 1.38055 -1.48145 0
M  V30 3160 C 298.673 1.94143 -0.117867 0
M  V30 3161 O 297.928 1.74713 0.881694 0
M  V30 3162 C 298.227 2.55675 -2.4973 0
M  V30 3163 C 297.893 2.17817 -3.94799 0
M  V30 3164 C 296.555 2.07205 -4.34303 0
M  V30 3165 C 298.907 1.88065 -4.86087 0
M  V30 3166 C 296.235 1.65045 -5.63007 0
M  V30 3167 C 298.587 1.47394 -6.15189 0
M  V30 3168 C 297.251 1.35331 -6.53637 0
M  V30 3169 H 296.521 0.505181 -0.542101 0
M  V30 3170 H 299.168 0.703477 -1.78111 0
M  V30 3171 H 297.473 3.2866 -2.13284 0
M  V30 3172 H 299.17 3.13904 -2.4953 0
M  V30 3173 H 295.76 2.26998 -3.63552 0
M  V30 3174 H 299.944 1.95168 -4.56315 0
M  V30 3175 H 295.2 1.54317 -5.91605 0
M  V30 3176 H 299.374 1.23415 -6.85377 0
M  V30 3177 H 297.001 1.02435 -7.53267 0
M  V30 3178 N 298.576 1.31904 0.862503 0
M  V30 3179 C 299.823 1.22017 1.61611 0
M  V30 3180 C 300.151 -0.21991 1.93253 0
M  V30 3181 O 299.406 -1.17076 1.56817 0
M  V30 3182 C 299.705 2.01713 2.95037 0
M  V30 3183 C 299.371 3.51145 2.82857 0
M  V30 3184 C 298.033 3.91889 2.79243 0
M  V30 3185 C 300.385 4.46204 2.69353 0
M  V30 3186 C 297.713 5.25947 2.59993 0
M  V30 3187 C 300.065 5.80397 2.5164 0
M  V30 3188 C 298.729 6.20352 2.46413 0
M  V30 3189 H 297.999 0.44649 0.591378 0
M  V30 3190 H 300.646 1.63248 1.00111 0
M  V30 3191 H 298.951 1.53185 3.60613 0
M  V30 3192 H 300.648 1.91437 3.52353 0
M  V30 3193 H 297.238 3.1878 2.86491 0
M  V30 3194 H 301.422 4.15652 2.71196 0
M  V30 3195 H 296.678 5.5597 2.54376 0
M  V30 3196 H 300.852 6.53676 2.40169 0
M  V30 3197 H 298.479 7.24172 2.31256 0
M  V30 3198 N 300.054 -1.07777 1.14986 0
M  V30 3199 C 300.984 -2.16865 0.865557 0
M  V30 3200 C 301.965 -1.69123 -0.182083 0
M  V30 3201 O 303.15 -1.94164 -0.0373815 0
M  V30 3202 C 300.28 -3.45539 0.349313 0
M  V30 3203 C 299.234 -4.06708 1.33313 0
M  V30 3204 C 298.56 -5.30411 0.675918 0
M  V30 3205 C 299.86 -4.47241 2.69764 0
M  V30 3206 H 301.554 -2.40905 1.77778 0
M  V30 3207 H 299.1 -1.15781 0.856203 0
M  V30 3208 H 301.053 -4.21174 0.137983 0
M  V30 3209 H 299.777 -3.21072 -0.598362 0
M  V30 3210 H 298.436 -3.33112 1.53075 0
M  V30 3211 H 298.084 -5.02232 -0.277767 0
M  V30 3212 H 297.784 -5.72293 1.33244 0
M  V30 3213 H 299.308 -6.08755 0.474262 0
M  V30 3214 H 300.722 -5.14025 2.53873 0
M  V30 3215 H 299.119 -5.00062 3.3175 0
M  V30 3216 H 300.189 -3.58818 3.26156 0
M  V30 3217 N 301.532 -0.945985 -1.26051 0
M  V30 3218 C 302.78 -0.594941 -1.93145 0
M  V30 3219 C 303.101 0.86953 -1.7454 0
M  V30 3220 O 302.371 1.61838 -1.10387 0
M  V30 3221 H 300.951 -0.217044 -0.714773 0
M  V30 3222 H 303.613 -1.20235 -1.53393 0
M  V30 3223 H 302.709 -0.816835 -3.01221 0
M  V30 3224 N 303.011 1.40521 -0.713556 0
M  V30 3225 C 304.259 2.00527 -0.251692 0
M  V30 3226 C 304.58 1.56857 1.15848 0
M  V30 3227 O 303.85 0.807127 1.785 0
M  V30 3228 H 302.43 0.741551 -0.0900646 0
M  V30 3229 H 305.092 1.71887 -0.918733 0
M  V30 3230 H 304.188 3.10813 -0.283192 0
M  V30 3231 N 304.489 0.459591 1.5075 0
M  V30 3232 C 305.419 -0.330644 2.31147 0
M  V30 3233 C 306.4 -1.00087 1.37538 0
M  V30 3234 O 307.585 -1.00025 1.66459 0
M  V30 3235 C 304.715 -1.41958 3.16962 0
M  V30 3236 C 303.669 -0.871608 4.19031 0
M  V30 3237 C 302.995 -2.05797 4.9351 0
M  V30 3238 C 304.295 0.109251 5.22186 0
M  V30 3239 H 305.989 0.340336 2.97459 0
M  V30 3240 H 303.535 0.165119 1.4305 0
M  V30 3241 H 305.488 -1.9798 3.71997 0
M  V30 3242 H 304.212 -2.11917 2.48513 0
M  V30 3243 H 302.871 -0.333442 3.6508 0
M  V30 3244 H 302.519 -2.74427 4.21544 0
M  V30 3245 H 302.219 -1.6976 5.62544 0
M  V30 3246 H 303.743 -2.62331 5.51375 0
M  V30 3247 H 305.157 -0.361405 5.7216 0
M  V30 3248 H 303.554 0.383316 5.98875 0
M  V30 3249 H 304.624 1.03887 4.73641 0
M  V30 3250 N 305.967 -1.56429 0.191757 0
M  V30 3251 C 306.9 -2.14829 -0.76967 0
M  V30 3252 C 307.878 -1.08405 -1.2119 0
M  V30 3253 O 309.062 -1.36498 -1.30002 0
M  V30 3254 C 306.189 -2.70446 -2.03903 0
M  V30 3255 C 305.235 -3.89428 -1.7392 0
M  V30 3256 S 306.068 -5.28048 -0.890265 0
M  V30 3257 C 307.224 -5.87085 -2.16984 0
M  V30 3258 H 307.457 -2.96042 -0.273204 0
M  V30 3259 H 304.99 -1.54383 -0.0231975 0
M  V30 3260 H 306.948 -3.03134 -2.76803 0
M  V30 3261 H 305.609 -1.89281 -2.50662 0
M  V30 3262 H 304.802 -4.26742 -2.68155 0
M  V30 3263 H 304.404 -3.57732 -1.09103 0
M  V30 3264 H 306.696 -6.01244 -3.12269 0
M  V30 3265 H 307.639 -6.83747 -1.84108 0
M  V30 3266 H 308.047 -5.15663 -2.29678 0
M  V30 3267 N 307.445 0.0818655 -1.57387 0
M  V30 3268 C 308.675 0.794954 -1.90694 0
M  V30 3269 C 309.083 1.72147 -0.784982 0
M  V30 3270 O 308.426 1.81974 0.251196 0
M  V30 3271 C 308.488 1.65042 -3.19376 0
M  V30 3272 C 308.152 0.894337 -4.48164 0
M  V30 3273 C 309.149 0.21813 -5.19442 0
M  V30 3274 C 306.834 0.864495 -4.94805 0
M  V30 3275 C 308.828 -0.477802 -6.35607 0
M  V30 3276 C 306.515 0.164785 -6.10878 0
M  V30 3277 C 307.513 -0.505173 -6.81129 0
M  V30 3278 O 307.201 -1.19363 -7.94989 0
M  V30 3279 H 306.933 0.231779 -0.635023 0
M  V30 3280 H 309.487 0.059493 -2.05314 0
M  V30 3281 H 307.717 2.42844 -3.00938 0
M  V30 3282 H 309.406 2.24127 -3.38411 0
M  V30 3283 H 310.172 0.232558 -4.84442 0
M  V30 3284 H 306.051 1.37542 -4.40004 0
M  V30 3285 H 309.595 -1.00129 -6.90377 0
M  V30 3286 H 305.492 0.148249 -6.4533 0
M  V30 3287 H 306.26 -1.10188 -8.11049 0
M  V30 3288 N 308.923 1.53595 0.353017 0
M  V30 3289 C 309.886 1.80232 1.41594 0
M  V30 3290 C 310.886 0.673081 1.46035 0
M  V30 3291 O 312.076 0.941335 1.46576 0
M  V30 3292 C 309.208 1.93578 2.80607 0
M  V30 3293 H 310.401 2.75174 1.19244 0
M  V30 3294 H 307.954 1.44864 0.586872 0
M  V30 3295 H 308.689 1.00746 3.08254 0
M  V30 3296 H 308.474 2.75724 2.78781 0
M  V30 3297 H 309.964 2.15735 3.57558 0
M  V30 3298 N 310.401 -0.613514 1.45168 0
M  V30 3299 C 311.647 -1.37471 1.49096 0
M  V30 3300 C 311.98 -1.93765 0.129901 0
M  V30 3301 O 311.255 -1.74707 -0.854858 0
M  V30 3302 C 311.538 -2.52701 2.56542 0
M  V30 3303 C 311.391 -2.01643 4.0207 0
M  V30 3304 C 312.71 -3.54849 2.60327 0
M  V30 3305 H 309.829 -0.498502 0.54283 0
M  V30 3306 H 312.471 -0.692125 1.76945 0
M  V30 3307 H 310.621 -3.10931 2.32926 0
M  V30 3308 H 312.293 -1.48108 4.36877 0
M  V30 3309 H 310.536 -1.32688 4.13009 0
M  V30 3310 H 311.207 -2.84681 4.72928 0
M  V30 3311 H 313.683 -3.0645 2.81474 0
M  V30 3312 H 312.559 -4.32973 3.37381 0
M  V30 3313 H 312.82 -4.10079 1.6519 0
M  V30 3314 N 311.879 -1.3236 -0.855495 0
M  V30 3315 C 313.119 -1.24187 -1.62348 0
M  V30 3316 C 313.483 0.193597 -1.91021 0
M  V30 3317 O 314.684 0.39904 -2.65822 0
M  V30 3318 C 312.955 -2.07661 -2.90881 0
M  V30 3319 S 314.514 -2.16505 -3.81669 0
M  V30 3320 H 311.332 -0.442076 -0.556857 0
M  V30 3321 H 313.934 -1.67198 -1.01317 0
M  V30 3322 H 312.638 -3.11018 -2.67761 0
M  V30 3323 H 312.169 -1.65425 -3.56929 0
M  V30 3324 H 314.184 -1.31394 -4.78487 0
M  V30 3325 N 313.357 1.07166 -1.15556 0
M  V30 3326 C 314.287 2.16403 -0.877046 0
M  V30 3327 C 315.268 1.69217 0.173111 0
M  V30 3328 O 316.453 1.94181 0.027084 0
M  V30 3329 C 313.583 3.45349 -0.367632 0
M  V30 3330 C 312.537 4.05995 -1.35468 0
M  V30 3331 C 311.863 5.30045 -0.704038 0
M  V30 3332 C 313.163 4.45804 -2.72132 0
M  V30 3333 H 314.857 2.39959 -1.79053 0
M  V30 3334 H 312.403 1.15325 -0.862331 0
M  V30 3335 H 314.356 4.21095 -0.160317 0
M  V30 3336 H 313.08 3.21385 0.581326 0
M  V30 3337 H 311.739 3.32296 -1.54839 0
M  V30 3338 H 311.387 5.02373 0.251128 0
M  V30 3339 H 311.087 5.71579 -1.36277 0
M  V30 3340 H 312.611 6.08495 -0.50654 0
M  V30 3341 H 314.025 5.12671 -2.56595 0
M  V30 3342 H 312.422 4.98296 -3.34397 0
M  V30 3343 H 313.492 3.57083 -3.28054 0
M  V30 3344 N 314.835 0.952656 1.25548 0
M  V30 3345 C 316.081 0.607272 1.93494 0
M  V30 3346 C 316.414 -0.853245 1.74452 0
M  V30 3347 O 315.689 -1.61194 1.08843 0
M  V30 3348 C 315.972 0.96435 3.46947 0
M  V30 3349 C 315.825 2.48045 3.75225 0
M  V30 3350 C 317.144 0.487987 4.37386 0
M  V30 3351 H 314.263 0.222096 0.702739 0
M  V30 3352 H 316.905 1.18895 1.48203 0
M  V30 3353 H 315.055 0.469361 3.85654 0
M  V30 3354 H 316.727 3.04905 3.46166 0
M  V30 3355 H 314.97 2.919 3.209 0
M  V30 3356 H 315.641 2.6808 4.82532 0
M  V30 3357 H 318.117 0.912558 4.0597 0
M  V30 3358 H 316.993 0.766547 5.43521 0
M  V30 3359 H 317.254 -0.612063 4.37843 0
M  V30 3360 N 316.313 -1.40141 0.720998 0
M  V30 3361 C 317.561 -2.0039 0.262323 0
M  V30 3362 C 317.882 -1.57469 -1.15015 0
M  V30 3363 O 317.152 -0.816582 -1.78069 0
M  V30 3364 H 315.732 -0.741063 0.093996 0
M  V30 3365 H 318.394 -1.71398 0.927835 0
M  V30 3366 H 317.49 -3.10658 0.299671 0
M  V30 3367 N 317.792 -0.46758 -1.50504 0
M  V30 3368 C 319.04 0.0884469 -2.01906 0
M  V30 3369 C 319.361 1.40532 -1.35188 0
M  V30 3370 O 318.631 1.89515 -0.496079 0
M  V30 3371 H 317.211 0.0356765 -0.746148 0
M  V30 3372 H 319.873 -0.6172 -1.84869 0
M  V30 3373 H 318.969 0.2425 -3.11156 0
M  V30 3374 N 319.27 1.56325 -0.20005 0
M  V30 3375 C 320.18 2.22931 0.730668 0
M  V30 3376 C 321.196 1.22997 1.23076 0
M  V30 3377 O 322.372 1.55748 1.27689 0
M  V30 3378 C 319.437 2.87948 1.93098 0
M  V30 3379 C 318.498 4.03166 1.47497 0
M  V30 3380 C 317.731 4.65073 2.61807 0
M  V30 3381 O 317.954 4.25913 3.79413 0
M  V30 3382 O 316.888 5.54452 2.34237 0
M  V30 3383 H 320.714 3.03084 0.193391 0
M  V30 3384 H 318.299 1.49371 0.0294621 0
M  V30 3385 H 320.181 3.29063 2.6324 0
M  V30 3386 H 318.856 2.10771 2.45677 0
M  V30 3387 H 317.763 3.66664 0.742201 0
M  V30 3388 H 319.096 4.82022 0.995796 0
M  V30 3389 N 320.748 -0.0735177 1.57428 0
M  V30 3390 C 321.68 -1.11423 2.00294 0
M  V30 3391 C 322.693 -1.35084 0.908637 0
M  V30 3392 O 323.882 -1.33355 1.18654 0
M  V30 3393 C 320.982 -2.46548 2.32523 0
M  V30 3394 C 320.155 -2.42867 3.63778 0
M  V30 3395 C 319.214 -3.60087 3.83697 0
M  V30 3396 O 318.24 -3.41595 4.55304 0
M  V30 3397 N 319.442 -4.80372 3.25919 0
M  V30 3398 H 322.207 -0.749206 2.90184 0
M  V30 3399 H 319.768 -0.262195 1.59763 0
M  V30 3400 H 321.76 -3.23607 2.43024 0
M  V30 3401 H 320.33 -2.75059 1.48531 0
M  V30 3402 H 319.55 -1.51206 3.64047 0
M  V30 3403 H 320.838 -2.37506 4.49965 0
M  V30 3404 H 320.236 -4.983 2.67795 0
M  V30 3405 H 318.793 -5.54948 3.41871 0
M  V30 3406 N 322.226 -1.5378 -0.344866 0
M  V30 3407 C 323.475 -1.7018 -1.08267 0
M  V30 3408 C 323.788 -0.471 -1.89845 0
M  V30 3409 O 324.994 -0.515917 -2.66553 0
M  V30 3410 C 323.45 -3.00923 -1.97417 0
M  V30 3411 C 323.058 -4.31335 -1.21053 0
M  V30 3412 C 324.802 -3.26688 -2.71063 0
M  V30 3413 C 322.709 -5.53153 -2.09225 0
M  V30 3414 H 321.639 -0.634138 -0.407903 0
M  V30 3415 H 324.29 -1.8028 -0.342246 0
M  V30 3416 H 322.672 -2.84676 -2.75274 0
M  V30 3417 H 323.846 -4.58281 -0.481159 0
M  V30 3418 H 322.161 -4.12173 -0.591813 0
M  V30 3419 H 324.758 -4.1489 -3.37299 0
M  V30 3420 H 325.101 -2.43639 -3.37558 0
M  V30 3421 H 325.634 -3.43705 -2.0028 0
M  V30 3422 H 322.373 -6.38741 -1.47274 0
M  V30 3423 H 321.893 -5.30458 -2.79955 0
M  V30 3424 H 323.572 -5.88744 -2.68308 0
M  V30 3425 N 323.704 0.605807 -1.45491 0
M  V30 3426 C 324.652 1.73754 -1.54636 0
M  V30 3427 C 325.646 1.64207 -0.416219 0
M  V30 3428 O 326.852 1.69979 -0.592199 0
M  V30 3429 H 323.227 0.574073 -0.485741 0
M  V30 3430 H 325.198 1.63169 -2.49837 0
M  V30 3431 C 323.947 3.12135 -1.53189 0
M  V30 3432 H 323.27 3.20141 -2.39478 0
M  V30 3433 H 324.71 3.91147 -1.63645 0
M  V30 3434 C 323.169 3.35921 -0.256616 0
M  V30 3435 O 323.699 3.96194 0.662798 0
M  V30 3436 N 321.905 2.90204 -0.151751 0
M  V30 3437 H 321.452 2.41336 -0.90081 0
M  V30 3438 H 321.41 3.06492 0.700699 0
M  V30 3439 N 325.182 1.32811 0.848464 0
M  V30 3440 C 326.13 1.22231 1.97895 0
M  V30 3441 C 327.124 0.125749 1.68933 0
M  V30 3442 O 328.33 0.289083 1.77663 0
M  V30 3443 H 324.705 0.379058 0.649476 0
M  V30 3444 H 326.676 2.17828 2.03945 0
M  V30 3445 C 325.425 0.968572 3.33937 0
M  V30 3446 H 324.748 1.80458 3.56756 0
M  V30 3447 H 326.188 0.934808 4.13567 0
M  V30 3448 C 324.647 -0.328628 3.35293 0
M  V30 3449 O 325.177 -1.33848 3.78745 0
M  V30 3450 N 323.383 -0.352788 2.88451 0
M  V30 3451 H 322.93 0.469541 2.53285 0
M  V30 3452 H 322.888 -1.22057 2.89741 0
M  V30 3453 N 326.66 -1.06551 1.16123 0
M  V30 3454 C 327.909 -1.78687 0.935622 0
M  V30 3455 C 328.222 -1.88056 -0.538001 0
M  V30 3456 O 329.428 -2.56794 -0.88143 0
M  V30 3457 C 327.884 -3.21143 1.62466 0
M  V30 3458 C 327.492 -3.19949 3.13587 0
M  V30 3459 C 329.236 -3.9783 1.48092 0
M  V30 3460 C 327.143 -4.57108 3.75241 0
M  V30 3461 H 326.073 -0.669712 0.346412 0
M  V30 3462 H 328.724 -1.19534 1.39226 0
M  V30 3463 H 327.106 -3.80539 1.09572 0
M  V30 3464 H 328.28 -2.70151 3.73303 0
M  V30 3465 H 326.595 -2.5676 3.27816 0
M  V30 3466 H 329.192 -4.99217 1.91538 0
M  V30 3467 H 329.535 -4.14078 0.429507 0
M  V30 3468 H 330.068 -3.4495 1.98127 0
M  V30 3469 H 326.807 -4.46065 4.80319 0
M  V30 3470 H 326.327 -5.07111 3.20309 0
M  V30 3471 H 328.006 -5.26069 3.76644 0
M  V30 3472 N 328.138 -0.959301 -1.25041 0
M  V30 3473 C 329.386 -0.615393 -1.92503 0
M  V30 3474 C 329.707 0.850969 -1.75452 0
M  V30 3475 O 328.977 1.60658 -1.12098 0
M  V30 3476 H 327.557 -0.224613 -0.712431 0
M  V30 3477 H 330.219 -1.21855 -1.5211 0
M  V30 3478 H 329.315 -0.848738 -3.00338 0
M  V30 3479 N 329.616 1.39756 -0.72842 0
M  V30 3480 C 330.546 2.33289 -0.0991354 0
M  V30 3481 C 331.527 1.53568 0.731489 0
M  V30 3482 O 332.712 1.81987 0.677807 0
M  V30 3483 C 329.842 3.3763 0.813834 0
M  V30 3484 C 328.796 4.2791 0.0878663 0
M  V30 3485 C 328.122 5.22894 1.11741 0
M  V30 3486 C 329.422 5.11314 -1.06563 0
M  V30 3487 H 331.116 2.86163 -0.880408 0
M  V30 3488 H 328.662 1.37591 -0.424819 0
M  V30 3489 H 330.615 4.0201 1.26355 0
M  V30 3490 H 329.339 2.83181 1.62715 0
M  V30 3491 H 327.998 3.65 -0.342159 0
M  V30 3492 H 327.646 4.64744 1.92412 0
M  V30 3493 H 327.346 5.84143 0.636477 0
M  V30 3494 H 328.87 5.90151 1.56697 0
M  V30 3495 H 330.284 5.69076 -0.694671 0
M  V30 3496 H 328.681 5.81671 -1.47577 0
M  V30 3497 H 329.751 4.46534 -1.89038 0
M  V30 3498 N 331.094 0.475555 1.50254 0
M  V30 3499 C 332.024 -0.30611 2.31485 0
M  V30 3500 C 333.005 -0.986228 1.38591 0
M  V30 3501 O 334.19 -0.982541 1.67511 0
M  V30 3502 C 331.32 -1.38588 3.1845 0
M  V30 3503 C 330.274 -0.827115 4.19932 0
M  V30 3504 C 329.6 -2.00551 4.95665 0
M  V30 3505 C 330.9 0.16463 5.2204 0
M  V30 3506 H 332.594 0.371866 2.97082 0
M  V30 3507 H 330.14 0.180282 1.42867 0
M  V30 3508 H 332.093 -1.94023 3.74076 0
M  V30 3509 H 330.817 -2.09269 2.50747 0
M  V30 3510 H 329.476 -0.294702 3.65414 0
M  V30 3511 H 329.124 -2.6994 4.2443 0
M  V30 3512 H 328.824 -1.63784 5.64313 0
M  V30 3513 H 330.348 -2.56468 5.54127 0
M  V30 3514 H 331.762 -0.300699 5.72511 0
M  V30 3515 H 330.159 0.446813 5.98434 0
M  V30 3516 H 331.229 1.08905 4.72512 0
M  V30 3517 N 332.573 -1.56217 0.208337 0
M  V30 3518 C 333.85 -1.89739 -0.475234 0
M  V30 3519 C 334.23 -1.1238 -1.78701 0
M  V30 3520 O 333.578 -0.228979 -2.2735 0
M  V30 3521 C 333.788 -3.42289 -0.681101 0
M  V30 3522 C 335.136 -4.12789 -0.994507 0
M  V30 3523 O 336.16 -3.47814 -0.768357 0
M  V30 3524 O 335.019 -5.27649 -1.42299 0
M  V30 3525 H 332.113 -0.788478 -0.249461 0
M  V30 3526 H 334.659 -1.67855 0.249538 0
M  V30 3527 H 333.431 -3.90534 0.244722 0
M  V30 3528 H 333.054 -3.69909 -1.45785 0
M  V30 3529 N 334.051 0.0651679 -1.57465 0
M  V30 3530 C 334.999 1.09542 -2.05191 0
M  V30 3531 C 335.993 1.39675 -0.958509 0
M  V30 3532 O 337.199 1.39003 -1.14359 0
M  V30 3533 H 333.574 0.370623 -0.654326 0
M  V30 3534 H 335.545 0.666802 -2.90854 0
M  V30 3535 C 334.294 2.39881 -2.51699 0
M  V30 3536 H 333.617 2.17547 -3.3543 0
M  V30 3537 H 335.057 3.104 -2.88839 0
M  V30 3538 C 333.516 3.0631 -1.40271 0
M  V30 3539 O 334.046 3.94664 -0.748523 0
M  V30 3540 N 332.252 2.67041 -1.14618 0
M  V30 3541 H 331.799 1.95281 -1.67997 0
M  V30 3542 H 331.757 3.1181 -0.402688 0
M  V30 3543 N 335.529 1.53961 0.336706 0
M  V30 3544 C 336.459 1.85417 1.41925 0
M  V30 3545 C 337.44 0.709856 1.5458 0
M  V30 3546 O 338.625 0.962396 1.68676 0
M  V30 3547 C 335.755 2.06985 2.78881 0
M  V30 3548 C 334.709 3.22813 2.81026 0
M  V30 3549 C 334.035 3.29727 4.20932 0
M  V30 3550 C 335.335 4.60767 2.45949 0
M  V30 3551 H 337.029 2.76079 1.15848 0
M  V30 3552 H 334.575 1.32839 0.555859 0
M  V30 3553 H 336.528 2.27575 3.54665 0
M  V30 3554 H 335.252 1.13061 3.06406 0
M  V30 3555 H 333.911 3.0209 2.07695 0
M  V30 3556 H 333.559 2.33385 4.45579 0
M  V30 3557 H 333.259 4.07566 4.23277 0
M  V30 3558 H 334.783 3.52536 4.98549 0
M  V30 3559 H 336.197 4.81325 3.11446 0
M  V30 3560 H 334.594 5.4106 2.59566 0
M  V30 3561 H 335.664 4.6391 1.41122 0
M  V30 3562 N 337.007 -0.598083 1.45811 0
M  V30 3563 C 337.937 -1.71873 1.58057 0
M  V30 3564 C 338.918 -1.64533 0.431615 0
M  V30 3565 O 340.103 -1.82787 0.65595 0
M  V30 3566 C 337.233 -3.10495 1.55597 0
M  V30 3567 C 336.187 -3.32654 2.69305 0
M  V30 3568 C 335.513 -4.71646 2.51902 0
M  V30 3569 C 336.813 -3.21981 4.11248 0
M  V30 3570 H 338.507 -1.61881 2.51863 0
M  V30 3571 H 336.053 -0.777372 1.21214 0
M  V30 3572 H 338.006 -3.88699 1.6276 0
M  V30 3573 H 336.73 -3.2135 0.583255 0
M  V30 3574 H 335.389 -2.56843 2.61586 0
M  V30 3575 H 335.037 -4.79246 1.52748 0
M  V30 3576 H 334.737 -4.87426 3.2816 0
M  V30 3577 H 336.261 -5.52038 2.60933 0
M  V30 3578 H 337.675 -3.90049 4.20161 0
M  V30 3579 H 336.072 -3.49289 4.87972 0
M  V30 3580 H 337.142 -2.1928 4.32486 0
M  V30 3581 N 338.485 -1.33259 -0.841409 0
M  V30 3582 C 339.732 -1.24572 -1.5965 0
M  V30 3583 C 340.06 0.189137 -1.93578 0
M  V30 3584 O 339.315 1.14566 -1.5866 0
M  V30 3585 C 339.614 -2.06381 -2.9179 0
M  V30 3586 C 339.28 -3.556 -2.77235 0
M  V30 3587 C 337.942 -3.96282 -2.72973 0
M  V30 3588 C 340.294 -4.50433 -2.62221 0
M  V30 3589 C 337.622 -5.30017 -2.51592 0
M  V30 3590 C 339.974 -5.84327 -2.42374 0
M  V30 3591 C 338.638 -6.24194 -2.36512 0
M  V30 3592 H 337.908 -0.455842 -0.5842 0
M  V30 3593 H 340.555 -1.6482 -0.975016 0
M  V30 3594 H 338.86 -1.58903 -3.5813 0
M  V30 3595 H 340.557 -1.97019 -3.49263 0
M  V30 3596 H 337.147 -3.23298 -2.81384 0
M  V30 3597 H 341.331 -4.19914 -2.64549 0
M  V30 3598 H 336.587 -5.59947 -2.45499 0
M  V30 3599 H 340.761 -6.57414 -2.29739 0
M  V30 3600 H 338.388 -7.27759 -2.19706 0
M  V30 3601 N 339.963 1.05934 -1.16686 0
M  V30 3602 C 341.211 1.78447 -0.948744 0
M  V30 3603 C 341.532 1.87813 0.524523 0
M  V30 3604 O 340.802 1.38945 1.38098 0
M  V30 3605 H 339.382 0.660971 -0.348033 0
M  V30 3606 H 342.044 1.27947 -1.47022 0
M  V30 3607 H 341.14 2.80394 -1.37061 0
M  V30 3608 N 341.441 0.965919 1.2453 0
M  V30 3609 C 342.666 0.643971 1.97149 0
M  V30 3610 C 343.091 -0.779487 1.71189 0
M  V30 3611 O 342.449 -1.5288 0.974553 0
M  V30 3612 C 342.497 0.922557 3.48599 0
M  V30 3613 O 341.601 0.00707672 4.12399 0
M  V30 3614 H 340.942 0.243647 0.617683 0
M  V30 3615 H 343.472 1.29558 1.58353 0
M  V30 3616 H 343.482 0.853373 3.98976 0
M  V30 3617 H 342.157 1.95996 3.66822 0
M  V30 3618 H 340.734 0.12943 3.72675 0
M  V30 3619 N 342.919 -1.39368 0.735821 0
M  V30 3620 C 344.168 -1.99733 0.281004 0
M  V30 3621 C 344.481 -1.59055 -1.13846 0
M  V30 3622 O 345.687 -2.12262 -1.69284 0
M  V30 3623 C 344.143 -3.57057 0.451462 0
M  V30 3624 C 343.751 -4.06697 1.87886 0
M  V30 3625 C 345.495 -4.2446 0.0584616 0
M  V30 3626 C 343.402 -5.56598 1.99883 0
M  V30 3627 H 342.332 -0.747163 0.101311 0
M  V30 3628 H 344.983 -1.59357 0.909819 0
M  V30 3629 H 343.365 -3.95234 -0.246263 0
M  V30 3630 H 344.539 -3.79853 2.60861 0
M  V30 3631 H 342.854 -3.5196 2.22515 0
M  V30 3632 H 345.451 -5.34549 0.127099 0
M  V30 3633 H 345.794 -4.04444 -0.986433 0
M  V30 3634 H 346.327 -3.9146 0.707374 0
M  V30 3635 H 343.066 -5.81494 3.02564 0
M  V30 3636 H 342.586 -5.85242 1.31346 0
M  V30 3637 H 344.265 -6.22022 1.78039 0
M  V30 3638 N 344.397 -0.483516 -1.5 0
M  V30 3639 C 345.646 0.0689102 -2.01582 0
M  V30 3640 C 345.959 1.39655 -1.36952 0
M  V30 3641 O 347.165 2.03465 -1.79762 0
M  V30 3642 C 345.621 0.173302 -3.59483 0
M  V30 3643 C 345.229 -1.14665 -4.33077 0
M  V30 3644 C 346.973 0.677024 -4.19066 0
M  V30 3645 C 344.88 -1.00537 -5.82792 0
M  V30 3646 H 343.81 0.0295277 -0.753422 0
M  V30 3647 H 346.461 -0.620295 -1.72698 0
M  V30 3648 H 344.843 0.926569 -3.85007 0
M  V30 3649 H 346.017 -1.91184 -4.19268 0
M  V30 3650 H 344.332 -1.58244 -3.85159 0
M  V30 3651 H 346.929 0.799952 -5.28682 0
M  V30 3652 H 347.272 1.67151 -3.81269 0
M  V30 3653 H 347.805 -0.0192083 -3.97795 0
M  V30 3654 H 344.544 -1.9736 -6.25083 0
M  V30 3655 H 344.064 -0.280776 -5.99142 0
M  V30 3656 H 345.743 -0.677 -6.43448 0
M  V30 3657 N 345.875 1.56104 -0.216619 0
M  V30 3658 C 347.1 2.0301 0.424462 0
M  V30 3659 C 347.525 1.0955 1.52907 0
M  V30 3660 O 346.883 0.0827914 1.81111 0
M  V30 3661 C 346.931 3.4819 0.937883 0
M  V30 3662 O 346.035 3.57865 2.04955 0
M  V30 3663 H 345.376 0.656925 0.0966755 0
M  V30 3664 H 347.906 2.01859 -0.33381 0
M  V30 3665 H 347.916 3.88413 1.24897 0
M  V30 3666 H 346.591 4.15699 0.129387 0
M  V30 3667 H 345.168 3.29527 1.74546 0
M  V30 3668 N 347.353 -0.0568162 1.57498 0
M  V30 3669 C 348.316 -1.05038 2.03715 0
M  V30 3670 C 349.316 -1.30709 0.936577 0
M  V30 3671 O 350.506 -1.26178 1.20103 0
M  V30 3672 C 347.638 -2.39034 2.43055 0
M  V30 3673 H 348.831 -0.651715 2.92733 0
M  V30 3674 H 346.384 -0.302947 1.53336 0
M  V30 3675 H 347.119 -2.83703 1.57108 0
M  V30 3676 H 346.904 -2.21739 3.2338 0
M  V30 3677 H 348.394 -3.10421 2.79336 0
M  V30 3678 N 348.832 -1.54138 -0.328536 0
M  V30 3679 C 350.078 -1.7236 -1.06865 0
M  V30 3680 C 350.411 -0.493231 -1.87832 0
M  V30 3681 O 349.686 0.5098 -1.877 0
M  V30 3682 C 349.969 -2.99621 -1.99747 0
M  V30 3683 C 349.822 -4.32899 -1.22143 0
M  V30 3684 C 351.141 -3.22615 -2.99345 0
M  V30 3685 H 348.26 -0.627151 -0.387105 0
M  V30 3686 H 350.902 -1.86827 -0.345767 0
M  V30 3687 H 349.052 -2.87418 -2.61387 0
M  V30 3688 H 350.724 -4.56978 -0.630017 0
M  V30 3689 H 348.967 -4.30628 -0.523628 0
M  V30 3690 H 349.638 -5.18154 -1.90318 0
M  V30 3691 H 352.114 -3.34248 -2.47826 0
M  V30 3692 H 350.99 -4.13027 -3.61524 0
M  V30 3693 H 351.251 -2.3961 -3.71536 0
M  V30 3694 N 350.31 0.590341 -1.46126 0
M  V30 3695 C 351.587 1.35029 -1.41515 0
M  V30 3696 C 351.967 2.10888 -0.0946472 0
M  V30 3697 O 351.315 2.08998 0.923693 0
M  V30 3698 C 351.525 2.28269 -2.63997 0
M  V30 3699 C 352.873 2.90338 -3.09821 0
M  V30 3700 O 353.897 2.38585 -2.64492 0
M  V30 3701 O 352.756 3.84321 -3.88535 0
M  V30 3702 H 349.85 0.606317 -0.562413 0
M  V30 3703 H 352.396 0.611994 -1.58281 0
M  V30 3704 H 351.168 1.71591 -3.51671 0
M  V30 3705 H 350.791 3.0945 -2.49652 0
M  V30 3706 N 351.788 1.33704 0.83433 0
M  V30 3707 C 353.199 1.22813 1.4062 0
M  V30 3708 C 353.55 -0.151107 1.95617 0
M  V30 3709 O 352.675 -1.05092 1.89168 0
M  V30 3710 C 353.27 2.22355 2.55624 0
M  V30 3711 C 351.829 2.1529 3.08751 0
M  V30 3712 C 350.976 2.09589 1.8157 0
M  V30 3713 H 353.927 1.45236 0.639702 0
M  V30 3714 H 353.948 1.83391 3.33389 0
M  V30 3715 H 353.46 3.22728 2.15566 0
M  V30 3716 H 351.561 1.18235 3.53343 0
M  V30 3717 H 351.674 3.06038 3.68616 0
M  V30 3718 H 350.038 1.55134 2.02004 0
M  V30 3719 H 350.821 3.11777 1.43701 0
M  V30 3720 N 353.266 -1.05314 1.17247 0
M  V30 3721 C 354.512 -1.78557 0.961513 0
M  V30 3722 C 354.845 -1.87419 -0.508697 0
M  V30 3723 O 354.12 -1.37307 -1.37757 0
M  V30 3724 C 354.403 -3.22514 1.60176 0
M  V30 3725 C 354.256 -3.21673 3.14399 0
M  V30 3726 C 355.575 -4.20318 1.30463 0
M  V30 3727 H 352.694 -0.6482 0.350723 0
M  V30 3728 H 355.336 -1.23102 1.44727 0
M  V30 3729 H 353.486 -3.69867 1.18871 0
M  V30 3730 H 355.158 -2.82405 3.64753 0
M  V30 3731 H 353.401 -2.60048 3.47214 0
M  V30 3732 H 354.072 -4.23271 3.54324 0
M  V30 3733 H 356.548 -3.81454 1.66229 0
M  V30 3734 H 355.424 -5.19289 1.77848 0
M  V30 3735 H 355.685 -4.41526 0.22521 0
M  V30 3736 N 354.744 -0.972509 -1.24016 0
M  V30 3737 C 355.707 -0.511403 -2.23422 0
M  V30 3738 C 356.707 0.394679 -1.55881 0
M  V30 3739 O 357.897 0.189469 -1.73167 0
M  V30 3740 C 355.029 0.258769 -3.39916 0
M  V30 3741 H 356.222 -1.39024 -2.6573 0
M  V30 3742 H 353.775 -0.757585 -1.36713 0
M  V30 3743 H 354.51 1.1545 -3.03054 0
M  V30 3744 H 354.295 -0.391522 -3.9014 0
M  V30 3745 H 355.785 0.570244 -4.13688 0
M  V30 3746 N 356.222 1.38976 -0.743202 0
M  V30 3747 C 357.468 2.0064 -0.295189 0
M  V30 3748 C 357.801 1.5885 1.11716 0
M  V30 3749 O 357.076 0.821181 1.76315 0
M  V30 3750 C 357.359 3.578 -0.406318 0
M  V30 3751 C 357.212 4.09586 -1.85903 0
M  V30 3752 C 358.531 4.39616 0.206439 0
M  V30 3753 H 355.65 0.728935 -0.108733 0
M  V30 3754 H 358.292 1.65067 -0.940897 0
M  V30 3755 H 356.442 3.88235 0.143419 0
M  V30 3756 H 358.114 3.89837 -2.46627 0
M  V30 3757 H 356.357 3.6284 -2.3776 0
M  V30 3758 H 357.028 5.18708 -1.888 0
M  V30 3759 H 359.504 4.15273 -0.262283 0
M  V30 3760 H 358.38 5.48812 0.0983819 0
M  V30 3761 H 358.641 4.22754 1.2935 0
M  V30 3762 N 357.7 0.491464 1.49741 0
M  V30 3763 C 358.63 -0.28154 2.31796 0
M  V30 3764 C 359.611 -0.971473 1.3963 0
M  V30 3765 O 360.796 -0.964719 1.68543 0
M  V30 3766 C 357.926 -1.35203 3.19902 0
M  V30 3767 C 356.88 -0.782529 4.20786 0
M  V30 3768 C 356.206 -1.95283 4.97764 0
M  V30 3769 C 357.506 0.21999 5.21837 0
M  V30 3770 H 359.2 0.403355 2.96671 0
M  V30 3771 H 356.746 0.195425 1.42668 0
M  V30 3772 H 358.699 -1.90045 3.76113 0
M  V30 3773 H 357.423 -2.06598 2.52953 0
M  V30 3774 H 356.082 -0.255928 3.65706 0
M  V30 3775 H 355.73 -2.65423 4.2727 0
M  V30 3776 H 355.43 -1.57789 5.66018 0
M  V30 3777 H 356.954 -2.50577 5.56816 0
M  V30 3778 H 358.368 -0.23996 5.72798 0
M  V30 3779 H 356.765 0.51026 5.97927 0
M  V30 3780 H 357.835 1.13911 4.7133 0
M  V30 3781 N 359.178 -1.55987 0.224894 0
M  V30 3782 C 360.141 -2.19178 -0.670348 0
M  V30 3783 C 361.141 -1.15461 -1.11917 0
M  V30 3784 O 362.331 -1.40675 -1.02743 0
M  V30 3785 C 359.463 -2.81777 -1.9187 0
M  V30 3786 H 360.656 -2.99662 -0.119364 0
M  V30 3787 H 358.209 -1.5628 -0.0247128 0
M  V30 3788 H 358.944 -2.05172 -2.51147 0
M  V30 3789 H 358.729 -3.57732 -1.60531 0
M  V30 3790 H 360.219 -3.30205 -2.55645 0
M  V30 3791 N 360.656 0.0484629 -1.57525 0
M  V30 3792 C 361.902 0.744226 -1.88651 0
M  V30 3793 C 362.235 1.76029 -0.820212 0
M  V30 3794 O 361.51 1.93782 0.166985 0
M  V30 3795 C 361.793 1.43128 -3.30434 0
M  V30 3796 C 361.646 0.43005 -4.47739 0
M  V30 3797 C 362.965 2.37031 -3.70816 0
M  V30 3798 H 360.084 0.269089 -0.68612 0
M  V30 3799 H 362.726 0.00713532 -1.89999 0
M  V30 3800 H 360.876 2.05956 -3.29415 0
M  V30 3801 H 362.548 -0.194816 -4.60888 0
M  V30 3802 H 360.791 -0.252522 -4.33064 0
M  V30 3803 H 361.462 0.948874 -5.43783 0
M  V30 3804 H 363.938 1.84263 -3.73077 0
M  V30 3805 H 362.814 2.82094 -4.70865 0
M  V30 3806 H 363.075 3.22864 -3.02012 0
M  V30 3807 N 362.134 1.5431 0.320358 0
M  V30 3808 C 363.381 1.72668 1.05792 0
M  V30 3809 C 363.709 0.502084 1.87908 0
M  V30 3810 O 362.964 -0.516149 1.88771 0
M  V30 3811 C 363.263 2.95639 2.00828 0
M  V30 3812 C 362.929 4.30265 1.34843 0
M  V30 3813 C 361.591 4.66865 1.16578 0
M  V30 3814 C 363.943 5.13801 0.875095 0
M  V30 3815 C 361.271 5.84597 0.496336 0
M  V30 3816 C 363.623 6.32219 0.219463 0
M  V30 3817 C 362.287 6.67495 0.0246915 0
M  V30 3818 H 361.557 0.631837 0.387121 0
M  V30 3819 H 364.204 1.88552 0.334735 0
M  V30 3820 H 362.509 2.74456 2.79609 0
M  V30 3821 H 364.206 3.07038 2.57932 0
M  V30 3822 H 360.796 4.01472 1.50061 0
M  V30 3823 H 364.98 4.86039 1.00398 0
M  V30 3824 H 360.236 6.10486 0.334264 0
M  V30 3825 H 364.41 6.96227 -0.155291 0
M  V30 3826 H 362.037 7.5858 -0.496065 0
M  V30 3827 N 363.613 -0.582584 1.46437 0
M  V30 3828 C 364.523 -1.71949 1.59595 0
M  V30 3829 C 365.539 -1.67264 0.479443 0
M  V30 3830 O 366.715 -1.87171 0.743579 0
M  V30 3831 C 363.78 -3.08452 1.58298 0
M  V30 3832 C 362.841 -3.244 2.81182 0
M  V30 3833 C 362.074 -4.54391 2.79937 0
M  V30 3834 O 362.297 -5.38287 1.8869 0
M  V30 3835 O 361.231 -4.73588 3.71481 0
M  V30 3836 H 365.057 -1.63795 2.55744 0
M  V30 3837 H 362.642 -0.749643 1.29231 0
M  V30 3838 H 364.524 -3.89732 1.60271 0
M  V30 3839 H 363.199 -3.17043 0.653094 0
M  V30 3840 H 362.106 -2.42613 2.84763 0
M  V30 3841 H 363.439 -3.20699 3.7338 0
M  V30 3842 N 365.091 -1.34144 -0.827227 0
M  V30 3843 C 366.001 -1.27428 -1.96975 0
M  V30 3844 C 367.017 -0.182728 -1.73038 0
M  V30 3845 O 368.193 -0.408426 -1.97215 0
M  V30 3846 C 365.258 -1.02526 -3.31194 0
M  V30 3847 C 364.319 -2.20796 -3.68168 0
M  V30 3848 C 363.552 -1.97073 -4.95982 0
M  V30 3849 O 363.775 -0.926822 -5.6282 0
M  V30 3850 O 362.709 -2.83912 -5.30733 0
M  V30 3851 H 366.535 -2.23537 -2.05584 0
M  V30 3852 H 364.12 -1.14307 -0.961989 0
M  V30 3853 H 366.002 -0.904026 -4.11589 0
M  V30 3854 H 364.677 -0.0945389 -3.23562 0
M  V30 3855 H 363.584 -2.38477 -2.88235 0
M  V30 3856 H 364.917 -3.12243 -3.8048 0
M  V30 3857 N 366.569 1.04691 -1.17803 0
M  V30 3858 C 367.818 1.77176 -0.963931 0
M  V30 3859 C 368.131 1.88888 0.508015 0
M  V30 3860 O 369.337 2.58164 0.840465 0
M  V30 3861 C 367.793 3.18518 -1.67555 0
M  V30 3862 C 367.401 3.14919 -3.18637 0
M  V30 3863 C 369.145 3.95424 -1.54402 0
M  V30 3864 C 367.052 4.51081 -3.82466 0
M  V30 3865 H 365.982 0.664116 -0.357023 0
M  V30 3866 H 368.633 1.17303 -1.4111 0
M  V30 3867 H 367.015 3.78748 -1.15613 0
M  V30 3868 H 368.189 2.64178 -3.77554 0
M  V30 3869 H 366.504 2.51512 -3.31859 0
M  V30 3870 H 369.101 4.96106 -1.99456 0
M  V30 3871 H 369.444 4.13343 -0.495329 0
M  V30 3872 H 369.977 3.41754 -2.0359 0
M  V30 3873 H 366.716 4.38368 -4.87354 0
M  V30 3874 H 366.236 5.01951 -3.28337 0
M  V30 3875 H 367.915 5.2001 -3.84965 0
M  V30 3876 N 368.047 0.979072 1.23499 0
M  V30 3877 C 368.997 0.489378 2.22686 0
M  V30 3878 C 369.981 -0.434871 1.54912 0
M  V30 3879 O 371.173 -0.263941 1.75021 0
M  V30 3880 C 368.302 -0.208178 3.42668 0
M  V30 3881 C 367.388 0.735563 4.17672 0
M  V30 3882 N 367.779 1.87763 4.69658 0
M  V30 3883 C 366.077 0.548625 4.42613 0
M  V30 3884 C 366.778 2.46886 5.26709 0
M  V30 3885 N 365.754 1.75287 5.14563 0
M  V30 3886 H 369.556 1.36062 2.60508 0
M  V30 3887 H 367.07 0.83958 1.39014 0
M  V30 3888 H 369.067 -0.576295 4.12898 0
M  V30 3889 H 367.727 -1.07572 3.06363 0
M  V30 3890 H 368.738 2.25885 4.66043 0
M  V30 3891 H 365.415 -0.274006 4.166 0
M  V30 3892 H 366.805 3.43326 5.77561 0
M  V30 3893 N 369.525 -1.3858 0.750561 0
M  V30 3894 C 370.774 -1.99424 0.302172 0
M  V30 3895 C 371.087 -1.60254 -1.12152 0
M  V30 3896 O 372.293 -2.14046 -1.67023 0
M  V30 3897 C 370.749 -3.56558 0.489307 0
M  V30 3898 C 370.357 -4.04682 1.92189 0
M  V30 3899 C 372.101 -4.24374 0.103478 0
M  V30 3900 C 370.008 -5.54446 2.05775 0
M  V30 3901 H 368.938 -0.746046 0.10923 0
M  V30 3902 H 371.589 -1.58383 0.92667 0
M  V30 3903 H 369.971 -3.95472 -0.204329 0
M  V30 3904 H 371.145 -3.77065 2.64875 0
M  V30 3905 H 369.46 -3.4958 2.26236 0
M  V30 3906 H 372.057 -5.34384 0.183787 0
M  V30 3907 H 372.4 -4.05468 -0.943481 0
M  V30 3908 H 372.933 -3.90688 0.748854 0
M  V30 3909 H 369.672 -5.78252 3.08714 0
M  V30 3910 H 369.192 -5.83816 1.37546 0
M  V30 3911 H 370.871 -6.20099 1.84626 0
M  V30 3912 N 371.003 -0.499398 -1.49478 0
M  V30 3913 C 371.951 0.293604 -2.3074 0
M  V30 3914 C 372.945 0.96427 -1.39277 0
M  V30 3915 O 374.151 0.892141 -1.56336 0
M  V30 3916 H 370.526 0.113541 -0.743379 0
M  V30 3917 H 372.497 -0.411772 -2.95545 0
M  V30 3918 C 371.246 1.3462 -3.20582 0
M  V30 3919 H 370.569 0.83954 -3.90886 0
M  V30 3920 H 372.009 1.87308 -3.80384 0
M  V30 3921 C 370.468 2.36351 -2.40083 0
M  V30 3922 O 370.998 3.422 -2.10385 0
M  V30 3923 N 369.204 2.0878 -2.02137 0
M  V30 3924 H 368.751 1.22723 -2.26488 0
M  V30 3925 H 368.709 2.77075 -1.48583 0
M  V30 3926 N 372.481 1.55866 -0.233164 0
M  V30 3927 C 373.391 2.24431 0.683217 0
M  V30 3928 C 374.407 1.2558 1.2044 0
M  V30 3929 O 375.583 1.58422 1.24356 0
M  V30 3930 C 372.648 2.91979 1.86947 0
M  V30 3931 C 371.709 4.06204 1.38912 0
M  V30 3932 C 370.942 4.70522 2.51883 0
M  V30 3933 O 371.165 4.33865 3.70293 0
M  V30 3934 O 370.099 5.59296 2.22423 0
M  V30 3935 H 373.925 3.03426 0.129059 0
M  V30 3936 H 371.51 1.494 -0.0022283 0
M  V30 3937 H 373.392 3.34573 2.56201 0
M  V30 3938 H 372.067 2.15935 2.41151 0
M  V30 3939 H 370.974 3.68155 0.664259 0
M  V30 3940 H 372.307 4.84025 0.893328 0
M  V30 3941 N 373.959 -0.0401083 1.57549 0
M  V30 3942 C 374.889 -1.04384 2.08869 0
M  V30 3943 C 375.87 -1.38407 0.988817 0
M  V30 3944 O 377.055 -1.47483 1.26342 0
M  V30 3945 C 374.185 -2.34808 2.55895 0
M  V30 3946 C 373.139 -2.15057 3.70047 0
M  V30 3947 C 372.465 -3.51145 4.03239 0
M  V30 3948 C 373.765 -1.54576 4.98902 0
M  V30 3949 H 375.459 -0.616666 2.92981 0
M  V30 3950 H 373.005 -0.295184 1.40942 0
M  V30 3951 H 374.958 -3.05346 2.90417 0
M  V30 3952 H 373.682 -2.79565 1.68853 0
M  V30 3953 H 372.341 -1.46954 3.35857 0
M  V30 3954 H 371.989 -3.93529 3.13279 0
M  V30 3955 H 371.689 -3.38758 4.80122 0
M  V30 3956 H 373.213 -4.23062 4.40285 0
M  V30 3957 H 374.627 -2.15017 5.31451 0
M  V30 3958 H 373.024 -1.52796 5.80322 0
M  V30 3959 H 374.094 -0.51039 4.82206 0
M  V30 3960 N 375.437 -1.54477 -0.31217 0
M  V30 3961 C 376.367 -1.87652 -1.38957 0
M  V30 3962 C 377.348 -0.734358 -1.53431 0
M  V30 3963 O 378.533 -0.98911 -1.67123 0
M  V30 3964 C 375.663 -2.11396 -2.75552 0
M  V30 3965 C 374.617 -3.27243 -2.75855 0
M  V30 3966 C 373.943 -3.36382 -4.15633 0
M  V30 3967 C 375.243 -4.64622 -2.38587 0
M  V30 3968 H 376.937 -2.77887 -1.11442 0
M  V30 3969 H 374.483 -1.33707 -0.534655 0
M  V30 3970 H 376.436 -2.33189 -3.51 0
M  V30 3971 H 375.16 -1.17921 -3.04569 0
M  V30 3972 H 373.819 -3.05356 -2.02863 0
M  V30 3973 H 373.467 -2.40445 -4.41809 0
M  V30 3974 H 373.167 -4.14249 -4.1674 0
M  V30 3975 H 374.691 -3.60422 -4.92877 0
M  V30 3976 H 376.105 -4.86219 -3.03749 0
M  V30 3977 H 374.502 -5.45121 -2.50925 0
M  V30 3978 H 375.572 -4.66097 -1.33723 0
M  V30 3979 N 376.915 0.57481 -1.46744 0
M  V30 3980 C 377.865 1.67838 -1.54319 0
M  V30 3981 C 378.849 1.55759 -0.40346 0
M  V30 3982 O 380.041 1.6454 -0.652347 0
M  V30 3983 C 377.17 3.06624 -1.5439 0
M  V30 3984 C 376.256 3.23971 -2.73685 0
M  V30 3985 N 376.647 3.11447 -3.9854 0
M  V30 3986 C 374.945 3.5493 -2.70075 0
M  V30 3987 C 375.646 3.31011 -4.78337 0
M  V30 3988 N 374.622 3.56533 -4.10348 0
M  V30 3989 H 378.424 1.56698 -2.48642 0
M  V30 3990 H 375.938 0.779071 -1.42493 0
M  V30 3991 H 377.935 3.85839 -1.57905 0
M  V30 3992 H 376.595 3.1889 -0.611493 0
M  V30 3993 H 377.606 2.89145 -4.29669 0
M  V30 3994 H 374.283 3.73832 -1.85893 0
M  V30 3995 H 375.673 3.26445 -5.87268 0
M  V30 3996 N 378.394 1.34581 0.820102 0
M  V30 3997 C 379.643 1.26437 1.57151 0
M  V30 3998 C 379.956 -0.163111 1.94919 0
M  V30 3999 O 381.162 -0.366722 2.69012 0
M  V30 4000 C 379.618 2.21658 2.83541 0
M  V30 4001 C 379.226 3.69679 2.53065 0
M  V30 4002 C 380.97 2.22428 3.61561 0
M  V30 4003 C 378.877 4.56761 3.75664 0
M  V30 4004 H 377.807 0.469707 0.589823 0
M  V30 4005 H 380.458 1.59763 0.902656 0
M  V30 4006 H 378.84 1.81287 3.52067 0
M  V30 4007 H 380.014 4.18605 1.92631 0
M  V30 4008 H 378.329 3.71384 1.88316 0
M  V30 4009 H 380.926 2.8471 4.52597 0
M  V30 4010 H 381.269 1.22434 3.97889 0
M  V30 4011 H 381.802 2.61259 2.99981 0
M  V30 4012 H 378.541 5.57702 3.44454 0
M  V30 4013 H 378.061 4.12568 4.35371 0
M  V30 4014 H 379.74 4.71509 4.43044 0
M  V30 4015 N 379.872 -1.04064 1.18357 0
M  V30 4016 C 380.802 -2.14001 0.934113 0
M  V30 4017 C 381.783 -1.69616 -0.128186 0
M  V30 4018 O 382.968 -1.94185 0.0244093 0
M  V30 4019 C 380.098 -3.44253 0.459066 0
M  V30 4020 C 379.052 -4.02261 1.46185 0
M  V30 4021 C 378.378 -5.27992 0.844322 0
M  V30 4022 C 379.678 -4.38432 2.83856 0
M  V30 4023 H 381.372 -2.35127 1.85352 0
M  V30 4024 H 378.918 -1.12998 0.892604 0
M  V30 4025 H 380.871 -4.20522 0.271907 0
M  V30 4026 H 379.595 -3.22813 -0.495912 0
M  V30 4027 H 378.254 -3.28074 1.63595 0
M  V30 4028 H 377.902 -5.02862 -0.117845 0
M  V30 4029 H 377.602 -5.67765 1.51384 0
M  V30 4030 H 379.126 -6.06938 0.667693 0
M  V30 4031 H 380.54 -5.05688 2.70098 0
M  V30 4032 H 378.937 -4.89254 3.47491 0
M  V30 4033 H 380.007 -3.4826 3.37406 0
M  V30 4034 N 381.35 -0.985608 -1.22978 0
M  V30 4035 C 382.596 -0.65836 -1.91816 0
M  V30 4036 C 382.929 0.806692 -1.76653 0
M  V30 4037 O 382.204 1.58252 -1.13078 0
M  V30 4038 C 382.487 -1.056 -3.44268 0
M  V30 4039 C 382.34 -2.57906 -3.68516 0
M  V30 4040 C 383.659 -0.603781 -4.35939 0
M  V30 4041 H 380.778 -0.24065 -0.696604 0
M  V30 4042 H 383.42 -1.22783 -1.44998 0
M  V30 4043 H 381.57 -0.571445 -3.84274 0
M  V30 4044 H 383.242 -3.13976 -3.3796 0
M  V30 4045 H 381.485 -3.00305 -3.13048 0
M  V30 4046 H 382.156 -2.80779 -4.75255 0
M  V30 4047 H 384.632 -1.01987 -4.03408 0
M  V30 4048 H 383.508 -0.910383 -5.41298 0
M  V30 4049 H 383.769 0.495761 -4.39312 0
M  V30 4050 N 382.828 1.3818 -0.7579 0
M  V30 4051 C 384.075 2.00019 -0.315985 0
M  V30 4052 C 384.403 1.60163 1.10355 0
M  V30 4053 O 383.658 0.83264 1.77103 0
M  V30 4054 C 383.957 3.55252 -0.391218 0
M  V30 4055 C 383.623 4.14834 -1.76702 0
M  V30 4056 C 382.285 4.30821 -2.14353 0
M  V30 4057 C 384.637 4.47658 -2.66931 0
M  V30 4058 C 381.965 4.76928 -3.41696 0
M  V30 4059 C 384.317 4.95184 -3.93669 0
M  V30 4060 C 382.981 5.09377 -4.31383 0
M  V30 4061 H 382.251 0.731923 -0.115627 0
M  V30 4062 H 384.898 1.65161 -0.969223 0
M  V30 4063 H 383.203 3.90273 0.34558 0
M  V30 4064 H 384.9 4.00988 -0.030805 0
M  V30 4065 H 381.49 4.02808 -1.46435 0
M  V30 4066 H 385.674 4.34904 -2.39106 0
M  V30 4067 H 380.93 4.86103 -3.70829 0
M  V30 4068 H 385.104 5.19551 -4.63724 0
M  V30 4069 H 382.731 5.44865 -5.30119 0
M  V30 4070 N 384.306 0.507319 1.49211 0
M  V30 4071 C 385.554 -0.0348839 2.0207 0
M  V30 4072 C 385.875 -1.36898 1.38866 0
M  V30 4073 O 385.145 -1.88133 0.546151 0
M  V30 4074 H 383.725 -0.0158812 0.746831 0
M  V30 4075 H 386.387 0.665998 1.83168 0
M  V30 4076 H 385.483 -0.159917 3.1169 0
M  V30 4077 N 385.784 -1.5574 0.241426 0
M  V30 4078 C 386.694 -2.2479 -0.671305 0
M  V30 4079 C 387.71 -1.26217 -1.19772 0
M  V30 4080 O 388.886 -1.59079 -1.23514 0
M  V30 4081 C 385.951 -2.92966 -1.85396 0
M  V30 4082 C 385.012 -4.06935 -1.36756 0
M  V30 4083 C 384.245 -4.71851 -2.49384 0
M  V30 4084 O 384.468 -4.35823 -3.67987 0
M  V30 4085 O 383.402 -5.60467 -2.19454 0
M  V30 4086 H 387.228 -3.0349 -0.112966 0
M  V30 4087 H 384.813 -1.49397 0.0101513 0
M  V30 4088 H 386.695 -3.35927 -2.54423 0
M  V30 4089 H 385.37 -2.17211 -2.40002 0
M  V30 4090 H 384.277 -3.68503 -0.644726 0
M  V30 4091 H 385.61 -4.84492 -0.867647 0
M  V30 4092 N 387.262 0.0317525 -1.57568 0
M  V30 4093 C 388.487 0.738664 -1.938 0
M  V30 4094 C 388.912 1.68242 -0.841208 0
M  V30 4095 O 388.27 1.80157 0.203267 0
M  V30 4096 C 388.318 1.47417 -3.29091 0
M  V30 4097 O 387.422 2.5872 -3.2115 0
M  V30 4098 H 386.763 0.198856 -0.633524 0
M  V30 4099 H 389.293 -0.0119713 -2.04596 0
M  V30 4100 H 389.303 1.84468 -3.63917 0
M  V30 4101 H 387.978 0.781988 -4.08482 0
M  V30 4102 H 386.555 2.24231 -2.97951 0
M  V30 4103 N 388.74 1.54641 0.303973 0
M  V30 4104 C 389.67 1.88386 1.3796 0
M  V30 4105 C 390.651 0.742485 1.5304 0
M  V30 4106 O 391.836 0.997959 1.66597 0
M  V30 4107 C 388.966 2.12854 2.74427 0
M  V30 4108 C 387.92 3.28702 2.74115 0
M  V30 4109 C 387.246 3.38582 4.13844 0
M  V30 4110 C 388.546 4.65881 2.3612 0
M  V30 4111 H 390.24 2.78474 1.09966 0
M  V30 4112 H 387.786 1.33988 0.527556 0
M  V30 4113 H 389.739 2.35047 3.49758 0
M  V30 4114 H 388.463 1.19535 3.03939 0
M  V30 4115 H 387.122 3.06428 2.0124 0
M  V30 4116 H 386.77 2.42784 4.40528 0
M  V30 4117 H 386.47 4.16453 4.14537 0
M  V30 4118 H 387.994 3.63031 4.90959 0
M  V30 4119 H 389.408 4.87823 3.01167 0
M  V30 4120 H 387.805 5.46444 2.48031 0
M  V30 4121 H 388.875 4.66799 1.3125 0
M  V30 4122 N 390.218 -0.567019 1.47046 0
M  V30 4123 C 391.148 -1.68482 1.61667 0
M  V30 4124 C 392.129 -1.6358 0.466418 0
M  V30 4125 O 393.314 -1.81354 0.694574 0
M  V30 4126 C 390.444 -3.07124 1.62148 0
M  V30 4127 C 389.398 -3.26867 2.76301 0
M  V30 4128 C 388.724 -4.66196 2.61849 0
M  V30 4129 C 390.024 -3.13186 4.17986 0
M  V30 4130 H 391.718 -1.56502 2.5524 0
M  V30 4131 H 389.264 -0.751486 1.22836 0
M  V30 4132 H 391.217 -3.8516 1.70968 0
M  V30 4133 H 389.941 -3.2004 0.651287 0
M  V30 4134 H 388.6 -2.51237 2.66975 0
M  V30 4135 H 388.248 -4.75898 1.62879 0
M  V30 4136 H 387.948 -4.80356 3.38425 0
M  V30 4137 H 389.472 -5.46379 2.72584 0
M  V30 4138 H 390.886 -3.81049 4.2834 0
M  V30 4139 H 389.283 -3.3886 4.95272 0
M  V30 4140 H 390.353 -2.10057 4.3704 0
M  V30 4141 N 391.696 -1.35014 -0.812953 0
M  V30 4142 C 392.644 -1.27435 -1.94585 0
M  V30 4143 C 393.638 -0.170494 -1.6854 0
M  V30 4144 O 394.844 -0.336085 -1.76835 0
M  V30 4145 H 391.219 -0.396144 -0.639198 0
M  V30 4146 H 393.19 -2.23158 -1.98098 0
M  V30 4147 C 391.939 -1.05677 -3.31252 0
M  V30 4148 H 391.262 -1.89853 -3.51846 0
M  V30 4149 H 392.702 -1.04413 -4.10943 0
M  V30 4150 C 391.161 0.239615 -3.36047 0
M  V30 4151 O 391.691 1.23759 -3.8216 0
M  V30 4152 N 389.897 0.276186 -2.89285 0
M  V30 4153 H 389.444 -0.53653 -2.51951 0
M  V30 4154 H 389.402 1.14332 -2.92875 0
M  V30 4155 N 393.175 1.03435 -1.18907 0
M  V30 4156 C 394.452 1.73778 -0.89781 0
M  V30 4157 C 394.832 2.02458 0.597832 0
M  V30 4158 O 394.18 1.67482 1.55441 0
M  V30 4159 C 394.39 3.01845 -1.75187 0
M  V30 4160 C 395.738 3.7546 -1.9828 0
M  V30 4161 O 396.762 3.11759 -1.72293 0
M  V30 4162 O 395.621 4.89966 -2.42065 0
M  V30 4163 H 392.715 0.75651 -0.334098 0
M  V30 4164 H 395.261 1.09444 -1.29693 0
M  V30 4165 H 394.033 2.76836 -2.76545 0
M  V30 4166 H 393.656 3.73919 -1.35167 0
M  V30 4167 N 394.653 0.992116 1.22453 0
M  V30 4168 C 395.616 0.546883 2.2258 0
M  V30 4169 C 396.616 -0.369829 1.56489 0
M  V30 4170 O 397.806 -0.161896 1.73446 0
M  V30 4171 C 394.938 -0.204659 3.40285 0
M  V30 4172 H 396.131 1.43234 2.63484 0
M  V30 4173 H 393.684 0.779239 1.3549 0
M  V30 4174 H 394.419 -1.10614 3.04853 0
M  V30 4175 H 394.204 0.45354 3.89468 0
M  V30 4176 H 395.694 -0.504358 4.14543 0
M  V30 4177 N 396.131 -1.37776 0.765217 0
M  V30 4178 C 397.377 -2.00145 0.327072 0
M  V30 4179 C 397.71 -1.60607 -1.09175 0
M  V30 4180 O 396.985 -0.849127 -1.74986 0
M  V30 4181 C 397.268 -3.57109 0.46319 0
M  V30 4182 C 397.121 -4.06576 1.92395 0
M  V30 4183 C 398.44 -4.39888 -0.136473 0
M  V30 4184 H 395.559 -0.727113 0.120316 0
M  V30 4185 H 398.201 -1.63549 0.967039 0
M  V30 4186 H 396.351 -3.88414 -0.0816358 0
M  V30 4187 H 398.023 -3.85864 2.52798 0
M  V30 4188 H 396.266 -3.59011 2.43503 0
M  V30 4189 H 396.937 -5.15639 1.97028 0
M  V30 4190 H 399.413 -4.14803 0.328317 0
M  V30 4191 H 398.289 -5.48899 -0.0110582 0
M  V30 4192 H 398.55 -4.24758 -1.22608 0
M  V30 4193 N 397.609 -0.515225 -1.4894 0
M  V30 4194 C 398.837 0.0206034 -2.0689 0
M  V30 4195 C 399.252 1.29514 -1.37374 0
M  V30 4196 O 398.609 1.76698 -0.456529 0
M  V30 4197 C 398.66 0.26351 -3.60538 0
M  V30 4198 O 398.381 -0.960517 -4.27441 0
M  V30 4199 C 399.882 0.841383 -4.35242 0
M  V30 4200 H 397.102 -0.0268608 -0.670462 0
M  V30 4201 H 399.646 -0.716651 -1.91532 0
M  V30 4202 H 397.801 0.950777 -3.75552 0
M  V30 4203 H 398.215 -0.73212 -5.19365 0
M  V30 4204 H 399.689 0.96085 -5.43573 0
M  V30 4205 H 400.166 1.8427 -3.98674 0
M  V30 4206 H 400.772 0.191143 -4.2487 0
M  V30 4207 N 399.087 1.5561 -0.249682 0
M  V30 4208 C 400.333 1.99306 0.374841 0
M  V30 4209 C 400.666 1.13767 1.57387 0
M  V30 4210 O 399.941 0.201711 1.93451 0
M  V30 4211 C 400.224 3.51507 0.781986 0
M  V30 4212 C 400.077 4.4781 -0.422629 0
M  V30 4213 C 401.396 4.08884 1.62793 0
M  V30 4214 H 398.515 0.724572 0.134773 0
M  V30 4215 H 401.157 1.86719 -0.351549 0
M  V30 4216 H 399.307 3.62363 1.4009 0
M  V30 4217 H 400.979 4.48931 -1.06108 0
M  V30 4218 H 399.222 4.20518 -1.06524 0
M  V30 4219 H 399.893 5.51919 -0.0943766 0
M  V30 4220 H 402.369 4.01147 1.10547 0
M  V30 4221 H 401.245 5.1564 1.88166 0
M  V30 4222 H 401.506 3.57515 2.60068 0
M  V30 4223 N 400.565 -0.0233959 1.57583 0
M  V30 4224 C 401.811 -0.714119 1.89811 0
M  V30 4225 C 402.144 -1.74702 0.848113 0
M  V30 4226 O 401.419 -1.94023 -0.136135 0
M  V30 4227 C 401.702 -1.37853 3.32669 0
M  V30 4228 C 401.555 -0.358764 4.48367 0
M  V30 4229 C 402.874 -2.31101 3.7454 0
M  V30 4230 H 399.993 -0.25814 0.690314 0
M  V30 4231 H 402.635 0.0230927 1.89986 0
M  V30 4232 H 400.785 -2.00689 3.3265 0
M  V30 4233 H 402.457 0.268115 4.6052 0
M  V30 4234 H 400.7 0.321387 4.32608 0
M  V30 4235 H 401.371 -0.862242 5.45224 0
M  V30 4236 H 403.847 -1.78304 3.75961 0
M  V30 4237 H 402.723 -2.74567 4.75294 0
M  V30 4238 H 402.984 -3.18018 3.0711 0
M  V30 4239 N 402.043 -1.548 -0.295768 0
M  V30 4240 C 402.973 -1.89115 -1.36959 0
M  V30 4241 C 403.954 -0.75059 -1.52644 0
M  V30 4242 O 405.139 -1.00678 -1.66065 0
M  V30 4243 C 402.269 -2.14307 -2.73295 0
M  V30 4244 C 401.223 -3.30151 -2.72368 0
M  V30 4245 C 400.549 -3.40772 -4.12042 0
M  V30 4246 C 401.849 -4.67126 -2.33646 0
M  V30 4247 H 403.543 -2.79053 -1.08488 0
M  V30 4248 H 401.089 -1.34266 -0.520443 0
M  V30 4249 H 403.042 -2.36898 -3.48507 0
M  V30 4250 H 401.766 -1.21145 -3.03301 0
M  V30 4251 H 400.425 -3.0749 -1.99613 0
M  V30 4252 H 400.073 -2.45117 -4.39234 0
M  V30 4253 H 399.773 -4.18645 -4.12322 0
M  V30 4254 H 401.297 -3.6563 -4.89027 0
M  V30 4255 H 402.711 -4.89414 -2.98575 0
M  V30 4256 H 401.108 -5.47751 -2.45129 0
M  V30 4257 H 402.178 -4.67489 -1.28772 0
M  V30 4258 N 403.521 0.559213 -1.47345 0
M  V30 4259 C 404.751 1.33999 -1.57251 0
M  V30 4260 C 405.159 1.87905 -0.220978 0
M  V30 4261 O 404.502 1.65577 0.795617 0
M  V30 4262 C 404.564 2.54798 -2.53611 0
M  V30 4263 C 404.228 2.22192 -3.99349 0
M  V30 4264 C 405.225 1.79607 -4.87891 0
M  V30 4265 C 402.91 2.33613 -4.44669 0
M  V30 4266 C 404.904 1.48868 -6.19772 0
M  V30 4267 C 402.591 2.02487 -5.76578 0
M  V30 4268 C 403.589 1.60183 -6.63951 0
M  V30 4269 O 403.277 1.29451 -7.93409 0
M  V30 4270 H 403.009 0.414858 -0.533731 0
M  V30 4271 H 405.563 0.684465 -1.9366 0
M  V30 4272 H 403.793 3.23235 -2.12265 0
M  V30 4273 H 405.482 3.16873 -2.53666 0
M  V30 4274 H 406.248 1.70278 -4.54126 0
M  V30 4275 H 402.127 2.65501 -3.76869 0
M  V30 4276 H 405.671 1.15775 -6.87926 0
M  V30 4277 H 401.568 2.11448 -6.09885 0
M  V30 4278 H 402.336 1.43098 -8.05894 0
M  V30 4279 N 404.999 1.35443 0.805782 0
M  V30 4280 C 405.949 1.24972 1.90699 0
M  V30 4281 C 406.933 0.144806 1.60247 0
M  V30 4282 O 408.125 0.376102 1.72958 0
M  V30 4283 C 405.254 1.02475 3.27649 0
M  V30 4284 C 404.34 2.17361 3.64164 0
M  V30 4285 N 404.731 3.42591 3.72109 0
M  V30 4286 C 403.029 2.08765 3.94123 0
M  V30 4287 C 403.73 4.18144 4.04389 0
M  V30 4288 N 402.706 3.4691 4.18515 0
M  V30 4289 H 406.508 2.19852 1.95044 0
M  V30 4290 H 404.022 1.27928 1.00041 0
M  V30 4291 H 406.019 0.930617 4.06381 0
M  V30 4292 H 404.679 0.0848009 3.24589 0
M  V30 4293 H 405.69 3.76932 3.55166 0
M  V30 4294 H 402.367 1.22629 3.99084 0
M  V30 4295 H 403.757 5.26367 4.17597 0
M  V30 4296 N 406.477 -1.02803 1.19454 0
M  V30 4297 C 407.407 -2.12999 0.956758 0
M  V30 4298 C 408.388 -1.69743 -0.110188 0
M  V30 4299 O 409.573 -1.94148 0.0450038 0
M  V30 4300 C 406.703 -3.43746 0.495553 0
M  V30 4301 C 405.657 -4.00688 1.50443 0
M  V30 4302 C 404.983 -5.27067 0.900275 0
M  V30 4303 C 406.283 -4.35397 2.8849 0
M  V30 4304 H 407.977 -2.33148 1.87836 0
M  V30 4305 H 405.523 -1.12045 0.904539 0
M  V30 4306 H 407.476 -4.2021 0.316493 0
M  V30 4307 H 406.2 -3.23321 -0.461646 0
M  V30 4308 H 404.859 -3.2632 1.67065 0
M  V30 4309 H 404.507 -5.02959 -0.064503 0
M  V30 4310 H 404.207 -5.66127 1.57397 0
M  V30 4311 H 405.731 -6.06196 0.73203 0
M  V30 4312 H 407.145 -5.02795 2.75446 0
M  V30 4313 H 405.542 -4.85541 3.52661 0
M  V30 4314 H 406.612 -3.44662 3.41081 0
M  V30 4315 N 407.956 -0.998596 -1.21925 0
M  V30 4316 C 409.203 -0.677663 -1.90824 0
M  V30 4317 C 409.531 0.790905 -1.77693 0
M  V30 4318 O 408.786 1.58817 -1.14349 0
M  V30 4319 C 409.085 -1.03648 -3.42041 0
M  V30 4320 C 408.751 -2.49825 -3.75364 0
M  V30 4321 C 407.413 -2.8977 -3.8417 0
M  V30 4322 C 409.765 -3.44545 -3.91073 0
M  V30 4323 C 407.093 -4.23412 -4.06127 0
M  V30 4324 C 409.445 -4.77853 -4.14535 0
M  V30 4325 C 408.109 -5.17531 -4.21566 0
M  V30 4326 H 407.379 -0.247975 -0.698276 0
M  V30 4327 H 410.026 -1.25584 -1.44571 0
M  V30 4328 H 408.331 -0.376457 -3.89987 0
M  V30 4329 H 410.028 -0.766113 -3.93614 0
M  V30 4330 H 406.618 -2.17866 -3.69097 0
M  V30 4331 H 410.802 -3.14853 -3.83642 0
M  V30 4332 H 406.058 -4.53734 -4.09799 0
M  V30 4333 H 410.232 -5.51189 -4.25633 0
M  V30 4334 H 407.859 -6.21102 -4.38333 0
M  V30 4335 N 409.434 1.37368 -0.772513 0
M  V30 4336 C 410.344 2.34053 -0.160081 0
M  V30 4337 C 411.36 1.60216 0.678728 0
M  V30 4338 O 412.536 1.92303 0.59847 0
M  V30 4339 C 409.601 3.3939 0.708182 0
M  V30 4340 C 408.662 4.29048 -0.147172 0
M  V30 4341 C 407.895 5.29354 0.679744 0
M  V30 4342 O 408.118 5.3723 1.91678 0
M  V30 4343 O 407.052 6.01835 0.0885444 0
M  V30 4344 H 410.878 2.88159 -0.959053 0
M  V30 4345 H 408.463 1.39543 -0.533685 0
M  V30 4346 H 410.345 4.03839 1.20384 0
M  V30 4347 H 409.02 2.8761 1.48533 0
M  V30 4348 H 407.927 3.67697 -0.689205 0
M  V30 4349 H 409.26 4.84134 -0.887423 0
M  V30 4350 N 410.912 0.523116 1.48665 0
M  V30 4351 C 411.822 -0.247406 2.33292 0
M  V30 4352 C 412.838 -0.945769 1.46052 0
M  V30 4353 O 414.014 -0.922253 1.79043 0
M  V30 4354 C 411.079 -1.28487 3.22012 0
M  V30 4355 C 410.14 -0.597592 4.2512 0
M  V30 4356 C 409.373 -1.58563 5.09601 0
M  V30 4357 O 409.596 -2.81763 4.95949 0
M  V30 4358 O 408.53 -1.12879 5.91221 0
M  V30 4359 H 412.356 0.445869 3.00409 0
M  V30 4360 H 409.941 0.284128 1.46673 0
M  V30 4361 H 411.823 -1.88459 3.7691 0
M  V30 4362 H 410.498 -1.96068 2.57564 0
M  V30 4363 H 409.405 0.0424407 3.74076 0
M  V30 4364 H 410.738 0.0361517 4.92187 0
M  V30 4365 N 412.39 -1.55475 0.257931 0
M  V30 4366 C 413.637 -1.99207 -0.363728 0
M  V30 4367 C 413.965 -1.1462 -1.57139 0
M  V30 4368 O 413.22 -0.199653 -1.94679 0
M  V30 4369 C 413.519 -3.48183 -0.806433 0
M  V30 4370 C 413.185 -4.49936 0.294684 0
M  V30 4371 C 411.847 -4.77481 0.597076 0
M  V30 4372 C 414.199 -5.10769 1.03751 0
M  V30 4373 C 411.527 -5.63132 1.64618 0
M  V30 4374 C 413.879 -5.97558 2.07622 0
M  V30 4375 C 412.543 -6.23432 2.38514 0
M  V30 4376 H 411.813 -0.728949 -0.133097 0
M  V30 4377 H 414.46 -1.8793 0.368059 0
M  V30 4378 H 412.765 -3.56848 -1.61761 0
M  V30 4379 H 414.462 -3.79415 -1.29789 0
M  V30 4380 H 411.052 -4.28572 0.0488649 0
M  V30 4381 H 415.236 -4.89527 0.817149 0
M  V30 4382 H 410.492 -5.8143 1.89074 0
M  V30 4383 H 414.666 -6.43735 2.65666 0
M  V30 4384 H 412.293 -6.89594 3.19943 0
M  V30 4385 N 413.868 0.0150385 -1.57593 0
M  V30 4386 C 414.831 0.995996 -2.06428 0
M  V30 4387 C 415.831 1.2818 -0.970903 0
M  V30 4388 O 417.021 1.22949 -1.23406 0
M  V30 4389 C 414.153 2.32506 -2.49307 0
M  V30 4390 H 415.346 0.573873 -2.94358 0
M  V30 4391 H 412.899 0.262186 -1.54085 0
M  V30 4392 H 413.634 2.79438 -1.64575 0
M  V30 4393 H 413.419 2.13087 -3.29145 0
M  V30 4394 H 414.909 3.02906 -2.87468 0
M  V30 4395 N 415.346 1.54954 0.287554 0
M  V30 4396 C 416.294 1.87606 1.37502 0
M  V30 4397 C 417.288 0.751001 1.51843 0
M  V30 4398 O 418.494 0.935169 1.53801 0
M  V30 4399 H 414.869 0.595231 0.459569 0
M  V30 4400 H 416.84 2.78477 1.07206 0
M  V30 4401 C 415.589 2.15183 2.73115 0
M  V30 4402 H 414.912 3.01234 2.62866 0
M  V30 4403 H 416.352 2.4196 3.48183 0
M  V30 4404 C 414.811 0.954686 3.2309 0
M  V30 4405 O 415.341 0.181949 4.01288 0
M  V30 4406 N 413.547 0.756368 2.80584 0
M  V30 4407 H 413.094 1.38643 2.17108 0
M  V30 4408 H 413.052 -0.0430391 3.14371 0
M  V30 4409 N 416.824 -0.551391 1.4764 0
M  V30 4410 C 418.054 -1.33163 1.57959 0
M  V30 4411 C 418.462 -1.87785 0.23094 0
M  V30 4412 O 417.805 -1.65996 -0.786825 0
M  V30 4413 C 417.867 -2.53449 2.54958 0
M  V30 4414 C 417.531 -2.20071 4.00522 0
M  V30 4415 C 418.528 -1.77017 4.88836 0
M  V30 4416 C 416.213 -2.31252 4.45901 0
M  V30 4417 C 418.207 -1.4558 6.20552 0
M  V30 4418 C 415.894 -1.99427 5.77644 0
M  V30 4419 C 416.892 -1.56659 6.64791 0
M  V30 4420 O 416.58 -1.25242 7.94084 0
M  V30 4421 H 416.312 -0.412022 0.535923 0
M  V30 4422 H 418.866 -0.674186 1.9402 0
M  V30 4423 H 417.096 -3.22104 2.13976 0
M  V30 4424 H 418.785 -3.15523 2.55343 0
M  V30 4425 H 419.551 -1.67867 4.55023 0
M  V30 4426 H 415.43 -2.63498 3.78272 0
M  V30 4427 H 418.974 -1.12125 6.8853 0
M  V30 4428 H 414.871 -2.08211 6.10998 0
M  V30 4429 H 415.639 -1.38822 8.06642 0
M  V30 4430 N 418.302 -1.35869 -0.798587 0
M  V30 4431 C 419.212 -1.31578 -1.94228 0
M  V30 4432 C 420.228 -0.21939 -1.72611 0
M  V30 4433 O 421.404 -0.450167 -1.96305 0
M  V30 4434 C 418.469 -1.09528 -3.28944 0
M  V30 4435 C 417.53 -2.28556 -3.63402 0
M  V30 4436 C 416.763 -2.07549 -4.9169 0
M  V30 4437 O 416.986 -1.046 -5.60727 0
M  V30 4438 O 415.92 -2.95106 -5.24591 0
M  V30 4439 H 419.746 -2.27847 -2.00796 0
M  V30 4440 H 417.331 -1.16322 -0.937526 0
M  V30 4441 H 419.213 -0.991127 -4.09579 0
M  V30 4442 H 417.888 -0.16315 -3.23289 0
M  V30 4443 H 416.795 -2.44538 -2.83112 0
M  V30 4444 H 418.128 -3.20244 -3.73771 0
M  V30 4445 N 419.78 1.02168 -1.19998 0
M  V30 4446 C 420.73 2.08969 -0.911921 0
M  V30 4447 C 421.714 1.60404 0.12621 0
M  V30 4448 O 422.906 1.76817 -0.0804706 0
M  V30 4449 C 420.035 3.402 -0.460277 0
M  V30 4450 C 419.121 3.9548 -1.53155 0
M  V30 4451 N 419.512 4.24332 -2.75275 0
M  V30 4452 C 417.81 4.23572 -1.39653 0
M  V30 4453 C 418.511 4.68834 -3.44339 0
M  V30 4454 N 417.487 4.70804 -2.71744 0
M  V30 4455 H 421.289 2.29178 -1.83997 0
M  V30 4456 H 418.803 1.20094 -1.09322 0
M  V30 4457 H 420.8 4.16235 -0.235337 0
M  V30 4458 H 419.46 3.21408 0.4612 0
M  V30 4459 H 420.471 4.13393 -3.11973 0
M  V30 4460 H 417.148 4.14005 -0.539067 0
M  V30 4461 H 418.538 5.00019 -4.4881 0
M  V30 4462 N 421.258 1.00505 1.21394 0
M  V30 4463 C 422.504 0.688793 1.90745 0
M  V30 4464 C 422.837 -0.778486 1.77914 0
M  V30 4465 O 422.112 -1.56433 1.15581 0
M  V30 4466 C 422.395 1.11063 3.42545 0
M  V30 4467 C 422.248 2.63737 3.64367 0
M  V30 4468 C 423.567 0.673059 4.34923 0
M  V30 4469 H 420.686 0.251702 0.692687 0
M  V30 4470 H 423.328 1.25074 1.43026 0
M  V30 4471 H 421.478 0.632508 3.83317 0
M  V30 4472 H 423.15 3.19313 3.32922 0
M  V30 4473 H 421.393 3.05248 3.08231 0
M  V30 4474 H 422.064 2.88305 4.70727 0
M  V30 4475 H 424.54 1.08392 4.01734 0
M  V30 4476 H 423.416 0.996383 5.39781 0
M  V30 4477 H 423.677 -0.425808 4.40045 0
M  V30 4478 N 422.737 -1.36956 0.779787 0
M  V30 4479 C 423.985 -1.99097 0.347079 0
M  V30 4480 C 424.306 -1.62206 -1.08232 0
M  V30 4481 O 423.576 -0.891373 -1.74446 0
M  V30 4482 H 422.156 -0.736409 0.125342 0
M  V30 4483 H 424.818 -1.67308 0.999696 0
M  V30 4484 H 423.914 -3.09107 0.431162 0
M  V30 4485 N 424.215 -0.530993 -1.48385 0
M  V30 4486 C 425.464 0.00474348 -2.01699 0
M  V30 4487 C 425.777 1.35227 -1.41325 0
M  V30 4488 O 426.983 1.97643 -1.86144 0
M  V30 4489 C 425.439 0.0588473 -3.59852 0
M  V30 4490 C 425.047 -1.28385 -4.2921 0
M  V30 4491 C 426.791 0.543358 -4.21008 0
M  V30 4492 C 424.698 -1.19028 -5.79298 0
M  V30 4493 H 423.628 0.00554317 -0.75398 0
M  V30 4494 H 426.279 -0.674924 -1.70637 0
M  V30 4495 H 424.661 0.803612 -3.8776 0
M  V30 4496 H 425.835 -2.04426 -4.12973 0
M  V30 4497 H 424.15 -1.70418 -3.7993 0
M  V30 4498 H 426.747 0.631351 -5.3096 0
M  V30 4499 H 427.09 1.54937 -3.86394 0
M  V30 4500 H 427.623 -0.145754 -3.97533 0
M  V30 4501 H 424.362 -2.17147 -6.18488 0
M  V30 4502 H 423.882 -0.471246 -5.97946 0
M  V30 4503 H 425.561 -0.881365 -6.40969 0
M  V30 4504 N 425.693 1.55336 -0.266172 0
M  V30 4505 C 426.939 1.99692 0.353681 0
M  V30 4506 C 427.272 1.1543 1.56172 0
M  V30 4507 O 426.547 0.222218 1.93226 0
M  V30 4508 C 426.83 3.52316 0.74466 0
M  V30 4509 C 426.683 4.47337 -0.470101 0
M  V30 4510 C 428.002 4.10588 1.58447 0
M  V30 4511 H 425.121 0.725961 0.12708 0
M  V30 4512 H 427.763 1.86336 -0.371333 0
M  V30 4513 H 425.913 3.63829 1.36239 0
M  V30 4514 H 427.585 4.4778 -1.10864 0
M  V30 4515 H 425.828 4.19364 -1.10978 0
M  V30 4516 H 426.499 5.51788 -0.15291 0
M  V30 4517 H 428.975 4.02297 1.06286 0
M  V30 4518 H 427.851 5.17607 1.82686 0
M  V30 4519 H 428.112 3.60253 2.56262 0
M  V30 4520 N 427.171 -0.0066808 1.57599 0
M  V30 4521 C 428.448 -0.729586 1.81484 0
M  V30 4522 C 428.828 -1.92359 0.869558 0
M  V30 4523 O 428.176 -2.28348 -0.0832533 0
M  V30 4524 C 428.386 -1.1416 3.29801 0
M  V30 4525 C 429.734 -1.54823 3.95367 0
M  V30 4526 O 430.758 -1.23558 3.34084 0
M  V30 4527 O 429.617 -2.12937 5.03309 0
M  V30 4528 H 426.711 -0.354674 0.747085 0
M  V30 4529 H 429.257 0.0182609 1.6969 0
M  V30 4530 H 428.029 -0.290231 3.90222 0
M  V30 4531 H 427.652 -1.94876 3.46568 0
M  V30 4532 N 428.649 -1.55105 -0.279332 0
M  V30 4533 C 429.898 -1.74618 -1.00952 0
M  V30 4534 C 430.211 -0.551096 -1.87676 0
M  V30 4535 O 431.417 -0.628507 -2.64125 0
M  V30 4536 C 429.873 -3.09025 -1.84476 0
M  V30 4537 C 429.481 -4.36081 -1.0265 0
M  V30 4538 C 431.225 -3.37891 -2.56963 0
M  V30 4539 C 429.132 -5.6153 -1.85576 0
M  V30 4540 H 428.062 -0.650868 -0.38064 0
M  V30 4541 H 430.713 -1.81569 -0.265475 0
M  V30 4542 H 429.095 -2.96095 -2.62952 0
M  V30 4543 H 430.269 -4.59909 -0.286354 0
M  V30 4544 H 428.584 -4.14312 -0.416464 0
M  V30 4545 H 431.181 -4.28822 -3.19399 0
M  V30 4546 H 431.524 -2.57737 -3.26921 0
M  V30 4547 H 432.057 -3.5189 -1.85522 0
M  V30 4548 H 428.796 -6.44413 -1.2005 0
M  V30 4549 H 428.316 -5.41854 -2.57204 0
M  V30 4550 H 429.995 -5.99594 -2.43096 0
M  V30 4551 N 430.127 0.543554 -1.4793 0
M  V30 4552 C 431.374 1.30008 -1.55255 0
M  V30 4553 C 431.702 1.93245 -0.220612 0
M  V30 4554 O 430.957 1.79141 0.787843 0
M  V30 4555 C 431.256 2.42078 -2.62932 0
M  V30 4556 C 430.922 1.96583 -4.0579 0
M  V30 4557 C 429.584 1.83893 -4.44676 0
M  V30 4558 C 431.936 1.62034 -4.95373 0
M  V30 4559 C 429.264 1.34969 -5.70964 0
M  V30 4560 C 431.616 1.14577 -6.22137 0
M  V30 4561 C 430.28 1.00493 -6.59892 0
M  V30 4562 H 429.55 0.475735 -0.568117 0
M  V30 4563 H 432.197 0.608075 -1.81589 0
M  V30 4564 H 430.502 3.16892 -2.30406 0
M  V30 4565 H 432.199 3.00236 -2.65818 0
M  V30 4566 H 428.789 2.07407 -3.75074 0
M  V30 4567 H 432.973 1.70705 -4.66019 0
M  V30 4568 H 428.229 1.2274 -5.98953 0
M  V30 4569 H 432.403 0.869109 -6.90955 0
M  V30 4570 H 430.03 0.623624 -7.57638 0
M  V30 4571 N 431.605 1.3629 0.791371 0
M  V30 4572 C 432.535 1.33137 1.91825 0
M  V30 4573 C 433.516 0.203168 1.68882 0
M  V30 4574 O 434.701 0.400509 1.90025 0
M  V30 4575 C 431.831 1.11793 3.28816 0
M  V30 4576 C 430.785 2.21417 3.66277 0
M  V30 4577 C 430.111 1.85218 5.01596 0
M  V30 4578 C 431.411 3.63489 3.75064 0
M  V30 4579 H 433.105 2.2743 1.9472 0
M  V30 4580 H 430.651 1.09479 0.935437 0
M  V30 4581 H 432.604 1.08222 4.07266 0
M  V30 4582 H 431.328 0.139501 3.26302 0
M  V30 4583 H 429.987 2.2411 2.90121 0
M  V30 4584 H 429.635 0.859544 4.95602 0
M  V30 4585 H 429.335 2.58611 5.27631 0
M  V30 4586 H 430.859 1.832 5.82469 0
M  V30 4587 H 432.273 3.63034 4.43711 0
M  V30 4588 H 430.67 4.35771 4.12582 0
M  V30 4589 H 431.74 3.98536 2.76219 0
M  V30 4590 N 433.083 -1.0153 1.20538 0
M  V30 4591 C 434.331 -1.74803 1.01432 0
M  V30 4592 C 434.652 -1.8963 -0.454456 0
M  V30 4593 O 433.922 -1.43975 -1.32846 0
M  V30 4594 H 432.502 -0.647598 0.372324 0
M  V30 4595 H 435.164 -1.22402 1.5167 0
M  V30 4596 H 434.26 -2.75114 1.47373 0
M  V30 4597 N 434.561 -1.01147 -1.20859 0
M  V30 4598 C 435.808 -0.697865 -1.90095 0
M  V30 4599 C 436.136 0.772014 -1.78522 0
M  V30 4600 O 435.391 1.57595 -1.16027 0
M  V30 4601 C 435.69 -1.0727 -3.40922 0
M  V30 4602 C 435.356 -2.53792 -3.72693 0
M  V30 4603 C 434.018 -2.93829 -3.81075 0
M  V30 4604 C 436.37 -3.48674 -3.87397 0
M  V30 4605 C 433.698 -4.27696 -4.01613 0
M  V30 4606 C 436.05 -4.82223 -4.09444 0
M  V30 4607 C 434.714 -5.21973 -4.16054 0
M  V30 4608 H 433.984 -0.255367 -0.695607 0
M  V30 4609 H 436.631 -1.27111 -1.43231 0
M  V30 4610 H 434.936 -0.417799 -3.89566 0
M  V30 4611 H 436.633 -0.807818 -3.92779 0
M  V30 4612 H 433.223 -2.21768 -3.66765 0
M  V30 4613 H 437.407 -3.18904 -3.80281 0
M  V30 4614 H 432.663 -4.58055 -4.04964 0
M  V30 4615 H 436.837 -5.55672 -4.19763 0
M  V30 4616 H 434.464 -6.25717 -4.31721 0
M  V30 4617 N 436.039 1.36541 -0.78704 0
M  V30 4618 C 436.969 2.32659 -0.197992 0
M  V30 4619 C 437.95 1.56533 0.665697 0
M  V30 4620 O 439.135 1.84698 0.60001 0
M  V30 4621 C 436.265 3.40778 0.669901 0
M  V30 4622 C 435.219 4.27897 -0.0937039 0
M  V30 4623 C 434.545 5.27163 0.894629 0
M  V30 4624 C 435.845 5.06334 -1.28154 0
M  V30 4625 H 437.539 2.82171 -1.00099 0
M  V30 4626 H 435.085 1.35665 -0.482793 0
M  V30 4627 H 437.038 4.07008 1.09191 0
M  V30 4628 H 435.762 2.89827 1.50558 0
M  V30 4629 H 434.421 3.6322 -0.49666 0
M  V30 4630 H 434.069 4.72486 1.72527 0
M  V30 4631 H 433.769 5.86317 0.388149 0
M  V30 4632 H 435.293 5.96266 1.31525 0
M  V30 4633 H 436.707 5.65617 -0.93541 0
M  V30 4634 H 435.104 5.74888 -1.72115 0
M  V30 4635 H 436.174 4.38114 -2.07807 0
M  V30 4636 N 437.518 0.538854 1.48102 0
M  V30 4637 C 438.743 0.0102694 2.07397 0
M  V30 4638 C 439.168 -1.26562 1.39153 0
M  V30 4639 O 438.526 -1.75357 0.460387 0
M  V30 4640 C 438.574 -0.187602 3.60112 0
M  V30 4641 O 437.678 -1.25432 3.92862 0
M  V30 4642 H 437.019 0.0430975 0.6626 0
M  V30 4643 H 439.549 0.749301 1.90385 0
M  V30 4644 H 439.559 -0.407517 4.0596 0
M  V30 4645 H 438.234 0.744386 4.09184 0
M  V30 4646 H 436.811 -1.01636 3.58782 0
M  V30 4647 N 438.996 -1.55193 0.274407 0
M  V30 4648 C 440.243 -1.99581 -0.342579 0
M  V30 4649 C 440.571 -1.1628 -1.55914 0
M  V30 4650 O 439.826 -0.22029 -1.94456 0
M  V30 4651 C 440.125 -3.49019 -0.769458 0
M  V30 4652 C 439.791 -4.49598 0.342389 0
M  V30 4653 C 438.453 -4.76821 0.647686 0
M  V30 4654 C 440.805 -5.0964 1.09163 0
M  V30 4655 C 438.133 -5.61354 1.70581 0
M  V30 4656 C 440.485 -5.95323 2.13948 0
M  V30 4657 C 439.149 -6.20867 2.45113 0
M  V30 4658 H 438.419 -0.730319 -0.125358 0
M  V30 4659 H 441.066 -1.87529 0.387971 0
M  V30 4660 H 439.371 -3.58544 -1.57967 0
M  V30 4661 H 441.068 -3.8077 -1.25757 0
M  V30 4662 H 437.658 -4.28496 0.094318 0
M  V30 4663 H 441.842 -4.88632 0.869024 0
M  V30 4664 H 437.098 -5.79392 1.9523 0
M  V30 4665 H 441.272 -6.40881 2.72478 0
M  V30 4666 H 438.899 -6.86162 3.27239 0
M  V30 4667 N 440.474 -0.00167713 -1.576 0
M  V30 4668 C 441.721 0.68282 -1.90641 0
M  V30 4669 C 442.049 1.73686 -0.875415 0
M  V30 4670 O 441.304 1.95334 0.119575 0
M  V30 4671 C 441.603 1.36189 -3.30435 0
M  V30 4672 C 441.269 0.440887 -4.48739 0
M  V30 4673 C 439.931 0.187312 -4.80835 0
M  V30 4674 C 442.283 -0.193134 -5.20842 0
M  V30 4675 C 439.611 -0.70855 -5.82406 0
M  V30 4676 C 441.963 -1.07688 -6.23367 0
M  V30 4677 C 440.627 -1.33962 -6.53919 0
M  V30 4678 H 439.897 0.249862 -0.697603 0
M  V30 4679 H 442.544 -0.0575642 -1.91413 0
M  V30 4680 H 440.849 2.17636 -3.25794 0
M  V30 4681 H 442.546 1.89759 -3.5326 0
M  V30 4682 H 439.136 0.648694 -4.23663 0
M  V30 4683 H 443.32 -0.0102445 -4.96299 0
M  V30 4684 H 438.576 -0.920097 -6.04437 0
M  V30 4685 H 442.75 -1.57451 -6.78367 0
M  V30 4686 H 440.377 -2.03549 -7.32442 0
M  V30 4687 N 441.952 1.55251 0.271103 0
M  V30 4688 C 443.198 1.76207 1.00394 0
M  V30 4689 C 443.531 0.562604 1.85872 0
M  V30 4690 O 442.806 -0.439785 1.89463 0
M  V30 4691 C 443.089 3.06828 1.8849 0
M  V30 4692 C 442.942 4.37134 1.05992 0
M  V30 4693 C 444.261 3.33503 2.87165 0
M  V30 4694 H 441.38 0.641086 0.363562 0
M  V30 4695 H 444.022 1.87982 0.276189 0
M  V30 4696 H 442.172 2.96921 2.5054 0
M  V30 4697 H 443.844 4.59001 0.459978 0
M  V30 4698 H 442.087 4.32275 0.363443 0
M  V30 4699 H 442.758 5.2486 1.70955 0
M  V30 4700 H 445.234 3.43215 2.3525 0
M  V30 4701 H 444.11 4.2616 3.45946 0
M  V30 4702 H 444.371 2.53235 3.62387 0
M  V30 4703 N 443.43 -0.535701 1.48216 0
M  V30 4704 C 444.676 -1.29375 1.56173 0
M  V30 4705 C 445.009 -1.92804 0.232429 0
M  V30 4706 O 444.284 -1.78992 -0.761048 0
M  V30 4707 C 444.567 -2.38747 2.69577 0
M  V30 4708 C 444.42 -1.80046 4.12193 0
M  V30 4709 C 445.739 -3.40551 2.78771 0
M  V30 4710 H 442.858 -0.469027 0.568491 0
M  V30 4711 H 445.5 -0.597358 1.80365 0
M  V30 4712 H 443.65 -2.98147 2.4908 0
M  V30 4713 H 445.322 -1.24742 4.44114 0
M  V30 4714 H 443.565 -1.10609 4.19462 0
M  V30 4715 H 444.236 -2.59212 4.87353 0
M  V30 4716 H 446.712 -2.91099 2.97322 0
M  V30 4717 H 445.588 -4.1448 3.59857 0
M  V30 4718 H 445.849 -4.00746 1.86696 0
M  V30 4719 N 444.908 -1.36708 -0.784132 0
M  V30 4720 C 445.871 -1.31307 -1.87859 0
M  V30 4721 C 446.871 -0.219654 -1.59293 0
M  V30 4722 O 448.061 -0.47476 -1.67606 0
M  V30 4723 C 445.193 -1.03679 -3.24751 0
M  V30 4724 H 446.386 -2.28647 -1.94064 0
M  V30 4725 H 443.939 -1.21558 -0.98252 0
M  V30 4726 H 444.674 -0.0681936 -3.24228 0
M  V30 4727 H 444.459 -1.82811 -3.46876 0
M  V30 4728 H 445.949 -1.02518 -4.04821 0
M  V30 4729 N 446.386 1.0089 -1.21074 0
M  V30 4730 C 447.316 2.1145 -0.990523 0
M  V30 4731 C 448.297 1.69897 0.0831699 0
M  V30 4732 O 449.482 1.94052 -0.0758853 0
M  V30 4733 C 446.612 3.42914 -0.550177 0
M  V30 4734 C 445.566 3.98244 -1.56799 0
M  V30 4735 C 444.892 5.25568 -0.984013 0
M  V30 4736 C 446.192 4.30752 -2.95381 0
M  V30 4737 H 447.886 2.3013 -1.91521 0
M  V30 4738 H 445.432 1.10592 -0.92225 0
M  V30 4739 H 447.385 4.19653 -0.383305 0
M  V30 4740 H 446.109 3.24014 0.41015 0
M  V30 4741 H 444.768 3.23621 -1.72236 0
M  V30 4742 H 444.416 5.02998 -0.0155216 0
M  V30 4743 H 444.116 5.63551 -1.66384 0
M  V30 4744 H 445.64 6.04955 -0.828378 0
M  V30 4745 H 447.054 4.98349 -2.8341 0
M  V30 4746 H 445.451 4.79869 -3.60341 0
M  V30 4747 H 446.521 3.39192 -3.46521 0
M  V30 4748 N 447.864 1.01787 1.20321 0
M  V30 4749 C 449.112 0.706538 1.89347 0
M  V30 4750 C 449.433 -0.766289 1.79313 0
M  V30 4751 O 448.703 -1.55126 1.19635 0
M  V30 4752 H 447.283 0.258348 0.700903 0
M  V30 4753 H 449.945 1.28974 1.46122 0
M  V30 4754 H 449.041 0.991066 2.95946 0
M  V30 4755 N 449.342 -1.36122 0.79427 0
M  V30 4756 C 450.59 -1.98718 0.368177 0
M  V30 4757 C 450.911 -1.63345 -1.06506 0
M  V30 4758 O 450.181 -0.909825 -1.73491 0
M  V30 4759 H 448.761 -0.735038 0.133146 0
M  V30 4760 H 451.423 -1.66239 1.01739 0
M  V30 4761 H 450.519 -3.08633 0.463923 0
M  V30 4762 N 450.82 -0.546701 -1.47814 0
M  V30 4763 C 452.066 -0.0187684 -2.02791 0
M  V30 4764 C 452.399 1.32338 -1.42128 0
M  V30 4765 O 451.674 1.85867 -0.573023 0
M  V30 4766 C 451.957 0.0854985 -3.59998 0
M  V30 4767 C 451.81 -1.283 -4.31114 0
M  V30 4768 C 453.129 0.80412 -4.32691 0
M  V30 4769 H 450.248 -0.0082946 -0.736953 0
M  V30 4770 H 452.89 -0.706962 -1.76358 0
M  V30 4771 H 451.04 0.671609 -3.82651 0
M  V30 4772 H 452.712 -1.91151 -4.19832 0
M  V30 4773 H 450.955 -1.86049 -3.91878 0
M  V30 4774 H 451.626 -1.16287 -5.39612 0
M  V30 4775 H 454.102 0.306576 -4.14969 0
M  V30 4776 H 452.978 0.846011 -5.42341 0
M  V30 4777 H 453.239 1.85802 -4.01161 0
M  V30 4778 N 452.299 1.55045 -0.282633 0
M  V30 4779 C 453.229 2.2579 0.595066 0
M  V30 4780 C 454.21 1.25074 1.15284 0
M  V30 4781 O 455.395 1.5381 1.18559 0
M  V30 4782 C 452.525 2.98472 1.77572 0
M  V30 4783 C 451.479 4.0618 1.34914 0
M  V30 4784 C 450.805 4.66477 2.6135 0
M  V30 4785 C 452.105 5.1996 0.493821 0
M  V30 4786 H 453.799 2.994 0.00505653 0
M  V30 4787 H 451.345 1.44 0.000992001 0
M  V30 4788 H 453.298 3.46677 2.39568 0
M  V30 4789 H 452.022 2.2241 2.39168 0
M  V30 4790 H 450.681 3.58797 0.752338 0
M  V30 4791 H 450.329 3.87074 3.2122 0
M  V30 4792 H 450.029 5.39207 2.33516 0
M  V30 4793 H 451.553 5.17435 3.24181 0
M  V30 4794 H 452.967 5.64172 1.01898 0
M  V30 4795 H 451.364 5.99299 0.310047 0
M  V30 4796 H 452.434 4.82462 -0.485593 0
M  V30 4797 N 453.777 0.010035 1.57597 0
M  V30 4798 C 455.023 -0.673697 1.91283 0
M  V30 4799 C 455.356 -1.72863 0.884979 0
M  V30 4800 O 454.631 -1.94268 -0.0949487 0
M  V30 4801 C 454.914 -1.30766 3.35518 0
M  V30 4802 C 454.767 -0.263578 4.49027 0
M  V30 4803 C 456.086 -2.23105 3.79358 0
M  V30 4804 H 453.205 -0.243439 0.695634 0
M  V30 4805 H 455.847 0.0633864 1.89894 0
M  V30 4806 H 453.997 -1.93588 3.36832 0
M  V30 4807 H 455.669 0.365738 4.59848 0
M  V30 4808 H 453.912 0.413077 4.31829 0
M  V30 4809 H 454.583 -0.746398 5.4693 0
M  V30 4810 H 457.059 -1.70289 3.79659 0
M  V30 4811 H 455.935 -2.64424 4.81011 0
M  V30 4812 H 456.196 -3.11433 3.13787 0
M  V30 4813 N 455.255 -1.55392 -0.262866 0
M  V30 4814 C 456.503 -1.76127 -0.991147 0
M  V30 4815 C 456.824 -0.571083 -1.8645 0
M  V30 4816 O 456.094 0.413698 -1.91482 0
M  V30 4817 H 454.674 -0.649528 -0.368948 0
M  V30 4818 H 457.336 -1.9281 -0.284655 0
M  V30 4819 H 456.432 -2.6663 -1.62219 0
M  V30 4820 N 456.733 0.527833 -1.48498 0
M  V30 4821 C 457.979 1.28545 -1.56857 0
M  V30 4822 C 458.312 1.92678 -0.242651 0
M  V30 4823 O 457.587 1.79394 0.751545 0
M  V30 4824 C 457.87 2.37314 -2.70839 0
M  V30 4825 C 457.723 1.77858 -4.13142 0
M  V30 4826 C 459.042 3.39068 -2.80573 0
M  V30 4827 H 456.161 0.466006 -0.570971 0
M  V30 4828 H 458.803 0.587784 -1.8068 0
M  V30 4829 H 456.953 2.96821 -2.50658 0
M  V30 4830 H 458.625 1.22385 -4.44769 0
M  V30 4831 H 456.868 1.08383 -4.20042 0
M  V30 4832 H 457.539 2.56624 -4.88721 0
M  V30 4833 H 460.015 2.89518 -2.98862 0
M  V30 4834 H 458.891 4.12566 -3.6205 0
M  V30 4835 H 459.152 3.9975 -1.88818 0
M  V30 4836 N 458.211 1.37122 0.776871 0
M  V30 4837 C 459.457 1.32243 1.53752 0
M  V30 4838 C 459.79 -0.0944745 1.9397 0
M  V30 4839 O 459.065 -1.05068 1.6368 0
M  V30 4840 C 459.348 2.25681 2.80607 0
M  V30 4841 C 459.201 3.76127 2.46676 0
M  V30 4842 C 460.52 2.17657 3.82509 0
M  V30 4843 H 457.639 0.481704 0.557791 0
M  V30 4844 H 460.281 1.6778 0.891612 0
M  V30 4845 H 458.431 1.95505 3.35723 0
M  V30 4846 H 460.103 4.16877 1.97513 0
M  V30 4847 H 458.346 3.94946 1.79443 0
M  V30 4848 H 459.017 4.36933 3.37333 0
M  V30 4849 H 461.493 2.44245 3.36873 0
M  V30 4850 H 460.369 2.85185 4.69 0
M  V30 4851 H 460.63 1.16785 4.26396 0
M  V30 4852 N 459.689 -1.00246 1.21608 0
M  V30 4853 C 460.919 -1.77373 1.05935 0
M  V30 4854 C 461.327 -1.85059 -0.393686 0
M  V30 4855 O 460.67 -1.31289 -1.28487 0
M  V30 4856 C 460.732 -3.22705 1.58435 0
M  V30 4857 C 460.396 -3.38591 3.06929 0
M  V30 4858 C 461.393 -3.2667 4.04454 0
M  V30 4859 C 459.078 -3.6395 3.46187 0
M  V30 4860 C 461.072 -3.39877 5.39224 0
M  V30 4861 C 458.759 -3.768 4.81108 0
M  V30 4862 C 459.757 -3.6477 5.77436 0
M  V30 4863 O 459.445 -3.77206 7.09909 0
M  V30 4864 H 459.177 -0.56419 0.372378 0
M  V30 4865 H 461.731 -1.26971 1.61454 0
M  V30 4866 H 459.961 -3.74255 0.973147 0
M  V30 4867 H 461.65 -3.81515 1.38568 0
M  V30 4868 H 462.416 -3.06999 3.75468 0
M  V30 4869 H 458.295 -3.72395 2.71741 0
M  V30 4870 H 461.839 -3.30404 6.14393 0
M  V30 4871 H 457.736 -3.95975 5.09779 0
M  V30 4872 H 458.504 -3.94138 7.17355 0
M  V30 4873 N 461.167 -1.02423 -1.1978 0
M  V30 4874 C 462.415 -0.716569 -1.8897 0
M  V30 4875 C 462.736 0.756769 -1.79716 0
M  V30 4876 O 462.006 1.5449 -1.20456 0
M  V30 4877 H 460.586 -0.262062 -0.699523 0
M  V30 4878 H 463.248 -1.29747 -1.45436 0
M  V30 4879 H 462.344 -1.00675 -2.95417 0
M  V30 4880 N 462.645 1.35699 -0.801477 0
M  V30 4881 C 463.891 1.99208 -0.380022 0
M  V30 4882 C 464.224 1.63445 1.04878 0
M  V30 4883 O 463.499 0.895223 1.72673 0
M  V30 4884 C 463.782 3.55755 -0.557708 0
M  V30 4885 C 463.635 4.01332 -2.03107 0
M  V30 4886 C 464.954 4.40096 0.0197968 0
M  V30 4887 H 462.073 0.723667 -0.139552 0
M  V30 4888 H 464.715 1.60928 -1.01006 0
M  V30 4889 H 462.865 3.88494 -0.0213741 0
M  V30 4890 H 464.537 3.79026 -2.62939 0
M  V30 4891 H 462.78 3.52429 -2.52936 0
M  V30 4892 H 463.451 5.10234 -2.1063 0
M  V30 4893 H 465.927 4.13786 -0.438179 0
M  V30 4894 H 464.803 5.48735 -0.134477 0
M  V30 4895 H 465.064 4.2786 1.11303 0
M  V30 4896 N 464.123 0.554532 1.47522 0
M  V30 4897 C 465.372 0.0273458 2.01681 0
M  V30 4898 C 465.685 -1.32962 1.43459 0
M  V30 4899 O 466.891 -1.94657 1.89265 0
M  V30 4900 C 465.347 -0.00159057 3.599 0
M  V30 4901 C 464.955 1.35197 4.27113 0
M  V30 4902 C 466.699 -0.476311 4.21819 0
M  V30 4903 C 464.606 1.28229 5.77331 0
M  V30 4904 H 463.536 0.00645269 0.753972 0
M  V30 4905 H 466.187 0.701985 1.69542 0
M  V30 4906 H 464.569 -0.741821 3.8899 0
M  V30 4907 H 465.743 2.1097 4.09668 0
M  V30 4908 H 464.058 1.76441 3.77171 0
M  V30 4909 H 466.655 -0.5468 5.31897 0
M  V30 4910 H 466.998 -1.4877 3.8881 0
M  V30 4911 H 467.531 0.20898 3.97251 0
M  V30 4912 H 464.27 2.26959 6.14955 0
M  V30 4913 H 463.79 0.566314 5.97121 0
M  V30 4914 H 465.469 0.983226 6.39485 0
M  V30 4915 N 465.601 -1.54893 0.290851 0
M  V30 4916 C 466.564 -2.21824 -0.576784 0
M  V30 4917 C 467.564 -1.20104 -1.06919 0
M  V30 4918 O 468.754 -1.44906 -0.966843 0
M  V30 4919 C 465.886 -2.89662 -1.79747 0
M  V30 4920 H 467.079 -2.99899 0.00784051 0
M  V30 4921 H 464.632 -1.56245 0.0415934 0
M  V30 4922 H 465.367 -2.15639 -2.42219 0
M  V30 4923 H 465.152 -3.64219 -1.45214 0
M  V30 4924 H 466.642 -3.4075 -2.4141 0
M  V30 4925 N 467.08 -0.0183926 -1.57589 0
M  V30 4926 C 468.043 0.951986 -2.08494 0
M  V30 4927 C 469.043 1.26092 -0.997874 0
M  V30 4928 O 470.233 1.20304 -1.25987 0
M  V30 4929 C 467.365 2.27165 -2.54182 0
M  V30 4930 H 468.558 0.511307 -2.95509 0
M  V30 4931 H 466.111 0.229444 -1.54607 0
M  V30 4932 H 466.846 2.75884 -1.70465 0
M  V30 4933 H 466.631 2.06057 -3.33591 0
M  V30 4934 H 468.121 2.9674 -2.93828 0
M  V30 4935 N 468.558 1.5553 0.254621 0
M  V30 4936 C 469.805 1.77 0.983736 0
M  V30 4937 C 470.133 0.58133 1.85609 0
M  V30 4938 O 469.388 -0.435621 1.9079 0
M  V30 4939 C 469.687 3.03891 1.88109 0
M  V30 4940 C 469.353 4.35597 1.16472 0
M  V30 4941 C 468.015 4.7139 0.966714 0
M  V30 4942 C 470.367 5.1705 0.656387 0
M  V30 4943 C 467.695 5.86176 0.247942 0
M  V30 4944 C 470.047 6.32581 -0.0488807 0
M  V30 4945 C 468.711 6.67 -0.258438 0
M  V30 4946 H 467.981 0.647688 0.359974 0
M  V30 4947 H 470.628 1.89802 0.254463 0
M  V30 4948 H 468.933 2.86068 2.67717 0
M  V30 4949 H 470.63 3.17701 2.44677 0
M  V30 4950 H 467.22 4.07475 1.32899 0
M  V30 4951 H 471.404 4.8986 0.796933 0
M  V30 4952 H 466.66 6.11354 0.075035 0
M  V30 4953 H 470.834 6.94942 -0.450444 0
M  V30 4954 H 468.461 7.55793 -0.817358 0
M  V30 4955 N 470.036 -0.519951 1.48776 0
M  V30 4956 C 471.264 -1.29971 1.60982 0
M  V30 4957 C 471.679 -1.86803 0.273885 0
M  V30 4958 O 471.036 -1.66904 -0.738193 0
M  V30 4959 C 471.087 -2.44346 2.66415 0
M  V30 4960 O 470.808 -1.89855 3.94825 0
M  V30 4961 C 472.309 -3.36014 2.89153 0
M  V30 4962 H 469.529 -0.394891 0.542496 0
M  V30 4963 H 472.073 -0.626214 1.94676 0
M  V30 4964 H 470.228 -3.07562 2.35552 0
M  V30 4965 H 470.642 -2.64798 4.5275 0
M  V30 4966 H 472.116 -4.12593 3.66703 0
M  V30 4967 H 472.593 -3.91859 1.98351 0
M  V30 4968 H 473.199 -2.78582 3.21359 0
M  V30 4969 N 471.514 -1.37532 -0.769588 0
M  V30 4970 C 472.739 -1.36231 -1.56384 0
M  V30 4971 C 473.164 0.0495849 -1.88035 0
M  V30 4972 O 472.522 1.02723 -1.49391 0
M  V30 4973 C 472.57 -2.20986 -2.84952 0
M  V30 4974 O 471.674 -1.61597 -3.79421 0
M  V30 4975 H 471.015 -0.465387 -0.473615 0
M  V30 4976 H 473.545 -1.81085 -0.952342 0
M  V30 4977 H 473.555 -2.34277 -3.34034 0
M  V30 4978 H 472.23 -3.23612 -2.61243 0
M  V30 4979 H 470.807 -1.57359 -3.38072 0
M  V30 4980 N 472.992 0.995999 -1.22138 0
M  V30 4981 C 474.408 1.25917 -0.980667 0
M  V30 4982 C 474.608 1.98819 0.327604 0
M  V30 4983 O 473.664 2.29587 1.05101 0
M  V30 4984 C 474.977 2.07399 -2.17729 0
M  V30 4985 C 476.525 2.20594 -2.22052 0
M  V30 4986 C 477 3.05462 -3.41258 0
M  V30 4987 N 478.491 3.13049 -3.41401 0
M  V30 4988 C 479.226 3.78997 -4.30289 0
M  V30 4989 N 478.722 4.46899 -5.2939 0
M  V30 4990 N 480.515 3.75728 -4.18073 0
M  V30 4991 H 472.666 0.507158 -2.06256 0
M  V30 4992 H 474.929 0.28658 -0.903646 0
M  V30 4993 H 474.635 1.61191 -3.12586 0
M  V30 4994 H 474.509 3.08154 -2.17534 0
M  V30 4995 H 476.896 2.66017 -1.27745 0
M  V30 4996 H 476.977 1.1928 -2.26287 0
M  V30 4997 H 476.621 2.60739 -4.35864 0
M  V30 4998 H 476.551 4.06911 -3.34262 0
M  V30 4999 H 479.042 2.64721 -2.69688 0
M  V30 5000 H 479.355 4.94952 -5.935 0
M  V30 5001 H 477.7 4.45657 -5.33306 0
M  V30 5002 H 480.891 3.2184 -3.39907 0
M  V30 5003 H 481.064 4.26845 -4.87553 0
M  V30 5004 N 474.47 1.03057 1.19235 0
M  V30 5005 C 475.717 0.728019 1.88961 0
M  V30 5006 C 476.045 -0.743515 1.79728 0
M  V30 5007 O 475.3 -1.55729 1.1852 0
M  V30 5008 C 475.599 1.1268 3.39172 0
M  V30 5009 C 475.265 2.5969 3.68608 0
M  V30 5010 C 473.927 2.99854 3.76352 0
M  V30 5011 C 476.279 3.54793 3.81801 0
M  V30 5012 C 473.607 4.34031 3.94758 0
M  V30 5013 C 475.959 4.88675 4.0172 0
M  V30 5014 C 474.623 5.28526 4.07697 0
M  V30 5015 H 473.893 0.266401 0.691456 0
M  V30 5016 H 476.54 1.29373 1.41191 0
M  V30 5017 H 474.845 0.479722 3.88852 0
M  V30 5018 H 476.542 0.870203 3.91444 0
M  V30 5019 H 473.132 2.27575 3.63191 0
M  V30 5020 H 477.316 3.24914 3.7516 0
M  V30 5021 H 472.572 4.6444 3.97625 0
M  V30 5022 H 476.746 5.6228 4.1087 0
M  V30 5023 H 474.373 6.32506 4.21712 0
M  V30 5024 N 475.948 -1.35272 0.808662 0
M  V30 5025 C 477.176 -2.02946 0.402537 0
M  V30 5026 C 477.591 -1.60937 -0.987147 0
M  V30 5027 O 476.948 -0.807917 -1.63643 0
M  V30 5028 C 476.999 -3.58317 0.47868 0
M  V30 5029 O 476.72 -3.98799 1.81358 0
M  V30 5030 C 478.221 -4.43251 0.0656281 0
M  V30 5031 H 475.441 -0.650831 0.163279 0
M  V30 5032 H 477.985 -1.72849 1.09286 0
M  V30 5033 H 476.14 -3.87055 -0.163415 0
M  V30 5034 H 476.554 -4.93451 1.77781 0
M  V30 5035 H 478.028 -5.51738 0.170017 0
M  V30 5036 H 478.505 -4.27913 -0.989278 0
M  V30 5037 H 479.111 -4.19813 0.68096 0
M  V30 5038 N 477.426 -0.562348 -1.47226 0
M  V30 5039 C 478.651 -0.0432632 -2.07355 0
M  V30 5040 C 479.076 1.24332 -1.41149 0
M  V30 5041 O 478.434 1.74603 -0.488226 0
M  V30 5042 C 478.482 0.130288 -3.60365 0
M  V30 5043 O 477.586 1.19166 -3.94808 0
M  V30 5044 H 476.927 -0.0536334 -0.66183 0
M  V30 5045 H 479.457 -0.779495 -1.89169 0
M  V30 5046 H 479.467 0.342881 -4.06557 0
M  V30 5047 H 478.142 -0.809389 -4.07948 0
M  V30 5048 H 476.719 0.959153 -3.60354 0
M  V30 5049 N 478.904 1.54736 -0.299062 0
M  V30 5050 C 479.854 2.20155 0.592932 0
M  V30 5051 C 480.838 1.1739 1.10038 0
M  V30 5052 O 482.03 1.43116 1.04147 0
M  V30 5053 C 479.159 2.94437 1.76527 0
M  V30 5054 C 478.245 4.04516 1.27388 0
M  V30 5055 N 478.636 5.03319 0.500339 0
M  V30 5056 C 476.934 4.18022 1.55478 0
M  V30 5057 C 477.635 5.81209 0.238909 0
M  V30 5058 N 476.611 5.37408 0.818163 0
M  V30 5059 H 480.413 2.93899 -0.00563596 0
M  V30 5060 H 477.927 1.62068 -0.103732 0
M  V30 5061 H 479.924 3.3977 2.41582 0
M  V30 5062 H 478.584 2.22209 2.36756 0
M  V30 5063 H 479.595 5.17696 0.145419 0
M  V30 5064 H 476.272 3.56998 2.16469 0
M  V30 5065 H 477.662 6.70812 -0.382223 0
M  V30 5066 N 480.382 0.0267497 1.57577 0
M  V30 5067 C 481.631 -0.651736 1.9088 0
M  V30 5068 C 481.944 -1.73427 0.904576 0
M  V30 5069 O 483.15 -2.46923 1.12877 0
M  V30 5070 C 481.606 -1.21048 3.38933 0
M  V30 5071 C 481.214 -0.161362 4.47709 0
M  V30 5072 C 482.958 -1.86562 3.81307 0
M  V30 5073 C 480.865 -0.731611 5.86857 0
M  V30 5074 H 479.795 -0.247198 0.712326 0
M  V30 5075 H 482.446 0.0916641 1.83271 0
M  V30 5076 H 480.828 -2.00542 3.41466 0
M  V30 5077 H 482.002 0.61094 4.56732 0
M  V30 5078 H 480.317 0.394877 4.14523 0
M  V30 5079 H 482.914 -2.30178 4.8262 0
M  V30 5080 H 483.257 -2.70735 3.16241 0
M  V30 5081 H 483.79 -1.13762 3.81186 0
M  V30 5082 H 480.529 0.0719329 6.55461 0
M  V30 5083 H 480.049 -1.47245 5.81445 0
M  V30 5084 H 481.728 -1.22208 6.35354 0
M  V30 5085 N 481.861 -1.55662 -0.24637 0
M  V30 5086 C 483.277 -1.48098 -0.594907 0
M  V30 5087 C 483.477 -0.717044 -1.8831 0
M  V30 5088 O 482.533 -0.246618 -2.51293 0
M  V30 5089 C 483.846 -2.92507 -0.697146 0
M  V30 5090 C 485.394 -3.02881 -0.789436 0
M  V30 5091 C 485.869 -4.48598 -0.923232 0
M  V30 5092 N 487.36 -4.52538 -0.988088 0
M  V30 5093 C 488.095 -5.62536 -1.11089 0
M  V30 5094 N 487.591 -6.82342 -1.19919 0
M  V30 5095 N 489.384 -5.50334 -1.14408 0
M  V30 5096 H 481.535 -2.0377 0.599278 0
M  V30 5097 H 483.798 -0.925145 0.20691 0
M  V30 5098 H 483.504 -3.51242 0.179396 0
M  V30 5099 H 483.378 -3.43024 -1.5689 0
M  V30 5100 H 485.765 -2.44226 -1.65643 0
M  V30 5101 H 485.846 -2.55574 0.107482 0
M  V30 5102 H 485.49 -5.07864 -0.0607927 0
M  V30 5103 H 485.42 -4.93587 -1.8352 0
M  V30 5104 H 487.911 -3.66248 -0.931167 0
M  V30 5105 H 488.224 -7.61924 -1.29197 0
M  V30 5106 H 486.569 -6.85102 -1.16876 0
M  V30 5107 H 489.76 -4.5567 -1.07158 0
M  V30 5108 H 489.933 -6.36096 -1.23634 0
M  V30 5109 N 483.339 0.512053 -1.4905 0
M  V30 5110 C 484.585 1.26874 -1.58212 0
M  V30 5111 C 484.918 1.9241 -0.263073 0
M  V30 5112 O 484.193 1.80181 0.732476 0
M  V30 5113 C 484.476 2.34428 -2.73341 0
M  V30 5114 C 484.329 1.73466 -4.15006 0
M  V30 5115 C 485.648 3.36073 -2.84154 0
M  V30 5116 H 482.767 0.459924 -0.575881 0
M  V30 5117 H 485.409 0.568587 -1.81293 0
M  V30 5118 H 483.559 2.94146 -2.53792 0
M  V30 5119 H 485.231 1.17661 -4.46042 0
M  V30 5120 H 483.474 1.03921 -4.21168 0
M  V30 5121 H 484.145 2.51426 -4.91415 0
M  V30 5122 H 486.621 2.86332 -3.01916 0
M  V30 5123 H 485.497 4.08703 -3.66406 0
M  V30 5124 H 485.758 3.97725 -1.93048 0
M  V30 5125 N 484.817 1.37938 0.762283 0
M  V30 5126 C 486.066 1.32989 1.51647 0
M  V30 5127 C 486.379 -0.0802922 1.95435 0
M  V30 5128 O 487.585 -0.252295 2.70325 0
M  V30 5129 C 486.041 2.33485 2.73885 0
M  V30 5130 C 485.649 3.80079 2.37157 0
M  V30 5131 C 487.393 2.37563 3.51801 0
M  V30 5132 C 485.3 4.72283 3.55954 0
M  V30 5133 H 484.23 0.494301 0.56937 0
M  V30 5134 H 486.881 1.63448 0.834083 0
M  V30 5135 H 485.263 1.96056 3.44061 0
M  V30 5136 H 486.437 4.26398 1.74704 0
M  V30 5137 H 484.752 3.79037 1.72395 0
M  V30 5138 H 487.349 3.0365 4.40114 0
M  V30 5139 H 487.692 1.39199 3.92338 0
M  V30 5140 H 488.225 2.73747 2.8863 0
M  V30 5141 H 484.964 5.7181 3.2049 0
M  V30 5142 H 484.484 4.30663 4.1748 0
M  V30 5143 H 486.163 4.89876 4.22647 0
M  V30 5144 N 486.295 -0.989507 1.22664 0
M  V30 5145 C 487.205 -2.11449 1.01619 0
M  V30 5146 C 488.221 -1.73962 -0.036545 0
M  V30 5147 O 489.397 -2.00788 0.156924 0
M  V30 5148 C 486.462 -3.41465 0.600204 0
M  V30 5149 C 485.523 -3.93033 1.72695 0
M  V30 5150 C 484.756 -5.16844 1.33071 0
M  V30 5151 O 484.979 -5.7001 0.210975 0
M  V30 5152 O 483.913 -5.6225 2.14845 0
M  V30 5153 H 487.739 -2.32088 1.9588 0
M  V30 5154 H 485.324 -1.09823 1.01289 0
M  V30 5155 H 487.206 -4.19695 0.37873 0
M  V30 5156 H 485.881 -3.22178 -0.313511 0
M  V30 5157 H 484.788 -3.15961 2.00298 0
M  V30 5158 H 486.121 -4.16758 2.61865 0
M  V30 5159 N 487.773 -1.03688 -1.18687 0
M  V30 5160 C 489.184 -0.766488 -1.70241 0
M  V30 5161 C 489.535 0.713052 -1.82784 0
M  V30 5162 O 488.66 1.55529 -1.50465 0
M  V30 5163 C 489.255 -1.38475 -3.09209 0
M  V30 5164 C 487.814 -1.16276 -3.5799 0
M  V30 5165 C 486.961 -1.4778 -2.34641 0
M  V30 5166 H 489.912 -1.20378 -1.03415 0
M  V30 5167 H 489.933 -0.785939 -3.72295 0
M  V30 5168 H 489.445 -2.46157 -3.00048 0
M  V30 5169 H 487.546 -0.104508 -3.72453 0
M  V30 5170 H 487.659 -1.8571 -4.41643 0
M  V30 5171 H 486.023 -0.897366 -2.38368 0
M  V30 5172 H 486.806 -2.56562 -2.28102 0
M  V30 5173 N 489.251 1.34841 -0.815825 0
M  V30 5174 C 490.181 2.32187 -0.247298 0
M  V30 5175 C 491.162 1.5791 0.632344 0
M  V30 5176 O 492.347 1.8593 0.560698 0
M  V30 5177 C 489.477 3.42122 0.597466 0
M  V30 5178 C 488.431 4.27602 -0.184446 0
M  V30 5179 C 487.757 5.28942 0.782609 0
M  V30 5180 C 489.057 5.03502 -1.38865 0
M  V30 5181 H 490.751 2.79985 -1.06061 0
M  V30 5182 H 488.297 1.34611 -0.511461 0
M  V30 5183 H 490.25 4.09232 1.00533 0
M  V30 5184 H 488.974 2.92956 1.44376 0
M  V30 5185 H 487.633 3.62085 -0.573592 0
M  V30 5186 H 487.281 4.7604 1.62466 0
M  V30 5187 H 486.981 5.87008 0.263695 0
M  V30 5188 H 488.505 5.98922 1.18848 0
M  V30 5189 H 489.919 5.63506 -1.05518 0
M  V30 5190 H 488.316 5.71108 -1.8427 0
M  V30 5191 H 489.386 4.33608 -2.17054 0
M  V30 5192 N 490.729 0.570148 1.46925 0
M  V30 5193 C 491.976 0.0509529 2.02436 0
M  V30 5194 C 492.304 -1.30405 1.44308 0
M  V30 5195 O 491.559 -1.86493 0.593198 0
M  V30 5196 C 491.858 -0.0780336 3.57315 0
M  V30 5197 C 491.524 1.20775 4.34424 0
M  V30 5198 C 490.186 1.56004 4.5521 0
M  V30 5199 C 492.538 2.0592 4.78797 0
M  V30 5200 C 489.866 2.76201 5.17619 0
M  V30 5201 C 492.218 3.25332 5.42533 0
M  V30 5202 C 490.882 3.60859 5.61549 0
M  V30 5203 H 490.152 0.018645 0.740765 0
M  V30 5204 H 492.799 0.744262 1.76445 0
M  V30 5205 H 491.104 -0.854394 3.82371 0
M  V30 5206 H 492.801 -0.495312 3.97929 0
M  V30 5207 H 489.391 0.923469 4.18533 0
M  V30 5208 H 493.575 1.80008 4.62505 0
M  V30 5209 H 488.831 3.0388 5.30535 0
M  V30 5210 H 493.005 3.91586 5.75876 0
M  V30 5211 H 490.632 4.54088 6.09678 0
M  V30 5212 N 492.207 -1.54576 0.307264 0
M  V30 5213 C 493.453 -2.0056 -0.300612 0
M  V30 5214 C 493.786 -1.1953 -1.53057 0
M  V30 5215 O 493.061 -0.27337 -1.92569 0
M  V30 5216 C 493.344 -3.54167 -0.650987 0
M  V30 5217 C 493.197 -4.45933 0.588539 0
M  V30 5218 C 494.516 -4.14645 -1.47506 0
M  V30 5219 H 491.635 -0.729075 -0.107788 0
M  V30 5220 H 494.277 -1.85286 0.420606 0
M  V30 5221 H 492.427 -3.67313 -1.26544 0
M  V30 5222 H 494.099 -4.44683 1.22697 0
M  V30 5223 H 492.342 -4.16274 1.22058 0
M  V30 5224 H 493.013 -5.51189 0.299153 0
M  V30 5225 H 495.489 -4.04973 -0.955821 0
M  V30 5226 H 494.365 -5.22269 -1.68899 0
M  V30 5227 H 494.626 -3.66921 -2.4662 0
M  V30 5228 N 493.685 -0.035106 -1.57561 0
M  V30 5229 C 494.932 0.642229 -1.92046 0
M  V30 5230 C 495.26 1.7179 -0.91206 0
M  V30 5231 O 494.515 1.95544 0.0781153 0
M  V30 5232 C 494.814 1.29149 -3.3325 0
M  V30 5233 C 494.48 0.345604 -4.49574 0
M  V30 5234 C 493.142 0.0852775 -4.81124 0
M  V30 5235 C 495.494 -0.303569 -5.20315 0
M  V30 5236 C 492.822 -0.831927 -5.80772 0
M  V30 5237 C 495.174 -1.20886 -6.20942 0
M  V30 5238 C 493.838 -1.47802 -6.50931 0
M  V30 5239 H 493.108 0.235008 -0.702746 0
M  V30 5240 H 495.755 -0.0981529 -1.91248 0
M  V30 5241 H 494.06 2.10676 -3.30337 0
M  V30 5242 H 495.757 1.82223 -3.57205 0
M  V30 5243 H 492.347 0.558683 -4.24943 0
M  V30 5244 H 496.531 -0.115515 -4.96166 0
M  V30 5245 H 491.787 -1.0481 -6.02349 0
M  V30 5246 H 495.961 -1.71804 -6.74875 0
M  V30 5247 H 493.588 -2.19039 -7.2796 0
M  V30 5248 N 495.163 1.55791 0.238111 0
M  V30 5249 C 496.093 1.94068 1.29846 0
M  V30 5250 C 497.074 0.806726 1.49753 0
M  V30 5251 O 498.259 1.06772 1.62214 0
M  V30 5252 C 495.389 2.24302 2.65153 0
M  V30 5253 C 494.343 3.40032 2.59927 0
M  V30 5254 C 493.669 3.55829 3.99111 0
M  V30 5255 C 494.969 4.75476 2.16148 0
M  V30 5256 H 496.663 2.82887 0.980563 0
M  V30 5257 H 494.209 1.36105 0.470253 0
M  V30 5258 H 496.162 2.4967 3.39475 0
M  V30 5259 H 494.886 1.32318 2.98596 0
M  V30 5260 H 493.545 3.14687 1.88063 0
M  V30 5261 H 493.193 2.6125 4.29834 0
M  V30 5262 H 492.893 4.3366 3.96501 0
M  V30 5263 H 494.417 3.83528 4.7512 0
M  V30 5264 H 495.831 5.00158 2.80205 0
M  V30 5265 H 494.228 5.56472 2.24631 0
M  V30 5266 H 495.298 4.71946 1.11333 0
M  V30 5267 N 496.642 -0.504142 1.49319 0
M  V30 5268 C 497.872 -1.28071 1.62116 0
M  V30 5269 C 498.28 -1.86955 0.290566 0
M  V30 5270 O 497.623 -1.68415 -0.733616 0
M  V30 5271 C 497.685 -2.4521 2.62893 0
M  V30 5272 C 497.349 -2.07218 4.0732 0
M  V30 5273 C 498.346 -1.61375 4.94221 0
M  V30 5274 C 496.031 -2.16949 4.53033 0
M  V30 5275 C 498.025 -1.25763 6.2487 0
M  V30 5276 C 495.712 -1.80949 5.83696 0
M  V30 5277 C 496.71 -1.3543 6.69438 0
M  V30 5278 O 496.398 -0.99915 7.97667 0
M  V30 5279 H 496.13 -0.394763 0.54876 0
M  V30 5280 H 498.684 -0.612118 1.96067 0
M  V30 5281 H 496.914 -3.15134 2.24115 0
M  V30 5282 H 498.603 -3.0724 2.65252 0
M  V30 5283 H 499.369 -1.53306 4.60133 0
M  V30 5284 H 495.248 -2.5133 3.86463 0
M  V30 5285 H 498.792 -0.901631 6.91749 0
M  V30 5286 H 494.689 -1.88667 6.17313 0
M  V30 5287 H 495.457 -1.13089 8.1065 0
M  V30 5288 N 498.12 -1.38341 -0.754957 0
M  V30 5289 C 499.345 -1.37882 -1.5493 0
M  V30 5290 C 499.77 0.0296385 -1.88077 0
M  V30 5291 O 499.128 1.01133 -1.50472 0
M  V30 5292 C 499.176 -2.23996 -2.82592 0
M  V30 5293 O 498.28 -1.65612 -3.77686 0
M  V30 5294 H 497.621 -0.470384 -0.468652 0
M  V30 5295 H 500.151 -1.82084 -0.933082 0
M  V30 5296 H 500.161 -2.37806 -3.3153 0
M  V30 5297 H 498.836 -3.26365 -2.57796 0
M  V30 5298 H 497.413 -1.60936 -3.36384 0
M  V30 5299 N 499.598 0.982988 -1.23187 0
M  V30 5300 C 500.828 1.75666 -1.08743 0
M  V30 5301 C 501.236 1.85662 0.364195 0
M  V30 5302 O 500.579 1.33317 1.26382 0
M  V30 5303 C 500.641 3.20144 -1.63549 0
M  V30 5304 C 500.305 3.33665 -3.12277 0
M  V30 5305 C 501.302 3.20194 -4.096 0
M  V30 5306 C 498.987 3.58397 -3.51933 0
M  V30 5307 C 500.981 3.31256 -5.44563 0
M  V30 5308 C 498.668 3.69098 -4.87042 0
M  V30 5309 C 499.666 3.55537 -5.83166 0
M  V30 5310 O 499.354 3.65864 -7.1582 0
M  V30 5311 H 499.086 0.558194 -0.381307 0
M  V30 5312 H 501.64 1.24387 -1.63454 0
M  V30 5313 H 499.87 3.72659 -1.03256 0
M  V30 5314 H 501.559 3.79262 -1.4462 0
M  V30 5315 H 502.325 3.00987 -3.80305 0
M  V30 5316 H 498.204 3.68025 -2.77631 0
M  V30 5317 H 501.748 3.20588 -6.19572 0
M  V30 5318 H 497.645 3.87814 -5.16014 0
M  V30 5319 H 498.413 3.82675 -7.23534 0
M  V30 5320 N 501.076 1.04316 1.18135 0
M  V30 5321 C 502.009 0.580823 2.20685 0
M  V30 5322 C 502.987 -0.385943 1.57953 0
M  V30 5323 O 504.171 -0.299654 1.86103 0
M  V30 5324 C 501.298 -0.151162 3.38363 0
M  V30 5325 C 500.344 0.769247 4.19505 0
M  V30 5326 S 501.177 2.25352 4.85774 0
M  V30 5327 C 502.333 1.53246 6.0685 0
M  V30 5328 H 502.566 1.44968 2.5956 0
M  V30 5329 H 500.099 0.85434 1.28609 0
M  V30 5330 H 502.057 -0.567315 4.06561 0
M  V30 5331 H 500.718 -0.995936 2.97892 0
M  V30 5332 H 499.911 0.203335 5.0359 0
M  V30 5333 H 499.513 1.12436 3.56699 0
M  V30 5334 H 501.805 0.82689 6.72435 0
M  V30 5335 H 502.748 2.35044 6.67952 0
M  V30 5336 H 503.156 1.0237 5.5514 0
M  V30 5337 N 502.554 -1.34406 0.822964 0
M  V30 5338 C 503.517 -2.2783 0.250271 0
M  V30 5339 C 504.517 -1.50288 -0.571854 0
M  V30 5340 O 505.707 -1.69825 -0.387952 0
M  V30 5341 C 502.839 -3.34663 -0.649137 0
M  V30 5342 H 504.032 -2.79992 1.07444 0
M  V30 5343 H 501.585 -1.44539 0.594829 0
M  V30 5344 H 502.32 -2.87714 -1.49637 0
M  V30 5345 H 502.105 -3.92052 -0.0611199 0
M  V30 5346 H 503.595 -4.04349 -1.04363 0
M  V30 5347 N 504.032 -0.577932 -1.46621 0
M  V30 5348 C 505.262 -0.0670668 -2.06491 0
M  V30 5349 C 505.67 1.24119 -1.42798 0
M  V30 5350 O 505.013 1.76016 -0.525759 0
M  V30 5351 C 505.075 0.177995 -3.59059 0
M  V30 5352 C 504.739 -1.04394 -4.44917 0
M  V30 5353 C 505.736 -1.95479 -4.81751 0
M  V30 5354 C 503.421 -1.26444 -4.86125 0
M  V30 5355 C 505.415 -3.06965 -5.58615 0
M  V30 5356 C 503.102 -2.38237 -5.62749 0
M  V30 5357 C 504.1 -3.28327 -5.98908 0
M  V30 5358 O 503.788 -4.38179 -6.73984 0
M  V30 5359 H 503.52 -0.0523159 -0.673973 0
M  V30 5360 H 506.074 -0.796966 -1.89308 0
M  V30 5361 H 504.304 0.962451 -3.74531 0
M  V30 5362 H 505.993 0.636782 -4.00874 0
M  V30 5363 H 506.759 -1.79657 -4.50498 0
M  V30 5364 H 502.638 -0.572316 -4.57434 0
M  V30 5365 H 506.182 -3.77309 -5.86757 0
M  V30 5366 H 502.079 -2.54023 -5.93416 0
M  V30 5367 H 502.847 -4.36486 -6.92403 0
M  V30 5368 N 505.51 1.54411 -0.315457 0
M  V30 5369 C 506.44 2.27002 0.547039 0
M  V30 5370 C 507.421 1.27492 1.12605 0
M  V30 5371 O 508.606 1.5629 1.15269 0
M  V30 5372 C 505.736 3.02171 1.71201 0
M  V30 5373 C 504.69 4.0895 1.26268 0
M  V30 5374 C 504.016 4.71915 2.51396 0
M  V30 5375 C 505.316 5.20891 0.383419 0
M  V30 5376 H 507.01 2.99343 -0.0584517 0
M  V30 5377 H 504.556 1.4397 -0.0295527 0
M  V30 5378 H 506.509 3.51681 2.32161 0
M  V30 5379 H 505.233 2.27433 2.34397 0
M  V30 5380 H 503.892 3.60312 0.676062 0
M  V30 5381 H 503.54 3.93801 3.12937 0
M  V30 5382 H 503.24 5.44039 2.22026 0
M  V30 5383 H 504.764 5.24195 3.13133 0
M  V30 5384 H 506.178 5.66206 0.899082 0
M  V30 5385 H 504.575 5.99821 0.182857 0
M  V30 5386 H 505.645 4.81324 -0.587821 0
M  V30 5387 N 506.988 0.0434614 1.5754 0
M  V30 5388 C 508.213 -0.645358 1.97104 0
M  V30 5389 C 508.638 -1.64037 0.920521 0
M  V30 5390 O 507.996 -1.80922 -0.11708 0
M  V30 5391 C 508.044 -1.31547 3.35749 0
M  V30 5392 O 507.148 -2.43103 3.33129 0
M  V30 5393 H 506.489 -0.168403 0.64229 0
M  V30 5394 H 509.019 0.109573 2.04306 0
M  V30 5395 H 509.029 -1.66895 3.72304 0
M  V30 5396 H 507.704 -0.586205 4.11748 0
M  V30 5397 H 506.281 -2.0976 3.0831 0
M  V30 5398 N 508.466 -1.55915 -0.229846 0
M  V30 5399 C 509.429 -1.90914 -1.26824 0
M  V30 5400 C 510.429 -0.786999 -1.40225 0
M  V30 5401 O 511.619 -1.05484 -1.38632 0
M  V30 5402 C 508.751 -2.15264 -2.64337 0
M  V30 5403 H 509.944 -2.8378 -0.969998 0
M  V30 5404 H 507.497 -1.49069 -0.4699 0
M  V30 5405 H 508.232 -1.24923 -2.99274 0
M  V30 5406 H 508.017 -2.97005 -2.55989 0
M  V30 5407 H 509.507 -2.43467 -3.39284 0
M  V30 5408 N 509.944 0.496216 -1.49584 0
M  V30 5409 C 510.854 1.62352 -1.69349 0
M  V30 5410 C 511.87 1.64184 -0.576147 0
M  V30 5411 O 513.046 1.82517 -0.85144 0
M  V30 5412 C 510.111 2.98698 -1.76013 0
M  V30 5413 C 509.172 3.07454 -2.99617 0
M  V30 5414 C 508.405 4.37296 -3.05953 0
M  V30 5415 O 508.628 5.2637 -2.19752 0
M  V30 5416 O 507.562 4.51124 -3.9846 0
M  V30 5417 H 511.388 1.48606 -2.64859 0
M  V30 5418 H 508.973 0.673022 -1.33382 0
M  V30 5419 H 510.855 3.79725 -1.82721 0
M  V30 5420 H 509.53 3.12696 -0.836828 0
M  V30 5421 H 508.437 2.25597 -2.98424 0
M  V30 5422 H 509.77 2.98385 -3.91443 0
M  V30 5423 N 511.423 1.38739 0.74761 0
M  V30 5424 C 512.353 1.39173 1.87492 0
M  V30 5425 C 513.334 0.256794 1.6815 0
M  V30 5426 O 514.519 0.460762 1.88655 0
M  V30 5427 C 511.649 1.22197 3.25093 0
M  V30 5428 C 510.603 2.32957 3.59047 0
M  V30 5429 C 509.929 2.01082 4.95449 0
M  V30 5430 C 511.229 3.75237 3.6331 0
M  V30 5431 H 512.923 2.3351 1.87386 0
M  V30 5432 H 510.469 1.12399 0.900134 0
M  V30 5433 H 512.422 1.21124 4.03617 0
M  V30 5434 H 511.146 0.243241 3.25693 0
M  V30 5435 H 509.805 2.33226 2.82845 0
M  V30 5436 H 509.453 1.01678 4.92616 0
M  V30 5437 H 509.153 2.75267 5.19136 0
M  V30 5438 H 510.677 2.01638 5.76346 0
M  V30 5439 H 512.091 3.76966 4.31937 0
M  V30 5440 H 510.488 4.48677 3.98509 0
M  V30 5441 H 511.558 4.07122 2.634 0
M  V30 5442 N 512.901 -0.976442 1.23707 0
M  V30 5443 C 514.148 -1.71827 1.07153 0
M  V30 5444 C 514.476 -1.9053 -0.390982 0
M  V30 5445 O 513.731 -1.45779 -1.30564 0
M  V30 5446 C 514.03 -3.11814 1.74662 0
M  V30 5447 C 513.696 -3.12978 3.24585 0
M  V30 5448 C 512.358 -3.13003 3.6549 0
M  V30 5449 C 514.71 -3.07986 4.20469 0
M  V30 5450 C 512.038 -3.05757 5.00729 0
M  V30 5451 C 514.39 -3.02282 5.55705 0
M  V30 5452 C 513.054 -3.00631 5.95968 0
M  V30 5453 H 512.324 -0.628758 0.392102 0
M  V30 5454 H 514.971 -1.14239 1.53693 0
M  V30 5455 H 513.276 -3.72812 1.20492 0
M  V30 5456 H 514.973 -3.67989 1.59328 0
M  V30 5457 H 511.563 -3.13718 2.92026 0
M  V30 5458 H 515.747 -3.07103 3.89874 0
M  V30 5459 H 511.003 -3.02834 5.31132 0
M  V30 5460 H 515.177 -2.97376 6.29714 0
M  V30 5461 H 512.804 -2.94771 7.00724 0
M  V30 5462 N 514.379 -1.04941 -1.1758 0
M  V30 5463 C 515.329 -0.618378 -2.19454 0
M  V30 5464 C 516.313 0.343813 -1.57184 0
M  V30 5465 O 517.505 0.16145 -1.76262 0
M  V30 5466 C 514.634 0.00803847 -3.43299 0
M  V30 5467 C 513.72 -0.977827 -4.12673 0
M  V30 5468 N 514.111 -2.14826 -4.57912 0
M  V30 5469 C 512.409 -0.805748 -4.38661 0
M  V30 5470 C 513.11 -2.77174 -5.11419 0
M  V30 5471 N 512.086 -2.04989 -5.03468 0
M  V30 5472 H 515.888 -1.51018 -2.52132 0
M  V30 5473 H 513.402 -0.919201 -1.33882 0
M  V30 5474 H 515.399 0.334584 -4.15555 0
M  V30 5475 H 514.059 0.895272 -3.12114 0
M  V30 5476 H 515.07 -2.52673 -4.52081 0
M  V30 5477 H 511.747 0.0306506 -4.17489 0
M  V30 5478 H 513.137 -3.76416 -5.56562 0
M  V30 5479 N 515.857 1.33968 -0.830081 0
M  V30 5480 C 516.787 2.31911 -0.271911 0
M  V30 5481 C 517.768 1.58571 0.61556 0
M  V30 5482 O 518.953 1.86514 0.540946 0
M  V30 5483 C 516.083 3.42737 0.561146 0
M  V30 5484 C 515.037 4.27383 -0.229789 0
M  V30 5485 C 514.363 5.29742 0.726463 0
M  V30 5486 C 515.663 5.02 -1.44197 0
M  V30 5487 H 517.357 2.78844 -1.09025 0
M  V30 5488 H 514.903 1.34061 -0.52571 0
M  V30 5489 H 516.856 4.10276 0.961867 0
M  V30 5490 H 515.58 2.94471 1.41261 0
M  V30 5491 H 514.239 3.61456 -0.611964 0
M  V30 5492 H 513.887 4.77736 1.57408 0
M  V30 5493 H 513.587 5.87255 0.20142 0
M  V30 5494 H 515.111 6.00149 1.12489 0
M  V30 5495 H 516.525 5.62355 -1.11488 0
M  V30 5496 H 514.922 5.69122 -1.90317 0
M  V30 5497 H 515.992 4.31281 -2.2164 0
M  V30 5498 N 517.335 0.585699 1.46312 0
M  V30 5499 C 518.56 0.0762461 2.0726 0
M  V30 5500 C 518.985 -1.22071 1.43109 0
M  V30 5501 O 518.343 -1.73804 0.515942 0
M  V30 5502 C 518.391 -0.0729404 3.60526 0
M  V30 5503 O 517.495 -1.1287 3.96654 0
M  V30 5504 H 516.836 0.0641558 0.660893 0
M  V30 5505 H 519.366 0.809492 1.87905 0
M  V30 5506 H 519.376 -0.278158 4.07051 0
M  V30 5507 H 518.051 0.874188 4.06609 0
M  V30 5508 H 516.628 -0.901703 3.61834 0
M  V30 5509 N 518.813 -1.54241 0.323641 0
M  V30 5510 C 520.061 -2.00174 -0.278359 0
M  V30 5511 C 520.382 -1.2134 -1.52648 0
M  V30 5512 O 519.652 -0.315244 -1.93347 0
M  V30 5513 H 518.232 -0.739463 -0.105845 0
M  V30 5514 H 520.894 -1.89864 0.440204 0
M  V30 5515 H 519.99 -3.07486 -0.5347 0
M  V30 5516 N 520.291 -0.0518155 -1.57515 0
M  V30 5517 C 521.54 0.621286 -1.91893 0
M  V30 5518 C 521.853 1.71966 -0.932052 0
M  V30 5519 O 523.059 2.45096 -1.16791 0
M  V30 5520 C 521.515 1.15641 -3.40816 0
M  V30 5521 C 521.123 0.0901146 -4.47909 0
M  V30 5522 C 522.867 1.80472 -3.84227 0
M  V30 5523 C 520.774 0.638154 -5.87947 0
M  V30 5524 H 519.704 0.235835 -0.716169 0
M  V30 5525 H 522.355 -0.120809 -1.83102 0
M  V30 5526 H 520.737 1.95084 -3.44613 0
M  V30 5527 H 521.911 -0.683525 -4.55702 0
M  V30 5528 H 520.226 -0.460774 -4.13843 0
M  V30 5529 H 522.823 2.22471 -4.86221 0
M  V30 5530 H 523.166 2.65669 -3.20508 0
M  V30 5531 H 523.699 1.07683 -3.82948 0
M  V30 5532 H 520.438 -0.176202 -6.55263 0
M  V30 5533 H 519.958 1.37976 -5.83714 0
M  V30 5534 H 521.637 1.12085 -6.37217 0
M  V30 5535 N 521.769 1.56035 0.221574 0
M  V30 5536 C 522.702 1.87427 1.30178 0
M  V30 5537 C 523.68 0.731658 1.45209 0
M  V30 5538 O 524.864 0.980016 1.61022 0
M  V30 5539 C 521.991 2.08127 2.67209 0
M  V30 5540 C 521.037 3.30813 2.69194 0
M  V30 5541 S 521.87 4.86738 2.23263 0
M  V30 5542 C 523.026 5.10474 3.62171 0
M  V30 5543 H 523.259 2.78756 1.03355 0
M  V30 5544 H 520.792 1.48469 0.423813 0
M  V30 5545 H 522.75 2.20736 3.46101 0
M  V30 5546 H 521.411 1.17595 2.91256 0
M  V30 5547 H 520.604 3.42341 3.6989 0
M  V30 5548 H 520.206 3.1706 1.98366 0
M  V30 5549 H 522.498 4.9937 4.5786 0
M  V30 5550 H 523.441 6.12359 3.55558 0
M  V30 5551 H 523.849 4.38208 3.55857 0
M  V30 5552 N 523.247 -0.488276 1.49845 0
M  V30 5553 C 524.21 -1.57069 1.66919 0
M  V30 5554 C 525.21 -1.51445 0.540479 0
M  V30 5555 O 526.4 -1.5437 0.807188 0
M  V30 5556 C 523.532 -2.96718 1.67844 0
M  V30 5557 H 524.725 -1.43254 2.63474 0
M  V30 5558 H 522.278 -0.713435 1.39068 0
M  V30 5559 H 523.013 -3.15996 0.7292 0
M  V30 5560 H 522.798 -3.02208 2.49826 0
M  V30 5561 H 524.288 -3.75335 1.83066 0
M  V30 5562 N 524.725 -1.39134 -0.740242 0
M  V30 5563 C 525.655 -1.40165 -1.86751 0
M  V30 5564 C 526.636 -0.265708 -1.68012 0
M  V30 5565 O 527.821 -0.47076 -1.88408 0
M  V30 5566 C 524.951 -1.2392 -3.2444 0
M  V30 5567 C 523.905 -2.34858 -3.57807 0
M  V30 5568 C 523.231 -2.03707 -4.94376 0
M  V30 5569 C 524.531 -3.77159 -3.61315 0
M  V30 5570 H 526.225 -2.345 -1.86145 0
M  V30 5571 H 523.771 -1.12875 -0.89416 0
M  V30 5572 H 525.724 -1.23263 -4.02969 0
M  V30 5573 H 524.448 -0.26051 -3.25559 0
M  V30 5574 H 523.107 -2.34723 -2.81604 0
M  V30 5575 H 522.755 -1.04289 -4.9207 0
M  V30 5576 H 522.455 -2.78016 -5.17669 0
M  V30 5577 H 523.979 -2.04691 -5.75268 0
M  V30 5578 H 525.393 -3.79252 -4.29931 0
M  V30 5579 H 523.79 -4.50784 -3.96124 0
M  V30 5580 H 524.86 -4.08513 -2.61238 0
M  V30 5581 N 526.204 0.969867 -1.24223 0
M  V30 5582 C 527.453 1.70687 -1.07466 0
M  V30 5583 C 527.766 1.91736 0.386861 0
M  V30 5584 O 528.972 2.62986 0.674581 0
M  V30 5585 C 527.428 3.07217 -1.87472 0
M  V30 5586 C 527.036 2.94018 -3.3802 0
M  V30 5587 C 528.78 3.84804 -1.79237 0
M  V30 5588 C 526.687 4.25844 -4.10379 0
M  V30 5589 H 525.617 0.640067 -0.398536 0
M  V30 5590 H 528.268 1.08092 -1.48285 0
M  V30 5591 H 526.65 3.70628 -1.39466 0
M  V30 5592 H 527.824 2.39632 -3.9359 0
M  V30 5593 H 526.139 2.29898 -3.47183 0
M  V30 5594 H 528.736 4.82417 -2.30603 0
M  V30 5595 H 529.079 4.09356 -0.757197 0
M  V30 5596 H 529.612 3.28115 -2.24912 0
M  V30 5597 H 526.351 4.06486 -5.14246 0
M  V30 5598 H 525.871 4.80054 -3.59594 0
M  V30 5599 H 527.55 4.94475 -4.17257 0
M  V30 5600 N 527.682 1.05563 1.17022 0
M  V30 5601 C 528.645 0.664098 2.19368 0
M  V30 5602 C 529.645 -0.286358 1.5823 0
M  V30 5603 O 530.835 -0.069728 1.7406 0
M  V30 5604 C 527.967 -0.0239932 3.40892 0
M  V30 5605 H 529.16 1.57 2.55521 0
M  V30 5606 H 526.713 0.849964 1.31169 0
M  V30 5607 H 527.448 -0.942988 3.10287 0
M  V30 5608 H 527.233 0.659351 3.86516 0
M  V30 5609 H 528.723 -0.283909 4.16634 0
M  V30 5610 N 529.16 -1.33526 0.837174 0
M  V30 5611 C 530.385 -2.0258 0.444545 0
M  V30 5612 C 530.81 -1.6258 -0.946006 0
M  V30 5613 O 530.168 -0.817548 -1.6182 0
M  V30 5614 C 530.216 -3.5605 0.571006 0
M  V30 5615 O 529.32 -4.10422 -0.403431 0
M  V30 5616 H 528.661 -0.638866 0.180958 0
M  V30 5617 H 531.191 -1.70462 1.13154 0
M  V30 5618 H 531.201 -4.05488 0.452024 0
M  V30 5619 H 529.876 -3.84509 1.58512 0
M  V30 5620 H 528.453 -3.72113 -0.242147 0
M  V30 5621 N 530.638 -0.59345 -1.46 0
M  V30 5622 C 531.886 -0.082988 -2.0193 0
M  V30 5623 C 532.207 1.28569 -1.46612 0
M  V30 5624 O 531.477 1.84629 -0.654909 0
M  V30 5625 H 530.057 -0.0276882 -0.746487 0
M  V30 5626 H 532.719 -0.771657 -1.78973 0
M  V30 5627 H 531.815 -0.022079 -3.12092 0
M  V30 5628 N 532.116 1.54067 -0.331816 0
M  V30 5629 C 533.362 2.01012 0.268667 0
M  V30 5630 C 533.695 1.2195 1.51136 0
M  V30 5631 O 532.97 0.303972 1.9211 0
M  V30 5632 C 533.253 3.55158 0.59456 0
M  V30 5633 C 533.106 4.4494 -0.659409 0
M  V30 5634 C 534.425 4.16939 1.4089 0
M  V30 5635 H 531.544 0.730698 0.0961756 0
M  V30 5636 H 534.186 1.84593 -0.450031 0
M  V30 5637 H 532.336 3.6928 1.20685 0
M  V30 5638 H 534.008 4.42675 -1.29756 0
M  V30 5639 H 532.251 4.1428 -1.28665 0
M  V30 5640 H 532.922 5.50643 -0.386804 0
M  V30 5641 H 535.398 4.06443 0.891272 0
M  V30 5642 H 534.274 5.24889 1.60569 0
M  V30 5643 H 534.535 3.70798 2.40752 0
M  V30 5644 N 533.594 0.0601682 1.57485 0
M  V30 5645 C 534.84 -0.612501 1.93329 0
M  V30 5646 C 535.173 -1.6996 0.939526 0
M  V30 5647 O 534.448 -1.94472 -0.0330957 0
M  V30 5648 C 534.731 -1.20025 3.39508 0
M  V30 5649 C 534.584 -0.12059 4.49638 0
M  V30 5650 C 535.903 -2.10923 3.86264 0
M  V30 5651 H 533.022 -0.221185 0.703027 0
M  V30 5652 H 535.664 0.123768 1.89596 0
M  V30 5653 H 533.814 -1.82774 3.42821 0
M  V30 5654 H 535.486 0.51185 4.58452 0
M  V30 5655 H 533.729 0.550251 4.30296 0
M  V30 5656 H 534.4 -0.572019 5.49028 0
M  V30 5657 H 536.876 -1.58124 3.84884 0
M  V30 5658 H 535.752 -2.48987 4.8918 0
M  V30 5659 H 536.013 -3.01292 3.23536 0
M  V30 5660 N 535.072 -1.5615 -0.213296 0
M  V30 5661 C 536.005 -1.88115 -1.29182 0
M  V30 5662 C 536.983 -0.739348 -1.44819 0
M  V30 5663 O 538.167 -0.988541 -1.605 0
M  V30 5664 C 535.294 -2.09541 -2.66102 0
M  V30 5665 C 534.34 -3.32236 -2.67436 0
M  V30 5666 S 535.173 -4.87915 -2.20679 0
M  V30 5667 C 536.329 -5.12387 -3.59458 0
M  V30 5668 H 536.562 -2.793 -1.01876 0
M  V30 5669 H 534.095 -1.48692 -0.415934 0
M  V30 5670 H 536.053 -2.22568 -3.44925 0
M  V30 5671 H 534.714 -1.19138 -2.90628 0
M  V30 5672 H 533.907 -3.44297 -3.6807 0
M  V30 5673 H 533.509 -3.18108 -1.96681 0
M  V30 5674 H 535.801 -5.01791 -4.55205 0
M  V30 5675 H 536.744 -6.14236 -3.52306 0
M  V30 5676 H 537.152 -4.40089 -3.53528 0
M  V30 5677 N 536.55 0.480323 -1.50102 0
M  V30 5678 C 537.966 0.813295 -1.37323 0
M  V30 5679 C 538.166 1.97027 -0.422206 0
M  V30 5680 O 537.222 2.5212 0.138563 0
M  V30 5681 C 538.535 1.13404 -2.78496 0
M  V30 5682 C 540.083 1.24104 -2.87345 0
M  V30 5683 C 540.558 1.59497 -4.29331 0
M  V30 5684 N 542.049 1.66507 -4.32238 0
M  V30 5685 C 542.784 1.95378 -5.39087 0
M  V30 5686 N 542.28 2.22333 -6.56155 0
M  V30 5687 N 544.073 1.96803 -5.26522 0
M  V30 5688 H 536.224 -0.282291 -2.10516 0
M  V30 5689 H 538.487 -0.063752 -0.945854 0
M  V30 5690 H 538.193 0.357064 -3.49883 0
M  V30 5691 H 538.067 2.07251 -3.15162 0
M  V30 5692 H 540.454 2.00871 -2.16183 0
M  V30 5693 H 540.535 0.282593 -2.54234 0
M  V30 5694 H 540.179 0.832736 -5.01027 0
M  V30 5695 H 540.109 2.56477 -4.59921 0
M  V30 5696 H 542.6 1.47753 -3.47818 0
M  V30 5697 H 542.913 2.43611 -7.33399 0
M  V30 5698 H 541.258 2.19745 -6.59346 0
M  V30 5699 H 544.449 1.75235 -4.34062 0
M  V30 5700 H 544.622 2.18969 -6.09883 0
M  V30 5701 N 538.028 1.39524 0.732853 0
M  V30 5702 C 539.439 1.32905 1.31122 0
M  V30 5703 C 539.79 -0.00558708 1.96199 0
M  V30 5704 O 538.915 -0.907706 1.96443 0
M  V30 5705 C 539.51 2.40704 2.38426 0
M  V30 5706 C 538.069 2.37599 2.91931 0
M  V30 5707 C 537.216 2.2248 1.65523 0
M  V30 5708 H 540.167 1.49581 0.530207 0
M  V30 5709 H 540.188 2.07616 3.18867 0
M  V30 5710 H 539.7 3.37829 1.91033 0
M  V30 5711 H 537.801 1.44119 3.43599 0
M  V30 5712 H 537.914 3.32538 3.44899 0
M  V30 5713 H 536.278 1.69691 1.8994 0
M  V30 5714 H 537.061 3.21577 1.20178 0
M  V30 5715 N 539.506 -0.963266 1.24736 0
M  V30 5716 C 540.736 -1.73913 1.11524 0
M  V30 5717 C 541.144 -1.86218 -0.334612 0
M  V30 5718 O 540.487 -1.3531 -1.24245 0
M  V30 5719 C 540.549 -3.17501 1.68622 0
M  V30 5720 C 540.213 -3.28655 3.17546 0
M  V30 5721 C 541.21 -3.13637 4.14642 0
M  V30 5722 C 538.895 -3.52753 3.5759 0
M  V30 5723 C 540.889 -3.2255 5.49764 0
M  V30 5724 C 538.576 -3.61303 4.92852 0
M  V30 5725 C 539.574 -3.46214 5.88748 0
M  V30 5726 O 539.262 -3.5443 7.2155 0
M  V30 5727 H 538.994 -0.552057 0.390139 0
M  V30 5728 H 541.548 -1.2177 1.65412 0
M  V30 5729 H 539.778 -3.70969 1.09172 0
M  V30 5730 H 541.467 -3.76914 1.50635 0
M  V30 5731 H 542.233 -2.94899 3.85045 0
M  V30 5732 H 538.112 -3.63561 2.83451 0
M  V30 5733 H 541.656 -3.1069 6.24594 0
M  V30 5734 H 537.553 -3.79556 5.22118 0
M  V30 5735 H 538.321 -3.71116 7.29531 0
M  V30 5736 N 540.985 -1.06182 -1.16461 0
M  V30 5737 C 542.231 -0.779015 -1.87241 0
M  V30 5738 C 542.564 0.692715 -1.81425 0
M  V30 5739 O 541.839 1.5074 -1.22913 0
M  V30 5740 C 542.122 -1.2728 -3.36856 0
M  V30 5741 C 541.975 -2.80821 -3.51368 0
M  V30 5742 C 543.294 -0.879799 -4.31216 0
M  V30 5743 H 540.413 -0.284464 -0.679889 0
M  V30 5744 H 543.055 -1.31755 -1.36896 0
M  V30 5745 H 541.205 -0.814673 -3.79862 0
M  V30 5746 H 542.877 -3.34833 -3.17308 0
M  V30 5747 H 541.12 -3.19606 -2.93316 0
M  V30 5748 H 541.791 -3.10435 -4.56436 0
M  V30 5749 H 544.267 -1.27436 -3.96105 0
M  V30 5750 H 543.143 -1.25278 -5.34412 0
M  V30 5751 H 543.404 0.215372 -4.41575 0
M  V30 5752 N 542.463 1.3308 -0.844243 0
M  V30 5753 C 543.373 2.32876 -0.283922 0
M  V30 5754 C 544.389 1.63589 0.592846 0
M  V30 5755 O 545.565 1.95205 0.495693 0
M  V30 5756 C 542.63 3.42667 0.527283 0
M  V30 5757 C 541.691 4.27664 -0.374394 0
M  V30 5758 C 540.924 5.32212 0.39819 0
M  V30 5759 O 541.147 5.46635 1.62932 0
M  V30 5760 O 540.081 6.01458 -0.2306 0
M  V30 5761 H 543.907 2.82671 -1.11045 0
M  V30 5762 H 541.492 1.36518 -0.606903 0
M  V30 5763 H 543.374 4.09652 0.988078 0
M  V30 5764 H 542.049 2.95079 1.33078 0
M  V30 5765 H 540.956 3.63526 -0.883144 0
M  V30 5766 H 542.289 4.78749 -1.1428 0
M  V30 5767 N 543.941 0.601185 1.45683 0
M  V30 5768 C 544.904 -0.111398 2.28929 0
M  V30 5769 C 545.904 -0.801246 1.39416 0
M  V30 5770 O 547.094 -0.650383 1.61603 0
M  V30 5771 C 544.226 -1.16773 3.20276 0
M  V30 5772 H 545.419 0.620412 2.93413 0
M  V30 5773 H 542.972 0.359946 1.52099 0
M  V30 5774 H 543.707 -1.93051 2.60579 0
M  V30 5775 H 543.492 -0.677358 3.86205 0
M  V30 5776 H 544.982 -1.66698 3.82886 0
M  V30 5777 N 545.419 -1.53889 0.339982 0
M  V30 5778 C 546.367 -2.26391 -0.533822 0
M  V30 5779 C 547.361 -1.28404 -1.10493 0
M  V30 5780 O 548.567 -1.46124 -1.05108 0
M  V30 5781 H 544.942 -0.727385 -0.190828 0
M  V30 5782 H 546.913 -2.98233 0.0997484 0
M  V30 5783 C 545.662 -3.04707 -1.67479 0
M  V30 5784 H 544.985 -3.79934 -1.2446 0
M  V30 5785 H 546.425 -3.58657 -2.26144 0
M  V30 5786 C 544.884 -2.13989 -2.60212 0
M  V30 5787 O 545.414 -1.73361 -3.62366 0
M  V30 5788 N 543.62 -1.79141 -2.28816 0
M  V30 5789 H 543.167 -2.12378 -1.45785 0
M  V30 5790 H 543.125 -1.18725 -2.91121 0
M  V30 5791 N 546.897 -0.0685191 -1.57451 0
M  V30 5792 C 548.146 0.600898 -1.92541 0
M  V30 5793 C 548.459 1.70967 -0.950239 0
M  V30 5794 O 549.665 2.43844 -1.19384 0
M  V30 5795 C 548.121 1.12019 -3.42023 0
M  V30 5796 C 547.729 0.0426028 -4.4798 0
M  V30 5797 C 549.473 1.76386 -3.86119 0
M  V30 5798 C 547.38 0.575759 -5.88591 0
M  V30 5799 H 546.31 0.228225 -0.71863 0
M  V30 5800 H 548.961 -0.140223 -1.82963 0
M  V30 5801 H 547.343 1.91418 -3.46663 0
M  V30 5802 H 548.517 -0.73182 -4.54952 0
M  V30 5803 H 546.832 -0.504642 -4.13331 0
M  V30 5804 H 549.429 2.17302 -4.88553 0
M  V30 5805 H 549.772 2.62255 -3.23308 0
M  V30 5806 H 550.305 1.03615 -3.84069 0
M  V30 5807 H 547.044 -0.245691 -6.55039 0
M  V30 5808 H 546.564 1.31778 -5.85145 0
M  V30 5809 H 548.243 1.0532 -6.3837 0
M  V30 5810 N 548.375 1.56261 0.205012 0
M  V30 5811 C 549.6 1.84491 0.947512 0
M  V30 5812 C 550.025 0.650894 1.76479 0
M  V30 5813 O 549.383 -0.40035 1.76824 0
M  V30 5814 C 549.431 3.10863 1.82747 0
M  V30 5815 O 548.535 2.90719 2.925 0
M  V30 5816 H 547.876 0.607783 0.267386 0
M  V30 5817 H 550.406 2.03485 0.213323 0
M  V30 5818 H 550.416 3.41399 2.23407 0
M  V30 5819 H 549.091 3.97392 1.2269 0
M  V30 5820 H 547.668 2.71457 2.55667 0
M  V30 5821 N 549.853 -0.472356 1.50355 0
M  V30 5822 C 550.803 -1.56809 1.65514 0
M  V30 5823 C 551.787 -1.5261 0.509801 0
M  V30 5824 O 552.979 -1.59655 0.764145 0
M  V30 5825 C 550.108 -2.9526 1.75146 0
M  V30 5826 C 549.194 -3.04348 2.95353 0
M  V30 5827 N 549.585 -2.83253 4.19048 0
M  V30 5828 C 547.883 -3.35482 2.93884 0
M  V30 5829 C 548.584 -2.97273 5.00003 0
M  V30 5830 N 547.56 -3.27418 4.33934 0
M  V30 5831 H 551.362 -1.39197 2.58846 0
M  V30 5832 H 548.876 -0.67906 1.47521 0
M  V30 5833 H 550.873 -3.74044 1.8411 0
M  V30 5834 H 549.533 -3.1392 0.829717 0
M  V30 5835 H 550.544 -2.5886 4.48567 0
M  V30 5836 H 547.221 -3.60138 2.11204 0
M  V30 5837 H 548.611 -2.85214 6.08361 0
M  V30 5838 N 551.331 -1.39911 -0.725443 0
M  V30 5839 C 552.278 -1.39393 -1.83952 0
M  V30 5840 C 553.248 -0.252249 -1.64173 0
M  V30 5841 O 554.433 -0.44882 -1.85446 0
M  V30 5842 C 551.573 -1.25262 -3.21564 0
M  V30 5843 C 550.686 -2.49054 -3.52982 0
M  V30 5844 C 549.821 -2.27439 -4.80047 0
M  V30 5845 C 548.86 -3.46857 -5.04338 0
M  V30 5846 N 547.997 -3.24499 -6.22611 0
M  V30 5847 H 552.837 -2.34622 -1.83729 0
M  V30 5848 H 550.374 -1.16537 -0.897636 0
M  V30 5849 H 552.332 -1.15077 -4.01015 0
M  V30 5850 H 550.962 -0.33657 -3.21041 0
M  V30 5851 H 550.014 -2.69805 -2.6816 0
M  V30 5852 H 551.326 -3.37973 -3.66846 0
M  V30 5853 H 550.48 -2.14551 -5.67497 0
M  V30 5854 H 549.219 -1.35929 -4.68374 0
M  V30 5855 H 548.224 -3.60232 -4.15346 0
M  V30 5856 H 549.449 -4.3928 -5.17889 0
M  V30 5857 H 547.395 -2.35663 -6.12208 0
M  V30 5858 H 547.312 -4.06978 -6.37106 0
M  V30 5859 H 548.58 -3.15325 -7.12875 0
M  V30 5860 N 552.809 0.956637 -1.25245 0
M  V30 5861 C 554.034 1.74104 -1.12706 0
M  V30 5862 C 554.459 1.85436 0.315429 0
M  V30 5863 O 553.817 1.33334 1.22848 0
M  V30 5864 C 553.865 3.1338 -1.78396 0
M  V30 5865 O 552.969 3.98485 -1.06224 0
M  V30 5866 H 552.31 0.53476 -0.393609 0
M  V30 5867 H 554.84 1.19924 -1.65769 0
M  V30 5868 H 554.85 3.6385 -1.846 0
M  V30 5869 H 553.525 3.04448 -2.83345 0
M  V30 5870 H 552.102 3.56952 -1.07886 0
M  V30 5871 N 554.287 1.06798 1.15896 0
M  V30 5872 C 555.237 0.653213 2.18443 0
M  V30 5873 C 556.221 -0.318763 1.57711 0
M  V30 5874 O 557.413 -0.133388 1.76497 0
M  V30 5875 C 554.542 0.0465785 3.43268 0
M  V30 5876 C 553.628 1.04336 4.11066 0
M  V30 5877 N 554.019 2.22084 4.54436 0
M  V30 5878 C 552.317 0.875433 4.37324 0
M  V30 5879 C 553.018 2.85276 5.06944 0
M  V30 5880 N 551.994 2.12973 5.00143 0
M  V30 5881 H 555.796 1.55011 2.49698 0
M  V30 5882 H 553.31 0.940384 1.32403 0
M  V30 5883 H 555.307 -0.26843 4.16035 0
M  V30 5884 H 553.967 -0.845504 3.13499 0
M  V30 5885 H 554.978 2.59833 4.48004 0
M  V30 5886 H 551.655 0.0357721 4.17485 0
M  V30 5887 H 553.045 3.85223 5.50503 0
M  V30 5888 N 555.766 -1.3263 0.851289 0
M  V30 5889 C 556.994 -2.01563 0.466899 0
M  V30 5890 C 557.409 -1.63996 -0.935447 0
M  V30 5891 O 556.766 -0.85957 -1.6099 0
M  V30 5892 C 556.817 -3.56613 0.592433 0
M  V30 5893 O 556.538 -3.92828 1.93954 0
M  V30 5894 C 558.039 -4.42818 0.206612 0
M  V30 5895 H 555.259 -0.645307 0.183902 0
M  V30 5896 H 557.803 -1.69285 1.1473 0
M  V30 5897 H 555.958 -3.87379 -0.0401936 0
M  V30 5898 H 556.372 -4.87545 1.9339 0
M  V30 5899 H 557.846 -5.50918 0.345462 0
M  V30 5900 H 558.323 -4.30844 -0.85264 0
M  V30 5901 H 558.929 -4.17434 0.814176 0
M  V30 5902 N 557.244 -0.608902 -1.45362 0
M  V30 5903 C 558.472 -0.111013 -2.06602 0
M  V30 5904 C 558.887 1.20516 -1.45332 0
M  V30 5905 O 558.244 1.73437 -0.567978 0
M  V30 5906 C 558.295 0.033688 -3.61484 0
M  V30 5907 O 558.016 -1.23041 -4.20467 0
M  V30 5908 C 559.517 0.562882 -4.39712 0
M  V30 5909 H 556.737 -0.0694453 -0.667397 0
M  V30 5910 H 559.281 -0.837008 -1.86586 0
M  V30 5911 H 557.436 0.710016 -3.80838 0
M  V30 5912 H 557.85 -1.06094 -5.13658 0
M  V30 5913 H 559.324 0.613213 -5.48583 0
M  V30 5914 H 559.801 1.58543 -4.09586 0
M  V30 5915 H 560.407 -0.0794454 -4.25226 0
M  V30 5916 N 558.722 1.53707 -0.348139 0
M  V30 5917 C 559.971 2.0017 0.247992 0
M  V30 5918 C 560.284 1.23983 1.51286 0
M  V30 5919 O 561.49 1.60946 2.18652 0
M  V30 5920 C 559.946 3.56515 0.492459 0
M  V30 5921 C 559.554 4.41562 -0.756777 0
M  V30 5922 C 561.298 4.11381 1.0472 0
M  V30 5923 C 559.205 5.89426 -0.482856 0
M  V30 5924 H 558.135 0.747806 0.0964452 0
M  V30 5925 H 560.786 1.77532 -0.464179 0
M  V30 5926 H 559.168 3.75236 1.26545 0
M  V30 5927 H 560.342 4.34615 -1.53122 0
M  V30 5928 H 558.657 3.97711 -1.23348 0
M  V30 5929 H 561.254 5.19468 1.26717 0
M  V30 5930 H 561.597 3.64885 2.00411 0
M  V30 5931 H 562.13 3.96389 0.334801 0
M  V30 5932 H 558.869 6.40164 -1.40962 0
M  V30 5933 H 558.389 5.99264 0.253416 0
M  V30 5934 H 560.068 6.4692 -0.101816 0
M  V30 5935 N 560.2 0.0768682 1.57412 0
M  V30 5936 C 561.147 -0.888577 2.13009 0
M  V30 5937 C 562.117 -1.29198 1.0439 0
M  V30 5938 O 563.302 -1.37694 1.3208 0
M  V30 5939 C 560.442 -2.14899 2.70023 0
M  V30 5940 C 559.555 -1.79777 3.92816 0
M  V30 5941 C 558.69 -3.00467 4.38056 0
M  V30 5942 C 557.729 -2.61385 5.53484 0
M  V30 5943 N 556.866 -3.74851 5.93659 0
M  V30 5944 H 561.706 -0.407593 2.95199 0
M  V30 5945 H 559.243 -0.189534 1.45874 0
M  V30 5946 H 561.201 -2.88688 3.0119 0
M  V30 5947 H 559.831 -2.60529 1.9059 0
M  V30 5948 H 558.883 -0.960301 3.68079 0
M  V30 5949 H 560.195 -1.47027 4.76639 0
M  V30 5950 H 559.349 -3.82529 4.7091 0
M  V30 5951 H 558.088 -3.36413 3.53097 0
M  V30 5952 H 557.093 -1.77746 5.20275 0
M  V30 5953 H 558.318 -2.26603 6.40178 0
M  V30 5954 H 556.264 -4.1055 5.11649 0
M  V30 5955 H 556.181 -3.45887 6.72234 0
M  V30 5956 H 557.449 -4.57477 6.31138 0
M  V30 5957 N 561.678 -1.56367 -0.196722 0
M  V30 5958 C 562.908 -1.84371 -0.932254 0
M  V30 5959 C 563.316 -0.657013 -1.77426 0
M  V30 5960 O 562.659 0.383576 -1.79651 0
M  V30 5961 C 562.721 -3.06454 -1.87952 0
M  V30 5962 C 562.385 -4.40425 -1.21962 0
M  V30 5963 C 563.382 -5.16457 -0.597343 0
M  V30 5964 C 561.067 -4.8716 -1.22396 0
M  V30 5965 C 563.061 -6.37399 0.0117913 0
M  V30 5966 C 560.748 -6.08038 -0.610995 0
M  V30 5967 C 561.746 -6.83 0.00580487 0
M  V30 5968 O 561.434 -8.01589 0.609173 0
M  V30 5969 H 561.166 -0.616377 -0.277589 0
M  V30 5970 H 563.72 -2.04329 -0.209452 0
M  V30 5971 H 561.95 -2.82377 -2.64197 0
M  V30 5972 H 563.639 -3.21118 -2.48271 0
M  V30 5973 H 564.405 -4.81445 -0.586142 0
M  V30 5974 H 560.284 -4.2877 -1.69345 0
M  V30 5975 H 563.828 -6.9585 0.493836 0
M  V30 5976 H 559.725 -6.42519 -0.619693 0
M  V30 5977 H 560.493 -8.16935 0.505919 0
M  V30 5978 N 563.156 0.464375 -1.50603 0
M  V30 5979 C 564.403 1.21596 -1.61928 0
M  V30 5980 C 564.731 1.91804 -0.322737 0
M  V30 5981 O 563.986 1.83065 0.691776 0
M  V30 5982 C 564.285 2.278 -2.75394 0
M  V30 5983 C 563.951 1.74797 -4.1564 0
M  V30 5984 C 562.613 1.60063 -4.53799 0
M  V30 5985 C 564.965 1.35548 -5.03266 0
M  V30 5986 C 562.293 1.04514 -5.77316 0
M  V30 5987 C 564.645 0.814381 -6.27336 0
M  V30 5988 C 563.309 0.653726 -6.64291 0
M  V30 5989 H 562.579 0.444951 -0.592536 0
M  V30 5990 H 565.226 0.510964 -1.84557 0
M  V30 5991 H 563.531 3.04233 -2.46879 0
M  V30 5992 H 565.228 2.85723 -2.81359 0
M  V30 5993 H 561.818 1.87234 -3.8554 0
M  V30 5994 H 566.002 1.45763 -4.74412 0
M  V30 5995 H 561.258 0.908186 -6.04617 0
M  V30 5996 H 565.432 0.501626 -6.94591 0
M  V30 5997 H 563.059 0.22114 -7.59878 0
M  V30 5998 N 564.634 1.40294 0.718013 0
M  V30 5999 C 565.564 1.43118 1.84498 0
M  V30 6000 C 566.545 0.292403 1.67568 0
M  V30 6001 O 567.73 0.500675 1.87635 0
M  V30 6002 C 564.86 1.29065 3.22427 0
M  V30 6003 C 563.814 2.40521 3.54025 0
M  V30 6004 C 563.14 2.11546 4.91073 0
M  V30 6005 C 564.44 3.82859 3.55269 0
M  V30 6006 H 566.134 2.37432 1.82391 0
M  V30 6007 H 563.68 1.14283 0.87609 0
M  V30 6008 H 565.633 1.29658 4.00957 0
M  V30 6009 H 564.357 0.312271 3.25104 0
M  V30 6010 H 563.016 2.39173 2.77834 0
M  V30 6011 H 562.664 1.12104 4.90348 0
M  V30 6012 H 562.364 2.86216 5.1318 0
M  V30 6013 H 563.888 2.13817 5.71939 0
M  V30 6014 H 565.302 3.86044 4.23843 0
M  V30 6015 H 563.699 4.57029 3.88902 0
M  V30 6016 H 564.769 4.12617 2.54706 0
M  V30 6017 N 566.112 -0.949982 1.2575 0
M  V30 6018 C 567.059 -2.04738 1.06541 0
M  V30 6019 C 568.029 -1.66078 -0.0268818 0
M  V30 6020 O 569.214 -1.90348 0.131196 0
M  V30 6021 C 566.354 -3.38027 0.695127 0
M  V30 6022 C 565.467 -3.89776 1.86276 0
M  V30 6023 C 564.602 -5.11411 1.4364 0
M  V30 6024 C 563.641 -5.554 2.57287 0
M  V30 6025 N 562.778 -6.68244 2.15395 0
M  V30 6026 H 567.618 -2.20502 2.00457 0
M  V30 6027 H 565.155 -1.0805 0.998178 0
M  V30 6028 H 567.113 -4.14641 0.461375 0
M  V30 6029 H 565.743 -3.22135 -0.207046 0
M  V30 6030 H 564.795 -3.0964 2.20969 0
M  V30 6031 H 566.107 -4.18368 2.71606 0
M  V30 6032 H 565.261 -5.95457 1.16257 0
M  V30 6033 H 564 -4.84545 0.553879 0
M  V30 6034 H 563.005 -4.69916 2.85409 0
M  V30 6035 H 564.23 -5.84272 3.46125 0
M  V30 6036 H 562.176 -6.43078 1.29565 0
M  V30 6037 H 562.093 -6.96377 2.94272 0
M  V30 6038 H 563.361 -7.55687 1.91201 0
M  V30 6039 N 567.59 -1.07411 -1.15328 0
M  V30 6040 C 568.523 -0.63913 -2.19067 0
M  V30 6041 C 569.501 0.343929 -1.58921 0
M  V30 6042 O 570.685 0.250207 -1.86832 0
M  V30 6043 C 567.812 0.0613977 -3.38644 0
M  V30 6044 C 566.858 -0.880201 -4.17318 0
M  V30 6045 S 567.691 -2.38152 -4.79629 0
M  V30 6046 C 568.847 -1.69281 -6.02573 0
M  V30 6047 H 569.08 -1.51799 -2.55626 0
M  V30 6048 H 566.613 -0.888138 -1.26299 0
M  V30 6049 H 568.571 0.459323 -4.07922 0
M  V30 6050 H 567.232 0.916605 -3.00428 0
M  V30 6051 H 566.425 -0.336781 -5.02874 0
M  V30 6052 H 566.027 -1.21854 -3.53592 0
M  V30 6053 H 568.319 -1.00488 -6.70006 0
M  V30 6054 H 569.262 -2.52671 -6.61485 0
M  V30 6055 H 569.67 -1.17053 -5.52231 0
M  V30 6056 N 569.068 1.32177 -0.85831 0
M  V30 6057 C 570.314 1.97813 -0.47346 0
M  V30 6058 C 570.669 1.66674 0.961122 0
M  V30 6059 O 569.962 0.94657 1.66585 0
M  V30 6060 C 570.156 3.51372 -0.653658 0
M  V30 6061 C 569.985 3.97433 -2.1042 0
M  V30 6062 C 568.755 4.24338 -2.74345 0
M  V30 6063 C 570.953 4.12233 -3.0752 0
M  V30 6064 N 568.935 4.56672 -4.10272 0
M  V30 6065 C 570.306 4.48146 -4.28445 0
M  V30 6066 C 572.361 3.94577 -3.03667 0
M  V30 6067 C 571.064 4.68246 -5.4602 0
M  V30 6068 C 573.09 4.15864 -4.20489 0
M  V30 6069 C 572.452 4.52098 -5.40173 0
M  V30 6070 H 568.551 0.749808 -0.222061 0
M  V30 6071 H 571.135 1.59927 -1.11047 0
M  V30 6072 H 569.306 3.88372 -0.0463267 0
M  V30 6073 H 571.038 4.03998 -0.238343 0
M  V30 6074 H 567.793 4.16544 -2.25362 0
M  V30 6075 H 568.217 4.77019 -4.80398 0
M  V30 6076 H 572.859 3.65662 -2.12252 0
M  V30 6077 H 570.577 4.96014 -6.37962 0
M  V30 6078 H 574.163 4.03702 -4.18947 0
M  V30 6079 H 573.043 4.68238 -6.29065 0
M  V30 6080 N 570.547 0.616602 1.45037 0
M  V30 6081 C 571.772 0.120192 2.07051 0
M  V30 6082 C 572.197 -1.19008 1.45666 0
M  V30 6083 O 571.555 -1.7267 0.552692 0
M  V30 6084 C 571.603 0.00354901 3.606 0
M  V30 6085 O 570.707 -1.04431 3.98958 0
M  V30 6086 H 570.048 0.0781599 0.659384 0
M  V30 6087 H 572.578 0.849167 1.86146 0
M  V30 6088 H 572.588 -0.191754 4.07549 0
M  V30 6089 H 571.263 0.960239 4.04663 0
M  V30 6090 H 569.84 -0.824749 3.63665 0
M  V30 6091 N 572.025 -1.5352 0.356285 0
M  V30 6092 C 573.25 -2.06007 -0.239961 0
M  V30 6093 C 573.675 -1.22872 -1.42422 0
M  V30 6094 O 573.033 -0.245516 -1.7963 0
M  V30 6095 C 573.081 -3.5522 -0.620587 0
M  V30 6096 O 572.185 -3.74864 -1.71902 0
M  V30 6097 H 571.526 -0.662961 -0.0371377 0
M  V30 6098 H 574.056 -1.98033 0.514194 0
M  V30 6099 H 574.066 -3.98081 -0.894197 0
M  V30 6100 H 572.741 -4.15175 0.245407 0
M  V30 6101 H 571.318 -3.43904 -1.44169 0
M  V30 6102 N 573.503 -0.0852151 -1.57369 0
M  V30 6103 C 574.749 0.581666 -1.94279 0
M  V30 6104 C 575.082 1.68444 -0.966446 0
M  V30 6105 O 574.357 1.945 0.00215277 0
M  V30 6106 C 574.64 1.14609 -3.41375 0
M  V30 6107 C 574.493 0.0490414 -4.49773 0
M  V30 6108 C 575.812 2.04751 -3.8957 0
M  V30 6109 H 572.931 0.209972 -0.706456 0
M  V30 6110 H 575.573 -0.153915 -1.89376 0
M  V30 6111 H 573.723 1.77297 -3.45685 0
M  V30 6112 H 575.395 -0.584721 -4.57579 0
M  V30 6113 H 573.638 -0.618638 -4.29366 0
M  V30 6114 H 574.309 0.484601 -5.49869 0
M  V30 6115 H 576.785 1.51981 -3.87351 0
M  V30 6116 H 575.661 2.41173 -4.93079 0
M  V30 6117 H 575.922 2.96107 -3.28288 0
M  V30 6118 N 574.981 1.5647 0.188427 0
M  V30 6119 C 576.206 1.85486 0.927891 0
M  V30 6120 C 576.631 0.669575 1.75779 0
M  V30 6121 O 575.989 -0.381573 1.77239 0
M  V30 6122 C 576.037 3.12784 1.7944 0
M  V30 6123 O 575.141 2.93805 2.894 0
M  V30 6124 H 574.482 0.610585 0.260925 0
M  V30 6125 H 577.012 2.037 0.191729 0
M  V30 6126 H 577.022 3.43749 2.19774 0
M  V30 6127 H 575.697 3.98671 1.18468 0
M  V30 6128 H 574.274 2.74153 2.52774 0
M  V30 6129 N 576.459 -0.456382 1.50847 0
M  V30 6130 C 577.369 -1.57805 1.73594 0
M  V30 6131 C 578.385 -1.62599 0.619476 0
M  V30 6132 O 579.561 -1.80195 0.899532 0
M  V30 6133 C 576.626 -2.93926 1.8387 0
M  V30 6134 C 575.687 -2.99402 3.07663 0
M  V30 6135 C 574.92 -4.29031 3.1744 0
M  V30 6136 O 575.143 -5.20358 2.33631 0
M  V30 6137 O 574.077 -4.40401 4.10281 0
M  V30 6138 H 577.903 -1.41531 2.68705 0
M  V30 6139 H 575.488 -0.637422 1.3512 0
M  V30 6140 H 577.37 -3.74747 1.92725 0
M  V30 6141 H 576.045 -3.10368 0.91944 0
M  V30 6142 H 574.952 -2.17606 3.043 0
M  V30 6143 H 576.285 -2.87901 3.99216 0
M  V30 6144 N 577.937 -1.40673 -0.710563 0
M  V30 6145 C 579.165 -1.42547 -1.4996 0
M  V30 6146 C 579.58 -0.0265485 -1.88781 0
M  V30 6147 O 578.937 0.950694 -1.55782 0
M  V30 6148 C 578.988 -2.32071 -2.77173 0
M  V30 6149 O 578.709 -3.66518 -2.39992 0
M  V30 6150 C 580.21 -2.42591 -3.71032 0
M  V30 6151 H 577.43 -0.486025 -0.462623 0
M  V30 6152 H 579.974 -1.84783 -0.876102 0
M  V30 6153 H 578.129 -1.93184 -3.35795 0
M  V30 6154 H 578.543 -4.14115 -3.21884 0
M  V30 6155 H 580.017 -3.09429 -4.57119 0
M  V30 6156 H 580.494 -1.4525 -4.14486 0
M  V30 6157 H 581.1 -2.82051 -3.18319 0
M  V30 6158 N 579.415 0.9433 -1.26252 0
M  V30 6159 C 580.345 2.05902 -1.10122 0
M  V30 6160 C 581.326 1.70099 -0.00700552 0
M  V30 6161 O 582.511 1.93377 -0.178641 0
M  V30 6162 C 579.641 3.39516 -0.731175 0
M  V30 6163 C 578.595 3.89372 -1.77688 0
M  V30 6164 C 577.921 5.19613 -1.26122 0
M  V30 6165 C 579.221 4.14489 -3.17799 0
M  V30 6166 H 580.915 2.19655 -2.03451 0
M  V30 6167 H 578.461 1.05548 -0.979576 0
M  V30 6168 H 580.414 4.17031 -0.605215 0
M  V30 6169 H 579.138 3.25733 0.23782 0
M  V30 6170 H 577.797 3.14036 -1.89148 0
M  V30 6171 H 577.445 5.02208 -0.282128 0
M  V30 6172 H 577.145 5.53939 -1.96023 0
M  V30 6173 H 578.669 5.99713 -1.14789 0
M  V30 6174 H 580.083 4.82625 -3.09428 0
M  V30 6175 H 578.48 4.60094 -3.85271 0
M  V30 6176 H 579.55 3.20347 -3.64014 0
M  V30 6177 N 580.893 1.08022 1.14757 0
M  V30 6178 C 582.142 0.802468 1.8505 0
M  V30 6179 C 582.455 -0.674061 1.83619 0
M  V30 6180 O 583.661 -1.06683 2.49662 0
M  V30 6181 C 582.117 1.38551 3.32162 0
M  V30 6182 C 581.725 2.89354 3.42021 0
M  V30 6183 C 583.469 1.18608 4.07594 0
M  V30 6184 C 581.376 3.40815 4.83321 0
M  V30 6185 H 580.306 0.296518 0.693248 0
M  V30 6186 H 582.957 1.30114 1.29393 0
M  V30 6187 H 581.339 0.814556 3.87532 0
M  V30 6188 H 582.513 3.52552 2.96722 0
M  V30 6189 H 580.828 3.08165 2.80041 0
M  V30 6190 H 583.425 1.54525 5.11885 0
M  V30 6191 H 583.768 0.125599 4.1611 0
M  V30 6192 H 584.301 1.72375 3.58513 0
M  V30 6193 H 581.04 4.46418 4.79991 0
M  V30 6194 H 580.56 2.82374 5.29174 0
M  V30 6195 H 582.239 3.37171 5.522 0
M  V30 6196 N 582.371 -1.3172 0.865308 0
M  V30 6197 C 583.618 -1.96876 0.473931 0
M  V30 6198 C 583.946 -1.68425 -0.972786 0
M  V30 6199 O 583.201 -0.970742 -1.69927 0
M  V30 6200 C 583.5 -3.5102 0.672283 0
M  V30 6201 C 583.166 -3.9948 2.09108 0
M  V30 6202 C 581.828 -4.12425 2.4791 0
M  V30 6203 C 584.18 -4.2503 3.0166 0
M  V30 6204 C 581.508 -4.48267 3.78515 0
M  V30 6205 C 583.86 -4.62335 4.31774 0
M  V30 6206 C 582.524 -4.73486 4.70497 0
M  V30 6207 H 581.794 -0.72042 0.173424 0
M  V30 6208 H 584.441 -1.56937 1.0974 0
M  V30 6209 H 582.746 -3.91785 -0.034356 0
M  V30 6210 H 584.443 -3.99475 0.349353 0
M  V30 6211 H 581.033 -3.89898 1.77981 0
M  V30 6212 H 585.217 -4.14529 2.7291 0
M  V30 6213 H 580.473 -4.55097 4.08285 0
M  V30 6214 H 584.647 -4.81058 5.03543 0
M  V30 6215 H 582.274 -5.01016 5.71741 0
M  V30 6216 N 583.85 -0.624285 -1.44708 0
M  V30 6217 C 585.099 -0.123539 -2.01321 0
M  V30 6218 C 585.412 1.25966 -1.49639 0
M  V30 6219 O 586.618 1.85405 -1.98336 0
M  V30 6220 C 585.074 -0.170124 -3.59498 0
M  V30 6221 C 584.682 -1.55421 -4.20176 0
M  V30 6222 C 586.426 0.274513 -4.23611 0
M  V30 6223 C 584.332 -1.55628 -5.70556 0
M  V30 6224 H 583.263 -0.0424183 -0.752806 0
M  V30 6225 H 585.913 -0.782076 -1.65999 0
M  V30 6226 H 584.296 0.555385 -3.92086 0
M  V30 6227 H 585.47 -2.30276 -3.99136 0
M  V30 6228 H 583.784 -1.94235 -3.68323 0
M  V30 6229 H 586.382 0.292402 -5.339 0
M  V30 6230 H 586.725 1.3005 -3.95465 0
M  V30 6231 H 587.258 -0.398275 -3.95801 0
M  V30 6232 H 583.997 -2.56041 -6.03426 0
M  V30 6233 H 583.517 -0.850563 -5.93739 0
M  V30 6234 H 585.196 -1.28721 -6.34066 0
M  V30 6235 N 585.328 1.53329 -0.364422 0
M  V30 6236 C 586.575 2.01239 0.225634 0
M  V30 6237 C 586.903 1.25172 1.48869 0
M  V30 6238 O 586.158 0.333289 1.92841 0
M  V30 6239 C 586.457 3.52911 0.564661 0
M  V30 6240 C 586.123 4.46837 -0.603936 0
M  V30 6241 C 584.785 4.72234 -0.924585 0
M  V30 6242 C 587.137 5.02409 -1.38691 0
M  V30 6243 C 584.465 5.50454 -2.0302 0
M  V30 6244 C 586.817 5.81836 -2.48293 0
M  V30 6245 C 585.481 6.0552 -2.80894 0
M  V30 6246 H 584.751 0.736386 0.0825654 0
M  V30 6247 H 587.398 1.84948 -0.496645 0
M  V30 6248 H 585.703 3.67144 1.36794 0
M  V30 6249 H 587.4 3.87455 1.03344 0
M  V30 6250 H 583.99 4.27217 -0.343983 0
M  V30 6251 H 588.174 4.82735 -1.15243 0
M  V30 6252 H 583.43 5.67024 -2.28678 0
M  V30 6253 H 587.604 6.23905 -3.0938 0
M  V30 6254 H 585.231 6.65916 -3.66688 0
M  V30 6255 N 586.806 0.0935595 1.57322 0
M  V30 6256 C 587.736 -0.863062 2.16964 0
M  V30 6257 C 588.717 -1.29528 1.10256 0
M  V30 6258 O 589.902 -1.36245 1.38387 0
M  V30 6259 C 587.032 -2.12276 2.74875 0
M  V30 6260 C 585.986 -1.82921 3.86942 0
M  V30 6261 C 585.312 -3.15707 4.31548 0
M  V30 6262 C 586.612 -1.11737 5.10208 0
M  V30 6263 H 588.306 -0.366145 2.97153 0
M  V30 6264 H 585.852 -0.174673 1.42937 0
M  V30 6265 H 587.805 -2.79634 3.1525 0
M  V30 6266 H 586.529 -2.64248 1.91938 0
M  V30 6267 H 585.188 -1.17961 3.47103 0
M  V30 6268 H 584.836 -3.65563 3.45504 0
M  V30 6269 H 584.536 -2.96849 5.07104 0
M  V30 6270 H 586.06 -3.84226 4.74555 0
M  V30 6271 H 587.474 -1.69203 5.47762 0
M  V30 6272 H 585.871 -1.03064 5.91183 0
M  V30 6273 H 586.941 -0.0998818 4.84797 0
M  V30 6274 N 588.284 -1.56567 -0.180126 0
M  V30 6275 C 589.532 -1.81133 -0.896392 0
M  V30 6276 C 589.853 -0.669114 -1.83161 0
M  V30 6277 O 589.123 0.311616 -1.93406 0
M  V30 6278 H 587.703 -0.668172 -0.333999 0
M  V30 6279 H 590.365 -1.94048 -0.182051 0
M  V30 6280 H 589.461 -2.74854 -1.47857 0
M  V30 6281 N 589.762 0.448376 -1.51087 0
M  V30 6282 C 591.008 1.20049 -1.6345 0
M  V30 6283 C 591.341 1.91121 -0.344444 0
M  V30 6284 O 590.616 1.83125 0.655396 0
M  V30 6285 C 590.899 2.22624 -2.83038 0
M  V30 6286 C 590.752 1.55708 -4.21989 0
M  V30 6287 C 592.071 3.23718 -2.98152 0
M  V30 6288 H 589.19 0.435085 -0.59487 0
M  V30 6289 H 591.832 0.491183 -1.83541 0
M  V30 6290 H 589.982 2.83117 -2.66039 0
M  V30 6291 H 591.654 0.986367 -4.50631 0
M  V30 6292 H 589.897 0.859647 -4.25197 0
M  V30 6293 H 590.568 2.30357 -5.01637 0
M  V30 6294 H 593.044 2.73269 -3.13788 0
M  V30 6295 H 591.92 3.92795 -3.83411 0
M  V30 6296 H 592.181 3.89179 -2.09743 0
M  V30 6297 N 591.24 1.41047 0.703093 0
M  V30 6298 C 592.465 1.43537 1.49706 0
M  V30 6299 C 592.89 0.0401853 1.88057 0
M  V30 6300 O 592.248 -0.954785 1.54122 0
M  V30 6301 C 592.296 2.3433 2.74084 0
M  V30 6302 O 591.4 1.79515 3.71279 0
M  V30 6303 H 590.741 0.487454 0.450871 0
M  V30 6304 H 593.271 1.85422 0.86486 0
M  V30 6305 H 593.281 2.49947 3.22476 0
M  V30 6306 H 591.956 3.35708 2.45506 0
M  V30 6307 H 590.533 1.7331 3.30179 0
M  V30 6308 N 592.718 -0.936591 1.26751 0
M  V30 6309 C 593.946 -1.71758 1.15355 0
M  V30 6310 C 594.361 -1.86549 -0.290683 0
M  V30 6311 O 593.718 -1.37616 -1.19868 0
M  V30 6312 C 593.769 -3.12193 1.82258 0
M  V30 6313 O 593.49 -2.98105 3.21038 0
M  V30 6314 C 594.991 -4.06485 1.76875 0
M  V30 6315 H 592.211 -0.537636 0.401483 0
M  V30 6316 H 594.755 -1.17382 1.67457 0
M  V30 6317 H 592.91 -3.63456 1.34083 0
M  V30 6318 H 593.324 -3.86824 3.54214 0
M  V30 6319 H 594.798 -5.02569 2.28316 0
M  V30 6320 H 595.275 -4.32986 0.736216 0
M  V30 6321 H 595.881 -3.61144 2.24623 0
M  V30 6322 N 594.196 -1.08629 -1.14182 0
M  V30 6323 C 595.442 -0.818556 -1.85546 0
M  V30 6324 C 595.775 0.654076 -1.82854 0
M  V30 6325 O 595.05 1.48099 -1.26083 0
M  V30 6326 C 595.333 -1.34397 -3.3408 0
M  V30 6327 C 595.186 -2.8821 -3.45333 0
M  V30 6328 C 596.505 -0.971069 -4.29253 0
M  V30 6329 H 593.624 -0.298821 -0.673702 0
M  V30 6330 H 596.266 -1.34629 -1.34071 0
M  V30 6331 H 594.416 -0.895064 -3.78049 0
M  V30 6332 H 596.088 -3.41488 -3.10134 0
M  V30 6333 H 594.331 -3.25756 -2.86471 0
M  V30 6334 H 595.002 -3.20047 -4.49749 0
M  V30 6335 H 597.478 -1.35809 -3.93313 0
M  V30 6336 H 596.354 -1.36586 -5.31635 0
M  V30 6337 H 596.615 0.121659 -4.41933 0
M  V30 6338 N 595.674 1.31259 -0.872281 0
M  V30 6339 C 596.637 2.26744 -0.334656 0
M  V30 6340 C 597.637 1.52307 0.515681 0
M  V30 6341 O 598.827 1.71148 0.324656 0
M  V30 6342 C 595.959 3.36841 0.524482 0
M  V30 6343 H 597.152 2.75812 -1.17762 0
M  V30 6344 H 594.705 1.42232 -0.648064 0
M  V30 6345 H 595.44 2.93069 1.38855 0
M  V30 6346 H 595.225 3.92009 -0.0844299 0
M  V30 6347 H 596.715 4.07944 0.892838 0
M  V30 6348 N 597.152 0.631951 1.44375 0
M  V30 6349 C 598.4 0.136497 2.01639 0
M  V30 6350 C 598.721 -1.24637 1.49969 0
M  V30 6351 O 597.991 -1.82827 0.70363 0
M  V30 6352 H 596.571 0.0474703 0.74549 0
M  V30 6353 H 599.233 0.818837 1.76865 0
M  V30 6354 H 598.329 0.104817 3.11924 0
M  V30 6355 N 598.631 -1.53133 0.372548 0
M  V30 6356 C 599.856 -2.0625 -0.218098 0
M  V30 6357 C 600.281 -1.24375 -1.41111 0
M  V30 6358 O 599.639 -0.264554 -1.79359 0
M  V30 6359 C 599.687 -3.55858 -0.582876 0
M  V30 6360 O 598.791 -3.76667 -1.67917 0
M  V30 6361 H 598.132 -0.663317 -0.030104 0
M  V30 6362 H 600.662 -1.97477 0.535169 0
M  V30 6363 H 600.672 -3.99007 -0.851925 0
M  V30 6364 H 599.347 -4.14892 0.289428 0
M  V30 6365 H 597.924 -3.45413 -1.40513 0
M  V30 6366 N 600.109 -0.101901 -1.5727 0
M  V30 6367 C 601.059 0.865346 -2.1094 0
M  V30 6368 C 602.043 1.2394 -1.02605 0
M  V30 6369 O 603.235 1.21334 -1.28868 0
M  V30 6370 C 600.364 2.12187 -2.69874 0
M  V30 6371 C 599.45 1.77295 -3.85263 0
M  V30 6372 N 599.841 1.12993 -4.93017 0
M  V30 6373 C 598.139 2.06862 -3.95126 0
M  V30 6374 C 598.84 0.968631 -5.73579 0
M  V30 6375 N 597.816 1.48814 -5.22834 0
M  V30 6376 H 601.618 0.364368 -2.91633 0
M  V30 6377 H 599.132 0.101104 -1.62085 0
M  V30 6378 H 601.129 2.82431 -3.06657 0
M  V30 6379 H 599.789 2.62844 -1.90639 0
M  V30 6380 H 600.8 0.795935 -5.11747 0
M  V30 6381 H 597.477 2.59686 -3.26909 0
M  V30 6382 H 598.867 0.465231 -6.70287 0
M  V30 6383 N 601.587 1.56661 0.17182 0
M  V30 6384 C 602.537 1.92781 1.21736 0
M  V30 6385 C 603.521 0.796065 1.39827 0
M  V30 6386 O 604.713 1.05924 1.41806 0
M  V30 6387 C 601.842 2.29079 2.55691 0
M  V30 6388 C 600.928 3.48765 2.41296 0
M  V30 6389 N 601.319 4.66022 1.96614 0
M  V30 6390 C 599.617 3.53362 2.72124 0
M  V30 6391 C 600.318 5.48159 1.94669 0
M  V30 6392 N 599.294 4.89189 2.37054 0
M  V30 6393 H 603.096 2.80926 0.863592 0
M  V30 6394 H 600.61 1.57889 0.380096 0
M  V30 6395 H 602.607 2.5315 3.31241 0
M  V30 6396 H 601.267 1.42272 2.91871 0
M  V30 6397 H 602.278 4.9025 1.66959 0
M  V30 6398 H 598.955 2.77033 3.12345 0
M  V30 6399 H 600.345 6.52121 1.61826 0
M  V30 6400 N 603.065 -0.440357 1.51323 0
M  V30 6401 C 604.311 -1.18874 1.65047 0
M  V30 6402 C 604.666 -1.88988 0.360742 0
M  V30 6403 O 603.959 -1.80479 -0.643272 0
M  V30 6404 C 604.153 -2.2339 2.78984 0
M  V30 6405 C 603.982 -1.63534 4.18911 0
M  V30 6406 C 602.752 -1.42158 4.84891 0
M  V30 6407 C 604.95 -1.11324 5.02107 0
M  V30 6408 N 602.932 -0.778679 6.08942 0
M  V30 6409 C 604.303 -0.595421 6.17134 0
M  V30 6410 C 606.358 -1.00471 4.87658 0
M  V30 6411 C 605.061 0.0202557 7.19297 0
M  V30 6412 C 607.087 -0.402928 5.90026 0
M  V30 6413 C 606.449 0.10436 7.04323 0
M  V30 6414 H 602.548 -0.422771 0.657866 0
M  V30 6415 H 605.132 -0.485814 1.88542 0
M  V30 6416 H 603.303 -2.91074 2.57158 0
M  V30 6417 H 605.035 -2.90366 2.81904 0
M  V30 6418 H 601.79 -1.68247 4.42707 0
M  V30 6419 H 602.214 -0.474755 6.75333 0
M  V30 6420 H 606.856 -1.38278 3.99548 0
M  V30 6421 H 604.574 0.410468 8.07057 0
M  V30 6422 H 608.16 -0.320897 5.80914 0
M  V30 6423 H 607.04 0.562697 7.82179 0
M  V30 6424 N 604.543 -1.41418 -0.695603 0
M  V30 6425 C 605.491 -1.43467 -1.83084 0
M  V30 6426 C 606.485 -0.312719 -1.66489 0
M  V30 6427 O 607.691 -0.484744 -1.7335 0
M  V30 6428 H 604.066 -0.448891 -0.603325 0
M  V30 6429 H 606.037 -2.39144 -1.78473 0
M  V30 6430 C 604.786 -1.3337 -3.21104 0
M  V30 6431 H 604.109 -2.18989 -3.3449 0
M  V30 6432 H 605.549 -1.38865 -4.00615 0
M  V30 6433 C 604.008 -0.0460484 -3.36869 0
M  V30 6434 O 604.538 0.909258 -3.91274 0
M  V30 6435 N 602.744 0.0300222 -2.90584 0
M  V30 6436 H 602.291 -0.748129 -2.46497 0
M  V30 6437 H 602.249 0.890991 -3.01511 0
M  V30 6438 N 606.021 0.929856 -1.27246 0
M  V30 6439 C 607.267 1.6802 -1.14634 0
M  V30 6440 C 607.622 1.89965 0.305151 0
M  V30 6441 O 606.915 1.47737 1.22001 0
M  V30 6442 C 607.109 3.05116 -1.86115 0
M  V30 6443 C 606.938 2.96549 -3.38066 0
M  V30 6444 C 605.708 2.98947 -4.0738 0
M  V30 6445 C 607.906 2.7583 -4.34077 0
M  V30 6446 N 605.888 2.80799 -5.45917 0
M  V30 6447 C 607.259 2.66364 -5.59866 0
M  V30 6448 C 609.314 2.60701 -4.24193 0
M  V30 6449 C 608.017 2.43313 -6.76898 0
M  V30 6450 C 610.043 2.39026 -5.40944 0
M  V30 6451 C 609.405 2.30302 -6.65688 0
M  V30 6452 H 605.504 0.62172 -0.474329 0
M  V30 6453 H 608.088 1.09947 -1.60685 0
M  V30 6454 H 606.259 3.61306 -1.42522 0
M  V30 6455 H 607.991 3.69076 -1.66027 0
M  V30 6456 H 604.746 3.09093 -3.58829 0
M  V30 6457 H 605.17 2.74861 -6.18692 0
M  V30 6458 H 609.812 2.66206 -3.28473 0
M  V30 6459 H 607.53 2.36548 -7.72704 0
M  V30 6460 H 611.116 2.28208 -5.35175 0
M  V30 6461 H 609.996 2.13756 -7.54505 0
M  V30 6462 N 607.499 1.09233 1.13605 0
M  V30 6463 C 608.727 0.848908 1.88683 0
M  V30 6464 C 609.142 -0.599667 1.79024 0
M  V30 6465 O 608.499 -1.41265 1.15544 0
M  V30 6466 C 608.55 1.27273 3.38355 0
M  V30 6467 O 608.271 2.66449 3.47759 0
M  V30 6468 C 609.772 1.0614 4.30406 0
M  V30 6469 H 606.992 0.305549 0.597395 0
M  V30 6470 H 609.536 1.4538 1.43823 0
M  V30 6471 H 607.691 0.711776 3.80805 0
M  V30 6472 H 608.105 2.84264 4.40788 0
M  V30 6473 H 609.579 1.40725 5.33761 0
M  V30 6474 H 610.056 -0.000960332 4.392 0
M  V30 6475 H 610.662 1.60821 3.93722 0
M  V30 6476 N 608.977 -1.30795 0.87923 0
M  V30 6477 C 610.224 -1.96362 0.494786 0
M  V30 6478 C 610.552 -1.69448 -0.954868 0
M  V30 6479 O 609.807 -0.988711 -1.68888 0
M  V30 6480 C 610.106 -3.50287 0.709476 0
M  V30 6481 C 609.772 -3.9724 2.13333 0
M  V30 6482 C 608.434 -4.09772 2.52271 0
M  V30 6483 C 610.786 -4.21807 3.06151 0
M  V30 6484 C 608.114 -4.44227 3.83248 0
M  V30 6485 C 610.466 -4.5773 4.36654 0
M  V30 6486 C 609.13 -4.68469 4.75492 0
M  V30 6487 H 608.4 -0.71854 0.181055 0
M  V30 6488 H 611.047 -1.55764 1.11399 0
M  V30 6489 H 609.352 -3.91799 0.0072 0
M  V30 6490 H 611.049 -3.99082 0.391703 0
M  V30 6491 H 607.639 -3.87988 1.82107 0
M  V30 6492 H 611.823 -4.11611 2.77291 0
M  V30 6493 H 607.079 -4.50741 4.13089 0
M  V30 6494 H 611.253 -4.7569 5.08617 0
M  V30 6495 H 608.88 -4.94923 5.77022 0
M  V30 6496 N 610.455 -0.639598 -1.44038 0
M  V30 6497 C 611.701 -0.147698 -2.02261 0
M  V30 6498 C 612.034 1.23031 -1.50256 0
M  V30 6499 O 611.309 1.81847 -0.690068 0
M  V30 6500 C 611.592 -0.14362 -3.59813 0
M  V30 6501 C 611.445 -1.55458 -4.22082 0
M  V30 6502 C 612.764 0.527317 -4.36929 0
M  V30 6503 H 609.883 -0.0551453 -0.734934 0
M  V30 6504 H 612.525 -0.817688 -1.71505 0
M  V30 6505 H 610.675 0.426898 -3.86147 0
M  V30 6506 H 612.347 -2.17464 -4.06826 0
M  V30 6507 H 610.59 -2.10594 -3.79253 0
M  V30 6508 H 611.261 -1.50369 -5.31124 0
M  V30 6509 H 613.737 0.0420504 -4.16079 0
M  V30 6510 H 612.613 0.499389 -5.46624 0
M  V30 6511 H 612.874 1.59914 -4.12165 0
M  V30 6512 N 611.933 1.52934 -0.380664 0
M  V30 6513 C 613.182 2.00651 0.205477 0
M  V30 6514 C 613.495 1.27164 1.48623 0
M  V30 6515 O 614.701 1.65547 2.15189 0
M  V30 6516 C 613.157 3.57479 0.416726 0
M  V30 6517 C 612.765 4.39857 -0.850268 0
M  V30 6518 C 614.509 4.13509 0.959702 0
M  V30 6519 C 612.416 5.88269 -0.607773 0
M  V30 6520 H 611.346 0.749684 0.0805614 0
M  V30 6521 H 613.997 1.76508 -0.501732 0
M  V30 6522 H 612.379 3.77836 1.18557 0
M  V30 6523 H 613.553 4.31269 -1.62307 0
M  V30 6524 H 611.868 3.95005 -1.31756 0
M  V30 6525 H 614.465 5.22039 1.15669 0
M  V30 6526 H 614.808 3.69054 1.92626 0
M  V30 6527 H 615.341 3.9701 0.250645 0
M  V30 6528 H 612.08 6.3703 -1.54509 0
M  V30 6529 H 611.6 5.99667 0.126247 0
M  V30 6530 H 613.279 6.46558 -0.239014 0
M  V30 6531 N 613.412 0.11024 1.57214 0
M  V30 6532 C 614.637 -0.561179 1.99664 0
M  V30 6533 C 615.062 -1.59985 0.989266 0
M  V30 6534 O 614.42 -1.81255 -0.0402399 0
M  V30 6535 C 614.468 -1.17189 3.41027 0
M  V30 6536 O 613.572 -2.28755 3.4314 0
M  V30 6537 H 612.913 -0.14101 0.648855 0
M  V30 6538 H 615.443 0.196128 2.03658 0
M  V30 6539 H 615.453 -1.50954 3.79047 0
M  V30 6540 H 614.128 -0.411041 4.13864 0
M  V30 6541 H 612.705 -1.96495 3.16929 0
M  V30 6542 N 614.89 -1.56749 -0.16351 0
M  V30 6543 C 616.118 -1.86577 -0.894233 0
M  V30 6544 C 616.533 -0.696543 -1.75481 0
M  V30 6545 O 615.89 0.334161 -1.79415 0
M  V30 6546 C 615.941 -3.15508 -1.76456 0
M  V30 6547 O 615.662 -4.27926 -0.938685 0
M  V30 6548 C 617.163 -3.58737 -2.60428 0
M  V30 6549 H 614.383 -0.618829 -0.259405 0
M  V30 6550 H 616.927 -2.03863 -0.161259 0
M  V30 6551 H 615.082 -3.00025 -2.45079 0
M  V30 6552 H 615.496 -5.01546 -1.53465 0
M  V30 6553 H 616.97 -4.51832 -3.17099 0
M  V30 6554 H 617.447 -2.83229 -3.35675 0
M  V30 6555 H 618.053 -3.76858 -1.97125 0
M  V30 6556 N 616.368 0.432326 -1.51554 0
M  V30 6557 C 617.298 1.53242 -1.76179 0
M  V30 6558 C 618.279 1.58717 -0.611801 0
M  V30 6559 O 619.464 1.74364 -0.855033 0
M  V30 6560 C 616.594 2.91278 -1.89141 0
M  V30 6561 C 615.548 3.00663 -3.04608 0
M  V30 6562 C 614.874 4.40728 -3.02759 0
M  V30 6563 C 616.174 2.74281 -4.44485 0
M  V30 6564 H 617.868 1.32886 -2.68294 0
M  V30 6565 H 615.414 0.637841 -1.29103 0
M  V30 6566 H 617.367 3.68203 -2.04951 0
M  V30 6567 H 616.091 3.12877 -0.936785 0
M  V30 6568 H 614.75 2.26179 -2.88511 0
M  V30 6569 H 614.398 4.59301 -2.05065 0
M  V30 6570 H 614.098 4.47936 -3.80299 0
M  V30 6571 H 615.622 5.19619 -3.20669 0
M  V30 6572 H 617.036 3.40936 -4.60907 0
M  V30 6573 H 615.433 2.92893 -5.23769 0
M  V30 6574 H 616.503 1.69856 -4.54177 0
M  V30 6575 N 617.846 1.41785 0.688094 0
M  V30 6576 C 618.776 1.47 1.8142 0
M  V30 6577 C 619.757 0.327881 1.6691 0
M  V30 6578 O 620.942 0.540362 1.86531 0
M  V30 6579 C 618.072 1.35876 3.19617 0
M  V30 6580 C 617.026 2.47976 3.48844 0
M  V30 6581 C 616.352 2.21915 4.86475 0
M  V30 6582 C 617.652 3.90309 3.47068 0
M  V30 6583 H 619.346 2.41247 1.77314 0
M  V30 6584 H 616.892 1.16116 0.851651 0
M  V30 6585 H 618.845 1.38134 3.98117 0
M  V30 6586 H 617.569 0.38116 3.24368 0
M  V30 6587 H 616.228 2.45013 2.72698 0
M  V30 6588 H 615.876 1.2248 4.8786 0
M  V30 6589 H 615.576 2.97037 5.06994 0
M  V30 6590 H 617.1 2.25901 5.67275 0
M  V30 6591 H 618.514 3.94947 4.1556 0
M  V30 6592 H 616.911 4.65175 3.7912 0
M  V30 6593 H 617.981 4.17927 2.45896 0
M  V30 6594 N 619.324 -0.923095 1.27737 0
M  V30 6595 C 620.571 -1.67127 1.14345 0
M  V30 6596 C 620.899 -1.92017 -0.30982 0
M  V30 6597 O 620.154 -1.51185 -1.24264 0
M  V30 6598 C 620.453 -3.04125 1.8773 0
M  V30 6599 C 620.119 -2.98929 3.37568 0
M  V30 6600 C 618.781 -2.9722 3.78436 0
M  V30 6601 C 621.133 -2.89875 4.33154 0
M  V30 6602 C 618.461 -2.84244 5.13247 0
M  V30 6603 C 620.813 -2.7844 5.68026 0
M  V30 6604 C 619.477 -2.75083 6.08182 0
M  V30 6605 H 618.747 -0.611562 0.418417 0
M  V30 6606 H 621.394 -1.07618 1.584 0
M  V30 6607 H 619.699 -3.67366 1.36196 0
M  V30 6608 H 621.396 -3.609 1.74792 0
M  V30 6609 H 617.986 -3.0105 3.05069 0
M  V30 6610 H 622.17 -2.9029 4.02548 0
M  V30 6611 H 617.426 -2.80034 5.43499 0
M  V30 6612 H 621.6 -2.70401 6.4176 0
M  V30 6613 H 619.227 -2.64786 7.12596 0
M  V30 6614 N 620.802 -1.09834 -1.13024 0
M  V30 6615 C 622.042 -0.846664 -1.8604 0
M  V30 6616 C 622.406 0.616557 -1.81831 0
M  V30 6617 O 623.607 0.984329 -2.50129 0
M  V30 6618 C 621.878 -1.37228 -3.30005 0
M  V30 6619 S 623.437 -1.25511 -4.20467 0
M  V30 6620 H 620.255 -0.30611 -0.64173 0
M  V30 6621 H 622.857 -1.40255 -1.36194 0
M  V30 6622 H 621.561 -2.43138 -3.30624 0
M  V30 6623 H 621.092 -0.81271 -3.84914 0
M  V30 6624 H 623.107 -0.208762 -4.95761 0
M  V30 6625 N 622.28 1.30327 -0.886154 0
M  V30 6626 C 623.21 2.30549 -0.370028 0
M  V30 6627 C 624.191 1.61039 0.547751 0
M  V30 6628 O 625.376 1.8864 0.461353 0
M  V30 6629 C 622.506 3.44808 0.415275 0
M  V30 6630 C 621.46 4.26024 -0.41085 0
M  V30 6631 C 620.786 5.32347 0.501128 0
M  V30 6632 C 622.086 4.95433 -1.65359 0
M  V30 6633 H 623.78 2.73969 -1.20754 0
M  V30 6634 H 621.326 1.3171 -0.582097 0
M  V30 6635 H 623.279 4.13986 0.78699 0
M  V30 6636 H 622.003 3.00197 1.28644 0
M  V30 6637 H 620.662 3.58535 -0.764719 0
M  V30 6638 H 620.31 4.83982 1.37004 0
M  V30 6639 H 620.01 5.87581 -0.0478356 0
M  V30 6640 H 621.534 6.0438 0.869333 0
M  V30 6641 H 622.948 5.5712 -1.35239 0
M  V30 6642 H 621.345 5.60537 -2.14284 0
M  V30 6643 H 622.415 4.21493 -2.39733 0
M  V30 6644 N 623.758 0.647228 1.43697 0
M  V30 6645 C 625.007 0.155552 2.01099 0
M  V30 6646 C 625.32 -1.23569 1.51624 0
M  V30 6647 O 626.526 -1.82226 2.01261 0
M  V30 6648 C 624.982 0.227296 3.59182 0
M  V30 6649 C 624.59 1.62086 4.17651 0
M  V30 6650 C 626.334 -0.207085 4.23995 0
M  V30 6651 C 624.241 1.64685 5.68008 0
M  V30 6652 H 623.171 0.0543895 0.752036 0
M  V30 6653 H 625.822 0.808386 1.64734 0
M  V30 6654 H 624.204 -0.492937 3.9292 0
M  V30 6655 H 625.378 2.36597 3.95422 0
M  V30 6656 H 623.693 2.0007 3.65186 0
M  V30 6657 H 626.29 -0.207426 5.34298 0
M  V30 6658 H 626.633 -1.23742 3.97484 0
M  V30 6659 H 627.166 0.461193 3.95118 0
M  V30 6660 H 623.905 2.65608 5.99277 0
M  V30 6661 H 623.425 0.944914 5.9231 0
M  V30 6662 H 625.104 1.38792 6.31938 0
M  V30 6663 N 625.236 -1.5273 0.388769 0
M  V30 6664 C 626.199 -2.25043 -0.434544 0
M  V30 6665 C 627.199 -1.26661 -0.990644 0
M  V30 6666 O 628.389 -1.50762 -0.872731 0
M  V30 6667 C 625.521 -3.00507 -1.60961 0
M  V30 6668 H 626.714 -2.99242 0.198549 0
M  V30 6669 H 624.267 -1.55664 0.140875 0
M  V30 6670 H 625.002 -2.30607 -2.28015 0
M  V30 6671 H 624.787 -3.72716 -1.21757 0
M  V30 6672 H 626.277 -3.55413 -2.19251 0
M  V30 6673 N 626.714 -0.118576 -1.57153 0
M  V30 6674 C 628.13 0.238014 -1.57815 0
M  V30 6675 C 628.33 1.66747 -1.13127 0
M  V30 6676 O 627.386 2.38867 -0.818462 0
M  V30 6677 C 628.699 0.00508207 -3.007 0
M  V30 6678 C 630.247 0.0710139 -3.12919 0
M  V30 6679 C 630.722 -0.13422 -4.57803 0
M  V30 6680 N 632.213 -0.0801755 -4.63131 0
M  V30 6681 C 632.948 -0.213885 -5.73001 0
M  V30 6682 N 632.444 -0.403742 -6.91623 0
M  V30 6683 N 634.237 -0.15349 -5.6189 0
M  V30 6684 H 626.388 -1.05226 -1.84503 0
M  V30 6685 H 628.651 -0.414318 -0.852669 0
M  V30 6686 H 628.357 -0.983125 -3.3768 0
M  V30 6687 H 628.231 0.73714 -3.69927 0
M  V30 6688 H 630.618 1.04975 -2.75798 0
M  V30 6689 H 630.699 -0.692918 -2.46236 0
M  V30 6690 H 630.343 -1.10992 -4.95624 0
M  V30 6691 H 630.273 0.649692 -5.22577 0
M  V30 6692 H 632.764 0.0630689 -3.77847 0
M  V30 6693 H 633.077 -0.496645 -7.71202 0
M  V30 6694 H 631.422 -0.43971 -6.93608 0
M  V30 6695 H 634.613 -0.00613174 -4.681 0
M  V30 6696 H 634.786 -0.261138 -6.47474 0
M  V30 6697 N 628.193 1.56834 0.155195 0
M  V30 6698 C 629.439 1.83169 0.870467 0
M  V30 6699 C 629.772 0.698929 1.81187 0
M  V30 6700 O 629.047 -0.298035 1.92203 0
M  V30 6701 C 629.33 3.19965 1.65211 0
M  V30 6702 C 629.183 4.43792 0.732744 0
M  V30 6703 C 630.502 3.53885 2.61636 0
M  V30 6704 H 627.621 0.666288 0.315006 0
M  V30 6705 H 630.263 1.89513 0.135988 0
M  V30 6706 H 628.413 3.14687 2.27825 0
M  V30 6707 H 630.085 4.61148 0.118236 0
M  V30 6708 H 628.328 4.3378 0.0417906 0
M  V30 6709 H 628.999 5.36095 1.31552 0
M  V30 6710 H 631.475 3.5972 2.09143 0
M  V30 6711 H 630.351 4.50648 3.13381 0
M  V30 6712 H 630.612 2.79418 3.42605 0
M  V30 6713 N 629.671 -0.424282 1.51781 0
M  V30 6714 C 630.601 -1.52305 1.7699 0
M  V30 6715 C 631.582 -1.5839 0.620209 0
M  V30 6716 O 632.767 -1.73908 0.864268 0
M  V30 6717 C 629.897 -2.90271 1.90683 0
M  V30 6718 C 628.851 -2.99043 3.06198 0
M  V30 6719 C 628.177 -4.39116 3.05092 0
M  V30 6720 C 629.477 -2.7192 4.45934 0
M  V30 6721 H 631.171 -1.31461 2.68995 0
M  V30 6722 H 628.717 -0.630985 1.29439 0
M  V30 6723 H 630.67 -3.6711 2.06901 0
M  V30 6724 H 629.394 -3.12376 0.953365 0
M  V30 6725 H 628.053 -2.24646 2.89706 0
M  V30 6726 H 627.701 -4.58207 2.07498 0
M  V30 6727 H 627.401 -4.45912 3.82669 0
M  V30 6728 H 628.925 -5.17911 3.2342 0
M  V30 6729 H 630.339 -3.38487 4.62709 0
M  V30 6730 H 628.736 -2.90111 5.25315 0
M  V30 6731 H 629.806 -1.67445 4.55072 0
M  V30 6732 N 631.149 -1.42148 -0.680565 0
M  V30 6733 C 632.397 -1.42029 -1.43779 0
M  V30 6734 C 632.718 -0.0356347 -1.94967 0
M  V30 6735 O 631.988 0.924936 -1.7269 0
M  V30 6736 H 630.568 -0.522835 -0.533529 0
M  V30 6737 H 633.23 -1.7752 -0.804538 0
M  V30 6738 H 632.326 -2.11658 -2.29363 0
M  V30 6739 N 632.627 0.916307 -1.28225 0
M  V30 6740 C 633.873 1.66765 -1.154 0
M  V30 6741 C 634.206 1.91912 0.297251 0
M  V30 6742 O 633.481 1.51766 1.21644 0
M  V30 6743 C 633.764 3.02715 -1.95028 0
M  V30 6744 C 633.617 2.84738 -3.48201 0
M  V30 6745 C 634.936 4.03215 -1.76369 0
M  V30 6746 H 632.055 0.605205 -0.42059 0
M  V30 6747 H 634.697 1.06255 -1.57512 0
M  V30 6748 H 632.847 3.54365 -1.59242 0
M  V30 6749 H 634.519 2.40118 -3.9388 0
M  V30 6750 H 632.762 2.19848 -3.73964 0
M  V30 6751 H 633.433 3.8127 -3.99171 0
M  V30 6752 H 635.909 3.60617 -2.07593 0
M  V30 6753 H 634.785 4.96306 -2.34459 0
M  V30 6754 H 635.046 4.36288 -0.71452 0
M  V30 6755 N 634.105 1.10431 1.1244 0
M  V30 6756 C 635.035 0.775143 2.20258 0
M  V30 6757 C 636.016 -0.25186 1.68225 0
M  V30 6758 O 637.201 -0.117637 1.93843 0
M  V30 6759 C 634.331 0.206133 3.46688 0
M  V30 6760 C 633.285 1.16382 4.11873 0
M  V30 6761 C 632.611 0.456014 5.32752 0
M  V30 6762 C 633.911 2.5104 4.58013 0
M  V30 6763 H 635.605 1.67665 2.4805 0
M  V30 6764 H 633.151 0.807595 1.19222 0
M  V30 6765 H 635.104 -0.036291 4.21384 0
M  V30 6766 H 633.828 -0.730614 3.18323 0
M  V30 6767 H 632.487 1.39169 3.39157 0
M  V30 6768 H 632.135 -0.485203 5.00654 0
M  V30 6769 H 631.835 1.09466 5.77314 0
M  V30 6770 H 633.359 0.222135 6.10196 0
M  V30 6771 H 634.773 2.32401 5.24083 0
M  V30 6772 H 633.17 3.10789 5.13352 0
M  V30 6773 H 634.24 3.11039 3.71998 0
M  V30 6774 N 635.583 -1.29855 0.893053 0
M  V30 6775 C 636.831 -1.9544 0.514566 0
M  V30 6776 C 637.152 -1.70795 -0.940959 0
M  V30 6777 O 636.422 -1.03601 -1.66264 0
M  V30 6778 H 635.002 -0.723137 0.187302 0
M  V30 6779 H 637.664 -1.58234 1.13789 0
M  V30 6780 H 636.76 -3.04341 0.691581 0
M  V30 6781 N 637.061 -0.65484 -1.43351 0
M  V30 6782 C 637.991 0.0221809 -2.33489 0
M  V30 6783 C 638.972 0.810272 -1.49561 0
M  V30 6784 O 640.157 0.771426 -1.78221 0
M  V30 6785 C 637.287 0.988117 -3.32947 0
M  V30 6786 C 636.241 0.310026 -4.26876 0
M  V30 6787 C 635.567 1.38752 -5.16384 0
M  V30 6788 C 636.867 -0.798589 -5.16159 0
M  V30 6789 H 638.561 -0.730571 -2.9035 0
M  V30 6790 H 636.107 -0.352773 -1.39612 0
M  V30 6791 H 638.06 1.47067 -3.94904 0
M  V30 6792 H 636.784 1.77205 -2.74346 0
M  V30 6793 H 635.443 -0.152097 -3.66284 0
M  V30 6794 H 635.091 2.16293 -4.54121 0
M  V30 6795 H 634.791 0.939051 -5.80048 0
M  V30 6796 H 636.315 1.87141 -5.81215 0
M  V30 6797 H 637.729 -0.398126 -5.71916 0
M  V30 6798 H 636.126 -1.17163 -5.88552 0
M  V30 6799 H 637.196 -1.65588 -4.55751 0
M  V30 6800 N 638.539 1.52521 -0.396863 0
M  V30 6801 C 639.767 2.06091 0.18275 0
M  V30 6802 C 640.182 1.26796 1.39886 0
M  V30 6803 O 639.539 0.316585 1.79733 0
M  V30 6804 C 639.59 3.57362 0.545377 0
M  V30 6805 O 639.311 4.33656 -0.622428 0
M  V30 6806 C 640.812 4.27305 1.18004 0
M  V30 6807 H 638.032 0.670504 0.025789 0
M  V30 6808 H 640.576 1.96561 -0.564276 0
M  V30 6809 H 638.731 3.66941 1.2423 0
M  V30 6810 H 639.145 5.23507 -0.322662 0
M  V30 6811 H 640.619 5.34366 1.38408 0
M  V30 6812 H 641.096 3.83 2.1496 0
M  V30 6813 H 641.702 4.22064 0.523671 0
M  V30 6814 N 640.017 0.126909 1.57088 0
M  V30 6815 C 641.263 -0.523662 1.96543 0
M  V30 6816 C 641.618 -1.63783 1.0096 0
M  V30 6817 O 640.911 -1.91556 0.0410175 0
M  V30 6818 C 641.105 -1.095 3.40212 0
M  V30 6819 C 640.934 -0.037715 4.49684 0
M  V30 6820 C 639.704 0.396823 5.03739 0
M  V30 6821 C 641.902 0.746245 5.08857 0
M  V30 6822 N 639.884 1.43905 5.96795 0
M  V30 6823 C 641.255 1.63947 5.97931 0
M  V30 6824 C 643.31 0.796259 4.91492 0
M  V30 6825 C 642.013 2.57837 6.715 0
M  V30 6826 C 644.039 1.7229 5.65747 0
M  V30 6827 C 643.401 2.60369 6.54513 0
M  V30 6828 H 639.5 -0.161016 0.765244 0
M  V30 6829 H 642.084 0.21686 1.93489 0
M  V30 6830 H 640.255 -1.80521 3.43899 0
M  V30 6831 H 641.987 -1.71054 3.66773 0
M  V30 6832 H 638.742 0.00290406 4.736 0
M  V30 6833 H 639.166 1.95932 6.48027 0
M  V30 6834 H 643.808 0.129412 4.22602 0
M  V30 6835 H 641.526 3.25532 7.39631 0
M  V30 6836 H 645.112 1.76715 5.54313 0
M  V30 6837 H 643.992 3.30906 7.10965 0
M  V30 6838 N 641.495 -1.56914 -0.146875 0
M  V30 6839 C 642.742 -1.83356 -0.859467 0
M  V30 6840 C 643.07 -0.707811 -1.81164 0
M  V30 6841 O 642.325 0.303155 -1.93338 0
M  V30 6842 C 642.624 -3.16128 -1.66727 0
M  V30 6843 C 642.29 -4.42586 -0.861881 0
M  V30 6844 C 640.952 -4.76929 -0.639687 0
M  V30 6845 C 643.304 -5.20344 -0.298643 0
M  V30 6846 C 640.632 -5.86491 0.156451 0
M  V30 6847 C 642.984 -6.30742 0.484536 0
M  V30 6848 C 641.648 -6.63635 0.717306 0
M  V30 6849 H 640.918 -0.670947 -0.314501 0
M  V30 6850 H 643.565 -1.91104 -0.123108 0
M  V30 6851 H 641.87 -3.03831 -2.47374 0
M  V30 6852 H 643.567 -3.33802 -2.2221 0
M  V30 6853 H 640.157 -4.15662 -1.04513 0
M  V30 6854 H 644.341 -4.94186 -0.457585 0
M  V30 6855 H 639.597 -6.10419 0.346292 0
M  V30 6856 H 643.771 -6.90188 0.928105 0
M  V30 6857 H 641.398 -7.48367 1.33607 0
M  V30 6858 N 642.974 0.416227 -1.52004 0
M  V30 6859 C 644.223 1.16088 -1.64944 0
M  V30 6860 C 644.536 1.91835 -0.381928 0
M  V30 6861 O 645.742 2.6867 -0.391013 0
M  V30 6862 C 644.198 2.1124 -2.91386 0
M  V30 6863 C 643.806 1.41042 -4.25219 0
M  V30 6864 C 645.55 2.86008 -3.13688 0
M  V30 6865 C 643.457 2.34801 -5.42791 0
M  V30 6866 H 642.387 0.437041 -0.61442 0
M  V30 6867 H 645.038 0.425971 -1.78487 0
M  V30 6868 H 643.42 2.88254 -2.71525 0
M  V30 6869 H 644.594 0.694416 -4.55538 0
M  V30 6870 H 642.909 0.78344 -4.08964 0
M  V30 6871 H 645.506 3.56286 -3.98703 0
M  V30 6872 H 645.849 3.48556 -2.27628 0
M  V30 6873 H 646.382 2.16095 -3.33988 0
M  V30 6874 H 643.121 1.7691 -6.31176 0
M  V30 6875 H 642.641 3.04395 -5.16821 0
M  V30 6876 H 644.32 2.9548 -5.75587 0
M  V30 6877 N 644.452 1.42507 0.673017 0
M  V30 6878 C 645.4 1.46362 1.80779 0
M  V30 6879 C 646.394 0.339166 1.6597 0
M  V30 6880 O 647.6 0.512262 1.72557 0
M  V30 6881 H 643.975 0.458433 0.596107 0
M  V30 6882 H 645.946 2.41953 1.74646 0
M  V30 6883 C 644.695 1.38462 3.18941 0
M  V30 6884 H 644.018 2.24283 3.30964 0
M  V30 6885 H 645.458 1.45221 3.98355 0
M  V30 6886 C 643.917 0.0996354 3.36753 0
M  V30 6887 O 644.447 -0.846894 3.92671 0
M  V30 6888 N 642.653 0.016211 2.90595 0
M  V30 6889 H 642.2 0.78725 2.45276 0
M  V30 6890 H 642.158 -0.84291 3.0289 0
M  V30 6891 N 645.93 -0.909495 1.28709 0
M  V30 6892 C 646.877 -2.01245 1.13 0
M  V30 6893 C 647.847 -1.6608 0.0259684 0
M  V30 6894 O 649.032 -1.89835 0.191687 0
M  V30 6895 C 646.172 -3.35644 0.802315 0
M  V30 6896 C 645.285 -3.83653 1.98582 0
M  V30 6897 C 644.42 -5.06582 1.59837 0
M  V30 6898 C 643.459 -5.46934 2.74827 0
M  V30 6899 N 642.596 -6.61053 2.36546 0
M  V30 6900 H 647.436 -2.14013 2.0737 0
M  V30 6901 H 644.973 -1.0482 1.03205 0
M  V30 6902 H 646.931 -4.12963 0.593057 0
M  V30 6903 H 645.561 -3.22631 -0.104457 0
M  V30 6904 H 644.613 -3.02454 2.30708 0
M  V30 6905 H 645.925 -4.09515 2.84779 0
M  V30 6906 H 645.079 -5.91457 1.35143 0
M  V30 6907 H 643.818 -4.82537 0.707753 0
M  V30 6908 H 642.823 -4.60599 3.00215 0
M  V30 6909 H 644.048 -5.72965 3.64538 0
M  V30 6910 H 641.994 -6.3863 1.49959 0
M  V30 6911 H 641.911 -6.86662 3.16277 0
M  V30 6912 H 643.179 -7.49221 2.15146 0
M  V30 6913 N 647.408 -1.11026 -1.11852 0
M  V30 6914 C 648.655 -0.85646 -1.83497 0
M  V30 6915 C 648.983 0.617938 -1.84423 0
M  V30 6916 O 648.238 1.47194 -1.28966 0
M  V30 6917 C 648.537 -1.35777 -3.30604 0
M  V30 6918 C 648.203 -2.84465 -3.49843 0
M  V30 6919 C 646.865 -3.25068 -3.54802 0
M  V30 6920 C 649.217 -3.80251 -3.56453 0
M  V30 6921 C 646.545 -4.60194 -3.63921 0
M  V30 6922 C 648.897 -5.15188 -3.67102 0
M  V30 6923 C 647.561 -5.55356 -3.70319 0
M  V30 6924 H 646.831 -0.313401 -0.671462 0
M  V30 6925 H 649.478 -1.38792 -1.31943 0
M  V30 6926 H 647.783 -0.746455 -3.84624 0
M  V30 6927 H 649.48 -1.13779 -3.8452 0
M  V30 6928 H 646.07 -2.52054 -3.46651 0
M  V30 6929 H 650.254 -3.49986 -3.51886 0
M  V30 6930 H 645.51 -4.90728 -3.64686 0
M  V30 6931 H 649.684 -5.89248 -3.71159 0
M  V30 6932 H 647.311 -6.60054 -3.77138 0
M  V30 6933 N 648.886 1.2938 -0.899927 0
M  V30 6934 C 650.302 1.48052 -0.596059 0
M  V30 6935 C 650.502 1.82114 0.862372 0
M  V30 6936 O 649.558 1.91774 1.64253 0
M  V30 6937 C 650.871 2.59332 -1.52208 0
M  V30 6938 C 652.419 2.73208 -1.5273 0
M  V30 6939 C 652.894 3.87617 -2.43961 0
M  V30 6940 N 654.385 3.9495 -2.42009 0
M  V30 6941 C 655.12 4.82824 -3.09303 0
M  V30 6942 N 654.616 5.75387 -3.85877 0
M  V30 6943 N 656.409 4.76317 -2.98459 0
M  V30 6944 H 648.56 1.05546 -1.8432 0
M  V30 6945 H 650.823 0.524314 -0.78981 0
M  V30 6946 H 650.529 2.41029 -2.56121 0
M  V30 6947 H 650.403 3.56139 -1.24278 0
M  V30 6948 H 652.79 2.90908 -0.495614 0
M  V30 6949 H 652.871 1.76975 -1.84698 0
M  V30 6950 H 652.515 3.70672 -3.47224 0
M  V30 6951 H 652.445 4.83218 -2.09303 0
M  V30 6952 H 654.936 3.28744 -1.86375 0
M  V30 6953 H 655.249 6.39235 -4.34279 0
M  V30 6954 H 653.594 5.75272 -3.89984 0
M  V30 6955 H 656.785 4.0299 -2.38152 0
M  V30 6956 H 656.958 5.44589 -3.51179 0
M  V30 6957 N 650.364 0.662433 1.43002 0
M  V30 6958 C 651.613 0.176873 2.00923 0
M  V30 6959 C 651.926 -1.21954 1.52927 0
M  V30 6960 O 653.132 -1.80081 2.03182 0
M  V30 6961 C 651.588 0.265379 3.5892 0
M  V30 6962 C 651.196 1.66507 4.15908 0
M  V30 6963 C 652.94 -0.162103 4.2419 0
M  V30 6964 C 650.847 1.707 5.66229 0
M  V30 6965 H 649.777 0.0623627 0.751417 0
M  V30 6966 H 652.428 0.825813 1.63868 0
M  V30 6967 H 650.81 -0.451235 3.93421 0
M  V30 6968 H 651.984 2.40777 3.92891 0
M  V30 6969 H 650.299 2.03932 3.63044 0
M  V30 6970 H 652.896 -0.150745 5.34487 0
M  V30 6971 H 653.239 -1.19519 3.98774 0
M  V30 6972 H 653.772 0.503075 3.94606 0
M  V30 6973 H 650.511 2.7195 5.96426 0
M  V30 6974 H 650.031 1.00768 5.91275 0
M  V30 6975 H 651.71 1.45487 6.3043 0
M  V30 6976 N 651.842 -1.52309 0.404946 0
M  V30 6977 C 653.088 -2.02065 -0.172455 0
M  V30 6978 C 653.421 -1.29022 -1.45145 0
M  V30 6979 O 652.696 -0.395284 -1.90441 0
M  V30 6980 C 652.979 -3.5759 -0.424433 0
M  V30 6981 C 652.832 -4.41287 0.870945 0
M  V30 6982 C 654.151 -4.23186 -1.20837 0
M  V30 6983 H 651.27 -0.734454 -0.0612035 0
M  V30 6984 H 653.912 -1.82236 0.53759 0
M  V30 6985 H 652.062 -3.74617 -1.02929 0
M  V30 6986 H 653.734 -4.3598 1.50729 0
M  V30 6987 H 651.977 -4.07669 1.48284 0
M  V30 6988 H 652.648 -5.48171 0.649083 0
M  V30 6989 H 655.124 -4.10232 -0.696338 0
M  V30 6990 H 654 -5.31953 -1.35343 0
M  V30 6991 H 654.261 -3.81862 -2.22786 0
M  V30 6992 N 653.32 -0.135238 -1.57019 0
M  V30 6993 C 654.267 0.808908 -2.1616 0
M  V30 6994 C 655.237 1.25234 -1.09113 0
M  V30 6995 O 656.422 1.32697 -1.37099 0
M  V30 6996 C 653.562 2.04729 -2.77813 0
M  V30 6997 C 652.675 1.65074 -3.99218 0
M  V30 6998 C 651.81 2.84002 -4.48906 0
M  V30 6999 C 650.849 2.40663 -5.62803 0
M  V30 7000 N 649.986 3.5256 -6.07162 0
M  V30 7001 H 654.826 0.297751 -2.96509 0
M  V30 7002 H 652.363 0.135264 -1.46477 0
M  V30 7003 H 654.321 2.7731 -3.11697 0
M  V30 7004 H 652.951 2.53275 -2.00128 0
M  V30 7005 H 652.003 0.823029 -3.7139 0
M  V30 7006 H 653.315 1.29236 -4.81767 0
M  V30 7007 H 652.469 3.64788 -4.84783 0
M  V30 7008 H 651.208 3.23076 -3.65339 0
M  V30 7009 H 650.213 1.58314 -5.26514 0
M  V30 7010 H 651.438 2.02687 -6.48147 0
M  V30 7011 H 649.384 3.91278 -5.26534 0
M  V30 7012 H 649.301 3.20699 -6.84608 0
M  V30 7013 H 650.569 4.33738 -6.47682 0
M  V30 7014 N 654.798 1.5699 0.138552 0
M  V30 7015 C 655.728 2.01933 1.17241 0
M  V30 7016 C 656.709 0.90033 1.44319 0
M  V30 7017 O 657.894 1.16872 1.55095 0
M  V30 7018 C 655.024 2.40711 2.50351 0
M  V30 7019 C 653.978 3.55874 2.37776 0
M  V30 7020 C 653.304 3.80491 3.75674 0
M  V30 7021 C 654.604 4.8826 1.85472 0
M  V30 7022 H 656.298 2.88551 0.798672 0
M  V30 7023 H 653.844 1.3882 0.382743 0
M  V30 7024 H 655.797 2.70754 3.22909 0
M  V30 7025 H 654.521 1.5104 2.89576 0
M  V30 7026 H 653.18 3.2601 1.67669 0
M  V30 7027 H 652.828 2.88057 4.12349 0
M  V30 7028 H 652.528 4.57998 3.68119 0
M  V30 7029 H 654.052 4.12967 4.49767 0
M  V30 7030 H 655.466 5.16965 2.4783 0
M  V30 7031 H 653.863 5.69631 1.88787 0
M  V30 7032 H 654.933 4.78071 0.810935 0
M  V30 7033 N 656.276 -0.40816 1.52223 0
M  V30 7034 C 657.504 -1.17672 1.70179 0
M  V30 7035 C 657.919 -1.84257 0.411696 0
M  V30 7036 O 657.276 -1.7192 -0.612354 0
M  V30 7037 C 657.327 -2.23911 2.83806 0
M  V30 7038 O 657.048 -1.60044 4.0782 0
M  V30 7039 C 658.549 -3.1364 3.13281 0
M  V30 7040 H 655.769 -0.353562 0.570293 0
M  V30 7041 H 658.313 -0.480083 1.98785 0
M  V30 7042 H 656.468 -2.89242 2.57717 0
M  V30 7043 H 656.882 -2.30484 4.71145 0
M  V30 7044 H 658.356 -3.84255 3.96298 0
M  V30 7045 H 658.833 -3.76066 2.26872 0
M  V30 7046 H 659.439 -2.53977 3.41139 0
M  V30 7047 N 657.755 -1.42862 -0.66545 0
M  V30 7048 C 659.166 -1.3901 -1.24632 0
M  V30 7049 C 659.517 -0.0880285 -1.96002 0
M  V30 7050 O 658.642 0.812947 -2.0055 0
M  V30 7051 C 659.237 -2.51806 -2.2667 0
M  V30 7052 C 657.796 -2.51257 -2.80262 0
M  V30 7053 C 656.943 -2.30124 -1.5472 0
M  V30 7054 H 659.894 -1.5194 -0.458237 0
M  V30 7055 H 659.915 -2.22593 -3.08598 0
M  V30 7056 H 659.427 -3.46558 -1.74697 0
M  V30 7057 H 657.528 -1.60349 -3.36332 0
M  V30 7058 H 657.641 -3.48614 -3.28641 0
M  V30 7059 H 656.005 -1.7856 -1.81627 0
M  V30 7060 H 656.788 -3.26945 -1.04699 0
M  V30 7061 N 659.233 0.902656 -1.29189 0
M  V30 7062 C 660.18 2.00643 -1.14066 0
M  V30 7063 C 661.15 1.66064 -0.0347756 0
M  V30 7064 O 662.335 1.8973 -0.201752 0
M  V30 7065 C 659.475 3.35214 -0.820104 0
M  V30 7066 C 658.588 3.82594 -2.00614 0
M  V30 7067 C 657.723 5.05727 -1.62522 0
M  V30 7068 C 656.762 5.45469 -2.77724 0
M  V30 7069 N 655.899 6.59789 -2.40048 0
M  V30 7070 H 660.739 2.1291 -2.08502 0
M  V30 7071 H 658.276 1.04271 -1.03759 0
M  V30 7072 H 660.234 4.12643 -0.614949 0
M  V30 7073 H 658.864 3.22682 0.0873452 0
M  V30 7074 H 657.916 3.01226 -2.32308 0
M  V30 7075 H 659.228 4.07999 -2.86946 0
M  V30 7076 H 658.382 5.90732 -1.38277 0
M  V30 7077 H 657.121 4.82155 -0.733333 0
M  V30 7078 H 656.126 4.59 -3.02653 0
M  V30 7079 H 657.351 5.71024 -3.67572 0
M  V30 7080 H 655.297 6.37826 -1.53343 0
M  V30 7081 H 655.214 6.84975 -3.19914 0
M  V30 7082 H 656.482 7.4807 -2.19116 0
M  V30 7083 N 660.711 1.11618 1.11262 0
M  V30 7084 C 661.988 0.777876 1.79467 0
M  V30 7085 C 662.368 -0.733774 1.97937 0
M  V30 7086 O 661.716 -1.66443 1.56554 0
M  V30 7087 C 661.926 1.5431 3.13032 0
M  V30 7088 C 663.274 1.72357 3.88044 0
M  V30 7089 O 664.298 1.5075 3.22727 0
M  V30 7090 O 663.157 2.08276 5.05256 0
M  V30 7091 H 660.251 0.282018 0.777428 0
M  V30 7092 H 662.797 1.21971 1.17988 0
M  V30 7093 H 661.569 2.57132 2.94956 0
M  V30 7094 H 661.192 1.09495 3.82226 0
M  V30 7095 N 662.189 -1.289 0.906776 0
M  V30 7096 C 663.121 -2.26556 0.347159 0
M  V30 7097 C 664.134 -1.54589 -0.51049 0
M  V30 7098 O 665.323 -1.75489 -0.326501 0
M  V30 7099 C 662.423 -3.3484 -0.523024 0
M  V30 7100 C 661.596 -4.36296 0.310515 0
M  V30 7101 C 660.655 -5.23879 -0.493634 0
M  V30 7102 O 659.681 -5.69127 0.0913569 0
M  V30 7103 N 660.883 -5.51946 -1.7982 0
M  V30 7104 H 663.648 -2.75212 1.18652 0
M  V30 7105 H 661.209 -1.42309 0.771996 0
M  V30 7106 H 663.201 -3.90366 -1.06756 0
M  V30 7107 H 661.771 -2.85946 -1.26309 0
M  V30 7108 H 660.991 -3.80331 1.03644 0
M  V30 7109 H 662.279 -5.01113 0.881106 0
M  V30 7110 H 661.677 -5.17006 -2.2961 0
M  V30 7111 H 660.234 -6.10258 -2.28971 0
M  V30 7112 N 663.667 -0.670007 -1.42649 0
M  V30 7113 C 664.914 -0.190286 -2.01604 0
M  V30 7114 C 665.242 1.20155 -1.52948 0
M  V30 7115 O 664.497 1.81964 -0.72026 0
M  V30 7116 C 664.796 -0.168298 -3.57004 0
M  V30 7117 C 664.462 -1.50415 -4.25072 0
M  V30 7118 C 663.124 -1.86992 -4.43382 0
M  V30 7119 C 665.476 -2.38414 -4.63474 0
M  V30 7120 C 662.804 -3.11203 -4.97363 0
M  V30 7121 C 665.156 -3.61933 -5.18833 0
M  V30 7122 C 663.82 -3.98685 -5.35356 0
M  V30 7123 H 663.09 -0.0696305 -0.737721 0
M  V30 7124 H 665.737 -0.864044 -1.70899 0
M  V30 7125 H 664.042 0.588958 -3.87348 0
M  V30 7126 H 665.739 0.22001 -4.00396 0
M  V30 7127 H 662.329 -1.20959 -4.11177 0
M  V30 7128 H 666.513 -2.11442 -4.49006 0
M  V30 7129 H 661.769 -3.39705 -5.08341 0
M  V30 7130 H 665.943 -4.30326 -5.47533 0
M  V30 7131 H 663.57 -4.95009 -5.76949 0
M  V30 7132 N 665.145 1.52092 -0.413018 0
M  V30 7133 C 666.394 2.01041 0.16287 0
M  V30 7134 C 666.707 1.30288 1.45892 0
M  V30 7135 O 667.913 1.70075 2.11629 0
M  V30 7136 C 666.369 3.58283 0.340806 0
M  V30 7137 C 665.977 4.37955 -0.943377 0
M  V30 7138 C 667.721 4.15452 0.871774 0
M  V30 7139 C 665.628 5.86847 -0.732417 0
M  V30 7140 H 664.558 0.751224 0.0646414 0
M  V30 7141 H 667.209 1.75404 -0.539059 0
M  V30 7142 H 665.591 3.80266 1.10516 0
M  V30 7143 H 666.765 4.2773 -1.71418 0
M  V30 7144 H 665.08 3.92122 -1.40105 0
M  V30 7145 H 667.677 5.24375 1.0457 0
M  V30 7146 H 668.02 3.73057 1.84755 0
M  V30 7147 H 668.553 3.97452 0.166377 0
M  V30 7148 H 665.292 6.33609 -1.67986 0
M  V30 7149 H 664.812 5.998 -0.000980058 0
M  V30 7150 H 666.491 6.45906 -0.376105 0
M  V30 7151 N 666.623 0.143563 1.56945 0
M  V30 7152 C 667.872 -0.50835 1.95189 0
M  V30 7153 C 668.185 -1.66239 1.03073 0
M  V30 7154 O 669.391 -2.3787 1.30882 0
M  V30 7155 C 667.847 -0.955735 3.46978 0
M  V30 7156 C 667.455 0.171183 4.47673 0
M  V30 7157 C 669.199 -1.57763 3.94095 0
M  V30 7158 C 667.106 -0.294279 5.90667 0
M  V30 7159 H 666.036 -0.193679 0.728701 0
M  V30 7160 H 668.687 0.227357 1.82086 0
M  V30 7161 H 667.069 -1.7466 3.55401 0
M  V30 7162 H 668.243 0.948049 4.50942 0
M  V30 7163 H 666.558 0.701273 4.10452 0
M  V30 7164 H 669.155 -1.93745 4.98364 0
M  V30 7165 H 669.498 -2.46531 3.35452 0
M  V30 7166 H 670.031 -0.851728 3.88575 0
M  V30 7167 H 666.77 0.557939 6.53121 0
M  V30 7168 H 666.29 -1.0371 5.90766 0
M  V30 7169 H 667.969 -0.747426 6.42668 0
M  V30 7170 N 668.101 -1.57061 -0.130224 0
M  V30 7171 C 669.064 -1.98593 -1.14426 0
M  V30 7172 C 670.064 -0.874584 -1.34936 0
M  V30 7173 O 671.254 -1.14086 -1.31643 0
M  V30 7174 C 668.386 -2.31639 -2.50112 0
M  V30 7175 H 669.579 -2.89374 -0.787561 0
M  V30 7176 H 667.132 -1.51756 -0.374146 0
M  V30 7177 H 667.867 -1.43703 -2.90723 0
M  V30 7178 H 667.652 -3.12684 -2.36583 0
M  V30 7179 H 669.142 -2.64551 -3.23114 0
M  V30 7180 N 669.579 0.400081 -1.52437 0
M  V30 7181 C 670.809 1.16598 -1.70553 0
M  V30 7182 C 671.217 1.8451 -0.418665 0
M  V30 7183 O 670.56 1.73069 0.615855 0
M  V30 7184 C 670.622 2.26517 -2.7916 0
M  V30 7185 C 670.286 1.78666 -4.20628 0
M  V30 7186 C 671.283 1.26946 -5.04163 0
M  V30 7187 C 668.968 1.85225 -4.66902 0
M  V30 7188 C 670.962 0.824187 -6.32049 0
M  V30 7189 C 668.649 1.40309 -5.94774 0
M  V30 7190 C 669.647 0.889922 -6.77178 0
M  V30 7191 O 669.335 0.447281 -8.02655 0
M  V30 7192 H 669.067 0.356023 -0.574651 0
M  V30 7193 H 671.621 0.475598 -1.99818 0
M  V30 7194 H 669.851 2.98946 -2.45292 0
M  V30 7195 H 671.54 2.88237 -2.85787 0
M  V30 7196 H 672.306 1.21244 -4.69601 0
M  V30 7197 H 668.185 2.24111 -4.02859 0
M  V30 7198 H 671.729 0.422958 -6.96317 0
M  V30 7199 H 667.626 1.45693 -6.28843 0
M  V30 7200 H 668.394 0.569768 -8.16514 0
M  V30 7201 N 671.057 1.43213 0.657864 0
M  V30 7202 C 672.305 1.44298 1.41501 0
M  V30 7203 C 672.626 0.0666478 1.94886 0
M  V30 7204 O 671.896 -0.897345 1.74139 0
M  V30 7205 H 670.476 0.531257 0.525143 0
M  V30 7206 H 673.138 1.78777 0.776195 0
M  V30 7207 H 672.234 2.1528 2.25966 0
M  V30 7208 N 672.536 -0.895792 1.29666 0
M  V30 7209 C 673.784 -1.64339 1.17631 0
M  V30 7210 C 674.105 -1.93099 -0.271643 0
M  V30 7211 O 673.375 -1.55981 -1.18518 0
M  V30 7212 H 671.955 -0.609162 0.432354 0
M  V30 7213 H 674.617 -1.07389 1.62646 0
M  V30 7214 H 673.713 -2.59815 1.72924 0
M  V30 7215 N 674.014 -1.12206 -1.10668 0
M  V30 7216 C 674.944 -0.810086 -2.18997 0
M  V30 7217 C 675.925 0.225065 -1.68604 0
M  V30 7218 O 677.11 0.086783 -1.94006 0
M  V30 7219 C 674.24 -0.261262 -3.46316 0
M  V30 7220 C 673.194 -1.2292 -4.09969 0
M  V30 7221 C 672.52 -0.540713 -5.31959 0
M  V30 7222 C 673.82 -2.58295 -4.53962 0
M  V30 7223 H 675.514 -1.7159 -2.45352 0
M  V30 7224 H 673.06 -0.82646 -1.17922 0
M  V30 7225 H 675.013 -0.0307522 -4.21389 0
M  V30 7226 H 673.737 0.679879 -3.19445 0
M  V30 7227 H 672.396 -1.44548 -3.369 0
M  V30 7228 H 672.044 0.405492 -5.01363 0
M  V30 7229 H 671.744 -1.18637 -5.75499 0
M  V30 7230 H 673.268 -0.319184 -6.09765 0
M  V30 7231 H 674.682 -2.40709 -5.20319 0
M  V30 7232 H 673.079 -3.18916 -5.08343 0
M  V30 7233 H 674.149 -3.16918 -3.67002 0
M  V30 7234 N 675.492 1.28418 -0.913599 0
M  V30 7235 C 676.908 1.47411 -0.611728 0
M  V30 7236 C 677.108 1.83018 0.843008 0
M  V30 7237 O 676.164 1.93505 1.6221 0
M  V30 7238 C 677.477 2.57703 -1.5495 0
M  V30 7239 C 679.025 2.71572 -1.5562 0
M  V30 7240 C 679.5 3.85008 -2.48058 0
M  V30 7241 N 680.991 3.92361 -2.46184 0
M  V30 7242 C 681.726 4.79516 -3.14407 0
M  V30 7243 N 681.222 5.71262 -3.91958 0
M  V30 7244 N 683.015 4.73125 -3.03495 0
M  V30 7245 H 675.166 1.03585 -1.85429 0
M  V30 7246 H 677.429 0.515907 -0.795326 0
M  V30 7247 H 677.135 2.38298 -2.58663 0
M  V30 7248 H 677.009 3.54801 -1.28048 0
M  V30 7249 H 679.396 2.90366 -0.526441 0
M  V30 7250 H 679.477 1.75006 -1.86565 0
M  V30 7251 H 679.121 3.66969 -3.51136 0
M  V30 7252 H 679.051 4.80971 -2.14416 0
M  V30 7253 H 681.542 3.26749 -1.89851 0
M  V30 7254 H 681.855 6.34593 -4.41034 0
M  V30 7255 H 680.2 5.71103 -3.96063 0
M  V30 7256 H 683.391 4.00442 -2.42413 0
M  V30 7257 H 683.564 5.40834 -3.56935 0
M  V30 7258 N 676.97 0.677563 1.42291 0
M  V30 7259 C 678.218 0.200578 2.01102 0
M  V30 7260 C 678.539 -1.19803 1.53858 0
M  V30 7261 O 677.809 -1.80496 0.761439 0
M  V30 7262 H 676.389 0.0711634 0.743603 0
M  V30 7263 H 679.051 0.874691 1.7417 0
M  V30 7264 H 678.147 0.204 3.11433 0
M  V30 7265 N 678.448 -1.51871 0.421078 0
M  V30 7266 C 679.411 -2.25914 -0.386712 0
M  V30 7267 C 680.411 -1.28733 -0.963555 0
M  V30 7268 O 681.601 -1.52579 -0.840556 0
M  V30 7269 C 678.733 -3.03853 -1.54551 0
M  V30 7270 H 679.926 -2.98754 0.261978 0
M  V30 7271 H 677.479 -1.5533 0.173862 0
M  V30 7272 H 678.214 -2.35392 -2.23072 0
M  V30 7273 H 677.999 -3.75215 -1.13824 0
M  V30 7274 H 679.489 -3.59984 -2.11663 0
M  V30 7275 N 679.926 -0.151884 -1.56866 0
M  V30 7276 C 681.175 0.497992 -1.95456 0
M  V30 7277 C 681.488 1.6569 -1.03953 0
M  V30 7278 O 682.694 2.37173 -1.32142 0
M  V30 7279 C 681.15 0.93732 -3.4748 0
M  V30 7280 C 680.758 -0.194921 -4.47576 0
M  V30 7281 C 682.502 1.55671 -3.94926 0
M  V30 7282 C 680.409 0.26295 -5.90815 0
M  V30 7283 H 679.339 0.189811 -0.729717 0
M  V30 7284 H 681.99 -0.237011 -1.81963 0
M  V30 7285 H 680.372 1.72773 -3.56322 0
M  V30 7286 H 681.546 -0.971951 -4.50433 0
M  V30 7287 H 679.861 -0.72303 -4.10075 0
M  V30 7288 H 682.458 1.91099 -4.99385 0
M  V30 7289 H 682.801 2.44748 -3.36755 0
M  V30 7290 H 683.334 0.831109 -3.89021 0
M  V30 7291 H 680.073 -0.592568 -6.52816 0
M  V30 7292 H 679.593 1.00575 -5.91308 0
M  V30 7293 H 681.272 0.713333 -6.43056 0
M  V30 7294 N 681.404 1.57128 0.121893 0
M  V30 7295 C 682.367 1.99197 1.13372 0
M  V30 7296 C 683.367 0.881728 1.3447 0
M  V30 7297 O 684.557 1.14783 1.31036 0
M  V30 7298 C 681.689 2.32963 2.4888 0
M  V30 7299 H 682.882 2.89788 0.772204 0
M  V30 7300 H 680.435 1.51952 0.366093 0
M  V30 7301 H 681.17 1.45243 2.89957 0
M  V30 7302 H 680.955 3.13934 2.34921 0
M  V30 7303 H 682.445 2.66261 3.21706 0
M  V30 7304 N 682.882 -0.391992 1.52647 0
M  V30 7305 C 684.129 -1.13732 1.67545 0
M  V30 7306 C 684.457 -1.90045 0.413881 0
M  V30 7307 O 683.712 -1.86157 -0.603646 0
M  V30 7308 C 684.011 -2.14401 2.85949 0
M  V30 7309 C 683.677 -1.54767 4.23507 0
M  V30 7310 C 682.339 -1.38229 4.60919 0
M  V30 7311 C 684.691 -1.11382 5.0916 0
M  V30 7312 C 682.019 -0.7685 5.81645 0
M  V30 7313 C 684.371 -0.514143 6.30507 0
M  V30 7314 C 683.035 -0.33604 6.66654 0
M  V30 7315 H 682.305 -0.416174 0.613091 0
M  V30 7316 H 684.952 -0.422327 1.86785 0
M  V30 7317 H 683.257 -2.92108 2.61114 0
M  V30 7318 H 684.954 -2.71974 2.94671 0
M  V30 7319 H 681.544 -1.68626 3.94035 0
M  V30 7320 H 685.728 -1.22962 4.80826 0
M  V30 7321 H 680.984 -0.618681 6.08262 0
M  V30 7322 H 685.158 -0.169657 6.96193 0
M  V30 7323 H 682.785 0.14166 7.60068 0
M  V30 7324 N 684.36 -1.4356 -0.65026 0
M  V30 7325 C 685.585 -1.48995 -1.44275 0
M  V30 7326 C 686.01 -0.109954 -1.87778 0
M  V30 7327 O 685.368 0.896926 -1.57559 0
M  V30 7328 C 685.416 -2.44341 -2.65198 0
M  V30 7329 O 684.52 -1.93172 -3.6436 0
M  V30 7330 H 683.861 -0.503852 -0.432469 0
M  V30 7331 H 686.391 -1.88504 -0.795446 0
M  V30 7332 H 686.401 -2.61743 -3.12977 0
M  V30 7333 H 685.076 -3.44588 -2.32877 0
M  V30 7334 H 683.653 -1.85445 -3.23519 0
M  V30 7335 N 685.838 0.888903 -1.30139 0
M  V30 7336 C 686.768 2.01046 -1.18755 0
M  V30 7337 C 687.749 1.69916 -0.0791438 0
M  V30 7338 O 688.934 1.92445 -0.260498 0
M  V30 7339 C 686.064 3.36109 -0.874518 0
M  V30 7340 C 685.018 3.81486 -1.94043 0
M  V30 7341 C 684.344 5.13796 -1.48047 0
M  V30 7342 C 685.644 4.00637 -3.35093 0
M  V30 7343 H 687.338 2.10828 -2.12584 0
M  V30 7344 H 684.884 1.01298 -1.02346 0
M  V30 7345 H 686.837 4.14089 -0.781548 0
M  V30 7346 H 685.561 3.26449 0.0994519 0
M  V30 7347 H 684.22 3.05731 -2.02297 0
M  V30 7348 H 683.868 5.0056 -0.494878 0
M  V30 7349 H 683.568 5.45127 -2.19341 0
M  V30 7350 H 685.092 5.94305 -1.40121 0
M  V30 7351 H 686.506 4.69067 -3.2962 0
M  V30 7352 H 684.903 4.43339 -4.04438 0
M  V30 7353 H 685.973 3.0462 -3.77273 0
M  V30 7354 N 687.317 1.12792 1.10072 0
M  V30 7355 C 688.565 0.883796 1.81751 0
M  V30 7356 C 688.886 -0.591891 1.858 0
M  V30 7357 O 688.156 -1.43017 1.33876 0
M  V30 7358 H 686.736 0.323978 0.673088 0
M  V30 7359 H 689.398 1.42314 1.33164 0
M  V30 7360 H 688.494 1.26863 2.85153 0
M  V30 7361 N 688.795 -1.27931 0.920396 0
M  V30 7362 C 690.025 -1.98516 0.572256 0
M  V30 7363 C 690.433 -1.68912 -0.852375 0
M  V30 7364 O 689.776 -0.94203 -1.57707 0
M  V30 7365 C 689.838 -3.5243 0.709485 0
M  V30 7366 C 689.502 -4.0564 2.10489 0
M  V30 7367 C 690.499 -4.1897 3.07831 0
M  V30 7368 C 688.184 -4.40168 2.41986 0
M  V30 7369 C 690.178 -4.66093 4.34783 0
M  V30 7370 C 687.865 -4.86983 3.69176 0
M  V30 7371 C 688.863 -4.99903 4.65388 0
M  V30 7372 O 688.551 -5.45694 5.90316 0
M  V30 7373 H 688.283 -0.64047 0.216274 0
M  V30 7374 H 690.837 -1.6393 1.23758 0
M  V30 7375 H 689.067 -3.86698 -0.0129263 0
M  V30 7376 H 690.756 -4.04233 0.367474 0
M  V30 7377 H 691.522 -3.92562 2.84816 0
M  V30 7378 H 687.401 -4.29358 1.67846 0
M  V30 7379 H 690.945 -4.76092 5.09884 0
M  V30 7380 H 686.842 -5.12832 3.92012 0
M  V30 7381 H 687.61 -5.63965 5.932 0
M  V30 7382 N 690.273 -0.685099 -1.4193 0
M  V30 7383 C 691.203 -0.0273506 -2.33484 0
M  V30 7384 C 692.184 0.778366 -1.51246 0
M  V30 7385 O 693.369 0.733449 -1.79817 0
M  V30 7386 C 690.499 0.917272 -3.34968 0
M  V30 7387 C 689.453 0.21941 -4.27437 0
M  V30 7388 C 688.779 1.27768 -5.1921 0
M  V30 7389 C 690.079 -0.907894 -5.14349 0
M  V30 7390 H 691.773 -0.791994 -2.88735 0
M  V30 7391 H 689.319 -0.382308 -1.38832 0
M  V30 7392 H 691.272 1.38657 -3.97935 0
M  V30 7393 H 689.996 1.71346 -2.78043 0
M  V30 7394 H 688.655 -0.229757 -3.65879 0
M  V30 7395 H 688.303 2.06612 -4.58607 0
M  V30 7396 H 688.003 0.815803 -5.81909 0
M  V30 7397 H 689.527 1.7477 -5.85054 0
M  V30 7398 H 690.941 -0.519348 -5.70943 0
M  V30 7399 H 689.338 -1.2962 -5.85934 0
M  V30 7400 H 690.408 -1.75218 -4.52136 0
M  V30 7401 N 691.751 1.51645 -0.429126 0
M  V30 7402 C 692.681 2.30434 0.377148 0
M  V30 7403 C 693.662 1.35493 1.02838 0
M  V30 7404 O 694.847 1.6441 1.03359 0
M  V30 7405 C 691.977 3.14038 1.48315 0
M  V30 7406 C 690.931 4.1719 0.955855 0
M  V30 7407 C 690.257 4.89263 2.15698 0
M  V30 7408 C 691.557 5.223 -0.00402136 0
M  V30 7409 H 693.251 2.98085 -0.280336 0
M  V30 7410 H 690.797 1.43354 -0.136265 0
M  V30 7411 H 692.75 3.67933 2.05435 0
M  V30 7412 H 691.474 2.44193 2.16881 0
M  V30 7413 H 690.133 3.64335 0.406929 0
M  V30 7414 H 689.781 4.15929 2.82864 0
M  V30 7415 H 689.481 5.59009 1.81059 0
M  V30 7416 H 691.005 5.45978 2.73387 0
M  V30 7417 H 692.419 5.71315 0.476607 0
M  V30 7418 H 690.816 5.99525 -0.26258 0
M  V30 7419 H 691.886 4.75638 -0.943236 0
M  V30 7420 N 693.229 0.160201 1.56784 0
M  V30 7421 C 694.506 -0.533355 1.88188 0
M  V30 7422 C 694.886 -1.82072 1.06831 0
M  V30 7423 O 694.234 -2.27946 0.158959 0
M  V30 7424 C 694.444 -0.786034 3.40033 0
M  V30 7425 C 695.792 -1.12097 4.09536 0
M  V30 7426 O 696.816 -0.874949 3.45287 0
M  V30 7427 O 695.675 -1.58457 5.23023 0
M  V30 7428 H 692.769 -0.273589 0.780434 0
M  V30 7429 H 695.315 0.197803 1.68543 0
M  V30 7430 H 694.087 0.124515 3.91102 0
M  V30 7431 H 693.71 -1.57091 3.65251 0
M  V30 7432 N 694.707 -1.5719 -0.113559 0
M  V30 7433 C 695.654 -2.00736 -1.13901 0
M  V30 7434 C 696.624 -0.88044 -1.40846 0
M  V30 7435 O 697.809 -1.14507 -1.5262 0
M  V30 7436 C 694.949 -2.42132 -2.45899 0
M  V30 7437 C 694.062 -3.68264 -2.25844 0
M  V30 7438 C 693.197 -3.98617 -3.5111 0
M  V30 7439 C 692.236 -5.17915 -3.26236 0
M  V30 7440 N 691.373 -5.44111 -4.4372 0
M  V30 7441 H 696.213 -2.88128 -0.760677 0
M  V30 7442 H 693.75 -1.42523 -0.364099 0
M  V30 7443 H 695.708 -2.6417 -3.22908 0
M  V30 7444 H 694.338 -1.57775 -2.81615 0
M  V30 7445 H 693.39 -3.53809 -1.39726 0
M  V30 7446 H 694.702 -4.55425 -2.03444 0
M  V30 7447 H 693.856 -4.21333 -4.36536 0
M  V30 7448 H 692.595 -3.09942 -3.76546 0
M  V30 7449 H 691.6 -4.95038 -2.39202 0
M  V30 7450 H 692.825 -6.08172 -3.02165 0
M  V30 7451 H 690.771 -4.58394 -4.69266 0
M  V30 7452 H 690.688 -6.25606 -4.24444 0
M  V30 7453 H 691.956 -5.71351 -5.30263 0
M  V30 7454 N 696.185 0.383891 -1.52853 0
M  V30 7455 C 697.132 1.46924 -1.77995 0
M  V30 7456 C 698.102 1.53958 -0.623396 0
M  V30 7457 O 699.287 1.70134 -0.863657 0
M  V30 7458 C 696.427 2.84093 -1.95921 0
M  V30 7459 C 695.54 2.86171 -3.23621 0
M  V30 7460 C 694.675 4.14799 -3.31836 0
M  V30 7461 C 693.714 4.10948 -4.53639 0
M  V30 7462 N 692.851 5.31192 -4.59107 0
M  V30 7463 H 697.691 1.24786 -2.70615 0
M  V30 7464 H 695.228 0.605265 -1.34071 0
M  V30 7465 H 697.186 3.63755 -2.04299 0
M  V30 7466 H 695.816 3.04671 -1.06656 0
M  V30 7467 H 694.868 1.9885 -3.24288 0
M  V30 7468 H 696.18 2.79194 -4.13343 0
M  V30 7469 H 695.334 5.02867 -3.39425 0
M  V30 7470 H 694.073 4.24505 -2.40097 0
M  V30 7471 H 693.078 3.21268 -4.46169 0
M  V30 7472 H 694.303 4.0286 -5.467 0
M  V30 7473 H 692.249 5.41518 -3.70262 0
M  V30 7474 H 692.166 5.26311 -5.42708 0
M  V30 7475 H 693.434 6.21143 -4.70958 0
M  V30 7476 N 697.663 1.43903 0.642637 0
M  V30 7477 C 698.613 1.46321 1.74854 0
M  V30 7478 C 699.597 0.330361 1.57472 0
M  V30 7479 O 700.789 0.574881 1.67404 0
M  V30 7480 C 697.918 1.39919 3.13493 0
M  V30 7481 C 697.004 2.58274 3.36385 0
M  V30 7482 N 697.395 3.83578 3.29699 0
M  V30 7483 C 695.693 2.53224 3.67142 0
M  V30 7484 C 696.394 4.62375 3.52965 0
M  V30 7485 N 695.37 3.93269 3.75287 0
M  V30 7486 H 699.172 2.41062 1.68126 0
M  V30 7487 H 696.686 1.38704 0.844693 0
M  V30 7488 H 698.683 1.39735 3.92785 0
M  V30 7489 H 697.343 0.46207 3.21395 0
M  V30 7490 H 698.354 4.15713 3.08874 0
M  V30 7491 H 695.031 1.68252 3.82096 0
M  V30 7492 H 696.421 5.714 3.53485 0
M  V30 7493 N 699.141 -0.881989 1.30609 0
M  V30 7494 C 700.388 -1.63405 1.19604 0
M  V30 7495 C 700.716 -1.92905 -0.248574 0
M  V30 7496 O 699.971 -1.55062 -1.19391 0
M  V30 7497 C 700.27 -2.97999 1.97311 0
M  V30 7498 C 699.936 -2.88039 3.46907 0
M  V30 7499 C 698.598 -2.85029 3.877 0
M  V30 7500 C 700.95 -2.75948 4.42156 0
M  V30 7501 C 698.278 -2.67772 5.2203 0
M  V30 7502 C 700.63 -2.60228 5.76597 0
M  V30 7503 C 699.294 -2.55595 6.16626 0
M  V30 7504 H 698.564 -0.597941 0.437662 0
M  V30 7505 H 701.211 -1.02524 1.61744 0
M  V30 7506 H 699.516 -3.62847 1.47815 0
M  V30 7507 H 701.213 -3.55156 1.86186 0
M  V30 7508 H 697.803 -2.91192 3.14492 0
M  V30 7509 H 701.987 -2.77337 4.1158 0
M  V30 7510 H 697.243 -2.62601 5.52133 0
M  V30 7511 H 701.417 -2.49847 6.50038 0
M  V30 7512 H 699.044 -2.41981 7.20659 0
M  V30 7513 N 700.619 -1.13374 -1.09472 0
M  V30 7514 C 702.03 -0.90801 -1.63132 0
M  V30 7515 C 702.381 0.555576 -1.8817 0
M  V30 7516 O 701.506 1.42218 -1.63104 0
M  V30 7517 C 702.101 -1.64182 -2.96361 0
M  V30 7518 C 700.66 -1.46197 -3.46848 0
M  V30 7519 C 699.807 -1.67134 -2.21273 0
M  V30 7520 H 702.758 -1.2871 -0.928411 0
M  V30 7521 H 702.779 -1.09863 -3.64294 0
M  V30 7522 H 702.291 -2.707 -2.78106 0
M  V30 7523 H 700.392 -0.419788 -3.70228 0
M  V30 7524 H 700.505 -2.22472 -4.24315 0
M  V30 7525 H 698.869 -1.09616 -2.29905 0
M  V30 7526 H 699.652 -2.74971 -2.05538 0
M  V30 7527 N 702.098 1.27442 -0.927168 0
M  V30 7528 C 703.031 2.25177 -0.370232 0
M  V30 7529 C 704.009 1.53612 0.533103 0
M  V30 7530 O 705.193 1.8245 0.47373 0
M  V30 7531 C 702.32 3.35431 0.469411 0
M  V30 7532 C 701.366 4.24888 -0.370419 0
M  V30 7533 S 702.199 5.04852 -1.78562 0
M  V30 7534 C 703.355 6.18592 -0.953651 0
M  V30 7535 H 703.588 2.72069 -1.19858 0
M  V30 7536 H 701.121 1.36089 -0.729316 0
M  V30 7537 H 703.079 3.99404 0.947992 0
M  V30 7538 H 701.74 2.87179 1.27228 0
M  V30 7539 H 700.933 5.03264 0.272226 0
M  V30 7540 H 700.535 3.65709 -0.783153 0
M  V30 7541 H 702.827 6.77235 -0.189408 0
M  V30 7542 H 703.77 6.87132 -1.7104 0
M  V30 7543 H 704.178 5.62318 -0.495897 0
M  V30 7544 N 703.576 0.692616 1.41565 0
M  V30 7545 C 704.816 0.226453 2.03142 0
M  V30 7546 C 705.18 -1.1512 1.5366 0
M  V30 7547 O 706.381 -1.71305 2.07143 0
M  V30 7548 C 704.652 0.27855 3.56313 0
M  V30 7549 S 706.211 -0.114001 4.38652 0
M  V30 7550 H 703.029 0.0914767 0.705091 0
M  V30 7551 H 705.631 0.909737 1.73043 0
M  V30 7552 H 704.335 1.28325 3.89821 0
M  V30 7553 H 703.866 -0.423981 3.91109 0
M  V30 7554 H 705.881 -1.34256 4.77692 0
M  V30 7555 N 705.054 -1.51416 0.437162 0
M  V30 7556 C 706.331 -1.94682 -0.189292 0
M  V30 7557 C 706.711 -1.37581 -1.60108 0
M  V30 7558 O 706.059 -0.562815 -2.2146 0
M  V30 7559 C 706.269 -3.48599 -0.167201 0
M  V30 7560 C 707.617 -4.2296 -0.372856 0
M  V30 7561 O 708.641 -3.55354 -0.245323 0
M  V30 7562 O 707.5 -5.42895 -0.626693 0
M  V30 7563 H 704.594 -0.816708 -0.130063 0
M  V30 7564 H 707.14 -1.62316 0.495128 0
M  V30 7565 H 705.912 -3.82616 0.81981 0
M  V30 7566 H 705.535 -3.87406 -0.894537 0
M  V30 7567 N 706.532 -0.168513 -1.56696 0
M  V30 7568 C 707.462 0.758563 -2.20835 0
M  V30 7569 C 708.443 1.24121 -1.1631 0
M  V30 7570 O 709.628 1.29487 -1.4473 0
M  V30 7571 C 706.758 1.9892 -2.8469 0
M  V30 7572 C 705.712 1.64252 -3.95228 0
M  V30 7573 C 705.038 2.94757 -4.46119 0
M  V30 7574 C 706.338 0.872675 -5.14958 0
M  V30 7575 H 708.032 0.223953 -2.98561 0
M  V30 7576 H 705.578 0.106277 -1.43607 0
M  V30 7577 H 707.531 2.64275 -3.28233 0
M  V30 7578 H 706.255 2.5479 -2.04327 0
M  V30 7579 H 704.914 1.01266 -3.52336 0
M  V30 7580 H 704.562 3.48662 -3.62552 0
M  V30 7581 H 704.262 2.72316 -5.2069 0
M  V30 7582 H 705.786 3.61147 -4.92347 0
M  V30 7583 H 707.2 1.42875 -5.55211 0
M  V30 7584 H 705.597 0.747402 -5.95428 0
M  V30 7585 H 706.667 -0.131535 -4.84722 0
M  V30 7586 N 708.01 1.57248 0.105221 0
M  V30 7587 C 709.257 1.8557 0.810552 0
M  V30 7588 C 709.585 0.755595 1.79223 0
M  V30 7589 O 708.84 -0.251788 1.94073 0
M  V30 7590 C 709.139 3.20437 1.58287 0
M  V30 7591 C 708.805 4.44716 0.744235 0
M  V30 7592 C 707.467 4.78458 0.513013 0
M  V30 7593 C 709.819 5.20953 0.160578 0
M  V30 7594 C 707.147 5.8587 -0.311894 0
M  V30 7595 C 709.499 6.29235 -0.651596 0
M  V30 7596 C 708.163 6.615 -0.893005 0
M  V30 7597 H 707.433 0.67905 0.296602 0
M  V30 7598 H 710.08 1.91363 0.0723968 0
M  V30 7599 H 708.385 3.10283 2.39232 0
M  V30 7600 H 710.082 3.39576 2.13282 0
M  V30 7601 H 706.672 4.18287 0.934555 0
M  V30 7602 H 710.856 4.95226 0.3264 0
M  V30 7603 H 706.112 6.09286 -0.508012 0
M  V30 7604 H 710.286 6.87484 -1.11077 0
M  V30 7605 H 707.913 7.44562 -1.53401 0
M  V30 7606 N 709.488 -0.375779 1.53054 0
M  V30 7607 C 710.418 -1.46598 1.81745 0
M  V30 7608 C 711.399 -1.56337 0.670286 0
M  V30 7609 O 712.584 -1.71071 0.919158 0
M  V30 7610 C 709.714 -2.84058 1.99821 0
M  V30 7611 C 708.668 -2.8915 3.15557 0
M  V30 7612 C 707.994 -4.29187 3.18908 0
M  V30 7613 C 709.294 -2.57595 4.54359 0
M  V30 7614 H 710.988 -1.22837 2.73041 0
M  V30 7615 H 708.534 -0.589485 1.31381 0
M  V30 7616 H 710.487 -3.60342 2.18475 0
M  V30 7617 H 709.211 -3.09184 1.05226 0
M  V30 7618 H 707.87 -2.15316 2.96706 0
M  V30 7619 H 707.518 -4.51374 2.2197 0
M  V30 7620 H 707.218 -4.33512 3.96662 0
M  V30 7621 H 708.742 -5.07359 3.39734 0
M  V30 7622 H 710.156 -3.23595 4.73243 0
M  V30 7623 H 708.553 -2.73252 5.34279 0
M  V30 7624 H 709.623 -1.52882 4.60169 0
M  V30 7625 N 710.966 -1.44241 -0.634997 0
M  V30 7626 C 712.194 -1.50296 -1.42193 0
M  V30 7627 C 712.609 -0.12658 -1.88375 0
M  V30 7628 O 711.966 0.86678 -1.60603 0
M  V30 7629 C 712.017 -2.46437 -2.64482 0
M  V30 7630 O 711.738 -3.78724 -2.20226 0
M  V30 7631 C 713.239 -2.61918 -3.57651 0
M  V30 7632 H 710.459 -0.509865 -0.43621 0
M  V30 7633 H 713.003 -1.89167 -0.776921 0
M  V30 7634 H 711.158 -2.10712 -3.25083 0
M  V30 7635 H 711.572 -4.30595 -2.9948 0
M  V30 7636 H 713.046 -3.33225 -4.40074 0
M  V30 7637 H 713.523 -1.67017 -4.06204 0
M  V30 7638 H 714.129 -2.98528 -3.02921 0
M  V30 7639 N 712.444 0.87505 -1.31075 0
M  V30 7640 C 713.407 1.96333 -1.18263 0
M  V30 7641 C 714.407 1.60416 -0.111106 0
M  V30 7642 O 715.597 1.7044 -0.359987 0
M  V30 7643 C 712.729 3.31036 -0.81414 0
M  V30 7644 H 713.922 2.09125 -2.14958 0
M  V30 7645 H 711.475 1.06271 -1.14614 0
M  V30 7646 H 712.21 3.23944 0.151875 0
M  V30 7647 H 711.995 3.58476 -1.58862 0
M  V30 7648 H 713.485 4.10842 -0.748249 0
M  V30 7649 N 713.922 1.13953 1.08869 0
M  V30 7650 C 715.171 0.899431 1.80536 0
M  V30 7651 C 715.484 -0.575781 1.86933 0
M  V30 7652 O 716.69 -0.932988 2.54966 0
M  V30 7653 C 715.146 1.55963 3.24351 0
M  V30 7654 C 714.754 3.07077 3.26202 0
M  V30 7655 C 716.498 1.40046 4.00733 0
M  V30 7656 C 714.405 3.65955 4.64576 0
M  V30 7657 H 713.335 0.332849 0.676556 0
M  V30 7658 H 715.986 1.3679 1.22314 0
M  V30 7659 H 714.368 1.01883 3.82669 0
M  V30 7660 H 715.542 3.67785 2.77617 0
M  V30 7661 H 713.857 3.22576 2.63312 0
M  V30 7662 H 716.454 1.81441 5.02974 0
M  V30 7663 H 716.797 0.345993 4.1486 0
M  V30 7664 H 717.33 1.91137 3.48872 0
M  V30 7665 H 714.069 4.71234 4.55652 0
M  V30 7666 H 713.589 3.10027 5.13462 0
M  V30 7667 H 715.268 3.65968 5.33551 0
M  V30 7668 N 715.4 -1.26948 0.933913 0
M  V30 7669 C 716.649 -1.93378 0.573409 0
M  V30 7670 C 716.962 -1.74148 -0.890614 0
M  V30 7671 O 718.168 -2.34971 -1.36017 0
M  V30 7672 C 716.624 -3.46449 0.974747 0
M  V30 7673 C 716.232 -3.74425 2.45988 0
M  V30 7674 C 717.976 -4.18924 0.685791 0
M  V30 7675 C 715.883 -5.209 2.8003 0
M  V30 7676 H 714.813 -0.723952 0.210736 0
M  V30 7677 H 717.464 -1.44143 1.13557 0
M  V30 7678 H 715.846 -3.94528 0.341181 0
M  V30 7679 H 717.02 -3.37079 3.14188 0
M  V30 7680 H 715.335 -3.15167 2.72138 0
M  V30 7681 H 717.932 -5.26786 0.916546 0
M  V30 7682 H 718.275 -4.14587 -0.377217 0
M  V30 7683 H 718.808 -3.76687 1.27874 0
M  V30 7684 H 715.547 -5.30332 3.85264 0
M  V30 7685 H 715.067 -5.59369 2.16485 0
M  V30 7686 H 716.746 -5.88837 2.68105 0
M  V30 7687 N 716.879 -0.700114 -1.41195 0
M  V30 7688 C 718.107 -0.242179 -2.05478 0
M  V30 7689 C 718.522 1.11029 -1.52702 0
M  V30 7690 O 717.879 1.69473 -0.677127 0
M  V30 7691 C 717.93 -0.196271 -3.60967 0
M  V30 7692 O 717.651 -1.49532 -4.11791 0
M  V30 7693 C 719.152 0.282102 -4.42401 0
M  V30 7694 H 716.372 -0.111749 -0.661629 0
M  V30 7695 H 718.916 -0.953975 -1.80885 0
M  V30 7696 H 717.071 0.46638 -3.84582 0
M  V30 7697 H 717.485 -1.38545 -5.05871 0
M  V30 7698 H 718.959 0.263093 -5.51373 0
M  V30 7699 H 719.436 1.32174 -4.1884 0
M  V30 7700 H 720.042 -0.349712 -4.2386 0
M  V30 7701 N 718.357 1.51182 -0.445186 0
M  V30 7702 C 719.603 2.02452 0.11882 0
M  V30 7703 C 719.936 1.32824 1.41673 0
M  V30 7704 O 719.211 0.445637 1.89326 0
M  V30 7705 C 719.494 3.5859 0.329475 0
M  V30 7706 C 719.347 4.38823 -0.987638 0
M  V30 7707 C 720.666 4.26241 1.09575 0
M  V30 7708 H 717.785 0.735819 0.0417092 0
M  V30 7709 H 720.427 1.80747 -0.585718 0
M  V30 7710 H 718.577 3.77214 0.9296 0
M  V30 7711 H 720.249 4.3183 -1.62235 0
M  V30 7712 H 718.492 4.03594 -1.59041 0
M  V30 7713 H 719.163 5.46257 -0.794192 0
M  V30 7714 H 721.639 4.11934 0.587328 0
M  V30 7715 H 720.515 5.35354 1.21191 0
M  V30 7716 H 720.776 3.87635 2.12584 0
M  V30 7717 N 719.835 0.176821 1.56605 0
M  V30 7718 C 721.084 -0.466833 1.96223 0
M  V30 7719 C 721.397 -1.64015 1.06576 0
M  V30 7720 O 722.603 -2.3504 1.35898 0
M  V30 7721 C 721.059 -0.881921 3.48927 0
M  V30 7722 C 720.667 0.266102 4.47209 0
M  V30 7723 C 722.411 -1.49368 3.97353 0
M  V30 7724 C 720.318 -0.168923 5.91159 0
M  V30 7725 H 719.248 -0.178178 0.732645 0
M  V30 7726 H 721.899 0.265929 1.81563 0
M  V30 7727 H 720.281 -1.67082 3.59026 0
M  V30 7728 H 721.455 1.04349 4.4883 0
M  V30 7729 H 719.77 0.788178 4.08872 0
M  V30 7730 H 722.367 -1.8313 5.02362 0
M  V30 7731 H 722.71 -2.3936 3.40606 0
M  V30 7732 H 723.243 -0.769114 3.90294 0
M  V30 7733 H 719.982 0.696351 6.51791 0
M  V30 7734 H 719.502 -0.911552 5.92833 0
M  V30 7735 H 721.181 -0.610938 6.44109 0
M  V30 7736 N 721.313 -1.57302 -0.09688 0
M  V30 7737 C 722.56 -1.85997 -0.800699 0
M  V30 7738 C 722.888 -0.765089 -1.7882 0
M  V30 7739 O 722.143 0.241492 -1.94204 0
M  V30 7740 C 722.442 -3.21272 -1.56586 0
M  V30 7741 C 722.108 -4.45104 -0.72064 0
M  V30 7742 C 720.77 -4.78723 -0.487632 0
M  V30 7743 C 723.122 -5.2103 -0.132948 0
M  V30 7744 C 720.45 -5.85697 0.34296 0
M  V30 7745 C 722.802 -6.28881 0.684957 0
M  V30 7746 C 721.466 -6.61017 0.928073 0
M  V30 7747 H 720.736 -0.680613 -0.292997 0
M  V30 7748 H 723.383 -1.91399 -0.0622474 0
M  V30 7749 H 721.688 -3.11547 -2.37583 0
M  V30 7750 H 723.385 -3.40702 -2.11478 0
M  V30 7751 H 719.975 -4.18777 -0.912359 0
M  V30 7752 H 724.159 -4.95392 -0.300132 0
M  V30 7753 H 719.415 -6.09008 0.540317 0
M  V30 7754 H 723.589 -6.86886 1.14721 0
M  V30 7755 H 721.216 -7.43738 1.57348 0
M  V30 7756 N 722.791 0.367657 -1.53252 0
M  V30 7757 C 724.038 1.11052 -1.69333 0
M  V30 7758 C 724.366 1.89363 -0.444064 0
M  V30 7759 O 723.621 1.87094 0.573953 0
M  V30 7760 C 723.92 2.09825 -2.89324 0
M  V30 7761 C 723.586 1.4801 -4.25915 0
M  V30 7762 C 722.248 1.30879 -4.6306 0
M  V30 7763 C 724.6 1.03268 -5.10867 0
M  V30 7764 C 721.928 0.675868 -5.82794 0
M  V30 7765 C 724.28 0.41377 -6.31245 0
M  V30 7766 C 722.944 0.229939 -6.67104 0
M  V30 7767 H 722.214 0.406367 -0.619634 0
M  V30 7768 H 724.861 0.392558 -1.87433 0
M  V30 7769 H 723.166 2.87917 -2.65728 0
M  V30 7770 H 724.863 2.67252 -2.98961 0
M  V30 7771 H 721.453 1.62336 -3.96667 0
M  V30 7772 H 725.637 1.15297 -4.82722 0
M  V30 7773 H 720.893 0.521833 -6.09169 0
M  V30 7774 H 725.067 0.0588768 -6.96375 0
M  V30 7775 H 722.694 -0.262562 -7.59746 0
M  V30 7776 N 724.269 1.44576 0.627338 0
M  V30 7777 C 725.497 1.51048 1.41394 0
M  V30 7778 C 725.912 0.136568 1.88305 0
M  V30 7779 O 725.269 -0.858251 1.6106 0
M  V30 7780 C 725.32 2.47837 2.63172 0
M  V30 7781 O 725.041 3.79887 2.18215 0
M  V30 7782 C 726.542 2.63811 3.56257 0
M  V30 7783 H 723.762 0.512171 0.4335 0
M  V30 7784 H 726.306 1.89576 0.766878 0
M  V30 7785 H 724.461 2.12433 3.23961 0
M  V30 7786 H 724.875 4.32177 2.97192 0
M  V30 7787 H 726.349 3.35554 4.38301 0
M  V30 7788 H 726.826 1.69169 4.05313 0
M  V30 7789 H 727.432 3.0013 3.01333 0
M  V30 7790 N 725.747 -0.868086 1.31537 0
M  V30 7791 C 726.993 -1.62367 1.2151 0
M  V30 7792 C 727.326 -1.92883 -0.225819 0
M  V30 7793 O 726.601 -1.56176 -1.15927 0
M  V30 7794 C 726.884 -2.95268 2.06129 0
M  V30 7795 C 726.737 -2.71619 3.58529 0
M  V30 7796 C 728.056 -3.96391 1.91212 0
M  V30 7797 H 725.175 -0.589178 0.442762 0
M  V30 7798 H 727.817 -1.00336 1.61347 0
M  V30 7799 H 725.967 -3.4821 1.72284 0
M  V30 7800 H 727.639 -2.25334 4.0252 0
M  V30 7801 H 725.882 -2.05817 3.81866 0
M  V30 7802 H 726.553 -3.66192 4.13047 0
M  V30 7803 H 729.029 -3.52663 2.20834 0
M  V30 7804 H 727.905 -4.87263 2.52718 0
M  V30 7805 H 728.166 -4.33335 0.875953 0
M  V30 7806 N 727.225 -1.14528 -1.08264 0
M  V30 7807 C 728.472 -0.914405 -1.80679 0
M  V30 7808 C 728.8 0.558952 -1.86295 0
M  V30 7809 O 728.055 1.43017 -1.33584 0
M  V30 7810 C 728.354 -1.46226 -3.26117 0
M  V30 7811 C 728.02 -2.95451 -3.40616 0
M  V30 7812 C 726.682 -3.36191 -3.4428 0
M  V30 7813 C 729.034 -3.91399 -3.44175 0
M  V30 7814 C 726.362 -4.71539 -3.49096 0
M  V30 7815 C 728.714 -5.26606 -3.50526 0
M  V30 7816 C 727.378 -5.66856 -3.52464 0
M  V30 7817 H 726.648 -0.334604 -0.661151 0
M  V30 7818 H 729.295 -1.4292 -1.27461 0
M  V30 7819 H 727.6 -0.868442 -3.82054 0
M  V30 7820 H 729.297 -1.25955 -3.80705 0
M  V30 7821 H 725.887 -2.62955 -3.38456 0
M  V30 7822 H 730.071 -3.61004 -3.40573 0
M  V30 7823 H 725.327 -5.02082 -3.4889 0
M  V30 7824 H 729.501 -6.00758 -3.52225 0
M  V30 7825 H 727.128 -6.71718 -3.55948 0
M  V30 7826 N 728.703 1.26451 -0.940633 0
M  V30 7827 C 729.949 1.94065 -0.58878 0
M  V30 7828 C 730.282 1.7363 0.869853 0
M  V30 7829 O 729.557 1.073 1.62225 0
M  V30 7830 C 729.84 3.47852 -0.931199 0
M  V30 7831 C 729.693 3.77575 -2.44453 0
M  V30 7832 C 731.012 4.37832 -0.446229 0
M  V30 7833 H 728.131 0.704827 -0.21538 0
M  V30 7834 H 730.773 1.4933 -1.17475 0
M  V30 7835 H 728.923 3.86085 -0.432539 0
M  V30 7836 H 730.595 3.49059 -3.01588 0
M  V30 7837 H 728.838 3.23671 -2.88825 0
M  V30 7838 H 729.509 4.85068 -2.63464 0
M  V30 7839 H 731.985 4.06822 -0.873778 0
M  V30 7840 H 730.861 5.44228 -0.714648 0
M  V30 7841 H 731.122 4.37239 0.653815 0
M  V30 7842 N 730.181 0.707592 1.40822 0
M  V30 7843 C 731.113 0.0105968 2.29198 0
M  V30 7844 C 732.126 -0.732035 1.45414 0
M  V30 7845 O 733.315 -0.580741 1.68789 0
M  V30 7846 C 730.415 -1.00921 3.23525 0
M  V30 7847 C 729.588 -0.333747 4.36125 0
M  V30 7848 C 728.647 -1.25783 5.10945 0
M  V30 7849 O 727.673 -0.745646 5.64295 0
M  V30 7850 N 728.875 -2.58947 5.19545 0
M  V30 7851 H 731.64 0.76938 2.89656 0
M  V30 7852 H 729.201 0.554579 1.52105 0
M  V30 7853 H 731.193 -1.6294 3.70449 0
M  V30 7854 H 729.763 -1.66942 2.6429 0
M  V30 7855 H 728.983 0.466518 3.9143 0
M  V30 7856 H 730.271 0.135444 5.0862 0
M  V30 7857 H 729.669 -3.03065 4.7767 0
M  V30 7858 H 728.226 -3.16131 5.70004 0
M  V30 7859 N 731.66 -1.50943 0.453197 0
M  V30 7860 C 732.908 -2.01813 -0.107709 0
M  V30 7861 C 733.229 -1.33841 -1.41816 0
M  V30 7862 O 732.499 -0.477973 -1.8998 0
M  V30 7863 H 731.079 -0.745773 -0.0427948 0
M  V30 7864 H 733.741 -1.8545 0.599531 0
M  V30 7865 H 732.837 -3.10911 -0.27218 0
M  V30 7866 N 733.138 -0.185124 -1.56509 0
M  V30 7867 C 734.071 0.77877 -2.145 0
M  V30 7868 C 735.049 1.21649 -1.07891 0
M  V30 7869 O 736.233 1.30579 -1.35946 0
M  V30 7870 C 733.36 2.05048 -2.69579 0
M  V30 7871 C 732.406 1.75569 -3.88687 0
M  V30 7872 S 733.239 0.912642 -5.27666 0
M  V30 7873 C 734.395 2.19471 -5.8616 0
M  V30 7874 H 734.628 0.285751 -2.95924 0
M  V30 7875 H 732.161 0.0297417 -1.54371 0
M  V30 7876 H 734.119 2.78085 -3.01958 0
M  V30 7877 H 732.78 2.51462 -1.88216 0
M  V30 7878 H 731.973 2.69962 -4.25601 0
M  V30 7879 H 731.575 1.10619 -3.57267 0
M  V30 7880 H 733.867 3.14815 -5.99915 0
M  V30 7881 H 734.81 1.87005 -6.8296 0
M  V30 7882 H 735.218 2.31862 -5.14685 0
M  V30 7883 N 734.616 1.57351 0.0885366 0
M  V30 7884 C 735.844 1.90631 0.804196 0
M  V30 7885 C 736.259 0.779474 1.71958 0
M  V30 7886 O 735.616 -0.248179 1.80805 0
M  V30 7887 C 735.667 3.23568 1.61202 0
M  V30 7888 O 735.388 4.31917 0.733447 0
M  V30 7889 C 736.889 3.70753 2.43016 0
M  V30 7890 H 734.109 0.630501 0.229585 0
M  V30 7891 H 736.653 2.044 0.0638092 0
M  V30 7892 H 734.808 3.11377 2.30485 0
M  V30 7893 H 735.222 5.08297 1.29361 0
M  V30 7894 H 736.696 4.66447 2.9518 0
M  V30 7895 H 737.173 2.98922 3.2178 0
M  V30 7896 H 737.779 3.85834 1.7892 0
M  V30 7897 N 736.094 -0.359525 1.53444 0
M  V30 7898 C 737.343 -1.09886 1.69139 0
M  V30 7899 C 737.656 -1.90285 0.452863 0
M  V30 7900 O 738.862 -2.67033 0.490459 0
M  V30 7901 C 737.318 -2.0028 2.99025 0
M  V30 7902 C 736.926 -1.25164 4.30161 0
M  V30 7903 C 738.67 -2.74168 3.24086 0
M  V30 7904 C 736.577 -2.14494 5.51132 0
M  V30 7905 H 735.507 -0.413936 0.630217 0
M  V30 7906 H 738.158 -0.359434 1.79945 0
M  V30 7907 H 736.54 -2.77978 2.82036 0
M  V30 7908 H 737.714 -0.524867 4.57801 0
M  V30 7909 H 736.029 -0.631116 4.11589 0
M  V30 7910 H 738.626 -3.41243 4.11652 0
M  V30 7911 H 738.969 -3.39868 2.40407 0
M  V30 7912 H 739.502 -2.0355 3.41778 0
M  V30 7913 H 736.241 -1.53362 6.37307 0
M  V30 7914 H 735.761 -2.85004 5.27762 0
M  V30 7915 H 737.44 -2.73914 5.86157 0
M  V30 7916 N 737.572 -1.44907 -0.619662 0
M  V30 7917 C 738.988 -1.29046 -0.939107 0
M  V30 7918 C 739.188 -0.23462 -2.00129 0
M  V30 7919 O 738.244 0.37558 -2.49691 0
M  V30 7920 C 739.557 -2.66567 -1.39149 0
M  V30 7921 C 741.105 -2.74368 -1.50635 0
M  V30 7922 C 741.58 -4.12386 -1.99253 0
M  V30 7923 N 743.071 -4.1462 -2.06506 0
M  V30 7924 C 743.806 -5.18272 -2.4532 0
M  V30 7925 N 743.302 -6.32278 -2.83189 0
M  V30 7926 N 745.095 -5.05628 -2.45554 0
M  V30 7927 H 737.246 -2.12239 0.0826135 0
M  V30 7928 H 739.509 -0.947652 -0.0256829 0
M  V30 7929 H 739.215 -3.4496 -0.685254 0
M  V30 7930 H 739.089 -2.94224 -2.36034 0
M  V30 7931 H 741.476 -1.96287 -2.20353 0
M  V30 7932 H 741.557 -2.50439 -0.520963 0
M  V30 7933 H 741.201 -4.90947 -1.30127 0
M  V30 7934 H 741.131 -4.33699 -2.98684 0
M  V30 7935 H 743.622 -3.32343 -1.79878 0
M  V30 7936 H 743.935 -7.07172 -3.11652 0
M  V30 7937 H 742.28 -6.35699 -2.80913 0
M  V30 7938 H 745.471 -4.15613 -2.15367 0
M  V30 7939 H 745.644 -5.86529 -2.75478 0
M  V30 7940 N 739.05 0.861098 -1.31996 0
M  V30 7941 C 740.461 1.43065 -1.19955 0
M  V30 7942 C 740.812 1.95273 0.190489 0
M  V30 7943 O 739.937 1.87012 1.08882 0
M  V30 7944 C 740.532 2.60052 -2.1716 0
M  V30 7945 C 739.091 3.13026 -2.09026 0
M  V30 7946 C 738.238 1.85756 -2.05888 0
M  V30 7947 H 741.189 0.668834 -1.43918 0
M  V30 7948 H 741.21 3.37016 -1.76637 0
M  V30 7949 H 740.722 2.22024 -3.18319 0
M  V30 7950 H 738.823 3.55653 -1.11092 0
M  V30 7951 H 738.936 3.74707 -2.98549 0
M  V30 7952 H 737.3 2.05088 -1.51033 0
M  V30 7953 H 738.083 1.49954 -3.08818 0
M  V30 7954 N 740.528 1.15101 1.07655 0
M  V30 7955 C 741.458 0.867864 2.16773 0
M  V30 7956 C 742.439 -0.180283 1.69142 0
M  V30 7957 O 743.624 -0.0353152 1.94168 0
M  V30 7958 C 740.754 0.35299 3.45501 0
M  V30 7959 C 739.708 1.33746 4.06566 0
M  V30 7960 C 739.034 0.681562 5.30338 0
M  V30 7961 C 740.334 2.7024 4.46954 0
M  V30 7962 H 742.028 1.78034 2.40716 0
M  V30 7963 H 739.574 0.857435 1.15689 0
M  V30 7964 H 741.527 0.142465 4.21159 0
M  V30 7965 H 740.251 -0.594945 3.21135 0
M  V30 7966 H 738.91 1.53429 3.32949 0
M  V30 7967 H 738.558 -0.272422 5.02262 0
M  V30 7968 H 738.258 1.33853 5.72151 0
M  V30 7969 H 739.782 0.48074 6.08705 0
M  V30 7970 H 741.196 2.5442 5.13754 0
M  V30 7971 H 739.593 3.32282 4.99709 0
M  V30 7972 H 740.663 3.26537 3.58471 0
M  V30 7973 N 742.006 -1.2595 0.947325 0
M  V30 7974 C 743.252 -1.9375 0.599064 0
M  V30 7975 C 743.585 -1.74088 -0.860632 0
M  V30 7976 O 742.86 -1.08158 -1.61654 0
M  V30 7977 C 743.143 -3.47353 0.949634 0
M  V30 7978 C 742.996 -3.76273 2.46452 0
M  V30 7979 C 744.315 -4.37589 0.469442 0
M  V30 7980 H 741.434 -0.703674 0.219115 0
M  V30 7981 H 744.076 -1.48705 1.18266 0
M  V30 7982 H 742.226 -3.8585 0.453008 0
M  V30 7983 H 743.898 -3.47455 3.03435 0
M  V30 7984 H 742.141 -3.22135 2.90537 0
M  V30 7985 H 742.812 -4.83664 2.66032 0
M  V30 7986 H 745.288 -4.06353 0.89534 0
M  V30 7987 H 744.164 -5.43841 0.7435 0
M  V30 7988 H 744.425 -4.37579 -0.630618 0
M  V30 7989 N 743.484 -0.715051 -1.40445 0
M  V30 7990 C 744.761 -0.181503 -1.94756 0
M  V30 7991 C 745.141 1.31268 -1.65324 0
M  V30 7992 O 744.489 2.0686 -0.970631 0
M  V30 7993 C 744.699 -0.493663 -3.45491 0
M  V30 7994 C 746.047 -0.432032 -4.22396 0
M  V30 7995 O 747.071 -0.429692 -3.53599 0
M  V30 7996 O 745.93 -0.409091 -5.44967 0
M  V30 7997 H 743.024 -0.0263989 -0.826579 0
M  V30 7998 H 745.57 -0.792546 -1.50056 0
M  V30 7999 H 744.342 -1.52713 -3.6027 0
M  V30 8000 H 743.965 0.14737 -3.97327 0
M  V30 8001 N 744.962 1.50701 -0.461195 0
M  V30 8002 C 745.892 2.31182 0.328184 0
M  V30 8003 C 746.873 1.37644 0.999408 0
M  V30 8004 O 748.058 1.66565 0.99848 0
M  V30 8005 C 745.188 3.17113 1.41621 0
M  V30 8006 C 744.142 4.19124 0.867148 0
M  V30 8007 C 743.468 4.93728 2.05272 0
M  V30 8008 C 744.768 5.22174 -0.114808 0
M  V30 8009 H 746.462 2.97423 -0.343501 0
M  V30 8010 H 744.008 1.43033 -0.166641 0
M  V30 8011 H 745.961 3.72208 1.97584 0
M  V30 8012 H 744.685 2.48739 2.11652 0
M  V30 8013 H 743.344 3.65116 0.329557 0
M  V30 8014 H 742.992 4.21835 2.73978 0
M  V30 8015 H 742.692 5.62724 1.69161 0
M  V30 8016 H 744.216 5.51654 2.61744 0
M  V30 8017 H 745.63 5.72198 0.355316 0
M  V30 8018 H 744.027 5.98833 -0.389689 0
M  V30 8019 H 745.097 4.7353 -1.04391 0
M  V30 8020 N 746.441 0.193421 1.56409 0
M  V30 8021 C 747.371 -0.723334 2.22014 0
M  V30 8022 C 748.352 -1.22254 1.1827 0
M  V30 8023 O 749.537 -1.27168 1.46771 0
M  V30 8024 C 746.667 -1.94366 2.87818 0
M  V30 8025 C 745.621 -1.57943 3.97791 0
M  V30 8026 C 744.947 -2.87623 4.50752 0
M  V30 8027 C 746.247 -0.790639 5.16281 0
M  V30 8028 H 747.941 -0.176426 2.9888 0
M  V30 8029 H 745.487 -0.0834166 1.43758 0
M  V30 8030 H 747.44 -2.5902 3.32396 0
M  V30 8031 H 746.164 -2.51507 2.08355 0
M  V30 8032 H 744.823 -0.956482 3.53903 0
M  V30 8033 H 744.471 -3.4285 3.68053 0
M  V30 8034 H 744.171 -2.63998 5.24956 0
M  V30 8035 H 745.695 -3.53268 4.9803 0
M  V30 8036 H 747.109 -1.34024 5.57414 0
M  V30 8037 H 745.506 -0.65258 5.96541 0
M  V30 8038 H 746.576 0.208633 4.84451 0
M  V30 8039 N 747.919 -1.57396 -0.0801906 0
M  V30 8040 C 748.882 -2.02133 -1.0805 0
M  V30 8041 C 749.882 -0.91707 -1.32085 0
M  V30 8042 O 751.072 -1.18217 -1.27947 0
M  V30 8043 C 748.204 -2.39479 -2.42616 0
M  V30 8044 H 749.397 -2.91733 -0.6951 0
M  V30 8045 H 746.95 -1.52869 -0.325677 0
M  V30 8046 H 747.685 -1.52879 -2.86004 0
M  V30 8047 H 747.47 -3.20052 -2.26515 0
M  V30 8048 H 748.96 -2.74697 -3.14534 0
M  V30 8049 N 749.397 0.351382 -1.53633 0
M  V30 8050 C 750.643 1.09411 -1.70754 0
M  V30 8051 C 750.976 1.88544 -0.465293 0
M  V30 8052 O 750.251 1.86923 0.537608 0
M  V30 8053 C 750.534 2.04173 -2.96623 0
M  V30 8054 C 750.387 1.28556 -4.31038 0
M  V30 8055 C 751.706 3.04102 -3.18136 0
M  V30 8056 H 748.825 0.396373 -0.621335 0
M  V30 8057 H 751.467 0.373464 -1.86293 0
M  V30 8058 H 749.617 2.65625 -2.83506 0
M  V30 8059 H 751.289 0.697786 -4.55992 0
M  V30 8060 H 749.532 0.587498 -4.29803 0
M  V30 8061 H 750.203 1.97989 -5.15271 0
M  V30 8062 H 752.679 2.5276 -3.30532 0
M  V30 8063 H 751.555 3.67616 -4.07615 0
M  V30 8064 H 751.816 3.75053 -2.34068 0
M  V30 8065 N 750.875 1.45233 0.611969 0
M  V30 8066 C 751.822 1.5357 1.72293 0
M  V30 8067 C 752.792 0.381912 1.6165 0
M  V30 8068 O 753.977 0.594765 1.81293 0
M  V30 8069 C 751.117 1.50419 3.10593 0
M  V30 8070 C 750.23 2.76316 3.32074 0
M  V30 8071 C 749.365 2.64866 4.60456 0
M  V30 8072 C 748.404 3.85838 4.7518 0
M  V30 8073 N 747.541 3.72949 5.94856 0
M  V30 8074 H 752.381 2.4848 1.64504 0
M  V30 8075 H 749.918 1.23302 0.802191 0
M  V30 8076 H 751.876 1.4658 3.90602 0
M  V30 8077 H 750.506 0.590621 3.17351 0
M  V30 8078 H 749.558 2.90261 2.45872 0
M  V30 8079 H 750.87 3.66055 3.38829 0
M  V30 8080 H 750.024 2.58969 5.48653 0
M  V30 8081 H 748.763 1.72719 4.56092 0
M  V30 8082 H 747.768 3.92099 3.85407 0
M  V30 8083 H 748.993 4.79045 4.81344 0
M  V30 8084 H 746.939 2.83567 5.91545 0
M  V30 8085 H 746.856 4.56319 6.02751 0
M  V30 8086 H 748.124 3.70976 6.85563 0
M  V30 8087 N 752.353 -0.854086 1.3245 0
M  V30 8088 C 753.3 -1.96271 1.21434 0
M  V30 8089 C 754.27 -1.6582 0.0963851 0
M  V30 8090 O 755.455 -1.88851 0.27203 0
M  V30 8091 C 752.595 -3.31939 0.943952 0
M  V30 8092 C 751.708 -3.74885 2.14675 0
M  V30 8093 C 750.843 -4.99347 1.81179 0
M  V30 8094 C 749.882 -5.34785 2.97777 0
M  V30 8095 N 749.019 -6.50425 2.6437 0
M  V30 8096 H 753.859 -2.05025 2.16261 0
M  V30 8097 H 751.396 -1.00348 1.07558 0
M  V30 8098 H 753.354 -4.10076 0.767675 0
M  V30 8099 H 751.984 -3.22784 0.0324763 0
M  V30 8100 H 751.036 -2.92396 2.43328 0
M  V30 8101 H 752.348 -3.97068 3.01891 0
M  V30 8102 H 751.502 -5.85193 1.60107 0
M  V30 8103 H 750.241 -4.79101 0.911777 0
M  V30 8104 H 749.246 -4.47451 3.1948 0
M  V30 8105 H 750.471 -5.56988 3.88511 0
M  V30 8106 H 748.417 -6.31695 1.7691 0
M  V30 8107 H 748.334 -6.7263 3.45116 0
M  V30 8108 H 749.602 -7.39422 2.46729 0
M  V30 8109 N 753.831 -1.1567 -1.07043 0
M  V30 8110 C 754.778 -0.856336 -2.14326 0
M  V30 8111 C 755.748 0.192051 -1.64986 0
M  V30 8112 O 756.933 0.0589148 -1.90709 0
M  V30 8113 C 754.073 -0.355227 -3.43267 0
M  V30 8114 C 753.186 -1.46555 -4.06381 0
M  V30 8115 C 752.321 -0.920245 -5.23168 0
M  V30 8116 C 751.36 -2.00729 -5.78251 0
M  V30 8117 N 750.497 -1.47813 -6.86364 0
M  V30 8118 H 755.337 -1.77514 -2.39359 0
M  V30 8119 H 752.874 -0.885676 -1.17449 0
M  V30 8120 H 754.832 -0.0463804 -4.17174 0
M  V30 8121 H 753.462 0.526649 -3.18475 0
M  V30 8122 H 752.514 -1.89052 -3.30096 0
M  V30 8123 H 753.826 -2.28616 -4.43324 0
M  V30 8124 H 752.98 -0.564127 -6.04072 0
M  V30 8125 H 751.719 -0.0688477 -4.87651 0
M  V30 8126 H 750.724 -2.3722 -4.95991 0
M  V30 8127 H 751.949 -2.86252 -6.15822 0
M  V30 8128 H 749.895 -0.649145 -6.5278 0
M  V30 8129 H 749.812 -2.23498 -7.22208 0
M  V30 8130 H 751.08 -1.15036 -7.70965 0
M  V30 8131 N 755.309 1.25446 -0.953992 0
M  V30 8132 C 756.241 2.25111 -0.431004 0
M  V30 8133 C 757.254 1.56377 0.452764 0
M  V30 8134 O 758.443 1.76579 0.261144 0
M  V30 8135 C 755.543 3.3655 0.39839 0
M  V30 8136 C 754.716 4.34843 -0.472229 0
M  V30 8137 C 753.775 5.25351 0.29886 0
M  V30 8138 O 752.801 5.68396 -0.302522 0
M  V30 8139 N 754.003 5.5824 1.59211 0
M  V30 8140 H 756.768 2.70619 -1.28785 0
M  V30 8141 H 754.329 1.39346 -0.824281 0
M  V30 8142 H 756.321 3.94059 0.921941 0
M  V30 8143 H 754.891 2.90436 1.15609 0
M  V30 8144 H 754.111 3.76222 -1.17689 0
M  V30 8145 H 755.399 4.97497 -1.06648 0
M  V30 8146 H 754.797 5.25172 2.10264 0
M  V30 8147 H 753.354 6.18336 2.06164 0
M  V30 8148 N 756.787 0.722489 1.40064 0
M  V30 8149 C 757.697 0.0755984 2.34478 0
M  V30 8150 C 758.713 -0.736046 1.57665 0
M  V30 8151 O 759.889 -0.667407 1.9002 0
M  V30 8152 C 756.954 -0.830075 3.36616 0
M  V30 8153 C 756.015 -0.00759884 4.29299 0
M  V30 8154 C 755.248 -0.870139 5.26559 0
M  V30 8155 O 755.471 -2.10921 5.2997 0
M  V30 8156 O 754.405 -0.305454 6.01124 0
M  V30 8157 H 758.231 0.854545 2.9143 0
M  V30 8158 H 755.816 0.483032 1.41376 0
M  V30 8159 H 757.698 -1.34864 3.99236 0
M  V30 8160 H 756.373 -1.58805 2.82069 0
M  V30 8161 H 755.28 0.556199 3.69942 0
M  V30 8162 H 756.613 0.712312 4.87018 0
M  V30 8163 N 758.265 -1.50454 0.469181 0
M  V30 8164 C 759.493 -2.06729 -0.0842134 0
M  V30 8165 C 759.908 -1.33326 -1.33677 0
M  V30 8166 O 759.265 -0.401977 -1.78018 0
M  V30 8167 C 759.316 -3.59557 -0.374253 0
M  V30 8168 O 759.037 -4.30192 0.828622 0
M  V30 8169 C 760.538 -4.32449 -0.974824 0
M  V30 8170 H 757.758 -0.670971 0.006231 0
M  V30 8171 H 760.302 -1.93645 0.657415 0
M  V30 8172 H 758.457 -3.7245 -1.06581 0
M  V30 8173 H 758.871 -5.21371 0.572066 0
M  V30 8174 H 760.345 -5.40361 -1.12755 0
M  V30 8175 H 760.822 -3.92819 -1.96442 0
M  V30 8176 H 761.428 -4.24082 -0.321703 0
M  V30 8177 N 759.743 -0.201713 -1.56304 0
M  V30 8178 C 760.69 0.716499 -2.19397 0
M  V30 8179 C 761.66 1.20494 -1.14326 0
M  V30 8180 O 762.845 1.26763 -1.42604 0
M  V30 8181 C 759.985 1.92762 -2.86246 0
M  V30 8182 C 759.098 1.47993 -4.0586 0
M  V30 8183 C 758.233 2.64706 -4.60547 0
M  V30 8184 C 757.272 2.16576 -5.72504 0
M  V30 8185 N 756.409 3.26491 -6.21569 0
M  V30 8186 H 761.249 0.171724 -2.97505 0
M  V30 8187 H 758.786 0.073016 -1.46919 0
M  V30 8188 H 760.744 2.6384 -3.23178 0
M  V30 8189 H 759.374 2.44559 -2.10691 0
M  V30 8190 H 758.426 0.66477 -3.74546 0
M  V30 8191 H 759.738 1.08686 -4.86815 0
M  V30 8192 H 758.892 3.43898 -4.99819 0
M  V30 8193 H 757.631 3.0729 -3.78713 0
M  V30 8194 H 756.636 1.3584 -5.32755 0
M  V30 8195 H 757.861 1.75015 -6.56161 0
M  V30 8196 H 755.807 3.68594 -5.42655 0
M  V30 8197 H 755.724 2.91374 -6.97594 0
M  V30 8198 H 756.992 4.05877 -6.65495 0
M  V30 8199 N 761.222 1.57436 0.0718424 0
M  V30 8200 C 762.638 1.53792 0.426628 0
M  V30 8201 C 762.838 0.921887 1.79174 0
M  V30 8202 O 761.894 0.524374 2.46995 0
M  V30 8203 C 763.207 2.98443 0.367739 0
M  V30 8204 C 764.755 3.09778 0.447928 0
M  V30 8205 C 765.23 4.5608 0.418946 0
M  V30 8206 N 766.721 4.60716 0.479022 0
M  V30 8207 C 767.456 5.71397 0.47881 0
M  V30 8208 N 766.952 6.91443 0.433417 0
M  V30 8209 N 768.745 5.59639 0.525364 0
M  V30 8210 H 760.896 1.95848 -0.822033 0
M  V30 8211 H 763.159 0.896418 -0.308447 0
M  V30 8212 H 762.865 3.47072 -0.56865 0
M  V30 8213 H 762.739 3.58335 1.17795 0
M  V30 8214 H 765.126 2.61122 1.37474 0
M  V30 8215 H 765.207 2.52796 -0.390857 0
M  V30 8216 H 764.851 5.05393 -0.504016 0
M  V30 8217 H 764.781 5.10925 1.27526 0
M  V30 8218 H 767.272 3.74328 0.518355 0
M  V30 8219 H 767.585 7.71562 0.43718 0
M  V30 8220 H 765.93 6.93847 0.400106 0
M  V30 8221 H 769.121 4.64756 0.558519 0
M  V30 8222 H 769.294 6.45896 0.52173 0
M  V30 8223 N 762.7 -0.34323 1.53817 0
M  V30 8224 C 763.925 -1.1079 1.75329 0
M  V30 8225 C 764.35 -1.81571 0.491293 0
M  V30 8226 O 763.708 -1.72561 -0.556089 0
M  V30 8227 C 763.756 -2.09681 2.9337 0
M  V30 8228 O 762.86 -3.17207 2.63541 0
M  V30 8229 H 762.201 -0.320402 0.581583 0
M  V30 8230 H 764.731 -0.393525 2.0078 0
M  V30 8231 H 764.741 -2.52897 3.20168 0
M  V30 8232 H 763.416 -1.5756 3.84899 0
M  V30 8233 H 761.993 -2.78806 2.47632 0
M  V30 8234 N 764.178 -1.45556 -0.604258 0
M  V30 8235 C 765.427 -1.49019 -1.35928 0
M  V30 8236 C 765.74 -0.137409 -1.95117 0
M  V30 8237 O 766.946 -0.0497032 -2.71455 0
M  V30 8238 C 765.402 -2.62477 -2.46239 0
M  V30 8239 C 765.01 -4.04082 -1.93447 0
M  V30 8240 C 766.754 -2.7519 -3.23219 0
M  V30 8241 C 764.661 -5.08917 -3.0126 0
M  V30 8242 H 763.591 -0.554518 -0.510907 0
M  V30 8243 H 766.242 -1.71705 -0.647262 0
M  V30 8244 H 764.624 -2.3308 -3.2014 0
M  V30 8245 H 765.798 -4.43173 -1.26232 0
M  V30 8246 H 764.113 -3.95849 -1.29201 0
M  V30 8247 H 766.71 -3.50683 -4.0364 0
M  V30 8248 H 767.053 -1.81941 -3.74437 0
M  V30 8249 H 767.586 -3.04129 -2.56418 0
M  V30 8250 H 764.325 -6.03886 -2.54955 0
M  V30 8251 H 763.845 -4.74393 -3.67031 0
M  V30 8252 H 765.524 -5.33814 -3.65584 0
M  V30 8253 N 765.656 0.84705 -1.32902 0
M  V30 8254 C 766.604 1.97765 -1.22441 0
M  V30 8255 C 767.598 1.68919 -0.127546 0
M  V30 8256 O 768.804 1.77633 -0.290973 0
M  V30 8257 H 765.179 0.649072 -0.379748 0
M  V30 8258 H 767.15 2.03713 -2.18044 0
M  V30 8259 C 765.899 3.33834 -0.972125 0
M  V30 8260 H 765.222 3.56564 -1.80837 0
M  V30 8261 H 766.662 4.13467 -0.939209 0
M  V30 8262 C 765.121 3.35328 0.325059 0
M  V30 8263 O 765.651 3.78887 1.33445 0
M  V30 8264 N 763.857 2.88488 0.349718 0
M  V30 8265 H 763.404 2.53234 -0.472236 0
M  V30 8266 H 763.362 2.8987 1.21748 0
M  V30 8267 N 767.134 1.16236 1.06428 0
M  V30 8268 C 768.044 0.881976 2.1739 0
M  V30 8269 C 769.06 -0.145259 1.73393 0
M  V30 8270 O 770.236 0.0310558 2.01376 0
M  V30 8271 C 767.301 0.385496 3.4455 0
M  V30 8272 C 766.362 1.47779 4.03063 0
M  V30 8273 C 765.595 1.0049 5.24154 0
M  V30 8274 O 765.818 -0.145889 5.70213 0
M  V30 8275 O 764.752 1.79265 5.74585 0
M  V30 8276 H 768.578 1.80983 2.43883 0
M  V30 8277 H 766.163 0.942226 1.15942 0
M  V30 8278 H 768.045 0.115536 4.21242 0
M  V30 8279 H 766.72 -0.514369 3.19587 0
M  V30 8280 H 765.627 1.80147 3.27869 0
M  V30 8281 H 766.96 2.35291 4.32318 0
M  V30 8282 N 768.612 -1.24939 0.960631 0
M  V30 8283 C 769.522 -2.29374 0.492435 0
M  V30 8284 C 770.538 -1.68262 -0.443154 0
M  V30 8285 O 771.714 -1.98875 -0.31793 0
M  V30 8286 C 768.779 -3.46023 -0.216626 0
M  V30 8287 C 767.84 -4.22557 0.757915 0
M  V30 8288 C 767.073 -5.33636 0.0825969 0
M  V30 8289 O 767.296 -5.59084 -1.13054 0
M  V30 8290 O 766.23 -5.96939 0.771177 0
M  V30 8291 H 770.056 -2.71525 1.36044 0
M  V30 8292 H 767.641 -1.30499 0.72735 0
M  V30 8293 H 769.523 -4.16885 -0.615241 0
M  V30 8294 H 768.198 -3.05862 -1.05971 0
M  V30 8295 H 767.105 -3.54099 1.20685 0
M  V30 8296 H 768.438 -4.66516 1.5692 0
M  V30 8297 N 770.09 -0.729906 -1.39679 0
M  V30 8298 C 771.339 -0.272534 -1.9985 0
M  V30 8299 C 771.652 1.14519 -1.58571 0
M  V30 8300 O 772.858 1.70182 -2.11543 0
M  V30 8301 C 771.314 -0.436322 -3.57245 0
M  V30 8302 C 770.922 -1.86161 -4.0749 0
M  V30 8303 C 772.666 -0.0404679 -4.24481 0
M  V30 8304 C 770.573 -1.97522 -5.5744 0
M  V30 8305 H 769.503 -0.0981428 -0.747585 0
M  V30 8306 H 772.154 -0.903056 -1.59741 0
M  V30 8307 H 770.536 0.263015 -3.95126 0
M  V30 8308 H 771.71 -2.59248 -3.80955 0
M  V30 8309 H 770.025 -2.21021 -3.529 0
M  V30 8310 H 772.622 -0.104437 -5.34598 0
M  V30 8311 H 772.965 1.00357 -4.04023 0
M  V30 8312 H 773.498 -0.690774 -3.91757 0
M  V30 8313 H 770.237 -3.00096 -5.82771 0
M  V30 8314 H 769.757 -1.28864 -5.85794 0
M  V30 8315 H 771.436 -1.754 -6.22771 0
M  V30 8316 N 771.568 1.50203 -0.477153 0
M  V30 8317 C 772.518 2.25561 0.332625 0
M  V30 8318 C 773.502 1.29401 0.956249 0
M  V30 8319 O 774.694 1.54267 0.867795 0
M  V30 8320 C 771.823 3.12984 1.41052 0
M  V30 8321 C 770.909 4.16595 0.79433 0
M  V30 8322 N 771.3 5.05722 -0.0889633 0
M  V30 8323 C 769.598 4.33279 1.0576 0
M  V30 8324 C 770.299 5.80039 -0.439286 0
M  V30 8325 N 769.275 5.43278 0.187018 0
M  V30 8326 H 773.077 2.91836 -0.347718 0
M  V30 8327 H 770.591 1.59759 -0.291686 0
M  V30 8328 H 772.588 3.65582 2.00388 0
M  V30 8329 H 771.248 2.48258 2.09279 0
M  V30 8330 H 772.259 5.15869 -0.458205 0
M  V30 8331 H 768.936 3.79769 1.7344 0
M  V30 8332 H 770.326 6.61802 -1.1605 0
M  V30 8333 N 773.046 0.209999 1.56195 0
M  V30 8334 C 774.274 -0.429996 2.02382 0
M  V30 8335 C 774.689 -1.54159 1.08998 0
M  V30 8336 O 774.046 -1.82239 0.0974856 0
M  V30 8337 C 774.097 -0.972433 3.48175 0
M  V30 8338 O 773.818 0.0948231 4.37997 0
M  V30 8339 C 775.319 -1.68683 4.09952 0
M  V30 8340 H 772.539 -0.106475 0.662498 0
M  V30 8341 H 775.083 0.323072 2.01932 0
M  V30 8342 H 773.238 -1.67582 3.49278 0
M  V30 8343 H 773.652 -0.31113 5.23576 0
M  V30 8344 H 775.126 -2.01851 5.13771 0
M  V30 8345 H 775.603 -2.59587 3.54276 0
M  V30 8346 H 776.209 -1.02893 4.12666 0
M  V30 8347 N 774.524 -1.57472 -0.0634922 0
M  V30 8348 C 775.456 -2.00999 -1.10145 0
M  V30 8349 C 776.469 -0.917219 -1.34503 0
M  V30 8350 O 777.658 -1.19501 -1.32596 0
M  V30 8351 C 774.758 -2.34089 -2.45063 0
M  V30 8352 C 773.931 -3.65317 -2.40546 0
M  V30 8353 C 772.99 -3.85982 -3.57637 0
M  V30 8354 O 772.016 -4.5747 -3.38689 0
M  V30 8355 N 773.218 -3.28971 -4.78287 0
M  V30 8356 H 775.983 -2.90656 -0.730714 0
M  V30 8357 H 773.544 -1.59926 -0.252017 0
M  V30 8358 H 775.536 -2.4508 -3.22053 0
M  V30 8359 H 774.106 -1.50279 -2.74107 0
M  V30 8360 H 773.326 -3.65003 -1.48885 0
M  V30 8361 H 774.614 -4.51468 -2.34636 0
M  V30 8362 H 774.012 -2.70962 -4.96584 0
M  V30 8363 H 772.569 -3.45398 -5.5276 0
M  V30 8364 N 776.003 0.335068 -1.53997 0
M  V30 8365 C 777.25 1.07435 -1.71651 0
M  V30 8366 C 777.578 1.88378 -0.48413 0
M  V30 8367 O 776.833 1.8827 0.534139 0
M  V30 8368 C 777.132 2.0364 -2.9371 0
M  V30 8369 C 776.798 1.38942 -4.28959 0
M  V30 8370 C 775.46 1.21027 -4.65732 0
M  V30 8371 C 777.812 0.924083 -5.12943 0
M  V30 8372 C 775.14 0.552097 -5.84097 0
M  V30 8373 C 777.492 0.27978 -6.31981 0
M  V30 8374 C 776.156 0.0883843 -6.67441 0
M  V30 8375 H 775.426 0.393133 -0.628114 0
M  V30 8376 H 778.073 0.352712 -1.88224 0
M  V30 8377 H 776.378 2.82215 -2.71775 0
M  V30 8378 H 778.075 2.6085 -3.04562 0
M  V30 8379 H 774.665 1.53885 -4.00022 0
M  V30 8380 H 778.849 1.05032 -4.85059 0
M  V30 8381 H 774.105 0.392502 -6.10139 0
M  V30 8382 H 778.279 -0.0888479 -6.96343 0
M  V30 8383 H 775.906 -0.423657 -7.59019 0
M  V30 8384 N 777.481 1.45874 0.596531 0
M  V30 8385 C 778.411 1.5824 1.71705 0
M  V30 8386 C 779.392 0.433366 1.64487 0
M  V30 8387 O 780.577 0.657895 1.82717 0
M  V30 8388 C 777.707 1.55927 3.10329 0
M  V30 8389 C 776.661 2.69659 3.32367 0
M  V30 8390 C 775.987 2.52403 4.71377 0
M  V30 8391 C 777.287 4.11591 3.21544 0
M  V30 8392 H 778.981 2.52035 1.61613 0
M  V30 8393 H 776.527 1.21297 0.776082 0
M  V30 8394 H 778.48 1.63173 3.88526 0
M  V30 8395 H 777.204 0.586674 3.21288 0
M  V30 8396 H 775.863 2.61859 2.56564 0
M  V30 8397 H 775.511 1.53258 4.79083 0
M  V30 8398 H 775.211 3.28679 4.87077 0
M  V30 8399 H 776.735 2.6152 5.5176 0
M  V30 8400 H 778.149 4.20576 3.89601 0
M  V30 8401 H 776.546 4.88344 3.4877 0
M  V30 8402 H 777.616 4.32719 2.1882 0
M  V30 8403 N 778.959 -0.83999 1.33349 0
M  V30 8404 C 780.236 -1.57973 1.15342 0
M  V30 8405 C 780.616 -2.09226 -0.280632 0
M  V30 8406 O 779.964 -1.89317 -1.2795 0
M  V30 8407 C 780.174 -2.71446 2.19359 0
M  V30 8408 C 781.522 -3.40654 2.53456 0
M  V30 8409 O 782.546 -2.81686 2.18017 0
M  V30 8410 O 781.405 -4.47101 3.14266 0
M  V30 8411 H 778.499 -0.6964 0.446044 0
M  V30 8412 H 781.045 -0.882843 1.44927 0
M  V30 8413 H 779.817 -2.31205 3.1569 0
M  V30 8414 H 779.44 -3.488 1.90852 0
M  V30 8415 N 780.437 -1.16799 -1.0581 0
M  V30 8416 C 781.387 -0.847231 -2.11674 0
M  V30 8417 C 782.371 0.175476 -1.5994 0
M  V30 8418 O 783.563 -0.0260602 -1.76981 0
M  V30 8419 C 780.692 -0.355446 -3.41455 0
M  V30 8420 C 779.778 -1.40922 -4.00002 0
M  V30 8421 N 780.169 -2.62096 -4.32596 0
M  V30 8422 C 778.467 -1.26562 -4.27666 0
M  V30 8423 C 779.168 -3.29759 -4.79201 0
M  V30 8424 N 778.144 -2.57138 -4.78938 0
M  V30 8425 H 781.946 -1.76862 -2.34727 0
M  V30 8426 H 779.46 -1.05577 -1.23399 0
M  V30 8427 H 781.457 -0.107231 -4.16762 0
M  V30 8428 H 780.117 0.559817 -3.19838 0
M  V30 8429 H 781.128 -2.99113 -4.22791 0
M  V30 8430 H 777.805 -0.411503 -4.15467 0
M  V30 8431 H 779.195 -4.33222 -5.13584 0
M  V30 8432 N 781.915 1.24427 -0.967243 0
M  V30 8433 C 782.845 2.2773 -0.515899 0
M  V30 8434 C 783.826 1.64197 0.444227 0
M  V30 8435 O 785.011 1.91193 0.340451 0
M  V30 8436 C 782.141 3.46751 0.195149 0
M  V30 8437 C 781.095 4.22548 -0.680953 0
M  V30 8438 C 780.421 5.34456 0.161561 0
M  V30 8439 C 781.721 4.83914 -1.96532 0
M  V30 8440 H 783.415 2.65735 -1.37933 0
M  V30 8441 H 780.961 1.27742 -0.664681 0
M  V30 8442 H 782.914 4.18153 0.522117 0
M  V30 8443 H 781.638 3.07771 1.09292 0
M  V30 8444 H 780.297 3.52946 -0.991186 0
M  V30 8445 H 779.945 4.91716 1.05947 0
M  V30 8446 H 779.645 5.86087 -0.421418 0
M  V30 8447 H 781.169 6.08685 0.483211 0
M  V30 8448 H 782.583 5.47392 -1.70396 0
M  V30 8449 H 780.98 5.45775 -2.49499 0
M  V30 8450 H 782.05 4.05393 -2.66053 0
M  V30 8451 N 783.393 0.737304 1.3929 0
M  V30 8452 C 784.323 0.113988 2.33222 0
M  V30 8453 C 785.304 -0.721695 1.54031 0
M  V30 8454 O 786.489 -0.666206 1.82415 0
M  V30 8455 C 783.619 -0.792319 3.38141 0
M  V30 8456 C 782.573 -0.0606178 4.27957 0
M  V30 8457 C 781.899 -1.08409 5.23595 0
M  V30 8458 C 783.199 1.09817 5.10625 0
M  V30 8459 H 784.893 0.898611 2.85596 0
M  V30 8460 H 782.439 0.433571 1.37318 0
M  V30 8461 H 784.392 -1.23793 4.02807 0
M  V30 8462 H 783.116 -1.60908 2.84211 0
M  V30 8463 H 781.775 0.365393 3.64775 0
M  V30 8464 H 781.423 -1.89449 4.6596 0
M  V30 8465 H 781.123 -0.599269 5.84536 0
M  V30 8466 H 782.647 -1.52936 5.91137 0
M  V30 8467 H 784.061 0.730892 5.68622 0
M  V30 8468 H 782.458 1.51278 5.80719 0
M  V30 8469 H 783.528 1.91878 4.45321 0
M  V30 8470 N 784.871 -1.49948 0.485112 0
M  V30 8471 C 786.099 -2.06806 -0.0622824 0
M  V30 8472 C 786.514 -1.34736 -1.32256 0
M  V30 8473 O 785.871 -0.420836 -1.77582 0
M  V30 8474 C 785.922 -3.59934 -0.336096 0
M  V30 8475 O 785.643 -4.29289 0.874203 0
M  V30 8476 C 787.144 -4.33459 -0.928903 0
M  V30 8477 H 784.364 -0.670867 0.0133472 0
M  V30 8478 H 786.908 -1.92937 0.677917 0
M  V30 8479 H 785.063 -3.7356 -1.02625 0
M  V30 8480 H 785.477 -5.20735 0.627332 0
M  V30 8481 H 786.951 -5.41527 -1.07017 0
M  V30 8482 H 787.428 -3.94881 -1.92265 0
M  V30 8483 H 788.034 -4.24399 -0.276705 0
M  V30 8484 N 786.349 -0.21828 -1.56081 0
M  V30 8485 C 787.597 0.413488 -1.97825 0
M  V30 8486 C 787.918 1.60527 -1.10707 0
M  V30 8487 O 787.188 1.9504 -0.183378 0
M  V30 8488 H 785.768 0.155757 -0.730581 0
M  V30 8489 H 788.43 -0.310413 -1.92412 0
M  V30 8490 H 787.526 0.742024 -3.03151 0
M  V30 8491 N 787.827 1.57504 0.0551401 0
M  V30 8492 C 789.076 1.87237 0.750009 0
M  V30 8493 C 789.389 0.813268 1.77891 0
M  V30 8494 O 790.595 0.99898 2.52453 0
M  V30 8495 C 789.051 3.32187 1.38491 0
M  V30 8496 C 788.659 4.46267 0.393707 0
M  V30 8497 C 790.403 3.71101 2.06117 0
M  V30 8498 C 788.31 5.82265 1.03547 0
M  V30 8499 H 787.24 0.698524 0.283866 0
M  V30 8500 H 789.891 1.835 0.00365997 0
M  V30 8501 H 788.273 3.30588 2.18008 0
M  V30 8502 H 789.447 4.59289 -0.372865 0
M  V30 8503 H 787.762 4.16015 -0.17902 0
M  V30 8504 H 790.359 4.70012 2.54937 0
M  V30 8505 H 790.702 3.01751 2.86796 0
M  V30 8506 H 791.235 3.74762 1.33409 0
M  V30 8507 H 787.974 6.54949 0.268644 0
M  V30 8508 H 787.494 5.73012 1.7725 0
M  V30 8509 H 789.173 6.28148 1.55047 0
M  V30 8510 N 789.305 -0.326896 1.54172 0
M  V30 8511 C 790.215 -1.42525 1.86343 0
M  V30 8512 C 791.231 -1.56764 0.75505 0
M  V30 8513 O 792.407 -1.71924 1.04901 0
M  V30 8514 C 789.472 -2.77286 2.08119 0
M  V30 8515 C 788.533 -2.7225 3.31931 0
M  V30 8516 C 787.766 -4.00584 3.52659 0
M  V30 8517 O 787.989 -4.98686 2.76891 0
M  V30 8518 O 786.923 -4.04045 4.46129 0
M  V30 8519 H 790.749 -1.18249 2.79734 0
M  V30 8520 H 788.334 -0.520614 1.40036 0
M  V30 8521 H 790.216 -3.57065 2.23791 0
M  V30 8522 H 788.891 -3.01459 1.17917 0
M  V30 8523 H 787.798 -1.91033 3.21647 0
M  V30 8524 H 789.131 -2.53032 4.2218 0
M  V30 8525 N 790.784 -1.46188 -0.588786 0
M  V30 8526 C 792.061 -1.41659 -1.34878 0
M  V30 8527 C 792.441 -0.0968913 -2.10878 0
M  V30 8528 O 791.789 0.921468 -2.09096 0
M  V30 8529 C 791.999 -2.6424 -2.27988 0
M  V30 8530 C 793.347 -3.1013 -2.90008 0
M  V30 8531 O 794.371 -2.64745 -2.38303 0
M  V30 8532 O 793.23 -3.88944 -3.83908 0
M  V30 8533 H 790.324 -0.563058 -0.605718 0
M  V30 8534 H 792.87 -1.58346 -0.610309 0
M  V30 8535 H 791.642 -3.51853 -1.71217 0
M  V30 8536 H 791.265 -2.49982 -3.09184 0
M  V30 8537 N 792.262 0.832906 -1.33792 0
M  V30 8538 C 793.511 1.58351 -1.24932 0
M  V30 8539 C 793.824 1.94754 0.181703 0
M  V30 8540 O 795.03 2.6865 0.392375 0
M  V30 8541 C 793.486 2.85643 -2.18943 0
M  V30 8542 C 793.094 2.56581 -3.67247 0
M  V30 8543 C 794.838 3.63667 -2.18968 0
M  V30 8544 C 792.745 3.80006 -4.53155 0
M  V30 8545 H 791.675 0.594278 -0.464058 0
M  V30 8546 H 794.326 0.91786 -1.58895 0
M  V30 8547 H 792.708 3.53781 -1.77919 0
M  V30 8548 H 793.882 1.96617 -4.16747 0
M  V30 8549 H 792.197 1.91851 -3.6957 0
M  V30 8550 H 794.794 4.55293 -2.80379 0
M  V30 8551 H 795.137 3.99039 -1.18631 0
M  V30 8552 H 795.67 3.0246 -2.58384 0
M  V30 8553 H 792.409 3.4976 -5.5439 0
M  V30 8554 H 791.929 4.39288 -4.08395 0
M  V30 8555 H 793.608 4.47523 -4.6726 0
M  V30 8556 N 793.74 1.17359 1.05189 0
M  V30 8557 C 794.98 0.972812 1.79766 0
M  V30 8558 C 795.344 -0.489832 1.85647 0
M  V30 8559 O 796.545 -0.809682 2.56315 0
M  V30 8560 C 794.816 1.59636 3.19767 0
M  V30 8561 S 796.375 1.54178 4.10822 0
M  V30 8562 H 793.193 0.34959 0.619119 0
M  V30 8563 H 795.795 1.49304 1.26209 0
M  V30 8564 H 794.499 2.65336 3.13089 0
M  V30 8565 H 794.03 1.07594 3.78401 0
M  V30 8566 H 796.045 0.549785 4.93145 0
M  V30 8567 N 795.218 -1.23913 0.973828 0
M  V30 8568 C 796.466 -1.91771 0.637817 0
M  V30 8569 C 796.787 -1.76434 -0.830435 0
M  V30 8570 O 796.057 -1.13965 -1.59339 0
M  V30 8571 H 794.637 -0.709761 0.232912 0
M  V30 8572 H 797.299 -1.50677 1.23622 0
M  V30 8573 H 796.395 -2.99327 0.883731 0
M  V30 8574 N 796.696 -0.74468 -1.38897 0
M  V30 8575 C 797.646 -0.0869375 -2.27834 0
M  V30 8576 C 798.63 0.702553 -1.44751 0
M  V30 8577 O 799.822 0.569972 -1.67572 0
M  V30 8578 C 796.951 0.812232 -3.33553 0
M  V30 8579 C 796.037 0.0163713 -4.24097 0
M  V30 8580 N 796.428 -1.01547 -4.95502 0
M  V30 8581 C 794.726 0.244554 -4.45329 0
M  V30 8582 C 795.427 -1.49622 -5.62128 0
M  V30 8583 N 794.403 -0.813097 -5.37485 0
M  V30 8584 H 798.205 -0.877345 -2.80499 0
M  V30 8585 H 795.719 -0.579898 -1.51694 0
M  V30 8586 H 797.716 1.299 -3.96146 0
M  V30 8587 H 796.376 1.60169 -2.82446 0
M  V30 8588 H 797.387 -1.39707 -4.98701 0
M  V30 8589 H 794.064 1.00806 -4.05147 0
M  V30 8590 H 795.454 -2.35523 -6.29268 0
M  V30 8591 N 798.174 1.49689 -0.493057 0
M  V30 8592 C 799.404 2.06536 0.0512397 0
M  V30 8593 C 799.812 1.35459 1.32089 0
M  V30 8594 O 799.155 0.424145 1.78736 0
M  V30 8595 C 799.217 3.57452 0.383231 0
M  V30 8596 C 798.881 4.50163 -0.787555 0
M  V30 8597 C 799.878 4.92151 -1.67582 0
M  V30 8598 C 797.563 4.92565 -0.984109 0
M  V30 8599 C 799.557 5.7527 -2.74487 0
M  V30 8600 C 797.244 5.75463 -2.05634 0
M  V30 8601 C 798.242 6.16719 -2.93507 0
M  V30 8602 O 797.93 6.97961 -3.98881 0
M  V30 8603 H 797.662 0.675862 -0.0136516 0
M  V30 8604 H 800.216 1.9356 -0.687298 0
M  V30 8605 H 798.446 3.68408 1.17526 0
M  V30 8606 H 800.135 3.96572 0.8652 0
M  V30 8607 H 800.901 4.60043 -1.53575 0
M  V30 8608 H 796.78 4.5996 -0.309541 0
M  V30 8609 H 800.324 6.07392 -3.43104 0
M  V30 8610 H 796.221 6.06983 -2.19639 0
M  V30 8611 H 796.989 7.16253 -3.96137 0
M  V30 8612 N 799.652 0.226554 1.55963 0
M  V30 8613 C 800.9 -0.402991 1.98041 0
M  V30 8614 C 801.221 -1.59938 1.11557 0
M  V30 8615 O 800.491 -1.9494 0.193719 0
M  V30 8616 H 799.071 -0.15188 0.731397 0
M  V30 8617 H 801.733 0.320613 1.92245 0
M  V30 8618 H 800.829 -0.725937 3.0354 0
M  V30 8619 N 801.13 -1.57531 -0.0467866 0
M  V30 8620 C 802.08 -2.01845 -1.06031 0
M  V30 8621 C 803.064 -0.904662 -1.33059 0
M  V30 8622 O 804.256 -1.16858 -1.32941 0
M  V30 8623 C 801.385 -2.48673 -2.36679 0
M  V30 8624 C 800.471 -3.66837 -2.12818 0
M  V30 8625 N 800.862 -4.80172 -1.5896 0
M  V30 8626 C 799.16 -3.73869 -2.43183 0
M  V30 8627 C 799.861 -5.61895 -1.50494 0
M  V30 8628 N 798.837 -5.0648 -1.97431 0
M  V30 8629 H 802.639 -2.869 -0.637623 0
M  V30 8630 H 800.153 -1.6041 -0.253427 0
M  V30 8631 H 802.15 -2.78671 -3.10077 0
M  V30 8632 H 800.81 -1.65016 -2.79642 0
M  V30 8633 H 801.821 -5.01967 -1.27474 0
M  V30 8634 H 798.498 -3.00977 -2.89342 0
M  V30 8635 H 799.888 -6.62918 -1.09494 0
M  V30 8636 N 802.608 0.318715 -1.54344 0
M  V30 8637 C 803.558 1.39364 -1.80448 0
M  V30 8638 C 804.542 1.46708 -0.660728 0
M  V30 8639 O 805.734 1.51159 -0.920869 0
M  V30 8640 C 802.863 2.76144 -2.03959 0
M  V30 8641 C 801.949 2.73094 -3.24469 0
M  V30 8642 N 802.34 2.39663 -4.45416 0
M  V30 8643 C 800.638 3.04218 -3.2614 0
M  V30 8644 C 801.339 2.45469 -5.27371 0
M  V30 8645 N 800.315 2.82107 -4.64668 0
M  V30 8646 H 804.117 1.12453 -2.71535 0
M  V30 8647 H 801.631 0.527221 -1.53604 0
M  V30 8648 H 803.628 3.53627 -2.20802 0
M  V30 8649 H 802.288 3.03982 -1.14129 0
M  V30 8650 H 803.299 2.12424 -4.72331 0
M  V30 8651 H 799.976 3.37066 -2.4636 0
M  V30 8652 H 801.366 2.22571 -6.33965 0
M  V30 8653 N 804.086 1.46499 0.581025 0
M  V30 8654 C 805.036 1.53606 1.68491 0
M  V30 8655 C 806.02 0.396853 1.55929 0
M  V30 8656 O 807.212 0.645366 1.64815 0
M  V30 8657 C 804.341 1.53089 3.07276 0
M  V30 8658 C 803.427 2.72309 3.25128 0
M  V30 8659 N 803.818 3.97216 3.13134 0
M  V30 8660 C 802.116 2.68568 3.56072 0
M  V30 8661 C 802.817 4.7693 3.33036 0
M  V30 8662 N 801.793 4.08833 3.58269 0
M  V30 8663 H 805.595 2.47976 1.5775 0
M  V30 8664 H 803.109 1.42161 0.785104 0
M  V30 8665 H 805.106 1.56268 3.86505 0
M  V30 8666 H 803.766 0.597969 3.19146 0
M  V30 8667 H 804.777 4.28439 2.90964 0
M  V30 8668 H 801.454 1.84307 3.74616 0
M  V30 8669 H 802.844 5.85879 3.28932 0
M  V30 8670 N 805.565 -0.825799 1.34232 0
M  V30 8671 C 806.811 -1.58379 1.27623 0
M  V30 8672 C 807.166 -1.91789 -0.15323 0
M  V30 8673 O 806.459 -1.56965 -1.09875 0
M  V30 8674 C 806.653 -2.89362 2.09772 0
M  V30 8675 C 806.482 -2.68747 3.60562 0
M  V30 8676 C 805.252 -2.6563 4.29848 0
M  V30 8677 C 807.45 -2.40463 4.54623 0
M  V30 8678 N 805.432 -2.3653 5.66504 0
M  V30 8679 C 806.803 -2.21032 5.79262 0
M  V30 8680 C 808.858 -2.26168 4.43568 0
M  V30 8681 C 807.561 -1.88754 6.94093 0
M  V30 8682 C 809.587 -1.95284 5.58228 0
M  V30 8683 C 808.949 -1.76674 6.81884 0
M  V30 8684 H 805.048 -0.582062 0.522234 0
M  V30 8685 H 807.632 -0.968308 1.68914 0
M  V30 8686 H 805.803 -3.48838 1.70783 0
M  V30 8687 H 807.535 -3.54716 1.94831 0
M  V30 8688 H 804.29 -2.79601 3.82257 0
M  V30 8689 H 804.714 -2.24827 6.38578 0
M  V30 8690 H 809.356 -2.39262 3.48588 0
M  V30 8691 H 807.074 -1.74397 7.89057 0
M  V30 8692 H 810.66 -1.84959 5.51617 0
M  V30 8693 H 809.54 -1.53123 7.69105 0
M  V30 8694 N 807.043 -1.17915 -1.04565 0
M  V30 8695 C 807.99 -0.901605 -2.12461 0
M  V30 8696 C 808.96 0.157011 -1.65356 0
M  V30 8697 O 810.145 0.0184494 -1.90791 0
M  V30 8698 C 807.285 -0.42796 -3.42436 0
M  V30 8699 C 806.398 -1.55142 -4.03181 0
M  V30 8700 C 805.533 -1.03101 -5.21098 0
M  V30 8701 C 804.572 -2.1295 -5.73863 0
M  V30 8702 N 803.709 -1.62339 -6.83074 0
M  V30 8703 H 808.549 -1.82551 -2.3554 0
M  V30 8704 H 806.086 -0.910389 -1.15544 0
M  V30 8705 H 808.044 -0.134859 -4.16982 0
M  V30 8706 H 806.674 0.458977 -3.1952 0
M  V30 8707 H 805.726 -1.96011 -3.26012 0
M  V30 8708 H 807.038 -2.37968 -4.38375 0
M  V30 8709 H 806.192 -0.692132 -6.02739 0
M  V30 8710 H 804.931 -0.17227 -4.87396 0
M  V30 8711 H 803.936 -2.47687 -4.90847 0
M  V30 8712 H 805.161 -2.9925 -6.09611 0
M  V30 8713 H 803.107 -0.787464 -6.51256 0
M  V30 8714 H 803.024 -2.38767 -7.17305 0
M  V30 8715 H 804.292 -1.31363 -7.68351 0
M  V30 8716 N 808.521 1.23394 -0.980386 0
M  V30 8717 C 809.798 1.87242 -0.565667 0
M  V30 8718 C 810.178 1.88151 0.957197 0
M  V30 8719 O 809.526 1.36309 1.8339 0
M  V30 8720 C 809.736 3.28743 -1.17172 0
M  V30 8721 C 811.084 4.05335 -1.26446 0
M  V30 8722 O 812.108 3.37962 -1.12517 0
M  V30 8723 O 810.967 5.25908 -1.48604 0
M  V30 8724 H 808.061 0.80477 -0.190459 0
M  V30 8725 H 810.607 1.3127 -1.07547 0
M  V30 8726 H 809.379 3.22647 -2.21392 0
M  V30 8727 H 809.002 3.92305 -0.646739 0
M  V30 8728 N 809.999 0.752036 1.385 0
M  V30 8729 C 810.946 0.123288 2.3047 0
M  V30 8730 C 811.916 -0.711326 1.50098 0
M  V30 8731 O 813.101 -0.667775 1.78733 0
M  V30 8732 C 810.241 -0.765085 3.36512 0
M  V30 8733 C 809.354 0.0839885 4.31918 0
M  V30 8734 C 808.489 -0.807243 5.25031 0
M  V30 8735 C 807.528 0.0455583 6.12083 0
M  V30 8736 N 806.665 -0.802547 6.97498 0
M  V30 8737 H 811.505 0.913169 2.83664 0
M  V30 8738 H 809.042 0.46195 1.39658 0
M  V30 8739 H 811 -1.29476 3.966 0
M  V30 8740 H 809.63 -1.52077 2.84732 0
M  V30 8741 H 808.682 0.731276 3.73305 0
M  V30 8742 H 809.994 0.74265 4.9324 0
M  V30 8743 H 809.148 -1.40414 5.90228 0
M  V30 8744 H 807.887 -1.49964 4.64071 0
M  V30 8745 H 806.892 0.655137 5.45883 0
M  V30 8746 H 808.117 0.734994 6.75111 0
M  V30 8747 H 806.063 -1.47992 6.39089 0
M  V30 8748 H 805.98 -0.200747 7.55733 0
M  V30 8749 H 807.248 -1.38447 7.67107 0
M  V30 8750 N 811.477 -1.49425 0.500989 0
M  V30 8751 C 812.407 -2.31971 -0.266775 0
M  V30 8752 C 813.388 -1.40245 -0.962563 0
M  V30 8753 O 814.573 -1.69154 -0.953968 0
M  V30 8754 C 811.703 -3.20757 -1.33163 0
M  V30 8755 C 810.657 -4.21275 -0.75572 0
M  V30 8756 C 809.983 -4.98997 -1.92109 0
M  V30 8757 C 811.283 -5.21686 0.253213 0
M  V30 8758 H 812.977 -2.96408 0.422237 0
M  V30 8759 H 810.523 -1.4254 0.204505 0
M  V30 8760 H 812.476 -3.77315 -1.87646 0
M  V30 8761 H 811.2 -2.54263 -2.04983 0
M  V30 8762 H 809.859 -3.65861 -0.232637 0
M  V30 8763 H 809.507 -4.28951 -2.62698 0
M  V30 8764 H 809.207 -5.67011 -1.54182 0
M  V30 8765 H 810.731 -5.584 -2.47026 0
M  V30 8766 H 812.145 -5.72939 -0.203483 0
M  V30 8767 H 810.542 -5.9759 0.548322 0
M  V30 8768 H 811.612 -4.70596 1.16909 0
M  V30 8769 N 812.955 -0.234822 -1.55841 0
M  V30 8770 C 813.903 0.686145 -2.22249 0
M  V30 8771 C 814.897 1.18948 -1.20614 0
M  V30 8772 O 816.103 1.14777 -1.38659 0
M  V30 8773 H 812.478 0.239724 -0.712767 0
M  V30 8774 H 814.449 0.102762 -2.98223 0
M  V30 8775 C 813.198 1.8776 -2.92646 0
M  V30 8776 H 812.521 1.49943 -3.70617 0
M  V30 8777 H 813.961 2.4995 -3.42493 0
M  V30 8778 C 812.42 2.74127 -1.95847 0
M  V30 8779 O 812.95 3.7329 -1.48384 0
M  V30 8780 N 811.156 2.4044 -1.63209 0
M  V30 8781 H 810.703 1.59854 -2.02001 0
M  V30 8782 H 810.661 2.98504 -0.987063 0
M  V30 8783 N 814.433 1.57553 0.0384317 0
M  V30 8784 C 815.849 1.54663 0.39391 0
M  V30 8785 C 816.049 0.959685 1.77179 0
M  V30 8786 O 815.105 0.576647 2.45827 0
M  V30 8787 C 816.418 2.99156 0.304352 0
M  V30 8788 C 817.966 3.10659 0.382119 0
M  V30 8789 C 818.441 4.56866 0.322111 0
M  V30 8790 N 819.932 4.61629 0.38119 0
M  V30 8791 C 820.667 5.72284 0.357501 0
M  V30 8792 N 820.163 6.92207 0.286654 0
M  V30 8793 N 821.956 5.60628 0.406538 0
M  V30 8794 H 814.107 1.9406 -0.86339 0
M  V30 8795 H 816.37 0.889673 -0.327392 0
M  V30 8796 H 816.076 3.45788 -0.642141 0
M  V30 8797 H 815.95 3.60753 1.10168 0
M  V30 8798 H 818.337 2.6398 1.31904 0
M  V30 8799 H 818.418 2.5191 -0.444391 0
M  V30 8800 H 818.062 5.0421 -0.611104 0
M  V30 8801 H 817.992 5.13515 1.1666 0
M  V30 8802 H 820.483 3.75343 0.438838 0
M  V30 8803 H 820.796 7.72316 0.273421 0
M  V30 8804 H 819.141 6.9454 0.252841 0
M  V30 8805 H 822.332 4.65836 0.459812 0
M  V30 8806 H 822.505 6.46858 0.384608 0
M  V30 8807 N 815.911 -0.310526 1.54511 0
M  V30 8808 C 817.158 -1.04691 1.73338 0
M  V30 8809 C 817.486 -1.87584 0.514038 0
M  V30 8810 O 816.741 -1.89096 -0.504119 0
M  V30 8811 C 817.04 -1.98942 2.96912 0
M  V30 8812 C 816.706 -1.321 4.31115 0
M  V30 8813 C 815.368 -1.13603 4.67598 0
M  V30 8814 C 817.72 -0.842362 5.14348 0
M  V30 8815 C 815.048 -0.459102 5.84901 0
M  V30 8816 C 817.4 -0.179202 6.32346 0
M  V30 8817 C 816.064 0.0178111 6.67498 0
M  V30 8818 H 815.334 -0.38309 0.634289 0
M  V30 8819 H 817.981 -0.322723 1.88761 0
M  V30 8820 H 816.286 -2.77856 2.76231 0
M  V30 8821 H 817.983 -2.55972 3.08674 0
M  V30 8822 H 814.573 -1.47502 4.02419 0
M  V30 8823 H 818.757 -0.973013 4.86668 0
M  V30 8824 H 814.013 -0.295385 6.10686 0
M  V30 8825 H 818.187 0.199619 6.96114 0
M  V30 8826 H 815.814 0.544356 7.58249 0
M  V30 8827 N 817.389 -1.46805 -0.573248 0
M  V30 8828 C 818.337 -1.58468 -1.70267 0
M  V30 8829 C 819.331 -0.452694 -1.63239 0
M  V30 8830 O 820.537 -0.629915 -1.68618 0
M  V30 8831 H 816.912 -0.498408 -0.56311 0
M  V30 8832 H 818.883 -2.5341 -1.57563 0
M  V30 8833 C 817.632 -1.60104 -3.08645 0
M  V30 8834 H 816.955 -2.4655 -3.14727 0
M  V30 8835 H 818.395 -1.72318 -3.87405 0
M  V30 8836 C 816.854 -0.33138 -3.35266 0
M  V30 8837 O 817.384 0.57438 -3.97572 0
M  V30 8838 N 815.59 -0.216358 -2.89793 0
M  V30 8839 H 815.137 -0.954345 -2.3927 0
M  V30 8840 H 815.095 0.632253 -3.07977 0
M  V30 8841 N 818.867 0.818669 -1.34668 0
M  V30 8842 C 819.814 1.92983 -1.26595 0
M  V30 8843 C 820.784 1.65506 -0.140315 0
M  V30 8844 O 821.969 1.88063 -0.322005 0
M  V30 8845 C 819.109 3.2932 -1.03163 0
M  V30 8846 C 818.222 3.69061 -2.24539 0
M  V30 8847 C 817.357 4.94368 -1.94355 0
M  V30 8848 C 816.396 5.26702 -3.11851 0
M  V30 8849 N 815.533 6.43187 -2.81522 0
M  V30 8850 H 820.373 1.99219 -2.2162 0
M  V30 8851 H 817.91 0.974612 -1.1018 0
M  V30 8852 H 819.868 4.07897 -0.87613 0
M  V30 8853 H 818.498 3.22584 -0.118045 0
M  V30 8854 H 817.55 2.85842 -2.50995 0
M  V30 8855 H 818.862 3.88924 -3.12313 0
M  V30 8856 H 818.016 5.80742 -1.75566 0
M  V30 8857 H 816.755 4.76515 -1.03848 0
M  V30 8858 H 815.76 4.38823 -3.31231 0
M  V30 8859 H 816.985 5.46492 -4.03142 0
M  V30 8860 H 814.931 6.26783 -1.93596 0
M  V30 8861 H 814.848 6.63243 -3.62829 0
M  V30 8862 H 816.116 7.32621 -2.66247 0
M  V30 8863 N 820.346 1.18468 1.03938 0
M  V30 8864 C 821.293 0.912859 2.1198 0
M  V30 8865 C 822.263 -0.14824 1.65437 0
M  V30 8866 O 823.448 -0.008331 1.90798 0
M  V30 8867 C 820.588 0.446114 3.42204 0
M  V30 8868 C 819.701 1.57278 4.02353 0
M  V30 8869 C 818.836 1.05863 5.20544 0
M  V30 8870 C 817.875 2.1599 5.72726 0
M  V30 8871 N 817.012 1.65959 6.82204 0
M  V30 8872 H 821.852 1.83798 2.34569 0
M  V30 8873 H 819.389 0.916504 1.15059 0
M  V30 8874 H 821.347 0.15697 4.16905 0
M  V30 8875 H 819.977 -0.442025 3.19759 0
M  V30 8876 H 819.029 1.97737 3.24968 0
M  V30 8877 H 820.341 2.40289 4.37107 0
M  V30 8878 H 819.495 0.724087 6.02364 0
M  V30 8879 H 818.234 0.198116 4.87297 0
M  V30 8880 H 817.239 2.50287 4.89527 0
M  V30 8881 H 818.464 3.02479 6.08016 0
M  V30 8882 H 816.41 0.82199 6.5083 0
M  V30 8883 H 816.327 2.42567 7.16029 0
M  V30 8884 H 817.595 1.35436 7.67644 0
M  V30 8885 N 821.824 -1.22873 0.986916 0
M  V30 8886 C 823.054 -1.95204 0.67668 0
M  V30 8887 C 823.462 -1.73193 -0.761641 0
M  V30 8888 O 822.805 -1.0243 -1.52492 0
M  V30 8889 C 822.867 -3.48173 0.895302 0
M  V30 8890 C 822.531 -3.93912 2.31695 0
M  V30 8891 C 823.528 -4.02064 3.29607 0
M  V30 8892 C 821.213 -4.26722 2.64978 0
M  V30 8893 C 823.207 -4.42391 4.58878 0
M  V30 8894 C 820.894 -4.66729 3.94471 0
M  V30 8895 C 821.892 -4.74531 4.91232 0
M  V30 8896 O 821.58 -5.13636 6.18412 0
M  V30 8897 H 821.312 -0.628105 0.24992 0
M  V30 8898 H 823.866 -1.5714 1.32274 0
M  V30 8899 H 822.096 -3.86223 0.192072 0
M  V30 8900 H 823.785 -4.01717 0.581233 0
M  V30 8901 H 824.551 -3.76912 3.05225 0
M  V30 8902 H 820.43 -4.19858 1.9037 0
M  V30 8903 H 823.974 -4.48395 5.34404 0
M  V30 8904 H 819.871 -4.91332 4.18645 0
M  V30 8905 H 820.639 -5.31728 6.2226 0
M  V30 8906 N 823.302 -0.75937 -1.38099 0
M  V30 8907 C 824.548 -0.318584 -2.00282 0
M  V30 8908 C 824.881 1.09854 -1.60143 0
M  V30 8909 O 824.156 1.75344 -0.841702 0
M  V30 8910 C 824.439 -0.448047 -3.57302 0
M  V30 8911 C 824.292 -1.9067 -4.07388 0
M  V30 8912 C 825.611 0.155119 -4.39827 0
M  V30 8913 H 822.73 -0.117233 -0.727616 0
M  V30 8914 H 825.372 -0.960097 -1.63958 0
M  V30 8915 H 823.522 0.0981003 -3.88376 0
M  V30 8916 H 825.194 -2.5116 -3.86932 0
M  V30 8917 H 823.437 -2.41979 -3.6004 0
M  V30 8918 H 824.108 -1.94841 -5.1647 0
M  V30 8919 H 826.584 -0.31073 -4.14938 0
M  V30 8920 H 825.46 0.0343264 -5.48889 0
M  V30 8921 H 825.721 1.24407 -4.24235 0
M  V30 8922 N 824.78 1.49157 -0.508906 0
M  V30 8923 C 825.727 2.2927 0.265288 0
M  V30 8924 C 826.697 1.3603 0.953162 0
M  V30 8925 O 827.882 1.64989 0.958291 0
M  V30 8926 C 825.022 3.18897 1.31904 0
M  V30 8927 C 824.135 4.27201 0.642144 0
M  V30 8928 C 823.27 5.04033 1.67701 0
M  V30 8929 C 822.309 6.04165 0.982422 0
M  V30 8930 N 821.446 6.74133 1.96186 0
M  V30 8931 H 826.286 2.94967 -0.424107 0
M  V30 8932 H 823.823 1.45431 -0.220991 0
M  V30 8933 H 825.781 3.69242 1.94206 0
M  V30 8934 H 824.411 2.55168 1.97709 0
M  V30 8935 H 823.463 3.80283 -0.0943395 0
M  V30 8936 H 824.775 4.98708 0.0957507 0
M  V30 8937 H 823.929 5.58287 2.37487 0
M  V30 8938 H 822.668 4.32317 2.25728 0
M  V30 8939 H 821.673 5.49135 0.270378 0
M  V30 8940 H 822.898 6.7787 0.408554 0
M  V30 8941 H 820.844 6.05183 2.53159 0
M  V30 8942 H 820.761 7.41643 1.46634 0
M  V30 8943 H 822.029 7.32987 2.65236 0
M  V30 8944 N 826.258 0.243083 1.55714 0
M  V30 8945 C 827.205 -0.658078 2.21219 0
M  V30 8946 C 828.175 -1.1742 1.17481 0
M  V30 8947 O 829.36 -1.22937 1.45915 0
M  V30 8948 C 826.5 -1.85104 2.91257 0
M  V30 8949 C 825.613 -1.3718 4.09641 0
M  V30 8950 C 824.748 -2.52403 4.67404 0
M  V30 8951 C 823.787 -2.01321 5.78045 0
M  V30 8952 N 822.924 -3.09896 6.30007 0
M  V30 8953 H 827.764 -0.0927854 2.97856 0
M  V30 8954 H 825.301 -0.0340375 1.47061 0
M  V30 8955 H 827.259 -2.55179 3.3006 0
M  V30 8956 H 825.889 -2.38887 2.17101 0
M  V30 8957 H 824.941 -0.565232 3.76177 0
M  V30 8958 H 826.253 -0.957409 4.89525 0
M  V30 8959 H 825.407 -3.30525 5.08761 0
M  V30 8960 H 824.146 -2.97142 3.86728 0
M  V30 8961 H 823.151 -1.21667 5.36169 0
M  V30 8962 H 824.376 -1.57556 6.6057 0
M  V30 8963 H 822.322 -3.54077 5.52237 0
M  V30 8964 H 822.239 -2.72776 7.05074 0
M  V30 8965 H 823.507 -3.8809 6.76023 0
M  V30 8966 N 827.736 -1.57571 -0.0300757 0
M  V30 8967 C 828.976 -1.91074 -0.725946 0
M  V30 8968 C 829.34 -0.841545 -1.72575 0
M  V30 8969 O 830.541 -1.06088 -2.46979 0
M  V30 8970 C 828.812 -3.2973 -1.37888 0
M  V30 8971 S 830.371 -3.85065 -2.10405 0
M  V30 8972 H 827.189 -0.669084 -0.240515 0
M  V30 8973 H 829.791 -1.9549 0.019384 0
M  V30 8974 H 828.495 -4.05411 -0.637974 0
M  V30 8975 H 828.026 -3.28614 -2.16278 0
M  V30 8976 H 830.041 -3.63711 -3.37533 0
M  V30 8977 N 829.214 0.302327 -1.54673 0
M  V30 8978 C 830.144 1.37759 -1.88533 0
M  V30 8979 C 831.125 1.52961 -0.744113 0
M  V30 8980 O 832.31 1.6649 -0.999731 0
M  V30 8981 C 829.44 2.74201 -2.13146 0
M  V30 8982 C 828.394 2.73765 -3.28993 0
M  V30 8983 C 827.72 4.13483 -3.39022 0
M  V30 8984 C 829.02 2.35624 -4.66132 0
M  V30 8985 H 830.714 1.0967 -2.78591 0
M  V30 8986 H 828.26 0.52613 -1.34044 0
M  V30 8987 H 830.213 3.49508 -2.35419 0
M  V30 8988 H 828.937 3.03812 -1.19858 0
M  V30 8989 H 827.596 2.00914 -3.06642 0
M  V30 8990 H 827.244 4.40269 -2.43253 0
M  V30 8991 H 826.944 4.14093 -4.16894 0
M  V30 8992 H 828.468 4.90572 -3.63553 0
M  V30 8993 H 829.882 3.00647 -4.88143 0
M  V30 8994 H 828.279 2.47449 -5.46707 0
M  V30 8995 H 829.349 1.30753 -4.66939 0
M  V30 8996 N 830.692 1.47107 0.565454 0
M  V30 8997 C 831.941 1.5257 1.31929 0
M  V30 8998 C 832.254 0.189092 1.94684 0
M  V30 8999 O 833.46 0.121657 2.71227 0
M  V30 9000 C 831.916 2.68914 2.39193 0
M  V30 9001 C 831.524 4.09069 1.82665 0
M  V30 9002 C 833.268 2.83663 3.1581 0
M  V30 9003 C 831.175 5.16726 2.87661 0
M  V30 9004 H 830.105 0.567869 0.496025 0
M  V30 9005 H 832.756 1.73361 0.60151 0
M  V30 9006 H 831.138 2.41486 3.13848 0
M  V30 9007 H 832.312 4.46364 1.14438 0
M  V30 9008 H 830.627 3.99135 1.1866 0
M  V30 9009 H 833.224 3.61261 3.94201 0
M  V30 9010 H 833.567 1.91804 3.69482 0
M  V30 9011 H 834.1 3.10821 2.48265 0
M  V30 9012 H 830.839 6.10433 2.38854 0
M  V30 9013 H 830.359 4.83957 3.54324 0
M  V30 9014 H 832.038 5.43319 3.51303 0
M  V30 9015 N 832.17 -0.811516 1.35101 0
M  V30 9016 C 833.133 -1.90467 1.27495 0
M  V30 9017 C 834.133 -1.59703 0.187516 0
M  V30 9018 O 835.323 -1.68528 0.440896 0
M  V30 9019 C 832.455 -3.26774 0.971154 0
M  V30 9020 H 833.648 -1.98631 2.2469 0
M  V30 9021 H 831.201 -1.00681 1.19553 0
M  V30 9022 H 831.936 -3.243 0.0028557 0
M  V30 9023 H 831.721 -3.50488 1.75785 0
M  V30 9024 H 833.211 -4.06804 0.943414 0
M  V30 9025 N 833.648 -1.19017 -1.03309 0
M  V30 9026 C 834.896 -0.988258 -1.76289 0
M  V30 9027 C 835.217 0.482557 -1.88935 0
M  V30 9028 O 834.487 1.34969 -1.41987 0
M  V30 9029 H 833.067 -0.36267 -0.653054 0
M  V30 9030 H 835.729 -1.49836 -1.2464 0
M  V30 9031 H 834.825 -1.43273 -2.77271 0
M  V30 9032 N 835.127 1.22348 -0.993418 0
M  V30 9033 C 836.037 2.27987 -0.553076 0
M  V30 9034 C 837.053 1.69378 0.398386 0
M  V30 9035 O 838.229 1.99648 0.26509 0
M  V30 9036 C 835.294 3.46475 0.124809 0
M  V30 9037 C 834.355 4.20399 -0.869682 0
M  V30 9038 C 833.588 5.33229 -0.224052 0
M  V30 9039 O 833.811 5.61885 0.981915 0
M  V30 9040 O 832.745 5.94685 -0.929174 0
M  V30 9041 H 836.571 2.67822 -1.43195 0
M  V30 9042 H 834.156 1.28525 -0.761694 0
M  V30 9043 H 836.038 4.18369 0.504496 0
M  V30 9044 H 834.713 3.08565 0.978243 0
M  V30 9045 H 833.62 3.50774 -1.30031 0
M  V30 9046 H 834.953 4.62191 -1.69233 0
M  V30 9047 N 836.605 0.766683 1.37694 0
M  V30 9048 C 838.021 0.445739 1.53249 0
M  V30 9049 C 838.221 -1.03935 1.72626 0
M  V30 9050 O 837.277 -1.82525 1.74473 0
M  V30 9051 C 838.59 1.2564 2.73194 0
M  V30 9052 C 840.138 1.24779 2.87053 0
M  V30 9053 C 840.613 2.04169 4.09974 0
M  V30 9054 N 842.104 2.01497 4.17077 0
M  V30 9055 C 842.839 2.5971 5.11212 0
M  V30 9056 N 842.335 3.26691 6.10938 0
M  V30 9057 N 844.128 2.49568 5.03659 0
M  V30 9058 H 836.279 1.72899 1.23368 0
M  V30 9059 H 838.542 0.733701 0.600322 0
M  V30 9060 H 838.248 2.30859 2.65324 0
M  V30 9061 H 838.122 0.882133 3.6674 0
M  V30 9062 H 840.509 0.203603 2.94397 0
M  V30 9063 H 840.59 1.66166 1.9448 0
M  V30 9064 H 840.234 3.08606 4.03392 0
M  V30 9065 H 840.164 1.60167 5.01651 0
M  V30 9066 H 842.655 1.52728 3.45662 0
M  V30 9067 H 842.968 3.68497 6.79286 0
M  V30 9068 H 841.313 3.30789 6.11231 0
M  V30 9069 H 844.504 1.96859 4.24693 0
M  V30 9070 H 844.677 2.95231 5.76839 0
M  V30 9071 N 838.083 -1.48885 0.516809 0
M  V30 9072 C 839.308 -2.0739 -0.0205201 0
M  V30 9073 C 839.733 -1.37259 -1.28614 0
M  V30 9074 O 839.091 -0.434304 -1.76021 0
M  V30 9075 C 839.139 -3.59793 -0.24104 0
M  V30 9076 O 838.243 -3.90957 -1.31251 0
M  V30 9077 H 837.584 -0.663167 0.0332564 0
M  V30 9078 H 840.114 -1.91477 0.720956 0
M  V30 9079 H 840.124 -4.0531 -0.467737 0
M  V30 9080 H 838.799 -4.10244 0.68356 0
M  V30 9081 H 837.376 -3.57234 -1.06951 0
M  V30 9082 N 839.561 -0.251338 -1.55583 0
M  V30 9083 C 840.508 0.646337 -2.21565 0
M  V30 9084 C 841.478 1.16796 -1.18102 0
M  V30 9085 O 842.663 1.22162 -1.46564 0
M  V30 9086 C 839.803 1.83557 -2.92234 0
M  V30 9087 C 838.916 1.35006 -4.10363 0
M  V30 9088 C 838.051 2.4992 -4.68736 0
M  V30 9089 C 837.09 1.98253 -5.79105 0
M  V30 9090 N 836.227 3.06551 -6.31642 0
M  V30 9091 H 841.067 0.0769881 -2.97901 0
M  V30 9092 H 838.604 0.026238 -1.47077 0
M  V30 9093 H 840.562 2.53425 -3.31408 0
M  V30 9094 H 839.192 2.37733 -2.18364 0
M  V30 9095 H 838.244 0.545274 -3.76472 0
M  V30 9096 H 839.556 0.931435 -4.90026 0
M  V30 9097 H 838.71 3.27823 -5.10507 0
M  V30 9098 H 837.449 2.95086 -3.88298 0
M  V30 9099 H 836.454 1.18822 -5.36807 0
M  V30 9100 H 837.679 1.54051 -6.61396 0
M  V30 9101 H 835.625 3.51143 -5.54107 0
M  V30 9102 H 835.542 2.69033 -7.06511 0
M  V30 9103 H 836.81 3.84499 -6.78071 0
M  V30 9104 N 841.039 1.57585 0.0217189 0
M  V30 9105 C 841.949 2.10444 1.03684 0
M  V30 9106 C 842.965 1.04472 1.39146 0
M  V30 9107 O 844.141 1.36249 1.48317 0
M  V30 9108 C 841.206 2.5794 2.31664 0
M  V30 9109 C 840.267 3.78425 2.02714 0
M  V30 9110 C 839.5 4.23646 3.24592 0
M  V30 9111 O 839.723 3.6834 4.35525 0
M  V30 9112 O 838.657 5.16013 3.09862 0
M  V30 9113 H 842.483 2.97354 0.617584 0
M  V30 9114 H 840.068 1.47473 0.239174 0
M  V30 9115 H 841.95 2.88785 3.06889 0
M  V30 9116 H 840.625 1.74138 2.7287 0
M  V30 9117 H 839.532 3.52587 1.25033 0
M  V30 9118 H 840.865 4.63234 1.66359 0
M  V30 9119 N 842.517 -0.29412 1.54831 0
M  V30 9120 C 843.928 -0.866651 1.65366 0
M  V30 9121 C 844.279 -1.87834 0.56681 0
M  V30 9122 O 843.404 -2.14374 -0.295389 0
M  V30 9123 C 843.999 -1.57869 2.99771 0
M  V30 9124 C 842.558 -2.09954 3.12404 0
M  V30 9125 C 841.705 -0.934492 2.6108 0
M  V30 9126 H 844.656 -0.0709551 1.58541 0
M  V30 9127 H 844.677 -2.44462 2.91579 0
M  V30 9128 H 844.189 -0.84212 3.78853 0
M  V30 9129 H 842.29 -2.86637 2.38055 0
M  V30 9130 H 842.403 -2.32934 4.18663 0
M  V30 9131 H 840.767 -1.32199 2.17705 0
M  V30 9132 H 841.55 -0.211768 3.42646 0
M  V30 9133 N 843.995 -1.47404 -0.557645 0
M  V30 9134 C 844.927 -1.55917 -1.67995 0
M  V30 9135 C 845.94 -0.445411 -1.56588 0
M  V30 9136 O 847.129 -0.714999 -1.63554 0
M  V30 9137 C 844.229 -1.44697 -3.06457 0
M  V30 9138 C 843.402 -2.70633 -3.43622 0
M  V30 9139 C 842.461 -2.53256 -4.61246 0
M  V30 9140 O 841.487 -3.27068 -4.65849 0
M  V30 9141 N 842.689 -1.61053 -5.57711 0
M  V30 9142 H 845.454 -2.52694 -1.61139 0
M  V30 9143 H 843.015 -1.43778 -0.744271 0
M  V30 9144 H 845.007 -1.30806 -3.82978 0
M  V30 9145 H 843.577 -0.560039 -3.07542 0
M  V30 9146 H 842.797 -2.99288 -2.56555 0
M  V30 9147 H 844.085 -3.5424 -3.65228 0
M  V30 9148 H 843.483 -1.00235 -5.56749 0
M  V30 9149 H 842.04 -1.53115 -6.33561 0
M  V30 9150 N 845.473 0.80434 -1.35529 0
M  V30 9151 C 846.403 1.93086 -1.31301 0
M  V30 9152 C 847.384 1.69068 -0.187044 0
M  V30 9153 O 848.569 1.90399 -0.382359 0
M  V30 9154 C 845.699 3.29867 -1.0865 0
M  V30 9155 C 844.653 3.68373 -2.17911 0
M  V30 9156 C 843.979 5.0334 -1.80423 0
M  V30 9157 C 845.279 3.78516 -3.59893 0
M  V30 9158 H 846.973 1.96882 -2.25561 0
M  V30 9159 H 844.519 0.945841 -1.08581 0
M  V30 9160 H 846.472 4.08281 -1.04331 0
M  V30 9161 H 845.196 3.2642 -0.108359 0
M  V30 9162 H 843.855 2.92247 -2.21331 0
M  V30 9163 H 843.503 4.96399 -0.812213 0
M  V30 9164 H 843.203 5.30074 -2.53565 0
M  V30 9165 H 844.727 5.84191 -1.77633 0
M  V30 9166 H 846.141 4.47155 -3.58783 0
M  V30 9167 H 844.538 4.16721 -4.31814 0
M  V30 9168 H 845.608 2.8001 -3.95882 0
M  V30 9169 N 846.951 1.19563 1.02676 0
M  V30 9170 C 848.2 0.993864 1.75514 0
M  V30 9171 C 848.513 -0.475882 1.89723 0
M  V30 9172 O 849.719 -0.796525 2.59553 0
M  V30 9173 C 848.175 1.72937 3.15628 0
M  V30 9174 C 847.783 3.23937 3.09466 0
M  V30 9175 C 849.527 1.61092 3.92746 0
M  V30 9176 C 847.434 3.90067 4.44524 0
M  V30 9177 H 846.364 0.368244 0.657961 0
M  V30 9178 H 849.015 1.43081 1.14891 0
M  V30 9179 H 847.397 1.22025 3.76731 0
M  V30 9180 H 848.571 3.81983 2.57731 0
M  V30 9181 H 846.886 3.3608 2.45843 0
M  V30 9182 H 849.483 2.07848 4.92649 0
M  V30 9183 H 849.826 0.565415 4.12442 0
M  V30 9184 H 850.359 2.09361 3.3825 0
M  V30 9185 H 847.098 4.94725 4.30032 0
M  V30 9186 H 846.618 3.36809 4.96306 0
M  V30 9187 H 848.297 3.93736 5.13401 0
M  V30 9188 N 848.429 -1.21819 0.999893 0
M  V30 9189 C 849.392 -2.22227 0.561044 0
M  V30 9190 C 850.392 -1.56722 -0.359858 0
M  V30 9191 O 851.582 -1.73546 -0.150848 0
M  V30 9192 C 848.714 -3.40409 -0.182987 0
M  V30 9193 H 849.907 -2.62567 1.44909 0
M  V30 9194 H 847.46 -1.34991 0.78785 0
M  V30 9195 H 848.195 -3.05551 -1.08671 0
M  V30 9196 H 847.98 -3.89171 0.47833 0
M  V30 9197 H 849.47 -4.14856 -0.477952 0
M  V30 9198 N 849.908 -0.773975 -1.37286 0
M  V30 9199 C 851.155 -0.339306 -1.99637 0
M  V30 9200 C 851.483 1.08478 -1.61439 0
M  V30 9201 O 850.738 1.7612 -0.853252 0
M  V30 9202 C 851.037 -0.432651 -3.54772 0
M  V30 9203 C 850.703 -1.81531 -4.12744 0
M  V30 9204 C 849.365 -2.19366 -4.2829 0
M  V30 9205 C 851.717 -2.72137 -4.44512 0
M  V30 9206 C 849.045 -3.47239 -4.72908 0
M  V30 9207 C 851.397 -3.99421 -4.90556 0
M  V30 9208 C 850.061 -4.37298 -5.04308 0
M  V30 9209 H 849.331 -0.124161 -0.730524 0
M  V30 9210 H 851.978 -0.988432 -1.64019 0
M  V30 9211 H 850.283 0.30001 -3.9065 0
M  V30 9212 H 851.98 -0.0776 -4.00925 0
M  V30 9213 H 848.57 -1.51126 -4.01072 0
M  V30 9214 H 852.754 -2.44165 -4.32084 0
M  V30 9215 H 848.01 -3.76477 -4.81742 0
M  V30 9216 H 852.184 -4.69756 -5.14104 0
M  V30 9217 H 849.811 -5.36442 -5.38641 0
M  V30 9218 N 851.386 1.48609 -0.524698 0
M  V30 9219 C 852.616 2.06599 0.00741868 0
M  V30 9220 C 853.024 1.3823 1.29186 0
M  V30 9221 O 852.367 0.461962 1.77797 0
M  V30 9222 C 852.429 3.58184 0.307324 0
M  V30 9223 C 852.093 4.48391 -0.882864 0
M  V30 9224 C 853.09 4.88485 -1.77984 0
M  V30 9225 C 850.775 4.90367 -1.08837 0
M  V30 9226 C 852.769 5.69319 -2.86627 0
M  V30 9227 C 850.456 5.70972 -2.17794 0
M  V30 9228 C 851.454 6.10355 -3.06523 0
M  V30 9229 O 851.142 6.89343 -4.13596 0
M  V30 9230 H 850.874 0.675421 -0.0279846 0
M  V30 9231 H 853.428 1.92058 -0.7282 0
M  V30 9232 H 851.658 3.70818 1.09685 0
M  V30 9233 H 853.347 3.98318 0.780886 0
M  V30 9234 H 854.113 4.56682 -1.63299 0
M  V30 9235 H 849.992 4.592 -0.407035 0
M  V30 9236 H 853.536 5.99978 -3.55911 0
M  V30 9237 H 849.433 6.02188 -2.32465 0
M  V30 9238 H 850.201 7.07689 -4.1124 0
M  V30 9239 N 852.864 0.259585 1.55447 0
M  V30 9240 C 853.814 -0.648769 2.18575 0
M  V30 9241 C 854.798 -1.1299 1.14552 0
M  V30 9242 O 855.99 -1.07756 1.4042 0
M  V30 9243 C 853.119 -1.83963 2.89849 0
M  V30 9244 C 852.205 -1.37641 4.01143 0
M  V30 9245 N 852.596 -0.628269 5.01883 0
M  V30 9246 C 850.894 -1.66066 4.1393 0
M  V30 9247 C 851.595 -0.386746 5.80413 0
M  V30 9248 N 850.571 -0.954665 5.35151 0
M  V30 9249 H 854.373 -0.0691616 2.93819 0
M  V30 9250 H 851.887 0.0624525 1.6228 0
M  V30 9251 H 853.884 -2.50151 3.33512 0
M  V30 9252 H 852.544 -2.42334 2.16112 0
M  V30 9253 H 853.555 -0.277123 5.17158 0
M  V30 9254 H 850.232 -2.25484 3.51373 0
M  V30 9255 H 851.622 0.211382 6.71567 0
M  V30 9256 N 854.342 -1.57594 -0.0133615 0
M  V30 9257 C 855.289 -2.07574 -1.00905 0
M  V30 9258 C 856.259 -0.968231 -1.34961 0
M  V30 9259 O 857.444 -1.23981 -1.45028 0
M  V30 9260 C 854.584 -2.5728 -2.30002 0
M  V30 9261 C 853.697 -3.81881 -2.01967 0
M  V30 9262 C 852.832 -4.20139 -3.25049 0
M  V30 9263 C 851.871 -5.37614 -2.92639 0
M  V30 9264 N 851.008 -5.71229 -4.08218 0
M  V30 9265 H 855.848 -2.92382 -0.575899 0
M  V30 9266 H 853.385 -1.4455 -0.272722 0
M  V30 9267 H 855.343 -2.84171 -3.05454 0
M  V30 9268 H 853.973 -1.75365 -2.71011 0
M  V30 9269 H 853.025 -3.61979 -1.16942 0
M  V30 9270 H 854.337 -4.67441 -1.74069 0
M  V30 9271 H 853.491 -4.48242 -4.08857 0
M  V30 9272 H 852.23 -3.33262 -3.56073 0
M  V30 9273 H 851.235 -5.09248 -2.07235 0
M  V30 9274 H 852.46 -6.26157 -2.62876 0
M  V30 9275 H 850.406 -4.8731 -4.39164 0
M  V30 9276 H 850.323 -6.51333 -3.83799 0
M  V30 9277 H 851.591 -6.03917 -4.92854 0
M  V30 9278 N 855.82 0.285905 -1.54985 0
M  V30 9279 C 856.753 1.37817 -1.81884 0
M  V30 9280 C 857.731 1.4811 -0.670988 0
M  V30 9281 O 858.915 1.64936 -0.912595 0
M  V30 9282 C 856.042 2.75587 -1.969 0
M  V30 9283 C 855.088 2.82643 -3.19398 0
M  V30 9284 S 855.921 2.43199 -4.7709 0
M  V30 9285 C 857.077 3.82969 -4.95061 0
M  V30 9286 H 857.31 1.14794 -2.74244 0
M  V30 9287 H 854.843 0.484843 -1.4659 0
M  V30 9288 H 856.801 3.54932 -2.06236 0
M  V30 9289 H 855.462 2.9587 -1.05451 0
M  V30 9290 H 854.655 3.8373 -3.26753 0
M  V30 9291 H 854.257 2.11306 -3.08586 0
M  V30 9292 H 856.549 4.78117 -4.80011 0
M  V30 9293 H 857.492 3.80575 -5.97133 0
M  V30 9294 H 857.9 3.73673 -4.23118 0
M  V30 9295 N 857.298 1.47698 0.54982 0
M  V30 9296 C 858.208 1.63386 1.68351 0
M  V30 9297 C 859.224 0.516583 1.66155 0
M  V30 9298 O 860.4 0.785088 1.85468 0
M  V30 9299 C 857.465 1.6513 3.04849 0
M  V30 9300 C 856.526 2.88338 3.18056 0
M  V30 9301 C 855.759 2.8999 4.48042 0
M  V30 9302 O 855.982 2.00633 5.3395 0
M  V30 9303 O 854.916 3.81938 4.65196 0
M  V30 9304 H 858.742 2.59329 1.58057 0
M  V30 9305 H 856.327 1.30869 0.72067 0
M  V30 9306 H 858.209 1.68913 3.86065 0
M  V30 9307 H 856.884 0.723555 3.1551 0
M  V30 9308 H 855.791 2.90097 2.36209 0
M  V30 9309 H 857.124 3.80431 3.12302 0
M  V30 9310 N 858.776 -0.797141 1.35954 0
M  V30 9311 C 859.709 -1.91567 1.24005 0
M  V30 9312 C 860.687 -1.62112 0.125868 0
M  V30 9313 O 861.871 -1.86167 0.295638 0
M  V30 9314 C 858.998 -3.26204 0.911535 0
M  V30 9315 C 858.044 -3.74598 2.03909 0
M  V30 9316 S 858.877 -3.91276 3.656 0
M  V30 9317 C 860.033 -5.288 3.34846 0
M  V30 9318 H 860.266 -2.0141 2.18681 0
M  V30 9319 H 857.799 -0.955542 1.2128 0
M  V30 9320 H 859.757 -4.03979 0.728805 0
M  V30 9321 H 858.418 -3.14095 -0.0173159 0
M  V30 9322 H 857.611 -4.72137 1.7636 0
M  V30 9323 H 857.213 -3.03849 2.18064 0
M  V30 9324 H 859.505 -6.13117 2.8826 0
M  V30 9325 H 860.448 -5.61347 4.31619 0
M  V30 9326 H 860.856 -4.95534 2.70382 0
M  V30 9327 N 860.254 -1.20106 -1.0204 0
M  V30 9328 C 861.201 -0.946468 -2.10501 0
M  V30 9329 C 862.171 0.121902 -1.65652 0
M  V30 9330 O 863.356 -0.0220244 -1.90787 0
M  V30 9331 C 860.496 -0.500499 -3.41451 0
M  V30 9332 C 859.609 -1.63659 -3.998 0
M  V30 9333 C 858.744 -1.14131 -5.18794 0
M  V30 9334 C 857.783 -2.25074 -5.69217 0
M  V30 9335 N 856.92 -1.76791 -6.79477 0
M  V30 9336 H 861.76 -1.87506 -2.31615 0
M  V30 9337 H 859.297 -0.934693 -1.13587 0
M  V30 9338 H 861.255 -0.223276 -4.16602 0
M  V30 9339 H 859.885 0.391099 -3.20422 0
M  V30 9340 H 858.937 -2.02882 -3.21781 0
M  V30 9341 H 860.249 -2.47213 -4.33229 0
M  V30 9342 H 859.403 -0.819826 -6.01135 0
M  V30 9343 H 858.142 -0.275615 -4.86921 0
M  V30 9344 H 857.147 -2.58043 -4.85483 0
M  V30 9345 H 858.372 -3.12114 -6.03127 0
M  V30 9346 H 856.318 -0.925428 -6.4944 0
M  V30 9347 H 856.235 -2.53928 -7.12079 0
M  V30 9348 H 857.503 -1.47631 -7.65392 0
M  V30 9349 N 861.732 1.21287 -1.00634 0
M  V30 9350 C 862.664 2.2308 -0.526094 0
M  V30 9351 C 863.677 1.58157 0.386031 0
M  V30 9352 O 864.866 1.77528 0.186016 0
M  V30 9353 C 861.966 3.37937 0.255289 0
M  V30 9354 C 861.139 4.32449 -0.656236 0
M  V30 9355 C 860.198 5.26145 0.0757714 0
M  V30 9356 O 859.224 5.66601 -0.543325 0
M  V30 9357 N 860.426 5.6449 1.35391 0
M  V30 9358 H 863.191 2.64913 -1.40147 0
M  V30 9359 H 860.752 1.35724 -0.882641 0
M  V30 9360 H 862.744 3.97614 0.753977 0
M  V30 9361 H 861.314 2.95078 1.03187 0
M  V30 9362 H 860.534 3.70892 -1.3354 0
M  V30 9363 H 861.822 4.92526 -1.27653 0
M  V30 9364 H 861.22 5.33617 1.878 0
M  V30 9365 H 859.777 6.26524 1.79753 0
M  V30 9366 N 863.21 0.781244 1.36873 0
M  V30 9367 C 864.173 0.180094 2.28491 0
M  V30 9368 C 865.173 -0.617798 1.48458 0
M  V30 9369 O 866.363 -0.439991 1.68552 0
M  V30 9370 C 863.495 -0.751741 3.32508 0
M  V30 9371 H 864.688 0.987837 2.83164 0
M  V30 9372 H 862.241 0.550102 1.463 0
M  V30 9373 H 862.976 -1.58413 2.82977 0
M  V30 9374 H 862.761 -0.181649 3.91679 0
M  V30 9375 H 864.251 -1.16748 4.00949 0
M  V30 9376 N 864.689 -1.48329 0.532571 0
M  V30 9377 C 865.938 -2.017 -0.00259705 0
M  V30 9378 C 866.251 -1.41469 -1.35077 0
M  V30 9379 O 867.457 -1.86354 -1.97445 0
M  V30 9380 C 865.913 -3.59858 -0.0550179 0
M  V30 9381 C 865.521 -4.29073 1.28842 0
M  V30 9382 C 867.265 -4.21066 -0.538878 0
M  V30 9383 C 865.172 -5.79171 1.19644 0
M  V30 9384 H 864.102 -0.753985 -0.00474081 0
M  V30 9385 H 866.753 -1.70565 0.676739 0
M  V30 9386 H 865.135 -3.87846 -0.799486 0
M  V30 9387 H 866.309 -4.12755 2.04865 0
M  V30 9388 H 864.624 -3.79748 1.70822 0
M  V30 9389 H 867.221 -5.31026 -0.6257 0
M  V30 9390 H 867.564 -3.86559 -1.54525 0
M  V30 9391 H 868.097 -3.97517 0.149984 0
M  V30 9392 H 864.836 -6.18257 2.17805 0
M  V30 9393 H 864.356 -5.97895 0.477609 0
M  V30 9394 H 866.035 -6.40875 0.888186 0
M  V30 9395 N 866.167 -0.267825 -1.55308 0
M  V30 9396 C 867.077 0.633055 -2.25897 0
M  V30 9397 C 868.093 1.17613 -1.28231 0
M  V30 9398 O 869.269 1.20797 -1.61153 0
M  V30 9399 C 866.334 1.80397 -2.96071 0
M  V30 9400 C 865.395 1.29829 -4.09198 0
M  V30 9401 C 864.628 2.4134 -4.76016 0
M  V30 9402 O 864.851 3.60537 -4.42006 0
M  V30 9403 O 863.785 2.09909 -5.64111 0
M  V30 9404 H 867.611 0.0614381 -3.03638 0
M  V30 9405 H 865.196 -0.0355072 -1.49358 0
M  V30 9406 H 867.078 2.48685 -3.40197 0
M  V30 9407 H 865.753 2.36281 -2.21253 0
M  V30 9408 H 864.66 0.582086 -3.69544 0
M  V30 9409 H 865.993 0.785288 -4.85895 0
M  V30 9410 N 867.645 1.57599 0.00500368 0
M  V30 9411 C 868.575 2.11143 0.99705 0
M  V30 9412 C 869.556 1.0194 1.3617 0
M  V30 9413 O 870.741 1.29596 1.44632 0
M  V30 9414 C 867.871 2.61062 2.2905 0
M  V30 9415 C 866.825 3.74745 2.0676 0
M  V30 9416 C 866.151 4.10961 3.42075 0
M  V30 9417 C 867.451 5.02222 1.43424 0
M  V30 9418 H 869.145 2.94281 0.551251 0
M  V30 9419 H 866.691 1.41565 0.263715 0
M  V30 9420 H 868.644 2.97146 2.98801 0
M  V30 9421 H 867.368 1.75038 2.75734 0
M  V30 9422 H 866.027 3.39047 1.39436 0
M  V30 9423 H 865.675 3.21968 3.86453 0
M  V30 9424 H 865.375 4.87549 3.27979 0
M  V30 9425 H 866.899 4.49599 4.1315 0
M  V30 9426 H 868.313 5.36109 2.03125 0
M  V30 9427 H 866.71 5.83581 1.39831 0
M  V30 9428 H 867.78 4.83224 0.40285 0
M  V30 9429 N 869.123 -0.277682 1.55134 0
M  V30 9430 C 870.369 -1.0114 1.7578 0
M  V30 9431 C 870.702 -1.86109 0.554719 0
M  V30 9432 O 869.977 -1.89275 -0.447813 0
M  V30 9433 C 870.26 -1.89789 3.06027 0
M  V30 9434 C 870.113 -1.07844 4.3668 0
M  V30 9435 C 871.432 -2.88577 3.32282 0
M  V30 9436 H 868.551 -0.366277 0.639539 0
M  V30 9437 H 871.193 -0.284155 1.87863 0
M  V30 9438 H 869.343 -2.51796 2.95856 0
M  V30 9439 H 871.015 -0.479432 4.58802 0
M  V30 9440 H 869.258 -0.381764 4.32117 0
M  V30 9441 H 869.929 -1.73179 5.24131 0
M  V30 9442 H 872.405 -2.36702 3.42215 0
M  V30 9443 H 871.281 -3.47749 4.2469 0
M  V30 9444 H 871.542 -3.63458 2.51696 0
M  V30 9445 N 870.601 -1.47988 -0.541979 0
M  V30 9446 C 871.511 -1.64276 -1.67483 0
M  V30 9447 C 872.527 -0.525387 -1.65879 0
M  V30 9448 O 873.703 -0.794912 -1.85049 0
M  V30 9449 C 870.768 -1.66744 -3.03969 0
M  V30 9450 C 869.829 -2.90021 -3.16522 0
M  V30 9451 C 869.062 -2.92362 -4.46498 0
M  V30 9452 O 869.285 -2.03462 -5.32878 0
M  V30 9453 O 868.219 -3.84399 -4.63164 0
M  V30 9454 H 872.045 -2.60164 -1.5668 0
M  V30 9455 H 869.63 -1.31249 -0.71372 0
M  V30 9456 H 871.512 -1.70958 -3.85164 0
M  V30 9457 H 870.187 -0.740277 -3.15122 0
M  V30 9458 H 869.094 -2.91345 -2.34667 0
M  V30 9459 H 870.427 -3.82082 -3.10281 0
M  V30 9460 N 872.079 0.78992 -1.36375 0
M  V30 9461 C 873.304 1.58389 -1.33895 0
M  V30 9462 C 873.729 1.8794 0.0774934 0
M  V30 9463 O 873.087 1.4785 1.0493 0
M  V30 9464 C 873.135 2.88201 -2.16732 0
M  V30 9465 O 872.239 3.81778 -1.55946 0
M  V30 9466 H 871.58 0.480471 -0.458305 0
M  V30 9467 H 874.11 0.979119 -1.79651 0
M  V30 9468 H 874.12 3.37475 -2.29292 0
M  V30 9469 H 872.795 2.66019 -3.19698 0
M  V30 9470 H 871.372 3.40371 -1.52323 0
M  V30 9471 N 873.557 1.20646 1.01402 0
M  V30 9472 C 874.805 1.01618 1.74695 0
M  V30 9473 C 875.126 -0.452438 1.89679 0
M  V30 9474 O 874.396 -1.32693 1.44116 0
M  V30 9475 H 872.976 0.373013 0.647202 0
M  V30 9476 H 875.638 1.518 1.22241 0
M  V30 9477 H 874.734 1.47666 2.74957 0
M  V30 9478 N 875.035 -1.20752 1.01276 0
M  V30 9479 C 876.283 -1.89645 0.698505 0
M  V30 9480 C 876.604 -1.78986 -0.773883 0
M  V30 9481 O 875.874 -1.18977 -1.55632 0
M  V30 9482 H 874.454 -0.701992 0.255375 0
M  V30 9483 H 877.116 -1.46668 1.28353 0
M  V30 9484 H 876.212 -2.96364 0.978512 0
M  V30 9485 N 876.513 -0.788492 -1.36457 0
M  V30 9486 C 877.446 -0.132189 -2.27817 0
M  V30 9487 C 878.424 0.691166 -1.47179 0
M  V30 9488 O 879.608 0.662344 -1.7648 0
M  V30 9489 C 876.735 0.818386 -3.28664 0
M  V30 9490 C 875.781 0.0769392 -4.26431 0
M  V30 9491 S 876.614 -1.24666 -5.20786 0
M  V30 9492 C 877.77 -0.300063 -6.2518 0
M  V30 9493 H 878.003 -0.906824 -2.83132 0
M  V30 9494 H 875.536 -0.582666 -1.42984 0
M  V30 9495 H 877.494 1.36138 -3.87268 0
M  V30 9496 H 876.155 1.56626 -2.72263 0
M  V30 9497 H 875.348 0.79819 -4.97639 0
M  V30 9498 H 874.95 -0.395547 -3.71902 0
M  V30 9499 H 877.242 0.521434 -6.7549 0
M  V30 9500 H 878.185 -0.980808 -7.01274 0
M  V30 9501 H 878.593 0.0961898 -5.64418 0
M  V30 9502 N 877.991 1.48044 -0.54043 0
M  V30 9503 C 879.239 2.02097 -0.0101367 0
M  V30 9504 C 879.56 1.41881 1.33771 0
M  V30 9505 O 878.83 0.587923 1.8687 0
M  V30 9506 H 877.41 0.747 -0.000758716 0
M  V30 9507 H 880.072 1.81639 -0.706634 0
M  V30 9508 H 879.168 3.11969 0.0904474 0
M  V30 9509 N 879.47 0.276058 1.55163 0
M  V30 9510 C 880.417 -0.611006 2.22565 0
M  V30 9511 C 881.387 -1.14902 1.19945 0
M  V30 9512 O 882.572 -1.19815 1.48489 0
M  V30 9513 C 879.712 -1.78885 2.95117 0
M  V30 9514 C 878.825 -1.2846 4.12458 0
M  V30 9515 C 877.96 -2.42432 4.72652 0
M  V30 9516 C 876.999 -1.89015 5.82185 0
M  V30 9517 N 876.136 -2.96463 6.36439 0
M  V30 9518 H 880.976 -0.0295849 2.97985 0
M  V30 9519 H 878.513 -0.00283607 1.471 0
M  V30 9520 H 880.471 -2.48121 3.35398 0
M  V30 9521 H 879.101 -2.34229 2.22119 0
M  V30 9522 H 878.153 -0.485312 3.77292 0
M  V30 9523 H 879.465 -0.853358 4.91446 0
M  V30 9524 H 878.619 -3.19659 5.15658 0
M  V30 9525 H 877.358 -2.88872 3.92943 0
M  V30 9526 H 876.363 -1.10267 5.38629 0
M  V30 9527 H 877.588 -1.43509 6.63763 0
M  V30 9528 H 875.534 -3.42283 5.59623 0
M  V30 9529 H 875.451 -2.57759 7.10701 0
M  V30 9530 H 876.719 -3.73663 6.84103 0
M  V30 9531 N 880.948 -1.576 0.00335426 0
M  V30 9532 C 882.197 -1.89892 -0.680001 0
M  V30 9533 C 882.51 -0.878731 -1.7475 0
M  V30 9534 O 883.716 -1.09199 -2.48572 0
M  V30 9535 C 882.172 -3.37098 -1.26066 0
M  V30 9536 C 881.78 -4.4742 -0.227807 0
M  V30 9537 C 883.524 -3.78495 -1.92202 0
M  V30 9538 C 881.431 -5.85706 -0.81865 0
M  V30 9539 H 880.361 -0.708578 -0.257746 0
M  V30 9540 H 883.012 -1.83387 0.0644472 0
M  V30 9541 H 881.394 -3.38451 -2.05589 0
M  V30 9542 H 882.568 -4.57589 0.54307 0
M  V30 9543 H 880.883 -4.15064 0.333297 0
M  V30 9544 H 883.48 -4.7915 -2.37318 0
M  V30 9545 H 883.823 -3.12187 -2.75399 0
M  V30 9546 H 884.356 -3.79456 -1.19408 0
M  V30 9547 H 881.095 -6.55495 -0.0253787 0
M  V30 9548 H 880.615 -5.79196 -1.55861 0
M  V30 9549 H 882.294 -6.33469 -1.31627 0
M  V30 9550 N 882.426 0.269451 -1.5528 0
M  V30 9551 C 883.837 0.840233 -1.66724 0
M  V30 9552 C 884.188 1.86909 -0.596621 0
M  V30 9553 O 883.313 2.14817 0.261246 0
M  V30 9554 C 883.908 1.5308 -3.02245 0
M  V30 9555 C 882.467 2.04957 -3.15705 0
M  V30 9556 C 881.614 0.892838 -2.62533 0
M  V30 9557 H 884.565 0.0457236 -1.58634 0
M  V30 9558 H 884.586 2.39792 -2.95432 0
M  V30 9559 H 884.098 0.781741 -3.80145 0
M  V30 9560 H 882.199 2.82813 -2.42585 0
M  V30 9561 H 882.312 2.26244 -4.22316 0
M  V30 9562 H 880.676 1.28719 -2.19781 0
M  V30 9563 H 881.459 0.157229 -3.4294 0
M  V30 9564 N 883.904 1.48273 0.534124 0
M  V30 9565 C 885.129 1.59988 1.31979 0
M  V30 9566 C 885.554 0.258824 1.86311 0
M  V30 9567 O 884.912 -0.768885 1.64188 0
M  V30 9568 C 884.96 2.64642 2.44943 0
M  V30 9569 O 884.064 2.21515 3.47858 0
M  V30 9570 H 883.405 0.536625 0.391063 0
M  V30 9571 H 885.935 1.94229 0.643135 0
M  V30 9572 H 885.945 2.85786 2.91187 0
M  V30 9573 H 884.62 3.62004 2.04758 0
M  V30 9574 H 883.197 2.10567 3.0776 0
M  V30 9575 N 885.382 -0.782676 1.36792 0
M  V30 9576 C 886.345 -1.8772 1.31507 0
M  V30 9577 C 887.345 -1.59269 0.221349 0
M  V30 9578 O 888.535 -1.67555 0.476544 0
M  V30 9579 C 885.667 -3.24641 1.04025 0
M  V30 9580 H 886.86 -1.9382 2.28853 0
M  V30 9581 H 884.413 -0.981226 1.21662 0
M  V30 9582 H 885.148 -3.24221 0.0716439 0
M  V30 9583 H 884.933 -3.46681 1.8318 0
M  V30 9584 H 886.423 -4.04711 1.02949 0
M  V30 9585 N 886.86 -1.21182 -1.00761 0
M  V30 9586 C 888.106 -1.02898 -1.74756 0
M  V30 9587 C 888.439 0.436774 -1.89225 0
M  V30 9588 O 887.714 1.32415 -1.42466 0
M  V30 9589 C 887.997 -1.72372 -3.16164 0
M  V30 9590 C 887.85 -3.2645 -3.09435 0
M  V30 9591 C 889.169 -1.46415 -4.15031 0
M  V30 9592 H 886.288 -0.375214 -0.634337 0
M  V30 9593 H 888.93 -1.49321 -1.17487 0
M  V30 9594 H 887.08 -1.32906 -3.65059 0
M  V30 9595 H 888.752 -3.75269 -2.68274 0
M  V30 9596 H 886.995 -3.56889 -2.46603 0
M  V30 9597 H 887.666 -3.70226 -4.09435 0
M  V30 9598 H 890.142 -1.80671 -3.7483 0
M  V30 9599 H 889.018 -1.97544 -5.12121 0
M  V30 9600 H 889.279 -0.39361 -4.40344 0
M  V30 9601 N 888.338 1.20213 -1.01915 0
M  V30 9602 C 889.563 1.94163 -0.729076 0
M  V30 9603 C 889.988 1.74416 0.704323 0
M  V30 9604 O 889.346 1.0401 1.48498 0
M  V30 9605 C 889.394 3.44258 -1.07324 0
M  V30 9606 O 888.498 4.11979 -0.186367 0
M  V30 9607 H 887.839 0.606506 -0.270272 0
M  V30 9608 H 890.369 1.52571 -1.3632 0
M  V30 9609 H 890.379 3.94888 -1.02603 0
M  V30 9610 H 889.054 3.57954 -2.11759 0
M  V30 9611 H 887.631 3.7176 -0.291334 0
M  V30 9612 N 889.816 0.795718 1.36037 0
M  V30 9613 C 891.044 0.383153 2.03321 0
M  V30 9614 C 891.459 -1.00246 1.59988 0
M  V30 9615 O 890.816 -1.64406 0.792265 0
M  V30 9616 C 890.867 0.444467 3.58757 0
M  V30 9617 O 890.588 1.77544 4.00512 0
M  V30 9618 C 892.089 0.0233291 4.43294 0
M  V30 9619 H 889.309 0.157061 0.652359 0
M  V30 9620 H 891.853 1.07632 1.73884 0
M  V30 9621 H 890.008 -0.200341 3.86882 0
M  V30 9622 H 890.422 1.73065 4.95125 0
M  V30 9623 H 891.896 0.117361 5.51875 0
M  V30 9624 H 892.373 -1.03007 4.2695 0
M  V30 9625 H 892.979 0.64087 4.20444 0
M  V30 9626 N 891.294 -1.47756 0.548274 0
M  V30 9627 C 892.54 -2.02789 0.0209265 0
M  V30 9628 C 892.873 -1.42268 -1.32187 0
M  V30 9629 O 892.148 -0.575001 -1.85806 0
M  V30 9630 C 892.431 -3.60007 -0.0816674 0
M  V30 9631 C 892.284 -4.30977 1.28759 0
M  V30 9632 C 893.603 -4.32777 -0.799515 0
M  V30 9633 H 890.722 -0.736944 0.00907884 0
M  V30 9634 H 893.364 -1.76282 0.708839 0
M  V30 9635 H 891.514 -3.82722 -0.667537 0
M  V30 9636 H 893.186 -4.19629 1.91597 0
M  V30 9637 H 891.429 -3.9168 1.86466 0
M  V30 9638 H 892.1 -5.39488 1.16861 0
M  V30 9639 H 894.576 -4.15001 -0.30216 0
M  V30 9640 H 893.452 -5.42431 -0.840239 0
M  V30 9641 H 893.713 -4.01358 -1.85375 0
M  V30 9642 N 892.772 -0.284283 -1.55015 0
M  V30 9643 C 893.997 0.335799 -2.04664 0
M  V30 9644 C 894.422 1.47999 -1.16094 0
M  V30 9645 O 893.78 1.8058 -0.161454 0
M  V30 9646 C 893.828 0.785615 -3.51938 0
M  V30 9647 O 892.932 1.89202 -3.66437 0
M  V30 9648 H 892.273 0.0680233 -0.660506 0
M  V30 9649 H 894.803 -0.421255 -2.00216 0
M  V30 9650 H 894.813 1.07892 -3.93476 0
M  V30 9651 H 893.488 -0.0514675 -4.15868 0
M  V30 9652 H 892.065 1.60055 -3.36804 0
M  V30 9653 N 894.251 1.57596 -0.0117121 0
M  V30 9654 C 895.184 2.04624 1.01016 0
M  V30 9655 C 896.162 0.938437 1.32786 0
M  V30 9656 O 897.346 1.20746 1.44751 0
M  V30 9657 C 894.473 2.45369 2.33477 0
M  V30 9658 C 893.519 3.66998 2.17289 0
M  V30 9659 S 894.352 5.14412 1.48795 0
M  V30 9660 C 895.508 5.58438 2.82662 0
M  V30 9661 H 895.741 2.9098 0.60977 0
M  V30 9662 H 893.274 1.53106 0.199494 0
M  V30 9663 H 895.232 2.69511 3.09635 0
M  V30 9664 H 893.893 1.59391 2.70653 0
M  V30 9665 H 893.086 3.93297 3.15172 0
M  V30 9666 H 892.688 3.42918 1.49275 0
M  V30 9667 H 894.98 5.61614 3.78941 0
M  V30 9668 H 895.923 6.58224 2.61049 0
M  V30 9669 H 896.331 4.86033 2.8711 0
M  V30 9670 N 895.729 -0.261212 1.5542 0
M  V30 9671 C 896.661 -1.34571 1.85535 0
M  V30 9672 C 897.674 -1.44979 0.740612 0
M  V30 9673 O 898.863 -1.46584 1.01859 0
M  V30 9674 C 895.963 -2.7258 2.01378 0
M  V30 9675 C 895.136 -2.84618 3.32131 0
M  V30 9676 C 894.195 -4.03379 3.37893 0
M  V30 9677 O 893.221 -3.93581 4.11197 0
M  V30 9678 N 894.423 -5.15893 2.66148 0
M  V30 9679 H 897.188 -1.09078 2.79145 0
M  V30 9680 H 894.749 -0.451327 1.55482 0
M  V30 9681 H 896.741 -3.50342 2.0259 0
M  V30 9682 H 895.311 -2.90844 1.14579 0
M  V30 9683 H 894.531 -1.93647 3.43358 0
M  V30 9684 H 895.819 -2.896 4.18341 0
M  V30 9685 H 895.217 -5.26743 2.06297 0
M  V30 9686 H 893.774 -5.91842 2.73069 0
M  V30 9687 N 897.207 -1.48554 -0.526253 0
M  V30 9688 C 898.155 -1.63804 -1.65139 0
M  V30 9689 C 899.149 -0.504398 -1.61716 0
M  V30 9690 O 900.355 -0.683241 -1.66529 0
M  V30 9691 H 896.73 -0.516071 -0.546969 0
M  V30 9692 H 898.701 -2.58294 -1.49421 0
M  V30 9693 C 897.45 -1.69843 -3.03395 0
M  V30 9694 H 896.773 -2.56438 -3.06724 0
M  V30 9695 H 898.213 -1.84555 -3.81727 0
M  V30 9696 C 896.672 -0.437875 -3.34042 0
M  V30 9697 O 897.202 0.447604 -3.99198 0
M  V30 9698 N 895.408 -0.308444 -2.88958 0
M  V30 9699 H 894.955 -1.02998 -2.36112 0
M  V30 9700 H 894.913 0.533952 -3.09833 0
M  V30 9701 N 898.685 0.775411 -1.37205 0
M  V30 9702 C 899.934 1.52909 -1.31536 0
M  V30 9703 C 900.247 1.9535 0.0989374 0
M  V30 9704 O 901.453 2.70072 0.278079 0
M  V30 9705 C 899.909 2.761 -2.30861 0
M  V30 9706 C 899.517 2.40773 -3.77799 0
M  V30 9707 C 901.261 3.54052 -2.34195 0
M  V30 9708 C 899.168 3.60444 -4.68865 0
M  V30 9709 H 898.098 0.574061 -0.488845 0
M  V30 9710 H 900.749 0.849642 -1.62645 0
M  V30 9711 H 899.131 3.45916 -1.92764 0
M  V30 9712 H 900.305 1.78764 -4.24712 0
M  V30 9713 H 898.62 1.76004 -3.77375 0
M  V30 9714 H 901.217 4.42992 -2.99437 0
M  V30 9715 H 901.56 3.93649 -1.35449 0
M  V30 9716 H 902.093 2.91229 -2.7098 0
M  V30 9717 H 898.832 3.25932 -5.68725 0
M  V30 9718 H 898.352 4.21571 -4.26659 0
M  V30 9719 H 900.031 4.27302 -4.85821 0
M  V30 9720 N 900.163 1.21714 1.00117 0
M  V30 9721 C 901.113 0.947259 2.07391 0
M  V30 9722 C 902.097 -0.0989662 1.60595 0
M  V30 9723 O 903.289 0.11047 1.76655 0
M  V30 9724 C 900.418 0.517954 3.3937 0
M  V30 9725 C 899.504 1.59846 3.92823 0
M  V30 9726 N 899.895 2.82438 4.19598 0
M  V30 9727 C 898.193 1.46822 4.2114 0
M  V30 9728 C 898.894 3.52247 4.62922 0
M  V30 9729 N 897.87 2.79696 4.66124 0
M  V30 9730 H 901.672 1.8786 2.26022 0
M  V30 9731 H 899.186 1.11344 1.18221 0
M  V30 9732 H 901.183 0.305951 4.15776 0
M  V30 9733 H 899.843 -0.40658 3.22144 0
M  V30 9734 H 900.854 3.18944 4.08038 0
M  V30 9735 H 897.531 0.609259 4.13031 0
M  V30 9736 H 898.921 4.57232 4.9233 0
M  V30 9737 N 901.641 -1.19671 1.02551 0
M  V30 9738 C 903.052 -1.70964 0.750208 0
M  V30 9739 C 903.403 -1.82095 -0.730461 0
M  V30 9740 O 902.528 -1.48974 -1.56958 0
M  V30 9741 C 903.123 -3.10516 1.35518 0
M  V30 9742 C 901.682 -3.59083 1.12854 0
M  V30 9743 C 900.829 -2.36041 1.45534 0
M  V30 9744 H 903.78 -1.04559 1.19386 0
M  V30 9745 H 903.801 -3.73028 0.750378 0
M  V30 9746 H 903.313 -3.02383 2.43282 0
M  V30 9747 H 901.414 -3.72536 0.0689627 0
M  V30 9748 H 901.527 -4.43395 1.81488 0
M  V30 9749 H 899.891 -2.39214 0.87458 0
M  V30 9750 H 900.674 -2.3054 2.54374 0
M  V30 9751 N 903.119 -0.802921 -1.35613 0
M  V30 9752 C 904.066 -0.20874 -2.29854 0
M  V30 9753 C 905.036 0.655128 -1.52634 0
M  V30 9754 O 906.221 0.600979 -1.81088 0
M  V30 9755 C 903.361 0.639663 -3.3912 0
M  V30 9756 C 902.474 -0.244234 -4.31309 0
M  V30 9757 C 901.609 0.611825 -5.27665 0
M  V30 9758 C 900.648 -0.272698 -6.11492 0
M  V30 9759 N 899.785 0.543122 -6.99996 0
M  V30 9760 H 904.625 -1.01782 -2.80079 0
M  V30 9761 H 902.162 -0.513465 -1.37848 0
M  V30 9762 H 904.12 1.14668 -4.01132 0
M  V30 9763 H 902.75 1.41404 -2.9018 0
M  V30 9764 H 901.802 -0.869322 -3.70334 0
M  V30 9765 H 903.114 -0.925202 -4.90144 0
M  V30 9766 H 902.268 1.18412 -5.95032 0
M  V30 9767 H 901.007 1.32637 -4.69317 0
M  V30 9768 H 900.012 -0.857287 -5.43075 0
M  V30 9769 H 901.237 -0.985051 -6.71918 0
M  V30 9770 H 899.183 1.24171 -6.44141 0
M  V30 9771 H 899.1 -0.0798767 -7.55958 0
M  V30 9772 H 900.368 1.09881 -7.71717 0
M  V30 9773 N 904.597 1.47463 -0.556102 0
M  V30 9774 C 905.822 2.07371 -0.0344729 0
M  V30 9775 C 906.247 1.40621 1.2493 0
M  V30 9776 O 905.605 0.48082 1.74808 0
M  V30 9777 C 905.653 3.60306 0.145563 0
M  V30 9778 O 904.757 3.94299 1.20839 0
M  V30 9779 H 904.098 0.662052 -0.0508274 0
M  V30 9780 H 906.628 1.89498 -0.771469 0
M  V30 9781 H 906.638 4.06408 0.360112 0
M  V30 9782 H 905.313 4.08288 -0.792089 0
M  V30 9783 H 903.89 3.59944 0.97442 0
M  V30 9784 N 906.075 0.2925 1.54862 0
M  V30 9785 C 907.005 -0.580677 2.26165 0
M  V30 9786 C 907.986 -1.14485 1.25806 0
M  V30 9787 O 909.171 -1.17577 1.54562 0
M  V30 9788 C 906.301 -1.75668 2.99596 0
M  V30 9789 C 905.255 -1.32325 4.07031 0
M  V30 9790 C 904.581 -2.58374 4.68131 0
M  V30 9791 C 905.881 -0.460703 5.20264 0
M  V30 9792 H 907.575 0.0140075 2.99397 0
M  V30 9793 H 905.121 0.00817706 1.43998 0
M  V30 9794 H 907.074 -2.37356 3.48195 0
M  V30 9795 H 905.798 -2.37747 2.23928 0
M  V30 9796 H 904.457 -0.729477 3.59269 0
M  V30 9797 H 904.105 -3.18749 3.89112 0
M  V30 9798 H 903.805 -2.30078 5.40683 0
M  V30 9799 H 905.329 -3.2088 5.19489 0
M  V30 9800 H 906.743 -0.983037 5.64809 0
M  V30 9801 H 905.14 -0.271881 5.99484 0
M  V30 9802 H 906.21 0.516304 4.82143 0
M  V30 9803 N 907.553 -1.57587 0.0200696 0
M  V30 9804 C 908.964 -1.79312 -0.520019 0
M  V30 9805 C 909.315 -0.929475 -1.72787 0
M  V30 9806 O 908.44 -0.137389 -2.15963 0
M  V30 9807 C 909.035 -3.25203 -0.950172 0
M  V30 9808 C 907.594 -3.47954 -1.43543 0
M  V30 9809 C 906.741 -2.74459 -0.395917 0
M  V30 9810 H 909.692 -1.56779 0.246153 0
M  V30 9811 H 909.713 -3.34418 -1.81508 0
M  V30 9812 H 909.225 -3.88035 -0.070883 0
M  V30 9813 H 907.326 -2.90363 -2.33495 0
M  V30 9814 H 907.439 -4.56661 -1.44905 0
M  V30 9815 H 905.803 -2.39669 -0.862022 0
M  V30 9816 H 906.586 -3.40001 0.47475 0
M  V30 9817 N 909.032 0.252966 -1.55557 0
M  V30 9818 C 910.257 1.0038 -1.8149 0
M  V30 9819 C 910.682 1.78397 -0.596318 0
M  V30 9820 O 910.04 1.7551 0.454535 0
M  V30 9821 C 910.088 1.9222 -3.05096 0
M  V30 9822 O 909.192 3.01302 -2.81587 0
M  V30 9823 H 908.533 0.285949 -0.599274 0
M  V30 9824 H 911.063 0.275795 -2.02733 0
M  V30 9825 H 911.073 2.338 -3.34368 0
M  V30 9826 H 909.748 1.34852 -3.93431 0
M  V30 9827 H 908.325 2.63894 -2.63466 0
M  V30 9828 N 910.51 1.48831 0.518367 0
M  V30 9829 C 911.42 1.6692 1.64848 0
M  V30 9830 C 912.436 0.551711 1.65022 0
M  V30 9831 O 913.612 0.824251 1.83761 0
M  V30 9832 C 910.677 1.71559 3.01278 0
M  V30 9833 C 909.738 2.9502 3.11868 0
M  V30 9834 C 908.971 2.99428 4.4179 0
M  V30 9835 O 909.194 2.11914 5.29574 0
M  V30 9836 O 908.128 3.91719 4.5699 0
M  V30 9837 H 911.954 2.62623 1.52521 0
M  V30 9838 H 909.539 1.32368 0.692749 0
M  V30 9839 H 911.421 1.77064 3.82396 0
M  V30 9840 H 910.096 0.790316 3.13904 0
M  V30 9841 H 909.003 2.95042 2.30003 0
M  V30 9842 H 910.336 3.8697 3.04163 0
M  V30 9843 N 911.988 -0.768124 1.37614 0
M  V30 9844 C 913.404 -1.06919 1.18493 0
M  V30 9845 C 913.604 -2.01486 0.0235753 0
M  V30 9846 O 912.66 -2.4438 -0.635209 0
M  V30 9847 C 913.973 -1.66321 2.50515 0
M  V30 9848 C 915.521 -1.78562 2.57069 0
M  V30 9849 C 915.996 -2.41377 3.89231 0
M  V30 9850 N 917.487 -2.48824 3.90693 0
M  V30 9851 C 918.222 -2.98288 4.89706 0
M  V30 9852 N 917.718 -3.47897 5.99115 0
M  V30 9853 N 919.511 -2.97196 4.77107 0
M  V30 9854 H 911.662 -0.140286 2.11936 0
M  V30 9855 H 913.925 -0.124863 0.939741 0
M  V30 9856 H 913.631 -1.04303 3.35878 0
M  V30 9857 H 913.505 -2.65571 2.67866 0
M  V30 9858 H 915.892 -2.39712 1.72111 0
M  V30 9859 H 915.973 -0.780574 2.43599 0
M  V30 9860 H 915.617 -1.80866 4.74605 0
M  V30 9861 H 915.547 -3.42495 4.00006 0
M  V30 9862 H 918.038 -2.1372 3.1166 0
M  V30 9863 H 918.351 -3.84053 6.70614 0
M  V30 9864 H 916.696 -3.45993 6.02755 0
M  V30 9865 H 919.887 -2.57741 3.90752 0
M  V30 9866 H 920.06 -3.35434 5.54426 0
M  V30 9867 N 913.466 -1.22244 -0.994698 0
M  V30 9868 C 914.715 -1.04005 -1.72817 0
M  V30 9869 C 915.028 0.425413 -1.90918 0
M  V30 9870 O 916.234 0.727429 -2.61574 0
M  V30 9871 C 914.69 -1.81244 -3.10932 0
M  V30 9872 C 914.298 -3.32028 -3.00768 0
M  V30 9873 C 916.042 -1.71448 -3.88337 0
M  V30 9874 C 913.949 -4.01716 -4.34026 0
M  V30 9875 H 912.879 -0.385559 -0.647966 0
M  V30 9876 H 915.53 -1.46077 -1.11058 0
M  V30 9877 H 913.912 -1.3197 -3.73363 0
M  V30 9878 H 915.086 -3.88682 -2.47513 0
M  V30 9879 H 913.401 -3.4248 -2.36846 0
M  V30 9880 H 915.998 -2.20836 -4.86965 0
M  V30 9881 H 916.341 -0.674568 -4.10798 0
M  V30 9882 H 916.874 -2.18256 -3.3258 0
M  V30 9883 H 913.613 -5.05952 -4.16765 0
M  V30 9884 H 913.133 -3.49849 -4.87202 0
M  V30 9885 H 914.812 -4.0721 -5.02782 0
M  V30 9886 N 914.944 1.19125 -1.03184 0
M  V30 9887 C 915.874 2.24675 -0.635889 0
M  V30 9888 C 916.855 1.66321 0.356565 0
M  V30 9889 O 918.04 1.92728 0.238625 0
M  V30 9890 C 915.17 3.47298 0.011069 0
M  V30 9891 C 914.124 4.18345 -0.903979 0
M  V30 9892 C 913.45 5.34561 -0.12197 0
M  V30 9893 C 914.75 4.72816 -2.21907 0
M  V30 9894 H 916.444 2.5805 -1.51825 0
M  V30 9895 H 913.99 1.24039 -0.73146 0
M  V30 9896 H 915.943 4.20333 0.299729 0
M  V30 9897 H 914.667 3.13131 0.928245 0
M  V30 9898 H 913.326 3.47196 -1.17688 0
M  V30 9899 H 912.974 4.9664 0.797334 0
M  V30 9900 H 912.674 5.83029 -0.731498 0
M  V30 9901 H 914.198 6.10391 0.159881 0
M  V30 9902 H 915.612 5.3759 -1.99173 0
M  V30 9903 H 914.009 5.31782 -2.78078 0
M  V30 9904 H 915.079 3.9072 -2.87168 0
M  V30 9905 N 916.422 0.810101 1.35185 0
M  V30 9906 C 917.833 0.452616 1.81131 0
M  V30 9907 C 918.184 -1.02573 1.67252 0
M  V30 9908 O 917.309 -1.79735 1.20516 0
M  V30 9909 C 917.904 0.814775 3.28857 0
M  V30 9910 C 916.463 0.509839 3.72931 0
M  V30 9911 C 915.61 1.03852 2.57119 0
M  V30 9912 H 918.561 1.00143 1.23114 0
M  V30 9913 H 918.582 0.113635 3.8033 0
M  V30 9914 H 918.094 1.89078 3.38926 0
M  V30 9915 H 916.195 -0.557289 3.68409 0
M  V30 9916 H 916.308 1.04493 4.67566 0
M  V30 9917 H 914.672 0.460671 2.50499 0
M  V30 9918 H 915.455 2.12071 2.69964 0
M  V30 9919 N 917.9 -1.47166 0.563914 0
M  V30 9920 C 918.863 -2.28571 -0.169624 0
M  V30 9921 C 919.863 -1.37331 -0.836467 0
M  V30 9922 O 921.053 -1.59896 -0.6913 0
M  V30 9923 C 918.185 -3.17201 -1.24886 0
M  V30 9924 H 919.378 -2.94896 0.545539 0
M  V30 9925 H 916.931 -1.52966 0.321121 0
M  V30 9926 H 917.666 -2.55582 -1.99621 0
M  V30 9927 H 917.451 -3.84356 -0.775426 0
M  V30 9928 H 918.941 -3.7852 -1.76388 0
M  V30 9929 N 919.378 -0.300708 -1.54705 0
M  V30 9930 C 920.308 0.568675 -2.26469 0
M  V30 9931 C 921.289 1.13817 -1.26411 0
M  V30 9932 O 922.474 1.16756 -1.55183 0
M  V30 9933 C 919.604 1.74077 -3.00524 0
M  V30 9934 C 918.558 1.30165 -4.07727 0
M  V30 9935 C 917.884 2.55888 -4.69495 0
M  V30 9936 C 919.184 0.433106 -5.20501 0
M  V30 9937 H 920.878 -0.0298851 -2.99385 0
M  V30 9938 H 918.424 -0.0158135 -1.43991 0
M  V30 9939 H 920.377 2.35506 -3.49449 0
M  V30 9940 H 919.101 2.36556 -2.25186 0
M  V30 9941 H 917.76 0.710414 -3.59651 0
M  V30 9942 H 917.408 3.16681 -3.90797 0
M  V30 9943 H 917.108 2.27207 -5.41895 0
M  V30 9944 H 918.632 3.18121 -5.21183 0
M  V30 9945 H 920.046 0.95307 -5.65322 0
M  V30 9946 H 918.443 0.240085 -5.9962 0
M  V30 9947 H 919.513 -0.541866 -4.81863 0
M  V30 9948 N 920.856 1.57574 -0.0284266 0
M  V30 9949 C 922.081 1.96479 0.664137 0
M  V30 9950 C 922.506 0.904826 1.64908 0
M  V30 9951 O 921.864 -0.134339 1.80802 0
M  V30 9952 C 921.912 3.34479 1.34745 0
M  V30 9953 O 921.016 3.30794 2.46271 0
M  V30 9954 H 920.357 0.640654 0.174524 0
M  V30 9955 H 922.887 2.04402 -0.0900729 0
M  V30 9956 H 922.897 3.70694 1.7044 0
M  V30 9957 H 921.572 4.1117 0.625468 0
M  V30 9958 H 920.149 3.06294 2.12693 0
M  V30 9959 N 922.334 -0.244713 1.55689 0
M  V30 9960 C 923.281 -1.30301 1.905 0
M  V30 9961 C 924.251 -1.4772 0.759478 0
M  V30 9962 O 925.436 -1.61667 1.01333 0
M  V30 9963 C 922.576 -2.653 2.20703 0
M  V30 9964 C 921.689 -2.55872 3.48071 0
M  V30 9965 C 920.824 -3.83238 3.67834 0
M  V30 9966 C 919.863 -3.68436 4.88796 0
M  V30 9967 N 919 -4.877 5.05068 0
M  V30 9968 H 923.84 -0.999143 2.80751 0
M  V30 9969 H 921.377 -0.482099 1.38976 0
M  V30 9970 H 923.335 -3.43884 2.36219 0
M  V30 9971 H 921.965 -2.93831 1.33653 0
M  V30 9972 H 921.017 -1.68846 3.40874 0
M  V30 9973 H 922.329 -2.40845 4.36801 0
M  V30 9974 H 921.483 -4.70266 3.83321 0
M  V30 9975 H 920.222 -4.01165 2.77341 0
M  V30 9976 H 919.227 -2.79793 4.73282 0
M  V30 9977 H 920.452 -3.52003 5.8075 0
M  V30 9978 H 918.398 -5.05983 4.17513 0
M  V30 9979 H 918.315 -4.75312 5.8789 0
M  V30 9980 H 919.583 -5.76219 5.24969 0
M  V30 9981 N 923.813 -1.49104 -0.510467 0
M  V30 9982 C 925.09 -1.48609 -1.27179 0
M  V30 9983 C 925.47 -0.208537 -2.10067 0
M  V30 9984 O 924.818 0.809335 -2.13687 0
M  V30 9985 C 925.028 -2.75953 -2.1366 0
M  V30 9986 C 926.376 -3.25067 -2.73161 0
M  V30 9987 O 927.4 -2.77005 -2.23934 0
M  V30 9988 O 926.259 -4.08747 -3.62751 0
M  V30 9989 H 923.353 -0.594374 -0.57502 0
M  V30 9990 H 925.899 -1.61358 -0.525515 0
M  V30 9991 H 924.671 -3.60434 -1.52325 0
M  V30 9992 H 924.294 -2.66019 -2.95499 0
M  V30 9993 N 925.291 0.760815 -1.38019 0
M  V30 9994 C 926.238 1.8744 -1.34666 0
M  V30 9995 C 927.208 1.64762 -0.210386 0
M  V30 9996 O 928.393 1.86528 -0.401479 0
M  V30 9997 C 925.533 3.24648 -1.17037 0
M  V30 9998 C 924.646 3.59206 -2.3999 0
M  V30 9999 C 923.781 4.8568 -2.15148 0
M  V30 10000 C 922.82 5.13002 -3.3391 0
M  V30 10001 N 921.957 6.30668 -3.08549 0
M  V30 10002 H 926.797 1.8964 -2.29871 0
M  V30 10003 H 924.334 0.927004 -1.14215 0
M  V30 10004 H 926.292 4.03814 -1.04834 0
M  V30 10005 H 924.922 3.21793 -0.254758 0
M  V30 10006 H 923.974 2.74939 -2.62893 0
M  V30 10007 H 925.286 3.75328 -3.28527 0
M  V30 10008 H 924.44 5.72773 -2.00039 0
M  V30 10009 H 923.179 4.71682 -1.23965 0
M  V30 10010 H 922.184 4.2438 -3.49545 0
M  V30 10011 H 923.409 5.28901 -4.25958 0
M  V30 10012 H 921.355 6.18008 -2.20006 0
M  V30 10013 H 921.272 6.47257 -3.90633 0
M  V30 10014 H 922.54 7.20669 -2.9708 0
M  V30 10015 N 926.769 1.22769 0.988202 0
M  V30 10016 C 927.679 1.01844 2.11341 0
M  V30 10017 C 928.695 -0.0346937 1.73965 0
M  V30 10018 O 929.871 0.159061 2.00771 0
M  V30 10019 C 926.936 0.603837 3.41401 0
M  V30 10020 C 925.997 1.73113 3.92849 0
M  V30 10021 C 925.23 1.33621 5.16702 0
M  V30 10022 O 925.453 0.217041 5.69987 0
M  V30 10023 O 924.387 2.15444 5.62021 0
M  V30 10024 H 928.213 1.96127 2.31879 0
M  V30 10025 H 925.798 1.01405 1.09715 0
M  V30 10026 H 927.68 0.383196 4.19654 0
M  V30 10027 H 926.355 -0.310082 3.22211 0
M  V30 10028 H 925.262 2.00634 3.15748 0
M  V30 10029 H 926.595 2.62308 4.1648 0
M  V30 10030 N 928.247 -1.18576 1.03814 0
M  V30 10031 C 929.157 -2.25778 0.637311 0
M  V30 10032 C 930.173 -1.7074 -0.335248 0
M  V30 10033 O 931.349 -2.00494 -0.19081 0
M  V30 10034 C 928.414 -3.467 0.00386953 0
M  V30 10035 C 927.475 -4.16881 1.02511 0
M  V30 10036 C 926.708 -5.32031 0.421802 0
M  V30 10037 O 926.931 -5.65142 -0.772699 0
M  V30 10038 O 925.865 -5.90826 1.14925 0
M  V30 10039 H 929.691 -2.62323 1.53037 0
M  V30 10040 H 927.276 -1.25609 0.80887 0
M  V30 10041 H 929.158 -4.19953 -0.348873 0
M  V30 10042 H 927.833 -3.11983 -0.863047 0
M  V30 10043 H 926.74 -3.45707 1.4296 0
M  V30 10044 H 928.073 -4.55592 1.86271 0
M  V30 10045 N 929.725 -0.817259 -1.34754 0
M  V30 10046 C 930.635 -0.236946 -2.334 0
M  V30 10047 C 931.651 0.625685 -1.62361 0
M  V30 10048 O 932.827 0.534921 -1.94166 0
M  V30 10049 C 929.892 0.596215 -3.41535 0
M  V30 10050 C 928.953 -0.288154 -4.28332 0
M  V30 10051 C 928.186 0.505337 -5.31302 0
M  V30 10052 O 928.409 1.73912 -5.43241 0
M  V30 10053 O 927.343 -0.109374 -6.01801 0
M  V30 10054 H 931.169 -1.05327 -2.84851 0
M  V30 10055 H 928.754 -0.579275 -1.37713 0
M  V30 10056 H 930.636 1.07041 -4.07578 0
M  V30 10057 H 929.311 1.38997 -2.92338 0
M  V30 10058 H 928.218 -0.809724 -3.65232 0
M  V30 10059 H 929.551 -1.04612 -4.80955 0
M  V30 10060 N 931.203 1.46865 -0.571711 0
M  V30 10061 C 932.452 2.01636 -0.050881 0
M  V30 10062 C 932.765 1.45001 1.31279 0
M  V30 10063 O 933.971 1.91523 1.92435 0
M  V30 10064 C 932.427 3.59877 -0.0404114 0
M  V30 10065 C 932.035 4.25506 -1.40172 0
M  V30 10066 C 933.779 4.22346 0.42705 0
M  V30 10067 C 931.686 5.75795 -1.34958 0
M  V30 10068 H 930.616 0.753846 -0.0152514 0
M  V30 10069 H 933.267 1.68711 -0.721723 0
M  V30 10070 H 931.649 3.89829 0.696374 0
M  V30 10071 H 932.823 4.07178 -2.15737 0
M  V30 10072 H 931.138 3.75086 -1.8083 0
M  V30 10073 H 933.735 5.32499 0.484688 0
M  V30 10074 H 934.078 3.9052 1.44222 0
M  V30 10075 H 934.611 3.9698 -0.255326 0
M  V30 10076 H 931.35 6.12265 -2.3412 0
M  V30 10077 H 930.87 5.96419 -0.635962 0
M  V30 10078 H 932.549 6.38294 -1.05779 0
M  V30 10079 N 932.681 0.308908 1.54543 0
M  V30 10080 C 934.097 -0.0442273 1.59539 0
M  V30 10081 C 934.297 -1.51743 1.32575 0
M  V30 10082 O 933.353 -2.27134 1.10302 0
M  V30 10083 C 934.666 0.360826 2.98527 0
M  V30 10084 C 936.214 0.310252 3.11459 0
M  V30 10085 C 936.689 0.690246 4.52769 0
M  V30 10086 N 938.18 0.643084 4.58714 0
M  V30 10087 C 938.915 0.909483 5.66141 0
M  V30 10088 N 938.411 1.24226 6.81572 0
M  V30 10089 N 940.204 0.836018 5.55848 0
M  V30 10090 H 932.355 1.26893 1.70329 0
M  V30 10091 H 934.618 0.514986 0.795923 0
M  V30 10092 H 934.324 1.38669 3.23209 0
M  V30 10093 H 934.198 -0.281563 3.76148 0
M  V30 10094 H 936.585 -0.706375 2.86521 0
M  V30 10095 H 936.666 0.987373 2.35976 0
M  V30 10096 H 936.31 1.70472 4.78437 0
M  V30 10097 H 936.24 -0.00903075 5.26599 0
M  V30 10098 H 938.731 0.397138 3.75807 0
M  V30 10099 H 939.044 1.4313 7.5943 0
M  V30 10100 H 937.389 1.28038 6.83104 0
M  V30 10101 H 940.58 0.575637 4.64547 0
M  V30 10102 H 940.753 1.047 6.39486 0
M  V30 10103 N 934.159 -1.57557 0.0367827 0
M  V30 10104 C 935.106 -2.10679 -0.942499 0
M  V30 10105 C 936.076 -1.01068 -1.31812 0
M  V30 10106 O 937.261 -1.28533 -1.41011 0
M  V30 10107 C 934.401 -2.64467 -2.21701 0
M  V30 10108 C 933.514 -3.88114 -1.89715 0
M  V30 10109 C 932.649 -4.30268 -3.11518 0
M  V30 10110 C 931.688 -5.46652 -2.75387 0
M  V30 10111 N 930.825 -5.83927 -3.89838 0
M  V30 10112 H 935.665 -2.94066 -0.482588 0
M  V30 10113 H 933.202 -1.45344 -0.226597 0
M  V30 10114 H 935.16 -2.93745 -2.96259 0
M  V30 10115 H 933.79 -1.83898 -2.65295 0
M  V30 10116 H 932.842 -3.65516 -1.05366 0
M  V30 10117 H 934.154 -4.72743 -1.5911 0
M  V30 10118 H 933.308 -4.61023 -3.94389 0
M  V30 10119 H 932.047 -3.44421 -3.4529 0
M  V30 10120 H 931.052 -5.15583 -1.90929 0
M  V30 10121 H 932.277 -6.34204 -2.42822 0
M  V30 10122 H 930.223 -5.01035 -4.23438 0
M  V30 10123 H 930.14 -6.63214 -3.62883 0
M  V30 10124 H 931.408 -6.19291 -4.73391 0
M  V30 10125 N 935.637 0.236453 -1.55816 0
M  V30 10126 C 936.886 0.960981 -1.77336 0
M  V30 10127 C 937.199 1.86085 -0.602641 0
M  V30 10128 O 938.405 2.62291 -0.701106 0
M  V30 10129 C 936.861 1.75884 -3.13995 0
M  V30 10130 C 936.469 0.905849 -4.38746 0
M  V30 10131 C 938.213 2.47548 -3.44848 0
M  V30 10132 C 936.12 1.7002 -5.66434 0
M  V30 10133 H 935.05 0.362547 -0.661117 0
M  V30 10134 H 937.701 0.215303 -1.82233 0
M  V30 10135 H 936.083 2.54687 -3.03234 0
M  V30 10136 H 937.257 0.159415 -4.60524 0
M  V30 10137 H 935.572 0.30205 -4.15303 0
M  V30 10138 H 938.169 3.07452 -4.37467 0
M  V30 10139 H 938.512 3.19689 -2.66655 0
M  V30 10140 H 939.045 1.75747 -3.56872 0
M  V30 10141 H 935.784 1.02234 -6.47479 0
M  V30 10142 H 935.304 2.42164 -5.48741 0
M  V30 10143 H 936.983 2.26469 -6.0607 0
M  V30 10144 N 937.115 1.49373 0.502552 0
M  V30 10145 C 938.045 1.68839 1.61294 0
M  V30 10146 C 939.026 0.537096 1.61398 0
M  V30 10147 O 940.211 0.772764 1.78163 0
M  V30 10148 C 937.341 1.75347 2.99784 0
M  V30 10149 C 936.295 2.90251 3.14545 0
M  V30 10150 C 935.621 2.8187 4.54371 0
M  V30 10151 C 936.921 4.31207 2.94717 0
M  V30 10152 H 938.615 2.61803 1.45257 0
M  V30 10153 H 936.161 1.25987 0.697371 0
M  V30 10154 H 938.114 1.87552 3.77362 0
M  V30 10155 H 936.838 0.789814 3.16906 0
M  V30 10156 H 935.497 2.77646 2.39392 0
M  V30 10157 H 935.145 1.83416 4.68367 0
M  V30 10158 H 934.845 3.5899 4.65188 0
M  V30 10159 H 936.369 2.96081 5.34012 0
M  V30 10160 H 937.783 4.44501 3.62065 0
M  V30 10161 H 936.18 5.09536 3.17007 0
M  V30 10162 H 937.25 4.45759 1.90857 0
M  V30 10163 N 938.594 -0.753485 1.38421 0
M  V30 10164 C 940.01 -1.05656 1.1962 0
M  V30 10165 C 940.21 -2.0145 0.0449443 0
M  V30 10166 O 939.266 -2.45039 -0.609253 0
M  V30 10167 C 940.579 -1.63655 2.52265 0
M  V30 10168 C 942.127 -1.75825 2.58949 0
M  V30 10169 C 942.602 -2.37236 3.91769 0
M  V30 10170 N 944.093 -2.44666 3.9331 0
M  V30 10171 C 944.828 -2.93077 4.92842 0
M  V30 10172 N 944.324 -3.41523 6.02772 0
M  V30 10173 N 946.117 -2.92118 4.80232 0
M  V30 10174 H 938.268 -0.117799 2.12073 0
M  V30 10175 H 940.531 -0.114889 0.941012 0
M  V30 10176 H 940.237 -1.00734 3.36965 0
M  V30 10177 H 940.111 -2.62715 2.70667 0
M  V30 10178 H 942.498 -2.37873 1.74644 0
M  V30 10179 H 942.579 -0.754693 2.44414 0
M  V30 10180 H 942.223 -1.75822 4.76497 0
M  V30 10181 H 942.153 -3.38233 4.03616 0
M  V30 10182 H 944.644 -2.10403 3.1391 0
M  V30 10183 H 944.957 -3.76919 6.74649 0
M  V30 10184 H 943.302 -3.3958 6.06391 0
M  V30 10185 H 946.493 -2.53582 3.93464 0
M  V30 10186 H 946.666 -3.29535 5.57952 0
M  V30 10187 N 940.072 -1.23292 -0.981677 0
M  V30 10188 C 941.02 -1.0104 -2.09508 0
M  V30 10189 C 942.014 0.0501977 -1.69326 0
M  V30 10190 O 943.22 -0.103197 -1.79704 0
M  V30 10191 H 939.595 -0.309629 -0.685298 0
M  V30 10192 H 941.566 -1.95493 -2.25444 0
M  V30 10193 C 940.315 -0.616885 -3.42184 0
M  V30 10194 H 939.638 -1.4247 -3.73554 0
M  V30 10195 H 941.078 -0.500688 -4.21033 0
M  V30 10196 C 939.537 0.674721 -3.30074 0
M  V30 10197 O 940.067 1.72421 -3.62814 0
M  V30 10198 N 938.273 0.650151 -2.83234 0
M  V30 10199 H 937.82 -0.204225 -2.56789 0
M  V30 10200 H 937.778 1.51458 -2.75514 0
M  V30 10201 N 941.55 1.18024 -1.04442 0
M  V30 10202 C 942.498 2.23834 -0.632557 0
M  V30 10203 C 943.492 1.65902 0.342488 0
M  V30 10204 O 944.698 1.78778 0.20937 0
M  V30 10205 H 941.073 0.728544 -0.186353 0
M  V30 10206 H 943.044 2.55876 -1.53526 0
M  V30 10207 C 941.793 3.47697 -0.0153661 0
M  V30 10208 H 941.116 3.92574 -0.756704 0
M  V30 10209 H 942.556 4.23345 0.235541 0
M  V30 10210 C 941.015 3.13416 1.23579 0
M  V30 10211 O 941.545 3.27499 2.3261 0
M  V30 10212 N 939.751 2.67708 1.13053 0
M  V30 10213 H 939.298 2.56449 0.243277 0
M  V30 10214 H 939.256 2.45143 1.96855 0
M  V30 10215 N 943.028 0.824394 1.34319 0
M  V30 10216 C 943.958 0.262077 2.32025 0
M  V30 10217 C 944.939 -0.622277 1.58309 0
M  V30 10218 O 946.124 -0.548848 1.86283 0
M  V30 10219 C 943.254 -0.57567 3.42496 0
M  V30 10220 C 942.208 0.21167 4.27476 0
M  V30 10221 C 941.534 -0.748913 5.29429 0
M  V30 10222 C 942.834 1.42068 5.02607 0
M  V30 10223 H 944.528 1.07842 2.79304 0
M  V30 10224 H 942.074 0.520022 1.34282 0
M  V30 10225 H 944.027 -0.979251 4.09864 0
M  V30 10226 H 942.751 -1.42508 2.93869 0
M  V30 10227 H 941.41 0.596636 3.61712 0
M  V30 10228 H 941.058 -1.59432 4.77064 0
M  V30 10229 H 940.758 -0.226313 5.87164 0
M  V30 10230 H 942.282 -1.15032 5.99667 0
M  V30 10231 H 943.696 1.09103 5.62823 0
M  V30 10232 H 942.093 1.87903 5.69923 0
M  V30 10233 H 943.163 2.1981 4.32217 0
M  V30 10234 N 944.506 -1.46559 0.579492 0
M  V30 10235 C 945.438 -2.28383 -0.19337 0
M  V30 10236 C 946.451 -1.38324 -0.858511 0
M  V30 10237 O 947.64 -1.62952 -0.728615 0
M  V30 10238 C 944.74 -3.13262 -1.29306 0
M  V30 10239 C 943.913 -4.31426 -0.720459 0
M  V30 10240 C 942.972 -4.97728 -1.70744 0
M  V30 10241 O 941.998 -5.55423 -1.24476 0
M  V30 10242 N 943.2 -4.94445 -3.04146 0
M  V30 10243 H 945.965 -2.95353 0.508611 0
M  V30 10244 H 943.526 -1.56436 0.417046 0
M  V30 10245 H 945.518 -3.54483 -1.95254 0
M  V30 10246 H 944.088 -2.48388 -1.89795 0
M  V30 10247 H 943.308 -3.94028 0.116398 0
M  V30 10248 H 944.596 -5.07808 -0.31763 0
M  V30 10249 H 943.994 -4.4881 -3.44363 0
M  V30 10250 H 942.551 -5.39616 -3.65592 0
M  V30 10251 N 945.984 -0.3171 -1.54377 0
M  V30 10252 C 946.931 0.551782 -2.24107 0
M  V30 10253 C 947.901 1.11681 -1.22949 0
M  V30 10254 O 949.086 1.15836 -1.51614 0
M  V30 10255 C 946.226 1.70997 -2.99756 0
M  V30 10256 C 945.339 1.17479 -4.15719 0
M  V30 10257 C 944.474 2.29815 -4.78914 0
M  V30 10258 C 943.513 1.73513 -5.86992 0
M  V30 10259 N 942.65 2.79485 -6.44075 0
M  V30 10260 H 947.49 -0.049431 -2.97959 0
M  V30 10261 H 945.027 -0.0361658 -1.47056 0
M  V30 10262 H 946.985 2.39141 -3.41859 0
M  V30 10263 H 945.615 2.28257 -2.28251 0
M  V30 10264 H 944.667 0.385109 -3.78446 0
M  V30 10265 H 945.979 0.72276 -4.93536 0
M  V30 10266 H 945.133 3.05875 -5.23952 0
M  V30 10267 H 943.872 2.78352 -4.00464 0
M  V30 10268 H 942.877 0.959475 -5.41363 0
M  V30 10269 H 944.102 1.2586 -6.67335 0
M  V30 10270 H 942.048 3.27325 -5.68502 0
M  V30 10271 H 941.965 2.38825 -7.17286 0
M  V30 10272 H 943.233 3.55394 -6.93769 0
M  V30 10273 N 947.462 1.57535 -0.0451378 0
M  V30 10274 C 948.69 1.96761 0.639742 0
M  V30 10275 C 949.105 0.922405 1.64734 0
M  V30 10276 O 948.462 -0.0940535 1.82257 0
M  V30 10277 C 948.513 3.36066 1.33199 0
M  V30 10278 O 948.234 4.36579 0.364757 0
M  V30 10279 C 949.735 3.90015 2.1072 0
M  V30 10280 H 946.955 0.64769 0.175324 0
M  V30 10281 H 949.499 2.04206 -0.109651 0
M  V30 10282 H 947.654 3.2979 2.03266 0
M  V30 10283 H 948.068 5.17432 0.858168 0
M  V30 10284 H 949.542 4.89785 2.54586 0
M  V30 10285 H 950.019 3.25117 2.95288 0
M  V30 10286 H 950.625 3.99609 1.45577 0
M  V30 10287 N 948.94 -0.228186 1.55939 0
M  V30 10288 C 950.356 -0.577583 1.48782 0
M  V30 10289 C 950.556 -1.87461 0.738972 0
M  V30 10290 O 949.612 -2.50988 0.275929 0
M  V30 10291 C 950.925 -0.662961 2.93301 0
M  V30 10292 C 952.473 -0.754035 3.03782 0
M  V30 10293 C 952.948 -0.870815 4.49645 0
M  V30 10294 N 954.439 -0.935208 4.53661 0
M  V30 10295 C 955.174 -1.04516 5.63794 0
M  V30 10296 N 954.67 -1.11948 6.83696 0
M  V30 10297 N 956.463 -1.07978 5.51631 0
M  V30 10298 H 948.614 0.623018 2.03057 0
M  V30 10299 H 950.877 0.217692 0.922667 0
M  V30 10300 H 950.583 0.220375 3.51009 0
M  V30 10301 H 950.457 -1.52876 3.44831 0
M  V30 10302 H 952.844 -1.62782 2.46143 0
M  V30 10303 H 952.925 0.137301 2.55431 0
M  V30 10304 H 952.569 -0.0015186 5.079 0
M  V30 10305 H 952.499 -1.77747 4.95695 0
M  V30 10306 H 954.99 -0.88836 3.6731 0
M  V30 10307 H 955.303 -1.20297 7.6338 0
M  V30 10308 H 953.648 -1.08873 6.8642 0
M  V30 10309 H 956.839 -1.01833 4.56889 0
M  V30 10310 H 957.012 -1.16202 6.37496 0
M  V30 10311 N 950.418 -1.49637 -0.494624 0
M  V30 10312 C 951.35 -1.62902 -1.61231 0
M  V30 10313 C 952.363 -0.511425 -1.54558 0
M  V30 10314 O 953.552 -0.783724 -1.60375 0
M  V30 10315 C 950.652 -1.57564 -3.00045 0
M  V30 10316 C 949.825 -2.84964 -3.31835 0
M  V30 10317 C 948.884 -2.72591 -4.5009 0
M  V30 10318 O 947.91 -3.46532 -4.51558 0
M  V30 10319 N 949.112 -1.84563 -5.50379 0
M  V30 10320 H 951.877 -2.59301 -1.50276 0
M  V30 10321 H 949.438 -1.46806 -0.68262 0
M  V30 10322 H 951.43 -1.46932 -3.77085 0
M  V30 10323 H 950 -0.689974 -3.0489 0
M  V30 10324 H 949.22 -3.099 -2.4363 0
M  V30 10325 H 950.508 -3.69412 -3.49875 0
M  V30 10326 H 949.906 -1.23758 -5.51997 0
M  V30 10327 H 948.463 -1.79849 -6.26496 0
M  V30 10328 N 951.896 0.746133 -1.38819 0
M  V30 10329 C 953.312 1.0502 -1.20179 0
M  V30 10330 C 953.512 2.01423 -0.0556271 0
M  V30 10331 O 952.568 2.45359 0.59625 0
M  V30 10332 C 953.881 1.62315 -2.53129 0
M  V30 10333 C 955.429 1.74449 -2.59878 0
M  V30 10334 C 955.904 2.35155 -3.93022 0
M  V30 10335 N 957.395 2.42577 -3.94602 0
M  V30 10336 C 958.13 2.9046 -4.94389 0
M  V30 10337 N 957.626 3.38322 -6.04574 0
M  V30 10338 N 959.419 2.89568 -4.81775 0
M  V30 10339 H 951.57 0.106551 -2.12133 0
M  V30 10340 H 953.833 0.109897 -0.941609 0
M  V30 10341 H 953.539 0.98946 -3.37495 0
M  V30 10342 H 953.413 2.61276 -2.72057 0
M  V30 10343 H 955.8 2.36943 -1.75903 0
M  V30 10344 H 955.881 0.741721 -2.4481 0
M  V30 10345 H 955.525 1.73292 -4.77422 0
M  V30 10346 H 955.455 3.36088 -4.05404 0
M  V30 10347 H 957.946 2.08735 -3.15021 0
M  V30 10348 H 958.259 3.73336 -6.76639 0
M  V30 10349 H 956.604 3.3636 -6.08184 0
M  V30 10350 H 959.795 2.51492 -3.94803 0
M  V30 10351 H 959.968 3.26571 -5.59692 0
M  V30 10352 N 953.375 1.23811 0.975125 0
M  V30 10353 C 954.305 1.04846 2.08638 0
M  V30 10354 C 955.286 -0.0362859 1.70061 0
M  V30 10355 O 956.471 0.12937 1.93769 0
M  V30 10356 C 953.601 0.644534 3.41267 0
M  V30 10357 C 952.555 1.67722 3.93768 0
M  V30 10358 C 951.881 1.12857 5.22654 0
M  V30 10359 C 953.181 3.07147 4.22443 0
M  V30 10360 H 954.875 1.97795 2.24761 0
M  V30 10361 H 952.421 0.952397 1.08006 0
M  V30 10362 H 954.374 0.498887 4.18436 0
M  V30 10363 H 953.098 -0.320641 3.25022 0
M  V30 10364 H 951.757 1.81095 3.18748 0
M  V30 10365 H 951.405 0.154227 5.02764 0
M  V30 10366 H 951.105 1.81862 5.58749 0
M  V30 10367 H 952.629 0.994891 6.0244 0
M  V30 10368 H 954.043 2.97045 4.90344 0
M  V30 10369 H 952.44 3.73437 4.6975 0
M  V30 10370 H 953.51 3.55743 3.29507 0
M  V30 10371 N 954.853 -1.17469 1.05066 0
M  V30 10372 C 956.269 -1.39699 0.771769 0
M  V30 10373 C 956.469 -1.91253 -0.634382 0
M  V30 10374 O 955.525 -2.10334 -1.39699 0
M  V30 10375 C 956.838 -2.38886 1.82631 0
M  V30 10376 C 958.386 -2.52595 1.84838 0
M  V30 10377 C 958.861 -3.55054 2.89311 0
M  V30 10378 N 960.352 -3.6257 2.88266 0
M  V30 10379 C 961.087 -4.41603 3.65752 0
M  V30 10380 N 960.583 -5.24162 4.53019 0
M  V30 10381 N 962.376 -4.36464 3.54197 0
M  V30 10382 H 954.527 -0.823355 1.95792 0
M  V30 10383 H 956.79 -0.42432 0.847736 0
M  V30 10384 H 956.496 -2.08075 2.83545 0
M  V30 10385 H 956.37 -3.38371 1.66687 0
M  V30 10386 H 958.757 -2.82717 0.845888 0
M  V30 10387 H 958.838 -1.53188 2.04859 0
M  V30 10388 H 958.482 -3.2567 3.89745 0
M  V30 10389 H 958.412 -4.54162 2.66542 0
M  V30 10390 H 960.903 -3.03625 2.24989 0
M  V30 10391 H 961.216 -5.81646 5.0883 0
M  V30 10392 H 959.561 -5.23547 4.57081 0
M  V30 10393 H 962.752 -3.7102 2.85416 0
M  V30 10394 H 962.925 -4.97814 4.14832 0
M  V30 10395 N 956.331 -0.831506 -1.3388 0
M  V30 10396 C 957.556 -0.435954 -2.02766 0
M  V30 10397 C 957.981 0.952889 -1.62178 0
M  V30 10398 O 957.339 1.62166 -0.810681 0
M  V30 10399 C 957.387 -0.555907 -3.56289 0
M  V30 10400 O 956.491 0.420826 -4.10247 0
M  V30 10401 H 955.832 -0.178248 -0.639628 0
M  V30 10402 H 958.362 -1.1243 -1.70941 0
M  V30 10403 H 958.372 -0.434831 -4.05676 0
M  V30 10404 H 957.047 -1.56881 -3.85177 0
M  V30 10405 H 955.624 0.257919 -3.72007 0
M  V30 10406 N 957.809 1.4625 -0.587256 0
M  V30 10407 C 959.039 2.06444 -0.0802135 0
M  V30 10408 C 959.447 1.43585 1.23207 0
M  V30 10409 O 958.79 0.536956 1.75677 0
M  V30 10410 C 958.852 3.59165 0.155129 0
M  V30 10411 C 958.516 4.44243 -1.07225 0
M  V30 10412 C 959.513 4.80497 -1.98542 0
M  V30 10413 C 957.198 4.8531 -1.29537 0
M  V30 10414 C 959.192 5.56649 -3.10516 0
M  V30 10415 C 956.879 5.61221 -2.41815 0
M  V30 10416 C 957.877 5.96805 -3.32134 0
M  V30 10417 O 957.565 6.71181 -4.42461 0
M  V30 10418 H 957.297 0.673626 -0.0566063 0
M  V30 10419 H 959.851 1.88797 -0.809004 0
M  V30 10420 H 958.081 3.75137 0.938583 0
M  V30 10421 H 959.77 4.01271 0.611243 0
M  V30 10422 H 960.536 4.49345 -1.82522 0
M  V30 10423 H 956.415 4.5706 -0.601431 0
M  V30 10424 H 959.959 5.84343 -3.81037 0
M  V30 10425 H 955.856 5.91786 -2.57797 0
M  V30 10426 H 956.624 6.8961 -4.40886 0
M  V30 10427 N 959.287 0.325282 1.54207 0
M  V30 10428 C 960.235 -0.5554 2.25872 0
M  V30 10429 C 961.229 -1.11714 1.27344 0
M  V30 10430 O 962.435 -1.06498 1.45115 0
M  V30 10431 H 958.81 -0.19776 0.725531 0
M  V30 10432 H 960.781 0.0712858 2.98315 0
M  V30 10433 C 959.53 -1.70379 3.03095 0
M  V30 10434 H 958.853 -1.2808 3.78729 0
M  V30 10435 H 960.293 -2.29556 3.56483 0
M  V30 10436 C 958.752 -2.62242 2.11496 0
M  V30 10437 O 959.282 -3.64003 1.69895 0
M  V30 10438 N 957.488 -2.30515 1.7695 0
M  V30 10439 H 957.035 -1.47805 2.10978 0
M  V30 10440 H 956.993 -2.92241 1.15942 0
M  V30 10441 N 960.765 -1.57509 0.0534917 0
M  V30 10442 C 962.181 -1.56696 -0.303067 0
M  V30 10443 C 962.381 -1.06135 -1.71282 0
M  V30 10444 O 961.437 -0.71899 -2.42047 0
M  V30 10445 C 962.75 -3.00421 -0.129418 0
M  V30 10446 C 964.298 -3.12358 -0.200346 0
M  V30 10447 C 964.773 -4.57967 -0.0551971 0
M  V30 10448 N 966.264 -4.63066 -0.111398 0
M  V30 10449 C 966.999 -5.73395 -0.0232344 0
M  V30 10450 N 966.495 -6.92701 0.11741 0
M  V30 10451 N 968.288 -5.62045 -0.078984 0
M  V30 10452 H 960.439 -1.88696 0.975064 0
M  V30 10453 H 962.702 -0.869072 0.378706 0
M  V30 10454 H 962.408 -3.41456 0.842653 0
M  V30 10455 H 962.282 -3.66563 -0.889476 0
M  V30 10456 H 964.669 -2.71221 -1.16289 0
M  V30 10457 H 964.75 -2.48891 0.590506 0
M  V30 10458 H 964.394 -4.9979 0.904034 0
M  V30 10459 H 964.324 -5.19443 -0.865223 0
M  V30 10460 H 966.815 -3.77263 -0.219256 0
M  V30 10461 H 967.128 -7.72597 0.177326 0
M  V30 10462 H 965.473 -6.94833 0.152526 0
M  V30 10463 H 968.664 -4.67725 -0.187434 0
M  V30 10464 H 968.837 -6.48 -0.00681731 0
M  V30 10465 N 962.243 0.219913 -1.56058 0
M  V30 10466 C 963.193 1.27606 -1.88946 0
M  V30 10467 C 964.177 1.42209 -0.752691 0
M  V30 10468 O 965.369 1.44996 -1.01514 0
M  V30 10469 C 962.498 2.62614 -2.21108 0
M  V30 10470 C 961.584 2.51906 -3.4118 0
M  V30 10471 N 961.975 2.10851 -4.59756 0
M  V30 10472 C 960.273 2.82861 -3.44827 0
M  V30 10473 C 960.974 2.11434 -5.41914 0
M  V30 10474 N 959.95 2.51985 -4.81669 0
M  V30 10475 H 963.752 0.94957 -2.78137 0
M  V30 10476 H 961.266 0.428468 -1.56646 0
M  V30 10477 H 963.263 3.38869 -2.42844 0
M  V30 10478 H 961.923 2.96108 -1.3323 0
M  V30 10479 H 962.934 1.81956 -4.84884 0
M  V30 10480 H 959.611 3.20716 -2.67297 0
M  V30 10481 H 961.001 1.81803 -6.46836 0
M  V30 10482 N 963.721 1.49897 0.486681 0
M  V30 10483 C 964.949 1.63837 1.26353 0
M  V30 10484 C 965.364 0.315428 1.86146 0
M  V30 10485 O 964.721 -0.700831 1.68507 0
M  V30 10486 C 964.772 2.71792 2.38351 0
M  V30 10487 O 964.493 3.98956 1.81013 0
M  V30 10488 C 965.994 2.96566 3.2949 0
M  V30 10489 H 963.214 0.551158 0.382709 0
M  V30 10490 H 965.758 1.96023 0.582694 0
M  V30 10491 H 963.913 2.42344 3.02238 0
M  V30 10492 H 964.327 4.58536 2.54647 0
M  V30 10493 H 965.801 3.75803 4.04322 0
M  V30 10494 H 966.278 2.07031 3.87343 0
M  V30 10495 H 966.884 3.27485 2.71355 0
M  V30 10496 N 965.199 -0.738761 1.39212 0
M  V30 10497 C 966.129 -1.86602 1.40364 0
M  V30 10498 C 967.11 -1.67984 0.267495 0
M  V30 10499 O 968.295 -1.88358 0.472765 0
M  V30 10500 C 965.425 -3.24308 1.24265 0
M  V30 10501 C 964.379 -3.57557 2.35239 0
M  V30 10502 C 963.705 -4.94159 2.04233 0
M  V30 10503 C 965.005 -3.60914 3.77543 0
M  V30 10504 H 966.699 -1.85896 2.34698 0
M  V30 10505 H 964.245 -0.892959 1.1297 0
M  V30 10506 H 966.198 -4.02838 1.23692 0
M  V30 10507 H 964.922 -3.25531 0.263974 0
M  V30 10508 H 963.581 -2.81354 2.35022 0
M  V30 10509 H 963.229 -4.91959 1.04813 0
M  V30 10510 H 962.929 -5.17373 2.78567 0
M  V30 10511 H 964.453 -5.7505 2.05303 0
M  V30 10512 H 965.867 -4.29528 3.79709 0
M  V30 10513 H 964.264 -3.95644 4.51205 0
M  V30 10514 H 965.334 -2.60803 4.08791 0
M  V30 10515 N 966.677 -1.24326 -0.968545 0
M  V30 10516 C 967.923 -1.08406 -1.71394 0
M  V30 10517 C 968.256 0.376353 -1.90518 0
M  V30 10518 O 967.531 1.27816 -1.46606 0
M  V30 10519 C 967.814 -1.82344 -3.1052 0
M  V30 10520 C 967.667 -3.3613 -2.98893 0
M  V30 10521 C 968.986 -1.59545 -4.10163 0
M  V30 10522 H 966.105 -0.395205 -0.622079 0
M  V30 10523 H 968.747 -1.52983 -1.12677 0
M  V30 10524 H 966.897 -1.44452 -3.60646 0
M  V30 10525 H 968.569 -3.83614 -2.56199 0
M  V30 10526 H 966.812 -3.64553 -2.35124 0
M  V30 10527 H 967.483 -3.83064 -3.97449 0
M  V30 10528 H 969.959 -1.92504 -3.68892 0
M  V30 10529 H 968.835 -2.13736 -5.05577 0
M  V30 10530 H 969.096 -0.533503 -4.38869 0
M  V30 10531 N 968.156 1.1691 -1.05688 0
M  V30 10532 C 969.119 2.19297 -0.666433 0
M  V30 10533 C 970.119 1.5826 0.284674 0
M  V30 10534 O 971.309 1.74068 0.0678757 0
M  V30 10535 C 968.441 3.40894 0.0203656 0
M  V30 10536 H 969.634 2.55354 -1.57272 0
M  V30 10537 H 967.187 1.31078 -0.851359 0
M  V30 10538 H 967.922 3.10388 0.939686 0
M  V30 10539 H 967.707 3.86446 -0.663464 0
M  V30 10540 H 969.197 4.16664 0.279475 0
M  V30 10541 N 969.634 0.838594 1.33437 0
M  V30 10542 C 970.911 0.356112 1.92331 0
M  V30 10543 C 971.291 -1.1585 1.76471 0
M  V30 10544 O 970.639 -1.97281 1.15293 0
M  V30 10545 C 970.849 0.802715 3.39643 0
M  V30 10546 C 972.197 0.810575 4.16791 0
M  V30 10547 O 973.221 0.746304 3.48294 0
M  V30 10548 O 972.08 0.898082 5.3907 0
M  V30 10549 H 969.174 0.100711 0.820845 0
M  V30 10550 H 971.72 0.924428 1.42311 0
M  V30 10551 H 970.492 1.84529 3.45057 0
M  V30 10552 H 970.115 0.210956 3.9704 0
M  V30 10553 N 971.112 -1.45937 0.595003 0
M  V30 10554 C 972.523 -1.85908 0.171779 0
M  V30 10555 C 972.874 -1.497 -1.26824 0
M  V30 10556 O 971.999 -0.917688 -1.95978 0
M  V30 10557 C 972.594 -3.37425 0.304976 0
M  V30 10558 C 971.153 -3.76346 -0.0634635 0
M  V30 10559 C 970.3 -2.69926 0.635255 0
M  V30 10560 H 973.251 -1.36916 0.802471 0
M  V30 10561 H 973.272 -3.77632 -0.466313 0
M  V30 10562 H 972.784 -3.63747 1.35314 0
M  V30 10563 H 970.885 -3.55642 -1.11129 0
M  V30 10564 H 970.998 -4.78021 0.321419 0
M  V30 10565 H 969.362 -2.54592 0.0742054 0
M  V30 10566 H 970.145 -2.99086 1.68531 0
M  V30 10567 N 972.59 -0.333456 -1.54032 0
M  V30 10568 C 973.82 0.267425 -2.04862 0
M  V30 10569 C 974.228 1.45559 -1.20869 0
M  V30 10570 O 973.571 1.82197 -0.234478 0
M  V30 10571 C 973.633 0.755759 -3.51466 0
M  V30 10572 C 973.297 -0.311409 -4.55938 0
M  V30 10573 C 974.294 -1.15078 -5.07004 0
M  V30 10574 C 971.979 -0.462439 -5.00167 0
M  V30 10575 C 973.973 -2.12682 -6.0087 0
M  V30 10576 C 971.66 -1.44188 -5.93846 0
M  V30 10577 C 972.658 -2.27253 -6.44085 0
M  V30 10578 O 972.346 -3.23532 -7.35923 0
M  V30 10579 H 972.078 0.0572596 -0.673571 0
M  V30 10580 H 974.632 -0.480646 -1.99697 0
M  V30 10581 H 972.862 1.55491 -3.54062 0
M  V30 10582 H 974.551 1.27607 -3.8532 0
M  V30 10583 H 975.317 -1.04513 -4.73605 0
M  V30 10584 H 971.196 0.17424 -4.60671 0
M  V30 10585 H 974.74 -2.77555 -6.40007 0
M  V30 10586 H 970.637 -1.54813 -6.2666 0
M  V30 10587 H 971.405 -3.18886 -7.53826 0
M  V30 10588 N 974.068 1.57479 -0.061844 0
M  V30 10589 C 974.978 2.15645 0.923826 0
M  V30 10590 C 975.994 1.117 1.33413 0
M  V30 10591 O 977.17 1.4392 1.40887 0
M  V30 10592 C 974.235 2.69857 2.17665 0
M  V30 10593 C 973.296 3.88638 1.8237 0
M  V30 10594 C 972.529 4.40256 3.01679 0
M  V30 10595 O 972.752 3.90908 4.15388 0
M  V30 10596 O 971.686 5.31713 2.82073 0
M  V30 10597 H 975.512 3.0021 0.459094 0
M  V30 10598 H 973.097 1.48534 0.160665 0
M  V30 10599 H 974.979 3.04647 2.9115 0
M  V30 10600 H 973.654 1.88357 2.63255 0
M  V30 10601 H 972.561 3.58719 1.06167 0
M  V30 10602 H 973.894 4.71401 1.4157 0
M  V30 10603 N 975.546 -0.211634 1.56173 0
M  V30 10604 C 976.456 -1.2831 1.96402 0
M  V30 10605 C 977.472 -1.50731 0.869254 0
M  V30 10606 O 978.648 -1.63669 1.17365 0
M  V30 10607 C 975.713 -2.61084 2.28114 0
M  V30 10608 C 974.774 -2.46879 3.51211 0
M  V30 10609 C 974.007 -3.73321 3.81401 0
M  V30 10610 O 974.23 -4.76773 3.13119 0
M  V30 10611 O 973.164 -3.69839 4.74871 0
M  V30 10612 H 976.99 -0.971733 2.87734 0
M  V30 10613 H 974.575 -0.415305 1.43512 0
M  V30 10614 H 976.457 -3.39481 2.49661 0
M  V30 10615 H 975.132 -2.91881 1.39954 0
M  V30 10616 H 974.039 -1.66648 3.34932 0
M  V30 10617 H 975.372 -2.21018 4.39786 0
M  V30 10618 N 977.024 -1.50153 -0.478725 0
M  V30 10619 C 977.987 -1.67916 -1.56003 0
M  V30 10620 C 978.987 -0.550111 -1.51097 0
M  V30 10621 O 980.177 -0.817001 -1.53853 0
M  V30 10622 C 977.309 -1.6973 -2.95643 0
M  V30 10623 H 978.502 -2.6438 -1.41573 0
M  V30 10624 H 976.055 -1.39519 -0.704565 0
M  V30 10625 H 976.79 -0.749306 -3.15525 0
M  V30 10626 H 976.575 -2.51745 -3.00611 0
M  V30 10627 H 978.065 -1.85453 -3.74162 0
M  V30 10628 N 978.502 0.731368 -1.39602 0
M  V30 10629 C 979.748 1.49211 -1.38231 0
M  V30 10630 C 980.103 1.92389 0.020747 0
M  V30 10631 O 979.396 1.64161 0.988014 0
M  V30 10632 C 979.59 2.74224 -2.29208 0
M  V30 10633 C 979.419 2.4327 -3.78219 0
M  V30 10634 C 978.189 2.35387 -4.47125 0
M  V30 10635 C 980.387 2.08574 -4.70108 0
M  V30 10636 N 978.369 1.96942 -5.81452 0
M  V30 10637 C 979.74 1.80603 -5.93113 0
M  V30 10638 C 981.795 1.95074 -4.58095 0
M  V30 10639 C 980.498 1.40491 -7.05447 0
M  V30 10640 C 982.524 1.56365 -5.70354 0
M  V30 10641 C 981.886 1.29281 -6.92435 0
M  V30 10642 H 977.985 0.544703 -0.56109 0
M  V30 10643 H 980.569 0.849647 -1.75183 0
M  V30 10644 H 978.74 3.36244 -1.94408 0
M  V30 10645 H 980.472 3.40451 -2.18803 0
M  V30 10646 H 977.227 2.52604 -4.0061 0
M  V30 10647 H 977.651 1.80303 -6.52549 0
M  V30 10648 H 982.293 2.1468 -3.64242 0
M  V30 10649 H 980.011 1.19626 -7.99197 0
M  V30 10650 H 983.597 1.4652 -5.63048 0
M  V30 10651 H 982.477 0.997769 -7.77827 0
M  V30 10652 N 979.98 1.24838 0.961938 0
M  V30 10653 C 980.928 1.0436 2.07874 0
M  V30 10654 C 981.922 -0.0232531 1.69384 0
M  V30 10655 O 983.128 0.131773 1.79517 0
M  V30 10656 H 979.503 0.320492 0.680286 0
M  V30 10657 H 981.474 1.99055 2.22306 0
M  V30 10658 C 980.223 0.671246 3.41159 0
M  V30 10659 H 979.546 1.48395 3.7124 0
M  V30 10660 H 980.986 0.567608 4.20184 0
M  V30 10661 C 979.445 -0.622124 3.31106 0
M  V30 10662 O 979.975 -1.66627 3.65511 0
M  V30 10663 N 978.181 -0.605009 2.84232 0
M  V30 10664 H 977.728 0.245052 2.56432 0
M  V30 10665 H 977.686 -1.47056 2.77888 0
M  V30 10666 N 981.458 -1.16348 1.06306 0
M  V30 10667 C 982.39 -2.20316 0.631929 0
M  V30 10668 C 983.403 -1.59819 -0.310133 0
M  V30 10669 O 984.592 -1.78213 -0.101103 0
M  V30 10670 C 981.692 -3.3877 -0.0937645 0
M  V30 10671 C 980.865 -4.28826 0.861816 0
M  V30 10672 C 979.924 -5.25908 0.175346 0
M  V30 10673 O 978.95 -5.63363 0.813039 0
M  V30 10674 N 980.152 -5.70307 -1.08305 0
M  V30 10675 H 982.917 -2.57925 1.52626 0
M  V30 10676 H 980.478 -1.31358 0.946392 0
M  V30 10677 H 982.47 -4.00759 -0.563412 0
M  V30 10678 H 981.04 -2.99666 -0.889904 0
M  V30 10679 H 980.26 -3.64098 1.51083 0
M  V30 10680 H 981.548 -4.85875 1.51007 0
M  V30 10681 H 980.946 -5.4197 -1.62127 0
M  V30 10682 H 979.503 -6.34387 -1.49656 0
M  V30 10683 N 982.937 -0.845659 -1.3299 0
M  V30 10684 C 983.87 -0.228695 -2.27051 0
M  V30 10685 C 984.848 0.62812 -1.49978 0
M  V30 10686 O 986.032 0.586897 -1.79131 0
M  V30 10687 C 983.159 0.678251 -3.31839 0
M  V30 10688 C 982.205 -0.103994 -4.26373 0
M  V30 10689 S 983.038 -1.46642 -5.1503 0
M  V30 10690 C 984.194 -0.564953 -6.23345 0
M  V30 10691 H 984.427 -1.02609 -2.79032 0
M  V30 10692 H 981.96 -0.642786 -1.40384 0
M  V30 10693 H 983.918 1.1959 -3.92694 0
M  V30 10694 H 982.579 1.44937 -2.78661 0
M  V30 10695 H 981.772 0.586406 -5.00577 0
M  V30 10696 H 981.374 -0.552927 -3.6989 0
M  V30 10697 H 983.666 0.234466 -6.77094 0
M  V30 10698 H 984.609 -1.27736 -6.96483 0
M  V30 10699 H 985.017 -0.143286 -5.64318 0
M  V30 10700 N 984.415 1.45619 -0.602734 0
M  V30 10701 C 985.345 2.33258 0.106342 0
M  V30 10702 C 986.326 1.46543 0.863664 0
M  V30 10703 O 987.511 1.75324 0.835175 0
M  V30 10704 C 984.641 3.29168 1.10751 0
M  V30 10705 C 983.595 4.25481 0.463717 0
M  V30 10706 C 982.921 5.11046 1.57278 0
M  V30 10707 C 984.221 5.18702 -0.61199 0
M  V30 10708 H 985.915 2.92795 -0.625423 0
M  V30 10709 H 983.461 1.40793 -0.302213 0
M  V30 10710 H 985.414 3.89346 1.61208 0
M  V30 10711 H 984.138 2.6778 1.8698 0
M  V30 10712 H 982.797 3.66595 -0.0199496 0
M  V30 10713 H 982.445 4.46029 2.32524 0
M  V30 10714 H 982.145 5.76286 1.14755 0
M  V30 10715 H 983.669 5.74091 2.07972 0
M  V30 10716 H 985.083 5.72979 -0.191686 0
M  V30 10717 H 983.48 5.92393 -0.958686 0
M  V30 10718 H 984.55 4.61424 -1.4905 0
M  V30 10719 N 985.893 0.34162 1.53853 0
M  V30 10720 C 986.823 -0.508431 2.27897 0
M  V30 10721 C 987.804 -1.10425 1.29384 0
M  V30 10722 O 988.989 -1.126 1.58224 0
M  V30 10723 C 986.119 -1.66048 3.05034 0
M  V30 10724 C 985.073 -1.19309 4.11035 0
M  V30 10725 C 984.399 -2.4335 4.76114 0
M  V30 10726 C 985.699 -0.294952 5.21467 0
M  V30 10727 H 987.393 0.109251 2.99201 0
M  V30 10728 H 984.939 0.0539847 1.43899 0
M  V30 10729 H 986.892 -2.26158 3.5557 0
M  V30 10730 H 985.616 -2.30503 2.31379 0
M  V30 10731 H 984.275 -0.614809 3.61408 0
M  V30 10732 H 983.923 -3.06208 3.99056 0
M  V30 10733 H 983.623 -2.1276 5.47729 0
M  V30 10734 H 985.147 -3.0419 5.29434 0
M  V30 10735 H 986.561 -0.80285 5.67651 0
M  V30 10736 H 984.958 -0.0810221 6.00045 0
M  V30 10737 H 986.028 0.669433 4.80257 0
M  V30 10738 N 987.371 -1.57444 0.0701946 0
M  V30 10739 C 988.787 -1.57009 -0.286431 0
M  V30 10740 C 988.987 -1.07946 -1.70147 0
M  V30 10741 O 988.043 -0.744622 -2.41271 0
M  V30 10742 C 989.356 -3.00542 -0.0975466 0
M  V30 10743 C 990.904 -3.12553 -0.167205 0
M  V30 10744 C 991.379 -4.58 -0.00662047 0
M  V30 10745 N 992.87 -4.63158 -0.0622778 0
M  V30 10746 C 993.605 -5.73388 0.0375831 0
M  V30 10747 N 993.101 -6.92537 0.190873 0
M  V30 10748 N 994.894 -5.62097 -0.0193672 0
M  V30 10749 H 987.045 -1.87651 0.995023 0
M  V30 10750 H 989.308 -0.865006 0.387902 0
M  V30 10751 H 989.014 -3.40543 0.878822 0
M  V30 10752 H 988.888 -3.67485 -0.850547 0
M  V30 10753 H 991.275 -2.72439 -1.13406 0
M  V30 10754 H 991.356 -2.48251 0.616871 0
M  V30 10755 H 991 -4.98803 0.956992 0
M  V30 10756 H 990.93 -5.20332 -0.810081 0
M  V30 10757 H 993.421 -3.77475 -0.179229 0
M  V30 10758 H 993.734 -7.72365 0.25926 0
M  V30 10759 H 992.079 -6.94632 0.226214 0
M  V30 10760 H 995.27 -4.67897 -0.137815 0
M  V30 10761 H 995.443 -6.4797 0.0619121 0
M  V30 10762 N 988.849 0.203349 -1.56283 0
M  V30 10763 C 990.265 0.55384 -1.49682 0
M  V30 10764 C 990.465 1.86261 -0.768701 0
M  V30 10765 O 989.521 2.50517 -0.315824 0
M  V30 10766 C 990.834 0.616216 -2.94318 0
M  V30 10767 C 992.382 0.705611 -3.04943 0
M  V30 10768 C 992.857 0.79917 -4.50974 0
M  V30 10769 N 994.348 0.862916 -4.55091 0
M  V30 10770 C 995.083 0.955334 -5.65386 0
M  V30 10771 N 994.579 1.01057 -6.8539 0
M  V30 10772 N 996.372 0.991884 -5.53279 0
M  V30 10773 H 988.523 -0.655244 -2.0204 0
M  V30 10774 H 990.786 -0.232344 -0.919087 0
M  V30 10775 H 990.492 -0.27619 -3.50614 0
M  V30 10776 H 990.366 1.47371 -3.4722 0
M  V30 10777 H 992.753 1.58845 -2.48701 0
M  V30 10778 H 992.834 -0.177921 -2.5518 0
M  V30 10779 H 992.478 -0.0792841 -5.07838 0
M  V30 10780 H 992.408 1.69838 -4.9846 0
M  V30 10781 H 994.899 0.829812 -3.68677 0
M  V30 10782 H 995.212 1.08137 -7.65197 0
M  V30 10783 H 993.557 0.979384 -6.88065 0
M  V30 10784 H 996.748 0.945514 -4.58451 0
M  V30 10785 H 996.921 1.06045 -6.39264 0
M  V30 10786 N 990.327 1.50405 0.470755 0
M  V30 10787 C 991.259 1.65447 1.58619 0
M  V30 10788 C 992.272 0.535949 1.53725 0
M  V30 10789 O 993.461 0.80914 1.59107 0
M  V30 10790 C 990.561 1.62318 2.975 0
M  V30 10791 C 989.734 2.90207 3.27259 0
M  V30 10792 C 988.793 2.79717 4.45696 0
M  V30 10793 O 987.819 3.53672 4.45987 0
M  V30 10794 N 989.021 1.93296 5.47373 0
M  V30 10795 H 991.786 2.61659 1.46132 0
M  V30 10796 H 989.347 1.47873 0.659178 0
M  V30 10797 H 991.339 1.52912 3.747 0
M  V30 10798 H 989.909 0.738392 3.03754 0
M  V30 10799 H 989.129 3.13737 2.38669 0
M  V30 10800 H 990.417 3.74931 3.43953 0
M  V30 10801 H 989.815 1.32524 5.49958 0
M  V30 10802 H 988.372 1.89793 6.23556 0
M  V30 10803 N 991.805 -0.723954 1.39988 0
M  V30 10804 C 992.752 -1.83803 1.39589 0
M  V30 10805 C 993.722 -1.64146 0.253996 0
M  V30 10806 O 994.907 -1.85398 0.450793 0
M  V30 10807 C 992.047 -3.21431 1.25604 0
M  V30 10808 C 991.16 -3.52717 2.49429 0
M  V30 10809 C 990.295 -4.79805 2.27949 0
M  V30 10810 C 989.334 -5.03968 3.47394 0
M  V30 10811 N 988.471 -6.22266 3.25161 0
M  V30 10812 H 993.311 -1.83479 2.34818 0
M  V30 10813 H 990.848 -0.896396 1.16633 0
M  V30 10814 H 992.806 -4.00892 1.15504 0
M  V30 10815 H 991.436 -3.21005 0.339986 0
M  V30 10816 H 990.488 -2.67872 2.7009 0
M  V30 10817 H 991.8 -3.66486 3.38363 0
M  V30 10818 H 990.954 -5.67268 2.15155 0
M  V30 10819 H 989.693 -4.68229 1.36428 0
M  V30 10820 H 988.698 -4.14963 3.60674 0
M  V30 10821 H 989.923 -5.17422 4.39831 0
M  V30 10822 H 987.869 -6.11957 2.36314 0
M  V30 10823 H 987.786 -6.36673 4.07656 0
M  V30 10824 H 989.054 -7.12539 3.16083 0
M  V30 10825 N 993.283 -1.25346 -0.955304 0
M  V30 10826 C 994.246 -1.05754 -2.03344 0
M  V30 10827 C 995.246 -0.0105743 -1.60797 0
M  V30 10828 O 996.436 -0.252699 -1.72357 0
M  V30 10829 C 993.568 -0.605536 -3.35479 0
M  V30 10830 H 994.761 -2.01459 -2.22158 0
M  V30 10831 H 992.314 -1.07744 -1.1323 0
M  V30 10832 H 993.049 0.354154 -3.2236 0
M  V30 10833 H 992.834 -1.36134 -3.67709 0
M  V30 10834 H 994.324 -0.489867 -4.14717 0
M  V30 10835 N 994.761 1.15782 -1.06922 0
M  V30 10836 C 996.177 1.38454 -0.793896 0
M  V30 10837 C 996.377 1.92238 0.603875 0
M  V30 10838 O 995.433 2.1253 1.36335 0
M  V30 10839 C 996.746 2.3595 -1.86408 0
M  V30 10840 C 998.294 2.49622 -1.88833 0
M  V30 10841 C 998.769 3.50406 -2.94923 0
M  V30 10842 N 1000.26 3.57938 -2.93997 0
M  V30 10843 C 1001 4.35728 -3.72731 0
M  V30 10844 N 1000.49 5.16888 -4.61301 0
M  V30 10845 N 1002.28 4.30774 -3.61096 0
M  V30 10846 H 994.435 0.792101 -1.97077 0
M  V30 10847 H 996.698 0.410779 -0.85438 0
M  V30 10848 H 996.404 2.03537 -2.86819 0
M  V30 10849 H 996.278 3.35677 -1.72049 0
M  V30 10850 H 998.665 2.81335 -0.890759 0
M  V30 10851 H 998.746 1.49909 -2.0727 0
M  V30 10852 H 998.39 3.19429 -3.94877 0
M  V30 10853 H 998.32 4.49864 -2.73734 0
M  V30 10854 H 1000.81 3.00007 -2.29791 0
M  V30 10855 H 1001.12 5.73477 -5.18019 0
M  V30 10856 H 999.469 5.16209 -4.65353 0
M  V30 10857 H 1002.66 3.66432 -2.91282 0
M  V30 10858 H 1002.83 4.91151 -4.22699 0
M  V30 10859 N 996.239 0.8527 1.3254 0
M  V30 10860 C 997.171 0.253181 2.27797 0
M  V30 10861 C 998.184 -0.573977 1.52346 0
M  V30 10862 O 999.373 -0.398786 1.73988 0
M  V30 10863 C 996.473 -0.661034 3.32391 0
M  V30 10864 C 995.646 0.12984 4.37207 0
M  V30 10865 C 994.705 -0.709837 5.2139 0
M  V30 10866 O 993.731 -0.144056 5.69018 0
M  V30 10867 N 994.933 -2.0249 5.44039 0
M  V30 10868 H 997.698 1.07171 2.79883 0
M  V30 10869 H 995.259 0.712491 1.45379 0
M  V30 10870 H 997.251 -1.22806 3.85617 0
M  V30 10871 H 995.821 -1.38025 2.80478 0
M  V30 10872 H 995.041 0.878289 3.84291 0
M  V30 10873 H 996.329 0.673141 5.04328 0
M  V30 10874 H 995.727 -2.50792 5.0707 0
M  V30 10875 H 994.284 -2.5401 6.00269 0
M  V30 10876 N 997.718 -1.45297 0.610449 0
M  V30 10877 C 998.648 -2.33311 -0.0939698 0
M  V30 10878 C 999.629 -1.46999 -0.85588 0
M  V30 10879 O 1000.81 -1.75764 -0.825865 0
M  V30 10880 C 997.944 -3.29751 -1.09003 0
M  V30 10881 C 996.898 -4.2572 -0.441146 0
M  V30 10882 C 996.224 -5.11873 -1.54566 0
M  V30 10883 C 997.524 -5.1837 0.639489 0
M  V30 10884 H 999.218 -2.92459 0.640941 0
M  V30 10885 H 996.764 -1.40631 0.309675 0
M  V30 10886 H 998.717 -3.90195 -1.59141 0
M  V30 10887 H 997.441 -2.68768 -1.85557 0
M  V30 10888 H 996.1 -3.66579 0.0393908 0
M  V30 10889 H 995.748 -4.47256 -2.30155 0
M  V30 10890 H 995.448 -5.76886 -1.11698 0
M  V30 10891 H 996.972 -5.75185 -2.04925 0
M  V30 10892 H 998.386 -5.7287 0.22207 0
M  V30 10893 H 996.783 -5.91876 0.990089 0
M  V30 10894 H 997.853 -4.60627 1.51495 0
M  V30 10895 N 999.196 -0.349774 -1.5367 0
M  V30 10896 C 1000.11 0.512421 -2.28935 0
M  V30 10897 C 1001.12 1.1065 -1.34286 0
M  V30 10898 O 1002.3 1.12084 -1.67329 0
M  V30 10899 C 999.363 1.64449 -3.05217 0
M  V30 10900 C 998.424 1.07956 -4.15505 0
M  V30 10901 C 997.657 2.15768 -4.88139 0
M  V30 10902 O 997.88 3.366 -4.60496 0
M  V30 10903 O 996.814 1.79712 -5.74445 0
M  V30 10904 H 1000.64 -0.0996001 -3.03537 0
M  V30 10905 H 998.225 -0.114629 -1.4896 0
M  V30 10906 H 1000.11 2.30302 -3.52901 0
M  V30 10907 H 998.782 2.24221 -2.33467 0
M  V30 10908 H 997.689 0.385381 -3.7211 0
M  V30 10909 H 999.022 0.526621 -4.89375 0
M  V30 10910 N 1000.67 1.57404 -0.0785433 0
M  V30 10911 C 1001.61 2.101 0.916013 0
M  V30 10912 C 1002.62 1.03459 1.25698 0
M  V30 10913 O 1003.81 1.30954 1.21299 0
M  V30 10914 C 1000.91 2.55202 2.22992 0
M  V30 10915 C 1000.08 3.85491 2.06678 0
M  V30 10916 C 999.14 4.16614 3.21433 0
M  V30 10917 O 998.166 4.86105 2.96126 0
M  V30 10918 N 999.368 3.70697 4.46726 0
M  V30 10919 H 1002.13 2.96054 0.466059 0
M  V30 10920 H 999.694 1.61546 0.107006 0
M  V30 10921 H 1001.69 2.7308 2.9868 0
M  V30 10922 H 1000.26 1.74348 2.59464 0
M  V30 10923 H 999.476 3.76925 1.15417 0
M  V30 10924 H 1000.76 4.70759 1.93036 0
M  V30 10925 H 1000.16 3.14571 4.70172 0
M  V30 10926 H 998.719 3.93762 5.19418 0
M  V30 10927 N 1002.15 -0.195058 1.56388 0
M  V30 10928 C 1003.1 -1.24175 1.94549 0
M  V30 10929 C 1004.07 -1.45229 0.806089 0
M  V30 10930 O 1005.25 -1.58362 1.06425 0
M  V30 10931 C 1002.39 -2.58145 2.29031 0
M  V30 10932 C 1001.51 -2.44669 3.56035 0
M  V30 10933 C 1000.64 -3.71342 3.7984 0
M  V30 10934 C 999.681 -3.52699 5.0027 0
M  V30 10935 N 998.818 -4.71385 5.20328 0
M  V30 10936 H 1003.66 -0.909319 2.83788 0
M  V30 10937 H 1001.19 -0.437641 1.40439 0
M  V30 10938 H 1003.15 -3.36195 2.4704 0
M  V30 10939 H 1001.78 -2.8943 1.42933 0
M  V30 10940 H 1000.83 -1.57916 3.46073 0
M  V30 10941 H 1002.15 -2.26827 4.44242 0
M  V30 10942 H 1001.3 -4.57832 3.98088 0
M  V30 10943 H 1000.04 -3.92138 2.89964 0
M  V30 10944 H 999.045 -2.64594 4.81944 0
M  V30 10945 H 1000.27 -3.33349 5.91655 0
M  V30 10946 H 998.216 -4.92444 4.33399 0
M  V30 10947 H 998.133 -4.56368 6.02714 0
M  V30 10948 H 999.401 -5.59226 5.43035 0
M  V30 10949 N 1003.63 -1.50653 -0.462772 0
M  V30 10950 C 1004.88 -1.61296 -1.21105 0
M  V30 10951 C 1005.19 -0.322757 -1.92919 0
M  V30 10952 O 1006.4 -0.308211 -2.69745 0
M  V30 10953 C 1004.85 -2.84752 -2.201 0
M  V30 10954 C 1004.46 -4.20681 -1.54051 0
M  V30 10955 C 1006.21 -3.04744 -2.95518 0
M  V30 10956 C 1004.11 -5.35314 -2.51381 0
M  V30 10957 H 1003.04 -0.60069 -0.455728 0
M  V30 10958 H 1005.69 -1.77093 -0.480656 0
M  V30 10959 H 1004.08 -2.62532 -2.96467 0
M  V30 10960 H 1005.25 -4.53187 -0.834168 0
M  V30 10961 H 1003.56 -4.06361 -0.908828 0
M  V30 10962 H 1006.16 -3.87559 -3.68378 0
M  V30 10963 H 1006.5 -2.16802 -3.55391 0
M  V30 10964 H 1007.04 -3.27185 -2.26263 0
M  V30 10965 H 1003.78 -6.25437 -1.96235 0
M  V30 10966 H 1003.3 -5.07216 -3.20144 0
M  V30 10967 H 1004.98 -5.66229 -3.1304 0
M  V30 10968 N 1005.11 0.71652 -1.4037 0
M  V30 10969 C 1006.06 1.85194 -1.40734 0
M  V30 10970 C 1007.05 1.66934 -0.287969 0
M  V30 10971 O 1008.26 1.74051 -0.458957 0
M  V30 10972 H 1004.63 0.609922 -0.439885 0
M  V30 10973 H 1006.6 1.82003 -2.36468 0
M  V30 10974 C 1005.35 3.23048 -1.28589 0
M  V30 10975 H 1004.67 3.37704 -2.13999 0
M  V30 10976 H 1006.11 4.02633 -1.32902 0
M  V30 10977 C 1004.57 3.369 0.00396512 0
M  V30 10978 O 1005.1 3.89881 0.967243 0
M  V30 10979 N 1003.31 2.90508 0.0731565 0
M  V30 10980 H 1002.86 2.4758 -0.711454 0
M  V30 10981 H 1002.81 3.00155 0.935652 0
M  V30 10982 N 1006.59 1.25851 0.948643 0
M  V30 10983 C 1007.53 1.06559 2.06756 0
M  V30 10984 C 1008.53 -0.00528632 1.69399 0
M  V30 10985 O 1009.73 0.150806 1.79367 0
M  V30 10986 H 1006.11 0.327689 0.676848 0
M  V30 10987 H 1008.08 2.01401 2.20182 0
M  V30 10988 C 1006.83 0.707392 3.40428 0
M  V30 10989 H 1006.15 1.52324 3.69645 0
M  V30 10990 H 1007.59 0.612142 4.19558 0
M  V30 10991 C 1006.05 -0.58697 3.31747 0
M  V30 10992 O 1006.58 -1.62741 3.67258 0
M  V30 10993 N 1004.79 -0.574828 2.84858 0
M  V30 10994 H 1004.33 0.272236 2.56157 0
M  V30 10995 H 1004.29 -1.441 2.79432 0
M  V30 10996 N 1008.06 -1.15214 1.07534 0
M  V30 10997 C 1009.29 -1.89647 0.819614 0
M  V30 10998 C 1009.7 -1.78365 -0.631072 0
M  V30 10999 O 1009.05 -1.1346 -1.44474 0
M  V30 11000 C 1009.11 -3.40573 1.1511 0
M  V30 11001 C 1008.77 -3.7564 2.60276 0
M  V30 11002 C 1009.77 -3.76507 3.58523 0
M  V30 11003 C 1007.45 -4.05891 2.95901 0
M  V30 11004 C 1009.45 -4.07133 4.9043 0
M  V30 11005 C 1007.13 -4.36182 4.28005 0
M  V30 11006 C 1008.13 -4.36785 5.25079 0
M  V30 11007 O 1007.82 -4.66348 6.54809 0
M  V30 11008 H 1007.55 -0.607836 0.295822 0
M  V30 11009 H 1010.11 -1.46895 1.43565 0
M  V30 11010 H 1008.34 -3.83734 0.478033 0
M  V30 11011 H 1010.03 -3.96299 0.877615 0
M  V30 11012 H 1010.79 -3.53233 3.32342 0
M  V30 11013 H 1006.67 -4.0458 2.20989 0
M  V30 11014 H 1010.21 -4.07519 5.66193 0
M  V30 11015 H 1006.11 -4.58924 4.53937 0
M  V30 11016 H 1006.88 -4.84105 6.59988 0
M  V30 11017 N 1009.54 -0.859717 -1.32086 0
M  V30 11018 C 1010.47 -0.323502 -2.31248 0
M  V30 11019 C 1011.45 0.580085 -1.59903 0
M  V30 11020 O 1012.64 0.499265 -1.87673 0
M  V30 11021 C 1009.77 0.484661 -3.43902 0
M  V30 11022 C 1008.72 -0.324933 -4.26765 0
M  V30 11023 C 1008.05 0.608281 -5.31229 0
M  V30 11024 C 1009.35 -1.55344 -4.98664 0
M  V30 11025 H 1011.04 -1.15209 -2.76346 0
M  V30 11026 H 1008.59 -0.555442 -1.32856 0
M  V30 11027 H 1010.54 0.870238 -4.12316 0
M  V30 11028 H 1009.27 1.34666 -2.97544 0
M  V30 11029 H 1007.92 -0.692328 -3.60003 0
M  V30 11030 H 1007.57 1.46727 -4.81124 0
M  V30 11031 H 1007.27 0.0705571 -5.87558 0
M  V30 11032 H 1008.8 0.990925 -6.02506 0
M  V30 11033 H 1010.21 -1.23987 -5.59732 0
M  V30 11034 H 1008.61 -2.02947 -5.64741 0
M  V30 11035 H 1009.68 -2.31192 -4.26237 0
M  V30 11036 N 1011.02 1.44971 -0.618145 0
M  V30 11037 C 1012.25 2.06527 -0.124165 0
M  V30 11038 C 1012.66 1.46097 1.19588 0
M  V30 11039 O 1012.02 0.57901 1.73071 0
M  V30 11040 C 1012.07 3.61498 0.0106701 0
M  V30 11041 O 1011.79 4.19675 -1.25716 0
M  V30 11042 C 1013.29 4.40061 0.534872 0
M  V30 11043 H 1010.51 0.666941 -0.0736935 0
M  V30 11044 H 1013.06 1.8605 -0.848871 0
M  V30 11045 H 1011.21 3.81282 0.685752 0
M  V30 11046 H 1011.63 5.12972 -1.09362 0
M  V30 11047 H 1013.1 5.48963 0.57827 0
M  V30 11048 H 1013.58 4.10587 1.55931 0
M  V30 11049 H 1014.18 4.25167 -0.10652 0
M  V30 11050 N 1012.5 0.357919 1.53482 0
M  V30 11051 C 1013.74 -0.23451 2.0144 0
M  V30 11052 C 1014.08 -1.49044 1.24497 0
M  V30 11053 O 1013.35 -1.91566 0.336535 0
M  V30 11054 C 1013.64 -0.534193 3.56116 0
M  V30 11055 C 1013.49 0.734834 4.43757 0
M  V30 11056 C 1014.81 -1.33793 4.1927 0
M  V30 11057 H 1011.93 -0.0837595 0.732225 0
M  V30 11058 H 1014.57 0.481297 1.83803 0
M  V30 11059 H 1012.72 -1.144 3.71275 0
M  V30 11060 H 1014.39 1.37251 4.40409 0
M  V30 11061 H 1012.63 1.35678 4.12036 0
M  V30 11062 H 1013.3 0.48021 5.49907 0
M  V30 11063 H 1015.78 -0.822158 4.07897 0
M  V30 11064 H 1014.66 -1.51636 5.27539 0
M  V30 11065 H 1014.92 -2.34423 3.74831 0
M  V30 11066 N 1013.98 -1.5736 0.0868897 0
M  V30 11067 C 1015.39 -1.81356 -0.443499 0
M  V30 11068 C 1015.74 -1.00192 -1.68689 0
M  V30 11069 O 1014.86 -0.228863 -2.15186 0
M  V30 11070 C 1015.46 -3.28941 -0.811387 0
M  V30 11071 C 1014.02 -3.53729 -1.28656 0
M  V30 11072 C 1013.16 -2.75891 -0.279153 0
M  V30 11073 H 1016.12 -1.55594 0.312427 0
M  V30 11074 H 1016.14 -3.41815 -1.6716 0
M  V30 11075 H 1015.65 -3.87987 0.0937598 0
M  V30 11076 H 1013.75 -3.00005 -2.2097 0
M  V30 11077 H 1013.86 -4.62396 -1.25406 0
M  V30 11078 H 1012.23 -2.4311 -0.759595 0
M  V30 11079 H 1013.01 -3.37682 0.618529 0
M  V30 11080 N 1015.45 0.186762 -1.56489 0
M  V30 11081 C 1016.42 1.21511 -1.94339 0
M  V30 11082 C 1017.42 1.38001 -0.82537 0
M  V30 11083 O 1018.61 1.3567 -1.09266 0
M  V30 11084 C 1015.74 2.583 -2.22472 0
M  V30 11085 H 1016.93 0.891371 -2.86347 0
M  V30 11086 H 1014.49 0.428612 -1.50308 0
M  V30 11087 H 1015.22 2.95715 -1.33129 0
M  V30 11088 H 1015.01 2.47701 -3.03951 0
M  V30 11089 H 1016.5 3.32441 -2.5273 0
M  V30 11090 N 1016.93 1.50896 0.454776 0
M  V30 11091 C 1017.88 1.67333 1.54867 0
M  V30 11092 C 1018.87 0.527576 1.52005 0
M  V30 11093 O 1020.06 0.782726 1.58753 0
M  V30 11094 C 1017.19 1.7858 2.93196 0
M  V30 11095 C 1016.27 2.98884 3.0088 0
M  V30 11096 N 1016.66 4.22326 2.78343 0
M  V30 11097 C 1014.96 2.97779 3.32029 0
M  V30 11098 C 1015.66 5.03439 2.91418 0
M  V30 11099 N 1014.64 4.37725 3.22332 0
M  V30 11100 H 1018.44 2.60453 1.36167 0
M  V30 11101 H 1015.96 1.48304 0.661797 0
M  V30 11102 H 1017.95 1.88463 3.7187 0
M  V30 11103 H 1016.61 0.866296 3.1293 0
M  V30 11104 H 1017.62 4.51557 2.53607 0
M  V30 11105 H 1014.3 2.15393 3.57648 0
M  V30 11106 H 1015.69 6.11648 2.78095 0
M  V30 11107 N 1018.41 -0.709066 1.40748 0
M  V30 11108 C 1019.36 -1.82312 1.4153 0
M  V30 11109 C 1020.33 -1.63868 0.271392 0
M  V30 11110 O 1021.51 -1.8491 0.470431 0
M  V30 11111 C 1018.65 -3.2008 1.29006 0
M  V30 11112 C 1017.77 -3.50051 2.53156 0
M  V30 11113 C 1016.9 -4.7736 2.33025 0
M  V30 11114 C 1015.94 -5.00255 3.52719 0
M  V30 11115 N 1015.08 -6.18782 3.31743 0
M  V30 11116 H 1019.92 -1.80978 2.36751 0
M  V30 11117 H 1017.45 -0.883975 1.17577 0
M  V30 11118 H 1019.41 -3.99645 1.19749 0
M  V30 11119 H 1018.04 -3.20626 0.374014 0
M  V30 11120 H 1017.09 -2.64993 2.72916 0
M  V30 11121 H 1018.41 -3.62877 3.42231 0
M  V30 11122 H 1017.56 -5.64954 2.21159 0
M  V30 11123 H 1016.3 -4.66756 1.41386 0
M  V30 11124 H 1015.3 -4.11114 3.65055 0
M  V30 11125 H 1016.53 -5.12728 4.45295 0
M  V30 11126 H 1014.47 -6.09416 2.42791 0
M  V30 11127 H 1014.39 -6.32313 4.14386 0
M  V30 11128 H 1015.66 -7.09146 3.23623 0
M  V30 11129 N 1019.89 -1.26353 -0.941956 0
M  V30 11130 C 1020.82 -1.10341 -2.05784 0
M  V30 11131 C 1021.8 -0.00881565 -1.70098 0
M  V30 11132 O 1022.99 -0.180699 -1.93357 0
M  V30 11133 C 1020.12 -0.734788 -3.39438 0
M  V30 11134 C 1019.07 -1.78103 -3.89183 0
M  V30 11135 C 1018.4 -1.26675 -5.19478 0
M  V30 11136 C 1019.7 -3.1824 -4.14151 0
M  V30 11137 H 1021.39 -2.03684 -2.19438 0
M  V30 11138 H 1018.94 -0.980698 -1.05443 0
M  V30 11139 H 1020.89 -0.609653 -4.16967 0
M  V30 11140 H 1019.61 0.234354 -3.25758 0
M  V30 11141 H 1018.27 -1.89482 -3.13835 0
M  V30 11142 H 1017.92 -0.287472 -5.02178 0
M  V30 11143 H 1017.62 -1.96612 -5.53731 0
M  V30 11144 H 1019.14 -1.15427 -5.99591 0
M  V30 11145 H 1020.56 -3.09942 -4.82296 0
M  V30 11146 H 1018.95 -3.8576 -4.59684 0
M  V30 11147 H 1020.02 -3.64354 -3.19959 0
M  V30 11148 N 1021.37 1.14642 -1.08144 0
M  V30 11149 C 1022.64 1.81774 -0.72232 0
M  V30 11150 C 1023.02 1.95587 0.794294 0
M  V30 11151 O 1022.37 1.51361 1.71178 0
M  V30 11152 C 1022.58 3.1763 -1.44611 0
M  V30 11153 C 1023.93 3.93161 -1.60343 0
M  V30 11154 O 1024.95 3.2721 -1.40755 0
M  V30 11155 O 1023.81 5.11422 -1.9264 0
M  V30 11156 H 1020.91 0.785733 -0.257978 0
M  V30 11157 H 1023.45 1.21683 -1.18285 0
M  V30 11158 H 1022.23 3.02723 -2.4794 0
M  V30 11159 H 1021.85 3.85412 -0.976892 0
M  V30 11160 N 1022.85 0.866709 1.31628 0
M  V30 11161 C 1024.07 0.48956 2.01539 0
M  V30 11162 C 1024.5 -0.909556 1.64647 0
M  V30 11163 O 1023.85 -1.59959 0.853391 0
M  V30 11164 C 1023.9 0.650176 3.5469 0
M  V30 11165 O 1023.01 -0.311908 4.11219 0
M  V30 11166 H 1022.35 0.195144 0.634677 0
M  V30 11167 H 1024.88 1.16923 1.679 0
M  V30 11168 H 1024.89 0.542236 4.04381 0
M  V30 11169 H 1023.56 1.67038 3.80882 0
M  V30 11170 H 1022.14 -0.159197 3.7256 0
M  V30 11171 N 1024.32 -1.44642 0.625825 0
M  V30 11172 C 1025.73 -1.85502 0.211175 0
M  V30 11173 C 1026.09 -1.52356 -1.2362 0
M  V30 11174 O 1025.21 -0.959051 -1.93988 0
M  V30 11175 C 1025.81 -3.36702 0.37648 0
M  V30 11176 C 1024.36 -3.76396 0.0163795 0
M  V30 11177 C 1023.51 -2.68517 0.692368 0
M  V30 11178 H 1026.46 -1.35183 0.831333 0
M  V30 11179 H 1026.48 -3.78536 -0.386106 0
M  V30 11180 H 1026 -3.60795 1.42999 0
M  V30 11181 H 1024.1 -3.57919 -1.0356 0
M  V30 11182 H 1024.21 -4.77231 0.422742 0
M  V30 11183 H 1022.57 -2.54377 0.128191 0
M  V30 11184 H 1023.36 -2.95444 1.74837 0
M  V30 11185 N 1025.8 -0.366053 -1.5329 0
M  V30 11186 C 1027.03 0.224236 -2.05681 0
M  V30 11187 C 1027.44 1.42412 -1.23952 0
M  V30 11188 O 1026.8 1.80334 -0.280309 0
M  V30 11189 C 1026.85 0.617266 -3.56191 0
M  V30 11190 O 1026.57 -0.534931 -4.34822 0
M  V30 11191 C 1028.07 1.26589 -4.24841 0
M  V30 11192 H 1025.29 0.0392928 -0.669849 0
M  V30 11193 H 1027.84 -0.52456 -1.97658 0
M  V30 11194 H 1025.99 1.31598 -3.64364 0
M  V30 11195 H 1026.41 -0.217123 -5.2405 0
M  V30 11196 H 1027.88 1.49146 -5.31469 0
M  V30 11197 H 1028.36 2.22633 -3.78591 0
M  V30 11198 H 1028.96 0.6086 -4.20923 0
M  V30 11199 N 1027.28 1.57312 -0.0952337 0
M  V30 11200 C 1028.21 2.09691 0.900274 0
M  V30 11201 C 1029.19 1.0075 1.27625 0
M  V30 11202 O 1030.37 1.28249 1.38147 0
M  V30 11203 C 1027.5 2.574 2.20142 0
M  V30 11204 C 1026.55 3.78 1.9753 0
M  V30 11205 S 1027.38 5.21577 1.21318 0
M  V30 11206 C 1028.54 5.72636 2.52663 0
M  V30 11207 H 1028.77 2.93803 0.45467 0
M  V30 11208 H 1026.3 1.53948 0.118056 0
M  V30 11209 H 1028.26 2.85546 2.94914 0
M  V30 11210 H 1026.92 1.73514 2.61824 0
M  V30 11211 H 1026.11 4.09451 2.93881 0
M  V30 11212 H 1025.72 3.50349 1.30888 0
M  V30 11213 H 1028.01 5.80911 3.48638 0
M  V30 11214 H 1028.95 6.71136 2.25791 0
M  V30 11215 H 1029.36 5.00569 2.60943 0
M  V30 11216 N 1028.76 -0.17846 1.56586 0
M  V30 11217 C 1029.98 -0.916061 1.86073 0
M  V30 11218 C 1030.41 -1.75349 0.680754 0
M  V30 11219 O 1029.77 -1.77479 -0.37028 0
M  V30 11220 C 1029.81 -1.77445 3.1392 0
M  V30 11221 O 1028.92 -2.87524 2.95641 0
M  V30 11222 H 1028.26 -0.257031 0.612234 0
M  V30 11223 H 1030.79 -0.178755 2.03818 0
M  V30 11224 H 1030.8 -2.1758 3.45142 0
M  V30 11225 H 1029.47 -1.15927 3.99417 0
M  V30 11226 H 1028.05 -2.51023 2.75757 0
M  V30 11227 N 1030.24 -1.51135 -0.446768 0
M  V30 11228 C 1031.65 -1.39101 -0.782504 0
M  V30 11229 C 1031.85 -0.46599 -1.96038 0
M  V30 11230 O 1030.91 0.0823679 -2.52366 0
M  V30 11231 C 1032.22 -2.80953 -1.07173 0
M  V30 11232 C 1033.77 -2.90038 -1.17673 0
M  V30 11233 C 1034.24 -4.32777 -1.49894 0
M  V30 11234 N 1035.73 -4.3584 -1.56837 0
M  V30 11235 C 1036.47 -5.43305 -1.83322 0
M  V30 11236 N 1035.97 -6.60945 -2.07662 0
M  V30 11237 N 1037.76 -5.30775 -1.85026 0
M  V30 11238 H 1029.91 -2.09835 0.329114 0
M  V30 11239 H 1032.17 -0.944199 0.0848054 0
M  V30 11240 H 1031.88 -3.50591 -0.279037 0
M  V30 11241 H 1031.75 -3.197 -2.00179 0
M  V30 11242 H 1034.14 -2.20603 -1.96005 0
M  V30 11243 H 1034.22 -2.54801 -0.225892 0
M  V30 11244 H 1033.86 -5.02757 -0.720924 0
M  V30 11245 H 1033.79 -4.6552 -2.46168 0
M  V30 11246 H 1036.29 -3.51023 -1.39968 0
M  V30 11247 H 1036.6 -7.38643 -2.27214 0
M  V30 11248 H 1034.94 -6.64077 -2.05003 0
M  V30 11249 H 1038.13 -4.37858 -1.65523 0
M  V30 11250 H 1038.31 -6.14609 -2.05329 0
M  V30 11251 N 1031.71 0.701592 -1.41122 0
M  V30 11252 C 1032.68 1.79733 -1.42227 0
M  V30 11253 C 1033.68 1.57708 -0.313831 0
M  V30 11254 O 1034.87 1.64492 -0.573423 0
M  V30 11255 C 1032 3.18024 -1.22775 0
M  V30 11256 H 1033.19 1.80148 -2.39764 0
M  V30 11257 H 1030.74 0.908624 -1.27176 0
M  V30 11258 H 1031.48 3.23252 -0.260552 0
M  V30 11259 H 1031.26 3.35411 -2.0308 0
M  V30 11260 H 1032.75 3.98021 -1.2637 0
M  V30 11261 N 1033.19 1.2685 0.935242 0
M  V30 11262 C 1034.61 1.04091 1.20984 0
M  V30 11263 C 1034.81 -0.230242 2.0018 0
M  V30 11264 O 1033.86 -0.93778 2.3444 0
M  V30 11265 C 1035.18 2.27586 1.96533 0
M  V30 11266 C 1036.72 2.32547 2.09501 0
M  V30 11267 C 1037.2 3.55751 2.88454 0
M  V30 11268 N 1038.69 3.56263 2.96025 0
M  V30 11269 C 1039.43 4.48262 3.57559 0
M  V30 11270 N 1038.92 5.50557 4.20546 0
M  V30 11271 N 1040.71 4.35901 3.5489 0
M  V30 11272 H 1032.87 2.08484 0.405954 0
M  V30 11273 H 1035.13 0.916548 0.242164 0
M  V30 11274 H 1034.83 3.20076 1.45753 0
M  V30 11275 H 1034.71 2.32305 2.97177 0
M  V30 11276 H 1037.1 1.40568 2.5947 0
M  V30 11277 H 1037.18 2.31836 1.08101 0
M  V30 11278 H 1036.82 4.48063 2.3917 0
M  V30 11279 H 1036.75 3.53711 3.90123 0
M  V30 11280 H 1039.24 2.82278 2.51252 0
M  V30 11281 H 1039.55 6.16935 4.65415 0
M  V30 11282 H 1037.9 5.54407 4.19115 0
M  V30 11283 H 1041.09 3.552 3.04879 0
M  V30 11284 H 1041.26 5.07792 4.02557 0
M  V30 11285 N 1034.67 -1.14067 1.0875 0
M  V30 11286 C 1035.92 -1.84535 0.814235 0
M  V30 11287 C 1036.23 -1.84044 -0.662355 0
M  V30 11288 O 1037.44 -2.50336 -1.05091 0
M  V30 11289 C 1035.89 -3.31273 1.40663 0
M  V30 11290 C 1035.5 -3.40171 2.91526 0
M  V30 11291 C 1037.25 -4.0683 1.21201 0
M  V30 11292 C 1035.15 -4.81141 3.43885 0
M  V30 11293 H 1034.08 -0.691346 0.300926 0
M  V30 11294 H 1036.73 -1.28562 1.30935 0
M  V30 11295 H 1035.12 -3.87005 0.839215 0
M  V30 11296 H 1036.29 -2.94471 3.54434 0
M  V30 11297 H 1034.61 -2.78073 3.09942 0
M  V30 11298 H 1037.2 -5.10891 1.57781 0
M  V30 11299 H 1037.55 -4.16022 0.152092 0
M  V30 11300 H 1038.08 -3.57408 1.74655 0
M  V30 11301 H 1034.82 -4.77138 4.49466 0
M  V30 11302 H 1034.34 -5.27365 2.85738 0
M  V30 11303 H 1036.02 -5.50042 3.40681 0
M  V30 11304 N 1036.15 -0.873678 -1.31166 0
M  V30 11305 C 1037.4 -0.485497 -1.96182 0
M  V30 11306 C 1037.72 0.96621 -1.69379 0
M  V30 11307 O 1036.99 1.67783 -1.01121 0
M  V30 11308 H 1035.57 -0.176547 -0.725838 0
M  V30 11309 H 1038.23 -1.11428 -1.59906 0
M  V30 11310 H 1037.33 -0.646325 -3.05334 0
M  V30 11311 N 1037.63 1.44308 -0.633487 0
M  V30 11312 C 1038.85 2.06897 -0.144347 0
M  V30 11313 C 1039.28 1.47045 1.173 0
M  V30 11314 O 1038.63 0.572806 1.72013 0
M  V30 11315 C 1038.68 3.60571 -0.0456324 0
M  V30 11316 O 1037.79 4.0015 0.997682 0
M  V30 11317 H 1037.13 0.658427 -0.0858499 0
M  V30 11318 H 1039.66 1.85142 -0.870833 0
M  V30 11319 H 1039.67 4.07745 0.144178 0
M  V30 11320 H 1038.34 4.03515 -1.0074 0
M  V30 11321 H 1036.92 3.64603 0.782252 0
M  V30 11322 N 1039.1 0.374177 1.53094 0
M  V30 11323 C 1040.38 -0.269632 1.93733 0
M  V30 11324 C 1040.76 -1.6566 1.30843 0
M  V30 11325 O 1040.11 -2.23598 0.470759 0
M  V30 11326 C 1040.32 -0.311204 3.4761 0
M  V30 11327 C 1041.67 -0.547432 4.21056 0
M  V30 11328 O 1042.69 -0.392053 3.54036 0
M  V30 11329 O 1041.55 -0.850645 5.39839 0
M  V30 11330 H 1038.64 -0.163723 0.810632 0
M  V30 11331 H 1041.19 0.427586 1.64225 0
M  V30 11332 H 1039.96 0.660897 3.85678 0
M  V30 11333 H 1039.59 -1.05397 3.83376 0
M  V30 11334 N 1040.58 -1.57259 0.103575 0
M  V30 11335 C 1041.99 -1.81816 -0.424239 0
M  V30 11336 C 1042.34 -1.01976 -1.67617 0
M  V30 11337 O 1041.47 -0.251673 -2.14932 0
M  V30 11338 C 1042.06 -3.29783 -0.776453 0
M  V30 11339 C 1040.62 -3.55074 -1.24897 0
M  V30 11340 C 1039.77 -2.76172 -0.249875 0
M  V30 11341 H 1042.72 -1.55254 0.328913 0
M  V30 11342 H 1042.74 -3.43569 -1.63526 0
M  V30 11343 H 1042.25 -3.87865 0.134906 0
M  V30 11344 H 1040.36 -3.02332 -2.17775 0
M  V30 11345 H 1040.47 -4.637 -1.20495 0
M  V30 11346 H 1038.83 -2.43902 -0.733767 0
M  V30 11347 H 1039.62 -3.37007 0.65431 0
M  V30 11348 N 1042.06 0.170153 -1.56679 0
M  V30 11349 C 1042.99 1.21285 -1.9953 0
M  V30 11350 C 1043.97 1.46104 -0.871071 0
M  V30 11351 O 1045.16 1.57419 -1.13724 0
M  V30 11352 C 1042.29 2.5515 -2.35618 0
M  V30 11353 C 1041.24 2.44898 -3.51011 0
M  V30 11354 C 1040.57 3.83263 -3.72845 0
M  V30 11355 C 1041.87 1.95271 -4.84424 0
M  V30 11356 H 1043.56 0.856646 -2.86883 0
M  V30 11357 H 1041.11 0.410634 -1.38021 0
M  V30 11358 H 1043.06 3.28299 -2.64193 0
M  V30 11359 H 1041.78 2.92561 -1.45175 0
M  V30 11360 H 1040.44 1.74203 -3.22566 0
M  V30 11361 H 1040.09 4.18069 -2.79691 0
M  V30 11362 H 1039.79 3.77272 -4.50488 0
M  V30 11363 H 1041.31 4.57996 -4.03822 0
M  V30 11364 H 1042.73 2.58195 -5.11867 0
M  V30 11365 H 1041.13 2.00225 -5.65712 0
M  V30 11366 H 1042.2 0.90709 -4.7634 0
M  V30 11367 N 1043.54 1.5137 0.438746 0
M  V30 11368 C 1044.5 1.71993 1.51496 0
M  V30 11369 C 1045.5 0.589978 1.49586 0
M  V30 11370 O 1046.69 0.857505 1.51633 0
M  V30 11371 C 1043.82 1.77508 2.91039 0
M  V30 11372 H 1045.02 2.68041 1.34514 0
M  V30 11373 H 1042.57 1.41338 0.667326 0
M  V30 11374 H 1043.3 0.832698 3.13427 0
M  V30 11375 H 1043.09 2.59627 2.9383 0
M  V30 11376 H 1044.58 1.95308 3.69113 0
M  V30 11377 N 1045.02 -0.694098 1.41492 0
M  V30 11378 C 1046.25 -1.48071 1.44078 0
M  V30 11379 C 1046.65 -1.89147 0.0448984 0
M  V30 11380 O 1046 -1.57441 -0.946464 0
M  V30 11381 C 1046.06 -2.77324 2.28761 0
M  V30 11382 C 1045.72 -2.58443 3.76904 0
M  V30 11383 C 1046.72 -2.24294 4.69029 0
M  V30 11384 C 1044.41 -2.74037 4.20962 0
M  V30 11385 C 1046.4 -2.0598 6.03201 0
M  V30 11386 C 1044.09 -2.5534 5.55198 0
M  V30 11387 C 1045.08 -2.21362 6.46133 0
M  V30 11388 O 1044.77 -2.02829 7.77892 0
M  V30 11389 H 1044.5 -0.462794 0.492745 0
M  V30 11390 H 1047.06 -0.861968 1.86438 0
M  V30 11391 H 1045.29 -3.4161 1.81217 0
M  V30 11392 H 1046.98 -3.39134 2.23031 0
M  V30 11393 H 1047.74 -2.11859 4.36281 0
M  V30 11394 H 1043.62 -2.99467 3.50486 0
M  V30 11395 H 1047.17 -1.79382 6.74142 0
M  V30 11396 H 1043.06 -2.67366 5.87525 0
M  V30 11397 H 1043.83 -2.17581 7.89051 0
M  V30 11398 N 1046.49 -1.27344 -0.928501 0
M  V30 11399 C 1047.4 -1.11812 -2.06241 0
M  V30 11400 C 1048.42 -0.048347 -1.73933 0
M  V30 11401 O 1049.6 -0.25467 -1.99783 0
M  V30 11402 C 1046.66 -0.766036 -3.38131 0
M  V30 11403 C 1045.72 -1.91659 -3.84142 0
M  V30 11404 C 1044.96 -1.58121 -5.09738 0
M  V30 11405 O 1045.18 -0.488742 -5.68302 0
M  V30 11406 O 1044.11 -2.42013 -5.51102 0
M  V30 11407 H 1047.94 -2.06967 -2.22258 0
M  V30 11408 H 1045.52 -1.06524 -1.04752 0
M  V30 11409 H 1047.41 -0.582982 -4.17348 0
M  V30 11410 H 1046.08 0.155998 -3.23324 0
M  V30 11411 H 1044.99 -2.1547 -3.05816 0
M  V30 11412 H 1046.32 -2.8188 -4.0349 0
M  V30 11413 N 1047.97 1.13488 -1.09353 0
M  V30 11414 C 1049.38 1.66299 -0.848609 0
M  V30 11415 C 1049.73 1.86044 0.623051 0
M  V30 11416 O 1048.86 1.57871 1.48005 0
M  V30 11417 C 1049.45 3.02087 -1.53391 0
M  V30 11418 C 1048.01 3.51893 -1.33598 0
M  V30 11419 C 1047.16 2.27154 -1.59048 0
M  V30 11420 H 1050.11 0.974208 -1.25279 0
M  V30 11421 H 1050.13 3.68018 -0.966587 0
M  V30 11422 H 1049.64 2.87684 -2.60498 0
M  V30 11423 H 1047.75 3.715 -0.286045 0
M  V30 11424 H 1047.86 4.32059 -2.0703 0
M  V30 11425 H 1046.22 2.33708 -1.01256 0
M  V30 11426 H 1047.01 2.15317 -2.67383 0
M  V30 11427 N 1049.45 0.880621 1.30701 0
M  V30 11428 C 1050.4 0.342397 2.28246 0
M  V30 11429 C 1051.37 -0.565023 1.56194 0
M  V30 11430 O 1052.55 -0.494377 1.84284 0
M  V30 11431 C 1049.69 -0.440859 3.42272 0
M  V30 11432 C 1048.81 0.495284 4.29151 0
M  V30 11433 C 1047.94 -0.303141 5.30334 0
M  V30 11434 C 1046.98 0.628751 6.08862 0
M  V30 11435 N 1046.12 -0.13408 7.01972 0
M  V30 11436 H 1050.96 1.17938 2.73669 0
M  V30 11437 H 1048.49 0.59296 1.34619 0
M  V30 11438 H 1050.45 -0.910854 4.07135 0
M  V30 11439 H 1049.08 -1.24245 2.97931 0
M  V30 11440 H 1048.13 1.08376 3.64635 0
M  V30 11441 H 1049.45 1.2094 4.83916 0
M  V30 11442 H 1048.6 -0.835181 6.00924 0
M  V30 11443 H 1047.34 -1.05049 4.76252 0
M  V30 11444 H 1046.34 1.17246 5.37153 0
M  V30 11445 H 1047.57 1.37512 6.65032 0
M  V30 11446 H 1045.52 -0.864046 6.50285 0
M  V30 11447 H 1045.43 0.520486 7.54206 0
M  V30 11448 H 1046.7 -0.647005 7.7681 0
M  V30 11449 N 1050.93 -1.4397 0.641131 0
M  V30 11450 C 1051.84 -2.34526 -0.058742 0
M  V30 11451 C 1052.86 -1.53194 -0.825088 0
M  V30 11452 O 1054.03 -1.85888 -0.775081 0
M  V30 11453 C 1051.1 -3.31313 -1.02139 0
M  V30 11454 C 1050.16 -4.28552 -0.253319 0
M  V30 11455 C 1049.39 -5.20715 -1.17012 0
M  V30 11456 O 1049.61 -5.17028 -2.40911 0
M  V30 11457 O 1048.55 -5.9839 -0.649039 0
M  V30 11458 H 1052.37 -2.95843 0.686329 0
M  V30 11459 H 1049.96 -1.43909 0.401316 0
M  V30 11460 H 1051.84 -3.90862 -1.57496 0
M  V30 11461 H 1050.52 -2.72516 -1.7469 0
M  V30 11462 H 1049.42 -3.72519 0.343531 0
M  V30 11463 H 1050.76 -4.90297 0.432372 0
M  V30 11464 N 1052.41 -0.382291 -1.52893 0
M  V30 11465 C 1053.68 0.259354 -1.93873 0
M  V30 11466 C 1054.06 1.64964 -1.3172 0
M  V30 11467 O 1053.41 2.23345 -0.482611 0
M  V30 11468 C 1053.62 0.292765 -3.4777 0
M  V30 11469 C 1054.97 0.525095 -4.21341 0
M  V30 11470 O 1055.99 0.373272 -3.54239 0
M  V30 11471 O 1054.85 0.822004 -5.40283 0
M  V30 11472 H 1051.95 0.159422 -0.811489 0
M  V30 11473 H 1054.49 -0.436289 -1.63996 0
M  V30 11474 H 1053.27 -0.681341 -3.85323 0
M  V30 11475 H 1052.89 1.03362 -3.8393 0
M  V30 11476 N 1053.89 1.57202 -0.111913 0
M  V30 11477 C 1054.82 2.17957 0.837683 0
M  V30 11478 C 1055.8 1.1176 1.28233 0
M  V30 11479 O 1056.98 1.39967 1.34621 0
M  V30 11480 C 1054.11 2.77333 2.09054 0
M  V30 11481 C 1053.07 3.8905 1.78393 0
M  V30 11482 C 1052.39 4.35203 3.10649 0
M  V30 11483 C 1053.69 5.11477 1.05775 0
M  V30 11484 H 1055.39 2.9756 0.331441 0
M  V30 11485 H 1052.93 1.43131 0.157979 0
M  V30 11486 H 1054.88 3.18492 2.75936 0
M  V30 11487 H 1053.61 1.95009 2.6199 0
M  V30 11488 H 1052.27 3.48456 1.13903 0
M  V30 11489 H 1051.92 3.49747 3.61506 0
M  V30 11490 H 1051.62 5.10534 2.9091 0
M  V30 11491 H 1053.14 4.79007 3.78661 0
M  V30 11492 H 1054.55 5.497 1.62798 0
M  V30 11493 H 1052.95 5.92346 0.961573 0
M  V30 11494 H 1054.02 4.84881 0.043297 0
M  V30 11495 N 1055.36 -0.161842 1.56767 0
M  V30 11496 C 1056.77 -0.723385 1.72116 0
M  V30 11497 C 1057.13 -1.82355 0.723961 0
M  V30 11498 O 1056.25 -2.16107 -0.112643 0
M  V30 11499 C 1056.85 -1.31895 3.12072 0
M  V30 11500 C 1055.4 -1.82722 3.29074 0
M  V30 11501 C 1054.55 -0.709863 2.6806 0
M  V30 11502 H 1057.5 0.0636647 1.58572 0
M  V30 11503 H 1057.52 -2.18871 3.11249 0
M  V30 11504 H 1057.04 -0.51801 3.84627 0
M  V30 11505 H 1055.14 -2.6543 2.61491 0
M  V30 11506 H 1055.25 -1.96614 4.36898 0
M  V30 11507 H 1053.61 -1.13273 2.28126 0
M  V30 11508 H 1054.4 0.0793884 3.43208 0
M  V30 11509 N 1056.84 -1.516 -0.430713 0
M  V30 11510 C 1058.09 -1.6484 -1.18134 0
M  V30 11511 C 1058.42 -0.366725 -1.90706 0
M  V30 11512 O 1057.7 0.63398 -1.83878 0
M  V30 11513 C 1057.98 -2.85617 -2.19306 0
M  V30 11514 C 1057.83 -4.23778 -1.50773 0
M  V30 11515 C 1059.15 -3.01909 -3.20217 0
M  V30 11516 H 1056.27 -0.599907 -0.428113 0
M  V30 11517 H 1058.91 -1.84102 -0.46973 0
M  V30 11518 H 1057.06 -2.69325 -2.79993 0
M  V30 11519 H 1058.73 -4.51752 -0.93371 0
M  V30 11520 H 1056.98 -4.26171 -0.809966 0
M  V30 11521 H 1057.65 -5.04291 -2.24487 0
M  V30 11522 H 1060.12 -3.16956 -2.69589 0
M  V30 11523 H 1059 -3.87968 -3.88293 0
M  V30 11524 H 1059.26 -2.1427 -3.86705 0
M  V30 11525 N 1058.32 0.686584 -1.41858 0
M  V30 11526 C 1059.57 1.44235 -1.40994 0
M  V30 11527 C 1059.88 1.95583 -0.0254979 0
M  V30 11528 O 1061.09 2.71294 0.10576 0
M  V30 11529 C 1059.54 2.6086 -2.47952 0
M  V30 11530 C 1059.15 2.16259 -3.92347 0
M  V30 11531 C 1060.9 3.38441 -2.56237 0
M  V30 11532 C 1058.8 3.29896 -4.90838 0
M  V30 11533 H 1057.73 0.54181 -0.524364 0
M  V30 11534 H 1060.38 0.744486 -1.67719 0
M  V30 11535 H 1058.77 3.32957 -2.14373 0
M  V30 11536 H 1059.94 1.51392 -4.35221 0
M  V30 11537 H 1058.25 1.51648 -3.87804 0
M  V30 11538 H 1060.85 4.23052 -3.27003 0
M  V30 11539 H 1061.19 3.84238 -1.6021 0
M  V30 11540 H 1061.73 2.73406 -2.88953 0
M  V30 11541 H 1058.47 2.89104 -5.88302 0
M  V30 11542 H 1057.99 3.93584 -4.52606 0
M  V30 11543 H 1059.67 3.95541 -5.12012 0
M  V30 11544 N 1059.8 1.27835 0.921735 0
M  V30 11545 C 1061.03 1.17352 1.704 0
M  V30 11546 C 1061.44 -0.268892 1.86875 0
M  V30 11547 O 1060.8 -1.18253 1.39005 0
M  V30 11548 C 1060.85 1.85889 3.10045 0
M  V30 11549 O 1060.57 3.24495 2.94338 0
M  V30 11550 C 1062.07 1.81607 4.04393 0
M  V30 11551 H 1059.29 0.40773 0.532914 0
M  V30 11552 H 1061.83 1.68815 1.15419 0
M  V30 11553 H 1059.99 1.38316 3.61867 0
M  V30 11554 H 1060.4 3.58705 3.82663 0
M  V30 11555 H 1061.88 2.34165 4.99871 0
M  V30 11556 H 1062.35 0.786697 4.32097 0
M  V30 11557 H 1062.96 2.28822 3.58498 0
M  V30 11558 N 1061.28 -1.12907 1.09954 0
M  V30 11559 C 1062.52 -1.83661 0.833761 0
M  V30 11560 C 1062.84 -1.84736 -0.642798 0
M  V30 11561 O 1064.04 -2.51437 -1.0243 0
M  V30 11562 C 1062.5 -3.29763 1.44168 0
M  V30 11563 C 1062.11 -3.3706 2.95118 0
M  V30 11564 C 1063.85 -4.05522 1.25509 0
M  V30 11565 C 1061.76 -4.77467 3.48969 0
M  V30 11566 H 1060.69 -0.688115 0.308242 0
M  V30 11567 H 1063.34 -1.27166 1.32291 0
M  V30 11568 H 1061.72 -3.86094 0.880215 0
M  V30 11569 H 1062.9 -2.90695 3.57537 0
M  V30 11570 H 1061.21 -2.7477 3.12874 0
M  V30 11571 H 1063.81 -5.09188 1.63191 0
M  V30 11572 H 1064.15 -4.15837 0.196208 0
M  V30 11573 H 1064.68 -3.55536 1.78435 0
M  V30 11574 H 1061.42 -4.72344 4.54501 0
M  V30 11575 H 1060.94 -5.24305 2.91315 0
M  V30 11576 H 1062.62 -5.46397 3.46495 0
M  V30 11577 N 1062.75 -0.88754 -1.30232 0
M  V30 11578 C 1064.03 -0.427249 -1.90877 0
M  V30 11579 C 1064.41 1.0922 -1.80649 0
M  V30 11580 O 1063.76 1.92866 -1.22536 0
M  V30 11581 C 1063.97 -0.928219 -3.3643 0
M  V30 11582 C 1065.32 -0.964706 -4.13496 0
M  V30 11583 O 1066.34 -0.875057 -3.45284 0
M  V30 11584 O 1065.2 -1.09754 -5.35366 0
M  V30 11585 H 1062.29 -0.131107 -0.816541 0
M  V30 11586 H 1064.84 -0.976609 -1.38782 0
M  V30 11587 H 1063.61 -1.97209 -3.37971 0
M  V30 11588 H 1063.23 -0.358169 -3.95983 0
M  V30 11589 N 1064.23 1.43628 -0.648757 0
M  V30 11590 C 1065.64 1.85142 -0.24066 0
M  V30 11591 C 1065.99 1.54304 1.21181 0
M  V30 11592 O 1065.12 0.989792 1.92437 0
M  V30 11593 C 1065.71 3.3606 -0.429999 0
M  V30 11594 C 1064.27 3.76323 -0.0762588 0
M  V30 11595 C 1063.42 2.67382 -0.734999 0
M  V30 11596 H 1066.37 1.33844 -0.852734 0
M  V30 11597 H 1066.39 3.79102 0.325836 0
M  V30 11598 H 1065.9 3.58474 -1.48721 0
M  V30 11599 H 1064.01 3.59521 0.978529 0
M  V30 11600 H 1064.12 4.76498 -0.498612 0
M  V30 11601 H 1062.48 2.54141 -0.168644 0
M  V30 11602 H 1063.27 2.92625 -1.79515 0
M  V30 11603 N 1065.71 0.390394 1.52688 0
M  V30 11604 C 1066.67 -0.432149 2.25089 0
M  V30 11605 C 1067.67 -0.989296 1.26766 0
M  V30 11606 O 1068.86 -0.871126 1.50854 0
M  V30 11607 C 1066 -1.60642 3.00678 0
M  V30 11608 H 1067.19 0.201734 2.99221 0
M  V30 11609 H 1064.74 0.142531 1.55649 0
M  V30 11610 H 1065.48 -2.2777 2.3085 0
M  V30 11611 H 1065.26 -1.21361 3.72846 0
M  V30 11612 H 1066.75 -2.18873 3.55647 0
M  V30 11613 N 1067.19 -1.57141 0.120249 0
M  V30 11614 C 1068.41 -2.00017 -0.548454 0
M  V30 11615 C 1068.84 -0.999433 -1.59352 0
M  V30 11616 O 1068.2 0.0286978 -1.81277 0
M  V30 11617 C 1068.24 -3.41766 -1.15015 0
M  V30 11618 O 1067.35 -3.44589 -2.26566 0
M  V30 11619 H 1066.69 -0.649739 -0.136875 0
M  V30 11620 H 1069.22 -2.03529 0.209092 0
M  V30 11621 H 1069.23 -3.80001 -1.48537 0
M  V30 11622 H 1067.9 -4.14117 -0.384681 0
M  V30 11623 H 1066.48 -3.18174 -1.94473 0
M  V30 11624 N 1068.67 0.153526 -1.5685 0
M  V30 11625 C 1070.08 0.714247 -1.72498 0
M  V30 11626 C 1070.43 1.81968 -0.733621 0
M  V30 11627 O 1069.55 2.16163 0.10118 0
M  V30 11628 C 1070.15 1.30238 -3.12767 0
M  V30 11629 C 1068.71 1.80974 -3.30038 0
M  V30 11630 C 1067.85 0.695638 -2.68433 0
M  V30 11631 H 1070.81 -0.0720733 -1.58536 0
M  V30 11632 H 1070.83 2.17217 -3.12405 0
M  V30 11633 H 1070.34 0.497605 -3.84897 0
M  V30 11634 H 1068.44 2.64039 -2.62895 0
M  V30 11635 H 1068.55 1.94294 -4.37934 0
M  V30 11636 H 1066.92 1.12061 -2.28723 0
M  V30 11637 H 1067.7 -0.0975885 -3.43161 0
M  V30 11638 N 1070.14 1.51827 0.422667 0
M  V30 11639 C 1071.08 1.70409 1.53275 0
M  V30 11640 C 1072.09 0.584584 1.51942 0
M  V30 11641 O 1073.28 0.859349 1.56453 0
M  V30 11642 C 1070.38 1.717 2.92185 0
M  V30 11643 C 1069.55 3.00472 3.17861 0
M  V30 11644 C 1068.61 2.93755 4.36571 0
M  V30 11645 O 1067.64 3.67682 4.3451 0
M  V30 11646 N 1068.84 2.10612 5.40946 0
M  V30 11647 H 1071.6 2.66176 1.37734 0
M  V30 11648 H 1069.16 1.49895 0.611799 0
M  V30 11649 H 1071.16 1.64756 3.69645 0
M  V30 11650 H 1069.73 0.834655 3.01251 0
M  V30 11651 H 1068.95 3.21171 2.28567 0
M  V30 11652 H 1070.23 3.85684 3.31851 0
M  V30 11653 H 1069.63 1.49954 5.45463 0
M  V30 11654 H 1068.19 2.09535 6.17202 0
M  V30 11655 N 1071.62 -0.679052 1.4222 0
M  V30 11656 C 1072.85 -1.47248 1.46058 0
M  V30 11657 C 1073.27 -1.87962 0.0720987 0
M  V30 11658 O 1072.63 -1.5572 -0.928488 0
M  V30 11659 C 1072.68 -2.70067 2.38948 0
M  V30 11660 O 1071.78 -3.68178 1.85791 0
M  V30 11661 H 1071.12 -0.442533 0.495036 0
M  V30 11662 H 1073.65 -0.833263 1.86863 0
M  V30 11663 H 1073.66 -3.18187 2.55385 0
M  V30 11664 H 1072.34 -2.39773 3.39826 0
M  V30 11665 H 1070.92 -3.2719 1.78889 0
M  V30 11666 N 1073.1 -1.28322 -0.914942 0
M  V30 11667 C 1074.51 -1.13937 -1.47903 0
M  V30 11668 C 1074.86 0.271072 -1.94318 0
M  V30 11669 O 1073.99 1.16522 -1.8235 0
M  V30 11670 C 1074.58 -2.06221 -2.68809 0
M  V30 11671 C 1073.14 -1.95903 -3.21402 0
M  V30 11672 C 1072.29 -1.98031 -1.94111 0
M  V30 11673 H 1075.24 -1.41029 -0.727772 0
M  V30 11674 H 1075.26 -1.6255 -3.44031 0
M  V30 11675 H 1074.77 -3.08866 -2.34997 0
M  V30 11676 H 1072.87 -0.962907 -3.59943 0
M  V30 11677 H 1072.99 -2.82799 -3.86732 0
M  V30 11678 H 1071.35 -1.42423 -2.11158 0
M  V30 11679 H 1072.13 -3.02354 -1.62595 0
M  V30 11680 N 1074.58 1.12322 -1.10551 0
M  V30 11681 C 1075.49 2.21678 -0.767862 0
M  V30 11682 C 1076.5 1.72404 0.235132 0
M  V30 11683 O 1077.68 2.01266 0.0735912 0
M  V30 11684 C 1074.75 3.46087 -0.205999 0
M  V30 11685 C 1073.81 4.10195 -1.26642 0
M  V30 11686 C 1073.04 5.28666 -0.731274 0
M  V30 11687 O 1073.26 5.68686 0.44189 0
M  V30 11688 O 1072.2 5.83121 -1.49176 0
M  V30 11689 H 1076.02 2.52955 -1.6807 0
M  V30 11690 H 1073.61 1.2068 -0.880728 0
M  V30 11691 H 1075.49 4.21273 0.103435 0
M  V30 11692 H 1074.16 3.16484 0.679685 0
M  V30 11693 H 1073.07 3.36784 -1.62873 0
M  V30 11694 H 1074.4 4.43957 -2.12516 0
M  V30 11695 N 1076.06 0.894434 1.2976 0
M  V30 11696 C 1077.28 0.5322 2.00455 0
M  V30 11697 C 1077.71 -0.874427 1.66539 0
M  V30 11698 O 1077.06 -1.58113 0.887129 0
M  V30 11699 C 1077.11 0.725264 3.53231 0
M  V30 11700 O 1076.22 -0.224612 4.11788 0
M  V30 11701 H 1075.56 0.208562 0.630395 0
M  V30 11702 H 1078.09 1.20458 1.65382 0
M  V30 11703 H 1078.1 0.627889 4.0314 0
M  V30 11704 H 1076.77 1.75079 3.77253 0
M  V30 11705 H 1075.35 -0.0801361 3.72814 0
M  V30 11706 N 1077.53 -1.43282 0.656365 0
M  V30 11707 C 1078.78 -2.02075 0.171293 0
M  V30 11708 C 1079.11 -1.51682 -1.21269 0
M  V30 11709 O 1078.39 -0.711243 -1.81029 0
M  V30 11710 C 1078.67 -3.59621 0.185602 0
M  V30 11711 C 1078.52 -4.20239 1.60373 0
M  V30 11712 C 1079.84 -4.37515 -0.476289 0
M  V30 11713 H 1076.96 -0.73424 0.0637185 0
M  V30 11714 H 1079.6 -1.70539 0.837648 0
M  V30 11715 H 1077.75 -3.86619 -0.381804 0
M  V30 11716 H 1079.43 -4.0426 2.22197 0
M  V30 11717 H 1077.67 -3.76769 2.15006 0
M  V30 11718 H 1078.34 -5.29333 1.56557 0
M  V30 11719 H 1080.82 -4.16099 0.00651073 0
M  V30 11720 H 1079.69 -5.47169 -0.435562 0
M  V30 11721 H 1079.95 -4.14003 -1.55093 0
M  V30 11722 N 1079.01 -0.398486 -1.52479 0
M  V30 11723 C 1080.29 0.238776 -1.94137 0
M  V30 11724 C 1080.67 1.63558 -1.33462 0
M  V30 11725 O 1080.02 2.22821 -0.506272 0
M  V30 11726 C 1080.23 0.255863 -3.48061 0
M  V30 11727 C 1081.58 0.480376 -4.21874 0
M  V30 11728 O 1082.6 0.335679 -3.54615 0
M  V30 11729 O 1081.46 0.764654 -5.41124 0
M  V30 11730 H 1078.55 0.150806 -0.813134 0
M  V30 11731 H 1081.1 -0.453659 -1.63524 0
M  V30 11732 H 1079.87 -0.722171 -3.84578 0
M  V30 11733 H 1079.49 0.99284 -3.85004 0
M  V30 11734 N 1080.49 1.57075 -0.12858 0
M  V30 11735 C 1081.42 2.18833 0.814519 0
M  V30 11736 C 1082.4 1.13114 1.2704 0
M  V30 11737 O 1083.59 1.41387 1.33129 0
M  V30 11738 C 1080.72 2.79535 2.06101 0
M  V30 11739 C 1079.67 3.9092 1.74257 0
M  V30 11740 C 1079 4.38473 3.06015 0
M  V30 11741 C 1080.3 5.1257 1.00345 0
M  V30 11742 H 1081.99 2.97895 0.299862 0
M  V30 11743 H 1079.54 1.4329 0.14279 0
M  V30 11744 H 1081.49 3.21401 2.72543 0
M  V30 11745 H 1080.21 1.97777 2.59907 0
M  V30 11746 H 1078.87 3.49645 1.102 0
M  V30 11747 H 1078.52 3.53561 3.57776 0
M  V30 11748 H 1078.22 5.13591 2.85479 0
M  V30 11749 H 1079.75 4.82997 3.7356 0
M  V30 11750 H 1081.16 5.51395 1.56959 0
M  V30 11751 H 1079.56 5.93333 0.898693 0
M  V30 11752 H 1080.63 4.84899 -0.0081335 0
M  V30 11753 N 1081.97 -0.145205 1.5693 0
M  V30 11754 C 1083.22 -0.858786 1.83719 0
M  V30 11755 C 1083.55 -1.80738 0.710452 0
M  V30 11756 O 1082.82 -1.92389 -0.285791 0
M  V30 11757 C 1083.11 -1.6317 3.2101 0
M  V30 11758 C 1082.96 -0.704472 4.44249 0
M  V30 11759 C 1084.28 -2.59377 3.55544 0
M  V30 11760 H 1081.4 -0.310757 0.66828 0
M  V30 11761 H 1084.04 -0.123918 1.89595 0
M  V30 11762 H 1082.19 -2.25816 3.16132 0
M  V30 11763 H 1083.86 -0.08887 4.61214 0
M  V30 11764 H 1082.1 -0.0141693 4.33798 0
M  V30 11765 H 1082.78 -1.28135 5.36922 0
M  V30 11766 H 1085.25 -2.06848 3.61044 0
M  V30 11767 H 1084.13 -3.10506 4.52634 0
M  V30 11768 H 1084.39 -3.40819 2.81594 0
M  V30 11769 N 1083.45 -1.52049 -0.414609 0
M  V30 11770 C 1084.4 -1.75603 -1.52533 0
M  V30 11771 C 1085.39 -0.622965 -1.57529 0
M  V30 11772 O 1086.6 -0.804886 -1.61002 0
M  V30 11773 H 1082.97 -0.555222 -0.507181 0
M  V30 11774 H 1084.94 -2.68666 -1.2985 0
M  V30 11775 C 1083.69 -1.9188 -2.89961 0
M  V30 11776 H 1083.01 -2.78483 -2.86857 0
M  V30 11777 H 1084.45 -2.12363 -3.66985 0
M  V30 11778 C 1082.91 -0.684453 -3.29874 0
M  V30 11779 O 1083.44 0.150256 -4.01419 0
M  V30 11780 N 1081.65 -0.521936 -2.85874 0
M  V30 11781 H 1081.2 -1.20229 -2.27822 0
M  V30 11782 H 1081.15 0.302655 -3.1294 0
M  V30 11783 N 1084.93 0.6715 -1.42579 0
M  V30 11784 C 1085.84 1.81435 -1.48723 0
M  V30 11785 C 1086.85 1.69895 -0.375716 0
M  V30 11786 O 1088.03 1.91388 -0.627115 0
M  V30 11787 C 1085.09 3.17599 -1.39038 0
M  V30 11788 C 1084.15 3.41071 -2.60709 0
M  V30 11789 C 1083.39 4.7074 -2.51476 0
M  V30 11790 O 1083.61 5.48868 -1.55243 0
M  V30 11791 O 1082.54 4.95528 -3.41666 0
M  V30 11792 H 1086.37 1.79206 -2.45191 0
M  V30 11793 H 1083.95 0.827666 -1.24379 0
M  V30 11794 H 1085.84 3.98847 -1.3601 0
M  V30 11795 H 1084.51 3.20458 -0.456966 0
M  V30 11796 H 1083.42 2.59659 -2.69311 0
M  V30 11797 H 1084.75 3.43045 -3.5296 0
M  V30 11798 N 1086.4 1.28806 0.908124 0
M  V30 11799 C 1087.31 1.15079 2.04436 0
M  V30 11800 C 1088.33 0.076012 1.73834 0
M  V30 11801 O 1089.51 0.286421 1.99353 0
M  V30 11802 C 1086.57 0.819733 3.3687 0
M  V30 11803 C 1085.63 1.97746 3.81045 0
M  V30 11804 C 1084.86 1.66211 5.07158 0
M  V30 11805 O 1085.09 0.579092 5.67453 0
M  V30 11806 O 1084.02 2.5075 5.47182 0
M  V30 11807 H 1087.85 2.10477 2.18937 0
M  V30 11808 H 1085.43 1.08177 1.03044 0
M  V30 11809 H 1087.31 0.649304 4.16368 0
M  V30 11810 H 1085.99 -0.10454 3.23531 0
M  V30 11811 H 1084.9 2.20308 3.02349 0
M  V30 11812 H 1086.23 2.88264 3.98955 0
M  V30 11813 N 1087.88 -1.11734 1.11145 0
M  V30 11814 C 1088.81 -2.1976 0.789152 0
M  V30 11815 C 1089.79 -1.68382 -0.241143 0
M  V30 11816 O 1090.98 -1.93914 -0.105292 0
M  V30 11817 C 1088.11 -3.46549 0.228204 0
M  V30 11818 C 1087.06 -4.11123 1.19002 0
M  V30 11819 C 1086.39 -5.32451 0.489928 0
M  V30 11820 C 1087.69 -4.56406 2.53951 0
M  V30 11821 H 1089.38 -2.46978 1.69241 0
M  V30 11822 H 1086.93 -1.18705 0.81517 0
M  V30 11823 H 1088.88 -4.21399 -0.00945908 0
M  V30 11824 H 1087.6 -3.18782 -0.71033 0
M  V30 11825 H 1086.26 -3.38264 1.41326 0
M  V30 11826 H 1085.91 -5.00953 -0.453315 0
M  V30 11827 H 1085.61 -5.76605 1.1314 0
M  V30 11828 H 1087.14 -6.10042 0.260984 0
M  V30 11829 H 1088.55 -5.22592 2.35733 0
M  V30 11830 H 1086.95 -5.11363 3.14051 0
M  V30 11831 H 1088.02 -3.7001 3.13402 0
M  V30 11832 N 1089.36 -0.901303 -1.29284 0
M  V30 11833 C 1090.31 -0.378666 -2.27672 0
M  V30 11834 C 1091.28 0.540102 -1.57074 0
M  V30 11835 O 1092.46 0.464997 -1.85047 0
M  V30 11836 C 1089.6 0.38635 -3.42931 0
M  V30 11837 C 1088.71 -0.563496 -4.28309 0
M  V30 11838 C 1087.85 0.218731 -5.30749 0
M  V30 11839 C 1086.89 -0.725536 -6.07785 0
M  V30 11840 N 1086.03 0.0223854 -7.02096 0
M  V30 11841 H 1090.87 -1.22277 -2.71758 0
M  V30 11842 H 1088.4 -0.614302 -1.33659 0
M  V30 11843 H 1090.36 0.845967 -4.08533 0
M  V30 11844 H 1088.99 1.1949 -2.9987 0
M  V30 11845 H 1088.04 -1.14163 -3.62865 0
M  V30 11846 H 1089.35 -1.28623 -4.81931 0
M  V30 11847 H 1088.51 0.739473 -6.02177 0
M  V30 11848 H 1087.25 0.97459 -4.77863 0
M  V30 11849 H 1086.25 -1.25776 -5.3522 0
M  V30 11850 H 1087.48 -1.48075 -6.6276 0
M  V30 11851 H 1085.42 0.760482 -6.51577 0
M  V30 11852 H 1085.34 -0.640408 -7.53283 0
M  V30 11853 H 1086.61 0.523339 -7.77741 0
M  V30 11854 N 1090.84 1.42931 -0.663954 0
M  V30 11855 C 1092.09 2.01284 -0.181379 0
M  V30 11856 C 1092.41 1.52708 1.21265 0
M  V30 11857 O 1091.68 0.744181 1.81215 0
M  V30 11858 H 1090.26 0.744248 -0.0640646 0
M  V30 11859 H 1092.92 1.74997 -0.858031 0
M  V30 11860 H 1092.01 3.11613 -0.174273 0
M  V30 11861 N 1092.32 0.406567 1.52266 0
M  V30 11862 C 1093.26 -0.420182 2.26943 0
M  V30 11863 C 1094.23 -1.04323 1.29251 0
M  V30 11864 O 1095.42 -1.06799 1.5811 0
M  V30 11865 C 1092.56 -1.5323 3.09216 0
M  V30 11866 C 1091.67 -0.930419 4.21862 0
M  V30 11867 C 1090.81 -2.01502 4.91498 0
M  V30 11868 C 1089.84 -1.38994 5.9611 0
M  V30 11869 N 1088.98 -2.41458 6.59274 0
M  V30 11870 H 1093.82 0.223066 2.97164 0
M  V30 11871 H 1091.36 0.121842 1.46595 0
M  V30 11872 H 1093.32 -2.18803 3.5522 0
M  V30 11873 H 1091.95 -2.14561 2.41171 0
M  V30 11874 H 1091 -0.163809 3.80047 0
M  V30 11875 H 1092.31 -0.433785 4.9691 0
M  V30 11876 H 1091.46 -2.74807 5.40894 0
M  V30 11877 H 1090.2 -2.5453 4.16012 0
M  V30 11878 H 1089.21 -0.642213 5.46036 0
M  V30 11879 H 1090.43 -0.867386 6.73538 0
M  V30 11880 H 1088.38 -2.93623 5.86619 0
M  V30 11881 H 1088.3 -1.96599 7.2999 0
M  V30 11882 H 1089.56 -3.14341 7.13309 0
M  V30 11883 N 1093.79 -1.57004 0.136909 0
M  V30 11884 C 1095.04 -1.96087 -0.517477 0
M  V30 11885 C 1095.37 -1.0213 -1.65176 0
M  V30 11886 O 1094.65 -0.0617958 -1.94402 0
M  V30 11887 C 1094.93 -3.44958 -1.03323 0
M  V30 11888 C 1094.78 -4.49691 0.0988609 0
M  V30 11889 C 1096.1 -3.96091 -1.91832 0
M  V30 11890 H 1093.22 -0.712978 -0.186632 0
M  V30 11891 H 1095.86 -1.88767 0.216095 0
M  V30 11892 H 1094.01 -3.51327 -1.65836 0
M  V30 11893 H 1095.69 -4.55409 0.734847 0
M  V30 11894 H 1093.93 -4.271 0.75947 0
M  V30 11895 H 1094.6 -5.51165 -0.303554 0
M  V30 11896 H 1097.08 -3.92139 -1.39164 0
M  V30 11897 H 1095.95 -5.00742 -2.24831 0
M  V30 11898 H 1096.21 -3.37846 -2.85153 0
M  V30 11899 N 1095.27 0.136881 -1.57004 0
M  V30 11900 C 1096.2 1.17026 -2.02057 0
M  V30 11901 C 1097.18 1.44223 -0.901866 0
M  V30 11902 O 1098.37 1.54971 -1.17037 0
M  V30 11903 C 1095.5 2.50095 -2.40977 0
M  V30 11904 C 1094.45 2.37398 -3.56127 0
M  V30 11905 C 1093.78 3.75268 -3.80891 0
M  V30 11906 C 1095.08 1.84952 -4.88457 0
M  V30 11907 H 1096.77 0.795601 -2.88636 0
M  V30 11908 H 1094.32 0.381266 -1.38861 0
M  V30 11909 H 1096.27 3.22621 -2.71097 0
M  V30 11910 H 1095 2.89416 -1.51348 0
M  V30 11911 H 1093.65 1.67322 -3.26188 0
M  V30 11912 H 1093.3 4.12043 -2.88496 0
M  V30 11913 H 1093 3.67631 -4.5839 0
M  V30 11914 H 1094.53 4.49327 -4.13446 0
M  V30 11915 H 1095.94 2.4728 -5.17229 0
M  V30 11916 H 1094.34 1.88181 -5.69832 0
M  V30 11917 H 1095.41 0.805848 -4.78157 0
M  V30 11918 N 1096.75 1.52266 0.40654 0
M  V30 11919 C 1098 1.66123 1.15097 0
M  V30 11920 C 1098.32 0.394836 1.90961 0
M  V30 11921 O 1097.59 -0.590349 1.86793 0
M  V30 11922 H 1096.17 0.612317 0.427875 0
M  V30 11923 H 1098.83 1.89318 0.463106 0
M  V30 11924 H 1097.93 2.50351 1.86361 0
M  V30 11925 N 1098.23 -0.663929 1.42933 0
M  V30 11926 C 1099.16 -1.78899 1.50058 0
M  V30 11927 C 1100.14 -1.66329 0.356164 0
M  V30 11928 O 1101.32 -1.85587 0.571944 0
M  V30 11929 C 1098.45 -3.17265 1.41281 0
M  V30 11930 C 1097.41 -3.44584 2.53861 0
M  V30 11931 C 1096.73 -4.82638 2.3014 0
M  V30 11932 C 1098.03 -3.40394 3.96143 0
M  V30 11933 H 1099.73 -1.73194 2.44222 0
M  V30 11934 H 1097.27 -0.83182 1.17545 0
M  V30 11935 H 1099.23 -3.95715 1.44872 0
M  V30 11936 H 1097.95 -3.23675 0.43616 0
M  V30 11937 H 1096.61 -2.685 2.49606 0
M  V30 11938 H 1096.26 -4.85711 1.30743 0
M  V30 11939 H 1095.96 -5.01879 3.056 0
M  V30 11940 H 1097.48 -5.63359 2.35497 0
M  V30 11941 H 1098.9 -4.08796 4.01943 0
M  V30 11942 H 1097.29 -3.7117 4.71543 0
M  V30 11943 H 1098.36 -2.38767 4.22041 0
M  V30 11944 N 1099.71 -1.29285 -0.901281 0
M  V30 11945 C 1100.93 -1.20169 -1.69039 0
M  V30 11946 C 1101.36 0.234509 -1.86632 0
M  V30 11947 O 1100.71 1.16935 -1.38549 0
M  V30 11948 C 1100.76 -1.91852 -3.05328 0
M  V30 11949 O 1099.87 -1.23448 -3.9349 0
M  V30 11950 H 1099.21 -0.416486 -0.517141 0
M  V30 11951 H 1101.74 -1.70826 -1.12603 0
M  V30 11952 H 1101.75 -2.00244 -3.5548 0
M  V30 11953 H 1100.42 -2.96313 -2.91841 0
M  V30 11954 H 1099 -1.23303 -3.51924 0
M  V30 11955 N 1101.18 1.11143 -1.11736 0
M  V30 11956 C 1102.6 1.34962 -0.851905 0
M  V30 11957 C 1102.8 1.94627 0.521797 0
M  V30 11958 O 1101.86 2.18121 1.27198 0
M  V30 11959 C 1103.17 2.27832 -1.96248 0
M  V30 11960 C 1104.72 2.41388 -1.9925 0
M  V30 11961 C 1105.19 3.37582 -3.09519 0
M  V30 11962 N 1106.68 3.45147 -3.08914 0
M  V30 11963 C 1107.42 4.19527 -3.90876 0
M  V30 11964 N 1106.91 4.96858 -4.82809 0
M  V30 11965 N 1108.71 4.15071 -3.79042 0
M  V30 11966 H 1100.86 0.707801 -2.0026 0
M  V30 11967 H 1103.12 0.374172 -0.871033 0
M  V30 11968 H 1102.83 1.91189 -2.95194 0
M  V30 11969 H 1102.7 3.28078 -1.86132 0
M  V30 11970 H 1105.09 2.77304 -1.00928 0
M  V30 11971 H 1105.17 1.40983 -2.13442 0
M  V30 11972 H 1104.81 3.02393 -4.0807 0
M  V30 11973 H 1104.74 4.37849 -2.92568 0
M  V30 11974 H 1107.23 2.89991 -2.42309 0
M  V30 11975 H 1107.55 5.5099 -5.41876 0
M  V30 11976 H 1105.89 4.96008 -4.86828 0
M  V30 11977 H 1109.08 3.53748 -3.06562 0
M  V30 11978 H 1109.26 4.72781 -4.4315 0
M  V30 11979 N 1102.66 0.908147 1.28804 0
M  V30 11980 C 1103.94 0.457561 1.90173 0
M  V30 11981 C 1104.32 -1.06333 1.82364 0
M  V30 11982 O 1103.67 -1.90892 1.25589 0
M  V30 11983 C 1103.88 0.981624 3.34911 0
M  V30 11984 C 1105.23 1.03037 4.11908 0
M  V30 11985 O 1106.25 0.929878 3.43848 0
M  V30 11986 O 1105.11 1.18257 5.33552 0
M  V30 11987 H 1102.2 0.144081 0.814352 0
M  V30 11988 H 1104.75 0.998565 1.37211 0
M  V30 11989 H 1103.52 2.02561 3.34791 0
M  V30 11990 H 1103.14 0.421122 3.95364 0
M  V30 11991 N 1104.14 -1.42577 0.671525 0
M  V30 11992 C 1105.55 -1.84736 0.270084 0
M  V30 11993 C 1105.9 -1.56212 -1.18711 0
M  V30 11994 O 1105.03 -1.02028 -1.90838 0
M  V30 11995 C 1105.62 -3.35334 0.483409 0
M  V30 11996 C 1104.18 -3.76154 0.136119 0
M  V30 11997 C 1103.33 -2.66179 0.777444 0
M  V30 11998 H 1106.28 -1.3247 0.873919 0
M  V30 11999 H 1106.3 -3.79573 -0.265483 0
M  V30 12000 H 1105.81 -3.56063 1.54405 0
M  V30 12001 H 1103.91 -3.61033 -0.921209 0
M  V30 12002 H 1104.03 -4.75645 0.574356 0
M  V30 12003 H 1102.39 -2.53841 0.209055 0
M  V30 12004 H 1103.17 -2.89732 1.84148 0
M  V30 12005 N 1105.62 -0.414636 -1.52048 0
M  V30 12006 C 1106.58 0.396285 -2.25748 0
M  V30 12007 C 1107.58 0.969003 -1.28324 0
M  V30 12008 O 1108.77 0.847016 -1.52221 0
M  V30 12009 C 1105.9 1.55838 -3.03195 0
M  V30 12010 H 1107.1 -0.249311 -2.98862 0
M  V30 12011 H 1104.65 -0.167276 -1.55402 0
M  V30 12012 H 1105.38 2.24068 -2.34444 0
M  V30 12013 H 1105.17 1.15414 -3.74729 0
M  V30 12014 H 1106.66 2.13187 -3.59084 0
M  V30 12015 N 1107.1 1.56929 -0.145233 0
M  V30 12016 C 1108.04 2.16671 0.795128 0
M  V30 12017 C 1109.01 1.09908 1.24537 0
M  V30 12018 O 1110.2 1.37941 1.31821 0
M  V30 12019 C 1107.34 2.79111 2.02956 0
M  V30 12020 C 1106.45 4.00261 1.62528 0
M  V30 12021 C 1105.59 4.50705 2.81137 0
M  V30 12022 C 1104.63 5.64324 2.37075 0
M  V30 12023 N 1103.76 6.09395 3.48687 0
M  V30 12024 H 1108.6 2.96692 0.278865 0
M  V30 12025 H 1106.14 1.4656 0.125934 0
M  V30 12026 H 1108.1 3.13456 2.7532 0
M  V30 12027 H 1106.73 2.01737 2.51996 0
M  V30 12028 H 1105.78 3.71906 0.799365 0
M  V30 12029 H 1107.09 4.8258 1.26166 0
M  V30 12030 H 1106.25 4.87096 3.61693 0
M  V30 12031 H 1104.98 3.67389 3.20744 0
M  V30 12032 H 1103.99 5.27511 1.54958 0
M  V30 12033 H 1105.21 6.49425 1.98556 0
M  V30 12034 H 1103.16 5.29014 3.87917 0
M  V30 12035 H 1103.08 6.86636 3.16333 0
M  V30 12036 H 1104.35 6.50431 4.29605 0
M  V30 12037 N 1108.58 -0.128553 1.57075 0
M  V30 12038 C 1109.82 -0.839252 1.8462 0
M  V30 12039 C 1110.15 -1.79974 0.729582 0
M  V30 12040 O 1109.43 -1.92681 -0.265369 0
M  V30 12041 C 1109.71 -1.59756 3.22723 0
M  V30 12042 C 1109.57 -0.657313 4.44971 0
M  V30 12043 C 1110.88 -2.55592 3.58275 0
M  V30 12044 H 1108 -0.303652 0.671539 0
M  V30 12045 H 1110.65 -0.103802 1.89716 0
M  V30 12046 H 1108.8 -2.22451 3.18509 0
M  V30 12047 H 1110.47 -0.0399471 4.61283 0
M  V30 12048 H 1108.71 0.0318416 4.33788 0
M  V30 12049 H 1109.38 -1.22433 5.38251 0
M  V30 12050 H 1111.86 -2.03007 3.63218 0
M  V30 12051 H 1110.73 -3.05687 4.55902 0
M  V30 12052 H 1110.99 -3.37813 2.85193 0
M  V30 12053 N 1110.05 -1.5248 -0.398459 0
M  V30 12054 C 1111.02 -1.75949 -1.46883 0
M  V30 12055 C 1112.02 -0.629431 -1.47969 0
M  V30 12056 O 1113.21 -0.897407 -1.49306 0
M  V30 12057 C 1110.34 -1.85162 -2.8623 0
M  V30 12058 H 1111.53 -2.71513 -1.2736 0
M  V30 12059 H 1109.08 -1.43058 -0.629619 0
M  V30 12060 H 1109.82 -0.915505 -3.11109 0
M  V30 12061 H 1109.6 -2.67326 -2.86844 0
M  V30 12062 H 1111.09 -2.05025 -3.63805 0
M  V30 12063 N 1111.53 0.65634 -1.43283 0
M  V30 12064 C 1112.44 1.79847 -1.50639 0
M  V30 12065 C 1113.46 1.69487 -0.393714 0
M  V30 12066 O 1114.63 1.90712 -0.647379 0
M  V30 12067 C 1111.7 3.16107 -1.42398 0
M  V30 12068 C 1110.76 3.38287 -2.64312 0
M  V30 12069 C 1109.99 4.68046 -2.56454 0
M  V30 12070 O 1110.22 5.4719 -1.61056 0
M  V30 12071 O 1109.15 4.91877 -3.46902 0
M  V30 12072 H 1112.98 1.76596 -2.47078 0
M  V30 12073 H 1110.56 0.814428 -1.25249 0
M  V30 12074 H 1112.44 3.97382 -1.40233 0
M  V30 12075 H 1111.12 3.19956 -0.490929 0
M  V30 12076 H 1110.02 2.56788 -2.72049 0
M  V30 12077 H 1111.36 3.39282 -3.56579 0
M  V30 12078 N 1113.01 1.29761 0.894412 0
M  V30 12079 C 1113.92 1.1724 2.03204 0
M  V30 12080 C 1114.94 0.0944452 1.73743 0
M  V30 12081 O 1116.11 0.307549 1.99038 0
M  V30 12082 C 1113.18 0.855416 3.35981 0
M  V30 12083 C 1112.24 2.01777 3.78926 0
M  V30 12084 C 1111.47 1.71581 5.05367 0
M  V30 12085 O 1111.69 0.639245 5.66807 0
M  V30 12086 O 1110.63 2.56539 5.44492 0
M  V30 12087 H 1114.45 2.12787 2.16692 0
M  V30 12088 H 1112.04 1.09264 1.0189 0
M  V30 12089 H 1113.92 0.693429 4.15656 0
M  V30 12090 H 1112.6 -0.0702195 3.23624 0
M  V30 12091 H 1111.5 2.23502 2.99996 0
M  V30 12092 H 1112.84 2.92479 3.95875 0
M  V30 12093 N 1114.49 -1.10549 1.12324 0
M  V30 12094 C 1115.76 -1.78968 0.789287 0
M  V30 12095 C 1116.14 -1.984 -0.721156 0
M  V30 12096 O 1115.49 -1.5761 -1.65443 0
M  V30 12097 C 1115.7 -3.12044 1.563 0
M  V30 12098 C 1117.05 -3.86939 1.74825 0
M  V30 12099 O 1118.07 -3.21761 1.52802 0
M  V30 12100 O 1116.93 -5.0392 2.11488 0
M  V30 12101 H 1114.03 -0.775617 0.286962 0
M  V30 12102 H 1116.57 -1.17209 1.2272 0
M  V30 12103 H 1115.35 -2.93313 2.59005 0
M  V30 12104 H 1114.97 -3.81521 1.11926 0
M  V30 12105 N 1115.97 -0.914965 -1.28321 0
M  V30 12106 C 1116.88 -0.409424 -2.31 0
M  V30 12107 C 1117.89 0.503526 -1.66555 0
M  V30 12108 O 1119.07 0.38942 -1.97599 0
M  V30 12109 C 1116.13 0.34123 -3.45017 0
M  V30 12110 C 1115.19 -0.605087 -4.25014 0
M  V30 12111 C 1114.43 0.109837 -5.33587 0
M  V30 12112 O 1114.65 1.33136 -5.54645 0
M  V30 12113 O 1113.58 -0.555474 -5.99331 0
M  V30 12114 H 1117.41 -1.26167 -2.76253 0
M  V30 12115 H 1114.99 -0.679831 -1.33036 0
M  V30 12116 H 1116.88 0.765132 -4.14396 0
M  V30 12117 H 1115.55 1.16929 -3.01843 0
M  V30 12118 H 1114.46 -1.07841 -3.58219 0
M  V30 12119 H 1115.79 -1.39999 -4.7187 0
M  V30 12120 N 1117.44 1.42219 -0.679077 0
M  V30 12121 C 1118.72 1.95155 -0.13188 0
M  V30 12122 C 1119.1 1.6193 1.35433 0
M  V30 12123 O 1118.45 0.917672 2.09263 0
M  V30 12124 C 1118.66 3.46635 -0.405578 0
M  V30 12125 C 1120.01 4.23359 -0.324394 0
M  V30 12126 O 1121.03 3.54578 -0.339564 0
M  V30 12127 O 1119.89 5.45831 -0.270268 0
M  V30 12128 H 1116.98 0.826983 -0.00535438 0
M  V30 12129 H 1119.53 1.52024 -0.754101 0
M  V30 12130 H 1118.3 3.6404 -1.43495 0
M  V30 12131 H 1117.92 3.96823 0.248439 0
M  V30 12132 N 1118.92 0.422693 1.51826 0
M  V30 12133 C 1120.2 -0.20786 1.94492 0
M  V30 12134 C 1120.58 -1.61414 1.36047 0
M  V30 12135 O 1119.93 -2.21987 0.541657 0
M  V30 12136 C 1120.14 -0.200457 3.48424 0
M  V30 12137 C 1121.48 -0.413199 4.22585 0
M  V30 12138 O 1122.51 -0.27922 3.55104 0
M  V30 12139 O 1121.37 -0.678469 5.42272 0
M  V30 12140 H 1118.46 -0.137851 0.81543 0
M  V30 12141 H 1121.01 0.479617 1.62781 0
M  V30 12142 H 1119.78 0.783263 3.83381 0
M  V30 12143 H 1119.4 -0.931464 3.86535 0
M  V30 12144 N 1120.4 -1.5685 0.153553 0
M  V30 12145 C 1121.68 -1.8796 -0.541328 0
M  V30 12146 C 1122.06 -1.06059 -1.82523 0
M  V30 12147 O 1121.4 -0.149295 -2.28012 0
M  V30 12148 C 1121.61 -3.39697 -0.800442 0
M  V30 12149 C 1122.96 -4.09057 -1.13832 0
M  V30 12150 O 1123.99 -3.44913 -0.889578 0
M  V30 12151 O 1122.85 -5.22347 -1.60673 0
M  V30 12152 H 1119.94 -0.779268 -0.276895 0
M  V30 12153 H 1122.49 -1.68626 0.190657 0
M  V30 12154 H 1121.26 -3.91151 0.107935 0
M  V30 12155 H 1120.88 -3.64582 -1.58638 0
M  V30 12156 N 1121.88 0.120221 -1.57141 0
M  V30 12157 C 1123.13 0.826586 -1.84423 0
M  V30 12158 C 1123.45 1.80473 -0.738553 0
M  V30 12159 O 1122.72 1.94454 0.23755 0
M  V30 12160 H 1121.3 0.308246 -0.680436 0
M  V30 12161 H 1123.96 0.107835 -1.94601 0
M  V30 12162 H 1123.05 1.37256 -2.80298 0
M  V30 12163 N 1123.36 1.52689 0.390367 0
M  V30 12164 C 1124.6 1.67335 1.13329 0
M  V30 12165 C 1124.93 0.415068 1.90531 0
M  V30 12166 O 1124.2 -0.570504 1.87409 0
M  V30 12167 H 1122.78 0.616821 0.421356 0
M  V30 12168 H 1125.44 1.89799 0.443 0
M  V30 12169 H 1124.53 2.52314 1.83696 0
M  V30 12170 N 1124.83 -0.648732 1.43629 0
M  V30 12171 C 1126.08 -1.40446 1.44768 0
M  V30 12172 C 1126.4 -1.95447 0.0773445 0
M  V30 12173 O 1127.6 -2.71479 -0.0337942 0
M  V30 12174 C 1126.06 -2.54194 2.54781 0
M  V30 12175 C 1125.67 -2.05781 3.97942 0
M  V30 12176 C 1127.41 -3.31529 2.65121 0
M  V30 12177 C 1125.32 -3.16767 4.99412 0
M  V30 12178 H 1124.25 -0.527717 0.538545 0
M  V30 12179 H 1126.9 -0.699756 1.69634 0
M  V30 12180 H 1125.28 -3.27156 2.23125 0
M  V30 12181 H 1126.45 -1.398 4.39081 0
M  V30 12182 H 1124.77 -1.41312 3.91688 0
M  V30 12183 H 1127.37 -4.14233 3.38105 0
M  V30 12184 H 1127.71 -3.79855 1.70341 0
M  V30 12185 H 1128.24 -2.65649 2.961 0
M  V30 12186 H 1124.98 -2.73404 5.9576 0
M  V30 12187 H 1124.5 -3.81445 4.62882 0
M  V30 12188 H 1126.18 -3.81827 5.22319 0
M  V30 12189 N 1126.31 -1.30234 -0.887518 0
M  V30 12190 C 1127.25 -1.10726 -1.99537 0
M  V30 12191 C 1128.22 -0.0156237 -1.62592 0
M  V30 12192 O 1129.41 -0.168687 -1.87744 0
M  V30 12193 C 1126.53 -0.688185 -3.31635 0
M  V30 12194 C 1125.58 -1.78031 -3.87566 0
M  V30 12195 S 1126.41 -3.38219 -4.15172 0
M  V30 12196 C 1127.57 -2.98208 -5.50293 0
M  V30 12197 H 1127.8 -2.04516 -2.15778 0
M  V30 12198 H 1125.34 -1.14519 -1.0356 0
M  V30 12199 H 1127.29 -0.453124 -4.07991 0
M  V30 12200 H 1125.95 0.230315 -3.13254 0
M  V30 12201 H 1125.15 -1.43931 -4.83011 0
M  V30 12202 H 1124.75 -1.96952 -3.1794 0
M  V30 12203 H 1127.04 -2.4601 -6.31257 0
M  V30 12204 H 1127.98 -3.92551 -5.89329 0
M  V30 12205 H 1128.39 -2.36149 -5.12732 0
M  V30 12206 N 1127.79 1.09952 -1.12909 0
M  V30 12207 C 1128.72 2.15689 -0.745217 0
M  V30 12208 C 1129.7 1.60409 0.266007 0
M  V30 12209 O 1130.89 1.8783 0.158783 0
M  V30 12210 C 1128.01 3.38541 -0.103846 0
M  V30 12211 C 1127.06 4.12529 -1.0827 0
M  V30 12212 S 1127.89 4.67442 -2.61262 0
M  V30 12213 C 1129.05 5.936 -1.9847 0
M  V30 12214 H 1129.28 2.47918 -1.64086 0
M  V30 12215 H 1126.81 1.21817 -0.948682 0
M  V30 12216 H 1128.77 4.09677 0.259816 0
M  V30 12217 H 1127.43 3.04541 0.768982 0
M  V30 12218 H 1126.63 5.00632 -0.581653 0
M  V30 12219 H 1126.23 3.47228 -1.38955 0
M  V30 12220 H 1128.52 6.64308 -1.33048 0
M  V30 12221 H 1129.46 6.48374 -2.84634 0
M  V30 12222 H 1129.87 5.45864 -1.43848 0
M  V30 12223 N 1129.27 0.921757 1.27833 0
M  V30 12224 C 1130.68 0.621102 1.47019 0
M  V30 12225 C 1130.88 -0.831338 1.83551 0
M  V30 12226 O 1129.94 -1.60974 1.94534 0
M  V30 12227 C 1131.25 1.56588 2.56712 0
M  V30 12228 C 1132.8 1.57346 2.70576 0
M  V30 12229 C 1133.28 2.50505 3.8342 0
M  V30 12230 N 1134.77 2.48678 3.90786 0
M  V30 12231 C 1135.5 3.17454 4.77505 0
M  V30 12232 N 1135 3.95588 5.68755 0
M  V30 12233 N 1136.79 3.06501 4.71183 0
M  V30 12234 H 1128.94 1.86085 1.02403 0
M  V30 12235 H 1131.21 0.798595 0.510833 0
M  V30 12236 H 1130.91 2.60175 2.36647 0
M  V30 12237 H 1130.79 1.30305 3.53978 0
M  V30 12238 H 1133.17 0.544919 2.90025 0
M  V30 12239 H 1133.25 1.87675 1.73815 0
M  V30 12240 H 1132.9 3.53466 3.64725 0
M  V30 12241 H 1132.83 2.17474 4.79596 0
M  V30 12242 H 1135.32 1.91928 3.25534 0
M  V30 12243 H 1135.63 4.45066 6.31772 0
M  V30 12244 H 1133.98 3.99692 5.6857 0
M  V30 12245 H 1137.17 2.44958 3.9889 0
M  V30 12246 H 1137.34 3.60372 5.3855 0
M  V30 12247 N 1130.75 -1.41857 0.686609 0
M  V30 12248 C 1131.97 -2.06219 0.221037 0
M  V30 12249 C 1132.4 -1.51298 -1.11762 0
M  V30 12250 O 1131.75 -0.636253 -1.69769 0
M  V30 12251 C 1131.8 -3.60153 0.179425 0
M  V30 12252 O 1130.91 -4.03577 -0.848481 0
M  V30 12253 H 1130.25 -0.654787 0.110228 0
M  V30 12254 H 1132.78 -1.81783 0.938948 0
M  V30 12255 H 1132.79 -4.07999 0.00725332 0
M  V30 12256 H 1131.46 -3.99498 1.15647 0
M  V30 12257 H 1130.04 -3.67255 -0.646393 0
M  V30 12258 N 1132.22 -0.430739 -1.51599 0
M  V30 12259 C 1133.17 0.384024 -2.27583 0
M  V30 12260 C 1134.14 1.02254 -1.30895 0
M  V30 12261 O 1135.33 1.0427 -1.59789 0
M  V30 12262 C 1132.47 1.48291 -3.11615 0
M  V30 12263 C 1131.58 0.863187 -4.23288 0
M  V30 12264 C 1130.71 1.93657 -4.94642 0
M  V30 12265 C 1129.75 1.29493 -5.98246 0
M  V30 12266 N 1128.89 2.30939 -6.63032 0
M  V30 12267 H 1133.73 -0.270314 -2.96771 0
M  V30 12268 H 1131.27 -0.145148 -1.46382 0
M  V30 12269 H 1133.23 2.13124 -3.58656 0
M  V30 12270 H 1131.86 2.10697 -2.44554 0
M  V30 12271 H 1130.91 0.103326 -3.8026 0
M  V30 12272 H 1132.22 0.354676 -4.97537 0
M  V30 12273 H 1131.37 2.66167 -5.45197 0
M  V30 12274 H 1130.11 2.4788 -4.20008 0
M  V30 12275 H 1129.12 0.555262 -5.46989 0
M  V30 12276 H 1130.34 0.760122 -6.74833 0
M  V30 12277 H 1128.29 2.84254 -5.91216 0
M  V30 12278 H 1128.21 1.84961 -7.33025 0
M  V30 12279 H 1129.47 3.02953 -7.1822 0
M  V30 12280 N 1133.7 1.56767 -0.161869 0
M  V30 12281 C 1134.61 2.21083 0.784814 0
M  V30 12282 C 1135.63 1.19959 1.26039 0
M  V30 12283 O 1136.8 1.52588 1.31449 0
M  V30 12284 C 1133.87 2.83153 2.00063 0
M  V30 12285 C 1132.93 3.9945 1.57285 0
M  V30 12286 C 1132.16 4.5855 2.7307 0
M  V30 12287 O 1132.39 4.16534 3.89686 0
M  V30 12288 O 1131.32 5.48575 2.47688 0
M  V30 12289 H 1135.15 3.02522 0.267243 0
M  V30 12290 H 1132.73 1.49255 0.0658783 0
M  V30 12291 H 1134.61 3.22546 2.71186 0
M  V30 12292 H 1133.29 2.04718 2.50744 0
M  V30 12293 H 1132.2 3.64745 0.831393 0
M  V30 12294 H 1133.53 4.7945 1.11304 0
M  V30 12295 N 1135.18 -0.111886 1.57202 0
M  V30 12296 C 1136.41 -0.832407 1.89416 0
M  V30 12297 C 1136.82 -1.73096 0.753861 0
M  V30 12298 O 1136.18 -1.80416 -0.274992 0
M  V30 12299 C 1136.23 -1.65988 3.21139 0
M  V30 12300 O 1135.95 -0.797485 4.3078 0
M  V30 12301 C 1137.45 -2.48493 3.67105 0
M  V30 12302 H 1134.67 -0.238919 0.627024 0
M  V30 12303 H 1137.22 -0.0941456 2.04283 0
M  V30 12304 H 1135.37 -2.35082 3.07921 0
M  V30 12305 H 1135.79 -1.36892 5.06321 0
M  V30 12306 H 1137.26 -3.02072 4.62014 0
M  V30 12307 H 1137.74 -3.26182 2.94112 0
M  V30 12308 H 1138.34 -1.84628 3.83135 0
M  V30 12309 N 1136.66 -1.52894 -0.382264 0
M  V30 12310 C 1137.88 -1.72453 -1.15216 0
M  V30 12311 C 1138.31 -0.444925 -1.82762 0
M  V30 12312 O 1137.67 0.599825 -1.7109 0
M  V30 12313 C 1137.71 -2.87939 -2.17079 0
M  V30 12314 O 1136.82 -2.55383 -3.23811 0
M  V30 12315 H 1136.16 -0.57324 -0.335099 0
M  V30 12316 H 1138.69 -1.99713 -0.444495 0
M  V30 12317 H 1138.7 -3.13628 -2.60963 0
M  V30 12318 H 1137.37 -3.80765 -1.67305 0
M  V30 12319 H 1135.95 -2.40457 -2.85018 0
M  V30 12320 N 1138.14 0.641106 -1.43971 0
M  V30 12321 C 1139.36 1.43324 -1.4991 0
M  V30 12322 C 1139.79 1.87705 -0.121908 0
M  V30 12323 O 1139.15 1.58127 0.886875 0
M  V30 12324 C 1139.19 2.63637 -2.46025 0
M  V30 12325 O 1138.3 3.63123 -1.95488 0
M  V30 12326 H 1137.64 0.429252 -0.506595 0
M  V30 12327 H 1140.17 0.783427 -1.89007 0
M  V30 12328 H 1140.18 3.11304 -2.63731 0
M  V30 12329 H 1138.85 2.30678 -3.46064 0
M  V30 12330 H 1137.43 3.22332 -1.87501 0
M  V30 12331 N 1139.62 1.30703 0.880598 0
M  V30 12332 C 1141.03 1.17818 1.4483 0
M  V30 12333 C 1141.38 -0.219456 1.94969 0
M  V30 12334 O 1140.5 -1.11646 1.85375 0
M  V30 12335 C 1141.1 2.13275 2.63247 0
M  V30 12336 C 1139.66 2.04356 3.16094 0
M  V30 12337 C 1138.8 2.03108 1.88792 0
M  V30 12338 H 1141.75 1.42909 0.690125 0
M  V30 12339 H 1141.78 1.71615 3.39601 0
M  V30 12340 H 1141.29 3.14988 2.26725 0
M  V30 12341 H 1139.39 1.058 3.57263 0
M  V30 12342 H 1139.5 2.92953 3.79098 0
M  V30 12343 H 1137.87 1.47971 2.07308 0
M  V30 12344 H 1138.65 3.06558 1.54521 0
M  V30 12345 N 1141.09 -1.09351 1.1349 0
M  V30 12346 C 1142.34 -1.81185 0.89535 0
M  V30 12347 C 1142.66 -1.86173 -0.580048 0
M  V30 12348 O 1141.93 -1.34784 -1.42162 0
M  V30 12349 H 1140.51 -0.671011 0.328257 0
M  V30 12350 H 1143.17 -1.32255 1.43159 0
M  V30 12351 H 1142.27 -2.84339 1.28676 0
M  V30 12352 N 1142.57 -0.928524 -1.27343 0
M  V30 12353 C 1143.8 -0.585734 -1.98436 0
M  V30 12354 C 1144.21 0.83644 -1.69261 0
M  V30 12355 O 1143.57 1.55603 -0.953626 0
M  V30 12356 C 1143.62 -0.803092 -3.52467 0
M  V30 12357 O 1143.34 -2.16932 -3.80621 0
M  V30 12358 C 1144.84 -0.469127 -4.40811 0
M  V30 12359 H 1142.06 -0.221887 -0.633251 0
M  V30 12360 H 1144.61 -1.24577 -1.62175 0
M  V30 12361 H 1142.76 -0.189846 -3.86935 0
M  V30 12362 H 1143.18 -2.21992 -4.75205 0
M  V30 12363 H 1144.65 -0.671906 -5.47895 0
M  V30 12364 H 1145.13 0.595365 -4.35146 0
M  V30 12365 H 1145.73 -1.06055 -4.11865 0
M  V30 12366 N 1144.05 1.41491 -0.694123 0
M  V30 12367 C 1145.33 1.95004 -0.152571 0
M  V30 12368 C 1145.71 1.63357 1.33707 0
M  V30 12369 O 1145.05 0.939815 2.08278 0
M  V30 12370 C 1145.26 3.46186 -0.44232 0
M  V30 12371 C 1146.61 4.22991 -0.369279 0
M  V30 12372 O 1147.64 3.54198 -0.377152 0
M  V30 12373 O 1146.5 5.45514 -0.328145 0
M  V30 12374 H 1143.59 0.826879 -0.0141253 0
M  V30 12375 H 1146.14 1.51216 -0.770183 0
M  V30 12376 H 1144.91 3.62497 -1.47348 0
M  V30 12377 H 1144.53 3.97064 0.206337 0
M  V30 12378 N 1145.53 0.438773 1.51369 0
M  V30 12379 C 1146.8 -0.18722 1.94702 0
M  V30 12380 C 1147.18 -1.59962 1.37752 0
M  V30 12381 O 1146.53 -2.214 0.565171 0
M  V30 12382 C 1146.74 -0.163491 3.48617 0
M  V30 12383 C 1148.09 -0.368355 4.22999 0
M  V30 12384 O 1149.11 -0.241541 3.5538 0
M  V30 12385 O 1147.97 -0.620916 5.42961 0
M  V30 12386 H 1145.07 -0.129194 0.816846 0
M  V30 12387 H 1147.61 0.496855 1.62263 0
M  V30 12388 H 1146.39 0.823882 3.82528 0
M  V30 12389 H 1146.01 -0.890414 3.87501 0
M  V30 12390 N 1147.01 -1.56678 0.170181 0
M  V30 12391 C 1148.25 -1.9714 -0.475767 0
M  V30 12392 C 1148.58 -1.05611 -1.62972 0
M  V30 12393 O 1147.86 -0.103017 -1.94227 0
M  V30 12394 C 1148.14 -3.47072 -0.959828 0
M  V30 12395 C 1148 -4.4938 0.194225 0
M  V30 12396 C 1149.31 -4.00071 -1.83387 0
M  V30 12397 H 1146.43 -0.716776 -0.171466 0
M  V30 12398 H 1149.08 -1.88266 0.256086 0
M  V30 12399 H 1147.23 -3.54766 -1.58346 0
M  V30 12400 H 1148.9 -4.53748 0.83128 0
M  V30 12401 H 1147.14 -4.25393 0.849893 0
M  V30 12402 H 1147.81 -5.51685 -0.186575 0
M  V30 12403 H 1150.29 -3.95002 -1.30815 0
M  V30 12404 H 1149.16 -5.05398 -2.14159 0
M  V30 12405 H 1149.42 -3.43819 -2.77923 0
M  V30 12406 N 1148.48 0.103547 -1.57259 0
M  V30 12407 C 1149.73 0.808576 -1.85656 0
M  V30 12408 C 1150.06 1.79143 -0.757502 0
M  V30 12409 O 1149.31 1.941 0.249723 0
M  V30 12410 C 1149.61 1.57946 -3.20605 0
M  V30 12411 C 1149.28 0.739502 -4.44795 0
M  V30 12412 C 1147.94 0.507921 -4.78512 0
M  V30 12413 C 1150.29 0.155034 -5.20969 0
M  V30 12414 C 1147.62 -0.318129 -5.85837 0
M  V30 12415 C 1149.97 -0.658292 -6.29166 0
M  V30 12416 C 1148.64 -0.900044 -6.61404 0
M  V30 12417 H 1147.91 0.295879 -0.679365 0
M  V30 12418 H 1150.55 0.0703604 -1.91371 0
M  V30 12419 H 1148.86 2.38902 -3.10537 0
M  V30 12420 H 1150.56 2.12921 -3.39803 0
M  V30 12421 H 1147.15 0.930103 -4.18386 0
M  V30 12422 H 1151.33 0.32113 -4.9526 0
M  V30 12423 H 1146.59 -0.514495 -6.09231 0
M  V30 12424 H 1150.76 -1.11809 -6.87366 0
M  V30 12425 H 1148.39 -1.54194 -7.44398 0
M  V30 12426 N 1149.96 1.53094 0.37415 0
M  V30 12427 C 1151.19 1.72758 1.13852 0
M  V30 12428 C 1151.6 0.452638 1.83294 0
M  V30 12429 O 1150.96 -0.573906 1.73241 0
M  V30 12430 C 1151.01 2.88724 2.17534 0
M  V30 12431 O 1150.73 4.11284 1.5092 0
M  V30 12432 C 1152.23 3.2019 3.06584 0
M  V30 12433 H 1149.45 0.578028 0.340771 0
M  V30 12434 H 1152 1.99805 0.435683 0
M  V30 12435 H 1150.15 2.64096 2.83429 0
M  V30 12436 H 1150.57 4.76162 2.19932 0
M  V30 12437 H 1152.04 4.04759 3.75332 0
M  V30 12438 H 1152.52 2.35193 3.70919 0
M  V30 12439 H 1153.12 3.46712 2.46315 0
M  V30 12440 N 1151.44 -0.633461 1.44309 0
M  V30 12441 C 1152.85 -1.21504 1.41752 0
M  V30 12442 C 1153.2 -1.95758 0.131667 0
M  V30 12443 O 1152.33 -2.02311 -0.768072 0
M  V30 12444 C 1152.92 -2.21005 2.56792 0
M  V30 12445 C 1151.48 -2.74596 2.57438 0
M  V30 12446 C 1150.63 -1.49555 2.33513 0
M  V30 12447 H 1153.58 -0.424277 1.52923 0
M  V30 12448 H 1153.6 -3.03563 2.29412 0
M  V30 12449 H 1153.11 -1.66934 3.50364 0
M  V30 12450 H 1151.21 -3.32676 1.67801 0
M  V30 12451 H 1151.33 -3.20794 3.55849 0
M  V30 12452 H 1149.69 -1.77605 1.82561 0
M  V30 12453 H 1150.47 -0.973899 3.29196 0
M  V30 12454 N 1152.92 -1.31168 -0.873655 0
M  V30 12455 C 1153.88 -1.18471 -1.96207 0
M  V30 12456 C 1154.88 -0.112814 -1.60404 0
M  V30 12457 O 1156.07 -0.3618 -1.70401 0
M  V30 12458 C 1153.2 -0.817662 -3.30949 0
M  V30 12459 H 1154.4 -2.1518 -2.08896 0
M  V30 12460 H 1151.95 -1.14727 -1.06149 0
M  V30 12461 H 1152.68 0.148428 -3.2396 0
M  V30 12462 H 1152.47 -1.59244 -3.58307 0
M  V30 12463 H 1153.96 -0.75262 -4.10762 0
M  V30 12464 N 1154.4 1.08748 -1.14068 0
M  V30 12465 C 1155.81 1.62551 -0.918379 0
M  V30 12466 C 1156.16 1.8852 0.543583 0
M  V30 12467 O 1155.28 1.64007 1.41176 0
M  V30 12468 C 1155.88 2.95309 -1.66066 0
M  V30 12469 C 1154.44 3.4591 -1.48403 0
M  V30 12470 C 1153.58 2.20204 -1.6854 0
M  V30 12471 H 1156.54 0.920196 -1.29298 0
M  V30 12472 H 1156.56 3.63587 -1.12181 0
M  V30 12473 H 1156.07 2.76377 -2.72465 0
M  V30 12474 H 1154.17 3.69953 -0.443353 0
M  V30 12475 H 1154.28 4.2289 -2.25169 0
M  V30 12476 H 1152.65 2.29203 -1.11077 0
M  V30 12477 H 1153.43 2.03783 -2.76274 0
M  V30 12478 N 1155.87 0.935264 1.26849 0
M  V30 12479 C 1157.1 0.595704 1.98661 0
M  V30 12480 C 1157.52 -0.821001 1.69237 0
M  V30 12481 O 1156.88 -1.55211 0.936982 0
M  V30 12482 C 1156.93 0.837275 3.50745 0
M  V30 12483 O 1156.03 -0.0934914 4.12294 0
M  V30 12484 H 1155.38 0.228512 0.623441 0
M  V30 12485 H 1157.91 1.25658 1.61466 0
M  V30 12486 H 1157.92 0.755827 4.00938 0
M  V30 12487 H 1156.59 1.86993 3.71492 0
M  V30 12488 H 1155.17 0.0385124 3.7288 0
M  V30 12489 N 1157.35 -1.41121 0.701616 0
M  V30 12490 C 1158.63 -1.9492 0.162911 0
M  V30 12491 C 1159.01 -1.64064 -1.32839 0
M  V30 12492 O 1158.36 -0.950848 -2.07777 0
M  V30 12493 C 1158.57 -3.45946 0.460673 0
M  V30 12494 C 1159.92 -4.22789 0.391706 0
M  V30 12495 O 1160.94 -3.53993 0.395931 0
M  V30 12496 O 1159.8 -5.45332 0.357071 0
M  V30 12497 H 1156.89 -0.826793 0.0185103 0
M  V30 12498 H 1159.44 -1.50805 0.778192 0
M  V30 12499 H 1158.21 -3.61711 1.49269 0
M  V30 12500 H 1157.83 -3.97168 -0.185277 0
M  V30 12501 N 1158.83 -0.446794 -1.51134 0
M  V30 12502 C 1160.06 0.117242 -2.07068 0
M  V30 12503 C 1160.48 1.34877 -1.3111 0
M  V30 12504 O 1159.84 1.77856 -0.35172 0
M  V30 12505 C 1159.89 0.408616 -3.58277 0
M  V30 12506 O 1158.99 1.49345 -3.84408 0
M  V30 12507 H 1158.33 -0.00228458 -0.663996 0
M  V30 12508 H 1160.86 -0.63085 -1.94632 0
M  V30 12509 H 1160.87 0.656298 -4.02687 0
M  V30 12510 H 1159.55 -0.491444 -4.12986 0
M  V30 12511 H 1158.12 1.23499 -3.51856 0
M  V30 12512 N 1160.31 1.56586 -0.178487 0
M  V30 12513 C 1161.72 1.83633 0.337009 0
M  V30 12514 C 1162.07 1.09857 1.6256 0
M  V30 12515 O 1161.2 0.353933 2.13486 0
M  V30 12516 C 1161.79 3.33112 0.618225 0
M  V30 12517 C 1160.35 3.60629 1.07814 0
M  V30 12518 C 1159.5 2.7705 0.117825 0
M  V30 12519 H 1162.45 1.53508 -0.402612 0
M  V30 12520 H 1162.47 3.5098 1.46947 0
M  V30 12521 H 1161.98 3.8678 -0.319808 0
M  V30 12522 H 1160.08 3.12378 2.03103 0
M  V30 12523 H 1160.19 4.68921 0.982339 0
M  V30 12524 H 1158.56 2.47125 0.616563 0
M  V30 12525 H 1159.34 3.33501 -0.814356 0
M  V30 12526 N 1161.79 -0.095206 1.57312 0
M  V30 12527 C 1163.01 -0.81614 1.90667 0
M  V30 12528 C 1163.44 -1.71494 0.772746 0
M  V30 12529 O 1162.79 -1.79192 -0.275682 0
M  V30 12530 C 1162.84 -1.60555 3.22885 0
M  V30 12531 O 1161.95 -2.71448 3.10467 0
M  V30 12532 H 1161.29 -0.224217 0.624998 0
M  V30 12533 H 1163.82 -0.070464 2.04479 0
M  V30 12534 H 1163.83 -1.98979 3.5619 0
M  V30 12535 H 1162.5 -0.945918 4.05 0
M  V30 12536 H 1161.08 -2.36053 2.88675 0
M  V30 12537 N 1163.26 -1.53291 -0.366026 0
M  V30 12538 C 1164.49 -1.73665 -1.13381 0
M  V30 12539 C 1164.91 -0.464284 -1.8228 0
M  V30 12540 O 1164.27 0.581645 -1.71717 0
M  V30 12541 C 1164.32 -2.90225 -2.14013 0
M  V30 12542 O 1163.42 -2.58803 -3.21084 0
M  V30 12543 H 1162.77 -0.576762 -0.329 0
M  V30 12544 H 1165.3 -2.00174 -0.423287 0
M  V30 12545 H 1165.31 -3.16378 -2.57622 0
M  V30 12546 H 1163.98 -3.82518 -1.63257 0
M  V30 12547 H 1162.56 -2.43466 -2.82451 0
M  V30 12548 N 1164.74 0.6258 -1.44643 0
M  V30 12549 C 1165.67 1.75086 -1.47911 0
M  V30 12550 C 1166.69 1.58496 -0.37188 0
M  V30 12551 O 1167.88 1.66712 -0.637925 0
M  V30 12552 C 1164.98 3.12874 -1.30243 0
M  V30 12553 C 1164.15 3.55873 -2.54309 0
M  V30 12554 C 1163.21 4.72558 -2.31464 0
M  V30 12555 O 1162.23 4.80599 -3.04981 0
M  V30 12556 N 1163.44 5.64617 -1.34862 0
M  V30 12557 H 1166.2 1.72751 -2.44902 0
M  V30 12558 H 1163.76 0.810531 -1.4015 0
M  V30 12559 H 1165.75 3.88663 -1.12798 0
M  V30 12560 H 1164.32 3.0982 -0.415966 0
M  V30 12561 H 1163.54 2.70237 -2.86994 0
M  V30 12562 H 1164.83 3.81355 -3.36817 0
M  V30 12563 H 1164.23 5.60819 -0.741542 0
M  V30 12564 H 1162.79 6.40013 -1.23394 0
M  V30 12565 N 1166.22 1.31629 0.866686 0
M  V30 12566 C 1167.64 1.10358 1.15296 0
M  V30 12567 C 1167.84 -0.123807 2.01119 0
M  V30 12568 O 1166.89 -0.81219 2.39081 0
M  V30 12569 C 1168.21 2.37684 1.84193 0
M  V30 12570 C 1169.75 2.43326 1.9688 0
M  V30 12571 C 1170.23 3.70541 2.69191 0
M  V30 12572 N 1171.72 3.71454 2.76724 0
M  V30 12573 C 1172.45 4.66585 3.33295 0
M  V30 12574 N 1171.95 5.72075 3.90771 0
M  V30 12575 N 1173.74 4.541 3.31284 0
M  V30 12576 H 1165.89 2.10343 0.29487 0
M  V30 12577 H 1168.16 0.928096 0.193239 0
M  V30 12578 H 1167.86 3.27352 1.28582 0
M  V30 12579 H 1167.74 2.47731 2.84445 0
M  V30 12580 H 1170.12 1.54124 2.51654 0
M  V30 12581 H 1170.21 2.3724 0.956596 0
M  V30 12582 H 1169.85 4.60111 2.15083 0
M  V30 12583 H 1169.78 3.73894 3.70825 0
M  V30 12584 H 1172.27 2.952 2.35936 0
M  V30 12585 H 1172.58 6.40738 4.32058 0
M  V30 12586 H 1170.93 5.75844 3.89138 0
M  V30 12587 H 1174.12 3.70861 2.85622 0
M  V30 12588 H 1174.29 5.28416 3.75074 0
M  V30 12589 N 1167.7 -1.08142 1.14644 0
M  V30 12590 C 1168.95 -1.79959 0.910908 0
M  V30 12591 C 1169.26 -1.87296 -0.563866 0
M  V30 12592 O 1170.47 -2.55555 -0.916735 0
M  V30 12593 C 1168.92 -3.23351 1.58025 0
M  V30 12594 C 1168.53 -3.2424 3.09148 0
M  V30 12595 C 1170.28 -3.99834 1.42595 0
M  V30 12596 C 1168.18 -4.62236 3.68906 0
M  V30 12597 H 1167.11 -0.674423 0.33715 0
M  V30 12598 H 1169.76 -1.21441 1.37566 0
M  V30 12599 H 1168.15 -3.82013 1.04318 0
M  V30 12600 H 1169.32 -2.75269 3.69545 0
M  V30 12601 H 1167.63 -2.61253 3.24246 0
M  V30 12602 H 1170.23 -5.01809 1.8464 0
M  V30 12603 H 1170.57 -4.14631 0.372402 0
M  V30 12604 H 1171.11 -3.47648 1.93354 0
M  V30 12605 H 1167.85 -4.52642 4.74126 0
M  V30 12606 H 1167.37 -5.11477 3.1329 0
M  V30 12607 H 1169.05 -5.3121 3.69358 0
M  V30 12608 N 1169.18 -0.941978 -1.26351 0
M  V30 12609 C 1170.11 -0.409504 -2.25512 0
M  V30 12610 C 1171.12 0.467665 -1.55938 0
M  V30 12611 O 1172.31 0.277982 -1.76322 0
M  V30 12612 C 1169.41 0.430487 -3.36155 0
M  V30 12613 C 1168.58 -0.430714 -4.35274 0
M  V30 12614 C 1167.64 0.348976 -5.25042 0
M  V30 12615 O 1166.67 -0.24827 -5.68658 0
M  V30 12616 N 1167.87 1.64531 -5.56695 0
M  V30 12617 H 1170.64 -1.26196 -2.71836 0
M  V30 12618 H 1168.2 -0.810947 -1.40126 0
M  V30 12619 H 1170.19 0.959501 -3.93161 0
M  V30 12620 H 1168.76 1.18375 -2.8932 0
M  V30 12621 H 1167.98 -1.14093 -3.77328 0
M  V30 12622 H 1169.27 -1.01896 -4.98492 0
M  V30 12623 H 1168.67 2.15266 -5.23142 0
M  V30 12624 H 1167.22 2.12055 -6.16341 0
M  V30 12625 N 1170.66 1.40747 -0.709091 0
M  V30 12626 C 1172.07 1.54961 -0.381989 0
M  V30 12627 C 1172.27 1.68181 1.10985 0
M  V30 12628 O 1171.33 1.66776 1.89584 0
M  V30 12629 C 1172.64 2.78156 -1.14236 0
M  V30 12630 C 1174.19 2.91967 -1.12803 0
M  V30 12631 C 1174.66 4.18066 -1.87042 0
M  V30 12632 N 1176.15 4.25052 -1.84078 0
M  V30 12633 C 1176.89 5.21514 -2.38349 0
M  V30 12634 N 1176.39 6.23924 -3.01149 0
M  V30 12635 N 1178.18 5.13548 -2.28528 0
M  V30 12636 H 1170.33 1.30412 -1.6765 0
M  V30 12637 H 1172.59 0.630147 -0.70825 0
M  V30 12638 H 1172.3 2.74643 -2.19691 0
M  V30 12639 H 1172.17 3.70074 -0.729731 0
M  V30 12640 H 1174.56 2.94987 -0.0816956 0
M  V30 12641 H 1174.64 2.01185 -1.57982 0
M  V30 12642 H 1174.28 4.15808 -2.91662 0
M  V30 12643 H 1174.21 5.07845 -1.39287 0
M  V30 12644 H 1176.71 3.51682 -1.38305 0
M  V30 12645 H 1177.02 6.93942 -3.40094 0
M  V30 12646 H 1175.36 6.24387 -3.05231 0
M  V30 12647 H 1178.55 4.3247 -1.79129 0
M  V30 12648 H 1178.73 5.88553 -2.71126 0
M  V30 12649 N 1172.13 0.454803 1.50895 0
M  V30 12650 C 1173.37 -0.104722 2.04132 0
M  V30 12651 C 1173.74 -1.38434 1.33042 0
M  V30 12652 O 1174.94 -2.02521 1.76745 0
M  V30 12653 C 1173.21 -0.300775 3.56132 0
M  V30 12654 S 1174.77 -0.821197 4.31047 0
M  V30 12655 H 1171.59 -0.0236407 0.710607 0
M  V30 12656 H 1174.19 0.618213 1.85468 0
M  V30 12657 H 1172.89 0.636592 4.05433 0
M  V30 12658 H 1172.42 -1.05029 3.79121 0
M  V30 12659 H 1174.44 -2.09669 4.49726 0
M  V30 12660 N 1173.61 -1.56489 0.186789 0
M  V30 12661 C 1174.54 -2.21705 -0.732739 0
M  V30 12662 C 1175.52 -1.17751 -1.22755 0
M  V30 12663 O 1176.71 -1.46231 -1.27789 0
M  V30 12664 C 1173.84 -2.86992 -1.95584 0
M  V30 12665 C 1172.79 -3.97118 -1.59628 0
M  V30 12666 C 1172.12 -4.49529 -2.89531 0
M  V30 12667 C 1173.42 -5.15941 -0.812518 0
M  V30 12668 H 1175.11 -2.98802 -0.189094 0
M  V30 12669 H 1172.66 -1.43722 -0.0895099 0
M  V30 12670 H 1174.61 -3.31295 -2.60426 0
M  V30 12671 H 1173.33 -2.07287 -2.52388 0
M  V30 12672 H 1171.99 -3.53494 -0.971475 0
M  V30 12673 H 1171.64 -3.66596 -3.44407 0
M  V30 12674 H 1171.34 -5.23832 -2.66221 0
M  V30 12675 H 1172.87 -4.96528 -3.55376 0
M  V30 12676 H 1174.28 -5.56841 -1.36386 0
M  V30 12677 H 1172.68 -5.96259 -0.677862 0
M  V30 12678 H 1173.75 -4.84535 0.188095 0
M  V30 12679 N 1175.09 0.086862 -1.5736 0
M  V30 12680 C 1176.31 0.806017 -1.91097 0
M  V30 12681 C 1176.74 1.71082 -0.78183 0
M  V30 12682 O 1176.1 1.79335 0.266175 0
M  V30 12683 C 1176.15 1.5884 -3.23732 0
M  V30 12684 O 1175.25 2.69798 -3.11902 0
M  V30 12685 H 1174.59 0.220899 -0.626179 0
M  V30 12686 H 1177.12 0.059619 -2.04513 0
M  V30 12687 H 1177.13 1.97088 -3.5724 0
M  V30 12688 H 1175.81 0.924426 -4.05496 0
M  V30 12689 H 1174.38 2.34519 -2.89923 0
M  V30 12690 N 1176.57 1.53483 0.357892 0
M  V30 12691 C 1177.84 1.60649 1.11585 0
M  V30 12692 C 1178.22 0.418789 2.06904 0
M  V30 12693 O 1177.57 -0.590279 2.20744 0
M  V30 12694 C 1177.78 2.96046 1.84818 0
M  V30 12695 C 1179.13 3.50895 2.39076 0
M  V30 12696 O 1180.15 2.98126 1.94934 0
M  V30 12697 O 1179.01 4.43163 3.19794 0
M  V30 12698 H 1176.11 0.649202 0.512315 0
M  V30 12699 H 1178.65 1.65826 0.360537 0
M  V30 12700 H 1177.43 3.73929 1.15296 0
M  V30 12701 H 1177.05 2.94395 2.6724 0
M  V30 12702 N 1178.05 -0.61812 1.44973 0
M  V30 12703 C 1179.46 -1.19994 1.43033 0
M  V30 12704 C 1179.81 -1.95607 0.152422 0
M  V30 12705 O 1178.93 -2.03114 -0.746571 0
M  V30 12706 C 1179.53 -2.18269 2.59122 0
M  V30 12707 C 1178.09 -2.7185 2.60336 0
M  V30 12708 C 1177.23 -1.4707 2.35086 0
M  V30 12709 H 1180.18 -0.408034 1.53365 0
M  V30 12710 H 1180.21 -3.01113 2.32619 0
M  V30 12711 H 1179.72 -1.63208 3.52115 0
M  V30 12712 H 1177.82 -3.30878 1.7132 0
M  V30 12713 H 1177.93 -3.17001 3.59231 0
M  V30 12714 H 1176.3 -1.75658 1.84435 0
M  V30 12715 H 1177.08 -0.938928 3.30211 0
M  V30 12716 N 1179.52 -1.32087 -0.859693 0
M  V30 12717 C 1180.77 -1.22119 -1.61033 0
M  V30 12718 C 1181.09 0.218289 -1.93774 0
M  V30 12719 O 1180.36 1.14172 -1.5919 0
M  V30 12720 H 1178.94 -0.448989 -0.597008 0
M  V30 12721 H 1181.6 -1.65545 -1.02863 0
M  V30 12722 H 1180.7 -1.80023 -2.54947 0
M  V30 12723 N 1181 1.07532 -1.15215 0
M  V30 12724 C 1182.41 1.61567 -0.935568 0
M  V30 12725 C 1182.76 1.89085 0.523557 0
M  V30 12726 O 1181.89 1.65495 1.39429 0
M  V30 12727 C 1182.48 2.93531 -1.69189 0
M  V30 12728 C 1181.04 3.44316 -1.52063 0
M  V30 12729 C 1180.19 2.18404 -1.70866 0
M  V30 12730 H 1183.14 0.906431 -1.30267 0
M  V30 12731 H 1183.16 3.62377 -1.16031 0
M  V30 12732 H 1182.67 2.73471 -2.75381 0
M  V30 12733 H 1180.77 3.69462 -0.482567 0
M  V30 12734 H 1180.89 4.20478 -2.29642 0
M  V30 12735 H 1179.25 2.28012 -1.13502 0
M  V30 12736 H 1180.03 2.00841 -2.7842 0
M  V30 12737 N 1182.48 0.948665 1.2585 0
M  V30 12738 C 1183.43 0.434929 2.23813 0
M  V30 12739 C 1184.41 -0.472518 1.53805 0
M  V30 12740 O 1185.61 -0.306542 1.74325 0
M  V30 12741 C 1182.74 -0.291678 3.42059 0
M  V30 12742 C 1181.82 0.633493 4.19342 0
M  V30 12743 N 1182.21 1.76254 4.74097 0
M  V30 12744 C 1180.51 0.440528 4.43819 0
M  V30 12745 C 1181.21 2.33968 5.32573 0
M  V30 12746 N 1180.19 1.62687 5.18685 0
M  V30 12747 H 1183.99 1.29668 2.63749 0
M  V30 12748 H 1181.5 0.805431 1.4102 0
M  V30 12749 H 1183.5 -0.676811 4.1137 0
M  V30 12750 H 1182.16 -1.15011 3.03649 0
M  V30 12751 H 1183.17 2.14453 4.71413 0
M  V30 12752 H 1179.85 -0.375515 4.15808 0
M  V30 12753 H 1181.24 3.2914 5.85761 0
M  V30 12754 N 1183.96 -1.40369 0.716545 0
M  V30 12755 C 1185.37 -1.83783 0.328719 0
M  V30 12756 C 1185.72 -1.5991 -1.13681 0
M  V30 12757 O 1184.85 -1.08048 -1.87496 0
M  V30 12758 C 1185.44 -3.33626 0.589848 0
M  V30 12759 C 1184 -3.7553 0.25572 0
M  V30 12760 C 1183.15 -2.63571 0.861733 0
M  V30 12761 H 1186.1 -1.29623 0.915621 0
M  V30 12762 H 1186.12 -3.80225 -0.14459 0
M  V30 12763 H 1185.63 -3.5097 1.65655 0
M  V30 12764 H 1183.73 -3.63781 -0.805883 0
M  V30 12765 H 1183.84 -4.73577 0.725388 0
M  V30 12766 H 1182.21 -2.53047 0.289706 0
M  V30 12767 H 1182.99 -2.83727 1.93272 0
M  V30 12768 N 1185.44 -0.462799 -1.50652 0
M  V30 12769 C 1186.35 0.341191 -2.32106 0
M  V30 12770 C 1187.36 1.00384 -1.42123 0
M  V30 12771 O 1188.54 0.993635 -1.75182 0
M  V30 12772 C 1185.6 1.41356 -3.16575 0
M  V30 12773 C 1184.66 0.768375 -4.22368 0
M  V30 12774 C 1183.9 1.78964 -5.028 0
M  V30 12775 O 1184.12 3.01515 -4.84195 0
M  V30 12776 O 1183.05 1.36606 -5.86193 0
M  V30 12777 H 1186.88 -0.324482 -3.01962 0
M  V30 12778 H 1184.47 -0.224807 -1.47699 0
M  V30 12779 H 1186.35 2.0349 -3.69012 0
M  V30 12780 H 1185.02 2.06285 -2.49456 0
M  V30 12781 H 1183.93 0.108297 -3.73943 0
M  V30 12782 H 1185.26 0.162164 -4.91933 0
M  V30 12783 N 1186.91 1.56388 -0.195085 0
M  V30 12784 C 1188.33 1.8398 0.317513 0
M  V30 12785 C 1188.68 1.11575 1.61386 0
M  V30 12786 O 1187.8 0.376557 2.13099 0
M  V30 12787 C 1188.4 3.33749 0.582859 0
M  V30 12788 C 1186.96 3.61752 1.03983 0
M  V30 12789 C 1186.1 2.77159 0.088434 0
M  V30 12790 H 1189.05 1.53072 -0.418871 0
M  V30 12791 H 1189.07 3.52519 1.43216 0
M  V30 12792 H 1188.59 3.86419 -0.360813 0
M  V30 12793 H 1186.69 3.14515 1.99778 0
M  V30 12794 H 1186.8 4.69937 0.932549 0
M  V30 12795 H 1185.16 2.47765 0.590317 0
M  V30 12796 H 1185.95 3.32619 -0.849682 0
M  V30 12797 N 1188.39 -0.0785156 1.57404 0
M  V30 12798 C 1189.64 -0.777399 1.8655 0
M  V30 12799 C 1189.96 -1.78451 0.786142 0
M  V30 12800 O 1189.23 -1.95016 -0.185911 0
M  V30 12801 H 1187.81 -0.290097 0.688369 0
M  V30 12802 H 1190.47 -0.0562017 1.94819 0
M  V30 12803 H 1189.57 -1.29776 2.83839 0
M  V30 12804 N 1189.87 -1.5367 -0.349747 0
M  V30 12805 C 1190.78 -1.84207 -1.45275 0
M  V30 12806 C 1191.8 -0.731695 -1.57868 0
M  V30 12807 O 1192.97 -1.02337 -1.73462 0
M  V30 12808 C 1190.04 -2.0398 -2.80345 0
M  V30 12809 C 1189.1 -3.27853 -2.77148 0
M  V30 12810 C 1188.33 -3.46673 -4.05775 0
M  V30 12811 O 1188.55 -2.69457 -5.02741 0
M  V30 12812 O 1187.49 -4.40082 -4.10623 0
M  V30 12813 H 1191.31 -2.77947 -1.22389 0
M  V30 12814 H 1188.9 -1.39247 -0.541345 0
M  V30 12815 H 1190.78 -2.18466 -3.60348 0
M  V30 12816 H 1189.46 -1.13429 -3.03176 0
M  V30 12817 H 1188.36 -3.18776 -1.95787 0
M  V30 12818 H 1189.7 -4.18377 -2.59271 0
M  V30 12819 N 1191.35 0.610423 -1.45298 0
M  V30 12820 C 1192.6 1.3668 -1.48872 0
M  V30 12821 C 1192.92 1.94562 -0.130686 0
M  V30 12822 O 1192.19 1.76996 0.839607 0
M  V30 12823 H 1190.77 0.507393 -0.548235 0
M  V30 12824 H 1193.43 0.716997 -1.81232 0
M  V30 12825 H 1192.53 2.18766 -2.22593 0
M  V30 12826 N 1192.83 1.32541 0.852676 0
M  V30 12827 C 1193.74 1.23646 1.99371 0
M  V30 12828 C 1194.75 0.149673 1.73355 0
M  V30 12829 O 1195.93 0.370716 1.97959 0
M  V30 12830 C 1192.99 0.961873 3.3309 0
M  V30 12831 C 1192.05 2.1373 3.72315 0
M  V30 12832 C 1191.29 1.87572 4.99652 0
M  V30 12833 O 1191.51 0.819247 5.64486 0
M  V30 12834 O 1190.44 2.73732 5.36054 0
M  V30 12835 H 1194.27 2.19573 2.09813 0
M  V30 12836 H 1191.86 1.12451 0.983627 0
M  V30 12837 H 1193.74 0.825316 4.13239 0
M  V30 12838 H 1192.41 0.0327745 3.23683 0
M  V30 12839 H 1191.32 2.32933 2.92733 0
M  V30 12840 H 1192.65 3.04925 3.86369 0
M  V30 12841 N 1194.3 -1.0692 1.15784 0
M  V30 12842 C 1195.72 -1.61069 0.944123 0
M  V30 12843 C 1196.07 -1.8936 -0.513522 0
M  V30 12844 O 1195.19 -1.66232 -1.38549 0
M  V30 12845 C 1195.79 -2.9263 1.70743 0
M  V30 12846 C 1194.35 -3.43505 1.53887 0
M  V30 12847 C 1193.49 -2.17495 1.72021 0
M  V30 12848 H 1196.44 -0.89951 1.30746 0
M  V30 12849 H 1196.46 -3.61757 1.17951 0
M  V30 12850 H 1195.98 -2.72007 2.76828 0
M  V30 12851 H 1194.08 -3.69201 0.502153 0
M  V30 12852 H 1194.19 -4.19254 2.31868 0
M  V30 12853 H 1192.55 -2.27407 1.1471 0
M  V30 12854 H 1193.34 -1.99362 2.79481 0
M  V30 12855 N 1195.78 -0.955326 -1.25345 0
M  V30 12856 C 1197.03 -0.610484 -1.93079 0
M  V30 12857 C 1197.36 0.852591 -1.74817 0
M  V30 12858 O 1196.61 1.6272 -1.08723 0
M  V30 12859 C 1196.91 -0.916173 -3.45458 0
M  V30 12860 C 1196.58 -2.36539 -3.83875 0
M  V30 12861 C 1195.24 -2.76152 -3.94073 0
M  V30 12862 C 1197.59 -3.30652 -4.02888 0
M  V30 12863 C 1194.92 -4.08944 -4.20692 0
M  V30 12864 C 1197.27 -4.63057 -4.31 0
M  V30 12865 C 1195.94 -5.02464 -4.39415 0
M  V30 12866 H 1195.21 -0.223392 -0.706525 0
M  V30 12867 H 1197.85 -1.20449 -1.48877 0
M  V30 12868 H 1196.16 -0.23978 -3.91066 0
M  V30 12869 H 1197.85 -0.627929 -3.96053 0
M  V30 12870 H 1194.44 -2.04819 -3.76493 0
M  V30 12871 H 1198.63 -3.01237 -3.94423 0
M  V30 12872 H 1193.88 -4.39118 -4.25423 0
M  V30 12873 H 1198.06 -5.3596 -4.44657 0
M  V30 12874 H 1195.69 -6.05386 -4.59795 0
M  V30 12875 N 1197.26 1.39987 -0.723979 0
M  V30 12876 C 1198.51 2.00731 -0.267115 0
M  V30 12877 C 1198.84 1.57424 1.14228 0
M  V30 12878 O 1198.09 0.789205 1.79081 0
M  V30 12879 C 1198.39 3.56101 -0.304472 0
M  V30 12880 C 1198.06 4.1902 -1.66533 0
M  V30 12881 C 1196.72 4.3592 -2.03783 0
M  V30 12882 C 1199.07 4.54034 -2.55935 0
M  V30 12883 C 1196.4 4.85119 -3.29964 0
M  V30 12884 C 1198.75 5.04637 -3.81477 0
M  V30 12885 C 1197.41 5.19745 -4.18833 0
M  V30 12886 H 1196.68 0.734525 -0.0977442 0
M  V30 12887 H 1199.33 1.67476 -0.928659 0
M  V30 12888 H 1197.64 3.89314 0.440647 0
M  V30 12889 H 1199.33 4.00944 0.0669875 0
M  V30 12890 H 1195.92 4.0626 -1.36569 0
M  V30 12891 H 1200.11 4.40606 -2.2843 0
M  V30 12892 H 1195.36 4.95001 -3.58865 0
M  V30 12893 H 1199.54 5.30705 -4.50916 0
M  V30 12894 H 1197.16 5.5763 -5.16675 0
M  V30 12895 N 1198.74 0.470782 1.50404 0
M  V30 12896 C 1200.15 0.0155901 1.86693 0
M  V30 12897 C 1200.5 -1.38908 1.38561 0
M  V30 12898 O 1199.63 -2.02971 0.750454 0
M  V30 12899 C 1200.22 0.0215152 3.38793 0
M  V30 12900 C 1198.78 -0.378206 3.74495 0
M  V30 12901 C 1197.93 0.407126 2.74295 0
M  V30 12902 H 1200.88 0.68507 1.43152 0
M  V30 12903 H 1200.9 -0.780717 3.72404 0
M  V30 12904 H 1200.41 1.04397 3.73795 0
M  V30 12905 H 1198.51 -1.40503 3.45094 0
M  V30 12906 H 1198.63 -0.0797643 4.79034 0
M  V30 12907 H 1196.99 -0.139123 2.5432 0
M  V30 12908 H 1197.77 1.42909 3.12141 0
M  V30 12909 N 1200.22 -1.56282 0.203376 0
M  V30 12910 C 1201.16 -2.19473 -0.714164 0
M  V30 12911 C 1202.13 -1.14454 -1.20372 0
M  V30 12912 O 1203.32 -1.42739 -1.26611 0
M  V30 12913 C 1200.46 -2.86451 -1.92457 0
M  V30 12914 C 1199.57 -4.06017 -1.47561 0
M  V30 12915 C 1198.71 -4.60829 -2.64216 0
M  V30 12916 C 1197.75 -5.72734 -2.15967 0
M  V30 12917 N 1196.88 -6.21916 -3.25829 0
M  V30 12918 H 1201.72 -2.97523 -0.168558 0
M  V30 12919 H 1199.26 -1.46926 -0.0714525 0
M  V30 12920 H 1201.22 -3.23459 -2.63496 0
M  V30 12921 H 1199.85 -2.10951 -2.44335 0
M  V30 12922 H 1198.9 -3.74617 -0.660784 0
M  V30 12923 H 1200.21 -4.8693 -1.08168 0
M  V30 12924 H 1199.37 -5.00185 -3.43366 0
M  V30 12925 H 1198.11 -3.7904 -3.06887 0
M  V30 12926 H 1197.11 -5.32899 -1.35273 0
M  V30 12927 H 1198.34 -6.56346 -1.74316 0
M  V30 12928 H 1196.28 -5.43047 -3.68016 0
M  V30 12929 H 1196.2 -6.97904 -2.90631 0
M  V30 12930 H 1197.47 -6.65927 -4.05168 0
M  V30 12931 N 1201.7 0.070167 -1.57444 0
M  V30 12932 C 1202.94 0.767495 -1.8696 0
M  V30 12933 C 1203.26 1.78032 -0.795595 0
M  V30 12934 O 1202.53 1.95112 0.175566 0
M  V30 12935 H 1201.11 0.286443 -0.689898 0
M  V30 12936 H 1203.78 0.0458692 -1.94846 0
M  V30 12937 H 1202.87 1.28269 -2.84523 0
M  V30 12938 N 1203.17 1.53854 0.341593 0
M  V30 12939 C 1204.11 1.78295 1.44027 0
M  V30 12940 C 1205.12 0.664303 1.4863 0
M  V30 12941 O 1206.31 0.941073 1.51678 0
M  V30 12942 C 1203.41 1.86947 2.82673 0
M  V30 12943 C 1202.58 3.16898 3.01487 0
M  V30 12944 C 1201.64 3.16483 4.20386 0
M  V30 12945 O 1200.67 3.90197 4.14409 0
M  V30 12946 N 1201.87 2.3899 5.29022 0
M  V30 12947 H 1204.63 2.73102 1.23431 0
M  V30 12948 H 1202.19 1.52928 0.531483 0
M  V30 12949 H 1204.19 1.84118 3.60392 0
M  V30 12950 H 1202.76 0.993169 2.96403 0
M  V30 12951 H 1201.98 3.32835 2.11221 0
M  V30 12952 H 1203.26 4.02733 3.1094 0
M  V30 12953 H 1202.66 1.78657 5.36748 0
M  V30 12954 H 1201.22 2.41957 6.05227 0
M  V30 12955 O 1204.69 -0.487567 1.53964 0
M  V30 12956 H 1205.38 -1.14224 1.56437 0
M  V30 END ATOM
M  V30 BEGIN BOND
M  V30 END BOND
M  V30 END CTAB
M  END
$$$$
