drugbank_drug|DB06372 8750_M|rilonacept|Homo sapiens||FUSION-IL1RAP-IL1R1-GAMMA-1 (IL1RAP+(Pr21-359)(1-339)+IL1R1+(Pr22-333)(340-651)+HINGE-REGION(652-663)+CH2(664-773)+CH3(774-880))|||||||880||||MW 100630.6|MW 100630.6|
 OpenBabel12092119123D

  0  0  0     0  0            999 V3000
M  V30 BEGIN CTAB
M  V30 COUNTS 14077 14266 0 0 0
M  V30 BEGIN ATOM
M  V30 1 H -0.908 1.98254 -0.117106 0
M  V30 2 N 0 1.576 0 0
M  V30 3 C 1.225 1.95249 0.699468 0
M  V30 4 C 1.65 0.874934 1.66513 0
M  V30 5 O 1.008 -0.166929 1.8053 0
M  V30 6 C 1.056 3.31994 1.40756 0
M  V30 7 O 0.16 3.26298 2.52197 0
M  V30 8 H -0.499 0.637402 0.186051 0
M  V30 9 H 2.031 2.04531 -0.05319 0
M  V30 10 H 2.041 3.6756 1.77098 0
M  V30 11 H 0.716 4.09975 0.69953 0
M  V30 12 H -0.707 3.02408 2.18183 0
M  V30 13 N 1.4781 -0.272755 1.55222 0
M  V30 14 C 2.3881 -1.35918 1.91216 0
M  V30 15 C 3.4041 -1.54026 0.809436 0
M  V30 16 O 4.5801 -1.68148 1.10852 0
M  V30 17 C 1.6451 -2.69834 2.17693 0
M  V30 18 C 0.7061 -2.6047 3.41253 0
M  V30 19 C -0.0609 -3.88 3.66458 0
M  V30 20 O 0.1621 -4.88693 2.94169 0
M  V30 21 O -0.9039 -3.88189 4.59992 0
M  V30 22 H 2.9221 -1.0839 2.83699 0
M  V30 23 H 0.5071 -0.471301 1.41771 0
M  V30 24 H 2.3891 -3.49017 2.36147 0
M  V30 25 H 1.0641 -2.97148 1.28392 0
M  V30 26 H -0.0289 -1.79663 3.28134 0
M  V30 27 H 1.3041 -2.38106 4.30774 0
M  V30 28 N 2.9562 -1.48159 -0.537278 0
M  V30 29 C 4.3722 -1.34118 -0.865129 0
M  V30 30 C 4.5722 -0.346678 -1.98495 0
M  V30 31 O 3.6282 0.234715 -2.51407 0
M  V30 32 C 4.9412 -2.73963 -1.23954 0
M  V30 33 C 6.4892 -2.82397 -1.34984 0
M  V30 34 C 6.9642 -4.22928 -1.75772 0
M  V30 35 N 8.4552 -4.25566 -1.82887 0
M  V30 36 C 9.1902 -5.31235 -2.15817 0
M  V30 37 N 8.6862 -6.47189 -2.47222 0
M  V30 38 N 10.4792 -5.18624 -2.16761 0
M  V30 39 H 2.6302 -2.1144 0.201715 0
M  V30 40 H 4.8932 -0.947598 0.0275949 0
M  V30 41 H 4.5992 -3.48264 -0.490381 0
M  V30 42 H 4.4732 -3.0702 -2.19132 0
M  V30 43 H 6.8602 -2.08356 -2.08978 0
M  V30 44 H 6.9412 -2.5297 -0.379448 0
M  V30 45 H 6.5852 -4.97482 -1.02341 0
M  V30 46 H 6.5152 -4.49794 -2.73848 0
M  V30 47 H 9.0062 -3.41924 -1.60924 0
M  V30 48 H 9.3192 -7.23564 -2.71433 0
M  V30 49 H 7.6642 -6.50476 -2.44757 0
M  V30 50 H 10.8552 -4.27056 -1.91679 0
M  V30 51 H 11.0282 -6.01078 -2.42093 0
M  V30 52 N 4.4343 0.785586 -1.36625 0
M  V30 53 C 5.6743 1.55678 -1.32453 0
M  V30 54 C 6.0383 1.91769 0.0941089 0
M  V30 55 O 7.2393 2.67536 0.26042 0
M  V30 56 C 5.5103 2.79701 -2.22491 0
M  V30 57 S 7.0693 3.69907 -2.36038 0
M  V30 58 H 3.8873 0.533141 -0.470405 0
M  V30 59 H 6.4893 0.924953 -1.72235 0
M  V30 60 H 5.1933 2.51244 -3.24507 0
M  V30 61 H 4.7243 3.47854 -1.83742 0
M  V30 62 H 6.7393 4.71016 -1.56072 0
M  V30 63 N 5.9124 1.20967 1.01018 0
M  V30 64 C 7.1894 0.93264 1.71934 0
M  V30 65 C 7.5694 -0.55692 2.03621 0
M  V30 66 O 6.9174 -1.52035 1.7058 0
M  V30 67 C 7.1274 1.81233 2.98254 0
M  V30 68 C 8.4754 2.05804 3.71389 0
M  V30 69 O 9.4994 1.78539 3.08225 0
M  V30 70 O 8.3584 2.51888 4.84989 0
M  V30 71 H 5.4524 0.349272 0.749625 0
M  V30 72 H 7.9984 1.31871 1.06808 0
M  V30 73 H 6.7704 2.82067 2.71208 0
M  V30 74 H 6.3934 1.42674 3.7112 0
M  V30 75 N 7.3905 -1.2043 1.01659 0
M  V30 76 C 8.6675 -1.8548 0.621004 0
M  V30 77 C 9.0475 -1.9091 -0.900919 0
M  V30 78 O 8.3955 -1.41694 -1.79263 0
M  V30 79 C 8.6055 -3.25119 1.2688 0
M  V30 80 C 9.9535 -4.01403 1.38423 0
M  V30 81 O 10.9775 -3.34473 1.22501 0
M  V30 82 O 9.8365 -5.21265 1.64151 0
M  V30 83 H 6.9305 -0.798761 0.214266 0
M  V30 84 H 9.4765 -1.28019 1.11396 0
M  V30 85 H 8.2485 -3.15932 2.30873 0
M  V30 86 H 7.8715 -3.90212 0.762917 0
M  V30 87 N 8.8686 -0.792821 -1.36206 0
M  V30 88 C 10.1146 -0.376415 -1.99887 0
M  V30 89 C 10.4696 1.04127 -1.61788 0
M  V30 90 O 9.7626 1.71004 -0.864193 0
M  V30 91 C 9.9566 -0.481501 -3.54142 0
M  V30 92 C 9.7856 -1.90786 -4.07223 0
M  V30 93 C 8.5556 -2.53322 -4.37214 0
M  V30 94 C 10.7536 -2.87048 -4.26741 0
M  V30 95 N 8.7356 -3.8751 -4.7614 0
M  V30 96 C 10.1066 -4.06077 -4.6851 0
M  V30 97 C 12.1616 -2.8406 -4.08918 0
M  V30 98 C 10.8646 -5.22532 -4.94321 0
M  V30 99 C 12.8906 -3.99705 -4.35878 0
M  V30 100 C 12.2526 -5.1748 -4.77906 0
M  V30 101 H 8.3516 -0.185226 -0.759747 0
M  V30 102 H 10.9356 -1.03114 -1.65153 0
M  V30 103 H 9.1066 0.143154 -3.88136 0
M  V30 104 H 10.8386 -0.0410128 -4.04679 0
M  V30 105 H 7.5936 -2.04777 -4.2704 0
M  V30 106 H 8.0176 -4.5656 -4.99882 0
M  V30 107 H 12.6596 -1.94165 -3.75579 0
M  V30 108 H 10.3776 -6.1301 -5.2654 0
M  V30 109 H 13.9636 -3.98758 -4.23655 0
M  V30 110 H 12.8436 -6.05478 -4.98363 0
M  V30 111 N 10.3467 1.47872 -0.545128 0
M  V30 112 C 11.5947 2.02093 -0.016553 0
M  V30 113 C 11.9157 1.42305 1.3332 0
M  V30 114 O 11.1857 0.593853 1.86682 0
M  V30 115 H 9.7657 0.746993 -0.00313038 0
M  V30 116 H 12.4277 1.81414 -0.712397 0
M  V30 117 H 11.5237 3.11996 0.0805422 0
M  V30 118 N 11.8248 0.280983 1.55075 0
M  V30 119 C 12.7548 -0.597469 2.25727 0
M  V30 120 C 13.7358 -1.15417 1.24952 0
M  V30 121 O 14.9208 -1.18722 1.53684 0
M  V30 122 C 12.0508 -1.7789 2.98283 0
M  V30 123 C 11.0048 -1.35347 4.06036 0
M  V30 124 C 10.3308 -2.61846 4.66198 0
M  V30 125 C 11.6308 -0.499354 5.19907 0
M  V30 126 H 13.3248 -0.00824265 2.99399 0
M  V30 127 H 10.8708 -0.0025244 1.44 0
M  V30 128 H 12.8238 -2.39937 3.46422 0
M  V30 129 H 11.5478 -2.39405 2.22155 0
M  V30 130 H 10.2068 -0.756156 3.58717 0
M  V30 131 H 9.8548 -3.21632 3.86732 0
M  V30 132 H 9.5548 -2.3409 5.38958 0
M  V30 133 H 11.0788 -3.24732 5.1709 0
M  V30 134 H 12.4928 -1.02498 5.64063 0
M  V30 135 H 10.8898 -0.316424 5.99265 0
M  V30 136 H 11.9598 0.480459 4.82514 0
M  V30 137 N 13.3029 -1.57598 0.00835791 0
M  V30 138 C 14.5799 -1.82172 -0.712235 0
M  V30 139 C 14.9599 -0.887873 -1.9152 0
M  V30 140 O 14.3079 0.06146 -2.28417 0
M  V30 141 C 14.5179 -3.30875 -1.11008 0
M  V30 142 C 15.8659 -3.96826 -1.51044 0
M  V30 143 O 16.8899 -3.35248 -1.20364 0
M  V30 144 O 15.7489 -5.05318 -2.08125 0
M  V30 145 H 12.8429 -0.750435 -0.347529 0
M  V30 146 H 15.3889 -1.69665 0.0344523 0
M  V30 147 H 14.1609 -3.90481 -0.252982 0
M  V30 148 H 13.7839 -3.48412 -1.9156 0
M  V30 149 N 14.781 0.264519 -1.55364 0
M  V30 150 C 16.009 1.013 -1.80405 0
M  V30 151 C 16.424 1.79618 -0.581622 0
M  V30 152 O 15.781 1.76879 0.449468 0
M  V30 153 C 15.832 1.96487 -3.03439 0
M  V30 154 O 15.553 1.21341 -4.20961 0
M  V30 155 C 17.054 2.83079 -3.41147 0
M  V30 156 H 14.274 0.298875 -0.600762 0
M  V30 157 H 16.818 0.292736 -2.02394 0
M  V30 158 H 14.973 2.63965 -2.83551 0
M  V30 159 H 15.387 1.85573 -4.90574 0
M  V30 160 H 16.861 3.4565 -4.30384 0
M  V30 161 H 17.338 3.53286 -2.60932 0
M  V30 162 H 17.944 2.2108 -3.63323 0
M  V30 163 N 16.2591 1.48442 0.529413 0
M  V30 164 C 17.1921 1.57577 1.65059 0
M  V30 165 C 18.1701 0.426198 1.56915 0
M  V30 166 O 19.3541 0.637877 1.77379 0
M  V30 167 C 16.4811 1.5043 3.03461 0
M  V30 168 C 15.5271 2.70235 3.29962 0
M  V30 169 S 16.3601 4.32198 3.16172 0
M  V30 170 C 17.5161 4.2765 4.57019 0
M  V30 171 H 17.7491 2.52427 1.5706 0
M  V30 172 H 15.2821 1.36982 0.712417 0
M  V30 173 H 17.2401 1.46992 3.8328 0
M  V30 174 H 15.9011 0.569167 3.089 0
M  V30 175 H 15.0941 2.61374 4.30929 0
M  V30 176 H 14.6961 2.70938 2.57815 0
M  V30 177 H 16.9881 3.97618 5.48549 0
M  V30 178 H 17.9311 5.28797 4.70934 0
M  V30 179 H 18.3391 3.5811 4.36368 0
M  V30 180 N 17.7372 -0.778329 1.37039 0
M  V30 181 C 19.1532 -1.07796 1.17695 0
M  V30 182 C 19.3532 -2.01498 0.00860115 0
M  V30 183 O 18.4092 -2.43901 -0.653352 0
M  V30 184 C 19.7222 -1.68178 2.49272 0
M  V30 185 C 21.2702 -1.80467 2.55735 0
M  V30 186 C 21.7452 -2.44263 3.87427 0
M  V30 187 N 23.2362 -2.51721 3.88833 0
M  V30 188 C 23.9712 -3.01919 4.87476 0
M  V30 189 N 23.4672 -3.5234 5.96513 0
M  V30 190 N 25.2602 -3.00733 4.74885 0
M  V30 191 H 17.4112 -0.156032 2.11826 0
M  V30 192 H 19.6742 -0.131844 0.938787 0
M  V30 193 H 19.3802 -1.06796 3.35093 0
M  V30 194 H 19.2542 -2.67554 2.65885 0
M  V30 195 H 21.6412 -2.40984 1.70325 0
M  V30 196 H 21.7222 -0.798656 2.43013 0
M  V30 197 H 21.3662 -1.84388 4.73248 0
M  V30 198 H 21.2962 -3.45458 3.9745 0
M  V30 199 H 23.7872 -2.1603 3.10063 0
M  V30 200 H 24.1002 -3.89027 6.67741 0
M  V30 201 H 22.4452 -3.50462 6.00168 0
M  V30 202 H 25.6362 -2.60638 3.88826 0
M  V30 203 H 25.8092 -3.39545 5.51918 0
M  V30 204 N 19.2153 -1.21501 -1.00376 0
M  V30 205 C 20.1473 -0.933174 -2.09343 0
M  V30 206 C 21.1603 0.0840896 -1.62583 0
M  V30 207 O 22.3493 -0.148563 -1.77881 0
M  V30 208 C 19.4493 -0.379869 -3.36764 0
M  V30 209 C 18.6223 -1.45176 -4.12605 0
M  V30 210 C 17.6813 -0.907476 -5.18316 0
M  V30 211 O 16.7073 -1.5912 -5.46507 0
M  V30 212 N 17.9093 0.276649 -5.7984 0
M  V30 213 H 20.6743 -1.87124 -2.34104 0
M  V30 214 H 18.2353 -1.12043 -1.16867 0
M  V30 215 H 20.2273 -0.00131488 -4.047 0
M  V30 216 H 18.7973 0.463048 -3.09151 0
M  V30 217 H 18.0173 -2.00411 -3.39454 0
M  V30 218 H 19.3053 -2.17328 -4.6005 0
M  V30 219 H 18.7033 0.849147 -5.59291 0
M  V30 220 H 17.2603 0.596702 -6.49063 0
M  V30 221 N 20.6934 1.19889 -1.02296 0
M  V30 222 C 21.9424 1.88743 -0.711257 0
M  V30 223 C 22.2554 1.80112 0.762817 0
M  V30 224 O 23.4614 2.44161 1.18733 0
M  V30 225 C 21.9174 3.38525 -1.22185 0
M  V30 226 C 21.5254 3.55727 -2.72328 0
M  V30 227 C 23.2694 4.12893 -0.985864 0
M  V30 228 C 21.1764 4.99369 -3.16835 0
M  V30 229 H 20.1064 0.706885 -0.262353 0
M  V30 230 H 22.7574 1.35586 -1.23648 0
M  V30 231 H 21.1394 3.91044 -0.624571 0
M  V30 232 H 22.3134 3.13564 -3.3766 0
M  V30 233 H 20.6284 2.94739 -2.9414 0
M  V30 234 H 23.2254 5.18813 -1.29374 0
M  V30 235 H 23.5684 4.16228 0.0775055 0
M  V30 236 H 24.1014 3.66494 -1.54684 0
M  V30 237 H 20.8404 5.01193 -4.22476 0
M  V30 238 H 20.3604 5.42317 -2.56228 0
M  V30 239 H 22.0394 5.67988 -3.09837 0
M  V30 240 N 22.1715 0.800033 1.35784 0
M  V30 241 C 23.1035 0.163596 2.28615 0
M  V30 242 C 24.1165 -0.633317 1.49976 0
M  V30 243 O 25.3055 -0.466754 1.72289 0
M  V30 244 C 22.4055 -0.790958 3.29541 0
M  V30 245 C 21.5785 -0.0418255 4.3738 0
M  V30 246 C 20.6375 -0.91389 5.18203 0
M  V30 247 O 19.6635 -0.367234 5.68014 0
M  V30 248 N 20.8655 -2.23682 5.35674 0
M  V30 249 H 23.6305 0.96105 2.83873 0
M  V30 250 H 21.1915 0.654894 1.48063 0
M  V30 251 H 23.1835 -1.37844 3.80501 0
M  V30 252 H 21.7535 -1.48925 2.74846 0
M  V30 253 H 20.9735 0.726813 3.87442 0
M  V30 254 H 22.2615 0.474719 5.06581 0
M  V30 255 H 21.6595 -2.70497 4.96838 0
M  V30 256 H 20.2165 -2.77369 5.89839 0
M  V30 257 N 23.6496 -1.47581 0.552962 0
M  V30 258 C 24.8956 -2.02782 0.0273648 0
M  V30 259 C 25.2286 -1.42687 -1.31734 0
M  V30 260 O 24.5036 -0.580897 -1.85623 0
M  V30 261 C 24.7866 -3.60031 -0.0702371 0
M  V30 262 C 24.6396 -4.30566 1.30126 0
M  V30 263 C 25.9586 -4.33028 -0.785771 0
M  V30 264 H 23.0776 -0.736912 0.0114185 0
M  V30 265 H 25.7196 -1.76056 0.714432 0
M  V30 266 H 23.8696 -3.82932 -0.655382 0
M  V30 267 H 25.5416 -4.19018 1.92929 0
M  V30 268 H 23.7846 -3.91086 1.87709 0
M  V30 269 H 24.4556 -5.39114 1.18573 0
M  V30 270 H 26.9316 -4.15095 -0.288982 0
M  V30 271 H 25.8076 -5.42695 -0.823013 0
M  V30 272 H 26.0686 -4.01945 -1.841 0
M  V30 273 N 25.1277 -0.289203 -1.54924 0
M  V30 274 C 26.3747 0.323519 -1.99899 0
M  V30 275 C 26.7027 1.54797 -1.17762 0
M  V30 276 O 25.9577 1.94237 -0.238835 0
M  V30 277 C 26.2567 0.736119 -3.49737 0
M  V30 278 C 25.9227 -0.385276 -4.49251 0
M  V30 279 C 24.5847 -0.693156 -4.76181 0
M  V30 280 C 26.9367 -1.14021 -5.08575 0
M  V30 281 C 24.2647 -1.7593 -5.59701 0
M  V30 282 C 26.6167 -2.19619 -5.93254 0
M  V30 283 C 25.2807 -2.51026 -6.185 0
M  V30 284 H 24.5507 0.118384 -0.731482 0
M  V30 285 H 27.1977 -0.405847 -1.8715 0
M  V30 286 H 25.5027 1.54539 -3.60035 0
M  V30 287 H 27.1997 1.22118 -3.81953 0
M  V30 288 H 23.7897 -0.135202 -4.28387 0
M  V30 289 H 27.9737 -0.915611 -4.87781 0
M  V30 290 H 23.2297 -2.0075 -5.77503 0
M  V30 291 H 27.4037 -2.78581 -6.38252 0
M  V30 292 H 25.0307 -3.33772 -6.83008 0
M  V30 293 N 26.6058 1.57591 -0.0167156 0
M  V30 294 C 27.5158 2.1291 0.98521 0
M  V30 295 C 28.5318 1.07834 1.36557 0
M  V30 296 O 29.7078 1.39826 1.44951 0
M  V30 297 C 26.7728 2.63512 2.25305 0
M  V30 298 C 25.8338 3.83256 1.93426 0
M  V30 299 C 25.0668 4.31435 3.14165 0
M  V30 300 O 25.2898 3.78851 4.26413 0
M  V30 301 O 24.2238 5.23416 2.97186 0
M  V30 302 H 28.0498 2.98772 0.544888 0
M  V30 303 H 25.6348 1.48012 0.203141 0
M  V30 304 H 27.5168 2.96183 2.99756 0
M  V30 305 H 26.1918 1.8074 2.68542 0
M  V30 306 H 25.0988 3.55531 1.16398 0
M  V30 307 H 26.4318 4.67153 1.55013 0
M  V30 308 N 28.0839 -0.256276 1.55502 0
M  V30 309 C 29.3609 -1.00789 1.67633 0
M  V30 310 C 29.7409 -2.03706 0.553826 0
M  V30 311 O 29.0889 -2.24145 -0.443969 0
M  V30 312 C 29.2989 -1.64968 3.07549 0
M  V30 313 C 30.6469 -2.15505 3.65845 0
M  V30 314 O 31.6709 -1.74925 3.1029 0
M  V30 315 O 30.5299 -2.89986 4.63217 0
M  V30 316 H 27.6239 -0.468553 0.681459 0
M  V30 317 H 30.1699 -0.250806 1.67836 0
M  V30 318 H 28.9419 -0.904785 3.80696 0
M  V30 319 H 28.5649 -2.47321 3.11317 0
M  V30 320 N 29.562 -1.4872 -0.521534 0
M  V30 321 C 30.472 -1.66569 -1.65203 0
M  V30 322 C 31.488 -0.548197 -1.65139 0
M  V30 323 O 32.664 -0.820339 -1.83936 0
M  V30 324 C 29.729 -1.70917 -3.01642 0
M  V30 325 C 28.79 -2.94356 -3.12495 0
M  V30 326 C 28.023 -2.98487 -4.42426 0
M  V30 327 O 28.246 -2.10786 -5.30024 0
M  V30 328 O 27.18 -3.90746 -4.57822 0
M  V30 329 H 31.006 -2.62298 -1.5308 0
M  V30 330 H 28.591 -1.3222 -0.695565 0
M  V30 331 H 30.473 -1.7625 -3.82771 0
M  V30 332 H 29.148 -0.783633 -3.14071 0
M  V30 333 H 28.055 -2.94552 -2.3063 0
M  V30 334 H 29.388 -3.86322 -3.04986 0
M  V30 335 N 31.0401 0.771051 -1.3745 0
M  V30 336 C 32.4511 1.34737 -1.29239 0
M  V30 337 C 32.8021 1.96109 0.0596908 0
M  V30 338 O 31.9271 1.93865 0.961534 0
M  V30 339 C 32.5221 2.44973 -2.34037 0
M  V30 340 C 31.0811 2.98372 -2.29458 0
M  V30 341 C 30.2281 1.71595 -2.17831 0
M  V30 342 H 33.1791 0.571256 -1.48062 0
M  V30 343 H 33.2001 3.24471 -1.98744 0
M  V30 344 H 32.7121 2.00276 -3.32432 0
M  V30 345 H 30.8131 3.47443 -1.34589 0
M  V30 346 H 30.9261 3.53939 -3.229 0
M  V30 347 H 29.2901 1.94547 -1.64388 0
M  V30 348 H 30.0731 1.29001 -3.18141 0
M  V30 349 N 32.5182 1.22032 0.997298 0
M  V30 350 C 33.4812 0.987909 2.06816 0
M  V30 351 C 34.4812 -0.0440084 1.6074 0
M  V30 352 O 35.6712 0.194053 1.73116 0
M  V30 353 C 32.8032 0.49132 3.37341 0
M  V30 354 H 33.9962 1.93803 2.28868 0
M  V30 355 H 31.5492 1.03838 1.16822 0
M  V30 356 H 32.2842 -0.463364 3.20973 0
M  V30 357 H 32.0692 1.23575 3.72118 0
M  V30 358 H 33.5592 0.348824 4.16141 0
M  V30 359 N 33.9963 -1.19345 1.0293 0
M  V30 360 C 35.4123 -1.41069 0.746446 0
M  V30 361 C 35.6123 -1.90078 -0.668776 0
M  V30 362 O 34.6683 -2.0778 -1.4347 0
M  V30 363 C 35.9813 -2.42141 1.78292 0
M  V30 364 C 37.5293 -2.55887 1.80252 0
M  V30 365 C 38.0043 -3.60214 2.8286 0
M  V30 366 N 39.4953 -3.67711 2.81679 0
M  V30 367 C 40.2303 -4.48128 3.57727 0
M  V30 368 N 39.7263 -5.32248 4.43491 0
M  V30 369 N 41.5193 -4.42782 3.46267 0
M  V30 370 H 33.6703 -0.858536 1.94275 0
M  V30 371 H 35.9333 -0.439541 0.839945 0
M  V30 372 H 35.6393 -2.13155 2.79746 0
M  V30 373 H 35.5133 -3.41323 1.60557 0
M  V30 374 H 37.9003 -2.84196 0.794757 0
M  V30 375 H 37.9813 -1.56858 2.02062 0
M  V30 376 H 37.6253 -3.32647 3.83807 0
M  V30 377 H 37.5553 -4.58895 2.58307 0
M  V30 378 H 40.0463 -3.07634 2.19476 0
M  V30 379 H 40.3593 -5.90729 4.98256 0
M  V30 380 H 38.7043 -5.31707 4.47564 0
M  V30 381 H 41.8953 -3.76107 2.78677 0
M  V30 382 H 42.0683 -5.05215 4.05785 0
M  V30 383 N 35.4744 -0.807222 -1.35358 0
M  V30 384 C 36.7234 -0.384376 -1.98004 0
M  V30 385 C 37.0364 1.0543 -1.64754 0
M  V30 386 O 38.2424 1.58029 -2.20769 0
M  V30 387 C 36.6984 -0.636326 -3.5423 0
M  V30 388 C 36.3064 -2.08759 -3.96388 0
M  V30 389 C 38.0504 -0.278869 -4.23583 0
M  V30 390 C 35.9574 -2.28525 -5.45463 0
M  V30 391 H 34.8874 -0.139986 -0.740891 0
M  V30 392 H 37.5384 -0.991369 -1.54415 0
M  V30 393 H 35.9204 0.0406256 -3.95979 0
M  V30 394 H 37.0944 -2.8024 -3.6579 0
M  V30 395 H 35.4094 -2.40497 -3.39926 0
M  V30 396 H 38.0064 -0.404599 -5.33167 0
M  V30 397 H 38.3494 0.775012 -4.09022 0
M  V30 398 H 38.8824 -0.909764 -3.87257 0
M  V30 399 H 35.6214 -3.32361 -5.64992 0
M  V30 400 H 35.1414 -1.61569 -5.77629 0
M  V30 401 H 36.8204 -2.10109 -6.11934 0
M  V30 402 N 36.9525 1.47285 -0.560781 0
M  V30 403 C 37.8995 2.30058 0.18491 0
M  V30 404 C 38.8695 1.39281 0.904986 0
M  V30 405 O 40.0545 1.68241 0.899979 0
M  V30 406 C 37.1945 3.23317 1.20666 0
M  V30 407 C 36.3075 4.29186 0.492285 0
M  V30 408 C 35.4425 5.09592 1.49964 0
M  V30 409 C 34.4815 6.07232 0.770439 0
M  V30 410 N 33.6185 6.80584 1.72479 0
M  V30 411 H 38.4585 2.93302 -0.527048 0
M  V30 412 H 35.9955 1.44568 -0.271738 0
M  V30 413 H 37.9535 3.75811 1.81168 0
M  V30 414 H 36.5835 2.61929 1.88661 0
M  V30 415 H 35.6355 3.7972 -0.227333 0
M  V30 416 H 36.9475 4.98738 -0.0787929 0
M  V30 417 H 36.1015 5.66254 2.17809 0
M  V30 418 H 34.8405 4.3995 2.10464 0
M  V30 419 H 33.8455 5.49745 0.0780846 0
M  V30 420 H 35.0705 6.78884 0.171134 0
M  V30 421 H 33.0165 6.1367 2.3183 0
M  V30 422 H 32.9335 7.46319 1.20596 0
M  V30 423 H 34.2015 7.41818 2.39428 0
M  V30 424 N 38.4306 0.297415 1.54768 0
M  V30 425 C 39.6706 -0.313829 2.01976 0
M  V30 426 C 40.0346 -1.51366 1.1812 0
M  V30 427 O 41.2356 -2.19603 1.5501 0
M  V30 428 C 39.5066 -0.664964 3.51159 0
M  V30 429 S 41.0656 -1.25958 4.20333 0
M  V30 430 H 37.8836 -0.0965014 0.704421 0
M  V30 431 H 40.4856 0.424451 1.90837 0
M  V30 432 H 39.1896 0.21681 4.09827 0
M  V30 433 H 38.7206 -1.43413 3.66328 0
M  V30 434 H 40.7356 -2.54751 4.25813 0
M  V30 435 N 39.9087 -1.5758 0.0250728 0
M  V30 436 C 41.3197 -1.79476 -0.514323 0
M  V30 437 C 41.6707 -0.934956 -1.72491 0
M  V30 438 O 40.7957 -0.144245 -2.15919 0
M  V30 439 C 41.3907 -3.25503 -0.939842 0
M  V30 440 C 39.9497 -3.48408 -1.42438 0
M  V30 441 C 39.0967 -2.74583 -0.387201 0
M  V30 442 H 42.0477 -1.567 0.25113 0
M  V30 443 H 42.0687 -3.34992 -1.80445 0
M  V30 444 H 41.5807 -3.88056 -0.0585628 0
M  V30 445 H 39.6817 -2.91103 -2.32572 0
M  V30 446 H 39.7947 -4.57119 -1.43455 0
M  V30 447 H 38.1587 -2.39942 -0.854409 0
M  V30 448 H 38.9417 -3.39849 0.485543 0
M  V30 449 N 41.3868 0.248026 -1.55636 0
M  V30 450 C 42.3168 1.31079 -1.93237 0
M  V30 451 C 43.2978 1.50264 -0.797174 0
M  V30 452 O 44.4828 1.62891 -1.05737 0
M  V30 453 C 41.6128 2.66575 -2.22609 0
M  V30 454 C 40.5668 2.62087 -3.3837 0
M  V30 455 C 39.8928 4.01369 -3.53281 0
M  V30 456 C 41.1928 2.19171 -4.7409 0
M  V30 457 H 42.8868 0.998556 -2.82257 0
M  V30 458 H 40.4328 0.47891 -1.35803 0
M  V30 459 H 42.3858 3.41057 -2.47503 0
M  V30 460 H 41.1098 2.99432 -1.30414 0
M  V30 461 H 39.7688 1.90063 -3.13483 0
M  V30 462 H 39.4168 4.31489 -2.58508 0
M  V30 463 H 39.1168 3.99254 -4.31127 0
M  V30 464 H 40.6408 4.77552 -3.80495 0
M  V30 465 H 42.0548 2.83384 -4.98363 0
M  V30 466 H 40.4518 2.2817 -5.5503 0
M  V30 467 H 41.5218 1.14336 -4.71227 0
M  V30 468 N 42.8649 1.48995 0.513639 0
M  V30 469 C 44.1119 1.57843 1.26854 0
M  V30 470 C 44.4399 0.259501 1.92761 0
M  V30 471 O 43.6949 -0.75159 1.80692 0
M  V30 472 C 43.9939 2.67756 2.36731 0
M  V30 473 C 43.6599 4.09669 1.88368 0
M  V30 474 C 42.3219 4.48291 1.74896 0
M  V30 475 C 44.6739 4.98537 1.52021 0
M  V30 476 C 42.0019 5.73568 1.23438 0
M  V30 477 C 44.3539 6.24319 1.0202 0
M  V30 478 C 43.0179 6.61783 0.871778 0
M  V30 479 H 42.2879 0.577587 0.464192 0
M  V30 480 H 44.9349 1.82778 0.571366 0
M  V30 481 H 43.2399 2.36743 3.12185 0
M  V30 482 H 44.9369 2.71813 2.9482 0
M  V30 483 H 41.5269 3.79176 1.99808 0
M  V30 484 H 45.7109 4.69363 1.61281 0
M  V30 485 H 40.9669 6.01304 1.10648 0
M  V30 486 H 45.1409 6.92566 0.729722 0
M  V30 487 H 42.7679 7.5874 0.470852 0
M  V30 488 N 44.343 -0.763751 1.37857 0
M  V30 489 C 45.253 -1.90817 1.36478 0
M  V30 490 C 46.269 -1.71997 0.263248 0
M  V30 491 O 47.445 -1.95095 0.499979 0
M  V30 492 C 44.51 -3.2605 1.17864 0
M  V30 493 C 43.571 -3.57467 2.3773 0
M  V30 494 C 42.804 -4.86249 2.19995 0
M  V30 495 O 43.027 -5.57884 1.18836 0
M  V30 496 O 41.961 -5.16911 3.08361 0
M  V30 497 H 45.787 -1.94933 2.32884 0
M  V30 498 H 43.372 -0.907619 1.1867 0
M  V30 499 H 45.254 -4.06924 1.09504 0
M  V30 500 H 43.929 -3.22769 0.245372 0
M  V30 501 H 42.836 -2.76796 2.51664 0
M  V30 502 H 44.169 -3.655 3.29652 0
M  V30 503 N 45.8211 -1.22559 -0.990812 0
M  V30 504 C 46.7711 -0.964807 -2.0658 0
M  V30 505 C 47.7551 0.0853472 -1.60673 0
M  V30 506 O 48.9471 -0.125443 -1.76555 0
M  V30 507 C 46.0761 -0.546707 -3.38919 0
M  V30 508 C 45.1621 -1.6317 -3.91454 0
M  V30 509 N 45.5531 -2.85985 -4.17189 0
M  V30 510 C 43.8511 -1.50387 -4.19881 0
M  V30 511 C 44.5521 -3.56159 -4.59919 0
M  V30 512 N 43.5281 -2.83637 -4.63736 0
M  V30 513 H 47.3301 -1.89769 -2.24421 0
M  V30 514 H 44.8441 -1.12343 -1.17273 0
M  V30 515 H 46.8411 -0.34119 -4.15502 0
M  V30 516 H 45.5011 0.379254 -3.22478 0
M  V30 517 H 46.5121 -3.22392 -4.05319 0
M  V30 518 H 43.1891 -0.644254 -4.12499 0
M  V30 519 H 44.5791 -4.6139 -4.88435 0
M  V30 520 N 47.2992 1.18797 -1.03562 0
M  V30 521 C 48.5462 1.8865 -0.736023 0
M  V30 522 C 48.8742 1.80041 0.735889 0
M  V30 523 O 48.1292 1.19179 1.55225 0
M  V30 524 C 48.4282 3.38692 -1.14117 0
M  V30 525 C 48.0942 3.67504 -2.6125 0
M  V30 526 C 46.7562 3.75078 -3.01447 0
M  V30 527 C 49.1082 3.80293 -3.56408 0
M  V30 528 C 46.4362 3.92915 -4.35701 0
M  V30 529 C 48.7882 3.99645 -4.90374 0
M  V30 530 C 47.4522 4.05453 -5.30249 0
M  V30 531 H 46.7222 0.690321 -0.26933 0
M  V30 532 H 49.3692 1.40641 -1.29971 0
M  V30 533 H 47.6742 3.88645 -0.496202 0
M  V30 534 H 49.3712 3.91072 -0.886789 0
M  V30 535 H 45.9612 3.62223 -2.29113 0
M  V30 536 H 50.1452 3.73779 -3.26501 0
M  V30 537 H 45.4012 3.95653 -4.66121 0
M  V30 538 H 49.5752 4.08482 -5.64017 0
M  V30 539 H 47.2022 4.19027 -6.34288 0
M  V30 540 N 48.7773 0.814389 1.34928 0
M  V30 541 C 49.7073 0.244827 2.32213 0
M  V30 542 C 50.6883 -0.634024 1.57842 0
M  V30 543 O 51.8733 -0.562676 1.8587 0
M  V30 544 C 49.0033 -0.601106 3.42058 0
M  V30 545 C 47.9573 0.179896 4.27622 0
M  V30 546 C 47.2833 -0.788237 5.28858 0
M  V30 547 C 48.5833 1.38329 5.03649 0
M  V30 548 H 50.2773 1.05763 2.80097 0
M  V30 549 H 47.8233 0.510029 1.34665 0
M  V30 550 H 49.7763 -1.00968 4.09125 0
M  V30 551 H 48.5003 -1.44688 2.92802 0
M  V30 552 H 47.1593 0.569739 3.62146 0
M  V30 553 H 46.8073 -1.62973 4.75866 0
M  V30 554 H 46.5073 -0.269942 5.8698 0
M  V30 555 H 48.0313 -1.19485 5.98795 0
M  V30 556 H 49.4453 1.04918 5.63618 0
M  V30 557 H 47.8423 1.83662 5.71304 0
M  V30 558 H 48.9123 2.16592 4.33839 0
M  V30 559 N 50.2554 -1.46986 0.568584 0
M  V30 560 C 51.2024 -2.30153 -0.172707 0
M  V30 561 C 52.1724 -1.39759 -0.897586 0
M  V30 562 O 53.3574 -1.68716 -0.891044 0
M  V30 563 C 50.4974 -3.23952 -1.1895 0
M  V30 564 C 49.6104 -4.29441 -0.469517 0
M  V30 565 C 48.7454 -5.1038 -1.47259 0
M  V30 566 C 47.7844 -6.07632 -0.738225 0
M  V30 567 N 46.9214 -6.8149 -1.68868 0
M  V30 568 H 51.7614 -2.93019 0.542596 0
M  V30 569 H 49.2984 -1.44422 0.279401 0
M  V30 570 H 51.2564 -3.76767 -1.79173 0
M  V30 571 H 49.8864 -2.62926 -1.87269 0
M  V30 572 H 48.9384 -3.79594 0.247467 0
M  V30 573 H 50.2504 -4.98689 0.105241 0
M  V30 574 H 49.4044 -5.67402 -2.14803 0
M  V30 575 H 48.1434 -4.4106 -2.08128 0
M  V30 576 H 47.1484 -5.49778 -0.0489293 0
M  V30 577 H 48.3734 -6.78966 -0.135129 0
M  V30 578 H 46.3194 -6.14891 -2.28573 0
M  V30 579 H 46.2364 -7.46948 -1.16636 0
M  V30 580 H 47.5044 -7.43078 -2.3549 0
M  V30 581 N 51.7335 -0.305618 -1.54608 0
M  V30 582 C 52.9805 0.302298 -2.00231 0
M  V30 583 C 53.3085 1.5354 -1.19398 0
M  V30 584 O 52.5635 1.93973 -0.259423 0
M  V30 585 C 52.8625 0.698983 -3.50498 0
M  V30 586 C 52.5285 -0.432903 -4.48817 0
M  V30 587 C 51.1905 -0.743622 -4.75419 0
M  V30 588 C 53.5425 -1.19409 -5.07337 0
M  V30 589 C 50.8705 -1.81857 -5.57804 0
M  V30 590 C 53.2225 -2.25899 -5.90891 0
M  V30 591 C 51.8865 -2.57572 -6.15803 0
M  V30 592 H 51.1565 0.110619 -0.732697 0
M  V30 593 H 53.8035 -0.425674 -1.86709 0
M  V30 594 H 52.1085 1.50711 -3.61654 0
M  V30 595 H 53.8055 1.1806 -3.83227 0
M  V30 596 H 50.3955 -0.18063 -4.28219 0
M  V30 597 H 54.5795 -0.967295 -4.86782 0
M  V30 598 H 49.8355 -2.06864 -5.75341 0
M  V30 599 H 54.0095 -2.85335 -6.35261 0
M  V30 600 H 51.6365 -3.40998 -6.7943 0
M  V30 601 N 53.2116 1.57565 -0.0334293 0
M  V30 602 C 54.1596 2.1164 0.96496 0
M  V30 603 C 55.1536 1.04398 1.33407 0
M  V30 604 O 56.3596 1.22828 1.3158 0
M  V30 605 H 52.7346 0.676222 0.32898 0
M  V30 606 H 54.7056 2.94455 0.483614 0
M  V30 607 C 53.4546 2.66207 2.23672 0
M  V30 608 H 52.7776 3.48378 1.96145 0
M  V30 609 H 54.2176 3.07685 2.9173 0
M  V30 610 C 52.6766 1.59151 2.96939 0
M  V30 611 O 53.2066 0.993858 3.89211 0
M  V30 612 N 51.4126 1.31093 2.59351 0
M  V30 613 H 50.9596 1.7988 1.84393 0
M  V30 614 H 50.9176 0.596889 3.08682 0
M  V30 615 N 54.6897 -0.239769 1.55765 0
M  V30 616 C 55.9197 -0.982743 1.8173 0
M  V30 617 C 56.3277 -1.7917 0.607835 0
M  V30 618 O 55.6707 -1.78525 -0.432973 0
M  V30 619 C 55.7327 -1.96332 3.01155 0
M  V30 620 C 55.3967 -1.34062 4.36894 0
M  V30 621 C 56.3937 -0.739539 5.14613 0
M  V30 622 C 54.0787 -1.35784 4.83599 0
M  V30 623 C 56.0727 -0.163989 6.37189 0
M  V30 624 C 53.7597 -0.778441 6.06122 0
M  V30 625 C 54.7577 -0.182548 6.82756 0
M  V30 626 O 54.4457 0.387887 8.02964 0
M  V30 627 H 54.1777 -0.294481 0.608487 0
M  V30 628 H 56.7317 -0.26572 2.03674 0
M  V30 629 H 54.9617 -2.71884 2.74984 0
M  V30 630 H 56.6507 -2.57032 3.14149 0
M  V30 631 H 57.4167 -0.718687 4.79646 0
M  V30 632 H 53.2957 -1.81105 4.23936 0
M  V30 633 H 56.8397 0.301753 6.96947 0
M  V30 634 H 52.7367 -0.796645 6.40565 0
M  V30 635 H 53.5047 0.28044 8.18019 0
M  V30 636 N 56.1678 -1.49265 -0.50573 0
M  V30 637 C 57.3928 -1.62478 -1.28902 0
M  V30 638 C 57.8178 -0.294332 -1.85783 0
M  V30 639 O 57.1758 0.737412 -1.65626 0
M  V30 640 C 57.2238 -2.69268 -2.39848 0
M  V30 641 O 56.3278 -2.28113 -3.43567 0
M  V30 642 H 55.6688 -0.54399 -0.380751 0
M  V30 643 H 58.1988 -1.95421 -0.605952 0
M  V30 644 H 58.2088 -2.91291 -2.85681 0
M  V30 645 H 56.8838 -3.65846 -1.97812 0
M  V30 646 H 55.4608 -2.16401 -3.03685 0
M  V30 647 N 57.6459 0.756429 -1.3826 0
M  V30 648 C 58.8739 1.54565 -1.3754 0
M  V30 649 C 59.2889 1.88767 0.0355331 0
M  V30 650 O 58.6459 1.52572 1.0014 0
M  V30 651 C 58.6969 2.84654 -2.22833 0
M  V30 652 O 58.4179 2.51912 -3.5843 0
M  V30 653 C 59.9189 3.78807 -2.30261 0
M  V30 654 H 57.1389 0.478353 -0.470553 0
M  V30 655 H 59.6829 0.936381 -1.81803 0
M  V30 656 H 57.8379 3.41965 -1.8204 0
M  V30 657 H 58.2519 3.35325 -4.03308 0
M  V30 658 H 59.7259 4.67045 -2.94233 0
M  V30 659 H 60.2029 4.19038 -1.31545 0
M  V30 660 H 60.8089 3.2742 -2.71433 0
M  V30 661 N 59.124 1.23083 0.984299 0
M  V30 662 C 60.087 1.00979 2.05757 0
M  V30 663 C 61.087 -0.0269573 1.60777 0
M  V30 664 O 62.277 0.212403 1.729 0
M  V30 665 C 59.409 0.527072 3.36801 0
M  V30 666 H 60.602 1.9622 2.26799 0
M  V30 667 H 58.155 1.05072 1.15714 0
M  V30 668 H 58.89 -0.429294 3.21446 0
M  V30 669 H 58.675 1.27515 3.70786 0
M  V30 670 H 60.165 0.392942 4.15747 0
M  V30 671 N 60.6021 -1.18246 1.0419 0
M  V30 672 C 61.5521 -2.19843 0.604392 0
M  V30 673 C 62.5361 -1.56962 -0.353814 0
M  V30 674 O 63.7281 -1.76156 -0.17267 0
M  V30 675 C 60.8571 -3.43287 -0.0298975 0
M  V30 676 C 59.9431 -4.13288 0.951531 0
M  V30 677 N 60.3341 -4.59271 2.11906 0
M  V30 678 C 58.6321 -4.39165 0.7778 0
M  V30 679 C 59.3331 -5.13173 2.73912 0
M  V30 680 N 58.3091 -5.04763 2.01779 0
M  V30 681 H 62.1111 -2.53089 1.4941 0
M  V30 682 H 59.6251 -1.34465 0.910658 0
M  V30 683 H 61.6221 -4.15334 -0.361037 0
M  V30 684 H 60.2821 -3.11537 -0.915127 0
M  V30 685 H 61.2931 -4.5368 2.49789 0
M  V30 686 H 57.9701 -4.17461 -0.0572331 0
M  V30 687 H 59.3601 -5.58947 3.72864 0
M  V30 688 N 62.0802 -0.821533 -1.34494 0
M  V30 689 C 63.3052 -0.420873 -2.03085 0
M  V30 690 C 63.7302 0.964915 -1.61465 0
M  V30 691 O 63.0882 1.62763 -0.798607 0
M  V30 692 C 63.1362 -0.529414 -3.56693 0
M  V30 693 O 62.2402 0.451302 -4.09923 0
M  V30 694 H 61.5812 -0.173489 -0.640935 0
M  V30 695 H 64.1112 -1.11157 -1.71771 0
M  V30 696 H 64.1212 -0.404671 -4.05988 0
M  V30 697 H 62.7962 -1.54014 -3.86332 0
M  V30 698 H 61.3732 0.285558 -3.71805 0
M  V30 699 N 63.5583 1.46682 -0.576371 0
M  V30 700 C 64.5213 2.28707 0.150239 0
M  V30 701 C 65.5213 1.38035 0.824794 0
M  V30 702 O 66.7113 1.60476 0.677719 0
M  V30 703 C 63.8433 3.18248 1.22192 0
M  V30 704 H 65.0363 2.94423 -0.570521 0
M  V30 705 H 62.5893 1.52688 -0.334078 0
M  V30 706 H 63.3243 2.57265 1.97447 0
M  V30 707 H 63.1093 3.85 0.742812 0
M  V30 708 H 64.5993 3.80001 1.73172 0
M  V30 709 N 65.0364 0.313813 1.54444 0
M  V30 710 C 66.2844 -0.291099 1.99993 0
M  V30 711 C 66.6054 -1.53418 1.20366 0
M  V30 712 O 65.8754 -1.93544 0.302927 0
M  V30 713 H 64.4554 -0.110552 0.738774 0
M  V30 714 H 67.1174 0.428106 1.9014 0
M  V30 715 H 66.2134 -0.554268 3.07139 0
M  V30 716 N 66.5145 -1.57545 0.0417849 0
M  V30 717 C 67.4445 -2.14009 -0.933929 0
M  V30 718 C 68.4255 -1.05938 -1.33083 0
M  V30 719 O 69.6105 -1.33833 -1.40721 0
M  V30 720 C 66.7405 -2.67747 -2.21199 0
M  V30 721 C 65.6945 -3.80718 -1.95544 0
M  V30 722 C 65.0205 -4.20935 -3.29724 0
M  V30 723 C 66.3205 -5.06258 -1.28452 0
M  V30 724 H 68.0145 -2.95788 -0.463645 0
M  V30 725 H 65.5605 -1.42285 -0.221573 0
M  V30 726 H 67.5135 -3.05886 -2.89848 0
M  V30 727 H 66.2375 -1.83147 -2.70416 0
M  V30 728 H 64.8965 -3.43037 -1.2931 0
M  V30 729 H 64.5445 -3.33298 -3.76724 0
M  V30 730 H 64.2445 -4.9707 -3.13361 0
M  V30 731 H 65.7685 -4.61666 -3.9962 0
M  V30 732 H 67.1825 -5.41903 -1.8712 0
M  V30 733 H 65.5795 -5.87475 -1.22445 0
M  V30 734 H 66.6495 -4.84207 -0.259219 0
M  V30 735 N 67.9926 0.231505 -1.5589 0
M  V30 736 C 69.2206 0.974505 -1.82513 0
M  V30 737 C 69.6356 1.78344 -0.619591 0
M  V30 738 O 68.9926 1.77792 0.411848 0
M  V30 739 C 69.0436 1.90007 -3.07538 0
M  V30 740 O 68.7646 1.12385 -4.2344 0
M  V30 741 C 70.2656 2.75779 -3.47075 0
M  V30 742 H 67.4856 0.286065 -0.606966 0
M  V30 743 H 70.0296 0.249739 -2.02969 0
M  V30 744 H 68.1846 2.57891 -2.89086 0
M  V30 745 H 68.5986 1.75125 -4.944 0
M  V30 746 H 70.0726 3.36443 -4.37619 0
M  V30 747 H 70.5496 3.47672 -2.68367 0
M  V30 748 H 71.1556 2.13323 -3.67931 0
M  V30 749 N 69.4707 1.49531 0.497807 0
M  V30 750 C 70.4007 1.6935 1.60757 0
M  V30 751 C 71.3817 0.542218 1.61227 0
M  V30 752 O 72.5667 0.778417 1.77917 0
M  V30 753 C 69.6967 1.76298 2.99226 0
M  V30 754 C 68.6507 2.91248 3.13622 0
M  V30 755 C 67.9767 2.83312 4.53474 0
M  V30 756 C 69.2767 4.3214 2.93346 0
M  V30 757 H 70.9707 2.62263 1.44425 0
M  V30 758 H 68.5167 1.26208 0.693367 0
M  V30 759 H 70.4697 1.88749 3.76765 0
M  V30 760 H 69.1937 0.799871 3.16654 0
M  V30 761 H 67.8527 2.78404 2.38509 0
M  V30 762 H 67.5007 1.84902 4.67782 0
M  V30 763 H 67.2007 3.60465 4.64046 0
M  V30 764 H 68.7247 2.97775 5.33069 0
M  V30 765 H 70.1387 4.45649 3.60652 0
M  V30 766 H 68.5357 5.1054 3.15387 0
M  V30 767 H 69.6057 4.46363 1.89441 0
M  V30 768 N 70.9488 -0.749086 1.3866 0
M  V30 769 C 72.1978 -1.50371 1.3443 0
M  V30 770 C 72.5108 -1.95503 -0.0616397 0
M  V30 771 O 73.7168 -2.70554 -0.226489 0
M  V30 772 C 72.1728 -2.71644 2.36088 0
M  V30 773 C 71.7808 -2.3352 3.82325 0
M  V30 774 C 73.5248 -3.49518 2.40909 0
M  V30 775 C 71.4318 -3.51431 4.75658 0
M  V30 776 H 70.3618 -0.564628 0.499712 0
M  V30 777 H 73.0128 -0.818449 1.64237 0
M  V30 778 H 71.3948 -3.42175 1.9933 0
M  V30 779 H 72.5688 -1.70627 4.28046 0
M  V30 780 H 70.8838 -1.6877 3.80665 0
M  V30 781 H 73.4808 -4.37197 3.07836 0
M  V30 782 H 73.8238 -3.90992 1.42937 0
M  V30 783 H 74.3568 -2.86005 2.76489 0
M  V30 784 H 71.0958 -3.15019 5.74842 0
M  V30 785 H 70.6158 -4.13352 4.34627 0
M  V30 786 H 72.2948 -4.17953 4.93887 0
M  V30 787 N 72.4269 -1.23603 -0.977757 0
M  V30 788 C 73.6729 -1.08136 -1.72274 0
M  V30 789 C 74.0279 0.377453 -1.88661 0
M  V30 790 O 73.3209 1.27552 -1.42972 0
M  V30 791 C 73.5149 -1.7433 -3.11999 0
M  V30 792 C 73.3439 -3.26498 -3.0924 0
M  V30 793 C 72.1139 -3.9567 -3.14282 0
M  V30 794 C 74.3119 -4.2323 -2.92201 0
M  V30 795 N 72.2939 -5.34799 -3.01436 0
M  V30 796 C 73.6649 -5.49289 -2.87544 0
M  V30 797 C 75.7199 -4.13931 -2.76705 0
M  V30 798 C 74.4229 -6.67116 -2.68978 0
M  V30 799 C 76.4489 -5.31424 -2.59504 0
M  V30 800 C 75.8109 -6.5641 -2.55548 0
M  V30 801 H 71.9099 -0.450247 -0.639376 0
M  V30 802 H 74.4939 -1.5637 -1.16002 0
M  V30 803 H 72.6649 -1.28624 -3.66484 0
M  V30 804 H 74.3969 -1.51815 -3.75146 0
M  V30 805 H 71.1519 -3.46767 -3.22567 0
M  V30 806 H 71.5759 -6.07748 -2.98281 0
M  V30 807 H 76.2179 -3.1807 -2.78552 0
M  V30 808 H 73.9359 -7.63109 -2.65876 0
M  V30 809 H 77.5219 -5.26072 -2.48474 0
M  V30 810 H 76.4019 -7.45795 -2.42405 0
M  V30 811 N 73.905 1.17692 -1.04816 0
M  V30 812 C 75.135 1.91508 -0.775128 0
M  V30 813 C 75.543 1.76844 0.67253 0
M  V30 814 O 74.886 1.10057 1.47082 0
M  V30 815 C 74.948 3.43167 -1.0713 0
M  V30 816 C 74.612 3.81612 -2.51438 0
M  V30 817 C 75.609 3.84772 -3.49638 0
M  V30 818 C 73.294 4.12687 -2.86348 0
M  V30 819 C 75.288 4.18469 -4.80794 0
M  V30 820 C 72.975 4.46053 -4.17708 0
M  V30 821 C 73.973 4.48921 -5.14741 0
M  V30 822 O 73.661 4.81504 -6.43746 0
M  V30 823 H 73.393 0.614575 -0.281555 0
M  V30 824 H 75.947 1.50206 -1.40098 0
M  V30 825 H 74.177 3.84745 -0.388342 0
M  V30 826 H 75.866 3.98239 -0.784883 0
M  V30 827 H 76.632 3.60893 -3.24008 0
M  V30 828 H 72.511 4.09627 -2.11486 0
M  V30 829 H 76.055 4.20623 -5.56527 0
M  V30 830 H 71.952 4.69393 -4.43103 0
M  V30 831 H 72.72 4.99377 -6.4851 0
M  V30 832 N 75.3831 0.828654 1.34056 0
M  V30 833 C 76.6291 0.429279 1.98818 0
M  V30 834 C 76.9841 -0.998011 1.64492 0
M  V30 835 O 76.2771 -1.68652 0.909228 0
M  V30 836 C 76.4711 0.575226 3.52741 0
M  V30 837 C 76.3001 2.01515 4.02022 0
M  V30 838 C 75.0701 2.64825 4.30344 0
M  V30 839 C 77.2681 2.98261 4.18981 0
M  V30 840 N 75.2501 3.99998 4.65698 0
M  V30 841 C 76.6211 4.18356 4.57578 0
M  V30 842 C 78.6761 2.94802 4.01243 0
M  V30 843 C 77.3791 5.35454 4.80293 0
M  V30 844 C 79.4051 4.11121 4.25128 0
M  V30 845 C 78.7671 5.29969 4.64018 0
M  V30 846 H 74.8661 0.205304 0.754569 0
M  V30 847 H 77.4501 1.07457 1.62361 0
M  V30 848 H 75.6211 -0.0401962 3.88379 0
M  V30 849 H 77.3531 0.148292 4.04428 0
M  V30 850 H 74.1081 2.16027 4.21461 0
M  V30 851 H 74.5321 4.69653 4.87601 0
M  V30 852 H 79.1741 2.04054 3.70299 0
M  V30 853 H 76.8921 6.26755 5.10102 0
M  V30 854 H 80.4781 4.0985 4.12934 0
M  V30 855 H 79.3581 6.18479 4.82134 0
M  V30 856 N 76.8612 -1.46375 0.584142 0
M  V30 857 C 78.0892 -2.06761 0.0759296 0
M  V30 858 C 78.5042 -1.43266 -1.22965 0
M  V30 859 O 77.8612 -0.538458 -1.74376 0
M  V30 860 C 77.9122 -3.61375 -0.0950384 0
M  V30 861 O 77.6332 -4.22495 1.15887 0
M  V30 862 C 79.1342 -4.38693 -0.637434 0
M  V30 863 H 76.3542 -0.668479 0.0581075 0
M  V30 864 H 78.8982 -1.8798 0.805218 0
M  V30 865 H 77.0532 -3.79578 -0.774554 0
M  V30 866 H 77.4672 -5.15385 0.973598 0
M  V30 867 H 78.9412 -5.47464 -0.706237 0
M  V30 868 H 79.4182 -4.06836 -1.65472 0
M  V30 869 H 80.0242 -4.25299 0.00725967 0
M  V30 870 N 78.3393 -0.321999 -1.54275 0
M  V30 871 C 79.7553 0.0306999 -1.5957 0
M  V30 872 C 79.9553 1.50614 -1.33857 0
M  V30 873 O 79.0113 2.2619 -1.12223 0
M  V30 874 C 80.3243 -0.386122 -2.98211 0
M  V30 875 C 81.8723 -0.336647 -3.11184 0
M  V30 876 C 82.3473 -0.728607 -4.52167 0
M  V30 877 N 83.8383 -0.681952 -4.58152 0
M  V30 878 C 84.5733 -0.957449 -5.6535 0
M  V30 879 N 84.0693 -1.3 -6.80494 0
M  V30 880 N 85.8623 -0.883113 -5.55119 0
M  V30 881 H 78.0133 -1.28332 -1.69247 0
M  V30 882 H 80.2763 -0.521716 -0.791528 0
M  V30 883 H 79.9823 -1.41404 -3.22022 0
M  V30 884 H 79.8563 0.249662 -3.76373 0
M  V30 885 H 82.2433 0.682058 -2.8711 0
M  V30 886 H 82.3243 -1.00734 -2.3513 0
M  V30 887 H 81.9683 -1.74522 -4.76974 0
M  V30 888 H 81.8983 -0.0356152 -5.26588 0
M  V30 889 H 84.3893 -0.428985 -3.75457 0
M  V30 890 H 84.7023 -1.49563 -7.58189 0
M  V30 891 H 83.0473 -1.33824 -6.81994 0
M  V30 892 H 86.2383 -0.615001 -4.64042 0
M  V30 893 H 86.4113 -1.10118 -6.38575 0
M  V30 894 N 79.8174 1.5752 -0.0501392 0
M  V30 895 C 80.7494 2.08413 0.95376 0
M  V30 896 C 81.7624 1.01175 1.27544 0
M  V30 897 O 82.9514 1.28744 1.23641 0
M  V30 898 C 80.0514 2.51138 2.27559 0
M  V30 899 C 79.2244 3.817 2.13598 0
M  V30 900 C 78.2834 4.10749 3.28895 0
M  V30 901 O 77.3094 4.80685 3.04845 0
M  V30 902 N 78.5114 3.62579 4.5334 0
M  V30 903 H 81.2764 2.95165 0.519383 0
M  V30 904 H 78.8374 1.61327 0.136127 0
M  V30 905 H 80.8294 2.67648 3.03557 0
M  V30 906 H 79.3994 1.6964 2.62567 0
M  V30 907 H 78.6194 3.74782 1.22197 0
M  V30 908 H 79.9074 4.67201 2.01496 0
M  V30 909 H 79.3054 3.06039 4.75769 0
M  V30 910 H 77.8624 3.84329 5.26436 0
M  V30 911 N 81.2955 -0.223234 1.56011 0
M  V30 912 C 82.5725 -0.972108 1.69733 0
M  V30 913 C 82.9525 -2.02485 0.59691 0
M  V30 914 O 82.3005 -2.25037 -0.396324 0
M  V30 915 C 82.5105 -1.58407 3.10979 0
M  V30 916 C 83.8585 -2.07696 3.70334 0
M  V30 917 O 84.8825 -1.68304 3.1393 0
M  V30 918 O 83.7415 -2.80096 4.69264 0
M  V30 919 H 80.8355 -0.453993 0.691245 0
M  V30 920 H 83.3815 -0.215149 1.68331 0
M  V30 921 H 82.1535 -0.823831 3.82529 0
M  V30 922 H 81.7765 -2.40661 3.16493 0
M  V30 923 N 82.7736 -1.49793 -0.48987 0
M  V30 924 C 84.1896 -1.36803 -0.822022 0
M  V30 925 C 84.3896 -0.409652 -1.97292 0
M  V30 926 O 83.4456 0.154614 -2.52026 0
M  V30 927 C 84.7586 -2.77768 -1.15175 0
M  V30 928 C 86.3066 -2.86549 -1.25931 0
M  V30 929 C 86.7816 -4.28306 -1.62228 0
M  V30 930 N 88.2726 -4.31169 -1.69256 0
M  V30 931 C 89.0076 -5.37832 -1.98807 0
M  V30 932 N 88.5036 -6.54726 -2.26507 0
M  V30 933 N 90.2966 -5.25258 -2.00152 0
M  V30 934 H 82.4476 -2.10691 0.268881 0
M  V30 935 H 84.7106 -0.946241 0.057728 0
M  V30 936 H 84.4166 -3.49648 -0.379335 0
M  V30 937 H 84.2906 -3.13836 -2.09253 0
M  V30 938 H 86.6776 -2.14899 -2.02243 0
M  V30 939 H 86.7586 -2.54049 -0.298776 0
M  V30 940 H 86.4026 -5.00486 -0.864622 0
M  V30 941 H 86.3326 -4.58279 -2.594 0
M  V30 942 H 88.8236 -3.4687 -1.49965 0
M  V30 943 H 89.1366 -7.31833 -2.48276 0
M  V30 944 H 87.4816 -6.57933 -2.23939 0
M  V30 945 H 90.6726 -4.32938 -1.77996 0
M  V30 946 H 90.8456 -6.08476 -2.22848 0
M  V30 947 N 84.2517 0.741722 -1.39055 0
M  V30 948 C 85.5287 1.49252 -1.26425 0
M  V30 949 C 85.9087 2.10705 0.129144 0
M  V30 950 O 85.2567 1.98045 1.13976 0
M  V30 951 C 85.4667 2.54934 -2.38347 0
M  V30 952 C 86.8147 3.21506 -2.77343 0
M  V30 953 O 87.8387 2.65245 -2.37747 0
M  V30 954 O 86.6977 4.23294 -3.45665 0
M  V30 955 H 83.7917 0.662451 -0.495064 0
M  V30 956 H 86.3377 0.776121 -1.50912 0
M  V30 957 H 85.1097 2.07857 -3.31529 0
M  V30 958 H 84.7327 3.34141 -2.15489 0
M  V30 959 N 85.7298 1.2412 0.971189 0
M  V30 960 C 86.6598 1.05508 2.08304 0
M  V30 961 C 87.6408 -0.0308864 1.70072 0
M  V30 962 O 88.8258 0.135521 1.93727 0
M  V30 963 C 85.9558 0.655365 3.4106 0
M  V30 964 C 84.9098 1.68971 3.93234 0
M  V30 965 C 84.2358 1.14516 5.22293 0
M  V30 966 C 85.5358 3.08487 4.21465 0
M  V30 967 H 87.2298 1.98507 2.24132 0
M  V30 968 H 84.7758 0.955821 1.07704 0
M  V30 969 H 86.7288 0.51217 4.18276 0
M  V30 970 H 85.4528 -0.31032 3.25122 0
M  V30 971 H 84.1118 1.82106 3.18171 0
M  V30 972 H 83.7598 0.170189 5.02712 0
M  V30 973 H 83.4598 1.83635 5.58168 0
M  V30 974 H 84.9838 1.01401 6.02121 0
M  V30 975 H 86.3978 2.98601 4.89398 0
M  V30 976 H 84.7948 3.74926 4.68562 0
M  V30 977 H 85.8648 3.56787 3.28376 0
M  V30 978 N 87.2079 -1.17134 1.05439 0
M  V30 979 C 88.1179 -2.24878 0.668365 0
M  V30 980 C 89.1339 -1.71186 -0.311687 0
M  V30 981 O 90.3099 -2.00738 -0.163161 0
M  V30 982 C 87.3749 -3.46662 0.051648 0
M  V30 983 C 86.4359 -4.15429 1.08246 0
M  V30 984 C 85.6689 -5.31399 0.495082 0
M  V30 985 O 85.8919 -5.66153 -0.694743 0
M  V30 986 O 84.8259 -5.89187 1.23056 0
M  V30 987 H 88.6519 -2.60189 1.56637 0
M  V30 988 H 86.2369 -1.24482 0.826104 0
M  V30 989 H 88.1189 -4.20394 -0.290966 0
M  V30 990 H 86.7939 -3.13142 -0.819971 0
M  V30 991 H 85.7009 -3.43704 1.47711 0
M  V30 992 H 87.0339 -4.52982 1.92532 0
M  V30 993 N 88.686 -0.835752 -1.33615 0
M  V30 994 C 89.596 -0.269088 -2.33052 0
M  V30 995 C 90.612 0.603251 -1.63208 0
M  V30 996 O 91.788 0.508112 -1.94885 0
M  V30 997 C 88.853 0.549091 -3.42324 0
M  V30 998 C 87.914 -0.347156 -4.27894 0
M  V30 999 C 87.147 0.43207 -5.31948 0
M  V30 1000 O 87.37 1.66409 -5.45586 0
M  V30 1001 O 86.304 -0.192298 -6.01593 0
M  V30 1002 H 90.13 -1.09243 -2.83372 0
M  V30 1003 H 87.715 -0.598198 -1.36901 0
M  V30 1004 H 89.597 1.01414 -4.09015 0
M  V30 1005 H 88.272 1.34955 -2.94226 0
M  V30 1006 H 87.179 -0.859979 -3.64081 0
M  V30 1007 H 88.512 -1.1123 -4.79467 0
M  V30 1008 N 90.1641 1.46063 -0.591896 0
M  V30 1009 C 91.5751 1.85944 -0.167822 0
M  V30 1010 C 91.9261 1.49429 1.27143 0
M  V30 1011 O 91.0511 0.913515 1.96173 0
M  V30 1012 C 91.6461 3.37489 -0.297794 0
M  V30 1013 C 90.2051 3.76332 0.0714732 0
M  V30 1014 C 89.3521 2.7006 -0.629509 0
M  V30 1015 H 92.3031 1.37087 -0.799555 0
M  V30 1016 H 92.3241 3.77532 0.474349 0
M  V30 1017 H 91.8361 3.64034 -1.3454 0
M  V30 1018 H 89.9371 3.55405 1.11886 0
M  V30 1019 H 90.0501 4.78088 -0.311245 0
M  V30 1020 H 88.4141 2.54607 -0.0687867 0
M  V30 1021 H 89.1971 2.99444 -1.67894 0
M  V30 1022 N 91.6422 0.330177 1.54103 0
M  V30 1023 C 92.8912 -0.271336 1.99867 0
M  V30 1024 C 93.2042 -1.52723 1.22209 0
M  V30 1025 O 94.4102 -2.20515 1.58383 0
M  V30 1026 C 92.8662 -0.534032 3.55916 0
M  V30 1027 C 92.4742 0.705193 4.42415 0
M  V30 1028 C 94.2182 -1.09514 4.1013 0
M  V30 1029 C 92.1252 0.414035 5.89949 0
M  V30 1030 H 91.0552 -0.105166 0.74663 0
M  V30 1031 H 93.7062 0.443429 1.78062 0
M  V30 1032 H 92.0882 -1.30915 3.73734 0
M  V30 1033 H 93.2622 1.4804 4.36372 0
M  V30 1034 H 91.5772 1.18698 3.99124 0
M  V30 1035 H 94.1742 -1.3277 5.17954 0
M  V30 1036 H 94.5172 -2.04656 3.62521 0
M  V30 1037 H 95.0502 -0.381038 3.95971 0
M  V30 1038 H 91.7892 1.33481 6.41766 0
M  V30 1039 H 91.3092 -0.323336 5.98928 0
M  V30 1040 H 92.9882 0.0263105 6.46995 0
M  V30 1041 N 93.1203 -1.57491 0.0584922 0
M  V30 1042 C 94.0683 -2.13148 -0.931168 0
M  V30 1043 C 95.0623 -1.06507 -1.31729 0
M  V30 1044 O 96.2683 -1.24906 -1.29609 0
M  V30 1045 H 92.6433 -0.68137 -0.31818 0
M  V30 1046 H 94.6143 -2.95187 -0.436707 0
M  V30 1047 C 93.3633 -2.69732 -2.19408 0
M  V30 1048 H 92.6863 -3.51454 -1.90578 0
M  V30 1049 H 94.1263 -3.12287 -2.86798 0
M  V30 1050 C 92.5853 -1.63855 -2.94369 0
M  V30 1051 O 93.1153 -1.05565 -3.87581 0
M  V30 1052 N 91.3213 -1.35202 -2.57233 0
M  V30 1053 H 90.8683 -1.82791 -1.81508 0
M  V30 1054 H 90.8263 -0.645922 -3.07693 0
M  V30 1055 N 94.5984 0.214957 -1.56127 0
M  V30 1056 C 95.8454 0.938372 -1.79446 0
M  V30 1057 C 96.1734 1.8407 -0.628378 0
M  V30 1058 O 95.4284 1.91837 0.386925 0
M  V30 1059 C 95.7274 1.80314 -3.0858 0
M  V30 1060 C 95.3934 1.05349 -4.3842 0
M  V30 1061 C 94.0554 0.846435 -4.73697 0
M  V30 1062 C 96.4074 0.524588 -5.18553 0
M  V30 1063 C 93.7354 0.098683 -5.86617 0
M  V30 1064 C 96.0874 -0.209853 -6.32252 0
M  V30 1065 C 94.7514 -0.428102 -6.66126 0
M  V30 1066 H 94.0214 0.343375 -0.656639 0
M  V30 1067 H 96.6684 0.206077 -1.90388 0
M  V30 1068 H 94.9734 2.6035 -2.92789 0
M  V30 1069 H 96.6704 2.36513 -3.23825 0
M  V30 1070 H 93.2604 1.22486 -4.10725 0
M  V30 1071 H 97.4444 0.672008 -4.91729 0
M  V30 1072 H 92.7004 -0.0805753 -6.11347 0
M  V30 1073 H 96.8744 -0.627157 -6.9357 0
M  V30 1074 H 94.5014 -1.00944 -7.53468 0
M  V30 1075 N 96.0765 1.50051 0.48192 0
M  V30 1076 C 97.4925 1.37237 0.814756 0
M  V30 1077 C 97.6925 0.420109 1.97072 0
M  V30 1078 O 96.7485 -0.141246 2.52105 0
M  V30 1079 C 98.0615 2.78375 1.13701 0
M  V30 1080 C 99.6095 2.87213 1.2441 0
M  V30 1081 C 100.084 4.29161 1.59954 0
M  V30 1082 N 101.575 4.32061 1.66967 0
M  V30 1083 C 102.31 5.38879 1.95952 0
M  V30 1084 N 101.806 6.55918 2.23031 0
M  V30 1085 N 103.599 5.26312 1.97363 0
M  V30 1086 H 95.7505 2.10546 -0.28005 0
M  V30 1087 H 98.0135 0.945921 -0.0627454 0
M  V30 1088 H 97.7195 3.49845 0.360787 0
M  V30 1089 H 97.5935 3.14941 2.07586 0
M  V30 1090 H 99.9805 2.15969 2.01101 0
M  V30 1091 H 100.061 2.54204 0.285299 0
M  V30 1092 H 99.7055 5.00938 0.838067 0
M  V30 1093 H 99.6355 4.59648 2.56966 0
M  V30 1094 H 102.126 3.47661 1.48123 0
M  V30 1095 H 102.439 7.33139 2.44391 0
M  V30 1096 H 100.784 6.59112 2.20447 0
M  V30 1097 H 103.975 4.33876 1.75697 0
M  V30 1098 H 104.148 6.09649 2.19618 0
M  V30 1099 N 97.5546 -0.734337 1.39446 0
M  V30 1100 C 98.4846 -1.86155 1.40955 0
M  V30 1101 C 99.4656 -1.67898 0.272827 0
M  V30 1102 O 100.651 -1.88207 0.478743 0
M  V30 1103 C 97.7806 -3.23912 1.25294 0
M  V30 1104 C 96.7346 -3.56808 2.36373 0
M  V30 1105 C 96.0606 -4.93508 2.058 0
M  V30 1106 C 97.3606 -3.59713 3.78687 0
M  V30 1107 H 99.0546 -1.8515 2.35287 0
M  V30 1108 H 96.6006 -0.889367 1.13253 0
M  V30 1109 H 98.5536 -4.02443 1.2497 0
M  V30 1110 H 97.2776 -3.25446 0.274308 0
M  V30 1111 H 95.9366 -2.80606 2.35914 0
M  V30 1112 H 95.5846 -4.91623 1.06374 0
M  V30 1113 H 95.2846 -5.16486 2.80208 0
M  V30 1114 H 96.8086 -5.74396 2.07128 0
M  V30 1115 H 98.2226 -4.2832 3.81071 0
M  V30 1116 H 96.6196 -3.94209 4.52459 0
M  V30 1117 H 97.6896 -2.59504 4.09617 0
M  V30 1118 N 99.0327 -1.24633 -0.964593 0
M  V30 1119 C 100.444 -1.08045 -1.5226 0
M  V30 1120 C 100.795 0.347116 -1.93105 0
M  V30 1121 O 99.9197 1.23588 -1.77637 0
M  V30 1122 C 100.515 -1.95514 -2.76695 0
M  V30 1123 C 99.0737 -1.8314 -3.28841 0
M  V30 1124 C 98.2207 -1.90262 -2.01732 0
M  V30 1125 H 101.172 -1.38064 -0.782553 0
M  V30 1126 H 101.193 -1.48925 -3.50145 0
M  V30 1127 H 100.705 -2.99407 -2.46936 0
M  V30 1128 H 98.8057 -0.82092 -3.63444 0
M  V30 1129 H 98.9187 -2.67406 -3.97531 0
M  V30 1130 H 97.2827 -1.34027 -2.16584 0
M  V30 1131 H 98.0657 -2.9574 -1.74334 0
M  V30 1132 N 100.511 1.16574 -1.06058 0
M  V30 1133 C 101.421 2.2452 -0.680282 0
M  V30 1134 C 102.437 1.71348 0.302604 0
M  V30 1135 O 103.613 2.00822 0.152513 0
M  V30 1136 C 100.678 3.46629 -0.0700315 0
M  V30 1137 C 99.7388 4.14849 -1.10448 0
M  V30 1138 C 98.9718 5.31129 -0.523256 0
M  V30 1139 O 99.1948 5.66514 0.664709 0
M  V30 1140 O 98.1288 5.88526 -1.26179 0
M  V30 1141 H 101.955 2.59355 -1.58015 0
M  V30 1142 H 99.5398 1.24043 -0.832694 0
M  V30 1143 H 101.422 4.20543 0.268667 0
M  V30 1144 H 100.097 3.13573 0.803353 0
M  V30 1145 H 99.0038 3.42916 -1.49532 0
M  V30 1146 H 100.337 4.51954 -1.94931 0
M  V30 1147 N 101.989 0.842826 1.3317 0
M  V30 1148 C 102.937 0.267495 2.31057 0
M  V30 1149 C 103.931 -0.602682 1.58316 0
M  V30 1150 O 105.137 -0.491803 1.73151 0
M  V30 1151 H 101.512 0.0677813 0.748939 0
M  V30 1152 H 103.483 1.10754 2.77085 0
M  V30 1153 C 102.232 -0.539331 3.43492 0
M  V30 1154 H 101.555 0.12095 3.99617 0
M  V30 1155 H 102.995 -0.90767 4.14171 0
M  V30 1156 C 101.454 -1.71981 2.89697 0
M  V30 1157 O 101.984 -2.81862 2.86211 0
M  V30 1158 N 100.19 -1.54299 2.46252 0
M  V30 1159 H 99.7369 -0.649143 2.49287 0
M  V30 1160 H 99.6949 -2.33431 2.10612 0
M  V30 1161 N 103.467 -1.45747 0.599634 0
M  V30 1162 C 104.883 -1.57424 0.26264 0
M  V30 1163 C 105.083 -1.59222 -1.23493 0
M  V30 1164 O 104.139 -1.51825 -2.01756 0
M  V30 1165 C 105.452 -2.86061 0.926795 0
M  V30 1166 C 107 -2.99722 0.901967 0
M  V30 1167 C 107.475 -4.31119 1.54598 0
M  V30 1168 N 108.966 -4.37858 1.5111 0
M  V30 1169 C 109.701 -5.3818 1.97863 0
M  V30 1170 N 109.197 -6.45083 2.52666 0
M  V30 1171 N 110.99 -5.29487 1.88679 0
M  V30 1172 H 103.141 -1.42823 1.57211 0
M  V30 1173 H 105.404 -0.68235 0.658105 0
M  V30 1174 H 105.11 -2.90605 1.98095 0
M  V30 1175 H 104.984 -3.74563 0.445238 0
M  V30 1176 H 107.371 -2.9475 -0.143617 0
M  V30 1177 H 107.452 -2.12652 1.42171 0
M  V30 1178 H 107.096 -4.36849 2.59085 0
M  V30 1179 H 107.026 -5.16992 1.00132 0
M  V30 1180 H 109.517 -3.61209 1.11068 0
M  V30 1181 H 109.83 -7.17869 2.86155 0
M  V30 1182 H 108.175 -6.45856 2.56701 0
M  V30 1183 H 111.366 -4.44877 1.4561 0
M  V30 1184 H 111.539 -6.07524 2.25429 0
M  V30 1185 N 104.945 -0.338344 -1.53925 0
M  V30 1186 C 106.194 0.260732 -2.00008 0
M  V30 1187 C 106.507 1.52073 -1.23017 0
M  V30 1188 O 107.713 2.19672 -1.5955 0
M  V30 1189 C 106.169 0.51515 -3.56194 0
M  V30 1190 C 105.777 -0.728645 -4.42035 0
M  V30 1191 C 107.521 1.07337 -4.10706 0
M  V30 1192 C 105.428 -0.445315 -5.89721 0
M  V30 1193 H 104.358 0.101205 -0.747177 0
M  V30 1194 H 107.009 -0.452866 -1.77824 0
M  V30 1195 H 105.391 1.28932 -3.74423 0
M  V30 1196 H 106.565 -1.50352 -4.35581 0
M  V30 1197 H 104.88 -1.20813 -3.98489 0
M  V30 1198 H 107.477 1.30022 -5.18651 0
M  V30 1199 H 107.82 2.0273 -3.63602 0
M  V30 1200 H 108.353 0.360034 -3.96167 0
M  V30 1201 H 105.092 -1.36883 -6.41049 0
M  V30 1202 H 104.612 0.291569 -5.99091 0
M  V30 1203 H 106.291 -0.0606218 -6.46972 0
M  V30 1204 N 106.423 1.57458 -0.0668435 0
M  V30 1205 C 107.648 1.9804 0.616027 0
M  V30 1206 C 108.073 0.944771 1.62652 0
M  V30 1207 O 107.431 -0.0902094 1.81075 0
M  V30 1208 C 107.479 3.37665 1.26549 0
M  V30 1209 O 106.583 3.36701 2.38131 0
M  V30 1210 H 105.924 0.644719 0.158849 0
M  V30 1211 H 108.454 2.04121 -0.139891 0
M  V30 1212 H 108.464 3.7474 1.6135 0
M  V30 1213 H 107.139 4.12573 0.525016 0
M  V30 1214 H 105.716 3.1139 2.0516 0
M  V30 1215 N 107.901 -0.206675 1.56239 0
M  V30 1216 C 108.848 -1.25617 1.93621 0
M  V30 1217 C 109.818 -1.45824 0.795274 0
M  V30 1218 O 111.003 -1.59148 1.05245 0
M  V30 1219 C 108.143 -2.59839 2.27107 0
M  V30 1220 C 107.256 -2.47308 3.54207 0
M  V30 1221 C 106.391 -3.74155 3.7707 0
M  V30 1222 C 105.43 -3.56407 4.97635 0
M  V30 1223 N 104.567 -4.75238 5.1681 0
M  V30 1224 H 109.407 -0.930383 2.83104 0
M  V30 1225 H 106.944 -0.448065 1.4011 0
M  V30 1226 H 108.902 -3.38021 2.44535 0
M  V30 1227 H 107.532 -2.90485 1.40778 0
M  V30 1228 H 106.584 -1.60483 3.4489 0
M  V30 1229 H 107.896 -2.30122 4.42544 0
M  V30 1230 H 107.05 -4.60778 3.94675 0
M  V30 1231 H 105.789 -3.94282 2.87042 0
M  V30 1232 H 104.794 -2.68168 4.79964 0
M  V30 1233 H 106.019 -3.37736 5.89161 0
M  V30 1234 H 103.965 -4.95651 4.29728 0
M  V30 1235 H 103.882 -4.60835 5.99306 0
M  V30 1236 H 105.15 -5.63246 5.38864 0
M  V30 1237 N 109.379 -1.50304 -0.473955 0
M  V30 1238 C 110.289 -1.7174 -1.5982 0
M  V30 1239 C 111.305 -0.600457 -1.63311 0
M  V30 1240 O 112.481 -0.878441 -1.81233 0
M  V30 1241 C 109.546 -1.80427 -2.96052 0
M  V30 1242 C 108.607 -3.04148 -3.02972 0
M  V30 1243 C 107.84 -3.12411 -4.32706 0
M  V30 1244 O 108.063 -2.27542 -5.23049 0
M  V30 1245 O 106.997 -4.05113 -4.45159 0
M  V30 1246 H 110.823 -2.67035 -1.44657 0
M  V30 1247 H 108.408 -1.34366 -0.653148 0
M  V30 1248 H 110.29 -1.88338 -3.7697 0
M  V30 1249 H 108.965 -0.883156 -3.11419 0
M  V30 1250 H 107.872 -3.0174 -2.21142 0
M  V30 1251 H 109.205 -3.95829 -2.92541 0
M  V30 1252 N 110.857 0.726932 -1.39834 0
M  V30 1253 C 111.804 1.841 -1.39197 0
M  V30 1254 C 112.774 1.642 -0.250502 0
M  V30 1255 O 113.959 1.85494 -0.446846 0
M  V30 1256 C 111.099 3.21697 -1.24919 0
M  V30 1257 C 110.212 3.53247 -2.48678 0
M  V30 1258 C 109.347 4.80289 -2.26928 0
M  V30 1259 C 108.386 5.04707 -3.4632 0
M  V30 1260 N 107.523 6.22956 -3.23836 0
M  V30 1261 H 112.363 1.83979 -2.34427 0
M  V30 1262 H 109.9 0.898876 -1.16442 0
M  V30 1263 H 111.858 4.01137 -1.1465 0
M  V30 1264 H 110.488 3.21076 -0.333153 0
M  V30 1265 H 109.54 2.68447 -2.69519 0
M  V30 1266 H 110.852 3.67205 -3.37582 0
M  V30 1267 H 110.006 5.67725 -2.13947 0
M  V30 1268 H 108.745 4.68519 -1.35431 0
M  V30 1269 H 107.75 4.1573 -3.5979 0
M  V30 1270 H 108.975 5.18357 -4.38729 0
M  V30 1271 H 106.921 6.12459 -2.35011 0
M  V30 1272 H 106.838 6.37539 -4.063 0
M  V30 1273 H 108.106 7.1321 -3.14566 0
M  V30 1274 N 112.336 1.25143 0.95797 0
M  V30 1275 C 113.613 1.00472 1.67823 0
M  V30 1276 C 113.993 -0.470056 2.058 0
M  V30 1277 O 113.341 -1.44663 1.76875 0
M  V30 1278 C 113.551 1.9372 2.90299 0
M  V30 1279 C 114.899 2.21371 3.62326 0
M  V30 1280 O 115.923 1.91451 3.00375 0
M  V30 1281 O 114.782 2.72231 4.7387 0
M  V30 1282 H 111.876 0.380752 0.734137 0
M  V30 1283 H 114.422 1.36283 1.01119 0
M  V30 1284 H 113.194 2.93316 2.59001 0
M  V30 1285 H 112.817 1.58286 3.64735 0
M  V30 1286 N 113.814 -1.1601 1.06675 0
M  V30 1287 C 115.06 -1.86909 0.786945 0
M  V30 1288 C 115.393 -1.81717 -0.685018 0
M  V30 1289 O 114.668 -1.23551 -1.50218 0
M  V30 1290 C 114.951 -3.36313 1.28707 0
M  V30 1291 C 114.804 -3.50175 2.82308 0
M  V30 1292 C 116.123 -4.3084 0.898071 0
M  V30 1293 H 113.242 -0.678677 0.287343 0
M  V30 1294 H 115.884 -1.36336 1.32334 0
M  V30 1295 H 114.034 -3.79513 0.830768 0
M  V30 1296 H 115.706 -3.15886 3.36175 0
M  V30 1297 H 113.949 -2.91959 3.20847 0
M  V30 1298 H 114.62 -4.55116 3.12368 0
M  V30 1299 H 117.096 -3.95561 1.29114 0
M  V30 1300 H 115.972 -5.33876 1.27543 0
M  V30 1301 H 116.233 -4.41662 -0.196651 0
M  V30 1302 N 115.292 -0.849877 -1.32721 0
M  V30 1303 C 116.222 -0.306308 -2.31482 0
M  V30 1304 C 117.203 0.591952 -1.59468 0
M  V30 1305 O 118.388 0.513199 -1.87296 0
M  V30 1306 C 115.518 0.510204 -3.43532 0
M  V30 1307 C 114.472 -0.293209 -4.26994 0
M  V30 1308 C 113.798 0.647743 -5.30762 0
M  V30 1309 C 115.098 -1.51634 -4.99804 0
M  V30 1310 H 116.792 -1.13153 -2.77195 0
M  V30 1311 H 114.338 -0.545553 -1.33266 0
M  V30 1312 H 116.291 0.900856 -4.11658 0
M  V30 1313 H 115.015 1.36874 -2.96535 0
M  V30 1314 H 113.674 -0.665555 -3.60508 0
M  V30 1315 H 113.322 1.50299 -4.8002 0
M  V30 1316 H 113.022 0.11422 -5.87489 0
M  V30 1317 H 114.546 1.03567 -6.01753 0
M  V30 1318 H 115.96 -1.19824 -5.60638 0
M  V30 1319 H 114.357 -1.98745 -5.66234 0
M  V30 1320 H 115.427 -2.28018 -4.27943 0
M  V30 1321 N 116.77 1.45427 -0.607355 0
M  V30 1322 C 118.016 2.03097 -0.111035 0
M  V30 1323 C 118.371 1.46735 1.24445 0
M  V30 1324 O 117.664 0.632478 1.8086 0
M  V30 1325 C 117.858 3.57398 -0.0129263 0
M  V30 1326 C 117.687 4.28726 -1.35735 0
M  V30 1327 C 116.457 4.66659 -1.93798 0
M  V30 1328 C 118.655 4.60699 -2.28607 0
M  V30 1329 N 116.637 5.22845 -3.21723 0
M  V30 1330 C 118.008 5.17716 -3.41131 0
M  V30 1331 C 120.063 4.42638 -2.27982 0
M  V30 1332 C 118.766 5.58576 -4.53194 0
M  V30 1333 C 120.792 4.84531 -3.39093 0
M  V30 1334 C 120.154 5.4164 -4.50339 0
M  V30 1335 H 116.253 0.777476 -0.083994 0
M  V30 1336 H 118.837 1.77249 -0.805655 0
M  V30 1337 H 117.008 3.82907 0.650914 0
M  V30 1338 H 118.74 4.01722 0.490033 0
M  V30 1339 H 115.495 4.50207 -1.47007 0
M  V30 1340 H 115.919 5.55438 -3.87063 0
M  V30 1341 H 120.561 3.97798 -1.43235 0
M  V30 1342 H 118.279 6.02382 -5.38667 0
M  V30 1343 H 121.865 4.72289 -3.39757 0
M  V30 1344 H 120.745 5.73461 -5.34895 0
M  V30 1345 N 118.248 0.346503 1.53744 0
M  V30 1346 C 119.495 -0.249104 2.00962 0
M  V30 1347 C 119.823 -1.5032 1.23426 0
M  V30 1348 O 119.078 -1.93217 0.310761 0
M  V30 1349 C 119.377 -0.605809 3.52228 0
M  V30 1350 C 119.043 0.551747 4.47512 0
M  V30 1351 C 117.705 0.86941 4.73281 0
M  V30 1352 C 120.057 1.32818 5.03993 0
M  V30 1353 C 117.385 1.96582 5.52786 0
M  V30 1354 C 119.737 2.41486 5.84694 0
M  V30 1355 C 118.401 2.73808 6.08757 0
M  V30 1356 H 117.671 -0.0911538 0.735372 0
M  V30 1357 H 120.318 0.475027 1.85515 0
M  V30 1358 H 118.623 -1.4107 3.65522 0
M  V30 1359 H 120.32 -1.07858 3.86222 0
M  V30 1360 H 116.91 0.294102 4.2759 0
M  V30 1361 H 121.094 1.09602 4.84047 0
M  V30 1362 H 116.35 2.22045 5.69654 0
M  V30 1363 H 120.524 3.02078 6.27473 0
M  V30 1364 H 118.151 3.58892 6.7015 0
M  V30 1365 N 119.726 -1.57421 0.075193 0
M  V30 1366 C 121.142 -1.57099 -0.281444 0
M  V30 1367 C 121.342 -1.08486 -1.69803 0
M  V30 1368 O 120.398 -0.752279 -2.41033 0
M  V30 1369 C 121.711 -3.00571 -0.0880041 0
M  V30 1370 C 123.259 -3.12605 -0.157281 0
M  V30 1371 C 123.734 -4.57999 0.0079207 0
M  V30 1372 N 125.225 -4.63176 -0.0475725 0
M  V30 1373 C 125.96 -5.73373 0.0557876 0
M  V30 1374 N 125.456 -6.92473 0.21286 0
M  V30 1375 N 127.249 -5.621 -0.00152098 0
M  V30 1376 H 119.4 -1.87335 1.00098 0
M  V30 1377 H 121.663 -0.86377 0.390646 0
M  V30 1378 H 121.369 -3.40262 0.889629 0
M  V30 1379 H 121.243 -3.67754 -0.838875 0
M  V30 1380 H 123.63 -2.72798 -1.1254 0
M  V30 1381 H 123.711 -2.48053 0.62475 0
M  V30 1382 H 123.355 -4.98496 0.972824 0
M  V30 1383 H 123.285 -5.20586 -0.793556 0
M  V30 1384 H 125.776 -3.7753 -0.167244 0
M  V30 1385 H 126.089 -7.72279 0.283781 0
M  V30 1386 H 124.434 -6.94556 0.248267 0
M  V30 1387 H 127.625 -4.67938 -0.122958 0
M  V30 1388 H 127.798 -6.47948 0.0824844 0
M  V30 1389 N 121.204 0.198386 -1.56346 0
M  V30 1390 C 122.615 0.763358 -1.70381 0
M  V30 1391 C 122.966 1.83995 -0.681203 0
M  V30 1392 O 122.091 2.15785 0.16305 0
M  V30 1393 C 122.686 1.39143 -3.08909 0
M  V30 1394 C 121.245 1.90352 -3.2472 0
M  V30 1395 C 120.392 0.772233 -2.6633 0
M  V30 1396 H 123.343 -0.0266377 -1.58678 0
M  V30 1397 H 123.364 2.26076 -3.06055 0
M  V30 1398 H 122.876 0.607638 -3.83314 0
M  V30 1399 H 120.977 2.71461 -2.55225 0
M  V30 1400 H 121.09 2.06757 -4.3219 0
M  V30 1401 H 119.454 1.18566 -2.2542 0
M  V30 1402 H 120.237 0.00073556 -3.433 0
M  V30 1403 N 122.682 1.50554 0.465978 0
M  V30 1404 C 123.91 1.65563 1.24083 0
M  V30 1405 C 124.325 0.341051 1.85694 0
M  V30 1406 O 123.682 -0.677543 1.69457 0
M  V30 1407 C 123.733 2.75051 2.34583 0
M  V30 1408 O 123.454 4.01413 1.75497 0
M  V30 1409 C 124.955 3.01078 3.25372 0
M  V30 1410 H 122.175 0.55638 0.375077 0
M  V30 1411 H 124.719 1.96807 0.555624 0
M  V30 1412 H 122.874 2.46486 2.9887 0
M  V30 1413 H 123.288 4.62002 2.48303 0
M  V30 1414 H 124.762 3.81339 3.99105 0
M  V30 1415 H 125.239 2.12349 3.84453 0
M  V30 1416 H 125.845 3.31194 2.66816 0
M  V30 1417 N 124.16 -0.719506 1.40217 0
M  V30 1418 C 125.09 -1.8465 1.42922 0
M  V30 1419 C 126.071 -1.67599 0.29062 0
M  V30 1420 O 127.256 -1.87688 0.498677 0
M  V30 1421 C 124.386 -3.22565 1.28722 0
M  V30 1422 C 123.34 -3.54281 2.40144 0
M  V30 1423 C 122.666 -4.91298 2.11023 0
M  V30 1424 C 123.966 -3.55676 3.82481 0
M  V30 1425 H 125.66 -1.82644 2.37237 0
M  V30 1426 H 123.206 -0.877305 1.1419 0
M  V30 1427 H 125.159 -4.01095 1.29232 0
M  V30 1428 H 123.883 -3.25137 0.308811 0
M  V30 1429 H 122.542 -2.78088 2.38877 0
M  V30 1430 H 122.19 -4.90468 1.11582 0
M  V30 1431 H 121.89 -5.13485 2.8567 0
M  V30 1432 H 123.414 -5.72166 2.13209 0
M  V30 1433 H 124.828 -4.24254 3.85592 0
M  V30 1434 H 123.225 -3.89388 4.56614 0
M  V30 1435 H 124.295 -2.55144 4.12346 0
M  V30 1436 N 125.638 -1.25649 -0.95132 0
M  V30 1437 C 126.568 -1.08808 -2.06599 0
M  V30 1438 C 127.549 0.00382547 -1.701 0
M  V30 1439 O 128.734 -0.166325 -1.93486 0
M  V30 1440 C 125.864 -0.709542 -3.39975 0
M  V30 1441 C 124.818 -1.75206 -3.90496 0
M  V30 1442 C 124.144 -1.22811 -5.20405 0
M  V30 1443 C 125.444 -3.15153 -4.16504 0
M  V30 1444 H 127.138 -2.02048 -2.20946 0
M  V30 1445 H 124.684 -0.972835 -1.06169 0
M  V30 1446 H 126.637 -0.578649 -4.17408 0
M  V30 1447 H 125.361 0.258556 -3.25575 0
M  V30 1448 H 124.02 -1.87145 -3.15234 0
M  V30 1449 H 123.668 -0.250145 -5.02378 0
M  V30 1450 H 123.368 -1.92492 -5.55176 0
M  V30 1451 H 124.892 -1.10968 -6.00432 0
M  V30 1452 H 126.306 -3.06349 -4.84586 0
M  V30 1453 H 124.703 -3.82333 -4.62538 0
M  V30 1454 H 125.773 -3.61966 -3.22658 0
M  V30 1455 N 127.117 1.15442 -1.07289 0
M  V30 1456 C 128.065 2.22225 -0.686952 0
M  V30 1457 C 129.059 1.66688 0.30193 0
M  V30 1458 O 130.265 1.79236 0.165712 0
M  V30 1459 H 126.64 0.723783 -0.204064 0
M  V30 1460 H 128.611 2.52056 -1.5972 0
M  V30 1461 C 127.36 3.47556 -0.100149 0
M  V30 1462 H 126.683 3.90612 -0.852211 0
M  V30 1463 H 128.123 4.23794 0.132235 0
M  V30 1464 C 126.582 3.16337 1.159 0
M  V30 1465 O 127.112 3.33074 2.24555 0
M  V30 1466 N 125.318 2.70385 1.06491 0
M  V30 1467 H 124.865 2.56966 0.180668 0
M  V30 1468 H 124.823 2.49871 1.90819 0
M  V30 1469 N 128.595 0.856903 1.32268 0
M  V30 1470 C 129.872 0.382583 1.91822 0
M  V30 1471 C 130.252 -1.13407 1.78051 0
M  V30 1472 O 129.6 -1.95673 1.18001 0
M  V30 1473 C 129.81 0.849446 3.38505 0
M  V30 1474 C 131.158 0.867936 4.15634 0
M  V30 1475 O 132.182 0.794232 3.47232 0
M  V30 1476 O 131.041 0.972286 5.37781 0
M  V30 1477 H 128.135 0.112014 0.819379 0
M  V30 1478 H 130.681 0.943952 1.41024 0
M  V30 1479 H 129.453 1.89267 3.42482 0
M  V30 1480 H 129.076 0.265652 3.96712 0
M  V30 1481 N 130.073 -1.45103 0.615059 0
M  V30 1482 C 131.301 -2.06553 0.11977 0
M  V30 1483 C 131.716 -1.45842 -1.19898 0
M  V30 1484 O 131.073 -0.575325 -1.73194 0
M  V30 1485 C 131.124 -3.61495 -0.018364 0
M  V30 1486 O 130.845 -4.19942 1.24822 0
M  V30 1487 C 132.346 -4.39947 -0.544237 0
M  V30 1488 H 129.566 -0.667096 0.0722739 0
M  V30 1489 H 132.11 -1.8623 0.84491 0
M  V30 1490 H 130.265 -3.81135 -0.693865 0
M  V30 1491 H 130.679 -5.13204 1.0827 0
M  V30 1492 H 132.153 -5.48838 -0.589953 0
M  V30 1493 H 132.63 -4.10255 -1.56805 0
M  V30 1494 H 133.236 -4.25188 0.0974703 0
M  V30 1495 N 131.551 -0.354651 -1.53558 0
M  V30 1496 C 132.799 0.237972 -2.00694 0
M  V30 1497 C 133.12 1.50173 -1.24391 0
M  V30 1498 O 132.39 1.92673 -0.354135 0
M  V30 1499 H 130.97 0.0909256 -0.741446 0
M  V30 1500 H 133.632 -0.478368 -1.88938 0
M  V30 1501 H 132.728 0.47264 -3.085 0
M  V30 1502 N 133.029 1.57378 -0.0835403 0
M  V30 1503 C 133.977 2.14602 0.89714 0
M  V30 1504 C 134.971 1.08589 1.30018 0
M  V30 1505 O 136.177 1.26952 1.27606 0
M  V30 1506 H 132.552 0.686346 0.3073 0
M  V30 1507 H 134.523 2.95845 0.38969 0
M  V30 1508 C 133.272 2.73188 2.15089 0
M  V30 1509 H 132.595 3.54442 1.84962 0
M  V30 1510 H 134.035 3.1681 2.81793 0
M  V30 1511 C 132.494 1.68517 2.91725 0
M  V30 1512 O 133.024 1.11718 3.85852 0
M  V30 1513 N 131.23 1.39277 2.55049 0
M  V30 1514 H 130.777 1.85655 1.78577 0
M  V30 1515 H 130.735 0.694791 3.06627 0
M  V30 1516 N 134.507 -0.190092 1.56449 0
M  V30 1517 C 135.737 -0.92443 1.84764 0
M  V30 1518 C 136.145 -1.77146 0.664529 0
M  V30 1519 O 135.488 -1.79812 -0.375957 0
M  V30 1520 C 135.55 -1.86651 3.07248 0
M  V30 1521 C 135.214 -1.20094 4.40938 0
M  V30 1522 C 136.211 -0.575445 5.16706 0
M  V30 1523 C 133.896 -1.2033 4.87674 0
M  V30 1524 C 135.89 0.0388111 6.37388 0
M  V30 1525 C 133.577 -0.585214 6.08291 0
M  V30 1526 C 134.575 0.0347578 6.82991 0
M  V30 1527 O 134.263 0.643147 8.01323 0
M  V30 1528 H 133.995 -0.274974 0.617548 0
M  V30 1529 H 136.549 -0.200788 2.04416 0
M  V30 1530 H 134.779 -2.62998 2.83494 0
M  V30 1531 H 136.468 -2.46907 3.22167 0
M  V30 1532 H 137.234 -0.565728 4.81689 0
M  V30 1533 H 133.113 -1.67526 4.29484 0
M  V30 1534 H 136.657 0.523329 6.95634 0
M  V30 1535 H 132.554 -0.592451 6.42775 0
M  V30 1536 H 133.322 0.540545 8.16713 0
M  V30 1537 N 135.985 -1.50799 -0.457987 0
M  V30 1538 C 137.213 -1.66218 -1.23203 0
M  V30 1539 C 137.628 -0.350894 -1.85511 0
M  V30 1540 O 136.985 0.668546 -1.69814 0
M  V30 1541 C 137.036 -2.76291 -2.33121 0
M  V30 1542 O 136.757 -4.02338 -1.73366 0
M  V30 1543 C 138.258 -3.028 -3.2377 0
M  V30 1544 H 135.478 -0.558361 -0.372121 0
M  V30 1545 H 138.022 -1.97099 -0.545179 0
M  V30 1546 H 136.177 -2.48068 -2.97558 0
M  V30 1547 H 136.591 -4.63312 -2.4585 0
M  V30 1548 H 138.065 -3.8345 -3.97077 0
M  V30 1549 H 138.542 -2.14385 -3.83322 0
M  V30 1550 H 139.148 -3.32604 -2.65056 0
M  V30 1551 N 137.463 0.71206 -1.40597 0
M  V30 1552 C 138.703 1.48438 -1.40519 0
M  V30 1553 C 139.067 1.91998 -0.00767611 0
M  V30 1554 O 140.268 2.6854 0.118239 0
M  V30 1555 C 138.539 2.67514 -2.37004 0
M  V30 1556 S 140.098 3.56875 -2.55315 0
M  V30 1557 H 136.916 0.507457 -0.498005 0
M  V30 1558 H 139.518 0.832355 -1.76896 0
M  V30 1559 H 138.222 2.33689 -3.37368 0
M  V30 1560 H 137.753 3.37625 -2.01923 0
M  V30 1561 H 139.768 4.62081 -1.8082 0
M  V30 1562 N 138.941 1.26152 0.944643 0
M  V30 1563 C 139.874 1.01729 2.04271 0
M  V30 1564 C 140.852 -0.0568101 1.62501 0
M  V30 1565 O 142.036 0.0848987 1.88309 0
M  V30 1566 C 139.163 0.539792 3.34371 0
M  V30 1567 C 138.209 1.60593 3.9511 0
M  V30 1568 S 139.042 3.19392 4.29825 0
M  V30 1569 C 140.198 2.73402 5.63029 0
M  V30 1570 H 140.431 1.94703 2.24673 0
M  V30 1571 H 137.964 1.09793 1.08558 0
M  V30 1572 H 139.922 0.270956 4.09605 0
M  V30 1573 H 138.583 -0.369609 3.11918 0
M  V30 1574 H 137.776 1.22275 4.88943 0
M  V30 1575 H 137.378 1.82596 3.26397 0
M  V30 1576 H 139.67 2.1765 6.41588 0
M  V30 1577 H 140.613 3.65913 6.06229 0
M  V30 1578 H 141.021 2.13077 5.22741 0
M  V30 1579 N 140.419 -1.14872 1.07899 0
M  V30 1580 C 141.349 -2.2193 0.725887 0
M  V30 1581 C 142.33 -1.67622 -0.28927 0
M  V30 1582 O 143.515 -1.93533 -0.160787 0
M  V30 1583 C 140.645 -3.47061 0.128856 0
M  V30 1584 C 139.599 -4.14363 1.07178 0
M  V30 1585 C 138.925 -5.33636 0.337229 0
M  V30 1586 C 140.225 -4.63492 2.40775 0
M  V30 1587 H 141.919 -2.51724 1.62097 0
M  V30 1588 H 139.465 -1.20991 0.780838 0
M  V30 1589 H 141.418 -4.21199 -0.130147 0
M  V30 1590 H 140.142 -3.16617 -0.80134 0
M  V30 1591 H 138.801 -3.42173 1.3158 0
M  V30 1592 H 138.449 -4.99449 -0.596606 0
M  V30 1593 H 138.149 -5.79609 0.965788 0
M  V30 1594 H 139.673 -6.10539 0.0861567 0
M  V30 1595 H 141.087 -5.2913 2.20669 0
M  V30 1596 H 139.484 -5.20148 2.99276 0
M  V30 1597 H 140.554 -3.78834 3.02676 0
M  V30 1598 N 141.898 -0.863906 -1.31812 0
M  V30 1599 C 143.314 -0.555004 -1.49639 0
M  V30 1600 C 143.514 0.912266 -1.79666 0
M  V30 1601 O 142.57 1.69479 -1.87171 0
M  V30 1602 C 143.883 -1.44998 -2.63431 0
M  V30 1603 C 145.431 -1.45138 -2.77316 0
M  V30 1604 C 145.906 -2.33179 -3.94197 0
M  V30 1605 N 147.397 -2.31025 -4.01474 0
M  V30 1606 C 148.132 -2.95871 -4.9117 0
M  V30 1607 N 147.628 -3.69863 -5.8581 0
M  V30 1608 N 149.421 -2.85211 -4.84367 0
M  V30 1609 H 141.572 -1.81339 -1.10589 0
M  V30 1610 H 143.835 -0.77505 -0.545895 0
M  V30 1611 H 143.541 -2.49377 -2.48 0
M  V30 1612 H 143.415 -1.14409 -3.59431 0
M  V30 1613 H 145.802 -0.415201 -2.92164 0
M  V30 1614 H 145.883 -1.79747 -1.82001 0
M  V30 1615 H 145.527 -3.3687 -3.80107 0
M  V30 1616 H 145.457 -1.95897 -4.88807 0
M  V30 1617 H 147.948 -1.77238 -3.33759 0
M  V30 1618 H 148.261 -4.16486 -6.50968 0
M  V30 1619 H 146.606 -3.73971 -5.85808 0
M  V30 1620 H 149.797 -2.26948 -4.09405 0
M  V30 1621 H 149.97 -3.36027 -5.54066 0
M  V30 1622 N 143.376 1.44774 -0.622745 0
M  V30 1623 C 144.324 2.32387 0.0994683 0
M  V30 1624 C 145.318 1.46859 0.844326 0
M  V30 1625 O 146.524 1.63254 0.758174 0
M  V30 1626 H 142.899 0.750273 0.0509291 0
M  V30 1627 H 144.87 2.91062 -0.65767 0
M  V30 1628 C 143.619 3.30723 1.07319 0
M  V30 1629 H 142.942 3.96541 0.509462 0
M  V30 1630 H 144.382 3.94725 1.54817 0
M  V30 1631 C 142.841 2.59021 2.15429 0
M  V30 1632 O 143.371 2.38286 3.23393 0
M  V30 1633 N 141.577 2.189 1.91131 0
M  V30 1634 H 141.124 2.35964 1.03337 0
M  V30 1635 H 141.082 1.71251 2.63668 0
M  V30 1636 N 144.854 0.36279 1.53368 0
M  V30 1637 C 146.082 -0.228613 2.05633 0
M  V30 1638 C 146.497 -1.42676 1.23649 0
M  V30 1639 O 145.854 -1.80394 0.27647 0
M  V30 1640 C 145.905 -0.624845 3.56059 0
M  V30 1641 O 145.626 0.525675 4.34935 0
M  V30 1642 C 147.127 -1.27493 4.24571 0
M  V30 1643 H 144.347 -0.0407183 0.669763 0
M  V30 1644 H 146.891 0.520352 1.97769 0
M  V30 1645 H 145.046 -1.32373 3.64083 0
M  V30 1646 H 145.46 0.205969 5.24095 0
M  V30 1647 H 146.934 -1.50277 5.31151 0
M  V30 1648 H 147.411 -2.23439 3.78116 0
M  V30 1649 H 148.017 -0.617558 4.20792 0
M  V30 1650 N 146.332 -1.57332 0.0918853 0
M  V30 1651 C 147.56 -1.98574 -0.581048 0
M  V30 1652 C 147.975 -0.970903 -1.61923 0
M  V30 1653 O 147.332 0.0399054 -1.82456 0
M  V30 1654 C 147.383 -3.39872 -1.23164 0
M  V30 1655 O 147.104 -4.37469 -0.234989 0
M  V30 1656 C 148.605 -3.96099 -1.99049 0
M  V30 1657 H 145.825 -0.65261 -0.156018 0
M  V30 1658 H 148.369 -2.0379 0.170225 0
M  V30 1659 H 146.524 -3.35679 -1.93386 0
M  V30 1660 H 146.938 -5.19751 -0.70418 0
M  V30 1661 H 148.412 -4.97127 -2.39934 0
M  V30 1662 H 148.889 -3.3374 -2.85507 0
M  V30 1663 H 149.495 -4.03755 -1.3365 0
M  V30 1664 N 147.81 0.181792 -1.56548 0
M  V30 1665 C 149.04 0.914618 -1.85252 0
M  V30 1666 C 149.448 1.76791 -0.673914 0
M  V30 1667 O 148.791 1.80009 0.366416 0
M  V30 1668 C 148.853 1.85019 -3.08234 0
M  V30 1669 C 148.517 1.17754 -4.41569 0
M  V30 1670 C 149.514 0.548035 -5.17003 0
M  V30 1671 C 147.199 1.17742 -4.88305 0
M  V30 1672 C 149.193 -0.0726128 -6.37359 0
M  V30 1673 C 146.88 0.552946 -6.08593 0
M  V30 1674 C 147.878 -0.070978 -6.82963 0
M  V30 1675 O 147.566 -0.685635 -8.00971 0
M  V30 1676 H 147.298 0.271695 -0.618998 0
M  V30 1677 H 149.852 0.189944 -2.0452 0
M  V30 1678 H 148.082 2.61491 -2.84885 0
M  V30 1679 H 149.771 2.45195 -3.23472 0
M  V30 1680 H 150.537 0.540174 -4.81982 0
M  V30 1681 H 146.416 1.65246 -4.30366 0
M  V30 1682 H 149.96 -0.560213 -6.95347 0
M  V30 1683 H 145.857 0.558354 -6.43081 0
M  V30 1684 H 146.625 -0.58385 -8.16415 0
M  V30 1685 N 149.288 1.51039 0.449983 0
M  V30 1686 C 150.528 1.64732 1.21007 0
M  V30 1687 C 150.892 0.349865 1.88785 0
M  V30 1688 O 152.093 0.362431 2.66345 0
M  V30 1689 C 150.364 2.80902 2.20973 0
M  V30 1690 S 151.923 3.14851 3.05638 0
M  V30 1691 H 148.741 0.5805 0.410538 0
M  V30 1692 H 151.343 1.88901 0.503634 0
M  V30 1693 H 150.047 3.73627 1.69796 0
M  V30 1694 H 149.578 2.58882 2.96215 0
M  V30 1695 H 151.593 2.60306 4.22439 0
M  V30 1696 N 150.766 -0.704594 1.40972 0
M  V30 1697 C 151.991 -1.49858 1.43378 0
M  V30 1698 C 152.416 -1.88061 0.038184 0
M  V30 1699 O 151.774 -1.5402 -0.956425 0
M  V30 1700 C 151.822 -2.74333 2.34038 0
M  V30 1701 O 150.926 -3.7147 1.7912 0
M  V30 1702 H 150.267 -0.45139 0.486974 0
M  V30 1703 H 152.797 -0.866832 1.8533 0
M  V30 1704 H 152.807 -3.22741 2.49604 0
M  V30 1705 H 151.482 -2.45863 3.35446 0
M  V30 1706 H 150.059 -3.30363 1.72958 0
M  V30 1707 N 152.244 -1.26651 -0.937939 0
M  V30 1708 C 153.191 -1.0849 -2.03712 0
M  V30 1709 C 154.161 0.011033 -1.66096 0
M  V30 1710 O 155.346 -0.149353 -1.90215 0
M  V30 1711 C 152.486 -0.72735 -3.37348 0
M  V30 1712 C 151.599 -1.89986 -3.87981 0
M  V30 1713 C 150.734 -1.48513 -5.10017 0
M  V30 1714 C 149.773 -2.62575 -5.5292 0
M  V30 1715 N 148.91 -2.21762 -6.66158 0
M  V30 1716 H 153.75 -2.02551 -2.18579 0
M  V30 1717 H 151.287 -1.00844 -1.07093 0
M  V30 1718 H 153.245 -0.50092 -4.14182 0
M  V30 1719 H 151.875 0.176298 -3.22318 0
M  V30 1720 H 150.927 -2.23913 -3.07518 0
M  V30 1721 H 152.239 -2.75586 -4.15757 0
M  V30 1722 H 151.393 -1.21934 -5.94321 0
M  V30 1723 H 150.132 -0.60009 -4.83994 0
M  V30 1724 H 149.137 -2.8988 -4.67172 0
M  V30 1725 H 150.362 -3.51685 -5.80943 0
M  V30 1726 H 148.308 -1.35696 -6.41812 0
M  V30 1727 H 148.225 -3.00903 -6.93537 0
M  V30 1728 H 149.493 -1.98403 -7.53828 0
M  V30 1729 N 153.722 1.14298 -1.08507 0
M  V30 1730 C 154.968 1.85633 -0.816581 0
M  V30 1731 C 155.301 1.82784 0.656021 0
M  V30 1732 O 154.576 1.25926 1.48233 0
M  V30 1733 C 154.859 3.34223 -1.34041 0
M  V30 1734 C 154.712 3.45639 -2.87843 0
M  V30 1735 C 156.031 4.29356 -0.9665 0
M  V30 1736 H 153.15 0.67402 -0.298104 0
M  V30 1737 H 155.792 1.34214 -1.34487 0
M  V30 1738 H 153.942 3.78144 -0.89104 0
M  V30 1739 H 155.614 3.10498 -3.41158 0
M  V30 1740 H 153.857 2.86817 -3.25451 0
M  V30 1741 H 154.528 4.50089 -3.19569 0
M  V30 1742 H 157.004 3.93457 -1.35391 0
M  V30 1743 H 155.88 5.3178 -1.3602 0
M  V30 1744 H 156.141 4.41919 0.126362 0
M  V30 1745 N 155.201 0.870884 1.31352 0
M  V30 1746 C 156.164 0.332243 2.26779 0
M  V30 1747 C 157.164 -0.517302 1.52252 0
M  V30 1748 O 158.354 -0.326477 1.71113 0
M  V30 1749 C 155.486 -0.528066 3.36785 0
M  V30 1750 H 156.679 1.17469 2.75937 0
M  V30 1751 H 154.232 0.64655 1.423 0
M  V30 1752 H 154.967 -1.39167 2.92922 0
M  V30 1753 H 154.752 0.0802582 3.92018 0
M  V30 1754 H 156.242 -0.897179 4.07849 0
M  V30 1755 N 156.679 -1.44442 0.630414 0
M  V30 1756 C 157.926 -2.02052 0.134617 0
M  V30 1757 C 158.254 -1.49576 -1.24327 0
M  V30 1758 O 157.509 -0.669806 -1.83881 0
M  V30 1759 C 157.808 -3.57332 0.0697835 0
M  V30 1760 C 157.474 -4.29058 1.38635 0
M  V30 1761 C 156.136 -4.4837 1.74694 0
M  V30 1762 C 158.488 -4.69872 2.25543 0
M  V30 1763 C 155.816 -5.05756 2.97369 0
M  V30 1764 C 158.168 -5.28616 3.47487 0
M  V30 1765 C 156.832 -5.46147 3.8377 0
M  V30 1766 H 156.102 -0.739361 0.0492598 0
M  V30 1767 H 158.749 -1.73217 0.816586 0
M  V30 1768 H 157.054 -3.85577 -0.695553 0
M  V30 1769 H 158.751 -3.99637 -0.330344 0
M  V30 1770 H 155.341 -4.14357 1.09574 0
M  V30 1771 H 159.525 -4.54666 1.98979 0
M  V30 1772 H 154.781 -5.17515 3.25558 0
M  V30 1773 H 158.955 -5.59192 4.15063 0
M  V30 1774 H 156.582 -5.9038 4.7891 0
M  V30 1775 N 158.157 -0.370918 -1.53173 0
M  V30 1776 C 159.568 0.107139 -1.86392 0
M  V30 1777 C 159.919 1.47714 -1.29132 0
M  V30 1778 O 159.044 2.07464 -0.615439 0
M  V30 1779 C 159.639 0.201187 -3.38202 0
M  V30 1780 C 158.198 0.623507 -3.712 0
M  V30 1781 C 157.345 -0.225978 -2.76378 0
M  V30 1782 H 160.296 -0.58951 -1.47345 0
M  V30 1783 H 160.317 1.02377 -3.66468 0
M  V30 1784 H 159.829 -0.796058 -3.79848 0
M  V30 1785 H 157.93 1.62879 -3.35114 0
M  V30 1786 H 158.043 0.394414 -4.77474 0
M  V30 1787 H 156.407 0.305962 -2.52856 0
M  V30 1788 H 157.19 -1.22086 -3.20858 0
M  V30 1789 N 159.635 1.57281 -0.100228 0
M  V30 1790 C 160.565 2.17328 0.853857 0
M  V30 1791 C 161.546 1.10804 1.2906 0
M  V30 1792 O 162.731 1.38963 1.35657 0
M  V30 1793 C 159.861 2.75772 2.11109 0
M  V30 1794 C 158.815 3.87713 1.81279 0
M  V30 1795 C 158.141 4.32882 3.13874 0
M  V30 1796 C 159.441 5.10677 1.09574 0
M  V30 1797 H 161.135 2.97305 0.353545 0
M  V30 1798 H 158.681 1.43009 0.168612 0
M  V30 1799 H 160.634 3.16433 2.78296 0
M  V30 1800 H 159.358 1.93057 2.63432 0
M  V30 1801 H 158.017 3.476 1.16489 0
M  V30 1802 H 157.665 3.47051 3.64095 0
M  V30 1803 H 157.365 5.08358 2.94696 0
M  V30 1804 H 158.889 4.7618 3.82211 0
M  V30 1805 H 160.303 5.48474 1.66879 0
M  V30 1806 H 158.7 5.91615 1.00557 0
M  V30 1807 H 159.77 4.84835 0.0793299 0
M  V30 1808 N 161.113 -0.173488 1.56642 0
M  V30 1809 C 162.023 -1.23482 1.99473 0
M  V30 1810 C 163.039 -1.48567 0.905752 0
M  V30 1811 O 164.215 -1.60758 1.21321 0
M  V30 1812 C 161.28 -2.55444 2.34413 0
M  V30 1813 C 160.341 -2.38241 3.57127 0
M  V30 1814 C 159.574 -3.63909 3.90392 0
M  V30 1815 O 159.797 -4.68996 3.24653 0
M  V30 1816 O 158.731 -3.58149 4.83749 0
M  V30 1817 H 162.557 -0.901279 2.90018 0
M  V30 1818 H 160.142 -0.380185 1.44482 0
M  V30 1819 H 162.024 -3.33292 2.57865 0
M  V30 1820 H 160.699 -2.88382 1.4703 0
M  V30 1821 H 159.606 -1.58431 3.38896 0
M  V30 1822 H 160.939 -2.10228 4.45045 0
M  V30 1823 N 162.591 -1.51276 -0.441967 0
M  V30 1824 C 163.837 -1.63958 -1.19355 0
M  V30 1825 C 164.17 -0.352543 -1.90973 0
M  V30 1826 O 163.445 0.647627 -1.83401 0
M  V30 1827 C 163.728 -2.83979 -2.21422 0
M  V30 1828 C 163.581 -4.22646 -1.53918 0
M  V30 1829 C 164.9 -2.99521 -3.22451 0
M  V30 1830 H 162.019 -0.596709 -0.432559 0
M  V30 1831 H 164.661 -1.83748 -0.483398 0
M  V30 1832 H 162.811 -2.67237 -2.81987 0
M  V30 1833 H 164.483 -4.51045 -0.967256 0
M  V30 1834 H 162.726 -4.25558 -0.841615 0
M  V30 1835 H 163.397 -5.02609 -2.28229 0
M  V30 1836 H 165.873 -3.14944 -2.71937 0
M  V30 1837 H 164.749 -3.85072 -3.91166 0
M  V30 1838 H 165.01 -2.11391 -3.88287 0
M  V30 1839 N 164.069 0.697108 -1.41344 0
M  V30 1840 C 165.315 1.4593 -1.40827 0
M  V30 1841 C 165.648 1.94193 -0.0167098 0
M  V30 1842 O 164.923 1.69425 0.955263 0
M  V30 1843 C 165.206 2.67229 -2.41373 0
M  V30 1844 C 165.059 2.24741 -3.8963 0
M  V30 1845 C 166.378 3.69423 -2.39196 0
M  V30 1846 H 163.497 0.529303 -0.512842 0
M  V30 1847 H 166.139 0.794112 -1.72609 0
M  V30 1848 H 164.289 3.23982 -2.14401 0
M  V30 1849 H 165.961 1.73327 -4.27499 0
M  V30 1850 H 164.204 1.56542 -4.0457 0
M  V30 1851 H 164.875 3.1177 -4.55525 0
M  V30 1852 H 167.351 3.2234 -2.63128 0
M  V30 1853 H 166.227 4.51907 -3.11563 0
M  V30 1854 H 166.488 4.19012 -1.41001 0
M  V30 1855 N 165.547 1.27147 0.931209 0
M  V30 1856 C 166.479 1.05364 2.03546 0
M  V30 1857 C 167.492 0.0108438 1.62796 0
M  V30 1858 O 168.681 0.25202 1.76712 0
M  V30 1859 C 165.781 0.575566 3.33977 0
M  V30 1860 C 164.954 1.68985 4.03439 0
M  V30 1861 C 164.013 1.20813 5.12143 0
M  V30 1862 O 163.039 1.90712 5.363 0
M  V30 1863 N 164.241 0.0618851 5.80467 0
M  V30 1864 H 167.006 2.00454 2.22796 0
M  V30 1865 H 164.567 1.18666 1.10136 0
M  V30 1866 H 166.559 0.237264 4.04004 0
M  V30 1867 H 165.129 -0.282016 3.11325 0
M  V30 1868 H 164.349 2.19861 3.27192 0
M  V30 1869 H 165.637 2.4378 4.46597 0
M  V30 1870 H 165.035 -0.521621 5.6329 0
M  V30 1871 H 163.592 -0.217264 6.51438 0
M  V30 1872 N 167.025 -1.13721 1.09112 0
M  V30 1873 C 167.972 -2.19031 0.727591 0
M  V30 1874 C 168.942 -1.63555 -0.289656 0
M  V30 1875 O 170.127 -1.90023 -0.172026 0
M  V30 1876 C 167.267 -3.4477 0.15082 0
M  V30 1877 C 166.38 -4.14365 1.22172 0
M  V30 1878 C 165.515 -5.27709 0.608042 0
M  V30 1879 C 164.554 -5.89147 1.66047 0
M  V30 1880 N 163.691 -6.93929 1.06806 0
M  V30 1881 H 168.531 -2.49475 1.62991 0
M  V30 1882 H 166.068 -1.22499 0.81439 0
M  V30 1883 H 168.026 -4.16714 -0.201358 0
M  V30 1884 H 166.656 -3.14787 -0.714783 0
M  V30 1885 H 165.708 -3.40737 1.69122 0
M  V30 1886 H 167.02 -4.56114 2.01895 0
M  V30 1887 H 166.174 -6.06355 0.204523 0
M  V30 1888 H 164.913 -4.872 -0.220769 0
M  V30 1889 H 163.918 -5.09198 2.07357 0
M  V30 1890 H 165.143 -6.31729 2.49189 0
M  V30 1891 H 163.089 -6.55483 0.260476 0
M  V30 1892 H 163.006 -7.34202 1.8023 0
M  V30 1893 H 164.274 -7.76434 0.690644 0
M  V30 1894 N 168.503 -0.877838 -1.30888 0
M  V30 1895 C 169.78 -0.413052 -1.91189 0
M  V30 1896 C 170.16 1.1056 -1.79832 0
M  V30 1897 O 169.508 1.93771 -1.21099 0
M  V30 1898 C 169.718 -0.903191 -3.3711 0
M  V30 1899 C 171.066 -0.93395 -4.14201 0
M  V30 1900 O 172.09 -0.849373 -3.45925 0
M  V30 1901 O 170.949 -1.05772 -5.36167 0
M  V30 1902 H 168.043 -0.125035 -0.817493 0
M  V30 1903 H 170.589 -0.966269 -1.39504 0
M  V30 1904 H 169.361 -1.94692 -3.39427 0
M  V30 1905 H 168.984 -0.328732 -3.96239 0
M  V30 1906 N 169.982 1.44106 -0.638065 0
M  V30 1907 C 171.207 2.0685 -0.150916 0
M  V30 1908 C 171.632 1.47417 1.16833 0
M  V30 1909 O 170.99 0.578264 1.71831 0
M  V30 1910 C 171.038 3.60555 -0.05708 0
M  V30 1911 O 170.142 4.00465 0.984972 0
M  V30 1912 H 169.483 0.658151 -0.0879399 0
M  V30 1913 H 172.013 1.84865 -0.876707 0
M  V30 1914 H 172.023 4.07789 0.131232 0
M  V30 1915 H 170.698 4.03193 -1.02021 0
M  V30 1916 H 169.275 3.64849 0.770672 0
M  V30 1917 N 171.46 0.379036 1.52974 0
M  V30 1918 C 172.7 -0.206325 2.03356 0
M  V30 1919 C 173.064 -1.44892 1.25977 0
M  V30 1920 O 174.265 -2.11078 1.66432 0
M  V30 1921 C 172.536 -0.477887 3.54191 0
M  V30 1922 S 174.095 -1.035 4.26419 0
M  V30 1923 H 170.913 -0.0590259 0.708546 0
M  V30 1924 H 173.515 0.525013 1.88319 0
M  V30 1925 H 172.219 0.433745 4.08101 0
M  V30 1926 H 171.75 -1.23793 3.73415 0
M  V30 1927 H 173.765 -2.31821 4.38718 0
M  V30 1928 N 172.938 -1.57226 0.108567 0
M  V30 1929 C 174.185 -1.94833 -0.551943 0
M  V30 1930 C 174.513 -0.991204 -1.67348 0
M  V30 1931 O 173.768 -0.0131878 -1.95696 0
M  V30 1932 C 174.067 -3.38911 -1.13463 0
M  V30 1933 C 173.733 -4.50696 -0.135509 0
M  V30 1934 C 172.395 -4.80998 0.139252 0
M  V30 1935 C 174.747 -5.18333 0.545957 0
M  V30 1936 C 172.075 -5.76259 1.10194 0
M  V30 1937 C 174.427 -6.14627 1.49721 0
M  V30 1938 C 173.091 -6.43327 1.78006 0
M  V30 1939 H 172.361 -0.712944 -0.20197 0
M  V30 1940 H 175.008 -1.90582 0.18726 0
M  V30 1941 H 173.313 -3.39805 -1.95037 0
M  V30 1942 H 175.01 -3.65317 -1.65362 0
M  V30 1943 H 171.6 -4.27087 -0.359846 0
M  V30 1944 H 175.784 -4.95087 0.346842 0
M  V30 1945 H 171.04 -5.96804 1.32795 0
M  V30 1946 H 175.214 -6.66126 2.03099 0
M  V30 1947 H 172.841 -7.1695 2.52759 0
M  V30 1948 N 174.416 0.165178 -1.56732 0
M  V30 1949 C 175.364 1.22369 -1.97809 0
M  V30 1950 C 176.358 1.45488 -0.867741 0
M  V30 1951 O 177.564 1.45995 -1.05288 0
M  V30 1952 H 173.939 0.411486 -0.629431 0
M  V30 1953 H 175.91 0.850425 -2.86025 0
M  V30 1954 C 174.659 2.55403 -2.35934 0
M  V30 1955 H 173.982 2.38438 -3.20916 0
M  V30 1956 H 175.422 3.2814 -2.68514 0
M  V30 1957 C 173.881 3.14611 -1.20506 0
M  V30 1958 O 174.411 3.98626 -0.496016 0
M  V30 1959 N 172.617 2.7379 -0.97403 0
M  V30 1960 H 172.164 2.0557 -1.55238 0
M  V30 1961 H 172.122 3.1374 -0.203573 0
M  V30 1962 N 175.894 1.51508 0.433938 0
M  V30 1963 C 177.119 1.68443 1.21003 0
M  V30 1964 C 177.544 0.382636 1.84167 0
M  V30 1965 O 176.902 -0.65755 1.68956 0
M  V30 1966 C 176.95 2.80405 2.26727 0
M  V30 1967 O 176.054 2.44245 3.32292 0
M  V30 1968 H 175.395 0.561536 0.354363 0
M  V30 1969 H 177.925 1.9809 0.512024 0
M  V30 1970 H 177.935 3.0459 2.71457 0
M  V30 1971 H 176.61 3.74867 1.80132 0
M  V30 1972 H 175.187 2.30644 2.93015 0
M  V30 1973 N 177.372 -0.689602 1.41712 0
M  V30 1974 C 178.783 -1.26973 1.36875 0
M  V30 1975 C 179.134 -1.96124 0.054748 0
M  V30 1976 O 178.259 -1.99141 -0.84687 0
M  V30 1977 C 178.854 -2.30912 2.47922 0
M  V30 1978 C 177.413 -2.84486 2.46464 0
M  V30 1979 C 176.56 -1.58603 2.27465 0
M  V30 1980 H 179.511 -0.48396 1.51141 0
M  V30 1981 H 179.532 -3.12331 2.17323 0
M  V30 1982 H 179.044 -1.80554 3.43543 0
M  V30 1983 H 177.145 -3.39005 1.54617 0
M  V30 1984 H 177.258 -3.34511 3.42986 0
M  V30 1985 H 175.622 -1.84632 1.75451 0
M  V30 1986 H 176.405 -1.10233 3.25121 0
M  V30 1987 N 178.85 -1.27639 -0.924453 0
M  V30 1988 C 179.783 -1.04966 -2.02626 0
M  V30 1989 C 180.761 0.0309505 -1.62571 0
M  V30 1990 O 181.945 -0.114846 -1.8815 0
M  V30 1991 C 179.072 -0.59292 -3.3347 0
M  V30 1992 C 178.118 -1.66858 -3.92506 0
M  V30 1993 S 178.951 -3.2619 -4.24689 0
M  V30 1994 C 180.107 -2.82325 -5.58609 0
M  V30 1995 H 180.34 -1.98252 -2.21547 0
M  V30 1996 H 177.873 -1.11506 -1.06798 0
M  V30 1997 H 179.831 -0.336086 -4.09122 0
M  V30 1998 H 178.492 0.319939 -3.12466 0
M  V30 1999 H 177.685 -1.30038 -4.86935 0
M  V30 2000 H 177.287 -1.87766 -3.2345 0
M  V30 2001 H 179.579 -2.2783 -6.38044 0
M  V30 2002 H 180.522 -3.75511 -6.00331 0
M  V30 2003 H 180.93 -2.21367 -5.19285 0
M  V30 2004 N 180.328 1.1314 -1.09713 0
M  V30 2005 C 181.275 2.18642 -0.739196 0
M  V30 2006 C 182.245 1.63706 0.280978 0
M  V30 2007 O 183.43 1.90111 0.161946 0
M  V30 2008 C 180.57 3.44685 -0.169102 0
M  V30 2009 C 179.683 4.13711 -1.24367 0
M  V30 2010 C 178.818 5.27379 -0.636019 0
M  V30 2011 C 177.857 5.88259 -1.69169 0
M  V30 2012 N 176.994 6.93352 -1.10485 0
M  V30 2013 H 181.834 2.48607 -1.64312 0
M  V30 2014 H 179.371 1.22066 -0.820875 0
M  V30 2015 H 181.329 4.16815 0.179256 0
M  V30 2016 H 179.959 3.15161 0.698079 0
M  V30 2017 H 179.011 3.39835 -1.70927 0
M  V30 2018 H 180.323 4.55037 -2.04311 0
M  V30 2019 H 179.477 6.06238 -0.236677 0
M  V30 2020 H 178.216 4.8731 0.194928 0
M  V30 2021 H 177.221 5.08092 -2.10055 0
M  V30 2022 H 178.446 6.30399 -2.52536 0
M  V30 2023 H 176.392 6.55335 -0.295234 0
M  V30 2024 H 176.309 7.33236 -1.84121 0
M  V30 2025 H 177.577 7.76057 -0.73181 0
M  V30 2026 N 181.806 0.884767 1.30421 0
M  V30 2027 C 182.736 0.367574 2.30589 0
M  V30 2028 C 183.717 -0.549464 1.60981 0
M  V30 2029 O 184.902 -0.46336 1.88591 0
M  V30 2030 C 182.032 -0.418944 3.44764 0
M  V30 2031 C 180.986 0.406316 4.26067 0
M  V30 2032 C 180.312 -0.506793 5.32293 0
M  V30 2033 C 181.612 1.64832 4.95608 0
M  V30 2034 H 183.306 1.20462 2.74097 0
M  V30 2035 H 180.852 0.580695 1.31772 0
M  V30 2036 H 182.805 -0.791395 4.13902 0
M  V30 2037 H 181.529 -1.28964 3.0006 0
M  V30 2038 H 180.188 0.760903 3.58617 0
M  V30 2039 H 179.836 -1.37519 4.83836 0
M  V30 2040 H 179.536 0.0415828 5.87585 0
M  V30 2041 H 181.06 -0.875764 6.04287 0
M  V30 2042 H 182.474 1.34646 5.57264 0
M  V30 2043 H 180.871 2.13688 5.60765 0
M  V30 2044 H 181.941 2.39284 4.21748 0
M  V30 2045 N 183.284 -1.43765 0.645699 0
M  V30 2046 C 184.695 -1.85193 0.236719 0
M  V30 2047 C 185.046 -1.54045 -1.21509 0
M  V30 2048 O 184.171 -0.985694 -1.92647 0
M  V30 2049 C 184.766 -3.36151 0.422845 0
M  V30 2050 C 183.325 -3.76338 0.0682492 0
M  V30 2051 C 182.472 -2.67538 0.729306 0
M  V30 2052 H 185.423 -1.34025 0.849883 0
M  V30 2053 H 185.444 -3.79032 -0.333904 0
M  V30 2054 H 184.956 -3.5879 1.47958 0
M  V30 2055 H 183.057 -3.59312 -0.986179 0
M  V30 2056 H 183.17 -4.76603 0.488469 0
M  V30 2057 H 181.534 -2.54176 0.163235 0
M  V30 2058 H 182.317 -2.93006 1.78892 0
M  V30 2059 N 184.763 -0.387143 -1.52771 0
M  V30 2060 C 186.009 0.196025 -2.0185 0
M  V30 2061 C 186.342 1.46641 -1.27319 0
M  V30 2062 O 185.617 1.90889 -0.373032 0
M  V30 2063 C 185.9 0.466136 -3.5707 0
M  V30 2064 C 185.753 -0.819385 -4.42274 0
M  V30 2065 C 187.072 1.25768 -4.21747 0
M  V30 2066 H 184.191 0.0697708 -0.73369 0
M  V30 2067 H 186.833 -0.516286 -1.82851 0
M  V30 2068 H 184.983 1.07293 -3.7339 0
M  V30 2069 H 186.655 -1.4563 -4.37709 0
M  V30 2070 H 184.898 -1.43517 -4.09372 0
M  V30 2071 H 185.569 -0.585065 -5.48891 0
M  V30 2072 H 188.045 0.744167 -4.09391 0
M  V30 2073 H 186.921 1.41541 -5.30337 0
M  V30 2074 H 187.182 2.27228 -3.79236 0
M  V30 2075 N 186.241 1.57166 -0.116904 0
M  V30 2076 C 187.191 2.11756 0.845178 0
M  V30 2077 C 188.175 1.03783 1.22955 0
M  V30 2078 O 189.367 1.3002 1.20099 0
M  V30 2079 C 186.496 2.71886 2.09602 0
M  V30 2080 C 185.582 3.86937 1.7361 0
M  V30 2081 N 185.973 4.94073 1.08284 0
M  V30 2082 C 184.271 3.97082 2.03082 0
M  V30 2083 C 184.972 5.74477 0.913855 0
M  V30 2084 N 183.948 5.2423 1.43818 0
M  V30 2085 H 187.75 2.91967 0.336523 0
M  V30 2086 H 185.264 1.62174 0.0856332 0
M  V30 2087 H 187.261 3.09338 2.79492 0
M  V30 2088 H 185.921 1.93138 2.61013 0
M  V30 2089 H 186.932 5.12483 0.747067 0
M  V30 2090 H 183.609 3.29372 2.56554 0
M  V30 2091 H 184.999 6.70701 0.40125 0
M  V30 2092 N 187.719 -0.156864 1.56817 0
M  V30 2093 C 188.666 -1.19394 1.97519 0
M  V30 2094 C 189.636 -1.4322 0.841265 0
M  V30 2095 O 190.821 -1.55719 1.10255 0
M  V30 2096 C 187.961 -2.52483 2.35258 0
M  V30 2097 C 187.074 -2.35914 3.61896 0
M  V30 2098 C 186.209 -3.61969 3.88782 0
M  V30 2099 C 185.248 -3.40395 5.08722 0
M  V30 2100 N 184.385 -4.58556 5.31668 0
M  V30 2101 H 189.225 -0.839845 2.85921 0
M  V30 2102 H 186.762 -0.403264 1.41464 0
M  V30 2103 H 188.72 -3.30071 2.55165 0
M  V30 2104 H 187.35 -2.85859 1.49949 0
M  V30 2105 H 186.402 -1.49429 3.49821 0
M  V30 2106 H 187.714 -2.15926 4.49641 0
M  V30 2107 H 186.868 -4.47989 4.09135 0
M  V30 2108 H 185.607 -3.84951 2.9944 0
M  V30 2109 H 184.612 -2.52763 4.88253 0
M  V30 2110 H 185.837 -3.18822 5.99608 0
M  V30 2111 H 183.783 -4.81729 4.45279 0
M  V30 2112 H 183.7 -4.41535 6.13664 0
M  V30 2113 H 184.968 -5.45817 5.5651 0
M  V30 2114 N 189.197 -1.51736 -0.425897 0
M  V30 2115 C 190.127 -1.76827 -1.52494 0
M  V30 2116 C 191.108 -0.618524 -1.58456 0
M  V30 2117 O 192.293 -0.862416 -1.74 0
M  V30 2118 C 189.423 -1.90374 -2.90474 0
M  V30 2119 C 188.377 -3.0588 -2.99369 0
M  V30 2120 C 187.703 -3.04625 -4.3944 0
M  V30 2121 C 189.003 -4.45644 -2.72394 0
M  V30 2122 H 190.697 -2.68855 -1.31748 0
M  V30 2123 H 188.243 -1.29372 -0.632362 0
M  V30 2124 H 190.196 -2.0651 -3.6733 0
M  V30 2125 H 188.92 -0.95004 -3.12477 0
M  V30 2126 H 187.579 -2.89467 -2.24954 0
M  V30 2127 H 187.227 -2.0701 -4.58428 0
M  V30 2128 H 186.927 -3.82195 -4.46319 0
M  V30 2129 H 188.451 -3.22869 -5.18255 0
M  V30 2130 H 189.865 -4.62348 -3.38979 0
M  V30 2131 H 188.262 -5.25006 -2.9067 0
M  V30 2132 H 189.332 -4.54893 -1.67929 0
M  V30 2133 N 190.675 0.682077 -1.42076 0
M  V30 2134 C 191.905 1.46844 -1.45329 0
M  V30 2135 C 192.313 1.89102 -0.0609328 0
M  V30 2136 O 191.656 1.58238 0.933082 0
M  V30 2137 C 191.718 2.75375 -2.31104 0
M  V30 2138 C 191.382 2.55238 -3.79081 0
M  V30 2139 C 192.379 2.20309 -4.70914 0
M  V30 2140 C 190.064 2.70459 -4.2327 0
M  V30 2141 C 192.058 2.00859 -6.04925 0
M  V30 2142 C 189.745 2.50624 -5.57343 0
M  V30 2143 C 190.743 2.15876 -6.47986 0
M  V30 2144 O 190.431 1.96227 -7.79583 0
M  V30 2145 H 190.163 0.4586 -0.496651 0
M  V30 2146 H 192.717 0.846131 -1.87162 0
M  V30 2147 H 190.947 3.40061 -1.84107 0
M  V30 2148 H 192.636 3.37231 -2.25898 0
M  V30 2149 H 193.402 2.08153 -4.38061 0
M  V30 2150 H 189.281 2.96485 -3.53012 0
M  V30 2151 H 192.825 1.7366 -6.75639 0
M  V30 2152 H 188.722 2.62375 -5.89771 0
M  V30 2153 H 189.49 2.10883 -7.90867 0
M  V30 2154 N 192.153 1.28127 0.917671 0
M  V30 2155 C 193.402 1.14432 1.66097 0
M  V30 2156 C 193.715 -0.307247 1.93172 0
M  V30 2157 O 194.921 -0.565259 2.65551 0
M  V30 2158 C 193.377 2.00015 2.99202 0
M  V30 2159 C 192.985 3.49889 2.79789 0
M  V30 2160 C 194.729 1.94996 3.77064 0
M  V30 2161 C 192.636 4.27636 4.08511 0
M  V30 2162 H 191.566 0.424662 0.62304 0
M  V30 2163 H 194.217 1.52628 1.01868 0
M  V30 2164 H 192.599 1.54672 3.64544 0
M  V30 2165 H 193.773 4.03162 2.23152 0
M  V30 2166 H 192.088 3.56392 2.15345 0
M  V30 2167 H 194.685 2.50354 4.72469 0
M  V30 2168 H 195.028 0.925819 4.05875 0
M  V30 2169 H 195.561 2.38287 3.18534 0
M  V30 2170 H 192.3 5.30615 3.84874 0
M  V30 2171 H 191.82 3.79137 4.64774 0
M  V30 2172 H 193.499 4.37346 4.76799 0
M  V30 2173 N 193.631 -1.12557 1.10312 0
M  V30 2174 C 194.541 -2.21841 0.763142 0
M  V30 2175 C 195.557 -1.72354 -0.238801 0
M  V30 2176 O 196.733 -2.01249 -0.0778746 0
M  V30 2177 C 193.798 -3.46131 0.198632 0
M  V30 2178 C 192.859 -4.10464 1.25769 0
M  V30 2179 C 192.092 -5.28821 0.72002 0
M  V30 2180 O 192.315 -5.6859 -0.453993 0
M  V30 2181 O 191.249 -5.83437 1.47935 0
M  V30 2182 H 195.075 -2.53312 1.67532 0
M  V30 2183 H 192.66 -1.20867 0.878157 0
M  V30 2184 H 194.542 -4.2125 -0.112401 0
M  V30 2185 H 193.217 -3.16338 -0.686419 0
M  V30 2186 H 192.124 -3.3713 1.62156 0
M  V30 2187 H 193.457 -4.44408 2.11571 0
M  V30 2188 N 195.109 -0.891671 -1.2995 0
M  V30 2189 C 196.339 -0.527893 -1.99742 0
M  V30 2190 C 196.747 0.88979 -1.66971 0
M  V30 2191 O 196.09 1.59766 -0.906667 0
M  V30 2192 C 196.152 -0.630804 -3.53922 0
M  V30 2193 C 195.816 -2.01401 -4.10228 0
M  V30 2194 C 196.813 -2.98422 -4.25724 0
M  V30 2195 C 194.498 -2.32121 -4.45449 0
M  V30 2196 C 196.492 -4.24293 -4.75662 0
M  V30 2197 C 194.179 -3.58237 -4.95086 0
M  V30 2198 C 195.177 -4.54137 -5.10146 0
M  V30 2199 O 194.865 -5.78014 -5.58708 0
M  V30 2200 H 194.597 -0.201953 -0.645129 0
M  V30 2201 H 197.151 -1.20076 -1.66646 0
M  V30 2202 H 195.381 0.0990616 -3.86573 0
M  V30 2203 H 197.07 -0.277338 -4.04951 0
M  V30 2204 H 197.836 -2.76001 -3.98809 0
M  V30 2205 H 193.715 -1.5824 -4.32991 0
M  V30 2206 H 197.259 -4.99153 -4.87332 0
M  V30 2207 H 193.156 -3.80491 -5.21437 0
M  V30 2208 H 193.924 -5.8049 -5.77039 0
M  V30 2209 N 196.587 1.43421 -0.653314 0
M  V30 2210 C 197.835 2.01414 -0.166415 0
M  V30 2211 C 198.156 1.51803 1.22397 0
M  V30 2212 O 197.426 0.730693 1.81763 0
M  V30 2213 H 196.006 0.744703 -0.0585319 0
M  V30 2214 H 198.668 1.75629 -0.845003 0
M  V30 2215 H 197.764 3.11734 -0.151111 0
M  V30 2216 N 198.065 0.39524 1.52563 0
M  V30 2217 C 199.314 -0.186321 2.00838 0
M  V30 2218 C 199.627 -1.47402 1.28577 0
M  V30 2219 O 200.833 -2.13599 1.67593 0
M  V30 2220 C 199.289 -0.382595 3.57861 0
M  V30 2221 C 198.897 0.892202 4.39026 0
M  V30 2222 C 200.641 -0.9202 4.14406 0
M  V30 2223 C 198.548 0.66388 5.87662 0
M  V30 2224 H 197.478 -0.0734041 0.750418 0
M  V30 2225 H 200.129 0.518552 1.76021 0
M  V30 2226 H 198.511 -1.14946 3.7895 0
M  V30 2227 H 199.685 1.66414 4.29701 0
M  V30 2228 H 198 1.35519 3.9373 0
M  V30 2229 H 200.597 -1.10683 5.23119 0
M  V30 2230 H 200.94 -1.89096 3.70875 0
M  V30 2231 H 201.473 -0.212751 3.97231 0
M  V30 2232 H 198.212 1.6058 6.35527 0
M  V30 2233 H 197.732 -0.0690193 5.9976 0
M  V30 2234 H 199.411 0.300699 6.46301 0
M  V30 2235 N 199.544 -1.57102 0.125237 0
M  V30 2236 C 200.476 -2.12726 -0.853237 0
M  V30 2237 C 201.489 -1.07145 -1.22571 0
M  V30 2238 O 202.678 -1.34497 -1.17358 0
M  V30 2239 C 199.778 -2.61709 -2.15317 0
M  V30 2240 C 198.951 -3.91456 -1.95143 0
M  V30 2241 C 198.01 -4.25973 -3.08923 0
M  V30 2242 O 197.036 -4.94682 -2.81564 0
M  V30 2243 N 198.238 -3.83795 -4.35524 0
M  V30 2244 H 201.003 -2.97307 -0.377964 0
M  V30 2245 H 198.564 -1.61792 -0.0590011 0
M  V30 2246 H 200.556 -2.81826 -2.90441 0
M  V30 2247 H 199.126 -1.81974 -2.54174 0
M  V30 2248 H 198.346 -3.80185 -1.04177 0
M  V30 2249 H 199.634 -4.76283 -1.78976 0
M  V30 2250 H 199.032 -3.2839 -4.60626 0
M  V30 2251 H 197.589 -4.09008 -5.07499 0
M  V30 2252 N 201.022 0.148545 -1.56898 0
M  V30 2253 C 202.438 0.501131 -1.51528 0
M  V30 2254 C 202.638 1.83458 -0.833399 0
M  V30 2255 O 201.694 2.49259 -0.40328 0
M  V30 2256 C 203.007 0.512864 -2.96294 0
M  V30 2257 C 204.555 0.598487 -3.07225 0
M  V30 2258 C 205.03 0.640897 -4.53494 0
M  V30 2259 N 206.521 0.703163 -4.57832 0
M  V30 2260 C 207.256 0.756935 -5.68382 0
M  V30 2261 N 206.752 0.770147 -6.88506 0
M  V30 2262 N 208.545 0.797698 -5.56411 0
M  V30 2263 H 200.696 -0.725532 -1.99624 0
M  V30 2264 H 202.959 -0.264358 -0.910395 0
M  V30 2265 H 202.665 -0.398691 -3.49433 0
M  V30 2266 H 202.539 1.35133 -3.52163 0
M  V30 2267 H 204.926 1.50046 -2.54106 0
M  V30 2268 H 205.007 -0.267093 -2.54402 0
M  V30 2269 H 204.651 -0.256915 -5.0725 0
M  V30 2270 H 204.581 1.52295 -5.04097 0
M  V30 2271 H 207.072 0.700314 -3.71354 0
M  V30 2272 H 207.385 0.812983 -7.68512 0
M  V30 2273 H 205.73 0.738049 -6.9107 0
M  V30 2274 H 208.921 0.784535 -4.61479 0
M  V30 2275 H 209.094 0.83614 -6.42583 0
M  V30 2276 N 202.5 1.5196 0.417844 0
M  V30 2277 C 203.749 1.6482 1.16264 0
M  V30 2278 C 204.062 0.379886 1.91876 0
M  V30 2279 O 205.268 0.388154 2.68711 0
M  V30 2280 C 203.724 2.91161 2.1155 0
M  V30 2281 C 203.332 4.25068 1.41495 0
M  V30 2282 C 205.076 3.13383 2.86341 0
M  V30 2283 C 202.983 5.42541 2.35379 0
M  V30 2284 H 201.913 0.613954 0.437694 0
M  V30 2285 H 204.564 1.78442 0.427871 0
M  V30 2286 H 202.946 2.71218 2.88543 0
M  V30 2287 H 204.12 4.55463 0.699263 0
M  V30 2288 H 202.435 4.0888 0.787792 0
M  V30 2289 H 205.032 3.98324 3.5671 0
M  V30 2290 H 205.375 2.27256 3.48798 0
M  V30 2291 H 205.908 3.33757 2.1645 0
M  V30 2292 H 202.647 6.30987 1.77582 0
M  V30 2293 H 202.167 5.16497 3.04945 0
M  V30 2294 H 203.846 5.75272 2.96093 0
M  V30 2295 N 203.978 -0.674533 1.42435 0
M  V30 2296 C 205.206 -1.46283 1.46317 0
M  V30 2297 C 205.621 -1.88653 0.0745836 0
M  V30 2298 O 204.978 -1.58151 -0.91074 0
M  V30 2299 C 205.029 -2.71178 2.3905 0
M  V30 2300 O 204.75 -2.30586 3.72507 0
M  V30 2301 C 206.251 -3.64738 2.51955 0
M  V30 2302 H 203.471 -0.450104 0.497642 0
M  V30 2303 H 206.015 -0.828792 1.86953 0
M  V30 2304 H 204.17 -3.3077 2.01667 0
M  V30 2305 H 204.584 -3.11241 4.22172 0
M  V30 2306 H 206.058 -4.49096 3.20962 0
M  V30 2307 H 206.535 -4.10656 1.55752 0
M  V30 2308 H 207.141 -3.11038 2.90061 0
M  V30 2309 N 205.456 -1.28612 -0.910864 0
M  V30 2310 C 206.696 -1.1719 -1.67469 0
M  V30 2311 C 207.06 0.274441 -1.90028 0
M  V30 2312 O 208.261 0.511425 -2.6389 0
M  V30 2313 C 206.532 -1.95137 -2.99427 0
M  V30 2314 S 208.091 -2.00122 -3.90508 0
M  V30 2315 H 204.909 -0.41806 -0.575106 0
M  V30 2316 H 207.511 -1.6275 -1.08317 0
M  V30 2317 H 206.215 -2.99381 -2.80712 0
M  V30 2318 H 205.746 -1.50137 -3.63624 0
M  V30 2319 H 207.761 -1.10981 -4.8363 0
M  V30 2320 N 206.934 1.1197 -1.10907 0
M  V30 2321 C 208.345 1.65114 -0.871446 0
M  V30 2322 C 208.696 1.86885 0.597353 0
M  V30 2323 O 207.821 1.59896 1.45816 0
M  V30 2324 C 208.416 2.99944 -1.5754 0
M  V30 2325 C 206.975 3.50018 -1.38435 0
M  V30 2326 C 206.122 2.24941 -1.62164 0
M  V30 2327 H 209.073 0.956851 -1.2661 0
M  V30 2328 H 209.094 3.66651 -1.01721 0
M  V30 2329 H 208.606 2.84067 -2.64438 0
M  V30 2330 H 206.707 3.71071 -0.337214 0
M  V30 2331 H 206.82 4.29165 -2.12965 0
M  V30 2332 H 205.184 2.3229 -1.04467 0
M  V30 2333 H 205.967 2.11612 -2.70324 0
M  V30 2334 N 208.412 0.89855 1.29475 0
M  V30 2335 C 209.36 0.365253 2.29714 0
M  V30 2336 C 210.354 -0.534993 1.6073 0
M  V30 2337 O 211.56 -0.417921 1.75081 0
M  V30 2338 H 207.935 0.0994853 0.74539 0
M  V30 2339 H 209.906 1.22406 2.72138 0
M  V30 2340 C 208.655 -0.393159 3.4547 0
M  V30 2341 H 207.978 0.290332 3.98744 0
M  V30 2342 H 209.418 -0.731189 4.17648 0
M  V30 2343 C 207.877 -1.59539 2.9673 0
M  V30 2344 O 208.407 -2.69469 2.97908 0
M  V30 2345 N 206.613 -1.43716 2.52575 0
M  V30 2346 H 206.16 -0.542828 2.51816 0
M  V30 2347 H 206.118 -2.24288 2.20323 0
M  V30 2348 N 209.89 -1.43072 0.660911 0
M  V30 2349 C 211.136 -2.0202 0.177708 0
M  V30 2350 C 211.469 -1.52066 -1.20787 0
M  V30 2351 O 210.744 -0.716987 -1.80802 0
M  V30 2352 C 211.027 -3.59561 0.197019 0
M  V30 2353 C 210.88 -4.19727 1.61706 0
M  V30 2354 C 212.199 -4.37664 -0.462396 0
M  V30 2355 H 209.318 -0.734034 0.0660494 0
M  V30 2356 H 211.96 -1.70272 0.843058 0
M  V30 2357 H 210.11 -3.86739 -0.369527 0
M  V30 2358 H 211.782 -4.03553 2.23479 0
M  V30 2359 H 210.025 -3.76084 2.16201 0
M  V30 2360 H 210.696 -5.28834 1.58237 0
M  V30 2361 H 213.172 -4.16095 0.0197215 0
M  V30 2362 H 212.048 -5.47305 -0.418188 0
M  V30 2363 H 212.309 -4.14493 -1.53778 0
M  V30 2364 N 211.368 -0.403325 -1.52352 0
M  V30 2365 C 212.645 0.232611 -1.94212 0
M  V30 2366 C 213.025 1.63133 -1.33981 0
M  V30 2367 O 212.373 2.22659 -0.513344 0
M  V30 2368 C 212.583 0.244811 -3.4814 0
M  V30 2369 C 213.931 0.46698 -4.22024 0
M  V30 2370 O 214.955 0.324419 -3.5472 0
M  V30 2371 O 213.814 0.74747 -5.41364 0
M  V30 2372 H 210.908 0.148223 -0.813609 0
M  V30 2373 H 213.454 -0.458848 -1.63379 0
M  V30 2374 H 212.226 -0.734378 -3.84347 0
M  V30 2375 H 211.849 0.980611 -3.85318 0
M  V30 2376 N 212.846 1.57033 -0.133567 0
M  V30 2377 C 214.094 1.953 0.519848 0
M  V30 2378 C 214.415 1.01866 1.66278 0
M  V30 2379 O 213.685 0.0776513 1.95746 0
M  V30 2380 H 212.265 0.721091 0.195032 0
M  V30 2381 H 214.927 1.93809 -0.205921 0
M  V30 2382 H 214.023 2.98695 0.904854 0
M  V30 2383 N 214.325 -0.140222 1.56975 0
M  V30 2384 C 215.555 -0.865181 1.87612 0
M  V30 2385 C 215.963 -1.74942 0.72055 0
M  V30 2386 O 215.306 -1.80917 -0.318561 0
M  V30 2387 C 215.368 -1.76782 3.13031 0
M  V30 2388 C 215.032 -1.06005 4.44536 0
M  V30 2389 C 216.029 -0.410768 5.18275 0
M  V30 2390 C 213.714 -1.04754 4.91255 0
M  V30 2391 C 215.708 0.241572 6.36942 0
M  V30 2392 C 213.395 -0.391394 6.09845 0
M  V30 2393 C 214.393 0.252029 6.82535 0
M  V30 2394 O 214.081 0.897757 7.98871 0
M  V30 2395 H 213.813 -0.255188 0.625983 0
M  V30 2396 H 216.367 -0.135653 2.04952 0
M  V30 2397 H 214.597 -2.53846 2.91718 0
M  V30 2398 H 216.286 -2.36533 3.29859 0
M  V30 2399 H 217.052 -0.412195 4.83245 0
M  V30 2400 H 212.931 -1.53777 4.34596 0
M  V30 2401 H 216.475 0.744375 6.93617 0
M  V30 2402 H 212.372 -0.387656 6.44335 0
M  V30 2403 H 213.14 0.800102 8.1458 0
M  V30 2404 N 215.803 -1.52179 -0.40978 0
M  V30 2405 C 217.05 -1.66206 -1.15679 0
M  V30 2406 C 217.378 -0.391674 -1.90516 0
M  V30 2407 O 216.633 0.62533 -1.8544 0
M  V30 2408 C 216.932 -2.83428 -2.17723 0
M  V30 2409 C 216.598 -4.21672 -1.59699 0
M  V30 2410 C 215.26 -4.59274 -1.43599 0
M  V30 2411 C 217.612 -5.07825 -1.17317 0
M  V30 2412 C 214.94 -5.80709 -0.836328 0
M  V30 2413 C 217.292 -6.29864 -0.587691 0
M  V30 2414 C 215.956 -6.66216 -0.413818 0
M  V30 2415 H 215.226 -0.608192 -0.423301 0
M  V30 2416 H 217.873 -1.86279 -0.444097 0
M  V30 2417 H 216.178 -2.57687 -2.95135 0
M  V30 2418 H 217.875 -2.91477 -2.75394 0
M  V30 2419 H 214.465 -3.9204 -1.73213 0
M  V30 2420 H 218.649 -4.79359 -1.28565 0
M  V30 2421 H 213.905 -6.07498 -0.689626 0
M  V30 2422 H 218.079 -6.95948 -0.250894 0
M  V30 2423 H 215.706 -7.60182 0.0529471 0
M  V30 2424 N 217.281 0.66697 -1.42791 0
M  V30 2425 C 218.692 1.2478 -1.38877 0
M  V30 2426 C 219.043 1.96012 -0.0859426 0
M  V30 2427 O 218.168 2.00463 0.815081 0
M  V30 2428 C 218.763 2.26938 -2.51564 0
M  V30 2429 C 217.322 2.80529 -2.50959 0
M  V30 2430 C 216.469 1.54965 -2.29959 0
M  V30 2431 H 219.42 0.459853 -1.51892 0
M  V30 2432 H 219.441 3.08834 -2.22265 0
M  V30 2433 H 218.953 1.75065 -3.46372 0
M  V30 2434 H 217.054 3.36502 -1.59991 0
M  V30 2435 H 217.167 3.29012 -3.48265 0
M  V30 2436 H 215.531 1.81817 -1.78366 0
M  V30 2437 H 216.314 1.05047 -3.26833 0
M  V30 2438 N 218.759 1.29093 0.90403 0
M  V30 2439 C 219.984 1.19809 1.69294 0
M  V30 2440 C 220.409 -0.238481 1.86582 0
M  V30 2441 O 219.767 -1.1723 1.383 0
M  V30 2442 C 219.815 1.91202 3.05736 0
M  V30 2443 O 218.919 1.22611 3.93752 0
M  V30 2444 H 218.26 0.415385 0.518027 0
M  V30 2445 H 220.79 1.70586 1.12967 0
M  V30 2446 H 220.8 1.99487 3.55906 0
M  V30 2447 H 219.475 2.95692 2.92471 0
M  V30 2448 H 218.052 1.22554 3.52186 0
M  V30 2449 N 220.237 -1.11381 1.11499 0
M  V30 2450 C 221.462 -1.87475 0.887019 0
M  V30 2451 C 221.887 -1.79639 -0.557796 0
M  V30 2452 O 221.245 -1.15924 -1.39396 0
M  V30 2453 C 221.293 -3.34213 1.35403 0
M  V30 2454 O 220.397 -4.0903 0.526146 0
M  V30 2455 H 219.738 -0.582099 0.319463 0
M  V30 2456 H 222.268 -1.40785 1.48461 0
M  V30 2457 H 222.278 -3.8506 1.34881 0
M  V30 2458 H 220.953 -3.39232 2.40612 0
M  V30 2459 H 219.53 -3.68082 0.597522 0
M  V30 2460 N 221.715 -0.905404 -1.28997 0
M  V30 2461 C 222.961 -0.535039 -1.95615 0
M  V30 2462 C 223.294 0.917404 -1.71165 0
M  V30 2463 O 222.569 1.65123 -1.02785 0
M  V30 2464 C 222.852 -0.834918 -3.50287 0
M  V30 2465 C 222.705 -2.33948 -3.84172 0
M  V30 2466 C 224.024 -0.325318 -4.38896 0
M  V30 2467 H 221.143 -0.195861 -0.710498 0
M  V30 2468 H 223.785 -1.13313 -1.52513 0
M  V30 2469 H 221.935 -0.325904 -3.87131 0
M  V30 2470 H 223.607 -2.91847 -3.57243 0
M  V30 2471 H 221.85 -2.79789 -3.31513 0
M  V30 2472 H 222.521 -2.49987 -4.92149 0
M  V30 2473 H 224.997 -0.761256 -4.09077 0
M  V30 2474 H 223.873 -0.564295 -5.45992 0
M  V30 2475 H 224.134 0.774144 -4.35269 0
M  V30 2476 N 223.193 1.4272 -0.668489 0
M  V30 2477 C 224.14 2.30796 0.0137489 0
M  V30 2478 C 225.11 1.4561 0.799177 0
M  V30 2479 O 226.295 1.74453 0.772702 0
M  V30 2480 C 223.435 3.31377 0.963507 0
M  V30 2481 C 222.548 4.31655 0.172569 0
M  V30 2482 C 221.683 5.19312 1.1175 0
M  V30 2483 C 220.722 6.11274 0.317886 0
M  V30 2484 N 219.859 6.91504 1.2152 0
M  V30 2485 H 224.699 2.88585 -0.743161 0
M  V30 2486 H 222.236 1.42154 -0.378226 0
M  V30 2487 H 224.194 3.88214 1.52792 0
M  V30 2488 H 222.824 2.75202 1.68712 0
M  V30 2489 H 221.876 3.76988 -0.508374 0
M  V30 2490 H 223.188 4.96779 -0.448527 0
M  V30 2491 H 222.342 5.80851 1.75206 0
M  V30 2492 H 221.081 4.5435 1.77249 0
M  V30 2493 H 220.086 5.48809 -0.329918 0
M  V30 2494 H 221.311 6.78283 -0.332917 0
M  V30 2495 H 219.257 6.29176 1.85671 0
M  V30 2496 H 219.174 7.53209 0.649036 0
M  V30 2497 H 220.442 7.57535 1.83742 0
M  V30 2498 N 224.671 0.411399 1.52136 0
M  V30 2499 C 226.082 -0.0576826 1.86611 0
M  V30 2500 C 226.433 -1.44238 1.33003 0
M  V30 2501 O 225.558 -2.05759 0.670228 0
M  V30 2502 C 226.153 -0.111448 3.38617 0
M  V30 2503 C 224.712 -0.52487 3.72723 0
M  V30 2504 C 223.859 0.299176 2.75681 0
M  V30 2505 H 226.81 0.628368 1.4573 0
M  V30 2506 H 226.831 -0.926252 3.69054 0
M  V30 2507 H 226.343 0.896488 3.77604 0
M  V30 2508 H 224.444 -1.53936 3.39315 0
M  V30 2509 H 224.557 -0.267681 4.78352 0
M  V30 2510 H 222.921 -0.238814 2.53578 0
M  V30 2511 H 223.704 1.3055 3.17508 0
M  V30 2512 N 226.149 -1.5696 0.141893 0
M  V30 2513 C 227.377 -2.00322 -0.517579 0
M  V30 2514 C 227.792 -1.02193 -1.58752 0
M  V30 2515 O 227.149 -0.0181619 -1.82491 0
M  V30 2516 C 227.2 -3.43618 -1.12289 0
M  V30 2517 O 226.921 -4.37995 -0.0956929 0
M  V30 2518 C 228.422 -4.02231 -1.86347 0
M  V30 2519 H 225.642 -0.657243 -0.135177 0
M  V30 2520 H 228.186 -2.03146 0.234973 0
M  V30 2521 H 226.341 -3.41662 -1.82609 0
M  V30 2522 H 226.755 -5.21729 -0.538469 0
M  V30 2523 H 228.229 -5.04509 -2.23997 0
M  V30 2524 H 228.706 -3.42655 -2.74744 0
M  V30 2525 H 229.312 -4.07802 -1.20737 0
M  V30 2526 N 227.627 0.131896 -1.57047 0
M  V30 2527 C 228.876 0.84044 -1.83356 0
M  V30 2528 C 229.189 1.81646 -0.725535 0
M  V30 2529 O 230.395 2.57025 -0.874659 0
M  V30 2530 C 228.851 1.54528 -3.25037 0
M  V30 2531 C 228.459 0.610902 -4.43815 0
M  V30 2532 C 230.203 2.23972 -3.60606 0
M  V30 2533 C 228.11 1.31823 -5.76521 0
M  V30 2534 H 227.04 0.317599 -0.683847 0
M  V30 2535 H 229.691 0.0931561 -1.83263 0
M  V30 2536 H 228.073 2.33873 -3.19561 0
M  V30 2537 H 229.247 -0.148407 -4.60561 0
M  V30 2538 H 227.562 0.0241016 -4.16393 0
M  V30 2539 H 230.159 2.77558 -4.57018 0
M  V30 2540 H 230.502 3.01173 -2.87403 0
M  V30 2541 H 231.035 1.51529 -3.6781 0
M  V30 2542 H 227.774 0.587771 -6.52859 0
M  V30 2543 H 227.294 2.04987 -5.63685 0
M  V30 2544 H 228.973 1.855 -6.19838 0
M  V30 2545 N 229.106 1.52395 0.401703 0
M  V30 2546 C 230.334 1.70676 1.16949 0
M  V30 2547 C 230.749 0.419503 1.8408 0
M  V30 2548 O 230.106 -0.605061 1.72178 0
M  V30 2549 C 230.157 2.84753 2.22706 0
M  V30 2550 O 229.878 4.08495 1.58314 0
M  V30 2551 C 231.379 3.14608 3.12309 0
M  V30 2552 H 228.599 0.571787 0.351142 0
M  V30 2553 H 231.143 1.98987 0.471652 0
M  V30 2554 H 229.298 2.58941 2.88147 0
M  V30 2555 H 229.712 4.72117 2.28485 0
M  V30 2556 H 231.186 3.97923 3.82572 0
M  V30 2557 H 231.663 2.28464 3.75101 0
M  V30 2558 H 232.269 3.42212 2.52529 0
M  V30 2559 N 230.584 -0.659388 1.43143 0
M  V30 2560 C 231.83 -1.41984 1.45644 0
M  V30 2561 C 232.185 -1.92245 0.0771718 0
M  V30 2562 O 231.478 -1.68976 -0.903205 0
M  V30 2563 C 231.672 -2.62206 2.42864 0
M  V30 2564 C 231.501 -2.23711 3.90107 0
M  V30 2565 C 230.271 -2.12332 4.58523 0
M  V30 2566 C 232.469 -1.84384 4.80112 0
M  V30 2567 N 230.451 -1.67102 5.9072 0
M  V30 2568 C 231.822 -1.5019 6.01534 0
M  V30 2569 C 233.877 -1.71512 4.67427 0
M  V30 2570 C 232.58 -1.04414 7.11681 0
M  V30 2571 C 234.606 -1.27142 5.77572 0
M  V30 2572 C 233.968 -0.938808 6.98116 0
M  V30 2573 H 230.067 -0.515448 0.588079 0
M  V30 2574 H 232.651 -0.759409 1.79279 0
M  V30 2575 H 230.822 -3.25917 2.11265 0
M  V30 2576 H 232.554 -3.28877 2.35843 0
M  V30 2577 H 229.309 -2.31893 4.12944 0
M  V30 2578 H 229.733 -1.46866 6.60878 0
M  V30 2579 H 234.375 -1.95868 3.74694 0
M  V30 2580 H 232.093 -0.788061 8.04248 0
M  V30 2581 H 235.679 -1.17681 5.69774 0
M  V30 2582 H 234.559 -0.6007 7.81896 0
M  V30 2583 N 232.062 -1.29571 -0.897171 0
M  V30 2584 C 233.292 -1.20408 -1.67886 0
M  V30 2585 C 233.7 0.237429 -1.87704 0
M  V30 2586 O 233.043 1.17048 -1.41582 0
M  V30 2587 C 233.105 -1.84887 -3.08314 0
M  V30 2588 C 232.769 -3.34189 -3.11716 0
M  V30 2589 C 233.766 -4.30374 -2.91675 0
M  V30 2590 C 231.451 -3.75431 -3.33701 0
M  V30 2591 C 233.445 -5.65776 -2.93557 0
M  V30 2592 C 231.132 -5.10955 -3.35214 0
M  V30 2593 C 232.13 -6.05938 -3.15164 0
M  V30 2594 O 231.818 -7.38987 -3.1647 0
M  V30 2595 H 231.55 -0.418289 -0.531046 0
M  V30 2596 H 234.104 -1.71514 -1.13014 0
M  V30 2597 H 232.334 -1.28295 -3.64798 0
M  V30 2598 H 234.023 -1.70011 -3.6858 0
M  V30 2599 H 234.789 -3.99844 -2.74499 0
M  V30 2600 H 230.668 -3.01953 -3.48347 0
M  V30 2601 H 234.212 -6.39889 -2.77826 0
M  V30 2602 H 230.109 -5.4113 -3.51922 0
M  V30 2603 H 230.877 -7.47823 -3.3272 0
M  V30 2604 N 233.54 1.10788 -1.12088 0
M  V30 2605 C 234.473 2.16237 -0.729168 0
M  V30 2606 C 235.451 1.60207 0.277921 0
M  V30 2607 O 236.635 1.87707 0.172737 0
M  V30 2608 C 233.762 3.38609 -0.0786848 0
M  V30 2609 C 232.808 4.13322 -1.05201 0
M  V30 2610 S 233.641 4.69371 -2.57781 0
M  V30 2611 C 234.797 5.95058 -1.94053 0
M  V30 2612 H 235.03 2.4913 -1.62239 0
M  V30 2613 H 232.563 1.22519 -0.939603 0
M  V30 2614 H 234.521 4.09473 0.290254 0
M  V30 2615 H 233.182 3.03962 0.791593 0
M  V30 2616 H 232.375 5.01051 -0.544433 0
M  V30 2617 H 231.977 3.48251 -1.36371 0
M  V30 2618 H 234.269 6.65278 -1.28107 0
M  V30 2619 H 235.212 6.50472 -2.79807 0
M  V30 2620 H 235.62 5.46918 -1.39787 0
M  V30 2621 N 235.018 0.912232 1.28515 0
M  V30 2622 C 236.266 0.543523 1.94654 0
M  V30 2623 C 236.587 -0.9155 1.72173 0
M  V30 2624 O 235.857 -1.64708 1.06058 0
M  V30 2625 H 234.437 0.198017 0.720277 0
M  V30 2626 H 237.099 1.16126 1.56527 0
M  V30 2627 H 236.195 0.736684 3.03281 0
M  V30 2628 N 236.496 -1.42363 0.676048 0
M  V30 2629 C 237.736 -2.03392 0.20273 0
M  V30 2630 C 238.1 -1.52306 -1.16906 0
M  V30 2631 O 239.301 -2.05129 -1.73711 0
M  V30 2632 C 237.572 -3.56614 0.236947 0
M  V30 2633 S 239.131 -4.38489 -0.165186 0
M  V30 2634 H 235.949 -0.70611 0.0832418 0
M  V30 2635 H 238.551 -1.74093 0.88948 0
M  V30 2636 H 237.255 -3.91293 1.23767 0
M  V30 2637 H 236.786 -3.90587 -0.469596 0
M  V30 2638 H 238.801 -4.76093 -1.39822 0
M  V30 2639 N 237.974 -0.419461 -1.51915 0
M  V30 2640 C 239.204 0.151915 -2.06041 0
M  V30 2641 C 239.612 1.38539 -1.28855 0
M  V30 2642 O 238.955 1.80592 -0.336463 0
M  V30 2643 C 239.017 0.557119 -3.55157 0
M  V30 2644 C 238.681 -0.567054 -4.53468 0
M  V30 2645 C 239.678 -1.43379 -4.99738 0
M  V30 2646 C 237.363 -0.742693 -4.96779 0
M  V30 2647 C 239.357 -2.46102 -5.87973 0
M  V30 2648 C 237.044 -1.77322 -5.84808 0
M  V30 2649 C 238.042 -2.63078 -6.30301 0
M  V30 2650 O 237.73 -3.64364 -7.16585 0
M  V30 2651 H 237.462 0.0193293 -0.675724 0
M  V30 2652 H 240.016 -0.592073 -1.96682 0
M  V30 2653 H 238.246 1.35355 -3.62238 0
M  V30 2654 H 239.935 1.05759 -3.9188 0
M  V30 2655 H 240.701 -1.30954 -4.66986 0
M  V30 2656 H 236.58 -0.0848307 -4.60922 0
M  V30 2657 H 240.124 -3.13071 -6.23404 0
M  V30 2658 H 236.021 -1.89773 -6.16974 0
M  V30 2659 H 236.789 -3.60731 -7.34721 0
M  V30 2660 N 239.452 1.56882 -0.150215 0
M  V30 2661 C 240.399 2.16922 0.788244 0
M  V30 2662 C 241.369 1.10303 1.24187 0
M  V30 2663 O 242.554 1.38359 1.31383 0
M  V30 2664 C 239.694 2.79754 2.02068 0
M  V30 2665 C 238.807 4.00775 1.61257 0
M  V30 2666 C 237.942 4.51595 2.79705 0
M  V30 2667 C 236.981 5.65074 2.35282 0
M  V30 2668 N 236.118 6.10499 3.4675 0
M  V30 2669 H 240.958 2.96779 0.269444 0
M  V30 2670 H 238.495 1.46599 0.12128 0
M  V30 2671 H 240.453 3.14329 2.74323 0
M  V30 2672 H 239.083 2.02536 2.51354 0
M  V30 2673 H 238.135 3.72158 0.787553 0
M  V30 2674 H 239.447 4.82978 1.24633 0
M  V30 2675 H 238.601 4.88242 3.60145 0
M  V30 2676 H 237.34 3.68406 3.19576 0
M  V30 2677 H 236.345 5.28 1.53283 0
M  V30 2678 H 237.57 6.50052 1.96493 0
M  V30 2679 H 235.516 5.30243 3.86236 0
M  V30 2680 H 235.433 6.87637 3.14152 0
M  V30 2681 H 236.701 6.51791 4.27537 0
M  V30 2682 N 240.93 -0.123565 1.57115 0
M  V30 2683 C 242.179 -0.830704 1.83799 0
M  V30 2684 C 242.492 -1.81259 0.735158 0
M  V30 2685 O 243.698 -2.56558 0.888278 0
M  V30 2686 C 242.154 -1.52802 3.25852 0
M  V30 2687 C 241.762 -0.587356 4.44133 0
M  V30 2688 C 243.506 -2.22056 3.61789 0
M  V30 2689 C 241.413 -1.28764 5.77212 0
M  V30 2690 H 240.343 -0.313967 0.685522 0
M  V30 2691 H 242.994 -0.0834359 1.8331 0
M  V30 2692 H 241.376 -2.32175 3.20797 0
M  V30 2693 H 242.55 0.172829 4.60476 0
M  V30 2694 H 240.865 -0.00201892 4.164 0
M  V30 2695 H 243.462 -2.75131 4.58483 0
M  V30 2696 H 243.805 -2.99644 2.88997 0
M  V30 2697 H 244.338 -1.49576 3.68608 0
M  V30 2698 H 241.077 -0.55314 6.53162 0
M  V30 2699 H 240.597 -2.01995 5.64764 0
M  V30 2700 H 242.276 -1.8221 6.20813 0
M  V30 2701 N 242.408 -1.52605 -0.393616 0
M  V30 2702 C 243.34 -1.73303 -1.49995 0
M  V30 2703 C 244.353 -0.613473 -1.50799 0
M  V30 2704 O 245.542 -0.889049 -1.54784 0
M  V30 2705 C 242.642 -1.77245 -2.88855 0
M  V30 2706 C 241.815 -3.06483 -3.12069 0
M  V30 2707 C 240.874 -3.02033 -4.30886 0
M  V30 2708 O 239.9 -3.75907 -4.27414 0
M  V30 2709 N 241.102 -2.20897 -5.36828 0
M  V30 2710 H 243.867 -2.68756 -1.32629 0
M  V30 2711 H 241.428 -1.51036 -0.583083 0
M  V30 2712 H 243.42 -1.7178 -3.66434 0
M  V30 2713 H 241.99 -0.891993 -2.99603 0
M  V30 2714 H 241.21 -3.25474 -2.22396 0
M  V30 2715 H 242.498 -3.91947 -3.2443 0
M  V30 2716 H 241.896 -1.60336 -5.42502 0
M  V30 2717 H 240.453 -2.21275 -6.13091 0
M  V30 2718 N 243.887 0.651787 -1.4349 0
M  V30 2719 C 244.835 1.78586 -1.49029 0
M  V30 2720 C 245.829 1.65448 -0.363767 0
M  V30 2721 O 247.035 1.71777 -0.537821 0
M  V30 2722 H 243.41 0.589236 -0.467231 0
M  V30 2723 H 245.381 1.71035 -2.44519 0
M  V30 2724 C 244.13 3.16851 -1.43181 0
M  V30 2725 H 243.453 3.27598 -2.29171 0
M  V30 2726 H 244.893 3.96156 -1.51118 0
M  V30 2727 C 243.352 3.36568 -0.149616 0
M  V30 2728 O 243.882 3.93885 0.788509 0
M  V30 2729 N 242.088 2.90539 -0.0593484 0
M  V30 2730 H 241.635 2.4408 -0.823575 0
M  V30 2731 H 241.593 3.04108 0.797853 0
M  V30 2732 N 245.365 1.30045 0.890287 0
M  V30 2733 C 246.612 1.18561 1.64163 0
M  V30 2734 C 246.94 -0.260852 1.92743 0
M  V30 2735 O 246.195 -1.20376 1.54299 0
M  V30 2736 C 246.494 1.95409 2.99249 0
M  V30 2737 C 246.16 3.45066 2.90242 0
M  V30 2738 C 244.822 3.85878 2.87492 0
M  V30 2739 C 247.174 4.4039 2.78758 0
M  V30 2740 C 244.502 5.20314 2.7109 0
M  V30 2741 C 246.854 5.74928 2.63894 0
M  V30 2742 C 245.518 6.14986 2.59516 0
M  V30 2743 H 244.788 0.433846 0.600715 0
M  V30 2744 H 247.435 1.61088 1.03552 0
M  V30 2745 H 245.74 1.45501 3.63781 0
M  V30 2746 H 247.437 1.8392 3.56334 0
M  V30 2747 H 244.027 3.12631 2.93189 0
M  V30 2748 H 248.211 4.09806 2.79952 0
M  V30 2749 H 243.467 5.50449 2.66112 0
M  V30 2750 H 247.641 6.48434 2.53981 0
M  V30 2751 H 245.268 7.19104 2.46565 0
M  V30 2752 N 246.843 -1.10192 1.12674 0
M  V30 2753 C 247.791 -2.18694 0.792196 0
M  V30 2754 C 248.785 -1.67938 -0.222058 0
M  V30 2755 O 249.991 -1.79822 -0.0800074 0
M  V30 2756 H 246.366 -0.713223 0.238364 0
M  V30 2757 H 248.337 -2.44149 1.71564 0
M  V30 2758 C 247.086 -3.46682 0.265859 0
M  V30 2759 H 246.409 -3.86101 1.03761 0
M  V30 2760 H 247.849 -4.23942 0.0701128 0
M  V30 2761 C 246.308 -3.21506 -1.00675 0
M  V30 2762 O 246.838 -3.43408 -2.08408 0
M  V30 2763 N 245.044 -2.75158 -0.934692 0
M  V30 2764 H 244.591 -2.57535 -0.0578604 0
M  V30 2765 H 244.549 -2.58691 -1.7868 0
M  V30 2766 N 248.321 -0.919034 -1.28029 0
M  V30 2767 C 249.269 -0.401753 -2.29104 0
M  V30 2768 C 250.263 0.509354 -1.61561 0
M  V30 2769 O 251.469 0.390014 -1.75724 0
M  V30 2770 H 247.844 -0.111331 -0.743713 0
M  V30 2771 H 249.815 -1.2672 -2.70156 0
M  V30 2772 C 248.564 0.338148 -3.46052 0
M  V30 2773 H 247.887 -0.353732 -3.98232 0
M  V30 2774 H 249.327 0.664653 -4.18758 0
M  V30 2775 C 247.786 1.54798 -2.99231 0
M  V30 2776 O 248.316 2.64696 -3.02157 0
M  V30 2777 N 246.522 1.3968 -2.54829 0
M  V30 2778 H 246.069 0.502698 -2.52647 0
M  V30 2779 H 246.027 2.20755 -2.23863 0
M  V30 2780 N 249.799 1.42003 -0.683588 0
M  V30 2781 C 251.045 2.01712 -0.209825 0
M  V30 2782 C 251.378 1.53968 1.18353 0
M  V30 2783 O 250.653 0.745661 1.79639 0
M  V30 2784 C 250.936 3.59202 -0.254197 0
M  V30 2785 C 250.789 4.17102 -1.68363 0
M  V30 2786 C 252.108 4.38344 0.392709 0
M  V30 2787 H 249.227 0.732891 -0.0777189 0
M  V30 2788 H 251.869 1.68909 -0.87004 0
M  V30 2789 H 250.019 3.87278 0.307954 0
M  V30 2790 H 251.691 3.99946 -2.29871 0
M  V30 2791 H 249.934 3.72597 -2.22157 0
M  V30 2792 H 250.605 5.26249 -1.6663 0
M  V30 2793 H 253.081 4.16011 -0.0859162 0
M  V30 2794 H 251.957 5.47901 0.331063 0
M  V30 2795 H 252.218 4.16887 1.47164 0
M  V30 2796 N 251.277 0.427512 1.51691 0
M  V30 2797 C 252.526 -0.143679 2.01188 0
M  V30 2798 C 252.839 -1.44642 1.31674 0
M  V30 2799 O 254.045 -2.09997 1.72086 0
M  V30 2800 C 252.501 -0.306602 3.58592 0
M  V30 2801 C 252.109 0.985125 4.37035 0
M  V30 2802 C 253.853 -0.832091 4.16265 0
M  V30 2803 C 251.76 0.788382 5.86122 0
M  V30 2804 H 250.69 -0.0574701 0.751807 0
M  V30 2805 H 253.341 0.555772 1.74881 0
M  V30 2806 H 251.723 -1.06882 3.81303 0
M  V30 2807 H 252.897 1.75492 4.26074 0
M  V30 2808 H 251.212 1.4384 3.90767 0
M  V30 2809 H 253.809 -0.995617 5.25349 0
M  V30 2810 H 254.152 -1.81186 3.74803 0
M  V30 2811 H 254.685 -0.128444 3.97593 0
M  V30 2812 H 251.424 1.74025 6.31978 0
M  V30 2813 H 250.944 0.0582143 5.99772 0
M  V30 2814 H 252.623 0.437722 6.45518 0
M  V30 2815 N 252.755 -1.56801 0.158532 0
M  V30 2816 C 254.166 -1.83189 -0.360366 0
M  V30 2817 C 254.517 -1.07778 -1.63946 0
M  V30 2818 O 253.642 -0.326718 -2.13919 0
M  V30 2819 C 254.237 -3.32297 -0.660595 0
M  V30 2820 C 252.796 -3.59227 -1.12398 0
M  V30 2821 C 251.943 -2.76877 -0.153097 0
M  V30 2822 H 254.894 -1.54008 0.383031 0
M  V30 2823 H 254.915 -3.4908 -1.51405 0
M  V30 2824 H 254.427 -3.87156 0.270527 0
M  V30 2825 H 252.528 -3.09766 -2.07064 0
M  V30 2826 H 252.641 -4.67632 -1.04197 0
M  V30 2827 H 251.005 -2.46319 -0.647983 0
M  V30 2828 H 251.788 -3.34511 0.77182 0
M  V30 2829 N 254.233 0.115231 -1.57178 0
M  V30 2830 C 255.143 1.15994 -2.03918 0
M  V30 2831 C 256.159 1.45103 -0.960268 0
M  V30 2832 O 257.335 1.56144 -1.27204 0
M  V30 2833 C 254.4 2.46568 -2.43732 0
M  V30 2834 C 253.461 2.24822 -3.65723 0
M  V30 2835 C 252.694 3.4917 -4.03629 0
M  V30 2836 O 252.917 4.56623 -3.41835 0
M  V30 2837 O 251.851 3.39949 -4.96708 0
M  V30 2838 H 255.677 0.793019 -2.93164 0
M  V30 2839 H 253.262 0.3263 -1.45793 0
M  V30 2840 H 255.144 3.23492 -2.70057 0
M  V30 2841 H 253.819 2.82726 -1.57631 0
M  V30 2842 H 252.726 1.45744 -3.44542 0
M  V30 2843 H 254.059 1.93566 -4.52541 0
M  V30 2844 N 255.711 1.52812 0.385517 0
M  V30 2845 C 256.959 1.67694 1.12797 0
M  V30 2846 C 257.28 0.421115 1.90399 0
M  V30 2847 O 256.55 -0.564551 1.87589 0
M  V30 2848 H 255.13 0.618155 0.419396 0
M  V30 2849 H 257.792 1.89938 0.436972 0
M  V30 2850 H 256.888 2.52896 1.82894 0
M  V30 2851 N 257.189 -0.644168 1.43834 0
M  V30 2852 C 258.122 -1.76906 1.44151 0
M  V30 2853 C 259.1 -1.59774 0.301857 0
M  V30 2854 O 260.284 -1.81834 0.496841 0
M  V30 2855 C 257.411 -3.14321 1.26174 0
M  V30 2856 C 256.457 -3.50134 2.43533 0
M  V30 2857 S 257.29 -3.49085 4.06079 0
M  V30 2858 C 258.446 -4.89142 3.90501 0
M  V30 2859 H 258.679 -1.76368 2.39336 0
M  V30 2860 H 256.212 -0.817624 1.30974 0
M  V30 2861 H 258.17 -3.93625 1.16489 0
M  V30 2862 H 256.831 -3.12412 0.325224 0
M  V30 2863 H 256.024 -4.50095 2.26783 0
M  V30 2864 H 255.626 -2.78264 2.4989 0
M  V30 2865 H 257.918 -5.78036 3.53385 0
M  V30 2866 H 258.861 -5.10945 4.90246 0
M  V30 2867 H 259.269 -4.63102 3.22795 0
M  V30 2868 N 258.668 -1.30515 -0.883378 0
M  V30 2869 C 259.616 -1.16941 -2.01066 0
M  V30 2870 C 260.61 -0.0809148 -1.69207 0
M  V30 2871 O 261.816 -0.241877 -1.78367 0
M  V30 2872 H 258.191 -0.361705 -0.659298 0
M  V30 2873 H 260.162 -2.12344 -2.09649 0
M  V30 2874 C 258.911 -0.879694 -3.36388 0
M  V30 2875 H 258.234 -1.70936 -3.61415 0
M  V30 2876 H 259.674 -0.82483 -4.159 0
M  V30 2877 C 258.133 0.417409 -3.34304 0
M  V30 2878 O 258.663 1.43843 -3.75063 0
M  V30 2879 N 256.869 0.429141 -2.87414 0
M  V30 2880 H 256.416 -0.402222 -2.5444 0
M  V30 2881 H 256.374 1.29696 -2.86403 0
M  V30 2882 N 260.146 1.09593 -1.13257 0
M  V30 2883 C 261.076 2.18214 -0.830946 0
M  V30 2884 C 262.057 1.68812 0.208966 0
M  V30 2885 O 263.242 1.9408 0.0682666 0
M  V30 2886 C 260.372 3.46051 -0.294296 0
M  V30 2887 C 259.326 4.08778 -1.26826 0
M  V30 2888 C 258.652 5.31419 -0.591449 0
M  V30 2889 C 259.952 4.51476 -2.62615 0
M  V30 2890 H 261.646 2.43703 -1.73923 0
M  V30 2891 H 259.192 1.17128 -0.837675 0
M  V30 2892 H 261.145 4.2134 -0.0709606 0
M  V30 2893 H 259.869 3.20079 0.649366 0
M  V30 2894 H 258.528 3.35505 -1.47756 0
M  V30 2895 H 258.176 5.01727 0.357633 0
M  V30 2896 H 257.876 5.74341 -1.24123 0
M  V30 2897 H 259.4 6.09433 -0.377355 0
M  V30 2898 H 260.814 5.17999 -2.45663 0
M  V30 2899 H 259.211 5.05277 -3.23752 0
M  V30 2900 H 260.281 3.63962 -3.20406 0
M  V30 2901 N 261.624 0.925811 1.2754 0
M  V30 2902 C 262.849 0.580924 1.99098 0
M  V30 2903 C 263.274 -0.833555 1.68622 0
M  V30 2904 O 262.632 -1.55903 0.925422 0
M  V30 2905 C 262.68 0.811186 3.51358 0
M  V30 2906 O 261.784 -0.124129 4.12213 0
M  V30 2907 H 261.125 0.223873 0.625122 0
M  V30 2908 H 263.655 1.24455 1.62395 0
M  V30 2909 H 263.665 0.72601 4.01489 0
M  V30 2910 H 262.34 1.84227 3.72872 0
M  V30 2911 H 260.917 0.0108006 3.72898 0
M  V30 2912 N 263.102 -1.41638 0.69111 0
M  V30 2913 C 264.349 -2.01299 0.220193 0
M  V30 2914 C 264.677 -1.54715 -1.17871 0
M  V30 2915 O 263.932 -0.747193 -1.80874 0
M  V30 2916 C 264.231 -3.56714 0.221277 0
M  V30 2917 C 263.897 -4.22792 1.56709 0
M  V30 2918 C 262.559 -4.40557 1.93554 0
M  V30 2919 C 264.911 -4.59883 2.45268 0
M  V30 2920 C 262.239 -4.92688 3.18552 0
M  V30 2921 C 264.591 -5.13403 3.69595 0
M  V30 2922 C 263.255 -5.29379 4.06589 0
M  V30 2923 H 262.525 -0.736606 0.0805743 0
M  V30 2924 H 265.172 -1.69598 0.889319 0
M  V30 2925 H 263.477 -3.8818 -0.531391 0
M  V30 2926 H 265.174 -4.00678 -0.160547 0
M  V30 2927 H 261.764 -4.09336 1.2705 0
M  V30 2928 H 265.948 -4.45817 2.18084 0
M  V30 2929 H 261.204 -5.03242 3.47214 0
M  V30 2930 H 265.378 -5.41084 4.38407 0
M  V30 2931 H 263.005 -5.69537 5.03519 0
M  V30 2932 N 264.58 -0.43555 -1.51462 0
M  V30 2933 C 265.51 0.367376 -2.30592 0
M  V30 2934 C 266.491 1.02263 -1.35928 0
M  V30 2935 O 267.676 1.02661 -1.64847 0
M  V30 2936 C 264.806 1.46983 -3.14664 0
M  V30 2937 C 263.76 0.938161 -4.17591 0
M  V30 2938 C 263.086 2.13622 -4.90173 0
M  V30 2939 C 264.386 -0.0261621 -5.22293 0
M  V30 2940 H 266.08 -0.292969 -2.97963 0
M  V30 2941 H 263.626 -0.14234 -1.43295 0
M  V30 2942 H 265.579 2.03873 -3.688 0
M  V30 2943 H 264.303 2.15843 -2.4511 0
M  V30 2944 H 262.962 0.391481 -3.64504 0
M  V30 2945 H 262.61 2.81098 -4.17124 0
M  V30 2946 H 262.31 1.78688 -5.59772 0
M  V30 2947 H 263.834 2.7107 -5.47132 0
M  V30 2948 H 265.248 0.452384 -5.71512 0
M  V30 2949 H 263.645 -0.287992 -5.99409 0
M  V30 2950 H 264.715 -0.963391 -4.75233 0
M  V30 2951 N 266.058 1.56714 -0.166846 0
M  V30 2952 C 267.307 1.95922 0.479318 0
M  V30 2953 C 267.62 1.05529 1.6469 0
M  V30 2954 O 268.826 1.34399 2.35901 0
M  V30 2955 C 267.282 3.48359 0.90412 0
M  V30 2956 C 266.89 4.47369 -0.237621 0
M  V30 2957 C 268.634 3.96394 1.51896 0
M  V30 2958 C 266.541 5.91039 0.206561 0
M  V30 2959 H 265.471 0.731495 0.18284 0
M  V30 2960 H 268.122 1.81728 -0.254363 0
M  V30 2961 H 266.504 3.57955 1.69365 0
M  V30 2962 H 267.678 4.49485 -1.01489 0
M  V30 2963 H 265.993 4.09366 -0.762128 0
M  V30 2964 H 268.59 5.01186 1.86325 0
M  V30 2965 H 268.933 3.39075 2.41524 0
M  V30 2966 H 269.466 3.89796 0.79395 0
M  V30 2967 H 266.205 6.52221 -0.654834 0
M  V30 2968 H 265.725 5.9224 0.949282 0
M  V30 2969 H 267.404 6.43707 0.651939 0
M  V30 2970 N 267.536 -0.106894 1.57237 0
M  V30 2971 C 268.499 -1.11466 2.0027 0
M  V30 2972 C 269.499 -1.33623 0.894519 0
M  V30 2973 O 270.689 -1.29935 1.16028 0
M  V30 2974 C 267.821 -2.46646 2.35327 0
M  V30 2975 H 269.014 -0.744516 2.90512 0
M  V30 2976 H 266.567 -0.351576 1.52295 0
M  V30 2977 H 267.302 -2.88558 1.48003 0
M  V30 2978 H 267.087 -2.31915 3.16161 0
M  V30 2979 H 268.577 -3.19151 2.69318 0
M  V30 2980 N 269.014 -1.53014 -0.377408 0
M  V30 2981 C 269.944 -1.81589 -1.46791 0
M  V30 2982 C 270.925 -0.668622 -1.56408 0
M  V30 2983 O 272.11 -0.917337 -1.71168 0
M  V30 2984 C 269.24 -1.99519 -2.8427 0
M  V30 2985 C 268.194 -3.15249 -2.89486 0
M  V30 2986 C 267.52 -3.18451 -4.29527 0
M  V30 2987 C 268.82 -4.54084 -2.58079 0
M  V30 2988 H 270.514 -2.7291 -1.23127 0
M  V30 2989 H 268.06 -1.31319 -0.590883 0
M  V30 2990 H 270.013 -2.18092 -3.60575 0
M  V30 2991 H 268.737 -1.04897 -3.09296 0
M  V30 2992 H 267.396 -2.96477 -2.15631 0
M  V30 2993 H 267.044 -2.2149 -4.5161 0
M  V30 2994 H 266.744 -3.962 -4.33934 0
M  V30 2995 H 268.268 -3.39193 -5.07721 0
M  V30 2996 H 269.682 -4.72899 -3.24098 0
M  V30 2997 H 268.079 -5.33987 -2.7382 0
M  V30 2998 H 269.149 -4.60006 -1.53372 0
M  V30 2999 N 270.492 0.636531 -1.44174 0
M  V30 3000 C 271.741 1.39213 -1.45954 0
M  V30 3001 C 272.054 1.95374 -0.0939119 0
M  V30 3002 O 273.26 2.71498 0.0107767 0
M  V30 3003 C 271.716 2.52025 -2.56927 0
M  V30 3004 C 271.324 2.024 -3.99673 0
M  V30 3005 C 273.068 3.29269 -2.67922 0
M  V30 3006 C 270.975 3.12521 -5.0208 0
M  V30 3007 H 269.905 0.523132 -0.542999 0
M  V30 3008 H 272.556 0.685349 -1.70221 0
M  V30 3009 H 270.938 3.25253 -2.25891 0
M  V30 3010 H 272.112 1.36073 -4.40251 0
M  V30 3011 H 270.427 1.37987 -3.92872 0
M  V30 3012 H 273.024 4.11352 -3.41605 0
M  V30 3013 H 273.367 3.78397 -1.73555 0
M  V30 3014 H 273.9 2.63129 -2.98342 0
M  V30 3015 H 270.639 2.68343 -5.98057 0
M  V30 3016 H 270.159 3.77507 -4.66099 0
M  V30 3017 H 271.838 3.77385 -5.25538 0
M  V30 3018 N 271.97 1.30982 0.876444 0
M  V30 3019 C 273.195 1.23373 1.66715 0
M  V30 3020 C 273.62 -0.19885 1.87046 0
M  V30 3021 O 272.978 -1.1427 1.40756 0
M  V30 3022 C 273.026 1.97644 3.01611 0
M  V30 3023 O 272.13 1.30935 3.91062 0
M  V30 3024 H 271.471 0.426279 0.509099 0
M  V30 3025 H 274.001 1.72944 1.09323 0
M  V30 3026 H 274.011 2.06992 3.51594 0
M  V30 3027 H 272.686 3.01829 2.86133 0
M  V30 3028 H 271.263 1.29996 3.49507 0
M  V30 3029 N 273.449 -1.08991 1.13837 0
M  V30 3030 C 274.397 -2.17841 0.815347 0
M  V30 3031 C 275.391 -1.68164 -0.204233 0
M  V30 3032 O 276.597 -1.79897 -0.0609304 0
M  V30 3033 H 272.972 -0.710654 0.245915 0
M  V30 3034 H 274.943 -2.42315 1.74143 0
M  V30 3035 C 273.692 -3.46381 0.302614 0
M  V30 3036 H 273.015 -3.84979 1.0785 0
M  V30 3037 H 274.455 -4.23844 0.115074 0
M  V30 3038 C 272.914 -3.22556 -0.972591 0
M  V30 3039 O 273.444 -3.45599 -2.04754 0
M  V30 3040 N 271.65 -2.76134 -0.905455 0
M  V30 3041 H 271.197 -2.57582 -0.0305421 0
M  V30 3042 H 271.155 -2.60571 -1.75926 0
M  V30 3043 N 274.927 -0.932562 -1.27047 0
M  V30 3044 C 275.875 -0.42603 -2.28665 0
M  V30 3045 C 276.869 0.49219 -1.62092 0
M  V30 3046 O 278.075 0.371355 -1.76128 0
M  V30 3047 H 274.45 -0.119213 -0.742491 0
M  V30 3048 H 276.421 -1.29579 -2.68797 0
M  V30 3049 C 275.17 0.301426 -3.46391 0
M  V30 3050 H 274.493 -0.39595 -3.97834 0
M  V30 3051 H 275.933 0.6202 -4.1944 0
M  V30 3052 C 274.392 1.51616 -3.00856 0
M  V30 3053 O 274.922 2.61476 -3.04948 0
M  V30 3054 N 273.128 1.36969 -2.56296 0
M  V30 3055 H 272.675 0.475873 -2.53166 0
M  V30 3056 H 272.633 2.18368 -2.26192 0
M  V30 3057 N 276.405 1.4127 -0.698611 0
M  V30 3058 C 277.653 2.00782 -0.230409 0
M  V30 3059 C 277.974 1.5562 1.17505 0
M  V30 3060 O 277.244 0.78815 1.79346 0
M  V30 3061 H 275.824 0.742464 -0.0821944 0
M  V30 3062 H 278.486 1.72852 -0.90045 0
M  V30 3063 H 277.582 3.11095 -0.25021 0
M  V30 3064 N 277.883 0.443576 1.51229 0
M  V30 3065 C 278.831 -0.37904 2.29491 0
M  V30 3066 C 279.825 -1.0153 1.35603 0
M  V30 3067 O 281.031 -0.94955 1.52917 0
M  V30 3068 H 277.406 -0.141053 0.738653 0
M  V30 3069 H 279.377 0.301799 2.9687 0
M  V30 3070 C 278.126 -1.46426 3.15364 0
M  V30 3071 H 277.449 -0.984037 3.87501 0
M  V30 3072 H 278.889 -2.01297 3.7317 0
M  V30 3073 C 277.348 -2.45099 2.31146 0
M  V30 3074 O 277.878 -3.49773 1.9754 0
M  V30 3075 N 276.084 -2.16139 1.94249 0
M  V30 3076 H 275.631 -1.31044 2.21777 0
M  V30 3077 H 275.589 -2.82398 1.38198 0
M  V30 3078 N 279.361 -1.56624 0.175154 0
M  V30 3079 C 280.591 -2.01082 -0.474283 0
M  V30 3080 C 280.999 -1.05447 -1.57091 0
M  V30 3081 O 280.342 -0.0480595 -1.83637 0
M  V30 3082 C 280.404 -3.41963 -1.10911 0
M  V30 3083 C 280.068 -4.56742 -0.153666 0
M  V30 3084 C 281.065 -5.16076 0.629448 0
M  V30 3085 C 278.75 -5.02277 -0.0483776 0
M  V30 3086 C 280.744 -6.19377 1.50501 0
M  V30 3087 C 278.431 -6.05427 0.830768 0
M  V30 3088 C 279.429 -6.63849 1.60605 0
M  V30 3089 O 279.117 -7.64998 2.47049 0
M  V30 3090 H 278.849 -0.664261 -0.125432 0
M  V30 3091 H 281.403 -2.03549 0.275163 0
M  V30 3092 H 279.633 -3.36422 -1.90676 0
M  V30 3093 H 281.322 -3.70352 -1.66114 0
M  V30 3094 H 282.088 -4.81776 0.558297 0
M  V30 3095 H 277.967 -4.56513 -0.641611 0
M  V30 3096 H 281.511 -6.64906 2.1106 0
M  V30 3097 H 277.408 -6.39151 0.903107 0
M  V30 3098 H 278.176 -7.82336 2.40607 0
M  V30 3099 N 280.839 0.0985539 -1.57292 0
M  V30 3100 C 282.067 0.816318 -1.90115 0
M  V30 3101 C 282.482 1.72451 -0.768509 0
M  V30 3102 O 281.839 1.80643 0.259687 0
M  V30 3103 C 281.89 1.63259 -3.22535 0
M  V30 3104 O 281.611 0.760934 -4.31441 0
M  V30 3105 C 283.112 2.45372 -3.69199 0
M  V30 3106 H 280.332 0.233595 -0.629027 0
M  V30 3107 H 282.876 0.0768229 -2.04356 0
M  V30 3108 H 281.031 2.32463 -3.09903 0
M  V30 3109 H 281.445 1.32595 -5.07463 0
M  V30 3110 H 282.919 2.98144 -4.64558 0
M  V30 3111 H 283.396 3.23677 -2.96867 0
M  V30 3112 H 284.002 1.81373 -3.84687 0
M  V30 3113 N 282.317 1.53212 0.369288 0
M  V30 3114 C 283.557 1.70915 1.12105 0
M  V30 3115 C 283.921 0.449444 1.86665 0
M  V30 3116 O 285.122 0.503105 2.6405 0
M  V30 3117 C 283.393 2.9222 2.05772 0
M  V30 3118 S 284.952 3.30609 2.88519 0
M  V30 3119 H 281.77 0.601445 0.379189 0
M  V30 3120 H 284.372 1.91306 0.402794 0
M  V30 3121 H 283.076 3.82103 1.49752 0
M  V30 3122 H 282.607 2.7422 2.82076 0
M  V30 3123 H 284.622 2.82333 4.08047 0
M  V30 3124 N 283.795 -0.628877 1.44509 0
M  V30 3125 C 285.041 -1.39045 1.47629 0
M  V30 3126 C 285.374 -1.93892 0.109343 0
M  V30 3127 O 284.649 -1.7379 -0.87334 0
M  V30 3128 C 284.932 -2.55408 2.53848 0
M  V30 3129 C 284.785 -2.05896 3.99909 0
M  V30 3130 C 286.104 -3.5759 2.56549 0
M  V30 3131 H 283.223 -0.504232 0.537512 0
M  V30 3132 H 285.865 -0.710854 1.76201 0
M  V30 3133 H 284.015 -3.13384 2.29615 0
M  V30 3134 H 285.687 -1.52734 4.35282 0
M  V30 3135 H 283.93 -1.37061 4.11578 0
M  V30 3136 H 284.601 -2.89681 4.69882 0
M  V30 3137 H 287.077 -3.09419 2.78207 0
M  V30 3138 H 285.953 -4.36527 3.32769 0
M  V30 3139 H 286.214 -4.11808 1.60832 0
M  V30 3140 N 285.273 -1.31445 -0.869486 0
M  V30 3141 C 286.519 -1.21337 -1.62496 0
M  V30 3142 C 286.852 0.227872 -1.92858 0
M  V30 3143 O 286.127 1.16094 -1.56053 0
M  V30 3144 C 286.41 -2.05814 -2.95487 0
M  V30 3145 C 286.263 -3.5824 -2.72 0
M  V30 3146 C 287.582 -1.9079 -3.96594 0
M  V30 3147 H 284.701 -0.442135 -0.589649 0
M  V30 3148 H 287.343 -1.6124 -1.00507 0
M  V30 3149 H 285.493 -1.71913 -3.48394 0
M  V30 3150 H 287.165 -4.0228 -2.25762 0
M  V30 3151 H 285.408 -3.81647 -2.06224 0
M  V30 3152 H 286.079 -4.12657 -3.66631 0
M  V30 3153 H 288.555 -2.20459 -3.52898 0
M  V30 3154 H 287.431 -2.52199 -4.87531 0
M  V30 3155 H 287.692 -0.871341 -4.33428 0
M  V30 3156 N 286.751 1.08385 -1.14413 0
M  V30 3157 C 287.979 1.84517 -0.936001 0
M  V30 3158 C 288.394 1.81626 0.515503 0
M  V30 3159 O 287.751 1.22008 1.35721 0
M  V30 3160 C 287.802 3.32049 -1.42918 0
M  V30 3161 O 287.523 3.34951 -2.82381 0
M  V30 3162 C 289.024 4.24986 -1.26103 0
M  V30 3163 H 286.244 0.582491 -0.333084 0
M  V30 3164 H 288.788 1.36885 -1.5193 0
M  V30 3165 H 286.943 3.7707 -0.888641 0
M  V30 3166 H 287.357 4.27048 -3.04517 0
M  V30 3167 H 288.831 5.26615 -1.6547 0
M  V30 3168 H 289.308 4.38726 -0.20392 0
M  V30 3169 H 289.914 3.85791 -1.79012 0
M  V30 3170 N 288.23 0.939286 1.26551 0
M  V30 3171 C 289.46 0.601663 1.97645 0
M  V30 3172 C 289.868 -0.827206 1.70159 0
M  V30 3173 O 289.211 -1.56291 0.965338 0
M  V30 3174 C 289.273 0.761725 3.51337 0
M  V30 3175 C 288.937 2.16487 4.0247 0
M  V30 3176 C 289.934 3.14016 4.14355 0
M  V30 3177 C 287.619 2.48494 4.36527 0
M  V30 3178 C 289.613 4.41654 4.59587 0
M  V30 3179 C 287.3 3.76364 4.81449 0
M  V30 3180 C 288.298 4.72758 4.92939 0
M  V30 3181 O 287.986 5.98352 5.36871 0
M  V30 3182 H 287.718 0.225758 0.637189 0
M  V30 3183 H 290.272 1.26178 1.62075 0
M  V30 3184 H 288.502 0.0444808 3.86674 0
M  V30 3185 H 290.191 0.427442 4.03643 0
M  V30 3186 H 290.957 2.90613 3.8829 0
M  V30 3187 H 286.836 1.74202 4.26819 0
M  V30 3188 H 290.38 5.16896 4.68471 0
M  V30 3189 H 286.277 3.99582 5.06956 0
M  V30 3190 H 287.045 6.01507 5.55096 0
M  V30 3191 N 289.708 -1.40897 0.706093 0
M  V30 3192 C 291.119 -1.84023 0.315052 0
M  V30 3193 C 291.47 -1.5906 -1.14866 0
M  V30 3194 O 290.595 -1.06651 -1.88293 0
M  V30 3195 C 291.19 -3.34055 0.565038 0
M  V30 3196 C 289.749 -3.7571 0.227806 0
M  V30 3197 C 288.896 -2.64204 0.842122 0
M  V30 3198 H 291.847 -1.303 0.905963 0
M  V30 3199 H 291.868 -3.80107 -0.172843 0
M  V30 3200 H 291.38 -3.52192 1.63042 0
M  V30 3201 H 289.481 -3.63172 -0.832895 0
M  V30 3202 H 289.594 -4.74103 0.690174 0
M  V30 3203 H 287.958 -2.53255 0.270893 0
M  V30 3204 H 288.741 -2.85155 1.91158 0
M  V30 3205 N 291.186 -0.45159 -1.50991 0
M  V30 3206 C 292.096 0.358431 -2.31846 0
M  V30 3207 C 293.112 1.01438 -1.41373 0
M  V30 3208 O 294.288 1.00663 -1.74439 0
M  V30 3209 C 291.353 1.43704 -3.15515 0
M  V30 3210 C 290.414 0.799742 -4.21785 0
M  V30 3211 C 289.647 1.82696 -5.01456 0
M  V30 3212 O 289.87 3.05105 -4.81941 0
M  V30 3213 O 288.804 1.40958 -5.85162 0
M  V30 3214 H 292.63 -0.302032 -3.02194 0
M  V30 3215 H 290.215 -0.213825 -1.47862 0
M  V30 3216 H 292.097 2.06227 -3.67489 0
M  V30 3217 H 290.772 2.08133 -2.47916 0
M  V30 3218 H 289.679 0.136084 -3.73852 0
M  V30 3219 H 291.012 0.198718 -4.91799 0
M  V30 3220 N 292.664 1.56529 -0.183458 0
M  V30 3221 C 293.612 2.19873 0.758845 0
M  V30 3222 C 294.606 1.16638 1.22849 0
M  V30 3223 O 295.812 1.3481 1.19274 0
M  V30 3224 H 292.187 0.7045 0.263029 0
M  V30 3225 H 294.158 2.97724 0.200755 0
M  V30 3226 C 292.907 2.86314 1.9728 0
M  V30 3227 H 292.23 3.65487 1.62047 0
M  V30 3228 H 293.67 3.3409 2.61075 0
M  V30 3229 C 292.129 1.86729 2.80418 0
M  V30 3230 O 292.659 1.36031 3.77966 0
M  V30 3231 N 290.865 1.55216 2.45675 0
M  V30 3232 H 290.412 1.96636 1.66409 0
M  V30 3233 H 290.37 0.888388 3.01588 0
M  V30 3234 N 294.142 -0.090211 1.57342 0
M  V30 3235 C 295.39 -0.791241 1.85967 0
M  V30 3236 C 295.711 -1.7903 0.772859 0
M  V30 3237 O 294.981 -1.94872 -0.200398 0
M  V30 3238 H 293.561 -0.295205 0.686195 0
M  V30 3239 H 296.223 -0.0706782 1.94772 0
M  V30 3240 H 295.319 -1.31882 2.82867 0
M  V30 3241 N 295.62 -1.53406 -0.361157 0
M  V30 3242 C 297.036 -1.43277 -0.703124 0
M  V30 3243 C 297.236 -0.575384 -1.9311 0
M  V30 3244 O 296.292 -0.0595362 -2.5243 0
M  V30 3245 C 297.605 -2.8653 -0.9122 0
M  V30 3246 C 299.153 -2.96191 -1.01193 0
M  V30 3247 C 299.628 -4.40514 -1.25345 0
M  V30 3248 N 301.119 -4.43962 -1.32105 0
M  V30 3249 C 301.854 -5.52746 -1.5251 0
M  V30 3250 N 301.35 -6.71567 -1.70203 0
M  V30 3251 N 303.143 -5.40331 -1.54916 0
M  V30 3252 H 295.294 -2.07654 0.446475 0
M  V30 3253 H 297.557 -0.937944 0.137715 0
M  V30 3254 H 297.263 -3.51605 -0.0816414 0
M  V30 3255 H 297.137 -3.30441 -1.81903 0
M  V30 3256 H 299.524 -2.31266 -1.83303 0
M  V30 3257 H 299.605 -2.55667 -0.0823929 0
M  V30 3258 H 299.249 -5.06014 -0.437346 0
M  V30 3259 H 299.179 -4.78614 -2.19627 0
M  V30 3260 H 301.67 -3.58332 -1.20028 0
M  V30 3261 H 301.983 -7.50241 -1.85359 0
M  V30 3262 H 300.328 -6.74545 -1.67373 0
M  V30 3263 H 303.519 -4.46465 -1.40663 0
M  V30 3264 H 303.692 -6.25173 -1.70477 0
M  V30 3265 N 297.098 0.621204 -1.44841 0
M  V30 3266 C 298.326 1.40752 -1.51646 0
M  V30 3267 C 298.741 1.88246 -0.144549 0
M  V30 3268 O 298.098 1.61422 0.851416 0
M  V30 3269 C 298.149 2.62119 -2.4895 0
M  V30 3270 O 297.87 2.16602 -3.80808 0
M  V30 3271 C 299.371 3.55135 -2.65319 0
M  V30 3272 H 296.591 0.431325 -0.514004 0
M  V30 3273 H 299.135 0.758835 -1.899 0
M  V30 3274 H 297.29 3.23058 -2.13805 0
M  V30 3275 H 297.704 2.95358 -4.33433 0
M  V30 3276 H 299.178 4.36874 -3.37409 0
M  V30 3277 H 299.655 4.04592 -1.70886 0
M  V30 3278 H 300.261 3.00058 -3.01405 0
M  V30 3279 N 298.576 1.31904 0.862503 0
M  V30 3280 C 299.823 1.22017 1.61611 0
M  V30 3281 C 300.151 -0.21991 1.93253 0
M  V30 3282 O 299.406 -1.17076 1.56817 0
M  V30 3283 C 299.705 2.01713 2.95037 0
M  V30 3284 C 299.371 3.51145 2.82857 0
M  V30 3285 C 298.033 3.91889 2.79243 0
M  V30 3286 C 300.385 4.46204 2.69353 0
M  V30 3287 C 297.713 5.25947 2.59993 0
M  V30 3288 C 300.065 5.80397 2.5164 0
M  V30 3289 C 298.729 6.20352 2.46413 0
M  V30 3290 H 297.999 0.44649 0.591378 0
M  V30 3291 H 300.646 1.63248 1.00111 0
M  V30 3292 H 298.951 1.53185 3.60613 0
M  V30 3293 H 300.648 1.91437 3.52353 0
M  V30 3294 H 297.238 3.1878 2.86491 0
M  V30 3295 H 301.422 4.15652 2.71196 0
M  V30 3296 H 296.678 5.5597 2.54376 0
M  V30 3297 H 300.852 6.53676 2.40169 0
M  V30 3298 H 298.479 7.24172 2.31256 0
M  V30 3299 N 300.054 -1.07777 1.14986 0
M  V30 3300 C 301.004 -2.13082 0.811181 0
M  V30 3301 C 301.988 -1.59619 -0.202597 0
M  V30 3302 O 303.18 -1.77 -0.00398275 0
M  V30 3303 C 300.309 -3.42009 0.297439 0
M  V30 3304 C 299.395 -4.02337 1.34112 0
M  V30 3305 N 299.786 -4.36982 2.54716 0
M  V30 3306 C 298.084 -4.29752 1.19285 0
M  V30 3307 C 298.785 -4.84729 3.21578 0
M  V30 3308 N 297.761 -4.83233 2.48972 0
M  V30 3309 H 301.563 -2.37696 1.72853 0
M  V30 3310 H 299.077 -1.25173 1.03468 0
M  V30 3311 H 301.074 -4.16884 0.0364777 0
M  V30 3312 H 299.734 -3.18841 -0.614022 0
M  V30 3313 H 300.745 -4.27807 2.91894 0
M  V30 3314 H 297.422 -4.16106 0.340926 0
M  V30 3315 H 298.812 -5.20863 4.24442 0
M  V30 3316 N 301.532 -0.945985 -1.26051 0
M  V30 3317 C 302.462 -0.477172 -2.28572 0
M  V30 3318 C 303.443 0.472032 -1.63419 0
M  V30 3319 O 304.628 0.372853 -1.90587 0
M  V30 3320 C 301.758 0.253975 -3.4637 0
M  V30 3321 C 300.712 -0.609135 -4.23643 0
M  V30 3322 C 300.038 0.252252 -5.34105 0
M  V30 3323 C 301.338 -1.8829 -4.8718 0
M  V30 3324 H 303.032 -1.33402 -2.68038 0
M  V30 3325 H 300.578 -0.642904 -1.28852 0
M  V30 3326 H 302.531 0.593016 -4.17207 0
M  V30 3327 H 301.255 1.145 -3.05871 0
M  V30 3328 H 299.914 -0.931138 -3.54578 0
M  V30 3329 H 299.562 1.14278 -4.89846 0
M  V30 3330 H 299.262 -0.32188 -5.86718 0
M  V30 3331 H 300.786 0.586454 -6.07777 0
M  V30 3332 H 302.2 -1.61081 -5.50205 0
M  V30 3333 H 300.597 -2.40199 -5.49931 0
M  V30 3334 H 301.667 -2.59134 -4.09851 0
M  V30 3335 N 303.011 1.40521 -0.713556 0
M  V30 3336 C 304.239 2.05237 -0.261775 0
M  V30 3337 C 304.654 1.53755 1.09567 0
M  V30 3338 O 304.011 0.693268 1.6882 0
M  V30 3339 C 304.062 3.60763 -0.230706 0
M  V30 3340 O 303.783 4.10345 -1.53455 0
M  V30 3341 C 305.284 4.42651 0.239874 0
M  V30 3342 H 302.504 0.660533 -0.118057 0
M  V30 3343 H 305.048 1.79967 -0.971192 0
M  V30 3344 H 303.203 3.8501 0.429661 0
M  V30 3345 H 303.617 5.04526 -1.43366 0
M  V30 3346 H 305.091 5.51599 0.210468 0
M  V30 3347 H 305.568 4.20082 1.28171 0
M  V30 3348 H 306.174 4.23507 -0.390142 0
M  V30 3349 N 304.489 0.459591 1.5075 0
M  V30 3350 C 305.905 0.113092 1.59199 0
M  V30 3351 C 306.105 -1.37951 1.46874 0
M  V30 3352 O 305.161 -2.15168 1.32132 0
M  V30 3353 C 306.474 0.653043 2.93523 0
M  V30 3354 C 308.022 0.615449 3.0689 0
M  V30 3355 C 308.497 1.13275 4.43771 0
M  V30 3356 N 309.988 1.09167 4.50152 0
M  V30 3357 C 310.723 1.46256 5.54434 0
M  V30 3358 N 310.219 1.90739 6.66026 0
M  V30 3359 N 312.012 1.37932 5.44914 0
M  V30 3360 H 304.163 1.43049 1.57005 0
M  V30 3361 H 306.426 0.590861 0.741341 0
M  V30 3362 H 306.132 1.69822 3.07983 0
M  V30 3363 H 306.006 0.0902132 3.77092 0
M  V30 3364 H 308.393 -0.420793 2.92084 0
M  V30 3365 H 308.474 1.21495 2.25106 0
M  V30 3366 H 308.118 2.16757 4.59324 0
M  V30 3367 H 308.048 0.509576 5.24129 0
M  V30 3368 H 310.539 0.76528 3.7007 0
M  V30 3369 H 310.852 2.17218 7.41644 0
M  V30 3370 H 309.197 1.94683 6.67176 0
M  V30 3371 H 312.388 1.0303 4.56621 0
M  V30 3372 H 312.561 1.67164 6.26067 0
M  V30 3373 N 305.967 -1.56429 0.191757 0
M  V30 3374 C 307.195 -2.01867 -0.453586 0
M  V30 3375 C 307.61 -1.07191 -1.5542 0
M  V30 3376 O 306.967 -0.0762108 -1.82341 0
M  V30 3377 C 307.018 -3.47017 -1.013 0
M  V30 3378 O 306.739 -4.38078 0.0437005 0
M  V30 3379 C 308.24 -4.07956 -1.73456 0
M  V30 3380 H 305.46 -0.661211 -0.114199 0
M  V30 3381 H 308.004 -2.02295 0.299483 0
M  V30 3382 H 306.159 -3.47298 -1.71647 0
M  V30 3383 H 306.573 -5.23178 -0.372212 0
M  V30 3384 H 308.047 -5.1138 -2.07833 0
M  V30 3385 H 308.524 -3.51222 -2.63704 0
M  V30 3386 H 309.13 -4.11437 -1.07702 0
M  V30 3387 N 307.445 0.0818655 -1.57387 0
M  V30 3388 C 308.375 1.09885 -2.06028 0
M  V30 3389 C 309.356 1.4098 -0.951774 0
M  V30 3390 O 310.541 1.50781 -1.22387 0
M  V30 3391 C 307.671 2.4151 -2.4958 0
M  V30 3392 C 306.625 2.24792 -3.64215 0
M  V30 3393 C 305.951 3.61712 -3.93787 0
M  V30 3394 C 307.251 1.67749 -4.94629 0
M  V30 3395 H 308.945 0.694128 -2.91243 0
M  V30 3396 H 306.491 0.332448 -1.4011 0
M  V30 3397 H 308.444 3.12939 -2.82219 0
M  V30 3398 H 307.168 2.83943 -1.61381 0
M  V30 3399 H 305.827 1.55807 -3.31843 0
M  V30 3400 H 305.475 4.01697 -3.02735 0
M  V30 3401 H 305.175 3.51368 -4.70971 0
M  V30 3402 H 306.699 4.34587 -4.28913 0
M  V30 3403 H 308.113 2.29032 -5.25564 0
M  V30 3404 H 306.51 1.68128 -5.76067 0
M  V30 3405 H 307.58 0.638059 -4.80684 0
M  V30 3406 N 308.923 1.53595 0.353017 0
M  V30 3407 C 310.151 1.74311 1.1146 0
M  V30 3408 C 310.566 0.477854 1.82653 0
M  V30 3409 O 309.923 -0.549977 1.74016 0
M  V30 3410 C 309.974 2.91694 2.13534 0
M  V30 3411 O 309.695 4.13325 1.45238 0
M  V30 3412 C 311.196 3.24384 3.02142 0
M  V30 3413 H 308.416 0.582669 0.332773 0
M  V30 3414 H 310.96 2.00386 0.408107 0
M  V30 3415 H 309.115 2.67977 2.79763 0
M  V30 3416 H 309.529 4.79148 2.13349 0
M  V30 3417 H 311.003 4.09893 3.69718 0
M  V30 3418 H 311.48 2.40282 3.67643 0
M  V30 3419 H 312.086 3.50073 2.41514 0
M  V30 3420 N 310.401 -0.613514 1.45168 0
M  V30 3421 C 311.647 -1.37471 1.49096 0
M  V30 3422 C 311.98 -1.93765 0.129901 0
M  V30 3423 O 311.255 -1.74707 -0.854858 0
M  V30 3424 C 311.538 -2.52701 2.56542 0
M  V30 3425 C 311.391 -2.01643 4.0207 0
M  V30 3426 C 312.71 -3.54849 2.60327 0
M  V30 3427 H 309.829 -0.498502 0.54283 0
M  V30 3428 H 312.471 -0.692125 1.76945 0
M  V30 3429 H 310.621 -3.10931 2.32926 0
M  V30 3430 H 312.293 -1.48108 4.36877 0
M  V30 3431 H 310.536 -1.32688 4.13009 0
M  V30 3432 H 311.207 -2.84681 4.72928 0
M  V30 3433 H 313.683 -3.0645 2.81474 0
M  V30 3434 H 312.559 -4.32973 3.37381 0
M  V30 3435 H 312.82 -4.10079 1.6519 0
M  V30 3436 N 311.879 -1.3236 -0.855495 0
M  V30 3437 C 312.826 -1.21225 -1.964 0
M  V30 3438 C 313.796 -0.0946204 -1.6583 0
M  V30 3439 O 314.981 -0.27002 -1.8888 0
M  V30 3440 C 312.121 -0.940419 -3.32039 0
M  V30 3441 C 311.234 -2.14276 -3.75113 0
M  V30 3442 C 310.369 -1.80648 -4.9954 0
M  V30 3443 C 309.408 -2.97208 -5.35102 0
M  V30 3444 N 308.545 -2.63678 -6.50706 0
M  V30 3445 H 313.385 -2.16042 -2.05255 0
M  V30 3446 H 310.922 -1.07451 -1.00463 0
M  V30 3447 H 312.88 -0.763311 -4.10158 0
M  V30 3448 H 311.51 -0.0290413 -3.22787 0
M  V30 3449 H 310.562 -2.43017 -2.92655 0
M  V30 3450 H 311.874 -3.01468 -3.97389 0
M  V30 3451 H 311.028 -1.59484 -5.85363 0
M  V30 3452 H 309.767 -0.906678 -4.79198 0
M  V30 3453 H 308.772 -3.19004 -4.47791 0
M  V30 3454 H 309.997 -3.87918 -5.57401 0
M  V30 3455 H 307.943 -1.76238 -6.31883 0
M  V30 3456 H 307.86 -3.444 -6.72997 0
M  V30 3457 H 309.128 -2.45942 -7.39684 0
M  V30 3458 N 313.357 1.07166 -1.15556 0
M  V30 3459 C 314.603 1.80065 -0.932984 0
M  V30 3460 C 314.936 1.86586 0.53845 0
M  V30 3461 O 314.211 1.35098 1.39924 0
M  V30 3462 C 314.494 3.25022 -1.55025 0
M  V30 3463 C 314.347 3.26634 -3.09242 0
M  V30 3464 C 315.666 4.22341 -1.2376 0
M  V30 3465 H 312.785 0.653697 -0.340366 0
M  V30 3466 H 315.427 1.25389 -1.4275 0
M  V30 3467 H 313.577 3.71712 -1.12972 0
M  V30 3468 H 315.249 2.88173 -3.60214 0
M  V30 3469 H 313.492 2.65539 -3.43033 0
M  V30 3470 H 314.163 4.28854 -3.47546 0
M  V30 3471 H 316.639 3.8405 -1.60139 0
M  V30 3472 H 315.515 5.22053 -1.69564 0
M  V30 3473 H 315.776 4.41828 -0.154938 0
M  V30 3474 N 314.835 0.952656 1.25548 0
M  V30 3475 C 316.081 0.607272 1.93494 0
M  V30 3476 C 316.414 -0.853245 1.74452 0
M  V30 3477 O 315.689 -1.61194 1.08843 0
M  V30 3478 C 315.972 0.96435 3.46947 0
M  V30 3479 C 315.825 2.48045 3.75225 0
M  V30 3480 C 317.144 0.487987 4.37386 0
M  V30 3481 H 314.263 0.222096 0.702739 0
M  V30 3482 H 316.905 1.18895 1.48203 0
M  V30 3483 H 315.055 0.469361 3.85654 0
M  V30 3484 H 316.727 3.04905 3.46166 0
M  V30 3485 H 314.97 2.919 3.209 0
M  V30 3486 H 315.641 2.6808 4.82532 0
M  V30 3487 H 318.117 0.912558 4.0597 0
M  V30 3488 H 316.993 0.766547 5.43521 0
M  V30 3489 H 317.254 -0.612063 4.37843 0
M  V30 3490 N 316.313 -1.40141 0.720998 0
M  V30 3491 C 317.561 -2.0039 0.262323 0
M  V30 3492 C 317.882 -1.57469 -1.15015 0
M  V30 3493 O 317.152 -0.816582 -1.78069 0
M  V30 3494 H 315.732 -0.741063 0.093996 0
M  V30 3495 H 318.394 -1.71398 0.927835 0
M  V30 3496 H 317.49 -3.10658 0.299671 0
M  V30 3497 N 317.792 -0.46758 -1.50504 0
M  V30 3498 C 319.017 0.0886943 -2.0721 0
M  V30 3499 C 319.442 1.33057 -1.32956 0
M  V30 3500 O 318.8 1.77354 -0.376197 0
M  V30 3501 C 318.848 0.359202 -3.58806 0
M  V30 3502 O 317.952 1.44034 -3.8643 0
M  V30 3503 H 317.293 -0.0114349 -0.663902 0
M  V30 3504 H 319.823 -0.657613 -1.93744 0
M  V30 3505 H 319.833 0.600742 -4.03553 0
M  V30 3506 H 318.508 -0.548311 -4.1227 0
M  V30 3507 H 317.085 1.18638 -3.53524 0
M  V30 3508 N 319.27 1.56325 -0.20005 0
M  V30 3509 C 320.681 1.8408 0.31167 0
M  V30 3510 C 321.032 1.12087 1.61031 0
M  V30 3511 O 320.157 0.38332 2.12978 0
M  V30 3512 C 320.752 3.33932 0.57226 0
M  V30 3513 C 319.311 3.6208 1.02834 0
M  V30 3514 C 318.458 2.77186 0.079634 0
M  V30 3515 H 321.409 1.52939 -0.423729 0
M  V30 3516 H 321.43 3.52971 1.42096 0
M  V30 3517 H 320.942 3.86303 -0.37308 0
M  V30 3518 H 319.043 3.15147 1.98778 0
M  V30 3519 H 319.156 4.7023 0.917624 0
M  V30 3520 H 317.52 2.47951 0.582448 0
M  V30 3521 H 318.303 3.32347 -0.860238 0
M  V30 3522 N 320.748 -0.0735177 1.57428 0
M  V30 3523 C 321.695 -1.08756 2.0357 0
M  V30 3524 C 322.665 -1.38559 0.916 0
M  V30 3525 O 323.85 -1.49656 1.18354 0
M  V30 3526 C 320.99 -2.39657 2.48311 0
M  V30 3527 C 320.103 -2.16399 3.73892 0
M  V30 3528 C 319.238 -3.40852 4.07423 0
M  V30 3529 C 318.277 -3.1295 5.2605 0
M  V30 3530 N 317.414 -4.29729 5.55228 0
M  V30 3531 H 322.254 -0.687104 2.8997 0
M  V30 3532 H 319.791 -0.327709 1.43403 0
M  V30 3533 H 321.749 -3.16081 2.72303 0
M  V30 3534 H 320.379 -2.77508 1.64891 0
M  V30 3535 H 319.431 -1.30676 3.57251 0
M  V30 3536 H 320.743 -1.91788 4.60455 0
M  V30 3537 H 319.897 -4.25671 4.32306 0
M  V30 3538 H 318.636 -3.68537 3.19425 0
M  V30 3539 H 317.641 -2.26526 5.00965 0
M  V30 3540 H 318.866 -2.86589 6.15665 0
M  V30 3541 H 316.812 -4.57448 4.70188 0
M  V30 3542 H 316.729 -4.08385 6.36206 0
M  V30 3543 H 317.997 -5.1555 5.84661 0
M  V30 3544 N 322.226 -1.5378 -0.344866 0
M  V30 3545 C 323.174 -1.82373 -1.4437 0
M  V30 3546 C 324.168 -0.694128 -1.54526 0
M  V30 3547 O 325.374 -0.877442 -1.57165 0
M  V30 3548 H 321.749 -0.577765 -0.481344 0
M  V30 3549 H 323.72 -2.74306 -1.17468 0
M  V30 3550 C 322.469 -2.04898 -2.80913 0
M  V30 3551 H 321.792 -2.9127 -2.73865 0
M  V30 3552 H 323.232 -2.28871 -3.56923 0
M  V30 3553 C 321.691 -0.834116 -3.26411 0
M  V30 3554 O 322.221 -0.0328885 -4.01687 0
M  V30 3555 N 320.427 -0.65171 -2.83198 0
M  V30 3556 H 319.974 -1.30489 -2.22104 0
M  V30 3557 H 319.932 0.159686 -3.13994 0
M  V30 3558 N 323.704 0.605807 -1.45491 0
M  V30 3559 C 324.667 1.69836 -1.5391 0
M  V30 3560 C 325.667 1.55261 -0.418424 0
M  V30 3561 O 326.857 1.60296 -0.681965 0
M  V30 3562 C 323.989 3.09117 -1.43734 0
M  V30 3563 H 325.182 1.63738 -2.51257 0
M  V30 3564 H 322.735 0.821689 -1.32959 0
M  V30 3565 H 323.47 3.20791 -0.475788 0
M  V30 3566 H 323.255 3.21104 -2.25021 0
M  V30 3567 H 324.745 3.88696 -1.52661 0
M  V30 3568 N 325.182 1.32811 0.848464 0
M  V30 3569 C 326.428 1.23907 1.60546 0
M  V30 3570 C 326.761 -0.197161 1.93197 0
M  V30 3571 O 326.036 -1.13596 1.5788 0
M  V30 3572 C 326.319 2.10489 2.92175 0
M  V30 3573 C 326.172 3.62522 2.66266 0
M  V30 3574 C 327.491 1.97075 3.93509 0
M  V30 3575 H 324.61 0.451459 0.58254 0
M  V30 3576 H 327.252 1.62818 0.979296 0
M  V30 3577 H 325.402 1.77434 3.45614 0
M  V30 3578 H 327.074 4.05821 2.19334 0
M  V30 3579 H 325.317 3.84879 2.00126 0
M  V30 3580 H 325.988 4.18437 3.6002 0
M  V30 3581 H 328.464 2.26045 3.49346 0
M  V30 3582 H 327.34 2.59923 4.83457 0
M  V30 3583 H 327.601 0.940186 4.31987 0
M  V30 3584 N 326.66 -1.06551 1.16123 0
M  V30 3585 C 328.071 -1.60768 0.949232 0
M  V30 3586 C 328.422 -1.89523 -0.507508 0
M  V30 3587 O 327.547 -1.66671 -1.38021 0
M  V30 3588 C 328.142 -2.92086 1.71671 0
M  V30 3589 C 326.701 -3.43015 1.54977 0
M  V30 3590 C 325.848 -2.16947 1.72711 0
M  V30 3591 H 328.799 -0.895354 1.31031 0
M  V30 3592 H 328.82 -3.6138 1.19099 0
M  V30 3593 H 328.332 -2.71127 2.7769 0
M  V30 3594 H 326.433 -3.69039 0.513873 0
M  V30 3595 H 326.546 -4.18516 2.33198 0
M  V30 3596 H 324.91 -2.27041 1.15431 0
M  V30 3597 H 325.693 -1.98473 2.80113 0
M  V30 3598 N 328.138 -0.959301 -1.25041 0
M  V30 3599 C 329.549 -0.65667 -1.74771 0
M  V30 3600 C 329.9 0.827852 -1.77879 0
M  V30 3601 O 329.025 1.64783 -1.40269 0
M  V30 3602 C 329.62 -1.1853 -3.1739 0
M  V30 3603 C 328.179 -0.932734 -3.6466 0
M  V30 3604 C 327.326 -1.32558 -2.43564 0
M  V30 3605 H 330.277 -1.13558 -1.10862 0
M  V30 3606 H 330.298 -0.547582 -3.76539 0
M  V30 3607 H 329.81 -2.26576 -3.15095 0
M  V30 3608 H 327.911 0.13257 -3.72364 0
M  V30 3609 H 328.024 -1.57248 -4.52559 0
M  V30 3610 H 326.388 -0.743956 -2.43593 0
M  V30 3611 H 327.171 -2.41537 -2.43957 0
M  V30 3612 N 329.616 1.39756 -0.72842 0
M  V30 3613 C 330.862 2.00942 -0.273892 0
M  V30 3614 C 331.195 1.57656 1.13394 0
M  V30 3615 O 330.47 0.802434 1.77176 0
M  V30 3616 C 330.753 3.58211 -0.368346 0
M  V30 3617 C 330.606 4.11534 -1.81548 0
M  V30 3618 C 331.925 4.39372 0.253054 0
M  V30 3619 H 329.044 0.730047 -0.100996 0
M  V30 3620 H 331.686 1.66056 -0.923337 0
M  V30 3621 H 329.836 3.88061 0.184588 0
M  V30 3622 H 331.508 3.92431 -2.42478 0
M  V30 3623 H 329.751 3.65341 -2.33898 0
M  V30 3624 H 330.422 5.20682 -1.83288 0
M  V30 3625 H 332.898 4.15527 -0.218224 0
M  V30 3626 H 331.774 5.48677 0.156585 0
M  V30 3627 H 332.035 4.21358 1.33826 0
M  V30 3628 N 331.094 0.475555 1.50254 0
M  V30 3629 C 332.343 -0.0795996 2.01543 0
M  V30 3630 C 332.656 -1.4038 1.36209 0
M  V30 3631 O 333.862 -2.04415 1.7868 0
M  V30 3632 C 332.318 -0.192363 3.59386 0
M  V30 3633 C 331.926 1.12367 4.33679 0
M  V30 3634 C 333.67 -0.699238 4.18701 0
M  V30 3635 C 331.577 0.974453 5.83317 0
M  V30 3636 H 330.507 -0.0335228 0.753254 0
M  V30 3637 H 333.158 0.611128 1.73025 0
M  V30 3638 H 331.54 -0.946974 3.84511 0
M  V30 3639 H 332.714 1.88958 4.20276 0
M  V30 3640 H 331.029 1.562 3.85993 0
M  V30 3641 H 333.626 -0.827978 5.28251 0
M  V30 3642 H 333.969 -1.69171 3.80377 0
M  V30 3643 H 334.502 -0.00188807 3.978 0
M  V30 3644 H 331.241 1.94042 6.26121 0
M  V30 3645 H 330.761 0.248998 5.99283 0
M  V30 3646 H 332.44 0.642867 6.43798 0
M  V30 3647 N 332.573 -1.56217 0.208337 0
M  V30 3648 C 333.523 -2.16324 -0.720281 0
M  V30 3649 C 334.507 -1.10775 -1.16695 0
M  V30 3650 O 335.699 -1.36801 -1.12314 0
M  V30 3651 C 332.828 -2.83644 -1.93393 0
M  V30 3652 C 331.914 -3.96401 -1.50755 0
M  V30 3653 N 332.305 -4.99546 -0.792937 0
M  V30 3654 C 330.603 -4.08246 -1.79585 0
M  V30 3655 C 331.304 -5.78828 -0.577364 0
M  V30 3656 N 330.28 -5.31723 -1.1301 0
M  V30 3657 H 334.082 -2.93432 -0.165725 0
M  V30 3658 H 331.596 -1.62397 0.00906463 0
M  V30 3659 H 333.593 -3.25107 -2.60981 0
M  V30 3660 H 332.253 -2.08027 -2.49308 0
M  V30 3661 H 333.264 -5.15967 -0.447004 0
M  V30 3662 H 329.941 -3.4377 -2.36915 0
M  V30 3663 H 331.331 -6.71899 -0.00952956 0
M  V30 3664 N 334.051 0.0651679 -1.57465 0
M  V30 3665 C 335.276 0.779605 -1.9219 0
M  V30 3666 C 335.701 1.69988 -0.805333 0
M  V30 3667 O 335.059 1.79685 0.241435 0
M  V30 3668 C 335.107 1.54364 -3.2589 0
M  V30 3669 O 334.211 2.65474 -3.1559 0
M  V30 3670 H 333.552 0.212249 -0.629163 0
M  V30 3671 H 336.082 0.0314294 -2.04576 0
M  V30 3672 H 336.092 1.92146 -3.59922 0
M  V30 3673 H 334.767 0.868457 -4.06732 0
M  V30 3674 H 333.344 2.30501 -2.93128 0
M  V30 3675 N 335.529 1.53961 0.336706 0
M  V30 3676 C 336.94 1.62914 0.911925 0
M  V30 3677 C 337.291 0.514795 1.89326 0
M  V30 3678 O 336.416 -0.354395 2.13478 0
M  V30 3679 C 337.011 2.95304 1.66076 0
M  V30 3680 C 335.57 3.06496 2.18489 0
M  V30 3681 C 334.717 2.58403 1.00613 0
M  V30 3682 H 337.668 1.58285 0.114649 0
M  V30 3683 H 337.689 2.84727 2.5241 0
M  V30 3684 H 337.201 3.76387 0.946276 0
M  V30 3685 H 335.302 2.3006 2.93092 0
M  V30 3686 H 335.415 4.1208 2.44391 0
M  V30 3687 H 333.779 2.13977 1.38152 0
M  V30 3688 H 334.562 3.41932 0.306179 0
M  V30 3689 N 337.007 -0.598083 1.45811 0
M  V30 3690 C 337.955 -1.72932 1.55555 0
M  V30 3691 C 338.949 -1.63984 0.424921 0
M  V30 3692 O 340.155 -1.69663 0.601205 0
M  V30 3693 H 336.53 -0.571489 0.488779 0
M  V30 3694 H 338.501 -1.61842 2.50699 0
M  V30 3695 C 337.25 -3.11318 1.54843 0
M  V30 3696 H 336.573 -3.18867 2.41172 0
M  V30 3697 H 338.013 -3.90274 1.65717 0
M  V30 3698 C 336.472 -3.3578 0.274427 0
M  V30 3699 O 337.002 -3.9654 -0.641778 0
M  V30 3700 N 335.208 -2.90119 0.167139 0
M  V30 3701 H 334.755 -2.40855 0.913596 0
M  V30 3702 H 334.713 -3.0686 -0.684435 0
M  V30 3703 N 338.485 -1.33259 -0.841409 0
M  V30 3704 C 339.762 -1.15174 -1.58096 0
M  V30 3705 C 340.142 0.282858 -2.09196 0
M  V30 3706 O 339.49 1.28151 -1.89181 0
M  V30 3707 C 339.7 -2.1907 -2.71679 0
M  V30 3708 C 341.048 -2.53093 -3.40924 0
M  V30 3709 O 342.072 -2.17717 -2.81918 0
M  V30 3710 O 340.931 -3.1379 -4.47435 0
M  V30 3711 H 338.025 -0.445303 -0.696875 0
M  V30 3712 H 340.571 -1.44833 -0.884385 0
M  V30 3713 H 339.343 -3.15443 -2.31541 0
M  V30 3714 H 338.966 -1.90481 -3.49002 0
M  V30 3715 N 339.963 1.05934 -1.16686 0
M  V30 3716 C 340.913 2.11764 -0.844978 0
M  V30 3717 C 341.897 1.59922 0.177178 0
M  V30 3718 O 343.089 1.76983 -0.0241768 0
M  V30 3719 C 340.218 3.41493 -0.351812 0
M  V30 3720 C 339.304 4.00152 -1.40496 0
M  V30 3721 N 339.695 4.32874 -2.61636 0
M  V30 3722 C 337.993 4.278 -1.26106 0
M  V30 3723 C 338.694 4.79552 -3.29249 0
M  V30 3724 N 337.67 4.79211 -2.56628 0
M  V30 3725 H 341.472 2.34916 -1.76612 0
M  V30 3726 H 338.986 1.23511 -1.05446 0
M  V30 3727 H 340.983 4.16773 -0.102796 0
M  V30 3728 H 339.643 3.19778 0.56322 0
M  V30 3729 H 340.654 4.23109 -2.98663 0
M  V30 3730 H 337.331 4.15511 -0.407081 0
M  V30 3731 H 338.721 5.14045 -4.32675 0
M  V30 3732 N 341.441 0.965919 1.2453 0
M  V30 3733 C 342.687 0.62776 1.92839 0
M  V30 3734 C 343.02 -0.834694 1.75347 0
M  V30 3735 O 342.295 -1.60031 1.10546 0
M  V30 3736 C 342.578 1.00109 3.45905 0
M  V30 3737 C 342.431 2.52011 3.72573 0
M  V30 3738 C 343.75 0.53435 4.36844 0
M  V30 3739 H 340.869 0.229537 0.700344 0
M  V30 3740 H 343.511 1.2046 1.46933 0
M  V30 3741 H 341.661 0.510238 3.85135 0
M  V30 3742 H 343.333 3.08559 3.42912 0
M  V30 3743 H 341.576 2.95287 3.17786 0
M  V30 3744 H 342.247 2.73183 4.79661 0
M  V30 3745 H 344.723 0.955565 4.04979 0
M  V30 3746 H 343.599 0.824152 5.42678 0
M  V30 3747 H 343.86 -0.565589 4.38467 0
M  V30 3748 N 342.919 -1.39368 0.735821 0
M  V30 3749 C 344.165 -2.00794 0.284544 0
M  V30 3750 C 344.498 -1.58255 -1.12557 0
M  V30 3751 O 343.773 -0.811819 -1.76748 0
M  V30 3752 C 344.056 -3.58011 0.387337 0
M  V30 3753 C 343.909 -4.10566 1.83728 0
M  V30 3754 C 345.228 -4.395 -0.22975 0
M  V30 3755 H 342.347 -0.729501 0.104866 0
M  V30 3756 H 344.989 -1.65564 0.93213 0
M  V30 3757 H 343.139 -3.88154 -0.164006 0
M  V30 3758 H 344.811 -3.91139 2.44556 0
M  V30 3759 H 343.054 -3.64095 2.35833 0
M  V30 3760 H 343.725 -5.19702 1.86047 0
M  V30 3761 H 346.201 -4.15406 0.240257 0
M  V30 3762 H 345.077 -5.48752 -0.127485 0
M  V30 3763 H 345.338 -4.22062 -1.3159 0
M  V30 3764 N 344.397 -0.483516 -1.5 0
M  V30 3765 C 345.627 0.0643896 -2.065 0
M  V30 3766 C 346.035 1.32949 -1.34615 0
M  V30 3767 O 345.378 1.79003 -0.412756 0
M  V30 3768 C 345.44 0.405983 -3.572 0
M  V30 3769 C 345.104 -0.758875 -4.50655 0
M  V30 3770 C 346.101 -1.64445 -4.93208 0
M  V30 3771 C 343.786 -0.952725 -4.93182 0
M  V30 3772 C 345.78 -2.70818 -5.77006 0
M  V30 3773 C 343.467 -2.01966 -5.76761 0
M  V30 3774 C 344.465 -2.89574 -6.18576 0
M  V30 3775 O 344.153 -3.94429 -7.00486 0
M  V30 3776 H 343.885 -0.00934786 -0.675935 0
M  V30 3777 H 346.439 -0.674959 -1.93993 0
M  V30 3778 H 344.669 1.19869 -3.67652 0
M  V30 3779 H 346.358 0.890433 -3.96013 0
M  V30 3780 H 347.124 -1.50643 -4.61012 0
M  V30 3781 H 343.003 -0.280247 -4.60147 0
M  V30 3782 H 346.547 -3.3923 -6.09565 0
M  V30 3783 H 342.444 -2.1577 -6.0837 0
M  V30 3784 H 343.212 -3.91568 -7.1876 0
M  V30 3785 N 345.875 1.56104 -0.216619 0
M  V30 3786 C 346.785 2.23694 0.706982 0
M  V30 3787 C 347.801 1.24295 1.21765 0
M  V30 3788 O 348.977 1.57094 1.2603 0
M  V30 3789 C 346.042 2.8998 1.90033 0
M  V30 3790 C 345.103 4.04708 1.43213 0
M  V30 3791 C 344.336 4.67824 2.56859 0
M  V30 3792 O 344.559 4.29913 3.74874 0
M  V30 3793 O 343.493 5.56905 2.28343 0
M  V30 3794 H 347.319 3.03272 0.161235 0
M  V30 3795 H 344.904 1.49394 0.0136177 0
M  V30 3796 H 346.786 3.31837 2.59735 0
M  V30 3797 H 345.461 2.13365 2.43428 0
M  V30 3798 H 344.368 3.6743 0.70327 0
M  V30 3799 H 345.701 4.83051 0.944615 0
M  V30 3800 N 347.353 -0.0568162 1.57498 0
M  V30 3801 C 348.3 -1.06591 2.04712 0
M  V30 3802 C 349.27 -1.3758 0.930644 0
M  V30 3803 O 350.455 -1.48392 1.19935 0
M  V30 3804 C 347.595 -2.3701 2.50839 0
M  V30 3805 C 346.708 -2.12421 3.76167 0
M  V30 3806 C 345.843 -3.36511 4.11015 0
M  V30 3807 C 344.882 -3.07353 5.2934 0
M  V30 3808 N 344.019 -4.23816 5.59754 0
M  V30 3809 H 348.859 -0.65631 2.90683 0
M  V30 3810 H 346.396 -0.312481 1.43743 0
M  V30 3811 H 348.354 -3.13175 2.7564 0
M  V30 3812 H 346.984 -2.75744 1.67825 0
M  V30 3813 H 346.036 -1.2688 3.58616 0
M  V30 3814 H 347.348 -1.86894 4.62463 0
M  V30 3815 H 346.502 -4.21062 4.36797 0
M  V30 3816 H 345.241 -3.65128 3.23315 0
M  V30 3817 H 344.246 -2.212 5.03339 0
M  V30 3818 H 345.471 -2.80043 6.1867 0
M  V30 3819 H 343.417 -4.52436 4.75014 0
M  V30 3820 H 343.334 -4.01614 6.40501 0
M  V30 3821 H 344.602 -5.0932 5.90096 0
M  V30 3822 N 348.832 -1.54138 -0.328536 0
M  V30 3823 C 349.742 -1.86192 -1.42723 0
M  V30 3824 C 350.758 -0.753382 -1.56844 0
M  V30 3825 O 351.934 -1.04718 -1.72035 0
M  V30 3826 C 348.999 -2.07824 -2.77507 0
M  V30 3827 C 348.06 -3.31641 -2.72603 0
M  V30 3828 C 347.293 -3.52232 -4.00959 0
M  V30 3829 O 347.516 -2.7636 -4.9898 0
M  V30 3830 O 346.45 -4.45699 -4.0452 0
M  V30 3831 H 350.276 -2.79608 -1.18547 0
M  V30 3832 H 347.861 -1.3998 -0.522104 0
M  V30 3833 H 349.743 -2.23411 -3.57303 0
M  V30 3834 H 348.418 -1.17596 -3.01584 0
M  V30 3835 H 347.325 -3.21444 -1.91376 0
M  V30 3836 H 348.658 -4.2191 -2.53481 0
M  V30 3837 N 350.31 0.590341 -1.46126 0
M  V30 3838 C 351.721 1.17243 -1.45296 0
M  V30 3839 C 352.072 1.95281 -0.189723 0
M  V30 3840 O 351.197 2.04502 0.707674 0
M  V30 3841 C 351.792 2.13284 -2.6324 0
M  V30 3842 C 350.351 2.66832 -2.65476 0
M  V30 3843 C 349.498 1.42557 -2.3785 0
M  V30 3844 H 352.449 0.378692 -1.54116 0
M  V30 3845 H 352.47 2.96619 -2.38323 0
M  V30 3846 H 351.982 1.56459 -3.55165 0
M  V30 3847 H 350.083 3.27548 -1.77603 0
M  V30 3848 H 350.196 3.10088 -3.65215 0
M  V30 3849 H 348.56 1.72107 -1.87753 0
M  V30 3850 H 349.343 0.875741 -3.31942 0
M  V30 3851 N 351.788 1.33704 0.83433 0
M  V30 3852 C 353.036 1.25169 1.58673 0
M  V30 3853 C 353.357 -0.18127 1.94156 0
M  V30 3854 O 352.627 -1.11113 1.6134 0
M  V30 3855 H 351.207 0.4603 0.58833 0
M  V30 3856 H 353.869 1.67478 0.996847 0
M  V30 3857 H 352.965 1.84856 2.51465 0
M  V30 3858 N 353.266 -1.05314 1.17247 0
M  V30 3859 C 354.176 -2.16538 0.90268 0
M  V30 3860 C 355.192 -1.73523 -0.128707 0
M  V30 3861 O 356.368 -2.01337 0.0502701 0
M  V30 3862 C 353.433 -3.44167 0.418356 0
M  V30 3863 C 352.494 -4.01635 1.51618 0
M  V30 3864 C 351.727 -5.23171 1.05487 0
M  V30 3865 O 351.95 -5.70327 -0.0914715 0
M  V30 3866 O 350.884 -5.72848 1.8474 0
M  V30 3867 H 354.71 -2.42145 1.83302 0
M  V30 3868 H 352.295 -1.15037 0.953246 0
M  V30 3869 H 354.177 -4.21112 0.155726 0
M  V30 3870 H 352.852 -3.20063 -0.48385 0
M  V30 3871 H 351.759 -3.26135 1.83268 0
M  V30 3872 H 353.092 -4.30053 2.39405 0
M  V30 3873 N 354.744 -0.972509 -1.24016 0
M  V30 3874 C 355.654 -0.5143 -2.28893 0
M  V30 3875 C 356.67 0.427078 -1.68677 0
M  V30 3876 O 357.846 0.298939 -1.99169 0
M  V30 3877 C 354.911 0.183598 -3.46214 0
M  V30 3878 C 353.972 -0.798202 -4.21814 0
M  V30 3879 C 353.205 -0.133514 -5.33533 0
M  V30 3880 O 353.428 1.07714 -5.60137 0
M  V30 3881 O 352.362 -0.828103 -5.96176 0
M  V30 3882 H 356.188 -1.38629 -2.70214 0
M  V30 3883 H 353.773 -0.739769 -1.29799 0
M  V30 3884 H 355.655 0.575433 -4.17453 0
M  V30 3885 H 354.33 1.03048 -3.0686 0
M  V30 3886 H 353.237 -1.24059 -3.52931 0
M  V30 3887 H 354.57 -1.61364 -4.64997 0
M  V30 3888 N 356.222 1.38976 -0.743202 0
M  V30 3889 C 357.152 2.33171 -0.123873 0
M  V30 3890 C 358.133 1.54336 0.71516 0
M  V30 3891 O 359.318 1.82696 0.658467 0
M  V30 3892 C 356.448 3.38474 0.777978 0
M  V30 3893 C 355.402 4.27979 0.0424758 0
M  V30 3894 C 354.728 5.2405 1.06189 0
M  V30 3895 C 356.028 5.10155 -1.1198 0
M  V30 3896 H 357.722 2.85213 -0.910709 0
M  V30 3897 H 355.268 1.37133 -0.439388 0
M  V30 3898 H 357.221 4.03328 1.22084 0
M  V30 3899 H 355.945 2.84891 1.59702 0
M  V30 3900 H 354.604 3.64616 -0.380853 0
M  V30 3901 H 354.252 4.66758 1.87472 0
M  V30 3902 H 353.952 5.84785 0.574485 0
M  V30 3903 H 355.476 5.9178 1.50428 0
M  V30 3904 H 356.89 5.68307 -0.75499 0
M  V30 3905 H 355.287 5.80073 -1.53738 0
M  V30 3906 H 356.357 4.44504 -1.93764 0
M  V30 3907 N 357.7 0.491464 1.49741 0
M  V30 3908 C 358.63 -0.28154 2.31796 0
M  V30 3909 C 359.611 -0.971473 1.3963 0
M  V30 3910 O 360.796 -0.964719 1.68543 0
M  V30 3911 C 357.926 -1.35203 3.19902 0
M  V30 3912 C 356.88 -0.782529 4.20786 0
M  V30 3913 C 356.206 -1.95283 4.97764 0
M  V30 3914 C 357.506 0.21999 5.21837 0
M  V30 3915 H 359.2 0.403355 2.96671 0
M  V30 3916 H 356.746 0.195425 1.42668 0
M  V30 3917 H 358.699 -1.90045 3.76113 0
M  V30 3918 H 357.423 -2.06598 2.52953 0
M  V30 3919 H 356.082 -0.255928 3.65706 0
M  V30 3920 H 355.73 -2.65423 4.2727 0
M  V30 3921 H 355.43 -1.57789 5.66018 0
M  V30 3922 H 356.954 -2.50577 5.56816 0
M  V30 3923 H 358.368 -0.23996 5.72798 0
M  V30 3924 H 356.765 0.51026 5.97927 0
M  V30 3925 H 357.835 1.13911 4.7133 0
M  V30 3926 N 359.178 -1.55987 0.224894 0
M  V30 3927 C 360.427 -1.97566 -0.406273 0
M  V30 3928 C 360.74 -1.11569 -1.6066 0
M  V30 3929 O 361.946 -1.43062 -2.3075 0
M  V30 3930 C 360.402 -3.51474 -0.774207 0
M  V30 3931 C 360.01 -4.46179 0.403496 0
M  V30 3932 C 361.754 -4.01758 -1.37079 0
M  V30 3933 C 359.661 -5.91399 0.0129412 0
M  V30 3934 H 358.591 -0.737777 -0.155565 0
M  V30 3935 H 361.242 -1.80659 0.321635 0
M  V30 3936 H 359.624 -3.63994 -1.55963 0
M  V30 3937 H 360.798 -4.45409 1.18101 0
M  V30 3938 H 359.113 -4.06255 0.913536 0
M  V30 3939 H 361.71 -5.07756 -1.67596 0
M  V30 3940 H 362.053 -3.47805 -2.28773 0
M  V30 3941 H 362.586 -3.92475 -0.648733 0
M  V30 3942 H 359.325 -6.49341 0.896451 0
M  V30 3943 H 358.845 -5.95356 -0.728821 0
M  V30 3944 H 360.524 -6.45683 -0.412582 0
M  V30 3945 N 360.656 0.0484629 -1.57525 0
M  V30 3946 C 362.067 0.597486 -1.76881 0
M  V30 3947 C 362.418 1.76664 -0.853475 0
M  V30 3948 O 361.543 2.16357 -0.0433656 0
M  V30 3949 C 362.138 1.09066 -3.20765 0
M  V30 3950 C 360.697 1.58535 -3.41385 0
M  V30 3951 C 359.844 0.514868 -2.72478 0
M  V30 3952 H 362.795 -0.177758 -1.57701 0
M  V30 3953 H 362.816 1.95875 -3.2621 0
M  V30 3954 H 362.328 0.239521 -3.8736 0
M  V30 3955 H 360.429 2.45898 -2.79937 0
M  V30 3956 H 360.542 1.64622 -4.49929 0
M  V30 3957 H 358.906 0.965407 -2.35695 0
M  V30 3958 H 359.689 -0.32648 -3.41744 0
M  V30 3959 N 362.134 1.5431 0.320358 0
M  V30 3960 C 363.374 1.74395 1.0661 0
M  V30 3961 C 363.738 0.508602 1.85141 0
M  V30 3962 O 364.939 0.586856 2.62316 0
M  V30 3963 C 363.21 2.98619 1.96371 0
M  V30 3964 S 364.769 3.39621 2.77854 0
M  V30 3965 H 361.587 0.613204 0.359863 0
M  V30 3966 H 364.189 1.9249 0.341727 0
M  V30 3967 H 362.893 3.86673 1.3752 0
M  V30 3968 H 362.424 2.83055 2.73209 0
M  V30 3969 H 364.439 2.95172 3.98858 0
M  V30 3970 N 363.613 -0.582584 1.46437 0
M  V30 3971 C 364.841 -1.36682 1.55324 0
M  V30 3972 C 365.256 -1.87796 0.194409 0
M  V30 3973 O 364.613 -1.63623 -0.808318 0
M  V30 3974 C 364.664 -2.55426 2.55812 0
M  V30 3975 O 364.385 -2.0643 3.86417 0
M  V30 3976 C 365.886 -3.47976 2.74641 0
M  V30 3977 H 363.106 -0.417545 0.525259 0
M  V30 3978 H 365.65 -0.708219 1.91845 0
M  V30 3979 H 363.805 -3.17275 2.22295 0
M  V30 3980 H 364.219 -2.83762 4.41111 0
M  V30 3981 H 365.693 -4.27775 3.48874 0
M  V30 3982 H 366.17 -3.99919 1.81553 0
M  V30 3983 H 366.776 -2.91962 3.09255 0
M  V30 3984 N 365.091 -1.34144 -0.827227 0
M  V30 3985 C 366.337 -1.26446 -1.58554 0
M  V30 3986 C 366.67 0.1664 -1.93486 0
M  V30 3987 O 365.945 1.1107 -1.59667 0
M  V30 3988 C 366.228 -2.15111 -2.8879 0
M  V30 3989 C 366.081 -3.66712 -2.60465 0
M  V30 3990 C 367.4 -2.03311 -3.90324 0
M  V30 3991 H 364.519 -0.46067 -0.575284 0
M  V30 3992 H 367.161 -1.64356 -0.953269 0
M  V30 3993 H 365.311 -1.8291 -3.42748 0
M  V30 3994 H 366.983 -4.09259 -2.1285 0
M  V30 3995 H 365.226 -3.88014 -1.93978 0
M  V30 3996 H 365.897 -4.24112 -3.53317 0
M  V30 3997 H 368.373 -2.31574 -3.45706 0
M  V30 3998 H 367.249 -2.67582 -4.79261 0
M  V30 3999 H 367.51 -1.00879 -4.30437 0
M  V30 4000 N 366.569 1.04691 -1.17803 0
M  V30 4001 C 367.799 1.81183 -0.992788 0
M  V30 4002 C 368.207 1.8347 0.462098 0
M  V30 4003 O 367.55 1.2643 1.33271 0
M  V30 4004 C 367.612 3.28363 -1.46349 0
M  V30 4005 C 367.276 3.49749 -2.94151 0
M  V30 4006 C 368.273 3.41456 -3.92051 0
M  V30 4007 C 365.958 3.76548 -3.32441 0
M  V30 4008 C 367.952 3.59656 -5.26238 0
M  V30 4009 C 365.639 3.94396 -4.66792 0
M  V30 4010 C 366.637 3.8595 -5.635 0
M  V30 4011 O 366.325 4.03294 -6.9542 0
M  V30 4012 H 366.057 0.577622 -0.351182 0
M  V30 4013 H 368.611 1.32876 -1.5663 0
M  V30 4014 H 366.841 3.77609 -0.833574 0
M  V30 4015 H 368.53 3.86395 -1.24313 0
M  V30 4016 H 369.296 3.20723 -3.63815 0
M  V30 4017 H 365.175 3.82224 -2.57732 0
M  V30 4018 H 368.719 3.52979 -6.01707 0
M  V30 4019 H 364.616 4.14622 -4.94731 0
M  V30 4020 H 365.384 4.2049 -7.02232 0
M  V30 4021 N 368.047 0.979072 1.23499 0
M  V30 4022 C 369.294 0.647219 1.91878 0
M  V30 4023 C 369.622 -0.819074 1.76413 0
M  V30 4024 O 368.877 -1.60616 1.11808 0
M  V30 4025 C 369.176 0.981932 3.43646 0
M  V30 4026 C 368.842 2.43822 3.79291 0
M  V30 4027 C 367.504 2.83622 3.88731 0
M  V30 4028 C 369.856 3.3828 3.96505 0
M  V30 4029 C 367.184 4.16897 4.12812 0
M  V30 4030 C 369.536 4.71197 4.22085 0
M  V30 4031 C 368.2 5.10758 4.29747 0
M  V30 4032 H 367.47 0.236834 0.702133 0
M  V30 4033 H 370.117 1.23268 1.46551 0
M  V30 4034 H 368.422 0.314365 3.90537 0
M  V30 4035 H 370.119 0.703395 3.94783 0
M  V30 4036 H 366.709 2.11966 3.72516 0
M  V30 4037 H 370.893 3.0871 3.88603 0
M  V30 4038 H 366.149 4.47157 4.16966 0
M  V30 4039 H 370.323 5.44348 4.34348 0
M  V30 4040 H 367.95 6.1405 4.48159 0
M  V30 4041 N 369.525 -1.3858 0.750561 0
M  V30 4042 C 370.75 -2.04997 0.314812 0
M  V30 4043 C 371.175 -1.56235 -1.04749 0
M  V30 4044 O 370.533 -0.712981 -1.66692 0
M  V30 4045 C 370.581 -3.58961 0.343415 0
M  V30 4046 O 369.685 -4.07025 -0.663628 0
M  V30 4047 H 369.026 -0.649081 0.139962 0
M  V30 4048 H 371.556 -1.77313 1.02084 0
M  V30 4049 H 371.566 -4.07542 0.193233 0
M  V30 4050 H 370.241 -3.93811 1.33738 0
M  V30 4051 H 368.818 -3.6982 -0.478307 0
M  V30 4052 N 371.003 -0.499398 -1.49478 0
M  V30 4053 C 372.25 0.0456899 -2.02448 0
M  V30 4054 C 372.578 1.37142 -1.37921 0
M  V30 4055 O 371.833 1.89111 -0.503544 0
M  V30 4056 C 372.132 0.248424 -3.56536 0
M  V30 4057 C 371.798 -0.999107 -4.39692 0
M  V30 4058 C 370.46 -1.34108 -4.62135 0
M  V30 4059 C 372.812 -1.82842 -4.88076 0
M  V30 4060 C 370.14 -2.51191 -5.30208 0
M  V30 4061 C 372.492 -2.99076 -5.57437 0
M  V30 4062 C 371.156 -3.33655 -5.78127 0
M  V30 4063 H 370.426 0.0167191 -0.740811 0
M  V30 4064 H 373.073 -0.65923 -1.79795 0
M  V30 4065 H 371.378 1.03586 -3.77859 0
M  V30 4066 H 373.075 0.684605 -3.95113 0
M  V30 4067 H 369.665 -0.722729 -4.22463 0
M  V30 4068 H 373.849 -1.57737 -4.70566 0
M  V30 4069 H 369.105 -2.78221 -5.44429 0
M  V30 4070 H 373.279 -3.63664 -5.93904 0
M  V30 4071 H 370.906 -4.24483 -6.30649 0
M  V30 4072 N 372.481 1.55866 -0.233164 0
M  V30 4073 C 373.411 2.23783 0.666599 0
M  V30 4074 C 374.392 1.21343 1.19205 0
M  V30 4075 O 375.577 1.4996 1.23392 0
M  V30 4076 C 372.707 2.92671 1.86978 0
M  V30 4077 C 371.661 4.01682 1.47768 0
M  V30 4078 C 370.987 4.57926 2.76058 0
M  V30 4079 C 372.287 5.18126 0.658993 0
M  V30 4080 H 373.981 2.99232 0.100306 0
M  V30 4081 H 371.527 1.43924 0.046804 0
M  V30 4082 H 373.48 3.3888 2.50476 0
M  V30 4083 H 372.204 2.14688 2.46123 0
M  V30 4084 H 370.863 3.56222 0.866106 0
M  V30 4085 H 370.511 3.76659 3.33372 0
M  V30 4086 H 370.211 5.31505 2.50552 0
M  V30 4087 H 371.735 5.06859 3.40479 0
M  V30 4088 H 373.149 5.60644 1.19795 0
M  V30 4089 H 371.546 5.98009 0.500552 0
M  V30 4090 H 372.616 4.83763 -0.331856 0
M  V30 4091 N 373.959 -0.0401083 1.57549 0
M  V30 4092 C 374.892 -1.07689 2.01192 0
M  V30 4093 C 375.87 -1.358 0.894273 0
M  V30 4094 O 377.054 -1.48642 1.15921 0
M  V30 4095 C 374.181 -2.41418 2.3756 0
M  V30 4096 C 373.227 -2.29237 3.59656 0
M  V30 4097 S 374.06 -1.65628 5.09242 0
M  V30 4098 C 375.216 -3.0087 5.48843 0
M  V30 4099 H 375.449 -0.705108 2.88817 0
M  V30 4100 H 372.982 -0.249724 1.52367 0
M  V30 4101 H 374.94 -3.18329 2.59186 0
M  V30 4102 H 373.601 -2.75747 1.50407 0
M  V30 4103 H 372.794 -3.27932 3.82722 0
M  V30 4104 H 372.396 -1.60469 3.37825 0
M  V30 4105 H 374.688 -3.97201 5.48851 0
M  V30 4106 H 375.631 -2.82549 6.49286 0
M  V30 4107 H 376.039 -3.02934 4.76331 0
M  V30 4108 N 375.437 -1.54477 -0.31217 0
M  V30 4109 C 376.714 -1.63891 -1.06767 0
M  V30 4110 C 377.094 -0.480028 -2.0557 0
M  V30 4111 O 376.442 0.524487 -2.22399 0
M  V30 4112 C 376.652 -3.01402 -1.75948 0
M  V30 4113 C 378 -3.57838 -2.28554 0
M  V30 4114 O 379.024 -3.03782 -1.85998 0
M  V30 4115 O 377.883 -4.52462 -3.06497 0
M  V30 4116 H 374.977 -0.664125 -0.492816 0
M  V30 4117 H 377.523 -1.66823 -0.311149 0
M  V30 4118 H 376.295 -3.77187 -1.04144 0
M  V30 4119 H 375.918 -3.02199 -2.58383 0
M  V30 4120 N 376.915 0.57481 -1.46744 0
M  V30 4121 C 378.14 1.36341 -1.56288 0
M  V30 4122 C 378.565 1.86954 -0.207347 0
M  V30 4123 O 377.923 1.62006 0.813871 0
M  V30 4124 C 377.971 2.52147 -2.57787 0
M  V30 4125 O 377.075 3.53834 -2.11838 0
M  V30 4126 H 376.416 0.405713 -0.525636 0
M  V30 4127 H 378.946 0.696453 -1.92382 0
M  V30 4128 H 378.956 2.98958 -2.77648 0
M  V30 4129 H 377.631 2.14663 -3.5622 0
M  V30 4130 H 376.208 3.1345 -2.01999 0
M  V30 4131 N 378.394 1.34581 0.820102 0
M  V30 4132 C 379.81 1.14325 1.11364 0
M  V30 4133 C 380.01 -0.0533648 2.01429 0
M  V30 4134 O 379.066 -0.728044 2.41776 0
M  V30 4135 C 380.379 2.43983 1.75764 0
M  V30 4136 C 381.927 2.50065 1.88246 0
M  V30 4137 C 382.402 3.79732 2.56061 0
M  V30 4138 N 383.893 3.80908 2.63558 0
M  V30 4139 C 384.628 4.77961 3.16766 0
M  V30 4140 N 384.124 5.85397 3.70517 0
M  V30 4141 N 385.917 4.65413 3.15194 0
M  V30 4142 H 378.068 2.11246 0.221096 0
M  V30 4143 H 380.331 0.934289 0.160649 0
M  V30 4144 H 380.037 3.31651 1.1705 0
M  V30 4145 H 379.911 2.57531 2.75604 0
M  V30 4146 H 382.298 1.62834 2.46108 0
M  V30 4147 H 382.379 2.40442 0.873006 0
M  V30 4148 H 382.023 4.67354 1.98853 0
M  V30 4149 H 381.953 3.86639 3.57516 0
M  V30 4150 H 384.444 3.03274 2.25463 0
M  V30 4151 H 384.757 6.55463 4.09376 0
M  V30 4152 H 383.102 5.89107 3.68752 0
M  V30 4153 H 386.293 3.80627 2.72471 0
M  V30 4154 H 386.466 5.41216 3.56356 0
M  V30 4155 N 379.872 -1.04064 1.18357 0
M  V30 4156 C 380.82 -2.14187 0.907007 0
M  V30 4157 C 381.814 -1.68879 -0.132725 0
M  V30 4158 O 383.02 -1.79993 0.0154248 0
M  V30 4159 H 379.395 -0.699585 0.275835 0
M  V30 4160 H 381.366 -2.34711 1.84264 0
M  V30 4161 C 380.115 -3.44785 0.449254 0
M  V30 4162 H 379.438 -3.80058 1.24081 0
M  V30 4163 H 380.878 -4.22974 0.294737 0
M  V30 4164 C 379.337 -3.26391 -0.834909 0
M  V30 4165 O 379.867 -3.53973 -1.89911 0
M  V30 4166 N 378.073 -2.79726 -0.787523 0
M  V30 4167 H 377.62 -2.5748 0.0787347 0
M  V30 4168 H 377.578 -2.67798 -1.64716 0
M  V30 4169 N 381.35 -0.985608 -1.22978 0
M  V30 4170 C 382.26 -0.538548 -2.28335 0
M  V30 4171 C 383.276 0.409163 -1.69121 0
M  V30 4172 O 384.452 0.277797 -1.99475 0
M  V30 4173 C 381.517 0.146867 -3.46389 0
M  V30 4174 C 380.578 -0.842896 -4.20944 0
M  V30 4175 C 379.811 -0.190095 -5.33361 0
M  V30 4176 O 380.034 1.01767 -5.61248 0
M  V30 4177 O 378.968 -0.891289 -5.95264 0
M  V30 4178 H 382.794 -1.41487 -2.68729 0
M  V30 4179 H 380.379 -0.753495 -1.29007 0
M  V30 4180 H 382.261 0.531125 -4.1804 0
M  V30 4181 H 380.936 0.997871 -3.07935 0
M  V30 4182 H 379.843 -1.27795 -3.51595 0
M  V30 4183 H 381.176 -1.66287 -4.6326 0
M  V30 4184 N 382.828 1.3818 -0.7579 0
M  V30 4185 C 384.074 2.00316 -0.316453 0
M  V30 4186 C 384.407 1.60026 1.10025 0
M  V30 4187 O 383.682 0.839835 1.75434 0
M  V30 4188 C 383.965 3.57349 -0.444245 0
M  V30 4189 C 383.818 4.07591 -1.90236 0
M  V30 4190 C 385.137 4.3981 0.1598 0
M  V30 4191 H 382.256 0.727741 -0.116459 0
M  V30 4192 H 384.898 1.6406 -0.958352 0
M  V30 4193 H 383.048 3.88365 0.102233 0
M  V30 4194 H 384.72 3.87199 -2.50748 0
M  V30 4195 H 382.963 3.60297 -2.41595 0
M  V30 4196 H 383.634 5.16677 -1.94291 0
M  V30 4197 H 386.11 4.14971 -0.306314 0
M  V30 4198 H 384.986 5.48885 0.0401675 0
M  V30 4199 H 385.247 4.24102 1.24859 0
M  V30 4200 N 384.306 0.507319 1.49211 0
M  V30 4201 C 385.552 -0.0269732 2.03382 0
M  V30 4202 C 385.907 -1.34111 1.37957 0
M  V30 4203 O 385.2 -1.84733 0.508351 0
M  V30 4204 C 385.394 -0.229513 3.56662 0
M  V30 4205 C 385.223 1.06344 4.36945 0
M  V30 4206 C 383.993 1.617 4.78729 0
M  V30 4207 C 386.191 1.96833 4.75143 0
M  V30 4208 N 384.173 2.8552 5.43463 0
M  V30 4209 C 385.544 3.0523 5.39661 0
M  V30 4210 C 387.599 1.97434 4.57082 0
M  V30 4211 C 386.302 4.14265 5.88028 0
M  V30 4212 C 388.328 3.05448 5.06414 0
M  V30 4213 C 387.69 4.12564 5.70938 0
M  V30 4214 H 383.789 0.0310673 0.781383 0
M  V30 4215 H 386.373 0.683579 1.82305 0
M  V30 4216 H 384.544 -0.909127 3.7761 0
M  V30 4217 H 386.276 -0.761377 3.97473 0
M  V30 4218 H 383.031 1.16132 4.59141 0
M  V30 4219 H 383.455 3.48499 5.80412 0
M  V30 4220 H 388.097 1.15924 4.06597 0
M  V30 4221 H 385.815 4.96569 6.3753 0
M  V30 4222 H 389.401 3.06941 4.94246 0
M  V30 4223 H 388.281 4.94767 6.0842 0
M  V30 4224 N 385.784 -1.5574 0.241426 0
M  V30 4225 C 387.03 -1.99846 -0.378555 0
M  V30 4226 C 387.385 -1.12665 -1.55963 0
M  V30 4227 O 386.678 -0.180966 -1.90743 0
M  V30 4228 C 386.872 -3.47308 -0.843317 0
M  V30 4229 C 386.701 -4.48756 0.291178 0
M  V30 4230 C 385.471 -4.9949 0.764077 0
M  V30 4231 C 387.669 -5.02039 1.11631 0
M  V30 4232 N 385.651 -5.84676 1.87156 0
M  V30 4233 C 387.022 -5.84343 2.07226 0
M  V30 4234 C 389.077 -4.84354 1.15349 0
M  V30 4235 C 387.78 -6.50851 3.06245 0
M  V30 4236 C 389.806 -5.51636 2.13195 0
M  V30 4237 C 389.168 -6.33724 3.07528 0
M  V30 4238 H 385.267 -0.774968 -0.104634 0
M  V30 4239 H 387.851 -1.91385 0.357751 0
M  V30 4240 H 386.022 -3.56178 -1.54893 0
M  V30 4241 H 387.754 -3.78299 -1.43779 0
M  V30 4242 H 384.509 -4.72311 0.349175 0
M  V30 4243 H 384.933 -6.31967 2.42789 0
M  V30 4244 H 389.575 -4.20525 0.438057 0
M  V30 4245 H 387.293 -7.1385 3.78739 0
M  V30 4246 H 390.879 -5.39909 2.16771 0
M  V30 4247 H 389.759 -6.84867 3.82003 0
M  V30 4248 N 387.262 0.0317525 -1.57568 0
M  V30 4249 C 388.49 0.734949 -1.93407 0
M  V30 4250 C 388.905 1.69036 -0.84096 0
M  V30 4251 O 388.262 1.81582 0.182836 0
M  V30 4252 C 388.313 1.49432 -3.29169 0
M  V30 4253 O 388.034 0.577261 -4.3428 0
M  V30 4254 C 389.535 2.29492 -3.79273 0
M  V30 4255 H 386.755 0.206706 -0.638368 0
M  V30 4256 H 389.299 -0.00992046 -2.04498 0
M  V30 4257 H 387.454 2.1911 -3.19483 0
M  V30 4258 H 387.868 1.10952 -5.1263 0
M  V30 4259 H 389.342 2.78172 -4.76785 0
M  V30 4260 H 389.819 3.10794 -3.10328 0
M  V30 4261 H 390.425 1.64894 -3.92033 0
M  V30 4262 N 388.74 1.54641 0.303973 0
M  V30 4263 C 389.989 1.7299 1.03717 0
M  V30 4264 C 390.302 0.521168 1.88529 0
M  V30 4265 O 391.508 0.586408 2.65092 0
M  V30 4266 C 389.964 3.06051 1.89369 0
M  V30 4267 C 389.572 4.34393 1.09574 0
M  V30 4268 C 391.316 3.3376 2.62306 0
M  V30 4269 C 389.223 5.58506 1.94486 0
M  V30 4270 H 388.153 0.64473 0.390947 0
M  V30 4271 H 390.804 1.81124 0.294328 0
M  V30 4272 H 389.186 2.91874 2.67629 0
M  V30 4273 H 390.36 4.59396 0.359485 0
M  V30 4274 H 388.675 4.13597 0.482324 0
M  V30 4275 H 391.272 4.23687 3.26181 0
M  V30 4276 H 391.615 2.52503 3.3098 0
M  V30 4277 H 392.148 3.48894 1.91097 0
M  V30 4278 H 388.887 6.42422 1.30287 0
M  V30 4279 H 388.407 5.37694 2.65792 0
M  V30 4280 H 390.086 5.95651 2.52605 0
M  V30 4281 N 390.218 -0.567019 1.47046 0
M  V30 4282 C 391.495 -1.3276 1.43646 0
M  V30 4283 C 391.875 -2.1071 0.128186 0
M  V30 4284 O 391.223 -2.10441 -0.890326 0
M  V30 4285 C 391.433 -2.2404 2.67595 0
M  V30 4286 C 392.781 -2.85372 3.14401 0
M  V30 4287 O 393.805 -2.34346 2.68254 0
M  V30 4288 O 392.664 -3.78091 3.946 0
M  V30 4289 H 389.758 -0.597293 0.571988 0
M  V30 4290 H 392.304 -0.586735 1.59234 0
M  V30 4291 H 391.076 -1.65975 3.54356 0
M  V30 4292 H 390.699 -3.05439 2.54544 0
M  V30 4293 N 391.696 -1.35014 -0.812953 0
M  V30 4294 C 392.944 -1.27678 -1.56661 0
M  V30 4295 C 393.265 0.150359 -1.94419 0
M  V30 4296 O 392.535 1.08532 -1.63088 0
M  V30 4297 H 391.115 -0.469602 -0.580933 0
M  V30 4298 H 393.777 -1.69043 -0.970076 0
M  V30 4299 H 392.873 -1.88833 -2.48492 0
M  V30 4300 N 393.175 1.03435 -1.18907 0
M  V30 4301 C 394.122 2.11591 -0.921837 0
M  V30 4302 C 395.092 1.65499 0.141226 0
M  V30 4303 O 396.277 1.908 0.000242829 0
M  V30 4304 C 393.417 3.42012 -0.460616 0
M  V30 4305 C 392.53 4.01682 -1.58982 0
M  V30 4306 C 391.665 5.20091 -1.08069 0
M  V30 4307 C 390.704 5.71805 -2.18416 0
M  V30 4308 N 389.841 6.81494 -1.68849 0
M  V30 4309 H 394.681 2.33787 -1.8479 0
M  V30 4310 H 392.218 1.1467 -0.921373 0
M  V30 4311 H 394.176 4.16834 -0.174642 0
M  V30 4312 H 392.806 3.19944 0.428467 0
M  V30 4313 H 391.858 3.24127 -1.99113 0
M  V30 4314 H 393.17 4.36084 -2.4214 0
M  V30 4315 H 392.324 6.02051 -0.749615 0
M  V30 4316 H 391.063 4.87209 -0.218771 0
M  V30 4317 H 390.068 4.88461 -2.5236 0
M  V30 4318 H 391.293 6.06728 -3.05054 0
M  V30 4319 H 389.239 6.50475 -0.849572 0
M  V30 4320 H 389.156 7.14994 -2.45601 0
M  V30 4321 H 390.424 7.67063 -1.38689 0
M  V30 4322 N 394.653 0.992116 1.22453 0
M  V30 4323 C 395.6 0.541731 2.24352 0
M  V30 4324 C 396.57 -0.425519 1.60557 0
M  V30 4325 O 397.755 -0.330453 1.87917 0
M  V30 4326 C 394.895 -0.138248 3.44823 0
M  V30 4327 C 394.008 0.870649 4.23136 0
M  V30 4328 C 393.143 0.164269 5.30946 0
M  V30 4329 C 392.182 1.16159 6.00977 0
M  V30 4330 N 391.319 0.483568 7.00433 0
M  V30 4331 H 396.159 1.41541 2.62241 0
M  V30 4332 H 393.696 0.709013 1.28885 0
M  V30 4333 H 395.654 -0.5494 4.13567 0
M  V30 4334 H 394.284 -0.975721 3.077 0
M  V30 4335 H 393.336 1.40013 3.53696 0
M  V30 4336 H 394.648 1.63014 4.7141 0
M  V30 4337 H 393.802 -0.303653 6.0594 0
M  V30 4338 H 392.541 -0.627733 4.83643 0
M  V30 4339 H 391.546 1.64015 5.24766 0
M  V30 4340 H 392.771 1.95445 6.50368 0
M  V30 4341 H 390.717 -0.289012 6.55363 0
M  V30 4342 H 390.634 1.18152 7.4671 0
M  V30 4343 H 391.902 0.0384219 7.79491 0
M  V30 4344 N 396.131 -1.37776 0.765217 0
M  V30 4345 C 397.542 -1.82521 0.392819 0
M  V30 4346 C 397.893 -1.63789 -1.08017 0
M  V30 4347 O 397.018 -1.14542 -1.83601 0
M  V30 4348 C 397.613 -3.31358 0.706214 0
M  V30 4349 C 396.172 -3.74406 0.386952 0
M  V30 4350 C 395.319 -2.60394 0.953422 0
M  V30 4351 H 398.27 -1.2634 0.960412 0
M  V30 4352 H 398.291 -3.80498 -0.0114706 0
M  V30 4353 H 397.803 -3.44959 1.77833 0
M  V30 4354 H 395.904 -3.66377 -0.678112 0
M  V30 4355 H 396.017 -4.70749 0.890636 0
M  V30 4356 H 394.381 -2.51878 0.378064 0
M  V30 4357 H 395.164 -2.76791 2.03081 0
M  V30 4358 N 397.609 -0.515225 -1.4894 0
M  V30 4359 C 398.886 0.0879088 -1.95402 0
M  V30 4360 C 399.266 1.52745 -1.45712 0
M  V30 4361 O 398.614 2.18238 -0.677093 0
M  V30 4362 C 398.824 -0.0141055 -3.48997 0
M  V30 4363 C 400.172 0.152646 -4.24326 0
M  V30 4364 O 401.196 0.0604025 -3.56149 0
M  V30 4365 O 400.055 0.34384 -5.45417 0
M  V30 4366 H 397.149 0.0874636 -0.822362 0
M  V30 4367 H 399.695 -0.578775 -1.59525 0
M  V30 4368 H 398.467 -1.01745 -3.77841 0
M  V30 4369 H 398.09 0.692091 -3.9153 0
M  V30 4370 N 399.087 1.5561 -0.249682 0
M  V30 4371 C 400.364 1.90932 0.424761 0
M  V30 4372 C 400.744 1.17078 1.75658 0
M  V30 4373 O 400.092 0.289176 2.26663 0
M  V30 4374 C 400.302 3.43975 0.590109 0
M  V30 4375 C 401.65 4.15281 0.884714 0
M  V30 4376 O 402.674 3.49729 0.67587 0
M  V30 4377 O 401.533 5.31236 1.28259 0
M  V30 4378 H 398.627 0.794815 0.228468 0
M  V30 4379 H 401.173 1.67135 -0.293954 0
M  V30 4380 H 399.945 3.89748 -0.34818 0
M  V30 4381 H 399.568 3.73644 1.35926 0
M  V30 4382 N 400.565 -0.0233959 1.57583 0
M  V30 4383 C 401.814 -0.712133 1.8871 0
M  V30 4384 C 402.127 -1.76217 0.848944 0
M  V30 4385 O 403.333 -2.50389 1.04964 0
M  V30 4386 C 401.789 -1.3177 3.3491 0
M  V30 4387 C 401.397 -0.303715 4.46969 0
M  V30 4388 C 403.141 -1.98598 3.75179 0
M  V30 4389 C 401.048 -0.917945 5.84233 0
M  V30 4390 H 399.978 -0.269735 0.704101 0
M  V30 4391 H 402.629 0.0333114 1.8347 0
M  V30 4392 H 401.011 -2.11304 3.34913 0
M  V30 4393 H 402.185 0.465325 4.58445 0
M  V30 4394 H 400.5 0.2628 4.1557 0
M  V30 4395 H 403.097 -2.45416 4.75053 0
M  V30 4396 H 403.44 -2.80659 3.07468 0
M  V30 4397 H 403.973 -1.25831 3.77374 0
M  V30 4398 H 400.712 -0.136633 6.55358 0
M  V30 4399 H 400.232 -1.65669 5.76467 0
M  V30 4400 H 401.911 -1.4236 6.31144 0
M  V30 4401 N 402.043 -1.548 -0.295768 0
M  V30 4402 C 403.271 -1.78327 -1.04914 0
M  V30 4403 C 403.686 -0.545316 -1.80753 0
M  V30 4404 O 403.043 0.485013 -1.75937 0
M  V30 4405 C 403.094 -2.99418 -2.02561 0
M  V30 4406 O 402.815 -4.18431 -1.29798 0
M  V30 4407 C 404.316 -3.35375 -2.89895 0
M  V30 4408 H 401.536 -0.594618 -0.310918 0
M  V30 4409 H 404.08 -2.01763 -0.333454 0
M  V30 4410 H 402.235 -2.78175 -2.69624 0
M  V30 4411 H 402.649 -4.86736 -1.95419 0
M  V30 4412 H 404.123 -4.23332 -3.54251 0
M  V30 4413 H 404.6 -2.53761 -3.58472 0
M  V30 4414 H 405.206 -3.58796 -2.28355 0
M  V30 4415 N 403.521 0.559213 -1.47345 0
M  V30 4416 C 404.77 1.31281 -1.53128 0
M  V30 4417 C 405.083 1.94602 -0.197344 0
M  V30 4418 O 406.289 2.71173 -0.133154 0
M  V30 4419 C 404.745 2.38051 -2.69925 0
M  V30 4420 C 404.353 1.8093 -4.0984 0
M  V30 4421 C 406.097 3.14604 -2.84999 0
M  V30 4422 C 404.004 2.85468 -5.1794 0
M  V30 4423 H 402.934 0.493614 -0.569966 0
M  V30 4424 H 405.585 0.594155 -1.73615 0
M  V30 4425 H 403.967 3.12822 -2.42814 0
M  V30 4426 H 405.141 1.12544 -4.46845 0
M  V30 4427 H 403.456 1.16967 -3.99634 0
M  V30 4428 H 406.053 3.92666 -3.62929 0
M  V30 4429 H 406.396 3.68665 -1.93369 0
M  V30 4430 H 406.929 2.46945 -3.1187 0
M  V30 4431 H 403.668 2.36264 -6.1144 0
M  V30 4432 H 403.188 3.52269 -4.85455 0
M  V30 4433 H 404.867 3.48996 -5.44803 0
M  V30 4434 N 404.999 1.35443 0.805782 0
M  V30 4435 C 406.276 1.19325 1.54987 0
M  V30 4436 C 406.656 -0.227294 2.09873 0
M  V30 4437 O 406.004 -1.2309 1.92512 0
M  V30 4438 C 406.214 2.26196 2.65775 0
M  V30 4439 C 407.562 2.62043 3.34094 0
M  V30 4440 O 408.586 2.25115 2.76046 0
M  V30 4441 O 407.445 3.25542 4.38958 0
M  V30 4442 H 404.539 0.463623 0.684823 0
M  V30 4443 H 407.085 1.47127 0.845674 0
M  V30 4444 H 405.857 3.21471 2.23096 0
M  V30 4445 H 405.48 1.99667 3.43829 0
M  V30 4446 N 406.477 -1.02803 1.19454 0
M  V30 4447 C 407.723 -1.76478 0.999171 0
M  V30 4448 C 408.056 -1.88456 -0.468828 0
M  V30 4449 O 407.331 -1.40198 -1.34814 0
M  V30 4450 C 407.614 -3.19044 1.66981 0
M  V30 4451 C 407.467 -3.14932 3.21151 0
M  V30 4452 C 408.786 -4.17456 1.39349 0
M  V30 4453 H 405.905 -0.640614 0.364393 0
M  V30 4454 H 408.547 -1.20005 1.47305 0
M  V30 4455 H 406.697 -3.67263 1.2669 0
M  V30 4456 H 408.369 -2.74605 3.70661 0
M  V30 4457 H 406.612 -2.52625 3.52652 0
M  V30 4458 H 407.283 -4.1566 3.63223 0
M  V30 4459 H 409.759 -3.77842 1.74283 0
M  V30 4460 H 408.635 -5.154 1.88823 0
M  V30 4461 H 408.896 -4.40949 0.318813 0
M  V30 4462 N 407.956 -0.998596 -1.21925 0
M  V30 4463 C 409.184 -0.696286 -1.94832 0
M  V30 4464 C 409.599 0.740032 -1.73692 0
M  V30 4465 O 408.956 1.5 -1.03953 0
M  V30 4466 C 409.007 -0.999833 -3.47398 0
M  V30 4467 O 408.728 -2.37972 -3.67833 0
M  V30 4468 C 410.229 -0.716025 -4.37479 0
M  V30 4469 H 407.449 -0.257111 -0.619786 0
M  V30 4470 H 409.993 -1.33491 -1.54921 0
M  V30 4471 H 408.148 -0.406918 -3.85257 0
M  V30 4472 H 408.562 -2.48338 -4.61983 0
M  V30 4473 H 410.036 -0.978642 -5.43256 0
M  V30 4474 H 410.513 0.349968 -4.37803 0
M  V30 4475 H 411.119 -1.29025 -4.05256 0
M  V30 4476 N 409.434 1.37368 -0.772513 0
M  V30 4477 C 410.683 1.98918 -0.333861 0
M  V30 4478 C 410.996 1.62017 1.09589 0
M  V30 4479 O 412.202 2.16676 1.63596 0
M  V30 4480 C 410.658 3.55735 -0.545971 0
M  V30 4481 C 410.266 4.01573 -1.98603 0
M  V30 4482 C 412.01 4.24156 -0.170979 0
M  V30 4483 C 409.917 5.51102 -2.1457 0
M  V30 4484 H 408.847 0.744214 -0.121085 0
M  V30 4485 H 411.498 1.56888 -0.95175 0
M  V30 4486 H 409.88 3.95748 0.141387 0
M  V30 4487 H 411.054 3.72803 -2.7084 0
M  V30 4488 H 409.369 3.45937 -2.31769 0
M  V30 4489 H 411.966 5.34024 -0.26878 0
M  V30 4490 H 412.309 4.06917 0.878855 0
M  V30 4491 H 412.842 3.89447 -0.810914 0
M  V30 4492 H 409.581 5.73268 -3.17875 0
M  V30 4493 H 409.101 5.81554 -1.46817 0
M  V30 4494 H 410.78 6.17083 -1.94468 0
M  V30 4495 N 410.912 0.523116 1.48665 0
M  V30 4496 C 411.86 -0.256859 2.31177 0
M  V30 4497 C 412.854 -0.94199 1.40794 0
M  V30 4498 O 414.06 -0.867157 1.57735 0
M  V30 4499 H 410.435 -0.1017 0.745091 0
M  V30 4500 H 412.406 0.458739 2.94853 0
M  V30 4501 C 411.155 -1.29503 3.22683 0
M  V30 4502 H 410.478 -0.777248 3.92172 0
M  V30 4503 H 411.918 -1.81233 3.83315 0
M  V30 4504 C 410.377 -2.32501 2.43813 0
M  V30 4505 O 410.907 -3.3881 2.15803 0
M  V30 4506 N 409.113 -2.05538 2.05432 0
M  V30 4507 H 408.66 -1.19104 2.28412 0
M  V30 4508 H 408.618 -2.74676 1.52973 0
M  V30 4509 N 412.39 -1.55475 0.257931 0
M  V30 4510 C 413.3 -2.2549 -0.647425 0
M  V30 4511 C 414.316 -1.2748 -1.18427 0
M  V30 4512 O 415.492 -1.6038 -1.2182 0
M  V30 4513 C 412.557 -2.94916 -1.82278 0
M  V30 4514 C 411.618 -4.08363 -1.32432 0
M  V30 4515 C 410.851 -4.74469 -2.44366 0
M  V30 4516 O 411.074 -4.39701 -3.63344 0
M  V30 4517 O 410.008 -5.62763 -2.13497 0
M  V30 4518 H 413.834 -3.03593 -0.0807707 0
M  V30 4519 H 411.419 -1.49377 0.0259962 0
M  V30 4520 H 413.301 -3.38606 -2.50846 0
M  V30 4521 H 411.976 -2.19744 -2.37685 0
M  V30 4522 H 410.883 -3.69166 -0.605605 0
M  V30 4523 H 412.216 -4.85385 -0.816211 0
M  V30 4524 N 413.868 0.0150385 -1.57593 0
M  V30 4525 C 415.093 0.718067 -1.94573 0
M  V30 4526 C 415.518 1.6734 -0.859005 0
M  V30 4527 O 414.876 1.80362 0.184147 0
M  V30 4528 C 414.924 1.43918 -3.30636 0
M  V30 4529 O 414.028 2.55299 -3.23876 0
M  V30 4530 H 413.369 0.192125 -0.635597 0
M  V30 4531 H 415.899 -0.0336708 -2.04572 0
M  V30 4532 H 415.909 1.80598 -3.65853 0
M  V30 4533 H 414.584 0.738619 -4.09289 0
M  V30 4534 H 413.161 2.21058 -3.00312 0
M  V30 4535 N 415.346 1.54954 0.287554 0
M  V30 4536 C 416.595 1.74081 1.01877 0
M  V30 4537 C 416.908 0.541135 1.87966 0
M  V30 4538 O 418.114 0.614491 2.64455 0
M  V30 4539 C 416.57 3.08042 1.86113 0
M  V30 4540 C 416.178 4.35531 1.04961 0
M  V30 4541 C 417.922 3.36523 2.58752 0
M  V30 4542 C 415.829 5.60538 1.88551 0
M  V30 4543 H 414.759 0.64884 0.384087 0
M  V30 4544 H 417.41 1.81426 0.275101 0
M  V30 4545 H 415.792 2.94696 2.64519 0
M  V30 4546 H 416.966 4.59751 0.31074 0
M  V30 4547 H 415.281 4.14085 0.43843 0
M  V30 4548 H 417.878 4.27122 3.21668 0
M  V30 4549 H 418.221 2.56 3.28283 0
M  V30 4550 H 418.754 3.50901 1.87386 0
M  V30 4551 H 415.493 6.43767 1.23466 0
M  V30 4552 H 415.013 5.40483 2.60074 0
M  V30 4553 H 416.692 5.98297 2.46273 0
M  V30 4554 N 416.824 -0.551391 1.4764 0
M  V30 4555 C 418.049 -1.33837 1.58437 0
M  V30 4556 C 418.474 -1.866 0.237063 0
M  V30 4557 O 417.832 -1.6328 -0.787994 0
M  V30 4558 C 417.88 -2.48014 2.61766 0
M  V30 4559 O 416.984 -3.50419 2.1744 0
M  V30 4560 H 416.325 -0.397299 0.532024 0
M  V30 4561 H 418.855 -0.665759 1.93465 0
M  V30 4562 H 418.865 -2.94503 2.82369 0
M  V30 4563 H 417.54 -2.08969 3.5959 0
M  V30 4564 H 416.117 -3.10196 2.06961 0
M  V30 4565 N 418.302 -1.35869 -0.798587 0
M  V30 4566 C 419.252 -1.25982 -1.90033 0
M  V30 4567 C 420.236 -0.153303 -1.60168 0
M  V30 4568 O 421.428 -0.38527 -1.72756 0
M  V30 4569 C 418.557 -1.04211 -3.27101 0
M  V30 4570 C 417.643 -2.19289 -3.63006 0
M  V30 4571 N 418.034 -3.44559 -3.70287 0
M  V30 4572 C 416.332 -2.10852 -3.93011 0
M  V30 4573 C 417.033 -4.20283 -4.02166 0
M  V30 4574 N 416.009 -3.49124 -4.16669 0
M  V30 4575 H 419.811 -2.20883 -1.93876 0
M  V30 4576 H 417.325 -1.28457 -0.993614 0
M  V30 4577 H 419.322 -0.952155 -4.05881 0
M  V30 4578 H 417.982 -0.102013 -3.2454 0
M  V30 4579 H 418.993 -3.7881 -3.53162 0
M  V30 4580 H 415.67 -1.24744 -3.98428 0
M  V30 4581 H 417.06 -5.28575 -4.14799 0
M  V30 4582 N 419.78 1.02168 -1.19998 0
M  V30 4583 C 421.005 1.79833 -1.03319 0
M  V30 4584 C 421.43 1.83504 0.413281 0
M  V30 4585 O 420.788 1.26635 1.29743 0
M  V30 4586 C 420.836 3.22396 -1.61533 0
M  V30 4587 O 419.94 4.03555 -0.849519 0
M  V30 4588 H 419.281 0.554872 -0.364709 0
M  V30 4589 H 421.811 1.28542 -1.59179 0
M  V30 4590 H 421.821 3.73124 -1.65054 0
M  V30 4591 H 420.496 3.19039 -2.66809 0
M  V30 4592 H 419.073 3.62169 -0.888129 0
M  V30 4593 N 421.258 1.00505 1.21394 0
M  V30 4594 C 422.674 0.717873 1.42544 0
M  V30 4595 C 422.874 -0.706936 1.88692 0
M  V30 4596 O 421.93 -1.47627 2.04847 0
M  V30 4597 C 423.243 1.73377 2.45684 0
M  V30 4598 C 424.791 1.75059 2.59467 0
M  V30 4599 C 425.266 2.75545 3.6584 0
M  V30 4600 N 426.757 2.74213 3.73311 0
M  V30 4601 C 427.492 3.48626 4.55245 0
M  V30 4602 N 426.988 4.32678 5.41075 0
M  V30 4603 N 428.781 3.37276 4.49668 0
M  V30 4604 H 420.932 1.92506 0.897503 0
M  V30 4605 H 423.195 0.830919 0.456375 0
M  V30 4606 H 422.901 2.75395 2.18748 0
M  V30 4607 H 422.775 1.53647 3.44489 0
M  V30 4608 H 425.162 0.737337 2.8574 0
M  V30 4609 H 425.243 1.98861 1.60897 0
M  V30 4610 H 424.887 3.77028 3.40313 0
M  V30 4611 H 424.817 2.49009 4.64007 0
M  V30 4612 H 427.308 2.13234 3.11993 0
M  V30 4613 H 427.621 4.86253 6.00648 0
M  V30 4614 H 425.966 4.3676 5.40616 0
M  V30 4615 H 429.157 2.71043 3.81646 0
M  V30 4616 H 429.33 3.95524 5.13288 0
M  V30 4617 N 422.737 -1.36956 0.779787 0
M  V30 4618 C 423.965 -2.03755 0.359398 0
M  V30 4619 C 424.38 -1.58807 -1.02106 0
M  V30 4620 O 423.737 -0.773024 -1.6532 0
M  V30 4621 C 423.788 -3.59251 0.402568 0
M  V30 4622 O 423.509 -4.02557 1.72858 0
M  V30 4623 C 425.01 -4.43291 -0.0284068 0
M  V30 4624 H 422.23 -0.654148 0.149437 0
M  V30 4625 H 424.774 -1.75128 1.05595 0
M  V30 4626 H 422.929 -3.86621 -0.245478 0
M  V30 4627 H 423.343 -4.97111 1.67275 0
M  V30 4628 H 424.817 -5.51975 0.0529466 0
M  V30 4629 H 425.294 -4.25719 -1.07982 0
M  V30 4630 H 425.9 -4.21163 0.591758 0
M  V30 4631 N 424.215 -0.530993 -1.48385 0
M  V30 4632 C 425.125 0.23503 -2.3342 0
M  V30 4633 C 426.141 0.93801 -1.46552 0
M  V30 4634 O 427.317 0.912745 -1.7953 0
M  V30 4635 C 424.382 1.26778 -3.22689 0
M  V30 4636 C 423.443 0.575038 -4.25431 0
M  V30 4637 C 422.676 1.55858 -5.10435 0
M  V30 4638 O 422.899 2.79129 -4.97437 0
M  V30 4639 O 421.833 1.09742 -5.91811 0
M  V30 4640 H 425.659 -0.461794 -3.00169 0
M  V30 4641 H 423.244 -0.291903 -1.46521 0
M  V30 4642 H 425.126 1.86457 -3.77904 0
M  V30 4643 H 423.801 1.94699 -2.586 0
M  V30 4644 H 422.708 -0.0622782 -3.74048 0
M  V30 4645 H 424.041 -0.062253 -4.92161 0
M  V30 4646 N 425.693 1.55336 -0.266172 0
M  V30 4647 C 426.97 1.91372 0.404486 0
M  V30 4648 C 427.35 1.18935 1.74407 0
M  V30 4649 O 426.698 0.3132 2.26343 0
M  V30 4650 C 426.908 3.44581 0.553593 0
M  V30 4651 C 428.256 4.16196 0.840618 0
M  V30 4652 O 429.28 3.50426 0.638739 0
M  V30 4653 O 428.139 5.32567 1.22618 0
M  V30 4654 H 425.233 0.797194 0.220025 0
M  V30 4655 H 427.779 1.66813 -0.311664 0
M  V30 4656 H 426.551 3.89357 -0.389498 0
M  V30 4657 H 426.174 3.75065 1.31955 0
M  V30 4658 N 427.171 -0.0066808 1.57599 0
M  V30 4659 C 428.081 -1.01671 2.11424 0
M  V30 4660 C 429.097 -1.38143 1.05795 0
M  V30 4661 O 430.273 -1.47011 1.37658 0
M  V30 4662 C 427.338 -2.29192 2.60139 0
M  V30 4663 C 426.399 -1.99094 3.80342 0
M  V30 4664 C 425.632 -3.20535 4.26724 0
M  V30 4665 O 425.855 -4.3199 3.72479 0
M  V30 4666 O 424.789 -3.04924 5.18946 0
M  V30 4667 H 428.615 -0.589181 2.9793 0
M  V30 4668 H 426.2 -0.225091 1.47695 0
M  V30 4669 H 428.082 -3.0412 2.917 0
M  V30 4670 H 426.757 -2.71195 1.76733 0
M  V30 4671 H 425.664 -1.21663 3.53764 0
M  V30 4672 H 426.997 -1.61931 4.648 0
M  V30 4673 N 428.649 -1.55105 -0.279332 0
M  V30 4674 C 429.877 -1.7943 -1.03017 0
M  V30 4675 C 430.292 -0.564456 -1.80165 0
M  V30 4676 O 429.649 0.466326 -1.76442 0
M  V30 4677 C 429.7 -3.0155 -1.99374 0
M  V30 4678 O 429.421 -4.19784 -1.25352 0
M  V30 4679 C 430.922 -3.3843 -2.86321 0
M  V30 4680 H 428.142 -0.597882 -0.304594 0
M  V30 4681 H 430.686 -2.02105 -0.312035 0
M  V30 4682 H 428.841 -2.81019 -2.66659 0
M  V30 4683 H 429.255 -4.88781 -1.90246 0
M  V30 4684 H 430.729 -4.27066 -3.49741 0
M  V30 4685 H 431.206 -2.57549 -3.5576 0
M  V30 4686 H 431.812 -3.61197 -2.24536 0
M  V30 4687 N 430.127 0.543554 -1.4793 0
M  V30 4688 C 431.543 0.870806 -1.3375 0
M  V30 4689 C 431.743 1.9864 -0.338261 0
M  V30 4690 O 430.799 2.51305 0.245371 0
M  V30 4691 C 432.112 1.25114 -2.73435 0
M  V30 4692 C 433.66 1.3618 -2.81823 0
M  V30 4693 C 434.135 1.77563 -4.22179 0
M  V30 4694 N 435.626 1.8469 -4.24787 0
M  V30 4695 C 436.361 2.18067 -5.30315 0
M  V30 4696 N 435.857 2.49963 -6.46135 0
M  V30 4697 N 437.65 2.18958 -5.17701 0
M  V30 4698 H 429.801 -0.19275 -2.11524 0
M  V30 4699 H 432.064 -0.0235777 -0.947707 0
M  V30 4700 H 431.77 0.50514 -3.48053 0
M  V30 4701 H 431.644 2.20431 -3.06088 0
M  V30 4702 H 434.031 2.09859 -2.07468 0
M  V30 4703 H 434.112 0.390169 -2.52807 0
M  V30 4704 H 433.756 1.04449 -4.97044 0
M  V30 4705 H 433.686 2.75753 -4.48629 0
M  V30 4706 H 436.177 1.62372 -3.41239 0
M  V30 4707 H 436.49 2.74497 -7.22406 0
M  V30 4708 H 434.835 2.47513 -6.49432 0
M  V30 4709 H 438.026 1.93488 -4.2624 0
M  V30 4710 H 438.199 2.44639 -6.00047 0
M  V30 4711 N 431.605 1.3629 0.791371 0
M  V30 4712 C 432.833 1.33562 1.58016 0
M  V30 4713 C 433.248 -0.0835616 1.88615 0
M  V30 4714 O 432.605 -1.0399 1.49974 0
M  V30 4715 C 432.656 2.15517 2.90232 0
M  V30 4716 O 432.377 3.51902 2.60953 0
M  V30 4717 C 433.878 2.20546 3.84544 0
M  V30 4718 H 431.098 0.458226 0.490173 0
M  V30 4719 H 433.642 1.79361 0.982345 0
M  V30 4720 H 431.797 1.73278 3.46487 0
M  V30 4721 H 432.211 3.94644 3.4548 0
M  V30 4722 H 433.685 2.82252 4.74382 0
M  V30 4723 H 434.162 1.20838 4.2225 0
M  V30 4724 H 434.768 2.63013 3.34222 0
M  V30 4725 N 433.083 -1.0153 1.20538 0
M  V30 4726 C 434.015 -2.10224 0.913155 0
M  V30 4727 C 435.028 -1.62495 -0.0995998 0
M  V30 4728 O 436.217 -1.78014 0.131582 0
M  V30 4729 C 433.317 -3.37111 0.347717 0
M  V30 4730 C 432.49 -4.13971 1.41233 0
M  V30 4731 C 431.549 -5.19158 0.857976 0
M  V30 4732 O 430.575 -5.48 1.53897 0
M  V30 4733 N 431.777 -5.7955 -0.331966 0
M  V30 4734 H 434.542 -2.35879 1.84881 0
M  V30 4735 H 432.103 -1.17931 1.10923 0
M  V30 4736 H 434.095 -4.04683 -0.0373026 0
M  V30 4737 H 432.665 -3.08696 -0.492527 0
M  V30 4738 H 431.885 -3.41351 1.97163 0
M  V30 4739 H 433.173 -4.62103 2.12928 0
M  V30 4740 H 432.571 -5.58455 -0.902478 0
M  V30 4741 H 431.128 -6.48464 -0.65861 0
M  V30 4742 N 434.561 -1.01147 -1.20859 0
M  V30 4743 C 435.81 -0.693214 -1.89413 0
M  V30 4744 C 436.123 0.779969 -1.79376 0
M  V30 4745 O 437.329 1.21057 -2.43017 0
M  V30 4746 C 435.785 -1.18949 -3.39675 0
M  V30 4747 C 435.393 -2.68921 -3.58309 0
M  V30 4748 C 437.137 -0.94642 -4.13815 0
M  V30 4749 C 435.044 -3.12056 -5.0237 0
M  V30 4750 H 433.974 -0.255595 -0.709357 0
M  V30 4751 H 436.625 -1.22349 -1.36759 0
M  V30 4752 H 435.007 -0.587228 -3.91622 0
M  V30 4753 H 436.181 -3.34652 -3.16772 0
M  V30 4754 H 434.496 -2.91314 -2.97532 0
M  V30 4755 H 437.093 -1.24417 -5.20023 0
M  V30 4756 H 437.436 0.117219 -4.16135 0
M  V30 4757 H 437.969 -1.5118 -3.67953 0
M  V30 4758 H 434.708 -4.17674 -5.05202 0
M  V30 4759 H 434.228 -2.51041 -5.44737 0
M  V30 4760 H 435.907 -3.04403 -5.70918 0
M  V30 4761 N 436.039 1.36541 -0.78704 0
M  V30 4762 C 436.969 2.32659 -0.197992 0
M  V30 4763 C 437.95 1.56533 0.665697 0
M  V30 4764 O 439.135 1.84698 0.60001 0
M  V30 4765 C 436.265 3.40778 0.669901 0
M  V30 4766 C 435.219 4.27897 -0.0937039 0
M  V30 4767 C 434.545 5.27163 0.894629 0
M  V30 4768 C 435.845 5.06334 -1.28154 0
M  V30 4769 H 437.539 2.82171 -1.00099 0
M  V30 4770 H 435.085 1.35665 -0.482793 0
M  V30 4771 H 437.038 4.07008 1.09191 0
M  V30 4772 H 435.762 2.89827 1.50558 0
M  V30 4773 H 434.421 3.6322 -0.49666 0
M  V30 4774 H 434.069 4.72486 1.72527 0
M  V30 4775 H 433.769 5.86317 0.388149 0
M  V30 4776 H 435.293 5.96266 1.31525 0
M  V30 4777 H 436.707 5.65617 -0.93541 0
M  V30 4778 H 435.104 5.74888 -1.72115 0
M  V30 4779 H 436.174 4.38114 -2.07807 0
M  V30 4780 N 437.518 0.538854 1.48102 0
M  V30 4781 C 438.743 0.0102694 2.07397 0
M  V30 4782 C 439.168 -1.26562 1.39153 0
M  V30 4783 O 438.526 -1.75357 0.460387 0
M  V30 4784 C 438.574 -0.187602 3.60112 0
M  V30 4785 O 437.678 -1.25432 3.92862 0
M  V30 4786 H 437.019 0.0430975 0.6626 0
M  V30 4787 H 439.549 0.749301 1.90385 0
M  V30 4788 H 439.559 -0.407517 4.0596 0
M  V30 4789 H 438.234 0.744386 4.09184 0
M  V30 4790 H 436.811 -1.01636 3.58782 0
M  V30 4791 N 438.996 -1.55193 0.274407 0
M  V30 4792 C 440.245 -1.98758 -0.343213 0
M  V30 4793 C 440.558 -1.16624 -1.5703 0
M  V30 4794 O 441.764 -1.5033 -2.26082 0
M  V30 4795 C 440.22 -3.53759 -0.661996 0
M  V30 4796 C 439.828 -4.4467 0.54524 0
M  V30 4797 C 441.572 -4.05916 -1.24228 0
M  V30 4798 C 439.479 -5.91058 0.201084 0
M  V30 4799 H 438.409 -0.742353 -0.132014 0
M  V30 4800 H 441.06 -1.79545 0.378948 0
M  V30 4801 H 439.442 -3.68772 -1.44304 0
M  V30 4802 H 440.616 -4.41426 1.32212 0
M  V30 4803 H 438.931 -4.03143 1.04232 0
M  V30 4804 H 441.528 -5.12831 -1.51357 0
M  V30 4805 H 441.871 -3.54908 -2.17592 0
M  V30 4806 H 442.404 -3.9434 -0.523542 0
M  V30 4807 H 439.143 -6.46161 1.10258 0
M  V30 4808 H 438.663 -5.97373 -0.539045 0
M  V30 4809 H 440.342 -6.46669 -0.206954 0
M  V30 4810 N 440.474 -0.00167713 -1.576 0
M  V30 4811 C 441.421 0.989195 -2.08527 0
M  V30 4812 C 442.391 1.34031 -0.981065 0
M  V30 4813 O 443.576 1.43839 -1.2536 0
M  V30 4814 C 440.716 2.27537 -2.59463 0
M  V30 4815 C 439.829 1.98314 -3.83791 0
M  V30 4816 C 438.964 3.21025 -4.23222 0
M  V30 4817 C 438.003 2.87495 -5.40382 0
M  V30 4818 N 437.14 4.02749 -5.75098 0
M  V30 4819 H 441.98 0.547973 -2.92919 0
M  V30 4820 H 439.517 0.258917 -1.44803 0
M  V30 4821 H 441.475 3.02729 -2.87073 0
M  V30 4822 H 440.105 2.69325 -1.77943 0
M  V30 4823 H 439.157 1.13482 -3.63078 0
M  V30 4824 H 440.469 1.69601 -4.69081 0
M  V30 4825 H 439.623 4.04561 -4.52123 0
M  V30 4826 H 438.362 3.52877 -3.36644 0
M  V30 4827 H 437.367 2.02367 -5.11202 0
M  V30 4828 H 438.592 2.56889 -6.28637 0
M  V30 4829 H 436.538 4.34494 -4.91478 0
M  V30 4830 H 436.455 3.77566 -6.54966 0
M  V30 4831 H 437.723 4.87068 -6.08592 0
M  V30 4832 N 441.952 1.55251 0.271103 0
M  V30 4833 C 442.899 1.88261 1.33516 0
M  V30 4834 C 443.869 0.734296 1.48988 0
M  V30 4835 O 445.054 0.985741 1.63364 0
M  V30 4836 C 442.194 2.16168 2.69008 0
M  V30 4837 C 441.307 3.43678 2.61743 0
M  V30 4838 C 440.442 3.61276 3.89427 0
M  V30 4839 C 439.481 4.82472 3.7668 0
M  V30 4840 N 438.618 4.96717 4.96202 0
M  V30 4841 H 443.458 2.79015 1.04665 0
M  V30 4842 H 440.995 1.38137 0.505618 0
M  V30 4843 H 442.953 2.30349 3.47844 0
M  V30 4844 H 441.583 1.28646 2.96057 0
M  V30 4845 H 440.635 3.37959 1.74607 0
M  V30 4846 H 441.947 4.3265 2.48224 0
M  V30 4847 H 441.101 3.75284 4.76704 0
M  V30 4848 H 439.84 2.70492 4.05814 0
M  V30 4849 H 438.845 4.68465 2.87786 0
M  V30 4850 H 440.07 5.74692 3.61809 0
M  V30 4851 H 438.016 4.08865 5.12997 0
M  V30 4852 H 437.933 5.79738 4.85222 0
M  V30 4853 H 439.201 5.15113 5.85046 0
M  V30 4854 N 443.43 -0.535701 1.48216 0
M  V30 4855 C 444.676 -1.29375 1.56173 0
M  V30 4856 C 445.009 -1.92804 0.232429 0
M  V30 4857 O 444.284 -1.78992 -0.761048 0
M  V30 4858 C 444.567 -2.38747 2.69577 0
M  V30 4859 C 444.42 -1.80046 4.12193 0
M  V30 4860 C 445.739 -3.40551 2.78771 0
M  V30 4861 H 442.858 -0.469027 0.568491 0
M  V30 4862 H 445.5 -0.597358 1.80365 0
M  V30 4863 H 443.65 -2.98147 2.4908 0
M  V30 4864 H 445.322 -1.24742 4.44114 0
M  V30 4865 H 443.565 -1.10609 4.19462 0
M  V30 4866 H 444.236 -2.59212 4.87353 0
M  V30 4867 H 446.712 -2.91099 2.97322 0
M  V30 4868 H 445.588 -4.1448 3.59857 0
M  V30 4869 H 445.849 -4.00746 1.86696 0
M  V30 4870 N 444.908 -1.36708 -0.784132 0
M  V30 4871 C 446.136 -1.34398 -1.57305 0
M  V30 4872 C 446.551 0.0735577 -1.88657 0
M  V30 4873 O 445.908 1.03193 -1.50524 0
M  V30 4874 C 445.959 -2.17053 -2.89085 0
M  V30 4875 O 445.68 -3.53281 -2.59083 0
M  V30 4876 C 447.181 -2.22583 -3.83369 0
M  V30 4877 H 444.401 -0.460819 -0.487736 0
M  V30 4878 H 446.945 -1.79879 -0.972819 0
M  V30 4879 H 445.1 -1.75113 -3.45564 0
M  V30 4880 H 445.514 -3.9647 -3.43383 0
M  V30 4881 H 446.988 -2.84763 -4.72878 0
M  V30 4882 H 447.465 -1.23075 -4.21603 0
M  V30 4883 H 448.071 -2.64781 -3.32823 0
M  V30 4884 N 446.386 1.0089 -1.21074 0
M  V30 4885 C 447.611 1.78727 -1.05221 0
M  V30 4886 C 448.036 1.83932 0.393795 0
M  V30 4887 O 447.394 1.28004 1.28393 0
M  V30 4888 C 447.442 3.20665 -1.64944 0
M  V30 4889 O 446.546 4.02632 -0.892273 0
M  V30 4890 H 445.887 0.550973 -0.370574 0
M  V30 4891 H 448.417 1.26847 -1.60534 0
M  V30 4892 H 448.427 3.71352 -1.69002 0
M  V30 4893 H 447.102 3.16191 -2.70177 0
M  V30 4894 H 445.679 3.61207 -0.926492 0
M  V30 4895 N 447.864 1.01787 1.20321 0
M  V30 4896 C 448.774 0.598898 2.26827 0
M  V30 4897 C 449.79 -0.36418 1.70146 0
M  V30 4898 O 450.966 -0.224812 2.00141 0
M  V30 4899 C 448.031 -0.0549769 3.46656 0
M  V30 4900 C 447.092 0.954205 4.18561 0
M  V30 4901 C 446.325 0.331439 5.3267 0
M  V30 4902 O 446.548 -0.86851 5.63749 0
M  V30 4903 O 445.482 1.0488 5.92692 0
M  V30 4904 H 449.308 1.48562 2.64883 0
M  V30 4905 H 446.893 0.787434 1.26964 0
M  V30 4906 H 448.775 -0.420102 4.19301 0
M  V30 4907 H 447.45 -0.915876 3.10473 0
M  V30 4908 H 446.357 1.37072 3.48083 0
M  V30 4909 H 447.69 1.78511 4.58688 0
M  V30 4910 N 449.342 -1.36122 0.79427 0
M  V30 4911 C 450.619 -1.93398 0.292685 0
M  V30 4912 C 450.999 -1.72567 -1.21589 0
M  V30 4913 O 450.347 -1.08745 -2.00965 0
M  V30 4914 C 450.557 -3.42099 0.690614 0
M  V30 4915 C 451.905 -4.19231 0.673105 0
M  V30 4916 O 452.929 -3.50559 0.631389 0
M  V30 4917 O 451.788 -5.41732 0.720362 0
M  V30 4918 H 448.882 -0.823712 0.0736693 0
M  V30 4919 H 451.428 -1.45273 0.87714 0
M  V30 4920 H 450.2 -3.50938 1.73085 0
M  V30 4921 H 449.823 -3.97519 0.0803036 0
M  V30 4922 N 450.82 -0.546701 -1.47814 0
M  V30 4923 C 451.75 0.195317 -2.32682 0
M  V30 4924 C 452.731 0.918981 -1.43139 0
M  V30 4925 O 453.916 0.901501 -1.72008 0
M  V30 4926 C 451.046 1.23237 -3.247 0
M  V30 4927 C 450 0.625818 -4.234 0
M  V30 4928 C 449.326 1.76674 -5.04669 0
M  V30 4929 C 450.626 -0.413515 -5.2066 0
M  V30 4930 H 452.32 -0.513184 -2.94969 0
M  V30 4931 H 449.866 -0.248241 -1.41844 0
M  V30 4932 H 451.819 1.75955 -3.82907 0
M  V30 4933 H 450.543 1.97067 -2.60446 0
M  V30 4934 H 449.202 0.120023 -3.66403 0
M  V30 4935 H 448.85 2.49383 -4.36826 0
M  V30 4936 H 448.55 1.36673 -5.71484 0
M  V30 4937 H 450.074 2.29738 -5.65732 0
M  V30 4938 H 451.488 0.0272042 -5.73294 0
M  V30 4939 H 449.885 -0.731825 -5.95621 0
M  V30 4940 H 450.955 -1.31325 -4.66778 0
M  V30 4941 N 452.299 1.55045 -0.282633 0
M  V30 4942 C 453.246 2.22822 0.601566 0
M  V30 4943 C 454.216 1.20431 1.14392 0
M  V30 4944 O 455.401 1.48996 1.19184 0
M  V30 4945 C 452.541 2.95873 1.77632 0
M  V30 4946 C 451.654 4.12999 1.26711 0
M  V30 4947 C 450.789 4.73676 2.40426 0
M  V30 4948 C 449.828 5.82981 1.86545 0
M  V30 4949 N 448.965 6.3769 2.93762 0
M  V30 4950 H 453.805 2.97995 0.0169528 0
M  V30 4951 H 451.342 1.471 -0.00339964 0
M  V30 4952 H 453.3 3.36447 2.46697 0
M  V30 4953 H 451.93 2.2311 2.33285 0
M  V30 4954 H 450.982 3.77494 0.469314 0
M  V30 4955 H 452.294 4.91803 0.832518 0
M  V30 4956 H 451.448 5.17008 3.17471 0
M  V30 4957 H 450.187 3.94164 2.87203 0
M  V30 4958 H 449.192 5.39092 1.07983 0
M  V30 4959 H 450.417 6.64366 1.40694 0
M  V30 4960 H 448.363 5.61069 3.39908 0
M  V30 4961 H 448.28 7.11788 2.54744 0
M  V30 4962 H 449.548 6.8568 3.7076 0
M  V30 4963 N 453.777 0.010035 1.57597 0
M  V30 4964 C 455.193 -0.346164 1.55801 0
M  V30 4965 C 455.393 -1.74144 1.01371 0
M  V30 4966 O 454.449 -2.43938 0.651968 0
M  V30 4967 C 455.762 -0.212216 2.9995 0
M  V30 4968 C 457.31 -0.286409 3.11687 0
M  V30 4969 C 457.785 -0.18147 4.5764 0
M  V30 4970 N 459.276 -0.239056 4.62583 0
M  V30 4971 C 460.011 -0.181351 5.73113 0
M  V30 4972 N 459.507 -0.073661 6.92761 0
M  V30 4973 N 461.3 -0.233949 5.61613 0
M  V30 4974 H 453.451 0.922657 1.91313 0
M  V30 4975 H 455.714 0.354595 0.879185 0
M  V30 4976 H 455.42 0.748169 3.4365 0
M  V30 4977 H 455.294 -0.990224 3.6397 0
M  V30 4978 H 457.681 -1.23724 2.67911 0
M  V30 4979 H 457.762 0.521645 2.50425 0
M  V30 4980 H 457.406 0.765863 5.02093 0
M  V30 4981 H 457.336 -1.00814 5.1686 0
M  V30 4982 H 459.827 -0.32321 3.76515 0
M  V30 4983 H 460.14 -0.0358003 7.72792 0
M  V30 4984 H 458.485 -0.0391461 6.94989 0
M  V30 4985 H 461.676 -0.316347 4.6703 0
M  V30 4986 H 461.849 -0.185514 6.47734 0
M  V30 4987 N 455.255 -1.55392 -0.262866 0
M  V30 4988 C 456.48 -1.80847 -1.01533 0
M  V30 4989 C 456.905 -0.584946 -1.78774 0
M  V30 4990 O 456.263 0.465701 -1.75217 0
M  V30 4991 C 456.311 -3.03866 -1.94159 0
M  V30 4992 O 455.415 -2.79662 -3.03089 0
M  V30 4993 H 454.756 -0.597441 -0.289759 0
M  V30 4994 H 457.286 -2.02553 -0.288698 0
M  V30 4995 H 457.296 -3.32872 -2.35924 0
M  V30 4996 H 455.971 -3.92564 -1.37354 0
M  V30 4997 H 454.548 -2.61781 -2.65566 0
M  V30 4998 N 456.733 0.527833 -1.48498 0
M  V30 4999 C 457.963 1.30633 -1.60058 0
M  V30 5000 C 458.371 1.87394 -0.260786 0
M  V30 5001 O 457.714 1.67227 0.760317 0
M  V30 5002 C 457.776 2.49361 -2.58958 0
M  V30 5003 C 457.44 2.13671 -4.03972 0
M  V30 5004 C 458.437 1.69217 -4.91591 0
M  V30 5005 C 456.122 2.24129 -4.49524 0
M  V30 5006 C 458.116 1.35689 -6.2279 0
M  V30 5007 C 455.803 1.90212 -5.80743 0
M  V30 5008 C 456.801 1.46063 -6.67199 0
M  V30 5009 O 456.489 1.12593 -7.95976 0
M  V30 5010 H 456.221 0.403444 -0.54241 0
M  V30 5011 H 458.775 0.643233 -1.95068 0
M  V30 5012 H 457.005 3.18659 -2.19073 0
M  V30 5013 H 458.694 3.11421 -2.6033 0
M  V30 5014 H 459.46 1.60607 -4.57636 0
M  V30 5015 H 455.339 2.57447 -3.82416 0
M  V30 5016 H 458.883 1.01157 -6.90227 0
M  V30 5017 H 454.78 1.98464 -6.14233 0
M  V30 5018 H 455.548 1.25972 -8.08748 0
M  V30 5019 N 458.211 1.37122 0.776871 0
M  V30 5020 C 459.457 1.32243 1.53752 0
M  V30 5021 C 459.79 -0.0944745 1.9397 0
M  V30 5022 O 459.065 -1.05068 1.6368 0
M  V30 5023 C 459.348 2.25681 2.80607 0
M  V30 5024 C 459.201 3.76127 2.46676 0
M  V30 5025 C 460.52 2.17657 3.82509 0
M  V30 5026 H 457.639 0.481704 0.557791 0
M  V30 5027 H 460.281 1.6778 0.891612 0
M  V30 5028 H 458.431 1.95505 3.35723 0
M  V30 5029 H 460.103 4.16877 1.97513 0
M  V30 5030 H 458.346 3.94946 1.79443 0
M  V30 5031 H 459.017 4.36933 3.37333 0
M  V30 5032 H 461.493 2.44245 3.36873 0
M  V30 5033 H 460.369 2.85185 4.69 0
M  V30 5034 H 460.63 1.16785 4.26396 0
M  V30 5035 N 459.689 -1.00246 1.21608 0
M  V30 5036 C 460.929 -1.75589 1.04631 0
M  V30 5037 C 461.293 -1.87513 -0.412648 0
M  V30 5038 O 462.494 -2.59444 -0.703003 0
M  V30 5039 C 460.765 -3.12893 1.72722 0
M  V30 5040 S 462.324 -4.04095 1.71034 0
M  V30 5041 H 459.142 -0.604133 0.374892 0
M  V30 5042 H 461.744 -1.19927 1.54395 0
M  V30 5043 H 460.448 -3.0185 2.78055 0
M  V30 5044 H 459.979 -3.73628 1.23149 0
M  V30 5045 H 461.994 -4.9045 0.753231 0
M  V30 5046 N 461.167 -1.02423 -1.1978 0
M  V30 5047 C 462.117 -0.571689 -2.20716 0
M  V30 5048 C 463.101 0.377077 -1.56419 0
M  V30 5049 O 464.293 0.198801 -1.7588 0
M  V30 5050 C 461.422 0.0808555 -3.43205 0
M  V30 5051 C 460.508 -0.890073 -4.14655 0
M  V30 5052 N 460.899 -2.05065 -4.62366 0
M  V30 5053 C 459.197 -0.71252 -4.40272 0
M  V30 5054 C 459.898 -2.66264 -5.17183 0
M  V30 5055 N 458.874 -1.94264 -5.07703 0
M  V30 5056 H 462.676 -1.45636 -2.55279 0
M  V30 5057 H 460.19 -0.890596 -1.35802 0
M  V30 5058 H 462.187 0.422654 -4.14752 0
M  V30 5059 H 460.847 0.961274 -3.10144 0
M  V30 5060 H 461.858 -2.43026 -4.57339 0
M  V30 5061 H 458.535 0.119199 -4.1733 0
M  V30 5062 H 459.925 -3.64526 -5.64421 0
M  V30 5063 N 462.645 1.35699 -0.801477 0
M  V30 5064 C 463.608 2.28199 -0.213994 0
M  V30 5065 C 464.608 1.49359 0.595691 0
M  V30 5066 O 465.798 1.69186 0.414921 0
M  V30 5067 C 462.93 3.33587 0.702297 0
M  V30 5068 H 464.123 2.81666 -1.02976 0
M  V30 5069 H 461.676 1.45467 -0.571759 0
M  V30 5070 H 462.411 2.85297 1.54195 0
M  V30 5071 H 462.196 3.91906 0.123484 0
M  V30 5072 H 463.686 4.02638 1.10783 0
M  V30 5073 N 464.123 0.554532 1.47522 0
M  V30 5074 C 465.539 0.214107 1.58157 0
M  V30 5075 C 465.739 -1.28331 1.55349 0
M  V30 5076 O 464.795 -2.06329 1.45549 0
M  V30 5077 C 466.108 0.838391 2.88776 0
M  V30 5078 C 467.656 0.809374 3.02354 0
M  V30 5079 C 468.131 1.41268 4.35669 0
M  V30 5080 N 469.622 1.37574 4.42298 0
M  V30 5081 C 470.357 1.8122 5.4401 0
M  V30 5082 N 469.853 2.3271 6.52547 0
M  V30 5083 N 471.646 1.72307 5.35039 0
M  V30 5084 H 463.797 1.52744 1.4759 0
M  V30 5085 H 466.06 0.636812 0.702264 0
M  V30 5086 H 465.766 1.89065 2.96559 0
M  V30 5087 H 465.64 0.329847 3.75755 0
M  V30 5088 H 468.027 -0.234187 2.94169 0
M  V30 5089 H 468.108 1.35565 2.16924 0
M  V30 5090 H 467.752 2.45529 4.4461 0
M  V30 5091 H 467.682 0.841871 5.19827 0
M  V30 5092 H 470.173 0.999081 3.64454 0
M  V30 5093 H 470.486 2.63944 7.26329 0
M  V30 5094 H 468.831 2.36719 6.53444 0
M  V30 5095 H 472.022 1.3186 4.49144 0
M  V30 5096 H 472.195 2.06641 6.14169 0
M  V30 5097 N 465.601 -1.54893 0.290851 0
M  V30 5098 C 466.826 -2.04804 -0.32712 0
M  V30 5099 C 467.251 -1.16721 -1.47506 0
M  V30 5100 O 466.609 -0.169107 -1.8051 0
M  V30 5101 C 466.657 -3.52268 -0.770689 0
M  V30 5102 O 465.761 -3.67236 -1.87647 0
M  V30 5103 H 465.102 -0.660789 -0.0652227 0
M  V30 5104 H 467.632 -2.00036 0.429739 0
M  V30 5105 H 467.642 -3.9393 -1.06223 0
M  V30 5106 H 466.317 -4.15843 0.069096 0
M  V30 5107 H 464.894 -3.37479 -1.58626 0
M  V30 5108 N 467.08 -0.0183926 -1.57589 0
M  V30 5109 C 468.043 0.951986 -2.08494 0
M  V30 5110 C 469.043 1.26092 -0.997874 0
M  V30 5111 O 470.233 1.20304 -1.25987 0
M  V30 5112 C 467.365 2.27165 -2.54182 0
M  V30 5113 H 468.558 0.511307 -2.95509 0
M  V30 5114 H 466.111 0.229444 -1.54607 0
M  V30 5115 H 466.846 2.75884 -1.70465 0
M  V30 5116 H 466.631 2.06057 -3.33591 0
M  V30 5117 H 468.121 2.9674 -2.93828 0
M  V30 5118 N 468.558 1.5553 0.254621 0
M  V30 5119 C 469.505 1.89666 1.31512 0
M  V30 5120 C 470.475 0.750057 1.482 0
M  V30 5121 O 471.66 1.00301 1.62309 0
M  V30 5122 C 468.8 2.19009 2.667 0
M  V30 5123 C 467.913 3.46435 2.58083 0
M  V30 5124 C 467.048 3.65386 3.85573 0
M  V30 5125 C 466.087 4.8644 3.71541 0
M  V30 5126 N 465.224 5.01952 4.90906 0
M  V30 5127 H 470.064 2.80109 1.017 0
M  V30 5128 H 467.601 1.38666 0.490938 0
M  V30 5129 H 469.559 2.34025 3.45381 0
M  V30 5130 H 468.189 1.31779 2.94676 0
M  V30 5131 H 467.241 3.39792 1.71013 0
M  V30 5132 H 468.553 4.35258 2.43622 0
M  V30 5133 H 467.707 3.80319 4.72697 0
M  V30 5134 H 466.446 2.74781 4.02922 0
M  V30 5135 H 465.451 4.71491 2.82801 0
M  V30 5136 H 466.676 5.78497 3.55694 0
M  V30 5137 H 464.622 4.14283 5.08631 0
M  V30 5138 H 464.539 5.84851 4.79046 0
M  V30 5139 H 465.807 5.21289 5.7955 0
M  V30 5140 N 470.036 -0.519951 1.48776 0
M  V30 5141 C 471.284 -1.2727 1.56993 0
M  V30 5142 C 471.605 -1.9339 0.25004 0
M  V30 5143 O 470.875 -1.81822 -0.729216 0
M  V30 5144 H 469.455 -0.472732 0.578389 0
M  V30 5145 H 472.117 -0.604234 1.85297 0
M  V30 5146 H 471.213 -2.04669 2.3562 0
M  V30 5147 N 471.514 -1.37532 -0.769588 0
M  V30 5148 C 472.424 -1.35668 -1.91393 0
M  V30 5149 C 473.44 -0.255954 -1.72107 0
M  V30 5150 O 474.616 -0.491704 -1.95305 0
M  V30 5151 C 471.681 -1.16481 -3.26547 0
M  V30 5152 C 470.742 -2.36212 -3.58472 0
M  V30 5153 C 469.975 -2.17932 -4.87177 0
M  V30 5154 O 470.198 -1.1647 -5.58382 0
M  V30 5155 O 469.132 -3.06167 -5.18214 0
M  V30 5156 H 472.958 -2.32055 -1.95918 0
M  V30 5157 H 470.543 -1.18284 -0.912641 0
M  V30 5158 H 472.425 -1.07778 -4.07384 0
M  V30 5159 H 471.1 -0.231687 -3.2287 0
M  V30 5160 H 470.007 -2.50488 -2.77861 0
M  V30 5161 H 471.34 -3.281 -3.66894 0
M  V30 5162 N 472.992 0.995999 -1.22138 0
M  V30 5163 C 474.238 1.73767 -1.04561 0
M  V30 5164 C 474.571 1.89633 0.418698 0
M  V30 5165 O 473.846 1.43723 1.3105 0
M  V30 5166 C 474.129 3.14505 -1.75382 0
M  V30 5167 C 473.982 3.06306 -3.29388 0
M  V30 5168 C 475.301 4.13615 -1.50369 0
M  V30 5169 H 472.42 0.630728 -0.38125 0
M  V30 5170 H 475.062 1.16057 -1.50435 0
M  V30 5171 H 473.212 3.63775 -1.36383 0
M  V30 5172 H 474.884 2.64681 -3.77812 0
M  V30 5173 H 473.127 2.43186 -3.59226 0
M  V30 5174 H 473.798 4.05884 -3.74116 0
M  V30 5175 H 476.274 3.73089 -1.84239 0
M  V30 5176 H 475.15 5.10212 -2.02421 0
M  V30 5177 H 475.411 4.39949 -0.435611 0
M  V30 5178 N 474.47 1.03057 1.19235 0
M  V30 5179 C 475.433 0.617418 2.20727 0
M  V30 5180 C 476.433 -0.319856 1.57587 0
M  V30 5181 O 477.623 -0.106633 1.73873 0
M  V30 5182 C 474.755 -0.096296 3.40764 0
M  V30 5183 H 475.948 1.51544 2.58794 0
M  V30 5184 H 473.501 0.821949 1.32942 0
M  V30 5185 H 474.236 -1.00859 3.08217 0
M  V30 5186 H 474.021 0.577217 3.87828 0
M  V30 5187 H 475.511 -0.372219 4.15938 0
M  V30 5188 N 475.948 -1.35272 0.808662 0
M  V30 5189 C 476.895 -2.29764 0.218482 0
M  V30 5190 C 477.865 -1.52911 -0.648652 0
M  V30 5191 O 479.05 -1.81341 -0.593297 0
M  V30 5192 C 476.19 -3.39388 -0.625282 0
M  V30 5193 C 475.303 -4.31202 0.262516 0
M  V30 5194 C 474.438 -5.27919 -0.589451 0
M  V30 5195 C 473.477 -6.11371 0.298617 0
M  V30 5196 N 472.614 -7.0022 -0.513443 0
M  V30 5197 H 477.454 -2.79645 1.02968 0
M  V30 5198 H 474.991 -1.37629 0.519303 0
M  V30 5199 H 476.949 -4.01615 -1.12966 0
M  V30 5200 H 475.579 -2.90777 -1.40173 0
M  V30 5201 H 474.631 -3.69962 0.885013 0
M  V30 5202 H 475.943 -4.89748 0.945971 0
M  V30 5203 H 475.097 -5.95529 -1.15888 0
M  V30 5204 H 473.836 -4.69875 -1.30647 0
M  V30 5205 H 472.841 -5.42707 0.880301 0
M  V30 5206 H 474.066 -6.71494 1.01352 0
M  V30 5207 H 472.012 -6.44662 -1.21439 0
M  V30 5208 H 471.929 -7.55917 0.111922 0
M  V30 5209 H 473.197 -7.72175 -1.06608 0
M  V30 5210 N 477.426 -0.562348 -1.47226 0
M  V30 5211 C 478.389 0.172056 -2.28553 0
M  V30 5212 C 479.389 0.837928 -1.37242 0
M  V30 5213 O 480.579 0.693001 -1.59822 0
M  V30 5214 C 477.711 1.25223 -3.17068 0
M  V30 5215 H 478.904 -0.542401 -2.94954 0
M  V30 5216 H 476.457 -0.319493 -1.53 0
M  V30 5217 H 477.192 1.99892 -2.55369 0
M  V30 5218 H 476.977 0.779515 -3.84273 0
M  V30 5219 H 478.467 1.76791 -3.78332 0
M  V30 5220 N 478.904 1.54736 -0.299062 0
M  V30 5221 C 479.867 2.22127 0.565012 0
M  V30 5222 C 480.867 1.20669 1.06281 0
M  V30 5223 O 482.057 1.45417 0.959145 0
M  V30 5224 C 479.189 2.90611 1.78208 0
M  V30 5225 H 480.382 2.99891 -0.0237448 0
M  V30 5226 H 477.935 1.5622 -0.0498788 0
M  V30 5227 H 478.67 2.16921 2.41072 0
M  V30 5228 H 478.455 3.64984 1.43281 0
M  V30 5229 H 479.945 3.42026 2.396 0
M  V30 5230 N 480.382 0.0267497 1.57577 0
M  V30 5231 C 481.329 -0.955894 2.10075 0
M  V30 5232 C 482.299 -1.32453 1.00226 0
M  V30 5233 O 483.484 -1.41826 1.27632 0
M  V30 5234 C 480.624 -2.2338 2.6305 0
M  V30 5235 C 479.737 -1.92183 3.86898 0
M  V30 5236 C 478.872 -3.14251 4.28275 0
M  V30 5237 C 477.911 -2.78862 5.44888 0
M  V30 5238 N 477.048 -3.93548 5.81433 0
M  V30 5239 H 481.888 -0.501303 2.93753 0
M  V30 5240 H 479.425 -0.235847 1.45197 0
M  V30 5241 H 481.383 -2.98124 2.91853 0
M  V30 5242 H 480.013 -2.6646 1.82205 0
M  V30 5243 H 479.065 -1.07692 3.64838 0
M  V30 5244 H 480.377 -1.62117 4.7172 0
M  V30 5245 H 479.531 -3.97317 4.58502 0
M  V30 5246 H 478.27 -3.47476 3.42215 0
M  V30 5247 H 477.275 -1.94208 5.14357 0
M  V30 5248 H 478.5 -2.46855 6.32645 0
M  V30 5249 H 476.446 -4.2662 4.98328 0
M  V30 5250 H 476.363 -3.67098 6.6089 0
M  V30 5251 H 477.631 -4.77325 6.16264 0
M  V30 5252 N 481.861 -1.55662 -0.24637 0
M  V30 5253 C 483.107 -1.77782 -0.975779 0
M  V30 5254 C 483.44 -0.592103 -1.84953 0
M  V30 5255 O 482.715 0.409588 -1.90138 0
M  V30 5256 C 482.998 -3.09788 -1.83584 0
M  V30 5257 C 482.851 -4.38764 -0.990241 0
M  V30 5258 C 484.17 -3.38029 -2.81823 0
M  V30 5259 H 481.289 -0.646789 -0.353317 0
M  V30 5260 H 483.931 -1.88398 -0.246248 0
M  V30 5261 H 482.081 -3.00869 -2.45784 0
M  V30 5262 H 483.753 -4.59675 -0.386897 0
M  V30 5263 H 481.996 -4.32798 -0.294626 0
M  V30 5264 H 482.667 -5.27514 -1.62584 0
M  V30 5265 H 485.143 -3.46915 -2.2976 0
M  V30 5266 H 484.019 -4.3161 -3.39122 0
M  V30 5267 H 484.28 -2.58968 -3.58313 0
M  V30 5268 N 483.339 0.512053 -1.4905 0
M  V30 5269 C 484.286 1.6148 -1.64902 0
M  V30 5270 C 485.256 1.58687 -0.490673 0
M  V30 5271 O 486.441 1.76842 -0.71636 0
M  V30 5272 C 483.581 2.99676 -1.71139 0
M  V30 5273 C 482.694 3.12568 -2.98203 0
M  V30 5274 C 481.829 4.4143 -2.95487 0
M  V30 5275 C 480.868 4.47916 -4.17179 0
M  V30 5276 N 480.005 5.68191 -4.12437 0
M  V30 5277 H 484.845 1.47271 -2.59066 0
M  V30 5278 H 482.382 0.716713 -1.28459 0
M  V30 5279 H 484.34 3.79761 -1.72736 0
M  V30 5280 H 482.97 3.12614 -0.804508 0
M  V30 5281 H 482.022 2.25618 -3.06269 0
M  V30 5282 H 483.334 3.1322 -3.88194 0
M  V30 5283 H 482.488 5.29825 -2.95585 0
M  V30 5284 H 481.227 4.43326 -2.03256 0
M  V30 5285 H 480.232 3.57925 -4.17337 0
M  V30 5286 H 481.457 4.47744 -5.1059 0
M  V30 5287 H 479.403 5.7095 -3.23036 0
M  V30 5288 H 479.32 5.70413 -4.96151 0
M  V30 5289 H 480.588 6.58823 -4.16621 0
M  V30 5290 N 484.817 1.37938 0.762283 0
M  V30 5291 C 485.749 1.30349 1.88525 0
M  V30 5292 C 486.762 0.217402 1.61342 0
M  V30 5293 O 487.951 0.474291 1.72084 0
M  V30 5294 C 485.051 0.994844 3.23969 0
M  V30 5295 C 484.224 2.18829 3.78725 0
M  V30 5296 C 483.283 1.84844 4.92665 0
M  V30 5297 O 482.309 2.57244 5.07754 0
M  V30 5298 N 483.511 0.798201 5.74986 0
M  V30 5299 H 486.276 2.27114 1.95549 0
M  V30 5300 H 483.837 1.31686 0.941825 0
M  V30 5301 H 485.829 0.748168 3.97724 0
M  V30 5302 H 484.399 0.115446 3.12387 0
M  V30 5303 H 483.619 2.59615 2.96637 0
M  V30 5304 H 484.907 2.98497 4.1204 0
M  V30 5305 H 484.305 0.197611 5.65355 0
M  V30 5306 H 482.862 0.611396 6.48926 0
M  V30 5307 N 486.295 -0.989507 1.22664 0
M  V30 5308 C 487.242 -2.08024 0.999733 0
M  V30 5309 C 488.212 -1.65909 -0.0797047 0
M  V30 5310 O 489.397 -1.90669 0.0705715 0
M  V30 5311 C 486.537 -3.40067 0.587234 0
M  V30 5312 C 485.65 -3.95505 1.73781 0
M  V30 5313 C 484.785 -5.15722 1.27297 0
M  V30 5314 C 483.824 -5.63305 2.39488 0
M  V30 5315 N 482.961 -6.74758 1.94026 0
M  V30 5316 H 487.801 -2.26768 1.9334 0
M  V30 5317 H 485.338 -1.11171 0.963297 0
M  V30 5318 H 487.296 -4.15899 0.329227 0
M  V30 5319 H 485.926 -3.21314 -0.309426 0
M  V30 5320 H 484.978 -3.16513 2.11006 0
M  V30 5321 H 486.29 -4.26797 2.58158 0
M  V30 5322 H 485.444 -5.98854 0.972546 0
M  V30 5323 H 484.183 -4.86061 0.399445 0
M  V30 5324 H 483.188 -4.78759 2.70315 0
M  V30 5325 H 484.413 -5.94988 3.27362 0
M  V30 5326 H 482.359 -6.46874 1.09041 0
M  V30 5327 H 482.276 -7.05386 2.71968 0
M  V30 5328 H 483.544 -7.61387 1.67062 0
M  V30 5329 N 487.773 -1.03688 -1.18687 0
M  V30 5330 C 489.019 -0.739123 -1.88851 0
M  V30 5331 C 489.352 0.731042 -1.79915 0
M  V30 5332 O 488.627 1.53313 -1.19688 0
M  V30 5333 C 488.91 -1.20106 -3.3948 0
M  V30 5334 C 488.763 -2.73304 -3.57246 0
M  V30 5335 C 490.082 -0.788134 -4.32986 0
M  V30 5336 H 487.201 -0.269978 -0.68577 0
M  V30 5337 H 489.843 -1.28822 -1.3966 0
M  V30 5338 H 487.993 -0.733915 -3.81505 0
M  V30 5339 H 489.665 -3.28027 -3.24339 0
M  V30 5340 H 487.908 -3.13313 -3.00029 0
M  V30 5341 H 488.579 -3.00684 -4.62918 0
M  V30 5342 H 491.055 -1.19005 -3.98719 0
M  V30 5343 H 489.931 -1.13915 -5.36949 0
M  V30 5344 H 490.192 0.308988 -4.41019 0
M  V30 5345 N 489.251 1.34841 -0.815825 0
M  V30 5346 C 490.662 1.80937 -0.46029 0
M  V30 5347 C 491.013 1.67685 1.01863 0
M  V30 5348 O 490.138 1.21277 1.79223 0
M  V30 5349 C 490.733 3.28509 -0.828708 0
M  V30 5350 C 489.292 3.72712 -0.525644 0
M  V30 5351 C 488.439 2.56676 -1.04941 0
M  V30 5352 H 491.39 1.22688 -1.00664 0
M  V30 5353 H 491.411 3.80279 -0.129757 0
M  V30 5354 H 490.923 3.38122 -1.90513 0
M  V30 5355 H 489.024 3.68642 0.541666 0
M  V30 5356 H 489.137 4.67119 -1.06474 0
M  V30 5357 H 487.501 2.50302 -0.471286 0
M  V30 5358 H 488.284 2.69063 -2.13214 0
M  V30 5359 N 490.729 0.570148 1.46925 0
M  V30 5360 C 491.692 -0.159933 2.28641 0
M  V30 5361 C 492.692 -0.830638 1.37685 0
M  V30 5362 O 493.882 -0.684516 1.60187 0
M  V30 5363 C 491.014 -1.2354 3.17727 0
M  V30 5364 H 492.207 0.558035 2.94662 0
M  V30 5365 H 489.76 0.327603 1.52828 0
M  V30 5366 H 490.495 -1.98535 2.56426 0
M  V30 5367 H 490.28 -0.759125 3.84681 0
M  V30 5368 H 491.77 -1.74782 3.79264 0
M  V30 5369 N 492.207 -1.54576 0.307264 0
M  V30 5370 C 493.618 -1.8579 -0.184121 0
M  V30 5371 C 493.969 -1.22914 -1.52927 0
M  V30 5372 O 493.094 -0.529126 -2.09831 0
M  V30 5373 C 493.689 -3.37081 -0.340862 0
M  V30 5374 C 492.248 -3.68304 -0.776465 0
M  V30 5375 C 491.395 -2.77076 0.111503 0
M  V30 5376 H 494.346 -1.49656 0.528078 0
M  V30 5377 H 494.367 -3.61922 -1.17443 0
M  V30 5378 H 493.879 -3.82815 0.638309 0
M  V30 5379 H 491.98 -3.28092 -1.76596 0
M  V30 5380 H 492.093 -4.75434 -0.591512 0
M  V30 5381 H 490.457 -2.51374 -0.410256 0
M  V30 5382 H 491.24 -3.25632 1.08714 0
M  V30 5383 N 493.685 -0.035106 -1.57561 0
M  V30 5384 C 495.101 0.321334 -1.56332 0
M  V30 5385 C 495.301 1.72509 -1.04129 0
M  V30 5386 O 494.357 2.4287 -0.690694 0
M  V30 5387 C 495.67 0.164469 -3.0025 0
M  V30 5388 C 497.218 0.236786 -3.12103 0
M  V30 5389 C 497.693 0.10864 -4.57871 0
M  V30 5390 N 499.184 0.165433 -4.62904 0
M  V30 5391 C 499.919 0.0901506 -5.73329 0
M  V30 5392 N 499.415 -0.0365606 -6.9279 0
M  V30 5393 N 501.208 0.144572 -5.61914 0
M  V30 5394 H 493.359 -0.952976 -1.89821 0
M  V30 5395 H 495.622 -0.368537 -0.873432 0
M  V30 5396 H 495.328 -0.802746 -3.42416 0
M  V30 5397 H 495.202 0.932194 -3.655 0
M  V30 5398 H 497.589 1.19446 -2.69845 0
M  V30 5399 H 497.67 -0.561419 -2.49563 0
M  V30 5400 H 497.314 -0.845644 -5.00811 0
M  V30 5401 H 497.244 0.925786 -5.18398 0
M  V30 5402 H 499.735 0.263269 -3.76982 0
M  V30 5403 H 500.048 -0.0871487 -7.72751 0
M  V30 5404 H 498.393 -0.0714256 -6.94963 0
M  V30 5405 H 501.584 0.242006 -4.67474 0
M  V30 5406 H 501.757 0.0824413 -6.47948 0
M  V30 5407 N 495.163 1.55791 0.238111 0
M  V30 5408 C 496.393 1.81834 0.980809 0
M  V30 5409 C 496.801 0.609741 1.79106 0
M  V30 5410 O 496.144 -0.431073 1.78571 0
M  V30 5411 C 496.206 3.01363 1.96011 0
M  V30 5412 C 495.87 4.37037 1.33597 0
M  V30 5413 C 496.867 5.14692 0.734063 0
M  V30 5414 C 494.552 4.83743 1.3527 0
M  V30 5415 C 496.546 6.37206 0.157208 0
M  V30 5416 C 494.233 6.06204 0.77199 0
M  V30 5417 C 495.231 6.82775 0.175282 0
M  V30 5418 O 494.919 8.02922 -0.396432 0
M  V30 5419 H 494.651 0.6088 0.293834 0
M  V30 5420 H 497.205 2.03702 0.263552 0
M  V30 5421 H 495.435 2.75273 2.71591 0
M  V30 5422 H 497.124 3.14422 2.56697 0
M  V30 5423 H 497.89 4.79722 0.713582 0
M  V30 5424 H 493.769 4.24129 1.80653 0
M  V30 5425 H 497.313 6.96915 -0.30917 0
M  V30 5426 H 493.21 6.4065 0.789828 0
M  V30 5427 H 493.978 8.17989 -0.289145 0
M  V30 5428 N 496.642 -0.504142 1.49319 0
M  V30 5429 C 497.87 -1.28256 1.62351 0
M  V30 5430 C 498.285 -1.86502 0.293682 0
M  V30 5431 O 497.642 -1.67678 -0.720449 0
M  V30 5432 C 497.693 -2.41507 2.68992 0
M  V30 5433 O 497.414 -1.85656 3.96817 0
M  V30 5434 C 498.915 -3.32929 2.927 0
M  V30 5435 H 496.135 -0.389115 0.546654 0
M  V30 5436 H 498.679 -0.605531 1.95329 0
M  V30 5437 H 496.834 -3.05046 2.38801 0
M  V30 5438 H 497.248 -2.59981 4.55533 0
M  V30 5439 H 498.722 -4.0868 3.71058 0
M  V30 5440 H 499.199 -3.89733 2.02496 0
M  V30 5441 H 499.805 -2.75158 3.24296 0
M  V30 5442 N 498.12 -1.38341 -0.754957 0
M  V30 5443 C 499.366 -1.34672 -1.51628 0
M  V30 5444 C 499.699 0.0636036 -1.94096 0
M  V30 5445 O 498.974 1.0245 -1.6533 0
M  V30 5446 C 499.257 -2.30116 -2.76981 0
M  V30 5447 C 499.11 -3.80003 -2.4066 0
M  V30 5448 C 500.429 -2.23715 -3.78998 0
M  V30 5449 H 497.548 -0.490517 -0.550056 0
M  V30 5450 H 500.19 -1.69178 -0.864807 0
M  V30 5451 H 498.34 -2.00821 -3.3257 0
M  V30 5452 H 500.012 -4.19966 -1.90856 0
M  V30 5453 H 498.255 -3.97751 -1.73137 0
M  V30 5454 H 498.926 -4.42244 -3.30339 0
M  V30 5455 H 501.402 -2.49574 -3.32945 0
M  V30 5456 H 500.278 -2.9261 -4.64403 0
M  V30 5457 H 500.539 -1.23554 -4.24484 0
M  V30 5458 N 499.598 0.982988 -1.23187 0
M  V30 5459 C 500.508 2.10907 -1.02739 0
M  V30 5460 C 501.524 1.73979 0.0273188 0
M  V30 5461 O 502.7 2.00702 -0.16757 0
M  V30 5462 C 499.765 3.41142 -0.618304 0
M  V30 5463 C 498.826 3.92112 -1.74777 0
M  V30 5464 C 498.059 5.16131 -1.3581 0
M  V30 5465 O 498.282 5.6989 -0.241201 0
M  V30 5466 O 497.216 5.61103 -2.17824 0
M  V30 5467 H 501.042 2.31046 -1.97108 0
M  V30 5468 H 498.627 1.09284 -1.01869 0
M  V30 5469 H 500.509 4.19488 -0.400982 0
M  V30 5470 H 499.184 3.2234 0.296421 0
M  V30 5471 H 498.091 3.14895 -2.0197 0
M  V30 5472 H 499.424 4.15364 -2.64071 0
M  V30 5473 N 501.076 1.04316 1.18135 0
M  V30 5474 C 502.023 0.636398 2.21853 0
M  V30 5475 C 502.993 -0.357039 1.62217 0
M  V30 5476 O 504.178 -0.250453 1.89149 0
M  V30 5477 C 501.318 0.00812779 3.45099 0
M  V30 5478 C 500.431 1.04933 4.19062 0
M  V30 5479 C 499.566 0.389313 5.29771 0
M  V30 5480 C 498.605 1.41544 5.9551 0
M  V30 5481 N 497.742 0.78021 6.97751 0
M  V30 5482 H 502.582 1.52536 2.56002 0
M  V30 5483 H 500.119 0.76304 1.25762 0
M  V30 5484 H 502.077 -0.373497 4.15525 0
M  V30 5485 H 500.707 -0.844336 3.11562 0
M  V30 5486 H 499.759 1.54888 3.47439 0
M  V30 5487 H 501.071 1.82862 4.64072 0
M  V30 5488 H 500.225 -0.0463805 6.06682 0
M  V30 5489 H 498.964 -0.422038 4.8587 0
M  V30 5490 H 497.969 1.86124 5.17337 0
M  V30 5491 H 499.194 2.22854 6.41493 0
M  V30 5492 H 497.14 -0.0107899 6.55999 0
M  V30 5493 H 497.057 1.49716 7.41027 0
M  V30 5494 H 498.325 0.368996 7.78626 0
M  V30 5495 N 502.554 -1.34406 0.822964 0
M  V30 5496 C 503.794 -2.00103 0.416915 0
M  V30 5497 C 504.158 -1.63826 -1.00125 0
M  V30 5498 O 505.359 -2.22367 -1.51018 0
M  V30 5499 C 503.63 -3.52101 0.613151 0
M  V30 5500 S 505.189 -4.37774 0.299956 0
M  V30 5501 H 502.007 -0.69333 0.157527 0
M  V30 5502 H 504.609 -1.63698 1.06879 0
M  V30 5503 H 503.313 -3.75991 1.64496 0
M  V30 5504 H 502.844 -3.93364 -0.0534554 0
M  V30 5505 H 504.859 -4.8822 -0.886336 0
M  V30 5506 N 504.032 -0.577932 -1.46621 0
M  V30 5507 C 504.979 0.158048 -2.30258 0
M  V30 5508 C 505.949 0.888669 -1.40328 0
M  V30 5509 O 507.134 0.880283 -1.6928 0
M  V30 5510 C 504.274 1.16884 -3.24703 0
M  V30 5511 C 503.387 0.442163 -4.29731 0
M  V30 5512 C 502.522 1.44007 -5.11308 0
M  V30 5513 C 501.561 0.69952 -6.0809 0
M  V30 5514 N 500.698 1.64525 -6.82551 0
M  V30 5515 H 505.538 -0.561242 -2.92667 0
M  V30 5516 H 503.075 -0.288591 -1.44241 0
M  V30 5517 H 505.033 1.7677 -3.779 0
M  V30 5518 H 503.663 1.85591 -2.64113 0
M  V30 5519 H 502.715 -0.271632 -3.79429 0
M  V30 5520 H 504.027 -0.136992 -4.98612 0
M  V30 5521 H 503.181 2.11186 -5.68758 0
M  V30 5522 H 501.92 2.05315 -4.42377 0
M  V30 5523 H 500.925 0.0139217 -5.49798 0
M  V30 5524 H 502.15 0.091894 -6.79038 0
M  V30 5525 H 500.096 2.24653 -6.16334 0
M  V30 5526 H 500.013 1.11878 -7.47676 0
M  V30 5527 H 501.281 2.30754 -7.44562 0
M  V30 5528 N 505.51 1.54411 -0.315457 0
M  V30 5529 C 506.42 2.27737 0.56329 0
M  V30 5530 C 507.436 1.31787 1.13614 0
M  V30 5531 O 508.612 1.64791 1.15784 0
M  V30 5532 C 505.677 3.01478 1.71207 0
M  V30 5533 C 504.738 4.12997 1.17185 0
M  V30 5534 C 503.971 4.83212 2.26588 0
M  V30 5535 O 504.194 4.52884 3.46775 0
M  V30 5536 O 503.128 5.70299 1.92463 0
M  V30 5537 H 506.954 3.03683 -0.0319614 0
M  V30 5538 H 504.539 1.49178 -0.0814188 0
M  V30 5539 H 506.421 3.47683 2.38106 0
M  V30 5540 H 505.096 2.28414 2.29366 0
M  V30 5541 H 504.003 3.71159 0.468174 0
M  V30 5542 H 505.336 4.8808 0.635501 0
M  V30 5543 N 506.988 0.0434614 1.5754 0
M  V30 5544 C 508.404 -0.313039 1.565 0
M  V30 5545 C 508.604 -1.71954 1.05043 0
M  V30 5546 O 507.66 -2.425 0.703564 0
M  V30 5547 C 508.973 -0.148544 3.00333 0
M  V30 5548 C 510.521 -0.220231 3.12224 0
M  V30 5549 C 510.996 -0.0843565 4.57922 0
M  V30 5550 N 512.487 -0.140881 4.62986 0
M  V30 5551 C 513.222 -0.0597443 5.73369 0
M  V30 5552 N 512.718 0.0733004 6.92761 0
M  V30 5553 N 514.511 -0.11477 5.61983 0
M  V30 5554 H 506.662 0.96303 1.89313 0
M  V30 5555 H 508.925 0.373164 0.871466 0
M  V30 5556 H 508.631 0.820894 3.41986 0
M  V30 5557 H 508.505 -0.912798 3.65989 0
M  V30 5558 H 510.892 -1.18014 2.70475 0
M  V30 5559 H 510.973 0.574646 2.49262 0
M  V30 5560 H 510.617 0.872192 5.00355 0
M  V30 5561 H 510.547 -0.898281 5.18882 0
M  V30 5562 H 513.038 -0.243273 3.77116 0
M  V30 5563 H 513.351 0.128128 7.72694 0
M  V30 5564 H 511.696 0.10828 6.94916 0
M  V30 5565 H 514.887 -0.217212 4.67596 0
M  V30 5566 H 515.06 -0.0480779 6.47982 0
M  V30 5567 N 508.466 -1.55915 -0.229846 0
M  V30 5568 C 509.376 -1.94891 -1.30593 0
M  V30 5569 C 510.392 -0.851604 -1.51736 0
M  V30 5570 O 511.568 -1.15447 -1.65027 0
M  V30 5571 C 508.633 -2.25052 -2.63728 0
M  V30 5572 C 507.694 -3.48306 -2.5096 0
M  V30 5573 C 506.927 -3.77019 -3.77747 0
M  V30 5574 O 507.15 -3.07534 -4.80395 0
M  V30 5575 O 506.084 -4.70523 -3.75356 0
M  V30 5576 H 509.91 -2.86581 -1.00525 0
M  V30 5577 H 507.495 -1.43017 -0.432025 0
M  V30 5578 H 509.377 -2.45682 -3.42372 0
M  V30 5579 H 508.052 -1.36538 -2.93495 0
M  V30 5580 H 506.959 -3.32964 -1.70546 0
M  V30 5581 H 508.292 -4.37177 -2.26136 0
M  V30 5582 N 509.944 0.496216 -1.49584 0
M  V30 5583 C 510.854 1.62352 -1.69349 0
M  V30 5584 C 511.87 1.64184 -0.576147 0
M  V30 5585 O 513.046 1.82517 -0.85144 0
M  V30 5586 C 510.111 2.98698 -1.76013 0
M  V30 5587 C 509.172 3.07454 -2.99617 0
M  V30 5588 C 508.405 4.37296 -3.05953 0
M  V30 5589 O 508.628 5.2637 -2.19752 0
M  V30 5590 O 507.562 4.51124 -3.9846 0
M  V30 5591 H 511.388 1.48606 -2.64859 0
M  V30 5592 H 508.973 0.673022 -1.33382 0
M  V30 5593 H 510.855 3.79725 -1.82721 0
M  V30 5594 H 509.53 3.12696 -0.836828 0
M  V30 5595 H 508.437 2.25597 -2.98424 0
M  V30 5596 H 509.77 2.98385 -3.91443 0
M  V30 5597 N 511.423 1.38739 0.74761 0
M  V30 5598 C 512.37 1.36449 1.86146 0
M  V30 5599 C 513.34 0.226098 1.64554 0
M  V30 5600 O 514.525 0.41926 1.86137 0
M  V30 5601 C 511.665 1.2013 3.23516 0
M  V30 5602 C 510.778 2.43407 3.56899 0
M  V30 5603 C 509.913 2.19773 4.83605 0
M  V30 5604 C 508.952 3.3879 5.09792 0
M  V30 5605 N 508.089 3.14553 6.27695 0
M  V30 5606 H 512.929 2.3167 1.87438 0
M  V30 5607 H 510.466 1.15094 0.916063 0
M  V30 5608 H 512.424 1.08683 4.02795 0
M  V30 5609 H 511.054 0.285453 3.21535 0
M  V30 5610 H 510.106 2.65504 2.72418 0
M  V30 5611 H 511.418 3.32094 3.72176 0
M  V30 5612 H 510.572 2.05496 5.70838 0
M  V30 5613 H 509.311 1.28461 4.70478 0
M  V30 5614 H 508.316 3.53579 4.21025 0
M  V30 5615 H 509.541 4.30986 5.24812 0
M  V30 5616 H 507.487 2.25893 6.1588 0
M  V30 5617 H 507.404 3.96791 6.435 0
M  V30 5618 H 508.672 3.03943 7.17801 0
M  V30 5619 N 512.901 -0.976442 1.23707 0
M  V30 5620 C 514.15 -1.71254 1.06559 0
M  V30 5621 C 514.463 -1.91528 -0.397024 0
M  V30 5622 O 515.669 -2.62625 -0.688518 0
M  V30 5623 C 514.125 -3.08207 1.8584 0
M  V30 5624 C 513.733 -2.95806 3.36456 0
M  V30 5625 C 515.477 -3.85749 1.77194 0
M  V30 5626 C 513.384 -4.28015 4.08114 0
M  V30 5627 H 512.314 -0.642171 0.395136 0
M  V30 5628 H 514.965 -1.08877 1.4771 0
M  V30 5629 H 513.347 -3.71363 1.37498 0
M  V30 5630 H 514.521 -2.41716 3.92314 0
M  V30 5631 H 512.836 -2.31736 3.45959 0
M  V30 5632 H 515.433 -4.83633 2.28041 0
M  V30 5633 H 515.776 -4.09752 0.735477 0
M  V30 5634 H 516.309 -3.29303 2.23169 0
M  V30 5635 H 513.048 -4.09208 5.12083 0
M  V30 5636 H 512.568 -4.81955 3.57043 0
M  V30 5637 H 514.247 -4.96681 4.14629 0
M  V30 5638 N 514.379 -1.04941 -1.1758 0
M  V30 5639 C 515.628 -0.753124 -1.87112 0
M  V30 5640 C 515.941 0.722507 -1.81767 0
M  V30 5641 O 517.147 1.13265 -2.46746 0
M  V30 5642 C 515.603 -1.29695 -3.35719 0
M  V30 5643 C 515.211 -2.80184 -3.49572 0
M  V30 5644 C 516.955 -1.07759 -4.10595 0
M  V30 5645 C 514.862 -3.2788 -4.92187 0
M  V30 5646 H 513.792 -0.278034 -0.700866 0
M  V30 5647 H 516.443 -1.26637 -1.32798 0
M  V30 5648 H 514.825 -0.711522 -3.89555 0
M  V30 5649 H 515.999 -3.44561 -3.05965 0
M  V30 5650 H 514.314 -3.00632 -2.88113 0
M  V30 5651 H 516.911 -1.40899 -5.15802 0
M  V30 5652 H 517.254 -0.0152302 -4.16297 0
M  V30 5653 H 517.787 -1.62809 -3.62957 0
M  V30 5654 H 514.526 -4.33535 -4.91658 0
M  V30 5655 H 514.046 -2.68245 -5.36475 0
M  V30 5656 H 515.725 -3.22412 -5.60945 0
M  V30 5657 N 515.857 1.33968 -0.830081 0
M  V30 5658 C 516.787 2.31911 -0.271911 0
M  V30 5659 C 517.768 1.58571 0.61556 0
M  V30 5660 O 518.953 1.86514 0.540946 0
M  V30 5661 C 516.083 3.42737 0.561146 0
M  V30 5662 C 515.037 4.27383 -0.229789 0
M  V30 5663 C 514.363 5.29742 0.726463 0
M  V30 5664 C 515.663 5.02 -1.44197 0
M  V30 5665 H 517.357 2.78844 -1.09025 0
M  V30 5666 H 514.903 1.34061 -0.52571 0
M  V30 5667 H 516.856 4.10276 0.961867 0
M  V30 5668 H 515.58 2.94471 1.41261 0
M  V30 5669 H 514.239 3.61456 -0.611964 0
M  V30 5670 H 513.887 4.77736 1.57408 0
M  V30 5671 H 513.587 5.87255 0.20142 0
M  V30 5672 H 515.111 6.00149 1.12489 0
M  V30 5673 H 516.525 5.62355 -1.11488 0
M  V30 5674 H 514.922 5.69122 -1.90317 0
M  V30 5675 H 515.992 4.31281 -2.2164 0
M  V30 5676 N 517.335 0.585699 1.46312 0
M  V30 5677 C 518.581 0.0725284 2.0267 0
M  V30 5678 C 518.914 -1.28523 1.45586 0
M  V30 5679 O 518.189 -1.84283 0.622101 0
M  V30 5680 C 518.472 0.0099788 3.60099 0
M  V30 5681 C 518.325 1.39685 4.27561 0
M  V30 5682 C 519.644 -0.689117 4.34671 0
M  V30 5683 H 516.763 0.0278307 0.736474 0
M  V30 5684 H 519.405 0.753472 1.74421 0
M  V30 5685 H 517.555 -0.56992 3.84297 0
M  V30 5686 H 519.227 2.02215 4.14617 0
M  V30 5687 H 517.47 1.96374 3.86807 0
M  V30 5688 H 518.141 1.30553 5.36339 0
M  V30 5689 H 520.617 -0.196446 4.15636 0
M  V30 5690 H 519.493 -0.701921 5.44393 0
M  V30 5691 H 519.754 -1.75101 4.05946 0
M  V30 5692 N 518.813 -1.54241 0.323641 0
M  V30 5693 C 520.038 -2.05452 -0.283605 0
M  V30 5694 C 520.463 -1.19823 -1.44997 0
M  V30 5695 O 519.821 -0.207358 -1.8011 0
M  V30 5696 C 519.869 -3.53823 -0.695795 0
M  V30 5697 O 518.973 -3.71134 -1.79815 0
M  V30 5698 H 518.314 -0.662024 -0.0511917 0
M  V30 5699 H 520.844 -1.99079 0.472073 0
M  V30 5700 H 520.854 -3.96094 -0.978434 0
M  V30 5701 H 519.529 -4.15602 0.157287 0
M  V30 5702 H 518.106 -3.40768 -1.51431 0
M  V30 5703 N 520.291 -0.0518155 -1.57515 0
M  V30 5704 C 521.516 0.634896 -1.97443 0
M  V30 5705 C 521.941 1.63546 -0.929207 0
M  V30 5706 O 521.299 1.80981 0.107484 0
M  V30 5707 C 521.347 1.29765 -3.36442 0
M  V30 5708 O 520.451 2.41333 -3.34413 0
M  V30 5709 H 519.792 0.164994 -0.643174 0
M  V30 5710 H 522.322 -0.120407 -2.04245 0
M  V30 5711 H 522.332 1.64918 -3.73184 0
M  V30 5712 H 521.007 0.564361 -4.12053 0
M  V30 5713 H 519.584 2.08122 -3.09418 0
M  V30 5714 N 521.769 1.56035 0.221574 0
M  V30 5715 C 522.732 1.91584 1.2581 0
M  V30 5716 C 523.732 0.794425 1.39805 0
M  V30 5717 O 524.922 1.06217 1.38071 0
M  V30 5718 C 522.054 2.16663 2.63192 0
M  V30 5719 H 523.247 2.8429 0.954935 0
M  V30 5720 H 520.8 1.49316 0.461988 0
M  V30 5721 H 521.535 1.26508 2.98607 0
M  V30 5722 H 521.32 2.98358 2.5441 0
M  V30 5723 H 522.81 2.45262 3.37988 0
M  V30 5724 N 523.247 -0.488276 1.49845 0
M  V30 5725 C 524.195 -1.60917 1.67954 0
M  V30 5726 C 525.189 -1.6038 0.54539 0
M  V30 5727 O 526.395 -1.64736 0.7254 0
M  V30 5728 H 522.77 -0.533658 0.529824 0
M  V30 5729 H 524.741 -1.428 2.62013 0
M  V30 5730 C 523.49 -2.98975 1.77509 0
M  V30 5731 H 522.813 -3.00099 2.6416 0
M  V30 5732 H 524.253 -3.76906 1.9421 0
M  V30 5733 C 522.712 -3.3282 0.522745 0
M  V30 5734 O 523.242 -4.00208 -0.345866 0
M  V30 5735 N 521.448 -2.8808 0.381882 0
M  V30 5736 H 520.995 -2.33415 1.08974 0
M  V30 5737 H 520.953 -3.11091 -0.454929 0
M  V30 5738 N 524.725 -1.39134 -0.740242 0
M  V30 5739 C 525.635 -1.39697 -1.88473 0
M  V30 5740 C 526.651 -0.292403 -1.71526 0
M  V30 5741 O 527.827 -0.533021 -1.94219 0
M  V30 5742 C 524.892 -1.23382 -3.24003 0
M  V30 5743 C 523.953 -2.43763 -3.53381 0
M  V30 5744 C 523.186 -2.28216 -4.82445 0
M  V30 5745 O 523.409 -1.28288 -5.55786 0
M  V30 5746 O 522.343 -3.1709 -5.11603 0
M  V30 5747 H 526.169 -2.36159 -1.90952 0
M  V30 5748 H 523.754 -1.20194 -0.887346 0
M  V30 5749 H 525.636 -1.16395 -4.05006 0
M  V30 5750 H 524.311 -0.300121 -3.22306 0
M  V30 5751 H 523.218 -2.56325 -2.72485 0
M  V30 5752 H 524.551 -3.35808 -3.59852 0
M  V30 5753 N 526.204 0.969867 -1.24223 0
M  V30 5754 C 527.453 1.70687 -1.07466 0
M  V30 5755 C 527.766 1.91736 0.386861 0
M  V30 5756 O 528.972 2.62986 0.674581 0
M  V30 5757 C 527.428 3.07217 -1.87472 0
M  V30 5758 C 527.036 2.94018 -3.3802 0
M  V30 5759 C 528.78 3.84804 -1.79237 0
M  V30 5760 C 526.687 4.25844 -4.10379 0
M  V30 5761 H 525.617 0.640067 -0.398536 0
M  V30 5762 H 528.268 1.08092 -1.48285 0
M  V30 5763 H 526.65 3.70628 -1.39466 0
M  V30 5764 H 527.824 2.39632 -3.9359 0
M  V30 5765 H 526.139 2.29898 -3.47183 0
M  V30 5766 H 528.736 4.82417 -2.30603 0
M  V30 5767 H 529.079 4.09356 -0.757197 0
M  V30 5768 H 529.612 3.28115 -2.24912 0
M  V30 5769 H 526.351 4.06486 -5.14246 0
M  V30 5770 H 525.871 4.80054 -3.59594 0
M  V30 5771 H 527.55 4.94475 -4.17257 0
M  V30 5772 N 527.682 1.05563 1.17022 0
M  V30 5773 C 528.959 0.68165 1.83338 0
M  V30 5774 C 529.339 -0.837665 1.93769 0
M  V30 5775 O 528.687 -1.74507 1.47511 0
M  V30 5776 C 528.897 1.375 3.20772 0
M  V30 5777 C 530.245 1.51545 3.96635 0
M  V30 5778 O 531.269 1.33431 3.30264 0
M  V30 5779 O 530.128 1.812 5.15586 0
M  V30 5780 H 527.222 0.240412 0.791285 0
M  V30 5781 H 529.768 1.15545 1.24288 0
M  V30 5782 H 528.54 2.41135 3.08171 0
M  V30 5783 H 528.163 0.890798 3.87493 0
M  V30 5784 N 529.16 -1.33526 0.837174 0
M  V30 5785 C 530.406 -1.9813 0.432704 0
M  V30 5786 C 530.739 -1.66168 -1.00508 0
M  V30 5787 O 530.014 -0.94069 -1.70239 0
M  V30 5788 C 530.297 -3.54151 0.651834 0
M  V30 5789 C 530.15 -3.95806 2.13676 0
M  V30 5790 C 531.469 -4.39993 0.0968937 0
M  V30 5791 H 528.588 -0.719713 0.15869 0
M  V30 5792 H 531.23 -1.58193 1.05237 0
M  V30 5793 H 529.38 -3.88301 0.124369 0
M  V30 5794 H 531.052 -3.71921 2.72896 0
M  V30 5795 H 529.295 -3.45599 2.62191 0
M  V30 5796 H 529.966 -5.0447 2.24084 0
M  V30 5797 H 532.442 -4.12479 0.547733 0
M  V30 5798 H 531.318 -5.48186 0.279917 0
M  V30 5799 H 531.579 -4.3066 -0.9992 0
M  V30 5800 N 530.638 -0.59345 -1.46 0
M  V30 5801 C 532.054 -0.255965 -1.57534 0
M  V30 5802 C 532.254 1.24167 -1.58697 0
M  V30 5803 O 531.31 2.02398 -1.50968 0
M  V30 5804 C 532.623 -0.91466 -2.86451 0
M  V30 5805 C 534.171 -0.889253 -3.00102 0
M  V30 5806 C 534.646 -1.52769 -4.3177 0
M  V30 5807 N 536.137 -1.49253 -4.38495 0
M  V30 5808 C 536.872 -1.9558 -5.39014 0
M  V30 5809 N 536.368 -2.49929 -6.46148 0
M  V30 5810 N 538.161 -1.86432 -5.30282 0
M  V30 5811 H 530.312 -1.56604 -1.43489 0
M  V30 5812 H 532.575 -0.655207 -0.685133 0
M  V30 5813 H 532.281 -1.96861 -2.91442 0
M  V30 5814 H 532.155 -0.429356 -3.74748 0
M  V30 5815 H 534.542 0.156111 -2.94687 0
M  V30 5816 H 534.623 -1.41268 -2.13253 0
M  V30 5817 H 534.267 -2.57231 -4.37944 0
M  V30 5818 H 534.197 -0.979398 -5.17412 0
M  V30 5819 H 536.688 -1.09536 -3.61677 0
M  V30 5820 H 537.001 -2.83109 -7.19075 0
M  V30 5821 H 535.346 -2.53961 -6.46938 0
M  V30 5822 H 538.537 -1.43722 -4.4549 0
M  V30 5823 H 538.71 -2.22852 -6.08474 0
M  V30 5824 N 532.116 1.54067 -0.331816 0
M  V30 5825 C 533.527 1.86059 0.15454 0
M  V30 5826 C 533.878 1.25331 1.50952 0
M  V30 5827 O 533.003 0.562441 2.08963 0
M  V30 5828 C 533.598 3.37581 0.287192 0
M  V30 5829 C 532.157 3.69493 0.717773 0
M  V30 5830 C 531.304 2.76863 -0.155569 0
M  V30 5831 H 534.255 1.48797 -0.55182 0
M  V30 5832 H 534.276 3.63744 1.11671 0
M  V30 5833 H 533.788 3.81751 -0.699131 0
M  V30 5834 H 531.889 3.3086 1.71354 0
M  V30 5835 H 532.002 4.76315 0.5158 0
M  V30 5836 H 530.366 2.51995 0.370213 0
M  V30 5837 H 531.149 3.23861 -1.13881 0
M  V30 5838 N 533.594 0.0601682 1.57485 0
M  V30 5839 C 534.834 -0.615384 1.94916 0
M  V30 5840 C 535.198 -1.67475 0.938948 0
M  V30 5841 O 536.399 -2.40502 1.20051 0
M  V30 5842 C 534.67 -1.18788 3.37082 0
M  V30 5843 S 536.229 -1.88018 3.96478 0
M  V30 5844 H 533.047 -0.201821 0.681754 0
M  V30 5845 H 535.649 0.131252 1.95059 0
M  V30 5846 H 534.353 -0.404869 4.08398 0
M  V30 5847 H 533.884 -1.97114 3.40455 0
M  V30 5848 H 535.899 -3.16161 3.82435 0
M  V30 5849 N 535.072 -1.5615 -0.213296 0
M  V30 5850 C 536.483 -1.69645 -0.779582 0
M  V30 5851 C 536.834 -0.663615 -1.84636 0
M  V30 5852 O 535.959 0.183633 -2.15619 0
M  V30 5853 C 536.554 -3.07567 -1.42084 0
M  V30 5854 C 535.113 -3.22889 -1.93442 0
M  V30 5855 C 534.26 -2.65581 -0.797612 0
M  V30 5856 H 537.211 -1.58696 0.0114951 0
M  V30 5857 H 537.232 -3.03884 -2.28986 0
M  V30 5858 H 536.744 -3.82716 -0.644187 0
M  V30 5859 H 534.845 -2.52623 -2.73884 0
M  V30 5860 H 534.958 -4.30197 -2.10872 0
M  V30 5861 H 533.322 -2.24278 -1.20712 0
M  V30 5862 H 534.105 -3.43284 -0.033494 0
M  V30 5863 N 536.55 0.480323 -1.50102 0
M  V30 5864 C 537.48 1.58769 -1.71215 0
M  V30 5865 C 538.461 1.60583 -0.560997 0
M  V30 5866 O 539.646 1.76996 -0.799127 0
M  V30 5867 C 536.776 2.97148 -1.79778 0
M  V30 5868 C 535.73 3.10201 -2.94888 0
M  V30 5869 C 535.056 4.50137 -2.88584 0
M  V30 5870 C 536.356 2.88283 -4.35534 0
M  V30 5871 H 538.05 1.41354 -2.6393 0
M  V30 5872 H 535.596 0.678591 -1.27008 0
M  V30 5873 H 537.549 3.74536 -1.93133 0
M  V30 5874 H 536.273 3.15699 -0.836772 0
M  V30 5875 H 534.932 2.35244 -2.81169 0
M  V30 5876 H 534.58 4.65593 -1.90349 0
M  V30 5877 H 534.28 4.59808 -3.65856 0
M  V30 5878 H 535.804 5.29558 -3.03976 0
M  V30 5879 H 537.218 3.55427 -4.49827 0
M  V30 5880 H 535.615 3.09408 -5.14186 0
M  V30 5881 H 536.685 1.84219 -4.48544 0
M  V30 5882 N 538.028 1.39524 0.732853 0
M  V30 5883 C 538.976 1.38563 1.86824 0
M  V30 5884 C 539.97 0.268467 1.67259 0
M  V30 5885 O 541.176 0.438613 1.74574 0
M  V30 5886 H 537.551 0.432737 0.615014 0
M  V30 5887 H 539.522 2.34328 1.84751 0
M  V30 5888 C 538.271 1.2481 3.24527 0
M  V30 5889 H 537.594 2.10044 3.40179 0
M  V30 5890 H 539.034 1.28194 4.04156 0
M  V30 5891 C 537.493 -0.0432825 3.36872 0
M  V30 5892 O 538.023 -1.01268 3.88726 0
M  V30 5893 N 536.229 -0.107055 2.90403 0
M  V30 5894 H 535.776 0.682512 2.48394 0
M  V30 5895 H 535.734 -0.970618 2.99042 0
M  V30 5896 N 539.506 -0.963266 1.24736 0
M  V30 5897 C 540.917 -1.52145 1.08207 0
M  V30 5898 C 541.268 -1.93142 -0.345061 0
M  V30 5899 O 540.393 -1.77769 -1.23399 0
M  V30 5900 C 540.988 -2.76486 1.95808 0
M  V30 5901 C 539.547 -3.28646 1.8349 0
M  V30 5902 C 538.694 -2.01529 1.90476 0
M  V30 5903 H 541.645 -0.781083 1.38148 0
M  V30 5904 H 541.666 -3.49986 1.49297 0
M  V30 5905 H 541.178 -2.46617 2.99669 0
M  V30 5906 H 539.279 -3.63357 0.824787 0
M  V30 5907 H 539.392 -3.97246 2.67829 0
M  V30 5908 H 537.756 -2.16442 1.34258 0
M  V30 5909 H 538.539 -1.7402 2.95926 0
M  V30 5910 N 540.985 -1.06182 -1.16461 0
M  V30 5911 C 541.933 -0.665716 -2.2287 0
M  V30 5912 C 542.927 0.317822 -1.66392 0
M  V30 5913 O 544.133 0.182807 -1.79069 0
M  V30 5914 H 540.508 -0.197148 -0.725697 0
M  V30 5915 H 542.479 -1.57307 -2.53569 0
M  V30 5916 C 541.228 -0.0669803 -3.47635 0
M  V30 5917 H 540.551 -0.814899 -3.91407 0
M  V30 5918 H 541.991 0.172669 -4.23648 0
M  V30 5919 C 540.45 1.18913 -3.15216 0
M  V30 5920 O 540.98 2.27723 -3.30916 0
M  V30 5921 N 539.186 1.09066 -2.69357 0
M  V30 5922 H 538.733 0.20518 -2.56782 0
M  V30 5923 H 538.691 1.93195 -2.48039 0
M  V30 5924 N 542.463 1.3308 -0.844243 0
M  V30 5925 C 543.373 2.32876 -0.283922 0
M  V30 5926 C 544.389 1.63589 0.592846 0
M  V30 5927 O 545.565 1.95205 0.495693 0
M  V30 5928 C 542.63 3.42667 0.527283 0
M  V30 5929 C 541.691 4.27664 -0.374394 0
M  V30 5930 C 540.924 5.32212 0.39819 0
M  V30 5931 O 541.147 5.46635 1.62932 0
M  V30 5932 O 540.081 6.01458 -0.2306 0
M  V30 5933 H 543.907 2.82671 -1.11045 0
M  V30 5934 H 541.492 1.36518 -0.606903 0
M  V30 5935 H 543.374 4.09652 0.988078 0
M  V30 5936 H 542.049 2.95079 1.33078 0
M  V30 5937 H 540.956 3.63526 -0.883144 0
M  V30 5938 H 542.289 4.78749 -1.1428 0
M  V30 5939 N 543.941 0.601185 1.45683 0
M  V30 5940 C 544.891 -0.142686 2.27553 0
M  V30 5941 C 545.875 -0.844598 1.3695 0
M  V30 5942 O 547.067 -0.735644 1.60988 0
M  V30 5943 C 544.196 -1.14364 3.23691 0
M  V30 5944 C 543.282 -0.442894 4.21781 0
M  V30 5945 N 543.673 0.51189 5.03203 0
M  V30 5946 C 541.971 -0.691277 4.4061 0
M  V30 5947 C 542.672 0.92318 5.74328 0
M  V30 5948 N 541.648 0.268308 5.42937 0
M  V30 5949 H 545.45 0.590736 2.87902 0
M  V30 5950 H 542.964 0.424365 1.56757 0
M  V30 5951 H 544.961 -1.6909 3.8107 0
M  V30 5952 H 543.621 -1.87768 2.64902 0
M  V30 5953 H 544.632 0.888329 5.10225 0
M  V30 5954 H 541.309 -1.41049 3.92952 0
M  V30 5955 H 542.699 1.71029 6.49768 0
M  V30 5956 N 545.419 -1.53889 0.339982 0
M  V30 5957 C 546.366 -2.24902 -0.518452 0
M  V30 5958 C 547.336 -1.24593 -1.09844 0
M  V30 5959 O 548.521 -1.53317 -1.13572 0
M  V30 5960 C 545.661 -3.02262 -1.66529 0
M  V30 5961 C 544.774 -4.17418 -1.11295 0
M  V30 5962 C 543.909 -4.82273 -2.2268 0
M  V30 5963 C 542.948 -5.89503 -1.6478 0
M  V30 5964 N 542.085 -6.48153 -2.69893 0
M  V30 5965 H 546.925 -2.97853 0.0936579 0
M  V30 5966 H 544.462 -1.46986 0.0579924 0
M  V30 5967 H 546.42 -3.45371 -2.3404 0
M  V30 5968 H 545.05 -2.31614 -2.24844 0
M  V30 5969 H 544.102 -3.78976 -0.328886 0
M  V30 5970 H 545.414 -4.94554 -0.649414 0
M  V30 5971 H 544.568 -5.28435 -2.98063 0
M  V30 5972 H 543.307 -4.04552 -2.72376 0
M  V30 5973 H 542.312 -5.42728 -0.879004 0
M  V30 5974 H 543.537 -6.6913 -1.1594 0
M  V30 5975 H 541.483 -5.73298 -3.1885 0
M  V30 5976 H 541.4 -7.20752 -2.28151 0
M  V30 5977 H 542.668 -6.98968 -3.45056 0
M  V30 5978 N 546.897 -0.0685191 -1.57451 0
M  V30 5979 C 548.145 0.60016 -1.92983 0
M  V30 5980 C 548.466 1.70348 -0.949028 0
M  V30 5981 O 547.736 1.959 0.00335647 0
M  V30 5982 H 546.316 0.224682 -0.712409 0
M  V30 5983 H 548.978 -0.125605 -1.94495 0
M  V30 5984 H 548.074 1.02759 -2.94698 0
M  V30 5985 N 548.375 1.56261 0.205012 0
M  V30 5986 C 549.603 1.84141 0.943386 0
M  V30 5987 C 550.018 0.649772 1.77266 0
M  V30 5988 O 549.375 -0.381612 1.78466 0
M  V30 5989 C 549.426 3.10719 1.84759 0
M  V30 5990 O 549.147 4.25286 1.05181 0
M  V30 5991 C 550.648 3.51706 2.69848 0
M  V30 5992 H 547.868 0.611734 0.275721 0
M  V30 5993 H 550.412 2.03364 0.215253 0
M  V30 5994 H 548.567 2.93422 2.52947 0
M  V30 5995 H 548.981 4.97301 1.66709 0
M  V30 5996 H 550.455 4.43266 3.28967 0
M  V30 5997 H 550.932 2.7423 3.43067 0
M  V30 5998 H 551.538 3.71499 2.07047 0
M  V30 5999 N 549.853 -0.472356 1.50355 0
M  V30 6000 C 551.102 -1.2213 1.60522 0
M  V30 6001 C 551.415 -1.9312 0.310466 0
M  V30 6002 O 552.621 -2.69936 0.291029 0
M  V30 6003 C 551.077 -2.21909 2.83345 0
M  V30 6004 C 550.685 -1.56727 4.19691 0
M  V30 6005 C 552.429 -2.97453 3.02856 0
M  V30 6006 C 550.336 -2.54785 5.33703 0
M  V30 6007 H 549.266 -0.459543 0.597776 0
M  V30 6008 H 551.917 -0.491922 1.76783 0
M  V30 6009 H 550.299 -2.98133 2.60639 0
M  V30 6010 H 551.473 -0.863007 4.52646 0
M  V30 6011 H 549.788 -0.934685 4.05774 0
M  V30 6012 H 552.385 -3.70838 3.85205 0
M  V30 6013 H 552.728 -3.56764 2.14534 0
M  V30 6014 H 553.261 -2.28342 3.25737 0
M  V30 6015 H 550 -2.00214 6.24175 0
M  V30 6016 H 549.52 -3.23367 5.05167 0
M  V30 6017 H 551.199 -3.16639 5.64224 0
M  V30 6018 N 551.331 -1.39911 -0.725443 0
M  V30 6019 C 552.559 -1.40949 -1.51463 0
M  V30 6020 C 552.974 -0.0065242 -1.88799 0
M  V30 6021 O 552.331 0.967163 -1.54765 0
M  V30 6022 C 552.382 -2.29119 -2.79619 0
M  V30 6023 O 552.103 -3.63952 -2.43866 0
M  V30 6024 C 553.604 -2.38642 -3.73584 0
M  V30 6025 H 550.824 -0.481091 -0.467752 0
M  V30 6026 H 553.368 -1.83843 -0.895651 0
M  V30 6027 H 551.523 -1.89612 -3.37826 0
M  V30 6028 H 551.937 -4.10677 -3.26258 0
M  V30 6029 H 553.411 -3.04563 -4.60375 0
M  V30 6030 H 553.888 -1.40846 -4.16004 0
M  V30 6031 H 554.494 -2.78659 -3.21293 0
M  V30 6032 N 552.809 0.956637 -1.25245 0
M  V30 6033 C 554.055 1.70413 -1.11044 0
M  V30 6034 C 554.41 1.89275 0.345377 0
M  V30 6035 O 553.703 1.45116 1.25107 0
M  V30 6036 C 553.897 3.08996 -1.79601 0
M  V30 6037 C 553.726 3.03654 -3.317 0
M  V30 6038 C 552.496 3.07521 -4.00947 0
M  V30 6039 C 554.694 2.84975 -4.28128 0
M  V30 6040 N 552.676 2.92316 -5.39838 0
M  V30 6041 C 554.047 2.7818 -5.5409 0
M  V30 6042 C 556.102 2.6964 -4.18568 0
M  V30 6043 C 554.805 2.57616 -6.71585 0
M  V30 6044 C 556.831 2.50447 -5.35752 0
M  V30 6045 C 556.193 2.4437 -6.60653 0
M  V30 6046 H 552.292 0.631642 -0.461035 0
M  V30 6047 H 554.876 1.13331 -1.58317 0
M  V30 6048 H 553.047 3.64248 -1.34826 0
M  V30 6049 H 554.779 3.72515 -1.58161 0
M  V30 6050 H 551.534 3.16635 -3.52192 0
M  V30 6051 H 551.958 2.87923 -6.12723 0
M  V30 6052 H 556.6 2.73113 -3.22752 0
M  V30 6053 H 554.318 2.52885 -7.67512 0
M  V30 6054 H 557.904 2.39509 -5.30214 0
M  V30 6055 H 556.784 2.29712 -7.49801 0
M  V30 6056 N 554.287 1.06798 1.15896 0
M  V30 6057 C 555.517 0.807522 1.90165 0
M  V30 6058 C 555.925 -0.642417 1.7796 0
M  V30 6059 O 555.268 -1.45193 1.12537 0
M  V30 6060 C 555.33 1.12939 3.41299 0
M  V30 6061 C 554.994 2.57879 3.7729 0
M  V30 6062 C 555.991 3.56118 3.78782 0
M  V30 6063 C 553.676 2.93311 4.07767 0
M  V30 6064 C 555.67 4.87827 4.10248 0
M  V30 6065 C 553.357 4.25219 4.38899 0
M  V30 6066 C 554.355 5.22287 4.4012 0
M  V30 6067 O 554.043 6.51826 4.70508 0
M  V30 6068 H 553.775 0.291946 0.609708 0
M  V30 6069 H 556.329 1.42627 1.47806 0
M  V30 6070 H 554.559 0.45359 3.84031 0
M  V30 6071 H 556.248 0.852363 3.9685 0
M  V30 6072 H 557.014 3.30086 3.55342 0
M  V30 6073 H 552.893 2.18409 4.05979 0
M  V30 6074 H 556.437 5.63586 4.11116 0
M  V30 6075 H 552.334 4.51006 4.61805 0
M  V30 6076 H 553.102 6.56893 4.88298 0
M  V30 6077 N 555.766 -1.3263 0.851289 0
M  V30 6078 C 556.713 -2.28952 0.291469 0
M  V30 6079 C 557.683 -1.54897 -0.599676 0
M  V30 6080 O 558.868 -1.83137 -0.535305 0
M  V30 6081 C 556.008 -3.41206 -0.516992 0
M  V30 6082 C 555.121 -4.30148 0.399566 0
M  V30 6083 C 554.256 -5.29527 -0.4212 0
M  V30 6084 C 553.295 -6.10112 0.492969 0
M  V30 6085 N 552.432 -7.01499 -0.290414 0
M  V30 6086 H 557.272 -2.76228 1.11813 0
M  V30 6087 H 554.809 -1.35907 0.562826 0
M  V30 6088 H 556.767 -4.05005 -1.00132 0
M  V30 6089 H 555.397 -2.9509 -1.30851 0
M  V30 6090 H 554.449 -3.66959 1.00227 0
M  V30 6091 H 555.761 -4.8649 1.1013 0
M  V30 6092 H 554.915 -5.98914 -0.968832 0
M  V30 6093 H 553.654 -4.73794 -1.15632 0
M  V30 6094 H 552.659 -5.39632 1.05251 0
M  V30 6095 H 553.884 -6.6793 1.22664 0
M  V30 6096 H 551.83 -6.48199 -1.00868 0
M  V30 6097 H 551.747 -7.55178 0.352354 0
M  V30 6098 H 553.015 -7.75176 -0.819882 0
M  V30 6099 N 557.244 -0.608902 -1.45362 0
M  V30 6100 C 558.521 -0.0365378 -1.95566 0
M  V30 6101 C 558.901 1.43169 -1.55131 0
M  V30 6102 O 558.249 2.1349 -0.814513 0
M  V30 6103 C 558.459 -0.236026 -3.48201 0
M  V30 6104 C 559.807 -0.117518 -4.24437 0
M  V30 6105 O 560.831 -0.166217 -3.55812 0
M  V30 6106 O 559.69 -0.00372127 -5.465 0
M  V30 6107 H 556.784 0.0349874 -0.82626 0
M  V30 6108 H 559.33 -0.679055 -1.55521 0
M  V30 6109 H 558.102 -1.25569 -3.70605 0
M  V30 6110 H 557.725 0.441691 -3.95139 0
M  V30 6111 N 558.722 1.53707 -0.348139 0
M  V30 6112 C 559.999 1.93247 0.302475 0
M  V30 6113 C 560.379 1.28012 1.67857 0
M  V30 6114 O 559.727 0.43274 2.24365 0
M  V30 6115 C 559.937 3.47031 0.370159 0
M  V30 6116 C 561.285 4.20066 0.61882 0
M  V30 6117 O 562.309 3.53319 0.452087 0
M  V30 6118 O 561.168 5.38318 0.94215 0
M  V30 6119 H 558.262 0.807736 0.177458 0
M  V30 6120 H 560.808 1.64927 -0.399651 0
M  V30 6121 H 559.58 3.86745 -0.59534 0
M  V30 6122 H 559.203 3.81532 1.11888 0
M  V30 6123 N 560.2 0.0768682 1.57412 0
M  V30 6124 C 561.425 -0.603404 1.98428 0
M  V30 6125 C 561.85 -1.62047 0.955108 0
M  V30 6126 O 561.208 -1.81129 -0.0786778 0
M  V30 6127 C 561.256 -1.24396 3.38464 0
M  V30 6128 O 560.36 -2.35982 3.3821 0
M  V30 6129 H 559.701 -0.154741 0.645718 0
M  V30 6130 H 562.231 0.152885 2.04028 0
M  V30 6131 H 562.241 -1.5896 3.7576 0
M  V30 6132 H 560.916 -0.498735 4.12899 0
M  V30 6133 H 559.493 -2.03173 3.1269 0
M  V30 6134 N 561.678 -1.56367 -0.196722 0
M  V30 6135 C 562.625 -1.94417 -1.24382 0
M  V30 6136 C 563.595 -0.804543 -1.45315 0
M  V30 6137 O 564.78 -1.06256 -1.58475 0
M  V30 6138 C 561.92 -2.28757 -2.58388 0
M  V30 6139 C 561.033 -3.55775 -2.45047 0
M  V30 6140 C 560.168 -3.79445 -3.71746 0
M  V30 6141 C 559.207 -4.99894 -3.53231 0
M  V30 6142 N 558.344 -5.19826 -4.71938 0
M  V30 6143 H 563.184 -2.83691 -0.912338 0
M  V30 6144 H 560.721 -1.40392 -0.439135 0
M  V30 6145 H 562.679 -2.46682 -3.36457 0
M  V30 6146 H 561.309 -1.42625 -2.89582 0
M  V30 6147 H 560.361 -3.45905 -1.58284 0
M  V30 6148 H 561.673 -4.44 -2.27299 0
M  V30 6149 H 560.827 -3.97601 -4.58256 0
M  V30 6150 H 559.566 -2.89546 -3.92446 0
M  V30 6151 H 558.571 -4.81662 -2.65107 0
M  V30 6152 H 559.796 -5.913 -3.33978 0
M  V30 6153 H 557.742 -4.32875 -4.92905 0
M  V30 6154 H 557.659 -6.02228 -4.57009 0
M  V30 6155 H 558.927 -5.42439 -5.59803 0
M  V30 6156 N 563.156 0.464375 -1.50603 0
M  V30 6157 C 564.384 1.23907 -1.65695 0
M  V30 6158 C 564.799 1.85658 -0.343027 0
M  V30 6159 O 564.156 1.69529 0.675739 0
M  V30 6160 C 564.207 2.3429 -2.75301 0
M  V30 6161 O 563.928 1.7507 -4.01599 0
M  V30 6162 C 565.429 3.25051 -3.01424 0
M  V30 6163 H 562.649 0.374485 -0.556778 0
M  V30 6164 H 565.193 0.55353 -1.96866 0
M  V30 6165 H 563.348 2.98607 -2.46804 0
M  V30 6166 H 563.762 2.47812 -4.62266 0
M  V30 6167 H 565.236 3.98699 -3.81763 0
M  V30 6168 H 565.713 3.84227 -2.12758 0
M  V30 6169 H 566.319 2.66463 -3.31477 0
M  V30 6170 N 564.634 1.40294 0.718013 0
M  V30 6171 C 566.045 1.34289 1.29705 0
M  V30 6172 C 566.396 0.0152228 1.96194 0
M  V30 6173 O 565.521 -0.88682 1.97394 0
M  V30 6174 C 566.116 2.43219 2.3586 0
M  V30 6175 C 564.675 2.40682 2.89394 0
M  V30 6176 C 563.822 2.24223 1.63154 0
M  V30 6177 H 566.773 1.50135 0.514312 0
M  V30 6178 H 566.794 2.10986 3.16647 0
M  V30 6179 H 566.306 3.39836 1.87439 0
M  V30 6180 H 564.407 1.47756 3.42051 0
M  V30 6181 H 564.52 3.36177 3.41353 0
M  V30 6182 H 562.884 1.71696 1.88129 0
M  V30 6183 H 563.667 3.22834 1.16761 0
M  V30 6184 N 566.112 -0.949982 1.2575 0
M  V30 6185 C 567.358 -1.69766 1.10938 0
M  V30 6186 C 567.691 -1.91056 -0.348028 0
M  V30 6187 O 566.966 -1.48488 -1.25625 0
M  V30 6188 C 567.249 -3.07779 1.86933 0
M  V30 6189 C 567.102 -2.9387 3.4053 0
M  V30 6190 C 568.421 -4.07749 1.65616 0
M  V30 6191 H 565.54 -0.616144 0.404396 0
M  V30 6192 H 568.182 -1.10394 1.54639 0
M  V30 6193 H 566.332 -3.58462 1.4979 0
M  V30 6194 H 568.004 -2.50476 3.87375 0
M  V30 6195 H 566.247 -2.29686 3.68004 0
M  V30 6196 H 566.918 -3.91719 3.88922 0
M  V30 6197 H 569.394 -3.65994 1.97959 0
M  V30 6198 H 568.27 -5.02348 2.21218 0
M  V30 6199 H 568.531 -4.38029 0.598595 0
M  V30 6200 N 567.59 -1.07411 -1.15328 0
M  V30 6201 C 568.815 -0.818856 -1.90551 0
M  V30 6202 C 569.24 0.622194 -1.77512 0
M  V30 6203 O 568.598 1.43484 -1.10824 0
M  V30 6204 C 568.646 -1.23267 -3.38877 0
M  V30 6205 O 567.75 -0.378345 -4.10661 0
M  V30 6206 H 567.091 -0.29827 -0.593238 0
M  V30 6207 H 569.621 -1.43289 -1.46046 0
M  V30 6208 H 569.631 -1.20912 -3.89672 0
M  V30 6209 H 568.306 -2.28226 -3.47686 0
M  V30 6210 H 566.883 -0.464437 -3.69996 0
M  V30 6211 N 569.068 1.32177 -0.85831 0
M  V30 6212 C 570.296 2.01313 -0.477582 0
M  V30 6213 C 570.711 1.6449 0.926736 0
M  V30 6214 O 570.068 0.868096 1.60531 0
M  V30 6215 C 570.119 3.56293 -0.611337 0
M  V30 6216 O 569.84 3.91794 -1.96034 0
M  V30 6217 C 571.341 4.42702 -0.230093 0
M  V30 6218 H 568.561 0.644323 -0.187322 0
M  V30 6219 H 571.105 1.68674 -1.15626 0
M  V30 6220 H 569.26 3.87395 0.0196494 0
M  V30 6221 H 569.674 4.86513 -1.95973 0
M  V30 6222 H 571.148 5.50727 -0.374674 0
M  V30 6223 H 571.625 4.3129 0.829779 0
M  V30 6224 H 572.231 4.16997 -0.836302 0
M  V30 6225 N 570.547 0.616602 1.45037 0
M  V30 6226 C 571.457 -0.0985401 2.34393 0
M  V30 6227 C 572.473 -0.850971 1.51771 0
M  V30 6228 O 573.649 -0.806521 1.84546 0
M  V30 6229 C 570.714 -1.07748 3.29532 0
M  V30 6230 C 569.775 -0.326022 4.2806 0
M  V30 6231 C 569.008 -1.25833 5.18654 0
M  V30 6232 O 569.231 -2.49652 5.12864 0
M  V30 6233 O 568.165 -0.750512 5.97203 0
M  V30 6234 H 571.991 0.636016 2.96966 0
M  V30 6235 H 569.576 0.376832 1.44569 0
M  V30 6236 H 571.458 -1.64107 3.88133 0
M  V30 6237 H 570.133 -1.79291 2.69512 0
M  V30 6238 H 569.04 0.280253 3.73049 0
M  V30 6239 H 570.373 0.349091 4.9096 0
M  V30 6240 N 572.025 -1.5352 0.356285 0
M  V30 6241 C 572.957 -2.23009 -0.529127 0
M  V30 6242 C 573.97 -1.241 -1.05371 0
M  V30 6243 O 575.159 -1.50379 -0.961679 0
M  V30 6244 C 572.259 -2.90685 -1.74229 0
M  V30 6245 C 571.432 -4.16019 -1.35081 0
M  V30 6246 C 570.491 -4.66989 -2.42502 0
M  V30 6247 O 569.517 -5.30895 -2.05279 0
M  V30 6248 N 570.719 -4.44006 -3.7395 0
M  V30 6249 H 573.484 -2.99627 0.0660501 0
M  V30 6250 H 571.045 -1.60885 0.181014 0
M  V30 6251 H 573.037 -3.21695 -2.4555 0
M  V30 6252 H 571.607 -2.17575 -2.24454 0
M  V30 6253 H 570.827 -3.91414 -0.467833 0
M  V30 6254 H 572.115 -4.9752 -1.06542 0
M  V30 6255 H 571.513 -3.92924 -4.06973 0
M  V30 6256 H 570.07 -4.7959 -4.41403 0
M  V30 6257 N 573.503 -0.0852151 -1.57369 0
M  V30 6258 C 574.466 0.8627 -2.12344 0
M  V30 6259 C 575.466 1.21746 -1.05046 0
M  V30 6260 O 576.656 1.14852 -1.30976 0
M  V30 6261 C 573.788 2.1618 -2.63589 0
M  V30 6262 H 574.981 0.385511 -2.97412 0
M  V30 6263 H 572.534 0.163663 -1.55441 0
M  V30 6264 H 573.269 2.68406 -1.82013 0
M  V30 6265 H 573.054 1.91723 -3.4203 0
M  V30 6266 H 574.544 2.84011 -3.06149 0
M  V30 6267 N 574.981 1.5647 0.188427 0
M  V30 6268 C 576.206 1.85486 0.927891 0
M  V30 6269 C 576.631 0.669575 1.75779 0
M  V30 6270 O 575.989 -0.381573 1.77239 0
M  V30 6271 C 576.037 3.12784 1.7944 0
M  V30 6272 O 575.141 2.93805 2.894 0
M  V30 6273 H 574.482 0.610585 0.260925 0
M  V30 6274 H 577.012 2.037 0.191729 0
M  V30 6275 H 577.022 3.43749 2.19774 0
M  V30 6276 H 575.697 3.98671 1.18468 0
M  V30 6277 H 574.274 2.74153 2.52774 0
M  V30 6278 N 576.459 -0.456382 1.50847 0
M  V30 6279 C 577.875 -0.791345 1.386 0
M  V30 6280 C 578.075 -1.9633 0.453498 0
M  V30 6281 O 577.131 -2.52308 -0.0984353 0
M  V30 6282 C 578.444 -1.08959 2.80265 0
M  V30 6283 C 579.992 -1.19517 2.89283 0
M  V30 6284 C 580.467 -1.52647 4.31814 0
M  V30 6285 N 581.958 -1.59609 4.34832 0
M  V30 6286 C 582.693 -1.86777 5.42127 0
M  V30 6287 N 582.189 -2.11866 6.59609 0
M  V30 6288 N 583.982 -1.88402 5.29586 0
M  V30 6289 H 576.133 0.315746 2.1004 0
M  V30 6290 H 578.396 0.0787916 0.94472 0
M  V30 6291 H 578.102 -0.301355 3.50407 0
M  V30 6292 H 577.976 -2.02211 3.18419 0
M  V30 6293 H 580.363 -1.97406 2.19351 0
M  V30 6294 H 580.444 -0.242111 2.54652 0
M  V30 6295 H 580.088 -0.752922 5.02288 0
M  V30 6296 H 580.018 -2.49127 4.63943 0
M  V30 6297 H 582.509 -1.42201 3.50125 0
M  V30 6298 H 582.822 -2.31912 7.37182 0
M  V30 6299 H 581.167 -2.09228 6.62758 0
M  V30 6300 H 584.358 -1.68307 4.36795 0
M  V30 6301 H 584.531 -2.09238 6.13289 0
M  V30 6302 N 577.937 -1.40673 -0.710563 0
M  V30 6303 C 579.186 -1.38525 -1.46607 0
M  V30 6304 C 579.499 0.0077024 -1.95598 0
M  V30 6305 O 580.705 0.151792 -2.71075 0
M  V30 6306 C 579.161 -2.43489 -2.6503 0
M  V30 6307 C 578.769 -3.88619 -2.22888 0
M  V30 6308 C 580.513 -2.50456 -3.42742 0
M  V30 6309 C 578.42 -4.85168 -3.3818 0
M  V30 6310 H 577.35 -0.515092 -0.550632 0
M  V30 6311 H 580.001 -1.66431 -0.772846 0
M  V30 6312 H 578.383 -2.0869 -3.36548 0
M  V30 6313 H 579.557 -4.32588 -1.58758 0
M  V30 6314 H 577.872 -3.85174 -1.58208 0
M  V30 6315 H 580.469 -3.19776 -4.28541 0
M  V30 6316 H 580.812 -1.53665 -3.86902 0
M  V30 6317 H 581.345 -2.84271 -2.78271 0
M  V30 6318 H 578.084 -5.8331 -2.99047 0
M  V30 6319 H 577.604 -4.4586 -4.01209 0
M  V30 6320 H 579.283 -5.05225 -4.04174 0
M  V30 6321 N 579.415 0.9433 -1.26252 0
M  V30 6322 C 580.365 2.02746 -1.04297 0
M  V30 6323 C 581.349 1.60882 0.0239435 0
M  V30 6324 O 582.541 1.75947 -0.192757 0
M  V30 6325 C 579.67 3.36585 -0.6757 0
M  V30 6326 C 578.756 3.84939 -1.77996 0
M  V30 6327 N 579.147 4.05966 -3.01704 0
M  V30 6328 C 577.445 4.13833 -1.66308 0
M  V30 6329 C 578.146 4.45987 -3.73458 0
M  V30 6330 N 577.122 4.52569 -3.01135 0
M  V30 6331 H 580.924 2.17012 -1.98199 0
M  V30 6332 H 578.438 1.12898 -1.16738 0
M  V30 6333 H 580.435 4.13896 -0.499571 0
M  V30 6334 H 579.095 3.2369 0.255863 0
M  V30 6335 H 580.106 3.92716 -3.37631 0
M  V30 6336 H 576.783 4.09739 -0.801267 0
M  V30 6337 H 578.173 4.70465 -4.79701 0
M  V30 6338 N 580.893 1.08022 1.14757 0
M  V30 6339 C 581.825 0.664566 2.19354 0
M  V30 6340 C 582.838 -0.286374 1.60261 0
M  V30 6341 O 584.027 -0.0746362 1.78344 0
M  V30 6342 C 581.127 -0.0434634 3.38872 0
M  V30 6343 C 580.3 0.925381 4.27499 0
M  V30 6344 C 579.359 0.253398 5.2559 0
M  V30 6345 O 578.385 0.896581 5.62094 0
M  V30 6346 N 579.587 -0.998263 5.71852 0
M  V30 6347 H 582.352 1.56438 2.55631 0
M  V30 6348 H 579.913 0.965788 1.29939 0
M  V30 6349 H 581.905 -0.503857 4.01551 0
M  V30 6350 H 580.475 -0.845321 3.00954 0
M  V30 6351 H 579.695 1.56472 3.61815 0
M  V30 6352 H 580.983 1.58203 4.8358 0
M  V30 6353 H 580.381 -1.54063 5.44317 0
M  V30 6354 H 578.938 -1.40222 6.36538 0
M  V30 6355 N 582.371 -1.3172 0.865308 0
M  V30 6356 C 583.321 -2.26157 0.289305 0
M  V30 6357 C 584.305 -1.50428 -0.570977 0
M  V30 6358 O 585.497 -1.71978 -0.418617 0
M  V30 6359 C 582.626 -3.39457 -0.512237 0
M  V30 6360 C 581.712 -4.22561 0.361028 0
M  V30 6361 N 582.103 -4.84501 1.45231 0
M  V30 6362 C 580.401 -4.45739 0.152641 0
M  V30 6363 C 581.102 -5.46586 1.99043 0
M  V30 6364 N 580.078 -5.28119 1.28809 0
M  V30 6365 H 583.88 -2.71581 1.12344 0
M  V30 6366 H 581.394 -1.45932 0.712565 0
M  V30 6367 H 583.391 -4.06133 -0.941379 0
M  V30 6368 H 582.051 -2.95577 -1.34404 0
M  V30 6369 H 583.062 -4.84293 1.83524 0
M  V30 6370 H 579.739 -4.1251 -0.643583 0
M  V30 6371 H 581.129 -6.05817 2.90577 0
M  V30 6372 N 583.85 -0.624285 -1.44708 0
M  V30 6373 C 584.797 0.0847135 -2.30644 0
M  V30 6374 C 585.767 0.843575 -1.43084 0
M  V30 6375 O 586.952 0.825982 -1.71995 0
M  V30 6376 C 584.091 1.06495 -3.28257 0
M  V30 6377 C 583.205 0.305224 -4.3092 0
M  V30 6378 C 582.34 1.27667 -5.1563 0
M  V30 6379 C 581.379 0.505706 -6.10007 0
M  V30 6380 N 580.516 1.42727 -6.8744 0
M  V30 6381 H 585.356 -0.654068 -2.90733 0
M  V30 6382 H 582.893 -0.334334 -1.4325 0
M  V30 6383 H 584.851 1.64658 -3.83332 0
M  V30 6384 H 583.481 1.77094 -2.69884 0
M  V30 6385 H 582.533 -0.392207 -3.78373 0
M  V30 6386 H 583.845 -0.295553 -4.97924 0
M  V30 6387 H 582.999 1.92984 -5.75189 0
M  V30 6388 H 581.738 1.91137 -4.48685 0
M  V30 6389 H 580.743 -0.160999 -5.49564 0
M  V30 6390 H 581.968 -0.124183 -6.78986 0
M  V30 6391 H 579.913 2.04931 -6.23169 0
M  V30 6392 H 579.831 0.880345 -7.50857 0
M  V30 6393 H 581.099 2.0695 -7.51526 0
M  V30 6394 N 585.328 1.53329 -0.364422 0
M  V30 6395 C 586.238 2.29414 0.490552 0
M  V30 6396 C 587.254 1.35335 1.09363 0
M  V30 6397 O 588.43 1.68391 1.10483 0
M  V30 6398 C 585.495 3.06772 1.61529 0
M  V30 6399 C 584.556 4.16516 1.03986 0
M  V30 6400 C 583.789 4.90176 2.111 0
M  V30 6401 O 584.012 4.63687 3.32191 0
M  V30 6402 O 582.946 5.76134 1.74222 0
M  V30 6403 H 586.772 3.03428 -0.12856 0
M  V30 6404 H 584.357 1.48843 -0.128837 0
M  V30 6405 H 586.239 3.55082 2.26924 0
M  V30 6406 H 584.914 2.35596 2.21983 0
M  V30 6407 H 583.821 3.7246 0.349856 0
M  V30 6408 H 585.154 4.89855 0.4799 0
M  V30 6409 N 586.806 0.0935595 1.57322 0
M  V30 6410 C 587.753 -0.865935 2.1394 0
M  V30 6411 C 588.723 -1.28083 1.05754 0
M  V30 6412 O 589.908 -1.36285 1.33533 0
M  V30 6413 C 587.048 -2.12023 2.72287 0
M  V30 6414 C 586.161 -1.756 3.94701 0
M  V30 6415 C 585.296 -2.95804 4.41218 0
M  V30 6416 C 584.335 -2.555 5.56225 0
M  V30 6417 N 583.472 -3.68534 5.97601 0
M  V30 6418 H 588.312 -0.376261 2.95615 0
M  V30 6419 H 585.849 -0.174052 1.46067 0
M  V30 6420 H 587.807 -2.85477 3.04235 0
M  V30 6421 H 586.437 -2.58492 1.93343 0
M  V30 6422 H 585.489 -0.921208 3.69077 0
M  V30 6423 H 586.801 -1.41964 4.78171 0
M  V30 6424 H 585.955 -3.77513 4.74941 0
M  V30 6425 H 584.694 -3.32649 3.56645 0
M  V30 6426 H 583.699 -1.72218 5.22131 0
M  V30 6427 H 584.924 -2.19801 6.42545 0
M  V30 6428 H 582.87 -4.051 5.15974 0
M  V30 6429 H 582.787 -3.38737 6.75865 0
M  V30 6430 H 584.055 -4.50757 6.35955 0
M  V30 6431 N 588.284 -1.56567 -0.180126 0
M  V30 6432 C 589.214 -1.98753 -1.22553 0
M  V30 6433 C 590.195 -0.86175 -1.46656 0
M  V30 6434 O 591.38 -1.12719 -1.58139 0
M  V30 6435 C 588.51 -2.33988 -2.56645 0
M  V30 6436 C 587.464 -3.49445 -2.47128 0
M  V30 6437 C 586.79 -3.70397 -3.8563 0
M  V30 6438 C 588.09 -4.83171 -1.98352 0
M  V30 6439 H 589.784 -2.86332 -0.874896 0
M  V30 6440 H 587.33 -1.37757 -0.419414 0
M  V30 6441 H 589.283 -2.62097 -3.29974 0
M  V30 6442 H 588.007 -1.43309 -2.93479 0
M  V30 6443 H 586.666 -3.2145 -1.76254 0
M  V30 6444 H 586.314 -2.77023 -4.19842 0
M  V30 6445 H 586.014 -4.48077 -3.80132 0
M  V30 6446 H 587.538 -4.00897 -4.60558 0
M  V30 6447 H 588.952 -5.10213 -2.61449 0
M  V30 6448 H 587.349 -5.64425 -2.03823 0
M  V30 6449 H 588.419 -4.75753 -0.937402 0
M  V30 6450 N 589.762 0.448376 -1.51087 0
M  V30 6451 C 591.008 1.19748 -1.64414 0
M  V30 6452 C 591.363 1.89177 -0.350715 0
M  V30 6453 O 590.656 1.80135 0.652834 0
M  V30 6454 C 590.85 2.24866 -2.77795 0
M  V30 6455 C 590.679 1.65753 -4.18038 0
M  V30 6456 C 589.449 1.44728 -4.8413 0
M  V30 6457 C 591.647 1.13985 -5.0151 0
M  V30 6458 N 589.629 0.810962 -6.0852 0
M  V30 6459 C 591 0.628141 -6.1681 0
M  V30 6460 C 593.055 1.03055 -4.87118 0
M  V30 6461 C 591.758 0.0178906 -7.19298 0
M  V30 6462 C 593.784 0.434212 -5.89804 0
M  V30 6463 C 593.146 -0.0670069 -7.04368 0
M  V30 6464 H 589.245 0.426254 -0.655615 0
M  V30 6465 H 591.829 0.495806 -1.88281 0
M  V30 6466 H 590 2.92434 -2.55611 0
M  V30 6467 H 591.732 2.91857 -2.8036 0
M  V30 6468 H 588.487 1.70593 -4.41809 0
M  V30 6469 H 588.911 0.510563 -6.75072 0
M  V30 6470 H 593.553 1.40395 -3.9881 0
M  V30 6471 H 591.271 -0.367662 -8.07263 0
M  V30 6472 H 594.857 0.3517 -5.80736 0
M  V30 6473 H 593.737 -0.521209 -7.82466 0
M  V30 6474 N 591.24 1.41047 0.703093 0
M  V30 6475 C 592.487 1.4 1.46309 0
M  V30 6476 C 592.815 0.00654574 1.94499 0
M  V30 6477 O 592.07 -0.980255 1.6938 0
M  V30 6478 C 592.369 2.34686 2.6955 0
M  V30 6479 C 592.035 3.81684 2.40058 0
M  V30 6480 C 590.697 4.21731 2.31725 0
M  V30 6481 C 593.049 4.74525 2.15581 0
M  V30 6482 C 590.377 5.52637 1.97001 0
M  V30 6483 C 592.729 6.05744 1.82366 0
M  V30 6484 C 591.393 6.44819 1.72524 0
M  V30 6485 H 590.663 0.512295 0.535382 0
M  V30 6486 H 593.31 1.73792 0.804275 0
M  V30 6487 H 591.615 1.94122 3.40329 0
M  V30 6488 H 593.312 2.31152 3.27673 0
M  V30 6489 H 589.902 3.49963 2.47435 0
M  V30 6490 H 594.086 4.44395 2.20968 0
M  V30 6491 H 589.342 5.81802 1.87928 0
M  V30 6492 H 593.516 6.77189 1.62444 0
M  V30 6493 H 591.143 7.46168 1.45385 0
M  V30 6494 N 592.718 -0.936591 1.26751 0
M  V30 6495 C 593.964 -1.6858 1.12733 0
M  V30 6496 C 594.297 -1.91414 -0.327745 0
M  V30 6497 O 593.572 -1.49812 -1.24043 0
M  V30 6498 C 593.855 -3.05779 1.90187 0
M  V30 6499 C 593.708 -2.90242 3.43627 0
M  V30 6500 C 595.027 -4.0597 1.69931 0
M  V30 6501 H 592.146 -0.61182 0.410908 0
M  V30 6502 H 594.788 -1.08747 1.55801 0
M  V30 6503 H 592.938 -3.56853 1.53584 0
M  V30 6504 H 594.61 -2.46354 3.9001 0
M  V30 6505 H 592.853 -2.2577 3.70419 0
M  V30 6506 H 593.524 -3.87572 3.93055 0
M  V30 6507 H 596 -3.63874 2.0183 0
M  V30 6508 H 594.876 -4.99974 2.26534 0
M  V30 6509 H 595.137 -4.37369 0.64502 0
M  V30 6510 N 594.196 -1.08629 -1.14182 0
M  V30 6511 C 595.607 -0.838003 -1.66836 0
M  V30 6512 C 595.958 0.634885 -1.85644 0
M  V30 6513 O 595.083 1.49008 -1.56926 0
M  V30 6514 C 595.678 -1.51465 -3.03058 0
M  V30 6515 C 594.237 -1.31355 -3.52736 0
M  V30 6516 C 593.384 -1.57599 -2.28162 0
M  V30 6517 H 596.335 -1.24656 -0.982165 0
M  V30 6518 H 596.356 -0.943134 -3.68626 0
M  V30 6519 H 595.868 -2.58661 -2.89337 0
M  V30 6520 H 593.969 -0.262384 -3.71675 0
M  V30 6521 H 594.082 -2.04275 -4.33369 0
M  V30 6522 H 592.446 -0.997659 -2.34348 0
M  V30 6523 H 593.229 -2.66006 -2.17015 0
M  V30 6524 N 595.674 1.31259 -0.872281 0
M  V30 6525 C 596.637 2.26744 -0.334656 0
M  V30 6526 C 597.637 1.52307 0.515681 0
M  V30 6527 O 598.827 1.71148 0.324656 0
M  V30 6528 C 595.959 3.36841 0.524482 0
M  V30 6529 H 597.152 2.75812 -1.17762 0
M  V30 6530 H 594.705 1.42232 -0.648064 0
M  V30 6531 H 595.44 2.93069 1.38855 0
M  V30 6532 H 595.225 3.92009 -0.0844299 0
M  V30 6533 H 596.715 4.07944 0.892838 0
M  V30 6534 N 597.152 0.631951 1.44375 0
M  V30 6535 C 598.099 -0.0724807 2.30686 0
M  V30 6536 C 599.069 -0.835975 1.43529 0
M  V30 6537 O 600.254 -0.816849 1.7243 0
M  V30 6538 C 597.394 -1.04753 3.28817 0
M  V30 6539 C 596.507 -0.282367 4.31076 0
M  V30 6540 C 595.642 -1.2493 5.163 0
M  V30 6541 C 594.681 -0.473349 6.10267 0
M  V30 6542 N 593.818 -1.39079 6.88187 0
M  V30 6543 H 598.658 0.669477 2.90383 0
M  V30 6544 H 596.195 0.341927 1.43071 0
M  V30 6545 H 598.153 -1.62623 3.842 0
M  V30 6546 H 596.783 -1.75661 2.70819 0
M  V30 6547 H 595.835 0.412268 3.78159 0
M  V30 6548 H 597.147 0.321955 4.9776 0
M  V30 6549 H 596.301 -1.89931 5.76204 0
M  V30 6550 H 595.04 -1.88755 4.49692 0
M  V30 6551 H 594.045 0.190142 5.49471 0
M  V30 6552 H 595.27 0.16019 6.78911 0
M  V30 6553 H 593.216 -2.01623 6.24247 0
M  V30 6554 H 593.133 -0.840513 7.51313 0
M  V30 6555 H 594.401 -2.02961 7.52613 0
M  V30 6556 N 598.631 -1.53133 0.372548 0
M  V30 6557 C 599.877 -2.01654 -0.215277 0
M  V30 6558 C 600.21 -1.25914 -1.47849 0
M  V30 6559 O 599.485 -0.3548 -1.91237 0
M  V30 6560 C 599.768 -3.56609 -0.500187 0
M  V30 6561 C 599.621 -4.43036 0.777145 0
M  V30 6562 C 600.94 -4.20528 -1.29786 0
M  V30 6563 H 598.059 -0.732991 -0.0767686 0
M  V30 6564 H 600.701 -1.83335 0.498814 0
M  V30 6565 H 598.851 -3.7235 -1.10852 0
M  V30 6566 H 600.523 -4.39079 1.41447 0
M  V30 6567 H 598.766 -4.10723 1.39604 0
M  V30 6568 H 599.437 -5.49424 0.532662 0
M  V30 6569 H 601.913 -4.08663 -0.783198 0
M  V30 6570 H 600.789 -5.28962 -1.46596 0
M  V30 6571 H 601.05 -3.77051 -2.30836 0
M  V30 6572 N 600.109 -0.101901 -1.5727 0
M  V30 6573 C 601.019 0.868647 -2.17926 0
M  V30 6574 C 602.035 1.30527 -1.1506 0
M  V30 6575 O 603.211 1.37178 -1.47459 0
M  V30 6576 C 600.276 2.10727 -2.75309 0
M  V30 6577 C 599.337 1.7242 -3.93154 0
M  V30 6578 C 598.57 2.90377 -4.47791 0
M  V30 6579 O 598.793 4.05305 -4.01353 0
M  V30 6580 O 597.727 2.6845 -5.38719 0
M  V30 6581 H 601.553 0.382544 -3.01281 0
M  V30 6582 H 599.138 0.122812 -1.48894 0
M  V30 6583 H 601.02 2.83303 -3.11958 0
M  V30 6584 H 599.695 2.58376 -1.94996 0
M  V30 6585 H 598.602 0.970039 -3.61305 0
M  V30 6586 H 599.935 1.29528 -4.74851 0
M  V30 6587 N 601.587 1.56661 0.17182 0
M  V30 6588 C 602.864 1.72838 0.915778 0
M  V30 6589 C 603.244 0.66316 2.00413 0
M  V30 6590 O 602.592 -0.322123 2.26218 0
M  V30 6591 C 602.802 3.16019 1.48097 0
M  V30 6592 C 604.15 3.76962 1.95408 0
M  V30 6593 O 605.174 3.19294 1.57892 0
M  V30 6594 O 604.033 4.78219 2.64516 0
M  V30 6595 H 601.127 0.705797 0.431021 0
M  V30 6596 H 603.673 1.68947 0.159689 0
M  V30 6597 H 602.445 3.85031 0.697618 0
M  V30 6598 H 602.068 3.24234 2.30126 0
M  V30 6599 N 603.065 -0.440357 1.51323 0
M  V30 6600 C 604.29 -1.21716 1.67928 0
M  V30 6601 C 604.715 -1.84328 0.374826 0
M  V30 6602 O 604.073 -1.68675 -0.664706 0
M  V30 6603 C 604.121 -2.27914 2.79442 0
M  V30 6604 O 603.225 -3.33325 2.42834 0
M  V30 6605 H 602.566 -0.35674 0.560029 0
M  V30 6606 H 605.096 -0.520417 1.97871 0
M  V30 6607 H 605.106 -2.72746 3.03436 0
M  V30 6608 H 603.781 -1.8172 3.741 0
M  V30 6609 H 602.358 -2.9399 2.294 0
M  V30 6610 N 604.543 -1.41418 -0.695603 0
M  V30 6611 C 605.791 -1.40496 -1.45277 0
M  V30 6612 C 606.112 -0.0149538 -1.94994 0
M  V30 6613 O 605.382 0.9432 -1.71699 0
M  V30 6614 H 603.962 -0.517147 -0.539044 0
M  V30 6615 H 606.624 -1.76656 -0.823321 0
M  V30 6616 H 605.72 -2.09214 -2.31595 0
M  V30 6617 N 606.021 0.929856 -1.27246 0
M  V30 6618 C 606.971 2.01629 -1.06442 0
M  V30 6619 C 607.955 1.60899 0.00687842 0
M  V30 6620 O 609.147 1.75733 -0.211407 0
M  V30 6621 C 606.276 3.35849 -0.711361 0
M  V30 6622 C 605.362 3.8303 -1.82069 0
M  V30 6623 N 605.753 4.02743 -3.05993 0
M  V30 6624 C 604.051 4.12046 -1.70687 0
M  V30 6625 C 604.752 4.42001 -3.78167 0
M  V30 6626 N 603.728 4.4935 -3.05918 0
M  V30 6627 H 607.53 2.14898 -2.00489 0
M  V30 6628 H 605.044 1.11654 -1.17929 0
M  V30 6629 H 607.041 4.13343 -0.543442 0
M  V30 6630 H 605.701 3.23944 0.221517 0
M  V30 6631 H 606.712 3.89112 -3.41778 0
M  V30 6632 H 603.389 4.08866 -0.844681 0
M  V30 6633 H 604.779 4.6535 -4.84664 0
M  V30 6634 N 607.499 1.09233 1.13605 0
M  V30 6635 C 608.729 0.847677 1.88409 0
M  V30 6636 C 609.137 -0.604524 1.79282 0
M  V30 6637 O 608.48 -1.42773 1.15592 0
M  V30 6638 C 608.542 1.20153 3.38827 0
M  V30 6639 C 608.206 2.65824 3.71735 0
M  V30 6640 C 609.203 3.64072 3.71143 0
M  V30 6641 C 606.888 3.01894 4.01454 0
M  V30 6642 C 608.882 4.96419 3.99808 0
M  V30 6643 C 606.569 4.34433 4.29781 0
M  V30 6644 C 607.567 5.31505 4.28942 0
M  V30 6645 O 607.255 6.61659 4.56576 0
M  V30 6646 H 606.987 0.304813 0.603378 0
M  V30 6647 H 609.541 1.4573 1.44748 0
M  V30 6648 H 607.771 0.534946 3.82982 0
M  V30 6649 H 609.46 0.936349 3.94952 0
M  V30 6650 H 610.226 3.37549 3.4826 0
M  V30 6651 H 606.105 2.26971 4.01255 0
M  V30 6652 H 609.649 5.7218 3.99069 0
M  V30 6653 H 605.546 4.607 4.52135 0
M  V30 6654 H 606.314 6.67102 4.74254 0
M  V30 6655 N 608.977 -1.30795 0.87923 0
M  V30 6656 C 610.207 -2.00237 0.50881 0
M  V30 6657 C 610.615 -1.66115 -0.905682 0
M  V30 6658 O 609.958 -0.89138 -1.60624 0
M  V30 6659 C 610.02 -3.54508 0.597003 0
M  V30 6660 C 609.684 -4.12131 1.97477 0
M  V30 6661 C 610.681 -4.28552 2.94346 0
M  V30 6662 C 608.366 -4.47644 2.2786 0
M  V30 6663 C 610.36 -4.79689 4.19735 0
M  V30 6664 C 608.047 -4.98481 3.53496 0
M  V30 6665 C 609.045 -5.14456 4.49248 0
M  V30 6666 O 608.733 -5.64199 5.72656 0
M  V30 6667 H 608.465 -0.647026 0.195788 0
M  V30 6668 H 611.019 -1.67785 1.1848 0
M  V30 6669 H 609.249 -3.86461 -0.135945 0
M  V30 6670 H 610.938 -4.05198 0.238684 0
M  V30 6671 H 611.704 -4.01424 2.72183 0
M  V30 6672 H 607.583 -4.34481 1.54102 0
M  V30 6673 H 611.127 -4.92073 4.9448 0
M  V30 6674 H 607.024 -5.25044 3.75498 0
M  V30 6675 H 607.792 -5.82551 5.74957 0
M  V30 6676 N 610.455 -0.639598 -1.44038 0
M  V30 6677 C 611.695 -0.150902 -2.03842 0
M  V30 6678 C 612.059 1.20744 -1.49281 0
M  V30 6679 O 613.26 1.78875 -2.00642 0
M  V30 6680 C 611.531 -0.146114 -3.57101 0
M  V30 6681 S 613.09 0.276725 -4.37927 0
M  V30 6682 H 609.908 -0.0652447 -0.708 0
M  V30 6683 H 612.51 -0.844886 -1.76301 0
M  V30 6684 H 611.214 -1.13769 -3.94316 0
M  V30 6685 H 610.745 0.568846 -3.89266 0
M  V30 6686 H 612.76 1.51893 -4.7238 0
M  V30 6687 N 611.933 1.52934 -0.380664 0
M  V30 6688 C 613.179 2.01765 0.20458 0
M  V30 6689 C 613.512 1.26696 1.47179 0
M  V30 6690 O 612.787 0.364936 1.91046 0
M  V30 6691 C 613.07 3.56869 0.481269 0
M  V30 6692 C 612.923 4.42617 -0.800629 0
M  V30 6693 C 614.242 4.2121 1.27554 0
M  V30 6694 H 611.361 0.733388 0.0728803 0
M  V30 6695 H 614.003 1.83068 -0.50853 0
M  V30 6696 H 612.153 3.72932 1.08875 0
M  V30 6697 H 613.825 4.38323 -1.43773 0
M  V30 6698 H 612.068 4.09977 -1.4178 0
M  V30 6699 H 612.739 5.49134 -0.561791 0
M  V30 6700 H 615.215 4.09072 0.761514 0
M  V30 6701 H 614.091 5.29732 1.43788 0
M  V30 6702 H 614.352 3.78269 2.28833 0
M  V30 6703 N 613.412 0.11024 1.57214 0
M  V30 6704 C 614.658 -0.550684 1.9518 0
M  V30 6705 C 614.991 -1.66885 0.993122 0
M  V30 6706 O 614.266 -1.94479 0.0287907 0
M  V30 6707 C 614.549 -1.09163 3.43155 0
M  V30 6708 C 614.402 0.0225198 4.49794 0
M  V30 6709 C 615.721 -1.98527 3.92778 0
M  V30 6710 H 612.84 -0.198706 0.709708 0
M  V30 6711 H 615.482 0.184024 1.89107 0
M  V30 6712 H 613.632 -1.71775 3.48462 0
M  V30 6713 H 615.304 0.657443 4.56591 0
M  V30 6714 H 613.547 0.686868 4.28328 0
M  V30 6715 H 614.218 -0.39706 5.5057 0
M  V30 6716 H 616.694 -1.458 3.8972 0
M  V30 6717 H 615.57 -2.33298 4.96853 0
M  V30 6718 H 615.831 -2.90846 3.32958 0
M  V30 6719 N 614.89 -1.56749 -0.16351 0
M  V30 6720 C 616.306 -1.51043 -0.515567 0
M  V30 6721 C 616.506 -0.815855 -1.84245 0
M  V30 6722 O 615.562 -0.379477 -2.49632 0
M  V30 6723 C 616.875 -2.95791 -0.541114 0
M  V30 6724 C 618.423 -3.0664 -0.627776 0
M  V30 6725 C 618.898 -4.52861 -0.684141 0
M  V30 6726 N 620.389 -4.5714 -0.746818 0
M  V30 6727 C 621.124 -5.67634 -0.811137 0
M  V30 6728 N 620.62 -6.8774 -0.835811 0
M  V30 6729 N 622.413 -5.55624 -0.850756 0
M  V30 6730 H 614.564 -2.00307 0.70645 0
M  V30 6731 H 616.827 -0.912876 0.255659 0
M  V30 6732 H 616.533 -3.49797 0.365329 0
M  V30 6733 H 616.407 -3.50858 -1.38487 0
M  V30 6734 H 618.794 -2.52663 -1.52464 0
M  V30 6735 H 618.875 -2.54645 0.242805 0
M  V30 6736 H 618.519 -5.07472 0.2085 0
M  V30 6737 H 618.449 -5.02621 -1.57098 0
M  V30 6738 H 620.94 -3.70669 -0.735717 0
M  V30 6739 H 621.253 -7.67701 -0.886279 0
M  V30 6740 H 619.598 -6.90334 -0.803958 0
M  V30 6741 H 622.789 -4.60709 -0.828535 0
M  V30 6742 H 622.962 -6.41756 -0.897418 0
M  V30 6743 N 616.368 0.432326 -1.51554 0
M  V30 6744 C 617.316 1.54572 -1.73811 0
M  V30 6745 C 618.31 1.58246 -0.604539 0
M  V30 6746 O 619.516 1.6193 -0.786041 0
M  V30 6747 H 615.891 0.513626 -0.549265 0
M  V30 6748 H 617.862 1.32977 -2.67132 0
M  V30 6749 C 616.611 2.92181 -1.88483 0
M  V30 6750 H 615.934 2.90088 -2.75116 0
M  V30 6751 H 617.374 3.69439 -2.08065 0
M  V30 6752 C 615.833 3.3065 -0.645909 0
M  V30 6753 O 616.363 4.01216 0.197093 0
M  V30 6754 N 614.569 2.86464 -0.488538 0
M  V30 6755 H 614.116 2.29209 -1.17562 0
M  V30 6756 H 614.074 3.12565 0.339156 0
M  V30 6757 N 617.846 1.41785 0.688094 0
M  V30 6758 C 619.071 1.45117 1.48175 0
M  V30 6759 C 619.496 0.060129 1.88004 0
M  V30 6760 O 618.854 -0.938385 1.55126 0
M  V30 6761 C 618.902 2.37224 2.71583 0
M  V30 6762 O 618.006 1.83443 3.69354 0
M  V30 6763 H 617.347 0.492208 0.445676 0
M  V30 6764 H 619.877 1.86329 0.845145 0
M  V30 6765 H 619.887 2.53353 3.19806 0
M  V30 6766 H 618.562 3.38293 2.41931 0
M  V30 6767 H 617.139 1.76802 3.28322 0
M  V30 6768 N 619.324 -0.923095 1.27737 0
M  V30 6769 C 620.549 -1.71054 1.17283 0
M  V30 6770 C 620.974 -1.86208 -0.266153 0
M  V30 6771 O 620.332 -1.36545 -1.1927 0
M  V30 6772 C 620.38 -3.0854 1.86642 0
M  V30 6773 O 619.484 -3.95528 1.16752 0
M  V30 6774 H 618.825 -0.524136 0.407649 0
M  V30 6775 H 621.355 -1.15487 1.6889 0
M  V30 6776 H 621.365 -3.58828 1.94182 0
M  V30 6777 H 620.04 -2.96828 2.91317 0
M  V30 6778 H 618.617 -3.53967 1.17312 0
M  V30 6779 N 620.802 -1.09834 -1.13024 0
M  V30 6780 C 622.032 -0.857657 -1.87957 0
M  V30 6781 C 622.44 0.595008 -1.796 0
M  V30 6782 O 621.783 1.42158 -1.16347 0
M  V30 6783 C 621.845 -1.21949 -3.38185 0
M  V30 6784 C 621.509 -2.67791 -3.7032 0
M  V30 6785 C 622.506 -3.66036 -3.69207 0
M  V30 6786 C 620.191 -3.04019 -3.99847 0
M  V30 6787 C 622.185 -4.98533 -3.9717 0
M  V30 6788 C 619.872 -4.36706 -4.27471 0
M  V30 6789 C 620.87 -5.33772 -4.26118 0
M  V30 6790 O 620.558 -6.64072 -4.53061 0
M  V30 6791 H 620.29 -0.308009 -0.601753 0
M  V30 6792 H 622.844 -1.46496 -1.43973 0
M  V30 6793 H 621.074 -0.555249 -3.82693 0
M  V30 6794 H 622.763 -0.957281 -3.9445 0
M  V30 6795 H 623.529 -3.39392 -3.46465 0
M  V30 6796 H 619.408 -2.29096 -4.00045 0
M  V30 6797 H 622.952 -5.74288 -3.96029 0
M  V30 6798 H 618.849 -4.63091 -4.49685 0
M  V30 6799 H 619.617 -6.69608 -4.7071 0
M  V30 6800 N 622.28 1.30327 -0.886154 0
M  V30 6801 C 623.52 1.97886 -0.511912 0
M  V30 6802 C 623.884 1.68417 0.921944 0
M  V30 6803 O 625.085 2.29319 1.40237 0
M  V30 6804 C 623.356 3.48775 -0.780444 0
M  V30 6805 S 624.915 4.35844 -0.508482 0
M  V30 6806 H 621.733 0.685024 -0.190428 0
M  V30 6807 H 624.335 1.58413 -1.14567 0
M  V30 6808 H 623.039 3.67714 -1.82248 0
M  V30 6809 H 622.57 3.93171 -0.134284 0
M  V30 6810 H 624.585 4.91893 0.65239 0
M  V30 6811 N 623.758 0.647228 1.43697 0
M  V30 6812 C 624.688 -0.0345631 2.33474 0
M  V30 6813 C 625.669 -0.818193 1.4913 0
M  V30 6814 O 626.854 -0.780867 1.77809 0
M  V30 6815 C 623.984 -1.00576 3.32418 0
M  V30 6816 C 622.938 -0.33266 4.26705 0
M  V30 6817 C 622.264 -1.41489 5.1564 0
M  V30 6818 C 623.564 0.771204 5.16575 0
M  V30 6819 H 625.258 0.715163 2.90733 0
M  V30 6820 H 622.804 0.345364 1.39797 0
M  V30 6821 H 624.757 -1.49159 3.94119 0
M  V30 6822 H 623.481 -1.78657 2.73403 0
M  V30 6823 H 622.14 0.13267 3.6636 0
M  V30 6824 H 621.788 -2.18698 4.52968 0
M  V30 6825 H 621.488 -0.969799 5.79542 0
M  V30 6826 H 623.012 -1.9022 5.80214 0
M  V30 6827 H 624.426 0.36779 5.72119 0
M  V30 6828 H 622.823 1.1404 5.89165 0
M  V30 6829 H 623.893 1.63169 4.56622 0
M  V30 6830 N 625.236 -1.5273 0.388769 0
M  V30 6831 C 626.652 -1.59553 0.0387049 0
M  V30 6832 C 626.852 -1.40278 -1.44652 0
M  V30 6833 O 625.908 -1.21951 -2.21098 0
M  V30 6834 C 627.221 -2.9625 0.515409 0
M  V30 6835 C 628.769 -3.09426 0.471621 0
M  V30 6836 C 629.244 -4.48572 0.924505 0
M  V30 6837 N 630.735 -4.54754 0.880496 0
M  V30 6838 C 631.47 -5.60653 1.20234 0
M  V30 6839 N 630.966 -6.74198 1.59463 0
M  V30 6840 N 632.759 -5.50755 1.12363 0
M  V30 6841 H 624.91 -1.63508 1.35569 0
M  V30 6842 H 627.173 -0.768097 0.555636 0
M  V30 6843 H 626.879 -3.15569 1.5527 0
M  V30 6844 H 626.753 -3.77102 -0.085792 0
M  V30 6845 H 629.14 -2.89804 -0.556588 0
M  V30 6846 H 629.221 -2.30528 1.10862 0
M  V30 6847 H 628.865 -4.68936 1.95094 0
M  V30 6848 H 628.795 -5.25935 0.264524 0
M  V30 6849 H 631.286 -3.73237 0.591815 0
M  V30 6850 H 631.599 -7.5097 1.82385 0
M  V30 6851 H 629.944 -6.75531 1.63349 0
M  V30 6852 H 633.135 -4.6093 0.816169 0
M  V30 6853 H 633.308 -6.33184 1.37777 0
M  V30 6854 N 626.714 -0.118576 -1.57153 0
M  V30 6855 C 627.963 0.539339 -1.94355 0
M  V30 6856 C 628.276 1.67858 -1.00415 0
M  V30 6857 O 629.482 2.39922 -1.27081 0
M  V30 6858 C 627.938 1.01082 -3.45414 0
M  V30 6859 C 627.546 -0.0999402 -4.47889 0
M  V30 6860 C 629.29 1.64013 -3.91535 0
M  V30 6861 C 627.197 0.388212 -5.90124 0
M  V30 6862 H 626.127 0.205247 -0.725527 0
M  V30 6863 H 628.778 -0.19836 -1.82425 0
M  V30 6864 H 627.16 1.80292 -3.52577 0
M  V30 6865 H 628.334 -0.876189 -4.52393 0
M  V30 6866 H 626.649 -0.635885 -4.11516 0
M  V30 6867 H 629.246 2.01649 -4.95219 0
M  V30 6868 H 629.589 2.51836 -3.31488 0
M  V30 6869 H 630.122 0.913439 -3.87171 0
M  V30 6870 H 626.861 -0.453963 -6.53926 0
M  V30 6871 H 626.381 1.13095 -5.89041 0
M  V30 6872 H 628.06 0.849574 -6.41398 0
M  V30 6873 N 628.193 1.56834 0.155195 0
M  V30 6874 C 629.14 1.97646 1.19184 0
M  V30 6875 C 630.11 0.842788 1.4313 0
M  V30 6876 O 631.295 1.1042 1.55602 0
M  V30 6877 C 628.435 2.35527 2.52232 0
M  V30 6878 C 627.548 3.62147 2.35529 0
M  V30 6879 C 626.683 3.89167 3.61555 0
M  V30 6880 C 625.722 5.09084 3.39853 0
M  V30 6881 N 624.859 5.32156 4.5799 0
M  V30 6882 H 629.699 2.8601 0.836802 0
M  V30 6883 H 627.236 1.41507 0.401758 0
M  V30 6884 H 629.194 2.55516 3.29799 0
M  V30 6885 H 627.824 1.50253 2.85699 0
M  V30 6886 H 626.876 3.4998 1.49057 0
M  V30 6887 H 628.188 4.49871 2.15448 0
M  V30 6888 H 627.342 4.09611 4.47553 0
M  V30 6889 H 626.081 2.9985 3.84632 0
M  V30 6890 H 625.086 4.88522 2.52243 0
M  V30 6891 H 626.311 5.99947 3.18183 0
M  V30 6892 H 624.257 4.45791 4.81255 0
M  V30 6893 H 624.174 6.14133 4.40882 0
M  V30 6894 H 625.442 5.57091 5.45225 0
M  V30 6895 N 629.671 -0.424282 1.51781 0
M  V30 6896 C 630.92 -1.16961 1.64326 0
M  V30 6897 C 631.233 -1.92035 0.371749 0
M  V30 6898 O 632.439 -2.68873 0.37676 0
M  V30 6899 C 630.895 -2.12782 2.90262 0
M  V30 6900 C 630.503 -1.43295 4.24465 0
M  V30 6901 C 632.247 -2.87667 3.12166 0
M  V30 6902 C 630.154 -2.37676 5.41538 0
M  V30 6903 H 629.084 -0.440293 0.612093 0
M  V30 6904 H 631.735 -0.435431 1.78259 0
M  V30 6905 H 630.117 -2.8969 2.69992 0
M  V30 6906 H 631.291 -0.718564 4.55163 0
M  V30 6907 H 629.606 -0.805118 4.08542 0
M  V30 6908 H 632.203 -3.58395 3.96808 0
M  V30 6909 H 632.546 -3.49758 2.25776 0
M  V30 6910 H 633.079 -2.17863 3.32837 0
M  V30 6911 H 629.818 -1.80255 6.30229 0
M  V30 6912 H 629.338 -3.07132 5.15199 0
M  V30 6913 H 631.017 -2.98529 5.74012 0
M  V30 6914 N 631.149 -1.42148 -0.680565 0
M  V30 6915 C 632.374 -1.45901 -1.47403 0
M  V30 6916 C 632.799 -0.0700985 -1.87969 0
M  V30 6917 O 632.157 0.930145 -1.55621 0
M  V30 6918 C 632.205 -2.38661 -2.70321 0
M  V30 6919 O 631.309 -1.85399 -3.68376 0
M  V30 6920 H 630.65 -0.494565 -0.443059 0
M  V30 6921 H 633.18 -1.86774 -0.835251 0
M  V30 6922 H 633.19 -2.55046 -3.18458 0
M  V30 6923 H 631.865 -3.39571 -2.40134 0
M  V30 6924 H 630.442 -1.78541 -3.2738 0
M  V30 6925 N 632.627 0.916307 -1.28225 0
M  V30 6926 C 633.59 1.99996 -1.11957 0
M  V30 6927 C 634.59 1.60688 -0.0600152 0
M  V30 6928 O 635.78 1.71499 -0.30558 0
M  V30 6929 C 632.912 3.33458 -0.708411 0
M  V30 6930 H 634.105 2.15858 -2.08196 0
M  V30 6931 H 631.658 1.09863 -1.11175 0
M  V30 6932 H 632.393 3.23297 0.254859 0
M  V30 6933 H 632.178 3.63349 -1.47377 0
M  V30 6934 H 633.668 4.13014 -0.617164 0
M  V30 6935 N 634.105 1.10431 1.1244 0
M  V30 6936 C 635.052 0.753103 2.18167 0
M  V30 6937 C 636.022 -0.270549 1.63882 0
M  V30 6938 O 637.207 -0.149837 1.90211 0
M  V30 6939 C 634.347 0.191046 3.44571 0
M  V30 6940 C 633.46 1.26999 4.12911 0
M  V30 6941 C 632.595 0.669586 5.26963 0
M  V30 6942 C 631.634 1.72912 5.87169 0
M  V30 6943 N 630.771 1.14898 6.92635 0
M  V30 6944 H 635.611 1.65892 2.47556 0
M  V30 6945 H 633.148 0.828631 1.21541 0
M  V30 6946 H 635.106 -0.152712 4.1692 0
M  V30 6947 H 633.736 -0.677997 3.15599 0
M  V30 6948 H 632.788 1.73087 3.3874 0
M  V30 6949 H 634.1 2.07204 4.53727 0
M  V30 6950 H 633.254 0.275274 6.06075 0
M  V30 6951 H 631.993 -0.163895 4.87425 0
M  V30 6952 H 630.998 2.13286 5.06744 0
M  V30 6953 H 632.223 2.56544 6.28778 0
M  V30 6954 H 630.169 0.336956 6.55134 0
M  V30 6955 H 630.086 1.88786 7.32049 0
M  V30 6956 H 631.354 0.78121 7.75576 0
M  V30 6957 N 635.583 -1.29855 0.893053 0
M  V30 6958 C 636.83 -1.95826 0.515585 0
M  V30 6959 C 637.158 -1.70451 -0.936842 0
M  V30 6960 O 636.413 -1.00657 -1.67829 0
M  V30 6961 C 636.712 -3.49515 0.746588 0
M  V30 6962 C 636.378 -3.94955 2.17535 0
M  V30 6963 C 635.04 -4.07073 2.56603 0
M  V30 6964 C 637.392 -4.18536 3.10607 0
M  V30 6965 C 634.72 -4.40138 3.87938 0
M  V30 6966 C 637.072 -4.53073 4.41484 0
M  V30 6967 C 635.736 -4.634 4.80434 0
M  V30 6968 H 635.006 -0.71658 0.188666 0
M  V30 6969 H 637.653 -1.54574 1.13045 0
M  V30 6970 H 635.958 -3.9177 0.0487551 0
M  V30 6971 H 637.655 -3.98644 0.434009 0
M  V30 6972 H 634.245 -3.86035 1.86212 0
M  V30 6973 H 638.429 -4.08646 2.81641 0
M  V30 6974 H 633.685 -4.46335 4.17846 0
M  V30 6975 H 637.859 -4.70269 5.13634 0
M  V30 6976 H 635.486 -4.88775 5.82239 0
M  V30 6977 N 637.061 -0.65484 -1.43351 0
M  V30 6978 C 638.307 -0.169142 -2.02093 0
M  V30 6979 C 638.64 1.21431 -1.51553 0
M  V30 6980 O 637.915 1.81105 -0.709317 0
M  V30 6981 C 638.198 -0.181775 -3.59641 0
M  V30 6982 C 638.051 -1.59926 -4.20409 0
M  V30 6983 C 639.37 0.480945 -4.37464 0
M  V30 6984 H 636.489 -0.0629371 -0.734308 0
M  V30 6985 H 639.131 -0.835833 -1.70628 0
M  V30 6986 H 637.281 0.385918 -3.86578 0
M  V30 6987 H 638.953 -2.21766 -4.04497 0
M  V30 6988 H 637.196 -2.14605 -3.76998 0
M  V30 6989 H 637.867 -1.55994 -5.295 0
M  V30 6990 H 640.343 -0.00208273 -4.161 0
M  V30 6991 H 639.219 0.441384 -5.47122 0
M  V30 6992 H 639.48 1.55533 -4.13838 0
M  V30 6993 N 638.539 1.52521 -0.396863 0
M  V30 6994 C 639.449 2.30403 0.44178 0
M  V30 6995 C 640.465 1.37625 1.06468 0
M  V30 6996 O 641.641 1.70697 1.06886 0
M  V30 6997 C 638.706 3.1013 1.54986 0
M  V30 6998 C 637.767 4.18628 0.951279 0
M  V30 6999 C 637 4.94543 2.00655 0
M  V30 7000 O 637.223 4.70629 3.22281 0
M  V30 7001 O 636.157 5.797 1.61962 0
M  V30 7002 H 639.983 3.03087 -0.192892 0
M  V30 7003 H 637.568 1.48537 -0.16038 0
M  V30 7004 H 639.45 3.59816 2.19341 0
M  V30 7005 H 638.125 2.40251 2.16935 0
M  V30 7006 H 637.032 3.73119 0.270773 0
M  V30 7007 H 638.365 4.90763 0.375887 0
M  V30 7008 N 640.017 0.126909 1.57088 0
M  V30 7009 C 640.965 -0.837618 2.16995 0
M  V30 7010 C 641.959 -1.26974 1.12133 0
M  V30 7011 O 643.165 -1.24056 1.30423 0
M  V30 7012 H 639.54 -0.288256 0.694559 0
M  V30 7013 H 641.511 -0.307957 2.96807 0
M  V30 7014 C 640.26 -2.07474 2.79016 0
M  V30 7015 H 639.583 -1.75117 3.59408 0
M  V30 7016 H 641.023 -2.72949 3.24461 0
M  V30 7017 C 639.482 -2.86967 1.76498 0
M  V30 7018 O 640.012 -3.82625 1.22316 0
M  V30 7019 N 638.218 -2.51111 1.46258 0
M  V30 7020 H 637.765 -1.73389 1.90509 0
M  V30 7021 H 637.723 -3.04594 0.779085 0
M  V30 7022 N 641.495 -1.56914 -0.146875 0
M  V30 7023 C 642.405 -2.0154 -1.20079 0
M  V30 7024 C 643.421 -0.930838 -1.47008 0
M  V30 7025 O 644.597 -1.24032 -1.58676 0
M  V30 7026 C 641.662 -2.38715 -2.51428 0
M  V30 7027 C 640.723 -3.6112 -2.32145 0
M  V30 7028 C 639.956 -3.96512 -3.57231 0
M  V30 7029 O 640.179 -3.32566 -4.63418 0
M  V30 7030 O 639.113 -4.89758 -3.49887 0
M  V30 7031 H 642.939 -2.91506 -0.851924 0
M  V30 7032 H 640.524 -1.45106 -0.355607 0
M  V30 7033 H 642.406 -2.63485 -3.28867 0
M  V30 7034 H 641.081 -1.51903 -2.85845 0
M  V30 7035 H 639.988 -3.41536 -1.52656 0
M  V30 7036 H 641.321 -4.48549 -2.02644 0
M  V30 7037 N 642.974 0.416227 -1.52004 0
M  V30 7038 C 644.385 0.995319 -1.57957 0
M  V30 7039 C 644.736 1.91744 -0.415754 0
M  V30 7040 O 643.861 2.11349 0.464808 0
M  V30 7041 C 644.456 1.81191 -2.86278 0
M  V30 7042 C 643.015 2.34115 -2.94732 0
M  V30 7043 C 642.162 1.139 -2.52828 0
M  V30 7044 H 645.113 0.196716 -1.57476 0
M  V30 7045 H 645.134 2.66859 -2.71231 0
M  V30 7046 H 644.646 1.14051 -3.70963 0
M  V30 7047 H 642.747 3.04647 -2.14525 0
M  V30 7048 H 642.86 2.65466 -3.98829 0
M  V30 7049 H 641.224 1.49081 -2.06511 0
M  V30 7050 H 642.007 0.483383 -3.3988 0
M  V30 7051 N 644.452 1.42507 0.673017 0
M  V30 7052 C 645.4 1.46362 1.80779 0
M  V30 7053 C 646.394 0.339166 1.6597 0
M  V30 7054 O 647.6 0.512262 1.72557 0
M  V30 7055 H 643.975 0.458433 0.596107 0
M  V30 7056 H 645.946 2.41953 1.74646 0
M  V30 7057 C 644.695 1.38462 3.18941 0
M  V30 7058 H 644.018 2.24283 3.30964 0
M  V30 7059 H 645.458 1.45221 3.98355 0
M  V30 7060 C 643.917 0.0996354 3.36753 0
M  V30 7061 O 644.447 -0.846894 3.92671 0
M  V30 7062 N 642.653 0.016211 2.90595 0
M  V30 7063 H 642.2 0.78725 2.45276 0
M  V30 7064 H 642.158 -0.84291 3.0289 0
M  V30 7065 N 645.93 -0.909495 1.28709 0
M  V30 7066 C 646.86 -2.0291 1.15542 0
M  V30 7067 C 647.841 -1.7002 0.0521017 0
M  V30 7068 O 649.026 -1.92835 0.229849 0
M  V30 7069 C 646.156 -3.37458 0.820935 0
M  V30 7070 C 645.11 -3.84524 1.87949 0
M  V30 7071 C 644.436 -5.16086 1.39854 0
M  V30 7072 C 645.736 -4.05918 3.28676 0
M  V30 7073 H 647.43 -2.14183 2.09203 0
M  V30 7074 H 644.976 -1.02913 1.00722 0
M  V30 7075 H 646.929 -4.1528 0.715571 0
M  V30 7076 H 645.653 -3.26249 -0.151374 0
M  V30 7077 H 644.312 -3.08911 1.97408 0
M  V30 7078 H 643.96 -5.01284 0.41518 0
M  V30 7079 H 643.66 -5.48547 2.1064 0
M  V30 7080 H 645.184 -5.96459 1.30649 0
M  V30 7081 H 646.598 -4.74252 3.22115 0
M  V30 7082 H 644.995 -4.49717 3.97334 0
M  V30 7083 H 646.065 -3.10583 3.72379 0
M  V30 7084 N 647.408 -1.11026 -1.11852 0
M  V30 7085 C 648.648 -0.866348 -1.85132 0
M  V30 7086 C 649.012 0.597236 -1.82475 0
M  V30 7087 O 650.213 0.957744 -2.51159 0
M  V30 7088 C 648.484 -1.40721 -3.28531 0
M  V30 7089 S 650.043 -1.29964 -4.19112 0
M  V30 7090 H 646.861 -0.312899 -0.638447 0
M  V30 7091 H 649.463 -1.41691 -1.34699 0
M  V30 7092 H 648.167 -2.46631 -3.28027 0
M  V30 7093 H 647.698 -0.85349 -3.8403 0
M  V30 7094 H 649.713 -0.261333 -4.95511 0
M  V30 7095 N 648.886 1.2938 -0.899927 0
M  V30 7096 C 650.116 1.99402 -0.540601 0
M  V30 7097 C 650.524 1.67534 0.87914 0
M  V30 7098 O 649.867 0.916821 1.59186 0
M  V30 7099 C 649.929 3.53514 -0.653326 0
M  V30 7100 C 649.593 4.08937 -2.04009 0
M  V30 7101 C 650.59 4.23815 -3.01126 0
M  V30 7102 C 648.275 4.43962 -2.34953 0
M  V30 7103 C 650.269 4.72951 -4.27313 0
M  V30 7104 C 647.956 4.92795 -3.61382 0
M  V30 7105 C 648.954 5.07244 -4.57376 0
M  V30 7106 O 648.642 5.55017 -5.8156 0
M  V30 7107 H 648.374 0.64383 -0.206057 0
M  V30 7108 H 650.928 1.65878 -1.21134 0
M  V30 7109 H 649.158 3.86628 0.0744449 0
M  V30 7110 H 650.847 4.04767 -0.303118 0
M  V30 7111 H 651.613 3.97043 -2.78535 0
M  V30 7112 H 647.492 4.31974 -1.60994 0
M  V30 7113 H 651.036 4.84144 -5.02245 0
M  V30 7114 H 646.933 5.19004 -3.83804 0
M  V30 7115 H 647.701 5.73331 -5.84153 0
M  V30 7116 N 650.364 0.662433 1.43002 0
M  V30 7117 C 651.312 -0.035345 2.32573 0
M  V30 7118 C 652.306 -0.803505 1.49131 0
M  V30 7119 O 653.512 -0.712865 1.65282 0
M  V30 7120 H 649.887 -0.0302194 0.751393 0
M  V30 7121 H 651.858 0.737686 2.89138 0
M  V30 7122 C 650.607 -0.981575 3.33557 0
M  V30 7123 H 649.93 -0.399914 3.97795 0
M  V30 7124 H 651.37 -1.43873 3.98844 0
M  V30 7125 C 649.829 -2.08204 2.64863 0
M  V30 7126 O 650.359 -3.16698 2.47113 0
M  V30 7127 N 648.565 -1.85022 2.24088 0
M  V30 7128 H 648.112 -0.967909 2.38724 0
M  V30 7129 H 648.07 -2.58845 1.78457 0
M  V30 7130 N 651.842 -1.52309 0.404946 0
M  V30 7131 C 652.805 -2.25491 -0.410651 0
M  V30 7132 C 653.805 -1.27704 -0.977154 0
M  V30 7133 O 654.995 -1.51679 -0.856691 0
M  V30 7134 C 652.127 -3.02197 -1.57765 0
M  V30 7135 H 653.32 -2.99015 0.230277 0
M  V30 7136 H 650.873 -1.55506 0.157377 0
M  V30 7137 H 651.608 -2.33013 -2.25556 0
M  V30 7138 H 651.393 -3.73987 -1.17797 0
M  V30 7139 H 652.883 -3.57719 -2.15469 0
M  V30 7140 N 653.32 -0.135238 -1.57019 0
M  V30 7141 C 654.252 0.839675 -2.13265 0
M  V30 7142 C 655.265 1.21887 -1.07923 0
M  V30 7143 O 656.454 1.16499 -1.35241 0
M  V30 7144 C 653.554 2.13647 -2.63075 0
M  V30 7145 C 652.727 1.92646 -3.92691 0
M  V30 7146 C 651.786 3.06205 -4.27931 0
M  V30 7147 O 650.812 2.78409 -4.96465 0
M  V30 7148 N 652.014 4.33072 -3.86561 0
M  V30 7149 H 654.779 0.359026 -2.97542 0
M  V30 7150 H 652.34 0.0486979 -1.61827 0
M  V30 7151 H 654.332 2.88641 -2.8367 0
M  V30 7152 H 652.902 2.5301 -1.83588 0
M  V30 7153 H 652.122 1.01754 -3.80841 0
M  V30 7154 H 653.41 1.75939 -4.77413 0
M  V30 7155 H 652.808 4.58526 -3.31316 0
M  V30 7156 H 651.365 5.04885 -4.12231 0
M  V30 7157 N 654.798 1.5699 0.138552 0
M  V30 7158 C 655.761 1.97984 1.15478 0
M  V30 7159 C 656.761 0.867416 1.35398 0
M  V30 7160 O 657.951 1.13387 1.32246 0
M  V30 7161 C 655.083 2.3031 2.51337 0
M  V30 7162 H 656.276 2.88953 0.802896 0
M  V30 7163 H 653.829 1.51555 0.382189 0
M  V30 7164 H 654.564 1.42159 2.91481 0
M  V30 7165 H 654.349 3.11425 2.38237 0
M  V30 7166 H 655.839 2.62834 3.24512 0
M  V30 7167 N 656.276 -0.40816 1.52223 0
M  V30 7168 C 657.525 -1.15212 1.65557 0
M  V30 7169 C 657.838 -1.9163 0.392096 0
M  V30 7170 O 659.044 -2.68458 0.405256 0
M  V30 7171 C 657.5 -2.09691 2.92502 0
M  V30 7172 C 657.108 -1.38785 4.25961 0
M  V30 7173 C 658.852 -2.8434 3.152 0
M  V30 7174 C 656.759 -2.31919 5.44029 0
M  V30 7175 H 655.689 -0.433776 0.616729 0
M  V30 7176 H 658.34 -0.4165 1.78711 0
M  V30 7177 H 656.722 -2.8681 2.7305 0
M  V30 7178 H 657.896 -0.670248 4.55899 0
M  V30 7179 H 656.211 -0.761741 4.09373 0
M  V30 7180 H 658.808 -3.54166 4.00587 0
M  V30 7181 H 659.151 -3.47344 2.29473 0
M  V30 7182 H 659.684 -2.14321 3.35129 0
M  V30 7183 H 656.423 -1.7356 6.32105 0
M  V30 7184 H 655.943 -3.0165 5.18428 0
M  V30 7185 H 657.622 -2.92424 5.77146 0
M  V30 7186 N 657.755 -1.42862 -0.66545 0
M  V30 7187 C 659.002 -1.4383 -1.42546 0
M  V30 7188 C 659.33 -0.0581114 -1.94413 0
M  V30 7189 O 658.585 0.935002 -1.71919 0
M  V30 7190 C 658.884 -2.4175 -2.63233 0
M  V30 7191 C 658.55 -3.87915 -2.29854 0
M  V30 7192 C 657.212 -4.27726 -2.20463 0
M  V30 7193 C 659.564 -4.80074 -2.02924 0
M  V30 7194 C 656.892 -5.57666 -1.82279 0
M  V30 7195 C 659.244 -6.10366 -1.66242 0
M  V30 7196 C 657.908 -6.49167 -1.55367 0
M  V30 7197 H 657.178 -0.52631 -0.521612 0
M  V30 7198 H 659.825 -1.75863 -0.757914 0
M  V30 7199 H 658.13 -2.03077 -3.35063 0
M  V30 7200 H 659.827 -2.39759 -3.21429 0
M  V30 7201 H 656.417 -3.564 -2.3807 0
M  V30 7202 H 660.601 -4.50097 -2.09108 0
M  V30 7203 H 655.857 -5.8658 -1.72436 0
M  V30 7204 H 660.031 -6.81258 -1.44432 0
M  V30 7205 H 657.658 -7.49761 -1.2555 0
M  V30 7206 N 659.233 0.902656 -1.29189 0
M  V30 7207 C 660.18 2.00643 -1.14066 0
M  V30 7208 C 661.15 1.66064 -0.0347756 0
M  V30 7209 O 662.335 1.8973 -0.201752 0
M  V30 7210 C 659.475 3.35214 -0.820104 0
M  V30 7211 C 658.588 3.82594 -2.00614 0
M  V30 7212 C 657.723 5.05727 -1.62522 0
M  V30 7213 C 656.762 5.45469 -2.77724 0
M  V30 7214 N 655.899 6.59789 -2.40048 0
M  V30 7215 H 660.739 2.1291 -2.08502 0
M  V30 7216 H 658.276 1.04271 -1.03759 0
M  V30 7217 H 660.234 4.12643 -0.614949 0
M  V30 7218 H 658.864 3.22682 0.0873452 0
M  V30 7219 H 657.916 3.01226 -2.32308 0
M  V30 7220 H 659.228 4.07999 -2.86946 0
M  V30 7221 H 658.382 5.90732 -1.38277 0
M  V30 7222 H 657.121 4.82155 -0.733333 0
M  V30 7223 H 656.126 4.59 -3.02653 0
M  V30 7224 H 657.351 5.71024 -3.67572 0
M  V30 7225 H 655.297 6.37826 -1.53343 0
M  V30 7226 H 655.214 6.84975 -3.19914 0
M  V30 7227 H 656.482 7.4807 -2.19116 0
M  V30 7228 N 660.711 1.11618 1.11262 0
M  V30 7229 C 661.643 0.734015 2.17129 0
M  V30 7230 C 662.656 -0.235243 1.61091 0
M  V30 7231 O 663.845 -0.0178597 1.78491 0
M  V30 7232 C 660.945 0.0643682 3.38839 0
M  V30 7233 C 660.118 1.06092 4.24339 0
M  V30 7234 C 659.177 0.420482 5.24517 0
M  V30 7235 O 658.203 1.07495 5.58957 0
M  V30 7236 N 659.405 -0.815828 5.74739 0
M  V30 7237 H 662.17 1.64492 2.50524 0
M  V30 7238 H 659.731 1.00664 1.26801 0
M  V30 7239 H 661.723 -0.375851 4.02951 0
M  V30 7240 H 660.293 -0.749147 3.03491 0
M  V30 7241 H 659.513 1.67903 3.56654 0
M  V30 7242 H 660.801 1.73507 4.78302 0
M  V30 7243 H 660.199 -1.36668 5.48943 0
M  V30 7244 H 658.756 -1.199 6.40677 0
M  V30 7245 N 662.189 -1.289 0.906776 0
M  V30 7246 C 663.136 -2.2751 0.388313 0
M  V30 7247 C 664.106 -1.57301 -0.533439 0
M  V30 7248 O 665.291 -1.85243 -0.457148 0
M  V30 7249 C 662.431 -3.43091 -0.37181 0
M  V30 7250 C 661.544 -4.28066 0.581647 0
M  V30 7251 C 660.679 -5.30837 -0.19623 0
M  V30 7252 C 659.718 -6.07472 0.751294 0
M  V30 7253 N 658.855 -7.021 0.00737727 0
M  V30 7254 H 663.695 -2.71237 1.23428 0
M  V30 7255 H 661.232 -1.33397 0.619962 0
M  V30 7256 H 663.19 -4.08888 -0.828641 0
M  V30 7257 H 661.82 -3.00374 -1.18218 0
M  V30 7258 H 660.872 -3.62378 1.157 0
M  V30 7259 H 662.184 -4.81382 1.30665 0
M  V30 7260 H 661.338 -6.02485 -0.71394 0
M  V30 7261 H 660.077 -4.78272 -0.954324 0
M  V30 7262 H 659.082 -5.34682 1.28044 0
M  V30 7263 H 660.307 -6.62126 1.50883 0
M  V30 7264 H 658.253 -6.51894 -0.732854 0
M  V30 7265 H 658.17 -7.53004 0.672334 0
M  V30 7266 H 659.438 -7.77956 -0.490365 0
M  V30 7267 N 663.667 -0.670007 -1.42649 0
M  V30 7268 C 664.597 -0.00258501 -2.335 0
M  V30 7269 C 665.578 0.794364 -1.50412 0
M  V30 7270 O 666.763 0.75248 -1.79029 0
M  V30 7271 C 663.893 0.952748 -3.33976 0
M  V30 7272 C 662.847 0.264733 -4.2718 0
M  V30 7273 C 662.173 1.33267 -5.17826 0
M  V30 7274 C 663.473 -0.853289 -5.15283 0
M  V30 7275 H 665.167 -0.761326 -2.89559 0
M  V30 7276 H 662.713 -0.367561 -1.3923 0
M  V30 7277 H 664.666 1.4287 -3.96442 0
M  V30 7278 H 663.39 1.74285 -2.7621 0
M  V30 7279 H 662.049 -0.190938 -3.66102 0
M  V30 7280 H 661.697 2.11464 -4.5639 0
M  V30 7281 H 661.397 0.877476 -5.81011 0
M  V30 7282 H 662.921 1.80965 -5.83167 0
M  V30 7283 H 664.335 -0.458763 -5.71462 0
M  V30 7284 H 662.732 -1.23398 -5.87276 0
M  V30 7285 H 663.802 -1.70412 -4.53969 0
M  V30 7286 N 665.145 1.52092 -0.413018 0
M  V30 7287 C 666.556 1.86617 0.0556967 0
M  V30 7288 C 666.907 1.33156 1.44097 0
M  V30 7289 O 666.032 0.672417 2.05688 0
M  V30 7290 C 666.627 3.38628 0.107844 0
M  V30 7291 C 665.186 3.72778 0.520904 0
M  V30 7292 C 664.333 2.75649 -0.302109 0
M  V30 7293 H 667.284 1.45663 -0.629919 0
M  V30 7294 H 667.305 3.69152 0.922324 0
M  V30 7295 H 666.817 3.77508 -0.900506 0
M  V30 7296 H 664.918 3.39478 1.53575 0
M  V30 7297 H 665.031 4.7838 0.262591 0
M  V30 7298 H 663.395 2.53603 0.236115 0
M  V30 7299 H 664.178 3.17369 -1.30888 0
M  V30 7300 N 666.623 0.143563 1.56945 0
M  V30 7301 C 667.869 -0.50916 1.96304 0
M  V30 7302 C 668.202 -1.64741 1.0283 0
M  V30 7303 O 667.477 -1.94374 0.0700361 0
M  V30 7304 C 667.76 -1.0186 3.45393 0
M  V30 7305 C 667.613 0.117923 4.49645 0
M  V30 7306 C 668.932 -1.90151 3.96901 0
M  V30 7307 H 666.051 -0.183608 0.713763 0
M  V30 7308 H 668.693 0.224095 1.88674 0
M  V30 7309 H 666.843 -1.64345 3.52027 0
M  V30 7310 H 668.515 0.754145 4.55094 0
M  V30 7311 H 666.758 0.777568 4.26774 0
M  V30 7312 H 667.429 -0.280187 5.51288 0
M  V30 7313 H 669.905 -1.375 3.92725 0
M  V30 7314 H 668.781 -2.22707 5.0169 0
M  V30 7315 H 669.042 -2.83718 3.39052 0
M  V30 7316 N 668.101 -1.57061 -0.130224 0
M  V30 7317 C 669.064 -1.98593 -1.14426 0
M  V30 7318 C 670.064 -0.874584 -1.34936 0
M  V30 7319 O 671.254 -1.14086 -1.31643 0
M  V30 7320 C 668.386 -2.31639 -2.50112 0
M  V30 7321 H 669.579 -2.89374 -0.787561 0
M  V30 7322 H 667.132 -1.51756 -0.374146 0
M  V30 7323 H 667.867 -1.43703 -2.90723 0
M  V30 7324 H 667.652 -3.12684 -2.36583 0
M  V30 7325 H 669.142 -2.64551 -3.23114 0
M  V30 7326 N 669.579 0.400081 -1.52437 0
M  V30 7327 C 670.827 1.14392 -1.6661 0
M  V30 7328 C 671.148 1.90792 -0.402927 0
M  V30 7329 O 670.418 1.87042 0.582425 0
M  V30 7330 H 668.998 0.425275 -0.614125 0
M  V30 7331 H 671.66 0.455076 -1.89513 0
M  V30 7332 H 670.756 1.85298 -2.51139 0
M  V30 7333 N 671.057 1.43213 0.657864 0
M  V30 7334 C 672.334 1.35063 1.41483 0
M  V30 7335 C 672.714 -0.0038314 2.111 0
M  V30 7336 O 672.062 -1.02018 2.04462 0
M  V30 7337 C 672.272 2.53061 2.40335 0
M  V30 7338 C 673.62 2.9594 3.04474 0
M  V30 7339 O 674.644 2.53074 2.50663 0
M  V30 7340 O 673.503 3.70184 4.02027 0
M  V30 7341 H 670.597 0.533517 0.631893 0
M  V30 7342 H 673.143 1.55253 0.685162 0
M  V30 7343 H 671.915 3.43283 1.87809 0
M  V30 7344 H 671.538 2.34945 3.20759 0
M  V30 7345 N 672.536 -0.895792 1.29666 0
M  V30 7346 C 673.784 -1.64339 1.17631 0
M  V30 7347 C 674.105 -1.93099 -0.271643 0
M  V30 7348 O 673.375 -1.55981 -1.18518 0
M  V30 7349 H 671.955 -0.609162 0.432354 0
M  V30 7350 H 674.617 -1.07389 1.62646 0
M  V30 7351 H 673.713 -2.59815 1.72924 0
M  V30 7352 N 674.014 -1.12206 -1.10668 0
M  V30 7353 C 675.262 -0.874144 -1.82217 0
M  V30 7354 C 675.583 0.601736 -1.85484 0
M  V30 7355 O 674.853 1.43725 -1.33116 0
M  V30 7356 H 673.433 -0.320404 -0.674797 0
M  V30 7357 H 676.095 -1.41606 -1.33917 0
M  V30 7358 H 675.191 -1.25349 -2.85822 0
M  V30 7359 N 675.492 1.28418 -0.913599 0
M  V30 7360 C 676.422 2.29713 -0.418847 0
M  V30 7361 C 677.403 1.62165 0.513469 0
M  V30 7362 O 678.588 1.89576 0.421235 0
M  V30 7363 C 675.718 3.45612 0.342042 0
M  V30 7364 C 674.672 4.25056 -0.501123 0
M  V30 7365 C 673.998 5.3329 0.388097 0
M  V30 7366 C 675.298 4.91814 -1.75831 0
M  V30 7367 H 676.992 2.71346 -1.26538 0
M  V30 7368 H 674.538 1.30446 -0.609903 0
M  V30 7369 H 676.491 4.15562 0.699 0
M  V30 7370 H 675.215 3.02858 1.22248 0
M  V30 7371 H 673.874 3.56833 -0.840598 0
M  V30 7372 H 673.522 4.8678 1.26707 0
M  V30 7373 H 673.222 5.87347 -0.172459 0
M  V30 7374 H 674.746 6.06088 0.74094 0
M  V30 7375 H 676.16 5.54126 -1.47026 0
M  V30 7376 H 674.557 5.55866 -2.26126 0
M  V30 7377 H 675.627 4.16313 -2.4862 0
M  V30 7378 N 676.97 0.677563 1.42291 0
M  V30 7379 C 678.216 0.201272 2.01799 0
M  V30 7380 C 678.549 -1.19004 1.53465 0
M  V30 7381 O 677.824 -1.79953 0.738039 0
M  V30 7382 C 678.107 0.238968 3.59306 0
M  V30 7383 C 677.96 1.66594 4.17812 0
M  V30 7384 C 679.279 -0.411287 4.38174 0
M  V30 7385 H 676.398 0.0746114 0.733214 0
M  V30 7386 H 679.04 0.862872 1.69276 0
M  V30 7387 H 677.19 -0.324368 3.87144 0
M  V30 7388 H 678.862 2.28173 4.00917 0
M  V30 7389 H 677.105 2.20576 3.73536 0
M  V30 7390 H 677.776 1.64398 5.26951 0
M  V30 7391 H 680.252 0.0682804 4.16044 0
M  V30 7392 H 679.128 -0.354286 5.47755 0
M  V30 7393 H 679.389 -1.4893 4.1626 0
M  V30 7394 N 678.448 -1.51871 0.421078 0
M  V30 7395 C 679.688 -2.03848 -0.150167 0
M  V30 7396 C 680.052 -1.29925 -1.41363 0
M  V30 7397 O 681.253 -1.7219 -2.06408 0
M  V30 7398 C 679.524 -3.55374 -0.38003 0
M  V30 7399 S 681.083 -4.29111 -0.917011 0
M  V30 7400 H 677.901 -0.709904 -0.0394639 0
M  V30 7401 H 680.503 -1.86799 0.576746 0
M  V30 7402 H 679.207 -4.0675 0.546122 0
M  V30 7403 H 678.738 -3.76687 -1.13448 0
M  V30 7404 H 680.753 -4.44944 -2.19635 0
M  V30 7405 N 679.926 -0.151884 -1.56866 0
M  V30 7406 C 681.337 0.368128 -1.83035 0
M  V30 7407 C 681.688 1.64402 -1.07082 0
M  V30 7408 O 680.813 2.14056 -0.317647 0
M  V30 7409 C 681.408 0.674676 -3.32014 0
M  V30 7410 C 679.967 1.13919 -3.58747 0
M  V30 7411 C 679.114 0.164833 -2.7681 0
M  V30 7412 H 682.065 -0.376499 -1.54169 0
M  V30 7413 H 682.086 1.52883 -3.48435 0
M  V30 7414 H 681.598 -0.254113 -3.87267 0
M  V30 7415 H 679.699 2.08375 -3.08886 0
M  V30 7416 H 679.812 1.06179 -4.67186 0
M  V30 7417 H 678.176 0.658419 -2.46043 0
M  V30 7418 H 678.959 -0.757633 -3.34836 0
M  V30 7419 N 681.404 1.57128 0.121893 0
M  V30 7420 C 682.634 1.88609 0.843227 0
M  V30 7421 C 683.042 0.740917 1.74089 0
M  V30 7422 O 682.385 -0.297426 1.81276 0
M  V30 7423 C 682.447 3.15073 1.73117 0
M  V30 7424 C 682.111 4.45742 1.0081 0
M  V30 7425 C 683.108 5.18719 0.350255 0
M  V30 7426 C 680.793 4.92444 0.99014 0
M  V30 7427 C 682.787 6.36617 -0.315889 0
M  V30 7428 C 680.474 6.10261 0.320196 0
M  V30 7429 C 681.472 6.82194 -0.331666 0
M  V30 7430 O 681.16 7.97769 -0.990927 0
M  V30 7431 H 680.892 0.628919 0.247865 0
M  V30 7432 H 683.446 2.05096 0.111725 0
M  V30 7433 H 681.676 2.9466 2.50424 0
M  V30 7434 H 683.365 3.32597 2.32667 0
M  V30 7435 H 684.131 4.83693 0.35577 0
M  V30 7436 H 680.01 4.36361 1.48695 0
M  V30 7437 H 683.554 6.92701 -0.825272 0
M  V30 7438 H 679.451 6.44743 0.312433 0
M  V30 7439 H 680.219 8.13591 -0.895113 0
M  V30 7440 N 682.882 -0.391992 1.52647 0
M  V30 7441 C 683.815 -1.50019 1.71958 0
M  V30 7442 C 684.793 -1.5238 0.567365 0
M  V30 7443 O 685.977 -1.70831 0.796806 0
M  V30 7444 C 683.104 -2.88496 1.77447 0
M  V30 7445 C 682.15 -3.03974 2.99169 0
M  V30 7446 S 682.983 -2.75487 4.59203 0
M  V30 7447 C 684.139 -4.16163 4.67503 0
M  V30 7448 H 684.372 -1.33413 2.65685 0
M  V30 7449 H 681.905 -0.584674 1.42902 0
M  V30 7450 H 683.863 -3.68296 1.81296 0
M  V30 7451 H 682.524 -3.02431 0.848188 0
M  V30 7452 H 681.717 -4.05328 2.99542 0
M  V30 7453 H 681.319 -2.32062 2.93297 0
M  V30 7454 H 683.611 -5.10048 4.45934 0
M  V30 7455 H 684.554 -4.20806 5.69498 0
M  V30 7456 H 684.962 -4.01933 3.96371 0
M  V30 7457 N 684.36 -1.4356 -0.65026 0
M  V30 7458 C 685.27 -1.514 -1.79207 0
M  V30 7459 C 686.286 -0.400895 -1.69319 0
M  V30 7460 O 687.462 -0.655458 -1.90436 0
M  V30 7461 C 684.527 -1.43737 -3.155 0
M  V30 7462 C 683.588 -2.65743 -3.37163 0
M  V30 7463 C 682.821 -2.58436 -4.66954 0
M  V30 7464 O 683.044 -1.63374 -5.46503 0
M  V30 7465 O 681.978 -3.48984 -4.90402 0
M  V30 7466 H 685.804 -2.47825 -1.75547 0
M  V30 7467 H 683.389 -1.25594 -0.809111 0
M  V30 7468 H 685.271 -1.41916 -3.96784 0
M  V30 7469 H 683.946 -0.504488 -3.19745 0
M  V30 7470 H 682.853 -2.73136 -2.55632 0
M  V30 7471 H 684.186 -3.58014 -3.37768 0
M  V30 7472 N 685.838 0.888903 -1.30139 0
M  V30 7473 C 687.085 1.64037 -1.18736 0
M  V30 7474 C 687.413 1.92771 0.258801 0
M  V30 7475 O 686.668 1.54427 1.20212 0
M  V30 7476 C 686.967 2.99041 -1.95728 0
M  V30 7477 C 686.633 2.89874 -3.45375 0
M  V30 7478 C 685.295 2.87082 -3.86183 0
M  V30 7479 C 687.647 2.78289 -4.40687 0
M  V30 7480 C 684.975 2.70536 -5.20603 0
M  V30 7481 C 687.327 2.63282 -5.75209 0
M  V30 7482 C 685.991 2.58861 -6.15262 0
M  V30 7483 H 685.261 0.600253 -0.434485 0
M  V30 7484 H 687.908 1.0338 -1.61198 0
M  V30 7485 H 686.213 3.63626 -1.45888 0
M  V30 7486 H 687.91 3.56139 -1.843 0
M  V30 7487 H 684.5 2.92856 -3.12943 0
M  V30 7488 H 688.684 2.79516 -4.10103 0
M  V30 7489 H 683.94 2.65526 -5.50732 0
M  V30 7490 H 688.114 2.5329 -6.48704 0
M  V30 7491 H 685.741 2.45799 -7.19366 0
M  V30 7492 N 687.317 1.12792 1.10072 0
M  V30 7493 C 688.564 0.885545 1.82111 0
M  V30 7494 C 688.892 -0.588519 1.85383 0
M  V30 7495 O 688.147 -1.45124 1.31292 0
M  V30 7496 C 688.446 1.4102 3.28403 0
M  V30 7497 C 688.112 2.89995 3.45273 0
M  V30 7498 C 686.774 3.30671 3.49585 0
M  V30 7499 C 689.126 3.85874 3.50358 0
M  V30 7500 C 686.454 4.65925 3.56553 0
M  V30 7501 C 688.806 5.20963 3.58859 0
M  V30 7502 C 687.47 5.61177 3.61437 0
M  V30 7503 H 686.74 0.324044 0.666391 0
M  V30 7504 H 689.387 1.40874 1.29718 0
M  V30 7505 H 687.692 0.807551 3.83387 0
M  V30 7506 H 689.389 1.19882 3.82661 0
M  V30 7507 H 685.979 2.57537 3.42597 0
M  V30 7508 H 690.163 3.5554 3.46273 0
M  V30 7509 H 685.419 4.96468 3.56833 0
M  V30 7510 H 689.593 5.95079 3.61738 0
M  V30 7511 H 687.22 6.6597 3.66589 0
M  V30 7512 N 688.795 -1.27931 0.920396 0
M  V30 7513 C 689.742 -2.27085 0.412422 0
M  V30 7514 C 690.712 -1.57858 -0.516725 0
M  V30 7515 O 691.897 -1.85717 -0.437475 0
M  V30 7516 C 689.037 -3.43466 -0.335399 0
M  V30 7517 C 688.15 -4.27425 0.627017 0
M  V30 7518 C 687.285 -5.31016 -0.139916 0
M  V30 7519 C 686.324 -6.06641 0.815683 0
M  V30 7520 N 685.461 -7.02052 0.0818439 0
M  V30 7521 H 690.301 -2.69913 1.26298 0
M  V30 7522 H 687.838 -1.32732 0.634076 0
M  V30 7523 H 689.796 -4.09744 -0.785226 0
M  V30 7524 H 688.426 -3.01611 -1.15025 0
M  V30 7525 H 687.478 -3.6113 1.19537 0
M  V30 7526 H 688.79 -4.79969 1.35763 0
M  V30 7527 H 687.944 -6.03208 -0.649998 0
M  V30 7528 H 686.683 -4.79257 -0.903543 0
M  V30 7529 H 685.688 -5.33294 1.33708 0
M  V30 7530 H 686.913 -6.60489 1.57897 0
M  V30 7531 H 684.859 -6.52634 -0.663671 0
M  V30 7532 H 684.776 -7.52249 0.752163 0
M  V30 7533 H 686.044 -7.78432 -0.407825 0
M  V30 7534 N 690.273 -0.685099 -1.4193 0
M  V30 7535 C 691.221 -0.00165985 -2.326 0
M  V30 7536 C 692.215 0.779678 -1.50391 0
M  V30 7537 O 693.421 0.68648 -1.66395 0
M  V30 7538 H 689.796 0.0182616 -0.751778 0
M  V30 7539 H 691.767 -0.783592 -2.87928 0
M  V30 7540 C 690.516 0.928385 -3.35077 0
M  V30 7541 H 689.839 0.336578 -3.98381 0
M  V30 7542 H 691.279 1.37509 -4.01083 0
M  V30 7543 C 689.738 2.03964 -2.68142 0
M  V30 7544 O 690.268 3.12727 -2.5212 0
M  V30 7545 N 688.474 1.81433 -2.27003 0
M  V30 7546 H 688.021 0.929807 -2.40234 0
M  V30 7547 H 687.979 2.55973 -1.82552 0
M  V30 7548 N 691.751 1.51645 -0.429126 0
M  V30 7549 C 692.661 2.31288 0.392809 0
M  V30 7550 C 693.677 1.39852 1.03525 0
M  V30 7551 O 694.853 1.72926 1.03241 0
M  V30 7552 C 691.918 3.13347 1.48372 0
M  V30 7553 C 690.979 4.20551 0.862268 0
M  V30 7554 C 690.212 4.98688 1.9012 0
M  V30 7555 O 690.435 4.77359 3.12225 0
M  V30 7556 O 689.369 5.83005 1.4963 0
M  V30 7557 H 693.195 3.02609 -0.257138 0
M  V30 7558 H 690.78 1.48163 -0.191851 0
M  V30 7559 H 692.662 3.64387 2.1166 0
M  V30 7560 H 691.337 2.44799 2.1179 0
M  V30 7561 H 690.244 3.73609 0.191568 0
M  V30 7562 H 691.577 4.91449 0.271704 0
M  V30 7563 N 693.229 0.160201 1.56784 0
M  V30 7564 C 694.177 -0.791402 2.18723 0
M  V30 7565 C 695.171 -1.24567 1.14801 0
M  V30 7566 O 696.377 -1.21262 1.33025 0
M  V30 7567 H 692.752 -0.273458 0.700517 0
M  V30 7568 H 694.723 -0.244931 2.97393 0
M  V30 7569 C 693.472 -2.01509 2.83354 0
M  V30 7570 H 692.795 -1.67454 3.63041 0
M  V30 7571 H 694.235 -2.66006 3.30177 0
M  V30 7572 C 692.694 -2.83159 1.82545 0
M  V30 7573 O 693.224 -3.79944 1.30405 0
M  V30 7574 N 691.43 -2.47953 1.51552 0
M  V30 7575 H 690.977 -1.69309 1.94144 0
M  V30 7576 H 690.935 -3.02873 0.843519 0
M  V30 7577 N 694.707 -1.5719 -0.113559 0
M  V30 7578 C 695.655 -2.01725 -1.158 0
M  V30 7579 C 696.649 -0.915105 -1.42556 0
M  V30 7580 O 697.855 -1.10031 -1.42454 0
M  V30 7581 H 694.23 -0.64262 -0.390569 0
M  V30 7582 H 696.201 -2.88666 -0.755926 0
M  V30 7583 C 694.95 -2.44203 -2.47507 0
M  V30 7584 H 694.273 -3.28582 -2.27758 0
M  V30 7585 H 695.713 -2.79158 -3.19135 0
M  V30 7586 C 694.172 -1.30785 -3.10478 0
M  V30 7587 O 694.702 -0.626807 -3.9678 0
M  V30 7588 N 692.908 -1.06352 -2.7044 0
M  V30 7589 H 692.455 -1.61913 -2.00355 0
M  V30 7590 H 692.413 -0.306614 -3.12901 0
M  V30 7591 N 696.185 0.383891 -1.52853 0
M  V30 7592 C 697.095 1.49343 -1.80925 0
M  V30 7593 C 698.111 1.59458 -0.696348 0
M  V30 7594 O 699.287 1.75698 -0.984481 0
M  V30 7595 C 696.352 2.84819 -1.97684 0
M  V30 7596 C 695.413 2.84382 -3.21598 0
M  V30 7597 C 694.646 4.13397 -3.37548 0
M  V30 7598 O 694.869 5.08619 -2.58192 0
M  V30 7599 O 693.803 4.20325 -4.30826 0
M  V30 7600 H 697.629 1.2855 -2.75152 0
M  V30 7601 H 695.214 0.572229 -1.38007 0
M  V30 7602 H 697.096 3.65125 -2.10385 0
M  V30 7603 H 695.771 3.05627 -1.06647 0
M  V30 7604 H 694.678 2.0284 -3.14336 0
M  V30 7605 H 696.011 2.68526 -4.12498 0
M  V30 7606 N 697.663 1.43903 0.642637 0
M  V30 7607 C 698.593 1.52697 1.76652 0
M  V30 7608 C 699.574 0.380816 1.65782 0
M  V30 7609 O 700.759 0.599432 1.84717 0
M  V30 7610 C 697.889 1.45975 3.15133 0
M  V30 7611 C 696.843 2.58949 3.40778 0
M  V30 7612 C 696.169 2.37279 4.79169 0
M  V30 7613 C 697.469 4.01153 3.34475 0
M  V30 7614 H 699.163 2.46766 1.69549 0
M  V30 7615 H 696.709 1.18767 0.814279 0
M  V30 7616 H 698.662 1.5073 3.93521 0
M  V30 7617 H 697.386 0.484162 3.22991 0
M  V30 7618 H 696.045 2.53564 2.64765 0
M  V30 7619 H 695.693 1.37939 4.83717 0
M  V30 7620 H 695.393 3.13016 4.97287 0
M  V30 7621 H 696.917 2.43834 5.59801 0
M  V30 7622 H 698.331 4.07968 4.02784 0
M  V30 7623 H 696.728 4.77001 3.64129 0
M  V30 7624 H 697.798 4.25539 2.32475 0
M  V30 7625 N 699.141 -0.881989 1.30609 0
M  V30 7626 C 700.552 -1.44956 1.17664 0
M  V30 7627 C 700.903 -1.94945 -0.221531 0
M  V30 7628 O 700.028 -1.85257 -1.11844 0
M  V30 7629 C 700.623 -2.63474 2.12995 0
M  V30 7630 C 699.182 -3.16312 2.04019 0
M  V30 7631 C 698.329 -1.89008 2.02907 0
M  V30 7632 H 701.28 -0.691645 1.42835 0
M  V30 7633 H 701.301 -3.39783 1.71253 0
M  V30 7634 H 700.813 -2.2706 3.14746 0
M  V30 7635 H 698.914 -3.57376 1.0542 0
M  V30 7636 H 699.027 -3.79409 2.9255 0
M  V30 7637 H 697.391 -2.07465 1.47751 0
M  V30 7638 H 698.174 -1.54848 3.06394 0
M  V30 7639 N 700.619 -1.13374 -1.09472 0
M  V30 7640 C 701.566 -0.810682 -2.16094 0
M  V30 7641 C 702.536 0.227003 -1.64541 0
M  V30 7642 O 703.721 0.0993538 -1.90541 0
M  V30 7643 C 700.861 -0.282336 -3.43943 0
M  V30 7644 C 699.974 -1.37902 -4.09398 0
M  V30 7645 C 699.109 -0.809066 -5.25002 0
M  V30 7646 C 698.148 -1.88419 -5.82379 0
M  V30 7647 N 697.285 -1.33221 -6.89345 0
M  V30 7648 H 702.125 -1.72397 -2.43071 0
M  V30 7649 H 699.662 -0.860564 -1.19301 0
M  V30 7650 H 701.62 0.0421189 -4.17179 0
M  V30 7651 H 700.25 0.594083 -3.17286 0
M  V30 7652 H 699.302 -1.82008 -3.34032 0
M  V30 7653 H 700.614 -2.19161 -4.48074 0
M  V30 7654 H 699.768 -0.435867 -6.05132 0
M  V30 7655 H 698.507 0.0346058 -4.87688 0
M  V30 7656 H 697.512 -2.26646 -5.00911 0
M  V30 7657 H 698.737 -2.73125 -6.21755 0
M  V30 7658 H 696.683 -0.510535 -6.5401 0
M  V30 7659 H 696.6 -2.08129 -7.26786 0
M  V30 7660 H 697.868 -0.986565 -7.73232 0
M  V30 7661 N 702.098 1.27442 -0.927168 0
M  V30 7662 C 703.028 2.29256 -0.443188 0
M  V30 7663 C 704.009 1.62701 0.49624 0
M  V30 7664 O 705.194 1.90013 0.401105 0
M  V30 7665 C 702.324 3.45955 0.305366 0
M  V30 7666 C 701.278 4.24501 -0.546178 0
M  V30 7667 C 700.604 5.33671 0.331512 0
M  V30 7668 C 701.904 4.89921 -1.81037 0
M  V30 7669 H 703.598 2.69988 -1.29409 0
M  V30 7670 H 701.144 1.29792 -0.623705 0
M  V30 7671 H 703.097 4.1628 0.654885 0
M  V30 7672 H 701.821 3.04138 1.19029 0
M  V30 7673 H 700.48 3.55921 -0.878398 0
M  V30 7674 H 700.128 4.88096 1.21537 0
M  V30 7675 H 699.828 5.87131 -0.234746 0
M  V30 7676 H 701.352 6.0684 0.676614 0
M  V30 7677 H 702.766 5.52536 -1.52895 0
M  V30 7678 H 701.163 5.53436 -2.32009 0
M  V30 7679 H 702.233 4.13652 -2.53021 0
M  V30 7680 N 703.576 0.692616 1.41565 0
M  V30 7681 C 704.508 -0.0137132 2.29196 0
M  V30 7682 C 705.521 -0.747417 1.44629 0
M  V30 7683 O 706.71 -0.598611 1.68163 0
M  V30 7684 C 703.81 -1.04347 3.22436 0
M  V30 7685 C 702.983 -0.379985 4.35746 0
M  V30 7686 C 702.042 -1.31195 5.09583 0
M  V30 7687 O 701.068 -0.805455 5.63472 0
M  V30 7688 N 702.27 -2.64443 5.16769 0
M  V30 7689 H 705.035 0.738614 2.90456 0
M  V30 7690 H 702.596 0.538415 1.52685 0
M  V30 7691 H 704.588 -1.6686 3.687 0
M  V30 7692 H 703.158 -1.69736 2.62504 0
M  V30 7693 H 702.378 0.424975 3.91903 0
M  V30 7694 H 703.666 0.0814904 5.08735 0
M  V30 7695 H 703.064 -3.08114 4.74428 0
M  V30 7696 H 701.621 -3.22159 5.66619 0
M  V30 7697 N 705.054 -1.51416 0.437162 0
M  V30 7698 C 706.3 -2.03035 -0.121818 0
M  V30 7699 C 706.655 -1.31551 -1.404 0
M  V30 7700 O 705.948 -0.421623 -1.86903 0
M  V30 7701 C 706.142 -3.55203 -0.39564 0
M  V30 7702 C 705.971 -4.4143 0.858452 0
M  V30 7703 C 704.741 -4.85751 1.39192 0
M  V30 7704 C 706.939 -4.83808 1.74454 0
M  V30 7705 N 704.921 -5.5619 2.59857 0
M  V30 7706 C 706.292 -5.53312 2.79724 0
M  V30 7707 C 708.347 -4.65795 1.75897 0
M  V30 7708 C 707.05 -6.06713 3.86383 0
M  V30 7709 C 709.076 -5.20112 2.81492 0
M  V30 7710 C 708.438 -5.89562 3.85482 0
M  V30 7711 H 704.537 -0.781981 -0.00541671 0
M  V30 7712 H 707.121 -1.85296 0.597792 0
M  V30 7713 H 705.292 -3.72958 -1.08429 0
M  V30 7714 H 707.024 -3.93489 -0.945963 0
M  V30 7715 H 703.779 -4.64058 0.945879 0
M  V30 7716 H 704.203 -5.96037 3.21044 0
M  V30 7717 H 708.845 -4.11562 0.968306 0
M  V30 7718 H 706.563 -6.6 4.66288 0
M  V30 7719 H 710.149 -5.08026 2.83551 0
M  V30 7720 H 709.029 -6.30838 4.65847 0
M  V30 7721 N 706.532 -0.168513 -1.56696 0
M  V30 7722 C 707.762 0.482802 -2.0088 0
M  V30 7723 C 708.17 1.57537 -1.0478 0
M  V30 7724 O 707.513 1.83656 -0.0402746 0
M  V30 7725 C 707.575 1.1236 -3.4149 0
M  V30 7726 C 707.239 0.173027 -4.56672 0
M  V30 7727 C 708.236 -0.607565 -5.16338 0
M  V30 7728 C 705.921 0.0696691 -5.02252 0
M  V30 7729 C 707.915 -1.47874 -6.2001 0
M  V30 7730 C 705.602 -0.805096 -6.05773 0
M  V30 7731 C 706.6 -1.57789 -6.64524 0
M  V30 7732 O 706.288 -2.43804 -7.66038 0
M  V30 7733 H 706.02 0.128246 -0.663723 0
M  V30 7734 H 708.574 -0.266532 -2.03663 0
M  V30 7735 H 706.804 1.921 -3.35611 0
M  V30 7736 H 708.493 1.67683 -3.69645 0
M  V30 7737 H 709.259 -0.53787 -4.82008 0
M  V30 7738 H 705.138 0.660957 -4.56237 0
M  V30 7739 H 708.682 -2.0824 -6.65794 0
M  V30 7740 H 704.579 -0.876005 -6.39528 0
M  V30 7741 H 705.347 -2.37289 -7.83349 0
M  V30 7742 N 708.01 1.57248 0.105221 0
M  V30 7743 C 708.957 2.01338 1.12835 0
M  V30 7744 C 709.927 0.887897 1.40377 0
M  V30 7745 O 711.112 1.15315 1.5201 0
M  V30 7746 C 708.252 2.43432 2.44611 0
M  V30 7747 C 707.365 3.69457 2.23888 0
M  V30 7748 C 706.5 4.00473 3.48991 0
M  V30 7749 C 705.539 5.19638 3.23485 0
M  V30 7750 N 704.676 5.46457 4.40828 0
M  V30 7751 H 709.516 2.88527 0.745386 0
M  V30 7752 H 707.053 1.42714 0.356535 0
M  V30 7753 H 709.011 2.65879 3.21503 0
M  V30 7754 H 707.641 1.59266 2.80774 0
M  V30 7755 H 706.693 3.54545 1.37847 0
M  V30 7756 H 708.005 4.56497 2.01026 0
M  V30 7757 H 707.159 4.23642 4.34295 0
M  V30 7758 H 705.898 3.11935 3.74897 0
M  V30 7759 H 704.903 4.96299 2.36574 0
M  V30 7760 H 706.128 6.09766 2.98935 0
M  V30 7761 H 704.074 4.60876 4.66829 0
M  V30 7762 H 703.991 6.27849 4.2112 0
M  V30 7763 H 705.259 5.74155 5.27225 0
M  V30 7764 N 709.488 -0.375779 1.53054 0
M  V30 7765 C 710.765 -1.13453 1.59336 0
M  V30 7766 C 711.145 -2.07379 0.394614 0
M  V30 7767 O 710.493 -2.2004 -0.616 0
M  V30 7768 C 710.703 -1.8826 2.93869 0
M  V30 7769 C 712.051 -2.43155 3.48081 0
M  V30 7770 O 713.075 -1.984 2.95831 0
M  V30 7771 O 711.934 -3.24944 4.39401 0
M  V30 7772 H 709.028 -0.519856 0.643179 0
M  V30 7773 H 711.574 -0.379865 1.65394 0
M  V30 7774 H 710.346 -1.19652 3.72558 0
M  V30 7775 H 709.969 -2.70658 2.91256 0
M  V30 7776 N 710.966 -1.44241 -0.634997 0
M  V30 7777 C 712.206 -1.48339 -1.40623 0
M  V30 7778 C 712.57 -0.111479 -1.91676 0
M  V30 7779 O 713.771 -0.0271345 -2.68786 0
M  V30 7780 C 712.042 -2.51122 -2.54308 0
M  V30 7781 S 713.601 -2.74237 -3.42548 0
M  V30 7782 H 710.419 -0.524715 -0.479787 0
M  V30 7783 H 713.021 -1.81138 -0.735489 0
M  V30 7784 H 711.725 -3.49511 -2.15106 0
M  V30 7785 H 711.256 -2.19883 -3.26213 0
M  V30 7786 H 713.271 -2.0554 -4.51628 0
M  V30 7787 N 712.444 0.87505 -1.31075 0
M  V30 7788 C 713.391 1.98178 -1.18296 0
M  V30 7789 C 714.361 1.65952 -0.0699923 0
M  V30 7790 O 715.546 1.8926 -0.241951 0
M  V30 7791 C 712.686 3.33399 -0.891024 0
M  V30 7792 C 711.799 3.78253 -2.08684 0
M  V30 7793 C 710.934 5.02166 -1.73212 0
M  V30 7794 C 709.973 5.39455 -2.89231 0
M  V30 7795 N 709.11 6.54549 -2.53989 0
M  V30 7796 H 713.95 2.0844 -2.12971 0
M  V30 7797 H 711.487 1.02047 -1.05948 0
M  V30 7798 H 713.445 4.11246 -0.702338 0
M  V30 7799 H 712.075 3.22794 0.0188799 0
M  V30 7800 H 711.127 2.9623 -2.38646 0
M  V30 7801 H 712.439 4.01821 -2.95536 0
M  V30 7802 H 711.593 5.87666 -1.50777 0
M  V30 7803 H 710.332 4.80491 -0.83544 0
M  V30 7804 H 709.337 4.52477 -3.12321 0
M  V30 7805 H 710.562 5.63098 -3.79601 0
M  V30 7806 H 708.508 6.3443 -1.66838 0
M  V30 7807 H 708.425 6.78035 -3.34372 0
M  V30 7808 H 709.693 7.43254 -2.34934 0
M  V30 7809 N 713.922 1.13953 1.08869 0
M  V30 7810 C 715.333 0.916649 1.62648 0
M  V30 7811 C 715.684 -0.545589 1.88462 0
M  V30 7812 O 714.809 -1.41351 1.63856 0
M  V30 7813 C 715.404 1.65751 2.95486 0
M  V30 7814 C 713.963 1.48034 3.46068 0
M  V30 7815 C 713.11 1.68305 2.20383 0
M  V30 7816 H 716.061 1.292 0.921572 0
M  V30 7817 H 716.082 1.11794 3.63707 0
M  V30 7818 H 715.594 2.72171 2.76667 0
M  V30 7819 H 713.695 0.439416 3.7 0
M  V30 7820 H 713.808 2.24719 4.23129 0
M  V30 7821 H 712.172 1.10833 2.29321 0
M  V30 7822 H 712.955 2.76057 2.04077 0
M  V30 7823 N 715.4 -1.26948 0.933913 0
M  V30 7824 C 716.33 -2.29017 0.45534 0
M  V30 7825 C 717.311 -1.62961 -0.487605 0
M  V30 7826 O 718.496 -1.90223 -0.391022 0
M  V30 7827 C 715.626 -3.46112 -0.287015 0
M  V30 7828 C 714.58 -4.24205 0.568682 0
M  V30 7829 C 713.906 -5.3384 -0.303206 0
M  V30 7830 C 715.206 -4.88954 1.83633 0
M  V30 7831 H 716.9 -2.69298 1.30839 0
M  V30 7832 H 714.446 -1.29459 0.630579 0
M  V30 7833 H 716.399 -4.16622 -0.6328 0
M  V30 7834 H 715.123 -3.04765 -1.17414 0
M  V30 7835 H 713.782 -3.5545 0.897261 0
M  V30 7836 H 713.43 -4.88734 -1.18947 0
M  V30 7837 H 713.13 -5.86998 0.265879 0
M  V30 7838 H 714.654 -6.0719 -0.644423 0
M  V30 7839 H 716.068 -5.51717 1.55823 0
M  V30 7840 H 714.465 -5.52198 2.34941 0
M  V30 7841 H 715.535 -4.12305 2.55211 0
M  V30 7842 N 716.879 -0.700114 -1.41195 0
M  V30 7843 C 717.809 -0.0521132 -2.33442 0
M  V30 7844 C 718.79 0.76228 -1.52063 0
M  V30 7845 O 719.975 0.714336 -1.80585 0
M  V30 7846 C 717.105 0.881693 -3.35922 0
M  V30 7847 C 716.059 0.174062 -4.27646 0
M  V30 7848 C 715.385 1.22254 -5.20536 0
M  V30 7849 C 716.685 -0.962396 -5.13357 0
M  V30 7850 H 718.379 -0.822574 -2.87879 0
M  V30 7851 H 715.925 -0.397011 -1.38419 0
M  V30 7852 H 717.878 1.34429 -3.99383 0
M  V30 7853 H 716.602 1.68387 -2.79845 0
M  V30 7854 H 715.261 -0.268551 -3.65615 0
M  V30 7855 H 714.909 2.01736 -4.60773 0
M  V30 7856 H 714.609 0.754038 -5.82742 0
M  V30 7857 H 716.133 1.68555 -5.86874 0
M  V30 7858 H 717.547 -0.579875 -5.7036 0
M  V30 7859 H 715.944 -1.35828 -5.84526 0
M  V30 7860 H 717.014 -1.80003 -4.50252 0
M  V30 7861 N 718.357 1.51182 -0.445186 0
M  V30 7862 C 719.287 2.30821 0.352686 0
M  V30 7863 C 720.268 1.36576 1.01395 0
M  V30 7864 O 721.453 1.65497 1.01609 0
M  V30 7865 C 718.583 3.15593 1.44976 0
M  V30 7866 C 717.537 4.1818 0.911553 0
M  V30 7867 C 716.863 4.91523 2.10497 0
M  V30 7868 C 718.163 5.22266 -0.059418 0
M  V30 7869 H 719.857 2.97771 -0.311936 0
M  V30 7870 H 717.403 1.43201 -0.151461 0
M  V30 7871 H 719.356 3.70091 2.01521 0
M  V30 7872 H 718.08 2.4648 2.14278 0
M  V30 7873 H 716.739 3.64746 0.368264 0
M  V30 7874 H 716.387 4.18906 2.78437 0
M  V30 7875 H 716.087 5.60898 1.7512 0
M  V30 7876 H 717.611 5.48847 2.6758 0
M  V30 7877 H 719.025 5.71789 0.415985 0
M  V30 7878 H 717.422 5.99213 -0.326152 0
M  V30 7879 H 718.492 4.7461 -0.993631 0
M  V30 7880 N 719.835 0.176821 1.56605 0
M  V30 7881 C 721.112 -0.513365 1.88743 0
M  V30 7882 C 721.492 -1.80929 1.08757 0
M  V30 7883 O 720.84 -2.27765 0.183127 0
M  V30 7884 C 721.05 -0.749925 3.40848 0
M  V30 7885 C 722.398 -1.07747 4.10701 0
M  V30 7886 O 723.422 -0.838277 3.46196 0
M  V30 7887 O 722.281 -1.52901 5.24675 0
M  V30 7888 H 719.375 -0.265296 0.783292 0
M  V30 7889 H 721.921 0.215669 1.68324 0
M  V30 7890 H 720.693 0.16599 3.90948 0
M  V30 7891 H 720.316 -1.53208 3.66897 0
M  V30 7892 N 721.313 -1.57302 -0.09688 0
M  V30 7893 C 722.261 -2.02942 -1.13654 0
M  V30 7894 C 723.255 -0.930173 -1.41577 0
M  V30 7895 O 724.461 -1.11535 -1.41279 0
M  V30 7896 H 720.836 -0.646726 -0.383731 0
M  V30 7897 H 722.807 -2.89452 -0.725267 0
M  V30 7898 C 721.556 -2.46815 -2.44903 0
M  V30 7899 H 720.879 -3.30979 -2.24261 0
M  V30 7900 H 722.319 -2.82527 -3.16156 0
M  V30 7901 C 720.778 -1.34071 -3.09074 0
M  V30 7902 O 721.308 -0.668856 -3.96092 0
M  V30 7903 N 719.514 -1.09214 -2.69296 0
M  V30 7904 H 719.061 -1.64029 -1.98626 0
M  V30 7905 H 719.019 -0.339785 -3.12559 0
M  V30 7906 N 722.791 0.367657 -1.53252 0
M  V30 7907 C 724.04 1.10782 -1.68554 0
M  V30 7908 C 724.353 1.90523 -0.442765 0
M  V30 7909 O 725.559 2.6729 -0.47629 0
M  V30 7910 C 724.015 2.01863 -2.97959 0
M  V30 7911 C 723.623 1.27443 -4.29491 0
M  V30 7912 C 725.367 2.75883 -3.22628 0
M  V30 7913 C 723.274 2.17414 -5.49987 0
M  V30 7914 H 722.204 0.417272 -0.628013 0
M  V30 7915 H 724.855 0.368971 -1.79752 0
M  V30 7916 H 723.237 2.7947 -2.80558 0
M  V30 7917 H 724.411 0.549138 -4.57516 0
M  V30 7918 H 722.726 0.652935 -4.11249 0
M  V30 7919 H 725.323 3.43421 -4.09837 0
M  V30 7920 H 725.666 3.41138 -2.38601 0
M  V30 7921 H 726.199 2.0536 -3.40693 0
M  V30 7922 H 722.938 1.5674 -6.36485 0
M  V30 7923 H 722.458 2.87799 -5.26243 0
M  V30 7924 H 724.137 2.77019 -5.84696 0
M  V30 7925 N 724.269 1.44576 0.627338 0
M  V30 7926 C 725.219 1.48168 1.73293 0
M  V30 7927 C 726.203 0.347045 1.57113 0
M  V30 7928 O 727.395 0.592605 1.66785 0
M  V30 7929 C 724.524 1.43236 3.11991 0
M  V30 7930 C 723.61 2.61828 3.33627 0
M  V30 7931 N 724.001 3.87053 3.25612 0
M  V30 7932 C 722.299 2.57104 3.64436 0
M  V30 7933 C 723 4.66093 3.48041 0
M  V30 7934 N 721.976 3.97228 3.71095 0
M  V30 7935 H 725.778 2.42832 1.6556 0
M  V30 7936 H 723.292 1.39592 0.829934 0
M  V30 7937 H 725.289 1.43893 3.91281 0
M  V30 7938 H 723.949 0.496133 3.20887 0
M  V30 7939 H 724.96 4.18966 3.04447 0
M  V30 7940 H 721.637 1.72295 3.8029 0
M  V30 7941 H 723.027 5.75117 3.47404 0
M  V30 7942 N 725.747 -0.868086 1.31537 0
M  V30 7943 C 726.994 -1.62127 1.2133 0
M  V30 7944 C 727.322 -1.93158 -0.2281 0
M  V30 7945 O 726.577 -1.5632 -1.1774 0
M  V30 7946 C 726.876 -2.95889 2.0046 0
M  V30 7947 C 726.542 -2.84343 3.49943 0
M  V30 7948 C 725.204 -2.80901 3.90702 0
M  V30 7949 C 727.556 -2.71243 4.45058 0
M  V30 7950 C 724.884 -2.6222 5.24841 0
M  V30 7951 C 727.236 -2.54098 5.79325 0
M  V30 7952 C 725.9 -2.4904 6.19302 0
M  V30 7953 H 725.17 -0.593265 0.443979 0
M  V30 7954 H 727.817 -1.00803 1.62822 0
M  V30 7955 H 726.122 -3.61259 1.51655 0
M  V30 7956 H 727.819 -3.53161 1.89942 0
M  V30 7957 H 724.409 -2.8784 3.17563 0
M  V30 7958 H 728.593 -2.72956 4.14498 0
M  V30 7959 H 723.849 -2.56731 5.54887 0
M  V30 7960 H 728.023 -2.42938 6.52652 0
M  V30 7961 H 725.65 -2.34324 7.23185 0
M  V30 7962 N 727.225 -1.14528 -1.08264 0
M  V30 7963 C 728.45 -0.938381 -1.84957 0
M  V30 7964 C 728.875 0.508044 -1.81109 0
M  V30 7965 O 728.233 1.36146 -1.19724 0
M  V30 7966 C 728.281 -1.44568 -3.30352 0
M  V30 7967 O 727.385 -0.638745 -4.07423 0
M  V30 7968 H 726.726 -0.335394 -0.573068 0
M  V30 7969 H 729.256 -1.52287 -1.36637 0
M  V30 7970 H 729.266 -1.45449 -3.81194 0
M  V30 7971 H 727.941 -2.49876 -3.32468 0
M  V30 7972 H 726.518 -0.698801 -3.66294 0
M  V30 7973 N 728.703 1.26451 -0.940633 0
M  V30 7974 C 729.951 1.93395 -0.586748 0
M  V30 7975 C 730.272 1.7417 0.876921 0
M  V30 7976 O 729.542 1.097 1.62304 0
M  V30 7977 H 728.122 0.715687 -0.214012 0
M  V30 7978 H 730.784 1.53902 -1.19584 0
M  V30 7979 H 729.88 3.01565 -0.804059 0
M  V30 7980 N 730.181 0.707592 1.40822 0
M  V30 7981 C 731.427 0.244031 2.01326 0
M  V30 7982 C 731.76 -1.15722 1.55955 0
M  V30 7983 O 731.035 -1.78347 0.776044 0
M  V30 7984 C 731.318 0.315128 3.58718 0
M  V30 7985 C 731.171 1.75419 4.14184 0
M  V30 7986 C 732.49 -0.318251 4.38948 0
M  V30 7987 H 729.609 0.0901471 0.731466 0
M  V30 7988 H 732.251 0.898584 1.67408 0
M  V30 7989 H 730.401 -0.242176 3.87744 0
M  V30 7990 H 732.073 2.36626 3.95987 0
M  V30 7991 H 730.316 2.28449 3.68773 0
M  V30 7992 H 730.987 1.75538 5.23345 0
M  V30 7993 H 733.463 0.156514 4.15806 0
M  V30 7994 H 732.339 -0.238019 5.48384 0
M  V30 7995 H 732.6 -1.40067 4.19325 0
M  V30 7996 N 731.66 -1.50943 0.453197 0
M  V30 7997 C 732.607 -2.28128 -0.350197 0
M  V30 7998 C 733.577 -1.32398 -1.00299 0
M  V30 7999 O 734.762 -1.61319 -1.01887 0
M  V30 8000 C 731.902 -3.13782 -1.43649 0
M  V30 8001 C 731.015 -4.24523 -0.800255 0
M  V30 8002 C 730.15 -4.97462 -1.86293 0
M  V30 8003 C 729.189 -6.00102 -1.20598 0
M  V30 8004 N 728.326 -6.66387 -2.21071 0
M  V30 8005 H 733.166 -2.96337 0.31434 0
M  V30 8006 H 730.703 -1.46151 0.166863 0
M  V30 8007 H 732.661 -3.6178 -2.07776 0
M  V30 8008 H 731.291 -2.47655 -2.07044 0
M  V30 8009 H 730.343 -3.80371 -0.0468651 0
M  V30 8010 H 731.655 -4.98009 -0.280777 0
M  V30 8011 H 730.809 -5.49088 -2.58044 0
M  V30 8012 H 729.548 -4.23642 -2.41617 0
M  V30 8013 H 728.553 -5.47753 -0.474 0
M  V30 8014 H 729.778 -6.75887 -0.659859 0
M  V30 8015 H 727.724 -5.9537 -2.75446 0
M  V30 8016 H 727.641 -7.3569 -1.74058 0
M  V30 8017 H 728.909 -7.22638 -2.92257 0
M  V30 8018 N 733.138 -0.185124 -1.56509 0
M  V30 8019 C 734.415 0.503348 -1.89013 0
M  V30 8020 C 734.795 1.80349 -1.09715 0
M  V30 8021 O 734.143 2.27665 -0.195203 0
M  V30 8022 C 734.353 0.731839 -3.41241 0
M  V30 8023 C 735.701 1.05568 -4.11267 0
M  V30 8024 O 736.725 0.819906 -3.46635 0
M  V30 8025 O 735.584 1.50116 -5.25478 0
M  V30 8026 H 732.678 0.261139 -0.784688 0
M  V30 8027 H 735.224 -0.224592 -1.68207 0
M  V30 8028 H 733.996 -0.18672 -3.90854 0
M  V30 8029 H 733.619 1.5126 -3.67704 0
M  V30 8030 N 734.616 1.57351 0.0885366 0
M  V30 8031 C 736.032 1.53331 0.442916 0
M  V30 8032 C 736.232 0.902831 1.80142 0
M  V30 8033 O 735.288 0.498147 2.47537 0
M  V30 8034 C 736.601 2.98036 0.399372 0
M  V30 8035 C 738.149 3.09286 0.480759 0
M  V30 8036 C 738.624 4.5561 0.467296 0
M  V30 8037 N 740.115 4.60182 0.52786 0
M  V30 8038 C 740.85 5.70857 0.539388 0
M  V30 8039 N 740.346 6.90944 0.506729 0
M  V30 8040 N 742.139 5.59051 0.584691 0
M  V30 8041 H 734.29 1.96709 -0.801215 0
M  V30 8042 H 736.553 0.899639 -0.298922 0
M  V30 8043 H 736.259 3.47656 -0.531806 0
M  V30 8044 H 736.133 3.57066 1.21589 0
M  V30 8045 H 738.52 2.5965 1.40236 0
M  V30 8046 H 738.601 2.53197 -0.364023 0
M  V30 8047 H 738.245 5.05899 -0.450384 0
M  V30 8048 H 738.175 5.09544 1.32938 0
M  V30 8049 H 740.666 3.73757 0.558028 0
M  V30 8050 H 740.979 7.71055 0.518989 0
M  V30 8051 H 739.324 6.93384 0.473675 0
M  V30 8052 H 742.515 4.64138 0.607781 0
M  V30 8053 H 742.688 6.45307 0.590206 0
M  V30 8054 N 736.094 -0.359525 1.53444 0
M  V30 8055 C 737.024 -1.44662 1.8329 0
M  V30 8056 C 738.005 -1.55617 0.68683 0
M  V30 8057 O 739.19 -1.70086 0.93725 0
M  V30 8058 C 736.32 -2.81923 2.02822 0
M  V30 8059 C 735.274 -2.85787 3.18606 0
M  V30 8060 C 734.6 -4.25781 3.23442 0
M  V30 8061 C 735.9 -2.52762 4.57065 0
M  V30 8062 H 737.594 -1.19934 2.74329 0
M  V30 8063 H 735.14 -0.575517 1.31999 0
M  V30 8064 H 737.093 -3.58005 2.22285 0
M  V30 8065 H 735.817 -3.08051 1.085 0
M  V30 8066 H 734.476 -2.12157 2.98973 0
M  V30 8067 H 734.124 -4.48994 2.26745 0
M  V30 8068 H 733.824 -4.29281 4.01238 0
M  V30 8069 H 735.348 -5.03727 3.45096 0
M  V30 8070 H 736.762 -3.18557 4.76649 0
M  V30 8071 H 735.159 -2.67569 5.37147 0
M  V30 8072 H 736.229 -1.47993 4.61764 0
M  V30 8073 N 737.572 -1.44907 -0.619662 0
M  V30 8074 C 738.821 -1.47569 -1.37501 0
M  V30 8075 C 739.134 -0.116707 -1.95252 0
M  V30 8076 O 740.34 -0.020909 -2.71492 0
M  V30 8077 C 738.796 -2.59851 -2.49009 0
M  V30 8078 C 738.404 -4.02008 -1.97722 0
M  V30 8079 C 740.148 -2.71746 -3.2612 0
M  V30 8080 C 738.055 -5.05693 -3.0664 0
M  V30 8081 H 736.985 -0.549068 -0.51676 0
M  V30 8082 H 739.636 -1.71009 -0.665437 0
M  V30 8083 H 738.018 -2.29671 -3.22594 0
M  V30 8084 H 739.192 -4.41809 -1.30925 0
M  V30 8085 H 737.507 -3.94456 -1.33392 0
M  V30 8086 H 740.104 -3.46382 -4.07337 0
M  V30 8087 H 740.447 -1.77959 -3.76346 0
M  V30 8088 H 740.98 -3.01392 -2.5963 0
M  V30 8089 H 737.719 -6.01148 -2.61345 0
M  V30 8090 H 737.239 -4.70473 -3.72042 0
M  V30 8091 H 738.918 -5.29906 -3.71226 0
M  V30 8092 N 739.05 0.861098 -1.31996 0
M  V30 8093 C 740.296 1.61721 -1.22369 0
M  V30 8094 C 740.629 1.93 0.215587 0
M  V30 8095 O 739.904 1.56789 1.15098 0
M  V30 8096 C 740.187 2.9417 -2.07691 0
M  V30 8097 C 740.04 2.69714 -3.59965 0
M  V30 8098 C 741.359 3.95372 -1.93312 0
M  V30 8099 H 738.478 0.586822 -0.44588 0
M  V30 8100 H 741.12 0.994788 -1.61876 0
M  V30 8101 H 739.27 3.47292 -1.74128 0
M  V30 8102 H 740.942 2.23196 -4.03709 0
M  V30 8103 H 739.185 2.03789 -3.82952 0
M  V30 8104 H 739.856 3.63996 -4.14983 0
M  V30 8105 H 742.332 3.51487 -2.22701 0
M  V30 8106 H 741.208 4.85916 -2.55298 0
M  V30 8107 H 741.469 4.32865 -0.898922 0
M  V30 8108 N 740.528 1.15101 1.07655 0
M  V30 8109 C 741.461 0.788522 2.14144 0
M  V30 8110 C 742.439 -0.233635 1.60913 0
M  V30 8111 O 743.623 -0.120908 1.88112 0
M  V30 8112 C 740.75 0.172033 3.38263 0
M  V30 8113 C 739.796 1.16559 4.10264 0
M  V30 8114 S 740.629 2.70627 4.62084 0
M  V30 8115 C 741.785 2.10389 5.8948 0
M  V30 8116 H 742.018 1.69047 2.44561 0
M  V30 8117 H 739.551 0.973033 1.19881 0
M  V30 8118 H 741.509 -0.177223 4.10117 0
M  V30 8119 H 740.17 -0.707468 3.06029 0
M  V30 8120 H 739.363 0.6824 4.99359 0
M  V30 8121 H 738.965 1.45923 3.44358 0
M  V30 8122 H 741.257 1.46405 6.61492 0
M  V30 8123 H 742.2 2.97639 6.42508 0
M  V30 8124 H 742.608 1.54816 5.42856 0
M  V30 8125 N 742.006 -1.2595 0.947325 0
M  V30 8126 C 742.954 -2.28152 0.452687 0
M  V30 8127 C 743.948 -1.62655 -0.473239 0
M  V30 8128 O 745.154 -1.76549 -0.350774 0
M  V30 8129 H 741.529 -0.741049 0.12787 0
M  V30 8130 H 743.5 -2.67267 1.32707 0
M  V30 8131 C 742.249 -3.46719 -0.26098 0
M  V30 8132 H 741.572 -3.97345 0.442352 0
M  V30 8133 H 743.012 -4.20135 -0.571208 0
M  V30 8134 C 741.471 -3.02605 -1.48094 0
M  V30 8135 O 742.001 -3.07979 -2.57899 0
M  V30 8136 N 740.207 -2.57877 -1.33969 0
M  V30 8137 H 739.754 -2.53704 -0.446295 0
M  V30 8138 H 739.712 -2.28725 -2.15713 0
M  V30 8139 N 743.484 -0.715051 -1.40445 0
M  V30 8140 C 744.73 -0.254705 -2.01194 0
M  V30 8141 C 745.063 1.14894 -1.56567 0
M  V30 8142 O 744.338 1.77933 -0.785491 0
M  V30 8143 C 744.621 -0.334148 -3.58546 0
M  V30 8144 C 744.474 -1.77613 -4.13248 0
M  V30 8145 C 745.793 0.294968 -4.3911 0
M  V30 8146 H 742.912 -0.094025 -0.730978 0
M  V30 8147 H 745.554 -0.907449 -1.66929 0
M  V30 8148 H 743.704 0.221609 -3.87867 0
M  V30 8149 H 745.376 -2.38723 -3.94727 0
M  V30 8150 H 743.619 -2.30402 -3.67556 0
M  V30 8151 H 744.29 -1.78311 -5.22407 0
M  V30 8152 H 746.766 -0.178563 -4.15717 0
M  V30 8153 H 745.642 0.208934 -5.48502 0
M  V30 8154 H 745.903 1.37841 -4.20062 0
M  V30 8155 N 744.962 1.50701 -0.461195 0
M  V30 8156 C 745.925 2.2686 0.326679 0
M  V30 8157 C 746.925 1.31243 0.929085 0
M  V30 8158 O 748.115 1.54754 0.799807 0
M  V30 8159 C 745.247 3.07844 1.46441 0
M  V30 8160 H 746.44 2.97954 -0.341095 0
M  V30 8161 H 743.993 1.54814 -0.214984 0
M  V30 8162 H 744.728 2.41223 2.16753 0
M  V30 8163 H 744.513 3.78101 1.03836 0
M  V30 8164 H 746.003 3.65469 2.02044 0
M  V30 8165 N 746.441 0.193421 1.56409 0
M  V30 8166 C 747.351 -0.740112 2.2262 0
M  V30 8167 C 748.367 -1.23597 1.22474 0
M  V30 8168 O 749.543 -1.28348 1.55206 0
M  V30 8169 C 746.608 -1.94317 2.87127 0
M  V30 8170 C 745.669 -1.49205 4.02538 0
M  V30 8171 C 744.902 -2.63776 4.63959 0
M  V30 8172 O 745.125 -3.81215 4.24301 0
M  V30 8173 O 744.059 -2.36585 5.53454 0
M  V30 8174 H 747.885 -0.206238 3.02999 0
M  V30 8175 H 745.47 -0.0357938 1.49357 0
M  V30 8176 H 747.352 -2.64633 3.27944 0
M  V30 8177 H 746.027 -2.46568 2.09728 0
M  V30 8178 H 744.934 -0.757738 3.66346 0
M  V30 8179 H 746.267 -1.01622 4.81595 0
M  V30 8180 N 747.919 -1.57396 -0.0801906 0
M  V30 8181 C 748.866 -2.03107 -1.09618 0
M  V30 8182 C 749.836 -0.910118 -1.38946 0
M  V30 8183 O 751.021 -1.17719 -1.50156 0
M  V30 8184 C 748.161 -2.47293 -2.40708 0
M  V30 8185 C 747.274 -3.72972 -2.17982 0
M  V30 8186 C 746.409 -4.05975 -3.42576 0
M  V30 8187 C 745.448 -5.24719 -3.15177 0
M  V30 8188 N 744.585 -5.53401 -4.32078 0
M  V30 8189 H 749.425 -2.89677 -0.69939 0
M  V30 8190 H 746.962 -1.43263 -0.333785 0
M  V30 8191 H 748.92 -2.7096 -3.17232 0
M  V30 8192 H 747.55 -1.63713 -2.78205 0
M  V30 8193 H 746.602 -3.56693 -1.32189 0
M  V30 8194 H 747.914 -4.59638 -1.93738 0
M  V30 8195 H 747.068 -4.30498 -4.275 0
M  V30 8196 H 745.807 -3.17859 -3.69887 0
M  V30 8197 H 744.812 -5 -2.28648 0
M  V30 8198 H 746.037 -6.14445 -2.89197 0
M  V30 8199 H 743.983 -4.68245 -4.59437 0
M  V30 8200 H 743.9 -6.34469 -4.11078 0
M  V30 8201 H 745.168 -5.8247 -5.18024 0
M  V30 8202 N 749.397 0.351382 -1.53633 0
M  V30 8203 C 750.347 1.4316 -1.77452 0
M  V30 8204 C 751.331 1.48076 -0.62946 0
M  V30 8205 O 752.523 1.53078 -0.888599 0
M  V30 8206 C 749.652 2.80409 -1.98055 0
M  V30 8207 C 748.738 2.79915 -3.18604 0
M  V30 8208 N 749.129 2.49057 -4.40232 0
M  V30 8209 C 747.427 3.11067 -3.19614 0
M  V30 8210 C 748.128 2.566 -5.22045 0
M  V30 8211 N 747.104 2.919 -4.5858 0
M  V30 8212 H 750.906 1.18188 -2.69089 0
M  V30 8213 H 748.42 0.559684 -1.52451 0
M  V30 8214 H 750.417 3.58231 -2.13251 0
M  V30 8215 H 749.077 3.06334 -1.07655 0
M  V30 8216 H 750.088 2.22395 -4.67719 0
M  V30 8217 H 746.765 3.42215 -2.39154 0
M  V30 8218 H 748.155 2.35968 -6.29101 0
M  V30 8219 N 750.875 1.45233 0.611969 0
M  V30 8220 C 752.291 1.29542 0.932251 0
M  V30 8221 C 752.491 0.24523 2.00002 0
M  V30 8222 O 751.547 -0.362333 2.49887 0
M  V30 8223 C 752.86 2.67301 1.37733 0
M  V30 8224 C 754.408 2.75163 1.49178 0
M  V30 8225 C 754.883 4.13437 1.97064 0
M  V30 8226 N 756.374 4.15709 2.04304 0
M  V30 8227 C 757.109 5.19566 2.42568 0
M  V30 8228 N 756.605 6.33771 2.79832 0
M  V30 8229 N 758.398 5.06923 2.42869 0
M  V30 8230 H 750.549 2.12192 -0.0938679 0
M  V30 8231 H 752.812 0.947775 0.0206569 0
M  V30 8232 H 752.518 3.45318 0.666951 0
M  V30 8233 H 752.392 2.95472 2.3447 0
M  V30 8234 H 754.779 1.97453 2.19309 0
M  V30 8235 H 754.86 2.50712 0.507674 0
M  V30 8236 H 754.504 4.91631 1.27521 0
M  V30 8237 H 754.434 4.35277 2.9638 0
M  V30 8238 H 756.925 3.33293 1.78113 0
M  V30 8239 H 757.238 7.08815 3.07898 0
M  V30 8240 H 755.583 6.37179 2.77538 0
M  V30 8241 H 758.774 4.1675 2.1316 0
M  V30 8242 H 758.947 5.87981 2.72364 0
M  V30 8243 N 752.353 -0.854086 1.3245 0
M  V30 8244 C 753.601 -1.60513 1.228 0
M  V30 8245 C 753.922 -1.93865 -0.210073 0
M  V30 8246 O 753.192 -1.59673 -1.13496 0
M  V30 8247 H 751.772 -0.595099 0.451516 0
M  V30 8248 H 754.434 -1.0216 1.6598 0
M  V30 8249 H 753.53 -2.54182 1.81102 0
M  V30 8250 N 753.831 -1.1567 -1.07043 0
M  V30 8251 C 754.779 -0.852204 -2.16426 0
M  V30 8252 C 755.773 0.175661 -1.68487 0
M  V30 8253 O 756.979 0.0303874 -1.79974 0
M  V30 8254 H 753.354 -0.257942 -0.706378 0
M  V30 8255 H 755.325 -1.78231 -2.39324 0
M  V30 8256 C 754.074 -0.361362 -3.45817 0
M  V30 8257 H 753.397 -1.14369 -3.83092 0
M  V30 8258 H 754.837 -0.186997 -4.23587 0
M  V30 8259 C 753.296 0.917703 -3.2416 0
M  V30 8260 O 753.826 1.98858 -3.49025 0
M  V30 8261 N 752.032 0.858456 -2.77631 0
M  V30 8262 H 751.579 -0.0131821 -2.57597 0
M  V30 8263 H 751.537 1.71478 -2.6352 0
M  V30 8264 N 755.309 1.25446 -0.953992 0
M  V30 8265 C 756.539 1.96929 -0.624688 0
M  V30 8266 C 756.947 1.71112 0.807292 0
M  V30 8267 O 756.29 0.983512 1.55154 0
M  V30 8268 C 756.352 3.50425 -0.802676 0
M  V30 8269 C 756.016 3.99916 -2.21169 0
M  V30 8270 C 757.013 4.10662 -3.18831 0
M  V30 8271 C 754.698 4.33598 -2.53571 0
M  V30 8272 C 756.692 4.54401 -4.46988 0
M  V30 8273 C 754.379 4.77024 -3.81958 0
M  V30 8274 C 755.377 4.87388 -4.78478 0
M  V30 8275 O 755.065 5.29851 -6.04577 0
M  V30 8276 H 754.797 0.634511 -0.233179 0
M  V30 8277 H 757.351 1.60591 -1.28061 0
M  V30 8278 H 755.581 3.86596 -0.0896044 0
M  V30 8279 H 757.27 4.03117 -0.47452 0
M  V30 8280 H 758.036 3.84872 -2.95124 0
M  V30 8281 H 753.915 4.24757 -1.79171 0
M  V30 8282 H 757.459 4.62406 -5.22328 0
M  V30 8283 H 753.356 5.02258 -4.05471 0
M  V30 8284 H 754.124 5.48039 -6.07944 0
M  V30 8285 N 756.787 0.722489 1.40064 0
M  V30 8286 C 758.015 0.274838 2.05066 0
M  V30 8287 C 758.43 -1.08586 1.54449 0
M  V30 8288 O 757.787 -1.68375 0.704003 0
M  V30 8289 C 757.838 0.253673 3.60609 0
M  V30 8290 O 757.559 1.56064 4.0936 0
M  V30 8291 C 759.06 -0.211684 4.42794 0
M  V30 8292 H 756.28 0.12226 0.659768 0
M  V30 8293 H 758.824 0.982632 1.79345 0
M  V30 8294 H 756.979 -0.405137 3.85276 0
M  V30 8295 H 757.393 1.46576 5.03603 0
M  V30 8296 H 758.867 -0.175341 5.51721 0
M  V30 8297 H 759.344 -1.25493 4.2089 0
M  V30 8298 H 759.95 0.4171 4.2325 0
M  V30 8299 N 758.265 -1.50454 0.469181 0
M  V30 8300 C 759.505 -2.04222 -0.0852381 0
M  V30 8301 C 759.869 -1.34357 -1.37158 0
M  V30 8302 O 761.07 -1.78669 -2.00825 0
M  V30 8303 C 759.341 -3.56403 -0.266778 0
M  V30 8304 S 760.9 -4.31811 -0.780028 0
M  V30 8305 H 757.718 -0.7108 -0.0168589 0
M  V30 8306 H 760.32 -1.8487 0.635883 0
M  V30 8307 H 759.024 -4.04807 0.67525 0
M  V30 8308 H 758.555 -3.80106 -1.01407 0
M  V30 8309 H 760.57 -4.51706 -2.05368 0
M  V30 8310 N 759.743 -0.201713 -1.56304 0
M  V30 8311 C 760.693 0.729444 -2.16016 0
M  V30 8312 C 761.677 1.17164 -1.10279 0
M  V30 8313 O 762.869 1.12893 -1.36324 0
M  V30 8314 C 759.998 1.94594 -2.82822 0
M  V30 8315 C 759.084 1.52434 -3.95758 0
M  V30 8316 N 759.475 0.814106 -4.99205 0
M  V30 8317 C 757.773 1.81314 -4.07481 0
M  V30 8318 C 758.474 0.601896 -5.78578 0
M  V30 8319 N 757.45 1.15263 -5.3124 0
M  V30 8320 H 761.252 0.178163 -2.93359 0
M  V30 8321 H 758.766 -0.00218038 -1.624 0
M  V30 8322 H 760.763 2.62357 -3.23998 0
M  V30 8323 H 759.423 2.50188 -2.06969 0
M  V30 8324 H 760.434 0.468872 -5.15773 0
M  V30 8325 H 757.111 2.3837 -3.42762 0
M  V30 8326 H 758.501 0.0380119 -6.71889 0
M  V30 8327 N 761.222 1.57436 0.0718424 0
M  V30 8328 C 762.185 2.02703 1.06977 0
M  V30 8329 C 763.185 0.924062 1.31597 0
M  V30 8330 O 764.375 1.18894 1.27318 0
M  V30 8331 C 761.507 2.40763 2.41342 0
M  V30 8332 H 762.7 2.92098 0.679619 0
M  V30 8333 H 760.253 1.5304 0.317565 0
M  V30 8334 H 760.988 1.54394 2.8519 0
M  V30 8335 H 760.773 3.21249 2.24814 0
M  V30 8336 H 762.263 2.76361 3.13073 0
M  V30 8337 N 762.7 -0.34323 1.53817 0
M  V30 8338 C 763.925 -1.1079 1.75329 0
M  V30 8339 C 764.35 -1.81571 0.491293 0
M  V30 8340 O 763.708 -1.72561 -0.556089 0
M  V30 8341 C 763.756 -2.09681 2.9337 0
M  V30 8342 O 762.86 -3.17207 2.63541 0
M  V30 8343 H 762.201 -0.320402 0.581583 0
M  V30 8344 H 764.731 -0.393525 2.0078 0
M  V30 8345 H 764.741 -2.52897 3.20168 0
M  V30 8346 H 763.416 -1.5756 3.84899 0
M  V30 8347 H 761.993 -2.78806 2.47632 0
M  V30 8348 N 764.178 -1.45556 -0.604258 0
M  V30 8349 C 765.408 -1.53056 -1.38771 0
M  V30 8350 C 765.816 -0.163092 -1.88496 0
M  V30 8351 O 765.159 0.846157 -1.63052 0
M  V30 8352 C 765.221 -2.45656 -2.62476 0
M  V30 8353 C 764.885 -3.92328 -2.34367 0
M  V30 8354 C 765.882 -4.82137 -1.94525 0
M  V30 8355 C 763.567 -4.37275 -2.47177 0
M  V30 8356 C 765.561 -6.14901 -1.67856 0
M  V30 8357 C 763.248 -5.70079 -2.20122 0
M  V30 8358 C 764.246 -6.58711 -1.80524 0
M  V30 8359 O 763.934 -7.89053 -1.53788 0
M  V30 8360 H 763.666 -0.520721 -0.431075 0
M  V30 8361 H 766.22 -1.91464 -0.743693 0
M  V30 8362 H 764.45 -2.02225 -3.29609 0
M  V30 8363 H 766.139 -2.43802 -3.24523 0
M  V30 8364 H 766.905 -4.48675 -1.84162 0
M  V30 8365 H 762.784 -3.68527 -2.76964 0
M  V30 8366 H 766.328 -6.8404 -1.36874 0
M  V30 8367 H 762.225 -6.03095 -2.30102 0
M  V30 8368 H 762.993 -8.01113 -1.67812 0
M  V30 8369 N 765.656 0.84705 -1.32902 0
M  V30 8370 C 766.884 1.63403 -1.26913 0
M  V30 8371 C 767.299 1.88108 0.161483 0
M  V30 8372 O 766.656 1.45546 1.10103 0
M  V30 8373 C 766.707 2.98896 -2.03331 0
M  V30 8374 O 766.428 2.75281 -3.40811 0
M  V30 8375 C 767.929 3.93335 -2.04457 0
M  V30 8376 H 765.149 0.508701 -0.437566 0
M  V30 8377 H 767.693 1.05567 -1.75145 0
M  V30 8378 H 765.848 3.53356 -1.58802 0
M  V30 8379 H 766.262 3.61504 -3.8002 0
M  V30 8380 H 767.736 4.85647 -2.62394 0
M  V30 8381 H 768.213 4.26885 -1.03274 0
M  V30 8382 H 768.819 3.44812 -2.48967 0
M  V30 8383 N 767.134 1.16236 1.06428 0
M  V30 8384 C 768.364 0.965782 1.82637 0
M  V30 8385 C 768.772 -0.489284 1.82764 0
M  V30 8386 O 768.115 -1.35133 1.24438 0
M  V30 8387 C 768.177 1.41458 3.30499 0
M  V30 8388 C 767.841 2.88926 3.54077 0
M  V30 8389 C 768.838 3.86939 3.47238 0
M  V30 8390 C 766.523 3.26814 3.81442 0
M  V30 8391 C 768.517 5.20841 3.67428 0
M  V30 8392 C 766.204 4.60886 4.01282 0
M  V30 8393 C 767.202 5.57708 3.94272 0
M  V30 8394 O 766.89 6.89357 4.13573 0
M  V30 8395 H 766.622 0.342569 0.582772 0
M  V30 8396 H 769.176 1.54641 1.35187 0
M  V30 8397 H 767.406 0.777426 3.78805 0
M  V30 8398 H 769.095 1.18563 3.88198 0
M  V30 8399 H 769.861 3.59014 3.26089 0
M  V30 8400 H 765.74 2.5203 3.86008 0
M  V30 8401 H 769.284 5.96401 3.61873 0
M  V30 8402 H 765.181 4.88522 4.21921 0
M  V30 8403 H 765.949 6.95913 4.30869 0
M  V30 8404 N 768.612 -1.24939 0.960631 0
M  V30 8405 C 769.542 -2.28 0.503815 0
M  V30 8406 C 770.523 -1.63959 -0.452928 0
M  V30 8407 O 771.708 -1.91009 -0.350585 0
M  V30 8408 C 768.838 -3.46643 -0.213535 0
M  V30 8409 C 767.792 -4.22903 0.658535 0
M  V30 8410 C 767.118 -5.34363 -0.189902 0
M  V30 8411 C 768.418 -4.84949 1.93963 0
M  V30 8412 H 770.112 -2.66462 1.36521 0
M  V30 8413 H 767.658 -1.28093 0.657897 0
M  V30 8414 H 769.611 -4.1787 -0.544286 0
M  V30 8415 H 768.335 -3.07187 -1.10923 0
M  V30 8416 H 766.994 -3.53467 0.972455 0
M  V30 8417 H 766.642 -4.91147 -1.08553 0
M  V30 8418 H 766.342 -5.86302 0.390331 0
M  V30 8419 H 767.866 -6.0842 -0.515484 0
M  V30 8420 H 769.28 -5.48288 1.67491 0
M  V30 8421 H 767.677 -5.47091 2.46601 0
M  V30 8422 H 768.747 -4.06799 2.639 0
M  V30 8423 N 770.09 -0.729906 -1.39679 0
M  V30 8424 C 771.338 -0.275077 -2.00219 0
M  V30 8425 C 771.659 1.1401 -1.58199 0
M  V30 8426 O 770.929 1.77546 -0.827904 0
M  V30 8427 H 769.509 -0.0987127 -0.740449 0
M  V30 8428 H 772.171 -0.93873 -1.70804 0
M  V30 8429 H 771.267 -0.319446 -3.10461 0
M  V30 8430 N 771.568 1.50203 -0.477153 0
M  V30 8431 C 772.515 2.28656 0.31386 0
M  V30 8432 C 773.485 1.33977 0.981802 0
M  V30 8433 O 774.67 1.62919 0.993072 0
M  V30 8434 C 771.81 3.16027 1.38639 0
M  V30 8435 C 770.923 4.25743 0.732615 0
M  V30 8436 C 770.058 5.00363 1.78355 0
M  V30 8437 C 769.097 6.01945 1.11035 0
M  V30 8438 N 768.234 6.6982 2.10441 0
M  V30 8439 H 773.074 2.958 -0.361445 0
M  V30 8440 H 770.611 1.45867 -0.190093 0
M  V30 8441 H 772.569 3.6504 2.01994 0
M  V30 8442 H 771.199 2.50917 2.03077 0
M  V30 8443 H 770.251 3.80398 -0.0136546 0
M  V30 8444 H 771.563 4.98393 0.201513 0
M  V30 8445 H 770.717 5.53124 2.49276 0
M  V30 8446 H 769.456 4.27432 2.34847 0
M  V30 8447 H 768.461 5.48438 0.386797 0
M  V30 8448 H 769.686 6.76851 0.552248 0
M  V30 8449 H 767.632 5.99677 2.65939 0
M  V30 8450 H 767.549 7.38366 1.62332 0
M  V30 8451 H 768.817 7.27196 2.80724 0
M  V30 8452 N 773.046 0.209999 1.56195 0
M  V30 8453 C 773.978 -0.736967 2.17029 0
M  V30 8454 C 774.991 -1.16599 1.13616 0
M  V30 8455 O 776.18 -1.09914 1.40646 0
M  V30 8456 C 773.28 -2.00852 2.72969 0
M  V30 8457 C 772.453 -1.73691 4.01435 0
M  V30 8458 C 771.512 -2.85439 4.42053 0
M  V30 8459 O 770.538 -2.54405 5.09183 0
M  V30 8460 N 771.74 -4.14135 4.06783 0
M  V30 8461 H 774.505 -0.216656 2.98916 0
M  V30 8462 H 772.066 0.0285672 1.61875 0
M  V30 8463 H 774.058 -2.74778 2.97118 0
M  V30 8464 H 772.628 -2.43963 1.95451 0
M  V30 8465 H 771.848 -0.834676 3.85262 0
M  V30 8466 H 773.136 -1.52961 4.85263 0
M  V30 8467 H 772.534 -4.42196 3.52816 0
M  V30 8468 H 771.091 -4.84642 4.35851 0
M  V30 8469 N 774.524 -1.57472 -0.0634922 0
M  V30 8470 C 775.754 -1.91608 -0.772645 0
M  V30 8471 C 776.162 -0.805019 -1.71219 0
M  V30 8472 O 775.505 0.229941 -1.82255 0
M  V30 8473 C 775.567 -3.21281 -1.61304 0
M  V30 8474 C 775.231 -4.49177 -0.841973 0
M  V30 8475 C 776.228 -5.19661 -0.157494 0
M  V30 8476 C 773.913 -4.9578 -0.80669 0
M  V30 8477 C 775.907 -6.35006 0.551948 0
M  V30 8478 C 773.594 -6.11028 -0.0934812 0
M  V30 8479 C 774.592 -6.80493 0.58463 0
M  V30 8480 O 774.28 -7.93542 1.28633 0
M  V30 8481 H 774.012 -0.637685 -0.224352 0
M  V30 8482 H 776.566 -2.05369 -0.0355279 0
M  V30 8483 H 774.796 -3.03752 -2.39315 0
M  V30 8484 H 776.485 -3.41003 -2.20162 0
M  V30 8485 H 777.251 -4.84681 -0.176006 0
M  V30 8486 H 773.13 -4.41579 -1.32397 0
M  V30 8487 H 776.674 -6.89161 1.0818 0
M  V30 8488 H 772.571 -6.45459 -0.0729258 0
M  V30 8489 H 773.339 -8.09708 1.19646 0
M  V30 8490 N 776.003 0.335068 -1.53997 0
M  V30 8491 C 777.414 0.910191 -1.6301 0
M  V30 8492 C 777.765 1.89271 -0.516809 0
M  V30 8493 O 776.89 2.13516 0.352123 0
M  V30 8494 C 777.485 1.65761 -2.9548 0
M  V30 8495 C 776.044 2.18163 -3.06728 0
M  V30 8496 C 775.191 1.00338 -2.5851 0
M  V30 8497 H 778.142 0.112965 -1.58297 0
M  V30 8498 H 778.163 2.52107 -2.84995 0
M  V30 8499 H 777.675 0.94227 -3.76488 0
M  V30 8500 H 775.776 2.92847 -2.30372 0
M  V30 8501 H 775.889 2.43952 -4.1234 0
M  V30 8502 H 774.253 1.37925 -2.14124 0
M  V30 8503 H 775.036 0.30254 -3.41964 0
M  V30 8504 N 777.481 1.45874 0.596531 0
M  V30 8505 C 778.73 1.49737 1.35135 0
M  V30 8506 C 779.043 0.147755 1.95041 0
M  V30 8507 O 780.249 0.0640984 2.71424 0
M  V30 8508 C 778.705 2.6378 2.44843 0
M  V30 8509 C 778.313 4.05102 1.91301 0
M  V30 8510 C 780.057 2.769 3.21755 0
M  V30 8511 C 777.964 5.10508 2.98557 0
M  V30 8512 H 776.894 0.557219 0.507959 0
M  V30 8513 H 779.545 1.72046 0.638147 0
M  V30 8514 H 777.927 2.34774 3.189 0
M  V30 8515 H 779.101 4.43836 1.2388 0
M  V30 8516 H 777.416 3.96528 1.271 0
M  V30 8517 H 780.013 3.52819 4.01775 0
M  V30 8518 H 780.356 1.83924 3.73467 0
M  V30 8519 H 780.889 3.05485 2.54802 0
M  V30 8520 H 777.628 6.0523 2.51749 0
M  V30 8521 H 777.148 4.76332 3.6451 0
M  V30 8522 H 778.827 5.35745 3.62748 0
M  V30 8523 N 778.959 -0.83999 1.33349 0
M  V30 8524 C 780.187 -1.62728 1.27778 0
M  V30 8525 C 780.602 -1.88191 -0.151505 0
M  V30 8526 O 779.959 -1.46128 -1.09329 0
M  V30 8527 C 780.01 -2.97813 2.04913 0
M  V30 8528 O 779.731 -2.73469 3.42266 0
M  V30 8529 C 781.232 -3.92245 2.0654 0
M  V30 8530 H 778.452 -0.506374 0.440257 0
M  V30 8531 H 780.996 -1.04637 1.75703 0
M  V30 8532 H 779.151 -3.52509 1.60674 0
M  V30 8533 H 779.565 -3.59483 3.81932 0
M  V30 8534 H 781.039 -4.84249 2.64966 0
M  V30 8535 H 781.516 -4.26332 1.05537 0
M  V30 8536 H 782.122 -3.43487 2.50793 0
M  V30 8537 N 780.437 -1.16799 -1.0581 0
M  V30 8538 C 781.853 -0.913935 -1.30841 0
M  V30 8539 C 782.053 0.430439 -1.96849 0
M  V30 8540 O 781.109 1.16885 -2.23817 0
M  V30 8541 C 782.422 -2.06662 -2.18429 0
M  V30 8542 C 783.97 -2.10294 -2.31831 0
M  V30 8543 C 784.445 -3.2493 -3.22776 0
M  V30 8544 N 785.936 -3.24678 -3.30361 0
M  V30 8545 C 786.671 -4.10021 -4.00837 0
M  V30 8546 N 786.167 -5.05461 -4.73795 0
M  V30 8547 N 787.96 -3.97991 -3.96937 0
M  V30 8548 H 780.111 -2.03343 -0.613613 0
M  V30 8549 H 782.374 -0.88754 -0.333133 0
M  V30 8550 H 782.08 -3.03791 -1.77211 0
M  V30 8551 H 781.954 -2.01233 -3.19038 0
M  V30 8552 H 784.341 -1.13754 -2.72294 0
M  V30 8553 H 784.422 -2.19786 -1.30873 0
M  V30 8554 H 784.066 -4.21731 -2.83028 0
M  V30 8555 H 783.996 -3.12674 -4.23725 0
M  V30 8556 H 786.487 -2.55573 -2.78372 0
M  V30 8557 H 786.8 -5.66989 -5.25113 0
M  V30 8558 H 785.145 -5.09436 -4.72758 0
M  V30 8559 H 788.336 -3.2273 -3.39062 0
M  V30 8560 H 788.509 -4.64722 -4.51594 0
M  V30 8561 N 781.915 1.24427 -0.967243 0
M  V30 8562 C 783.161 1.92772 -0.629812 0
M  V30 8563 C 783.494 1.75436 0.832827 0
M  V30 8564 O 782.769 1.10716 1.59913 0
M  V30 8565 C 783.052 3.45798 -1.00477 0
M  V30 8566 C 782.905 3.72304 -2.52407 0
M  V30 8567 C 784.224 4.36787 -0.538999 0
M  V30 8568 H 781.343 0.700099 -0.230282 0
M  V30 8569 H 783.985 1.46805 -1.20616 0
M  V30 8570 H 782.135 3.8508 -0.514336 0
M  V30 8571 H 783.807 3.42584 -3.08924 0
M  V30 8572 H 782.05 3.17472 -2.95625 0
M  V30 8573 H 782.721 4.7937 -2.73693 0
M  V30 8574 H 785.197 4.04877 -0.959874 0
M  V30 8575 H 784.073 5.4259 -0.829926 0
M  V30 8576 H 784.334 4.38527 0.560923 0
M  V30 8577 N 783.393 0.737304 1.3929 0
M  V30 8578 C 784.642 0.283129 1.99703 0
M  V30 8579 C 784.955 -1.13677 1.59176 0
M  V30 8580 O 786.161 -1.69058 2.12442 0
M  V30 8581 C 784.617 0.455262 3.57009 0
M  V30 8582 C 784.225 1.88319 4.06497 0
M  V30 8583 C 785.969 0.0629786 4.24453 0
M  V30 8584 C 783.876 2.00475 5.56385 0
M  V30 8585 H 782.806 0.102106 0.747054 0
M  V30 8586 H 785.457 0.911515 1.5926 0
M  V30 8587 H 783.839 -0.242057 3.9526 0
M  V30 8588 H 785.013 2.61265 3.79575 0
M  V30 8589 H 783.328 2.2289 3.51723 0
M  V30 8590 H 785.925 0.132787 5.34535 0
M  V30 8591 H 786.268 -0.982128 4.04549 0
M  V30 8592 H 786.801 0.71154 3.91385 0
M  V30 8593 H 783.54 3.03182 5.81172 0
M  V30 8594 H 783.06 1.31969 5.85102 0
M  V30 8595 H 784.739 1.787 6.21832 0
M  V30 8596 N 784.871 -1.49948 0.485112 0
M  V30 8597 C 785.781 -2.32587 -0.306697 0
M  V30 8598 C 786.797 -1.43598 -0.982632 0
M  V30 8599 O 787.973 -1.76638 -0.967519 0
M  V30 8600 C 785.038 -3.18638 -1.3664 0
M  V30 8601 C 784.099 -4.23462 -0.705589 0
M  V30 8602 C 783.332 -5.05401 -1.7148 0
M  V30 8603 O 783.555 -4.88618 -2.94293 0
M  V30 8604 O 782.489 -5.88157 -1.27889 0
M  V30 8605 H 786.315 -3.01447 0.369272 0
M  V30 8606 H 783.9 -1.47349 0.246709 0
M  V30 8607 H 785.782 -3.71992 -1.9799 0
M  V30 8608 H 784.457 -2.52491 -2.02559 0
M  V30 8609 H 783.364 -3.74063 -0.0527733 0
M  V30 8610 H 784.697 -4.92119 -0.0891187 0
M  V30 8611 N 786.349 -0.21828 -1.56081 0
M  V30 8612 C 787.596 0.414307 -1.98216 0
M  V30 8613 C 787.924 1.60005 -1.10584 0
M  V30 8614 O 787.179 1.95124 -0.150043 0
M  V30 8615 C 787.478 0.894782 -3.46018 0
M  V30 8616 C 787.144 -0.180083 -4.5054 0
M  V30 8617 C 785.806 -0.475367 -4.78846 0
M  V30 8618 C 788.158 -0.907191 -5.13244 0
M  V30 8619 C 785.486 -1.50233 -5.67139 0
M  V30 8620 C 787.838 -1.92347 -6.02649 0
M  V30 8621 C 786.502 -2.22571 -6.293 0
M  V30 8622 H 785.772 0.151606 -0.725325 0
M  V30 8623 H 788.419 -0.320113 -1.88806 0
M  V30 8624 H 786.724 1.7079 -3.52616 0
M  V30 8625 H 788.421 1.39403 -3.75989 0
M  V30 8626 H 785.011 0.06022 -4.28558 0
M  V30 8627 H 789.195 -0.692303 -4.91448 0
M  V30 8628 H 784.451 -1.74215 -5.86054 0
M  V30 8629 H 788.625 -2.49197 -6.50288 0
M  V30 8630 H 786.252 -3.0229 -6.97513 0
M  V30 8631 N 787.827 1.57504 0.0551401 0
M  V30 8632 C 789.076 1.87237 0.750009 0
M  V30 8633 C 789.389 0.813268 1.77891 0
M  V30 8634 O 790.595 0.99898 2.52453 0
M  V30 8635 C 789.051 3.32187 1.38491 0
M  V30 8636 C 788.659 4.46267 0.393707 0
M  V30 8637 C 790.403 3.71101 2.06117 0
M  V30 8638 C 788.31 5.82265 1.03547 0
M  V30 8639 H 787.24 0.698524 0.283866 0
M  V30 8640 H 789.891 1.835 0.00365997 0
M  V30 8641 H 788.273 3.30588 2.18008 0
M  V30 8642 H 789.447 4.59289 -0.372865 0
M  V30 8643 H 787.762 4.16015 -0.17902 0
M  V30 8644 H 790.359 4.70012 2.54937 0
M  V30 8645 H 790.702 3.01751 2.86796 0
M  V30 8646 H 791.235 3.74762 1.33409 0
M  V30 8647 H 787.974 6.54949 0.268644 0
M  V30 8648 H 787.494 5.73012 1.7725 0
M  V30 8649 H 789.173 6.28148 1.55047 0
M  V30 8650 N 789.305 -0.326896 1.54172 0
M  V30 8651 C 790.533 -1.08486 1.76177 0
M  V30 8652 C 790.948 -1.81815 0.508788 0
M  V30 8653 O 790.305 -1.74924 -0.520362 0
M  V30 8654 C 790.356 -2.08552 2.95276 0
M  V30 8655 O 790.077 -1.38202 4.15731 0
M  V30 8656 C 791.578 -2.96593 3.29466 0
M  V30 8657 H 788.798 -0.322835 0.588233 0
M  V30 8658 H 791.342 -0.374036 2.0105 0
M  V30 8659 H 789.497 -2.75174 2.72687 0
M  V30 8660 H 789.911 -2.05186 4.827 0
M  V30 8661 H 791.385 -3.62708 4.16109 0
M  V30 8662 H 791.862 -3.63511 2.46487 0
M  V30 8663 H 792.468 -2.35537 3.54122 0
M  V30 8664 N 790.784 -1.46188 -0.588786 0
M  V30 8665 C 791.714 -1.59148 -1.70863 0
M  V30 8666 C 792.695 -0.442083 -1.64255 0
M  V30 8667 O 793.88 -0.667575 -1.82365 0
M  V30 8668 C 791.01 -1.5757 -3.09498 0
M  V30 8669 C 789.964 -2.71418 -3.30932 0
M  V30 8670 C 789.29 -2.549 -4.70032 0
M  V30 8671 C 790.59 -4.1329 -3.19356 0
M  V30 8672 H 792.284 -2.52889 -1.60274 0
M  V30 8673 H 789.83 -1.21707 -0.769638 0
M  V30 8674 H 791.783 -1.65231 -3.87655 0
M  V30 8675 H 790.507 -0.603705 -3.20972 0
M  V30 8676 H 789.166 -2.63216 -2.55172 0
M  V30 8677 H 788.814 -1.55797 -4.78264 0
M  V30 8678 H 788.514 -3.31257 -4.85327 0
M  V30 8679 H 790.038 -2.64443 -5.50366 0
M  V30 8680 H 791.452 -4.22636 -3.87365 0
M  V30 8681 H 789.849 -4.90187 -3.46175 0
M  V30 8682 H 790.919 -4.33874 -2.16522 0
M  V30 8683 N 792.262 0.832906 -1.33792 0
M  V30 8684 C 793.172 1.97514 -1.26592 0
M  V30 8685 C 794.188 1.73114 -0.175391 0
M  V30 8686 O 795.364 1.97387 -0.400062 0
M  V30 8687 C 792.429 3.31625 -1.01121 0
M  V30 8688 C 791.49 3.69101 -2.19233 0
M  V30 8689 C 790.723 4.96813 -1.94968 0
M  V30 8690 O 790.946 5.63208 -0.902955 0
M  V30 8691 O 789.88 5.31932 -2.8166 0
M  V30 8692 H 793.706 2.0653 -2.22664 0
M  V30 8693 H 791.291 0.966826 -1.13898 0
M  V30 8694 H 793.173 4.11968 -0.886571 0
M  V30 8695 H 791.848 3.23599 -0.080822 0
M  V30 8696 H 790.755 2.89243 -2.37253 0
M  V30 8697 H 792.088 3.818 -3.10628 0
M  V30 8698 N 793.74 1.17359 1.05189 0
M  V30 8699 C 794.65 0.904984 2.16442 0
M  V30 8700 C 795.666 -0.12686 1.73537 0
M  V30 8701 O 796.842 0.0524127 2.01332 0
M  V30 8702 C 793.907 0.422019 3.44122 0
M  V30 8703 C 792.968 1.52045 4.01473 0
M  V30 8704 C 792.201 1.06044 5.23059 0
M  V30 8705 O 792.424 -0.0854023 5.70336 0
M  V30 8706 O 791.358 1.85349 5.72651 0
M  V30 8707 H 795.184 1.8356 2.41949 0
M  V30 8708 H 792.769 0.95447 1.14936 0
M  V30 8709 H 794.651 0.160208 4.21095 0
M  V30 8710 H 793.326 -0.480444 3.20115 0
M  V30 8711 H 792.233 1.83615 3.25939 0
M  V30 8712 H 793.566 2.39863 4.29798 0
M  V30 8713 N 795.218 -1.23913 0.973828 0
M  V30 8714 C 796.166 -2.27141 0.50098 0
M  V30 8715 C 797.16 -1.63623 -0.438631 0
M  V30 8716 O 798.366 -1.77253 -0.313247 0
M  V30 8717 H 794.741 -0.73817 0.14356 0
M  V30 8718 H 796.712 -2.64392 1.38346 0
M  V30 8719 C 795.461 -3.47195 -0.187377 0
M  V30 8720 H 794.784 -3.96318 0.526535 0
M  V30 8721 H 796.224 -4.21252 -0.481962 0
M  V30 8722 C 794.683 -3.05678 -1.41642 0
M  V30 8723 O 795.213 -3.1338 -2.51309 0
M  V30 8724 N 793.419 -2.60661 -1.28469 0
M  V30 8725 H 792.966 -2.54594 -0.39238 0
M  V30 8726 H 792.924 -2.33249 -2.10813 0
M  V30 8727 N 796.696 -0.74468 -1.38897 0
M  V30 8728 C 797.643 -0.111064 -2.30533 0
M  V30 8729 C 798.613 0.719276 -1.49719 0
M  V30 8730 O 799.798 0.677244 -1.78376 0
M  V30 8731 C 796.938 0.78292 -3.36102 0
M  V30 8732 C 796.051 -0.0610817 -4.31957 0
M  V30 8733 C 795.186 0.835075 -5.24595 0
M  V30 8734 C 794.225 -0.0130974 -6.12099 0
M  V30 8735 N 793.362 0.839525 -6.97063 0
M  V30 8736 H 798.202 -0.898113 -2.84144 0
M  V30 8737 H 795.739 -0.454537 -1.39901 0
M  V30 8738 H 797.697 1.31578 -3.95908 0
M  V30 8739 H 796.327 1.53585 -2.83922 0
M  V30 8740 H 795.379 -0.711469 -3.73687 0
M  V30 8741 H 796.691 -0.716482 -4.93627 0
M  V30 8742 H 795.845 1.43542 -5.89475 0
M  V30 8743 H 794.584 1.52423 -4.63269 0
M  V30 8744 H 793.589 -0.626179 -5.46223 0
M  V30 8745 H 794.814 -0.699181 -6.75491 0
M  V30 8746 H 792.76 1.5138 -6.38295 0
M  V30 8747 H 792.677 0.240823 -7.55616 0
M  V30 8748 H 793.945 1.42513 -7.66362 0
M  V30 8749 N 798.174 1.49689 -0.493057 0
M  V30 8750 C 799.585 1.8665 -0.0433032 0
M  V30 8751 C 799.936 1.40607 1.36836 0
M  V30 8752 O 799.061 0.780503 2.01834 0
M  V30 8753 C 799.656 3.38724 -0.0718069 0
M  V30 8754 C 798.215 3.75015 0.32257 0
M  V30 8755 C 797.362 2.7366 -0.4478 0
M  V30 8756 H 800.313 1.42119 -0.706246 0
M  V30 8757 H 800.334 3.73522 0.725347 0
M  V30 8758 H 799.846 3.72204 -1.09935 0
M  V30 8759 H 797.947 3.47142 1.35364 0
M  V30 8760 H 798.06 4.79099 0.00864259 0
M  V30 8761 H 796.424 2.54498 0.101354 0
M  V30 8762 H 797.207 3.09985 -1.47527 0
M  V30 8763 N 799.652 0.226554 1.55963 0
M  V30 8764 C 800.88 -0.408507 2.02827 0
M  V30 8765 C 801.295 -1.52994 1.10627 0
M  V30 8766 O 800.652 -1.82126 0.116809 0
M  V30 8767 C 800.703 -0.93545 3.49187 0
M  V30 8768 O 800.424 0.141273 4.37872 0
M  V30 8769 C 801.925 -1.64325 4.11719 0
M  V30 8770 H 799.145 -0.099442 0.66359 0
M  V30 8771 H 801.689 0.344471 2.01578 0
M  V30 8772 H 799.844 -1.63868 3.51036 0
M  V30 8773 H 800.258 -0.25558 5.23877 0
M  V30 8774 H 801.732 -1.9639 5.15883 0
M  V30 8775 H 802.209 -2.55815 3.57009 0
M  V30 8776 H 802.815 -0.9851 4.13734 0
M  V30 8777 N 801.13 -1.57531 -0.0467866 0
M  V30 8778 C 802.546 -1.54451 -0.402107 0
M  V30 8779 C 802.746 -0.950275 -1.77685 0
M  V30 8780 O 801.802 -0.563602 -2.4613 0
M  V30 8781 C 803.115 -2.9899 -0.320212 0
M  V30 8782 C 804.663 -3.10452 -0.398588 0
M  V30 8783 C 805.138 -4.56689 -0.346335 0
M  V30 8784 N 806.629 -4.6142 -0.405666 0
M  V30 8785 C 807.364 -5.72087 -0.387845 0
M  V30 8786 N 806.86 -6.92045 -0.32336 0
M  V30 8787 N 808.653 -5.60404 -0.436263 0
M  V30 8788 H 800.804 -1.94515 0.853087 0
M  V30 8789 H 803.067 -0.891397 0.322669 0
M  V30 8790 H 802.773 -3.46124 0.623794 0
M  V30 8791 H 802.647 -3.60164 -1.1208 0
M  V30 8792 H 805.034 -2.63276 -1.33302 0
M  V30 8793 H 805.115 -2.52142 0.431026 0
M  V30 8794 H 804.759 -5.04527 0.584356 0
M  V30 8795 H 804.689 -5.12889 -1.19382 0
M  V30 8796 H 807.18 -3.75105 -0.458737 0
M  V30 8797 H 807.493 -7.7216 -0.314375 0
M  V30 8798 H 805.838 -6.94396 -0.28967 0
M  V30 8799 H 809.029 -4.65586 -0.48451 0
M  V30 8800 H 809.202 -6.46645 -0.418907 0
M  V30 8801 N 802.608 0.318715 -1.54344 0
M  V30 8802 C 804.019 0.89285 -1.63967 0
M  V30 8803 C 804.37 1.88712 -0.536855 0
M  V30 8804 O 803.495 2.13877 0.329457 0
M  V30 8805 C 804.09 1.62618 -2.97222 0
M  V30 8806 C 802.649 2.14897 -3.09025 0
M  V30 8807 C 801.796 0.975909 -2.5956 0
M  V30 8808 H 804.747 0.0961687 -1.58408 0
M  V30 8809 H 804.768 2.4907 -2.87653 0
M  V30 8810 H 804.28 0.902286 -3.77466 0
M  V30 8811 H 802.381 2.90387 -2.33465 0
M  V30 8812 H 802.494 2.39565 -4.14904 0
M  V30 8813 H 800.858 1.35646 -2.15574 0
M  V30 8814 H 801.641 0.266253 -3.42266 0
M  V30 8815 N 804.086 1.46499 0.581025 0
M  V30 8816 C 805.332 1.52121 1.34116 0
M  V30 8817 C 805.665 0.173031 1.93428 0
M  V30 8818 O 804.94 -0.815729 1.76568 0
M  V30 8819 C 805.223 2.62108 2.46924 0
M  V30 8820 C 805.076 4.06462 1.92636 0
M  V30 8821 C 806.395 2.68167 3.48962 0
M  V30 8822 H 803.514 0.5538 0.486287 0
M  V30 8823 H 806.156 1.78443 0.652538 0
M  V30 8824 H 804.306 2.39794 3.05665 0
M  V30 8825 H 805.978 4.40068 1.3834 0
M  V30 8826 H 804.221 4.15862 1.23455 0
M  V30 8827 H 804.892 4.79152 2.74076 0
M  V30 8828 H 807.368 2.8823 3.00104 0
M  V30 8829 H 806.244 3.46942 4.2535 0
M  V30 8830 H 806.505 1.74284 4.06297 0
M  V30 8831 N 805.565 -0.825799 1.34232 0
M  V30 8832 C 806.814 -1.57686 1.2577 0
M  V30 8833 C 807.127 -1.94848 -0.171372 0
M  V30 8834 O 808.333 -2.68854 -0.378123 0
M  V30 8835 C 806.789 -2.84478 2.20454 0
M  V30 8836 C 806.397 -2.54629 3.68603 0
M  V30 8837 C 808.141 -3.625 2.20893 0
M  V30 8838 C 806.048 -3.77597 4.55164 0
M  V30 8839 H 804.978 -0.591809 0.467203 0
M  V30 8840 H 807.629 -0.909421 1.59379 0
M  V30 8841 H 806.011 -3.52832 1.79793 0
M  V30 8842 H 807.185 -1.94404 4.17784 0
M  V30 8843 H 805.5 -1.89888 3.70582 0
M  V30 8844 H 808.097 -4.538 2.82789 0
M  V30 8845 H 808.44 -3.98404 1.20746 0
M  V30 8846 H 808.973 -3.01086 2.59985 0
M  V30 8847 H 805.712 -3.46815 5.56237 0
M  V30 8848 H 805.232 -4.37116 4.10719 0
M  V30 8849 H 806.911 -4.45039 4.69627 0
M  V30 8850 N 807.043 -1.17915 -1.04565 0
M  V30 8851 C 808.289 -0.972863 -1.77942 0
M  V30 8852 C 808.622 0.496753 -1.87739 0
M  V30 8853 O 807.897 1.3688 -1.38181 0
M  V30 8854 C 808.18 -1.62227 -3.21488 0
M  V30 8855 C 808.033 -3.16441 -3.19664 0
M  V30 8856 C 809.352 -1.33137 -4.19479 0
M  V30 8857 H 806.471 -0.354843 -0.645953 0
M  V30 8858 H 809.113 -1.45508 -1.22178 0
M  V30 8859 H 807.263 -1.21224 -3.69103 0
M  V30 8860 H 808.935 -3.66544 -2.80077 0
M  V30 8861 H 807.178 -3.48863 -2.57832 0
M  V30 8862 H 807.849 -3.57012 -4.21006 0
M  V30 8863 H 810.325 -1.68654 -3.80388 0
M  V30 8864 H 809.201 -1.81151 -5.18146 0
M  V30 8865 H 809.462 -0.253319 -4.41374 0
M  V30 8866 N 808.521 1.23394 -0.980386 0
M  V30 8867 C 809.746 1.96384 -0.666935 0
M  V30 8868 C 810.171 1.72087 0.759456 0
M  V30 8869 O 809.529 0.992328 1.51732 0
M  V30 8870 C 809.577 3.47499 -0.963177 0
M  V30 8871 O 808.681 4.12363 -0.0552051 0
M  V30 8872 H 808.022 0.614797 -0.250839 0
M  V30 8873 H 810.552 1.56831 -1.31398 0
M  V30 8874 H 810.562 3.97953 -0.899877 0
M  V30 8875 H 809.237 3.6451 -2.00264 0
M  V30 8876 H 807.814 3.72499 -0.172914 0
M  V30 8877 N 809.999 0.752036 1.385 0
M  V30 8878 C 811.41 0.375385 1.82887 0
M  V30 8879 C 811.761 -1.09575 1.62751 0
M  V30 8880 O 810.886 -1.84685 1.12785 0
M  V30 8881 C 811.481 0.674563 3.32017 0
M  V30 8882 C 810.04 0.351208 3.74758 0
M  V30 8883 C 809.187 0.928531 2.61292 0
M  V30 8884 H 812.138 0.948313 1.27251 0
M  V30 8885 H 812.159 -0.0477781 3.8047 0
M  V30 8886 H 811.671 1.74533 3.46641 0
M  V30 8887 H 809.772 -0.713042 3.65714 0
M  V30 8888 H 809.885 0.845675 4.71577 0
M  V30 8889 H 808.249 0.354012 2.52228 0
M  V30 8890 H 809.032 2.0043 2.78716 0
M  V30 8891 N 811.477 -1.49425 0.500989 0
M  V30 8892 C 812.44 -2.27646 -0.266416 0
M  V30 8893 C 813.44 -1.3366 -0.893961 0
M  V30 8894 O 814.63 -1.5682 -0.758495 0
M  V30 8895 C 811.762 -3.11618 -1.38227 0
M  V30 8896 H 812.955 -2.96945 0.419973 0
M  V30 8897 H 810.508 -1.5419 0.255954 0
M  V30 8898 H 811.243 -2.46885 -2.10281 0
M  V30 8899 H 811.028 -3.80721 -0.937746 0
M  V30 8900 H 812.518 -3.70698 -1.92283 0
M  V30 8901 N 812.955 -0.234822 -1.55841 0
M  V30 8902 C 813.903 0.686145 -2.22249 0
M  V30 8903 C 814.897 1.18948 -1.20614 0
M  V30 8904 O 816.103 1.14777 -1.38659 0
M  V30 8905 H 812.478 0.239724 -0.712767 0
M  V30 8906 H 814.449 0.102762 -2.98223 0
M  V30 8907 C 813.198 1.8776 -2.92646 0
M  V30 8908 H 812.521 1.49943 -3.70617 0
M  V30 8909 H 813.961 2.4995 -3.42493 0
M  V30 8910 C 812.42 2.74127 -1.95847 0
M  V30 8911 O 812.95 3.7329 -1.48384 0
M  V30 8912 N 811.156 2.4044 -1.63209 0
M  V30 8913 H 810.703 1.59854 -2.02001 0
M  V30 8914 H 810.661 2.98504 -0.987063 0
M  V30 8915 N 814.433 1.57553 0.0384317 0
M  V30 8916 C 815.343 2.09333 1.0591 0
M  V30 8917 C 816.359 1.0299 1.40247 0
M  V30 8918 O 817.535 1.34669 1.49754 0
M  V30 8919 C 814.6 2.55468 2.34386 0
M  V30 8920 C 813.661 3.76254 2.06716 0
M  V30 8921 C 812.894 4.20179 3.29067 0
M  V30 8922 O 813.117 3.637 4.39407 0
M  V30 8923 O 812.051 5.12697 3.15317 0
M  V30 8924 H 815.877 2.96683 0.649087 0
M  V30 8925 H 813.462 1.47211 0.254802 0
M  V30 8926 H 815.344 2.85514 3.09935 0
M  V30 8927 H 814.019 1.71234 2.74701 0
M  V30 8928 H 812.926 3.51241 1.28766 0
M  V30 8929 H 814.259 4.61443 1.71263 0
M  V30 8930 N 815.911 -0.310526 1.54511 0
M  V30 8931 C 817.139 -1.06611 1.77318 0
M  V30 8932 C 817.554 -1.81265 0.528043 0
M  V30 8933 O 816.911 -1.75466 -0.50178 0
M  V30 8934 C 816.962 -2.05409 2.97472 0
M  V30 8935 O 816.683 -1.33785 4.17173 0
M  V30 8936 C 818.184 -2.93082 3.32593 0
M  V30 8937 H 815.404 -0.316578 0.591624 0
M  V30 8938 H 817.948 -0.352691 2.01436 0
M  V30 8939 H 816.103 -2.72266 2.7559 0
M  V30 8940 H 816.517 -2.00055 4.84849 0
M  V30 8941 H 817.991 -3.58274 4.19933 0
M  V30 8942 H 818.468 -3.60877 2.50329 0
M  V30 8943 H 819.074 -2.31768 3.566 0
M  V30 8944 N 817.389 -1.46805 -0.573248 0
M  V30 8945 C 818.322 -1.52608 -1.69665 0
M  V30 8946 C 819.3 -0.379426 -1.58111 0
M  V30 8947 O 820.484 -0.584938 -1.79195 0
M  V30 8948 C 817.611 -1.41355 -3.07793 0
M  V30 8949 C 816.657 -2.60321 -3.37839 0
M  V30 8950 S 817.49 -4.22622 -3.28863 0
M  V30 8951 C 818.646 -4.13894 -4.69513 0
M  V30 8952 H 818.879 -2.47653 -1.64485 0
M  V30 8953 H 816.412 -1.34806 -0.752769 0
M  V30 8954 H 818.37 -1.35549 -3.87475 0
M  V30 8955 H 817.031 -0.477213 -3.10454 0
M  V30 8956 H 816.224 -2.48466 -4.38498 0
M  V30 8957 H 815.826 -2.63165 -2.65745 0
M  V30 8958 H 818.118 -3.81158 -5.60111 0
M  V30 8959 H 819.061 -5.14584 -4.86425 0
M  V30 8960 H 819.469 -3.44998 -4.46807 0
M  V30 8961 N 818.867 0.818669 -1.34668 0
M  V30 8962 C 819.777 1.9616 -1.2868 0
M  V30 8963 C 820.793 1.72918 -0.193742 0
M  V30 8964 O 821.969 1.96951 -0.420975 0
M  V30 8965 C 819.034 3.30534 -1.04633 0
M  V30 8966 C 818.095 3.66755 -2.23136 0
M  V30 8967 C 817.328 4.94717 -2.00227 0
M  V30 8968 O 817.551 5.62218 -0.96264 0
M  V30 8969 O 816.485 5.28915 -2.87286 0
M  V30 8970 H 820.311 2.04157 -2.24842 0
M  V30 8971 H 817.896 0.954691 -1.14917 0
M  V30 8972 H 819.778 4.11005 -0.930216 0
M  V30 8973 H 818.453 3.23495 -0.115139 0
M  V30 8974 H 817.36 2.8671 -2.40308 0
M  V30 8975 H 818.693 3.78484 -3.1466 0
M  V30 8976 N 820.346 1.18468 1.03938 0
M  V30 8977 C 821.592 0.982286 1.77423 0
M  V30 8978 C 821.925 -0.48679 1.88 0
M  V30 8979 O 821.2 -1.36146 1.38905 0
M  V30 8980 C 821.483 1.63929 3.20623 0
M  V30 8981 C 821.336 3.18132 3.17982 0
M  V30 8982 C 822.655 1.3536 4.18767 0
M  V30 8983 H 819.774 0.358264 0.644062 0
M  V30 8984 H 822.416 1.46154 1.21405 0
M  V30 8985 H 820.566 1.2318 3.68455 0
M  V30 8986 H 822.238 3.68024 2.78129 0
M  V30 8987 H 820.481 3.50225 2.55978 0
M  V30 8988 H 821.152 3.5924 4.19107 0
M  V30 8989 H 823.628 1.70669 3.79488 0
M  V30 8990 H 822.504 1.83896 5.17178 0
M  V30 8991 H 822.765 0.276722 4.41233 0
M  V30 8992 N 821.824 -1.22873 0.986916 0
M  V30 8993 C 823.101 -1.86939 0.575589 0
M  V30 8994 C 823.481 -1.88656 -0.947205 0
M  V30 8995 O 822.829 -1.3728 -1.82665 0
M  V30 8996 C 823.039 -3.28117 1.18914 0
M  V30 8997 C 824.387 -4.04659 1.28593 0
M  V30 8998 O 825.411 -3.3736 1.14308 0
M  V30 8999 O 824.27 -5.25112 1.51391 0
M  V30 9000 H 821.364 -0.803748 0.194724 0
M  V30 9001 H 823.91 -1.30698 1.08241 0
M  V30 9002 H 822.682 -3.21468 2.231 0
M  V30 9003 H 822.305 -3.91956 0.667535 0
M  V30 9004 N 823.302 -0.75937 -1.38099 0
M  V30 9005 C 824.232 -0.151077 -2.33011 0
M  V30 9006 C 825.213 0.697099 -1.5516 0
M  V30 9007 O 826.398 0.637101 -1.83452 0
M  V30 9008 C 823.528 0.738423 -3.39359 0
M  V30 9009 C 822.482 -0.0074741 -4.27999 0
M  V30 9010 C 821.808 1.00066 -5.25253 0
M  V30 9011 C 823.108 -1.17926 -5.08813 0
M  V30 9012 H 824.802 -0.943933 -2.84131 0
M  V30 9013 H 822.348 -0.455362 -1.36611 0
M  V30 9014 H 824.301 1.17369 -4.04725 0
M  V30 9015 H 823.025 1.56366 -2.86735 0
M  V30 9016 H 821.684 -0.423379 -3.64147 0
M  V30 9017 H 821.332 1.82012 -4.68914 0
M  V30 9018 H 821.032 0.506199 -5.85416 0
M  V30 9019 H 822.556 1.43512 -5.93495 0
M  V30 9020 H 823.97 -0.821262 -5.67387 0
M  V30 9021 H 822.367 -1.60497 -5.78239 0
M  V30 9022 H 823.437 -1.98938 -4.42212 0
M  V30 9023 N 824.78 1.49157 -0.508906 0
M  V30 9024 C 826.028 2.02073 0.0327335 0
M  V30 9025 C 826.349 1.39012 1.3675 0
M  V30 9026 O 825.619 0.548153 1.88075 0
M  V30 9027 H 824.199 0.746848 0.0150864 0
M  V30 9028 H 826.861 1.83097 -0.667946 0
M  V30 9029 H 825.957 3.11707 0.1566 0
M  V30 9030 N 826.258 0.243083 1.55714 0
M  V30 9031 C 827.483 -0.389944 2.03701 0
M  V30 9032 C 827.908 -1.51025 1.12129 0
M  V30 9033 O 827.266 -1.80944 0.11352 0
M  V30 9034 C 827.314 -0.878649 3.49731 0
M  V30 9035 O 826.418 -1.98851 3.61292 0
M  V30 9036 H 825.759 -0.0855115 0.658471 0
M  V30 9037 H 828.289 0.368023 2.01263 0
M  V30 9038 H 828.299 -1.18287 3.90477 0
M  V30 9039 H 826.974 -0.0588107 4.15858 0
M  V30 9040 H 825.551 -1.68928 3.32442 0
M  V30 9041 N 827.736 -1.57571 -0.0300757 0
M  V30 9042 C 828.668 -2.0329 -1.05857 0
M  V30 9043 C 829.681 -0.945543 -1.32527 0
M  V30 9044 O 830.87 -1.22287 -1.30032 0
M  V30 9045 C 827.97 -2.39234 -2.40042 0
M  V30 9046 C 827.143 -3.70337 -2.32743 0
M  V30 9047 C 826.202 -3.93482 -3.49369 0
M  V30 9048 O 825.228 -4.64551 -3.28909 0
M  V30 9049 N 826.43 -3.39042 -4.71201 0
M  V30 9050 H 829.195 -2.9214 -0.668897 0
M  V30 9051 H 826.756 -1.60425 -0.218038 0
M  V30 9052 H 828.748 -2.51856 -3.16782 0
M  V30 9053 H 827.318 -1.5606 -2.70858 0
M  V30 9054 H 826.538 -3.68079 -1.41109 0
M  V30 9055 H 827.826 -4.56343 -2.25007 0
M  V30 9056 H 827.224 -2.81434 -4.90725 0
M  V30 9057 H 825.781 -3.57045 -5.45309 0
M  V30 9058 N 829.214 0.302327 -1.54673 0
M  V30 9059 C 830.463 1.03533 -1.73101 0
M  V30 9060 C 830.776 1.88473 -0.523174 0
M  V30 9061 O 831.982 2.65029 -0.589229 0
M  V30 9062 C 830.438 1.89043 -3.06252 0
M  V30 9063 C 830.046 1.09112 -4.3451 0
M  V30 9064 C 831.79 2.61951 -3.34039 0
M  V30 9065 C 829.697 1.93891 -5.58713 0
M  V30 9066 H 828.627 0.390261 -0.645145 0
M  V30 9067 H 831.278 0.2924 -1.81155 0
M  V30 9068 H 829.66 2.67319 -2.92159 0
M  V30 9069 H 830.834 0.354596 -4.59434 0
M  V30 9070 H 829.149 0.477923 -4.13648 0
M  V30 9071 H 831.746 3.25729 -4.24033 0
M  V30 9072 H 832.089 3.30711 -2.52855 0
M  V30 9073 H 832.622 1.90725 -3.49097 0
M  V30 9074 H 829.361 1.29604 -6.4256 0
M  V30 9075 H 828.881 2.6522 -5.37976 0
M  V30 9076 H 830.56 2.51971 -5.95919 0
M  V30 9077 N 830.692 1.47107 0.565454 0
M  V30 9078 C 831.624 1.55024 1.6882 0
M  V30 9079 C 832.637 0.4371 1.56822 0
M  V30 9080 O 833.826 0.706315 1.63931 0
M  V30 9081 C 830.926 1.43069 3.0722 0
M  V30 9082 C 830.099 2.68807 3.45053 0
M  V30 9083 C 829.158 2.50806 4.62583 0
M  V30 9084 O 828.184 3.24593 4.67577 0
M  V30 9085 N 829.386 1.58093 5.58558 0
M  V30 9086 H 832.151 2.51836 1.62477 0
M  V30 9087 H 829.712 1.43382 0.751885 0
M  V30 9088 H 831.704 1.28773 3.83666 0
M  V30 9089 H 830.274 0.543721 3.07835 0
M  V30 9090 H 829.494 2.97923 2.58138 0
M  V30 9091 H 830.782 3.52298 3.67101 0
M  V30 9092 H 830.18 0.972807 5.57273 0
M  V30 9093 H 828.737 1.49753 6.34364 0
M  V30 9094 N 832.17 -0.811516 1.35101 0
M  V30 9095 C 833.1 -1.9378 1.30275 0
M  V30 9096 C 834.081 -1.69165 0.178075 0
M  V30 9097 O 835.266 -1.90599 0.372256 0
M  V30 9098 C 832.396 -3.30439 1.06899 0
M  V30 9099 C 831.35 -3.69523 2.15955 0
M  V30 9100 C 830.676 -5.0429 1.77751 0
M  V30 9101 C 831.976 -3.80419 3.57881 0
M  V30 9102 H 833.67 -1.98075 2.24514 0
M  V30 9103 H 831.216 -0.951586 1.08078 0
M  V30 9104 H 833.169 -4.08828 1.02164 0
M  V30 9105 H 831.893 -3.26473 0.0910462 0
M  V30 9106 H 830.552 -2.93416 2.19778 0
M  V30 9107 H 830.2 -4.96823 0.785876 0
M  V30 9108 H 829.9 -5.31411 2.5075 0
M  V30 9109 H 831.424 -5.85125 1.74533 0
M  V30 9110 H 832.838 -4.49051 3.56407 0
M  V30 9111 H 831.235 -4.19005 4.29598 0
M  V30 9112 H 832.305 -2.82105 3.94391 0
M  V30 9113 N 833.648 -1.19017 -1.03309 0
M  V30 9114 C 834.897 -0.984542 -1.76039 0
M  V30 9115 C 835.21 0.485937 -1.89468 0
M  V30 9116 O 836.416 0.810278 -2.59127 0
M  V30 9117 C 834.872 -1.71261 -3.1654 0
M  V30 9118 C 834.48 -3.22291 -3.11179 0
M  V30 9119 C 836.224 -1.59007 -3.93595 0
M  V30 9120 C 834.131 -3.87704 -4.46587 0
M  V30 9121 H 833.061 -0.364749 -0.659905 0
M  V30 9122 H 835.712 -1.4247 -1.15649 0
M  V30 9123 H 834.094 -1.20025 -3.77373 0
M  V30 9124 H 835.268 -3.80611 -2.59753 0
M  V30 9125 H 833.583 -3.34772 -2.47622 0
M  V30 9126 H 836.18 -2.05232 -4.93745 0
M  V30 9127 H 836.523 -0.543534 -4.12736 0
M  V30 9128 H 837.056 -2.07564 -3.39355 0
M  V30 9129 H 833.795 -4.92437 -4.3265 0
M  V30 9130 H 833.315 -3.34172 -4.98085 0
M  V30 9131 H 834.994 -3.91008 -5.15482 0
M  V30 9132 N 835.127 1.22348 -0.993418 0
M  V30 9133 C 836.367 1.92835 -0.677779 0
M  V30 9134 C 836.731 1.75624 0.775893 0
M  V30 9135 O 837.932 2.40379 1.20297 0
M  V30 9136 C 836.203 3.40906 -1.07322 0
M  V30 9137 S 837.762 4.29966 -0.876032 0
M  V30 9138 H 834.58 0.666421 -0.247799 0
M  V30 9139 H 837.182 1.48133 -1.27581 0
M  V30 9140 H 835.886 3.50946 -2.12756 0
M  V30 9141 H 835.417 3.90618 -0.467015 0
M  V30 9142 H 837.432 4.95652 0.233162 0
M  V30 9143 N 836.605 0.766683 1.37694 0
M  V30 9144 C 837.553 0.137269 2.32195 0
M  V30 9145 C 838.547 -0.69067 1.54681 0
M  V30 9146 O 839.753 -0.588299 1.70115 0
M  V30 9147 H 836.128 0.0256003 0.751564 0
M  V30 9148 H 838.099 0.950129 2.82869 0
M  V30 9149 C 836.848 -0.731446 3.39919 0
M  V30 9150 H 836.171 -0.103738 3.99665 0
M  V30 9151 H 837.611 -1.13891 4.08417 0
M  V30 9152 C 836.07 -1.87984 2.79578 0
M  V30 9153 O 836.6 -2.97496 2.69924 0
M  V30 9154 N 834.806 -1.6789 2.37195 0
M  V30 9155 H 834.353 -0.788162 2.45246 0
M  V30 9156 H 834.311 -2.44894 1.97165 0
M  V30 9157 N 838.083 -1.48885 0.516809 0
M  V30 9158 C 839.329 -2.02788 -0.0220928 0
M  V30 9159 C 839.662 -1.39433 -1.35175 0
M  V30 9160 O 838.937 -0.535459 -1.86984 0
M  V30 9161 C 839.22 -3.59753 -0.158012 0
M  V30 9162 C 839.073 -4.33611 1.19588 0
M  V30 9163 C 840.392 -4.30984 -0.891133 0
M  V30 9164 H 837.511 -0.736971 -0.00655488 0
M  V30 9165 H 840.153 -1.77746 0.671287 0
M  V30 9166 H 838.303 -3.8122 -0.748568 0
M  V30 9167 H 839.975 -4.23598 1.82653 0
M  V30 9168 H 838.218 -3.95547 1.78116 0
M  V30 9169 H 838.889 -5.41846 1.05391 0
M  V30 9170 H 841.365 -4.14267 -0.39012 0
M  V30 9171 H 840.241 -5.40527 -0.955107 0
M  V30 9172 H 840.502 -3.97336 -1.93847 0
M  V30 9173 N 839.561 -0.251338 -1.55583 0
M  V30 9174 C 840.789 0.376187 -2.03451 0
M  V30 9175 C 841.204 1.51215 -1.13047 0
M  V30 9176 O 840.561 1.81917 -0.145769 0
M  V30 9177 C 840.612 0.879779 -3.50631 0
M  V30 9178 O 840.333 -0.210917 -4.37592 0
M  V30 9179 C 841.834 1.57754 -4.14281 0
M  V30 9180 H 839.054 0.0888722 -0.665089 0
M  V30 9181 H 841.598 -0.376497 -2.01004 0
M  V30 9182 H 839.753 1.58263 -3.53598 0
M  V30 9183 H 840.167 0.172203 -5.24217 0
M  V30 9184 H 841.641 1.88158 -5.18942 0
M  V30 9185 H 842.118 2.50103 -3.61034 0
M  V30 9186 H 842.724 0.919154 -4.15249 0
M  V30 9187 N 841.039 1.57585 0.0217189 0
M  V30 9188 C 842.287 1.89231 0.709641 0
M  V30 9189 C 842.608 0.849964 1.75501 0
M  V30 9190 O 841.878 -0.115485 1.95559 0
M  V30 9191 H 840.458 0.69838 0.265092 0
M  V30 9192 H 843.12 1.94895 -0.0140688 0
M  V30 9193 H 842.216 2.88333 1.19459 0
M  V30 9194 N 842.517 -0.29412 1.54831 0
M  V30 9195 C 843.449 -1.38476 1.82639 0
M  V30 9196 C 844.462 -1.46517 0.709694 0
M  V30 9197 O 845.651 -1.48712 0.987269 0
M  V30 9198 C 842.751 -2.76791 1.95551 0
M  V30 9199 C 841.924 -2.91599 3.26019 0
M  V30 9200 C 840.983 -4.10456 3.29261 0
M  V30 9201 O 840.009 -4.02214 4.02756 0
M  V30 9202 N 841.211 -5.21422 2.55145 0
M  V30 9203 H 843.976 -1.14974 2.76769 0
M  V30 9204 H 841.537 -0.484206 1.5449 0
M  V30 9205 H 843.529 -3.5456 1.95113 0
M  V30 9206 H 842.099 -2.93209 1.08384 0
M  V30 9207 H 841.319 -2.00886 3.39173 0
M  V30 9208 H 842.607 -2.98409 4.12104 0
M  V30 9209 H 842.005 -5.31 1.95078 0
M  V30 9210 H 840.562 -5.97501 2.60454 0
M  V30 9211 N 843.995 -1.47404 -0.557645 0
M  V30 9212 C 844.925 -1.62736 -1.67449 0
M  V30 9213 C 845.906 -0.476824 -1.6328 0
M  V30 9214 O 847.091 -0.706108 -1.80908 0
M  V30 9215 C 844.221 -1.641 -3.06086 0
M  V30 9216 C 843.175 -2.78377 -3.25101 0
M  V30 9217 C 842.501 -2.64812 -4.6452 0
M  V30 9218 C 843.801 -4.19971 -3.10518 0
M  V30 9219 H 845.495 -2.56232 -1.54873 0
M  V30 9220 H 843.041 -1.23312 -0.743649 0
M  V30 9221 H 844.994 -1.73417 -3.84063 0
M  V30 9222 H 843.718 -0.671652 -3.19619 0
M  V30 9223 H 842.377 -2.6857 -2.49531 0
M  V30 9224 H 842.025 -1.65906 -4.74852 0
M  V30 9225 H 841.725 -3.41477 -4.78191 0
M  V30 9226 H 843.249 -2.76057 -5.44633 0
M  V30 9227 H 844.663 -4.30757 -3.78313 0
M  V30 9228 H 843.06 -4.97419 -3.35699 0
M  V30 9229 H 844.13 -4.38369 -2.0727 0
M  V30 9230 N 845.473 0.80434 -1.35529 0
M  V30 9231 C 846.698 1.598 -1.32207 0
M  V30 9232 C 847.123 1.87848 0.0974226 0
M  V30 9233 O 846.481 1.46728 1.06492 0
M  V30 9234 C 846.529 2.90483 -2.13663 0
M  V30 9235 O 845.633 3.83411 -1.51888 0
M  V30 9236 H 844.974 0.485305 -0.453183 0
M  V30 9237 H 847.504 0.998119 -1.78602 0
M  V30 9238 H 847.514 3.39888 -2.257 0
M  V30 9239 H 846.189 2.69395 -3.16859 0
M  V30 9240 H 844.766 3.41967 -1.48704 0
M  V30 9241 N 846.951 1.19563 1.02676 0
M  V30 9242 C 848.228 0.908857 1.73203 0
M  V30 9243 C 848.608 -0.584928 2.02834 0
M  V30 9244 O 847.956 -1.54372 1.68469 0
M  V30 9245 C 848.166 1.77105 3.00724 0
M  V30 9246 C 849.514 2.00667 3.7419 0
M  V30 9247 O 850.538 1.74274 3.10656 0
M  V30 9248 O 849.397 2.4518 4.88415 0
M  V30 9249 H 846.491 0.338909 0.754367 0
M  V30 9250 H 849.037 1.30387 1.08616 0
M  V30 9251 H 847.809 2.78303 2.7507 0
M  V30 9252 H 847.432 1.37546 3.73051 0
M  V30 9253 N 848.429 -1.21819 0.999893 0
M  V30 9254 C 849.678 -1.90066 0.675108 0
M  V30 9255 C 849.991 -1.78624 -0.79705 0
M  V30 9256 O 851.197 -2.41851 -1.23371 0
M  V30 9257 C 849.653 -3.40795 1.15702 0
M  V30 9258 C 849.261 -3.60859 2.6549 0
M  V30 9259 C 851.005 -4.147 0.906889 0
M  V30 9260 C 848.912 -5.05324 3.07248 0
M  V30 9261 H 847.842 -0.711763 0.248815 0
M  V30 9262 H 850.493 -1.3792 1.21038 0
M  V30 9263 H 848.875 -3.92164 0.549832 0
M  V30 9264 H 850.049 -3.19951 3.31614 0
M  V30 9265 H 848.364 -3.00298 2.88461 0
M  V30 9266 H 850.961 -5.21187 1.1945 0
M  V30 9267 H 851.304 -4.16004 -0.156923 0
M  V30 9268 H 851.837 -3.69379 1.47662 0
M  V30 9269 H 848.576 -5.09164 4.12834 0
M  V30 9270 H 848.096 -5.47108 2.45832 0
M  V30 9271 H 849.775 -5.73797 2.98941 0
M  V30 9272 N 849.908 -0.773975 -1.37286 0
M  V30 9273 C 850.871 -0.167974 -2.28584 0
M  V30 9274 C 851.871 0.625662 -1.48129 0
M  V30 9275 O 853.061 0.448924 -1.68316 0
M  V30 9276 C 850.193 0.769364 -3.32105 0
M  V30 9277 H 851.386 -0.972806 -2.83684 0
M  V30 9278 H 848.939 -0.542335 -1.46589 0
M  V30 9279 H 849.674 1.59912 -2.82132 0
M  V30 9280 H 849.459 0.202419 -3.91577 0
M  V30 9281 H 850.949 1.18872 -4.00324 0
M  V30 9282 N 851.386 1.48609 -0.524698 0
M  V30 9283 C 852.616 2.06599 0.00741868 0
M  V30 9284 C 853.024 1.3823 1.29186 0
M  V30 9285 O 852.367 0.461962 1.77797 0
M  V30 9286 C 852.429 3.58184 0.307324 0
M  V30 9287 C 852.093 4.48391 -0.882864 0
M  V30 9288 C 853.09 4.88485 -1.77984 0
M  V30 9289 C 850.775 4.90367 -1.08837 0
M  V30 9290 C 852.769 5.69319 -2.86627 0
M  V30 9291 C 850.456 5.70972 -2.17794 0
M  V30 9292 C 851.454 6.10355 -3.06523 0
M  V30 9293 O 851.142 6.89343 -4.13596 0
M  V30 9294 H 850.874 0.675421 -0.0279846 0
M  V30 9295 H 853.428 1.92058 -0.7282 0
M  V30 9296 H 851.658 3.70818 1.09685 0
M  V30 9297 H 853.347 3.98318 0.780886 0
M  V30 9298 H 854.113 4.56682 -1.63299 0
M  V30 9299 H 849.992 4.592 -0.407035 0
M  V30 9300 H 853.536 5.99978 -3.55911 0
M  V30 9301 H 849.433 6.02188 -2.32465 0
M  V30 9302 H 850.201 7.07689 -4.1124 0
M  V30 9303 N 852.864 0.259585 1.55447 0
M  V30 9304 C 854.11 -0.355207 2.00274 0
M  V30 9305 C 854.465 -1.54637 1.14477 0
M  V30 9306 O 853.758 -1.90519 0.203215 0
M  V30 9307 C 853.952 -0.802727 3.48269 0
M  V30 9308 C 853.781 0.34353 4.48386 0
M  V30 9309 C 852.551 0.822317 4.98564 0
M  V30 9310 C 854.749 1.17482 5.00702 0
M  V30 9311 N 852.731 1.93966 5.82452 0
M  V30 9312 C 854.102 2.14032 5.81885 0
M  V30 9313 C 856.157 1.20994 4.82975 0
M  V30 9314 C 854.86 3.1382 6.47232 0
M  V30 9315 C 856.886 2.19618 5.4911 0
M  V30 9316 C 856.248 3.14903 6.30092 0
M  V30 9317 H 852.347 -0.0955824 0.776137 0
M  V30 9318 H 854.931 0.380062 1.90954 0
M  V30 9319 H 853.102 -1.50726 3.57961 0
M  V30 9320 H 854.834 -1.39354 3.79951 0
M  V30 9321 H 851.589 0.404272 4.71871 0
M  V30 9322 H 852.013 2.50148 6.29091 0
M  V30 9323 H 856.655 0.487104 4.19985 0
M  V30 9324 H 854.373 3.87045 7.09381 0
M  V30 9325 H 857.959 2.23057 5.37342 0
M  V30 9326 H 856.839 3.8997 6.80362 0
M  V30 9327 N 854.342 -1.57594 -0.0133615 0
M  V30 9328 C 855.289 -2.07574 -1.00905 0
M  V30 9329 C 856.259 -0.968231 -1.34961 0
M  V30 9330 O 857.444 -1.23981 -1.45028 0
M  V30 9331 C 854.584 -2.5728 -2.30002 0
M  V30 9332 C 853.697 -3.81881 -2.01967 0
M  V30 9333 C 852.832 -4.20139 -3.25049 0
M  V30 9334 C 851.871 -5.37614 -2.92639 0
M  V30 9335 N 851.008 -5.71229 -4.08218 0
M  V30 9336 H 855.848 -2.92382 -0.575899 0
M  V30 9337 H 853.385 -1.4455 -0.272722 0
M  V30 9338 H 855.343 -2.84171 -3.05454 0
M  V30 9339 H 853.973 -1.75365 -2.71011 0
M  V30 9340 H 853.025 -3.61979 -1.16942 0
M  V30 9341 H 854.337 -4.67441 -1.74069 0
M  V30 9342 H 853.491 -4.48242 -4.08857 0
M  V30 9343 H 852.23 -3.33262 -3.56073 0
M  V30 9344 H 851.235 -5.09248 -2.07235 0
M  V30 9345 H 852.46 -6.26157 -2.62876 0
M  V30 9346 H 850.406 -4.8731 -4.39164 0
M  V30 9347 H 850.323 -6.51333 -3.83799 0
M  V30 9348 H 851.591 -6.03917 -4.92854 0
M  V30 9349 N 855.82 0.285905 -1.54985 0
M  V30 9350 C 857.066 1.01669 -1.76168 0
M  V30 9351 C 857.421 1.84401 -0.549019 0
M  V30 9352 O 856.714 1.86034 0.458463 0
M  V30 9353 C 856.908 1.94193 -3.0004 0
M  V30 9354 C 856.737 1.20565 -4.33237 0
M  V30 9355 C 855.507 0.92661 -4.96731 0
M  V30 9356 C 857.705 0.602514 -5.10759 0
M  V30 9357 N 855.687 0.162185 -6.13686 0
M  V30 9358 C 857.058 -0.0283843 -6.19994 0
M  V30 9359 C 859.113 0.509067 -4.95291 0
M  V30 9360 C 857.816 -0.743706 -7.15445 0
M  V30 9361 C 859.842 -0.192633 -5.91086 0
M  V30 9362 C 859.204 -0.812321 -6.997 0
M  V30 9363 H 855.303 0.354451 -0.697057 0
M  V30 9364 H 857.887 0.293693 -1.92472 0
M  V30 9365 H 856.058 2.6373 -2.85133 0
M  V30 9366 H 857.79 2.60536 -3.09682 0
M  V30 9367 H 854.545 1.22861 -4.57386 0
M  V30 9368 H 854.969 -0.206982 -6.76684 0
M  V30 9369 H 859.611 0.973856 -4.11432 0
M  V30 9370 H 857.329 -1.22022 -7.98834 0
M  V30 9371 H 860.915 -0.265082 -5.81196 0
M  V30 9372 H 859.795 -1.34665 -7.72551 0
M  V30 9373 N 857.298 1.47698 0.54982 0
M  V30 9374 C 858.246 1.61156 1.67724 0
M  V30 9375 C 859.24 0.478606 1.62498 0
M  V30 9376 O 860.446 0.656661 1.67595 0
M  V30 9377 H 856.821 0.507304 0.55511 0
M  V30 9378 H 858.792 2.55884 1.53512 0
M  V30 9379 C 857.541 1.64994 3.06059 0
M  V30 9380 H 856.864 2.51525 3.10765 0
M  V30 9381 H 858.304 1.78459 3.84615 0
M  V30 9382 C 856.763 0.384677 3.34697 0
M  V30 9383 O 857.293 -0.511057 3.98436 0
M  V30 9384 N 855.499 0.262434 2.89413 0
M  V30 9385 H 855.046 0.99229 2.37721 0
M  V30 9386 H 855.004 -0.583177 3.08944 0
M  V30 9387 N 858.776 -0.797141 1.35954 0
M  V30 9388 C 860.024 -1.55161 1.29497 0
M  V30 9389 C 860.345 -1.94582 -0.127659 0
M  V30 9390 O 859.615 -1.64343 -1.06622 0
M  V30 9391 H 858.195 -0.575413 0.47635 0
M  V30 9392 H 860.857 -0.950282 1.70164 0
M  V30 9393 H 859.953 -2.46272 1.9172 0
M  V30 9394 N 860.254 -1.20106 -1.0204 0
M  V30 9395 C 861.479 -1.0351 -1.79723 0
M  V30 9396 C 861.904 0.411328 -1.83548 0
M  V30 9397 O 861.262 1.29608 -1.26773 0
M  V30 9398 C 861.31 -1.61876 -3.22224 0
M  V30 9399 O 860.414 -0.853813 -4.03465 0
M  V30 9400 H 859.755 -0.365299 -0.554484 0
M  V30 9401 H 862.285 -1.59316 -1.28373 0
M  V30 9402 H 862.295 -1.65451 -3.72948 0
M  V30 9403 H 860.97 -2.67148 -3.18755 0
M  V30 9404 H 859.547 -0.891983 -3.62075 0
M  V30 9405 N 861.732 1.21287 -1.00634 0
M  V30 9406 C 862.978 1.90671 -0.690822 0
M  V30 9407 C 863.311 1.77996 0.776592 0
M  V30 9408 O 862.586 1.15748 1.5631 0
M  V30 9409 C 862.869 3.42426 -1.11428 0
M  V30 9410 C 862.722 3.64086 -2.64124 0
M  V30 9411 C 864.041 4.34851 -0.677686 0
M  V30 9412 H 861.16 0.692419 -0.252439 0
M  V30 9413 H 863.802 1.42893 -1.25226 0
M  V30 9414 H 861.952 3.83249 -0.636586 0
M  V30 9415 H 863.624 3.32582 -3.19667 0
M  V30 9416 H 861.867 3.07906 -3.05576 0
M  V30 9417 H 862.538 4.7042 -2.88806 0
M  V30 9418 H 865.014 4.01619 -1.0882 0
M  V30 9419 H 863.89 5.39675 -1.00213 0
M  V30 9420 H 864.151 4.4009 0.421125 0
M  V30 9421 N 863.21 0.781244 1.36873 0
M  V30 9422 C 864.459 0.34652 1.98701 0
M  V30 9423 C 864.772 -1.08555 1.62712 0
M  V30 9424 O 865.978 -1.62213 2.17713 0
M  V30 9425 C 864.434 0.568611 3.5538 0
M  V30 9426 C 864.042 2.01156 4.003 0
M  V30 9427 C 865.786 0.197983 4.24038 0
M  V30 9428 C 863.693 2.18074 5.49725 0
M  V30 9429 H 862.623 0.125821 0.743428 0
M  V30 9430 H 865.274 0.961721 1.56279 0
M  V30 9431 H 863.656 -0.116185 3.9583 0
M  V30 9432 H 864.83 2.73209 3.71071 0
M  V30 9433 H 863.145 2.33967 3.44454 0
M  V30 9434 H 865.742 0.302778 5.33842 0
M  V30 9435 H 866.085 -0.852927 4.07469 0
M  V30 9436 H 866.618 0.835696 3.88923 0
M  V30 9437 H 863.357 3.21519 5.71232 0
M  V30 9438 H 862.877 1.50517 5.80607 0
M  V30 9439 H 864.556 1.98393 6.15832 0
M  V30 9440 N 864.689 -1.48329 0.532571 0
M  V30 9441 C 865.966 -1.95492 -0.0650985 0
M  V30 9442 C 866.346 -1.47485 -1.51034 0
M  V30 9443 O 865.694 -0.702516 -2.17433 0
M  V30 9444 C 865.904 -3.48957 0.0548341 0
M  V30 9445 C 867.252 -4.24475 -0.103115 0
M  V30 9446 O 868.276 -3.56195 -0.0188343 0
M  V30 9447 O 867.135 -5.45781 -0.280164 0
M  V30 9448 H 864.229 -0.823327 -0.0778603 0
M  V30 9449 H 866.775 -1.58839 0.597353 0
M  V30 9450 H 865.547 -3.76628 1.06148 0
M  V30 9451 H 865.17 -3.92311 -0.64635 0
M  V30 9452 N 866.167 -0.267825 -1.55308 0
M  V30 9453 C 867.077 0.633055 -2.25897 0
M  V30 9454 C 868.093 1.17613 -1.28231 0
M  V30 9455 O 869.269 1.20797 -1.61153 0
M  V30 9456 C 866.334 1.80397 -2.96071 0
M  V30 9457 C 865.395 1.29829 -4.09198 0
M  V30 9458 C 864.628 2.4134 -4.76016 0
M  V30 9459 O 864.851 3.60537 -4.42006 0
M  V30 9460 O 863.785 2.09909 -5.64111 0
M  V30 9461 H 867.611 0.0614381 -3.03638 0
M  V30 9462 H 865.196 -0.0355072 -1.49358 0
M  V30 9463 H 867.078 2.48685 -3.40197 0
M  V30 9464 H 865.753 2.36281 -2.21253 0
M  V30 9465 H 864.66 0.582086 -3.69544 0
M  V30 9466 H 865.993 0.785288 -4.85895 0
M  V30 9467 N 867.645 1.57599 0.00500368 0
M  V30 9468 C 868.922 1.81561 0.727654 0
M  V30 9469 C 869.302 0.871604 1.92266 0
M  V30 9470 O 868.65 -0.0808232 2.28357 0
M  V30 9471 C 868.86 3.29922 1.13809 0
M  V30 9472 C 870.208 3.95531 1.54403 0
M  V30 9473 O 871.232 3.34215 1.23202 0
M  V30 9474 O 870.091 5.03535 2.12402 0
M  V30 9475 H 867.185 0.747462 0.353878 0
M  V30 9476 H 869.731 1.69688 -0.0200667 0
M  V30 9477 H 868.503 3.90253 0.286078 0
M  V30 9478 H 868.126 3.46775 1.94507 0
M  V30 9479 N 869.123 -0.277682 1.55134 0
M  V30 9480 C 870.4 -1.0309 1.66228 0
M  V30 9481 C 870.78 -2.0445 0.525701 0
M  V30 9482 O 870.128 -2.23512 -0.474816 0
M  V30 9483 C 870.338 -1.6919 3.05247 0
M  V30 9484 C 871.686 -2.20526 3.62841 0
M  V30 9485 O 872.71 -1.79185 3.07849 0
M  V30 9486 O 871.569 -2.96342 4.59177 0
M  V30 9487 H 868.663 -0.4779 0.674937 0
M  V30 9488 H 871.209 -0.273912 1.67475 0
M  V30 9489 H 869.981 -0.957163 3.79413 0
M  V30 9490 H 869.604 -2.51587 3.07879 0
M  V30 9491 N 870.601 -1.47988 -0.541979 0
M  V30 9492 C 872.012 -1.49073 -1.12402 0
M  V30 9493 C 872.363 -0.253825 -1.94551 0
M  V30 9494 O 871.488 0.640056 -2.06718 0
M  V30 9495 C 872.083 -2.7011 -2.04514 0
M  V30 9496 C 870.642 -2.74105 -2.5796 0
M  V30 9497 C 869.789 -2.42409 -1.3466 0
M  V30 9498 H 872.74 -1.55277 -0.327818 0
M  V30 9499 H 872.761 -2.47946 -2.88623 0
M  V30 9500 H 872.273 -3.60117 -1.44697 0
M  V30 9501 H 870.374 -1.88276 -3.21532 0
M  V30 9502 H 870.487 -3.75213 -2.97913 0
M  V30 9503 H 868.851 -1.9331 -1.65841 0
M  V30 9504 H 869.634 -3.34642 -0.766133 0
M  V30 9505 N 872.079 0.78992 -1.36375 0
M  V30 9506 C 873.325 1.55007 -1.3077 0
M  V30 9507 C 873.658 1.93871 0.112979 0
M  V30 9508 O 872.933 1.6267 1.06625 0
M  V30 9509 C 873.216 2.82748 -2.22993 0
M  V30 9510 C 873.069 2.50253 -3.73756 0
M  V30 9511 C 874.388 3.84569 -2.13998 0
M  V30 9512 H 871.507 0.562362 -0.476359 0
M  V30 9513 H 874.149 0.907582 -1.66922 0
M  V30 9514 H 872.299 3.37573 -1.92292 0
M  V30 9515 H 873.971 2.01482 -4.14973 0
M  V30 9516 H 872.214 1.83203 -3.93216 0
M  V30 9517 H 872.885 3.41487 -4.33694 0
M  V30 9518 H 875.361 3.39188 -2.4102 0
M  V30 9519 H 874.237 4.717 -2.80697 0
M  V30 9520 H 874.498 4.27491 -1.12711 0
M  V30 9521 N 873.557 1.20646 1.01402 0
M  V30 9522 C 874.487 0.98155 2.11867 0
M  V30 9523 C 875.468 -0.0903712 1.6986 0
M  V30 9524 O 876.653 0.0676586 1.94082 0
M  V30 9525 C 873.783 0.535636 3.43145 0
M  V30 9526 C 872.737 1.55109 3.98905 0
M  V30 9527 C 872.063 0.961725 5.2598 0
M  V30 9528 C 873.363 2.93552 4.32001 0
M  V30 9529 H 875.057 1.90544 2.3094 0
M  V30 9530 H 872.603 0.917554 1.10982 0
M  V30 9531 H 874.556 0.365512 4.19812 0
M  V30 9532 H 873.28 -0.423882 3.23838 0
M  V30 9533 H 871.939 1.70862 3.24348 0
M  V30 9534 H 871.587 -0.00580108 5.03 0
M  V30 9535 H 871.287 1.63993 5.64252 0
M  V30 9536 H 872.811 0.802726 6.053 0
M  V30 9537 H 874.225 2.81295 4.99546 0
M  V30 9538 H 872.622 3.58303 4.81393 0
M  V30 9539 H 873.692 3.4508 3.40658 0
M  V30 9540 N 875.035 -1.20752 1.01276 0
M  V30 9541 C 876.283 -1.89645 0.698505 0
M  V30 9542 C 876.604 -1.78986 -0.773883 0
M  V30 9543 O 875.874 -1.18977 -1.55632 0
M  V30 9544 H 874.454 -0.701992 0.255375 0
M  V30 9545 H 877.116 -1.46668 1.28353 0
M  V30 9546 H 876.212 -2.96364 0.978512 0
M  V30 9547 N 876.513 -0.788492 -1.36457 0
M  V30 9548 C 877.423 -0.187385 -2.3385 0
M  V30 9549 C 878.439 0.659984 -1.60998 0
M  V30 9550 O 879.615 0.575986 -1.92988 0
M  V30 9551 C 876.68 0.668525 -3.40194 0
M  V30 9552 C 875.741 -0.197234 -4.28847 0
M  V30 9553 C 874.974 0.61792 -5.30111 0
M  V30 9554 O 875.197 1.85396 -5.3943 0
M  V30 9555 O 874.131 0.0183016 -6.01897 0
M  V30 9556 H 877.957 -0.992617 -2.87021 0
M  V30 9557 H 875.542 -0.549934 -1.3891 0
M  V30 9558 H 877.424 1.15663 -4.05216 0
M  V30 9559 H 876.099 1.45166 -2.89324 0
M  V30 9560 H 875.006 -0.73207 -3.66867 0
M  V30 9561 H 876.339 -0.943863 -4.83065 0
M  V30 9562 N 877.991 1.48044 -0.54043 0
M  V30 9563 C 879.268 1.95523 0.0547302 0
M  V30 9564 C 879.648 1.48284 1.5025 0
M  V30 9565 O 878.996 0.714037 2.17057 0
M  V30 9566 C 879.206 3.48923 -0.0733393 0
M  V30 9567 C 880.554 4.24523 0.0806026 0
M  V30 9568 O 881.578 3.562 -5.58687e-05 0
M  V30 9569 O 880.437 5.45922 0.251216 0
M  V30 9570 H 877.531 0.823728 0.073493 0
M  V30 9571 H 880.077 1.5852 -0.605768 0
M  V30 9572 H 878.849 3.76059 -1.08144 0
M  V30 9573 H 878.472 3.92648 0.625536 0
M  V30 9574 N 879.47 0.276058 1.55163 0
M  V30 9575 C 880.7 -0.343274 2.03728 0
M  V30 9576 C 881.108 -1.49945 1.15383 0
M  V30 9577 O 880.451 -1.82942 0.166696 0
M  V30 9578 C 880.513 -0.885683 3.48419 0
M  V30 9579 C 880.177 0.141976 4.56779 0
M  V30 9580 C 881.174 0.961816 5.10926 0
M  V30 9581 C 878.859 0.276487 5.01538 0
M  V30 9582 C 880.853 1.90234 6.0835 0
M  V30 9583 C 878.54 1.22049 5.98788 0
M  V30 9584 C 879.538 2.03192 6.52075 0
M  V30 9585 O 879.226 2.95996 7.47423 0
M  V30 9586 H 878.958 -0.0822192 0.670981 0
M  V30 9587 H 881.512 0.406199 2.01343 0
M  V30 9588 H 879.742 -1.68524 3.48047 0
M  V30 9589 H 881.431 -1.4182 3.80318 0
M  V30 9590 H 882.197 0.868637 4.77158 0
M  V30 9591 H 878.076 -0.345095 4.59707 0
M  V30 9592 H 881.62 2.5361 6.49867 0
M  V30 9593 H 877.517 1.31448 6.31974 0
M  V30 9594 H 878.285 2.90688 7.65142 0
M  V30 9595 N 880.948 -1.576 0.00335426 0
M  V30 9596 C 882.178 -1.94713 -0.690682 0
M  V30 9597 C 882.586 -0.876915 -1.67651 0
M  V30 9598 O 881.929 0.152434 -1.83066 0
M  V30 9599 C 881.991 -3.27833 -1.47532 0
M  V30 9600 C 881.655 -4.52344 -0.650704 0
M  V30 9601 C 882.652 -5.19862 0.0630537 0
M  V30 9602 C 880.337 -4.98755 -0.595687 0
M  V30 9603 C 882.331 -6.32093 0.820779 0
M  V30 9604 C 880.018 -6.10875 0.165761 0
M  V30 9605 C 881.016 -6.77401 0.872724 0
M  V30 9606 O 880.704 -7.87372 1.62174 0
M  V30 9607 H 880.436 -0.646627 -0.197104 0
M  V30 9608 H 882.99 -2.05335 0.0516082 0
M  V30 9609 H 881.22 -3.13628 -2.26217 0
M  V30 9610 H 882.909 -3.50034 -2.05501 0
M  V30 9611 H 883.675 -4.84991 0.0297223 0
M  V30 9612 H 879.554 -4.46797 -1.13549 0
M  V30 9613 H 883.098 -6.83953 1.37312 0
M  V30 9614 H 878.995 -6.45187 0.200901 0
M  V30 9615 H 879.763 -8.03905 1.5388 0
M  V30 9616 N 882.426 0.269451 -1.5528 0
M  V30 9617 C 883.651 1.02299 -1.80415 0
M  V30 9618 C 884.076 1.7902 -0.577363 0
M  V30 9619 O 883.434 1.75018 0.473125 0
M  V30 9620 C 883.482 1.95445 -3.0304 0
M  V30 9621 O 882.586 3.04271 -2.78375 0
M  V30 9622 H 881.927 0.292289 -0.596207 0
M  V30 9623 H 884.457 0.297282 -2.02429 0
M  V30 9624 H 884.467 2.37333 -3.31869 0
M  V30 9625 H 883.142 1.39017 -3.91978 0
M  V30 9626 H 881.719 2.66673 -2.60653 0
M  V30 9627 N 883.904 1.48273 0.534124 0
M  V30 9628 C 885.15 1.56311 1.29208 0
M  V30 9629 C 885.483 0.234481 1.92779 0
M  V30 9630 O 884.758 -0.759143 1.79073 0
M  V30 9631 C 885.041 2.69831 2.3846 0
M  V30 9632 C 884.894 4.12385 1.79608 0
M  V30 9633 C 886.213 2.79133 3.40254 0
M  V30 9634 H 883.332 0.56899 0.468422 0
M  V30 9635 H 885.974 1.80429 0.595438 0
M  V30 9636 H 884.124 2.49397 2.97881 0
M  V30 9637 H 885.796 4.44246 1.24269 0
M  V30 9638 H 884.039 4.19579 1.10162 0
M  V30 9639 H 884.71 4.87629 2.58693 0
M  V30 9640 H 887.186 2.97632 2.90783 0
M  V30 9641 H 886.062 3.60298 4.14097 0
M  V30 9642 H 886.323 1.87122 4.00547 0
M  V30 9643 N 885.382 -0.782676 1.36792 0
M  V30 9644 C 886.292 -1.92679 1.33835 0
M  V30 9645 C 887.308 -1.72344 0.23952 0
M  V30 9646 O 888.484 -1.95766 0.473045 0
M  V30 9647 C 885.549 -3.27644 1.1336 0
M  V30 9648 C 884.61 -3.6071 2.32781 0
M  V30 9649 C 883.843 -4.89234 2.13273 0
M  V30 9650 O 884.066 -5.59468 1.11136 0
M  V30 9651 O 883 -5.21112 3.01208 0
M  V30 9652 H 886.826 -1.98124 2.30175 0
M  V30 9653 H 884.411 -0.923887 1.17408 0
M  V30 9654 H 886.293 -4.08394 1.03886 0
M  V30 9655 H 884.968 -3.23076 0.200868 0
M  V30 9656 H 883.875 -2.80238 2.47825 0
M  V30 9657 H 885.208 -3.70008 3.24584 0
M  V30 9658 N 886.86 -1.21182 -1.00761 0
M  V30 9659 C 887.808 -0.965728 -2.11604 0
M  V30 9660 C 888.802 0.0861028 -1.69181 0
M  V30 9661 O 890.008 -0.0650558 -1.79882 0
M  V30 9662 H 886.383 -0.295023 -0.691712 0
M  V30 9663 H 888.354 -1.90667 -2.2954 0
M  V30 9664 C 887.103 -0.544164 -3.43415 0
M  V30 9665 H 886.426 -1.34515 -3.76491 0
M  V30 9666 H 887.866 -0.411268 -4.22001 0
M  V30 9667 C 886.325 0.744583 -3.28569 0
M  V30 9668 O 886.855 1.80078 -3.59075 0
M  V30 9669 N 885.061 0.710083 -2.81791 0
M  V30 9670 H 884.608 -0.14971 -2.57165 0
M  V30 9671 H 884.566 1.57268 -2.72239 0
M  V30 9672 N 888.338 1.20213 -1.01915 0
M  V30 9673 C 889.749 1.7136 -0.741131 0
M  V30 9674 C 890.1 1.81705 0.740107 0
M  V30 9675 O 889.225 1.48139 1.57746 0
M  V30 9676 C 889.82 3.11231 -1.33869 0
M  V30 9677 C 888.379 3.59677 -1.10948 0
M  V30 9678 C 887.526 2.36809 -1.4428 0
M  V30 9679 H 890.477 1.05191 -1.1883 0
M  V30 9680 H 890.498 3.7342 -0.730585 0
M  V30 9681 H 890.01 3.03669 -2.41675 0
M  V30 9682 H 888.111 3.72568 -0.0492052 0
M  V30 9683 H 888.224 4.44351 -1.79134 0
M  V30 9684 H 886.588 2.39674 -0.861881 0
M  V30 9685 H 887.371 2.31886 -2.53148 0
M  V30 9686 N 889.816 0.795718 1.36037 0
M  V30 9687 C 890.779 0.204318 2.28287 0
M  V30 9688 C 891.779 -0.602017 1.49105 0
M  V30 9689 O 892.969 -0.422089 1.69009 0
M  V30 9690 C 890.101 -0.716431 3.33287 0
M  V30 9691 H 891.294 1.01781 2.821 0
M  V30 9692 H 888.847 0.565588 1.45708 0
M  V30 9693 H 889.582 -1.55403 2.84641 0
M  V30 9694 H 889.367 -0.140096 3.9185 0
M  V30 9695 H 890.857 -1.12488 4.02164 0
M  V30 9696 N 891.294 -1.47756 0.548274 0
M  V30 9697 C 892.242 -2.3158 -0.217584 0
M  V30 9698 C 893.236 -1.42372 -0.917957 0
M  V30 9699 O 894.442 -1.59184 -0.840259 0
M  V30 9700 H 890.817 -0.74671 -0.0890388 0
M  V30 9701 H 892.788 -2.94032 0.508719 0
M  V30 9702 C 891.537 -3.24834 -1.24008 0
M  V30 9703 H 890.86 -3.93435 -0.710572 0
M  V30 9704 H 892.3 -3.86336 -1.74701 0
M  V30 9705 C 890.759 -2.47724 -2.2833 0
M  V30 9706 O 891.289 -2.21522 -3.35098 0
M  V30 9707 N 889.495 -2.08891 -2.02022 0
M  V30 9708 H 889.042 -2.30401 -1.1521 0
M  V30 9709 H 889 -1.57613 -2.7204 0
M  V30 9710 N 892.772 -0.284283 -1.55015 0
M  V30 9711 C 893.719 0.599194 -2.22886 0
M  V30 9712 C 894.689 1.14264 -1.20553 0
M  V30 9713 O 895.874 1.19025 -1.49123 0
M  V30 9714 C 893.014 1.77317 -2.96062 0
M  V30 9715 C 892.127 1.26271 -4.13134 0
M  V30 9716 C 891.262 2.39922 -4.73931 0
M  V30 9717 C 890.301 1.85925 -5.8318 0
M  V30 9718 N 889.438 2.93084 -6.38002 0
M  V30 9719 H 894.278 0.0137816 -2.97997 0
M  V30 9720 H 891.815 -0.00496503 -1.47099 0
M  V30 9721 H 893.773 2.46339 -3.36709 0
M  V30 9722 H 892.403 2.33047 -2.23358 0
M  V30 9723 H 891.455 0.465296 -3.77544 0
M  V30 9724 H 892.767 0.827284 -4.91892 0
M  V30 9725 H 891.921 3.1692 -5.17346 0
M  V30 9726 H 890.66 2.86784 -3.9447 0
M  V30 9727 H 889.665 1.07409 -5.39206 0
M  V30 9728 H 890.89 1.39987 -6.64515 0
M  V30 9729 H 888.836 3.3931 -5.61431 0
M  V30 9730 H 888.753 2.53986 -7.12058 0
M  V30 9731 H 890.021 3.7003 -6.86075 0
M  V30 9732 N 894.251 1.57596 -0.0117121 0
M  V30 9733 C 895.667 1.55837 0.344506 0
M  V30 9734 C 895.867 1.01557 1.74036 0
M  V30 9735 O 894.923 0.654563 2.43868 0
M  V30 9736 C 896.236 2.99973 0.209023 0
M  V30 9737 C 897.784 3.11717 0.283092 0
M  V30 9738 C 898.259 4.57659 0.176599 0
M  V30 9739 N 899.75 4.62608 0.234133 0
M  V30 9740 C 900.485 5.73132 0.175252 0
M  V30 9741 N 899.981 6.92768 0.0662888 0
M  V30 9742 N 901.774 5.61638 0.227972 0
M  V30 9743 H 893.925 1.91215 -0.924692 0
M  V30 9744 H 896.188 0.878807 -0.355531 0
M  V30 9745 H 895.894 3.4357 -0.751826 0
M  V30 9746 H 895.768 3.64075 0.98635 0
M  V30 9747 H 898.155 2.68043 1.23439 0
M  V30 9748 H 898.236 2.50369 -0.52431 0
M  V30 9749 H 897.88 5.02011 -0.771205 0
M  V30 9750 H 897.81 5.16967 1.00264 0
M  V30 9751 H 900.301 3.76549 0.319203 0
M  V30 9752 H 900.614 7.72795 0.0275765 0
M  V30 9753 H 898.959 6.94993 0.0317502 0
M  V30 9754 H 902.15 4.67063 0.311377 0
M  V30 9755 H 902.323 6.47754 0.178621 0
M  V30 9756 N 895.729 -0.261212 1.5542 0
M  V30 9757 C 897.145 -0.609012 1.47524 0
M  V30 9758 C 897.345 -1.88986 0.699042 0
M  V30 9759 O 896.401 -2.51517 0.222628 0
M  V30 9760 C 897.714 -0.725025 2.91828 0
M  V30 9761 C 899.262 -0.818302 3.02114 0
M  V30 9762 C 899.737 -0.965996 4.47697 0
M  V30 9763 N 901.228 -1.03123 4.51575 0
M  V30 9764 C 901.963 -1.16451 5.6145 0
M  V30 9765 N 901.459 -1.26425 6.81167 0
M  V30 9766 N 903.252 -1.19655 5.49217 0
M  V30 9767 H 895.403 0.579807 2.04333 0
M  V30 9768 H 897.666 0.198072 0.927077 0
M  V30 9769 H 897.372 0.145871 3.51397 0
M  V30 9770 H 897.246 -1.60156 3.41511 0
M  V30 9771 H 899.633 -1.67966 2.42634 0
M  V30 9772 H 899.714 0.0830895 2.55665 0
M  V30 9773 H 899.358 -0.109251 5.07782 0
M  V30 9774 H 899.288 -1.88221 4.91813 0
M  V30 9775 H 901.779 -0.966072 3.65343 0
M  V30 9776 H 902.092 -1.36462 7.60656 0
M  V30 9777 H 900.437 -1.23408 6.83956 0
M  V30 9778 H 903.628 -1.11501 4.54626 0
M  V30 9779 H 903.801 -1.29698 6.34888 0
M  V30 9780 N 897.207 -1.48554 -0.526253 0
M  V30 9781 C 898.432 -1.60686 -1.31129 0
M  V30 9782 C 898.857 -0.268701 -1.86171 0
M  V30 9783 O 898.215 0.760167 -1.64594 0
M  V30 9784 C 898.263 -2.65938 -2.43536 0
M  V30 9785 O 897.367 -2.23356 -3.46678 0
M  V30 9786 H 896.708 -0.538691 -0.388211 0
M  V30 9787 H 899.238 -1.94567 -0.632826 0
M  V30 9788 H 899.248 -2.87327 -2.89668 0
M  V30 9789 H 897.923 -3.63085 -2.02835 0
M  V30 9790 H 896.5 -2.12196 -3.06639 0
M  V30 9791 N 898.685 0.775411 -1.37205 0
M  V30 9792 C 899.913 1.56446 -1.35397 0
M  V30 9793 C 900.328 1.887 0.0615437 0
M  V30 9794 O 899.685 1.51178 1.02233 0
M  V30 9795 C 899.736 2.87697 -2.18889 0
M  V30 9796 O 899.457 2.56828 -3.54924 0
M  V30 9797 C 900.958 3.81944 -2.25019 0
M  V30 9798 H 898.178 0.484792 -0.463916 0
M  V30 9799 H 900.722 0.961346 -1.80495 0
M  V30 9800 H 898.877 3.44442 -1.7731 0
M  V30 9801 H 899.291 3.40851 -3.98649 0
M  V30 9802 H 900.765 4.71055 -2.87769 0
M  V30 9803 H 901.242 4.20811 -1.25757 0
M  V30 9804 H 901.848 3.3113 -2.66895 0
M  V30 9805 N 900.163 1.21714 1.00117 0
M  V30 9806 C 901.093 1.00397 2.10815 0
M  V30 9807 C 902.074 -0.0723502 1.69946 0
M  V30 9808 O 903.259 0.0882398 1.93999 0
M  V30 9809 C 900.389 0.572001 3.42557 0
M  V30 9810 C 899.343 1.59331 3.97237 0
M  V30 9811 C 898.669 1.01746 5.2493 0
M  V30 9812 C 899.969 2.98117 4.28863 0
M  V30 9813 H 901.663 1.92983 2.28906 0
M  V30 9814 H 899.209 0.929273 1.10002 0
M  V30 9815 H 901.162 0.410018 4.19401 0
M  V30 9816 H 899.886 -0.38951 3.24269 0
M  V30 9817 H 898.545 1.74293 3.22518 0
M  V30 9818 H 898.193 0.0475491 5.02978 0
M  V30 9819 H 897.893 1.69969 5.62481 0
M  V30 9820 H 899.417 0.866881 6.04415 0
M  V30 9821 H 900.831 2.86578 4.96534 0
M  V30 9822 H 899.228 3.63389 4.77565 0
M  V30 9823 H 900.298 3.48674 3.36979 0
M  V30 9824 N 901.641 -1.19671 1.02551 0
M  V30 9825 C 902.89 -1.88591 0.715272 0
M  V30 9826 C 903.203 -1.80274 -0.758982 0
M  V30 9827 O 904.409 -2.44413 -1.18213 0
M  V30 9828 C 902.865 -3.38264 1.22905 0
M  V30 9829 C 902.473 -3.55146 2.73084 0
M  V30 9830 C 904.217 -4.12683 0.994649 0
M  V30 9831 C 902.124 -4.98693 3.17897 0
M  V30 9832 H 901.054 -0.706326 0.263857 0
M  V30 9833 H 903.705 -1.35322 1.23936 0
M  V30 9834 H 902.087 -3.9091 0.632892 0
M  V30 9835 H 903.261 -3.12845 3.38326 0
M  V30 9836 H 901.576 -2.94112 2.94766 0
M  V30 9837 H 904.173 -5.18536 1.30478 0
M  V30 9838 H 904.516 -4.16243 -0.0686466 0
M  V30 9839 H 905.049 -3.66164 1.55464 0
M  V30 9840 H 901.788 -5.00293 4.23542 0
M  V30 9841 H 901.308 -5.4177 2.57381 0
M  V30 9842 H 902.987 -5.67327 3.11045 0
M  V30 9843 N 903.119 -0.802921 -1.35613 0
M  V30 9844 C 904.347 -0.39393 -2.03115 0
M  V30 9845 C 904.762 0.993961 -1.60517 0
M  V30 9846 O 904.119 1.63984 -0.800973 0
M  V30 9847 C 904.17 -0.463486 -3.58516 0
M  V30 9848 O 903.891 -1.79666 -3.99565 0
M  V30 9849 C 905.392 -0.0468377 -4.43275 0
M  V30 9850 H 902.612 -0.160519 -0.651517 0
M  V30 9851 H 905.156 -1.08552 -1.73311 0
M  V30 9852 H 903.311 0.179821 -3.86982 0
M  V30 9853 H 903.725 -1.75688 -4.942 0
M  V30 9854 H 905.199 -0.146626 -5.51805 0
M  V30 9855 H 905.676 1.00741 -4.2749 0
M  V30 9856 H 906.282 -0.663158 -4.20098 0
M  V30 9857 N 904.597 1.47463 -0.556102 0
M  V30 9858 C 905.843 2.02775 -0.0316806 0
M  V30 9859 C 906.176 1.42967 1.3143 0
M  V30 9860 O 905.451 0.584847 1.85499 0
M  V30 9861 C 905.734 3.60046 0.0625742 0
M  V30 9862 C 905.587 4.30288 -1.31043 0
M  V30 9863 C 906.906 4.33195 0.776553 0
M  V30 9864 H 904.025 0.736886 -0.0129869 0
M  V30 9865 H 906.667 1.75904 -0.718177 0
M  V30 9866 H 904.817 3.83071 0.647231 0
M  V30 9867 H 906.489 4.18607 -1.9382 0
M  V30 9868 H 904.732 3.90685 -1.8854 0
M  V30 9869 H 905.403 5.38861 -1.1972 0
M  V30 9870 H 907.879 4.15156 0.280147 0
M  V30 9871 H 906.755 5.42869 0.81146 0
M  V30 9872 H 907.016 4.02336 1.83244 0
M  V30 9873 N 906.075 0.2925 1.54862 0
M  V30 9874 C 907.005 -0.580677 2.26165 0
M  V30 9875 C 907.986 -1.14485 1.25806 0
M  V30 9876 O 909.171 -1.17577 1.54562 0
M  V30 9877 C 906.301 -1.75668 2.99596 0
M  V30 9878 C 905.255 -1.32325 4.07031 0
M  V30 9879 C 904.581 -2.58374 4.68131 0
M  V30 9880 C 905.881 -0.460703 5.20264 0
M  V30 9881 H 907.575 0.0140075 2.99397 0
M  V30 9882 H 905.121 0.00817706 1.43998 0
M  V30 9883 H 907.074 -2.37356 3.48195 0
M  V30 9884 H 905.798 -2.37747 2.23928 0
M  V30 9885 H 904.457 -0.729477 3.59269 0
M  V30 9886 H 904.105 -3.18749 3.89112 0
M  V30 9887 H 903.805 -2.30078 5.40683 0
M  V30 9888 H 905.329 -3.2088 5.19489 0
M  V30 9889 H 906.743 -0.983037 5.64809 0
M  V30 9890 H 905.14 -0.271881 5.99484 0
M  V30 9891 H 906.21 0.516304 4.82143 0
M  V30 9892 N 907.553 -1.57587 0.0200696 0
M  V30 9893 C 908.501 -2.10814 -0.982868 0
M  V30 9894 C 909.495 -1.03263 -1.34287 0
M  V30 9895 O 910.701 -1.21708 -1.32617 0
M  V30 9896 H 907.076 -0.673409 -0.334701 0
M  V30 9897 H 909.047 -2.94034 -0.50856 0
M  V30 9898 C 907.796 -2.64301 -2.25921 0
M  V30 9899 H 907.119 -3.46703 -1.99091 0
M  V30 9900 H 908.559 -3.052 -2.94328 0
M  V30 9901 C 907.018 -1.56628 -2.98277 0
M  V30 9902 O 907.548 -0.960825 -3.9004 0
M  V30 9903 N 905.754 -1.28889 -2.60453 0
M  V30 9904 H 905.301 -1.7831 -1.85912 0
M  V30 9905 H 905.259 -0.570697 -3.09177 0
M  V30 9906 N 909.032 0.252966 -1.55557 0
M  V30 9907 C 910.281 0.979736 -1.76307 0
M  V30 9908 C 910.594 1.86714 -0.582871 0
M  V30 9909 O 911.8 2.6302 -0.673247 0
M  V30 9910 C 910.256 1.79205 -3.12112 0
M  V30 9911 C 909.864 0.952333 -4.37761 0
M  V30 9912 C 911.608 2.51191 -3.42203 0
M  V30 9913 C 909.515 1.76018 -5.64599 0
M  V30 9914 H 908.445 0.369538 -0.657235 0
M  V30 9915 H 911.096 0.234619 -1.81994 0
M  V30 9916 H 909.478 2.57888 -3.00515 0
M  V30 9917 H 910.652 0.208251 -4.60329 0
M  V30 9918 H 908.967 0.346082 -4.14959 0
M  V30 9919 H 911.564 3.12074 -4.34182 0
M  V30 9920 H 911.907 3.22499 -2.63249 0
M  V30 9921 H 912.44 1.79523 -3.54988 0
M  V30 9922 H 909.179 1.09095 -6.46358 0
M  V30 9923 H 908.699 2.4797 -5.46142 0
M  V30 9924 H 910.378 2.32884 -6.03634 0
M  V30 9925 N 910.51 1.48831 0.518367 0
M  V30 9926 C 911.735 1.61379 1.30275 0
M  V30 9927 C 912.16 0.278571 1.86026 0
M  V30 9928 O 911.518 -0.751427 1.64995 0
M  V30 9929 C 911.566 2.67225 2.42122 0
M  V30 9930 O 910.67 2.25192 3.45489 0
M  V30 9931 H 910.011 0.540742 0.385349 0
M  V30 9932 H 912.541 1.949 0.622498 0
M  V30 9933 H 912.551 2.88859 2.8814 0
M  V30 9934 H 911.226 3.64155 2.00907 0
M  V30 9935 H 909.803 2.13819 3.05509 0
M  V30 9936 N 911.988 -0.768124 1.37614 0
M  V30 9937 C 912.898 -1.91249 1.35871 0
M  V30 9938 C 913.914 -1.7208 0.257786 0
M  V30 9939 O 915.09 -1.95253 0.493782 0
M  V30 9940 C 912.155 -3.26423 1.16829 0
M  V30 9941 C 911.216 -3.5822 2.36594 0
M  V30 9942 C 910.449 -4.86945 2.1845 0
M  V30 9943 O 910.672 -5.58258 1.17064 0
M  V30 9944 O 909.606 -5.17888 3.06718 0
M  V30 9945 H 913.432 -1.95671 2.32264 0
M  V30 9946 H 911.017 -0.911382 1.18382 0
M  V30 9947 H 912.899 -4.07269 1.08212 0
M  V30 9948 H 911.574 -3.22845 0.235123 0
M  V30 9949 H 910.481 -2.77594 2.50783 0
M  V30 9950 H 911.814 -3.66545 3.2849 0
M  V30 9951 N 913.466 -1.22244 -0.994698 0
M  V30 9952 C 914.715 -1.04005 -1.72817 0
M  V30 9953 C 915.028 0.425413 -1.90918 0
M  V30 9954 O 916.234 0.727429 -2.61574 0
M  V30 9955 C 914.69 -1.81244 -3.10932 0
M  V30 9956 C 914.298 -3.32028 -3.00768 0
M  V30 9957 C 916.042 -1.71448 -3.88337 0
M  V30 9958 C 913.949 -4.01716 -4.34026 0
M  V30 9959 H 912.879 -0.385559 -0.647966 0
M  V30 9960 H 915.53 -1.46077 -1.11058 0
M  V30 9961 H 913.912 -1.3197 -3.73363 0
M  V30 9962 H 915.086 -3.88682 -2.47513 0
M  V30 9963 H 913.401 -3.4248 -2.36846 0
M  V30 9964 H 915.998 -2.20836 -4.86965 0
M  V30 9965 H 916.341 -0.674568 -4.10798 0
M  V30 9966 H 916.874 -2.18256 -3.3258 0
M  V30 9967 H 913.613 -5.05952 -4.16765 0
M  V30 9968 H 913.133 -3.49849 -4.87202 0
M  V30 9969 H 914.812 -4.0721 -5.02782 0
M  V30 9970 N 914.944 1.19125 -1.03184 0
M  V30 9971 C 915.854 2.26112 -0.625329 0
M  V30 9972 C 916.87 1.7056 0.344298 0
M  V30 9973 O 918.046 2.0039 0.20144 0
M  V30 9974 C 915.111 3.46697 0.0145169 0
M  V30 9975 C 914.172 4.17419 -1.00299 0
M  V30 9976 C 913.405 5.32247 -0.393581 0
M  V30 9977 O 913.628 5.64724 0.802659 0
M  V30 9978 O 912.562 5.91428 -1.1179 0
M  V30 9979 H 916.388 2.63131 -1.51643 0
M  V30 9980 H 913.973 1.26036 -0.802197 0
M  V30 9981 H 915.855 4.19762 0.371139 0
M  V30 9982 H 914.53 3.11521 0.879581 0
M  V30 9983 H 913.437 3.4646 -1.41125 0
M  V30 9984 H 914.77 4.56573 -1.83852 0
M  V30 9985 N 916.422 0.810101 1.35185 0
M  V30 9986 C 917.647 0.40364 2.03434 0
M  V30 9987 C 918.072 -0.97857 1.60641 0
M  V30 9988 O 917.43 -1.63435 0.784779 0
M  V30 9989 C 917.478 0.499154 3.57129 0
M  V30 9990 O 916.582 -0.486039 4.09526 0
M  V30 9991 H 915.923 0.168049 0.642383 0
M  V30 9992 H 918.453 1.09696 1.72708 0
M  V30 9993 H 918.463 0.370236 4.06317 0
M  V30 9994 H 917.138 1.50733 3.87624 0
M  V30 9995 H 915.715 -0.31707 3.7155 0
M  V30 9996 N 917.9 -1.47166 0.563914 0
M  V30 9997 C 919.316 -1.58018 0.224173 0
M  V30 9998 C 919.516 -1.56163 -1.27339 0
M  V30 9999 O 918.572 -1.4686 -2.05398 0
M  V30 10000 C 919.885 -2.88236 0.856762 0
M  V30 10001 C 921.433 -3.01833 0.82861 0
M  V30 10002 C 921.908 -4.34761 1.44039 0
M  V30 10003 N 923.399 -4.41413 1.40388 0
M  V30 10004 C 924.134 -5.42845 1.84681 0
M  V30 10005 N 923.63 -6.51052 2.3686 0
M  V30 10006 N 925.423 -5.33931 1.75711 0
M  V30 10007 H 917.574 -1.46615 1.53681 0
M  V30 10008 H 919.837 -0.698195 0.64127 0
M  V30 10009 H 919.543 -2.95349 1.90949 0
M  V30 10010 H 919.417 -3.75537 0.353766 0
M  V30 10011 H 921.804 -2.94312 -0.215451 0
M  V30 10012 H 921.885 -2.16056 1.36943 0
M  V30 10013 H 921.529 -4.43037 2.48355 0
M  V30 10014 H 921.459 -5.1928 0.874953 0
M  V30 10015 H 923.95 -3.63811 1.02227 0
M  V30 10016 H 924.263 -7.24633 2.68564 0
M  V30 10017 H 922.608 -6.51924 2.40875 0
M  V30 10018 H 925.799 -4.48295 1.34718 0
M  V30 10019 H 925.972 -6.12841 2.10547 0
M  V30 10020 N 919.378 -0.300708 -1.54705 0
M  V30 10021 C 920.625 0.308654 -2.00134 0
M  V30 10022 C 920.953 1.53918 -1.1891 0
M  V30 10023 O 920.208 1.94054 -0.253263 0
M  V30 10024 C 920.507 0.710108 -3.50275 0
M  V30 10025 C 920.173 -0.418651 -4.48952 0
M  V30 10026 C 918.835 -0.728524 -4.75653 0
M  V30 10027 C 921.187 -1.17797 -5.07714 0
M  V30 10028 C 918.515 -1.80085 -5.58378 0
M  V30 10029 C 920.867 -2.24022 -5.91606 0
M  V30 10030 C 919.531 -2.55616 -6.16617 0
M  V30 10031 H 918.801 0.112945 -0.732342 0
M  V30 10032 H 921.448 -0.419744 -1.86843 0
M  V30 10033 H 919.753 1.51859 -3.61173 0
M  V30 10034 H 921.45 1.19277 -3.8285 0
M  V30 10035 H 918.04 -0.167034 -4.28274 0
M  V30 10036 H 922.224 -0.951835 -4.87087 0
M  V30 10037 H 917.48 -2.05036 -5.75995 0
M  V30 10038 H 921.654 -2.83317 -6.36164 0
M  V30 10039 H 919.281 -3.38839 -6.80509 0
M  V30 10040 N 920.856 1.57574 -0.0284266 0
M  V30 10041 C 922.086 1.95787 0.659617 0
M  V30 10042 C 922.494 0.903475 1.66235 0
M  V30 10043 O 921.837 -0.12329 1.83286 0
M  V30 10044 C 921.899 3.30139 1.42298 0
M  V30 10045 C 921.563 4.53322 0.578658 0
M  V30 10046 C 922.56 5.19696 -0.145751 0
M  V30 10047 C 920.245 4.9964 0.516264 0
M  V30 10048 C 922.239 6.30708 -0.921235 0
M  V30 10049 C 919.926 6.10534 -0.262925 0
M  V30 10050 C 920.924 6.75927 -0.980382 0
M  V30 10051 O 920.612 7.84692 -1.7468 0
M  V30 10052 H 920.344 0.649681 0.186792 0
M  V30 10053 H 922.898 2.05227 -0.0842687 0
M  V30 10054 H 921.128 3.17188 2.21199 0
M  V30 10055 H 922.817 3.53259 1.99906 0
M  V30 10056 H 923.583 4.84882 -0.106876 0
M  V30 10057 H 919.462 4.48547 1.06427 0
M  V30 10058 H 923.006 6.81682 -1.48176 0
M  V30 10059 H 918.903 6.44786 -0.303519 0
M  V30 10060 H 919.671 8.01355 -1.6665 0
M  V30 10061 N 922.334 -0.244713 1.55689 0
M  V30 10062 C 923.281 -1.30301 1.905 0
M  V30 10063 C 924.251 -1.4772 0.759478 0
M  V30 10064 O 925.436 -1.61667 1.01333 0
M  V30 10065 C 922.576 -2.653 2.20703 0
M  V30 10066 C 921.689 -2.55872 3.48071 0
M  V30 10067 C 920.824 -3.83238 3.67834 0
M  V30 10068 C 919.863 -3.68436 4.88796 0
M  V30 10069 N 919 -4.877 5.05068 0
M  V30 10070 H 923.84 -0.999143 2.80751 0
M  V30 10071 H 921.377 -0.482099 1.38976 0
M  V30 10072 H 923.335 -3.43884 2.36219 0
M  V30 10073 H 921.965 -2.93831 1.33653 0
M  V30 10074 H 921.017 -1.68846 3.40874 0
M  V30 10075 H 922.329 -2.40845 4.36801 0
M  V30 10076 H 921.483 -4.70266 3.83321 0
M  V30 10077 H 920.222 -4.01165 2.77341 0
M  V30 10078 H 919.227 -2.79793 4.73282 0
M  V30 10079 H 920.452 -3.52003 5.8075 0
M  V30 10080 H 918.398 -5.05983 4.17513 0
M  V30 10081 H 918.315 -4.75312 5.8789 0
M  V30 10082 H 919.583 -5.76219 5.24969 0
M  V30 10083 N 923.813 -1.49104 -0.510467 0
M  V30 10084 C 924.763 -1.6147 -1.6097 0
M  V30 10085 C 925.747 -0.470797 -1.53858 0
M  V30 10086 O 926.939 -0.723266 -1.61548 0
M  V30 10087 C 924.068 -1.67575 -2.99622 0
M  V30 10088 C 923.154 -2.87511 -3.11766 0
M  V30 10089 N 923.545 -4.11704 -2.93826 0
M  V30 10090 C 921.843 -2.85251 -3.42852 0
M  V30 10091 C 922.544 -4.92276 -3.09902 0
M  V30 10092 N 921.52 -4.2546 -3.38355 0
M  V30 10093 H 925.322 -2.5522 -1.45739 0
M  V30 10094 H 922.836 -1.45745 -0.716383 0
M  V30 10095 H 924.833 -1.74531 -3.78609 0
M  V30 10096 H 923.493 -0.749557 -3.1593 0
M  V30 10097 H 924.504 -4.41834 -2.70191 0
M  V30 10098 H 921.181 -2.0197 -3.65396 0
M  V30 10099 H 922.571 -6.00905 -3.00604 0
M  V30 10100 N 925.291 0.760815 -1.38019 0
M  V30 10101 C 926.702 1.33773 -1.30237 0
M  V30 10102 C 927.053 1.96148 0.0451153 0
M  V30 10103 O 926.178 1.94574 0.9471 0
M  V30 10104 C 926.773 2.43227 -2.35851 0
M  V30 10105 C 925.332 2.96659 -2.31669 0
M  V30 10106 C 924.479 1.69972 -2.191 0
M  V30 10107 H 927.43 0.560237 -1.48482 0
M  V30 10108 H 927.451 3.22985 -2.01149 0
M  V30 10109 H 926.963 1.978 -3.33911 0
M  V30 10110 H 925.064 3.46433 -1.37167 0
M  V30 10111 H 925.177 3.51529 -3.25521 0
M  V30 10112 H 923.541 1.9332 -1.65829 0
M  V30 10113 H 924.324 1.26633 -3.19091 0
M  V30 10114 N 926.769 1.22769 0.988202 0
M  V30 10115 C 928.016 1.05509 1.72841 0
M  V30 10116 C 928.344 -0.409145 1.90148 0
M  V30 10117 O 927.599 -1.3195 1.44526 0
M  V30 10118 C 927.898 1.71679 3.13466 0
M  V30 10119 C 927.564 3.21584 3.16061 0
M  V30 10120 C 926.226 3.62486 3.16476 0
M  V30 10121 C 928.578 4.17511 3.11984 0
M  V30 10122 C 925.906 4.97789 3.10521 0
M  V30 10123 C 928.258 5.52796 3.0757 0
M  V30 10124 C 926.922 5.93072 3.06304 0
M  V30 10125 H 926.192 0.386085 0.632471 0
M  V30 10126 H 928.839 1.52596 1.157 0
M  V30 10127 H 927.144 1.1693 3.73945 0
M  V30 10128 H 928.841 1.55809 3.69492 0
M  V30 10129 H 925.431 2.89019 3.1649 0
M  V30 10130 H 929.615 3.86926 3.10809 0
M  V30 10131 H 924.871 5.28218 3.07888 0
M  V30 10132 H 929.045 6.26848 3.03372 0
M  V30 10133 H 926.672 6.97879 3.01444 0
M  V30 10134 N 928.247 -1.18576 1.03814 0
M  V30 10135 C 929.475 -1.92437 0.759966 0
M  V30 10136 C 929.89 -1.76031 -0.682526 0
M  V30 10137 O 929.247 -1.08829 -1.46501 0
M  V30 10138 C 929.298 -3.43923 1.11351 0
M  V30 10139 O 929.019 -3.5981 2.49937 0
M  V30 10140 C 930.52 -4.34888 0.859472 0
M  V30 10141 H 927.74 -0.610998 0.277349 0
M  V30 10142 H 930.284 -1.50448 1.38512 0
M  V30 10143 H 928.439 -3.83711 0.533362 0
M  V30 10144 H 928.853 -4.53569 2.63393 0
M  V30 10145 H 930.327 -5.39744 1.15672 0
M  V30 10146 H 930.804 -4.38717 -0.205839 0
M  V30 10147 H 931.41 -4.00795 1.42279 0
M  V30 10148 N 929.725 -0.817259 -1.34754 0
M  V30 10149 C 930.965 -0.408429 -2.00278 0
M  V30 10150 C 931.329 1.00818 -1.634 0
M  V30 10151 O 932.53 1.51959 -2.21725 0
M  V30 10152 C 930.801 -0.598219 -3.52358 0
M  V30 10153 S 932.36 -0.281395 -4.37897 0
M  V30 10154 H 929.178 -0.154587 -0.693991 0
M  V30 10155 H 931.78 -1.06184 -1.6415 0
M  V30 10156 H 930.484 -1.62901 -3.76685 0
M  V30 10157 H 930.015 0.0701299 -3.93337 0
M  V30 10158 H 932.03 0.907024 -4.8784 0
M  V30 10159 N 931.203 1.46865 -0.571711 0
M  V30 10160 C 932.45 2.0243 -0.0531071 0
M  V30 10161 C 932.778 1.44446 1.30252 0
M  V30 10162 O 932.033 0.595182 1.8643 0
M  V30 10163 C 932.332 3.57323 0.0742311 0
M  V30 10164 C 931.998 4.34295 -1.21237 0
M  V30 10165 C 930.66 4.55044 -1.56489 0
M  V30 10166 C 933.012 4.78577 -2.0643 0
M  V30 10167 C 930.34 5.17325 -2.76752 0
M  V30 10168 C 932.692 5.42186 -3.25909 0
M  V30 10169 C 931.356 5.61165 -3.61456 0
M  V30 10170 H 930.626 0.740745 -0.0194333 0
M  V30 10171 H 933.273 1.76366 -0.74614 0
M  V30 10172 H 931.578 3.82461 0.850325 0
M  V30 10173 H 933.275 3.97982 0.491077 0
M  V30 10174 H 929.865 4.18435 -0.927922 0
M  V30 10175 H 934.049 4.62313 -1.80501 0
M  V30 10176 H 929.305 5.30211 -3.04444 0
M  V30 10177 H 933.479 5.75459 -3.92198 0
M  V30 10178 H 931.106 6.09195 -4.54737 0
M  V30 10179 N 932.681 0.308908 1.54543 0
M  V30 10180 C 933.644 -0.550857 2.22482 0
M  V30 10181 C 934.644 -1.0551 1.21344 0
M  V30 10182 O 935.834 -0.949866 1.46025 0
M  V30 10183 C 932.966 -1.76354 2.9174 0
M  V30 10184 H 934.159 0.0428395 2.99869 0
M  V30 10185 H 931.712 0.059825 1.56185 0
M  V30 10186 H 932.447 -2.39686 2.18451 0
M  V30 10187 H 932.232 -1.40954 3.65889 0
M  V30 10188 H 933.722 -2.37417 3.43545 0
M  V30 10189 N 934.159 -1.57557 0.0367827 0
M  V30 10190 C 935.106 -2.10679 -0.942499 0
M  V30 10191 C 936.076 -1.01068 -1.31812 0
M  V30 10192 O 937.261 -1.28533 -1.41011 0
M  V30 10193 C 934.401 -2.64467 -2.21701 0
M  V30 10194 C 933.514 -3.88114 -1.89715 0
M  V30 10195 C 932.649 -4.30268 -3.11518 0
M  V30 10196 C 931.688 -5.46652 -2.75387 0
M  V30 10197 N 930.825 -5.83927 -3.89838 0
M  V30 10198 H 935.665 -2.94066 -0.482588 0
M  V30 10199 H 933.202 -1.45344 -0.226597 0
M  V30 10200 H 935.16 -2.93745 -2.96259 0
M  V30 10201 H 933.79 -1.83898 -2.65295 0
M  V30 10202 H 932.842 -3.65516 -1.05366 0
M  V30 10203 H 934.154 -4.72743 -1.5911 0
M  V30 10204 H 933.308 -4.61023 -3.94389 0
M  V30 10205 H 932.047 -3.44421 -3.4529 0
M  V30 10206 H 931.052 -5.15583 -1.90929 0
M  V30 10207 H 932.277 -6.34204 -2.42822 0
M  V30 10208 H 930.223 -5.01035 -4.23438 0
M  V30 10209 H 930.14 -6.63214 -3.62883 0
M  V30 10210 H 931.408 -6.19291 -4.73391 0
M  V30 10211 N 935.637 0.236453 -1.55816 0
M  V30 10212 C 936.585 1.31259 -1.92025 0
M  V30 10213 C 937.579 1.49292 -0.800518 0
M  V30 10214 O 938.785 1.50643 -0.985229 0
M  V30 10215 H 935.16 0.439751 -0.610019 0
M  V30 10216 H 937.131 0.979926 -2.81851 0
M  V30 10217 C 935.88 2.65892 -2.24046 0
M  V30 10218 H 935.203 2.5282 -3.09713 0
M  V30 10219 H 936.643 3.40039 -2.53277 0
M  V30 10220 C 935.102 3.19777 -1.0604 0
M  V30 10221 O 935.632 4.00473 -0.313786 0
M  V30 10222 N 933.838 2.77946 -0.848209 0
M  V30 10223 H 933.385 2.12433 -1.45706 0
M  V30 10224 H 933.343 3.14342 -0.0603424 0
M  V30 10225 N 937.115 1.49373 0.502552 0
M  V30 10226 C 938.343 1.62488 1.28084 0
M  V30 10227 C 938.758 0.295667 1.86471 0
M  V30 10228 O 938.115 -0.718664 1.67754 0
M  V30 10229 C 938.166 2.69249 2.4122 0
M  V30 10230 O 937.887 3.97014 1.85234 0
M  V30 10231 C 939.388 2.93054 3.32617 0
M  V30 10232 H 936.608 0.547068 0.388533 0
M  V30 10233 H 939.152 1.95394 0.603452 0
M  V30 10234 H 937.307 2.39125 3.04792 0
M  V30 10235 H 937.721 4.55809 2.59496 0
M  V30 10236 H 939.195 3.71493 4.08285 0
M  V30 10237 H 939.672 2.02911 3.89517 0
M  V30 10238 H 940.278 3.24589 2.74813 0
M  V30 10239 N 938.594 -0.753485 1.38421 0
M  V30 10240 C 939.544 -1.85788 1.32162 0
M  V30 10241 C 940.528 -1.59577 0.20588 0
M  V30 10242 O 941.72 -1.71396 0.44186 0
M  V30 10243 C 938.849 -3.23498 1.14909 0
M  V30 10244 C 937.935 -3.556 2.31105 0
M  V30 10245 N 938.326 -3.58759 3.56547 0
M  V30 10246 C 936.624 -3.85866 2.23659 0
M  V30 10247 C 937.325 -3.8813 4.33278 0
M  V30 10248 N 936.301 -4.04966 3.62635 0
M  V30 10249 H 940.103 -1.86509 2.27138 0
M  V30 10250 H 937.617 -0.950843 1.31654 0
M  V30 10251 H 939.614 -4.02531 1.08509 0
M  V30 10252 H 938.274 -3.24029 0.20866 0
M  V30 10253 H 939.285 -3.40517 3.90216 0
M  V30 10254 H 935.962 -3.94112 1.37776 0
M  V30 10255 H 937.352 -3.97197 5.41926 0
M  V30 10256 N 940.072 -1.23292 -0.981677 0
M  V30 10257 C 941.32 -1.06214 -1.71939 0
M  V30 10258 C 941.641 0.401989 -1.90812 0
M  V30 10259 O 940.911 1.28825 -1.47584 0
M  V30 10260 H 939.491 -0.390042 -0.637084 0
M  V30 10261 H 942.153 -1.54988 -1.18173 0
M  V30 10262 H 941.249 -1.54904 -2.70945 0
M  V30 10263 N 941.55 1.18024 -1.04442 0
M  V30 10264 C 942.799 1.8743 -0.745185 0
M  V30 10265 C 943.112 1.81459 0.730206 0
M  V30 10266 O 944.318 2.46263 1.1431 0
M  V30 10267 C 942.774 3.36266 -1.28271 0
M  V30 10268 C 942.382 3.50757 -2.787 0
M  V30 10269 C 944.126 4.11048 -1.06018 0
M  V30 10270 C 942.033 4.93573 -3.25791 0
M  V30 10271 H 940.963 0.702038 -0.27506 0
M  V30 10272 H 943.614 1.33333 -1.26073 0
M  V30 10273 H 941.996 3.89853 -0.695002 0
M  V30 10274 H 943.17 3.07423 -3.43261 0
M  V30 10275 H 941.485 2.89385 -2.99408 0
M  V30 10276 H 944.082 5.16395 -1.38711 0
M  V30 10277 H 944.425 4.163 0.00241716 0
M  V30 10278 H 944.958 3.63644 -1.61269 0
M  V30 10279 H 941.697 4.93491 -4.31447 0
M  V30 10280 H 941.217 5.37607 -2.65968 0
M  V30 10281 H 942.896 5.62307 -3.20031 0
M  V30 10282 N 943.028 0.824394 1.34319 0
M  V30 10283 C 944.305 0.335692 1.92698 0
M  V30 10284 C 944.685 -1.17715 1.75232 0
M  V30 10285 O 944.033 -1.98493 1.13194 0
M  V30 10286 C 944.243 0.766647 3.40475 0
M  V30 10287 C 945.591 0.766323 4.17627 0
M  V30 10288 O 946.615 0.709321 3.49066 0
M  V30 10289 O 945.474 0.840856 5.39992 0
M  V30 10290 H 942.568 0.0919996 0.821867 0
M  V30 10291 H 945.114 0.909282 1.43283 0
M  V30 10292 H 943.886 1.80859 3.46995 0
M  V30 10293 H 943.509 0.168833 3.97241 0
M  V30 10294 N 944.506 -1.46559 0.579492 0
M  V30 10295 C 945.469 -2.28739 -0.145371 0
M  V30 10296 C 946.469 -1.38211 -0.821854 0
M  V30 10297 O 947.659 -1.6062 -0.674302 0
M  V30 10298 C 944.791 -3.18507 -1.21515 0
M  V30 10299 H 945.984 -2.94301 0.576786 0
M  V30 10300 H 943.537 -1.52616 0.337327 0
M  V30 10301 H 944.272 -2.57685 -1.96899 0
M  V30 10302 H 944.057 -3.85157 -0.734616 0
M  V30 10303 H 945.547 -3.80369 -1.72363 0
M  V30 10304 N 945.984 -0.3171 -1.54377 0
M  V30 10305 C 946.947 0.53905 -2.22771 0
M  V30 10306 C 947.947 1.04865 -1.21901 0
M  V30 10307 O 949.137 0.942108 -1.46526 0
M  V30 10308 C 946.269 1.74804 -2.92671 0
M  V30 10309 H 947.462 -0.0587417 -2.99842 0
M  V30 10310 H 945.015 -0.068107 -1.56152 0
M  V30 10311 H 945.75 2.38524 -2.1972 0
M  V30 10312 H 945.535 1.39011 -3.66631 0
M  V30 10313 H 947.025 2.35592 -3.44799 0
M  V30 10314 N 947.462 1.57535 -0.0451378 0
M  V30 10315 C 948.692 1.96476 0.638814 0
M  V30 10316 C 949.1 0.921056 1.65267 0
M  V30 10317 O 948.443 -0.103843 1.83406 0
M  V30 10318 C 948.505 3.31629 1.38788 0
M  V30 10319 C 948.169 4.5391 0.530545 0
M  V30 10320 C 949.166 5.19512 -0.200864 0
M  V30 10321 C 946.851 5.00159 0.463242 0
M  V30 10322 C 948.845 6.29695 -0.988078 0
M  V30 10323 C 946.532 6.10221 -0.327665 0
M  V30 10324 C 947.53 6.74849 -1.05202 0
M  V30 10325 O 947.218 7.82795 -1.82993 0
M  V30 10326 H 946.95 0.651625 0.17989 0
M  V30 10327 H 949.504 2.05126 -0.106031 0
M  V30 10328 H 947.734 3.19516 2.17822 0
M  V30 10329 H 949.423 3.5536 1.96148 0
M  V30 10330 H 950.189 4.84742 -0.158299 0
M  V30 10331 H 946.068 4.49651 1.01663 0
M  V30 10332 H 949.612 6.80072 -1.55397 0
M  V30 10333 H 945.509 6.44428 -0.37189 0
M  V30 10334 H 946.277 7.99542 -1.7514 0
M  V30 10335 N 948.94 -0.228186 1.55939 0
M  V30 10336 C 950.189 -0.951563 1.77843 0
M  V30 10337 C 950.502 -1.85763 0.612501 0
M  V30 10338 O 951.708 -2.61916 0.715006 0
M  V30 10339 C 950.164 -1.74216 3.14923 0
M  V30 10340 C 949.772 -0.882569 4.39221 0
M  V30 10341 C 951.516 -2.45715 3.46156 0
M  V30 10342 C 949.423 -1.67014 5.67327 0
M  V30 10343 H 948.353 -0.359035 0.663031 0
M  V30 10344 H 951.004 -0.205636 1.82344 0
M  V30 10345 H 949.386 -2.53075 3.0458 0
M  V30 10346 H 950.56 -0.13499 4.60602 0
M  V30 10347 H 948.875 -0.280022 4.15457 0
M  V30 10348 H 951.472 -3.05127 4.39092 0
M  V30 10349 H 951.815 -3.1827 2.68346 0
M  V30 10350 H 952.348 -1.73852 3.57799 0
M  V30 10351 H 949.087 -0.987985 6.48012 0
M  V30 10352 H 948.607 -2.3925 5.50018 0
M  V30 10353 H 950.286 -2.23252 6.07262 0
M  V30 10354 N 950.418 -1.49637 -0.494624 0
M  V30 10355 C 951.35 -1.62902 -1.61231 0
M  V30 10356 C 952.363 -0.511425 -1.54558 0
M  V30 10357 O 953.552 -0.783724 -1.60375 0
M  V30 10358 C 950.652 -1.57564 -3.00045 0
M  V30 10359 C 949.825 -2.84964 -3.31835 0
M  V30 10360 C 948.884 -2.72591 -4.5009 0
M  V30 10361 O 947.91 -3.46532 -4.51558 0
M  V30 10362 N 949.112 -1.84563 -5.50379 0
M  V30 10363 H 951.877 -2.59301 -1.50276 0
M  V30 10364 H 949.438 -1.46806 -0.68262 0
M  V30 10365 H 951.43 -1.46932 -3.77085 0
M  V30 10366 H 950 -0.689974 -3.0489 0
M  V30 10367 H 949.22 -3.099 -2.4363 0
M  V30 10368 H 950.508 -3.69412 -3.49875 0
M  V30 10369 H 949.906 -1.23758 -5.51997 0
M  V30 10370 H 948.463 -1.79849 -6.26496 0
M  V30 10371 N 951.896 0.746133 -1.38819 0
M  V30 10372 C 952.826 1.87344 -1.39372 0
M  V30 10373 C 953.807 1.68123 -0.258583 0
M  V30 10374 O 954.992 1.88606 -0.462769 0
M  V30 10375 C 952.122 3.24962 -1.22543 0
M  V30 10376 C 951.076 3.58799 -2.33339 0
M  V30 10377 C 950.402 4.95235 -2.01609 0
M  V30 10378 C 951.702 3.62911 -3.75624 0
M  V30 10379 H 953.396 1.87138 -2.33709 0
M  V30 10380 H 950.942 0.898937 -1.12495 0
M  V30 10381 H 952.895 4.03488 -1.21554 0
M  V30 10382 H 951.619 3.25667 -0.246707 0
M  V30 10383 H 950.278 2.82596 -2.33527 0
M  V30 10384 H 949.926 4.92508 -1.02202 0
M  V30 10385 H 949.626 5.18843 -2.75819 0
M  V30 10386 H 951.15 5.76131 -2.02251 0
M  V30 10387 H 952.564 4.31535 -3.77426 0
M  V30 10388 H 950.961 3.98031 -4.491 0
M  V30 10389 H 952.031 2.62967 -4.07402 0
M  V30 10390 N 953.375 1.23811 0.975125 0
M  V30 10391 C 954.624 1.06741 1.71141 0
M  V30 10392 C 954.937 -0.394986 1.9157 0
M  V30 10393 O 956.143 -0.685723 2.62698 0
M  V30 10394 C 954.599 1.86168 3.08009 0
M  V30 10395 C 954.207 3.36771 2.95448 0
M  V30 10396 C 955.951 1.77604 3.85561 0
M  V30 10397 C 953.858 4.0857 4.2758 0
M  V30 10398 H 952.788 0.395819 0.64175 0
M  V30 10399 H 955.439 1.47825 1.0872 0
M  V30 10400 H 953.821 1.37893 3.71216 0
M  V30 10401 H 954.995 3.92571 2.41298 0
M  V30 10402 H 953.31 3.46205 2.31368 0
M  V30 10403 H 955.907 2.28556 4.83391 0
M  V30 10404 H 956.25 0.739837 4.09673 0
M  V30 10405 H 956.783 2.23519 3.29065 0
M  V30 10406 H 953.522 5.12518 4.08663 0
M  V30 10407 H 953.042 3.57556 4.81574 0
M  V30 10408 H 954.721 4.15157 4.9624 0
M  V30 10409 N 954.853 -1.17469 1.05066 0
M  V30 10410 C 956.083 -1.91343 0.779202 0
M  V30 10411 C 956.491 -1.76986 -0.668764 0
M  V30 10412 O 955.834 -1.1037 -1.46848 0
M  V30 10413 C 955.896 -3.42938 1.0786 0
M  V30 10414 C 955.56 -3.81076 2.52249 0
M  V30 10415 C 956.557 -3.84027 3.50456 0
M  V30 10416 C 954.242 -4.12076 2.87225 0
M  V30 10417 C 956.236 -4.17445 4.81683 0
M  V30 10418 C 953.923 -4.45163 4.18656 0
M  V30 10419 C 954.921 -4.47825 5.15696 0
M  V30 10420 O 954.609 -4.80133 6.44769 0
M  V30 10421 H 954.341 -0.613974 0.282863 0
M  V30 10422 H 956.895 -1.49907 1.40417 0
M  V30 10423 H 955.125 -3.84662 0.39653 0
M  V30 10424 H 956.814 -3.98071 0.793357 0
M  V30 10425 H 957.58 -3.60203 3.24775 0
M  V30 10426 H 953.459 -4.09176 2.12358 0
M  V30 10427 H 957.003 -4.19437 5.57421 0
M  V30 10428 H 952.9 -4.68449 4.44101 0
M  V30 10429 H 953.668 -4.97995 6.49571 0
M  V30 10430 N 956.331 -0.831506 -1.3388 0
M  V30 10431 C 957.742 -0.481375 -1.80388 0
M  V30 10432 C 958.093 0.998993 -1.68863 0
M  V30 10433 O 957.218 1.77795 -1.2336 0
M  V30 10434 C 957.813 -0.86699 -3.27519 0
M  V30 10435 C 956.372 -0.569105 -3.72073 0
M  V30 10436 C 955.519 -1.07929 -2.55434 0
M  V30 10437 H 958.47 -1.02089 -1.21505 0
M  V30 10438 H 958.491 -0.174128 -3.80101 0
M  V30 10439 H 958.003 -1.94447 -3.35875 0
M  V30 10440 H 956.104 0.498607 -3.69249 0
M  V30 10441 H 956.217 -1.11918 -4.65845 0
M  V30 10442 H 954.581 -0.500465 -2.49735 0
M  V30 10443 H 955.364 -2.16339 -2.66556 0
M  V30 10444 N 957.809 1.4625 -0.587256 0
M  V30 10445 C 959.055 2.02662 -0.0746851 0
M  V30 10446 C 959.388 1.45723 1.28368 0
M  V30 10447 O 958.663 0.624062 1.84216 0
M  V30 10448 C 958.946 3.60097 -0.0138109 0
M  V30 10449 C 958.799 4.27412 -1.4014 0
M  V30 10450 C 960.118 4.34744 0.684491 0
M  V30 10451 H 957.237 0.736444 -0.0286144 0
M  V30 10452 H 959.879 1.74341 -0.755328 0
M  V30 10453 H 958.029 3.84357 0.56583 0
M  V30 10454 H 959.701 4.14401 -2.02656 0
M  V30 10455 H 957.944 3.86598 -1.96785 0
M  V30 10456 H 958.615 5.362 -1.31124 0
M  V30 10457 H 961.091 4.15657 0.192023 0
M  V30 10458 H 959.967 5.44468 0.696127 0
M  V30 10459 H 960.228 4.06132 1.74669 0
M  V30 10460 N 959.287 0.325282 1.54207 0
M  V30 10461 C 960.515 -0.27869 2.05014 0
M  V30 10462 C 960.93 -1.45649 1.20133 0
M  V30 10463 O 960.287 -1.81014 0.232398 0
M  V30 10464 C 960.338 -0.711486 3.54429 0
M  V30 10465 O 960.059 0.419458 4.36087 0
M  V30 10466 C 961.56 -1.37809 4.21336 0
M  V30 10467 H 958.78 -0.0570388 0.668571 0
M  V30 10468 H 961.324 0.47197 1.98979 0
M  V30 10469 H 959.479 -1.41212 3.60746 0
M  V30 10470 H 959.893 0.0781037 5.24442 0
M  V30 10471 H 961.367 -1.63184 5.27328 0
M  V30 10472 H 961.844 -2.32593 3.72555 0
M  V30 10473 H 962.45 -0.719987 4.19161 0
M  V30 10474 N 960.765 -1.57509 0.0534917 0
M  V30 10475 C 961.713 -2.12851 -0.937931 0
M  V30 10476 C 962.707 -1.06088 -1.32067 0
M  V30 10477 O 963.913 -1.24494 -1.30005 0
M  V30 10478 H 960.288 -0.680357 -0.320342 0
M  V30 10479 H 962.259 -2.95047 -0.446077 0
M  V30 10480 C 961.008 -2.69034 -2.20264 0
M  V30 10481 H 960.331 -3.50848 -1.91693 0
M  V30 10482 H 961.771 -3.11375 -2.87788 0
M  V30 10483 C 960.23 -1.62919 -2.94888 0
M  V30 10484 O 960.76 -1.04334 -3.87914 0
M  V30 10485 N 958.966 -1.34385 -2.57661 0
M  V30 10486 H 958.513 -1.82214 -1.82088 0
M  V30 10487 H 958.471 -0.636149 -3.07897 0
M  V30 10488 N 962.243 0.219913 -1.56058 0
M  V30 10489 C 963.468 0.965073 -1.83579 0
M  V30 10490 C 963.893 1.77092 -0.634024 0
M  V30 10491 O 963.251 1.76434 0.417205 0
M  V30 10492 C 963.299 1.85705 -3.09105 0
M  V30 10493 O 962.403 2.95261 -2.87914 0
M  V30 10494 H 961.744 0.273173 -0.605204 0
M  V30 10495 H 964.274 0.23273 -2.03272 0
M  V30 10496 H 964.284 2.26655 -3.39252 0
M  V30 10497 H 962.959 1.26476 -3.96203 0
M  V30 10498 H 961.536 2.58246 -2.69005 0
M  V30 10499 N 963.721 1.49897 0.486681 0
M  V30 10500 C 964.969 1.59789 1.23742 0
M  V30 10501 C 965.29 0.293056 1.92785 0
M  V30 10502 O 964.56 -0.688534 1.83401 0
M  V30 10503 H 963.14 0.588775 0.459731 0
M  V30 10504 H 965.802 1.86597 0.562808 0
M  V30 10505 H 964.898 2.40121 1.9937 0
M  V30 10506 N 965.199 -0.738761 1.39212 0
M  V30 10507 C 966.476 -1.48982 1.26742 0
M  V30 10508 C 966.856 -2.10732 -0.12466 0
M  V30 10509 O 966.204 -1.98287 -1.13554 0
M  V30 10510 C 966.414 -2.54427 2.38889 0
M  V30 10511 C 967.762 -3.20915 2.78027 0
M  V30 10512 O 968.786 -2.64738 2.38311 0
M  V30 10513 O 967.645 -4.22558 3.46565 0
M  V30 10514 H 964.739 -0.661395 0.496473 0
M  V30 10515 H 967.285 -0.772907 1.51077 0
M  V30 10516 H 966.057 -2.07151 3.3197 0
M  V30 10517 H 965.68 -3.33682 2.162 0
M  V30 10518 N 966.677 -1.24326 -0.968545 0
M  V30 10519 C 967.624 -1.0349 -2.06297 0
M  V30 10520 C 968.594 0.0515333 -1.6602 0
M  V30 10521 O 969.779 -0.102924 -1.90522 0
M  V30 10522 C 966.919 -0.64487 -3.39021 0
M  V30 10523 C 966.032 -1.80469 -3.92498 0
M  V30 10524 C 965.167 -1.36032 -5.13487 0
M  V30 10525 C 964.206 -2.49014 -5.59159 0
M  V30 10526 N 963.343 -2.05451 -6.71367 0
M  V30 10527 H 968.183 -1.97161 -2.23454 0
M  V30 10528 H 965.72 -0.982028 -1.0952 0
M  V30 10529 H 967.678 -0.399771 -4.1528 0
M  V30 10530 H 966.308 0.254845 -3.21792 0
M  V30 10531 H 965.36 -2.16348 -3.12886 0
M  V30 10532 H 966.672 -2.65365 -4.22354 0
M  V30 10533 H 965.826 -1.07405 -5.97117 0
M  V30 10534 H 964.565 -0.481887 -4.85313 0
M  V30 10535 H 963.57 -2.78402 -4.74102 0
M  V30 10536 H 964.795 -3.37413 -5.89346 0
M  V30 10537 H 962.741 -1.20004 -6.4493 0
M  V30 10538 H 962.658 -2.83901 -7.00668 0
M  V30 10539 H 963.926 -1.79962 -7.58442 0
M  V30 10540 N 968.156 1.1691 -1.05688 0
M  V30 10541 C 969.384 1.91204 -0.790485 0
M  V30 10542 C 969.799 1.77095 0.654434 0
M  V30 10543 O 969.156 1.11146 1.44751 0
M  V30 10544 C 969.207 3.42108 -1.16808 0
M  V30 10545 O 968.928 3.55788 -2.55629 0
M  V30 10546 C 970.429 4.33466 -0.92855 0
M  V30 10547 H 967.649 0.606508 -0.287035 0
M  V30 10548 H 970.193 1.48225 -1.40888 0
M  V30 10549 H 968.348 3.82814 -0.59434 0
M  V30 10550 H 968.762 4.49321 -2.70575 0
M  V30 10551 H 970.236 5.37836 -1.24245 0
M  V30 10552 H 970.713 4.38989 0.136016 0
M  V30 10553 H 971.319 3.98481 -1.48638 0
M  V30 10554 N 969.634 0.838594 1.33437 0
M  V30 10555 C 970.584 0.243681 2.26694 0
M  V30 10556 C 971.568 -0.601168 1.49247 0
M  V30 10557 O 972.76 -0.453181 1.711 0
M  V30 10558 C 969.889 -0.580525 3.38356 0
M  V30 10559 C 968.975 0.275819 4.23202 0
M  V30 10560 N 969.366 1.3544 4.87329 0
M  V30 10561 C 967.664 0.0628047 4.45956 0
M  V30 10562 C 968.365 1.87991 5.50486 0
M  V30 10563 N 967.341 1.18143 5.30607 0
M  V30 10564 H 971.143 1.06849 2.73789 0
M  V30 10565 H 968.657 0.683019 1.47338 0
M  V30 10566 H 970.654 -1.02301 4.04153 0
M  V30 10567 H 969.314 -1.40331 2.92809 0
M  V30 10568 H 970.325 1.73729 4.87892 0
M  V30 10569 H 967.002 -0.726563 4.11129 0
M  V30 10570 H 968.392 2.78312 6.11549 0
M  V30 10571 N 971.112 -1.45937 0.595003 0
M  V30 10572 C 972.34 -2.06698 0.091293 0
M  V30 10573 C 972.755 -1.44176 -1.21897 0
M  V30 10574 O 972.112 -0.551402 -1.73971 0
M  V30 10575 C 972.163 -3.61436 -0.0681801 0
M  V30 10576 O 971.884 -4.21622 1.19023 0
M  V30 10577 C 973.385 -4.39155 -0.604814 0
M  V30 10578 H 970.605 -0.668029 0.0630737 0
M  V30 10579 H 973.149 -1.87376 0.819165 0
M  V30 10580 H 971.304 -3.80143 -0.746324 0
M  V30 10581 H 971.718 -5.14647 1.01187 0
M  V30 10582 H 973.192 -5.47973 -0.665532 0
M  V30 10583 H 973.669 -4.08055 -1.62444 0
M  V30 10584 H 974.275 -4.25282 0.0388658 0
M  V30 10585 N 972.59 -0.333456 -1.54032 0
M  V30 10586 C 973.83 0.266604 -2.02654 0
M  V30 10587 C 974.194 1.48568 -1.21621 0
M  V30 10588 O 975.395 2.15925 -1.60093 0
M  V30 10589 C 973.666 0.582825 -3.52616 0
M  V30 10590 S 975.225 1.16113 -4.23159 0
M  V30 10591 H 972.043 0.0800344 -0.706481 0
M  V30 10592 H 974.645 -0.468876 -1.89794 0
M  V30 10593 H 973.349 -0.312401 -4.09209 0
M  V30 10594 H 972.88 1.34824 -3.69576 0
M  V30 10595 H 974.895 2.44743 -4.31642 0
M  V30 10596 N 974.068 1.57479 -0.061844 0
M  V30 10597 C 975.479 1.80627 0.472295 0
M  V30 10598 C 975.83 0.97496 1.70261 0
M  V30 10599 O 974.955 0.1946 2.15523 0
M  V30 10600 C 975.55 3.27608 0.863616 0
M  V30 10601 C 974.109 3.51638 1.34267 0
M  V30 10602 C 973.256 2.75412 0.323009 0
M  V30 10603 H 976.207 1.56072 -0.287634 0
M  V30 10604 H 976.228 3.39113 1.72577 0
M  V30 10605 H 975.74 3.88087 -0.0320226 0
M  V30 10606 H 973.841 2.96452 2.25714 0
M  V30 10607 H 973.954 4.60342 1.32747 0
M  V30 10608 H 972.318 2.4187 0.798175 0
M  V30 10609 H 973.101 3.38623 -0.564729 0
M  V30 10610 N 975.546 -0.211634 1.56173 0
M  V30 10611 C 976.957 -0.777776 1.69728 0
M  V30 10612 C 977.308 -1.84566 0.66558 0
M  V30 10613 O 976.433 -2.15639 -0.181338 0
M  V30 10614 C 977.028 -1.41757 3.07718 0
M  V30 10615 C 975.587 -1.93098 3.23094 0
M  V30 10616 C 974.734 -0.794785 2.65666 0
M  V30 10617 H 977.685 0.0131839 1.58695 0
M  V30 10618 H 977.706 -2.28662 3.04128 0
M  V30 10619 H 977.218 -0.640114 3.82785 0
M  V30 10620 H 975.319 -2.73615 2.52914 0
M  V30 10621 H 975.432 -2.10414 4.30422 0
M  V30 10622 H 973.796 -1.20473 2.24407 0
M  V30 10623 H 974.579 -0.0298408 3.43287 0
M  V30 10624 N 977.024 -1.50153 -0.478725 0
M  V30 10625 C 978.264 -1.62393 -1.24129 0
M  V30 10626 C 978.628 -0.313774 -1.89419 0
M  V30 10627 O 979.829 -0.311537 -2.66989 0
M  V30 10628 C 978.1 -2.76633 -2.26293 0
M  V30 10629 S 979.659 -3.08961 -3.11591 0
M  V30 10630 H 976.477 -0.572559 -0.421541 0
M  V30 10631 H 979.079 -1.87906 -0.539592 0
M  V30 10632 H 977.783 -3.70319 -1.76896 0
M  V30 10633 H 977.314 -2.53182 -3.01102 0
M  V30 10634 H 979.329 -2.52197 -4.2733 0
M  V30 10635 N 978.502 0.731368 -1.39602 0
M  V30 10636 C 979.913 1.30981 -1.33045 0
M  V30 10637 C 980.264 1.962 0.00349918 0
M  V30 10638 O 979.389 1.96539 0.905615 0
M  V30 10639 C 979.984 2.3817 -2.40958 0
M  V30 10640 C 978.543 2.91678 -2.3791 0
M  V30 10641 C 977.69 1.65286 -2.22656 0
M  V30 10642 H 980.641 0.528615 -1.49637 0
M  V30 10643 H 980.662 3.18645 -2.07955 0
M  V30 10644 H 980.174 1.90673 -3.38032 0
M  V30 10645 H 978.275 3.43446 -1.44485 0
M  V30 10646 H 978.388 3.44545 -3.32904 0
M  V30 10647 H 976.752 1.89759 -1.69893 0
M  V30 10648 H 977.535 1.19836 -3.21705 0
M  V30 10649 N 979.98 1.24838 0.961938 0
M  V30 10650 C 980.943 1.04674 2.03902 0
M  V30 10651 C 981.943 0.00204674 1.608 0
M  V30 10652 O 983.133 0.243555 1.72489 0
M  V30 10653 C 980.265 0.587736 3.35795 0
M  V30 10654 H 981.458 2.00278 2.23223 0
M  V30 10655 H 979.011 1.07142 1.138 0
M  V30 10656 H 979.746 -0.371244 3.22168 0
M  V30 10657 H 979.531 1.34182 3.68426 0
M  V30 10658 H 981.021 0.467867 4.14971 0
M  V30 10659 N 981.458 -1.16348 1.06306 0
M  V30 10660 C 982.869 -1.68491 0.80422 0
M  V30 10661 C 983.22 -1.84327 -0.672159 0
M  V30 10662 O 982.345 -1.53892 -1.52139 0
M  V30 10663 C 982.94 -3.06048 1.45328 0
M  V30 10664 C 981.499 -3.55311 1.24221 0
M  V30 10665 C 980.646 -2.31291 1.5297 0
M  V30 10666 H 983.597 -1.00708 1.22652 0
M  V30 10667 H 983.618 -3.70451 0.868674 0
M  V30 10668 H 983.13 -2.9449 2.52779 0
M  V30 10669 H 981.231 -3.72128 0.187447 0
M  V30 10670 H 981.344 -4.37397 1.95502 0
M  V30 10671 H 979.708 -2.3631 0.950241 0
M  V30 10672 H 980.491 -2.22331 2.6158 0
M  V30 10673 N 982.937 -0.845659 -1.3299 0
M  V30 10674 C 983.847 -0.2864 -2.32845 0
M  V30 10675 C 984.863 0.591105 -1.63652 0
M  V30 10676 O 986.039 0.493615 -1.95257 0
M  V30 10677 C 983.104 0.523636 -3.42723 0
M  V30 10678 C 982.165 -0.378945 -4.27624 0
M  V30 10679 C 981.398 0.392526 -5.32255 0
M  V30 10680 O 981.621 1.6235 -5.46808 0
M  V30 10681 O 980.555 -0.237 -6.01433 0
M  V30 10682 H 984.381 -1.11346 -2.82552 0
M  V30 10683 H 981.966 -0.608356 -1.36453 0
M  V30 10684 H 983.848 0.983718 -4.09757 0
M  V30 10685 H 982.523 1.32764 -2.95221 0
M  V30 10686 H 981.43 -0.887012 -3.63432 0
M  V30 10687 H 982.763 -1.1479 -4.78627 0
M  V30 10688 N 984.415 1.45619 -0.602734 0
M  V30 10689 C 985.345 2.33258 0.106342 0
M  V30 10690 C 986.326 1.46543 0.863664 0
M  V30 10691 O 987.511 1.75324 0.835175 0
M  V30 10692 C 984.641 3.29168 1.10751 0
M  V30 10693 C 983.595 4.25481 0.463717 0
M  V30 10694 C 982.921 5.11046 1.57278 0
M  V30 10695 C 984.221 5.18702 -0.61199 0
M  V30 10696 H 985.915 2.92795 -0.625423 0
M  V30 10697 H 983.461 1.40793 -0.302213 0
M  V30 10698 H 985.414 3.89346 1.61208 0
M  V30 10699 H 984.138 2.6778 1.8698 0
M  V30 10700 H 982.797 3.66595 -0.0199496 0
M  V30 10701 H 982.445 4.46029 2.32524 0
M  V30 10702 H 982.145 5.76286 1.14755 0
M  V30 10703 H 983.669 5.74091 2.07972 0
M  V30 10704 H 985.083 5.72979 -0.191686 0
M  V30 10705 H 983.48 5.92393 -0.958686 0
M  V30 10706 H 984.55 4.61424 -1.4905 0
M  V30 10707 N 985.893 0.34162 1.53853 0
M  V30 10708 C 986.823 -0.508431 2.27897 0
M  V30 10709 C 987.804 -1.10425 1.29384 0
M  V30 10710 O 988.989 -1.126 1.58224 0
M  V30 10711 C 986.119 -1.66048 3.05034 0
M  V30 10712 C 985.073 -1.19309 4.11035 0
M  V30 10713 C 984.399 -2.4335 4.76114 0
M  V30 10714 C 985.699 -0.294952 5.21467 0
M  V30 10715 H 987.393 0.109251 2.99201 0
M  V30 10716 H 984.939 0.0539847 1.43899 0
M  V30 10717 H 986.892 -2.26158 3.5557 0
M  V30 10718 H 985.616 -2.30503 2.31379 0
M  V30 10719 H 984.275 -0.614809 3.61408 0
M  V30 10720 H 983.923 -3.06208 3.99056 0
M  V30 10721 H 983.623 -2.1276 5.47729 0
M  V30 10722 H 985.147 -3.0419 5.29434 0
M  V30 10723 H 986.561 -0.80285 5.67651 0
M  V30 10724 H 984.958 -0.0810221 6.00045 0
M  V30 10725 H 986.028 0.669433 4.80257 0
M  V30 10726 N 987.371 -1.57444 0.0701946 0
M  V30 10727 C 988.619 -1.93047 -0.598106 0
M  V30 10728 C 988.94 -0.950841 -1.70247 0
M  V30 10729 O 988.21 0.00127177 -1.959 0
M  V30 10730 H 986.79 -0.712648 -0.223924 0
M  V30 10731 H 989.452 -1.94481 0.127674 0
M  V30 10732 H 988.548 -2.94807 -1.02445 0
M  V30 10733 N 988.849 0.203349 -1.56283 0
M  V30 10734 C 990.097 0.923183 -1.79782 0
M  V30 10735 C 990.418 1.84134 -0.64185 0
M  V30 10736 O 989.688 1.92922 0.340292 0
M  V30 10737 H 988.268 0.343881 -0.66314 0
M  V30 10738 H 990.93 0.210837 -1.93756 0
M  V30 10739 H 990.026 1.51921 -2.72629 0
M  V30 10740 N 990.327 1.50405 0.470755 0
M  V30 10741 C 991.738 1.54266 1.05162 0
M  V30 10742 C 992.089 0.346359 1.93119 0
M  V30 10743 O 991.214 -0.540699 2.09536 0
M  V30 10744 C 991.809 2.7956 1.91394 0
M  V30 10745 C 990.368 2.86101 2.44588 0
M  V30 10746 C 989.515 2.48557 1.22941 0
M  V30 10747 H 992.466 1.56665 0.253359 0
M  V30 10748 H 992.487 2.61434 2.76464 0
M  V30 10749 H 991.999 3.66611 1.27351 0
M  V30 10750 H 990.1 2.03403 3.12183 0
M  V30 10751 H 990.213 3.88999 2.79672 0
M  V30 10752 H 988.577 2.01003 1.56429 0
M  V30 10753 H 989.36 3.37916 0.605598 0
M  V30 10754 N 991.805 -0.723954 1.39988 0
M  V30 10755 C 993.03 -1.5182 1.41299 0
M  V30 10756 C 993.455 -1.88096 0.0122636 0
M  V30 10757 O 992.813 -1.52687 -0.977559 0
M  V30 10758 C 992.861 -2.77532 2.30235 0
M  V30 10759 O 991.965 -3.73903 1.73984 0
M  V30 10760 H 991.306 -0.458058 0.480707 0
M  V30 10761 H 993.836 -0.892291 1.84118 0
M  V30 10762 H 993.846 -3.2615 2.45132 0
M  V30 10763 H 992.521 -2.50462 3.32026 0
M  V30 10764 H 991.098 -3.32715 1.68389 0
M  V30 10765 N 993.283 -1.25346 -0.955304 0
M  V30 10766 C 994.529 -1.10218 -1.70235 0
M  V30 10767 C 994.862 0.356124 -1.90907 0
M  V30 10768 O 994.137 1.26253 -1.47954 0
M  V30 10769 C 994.42 -1.85627 -3.08569 0
M  V30 10770 C 994.273 -3.39281 -2.95311 0
M  V30 10771 C 995.592 -1.63886 -4.08448 0
M  V30 10772 H 992.711 -0.401781 -0.617852 0
M  V30 10773 H 995.353 -1.5417 -1.11048 0
M  V30 10774 H 993.503 -1.48269 -3.59094 0
M  V30 10775 H 995.175 -3.8631 -2.52116 0
M  V30 10776 H 993.418 -3.67027 -2.31244 0
M  V30 10777 H 994.089 -3.87258 -3.93364 0
M  V30 10778 H 996.565 -1.96406 -3.6683 0
M  V30 10779 H 995.441 -2.19087 -5.03281 0
M  V30 10780 H 995.702 -0.580021 -4.38279 0
M  V30 10781 N 994.761 1.15782 -1.06922 0
M  V30 10782 C 996.008 1.86465 -0.789752 0
M  V30 10783 C 996.336 1.82075 0.684022 0
M  V30 10784 O 995.591 1.23576 1.51748 0
M  V30 10785 C 995.89 3.35284 -1.2377 0
M  V30 10786 C 995.556 3.59871 -2.71668 0
M  V30 10787 C 994.218 3.6629 -3.12066 0
M  V30 10788 C 996.57 3.69929 -3.67154 0
M  V30 10789 C 993.898 3.80275 -4.46775 0
M  V30 10790 C 996.25 3.85436 -5.01619 0
M  V30 10791 C 994.914 3.901 -5.41644 0
M  V30 10792 H 994.184 0.682324 -0.288991 0
M  V30 10793 H 996.831 1.36861 -1.33945 0
M  V30 10794 H 995.136 3.87065 -0.607309 0
M  V30 10795 H 996.833 3.88371 -0.998431 0
M  V30 10796 H 993.423 3.55512 -2.39393 0
M  V30 10797 H 997.607 3.64274 -3.37073 0
M  V30 10798 H 992.863 3.8214 -4.77262 0
M  V30 10799 H 997.037 3.92161 -5.75485 0
M  V30 10800 H 994.664 4.00688 -6.46029 0
M  V30 10801 N 996.239 0.8527 1.3254 0
M  V30 10802 C 997.169 0.311234 2.31416 0
M  V30 10803 C 998.15 -0.588557 1.59593 0
M  V30 10804 O 999.335 -0.509211 1.87405 0
M  V30 10805 C 996.465 -0.502892 3.4364 0
M  V30 10806 C 995.419 0.302296 4.26931 0
M  V30 10807 C 994.745 -0.636445 5.30899 0
M  V30 10808 C 996.045 1.52697 4.99481 0
M  V30 10809 H 997.739 1.13742 2.76953 0
M  V30 10810 H 995.285 0.548389 1.33149 0
M  V30 10811 H 997.238 -0.892092 4.11849 0
M  V30 10812 H 995.962 -1.36242 2.96826 0
M  V30 10813 H 994.621 0.673226 3.60365 0
M  V30 10814 H 994.269 -1.49277 4.80339 0
M  V30 10815 H 993.969 -0.101716 5.87512 0
M  V30 10816 H 995.493 -1.02286 6.01972 0
M  V30 10817 H 996.907 1.21017 5.60382 0
M  V30 10818 H 995.304 1.9995 5.65809 0
M  V30 10819 H 996.374 2.28929 4.27457 0
M  V30 10820 N 997.718 -1.45297 0.610449 0
M  V30 10821 C 998.965 -2.02218 0.106759 0
M  V30 10822 C 999.293 -1.47849 -1.26376 0
M  V30 10823 O 998.548 -0.644402 -1.84786 0
M  V30 10824 C 998.847 -3.57394 0.0205329 0
M  V30 10825 C 998.513 -4.30928 1.32709 0
M  V30 10826 C 997.175 -4.50735 1.68498 0
M  V30 10827 C 999.527 -4.72936 2.19046 0
M  V30 10828 C 996.855 -5.09806 2.90371 0
M  V30 10829 C 999.207 -5.33355 3.40169 0
M  V30 10830 C 997.871 -5.51384 3.76207 0
M  V30 10831 H 997.141 -0.739969 0.039066 0
M  V30 10832 H 999.788 -1.74326 0.792638 0
M  V30 10833 H 998.093 -3.84581 -0.748623 0
M  V30 10834 H 999.79 -3.99144 -0.385386 0
M  V30 10835 H 996.38 -4.15827 1.03854 0
M  V30 10836 H 1000.56 -4.57365 1.92695 0
M  V30 10837 H 995.82 -5.21953 3.18395 0
M  V30 10838 H 999.994 -5.64859 4.07318 0
M  V30 10839 H 997.621 -5.96924 4.70729 0
M  V30 10840 N 999.196 -0.349774 -1.5367 0
M  V30 10841 C 1000.61 0.132815 -1.86227 0
M  V30 10842 C 1000.96 1.49479 -1.27084 0
M  V30 10843 O 1000.08 2.08292 -0.58679 0
M  V30 10844 C 1000.68 0.247775 -3.37893 0
M  V30 10845 C 999.237 0.674603 -3.70305 0
M  V30 10846 C 998.384 -0.187869 -2.76663 0
M  V30 10847 H 1001.33 -0.569148 -1.48143 0
M  V30 10848 H 1001.36 1.07418 -3.65023 0
M  V30 10849 H 1000.87 -0.743635 -3.80909 0
M  V30 10850 H 998.969 1.67481 -3.32837 0
M  V30 10851 H 999.082 0.460177 -4.76885 0
M  V30 10852 H 997.446 0.340779 -2.5241 0
M  V30 10853 H 998.229 -1.17653 -3.2251 0
M  V30 10854 N 1000.67 1.57404 -0.0785433 0
M  V30 10855 C 1002.08 1.81118 0.45311 0
M  V30 10856 C 1002.44 0.992963 1.69218 0
M  V30 10857 O 1001.56 0.217448 2.15305 0
M  V30 10858 C 1002.16 3.28506 0.82882 0
M  V30 10859 C 1000.71 3.53042 1.3053 0
M  V30 10860 C 999.862 2.75739 0.29378 0
M  V30 10861 H 1002.81 1.55758 -0.304171 0
M  V30 10862 H 1002.83 3.40924 1.68971 0
M  V30 10863 H 1002.35 3.88031 -0.0731826 0
M  V30 10864 H 1000.45 2.98829 2.22558 0
M  V30 10865 H 1000.56 4.61724 1.27857 0
M  V30 10866 H 998.924 2.42703 0.772477 0
M  V30 10867 H 999.707 3.38005 -0.600613 0
M  V30 10868 N 1002.15 -0.195058 1.56388 0
M  V30 10869 C 1003.1 -1.24175 1.94549 0
M  V30 10870 C 1004.07 -1.45229 0.806089 0
M  V30 10871 O 1005.25 -1.58362 1.06425 0
M  V30 10872 C 1002.39 -2.58145 2.29031 0
M  V30 10873 C 1001.51 -2.44669 3.56035 0
M  V30 10874 C 1000.64 -3.71342 3.7984 0
M  V30 10875 C 999.681 -3.52699 5.0027 0
M  V30 10876 N 998.818 -4.71385 5.20328 0
M  V30 10877 H 1003.66 -0.909319 2.83788 0
M  V30 10878 H 1001.19 -0.437641 1.40439 0
M  V30 10879 H 1003.15 -3.36195 2.4704 0
M  V30 10880 H 1001.78 -2.8943 1.42933 0
M  V30 10881 H 1000.83 -1.57916 3.46073 0
M  V30 10882 H 1002.15 -2.26827 4.44242 0
M  V30 10883 H 1001.3 -4.57832 3.98088 0
M  V30 10884 H 1000.04 -3.92138 2.89964 0
M  V30 10885 H 999.045 -2.64594 4.81944 0
M  V30 10886 H 1000.27 -3.33349 5.91655 0
M  V30 10887 H 998.216 -4.92444 4.33399 0
M  V30 10888 H 998.133 -4.56368 6.02714 0
M  V30 10889 H 999.401 -5.59226 5.43035 0
M  V30 10890 N 1003.63 -1.50653 -0.462772 0
M  V30 10891 C 1005.04 -1.54821 -1.04342 0
M  V30 10892 C 1005.39 -0.356595 -1.92932 0
M  V30 10893 O 1004.52 0.529579 -2.0982 0
M  V30 10894 C 1005.11 -2.80571 -1.89909 0
M  V30 10895 C 1003.67 -2.87394 -2.43067 0
M  V30 10896 C 1002.82 -2.49206 -1.21621 0
M  V30 10897 H 1005.77 -1.56797 -0.245048 0
M  V30 10898 H 1005.79 -2.62897 -2.75074 0
M  V30 10899 H 1005.3 -3.67281 -1.25405 0
M  V30 10900 H 1003.4 -2.05055 -3.111 0
M  V30 10901 H 1003.52 -3.90477 -2.77605 0
M  V30 10902 H 1001.88 -2.01829 -1.55361 0
M  V30 10903 H 1002.66 -3.38233 -0.587669 0
M  V30 10904 N 1005.11 0.71652 -1.4037 0
M  V30 10905 C 1006.06 1.8306 -1.40562 0
M  V30 10906 C 1007.03 1.64009 -0.262697 0
M  V30 10907 O 1008.21 1.85157 -0.460619 0
M  V30 10908 C 1005.35 3.2076 -1.27307 0
M  V30 10909 C 1004.46 3.51389 -2.51296 0
M  V30 10910 C 1003.6 4.78589 -2.30491 0
M  V30 10911 C 1002.64 5.02119 -3.50061 0
M  V30 10912 N 1001.77 6.20533 -3.28457 0
M  V30 10913 H 1006.61 1.82231 -2.35788 0
M  V30 10914 H 1004.15 0.890198 -1.17106 0
M  V30 10915 H 1006.11 4.00274 -1.17628 0
M  V30 10916 H 1004.74 3.2082 -0.357005 0
M  V30 10917 H 1003.79 2.66436 -2.71507 0
M  V30 10918 H 1005.1 3.64686 -3.40302 0
M  V30 10919 H 1004.26 5.66119 -2.1816 0
M  V30 10920 H 1003 4.67499 -1.38909 0
M  V30 10921 H 1002 4.13044 -3.6287 0
M  V30 10922 H 1003.23 5.15082 -4.42569 0
M  V30 10923 H 1001.17 6.10695 -2.39556 0
M  V30 10924 H 1001.09 6.34502 -4.11027 0
M  V30 10925 H 1002.36 7.10853 -3.19857 0
M  V30 10926 N 1006.59 1.25851 0.948643 0
M  V30 10927 C 1007.86 1.01717 1.67072 0
M  V30 10928 C 1008.24 -0.454749 2.06144 0
M  V30 10929 O 1007.59 -1.43345 1.77945 0
M  V30 10930 C 1007.8 1.95872 2.88852 0
M  V30 10931 C 1009.15 2.24057 3.60671 0
M  V30 10932 O 1010.17 1.93678 2.98944 0
M  V30 10933 O 1009.03 2.75745 4.71833 0
M  V30 10934 H 1006.13 0.386198 0.731287 0
M  V30 10935 H 1008.67 1.37031 1.00104 0
M  V30 10936 H 1007.44 2.95233 2.56814 0
M  V30 10937 H 1007.07 1.60992 3.63548 0
M  V30 10938 N 1008.06 -1.15214 1.07534 0
M  V30 10939 C 1009.29 -1.89922 0.820804 0
M  V30 10940 C 1009.71 -1.78114 -0.626177 0
M  V30 10941 O 1009.06 -1.13435 -1.42964 0
M  V30 10942 C 1009.12 -3.40207 1.22236 0
M  V30 10943 O 1008.84 -3.51676 2.61257 0
M  V30 10944 C 1010.34 -4.31934 0.997393 0
M  V30 10945 H 1007.56 -0.601865 0.296647 0
M  V30 10946 H 1010.1 -1.45965 1.43229 0
M  V30 10947 H 1008.26 -3.8182 0.655167 0
M  V30 10948 H 1008.67 -4.44959 2.77689 0
M  V30 10949 H 1010.14 -5.35791 1.32785 0
M  V30 10950 H 1010.62 -4.3915 -0.0661599 0
M  V30 10951 H 1011.23 -3.96066 1.54958 0
M  V30 10952 N 1009.54 -0.859717 -1.32086 0
M  V30 10953 C 1010.47 -0.323502 -2.31248 0
M  V30 10954 C 1011.45 0.580085 -1.59903 0
M  V30 10955 O 1012.64 0.499265 -1.87673 0
M  V30 10956 C 1009.77 0.484661 -3.43902 0
M  V30 10957 C 1008.72 -0.324933 -4.26765 0
M  V30 10958 C 1008.05 0.608281 -5.31229 0
M  V30 10959 C 1009.35 -1.55344 -4.98664 0
M  V30 10960 H 1011.04 -1.15209 -2.76346 0
M  V30 10961 H 1008.59 -0.555442 -1.32856 0
M  V30 10962 H 1010.54 0.870238 -4.12316 0
M  V30 10963 H 1009.27 1.34666 -2.97544 0
M  V30 10964 H 1007.92 -0.692328 -3.60003 0
M  V30 10965 H 1007.57 1.46727 -4.81124 0
M  V30 10966 H 1007.27 0.0705571 -5.87558 0
M  V30 10967 H 1008.8 0.990925 -6.02506 0
M  V30 10968 H 1010.21 -1.23987 -5.59732 0
M  V30 10969 H 1008.61 -2.02947 -5.64741 0
M  V30 10970 H 1009.68 -2.31192 -4.26237 0
M  V30 10971 N 1011.02 1.44971 -0.618145 0
M  V30 10972 C 1011.95 2.27748 0.143561 0
M  V30 10973 C 1012.93 1.37768 0.863642 0
M  V30 10974 O 1014.12 1.67203 0.870373 0
M  V30 10975 C 1011.24 3.16394 1.20883 0
M  V30 10976 C 1010.29 4.22389 0.590724 0
M  V30 10977 S 1011.12 5.32021 -0.609406 0
M  V30 10978 C 1012.28 6.24235 0.456199 0
M  V30 10979 H 1012.51 2.92003 -0.558699 0
M  V30 10980 H 1010.04 1.48968 -0.40595 0
M  V30 10981 H 1012 3.6802 1.81855 0
M  V30 10982 H 1010.66 2.51384 1.88322 0
M  V30 10983 H 1009.86 4.84379 1.3926 0
M  V30 10984 H 1009.46 3.73958 0.055917 0
M  V30 10985 H 1011.75 6.64269 1.33238 0
M  V30 10986 H 1012.69 7.07985 -0.127794 0
M  V30 10987 H 1013.1 5.59137 0.776269 0
M  V30 10988 N 1012.5 0.357919 1.53482 0
M  V30 10989 C 1013.75 -0.235241 2.00324 0
M  V30 10990 C 1014.06 -1.50494 1.24944 0
M  V30 10991 O 1015.27 -2.17623 1.62335 0
M  V30 10992 C 1013.72 -0.469748 3.56821 0
M  V30 10993 C 1013.33 0.784877 4.41071 0
M  V30 10994 C 1015.07 -1.02098 4.12039 0
M  V30 10995 C 1012.98 0.520377 5.89106 0
M  V30 10996 H 1011.91 -0.0916816 0.748405 0
M  V30 10997 H 1014.56 0.475474 1.77233 0
M  V30 10998 H 1012.94 -1.24153 3.76035 0
M  V30 10999 H 1014.12 1.55886 4.33631 0
M  V30 11000 H 1012.43 1.25878 3.96918 0
M  V30 11001 H 1015.03 -1.23406 5.20264 0
M  V30 11002 H 1015.37 -1.98084 3.66154 0
M  V30 11003 H 1015.91 -0.309554 3.96594 0
M  V30 11004 H 1012.65 1.45035 6.39254 0
M  V30 11005 H 1012.17 -0.215254 5.99414 0
M  V30 11006 H 1013.84 0.143006 6.46842 0
M  V30 11007 N 1013.98 -1.5736 0.0868897 0
M  V30 11008 C 1015.2 -1.98809 -0.590757 0
M  V30 11009 C 1015.63 -0.965407 -1.61436 0
M  V30 11010 O 1014.98 0.067143 -1.81176 0
M  V30 11011 C 1015.03 -3.39249 -1.22238 0
M  V30 11012 O 1014.14 -3.39706 -2.33824 0
M  V30 11013 H 1013.48 -0.64669 -0.150626 0
M  V30 11014 H 1016.01 -2.03927 0.165873 0
M  V30 11015 H 1016.02 -3.76765 -1.56564 0
M  V30 11016 H 1014.69 -4.13208 -0.472434 0
M  V30 11017 H 1013.27 -3.13977 -2.01178 0
M  V30 11018 N 1015.45 0.186762 -1.56489 0
M  V30 11019 C 1016.87 0.537933 -1.50261 0
M  V30 11020 C 1017.07 1.85435 -0.788414 0
M  V30 11021 O 1016.13 2.50168 -0.342377 0
M  V30 11022 C 1017.44 0.584965 -2.94955 0
M  V30 11023 C 1018.99 0.673228 -3.05674 0
M  V30 11024 C 1019.46 0.751294 -4.51796 0
M  V30 11025 N 1020.95 0.814599 -4.55981 0
M  V30 11026 C 1021.69 0.895313 -5.66367 0
M  V30 11027 N 1021.18 0.937814 -6.86423 0
M  V30 11028 N 1022.98 0.933145 -5.543 0
M  V30 11029 H 1015.13 -0.676636 -2.01334 0
M  V30 11030 H 1017.39 -0.242079 -0.916571 0
M  V30 11031 H 1017.1 -0.313361 -3.50301 0
M  V30 11032 H 1016.97 1.4368 -3.48763 0
M  V30 11033 H 1019.36 1.56198 -2.50372 0
M  V30 11034 H 1019.44 -0.204976 -2.54977 0
M  V30 11035 H 1019.08 -0.133143 -5.07725 0
M  V30 11036 H 1019.01 1.64542 -5.00233 0
M  V30 11037 H 1021.5 0.790662 -3.69536 0
M  V30 11038 H 1021.82 1.00015 -7.66301 0
M  V30 11039 H 1020.16 0.906351 -6.89065 0
M  V30 11040 H 1023.35 0.896836 -4.59428 0
M  V30 11041 H 1023.53 0.992588 -6.40353 0
M  V30 11042 N 1016.93 1.50896 0.454776 0
M  V30 11043 C 1018.16 1.6648 1.22849 0
M  V30 11044 C 1018.58 0.354841 1.85435 0
M  V30 11045 O 1017.93 -0.664931 1.69956 0
M  V30 11046 C 1017.98 2.76787 2.32532 0
M  V30 11047 O 1017.7 4.02706 1.72509 0
M  V30 11048 C 1019.21 3.03488 3.23125 0
M  V30 11049 H 1016.43 0.559152 0.370932 0
M  V30 11050 H 1018.97 1.97215 0.540983 0
M  V30 11051 H 1017.12 2.48701 2.9703 0
M  V30 11052 H 1017.54 4.63834 2.44863 0
M  V30 11053 H 1019.01 3.84294 3.9626 0
M  V30 11054 H 1019.49 2.152 3.82865 0
M  V30 11055 H 1020.1 3.33167 2.64347 0
M  V30 11056 N 1018.41 -0.709066 1.40748 0
M  V30 11057 C 1019.82 -1.28847 1.35112 0
M  V30 11058 C 1020.17 -1.9618 0.0277149 0
M  V30 11059 O 1019.3 -1.97955 -0.874233 0
M  V30 11060 C 1019.89 -2.34306 2.44716 0
M  V30 11061 C 1018.45 -2.87856 2.4252 0
M  V30 11062 C 1017.6 -1.61723 2.25257 0
M  V30 11063 H 1020.55 -0.504742 1.50459 0
M  V30 11064 H 1020.57 -3.15297 2.12998 0
M  V30 11065 H 1020.08 -1.85271 3.41022 0
M  V30 11066 H 1018.18 -3.41103 1.49931 0
M  V30 11067 H 1018.3 -3.39205 3.38344 0
M  V30 11068 H 1016.66 -1.87032 1.7289 0
M  V30 11069 H 1017.44 -1.14703 3.23571 0
M  V30 11070 N 1019.89 -1.26353 -0.941956 0
M  V30 11071 C 1020.8 -1.09618 -2.07415 0
M  V30 11072 C 1021.82 -0.0298963 -1.73974 0
M  V30 11073 O 1022.99 -0.233466 -2.00042 0
M  V30 11074 C 1020.06 -0.73013 -3.38925 0
M  V30 11075 C 1019.12 -1.87574 -3.86153 0
M  V30 11076 C 1018.35 -1.52706 -5.11387 0
M  V30 11077 O 1018.57 -0.428438 -5.68789 0
M  V30 11078 O 1017.51 -2.36154 -5.53638 0
M  V30 11079 H 1021.33 -2.04598 -2.2444 0
M  V30 11080 H 1018.92 -1.05407 -1.05876 0
M  V30 11081 H 1020.8 -0.538684 -4.17943 0
M  V30 11082 H 1019.48 0.190282 -3.2314 0
M  V30 11083 H 1018.38 -2.12214 -3.08084 0
M  V30 11084 H 1019.72 -2.77585 -4.06457 0
M  V30 11085 N 1021.37 1.14642 -1.08144 0
M  V30 11086 C 1022.61 1.85892 -0.810683 0
M  V30 11087 C 1022.95 1.82575 0.661821 0
M  V30 11088 O 1022.22 1.25454 1.48632 0
M  V30 11089 C 1022.5 3.34647 -1.32979 0
M  V30 11090 C 1022.36 3.46551 -2.86744 0
M  V30 11091 C 1023.68 4.29661 -0.952864 0
M  V30 11092 H 1020.8 0.674963 -0.295963 0
M  V30 11093 H 1023.44 1.3464 -1.3406 0
M  V30 11094 H 1021.59 3.78425 -0.87903 0
M  V30 11095 H 1023.26 3.11579 -3.40171 0
M  V30 11096 H 1021.5 2.87849 -3.24539 0
M  V30 11097 H 1022.17 4.51101 -3.18138 0
M  V30 11098 H 1024.65 3.93885 -1.34141 0
M  V30 11099 H 1023.53 5.32209 -1.34331 0
M  V30 11100 H 1023.79 4.41877 0.140392 0
M  V30 11101 N 1022.85 0.866709 1.31628 0
M  V30 11102 C 1024.07 0.49039 2.01004 0
M  V30 11103 C 1024.49 -0.916244 1.65077 0
M  V30 11104 O 1023.85 -1.59975 0.8783 0
M  V30 11105 C 1023.9 0.634011 3.55897 0
M  V30 11106 O 1023.62 1.98525 3.90537 0
M  V30 11107 C 1025.12 0.258277 4.42547 0
M  V30 11108 H 1022.34 0.191421 0.643117 0
M  V30 11109 H 1024.88 1.16698 1.67934 0
M  V30 11110 H 1023.04 0.00501801 3.874 0
M  V30 11111 H 1023.45 1.99067 4.85255 0
M  V30 11112 H 1024.93 0.409733 5.50477 0
M  V30 11113 H 1025.4 -0.802301 4.3181 0
M  V30 11114 H 1026.01 0.862837 4.16456 0
M  V30 11115 N 1024.32 -1.44642 0.625825 0
M  V30 11116 C 1025.56 -2.03977 0.131444 0
M  V30 11117 C 1025.93 -1.48122 -1.22163 0
M  V30 11118 O 1027.13 -1.98926 -1.80781 0
M  V30 11119 C 1025.4 -3.57224 0.112032 0
M  V30 11120 S 1026.96 -4.37643 -0.318501 0
M  V30 11121 H 1023.78 -0.70859 0.0584859 0
M  V30 11122 H 1026.38 -1.77099 0.828024 0
M  V30 11123 H 1025.08 -3.95383 1.10001 0
M  V30 11124 H 1024.61 -3.88705 -0.605965 0
M  V30 11125 H 1026.63 -4.70909 -1.56393 0
M  V30 11126 N 1025.8 -0.366053 -1.5329 0
M  V30 11127 C 1027.05 0.223824 -2.01561 0
M  V30 11128 C 1027.38 1.48382 -1.25286 0
M  V30 11129 O 1026.66 1.91385 -0.34669 0
M  V30 11130 C 1026.94 0.5153 -3.56394 0
M  V30 11131 C 1026.79 -0.758357 -4.43361 0
M  V30 11132 C 1028.11 1.31568 -4.19974 0
M  V30 11133 H 1025.23 0.0798751 -0.732659 0
M  V30 11134 H 1027.87 -0.491038 -1.83545 0
M  V30 11135 H 1026.02 1.12429 -3.71876 0
M  V30 11136 H 1027.69 -1.39584 -4.39675 0
M  V30 11137 H 1025.94 -1.37862 -4.11311 0
M  V30 11138 H 1026.61 -0.509366 -5.49645 0
M  V30 11139 H 1029.08 0.800514 -4.08327 0
M  V30 11140 H 1027.96 1.48837 -5.28336 0
M  V30 11141 H 1028.22 2.32432 -3.76069 0
M  V30 11142 N 1027.28 1.57312 -0.0952337 0
M  V30 11143 C 1028.53 1.94646 0.569284 0
M  V30 11144 C 1028.86 0.977152 1.67825 0
M  V30 11145 O 1028.13 0.0102318 1.94497 0
M  V30 11146 C 1028.42 3.42098 1.12433 0
M  V30 11147 C 1028.27 4.49795 0.0204016 0
M  V30 11148 C 1029.59 3.90866 2.02266 0
M  V30 11149 H 1026.71 0.707779 0.205469 0
M  V30 11150 H 1029.35 1.89274 -0.16597 0
M  V30 11151 H 1027.5 3.46807 1.75092 0
M  V30 11152 H 1029.17 4.57198 -0.613845 0
M  V30 11153 H 1027.41 4.28964 -0.645965 0
M  V30 11154 H 1028.09 5.50166 0.449579 0
M  V30 11155 H 1030.56 3.88311 1.49512 0
M  V30 11156 H 1029.44 4.94604 2.38029 0
M  V30 11157 H 1029.7 3.30167 2.9401 0
M  V30 11158 N 1028.76 -0.17846 1.56586 0
M  V30 11159 C 1030 -0.897562 1.81856 0
M  V30 11160 C 1030.34 -1.82204 0.671955 0
M  V30 11161 O 1029.61 -1.91739 -0.326535 0
M  V30 11162 C 1029.89 -1.69942 3.17477 0
M  V30 11163 C 1029.75 -0.798545 4.42655 0
M  V30 11164 C 1031.07 -2.66861 3.49962 0
M  V30 11165 H 1028.19 -0.324863 0.661539 0
M  V30 11166 H 1030.83 -0.164106 1.8929 0
M  V30 11167 H 1028.98 -2.32471 3.11271 0
M  V30 11168 H 1030.65 -0.18668 4.60922 0
M  V30 11169 H 1028.89 -0.106181 4.3367 0
M  V30 11170 H 1029.56 -1.39496 5.34083 0
M  V30 11171 H 1032.04 -2.1446 3.56576 0
M  V30 11172 H 1030.92 -3.20037 4.45946 0
M  V30 11173 H 1031.18 -3.46715 2.74301 0
M  V30 11174 N 1030.24 -1.51135 -0.446768 0
M  V30 11175 C 1031.51 -1.5387 -1.20762 0
M  V30 11176 C 1031.89 -0.297446 -2.08994 0
M  V30 11177 O 1031.24 0.717975 -2.16927 0
M  V30 11178 C 1031.45 -2.84767 -2.01764 0
M  V30 11179 C 1032.8 -3.3636 -2.59128 0
M  V30 11180 O 1033.82 -2.86254 -2.11984 0
M  V30 11181 O 1032.68 -4.23765 -3.45088 0
M  V30 11182 H 1029.78 -0.618228 -0.549293 0
M  V30 11183 H 1032.32 -1.63442 -0.456605 0
M  V30 11184 H 1031.09 -3.6657 -1.36901 0
M  V30 11185 H 1030.72 -2.78313 -2.8395 0
M  V30 11186 N 1031.71 0.701592 -1.41122 0
M  V30 11187 C 1032.96 1.46376 -1.40363 0
M  V30 11188 C 1033.29 1.94197 -0.0105442 0
M  V30 11189 O 1032.57 1.69121 0.960637 0
M  V30 11190 C 1032.85 2.67994 -2.40523 0
M  V30 11191 C 1032.7 2.25977 -3.88914 0
M  V30 11192 C 1034.02 3.70181 -2.38022 0
M  V30 11193 H 1031.14 0.530929 -0.511159 0
M  V30 11194 H 1033.78 0.799588 -1.72356 0
M  V30 11195 H 1031.93 3.24661 -2.13372 0
M  V30 11196 H 1033.61 1.74684 -4.26946 0
M  V30 11197 H 1031.85 1.57826 -4.04071 0
M  V30 11198 H 1032.52 3.13215 -4.54533 0
M  V30 11199 H 1035 3.23174 -2.62103 0
M  V30 11200 H 1033.87 4.52894 -3.10127 0
M  V30 11201 H 1034.13 4.19458 -1.3967 0
M  V30 11202 N 1033.19 1.2685 0.935242 0
M  V30 11203 C 1034.42 1.15645 1.72165 0
M  V30 11204 C 1034.84 -0.283909 1.85945 0
M  V30 11205 O 1034.2 -1.20567 1.354 0
M  V30 11206 C 1034.25 1.83689 3.10307 0
M  V30 11207 O 1033.35 1.12972 3.96625 0
M  V30 11208 H 1032.69 0.402629 0.528002 0
M  V30 11209 H 1035.22 1.67781 1.17093 0
M  V30 11210 H 1035.23 1.90749 3.60664 0
M  V30 11211 H 1033.91 2.88472 2.99595 0
M  V30 11212 H 1032.48 1.13929 3.5507 0
M  V30 11213 N 1034.67 -1.14067 1.0875 0
M  V30 11214 C 1035.62 -2.17302 0.690195 0
M  V30 11215 C 1036.6 -1.58229 -0.291948 0
M  V30 11216 O 1037.8 -1.76698 -0.103411 0
M  V30 11217 C 1034.93 -3.4314 0.104835 0
M  V30 11218 C 1034.01 -4.09235 1.11298 0
M  V30 11219 N 1034.4 -4.50601 2.29765 0
M  V30 11220 C 1032.7 -4.35775 0.949535 0
M  V30 11221 C 1033.4 -5.02029 2.93839 0
M  V30 11222 N 1032.38 -4.96457 2.21431 0
M  V30 11223 H 1036.18 -2.47031 1.59226 0
M  V30 11224 H 1033.69 -1.30788 0.962722 0
M  V30 11225 H 1035.69 -4.16431 -0.197777 0
M  V30 11226 H 1034.35 -3.14888 -0.792172 0
M  V30 11227 H 1035.36 -4.43529 2.67399 0
M  V30 11228 H 1032.04 -4.17364 0.106627 0
M  V30 11229 H 1033.43 -5.43885 3.94511 0
M  V30 11230 N 1036.15 -0.873678 -1.31166 0
M  V30 11231 C 1037.06 -0.335726 -2.32185 0
M  V30 11232 C 1038.07 0.556259 -1.64869 0
M  V30 11233 O 1039.25 0.452087 -1.9626 0
M  V30 11234 C 1036.32 0.450822 -3.43756 0
M  V30 11235 C 1035.38 -0.469565 -4.26724 0
M  V30 11236 C 1034.61 0.279538 -5.32967 0
M  V30 11237 O 1034.83 1.50715 -5.50128 0
M  V30 11238 O 1033.77 -0.36452 -6.00795 0
M  V30 11239 H 1037.59 -1.17314 -2.80127 0
M  V30 11240 H 1035.18 -0.637163 -1.35132 0
M  V30 11241 H 1037.06 0.896582 -4.11752 0
M  V30 11242 H 1035.73 1.26472 -2.9797 0
M  V30 11243 H 1034.64 -0.963902 -3.61469 0
M  V30 11244 H 1035.97 -1.24916 -4.76085 0
M  V30 11245 N 1037.63 1.44308 -0.633487 0
M  V30 11246 C 1038.9 1.95476 -0.0697262 0
M  V30 11247 C 1039.28 1.57539 1.40516 0
M  V30 11248 O 1038.63 0.850632 2.12077 0
M  V30 11249 C 1038.84 3.4775 -0.295093 0
M  V30 11250 C 1040.19 4.24177 -0.189542 0
M  V30 11251 O 1041.21 3.55479 -0.226586 0
M  V30 11252 O 1040.07 5.46415 -0.096479 0
M  V30 11253 H 1037.17 0.826734 0.0209582 0
M  V30 11254 H 1039.71 1.54347 -0.705354 0
M  V30 11255 H 1038.48 3.6842 -1.31841 0
M  V30 11256 H 1038.11 3.95832 0.37456 0
M  V30 11257 N 1039.1 0.374177 1.53094 0
M  V30 11258 C 1040.52 -0.103172 1.86415 0
M  V30 11259 C 1040.87 -1.47439 1.29446 0
M  V30 11260 O 1039.99 -2.07333 0.619853 0
M  V30 11261 C 1040.59 -0.193988 3.38244 0
M  V30 11262 C 1039.15 -0.615605 3.71332 0
M  V30 11263 C 1038.29 0.23186 2.76329 0
M  V30 11264 H 1041.24 0.592644 1.47219 0
M  V30 11265 H 1041.26 -1.01597 3.66686 0
M  V30 11266 H 1040.78 0.80414 3.79678 0
M  V30 11267 H 1038.88 -1.62165 3.3546 0
M  V30 11268 H 1038.99 -0.38425 4.77557 0
M  V30 11269 H 1037.35 -0.300579 2.5292 0
M  V30 11270 H 1038.14 1.22769 3.20597 0
M  V30 11271 N 1040.58 -1.57259 0.103575 0
M  V30 11272 C 1041.49 -2.18018 -0.866327 0
M  V30 11273 C 1042.51 -1.15198 -1.30404 0
M  V30 11274 O 1043.68 -1.47605 -1.37021 0
M  V30 11275 C 1040.75 -2.75533 -2.10434 0
M  V30 11276 C 1039.81 -3.93337 -1.72002 0
M  V30 11277 C 1039.04 -4.481 -2.89901 0
M  V30 11278 O 1039.27 -4.01784 -4.04877 0
M  V30 11279 O 1038.2 -5.39004 -2.67877 0
M  V30 11280 H 1042.03 -3.01322 -0.379338 0
M  V30 11281 H 1039.61 -1.48907 -0.121228 0
M  V30 11282 H 1041.49 -3.12259 -2.8297 0
M  V30 11283 H 1040.17 -1.9527 -2.58169 0
M  V30 11284 H 1039.08 -3.61408 -0.966193 0
M  V30 11285 H 1040.41 -4.74989 -1.29022 0
M  V30 11286 N 1042.06 0.170153 -1.56679 0
M  V30 11287 C 1043.31 0.887906 -1.8233 0
M  V30 11288 C 1043.64 1.81845 -0.681608 0
M  V30 11289 O 1042.91 1.9191 0.316362 0
M  V30 11290 C 1043.2 1.68256 -3.18374 0
M  V30 11291 C 1043.05 0.775059 -4.43072 0
M  V30 11292 C 1044.37 2.65001 -3.51372 0
M  V30 11293 H 1041.49 0.32135 -0.663252 0
M  V30 11294 H 1044.13 0.154065 -1.89374 0
M  V30 11295 H 1042.28 2.30817 -3.12499 0
M  V30 11296 H 1043.95 0.162234 -4.61015 0
M  V30 11297 H 1042.2 0.0831809 -4.3372 0
M  V30 11298 H 1042.87 1.36661 -5.34816 0
M  V30 11299 H 1045.34 2.12566 -3.57708 0
M  V30 11300 H 1044.22 3.17667 -4.47637 0
M  V30 11301 H 1044.48 3.45255 -2.76136 0
M  V30 11302 N 1043.54 1.5137 0.438746 0
M  V30 11303 C 1044.49 1.72582 1.53245 0
M  V30 11304 C 1045.46 0.567488 1.56105 0
M  V30 11305 O 1046.64 0.80176 1.73137 0
M  V30 11306 C 1043.78 1.85551 2.90972 0
M  V30 11307 C 1042.89 3.13094 2.97652 0
M  V30 11308 C 1042.03 3.16666 4.26493 0
M  V30 11309 C 1041.07 4.38529 4.27035 0
M  V30 11310 N 1040.2 4.39659 5.47398 0
M  V30 11311 H 1045.04 2.65941 1.3446 0
M  V30 11312 H 1042.58 1.31801 0.653206 0
M  V30 11313 H 1044.54 1.91053 3.70884 0
M  V30 11314 H 1043.17 0.956025 3.08318 0
M  V30 11315 H 1042.22 3.16909 2.10412 0
M  V30 11316 H 1043.53 4.03009 2.93914 0
M  V30 11317 H 1042.69 3.21075 5.14777 0
M  V30 11318 H 1041.43 2.24637 4.32885 0
M  V30 11319 H 1040.43 4.34297 3.37144 0
M  V30 11320 H 1041.66 5.31821 4.22307 0
M  V30 11321 H 1039.6 3.50499 5.54514 0
M  V30 11322 H 1039.52 5.23382 5.45534 0
M  V30 11323 H 1040.79 4.48259 6.37718 0
M  V30 11324 N 1045.02 -0.694098 1.41492 0
M  V30 11325 C 1046.26 -1.45415 1.40929 0
M  V30 11326 C 1046.59 -1.94491 0.0189301 0
M  V30 11327 O 1045.85 -1.7 -0.96945 0
M  V30 11328 C 1046.15 -2.6805 2.36398 0
M  V30 11329 C 1045.81 -2.37623 3.83205 0
M  V30 11330 C 1044.47 -2.29035 4.23198 0
M  V30 11331 C 1046.83 -2.12555 4.75888 0
M  V30 11332 C 1044.15 -1.93478 5.5388 0
M  V30 11333 C 1046.51 -1.78506 6.06892 0
M  V30 11334 C 1045.17 -1.68415 6.45905 0
M  V30 11335 H 1044.44 -0.53211 0.515694 0
M  V30 11336 H 1047.09 -0.793193 1.74301 0
M  V30 11337 H 1045.39 -3.39086 1.96285 0
M  V30 11338 H 1047.09 -3.26194 2.33234 0
M  V30 11339 H 1043.68 -2.45202 3.51531 0
M  V30 11340 H 1047.86 -2.18133 4.45793 0
M  V30 11341 H 1043.12 -1.84219 5.82986 0
M  V30 11342 H 1047.29 -1.58128 6.7821 0
M  V30 11343 H 1044.92 -1.40631 7.47079 0
M  V30 11344 N 1046.49 -1.27344 -0.928501 0
M  V30 11345 C 1047.44 -1.09835 -2.05034 0
M  V30 11346 C 1048.44 -0.0216643 -1.69386 0
M  V30 11347 O 1049.64 -0.179323 -1.79105 0
M  V30 11348 H 1046.02 -0.338416 -0.671549 0
M  V30 11349 H 1047.99 -2.04879 -2.1695 0
M  V30 11350 C 1046.74 -0.761462 -3.3926 0
M  V30 11351 H 1046.06 -1.58186 -3.67175 0
M  V30 11352 H 1047.5 -0.678812 -4.18531 0
M  V30 11353 C 1045.96 0.534118 -3.32639 0
M  V30 11354 O 1046.49 1.56877 -3.69801 0
M  V30 11355 N 1044.7 0.529437 -2.85736 0
M  V30 11356 H 1044.24 -0.312954 -2.55692 0
M  V30 11357 H 1044.2 1.39637 -2.81689 0
M  V30 11358 N 1047.97 1.13488 -1.09353 0
M  V30 11359 C 1049.22 1.85234 -0.840227 0
M  V30 11360 C 1049.57 1.81884 0.627379 0
M  V30 11361 O 1048.87 1.24548 1.45596 0
M  V30 11362 C 1049.06 3.32584 -1.30854 0
M  V30 11363 C 1048.89 3.50283 -2.82014 0
M  V30 11364 C 1047.66 3.64569 -3.49883 0
M  V30 11365 C 1049.86 3.46388 -3.80158 0
M  V30 11366 N 1047.84 3.70522 -4.89476 0
M  V30 11367 C 1049.21 3.58701 -5.05701 0
M  V30 11368 C 1051.27 3.29784 -3.73024 0
M  V30 11369 C 1049.97 3.56126 -6.24953 0
M  V30 11370 C 1051.99 3.28516 -4.91763 0
M  V30 11371 C 1051.36 3.4138 -6.16149 0
M  V30 11372 H 1047.46 0.694046 -0.36031 0
M  V30 11373 H 1050.04 1.35949 -1.39377 0
M  V30 11374 H 1048.21 3.80437 -0.78246 0
M  V30 11375 H 1049.94 3.92134 -1.00064 0
M  V30 11376 H 1046.7 3.66211 -3.0031 0
M  V30 11377 H 1047.12 3.77191 -5.62188 0
M  V30 11378 H 1051.76 3.18741 -2.77784 0
M  V30 11379 H 1049.48 3.65942 -7.20494 0
M  V30 11380 H 1053.07 3.16867 -4.87941 0
M  V30 11381 H 1051.95 3.40359 -7.06488 0
M  V30 11382 N 1049.45 0.880621 1.30701 0
M  V30 11383 C 1050.68 0.51094 2.00182 0
M  V30 11384 C 1051.09 -0.903914 1.66211 0
M  V30 11385 O 1050.43 -1.60529 0.893089 0
M  V30 11386 C 1050.49 0.600775 3.54445 0
M  V30 11387 C 1050.16 1.97915 4.1192 0
M  V30 11388 C 1051.16 2.94802 4.28238 0
M  V30 11389 C 1048.84 2.28336 4.47401 0
M  V30 11390 C 1050.83 4.20245 4.79242 0
M  V30 11391 C 1048.52 3.54026 4.98105 0
M  V30 11392 C 1049.52 4.49796 5.13978 0
M  V30 11393 O 1049.21 5.73256 5.63589 0
M  V30 11394 H 1048.94 0.196477 0.646818 0
M  V30 11395 H 1051.49 1.18659 1.67658 0
M  V30 11396 H 1049.72 -0.131832 3.86475 0
M  V30 11397 H 1051.41 0.242996 4.05172 0
M  V30 11398 H 1052.18 2.7261 4.01134 0
M  V30 11399 H 1048.06 1.54564 4.34317 0
M  V30 11400 H 1051.6 4.95003 4.91546 0
M  V30 11401 H 1047.5 3.76057 5.24644 0
M  V30 11402 H 1048.27 5.75577 5.81939 0
M  V30 11403 N 1050.93 -1.4397 0.641131 0
M  V30 11404 C 1052.18 -2.02246 0.14985 0
M  V30 11405 C 1052.51 -1.50387 -1.22871 0
M  V30 11406 O 1051.78 -0.692003 -1.81773 0
M  V30 11407 C 1052.07 -3.59798 0.147449 0
M  V30 11408 C 1051.92 -4.21916 1.55907 0
M  V30 11409 C 1053.24 -4.36985 -0.522667 0
M  V30 11410 H 1050.36 -0.734875 0.0559274 0
M  V30 11411 H 1053 -1.71418 0.819513 0
M  V30 11412 H 1051.15 -3.86193 -0.422789 0
M  V30 11413 H 1052.82 -4.06594 2.17896 0
M  V30 11414 H 1051.06 -3.79028 2.10998 0
M  V30 11415 H 1051.74 -5.30964 1.50934 0
M  V30 11416 H 1054.21 -4.16083 -0.0376226 0
M  V30 11417 H 1053.09 -5.46676 -0.493572 0
M  V30 11418 H 1053.35 -4.12335 -1.59475 0
M  V30 11419 N 1052.41 -0.382291 -1.52893 0
M  V30 11420 C 1053.68 0.259354 -1.93873 0
M  V30 11421 C 1054.06 1.64964 -1.3172 0
M  V30 11422 O 1053.41 2.23345 -0.482611 0
M  V30 11423 C 1053.62 0.292765 -3.4777 0
M  V30 11424 C 1054.97 0.525095 -4.21341 0
M  V30 11425 O 1055.99 0.373272 -3.54239 0
M  V30 11426 O 1054.85 0.822004 -5.40283 0
M  V30 11427 H 1051.95 0.159422 -0.811489 0
M  V30 11428 H 1054.49 -0.436289 -1.63996 0
M  V30 11429 H 1053.27 -0.681341 -3.85323 0
M  V30 11430 H 1052.89 1.03362 -3.8393 0
M  V30 11431 N 1053.89 1.57202 -0.111913 0
M  V30 11432 C 1055.13 1.94565 0.546713 0
M  V30 11433 C 1055.45 0.995644 1.67666 0
M  V30 11434 O 1054.72 0.0506681 1.95834 0
M  V30 11435 H 1053.3 0.718334 0.204951 0
M  V30 11436 H 1055.97 1.94074 -0.179193 0
M  V30 11437 H 1055.06 2.9742 0.945931 0
M  V30 11438 N 1055.36 -0.161842 1.56767 0
M  V30 11439 C 1056.61 -0.878224 1.82798 0
M  V30 11440 C 1056.94 -1.81481 0.691242 0
M  V30 11441 O 1056.22 -1.92075 -0.30618 0
M  V30 11442 C 1056.5 -1.66565 3.19262 0
M  V30 11443 C 1056.35 -0.751551 4.43477 0
M  V30 11444 C 1057.67 -2.63134 3.52773 0
M  V30 11445 H 1054.79 -0.317828 0.664947 0
M  V30 11446 H 1057.43 -0.14402 1.89453 0
M  V30 11447 H 1055.58 -2.29157 3.13719 0
M  V30 11448 H 1057.26 -0.137783 4.61094 0
M  V30 11449 H 1055.5 -0.0601785 4.33758 0
M  V30 11450 H 1056.17 -1.33823 5.35533 0
M  V30 11451 H 1058.65 -2.10666 3.5883 0
M  V30 11452 H 1057.52 -3.15289 4.49315 0
M  V30 11453 H 1057.78 -3.43786 2.77963 0
M  V30 11454 N 1056.84 -1.516 -0.430713 0
M  V30 11455 C 1057.75 -1.76247 -1.54836 0
M  V30 11456 C 1058.77 -0.646985 -1.61524 0
M  V30 11457 O 1059.94 -0.929987 -1.78643 0
M  V30 11458 C 1057.01 -1.88833 -2.90763 0
M  V30 11459 C 1056.07 -3.12701 -2.94137 0
M  V30 11460 C 1055.3 -3.24676 -4.23581 0
M  V30 11461 O 1055.53 -2.42429 -5.16318 0
M  V30 11462 O 1054.46 -4.17697 -4.33374 0
M  V30 11463 H 1058.29 -2.71069 -1.3695 0
M  V30 11464 H 1055.87 -1.36182 -0.614396 0
M  V30 11465 H 1057.75 -1.99057 -3.71422 0
M  V30 11466 H 1056.43 -0.971987 -3.08762 0
M  V30 11467 H 1055.33 -3.0795 -2.1241 0
M  V30 11468 H 1056.67 -4.04045 -2.81084 0
M  V30 11469 N 1058.32 0.686584 -1.41858 0
M  V30 11470 C 1059.57 1.44879 -1.41908 0
M  V30 11471 C 1059.9 1.94175 -0.0311408 0
M  V30 11472 O 1059.17 1.70131 0.942646 0
M  V30 11473 C 1059.46 2.65428 -2.43352 0
M  V30 11474 C 1059.31 2.2184 -3.91289 0
M  V30 11475 C 1060.63 3.67635 -2.41934 0
M  V30 11476 H 1057.75 0.525477 -0.516762 0
M  V30 11477 H 1060.39 0.781263 -1.73194 0
M  V30 11478 H 1058.54 3.2238 -2.16803 0
M  V30 11479 H 1060.21 1.70146 -4.28775 0
M  V30 11480 H 1058.45 1.53531 -4.05722 0
M  V30 11481 H 1059.13 3.08376 -4.5783 0
M  V30 11482 H 1061.6 3.20376 -2.65516 0
M  V30 11483 H 1060.48 4.49579 -3.14913 0
M  V30 11484 H 1060.74 4.17953 -1.44111 0
M  V30 11485 N 1059.8 1.27835 0.921735 0
M  V30 11486 C 1060.75 1.07723 2.00947 0
M  V30 11487 C 1061.73 0.00336676 1.609 0
M  V30 11488 O 1062.92 0.222593 1.75595 0
M  V30 11489 C 1060.05 0.732732 3.35389 0
M  V30 11490 C 1059.14 1.84504 3.81863 0
M  V30 11491 N 1059.53 3.08551 4.00787 0
M  V30 11492 C 1057.83 1.73308 4.10951 0
M  V30 11493 C 1058.53 3.80974 4.39584 0
M  V30 11494 N 1057.5 3.08773 4.47393 0
M  V30 11495 H 1061.31 2.01854 2.13617 0
M  V30 11496 H 1058.82 1.18637 1.109 0
M  V30 11497 H 1060.82 0.56975 4.12988 0
M  V30 11498 H 1059.48 -0.200885 3.24078 0
M  V30 11499 H 1060.49 3.44248 3.86928 0
M  V30 11500 H 1057.17 0.870698 4.0832 0
M  V30 11501 H 1058.56 4.87617 4.62255 0
M  V30 11502 N 1061.28 -1.12907 1.09954 0
M  V30 11503 C 1062.22 -2.20561 0.73863 0
M  V30 11504 C 1063.22 -1.67347 -0.262944 0
M  V30 11505 O 1064.42 -1.79574 -0.123834 0
M  V30 11506 H 1060.8 -0.718823 0.220901 0
M  V30 11507 H 1062.77 -2.4826 1.65559 0
M  V30 11508 C 1061.52 -3.47227 0.181239 0
M  V30 11509 H 1060.84 -3.88516 0.943144 0
M  V30 11510 H 1062.28 -4.23987 -0.0332888 0
M  V30 11511 C 1060.74 -3.18956 -1.08485 0
M  V30 11512 O 1061.27 -3.38224 -2.1672 0
M  V30 11513 N 1059.48 -2.72797 -1.00151 0
M  V30 11514 H 1059.02 -2.57317 -0.120645 0
M  V30 11515 H 1058.98 -2.54256 -1.84935 0
M  V30 11516 N 1062.75 -0.88754 -1.30232 0
M  V30 11517 C 1063.72 -0.361095 -2.26338 0
M  V30 11518 C 1064.72 0.497871 -1.52898 0
M  V30 11519 O 1065.91 0.30466 -1.71515 0
M  V30 11520 C 1063.04 0.485135 -3.3743 0
M  V30 11521 H 1064.23 -1.20973 -2.74419 0
M  V30 11522 H 1061.78 -0.664619 -1.41466 0
M  V30 11523 H 1062.52 1.35425 -2.9467 0
M  V30 11524 H 1062.3 -0.130173 -3.91884 0
M  V30 11525 H 1063.79 0.845169 -4.08958 0
M  V30 11526 N 1064.23 1.43628 -0.648757 0
M  V30 11527 C 1065.18 2.30755 0.0455536 0
M  V30 11528 C 1066.15 1.44495 0.819168 0
M  V30 11529 O 1067.33 1.73372 0.79667 0
M  V30 11530 C 1064.47 3.30017 1.00908 0
M  V30 11531 C 1063.59 4.31376 0.232039 0
M  V30 11532 C 1062.72 5.17723 1.18897 0
M  V30 11533 C 1061.76 6.10778 0.402096 0
M  V30 11534 N 1060.9 6.89763 1.31038 0
M  V30 11535 H 1065.74 2.89581 -0.70332 0
M  V30 11536 H 1063.28 1.42662 -0.3586 0
M  V30 11537 H 1065.23 3.86072 1.58128 0
M  V30 11538 H 1063.86 2.72851 1.72488 0
M  V30 11539 H 1062.92 3.77652 -0.456373 0
M  V30 11540 H 1064.23 4.9735 -0.380023 0
M  V30 11541 H 1063.38 5.78381 1.83194 0
M  V30 11542 H 1062.12 4.51864 1.83494 0
M  V30 11543 H 1061.13 5.49212 -0.254255 0
M  V30 11544 H 1062.35 6.78678 -0.239411 0
M  V30 11545 H 1060.3 6.26557 1.94324 0
M  V30 11546 H 1060.21 7.52243 0.752774 0
M  V30 11547 H 1061.48 7.54931 1.94164 0
M  V30 11548 N 1065.71 0.390394 1.52688 0
M  V30 11549 C 1066.94 -0.191485 2.06012 0
M  V30 11550 C 1067.35 -1.40422 1.26202 0
M  V30 11551 O 1066.71 -1.79866 0.308963 0
M  V30 11552 C 1066.76 -0.560521 3.57128 0
M  V30 11553 O 1066.48 0.60404 4.33916 0
M  V30 11554 C 1067.98 -1.19814 4.26801 0
M  V30 11555 H 1065.2 -0.0286311 0.670389 0
M  V30 11556 H 1067.75 0.555939 1.96798 0
M  V30 11557 H 1065.9 -1.25784 3.66411 0
M  V30 11558 H 1066.32 0.300467 5.23639 0
M  V30 11559 H 1067.79 -1.40672 5.33775 0
M  V30 11560 H 1068.27 -2.16582 3.82085 0
M  V30 11561 H 1068.87 -0.541558 4.21838 0
M  V30 11562 N 1067.19 -1.57141 0.120249 0
M  V30 11563 C 1068.14 -2.15379 -0.829497 0
M  V30 11564 C 1069.11 -1.07913 -1.2627 0
M  V30 11565 O 1070.29 -1.35827 -1.33999 0
M  V30 11566 C 1067.43 -2.75847 -2.0737 0
M  V30 11567 C 1066.54 -3.97624 -1.68875 0
M  V30 11568 C 1065.68 -4.46175 -2.88272 0
M  V30 11569 C 1064.72 -5.60481 -2.46023 0
M  V30 11570 N 1063.85 -6.0377 -3.58337 0
M  V30 11571 H 1068.69 -2.96211 -0.326031 0
M  V30 11572 H 1066.23 -1.46341 -0.149235 0
M  V30 11573 H 1068.19 -3.09037 -2.80272 0
M  V30 11574 H 1066.82 -1.97703 -2.55174 0
M  V30 11575 H 1065.87 -3.70588 -0.858431 0
M  V30 11576 H 1067.18 -4.80512 -1.33827 0
M  V30 11577 H 1066.34 -4.8128 -3.69397 0
M  V30 11578 H 1065.08 -3.6224 -3.26548 0
M  V30 11579 H 1064.08 -5.24979 -1.63331 0
M  V30 11580 H 1065.31 -6.46184 -2.08863 0
M  V30 11581 H 1063.25 -5.22776 -3.96284 0
M  V30 11582 H 1063.17 -6.81517 -3.27217 0
M  V30 11583 H 1064.44 -6.43514 -4.39898 0
M  V30 11584 N 1068.67 0.153526 -1.5685 0
M  V30 11585 C 1070.08 0.714247 -1.72498 0
M  V30 11586 C 1070.43 1.81968 -0.733621 0
M  V30 11587 O 1069.55 2.16163 0.10118 0
M  V30 11588 C 1070.15 1.30238 -3.12767 0
M  V30 11589 C 1068.71 1.80974 -3.30038 0
M  V30 11590 C 1067.85 0.695638 -2.68433 0
M  V30 11591 H 1070.81 -0.0720733 -1.58536 0
M  V30 11592 H 1070.83 2.17217 -3.12405 0
M  V30 11593 H 1070.34 0.497605 -3.84897 0
M  V30 11594 H 1068.44 2.64039 -2.62895 0
M  V30 11595 H 1068.55 1.94294 -4.37934 0
M  V30 11596 H 1066.92 1.12061 -2.28723 0
M  V30 11597 H 1067.7 -0.0975885 -3.43161 0
M  V30 11598 N 1070.14 1.51827 0.422667 0
M  V30 11599 C 1071.56 1.40328 0.760275 0
M  V30 11600 C 1071.76 0.497119 1.95272 0
M  V30 11601 O 1070.82 -0.0422083 2.52465 0
M  V30 11602 C 1072.13 2.82622 1.02689 0
M  V30 11603 C 1073.68 2.91874 1.13044 0
M  V30 11604 C 1074.15 4.35107 1.4299 0
M  V30 11605 N 1075.64 4.3828 1.49883 0
M  V30 11606 C 1076.38 5.46153 1.74655 0
M  V30 11607 N 1075.87 6.64165 1.9712 0
M  V30 11608 N 1077.67 5.33651 1.76558 0
M  V30 11609 H 1069.82 2.09285 -0.362455 0
M  V30 11610 H 1072.08 0.94273 -0.0998161 0
M  V30 11611 H 1071.79 3.50991 0.223226 0
M  V30 11612 H 1071.66 3.22844 1.95068 0
M  V30 11613 H 1074.05 2.23694 1.92471 0
M  V30 11614 H 1074.13 2.55128 0.185326 0
M  V30 11615 H 1073.77 5.03841 0.640848 0
M  V30 11616 H 1073.7 4.69377 2.38731 0
M  V30 11617 H 1076.19 3.53206 1.34366 0
M  V30 11618 H 1076.51 7.42165 2.15434 0
M  V30 11619 H 1074.85 6.67255 1.94413 0
M  V30 11620 H 1078.04 4.40436 1.58536 0
M  V30 11621 H 1078.22 6.17798 1.95525 0
M  V30 11622 N 1071.62 -0.679052 1.4222 0
M  V30 11623 C 1072.53 -1.82221 1.47759 0
M  V30 11624 C 1073.55 -1.70092 0.3667 0
M  V30 11625 O 1074.72 -1.91718 0.616957 0
M  V30 11626 C 1071.79 -3.18332 1.37351 0
M  V30 11627 C 1070.85 -3.42449 2.58896 0
M  V30 11628 C 1070.08 -4.72067 2.48976 0
M  V30 11629 O 1070.31 -5.49683 1.5233 0
M  V30 11630 O 1069.24 -4.97333 3.39033 0
M  V30 11631 H 1073.07 -1.80504 2.44238 0
M  V30 11632 H 1070.65 -0.834251 1.23938 0
M  V30 11633 H 1072.53 -3.99563 1.33893 0
M  V30 11634 H 1071.21 -3.20696 0.439965 0
M  V30 11635 H 1070.12 -2.61083 2.6793 0
M  V30 11636 H 1071.45 -3.44912 3.51136 0
M  V30 11637 N 1073.1 -1.28322 -0.914942 0
M  V30 11638 C 1074.01 -1.13993 -2.05043 0
M  V30 11639 C 1075.03 -0.0667921 -1.73872 0
M  V30 11640 O 1076.2 -0.275845 -1.99502 0
M  V30 11641 C 1073.27 -0.801856 -3.373 0
M  V30 11642 C 1072.33 -1.95723 -3.82088 0
M  V30 11643 C 1071.56 -1.63519 -5.08033 0
M  V30 11644 O 1071.78 -0.54899 -5.67752 0
M  V30 11645 O 1070.72 -2.47844 -5.48504 0
M  V30 11646 H 1074.54 -2.09313 -2.2005 0
M  V30 11647 H 1072.13 -1.0763 -1.03616 0
M  V30 11648 H 1074.01 -0.627214 -4.16706 0
M  V30 11649 H 1072.69 0.121696 -3.23471 0
M  V30 11650 H 1071.59 -2.18702 -3.03514 0
M  V30 11651 H 1072.93 -2.86144 -4.00478 0
M  V30 11652 N 1074.58 1.12322 -1.10551 0
M  V30 11653 C 1075.51 2.17819 -0.713263 0
M  V30 11654 C 1076.52 1.6086 0.250604 0
M  V30 11655 O 1077.71 1.78466 0.0348909 0
M  V30 11656 C 1074.81 3.38885 -0.0320325 0
M  V30 11657 C 1073.99 4.25332 -1.02038 0
M  V30 11658 C 1073.04 5.24895 -0.370412 0
M  V30 11659 O 1072.07 5.59958 -1.02157 0
M  V30 11660 N 1073.27 5.73934 0.870633 0
M  V30 11661 H 1076.04 2.52083 -1.62094 0
M  V30 11662 H 1073.6 1.27755 -0.994492 0
M  V30 11663 H 1075.59 4.02574 0.414285 0
M  V30 11664 H 1074.16 3.02762 0.778072 0
M  V30 11665 H 1073.38 3.5824 -1.64492 0
M  V30 11666 H 1074.67 4.79936 -1.68936 0
M  V30 11667 H 1074.07 5.47614 1.419 0
M  V30 11668 H 1072.62 6.39504 1.26008 0
M  V30 11669 N 1076.06 0.894434 1.2976 0
M  V30 11670 C 1077.29 0.532143 1.99629 0
M  V30 11671 C 1077.69 -0.886234 1.6716 0
M  V30 11672 O 1077.04 -1.59573 0.910065 0
M  V30 11673 C 1077.1 0.638335 3.53787 0
M  V30 11674 C 1076.76 2.02273 4.09798 0
M  V30 11675 C 1077.76 2.99327 4.25087 0
M  V30 11676 C 1075.45 2.33069 4.44954 0
M  V30 11677 C 1077.44 4.25304 4.74758 0
M  V30 11678 C 1075.13 3.59289 4.94322 0
M  V30 11679 C 1076.12 4.55222 5.09178 0
M  V30 11680 O 1075.81 5.79202 5.57477 0
M  V30 11681 H 1075.54 0.203326 0.644697 0
M  V30 11682 H 1078.1 1.2043 1.6639 0
M  V30 11683 H 1076.33 -0.0908338 3.86593 0
M  V30 11684 H 1078.02 0.285956 4.04891 0
M  V30 11685 H 1078.78 2.76849 3.9822 0
M  V30 11686 H 1074.66 1.59162 4.32653 0
M  V30 11687 H 1078.21 5.00189 4.86269 0
M  V30 11688 H 1074.1 3.816 5.20626 0
M  V30 11689 H 1074.87 5.81717 5.75802 0
M  V30 11690 N 1077.53 -1.43282 0.656365 0
M  V30 11691 C 1078.48 -2.32556 -0.0452037 0
M  V30 11692 C 1079.48 -1.48789 -0.80982 0
M  V30 11693 O 1080.68 -1.64979 -0.719865 0
M  V30 11694 H 1077.06 -0.751258 -0.0334043 0
M  V30 11695 H 1079.03 -2.89448 0.725423 0
M  V30 11696 C 1077.78 -3.33138 -0.995706 0
M  V30 11697 H 1077.1 -3.97622 -0.416774 0
M  V30 11698 H 1078.54 -3.98231 -1.45562 0
M  V30 11699 C 1077 -2.63978 -2.09325 0
M  V30 11700 O 1077.53 -2.45769 -3.17743 0
M  V30 11701 N 1075.74 -2.23301 -1.8597 0
M  V30 11702 H 1075.28 -2.38312 -0.97802 0
M  V30 11703 H 1075.24 -1.77358 -2.59599 0
M  V30 11704 N 1079.01 -0.398486 -1.52479 0
M  V30 11705 C 1080.24 0.183059 -2.06591 0
M  V30 11706 C 1080.66 1.3898 -1.26753 0
M  V30 11707 O 1080.02 1.78885 -0.294959 0
M  V30 11708 C 1080.07 0.522392 -3.56796 0
M  V30 11709 O 1079.17 1.61499 -3.79462 0
M  V30 11710 H 1078.51 0.0188411 -0.663733 0
M  V30 11711 H 1081.04 -0.56861 -1.9654 0
M  V30 11712 H 1081.05 0.784078 -4.00395 0
M  V30 11713 H 1079.73 -0.359807 -4.14341 0
M  V30 11714 H 1078.31 1.3463 -3.47749 0
M  V30 11715 N 1080.49 1.57075 -0.12858 0
M  V30 11716 C 1081.72 1.99876 0.534544 0
M  V30 11717 C 1082.13 1.00843 1.59612 0
M  V30 11718 O 1081.49 0.00268947 1.825 0
M  V30 11719 C 1081.54 3.42654 1.15198 0
M  V30 11720 O 1081.26 4.37899 0.132823 0
M  V30 11721 C 1082.76 4.00637 1.8975 0
M  V30 11722 H 1079.98 0.656073 0.140744 0
M  V30 11723 H 1082.53 2.03337 -0.217742 0
M  V30 11724 H 1080.68 3.40101 1.85499 0
M  V30 11725 H 1081.1 5.21253 0.582682 0
M  V30 11726 H 1082.57 5.02592 2.28266 0
M  V30 11727 H 1083.05 3.40313 2.7764 0
M  V30 11728 H 1083.65 4.06764 1.2419 0
M  V30 11729 N 1081.97 -0.145205 1.5693 0
M  V30 11730 C 1083.2 -0.871133 1.87336 0
M  V30 11731 C 1083.61 -1.7517 0.714992 0
M  V30 11732 O 1082.95 -1.80815 -0.324304 0
M  V30 11733 C 1083.01 -1.77775 3.12468 0
M  V30 11734 C 1082.68 -1.07416 4.44197 0
M  V30 11735 C 1083.67 -0.42722 5.18142 0
M  V30 11736 C 1081.36 -1.06313 4.9092 0
M  V30 11737 C 1083.35 0.221348 6.37016 0
M  V30 11738 C 1081.04 -0.410755 6.09718 0
M  V30 11739 C 1082.04 0.230357 6.82611 0
M  V30 11740 O 1081.73 0.872389 7.99152 0
M  V30 11741 H 1081.46 -0.257174 0.62517 0
M  V30 11742 H 1084.01 -0.142159 2.04907 0
M  V30 11743 H 1082.24 -2.54771 2.9091 0
M  V30 11744 H 1083.93 -2.37579 3.29107 0
M  V30 11745 H 1084.7 -0.427536 4.83112 0
M  V30 11746 H 1080.58 -1.55156 4.34105 0
M  V30 11747 H 1084.12 0.722349 6.9385 0
M  V30 11748 H 1080.02 -0.408112 6.44209 0
M  V30 11749 H 1080.78 0.774236 8.1483 0
M  V30 11750 N 1083.45 -1.52049 -0.414609 0
M  V30 11751 C 1084.86 -1.40729 -0.752822 0
M  V30 11752 C 1085.06 -0.507468 -1.95005 0
M  V30 11753 O 1084.12 0.0288189 -2.52484 0
M  V30 11754 C 1085.43 -2.83163 -1.01189 0
M  V30 11755 C 1086.98 -2.92469 -1.11494 0
M  V30 11756 C 1087.46 -4.35859 -1.4068 0
M  V30 11757 N 1088.95 -4.39069 -1.47557 0
M  V30 11758 C 1089.68 -5.47072 -1.71756 0
M  V30 11759 N 1089.18 -6.65201 -1.93595 0
M  V30 11760 N 1090.97 -5.3458 -1.73726 0
M  V30 11761 H 1083.12 -2.09089 0.373549 0
M  V30 11762 H 1085.38 -0.942188 0.104814 0
M  V30 11763 H 1085.09 -3.51104 -0.204609 0
M  V30 11764 H 1084.96 -3.23874 -1.93353 0
M  V30 11765 H 1087.35 -2.24711 -1.91282 0
M  V30 11766 H 1087.43 -2.55222 -0.171794 0
M  V30 11767 H 1087.08 -5.04174 -0.614119 0
M  V30 11768 H 1087.01 -4.70637 -2.36238 0
M  V30 11769 H 1089.5 -3.53913 -1.32491 0
M  V30 11770 H 1089.81 -7.43297 -2.11495 0
M  V30 11771 H 1088.16 -6.68276 -1.90871 0
M  V30 11772 H 1091.35 -4.41271 -1.56198 0
M  V30 11773 H 1091.52 -6.18826 -1.92246 0
M  V30 11774 N 1084.93 0.6715 -1.42579 0
M  V30 11775 C 1086.17 1.43366 -1.43436 0
M  V30 11776 C 1086.5 1.94131 -0.0517339 0
M  V30 11777 O 1085.78 1.71121 0.924548 0
M  V30 11778 C 1086.06 2.62832 -2.46154 0
M  V30 11779 C 1085.92 2.17677 -3.9362 0
M  V30 11780 C 1087.23 3.65049 -2.4582 0
M  V30 11781 H 1084.35 0.519967 -0.522306 0
M  V30 11782 H 1087 0.762849 -1.74013 0
M  V30 11783 H 1085.15 3.20062 -2.2021 0
M  V30 11784 H 1086.82 1.65588 -4.30556 0
M  V30 11785 H 1085.06 1.49219 -4.07328 0
M  V30 11786 H 1085.73 3.03503 -4.61075 0
M  V30 11787 H 1088.21 3.17541 -2.68899 0
M  V30 11788 H 1087.08 4.46213 -3.19664 0
M  V30 11789 H 1087.34 4.16401 -1.48536 0
M  V30 11790 N 1086.4 1.28806 0.908124 0
M  V30 11791 C 1087.65 1.1646 1.66027 0
M  V30 11792 C 1087.98 -0.285025 1.92097 0
M  V30 11793 O 1087.26 -1.20675 1.52538 0
M  V30 11794 C 1087.54 1.96951 3.01467 0
M  V30 11795 C 1087.39 3.50007 2.82515 0
M  V30 11796 C 1088.71 1.78932 4.02084 0
M  V30 11797 H 1085.83 0.424435 0.602515 0
M  V30 11798 H 1088.47 1.58185 1.0525 0
M  V30 11799 H 1086.62 1.61495 3.53344 0
M  V30 11800 H 1088.3 3.95401 2.37605 0
M  V30 11801 H 1086.54 3.75356 2.17463 0
M  V30 11802 H 1087.21 4.01591 3.7872 0
M  V30 11803 H 1089.69 2.09885 3.59287 0
M  V30 11804 H 1088.56 2.37615 4.94803 0
M  V30 11805 H 1088.82 0.742286 4.35824 0
M  V30 11806 N 1087.88 -1.11734 1.11145 0
M  V30 11807 C 1089.11 -1.87755 0.881062 0
M  V30 11808 C 1089.53 -1.79461 -0.563496 0
M  V30 11809 O 1088.89 -1.15481 -1.39763 0
M  V30 11810 C 1088.94 -3.34641 1.34342 0
M  V30 11811 O 1088.04 -4.09195 0.513157 0
M  V30 11812 H 1087.38 -0.583111 0.317613 0
M  V30 11813 H 1089.91 -1.41256 1.48013 0
M  V30 11814 H 1089.92 -3.85486 1.33658 0
M  V30 11815 H 1088.6 -3.39994 2.39534 0
M  V30 11816 H 1087.17 -3.68269 0.585833 0
M  V30 11817 N 1089.36 -0.901303 -1.29284 0
M  V30 11818 C 1090.61 -0.528826 -1.95784 0
M  V30 11819 C 1090.94 0.922833 -1.70873 0
M  V30 11820 O 1090.21 1.65448 -1.0226 0
M  V30 11821 C 1090.5 -0.823793 -3.50551 0
M  V30 11822 C 1090.35 -2.32727 -3.84913 0
M  V30 11823 C 1091.67 -0.311382 -4.38997 0
M  V30 11824 H 1088.79 -0.193604 -0.711116 0
M  V30 11825 H 1091.43 -1.12828 -1.52872 0
M  V30 11826 H 1089.58 -0.313612 -3.87232 0
M  V30 11827 H 1091.25 -2.90712 -3.58168 0
M  V30 11828 H 1089.49 -2.78735 -3.32399 0
M  V30 11829 H 1090.17 -2.48423 -4.9294 0
M  V30 11830 H 1092.64 -0.748265 -4.09317 0
M  V30 11831 H 1091.52 -0.546957 -5.46168 0
M  V30 11832 H 1091.78 0.787959 -4.35021 0
M  V30 11833 N 1090.84 1.42931 -0.663954 0
M  V30 11834 C 1091.77 2.33499 0.00731327 0
M  V30 11835 C 1092.75 1.50074 0.800733 0
M  V30 11836 O 1093.93 1.78708 0.760062 0
M  V30 11837 C 1091.06 3.33569 0.966897 0
M  V30 11838 C 1090.02 4.27064 0.282839 0
M  V30 11839 C 1089.34 5.17257 1.35461 0
M  V30 11840 C 1090.64 5.1564 -0.831438 0
M  V30 11841 H 1092.34 2.89879 -0.749044 0
M  V30 11842 H 1089.88 1.39385 -0.361656 0
M  V30 11843 H 1091.84 3.95833 1.44549 0
M  V30 11844 H 1090.56 2.75469 1.75455 0
M  V30 11845 H 1089.22 3.6618 -0.175417 0
M  V30 11846 H 1088.87 4.5549 2.13397 0
M  V30 11847 H 1088.57 5.80634 0.902098 0
M  V30 11848 H 1090.09 5.82395 1.83436 0
M  V30 11849 H 1091.51 5.71651 -0.434534 0
M  V30 11850 H 1089.9 5.87794 -1.20908 0
M  V30 11851 H 1090.97 4.54687 -1.68487 0
M  V30 11852 N 1092.32 0.406567 1.52266 0
M  V30 11853 C 1093.54 -0.169624 2.06204 0
M  V30 11854 C 1093.96 -1.39076 1.27684 0
M  V30 11855 O 1093.32 -1.79528 0.328023 0
M  V30 11856 C 1093.37 -0.522611 3.57702 0
M  V30 11857 O 1093.09 0.650028 4.33251 0
M  V30 11858 C 1094.59 -1.15281 4.28048 0
M  V30 11859 H 1091.81 -0.0215191 0.670655 0
M  V30 11860 H 1094.35 0.576781 1.96198 0
M  V30 11861 H 1092.51 -1.21891 3.67725 0
M  V30 11862 H 1092.92 0.355989 5.23291 0
M  V30 11863 H 1094.4 -1.35002 5.35237 0
M  V30 11864 H 1094.87 -2.12517 3.84361 0
M  V30 11865 H 1095.48 -0.496786 4.22389 0
M  V30 11866 N 1093.79 -1.57004 0.136909 0
M  V30 11867 C 1095.04 -1.96087 -0.517477 0
M  V30 11868 C 1095.37 -1.0213 -1.65176 0
M  V30 11869 O 1094.65 -0.0617958 -1.94402 0
M  V30 11870 C 1094.93 -3.44958 -1.03323 0
M  V30 11871 C 1094.78 -4.49691 0.0988609 0
M  V30 11872 C 1096.1 -3.96091 -1.91832 0
M  V30 11873 H 1093.22 -0.712978 -0.186632 0
M  V30 11874 H 1095.86 -1.88767 0.216095 0
M  V30 11875 H 1094.01 -3.51327 -1.65836 0
M  V30 11876 H 1095.69 -4.55409 0.734847 0
M  V30 11877 H 1093.93 -4.271 0.75947 0
M  V30 11878 H 1094.6 -5.51165 -0.303554 0
M  V30 11879 H 1097.08 -3.92139 -1.39164 0
M  V30 11880 H 1095.95 -5.00742 -2.24831 0
M  V30 11881 H 1096.21 -3.37846 -2.85153 0
M  V30 11882 N 1095.27 0.136881 -1.57004 0
M  V30 11883 C 1096.2 1.17026 -2.02057 0
M  V30 11884 C 1097.18 1.44223 -0.901866 0
M  V30 11885 O 1098.37 1.54971 -1.17037 0
M  V30 11886 C 1095.5 2.50095 -2.40977 0
M  V30 11887 C 1094.45 2.37398 -3.56127 0
M  V30 11888 C 1093.78 3.75268 -3.80891 0
M  V30 11889 C 1095.08 1.84952 -4.88457 0
M  V30 11890 H 1096.77 0.795601 -2.88636 0
M  V30 11891 H 1094.32 0.381266 -1.38861 0
M  V30 11892 H 1096.27 3.22621 -2.71097 0
M  V30 11893 H 1095 2.89416 -1.51348 0
M  V30 11894 H 1093.65 1.67322 -3.26188 0
M  V30 11895 H 1093.3 4.12043 -2.88496 0
M  V30 11896 H 1093 3.67631 -4.5839 0
M  V30 11897 H 1094.53 4.49327 -4.13446 0
M  V30 11898 H 1095.94 2.4728 -5.17229 0
M  V30 11899 H 1094.34 1.88181 -5.69832 0
M  V30 11900 H 1095.41 0.805848 -4.78157 0
M  V30 11901 N 1096.75 1.52266 0.40654 0
M  V30 11902 C 1097.7 1.72175 1.49465 0
M  V30 11903 C 1098.68 0.575668 1.50249 0
M  V30 11904 O 1099.88 0.832835 1.56182 0
M  V30 11905 C 1097.01 1.87818 2.87366 0
M  V30 11906 C 1096.09 3.08305 2.91219 0
M  V30 11907 N 1096.48 4.30967 2.64766 0
M  V30 11908 C 1094.78 3.08192 3.22388 0
M  V30 11909 C 1095.48 5.12455 2.75254 0
M  V30 11910 N 1094.46 4.47758 3.08242 0
M  V30 11911 H 1098.26 2.64653 1.27812 0
M  V30 11912 H 1095.77 1.50334 0.61428 0
M  V30 11913 H 1097.77 2.00198 3.65686 0
M  V30 11914 H 1096.43 0.965414 3.10016 0
M  V30 11915 H 1097.44 4.59397 2.39113 0
M  V30 11916 H 1094.12 2.26662 3.50615 0
M  V30 11917 H 1095.51 6.20186 2.58495 0
M  V30 11918 N 1098.23 -0.663929 1.42933 0
M  V30 11919 C 1099.16 -1.78946 1.43217 0
M  V30 11920 C 1100.17 -1.59426 0.329727 0
M  V30 11921 O 1101.36 -1.68344 0.5935 0
M  V30 11922 C 1098.46 -3.16217 1.21902 0
M  V30 11923 C 1097.64 -3.6249 2.44785 0
M  V30 11924 C 1096.69 -4.78529 2.18853 0
M  V30 11925 O 1095.72 -4.88516 2.92131 0
M  V30 11926 N 1096.92 -5.67994 1.19845 0
M  V30 11927 H 1099.69 -1.79184 2.40236 0
M  V30 11928 H 1097.25 -0.847404 1.37952 0
M  V30 11929 H 1099.24 -3.91517 1.02454 0
M  V30 11930 H 1097.81 -3.10814 0.333676 0
M  V30 11931 H 1097.03 -2.77751 2.79729 0
M  V30 11932 H 1098.32 -3.90151 3.26588 0
M  V30 11933 H 1097.72 -5.62588 0.59259 0
M  V30 11934 H 1096.27 -6.4306 1.06382 0
M  V30 11935 N 1099.71 -1.29285 -0.901281 0
M  V30 11936 C 1100.98 -1.07847 -1.63182 0
M  V30 11937 C 1101.36 0.377927 -2.07689 0
M  V30 11938 O 1100.71 1.36642 -1.83143 0
M  V30 11939 C 1100.92 -2.06457 -2.81383 0
M  V30 11940 C 1102.27 -2.37289 -3.52107 0
M  V30 11941 O 1103.29 -2.0464 -2.91549 0
M  V30 11942 O 1102.15 -2.93067 -4.61274 0
M  V30 11943 H 1099.25 -0.413073 -0.71645 0
M  V30 11944 H 1101.79 -1.40651 -0.949488 0
M  V30 11945 H 1100.56 -3.04561 -2.4568 0
M  V30 11946 H 1100.19 -1.74374 -3.57323 0
M  V30 11947 N 1101.18 1.11143 -1.11736 0
M  V30 11948 C 1102.43 1.8341 -0.879329 0
M  V30 11949 C 1102.79 1.83174 0.588657 0
M  V30 11950 O 1102.08 1.27609 1.42922 0
M  V30 11951 C 1102.27 3.29733 -1.3788 0
M  V30 11952 C 1102.1 3.44222 -2.89381 0
M  V30 11953 C 1100.87 3.57065 -3.57537 0
M  V30 11954 C 1103.07 3.38246 -3.8742 0
M  V30 11955 N 1101.05 3.60056 -4.97225 0
M  V30 11956 C 1102.42 3.47894 -5.13196 0
M  V30 11957 C 1104.48 3.21797 -3.79935 0
M  V30 11958 C 1103.18 3.4279 -6.32367 0
M  V30 11959 C 1105.21 3.18011 -4.98621 0
M  V30 11960 C 1104.57 3.28234 -6.23251 0
M  V30 11961 H 1100.67 0.686248 -0.374951 0
M  V30 11962 H 1103.25 1.32962 -1.42229 0
M  V30 11963 H 1101.42 3.78691 -0.86298 0
M  V30 11964 H 1103.15 3.89924 -1.08359 0
M  V30 11965 H 1099.91 3.59759 -3.08011 0
M  V30 11966 H 1100.33 3.65181 -5.70063 0
M  V30 11967 H 1104.98 3.12777 -2.84482 0
M  V30 11968 H 1102.69 3.50577 -7.28094 0
M  V30 11969 H 1106.28 3.06446 -4.94552 0
M  V30 11970 H 1105.16 3.25297 -7.13549 0
M  V30 11971 N 1102.66 0.908147 1.28804 0
M  V30 11972 C 1103.59 0.409106 2.29888 0
M  V30 11973 C 1104.57 -0.520338 1.61946 0
M  V30 11974 O 1105.76 -0.429268 1.89396 0
M  V30 11975 C 1102.89 -0.35669 3.45463 0
M  V30 11976 C 1101.84 0.4831 4.25265 0
M  V30 11977 C 1101.17 -0.4107 5.3312 0
M  V30 11978 C 1102.47 1.73744 4.92555 0
M  V30 11979 H 1104.16 1.25386 2.7188 0
M  V30 11980 H 1101.71 0.604368 1.30703 0
M  V30 11981 H 1103.66 -0.71661 4.15262 0
M  V30 11982 H 1102.39 -1.2353 3.02337 0
M  V30 11983 H 1101.04 0.825464 3.57186 0
M  V30 11984 H 1100.69 -1.28769 4.86238 0
M  V30 11985 H 1100.39 0.14756 5.87415 0
M  V30 11986 H 1101.92 -0.766626 6.05768 0
M  V30 11987 H 1103.33 1.44676 5.54745 0
M  V30 11988 H 1101.73 2.23767 5.5682 0
M  V30 11989 H 1102.8 2.46853 4.17363 0
M  V30 11990 N 1104.14 -1.42577 0.671525 0
M  V30 11991 C 1105.09 -2.32591 -0.0205354 0
M  V30 11992 C 1106.08 -1.4964 -0.793993 0
M  V30 11993 O 1107.29 -1.65733 -0.702327 0
M  V30 11994 H 1103.66 -0.75157 -0.0254344 0
M  V30 11995 H 1105.63 -2.88662 0.756082 0
M  V30 11996 C 1104.38 -3.34175 -0.960316 0
M  V30 11997 H 1103.71 -3.98041 -0.374577 0
M  V30 11998 H 1105.15 -3.99752 -1.4133 0
M  V30 11999 C 1103.61 -2.66184 -2.06513 0
M  V30 12000 O 1104.14 -2.49125 -3.15119 0
M  V30 12001 N 1102.34 -2.25261 -1.83591 0
M  V30 12002 H 1101.89 -2.39336 -0.952689 0
M  V30 12003 H 1101.85 -1.80101 -2.57703 0
M  V30 12004 N 1105.62 -0.414636 -1.52048 0
M  V30 12005 C 1106.87 0.159034 -2.01473 0
M  V30 12006 C 1107.19 1.45176 -1.30188 0
M  V30 12007 O 1106.46 1.91134 -0.429469 0
M  V30 12008 H 1105.04 0.0617604 -0.744443 0
M  V30 12009 H 1107.7 -0.552141 -1.86916 0
M  V30 12010 H 1106.8 0.351217 -3.10118 0
M  V30 12011 N 1107.1 1.56929 -0.145233 0
M  V30 12012 C 1108.04 2.16671 0.795128 0
M  V30 12013 C 1109.01 1.09908 1.24537 0
M  V30 12014 O 1110.2 1.37941 1.31821 0
M  V30 12015 C 1107.34 2.79111 2.02956 0
M  V30 12016 C 1106.45 4.00261 1.62528 0
M  V30 12017 C 1105.59 4.50705 2.81137 0
M  V30 12018 C 1104.63 5.64324 2.37075 0
M  V30 12019 N 1103.76 6.09395 3.48687 0
M  V30 12020 H 1108.6 2.96692 0.278865 0
M  V30 12021 H 1106.14 1.4656 0.125934 0
M  V30 12022 H 1108.1 3.13456 2.7532 0
M  V30 12023 H 1106.73 2.01737 2.51996 0
M  V30 12024 H 1105.78 3.71906 0.799365 0
M  V30 12025 H 1107.09 4.8258 1.26166 0
M  V30 12026 H 1106.25 4.87096 3.61693 0
M  V30 12027 H 1104.98 3.67389 3.20744 0
M  V30 12028 H 1103.99 5.27511 1.54958 0
M  V30 12029 H 1105.21 6.49425 1.98556 0
M  V30 12030 H 1103.16 5.29014 3.87917 0
M  V30 12031 H 1103.08 6.86636 3.16333 0
M  V30 12032 H 1104.35 6.50431 4.29605 0
M  V30 12033 N 1108.58 -0.128553 1.57075 0
M  V30 12034 C 1109.49 -1.17718 2.02927 0
M  V30 12035 C 1110.5 -1.45912 0.947932 0
M  V30 12036 O 1111.68 -1.57217 1.25876 0
M  V30 12037 C 1108.74 -2.48625 2.41633 0
M  V30 12038 C 1107.8 -2.27914 3.63804 0
M  V30 12039 C 1107.04 -3.52579 4.00654 0
M  V30 12040 O 1107.26 -4.59505 3.37952 0
M  V30 12041 O 1106.19 -3.44147 4.93808 0
M  V30 12042 H 1110.02 -0.817846 2.92481 0
M  V30 12043 H 1107.6 -0.338649 1.45511 0
M  V30 12044 H 1109.49 -3.2577 2.67305 0
M  V30 12045 H 1108.16 -2.84052 1.55229 0
M  V30 12046 H 1107.07 -1.4866 3.43294 0
M  V30 12047 H 1108.4 -1.97395 4.50883 0
M  V30 12048 N 1110.05 -1.5248 -0.398459 0
M  V30 12049 C 1111.28 -1.70677 -1.16417 0
M  V30 12050 C 1111.69 -0.420629 -1.84465 0
M  V30 12051 O 1111.03 0.614013 -1.73135 0
M  V30 12052 C 1111.1 -2.79401 -2.2622 0
M  V30 12053 C 1110.76 -4.20817 -1.78218 0
M  V30 12054 C 1111.76 -5.04298 -1.26409 0
M  V30 12055 C 1109.44 -4.67098 -1.84728 0
M  V30 12056 C 1111.44 -6.32136 -0.817461 0
M  V30 12057 C 1109.12 -5.94923 -1.39676 0
M  V30 12058 C 1110.12 -6.77272 -0.882716 0
M  V30 12059 O 1109.81 -8.02702 -0.438739 0
M  V30 12060 H 1109.54 -0.57503 -0.355411 0
M  V30 12061 H 1112.1 -1.99868 -0.473471 0
M  V30 12062 H 1110.33 -2.4561 -2.98685 0
M  V30 12063 H 1112.01 -2.86093 -2.87933 0
M  V30 12064 H 1112.78 -4.6973 -1.20744 0
M  V30 12065 H 1108.66 -4.03097 -2.23682 0
M  V30 12066 H 1112.2 -6.96361 -0.415548 0
M  V30 12067 H 1108.1 -6.28998 -1.45024 0
M  V30 12068 H 1108.87 -8.16575 -0.561079 0
M  V30 12069 N 1111.53 0.65634 -1.43283 0
M  V30 12070 C 1112.48 1.76934 -1.48199 0
M  V30 12071 C 1113.45 1.62748 -0.332023 0
M  V30 12072 O 1114.63 1.83036 -0.538735 0
M  V30 12073 C 1111.77 3.15072 -1.40797 0
M  V30 12074 C 1110.89 3.40414 -2.65974 0
M  V30 12075 C 1110.02 4.68383 -2.50582 0
M  V30 12076 C 1109.06 4.8682 -3.71043 0
M  V30 12077 N 1108.2 6.06043 -3.5448 0
M  V30 12078 H 1113.04 1.72067 -2.43304 0
M  V30 12079 H 1110.57 0.839728 -1.20777 0
M  V30 12080 H 1112.53 3.94925 -1.345 0
M  V30 12081 H 1111.16 3.19017 -0.492754 0
M  V30 12082 H 1110.21 2.54681 -2.82563 0
M  V30 12083 H 1111.53 3.49925 -3.55463 0
M  V30 12084 H 1110.68 5.56357 -2.41975 0
M  V30 12085 H 1109.42 4.61187 -1.58612 0
M  V30 12086 H 1108.42 3.97282 -3.80062 0
M  V30 12087 H 1109.65 4.95847 -4.64017 0
M  V30 12088 H 1107.6 5.99985 -2.65242 0
M  V30 12089 H 1107.51 6.16498 -4.37568 0
M  V30 12090 H 1108.78 6.96647 -3.49719 0
M  V30 12091 N 1113.01 1.29761 0.894412 0
M  V30 12092 C 1114.25 1.19313 1.65963 0
M  V30 12093 C 1114.61 -0.25022 1.90363 0
M  V30 12094 O 1115.81 -0.477779 2.6452 0
M  V30 12095 C 1114.09 1.98934 2.96917 0
M  V30 12096 S 1115.64 2.05079 3.87928 0
M  V30 12097 H 1112.46 0.42535 0.569735 0
M  V30 12098 H 1115.06 1.64116 1.06236 0
M  V30 12099 H 1113.77 3.02932 2.76876 0
M  V30 12100 H 1113.3 1.54756 3.61682 0
M  V30 12101 H 1115.31 1.17131 4.82177 0
M  V30 12102 N 1114.49 -1.10549 1.12324 0
M  V30 12103 C 1115.43 -2.16858 0.790024 0
M  V30 12104 C 1116.4 -1.64317 -0.242694 0
M  V30 12105 O 1117.59 -1.90438 -0.117531 0
M  V30 12106 C 1114.73 -3.44197 0.249503 0
M  V30 12107 C 1113.84 -4.10696 1.33989 0
M  V30 12108 C 1112.98 -5.25751 0.758932 0
M  V30 12109 C 1112.02 -5.8415 1.82853 0
M  V30 12110 N 1111.15 -6.90585 1.26637 0
M  V30 12111 H 1115.99 -2.44705 1.7007 0
M  V30 12112 H 1113.53 -1.20117 0.849141 0
M  V30 12113 H 1115.49 -4.1712 -0.0819251 0
M  V30 12114 H 1114.12 -3.16705 -0.624332 0
M  V30 12115 H 1113.17 -3.35754 1.78812 0
M  V30 12116 H 1114.48 -4.50144 2.14875 0
M  V30 12117 H 1113.64 -6.05521 0.378104 0
M  V30 12118 H 1112.38 -4.87632 -0.0811405 0
M  V30 12119 H 1111.38 -5.03051 2.21856 0
M  V30 12120 H 1112.61 -6.24333 2.6718 0
M  V30 12121 H 1110.55 -6.54468 0.448105 0
M  V30 12122 H 1110.47 -7.28739 2.01184 0
M  V30 12123 H 1111.74 -7.74138 0.912737 0
M  V30 12124 N 1115.97 -0.914965 -1.28321 0
M  V30 12125 C 1117.21 -0.549562 -1.95212 0
M  V30 12126 C 1117.54 0.904658 -1.71842 0
M  V30 12127 O 1116.82 1.64354 -1.04009 0
M  V30 12128 C 1117.1 -0.860927 -3.49657 0
M  V30 12129 C 1116.96 -2.36797 -3.82423 0
M  V30 12130 C 1118.27 -0.357926 -4.38642 0
M  V30 12131 H 1115.39 -0.201136 -0.709023 0
M  V30 12132 H 1118.04 -1.14443 -1.51667 0
M  V30 12133 H 1116.19 -0.354665 -3.86878 0
M  V30 12134 H 1117.86 -2.94494 -3.55065 0
M  V30 12135 H 1116.1 -2.82245 -3.29424 0
M  V30 12136 H 1116.77 -2.53637 -4.90278 0
M  V30 12137 H 1119.25 -0.791636 -4.085 0
M  V30 12138 H 1118.12 -0.604855 -5.45557 0
M  V30 12139 H 1118.38 0.741775 -4.35833 0
M  V30 12140 N 1117.44 1.42219 -0.679077 0
M  V30 12141 C 1118.67 2.06333 -0.210097 0
M  V30 12142 C 1119.09 1.50703 1.12562 0
M  V30 12143 O 1118.45 0.627241 1.70104 0
M  V30 12144 C 1118.5 3.60243 -0.160322 0
M  V30 12145 O 1117.6 4.03122 0.869872 0
M  V30 12146 H 1116.94 0.655362 -0.106754 0
M  V30 12147 H 1119.47 1.82278 -0.929294 0
M  V30 12148 H 1119.48 4.07997 0.014384 0
M  V30 12149 H 1118.16 4.00106 -1.13526 0
M  V30 12150 H 1116.74 3.66907 0.66586 0
M  V30 12151 N 1118.92 0.422693 1.51826 0
M  V30 12152 C 1119.87 -0.41063 2.28947 0
M  V30 12153 C 1120.86 -1.03389 1.34191 0
M  V30 12154 O 1122.07 -0.970533 1.51594 0
M  V30 12155 H 1118.44 -0.151219 0.736639 0
M  V30 12156 H 1120.42 0.260859 2.97258 0
M  V30 12157 C 1119.16 -1.50758 3.13317 0
M  V30 12158 H 1118.49 -1.03734 3.86108 0
M  V30 12159 H 1119.93 -2.0642 3.7036 0
M  V30 12160 C 1118.39 -2.48261 2.27746 0
M  V30 12161 O 1118.92 -3.52462 1.92701 0
M  V30 12162 N 1117.12 -2.18795 1.91251 0
M  V30 12163 H 1116.67 -1.34088 2.1995 0
M  V30 12164 H 1116.63 -2.84276 1.34293 0
M  V30 12165 N 1120.4 -1.5685 0.153553 0
M  V30 12166 C 1121.35 -2.1709 -0.783626 0
M  V30 12167 C 1122.32 -1.10567 -1.23952 0
M  V30 12168 O 1123.5 -1.38638 -1.31088 0
M  V30 12169 C 1120.64 -2.80183 -2.01473 0
M  V30 12170 C 1119.75 -4.01117 -1.60403 0
M  V30 12171 C 1118.89 -4.5219 -2.78743 0
M  V30 12172 C 1117.93 -5.65574 -2.34079 0
M  V30 12173 N 1117.07 -6.11235 -3.4545 0
M  V30 12174 H 1121.91 -2.96836 -0.263127 0
M  V30 12175 H 1119.44 -1.46625 -0.11816 0
M  V30 12176 H 1121.4 -3.14912 -2.73654 0
M  V30 12177 H 1120.03 -2.03071 -2.50923 0
M  V30 12178 H 1119.08 -3.72325 -0.779631 0
M  V30 12179 H 1120.39 -4.83243 -1.23605 0
M  V30 12180 H 1119.55 -4.89008 -3.59105 0
M  V30 12181 H 1118.29 -3.69085 -3.18791 0
M  V30 12182 H 1117.29 -5.28326 -1.52158 0
M  V30 12183 H 1118.52 -6.50468 -1.95109 0
M  V30 12184 H 1116.46 -5.31064 -3.85106 0
M  V30 12185 H 1116.38 -6.88304 -3.12687 0
M  V30 12186 H 1117.65 -6.527 -4.26149 0
M  V30 12187 N 1121.88 0.120221 -1.57141 0
M  V30 12188 C 1122.84 1.13159 -1.99318 0
M  V30 12189 C 1123.84 1.34376 -0.883158 0
M  V30 12190 O 1125.03 1.30914 -1.14922 0
M  V30 12191 C 1122.16 2.48632 -2.33227 0
M  V30 12192 H 1123.36 0.769119 -2.8987 0
M  V30 12193 H 1120.91 0.364475 -1.51991 0
M  V30 12194 H 1121.64 2.89802 -1.45551 0
M  V30 12195 H 1121.43 2.34587 -3.14184 0
M  V30 12196 H 1122.92 3.21423 -2.66603 0
M  V30 12197 N 1123.36 1.52689 0.390367 0
M  V30 12198 C 1124.29 1.80338 1.48325 0
M  V30 12199 C 1125.27 0.655338 1.56969 0
M  V30 12200 O 1126.45 0.902792 1.7194 0
M  V30 12201 C 1123.58 1.97101 2.85952 0
M  V30 12202 C 1122.54 3.12783 2.92148 0
M  V30 12203 C 1121.86 3.14798 4.32211 0
M  V30 12204 C 1123.16 4.5188 2.61919 0
M  V30 12205 H 1124.86 2.71857 1.25437 0
M  V30 12206 H 1122.4 1.30813 0.601995 0
M  V30 12207 H 1124.36 2.15027 3.62411 0
M  V30 12208 H 1123.08 1.02271 3.10174 0
M  V30 12209 H 1121.74 2.94638 2.18137 0
M  V30 12210 H 1121.39 2.17653 4.53471 0
M  V30 12211 H 1121.09 3.92507 4.37278 0
M  V30 12212 H 1122.61 3.34877 5.10578 0
M  V30 12213 H 1124.02 4.70134 3.28096 0
M  V30 12214 H 1122.42 5.31647 2.78337 0
M  V30 12215 H 1123.49 4.58689 1.57266 0
M  V30 12216 N 1124.83 -0.648732 1.43629 0
M  V30 12217 C 1126.25 -1.23001 1.40455 0
M  V30 12218 C 1126.6 -1.95886 0.110897 0
M  V30 12219 O 1125.72 -2.01485 -0.789487 0
M  V30 12220 C 1126.32 -2.23716 2.54434 0
M  V30 12221 C 1124.88 -2.77311 2.54511 0
M  V30 12222 C 1124.02 -1.52024 2.31914 0
M  V30 12223 H 1126.97 -0.440473 1.52465 0
M  V30 12224 H 1126.99 -3.05979 2.26179 0
M  V30 12225 H 1126.51 -1.7064 3.48574 0
M  V30 12226 H 1124.61 -3.34437 1.64263 0
M  V30 12227 H 1124.72 -3.2455 3.52426 0
M  V30 12228 H 1123.08 -1.79531 1.80667 0
M  V30 12229 H 1123.87 -1.00876 3.28145 0
M  V30 12230 N 1126.31 -1.30234 -0.887518 0
M  V30 12231 C 1127.28 -1.16384 -1.97452 0
M  V30 12232 C 1128.28 -0.0957942 -1.60514 0
M  V30 12233 O 1129.47 -0.343706 -1.70776 0
M  V30 12234 C 1126.6 -0.782514 -3.31797 0
M  V30 12235 H 1127.79 -2.12952 -2.11167 0
M  V30 12236 H 1125.34 -1.13594 -1.07359 0
M  V30 12237 H 1126.08 0.18278 -3.23785 0
M  V30 12238 H 1125.86 -1.55434 -3.59976 0
M  V30 12239 H 1127.35 -0.709011 -4.11537 0
M  V30 12240 N 1127.79 1.09952 -1.12909 0
M  V30 12241 C 1129.2 1.63516 -0.901087 0
M  V30 12242 C 1129.55 1.87932 0.563547 0
M  V30 12243 O 1128.68 1.625 1.42908 0
M  V30 12244 C 1129.27 2.97054 -1.62924 0
M  V30 12245 C 1127.83 3.47464 -1.44725 0
M  V30 12246 C 1126.98 2.21979 -1.66194 0
M  V30 12247 H 1129.93 0.933858 -1.28315 0
M  V30 12248 H 1129.95 3.64757 -1.08318 0
M  V30 12249 H 1129.46 2.79251 -2.69519 0
M  V30 12250 H 1127.56 3.70402 -0.40409 0
M  V30 12251 H 1127.68 4.25254 -2.20671 0
M  V30 12252 H 1126.04 2.30368 -1.0864 0
M  V30 12253 H 1126.82 2.06702 -2.74097 0
M  V30 12254 N 1129.27 0.921757 1.27833 0
M  V30 12255 C 1130.52 0.55493 1.93916 0
M  V30 12256 C 1130.83 -0.907191 1.7329 0
M  V30 12257 O 1132.04 -1.38253 2.33663 0
M  V30 12258 C 1130.49 0.941644 3.47363 0
M  V30 12259 C 1130.1 2.42404 3.76755 0
M  V30 12260 C 1131.84 0.645785 4.19559 0
M  V30 12261 C 1129.75 2.75046 5.23549 0
M  V30 12262 H 1128.68 0.203818 0.72593 0
M  V30 12263 H 1131.33 1.12176 1.4522 0
M  V30 12264 H 1129.71 0.303519 3.94835 0
M  V30 12265 H 1130.89 3.10957 3.40062 0
M  V30 12266 H 1129.2 2.69118 3.17749 0
M  V30 12267 H 1131.8 0.866237 5.27637 0
M  V30 12268 H 1132.14 -0.41676 4.14209 0
M  V30 12269 H 1132.68 1.24274 3.7789 0
M  V30 12270 H 1129.42 3.80186 5.33984 0
M  V30 12271 H 1128.94 2.11138 5.6141 0
M  V30 12272 H 1130.61 2.62474 5.91368 0
M  V30 12273 N 1130.75 -1.41857 0.686609 0
M  V30 12274 C 1131.66 -2.34595 0.0159005 0
M  V30 12275 C 1132.67 -1.55741 -0.775933 0
M  V30 12276 O 1133.85 -1.8826 -0.71555 0
M  V30 12277 C 1130.91 -3.34395 -0.915473 0
M  V30 12278 C 1129.97 -4.29141 -0.116851 0
M  V30 12279 C 1129.21 -5.24174 -1.00386 0
M  V30 12280 O 1129.43 -5.24431 -2.2434 0
M  V30 12281 O 1128.36 -6.00152 -0.458337 0
M  V30 12282 H 1132.19 -2.9351 0.780101 0
M  V30 12283 H 1129.78 -1.42559 0.446896 0
M  V30 12284 H 1131.66 -3.95675 -1.44981 0
M  V30 12285 H 1130.33 -2.77936 -1.65932 0
M  V30 12286 H 1129.24 -3.71238 0.461871 0
M  V30 12287 H 1130.57 -4.88673 0.588138 0
M  V30 12288 N 1132.22 -0.430739 -1.51599 0
M  V30 12289 C 1133.17 0.384024 -2.27583 0
M  V30 12290 C 1134.14 1.02254 -1.30895 0
M  V30 12291 O 1135.33 1.0427 -1.59789 0
M  V30 12292 C 1132.47 1.48291 -3.11615 0
M  V30 12293 C 1131.58 0.863187 -4.23288 0
M  V30 12294 C 1130.71 1.93657 -4.94642 0
M  V30 12295 C 1129.75 1.29493 -5.98246 0
M  V30 12296 N 1128.89 2.30939 -6.63032 0
M  V30 12297 H 1133.73 -0.270314 -2.96771 0
M  V30 12298 H 1131.27 -0.145148 -1.46382 0
M  V30 12299 H 1133.23 2.13124 -3.58656 0
M  V30 12300 H 1131.86 2.10697 -2.44554 0
M  V30 12301 H 1130.91 0.103326 -3.8026 0
M  V30 12302 H 1132.22 0.354676 -4.97537 0
M  V30 12303 H 1131.37 2.66167 -5.45197 0
M  V30 12304 H 1130.11 2.4788 -4.20008 0
M  V30 12305 H 1129.12 0.555262 -5.46989 0
M  V30 12306 H 1130.34 0.760122 -6.74833 0
M  V30 12307 H 1128.29 2.84254 -5.91216 0
M  V30 12308 H 1128.21 1.84961 -7.33025 0
M  V30 12309 H 1129.47 3.02953 -7.1822 0
M  V30 12310 N 1133.7 1.56767 -0.161869 0
M  V30 12311 C 1134.93 2.00964 0.492027 0
M  V30 12312 C 1135.35 1.04206 1.57437 0
M  V30 12313 O 1134.7 0.0413998 1.82453 0
M  V30 12314 C 1134.75 3.4502 1.07904 0
M  V30 12315 O 1134.47 4.38082 0.0399085 0
M  V30 12316 C 1135.98 4.04572 1.81209 0
M  V30 12317 H 1133.2 0.658911 0.126797 0
M  V30 12318 H 1135.74 2.0283 -0.260824 0
M  V30 12319 H 1133.89 3.43959 1.78243 0
M  V30 12320 H 1134.31 5.22372 0.471985 0
M  V30 12321 H 1135.78 5.07321 2.17554 0
M  V30 12322 H 1136.26 3.46126 2.70359 0
M  V30 12323 H 1136.87 4.09307 1.15534 0
M  V30 12324 N 1135.18 -0.111886 1.57202 0
M  V30 12325 C 1136.43 -0.817022 1.84412 0
M  V30 12326 C 1136.74 -1.80708 0.748608 0
M  V30 12327 O 1137.95 -2.55891 0.907319 0
M  V30 12328 C 1136.4 -1.50376 3.26979 0
M  V30 12329 C 1136.01 -0.554334 4.44557 0
M  V30 12330 C 1137.76 -2.19361 3.63429 0
M  V30 12331 C 1135.66 -1.24471 5.78153 0
M  V30 12332 H 1134.59 -0.308864 0.687836 0
M  V30 12333 H 1137.24 -0.0698109 1.83367 0
M  V30 12334 H 1135.63 -2.29785 3.22514 0
M  V30 12335 H 1136.8 0.207045 4.60335 0
M  V30 12336 H 1135.12 0.0289261 4.1639 0
M  V30 12337 H 1137.71 -2.71716 4.60515 0
M  V30 12338 H 1138.06 -2.97488 2.91215 0
M  V30 12339 H 1138.59 -1.46833 3.69709 0
M  V30 12340 H 1135.33 -0.504584 6.53555 0
M  V30 12341 H 1134.85 -1.97792 5.66249 0
M  V30 12342 H 1136.53 -1.77591 6.2215 0
M  V30 12343 N 1136.66 -1.52894 -0.382264 0
M  V30 12344 C 1137.88 -1.72453 -1.15216 0
M  V30 12345 C 1138.31 -0.444925 -1.82762 0
M  V30 12346 O 1137.67 0.599825 -1.7109 0
M  V30 12347 C 1137.71 -2.87939 -2.17079 0
M  V30 12348 O 1136.82 -2.55383 -3.23811 0
M  V30 12349 H 1136.16 -0.57324 -0.335099 0
M  V30 12350 H 1138.69 -1.99713 -0.444495 0
M  V30 12351 H 1138.7 -3.13628 -2.60963 0
M  V30 12352 H 1137.37 -3.80765 -1.67305 0
M  V30 12353 H 1135.95 -2.40457 -2.85018 0
M  V30 12354 N 1138.14 0.641106 -1.43971 0
M  V30 12355 C 1139.08 1.75352 -1.50068 0
M  V30 12356 C 1140.05 1.62386 -0.349266 0
M  V30 12357 O 1141.24 1.82455 -0.558118 0
M  V30 12358 C 1138.38 3.13561 -1.4413 0
M  V30 12359 C 1137.49 3.37574 -2.6957 0
M  V30 12360 C 1136.63 4.65698 -2.55535 0
M  V30 12361 C 1135.67 4.82857 -3.76186 0
M  V30 12362 N 1134.8 6.02249 -3.60888 0
M  V30 12363 H 1139.64 1.69477 -2.45116 0
M  V30 12364 H 1137.18 0.826871 -1.2166 0
M  V30 12365 H 1139.14 3.93476 -1.38681 0
M  V30 12366 H 1137.77 3.18476 -0.526563 0
M  V30 12367 H 1136.82 2.5167 -2.85248 0
M  V30 12368 H 1138.13 3.46135 -3.59154 0
M  V30 12369 H 1137.29 5.53759 -2.47862 0
M  V30 12370 H 1136.03 4.59479 -1.63495 0
M  V30 12371 H 1135.03 3.93229 -3.84254 0
M  V30 12372 H 1136.26 4.90898 -4.6925 0
M  V30 12373 H 1134.2 5.97138 -2.71591 0
M  V30 12374 H 1134.12 6.11822 -4.44083 0
M  V30 12375 H 1135.39 6.92898 -3.57088 0
M  V30 12376 N 1139.62 1.30703 0.880598 0
M  V30 12377 C 1140.58 1.17429 1.96832 0
M  V30 12378 C 1141.58 0.104305 1.60461 0
M  V30 12379 O 1142.77 0.352758 1.70591 0
M  V30 12380 C 1139.9 0.800099 3.31378 0
M  V30 12381 H 1141.09 2.14069 2.10034 0
M  V30 12382 H 1138.65 1.14162 1.06755 0
M  V30 12383 H 1139.38 -0.165606 3.23877 0
M  V30 12384 H 1139.17 1.57341 3.59146 0
M  V30 12385 H 1140.66 0.730826 4.11155 0
M  V30 12386 N 1141.09 -1.09351 1.1349 0
M  V30 12387 C 1142.04 -2.16008 0.812981 0
M  V30 12388 C 1143.01 -1.64566 -0.225252 0
M  V30 12389 O 1144.2 -1.90552 -0.0973261 0
M  V30 12390 C 1141.34 -3.43913 0.285996 0
M  V30 12391 C 1140.45 -4.09251 1.38338 0
M  V30 12392 C 1139.58 -5.24916 0.814652 0
M  V30 12393 C 1138.62 -5.82178 1.89038 0
M  V30 12394 N 1137.76 -6.89203 1.33955 0
M  V30 12395 H 1142.6 -2.42887 1.72655 0
M  V30 12396 H 1140.14 -1.19209 0.861833 0
M  V30 12397 H 1142.09 -4.17183 -0.0376794 0
M  V30 12398 H 1140.72 -3.17349 -0.590707 0
M  V30 12399 H 1139.78 -3.33838 1.82363 0
M  V30 12400 H 1141.09 -4.4784 2.19638 0
M  V30 12401 H 1140.24 -6.05086 0.442306 0
M  V30 12402 H 1138.98 -4.87691 -0.029416 0
M  V30 12403 H 1137.99 -5.00669 2.27179 0
M  V30 12404 H 1139.21 -6.21464 2.73787 0
M  V30 12405 H 1137.16 -6.53956 0.517494 0
M  V30 12406 H 1137.07 -7.26565 2.08902 0
M  V30 12407 H 1138.34 -7.73126 0.994793 0
M  V30 12408 N 1142.57 -0.928524 -1.27343 0
M  V30 12409 C 1143.82 -0.568267 -1.93946 0
M  V30 12410 C 1144.14 0.893501 -1.73325 0
M  V30 12411 O 1143.41 1.63344 -1.08147 0
M  V30 12412 H 1141.99 -0.207173 -0.717696 0
M  V30 12413 H 1144.65 -1.1811 -1.55036 0
M  V30 12414 H 1143.75 -0.775246 -3.02318 0
M  V30 12415 N 1144.05 1.41491 -0.694123 0
M  V30 12416 C 1144.98 2.29197 0.0112742 0
M  V30 12417 C 1145.99 1.44708 0.745877 0
M  V30 12418 O 1147.18 1.68227 0.596821 0
M  V30 12419 C 1144.28 3.22547 1.04004 0
M  V30 12420 C 1143.46 4.35787 0.375347 0
M  V30 12421 C 1142.52 5.09722 1.30652 0
M  V30 12422 O 1141.54 5.63558 0.799459 0
M  V30 12423 N 1142.74 5.1705 2.63893 0
M  V30 12424 H 1145.51 2.90377 -0.741705 0
M  V30 12425 H 1143.07 1.52628 -0.540039 0
M  V30 12426 H 1145.06 3.68878 1.66468 0
M  V30 12427 H 1143.63 2.62685 1.69456 0
M  V30 12428 H 1142.85 3.91857 -0.429145 0
M  V30 12429 H 1144.14 5.08726 -0.0869041 0
M  V30 12430 H 1143.54 4.74756 3.07609 0
M  V30 12431 H 1142.09 5.66962 3.21555 0
M  V30 12432 N 1145.53 0.438773 1.51369 0
M  V30 12433 C 1146.94 -0.0240139 1.86685 0
M  V30 12434 C 1147.29 -1.41816 1.35583 0
M  V30 12435 O 1146.41 -2.04517 0.707232 0
M  V30 12436 C 1147.01 -0.0503527 3.38763 0
M  V30 12437 C 1145.57 -0.457556 3.73609 0
M  V30 12438 C 1144.72 0.348852 2.75097 0
M  V30 12439 H 1147.67 0.654552 1.44573 0
M  V30 12440 H 1147.69 -0.859534 3.70665 0
M  V30 12441 H 1147.2 0.964451 3.75925 0
M  V30 12442 H 1145.3 -1.47791 3.42036 0
M  V30 12443 H 1145.41 -0.181357 4.78757 0
M  V30 12444 H 1143.78 -0.193037 2.53967 0
M  V30 12445 H 1144.56 1.36256 3.15102 0
M  V30 12446 N 1147.01 -1.56678 0.170181 0
M  V30 12447 C 1148.42 -1.58512 -0.185999 0
M  V30 12448 C 1148.62 -1.18548 -1.62937 0
M  V30 12449 O 1147.68 -0.896554 -2.36047 0
M  V30 12450 C 1148.99 -3.00554 0.0937842 0
M  V30 12451 C 1150.54 -3.12984 0.0319057 0
M  V30 12452 C 1151.01 -4.57115 0.284664 0
M  V30 12453 N 1152.5 -4.62617 0.2324 0
M  V30 12454 C 1153.24 -5.71988 0.40216 0
M  V30 12455 N 1152.74 -6.89921 0.630915 0
M  V30 12456 N 1154.53 -5.61082 0.338144 0
M  V30 12457 H 1146.68 -1.80944 1.11235 0
M  V30 12458 H 1148.94 -0.838586 0.442128 0
M  V30 12459 H 1148.65 -3.34265 1.09362 0
M  V30 12460 H 1148.52 -3.72151 -0.615118 0
M  V30 12461 H 1150.91 -2.791 -0.958502 0
M  V30 12462 H 1150.99 -2.43825 0.773501 0
M  V30 12463 H 1150.63 -4.91707 1.27227 0
M  V30 12464 H 1150.56 -5.2443 -0.477529 0
M  V30 12465 H 1153.06 -3.7785 0.0611933 0
M  V30 12466 H 1153.37 -7.69153 0.749931 0
M  V30 12467 H 1151.71 -6.91787 0.667516 0
M  V30 12468 H 1154.9 -4.67826 0.16003 0
M  V30 12469 H 1155.08 -6.46265 0.473872 0
M  V30 12470 N 1148.48 0.103547 -1.57259 0
M  V30 12471 C 1149.39 1.14475 -2.04774 0
M  V30 12472 C 1150.41 1.44385 -0.971025 0
M  V30 12473 O 1151.59 1.55195 -1.28361 0
M  V30 12474 C 1148.65 2.4475 -2.45558 0
M  V30 12475 C 1147.71 2.22098 -3.67384 0
M  V30 12476 C 1146.94 3.4616 -4.06213 0
M  V30 12477 O 1147.17 4.5407 -3.45219 0
M  V30 12478 O 1146.1 3.36248 -4.9922 0
M  V30 12479 H 1149.93 0.771211 -2.93745 0
M  V30 12480 H 1147.51 0.315456 -1.46032 0
M  V30 12481 H 1149.39 3.21476 -2.72454 0
M  V30 12482 H 1148.07 2.81547 -1.59728 0
M  V30 12483 H 1146.98 1.43179 -3.45616 0
M  V30 12484 H 1148.31 1.90197 -4.53967 0
M  V30 12485 N 1149.96 1.53094 0.37415 0
M  V30 12486 C 1151.37 1.60641 0.951381 0
M  V30 12487 C 1151.72 0.468474 1.90525 0
M  V30 12488 O 1150.85 -0.406347 2.12551 0
M  V30 12489 C 1151.44 2.91166 1.73228 0
M  V30 12490 C 1150 3.01077 2.25898 0
M  V30 12491 C 1149.15 2.55873 1.06885 0
M  V30 12492 H 1152.1 1.57959 0.153214 0
M  V30 12493 H 1152.12 2.78487 2.59278 0
M  V30 12494 H 1151.63 3.73968 1.03778 0
M  V30 12495 H 1149.73 2.22844 2.98615 0
M  V30 12496 H 1149.85 4.05998 2.54367 0
M  V30 12497 H 1148.21 2.10544 1.43329 0
M  V30 12498 H 1148.99 3.41084 0.38947 0
M  V30 12499 N 1151.44 -0.633461 1.44309 0
M  V30 12500 C 1152.37 -1.75868 1.4698 0
M  V30 12501 C 1153.38 -1.58691 0.363469 0
M  V30 12502 O 1154.57 -1.67048 0.629075 0
M  V30 12503 C 1151.67 -3.1356 1.28582 0
M  V30 12504 C 1150.85 -3.57217 2.52418 0
M  V30 12505 C 1149.91 -4.73779 2.28954 0
M  V30 12506 O 1148.93 -4.8221 3.02428 0
M  V30 12507 N 1150.13 -5.65324 1.31866 0
M  V30 12508 H 1152.9 -1.74048 2.43983 0
M  V30 12509 H 1150.46 -0.817952 1.39718 0
M  V30 12510 H 1152.45 -3.89255 1.10736 0
M  V30 12511 H 1151.02 -3.10036 0.399529 0
M  V30 12512 H 1150.24 -2.71755 2.85557 0
M  V30 12513 H 1151.53 -3.83136 3.3479 0
M  V30 12514 H 1150.93 -5.61204 0.71179 0
M  V30 12515 H 1149.48 -6.40659 1.19998 0
M  V30 12516 N 1152.92 -1.31168 -0.873655 0
M  V30 12517 C 1154.16 -1.20821 -1.62881 0
M  V30 12518 C 1154.5 0.233994 -1.92785 0
M  V30 12519 O 1153.77 1.16588 -1.55684 0
M  V30 12520 C 1154.06 -2.04875 -2.96139 0
M  V30 12521 C 1153.91 -3.57375 -2.73136 0
M  V30 12522 C 1155.23 -1.8953 -3.97198 0
M  V30 12523 H 1152.35 -0.44026 -0.59105 0
M  V30 12524 H 1154.99 -1.6092 -1.01019 0
M  V30 12525 H 1153.14 -1.70806 -3.48938 0
M  V30 12526 H 1154.81 -4.01561 -2.27038 0
M  V30 12527 H 1153.05 -3.8099 -2.07434 0
M  V30 12528 H 1153.72 -4.1149 -3.6794 0
M  V30 12529 H 1156.2 -2.19337 -3.53596 0
M  V30 12530 H 1155.08 -2.5065 -4.8833 0
M  V30 12531 H 1155.34 -0.857576 -4.33703 0
M  V30 12532 N 1154.4 1.08748 -1.14068 0
M  V30 12533 C 1155.63 1.84546 -0.928789 0
M  V30 12534 C 1156.03 1.81741 0.526007 0
M  V30 12535 O 1155.38 1.2169 1.37613 0
M  V30 12536 C 1155.44 3.33282 -1.34771 0
M  V30 12537 C 1155.1 3.59826 -2.81734 0
M  V30 12538 C 1156.1 3.54964 -3.79864 0
M  V30 12539 C 1153.79 3.87949 -3.19063 0
M  V30 12540 C 1155.78 3.77847 -5.13332 0
M  V30 12541 C 1153.47 4.10487 -4.52707 0
M  V30 12542 C 1154.46 4.05429 -5.49651 0
M  V30 12543 O 1154.15 4.27378 -6.80884 0
M  V30 12544 H 1153.88 0.589555 -0.330758 0
M  V30 12545 H 1156.44 1.38275 -1.51886 0
M  V30 12546 H 1154.67 3.80294 -0.700948 0
M  V30 12547 H 1156.36 3.90508 -1.10718 0
M  V30 12548 H 1157.12 3.33256 -3.52371 0
M  V30 12549 H 1153 3.91007 -2.44201 0
M  V30 12550 H 1156.55 3.73815 -5.88989 0
M  V30 12551 H 1152.44 4.31677 -4.79922 0
M  V30 12552 H 1153.21 4.44802 -6.8709 0
M  V30 12553 N 1155.87 0.935264 1.26849 0
M  V30 12554 C 1157.1 0.596249 1.98122 0
M  V30 12555 C 1157.52 -0.827452 1.69702 0
M  V30 12556 O 1156.87 -1.55095 0.961864 0
M  V30 12557 C 1156.93 0.821773 3.52036 0
M  V30 12558 O 1156.65 2.18947 3.79465 0
M  V30 12559 C 1158.15 0.492498 4.40556 0
M  V30 12560 H 1155.37 0.225242 0.632066 0
M  V30 12561 H 1157.91 1.25435 1.61512 0
M  V30 12562 H 1156.07 0.210363 3.86828 0
M  V30 12563 H 1156.48 2.24509 4.74021 0
M  V30 12564 H 1157.95 0.700953 5.47531 0
M  V30 12565 H 1158.43 -0.57228 4.35456 0
M  V30 12566 H 1159.04 1.08238 4.11296 0
M  V30 12567 N 1157.35 -1.41121 0.701616 0
M  V30 12568 C 1158.28 -2.33436 0.0545974 0
M  V30 12569 C 1159.26 -1.52144 -0.760662 0
M  V30 12570 O 1160.45 -1.80661 -0.712414 0
M  V30 12571 C 1157.58 -3.36015 -0.878117 0
M  V30 12572 C 1156.53 -4.27664 -0.169511 0
M  V30 12573 C 1155.86 -5.20666 -1.21699 0
M  V30 12574 C 1157.16 -5.13254 0.967859 0
M  V30 12575 H 1158.85 -2.87791 0.825637 0
M  V30 12576 H 1156.4 -1.38377 0.398484 0
M  V30 12577 H 1158.35 -3.99526 -1.34004 0
M  V30 12578 H 1157.08 -2.80024 -1.68089 0
M  V30 12579 H 1155.73 -3.65586 0.272441 0
M  V30 12580 H 1155.38 -4.60987 -2.01246 0
M  V30 12581 H 1155.08 -5.82822 -0.747836 0
M  V30 12582 H 1156.61 -5.87053 -1.6793 0
M  V30 12583 H 1158.02 -5.70298 0.585944 0
M  V30 12584 H 1156.42 -5.84381 1.3645 0
M  V30 12585 H 1157.49 -4.5006 1.80483 0
M  V30 12586 N 1158.83 -0.446794 -1.51134 0
M  V30 12587 C 1160.24 0.0141132 -1.86695 0
M  V30 12588 C 1160.59 1.41095 -1.36333 0
M  V30 12589 O 1159.72 2.04139 -0.718068 0
M  V30 12590 C 1160.31 0.0323866 -3.38785 0
M  V30 12591 C 1158.87 0.437737 -3.73846 0
M  V30 12592 C 1158.02 -0.363436 -2.74908 0
M  V30 12593 H 1160.97 -0.66221 -1.44224 0
M  V30 12594 H 1160.99 0.839865 -3.71115 0
M  V30 12595 H 1160.5 -0.984374 -3.75409 0
M  V30 12596 H 1158.6 1.45975 -3.42815 0
M  V30 12597 H 1158.72 0.155964 -4.78846 0
M  V30 12598 H 1157.08 0.179566 -2.54066 0
M  V30 12599 H 1157.86 -1.37925 -3.14375 0
M  V30 12600 N 1160.31 1.56586 -0.178487 0
M  V30 12601 C 1161.72 1.83633 0.337009 0
M  V30 12602 C 1162.07 1.09857 1.6256 0
M  V30 12603 O 1161.2 0.353933 2.13486 0
M  V30 12604 C 1161.79 3.33112 0.618225 0
M  V30 12605 C 1160.35 3.60629 1.07814 0
M  V30 12606 C 1159.5 2.7705 0.117825 0
M  V30 12607 H 1162.45 1.53508 -0.402612 0
M  V30 12608 H 1162.47 3.5098 1.46947 0
M  V30 12609 H 1161.98 3.8678 -0.319808 0
M  V30 12610 H 1160.08 3.12378 2.03103 0
M  V30 12611 H 1160.19 4.68921 0.982339 0
M  V30 12612 H 1158.56 2.47125 0.616563 0
M  V30 12613 H 1159.34 3.33501 -0.814356 0
M  V30 12614 N 1161.79 -0.095206 1.57312 0
M  V30 12615 C 1163.01 -0.81614 1.90667 0
M  V30 12616 C 1163.44 -1.71494 0.772746 0
M  V30 12617 O 1162.79 -1.79192 -0.275682 0
M  V30 12618 C 1162.84 -1.60555 3.22885 0
M  V30 12619 O 1161.95 -2.71448 3.10467 0
M  V30 12620 H 1161.29 -0.224217 0.624998 0
M  V30 12621 H 1163.82 -0.070464 2.04479 0
M  V30 12622 H 1163.83 -1.98979 3.5619 0
M  V30 12623 H 1162.5 -0.945918 4.05 0
M  V30 12624 H 1161.08 -2.36053 2.88675 0
M  V30 12625 N 1163.26 -1.53291 -0.366026 0
M  V30 12626 C 1164.68 -1.43053 -0.707669 0
M  V30 12627 C 1164.88 -0.56925 -1.93292 0
M  V30 12628 O 1163.94 -0.0515214 -2.52447 0
M  V30 12629 C 1165.25 -2.86239 -0.921292 0
M  V30 12630 C 1166.8 -2.95868 -1.02133 0
M  V30 12631 C 1167.27 -4.40114 -1.26743 0
M  V30 12632 N 1168.76 -4.43541 -1.33514 0
M  V30 12633 C 1169.5 -5.52259 -1.54264 0
M  V30 12634 N 1168.99 -6.71024 -1.72335 0
M  V30 12635 N 1170.79 -5.39836 -1.5663 0
M  V30 12636 H 1162.94 -2.07795 0.43988 0
M  V30 12637 H 1165.2 -0.938376 0.134736 0
M  V30 12638 H 1164.91 -3.51578 -0.0928042 0
M  V30 12639 H 1164.78 -3.29862 -1.82951 0
M  V30 12640 H 1167.17 -2.30683 -1.84036 0
M  V30 12641 H 1167.25 -2.5564 -0.0905097 0
M  V30 12642 H 1166.89 -5.05872 -0.453409 0
M  V30 12643 H 1166.82 -4.77914 -2.21146 0
M  V30 12644 H 1169.31 -3.57949 -1.21165 0
M  V30 12645 H 1169.63 -7.49649 -1.8774 0
M  V30 12646 H 1167.97 -6.7401 -1.69514 0
M  V30 12647 H 1171.16 -4.46017 -1.4208 0
M  V30 12648 H 1171.34 -6.24629 -1.72461 0
M  V30 12649 N 1164.74 0.6258 -1.44643 0
M  V30 12650 C 1166.02 1.38439 -1.38181 0
M  V30 12651 C 1166.4 2.11056 -0.0431928 0
M  V30 12652 O 1165.75 2.06683 0.974383 0
M  V30 12653 C 1165.96 2.34639 -2.58352 0
M  V30 12654 C 1167.31 2.97807 -3.02649 0
M  V30 12655 O 1168.33 2.44963 -2.58595 0
M  V30 12656 O 1167.19 3.93682 -3.79048 0
M  V30 12657 H 1164.28 0.619852 -0.54746 0
M  V30 12658 H 1166.83 0.650409 -1.56741 0
M  V30 12659 H 1165.6 1.80116 -3.47382 0
M  V30 12660 H 1165.22 3.15446 -2.42032 0
M  V30 12661 N 1166.22 1.31629 0.866686 0
M  V30 12662 C 1167.13 1.21524 2.00671 0
M  V30 12663 C 1168.15 0.131277 1.73504 0
M  V30 12664 O 1169.32 0.349699 1.98341 0
M  V30 12665 C 1166.39 0.926491 3.34091 0
M  V30 12666 C 1165.45 2.09769 3.7456 0
M  V30 12667 C 1164.68 1.82262 5.01614 0
M  V30 12668 O 1164.9 0.759329 5.65323 0
M  V30 12669 O 1163.84 2.68031 5.38928 0
M  V30 12670 H 1167.66 2.17335 2.1213 0
M  V30 12671 H 1165.25 1.11401 0.995499 0
M  V30 12672 H 1167.13 0.78144 4.14091 0
M  V30 12673 H 1165.81 -0.00155829 3.237 0
M  V30 12674 H 1164.71 2.29816 2.95187 0
M  V30 12675 H 1166.05 3.0081 3.89582 0
M  V30 12676 N 1167.7 -1.08142 1.14644 0
M  V30 12677 C 1168.63 -2.17139 0.858667 0
M  V30 12678 C 1169.61 -1.69064 -0.187452 0
M  V30 12679 O 1170.8 -1.94151 -0.0435458 0
M  V30 12680 C 1167.93 -3.45648 0.33834 0
M  V30 12681 C 1166.88 -4.07129 1.32021 0
M  V30 12682 C 1166.21 -5.30623 0.659075 0
M  V30 12683 C 1167.51 -4.48095 2.68343 0
M  V30 12684 H 1169.2 -2.41468 1.77012 0
M  V30 12685 H 1166.75 -1.16052 0.852523 0
M  V30 12686 H 1168.7 -4.21216 0.124611 0
M  V30 12687 H 1167.42 -3.2088 -0.608553 0
M  V30 12688 H 1166.08 -3.33596 1.52016 0
M  V30 12689 H 1165.73 -5.02142 -0.293711 0
M  V30 12690 H 1165.43 -5.72714 1.31427 0
M  V30 12691 H 1166.95 -6.08903 0.454933 0
M  V30 12692 H 1168.37 -5.14828 2.5224 0
M  V30 12693 H 1166.76 -5.01113 3.30161 0
M  V30 12694 H 1167.83 -3.59852 3.25015 0
M  V30 12695 N 1169.18 -0.941978 -1.26351 0
M  V30 12696 C 1170.41 -0.606748 -1.97803 0
M  V30 12697 C 1170.82 0.818441 -1.70138 0
M  V30 12698 O 1170.18 1.54583 -0.970076 0
M  V30 12699 C 1170.23 -0.840431 -3.51595 0
M  V30 12700 O 1169.95 -2.20957 -3.78299 0
M  V30 12701 C 1171.45 -0.515855 -4.40288 0
M  V30 12702 H 1168.67 -0.228591 -0.630862 0
M  V30 12703 H 1171.21 -1.2629 -1.60845 0
M  V30 12704 H 1169.37 -0.230875 -3.86711 0
M  V30 12705 H 1169.78 -2.2702 -4.72824 0
M  V30 12706 H 1171.26 -0.72998 -5.47152 0
M  V30 12707 H 1171.73 0.549178 -4.35753 0
M  V30 12708 H 1172.34 -1.10417 -4.10717 0
M  V30 12709 N 1170.66 1.40747 -0.709091 0
M  V30 12710 C 1171.6 2.30741 -0.0523584 0
M  V30 12711 C 1172.57 1.4784 0.757145 0
M  V30 12712 O 1173.76 1.76595 0.72242 0
M  V30 12713 C 1170.9 3.34 0.868203 0
M  V30 12714 C 1170.01 4.31972 0.0488686 0
M  V30 12715 C 1169.15 5.223 0.968311 0
M  V30 12716 C 1168.18 6.11934 0.142682 0
M  V30 12717 N 1167.32 6.947 1.01665 0
M  V30 12718 H 1172.16 2.86338 -0.825509 0
M  V30 12719 H 1169.7 1.41013 -0.418785 0
M  V30 12720 H 1171.66 3.92431 1.41611 0
M  V30 12721 H 1170.29 2.79921 1.6076 0
M  V30 12722 H 1169.34 3.75377 -0.616137 0
M  V30 12723 H 1170.65 4.95291 -0.590625 0
M  V30 12724 H 1169.8 5.85631 1.58498 0
M  V30 12725 H 1168.54 4.5924 1.64164 0
M  V30 12726 H 1167.55 5.47639 -0.486965 0
M  V30 12727 H 1168.77 6.77052 -0.527046 0
M  V30 12728 H 1166.72 6.34236 1.67575 0
M  V30 12729 H 1166.64 7.54759 0.433045 0
M  V30 12730 H 1167.9 7.62487 1.6197 0
M  V30 12731 N 1172.13 0.454803 1.50895 0
M  V30 12732 C 1173.08 -0.361974 2.29766 0
M  V30 12733 C 1174.08 -1.00519 1.36353 0
M  V30 12734 O 1175.28 -0.938159 1.53618 0
M  V30 12735 H 1171.66 -0.135559 0.739681 0
M  V30 12736 H 1173.63 0.323853 2.96637 0
M  V30 12737 C 1172.38 -1.44078 3.16444 0
M  V30 12738 H 1171.7 -0.955212 3.88221 0
M  V30 12739 H 1173.14 -1.98518 3.74655 0
M  V30 12740 C 1171.6 -2.43374 2.32961 0
M  V30 12741 O 1172.13 -3.48295 2.00133 0
M  V30 12742 N 1170.33 -2.14689 1.95849 0
M  V30 12743 H 1169.88 -1.29392 2.22745 0
M  V30 12744 H 1169.84 -2.81363 1.40292 0
M  V30 12745 N 1173.61 -1.56489 0.186789 0
M  V30 12746 C 1174.54 -2.15911 -0.769104 0
M  V30 12747 C 1175.56 -1.11872 -1.18273 0
M  V30 12748 O 1176.75 -1.38999 -1.1199 0
M  V30 12749 C 1173.85 -2.69957 -2.04882 0
M  V30 12750 C 1173.02 -3.98812 -1.79631 0
M  V30 12751 C 1172.08 -4.37767 -2.9197 0
M  V30 12752 O 1171.1 -5.0535 -2.61935 0
M  V30 12753 N 1172.31 -4.0059 -4.20128 0
M  V30 12754 H 1175.07 -2.98561 -0.261007 0
M  V30 12755 H 1172.63 -1.61899 0.00453357 0
M  V30 12756 H 1174.62 -2.93006 -2.79158 0
M  V30 12757 H 1173.19 -1.91808 -2.46837 0
M  V30 12758 H 1172.41 -3.8398 -0.891776 0
M  V30 12759 H 1173.7 -4.82939 -1.60148 0
M  V30 12760 H 1173.1 -3.46213 -4.47385 0
M  V30 12761 H 1171.66 -4.28608 -4.91059 0
M  V30 12762 N 1175.09 0.086862 -1.5736 0
M  V30 12763 C 1176.34 0.790008 -1.8678 0
M  V30 12764 C 1176.67 1.77977 -0.777042 0
M  V30 12765 O 1175.94 1.93317 0.21419 0
M  V30 12766 C 1176.23 1.51143 -3.26845 0
M  V30 12767 C 1176.08 0.539106 -4.46558 0
M  V30 12768 C 1177.4 2.46003 -3.64926 0
M  V30 12769 H 1174.52 0.285741 -0.679354 0
M  V30 12770 H 1177.16 0.0534655 -1.89925 0
M  V30 12771 H 1175.31 2.13928 -3.24295 0
M  V30 12772 H 1176.98 -0.0823679 -4.61226 0
M  V30 12773 H 1175.22 -0.146842 -4.33551 0
M  V30 12774 H 1175.9 1.0812 -5.41308 0
M  V30 12775 H 1178.37 1.93306 -3.68473 0
M  V30 12776 H 1177.25 2.93493 -4.63846 0
M  V30 12777 H 1177.51 3.30133 -2.94049 0
M  V30 12778 N 1176.57 1.53483 0.357892 0
M  V30 12779 C 1177.79 1.74264 1.12458 0
M  V30 12780 C 1178.22 0.473944 1.82031 0
M  V30 12781 O 1177.58 -0.57253 1.72023 0
M  V30 12782 C 1177.62 2.91356 2.12471 0
M  V30 12783 O 1176.73 2.60502 3.19707 0
M  V30 12784 H 1176.07 0.578499 0.325937 0
M  V30 12785 H 1178.6 2.00395 0.412666 0
M  V30 12786 H 1178.61 3.1774 2.5594 0
M  V30 12787 H 1177.28 3.83378 1.61226 0
M  V30 12788 H 1175.86 2.44961 2.81156 0
M  V30 12789 N 1178.05 -0.61812 1.44973 0
M  V30 12790 C 1178.98 -1.74035 1.55673 0
M  V30 12791 C 1179.96 -1.65112 0.4089 0
M  V30 12792 O 1181.14 -1.83673 0.630698 0
M  V30 12793 C 1178.27 -3.1261 1.51303 0
M  V30 12794 C 1177.23 -3.36334 2.64696 0
M  V30 12795 C 1176.55 -4.75072 2.45378 0
M  V30 12796 C 1177.85 -3.27618 4.06772 0
M  V30 12797 H 1179.55 -1.65336 2.49608 0
M  V30 12798 H 1177.09 -0.794003 1.20132 0
M  V30 12799 H 1179.04 -3.90906 1.57388 0
M  V30 12800 H 1177.77 -3.22123 0.538914 0
M  V30 12801 H 1176.43 -2.60423 2.58022 0
M  V30 12802 H 1176.08 -4.81306 1.46129 0
M  V30 12803 H 1175.78 -4.91903 3.21412 0
M  V30 12804 H 1177.3 -5.55582 2.53301 0
M  V30 12805 H 1178.71 -3.95802 4.14746 0
M  V30 12806 H 1177.11 -3.55981 4.83113 0
M  V30 12807 H 1178.18 -2.25219 4.29423 0
M  V30 12808 N 1179.52 -1.32087 -0.859693 0
M  V30 12809 C 1180.75 -1.25348 -1.64607 0
M  V30 12810 C 1181.17 0.179425 -1.87945 0
M  V30 12811 O 1180.52 1.11487 -1.44489 0
M  V30 12812 C 1180.57 -2.0047 -3.00822 0
M  V30 12813 O 1180.3 -3.38169 -2.7852 0
M  V30 12814 C 1181.8 -2.00694 -3.95268 0
M  V30 12815 H 1179.02 -0.432692 -0.512854 0
M  V30 12816 H 1181.56 -1.7413 -1.07234 0
M  V30 12817 H 1179.72 -1.55423 -3.54855 0
M  V30 12818 H 1180.13 -3.76553 -3.65113 0
M  V30 12819 H 1181.6 -2.57748 -4.88129 0
M  V30 12820 H 1182.08 -0.99196 -4.27851 0
M  V30 12821 H 1182.69 -2.45666 -3.47172 0
M  V30 12822 N 1181 1.07532 -1.15215 0
M  V30 12823 C 1182.24 1.81689 -0.936396 0
M  V30 12824 C 1182.61 1.84622 0.527136 0
M  V30 12825 O 1183.81 2.54632 0.861159 0
M  V30 12826 C 1182.08 3.22919 -1.53161 0
M  V30 12827 S 1183.64 4.13845 -1.4587 0
M  V30 12828 H 1180.45 0.626036 -0.337045 0
M  V30 12829 H 1183.06 1.29191 -1.4673 0
M  V30 12830 H 1181.76 3.18372 -2.58974 0
M  V30 12831 H 1181.29 3.80492 -0.999482 0
M  V30 12832 H 1183.31 4.94152 -0.450317 0
M  V30 12833 N 1182.48 0.948665 1.2585 0
M  V30 12834 C 1183.41 0.482036 2.2847 0
M  V30 12835 C 1184.39 -0.468553 1.63519 0
M  V30 12836 O 1185.58 -0.368796 1.90666 0
M  V30 12837 C 1182.71 -0.246603 3.46423 0
M  V30 12838 C 1181.66 0.61815 4.23513 0
M  V30 12839 C 1180.99 -0.240884 5.34157 0
M  V30 12840 C 1182.29 1.89327 4.86778 0
M  V30 12841 H 1183.98 1.33973 2.67753 0
M  V30 12842 H 1181.53 0.645645 1.28715 0
M  V30 12843 H 1183.48 -0.584135 4.17332 0
M  V30 12844 H 1182.2 -1.13849 3.06114 0
M  V30 12845 H 1180.86 0.938682 3.54379 0
M  V30 12846 H 1180.51 -1.13235 4.90089 0
M  V30 12847 H 1180.21 0.334367 5.86648 0
M  V30 12848 H 1181.73 -0.573517 6.07901 0
M  V30 12849 H 1183.15 1.62252 5.49861 0
M  V30 12850 H 1181.55 2.41369 5.49419 0
M  V30 12851 H 1182.62 2.60006 4.09298 0
M  V30 12852 N 1183.96 -1.40369 0.716545 0
M  V30 12853 C 1185.2 -2.01167 0.256846 0
M  V30 12854 C 1185.54 -1.56689 -1.14727 0
M  V30 12855 O 1184.81 -0.787384 -1.7785 0
M  V30 12856 C 1185.1 -3.58511 0.337963 0
M  V30 12857 C 1184.95 -4.13059 1.78052 0
M  V30 12858 C 1186.27 -4.39142 -0.290295 0
M  V30 12859 H 1183.39 -0.730877 0.0948028 0
M  V30 12860 H 1186.03 -1.66833 0.909225 0
M  V30 12861 H 1184.18 -3.87891 -0.217482 0
M  V30 12862 H 1185.85 -3.94472 2.39143 0
M  V30 12863 H 1184.09 -3.67311 2.30793 0
M  V30 12864 H 1184.76 -5.22217 1.78867 0
M  V30 12865 H 1187.24 -4.15697 0.182987 0
M  V30 12866 H 1186.12 -5.48524 -0.203097 0
M  V30 12867 H 1186.38 -4.20209 -1.37394 0
M  V30 12868 N 1185.44 -0.462799 -1.50652 0
M  V30 12869 C 1186.38 0.335664 -2.28346 0
M  V30 12870 C 1187.35 0.994541 -1.33034 0
M  V30 12871 O 1188.54 1.00857 -1.61964 0
M  V30 12872 C 1185.68 1.41648 -3.1469 0
M  V30 12873 C 1184.79 0.773207 -4.25024 0
M  V30 12874 C 1183.93 1.83121 -4.98638 0
M  V30 12875 C 1182.97 1.16774 -6.00858 0
M  V30 12876 N 1182.1 2.16823 -6.67782 0
M  V30 12877 H 1186.94 -0.333202 -2.96131 0
M  V30 12878 H 1184.48 -0.176166 -1.46041 0
M  V30 12879 H 1186.44 2.05468 -3.63096 0
M  V30 12880 H 1185.07 2.05462 -2.48968 0
M  V30 12881 H 1184.12 0.0226444 -3.80393 0
M  V30 12882 H 1185.43 0.249061 -4.98178 0
M  V30 12883 H 1184.59 2.54543 -5.5072 0
M  V30 12884 H 1183.32 2.38915 -4.25172 0
M  V30 12885 H 1182.33 0.439112 -5.48044 0
M  V30 12886 H 1183.55 0.616809 -6.76293 0
M  V30 12887 H 1181.5 2.71649 -5.97112 0
M  V30 12888 H 1181.42 1.69371 -7.36783 0
M  V30 12889 H 1182.69 2.8765 -7.24484 0
M  V30 12890 N 1186.91 1.56388 -0.195085 0
M  V30 12891 C 1188.16 1.97189 0.44281 0
M  V30 12892 C 1188.48 1.08312 1.62153 0
M  V30 12893 O 1187.75 0.154404 1.95291 0
M  V30 12894 H 1186.33 0.728188 0.166585 0
M  V30 12895 H 1189 1.92852 -0.281815 0
M  V30 12896 H 1188.09 3.02016 0.786945 0
M  V30 12897 N 1188.39 -0.0785156 1.57404 0
M  V30 12898 C 1189.64 -0.778938 1.86919 0
M  V30 12899 C 1189.97 -1.77915 0.785906 0
M  V30 12900 O 1189.22 -1.94473 -0.218811 0
M  V30 12901 C 1189.52 -1.52826 3.23078 0
M  V30 12902 C 1189.19 -0.668645 4.45915 0
M  V30 12903 C 1187.85 -0.43173 4.79259 0
M  V30 12904 C 1190.2 -0.0721327 5.2115 0
M  V30 12905 C 1187.53 0.41129 5.85257 0
M  V30 12906 C 1189.88 0.758303 6.28039 0
M  V30 12907 C 1188.55 1.00515 6.59889 0
M  V30 12908 H 1187.82 -0.285034 0.683986 0
M  V30 12909 H 1190.46 -0.039906 1.91458 0
M  V30 12910 H 1188.77 -2.33931 3.14299 0
M  V30 12911 H 1190.46 -2.07488 3.43147 0
M  V30 12912 H 1187.05 -0.863424 4.19813 0
M  V30 12913 H 1191.24 -0.242297 4.95708 0
M  V30 12914 H 1186.49 0.611354 6.08336 0
M  V30 12915 H 1190.67 1.2273 6.855 0
M  V30 12916 H 1188.3 1.66017 7.41851 0
M  V30 12917 N 1189.87 -1.5367 -0.349747 0
M  V30 12918 C 1191.1 -1.74294 -1.10928 0
M  V30 12919 C 1191.51 -0.479102 -1.83033 0
M  V30 12920 O 1190.85 0.558621 -1.75 0
M  V30 12921 C 1190.91 -2.86457 -2.17216 0
M  V30 12922 C 1190.58 -4.26274 -1.6474 0
M  V30 12923 C 1191.57 -5.08065 -1.10302 0
M  V30 12924 C 1189.26 -4.72739 -1.69774 0
M  V30 12925 C 1191.25 -6.34417 -0.615938 0
M  V30 12926 C 1188.94 -5.99066 -1.20678 0
M  V30 12927 C 1189.94 -6.79737 -0.6668 0
M  V30 12928 O 1189.63 -8.03691 -0.183143 0
M  V30 12929 H 1189.36 -0.586046 -0.336937 0
M  V30 12930 H 1191.91 -2.01274 -0.409645 0
M  V30 12931 H 1190.14 -2.54988 -2.9072 0
M  V30 12932 H 1191.83 -2.95109 -2.78686 0
M  V30 12933 H 1192.6 -4.73333 -1.05739 0
M  V30 12934 H 1188.48 -4.1001 -2.10744 0
M  V30 12935 H 1192.02 -6.97331 -0.193795 0
M  V30 12936 H 1187.92 -6.33293 -1.24939 0
M  V30 12937 H 1188.69 -8.17946 -0.301008 0
M  V30 12938 N 1191.35 0.610423 -1.45298 0
M  V30 12939 C 1192.76 1.19234 -1.43667 0
M  V30 12940 C 1193.11 1.95523 -0.162794 0
M  V30 12941 O 1192.24 2.03507 0.735789 0
M  V30 12942 C 1192.83 2.16892 -2.60276 0
M  V30 12943 C 1191.39 2.70465 -2.61774 0
M  V30 12944 C 1190.54 1.45821 -2.35863 0
M  V30 12945 H 1193.49 0.399895 -1.53579 0
M  V30 12946 H 1193.51 2.99875 -2.34212 0
M  V30 12947 H 1193.02 1.61339 -3.52975 0
M  V30 12948 H 1191.12 3.29965 -1.73072 0
M  V30 12949 H 1191.23 3.15092 -3.60907 0
M  V30 12950 H 1189.6 1.74678 -1.85364 0
M  V30 12951 H 1190.38 0.921403 -3.30704 0
M  V30 12952 N 1192.83 1.32541 0.852676 0
M  V30 12953 C 1194.05 1.2636 1.64462 0
M  V30 12954 C 1194.48 -0.16508 1.87374 0
M  V30 12955 O 1193.83 -1.11712 1.42794 0
M  V30 12956 C 1193.88 2.03052 2.97997 0
M  V30 12957 O 1192.99 1.37967 3.88637 0
M  V30 12958 H 1192.33 0.435393 0.501327 0
M  V30 12959 H 1194.86 1.74888 1.06186 0
M  V30 12960 H 1194.87 2.133 3.47803 0
M  V30 12961 H 1193.54 3.06941 2.80642 0
M  V30 12962 H 1192.12 1.36279 3.47106 0
M  V30 12963 N 1194.3 -1.0692 1.15784 0
M  V30 12964 C 1195.58 -1.76367 0.845825 0
M  V30 12965 C 1195.96 -2.00594 -0.657672 0
M  V30 12966 O 1195.31 -1.62794 -1.60345 0
M  V30 12967 C 1195.52 -3.06913 1.66149 0
M  V30 12968 C 1196.87 -3.81181 1.87046 0
M  V30 12969 O 1197.89 -3.16737 1.62961 0
M  V30 12970 O 1196.75 -4.96936 2.27413 0
M  V30 12971 H 1193.84 -0.766095 0.311493 0
M  V30 12972 H 1196.39 -1.13246 1.26386 0
M  V30 12973 H 1195.16 -2.84924 2.68205 0
M  V30 12974 H 1194.79 -3.77767 1.24007 0
M  V30 12975 N 1195.78 -0.955326 -1.25345 0
M  V30 12976 C 1197.03 -0.606149 -1.92377 0
M  V30 12977 C 1197.34 0.860927 -1.75634 0
M  V30 12978 O 1198.55 1.3201 -2.37246 0
M  V30 12979 C 1197.01 -1.03341 -3.44744 0
M  V30 12980 C 1196.61 -2.52308 -3.70196 0
M  V30 12981 C 1198.36 -0.756797 -4.17699 0
M  V30 12982 C 1196.27 -2.88831 -5.16072 0
M  V30 12983 H 1195.2 -0.222994 -0.720271 0
M  V30 12984 H 1197.85 -1.15987 -1.42194 0
M  V30 12985 H 1196.23 -0.408096 -3.93892 0
M  V30 12986 H 1197.4 -3.19864 -3.31698 0
M  V30 12987 H 1195.72 -2.77448 -3.10502 0
M  V30 12988 H 1198.31 -1.00583 -5.25154 0
M  V30 12989 H 1198.66 0.306794 -4.15168 0
M  V30 12990 H 1199.19 -1.34249 -3.74462 0
M  V30 12991 H 1195.93 -3.9421 -5.23716 0
M  V30 12992 H 1195.45 -2.25948 -5.55614 0
M  V30 12993 H 1197.13 -2.78061 -5.84201 0
M  V30 12994 N 1197.26 1.39987 -0.723979 0
M  V30 12995 C 1198.22 2.29041 -0.0854583 0
M  V30 12996 C 1199.22 1.45777 0.678657 0
M  V30 12997 O 1200.41 1.66588 0.509311 0
M  V30 12998 C 1197.55 3.29115 0.88859 0
M  V30 12999 H 1198.74 2.87006 -0.869903 0
M  V30 13000 H 1196.29 1.48449 -0.489136 0
M  V30 13001 H 1197.03 2.76184 1.69979 0
M  V30 13002 H 1196.81 3.90593 0.343454 0
M  V30 13003 H 1198.3 3.95778 1.33227 0
M  V30 13004 N 1198.74 0.470782 1.50404 0
M  V30 13005 C 1199.99 -0.0844409 2.02624 0
M  V30 13006 C 1200.32 -1.39398 1.3521 0
M  V30 13007 O 1199.59 -1.88542 0.477707 0
M  V30 13008 C 1199.88 -0.268563 3.59097 0
M  V30 13009 C 1199.73 1.06198 4.37084 0
M  V30 13010 C 1201.05 -1.02324 4.28039 0
M  V30 13011 H 1198.17 -0.0292141 0.736421 0
M  V30 13012 H 1200.81 0.616312 1.79726 0
M  V30 13013 H 1198.96 -0.865441 3.78738 0
M  V30 13014 H 1200.63 1.69541 4.29015 0
M  V30 13015 H 1198.87 1.65868 4.00837 0
M  V30 13016 H 1199.55 0.886795 5.4483 0
M  V30 13017 H 1202.02 -0.517325 4.12872 0
M  V30 13018 H 1200.9 -1.12087 5.37334 0
M  V30 13019 H 1201.16 -2.05974 3.91187 0
M  V30 13020 N 1200.22 -1.56282 0.203376 0
M  V30 13021 C 1201.13 -2.23086 -0.725922 0
M  V30 13022 C 1202.14 -1.23258 -1.22814 0
M  V30 13023 O 1203.32 -1.5602 -1.27357 0
M  V30 13024 C 1200.38 -2.88358 -1.92485 0
M  V30 13025 C 1199.45 -4.03479 -1.46639 0
M  V30 13026 C 1198.68 -4.65629 -2.60816 0
M  V30 13027 O 1198.9 -4.2672 -3.78506 0
M  V30 13028 O 1197.84 -5.54949 -2.33056 0
M  V30 13029 H 1201.66 -3.03124 -0.18694 0
M  V30 13030 H 1199.25 -1.49377 -0.0262829 0
M  V30 13031 H 1201.13 -3.29623 -2.62539 0
M  V30 13032 H 1199.8 -2.11294 -2.45228 0
M  V30 13033 H 1198.71 -3.66821 -0.734396 0
M  V30 13034 H 1200.04 -4.82232 -0.985535 0
M  V30 13035 N 1201.7 0.070167 -1.57444 0
M  V30 13036 C 1202.94 0.764899 -1.8847 0
M  V30 13037 C 1203.3 1.75104 -0.797264 0
M  V30 13038 O 1202.59 1.9057 0.198411 0
M  V30 13039 C 1202.78 1.5111 -3.23883 0
M  V30 13040 C 1202.61 0.598732 -4.45696 0
M  V30 13041 C 1201.38 0.235066 -5.04753 0
M  V30 13042 C 1203.58 -0.105234 -5.14192 0
M  V30 13043 N 1201.56 -0.682856 -6.1009 0
M  V30 13044 C 1202.93 -0.880286 -6.13719 0
M  V30 13045 C 1204.99 -0.176534 -4.97587 0
M  V30 13046 C 1203.69 -1.72002 -6.98432 0
M  V30 13047 C 1205.72 -1.00324 -5.82828 0
M  V30 13048 C 1205.08 -1.76634 -6.81894 0
M  V30 13049 H 1201.18 0.255278 -0.73916 0
M  V30 13050 H 1203.76 0.0263555 -1.94682 0
M  V30 13051 H 1201.93 2.22036 -3.18676 0
M  V30 13052 H 1203.67 2.15498 -3.42553 0
M  V30 13053 H 1200.42 0.588283 -4.69932 0
M  V30 13054 H 1200.84 -1.13511 -6.67416 0
M  V30 13055 H 1205.49 0.399107 -4.20912 0
M  V30 13056 H 1203.2 -2.30662 -7.74481 0
M  V30 13057 H 1206.79 -1.06141 -5.72036 0
M  V30 13058 H 1205.67 -2.39573 -7.46709 0
M  V30 13059 N 1203.17 1.53854 0.341593 0
M  V30 13060 C 1204.08 1.84975 1.44297 0
M  V30 13061 C 1205.1 0.740057 1.57477 0
M  V30 13062 O 1206.28 1.03256 1.72917 0
M  V30 13063 C 1203.34 2.05464 2.79259 0
M  V30 13064 C 1202.4 3.29318 2.75405 0
M  V30 13065 C 1201.63 3.4882 4.03931 0
M  V30 13066 O 1201.86 2.7212 5.01305 0
M  V30 13067 O 1200.79 4.42253 4.08284 0
M  V30 13068 H 1204.62 2.78592 1.20913 0
M  V30 13069 H 1202.2 1.39532 0.533953 0
M  V30 13070 H 1204.08 2.20374 3.59184 0
M  V30 13071 H 1202.76 1.15035 3.0257 0
M  V30 13072 H 1201.67 3.1981 1.94094 0
M  V30 13073 H 1203 4.19746 2.57049 0
M  V30 13074 N 1204.65 -0.602709 1.4562 0
M  V30 13075 C 1205.88 -1.39299 1.53657 0
M  V30 13076 C 1206.3 -1.87315 0.171632 0
M  V30 13077 O 1205.66 -1.60423 -0.844639 0
M  V30 13078 C 1205.71 -2.57021 2.52928 0
M  V30 13079 O 1204.81 -3.57812 2.05047 0
M  V30 13080 H 1204.15 -0.41567 0.517798 0
M  V30 13081 H 1206.68 -0.73304 1.91018 0
M  V30 13082 H 1206.69 -3.04202 2.71892 0
M  V30 13083 H 1205.37 -2.21422 3.52058 0
M  V30 13084 H 1203.94 -3.17247 1.95981 0
M  V30 13085 N 1206.13 -1.32992 -0.845635 0
M  V30 13086 C 1207.08 -1.22652 -1.97634 0
M  V30 13087 C 1208.07 -0.129344 -1.68905 0
M  V30 13088 O 1209.28 -0.292863 -1.77602 0
M  V30 13089 H 1205.65 -0.380439 -0.648668 0
M  V30 13090 H 1207.62 -2.18261 -2.03481 0
M  V30 13091 C 1206.37 -0.975677 -3.3373 0
M  V30 13092 H 1205.7 -1.81217 -3.56371 0
M  V30 13093 H 1207.14 -0.943608 -4.13367 0
M  V30 13094 C 1205.59 0.321491 -3.35363 0
M  V30 13095 O 1206.12 1.33042 -3.79029 0
M  V30 13096 N 1204.33 0.346648 -2.88525 0
M  V30 13097 H 1203.88 -0.474931 -2.53184 0
M  V30 13098 H 1203.84 1.2144 -2.9 0
M  V30 13099 N 1207.61 1.06304 -1.1635 0
M  V30 13100 C 1208.86 1.78747 -0.943074 0
M  V30 13101 C 1209.18 1.87646 0.530483 0
M  V30 13102 O 1208.45 1.38506 1.38538 0
M  V30 13103 H 1207.03 0.662072 -0.345932 0
M  V30 13104 H 1209.69 1.28413 -1.46615 0
M  V30 13105 H 1208.78 2.80828 -1.3617 0
M  V30 13106 N 1209.09 0.96196 1.24836 0
M  V30 13107 C 1210.02 0.445329 2.24832 0
M  V30 13108 C 1211.03 -0.442797 1.56663 0
M  V30 13109 O 1212.22 -0.249896 1.76742 0
M  V30 13110 C 1209.32 -0.376953 3.36797 0
M  V30 13111 C 1208.49 0.499908 4.34534 0
M  V30 13112 C 1207.55 -0.265402 5.2553 0
M  V30 13113 O 1206.58 0.338707 5.68191 0
M  V30 13114 N 1207.78 -1.55654 5.59243 0
M  V30 13115 H 1210.54 1.30505 2.69793 0
M  V30 13116 H 1208.11 0.833137 1.38818 0
M  V30 13117 H 1210.1 -0.896831 3.94638 0
M  V30 13118 H 1208.67 -1.13757 2.91167 0
M  V30 13119 H 1207.89 1.20082 3.75465 0
M  V30 13120 H 1209.18 1.09814 4.96808 0
M  V30 13121 H 1208.57 -2.06916 5.265 0
M  V30 13122 H 1207.13 -2.02223 6.19636 0
M  V30 13123 N 1210.56 -1.39601 0.731392 0
M  V30 13124 C 1211.97 -1.83424 0.348194 0
M  V30 13125 C 1212.33 -1.61106 -1.11979 0
M  V30 13126 O 1211.45 -1.1003 -1.86339 0
M  V30 13127 C 1212.05 -3.32982 0.6252 0
M  V30 13128 C 1210.6 -3.75238 0.295536 0
M  V30 13129 C 1209.75 -2.62642 0.88964 0
M  V30 13130 H 1212.7 -1.28644 0.929318 0
M  V30 13131 H 1212.72 -3.80357 -0.104254 0
M  V30 13132 H 1212.24 -3.49193 1.69368 0
M  V30 13133 H 1210.34 -3.64615 -0.767254 0
M  V30 13134 H 1210.45 -4.72781 0.775576 0
M  V30 13135 H 1208.81 -2.52726 0.316529 0
M  V30 13136 H 1209.6 -2.81661 1.96271 0
M  V30 13137 N 1212.04 -0.478751 -1.50152 0
M  V30 13138 C 1212.95 0.316554 -2.32455 0
M  V30 13139 C 1213.97 0.98871 -1.4318 0
M  V30 13140 O 1215.14 0.974998 -1.76226 0
M  V30 13141 C 1212.21 1.3799 -3.18056 0
M  V30 13142 C 1211.27 0.723534 -4.23159 0
M  V30 13143 C 1210.5 1.73621 -5.0467 0
M  V30 13144 O 1210.73 2.96362 -4.87366 0
M  V30 13145 O 1209.66 1.30381 -5.87609 0
M  V30 13146 H 1213.49 -0.356491 -3.016 0
M  V30 13147 H 1211.07 -0.24046 -1.47452 0
M  V30 13148 H 1212.95 1.99565 -3.71149 0
M  V30 13149 H 1211.63 2.03627 -2.5163 0
M  V30 13150 H 1210.54 0.0686296 -3.74037 0
M  V30 13151 H 1211.87 0.109979 -4.92077 0
M  V30 13152 N 1213.52 1.56172 -0.211661 0
M  V30 13153 C 1214.47 2.21206 0.719063 0
M  V30 13154 C 1215.46 1.18835 1.20725 0
M  V30 13155 O 1216.67 1.36939 1.16823 0
M  V30 13156 H 1213.04 0.709129 0.250279 0
M  V30 13157 H 1215.01 2.98038 0.147022 0
M  V30 13158 C 1213.76 2.89826 1.92084 0
M  V30 13159 H 1213.09 3.68351 1.55428 0
M  V30 13160 H 1214.53 3.38744 2.55006 0
M  V30 13161 C 1212.99 1.91756 2.77004 0
M  V30 13162 O 1213.52 1.42826 3.75451 0
M  V30 13163 N 1211.72 1.59622 2.42836 0
M  V30 13164 H 1211.27 1.99606 1.62835 0
M  V30 13165 H 1211.23 0.942641 2.99936 0
M  V30 13166 N 1215 -0.0618163 1.57479 0
M  V30 13167 C 1215.95 -1.09105 2.05424 0
M  V30 13168 C 1216.94 -1.3947 0.961479 0
M  V30 13169 O 1218.15 -1.3876 1.14655 0
M  V30 13170 H 1214.52 -0.36923 0.655113 0
M  V30 13171 H 1216.49 -0.66061 2.90996 0
M  V30 13172 C 1215.24 -2.39345 2.52209 0
M  V30 13173 H 1214.56 -2.16832 3.35893 0
M  V30 13174 H 1216 -3.09784 2.89499 0
M  V30 13175 C 1214.46 -3.06011 1.40922 0
M  V30 13176 O 1214.99 -3.94504 0.756921 0
M  V30 13177 N 1213.2 -2.66797 1.15186 0
M  V30 13178 H 1212.75 -1.94923 1.68412 0
M  V30 13179 H 1212.7 -3.11724 0.409324 0
M  V30 13180 N 1216.48 -1.54033 -0.333429 0
M  V30 13181 C 1217.71 -1.75461 -1.09073 0
M  V30 13182 C 1218.11 -0.498488 -1.82515 0
M  V30 13183 O 1217.46 0.540029 -1.75583 0
M  V30 13184 C 1217.52 -2.88744 -2.14166 0
M  V30 13185 C 1217.18 -4.27998 -1.60209 0
M  V30 13186 C 1218.18 -5.09206 -1.04907 0
M  V30 13187 C 1215.87 -4.74513 -1.6475 0
M  V30 13188 C 1217.86 -6.35035 -0.548615 0
M  V30 13189 C 1215.55 -6.00312 -1.14318 0
M  V30 13190 C 1216.54 -6.80406 -0.594667 0
M  V30 13191 O 1216.23 -8.0384 -0.097891 0
M  V30 13192 H 1215.96 -0.589586 -0.330702 0
M  V30 13193 H 1218.52 -2.01697 -0.388274 0
M  V30 13194 H 1216.75 -2.58057 -2.87999 0
M  V30 13195 H 1218.44 -2.98048 -2.7554 0
M  V30 13196 H 1219.2 -4.74428 -1.00713 0
M  V30 13197 H 1215.08 -4.12222 -2.06384 0
M  V30 13198 H 1218.63 -6.97497 -0.119823 0
M  V30 13199 H 1214.52 -6.34583 -1.18215 0
M  V30 13200 H 1215.29 -8.1822 -0.214237 0
M  V30 13201 N 1217.95 0.594978 -1.45938 0
M  V30 13202 C 1218.9 1.70489 -1.5557 0
M  V30 13203 C 1219.87 1.61193 -0.400751 0
M  V30 13204 O 1221.06 1.80587 -0.615882 0
M  V30 13205 C 1218.2 3.08817 -1.54033 0
M  V30 13206 C 1217.31 3.28827 -2.80173 0
M  V30 13207 C 1216.44 4.57333 -2.70222 0
M  V30 13208 C 1215.48 4.70644 -3.91357 0
M  V30 13209 N 1214.62 5.90463 -3.79865 0
M  V30 13210 H 1219.46 1.61593 -2.50383 0
M  V30 13211 H 1217 0.787747 -1.24229 0
M  V30 13212 H 1218.96 3.88865 -1.51129 0
M  V30 13213 H 1217.59 3.1664 -0.627617 0
M  V30 13214 H 1216.64 2.42467 -2.9311 0
M  V30 13215 H 1217.95 3.34534 -3.69985 0
M  V30 13216 H 1217.1 5.45593 -2.65354 0
M  V30 13217 H 1215.84 4.54045 -1.7803 0
M  V30 13218 H 1214.85 3.80805 -3.9657 0
M  V30 13219 H 1216.07 4.75721 -4.8463 0
M  V30 13220 H 1214.02 5.88196 -2.90451 0
M  V30 13221 H 1213.94 5.97385 -4.63322 0
M  V30 13222 H 1215.2 6.81187 -3.78952 0
M  V30 13223 N 1219.43 1.33438 0.838571 0
M  V30 13224 C 1220.66 1.27951 1.62592 0
M  V30 13225 C 1221.08 -0.149502 1.88207 0
M  V30 13226 O 1220.43 -1.09174 1.46244 0
M  V30 13227 C 1220.48 2.0523 2.97595 0
M  V30 13228 O 1220.2 3.42557 2.73105 0
M  V30 13229 C 1221.71 2.06957 3.92025 0
M  V30 13230 H 1218.93 0.440796 0.505905 0
M  V30 13231 H 1221.47 1.75814 1.0445 0
M  V30 13232 H 1219.62 1.61049 3.52338 0
M  V30 13233 H 1220.04 3.82314 3.59076 0
M  V30 13234 H 1221.51 2.65481 4.83967 0
M  V30 13235 H 1221.99 1.0599 4.26219 0
M  V30 13236 H 1222.6 2.51158 3.4322 0
M  V30 13237 N 1220.91 -1.05686 1.16912 0
M  V30 13238 C 1222.14 -1.82282 0.978811 0
M  V30 13239 C 1222.55 -1.8278 -0.472972 0
M  V30 13240 O 1221.91 -1.25143 -1.32836 0
M  V30 13241 C 1221.96 -3.28623 1.50629 0
M  V30 13242 O 1221.68 -3.28269 2.90122 0
M  V30 13243 C 1223.18 -4.21927 1.35987 0
M  V30 13244 H 1220.4 -0.574558 0.346588 0
M  V30 13245 H 1222.95 -1.33301 1.55084 0
M  V30 13246 H 1221.1 -3.74893 0.976404 0
M  V30 13247 H 1221.52 -4.19824 3.14401 0
M  V30 13248 H 1222.99 -5.2261 1.77716 0
M  V30 13249 H 1223.47 -4.38131 0.30626 0
M  V30 13250 H 1224.07 -3.81508 1.87968 0
M  V30 13251 N 1222.39 -0.968567 -1.24324 0
M  V30 13252 C 1223.8 -0.66964 -1.74278 0
M  V30 13253 C 1224.15 0.81461 -1.7849 0
M  V30 13254 O 1223.28 1.63736 -1.4149 0
M  V30 13255 C 1223.87 -1.20885 -3.165 0
M  V30 13256 C 1222.43 -0.959808 -3.63957 0
M  V30 13257 C 1221.58 -1.34365 -2.42573 0
M  V30 13258 H 1224.53 -1.14379 -1.10015 0
M  V30 13259 H 1224.55 -0.57555 -3.76122 0
M  V30 13260 H 1224.06 -2.28912 -3.13402 0
M  V30 13261 H 1222.16 0.104894 -3.72452 0
M  V30 13262 H 1222.27 -1.60606 -4.51378 0
M  V30 13263 H 1220.64 -0.762039 -2.43033 0
M  V30 13264 H 1221.42 -2.43343 -2.42155 0
M  V30 13265 N 1223.87 1.39211 -0.738786 0
M  V30 13266 C 1225.28 1.83237 -0.357916 0
M  V30 13267 C 1225.63 1.61698 1.11123 0
M  V30 13268 O 1224.75 1.11017 1.85753 0
M  V30 13269 C 1225.35 3.32645 -0.64285 0
M  V30 13270 C 1223.91 3.75076 -0.315432 0
M  V30 13271 C 1223.05 2.62166 -0.903556 0
M  V30 13272 H 1226.01 1.2815 -0.936127 0
M  V30 13273 H 1226.03 3.80407 0.0840812 0
M  V30 13274 H 1225.54 3.4829 -1.71218 0
M  V30 13275 H 1223.64 3.65017 0.747907 0
M  V30 13276 H 1223.75 4.72363 -0.800638 0
M  V30 13277 H 1222.12 2.52554 -0.329927 0
M  V30 13278 H 1222.9 2.80616 -1.97761 0
M  V30 13279 N 1225.34 0.486708 1.49896 0
M  V30 13280 C 1226.59 -0.0629451 2.02702 0
M  V30 13281 C 1226.92 -1.37956 1.36681 0
M  V30 13282 O 1226.2 -1.88025 0.497678 0
M  V30 13283 C 1226.48 -0.230461 3.59362 0
M  V30 13284 C 1226.33 1.10828 4.35933 0
M  V30 13285 C 1227.65 -0.977785 4.29101 0
M  V30 13286 H 1224.77 -0.0214017 0.736689 0
M  V30 13287 H 1227.41 0.635339 1.79063 0
M  V30 13288 H 1225.56 -0.825222 3.79634 0
M  V30 13289 H 1227.24 1.74082 4.27192 0
M  V30 13290 H 1225.48 1.7011 3.99055 0
M  V30 13291 H 1226.15 0.944532 5.43859 0
M  V30 13292 H 1228.63 -0.473505 4.13397 0
M  V30 13293 H 1227.5 -1.06382 5.38492 0
M  V30 13294 H 1227.76 -2.01813 3.9335 0
M  V30 13295 N 1226.82 -1.56058 0.219941 0
M  V30 13296 C 1227.75 -2.2321 -0.685547 0
M  V30 13297 C 1228.73 -1.20328 -1.20229 0
M  V30 13298 O 1229.92 -1.48909 -1.24659 0
M  V30 13299 C 1227.05 -2.91076 -1.89452 0
M  V30 13300 C 1226 -4.00415 -1.51169 0
M  V30 13301 C 1225.33 -4.55569 -2.79931 0
M  V30 13302 C 1226.63 -5.17549 -0.702896 0
M  V30 13303 H 1228.32 -2.99136 -0.125671 0
M  V30 13304 H 1225.87 -1.43879 -0.0590043 0
M  V30 13305 H 1227.82 -3.36744 -2.53341 0
M  V30 13306 H 1226.55 -2.12594 -2.47934 0
M  V30 13307 H 1225.21 -3.55475 -0.896275 0
M  V30 13308 H 1224.85 -3.73819 -3.36553 0
M  V30 13309 H 1224.55 -5.29361 -2.55049 0
M  V30 13310 H 1226.08 -5.03955 -3.44764 0
M  V30 13311 H 1227.49 -5.59608 -1.24544 0
M  V30 13312 H 1225.89 -5.97563 -0.551234 0
M  V30 13313 H 1226.96 -4.84027 0.29083 0
M  V30 13314 N 1228.3 0.053464 -1.57509 0
M  V30 13315 C 1229.58 0.783141 -1.79238 0
M  V30 13316 C 1229.96 1.94855 -0.812069 0
M  V30 13317 O 1229.31 2.28 0.151006 0
M  V30 13318 C 1229.52 1.239 -3.26266 0
M  V30 13319 C 1230.86 1.66492 -3.90596 0
M  V30 13320 O 1231.89 1.33421 -3.30269 0
M  V30 13321 O 1230.75 2.27785 -4.96766 0
M  V30 13322 H 1227.84 0.376696 -0.736226 0
M  V30 13323 H 1230.39 0.0321229 -1.6967 0
M  V30 13324 H 1229.16 0.405948 -3.89189 0
M  V30 13325 H 1228.78 2.05078 -3.4063 0
M  V30 13326 N 1229.78 1.54207 0.325255 0
M  V30 13327 C 1231 1.7661 1.08736 0
M  V30 13328 C 1231.43 0.512449 1.80985 0
M  V30 13329 O 1230.79 -0.535913 1.73198 0
M  V30 13330 C 1230.84 2.95797 2.06243 0
M  V30 13331 O 1229.94 2.67225 3.14109 0
M  V30 13332 H 1229.28 0.585282 0.313593 0
M  V30 13333 H 1231.81 2.01225 0.370066 0
M  V30 13334 H 1231.82 3.23097 2.49143 0
M  V30 13335 H 1230.5 3.86712 1.53058 0
M  V30 13336 H 1229.07 2.50869 2.75897 0
M  V30 13337 N 1231.26 -0.58723 1.46251 0
M  V30 13338 C 1232.53 -1.34727 1.41802 0
M  V30 13339 C 1232.91 -2.10867 0.0991354 0
M  V30 13340 O 1232.26 -2.09194 -0.919242 0
M  V30 13341 C 1232.47 -2.27706 2.64482 0
M  V30 13342 C 1233.82 -2.89678 3.10438 0
M  V30 13343 O 1234.84 -2.38021 2.64999 0
M  V30 13344 O 1233.7 -3.83493 3.89352 0
M  V30 13345 H 1230.8 -0.605119 0.563702 0
M  V30 13346 H 1233.34 -0.608623 1.5841 0
M  V30 13347 H 1232.12 -1.70842 3.52035 0
M  V30 13348 H 1231.74 -3.08918 2.50311 0
M  V30 13349 N 1232.74 -1.33881 -0.831482 0
M  V30 13350 C 1233.98 -1.25507 -1.58406 0
M  V30 13351 C 1234.3 0.177137 -1.94194 0
M  V30 13352 O 1233.57 1.10769 -1.61576 0
M  V30 13353 H 1232.15 -0.461551 -0.587349 0
M  V30 13354 H 1234.82 -1.6769 -0.99328 0
M  V30 13355 H 1233.91 -1.85391 -2.51071 0
M  V30 13356 N 1234.21 1.05064 -1.1747 0
M  V30 13357 C 1235.44 1.82299 -0.98903 0
M  V30 13358 C 1235.86 1.82441 0.457907 0
M  V30 13359 O 1235.22 1.23433 1.32793 0
M  V30 13360 C 1235.27 3.26239 -1.53624 0
M  V30 13361 O 1234.37 4.05507 -0.750857 0
M  V30 13362 H 1233.71 0.563601 -0.35107 0
M  V30 13363 H 1236.24 1.32386 -1.55997 0
M  V30 13364 H 1236.25 3.77038 -1.55906 0
M  V30 13365 H 1234.93 3.25451 -2.58949 0
M  V30 13366 H 1233.51 3.64227 -0.799548 0
M  V30 13367 N 1235.69 0.975146 1.23809 0
M  V30 13368 C 1236.94 0.641124 1.92083 0
M  V30 13369 C 1237.27 -0.824671 1.76152 0
M  V30 13370 O 1236.52 -1.6097 1.11298 0
M  V30 13371 C 1236.82 0.971016 3.43956 0
M  V30 13372 C 1236.49 2.42616 3.80063 0
M  V30 13373 C 1235.15 2.82386 3.8963 0
M  V30 13374 C 1237.5 3.37019 3.97577 0
M  V30 13375 C 1234.83 4.15585 4.14133 0
M  V30 13376 C 1237.18 4.69855 4.23579 0
M  V30 13377 C 1235.84 5.09391 4.31366 0
M  V30 13378 H 1235.11 0.234604 0.702881 0
M  V30 13379 H 1237.76 1.22803 1.46941 0
M  V30 13380 H 1236.07 0.301965 3.90635 0
M  V30 13381 H 1237.76 0.690858 3.95004 0
M  V30 13382 H 1234.35 2.10782 3.73187 0
M  V30 13383 H 1238.54 3.07474 3.89581 0
M  V30 13384 H 1233.79 4.45831 4.18383 0
M  V30 13385 H 1237.97 5.42966 4.36074 0
M  V30 13386 H 1235.59 6.12624 4.50106 0
M  V30 13387 N 1237.17 -1.38817 0.746158 0
M  V30 13388 C 1238.42 -2.0028 0.299016 0
M  V30 13389 C 1238.74 -1.59221 -1.11709 0
M  V30 13390 O 1238 -0.817595 -1.77803 0
M  V30 13391 C 1238.3 -3.55571 0.361086 0
M  V30 13392 C 1237.96 -4.16317 1.73179 0
M  V30 13393 C 1236.63 -4.32622 2.10693 0
M  V30 13394 C 1238.98 -4.49905 2.63126 0
M  V30 13395 C 1236.31 -4.79808 3.3764 0
M  V30 13396 C 1238.66 -4.98504 3.89457 0
M  V30 13397 C 1237.32 -5.13016 4.27049 0
M  V30 13398 H 1236.59 -0.732877 0.109418 0
M  V30 13399 H 1239.24 -1.65977 0.955186 0
M  V30 13400 H 1237.54 -3.89966 -0.378655 0
M  V30 13401 H 1239.24 -4.01 -0.00319228 0
M  V30 13402 H 1235.83 -4.04035 1.43015 0
M  V30 13403 H 1240.02 -4.36916 2.3541 0
M  V30 13404 H 1235.27 -4.89229 3.66695 0
M  V30 13405 H 1239.45 -5.23464 4.59302 0
M  V30 13406 H 1237.07 -5.4934 5.25481 0
M  V30 13407 N 1238.65 -0.49465 -1.49636 0
M  V30 13408 C 1239.58 0.276606 -2.31856 0
M  V30 13409 C 1240.56 0.968499 -1.39836 0
M  V30 13410 O 1241.74 0.96113 -1.68748 0
M  V30 13411 C 1238.87 1.34522 -3.20189 0
M  V30 13412 C 1237.83 0.773571 -4.20951 0
M  V30 13413 C 1237.15 1.94223 -4.98178 0
M  V30 13414 C 1238.45 -0.231096 -5.21788 0
M  V30 13415 H 1240.15 -0.409668 -2.96584 0
M  V30 13416 H 1237.69 -0.198461 -1.42626 0
M  V30 13417 H 1239.65 1.89244 -3.76517 0
M  V30 13418 H 1238.37 2.06059 -2.53392 0
M  V30 13419 H 1237.03 0.248144 -3.65759 0
M  V30 13420 H 1236.68 2.64514 -4.27834 0
M  V30 13421 H 1236.38 1.56584 -5.66353 0
M  V30 13422 H 1237.9 2.49391 -5.57348 0
M  V30 13423 H 1239.32 0.227768 -5.72847 0
M  V30 13424 H 1237.71 -0.522984 -5.97817 0
M  V30 13425 H 1238.78 -1.14914 -4.71087 0
M  V30 13426 N 1240.13 1.55939 -0.228214 0
M  V30 13427 C 1241.36 2.02576 0.405759 0
M  V30 13428 C 1241.76 1.10718 1.53422 0
M  V30 13429 O 1241.11 0.110361 1.83368 0
M  V30 13430 C 1241.17 3.45531 0.992405 0
M  V30 13431 C 1240.83 4.57 -0.00144674 0
M  V30 13432 C 1241.83 5.13642 -0.804248 0
M  V30 13433 C 1239.51 5.02152 -0.12213 0
M  V30 13434 C 1241.51 6.13912 -1.71437 0
M  V30 13435 C 1239.2 6.02258 -1.03578 0
M  V30 13436 C 1240.19 6.58015 -1.83044 0
M  V30 13437 O 1239.88 7.56172 -2.72872 0
M  V30 13438 H 1239.61 0.668136 0.102813 0
M  V30 13439 H 1242.17 2.02497 -0.344092 0
M  V30 13440 H 1240.4 3.427 1.79147 0
M  V30 13441 H 1242.09 3.75777 1.53448 0
M  V30 13442 H 1242.85 4.79603 -0.721497 0
M  V30 13443 H 1238.73 4.58428 0.486294 0
M  V30 13444 H 1242.28 6.57359 -2.33506 0
M  V30 13445 H 1238.17 6.35718 -1.11952 0
M  V30 13446 H 1238.94 7.73719 -2.67022 0
M  V30 13447 N 1241.6 -0.0451101 1.57535 0
M  V30 13448 C 1242.83 -0.755068 1.93167 0
M  V30 13449 C 1243.25 -1.68949 0.826915 0
M  V30 13450 O 1242.61 -1.79978 -0.218534 0
M  V30 13451 C 1242.66 -1.50201 3.27829 0
M  V30 13452 O 1241.76 -2.61434 3.18945 0
M  V30 13453 H 1241.11 -0.204219 0.631815 0
M  V30 13454 H 1243.64 -0.00537504 2.04599 0
M  V30 13455 H 1243.65 -1.87547 3.6234 0
M  V30 13456 H 1242.32 -0.816591 4.07805 0
M  V30 13457 H 1240.9 -2.26749 2.96039 0
M  V30 13458 N 1243.08 -1.54377 -0.317073 0
M  V30 13459 C 1244.03 -1.84214 -1.39046 0
M  V30 13460 C 1245 -0.689742 -1.51102 0
M  V30 13461 O 1246.18 -0.936809 -1.66218 0
M  V30 13462 C 1243.32 -2.08087 -2.75307 0
M  V30 13463 C 1242.44 -3.35756 -2.7183 0
M  V30 13464 C 1241.57 -3.49556 -3.9998 0
M  V30 13465 C 1240.61 -4.71076 -3.90837 0
M  V30 13466 N 1239.75 -4.81767 -5.10729 0
M  V30 13467 H 1244.59 -2.75785 -1.12902 0
M  V30 13468 H 1242.13 -1.36575 -0.546404 0
M  V30 13469 H 1244.08 -2.19921 -3.54529 0
M  V30 13470 H 1242.71 -1.19801 -2.99746 0
M  V30 13471 H 1241.77 -3.32627 -1.84563 0
M  V30 13472 H 1243.08 -4.2509 -2.60959 0
M  V30 13473 H 1242.23 -3.60967 -4.87635 0
M  V30 13474 H 1240.97 -2.58326 -4.13665 0
M  V30 13475 H 1239.98 -4.59715 -3.01566 0
M  V30 13476 H 1241.2 -5.63698 -3.78711 0
M  V30 13477 H 1239.15 -3.93455 -5.24908 0
M  V30 13478 H 1239.06 -5.65077 -5.02219 0
M  V30 13479 H 1240.33 -4.97517 -6.00081 0
M  V30 13480 N 1244.56 0.579466 -1.4656 0
M  V30 13481 C 1245.49 1.69846 -1.60233 0
M  V30 13482 C 1246.47 1.6397 -0.452533 0
M  V30 13483 O 1247.66 1.81936 -0.679174 0
M  V30 13484 C 1244.79 3.08488 -1.59538 0
M  V30 13485 C 1243.74 3.29197 -2.7352 0
M  V30 13486 C 1243.07 4.684 -2.57887 0
M  V30 13487 C 1244.37 3.16718 -4.15315 0
M  V30 13488 H 1246.06 1.5866 -2.53904 0
M  V30 13489 H 1243.61 0.761873 -1.22194 0
M  V30 13490 H 1245.56 3.86595 -1.67696 0
M  V30 13491 H 1244.28 3.20581 -0.62413 0
M  V30 13492 H 1242.94 2.53491 -2.64836 0
M  V30 13493 H 1242.59 4.77262 -1.58839 0
M  V30 13494 H 1242.29 4.83208 -3.34341 0
M  V30 13495 H 1243.81 5.48671 -2.67942 0
M  V30 13496 H 1245.23 3.84666 -4.25094 0
M  V30 13497 H 1243.63 3.43047 -4.92381 0
M  V30 13498 H 1244.7 2.13755 -4.35244 0
M  V30 13499 N 1246.04 1.3432 0.824371 0
M  V30 13500 C 1247.27 1.29669 1.61226 0
M  V30 13501 C 1247.68 -0.129532 1.88355 0
M  V30 13502 O 1247.04 -1.07616 1.47394 0
M  V30 13503 C 1247.09 2.08375 2.95402 0
M  V30 13504 O 1246.81 3.45434 2.69456 0
M  V30 13505 C 1248.31 2.11103 3.89808 0
M  V30 13506 H 1245.53 0.446137 0.501201 0
M  V30 13507 H 1248.08 1.76912 1.02579 0
M  V30 13508 H 1246.23 1.64777 3.5061 0
M  V30 13509 H 1246.64 3.86101 3.55001 0
M  V30 13510 H 1248.12 2.706 4.81124 0
M  V30 13511 H 1248.6 1.10505 4.25071 0
M  V30 13512 H 1249.2 2.54784 3.40537 0
M  V30 13513 N 1247.52 -1.0444 1.18026 0
M  V30 13514 C 1248.76 -1.77838 0.974756 0
M  V30 13515 C 1249.1 -1.87792 -0.494755 0
M  V30 13516 O 1248.37 -1.38327 -1.36733 0
M  V30 13517 C 1248.65 -3.21315 1.62569 0
M  V30 13518 C 1248.51 -3.19327 3.16781 0
M  V30 13519 C 1249.83 -4.19337 1.33583 0
M  V30 13520 H 1246.94 -0.645575 0.35553 0
M  V30 13521 H 1249.59 -1.22023 1.45638 0
M  V30 13522 H 1247.74 -3.68974 1.21617 0
M  V30 13523 H 1249.41 -2.79687 3.66842 0
M  V30 13524 H 1247.65 -2.57461 3.49137 0
M  V30 13525 H 1248.32 -4.20626 3.5746 0
M  V30 13526 H 1250.8 -3.80208 1.69059 0
M  V30 13527 H 1249.67 -5.17953 1.81702 0
M  V30 13528 H 1249.94 -4.41346 0.258016 0
M  V30 13529 N 1248.99 -0.981699 -1.2329 0
M  V30 13530 C 1250.27 -0.567659 -1.87182 0
M  V30 13531 C 1250.65 0.955194 -1.88253 0
M  V30 13532 O 1250 1.83245 -1.36504 0
M  V30 13533 C 1250.21 -1.17522 -3.28618 0
M  V30 13534 C 1251.56 -1.26877 -4.052 0
M  V30 13535 O 1252.58 -1.12877 -3.37842 0
M  V30 13536 O 1251.44 -1.49163 -5.2575 0
M  V30 13537 H 1248.53 -0.191315 -0.804567 0
M  V30 13538 H 1251.08 -1.07686 -1.31155 0
M  V30 13539 H 1249.85 -2.21735 -3.22411 0
M  V30 13540 H 1249.48 -0.650913 -3.92236 0
M  V30 13541 N 1250.47 1.3842 -0.753509 0
M  V30 13542 C 1251.42 2.30457 -0.12574 0
M  V30 13543 C 1252.39 1.50173 0.709728 0
M  V30 13544 O 1253.57 1.78804 0.665872 0
M  V30 13545 C 1250.71 3.36593 0.761503 0
M  V30 13546 C 1249.83 4.31909 -0.0885848 0
M  V30 13547 C 1248.96 5.25116 0.801655 0
M  V30 13548 C 1248 6.12078 -0.0520719 0
M  V30 13549 N 1247.14 6.97583 0.795124 0
M  V30 13550 H 1251.98 2.83567 -0.916187 0
M  V30 13551 H 1249.52 1.39609 -0.463436 0
M  V30 13552 H 1251.47 3.96738 1.29054 0
M  V30 13553 H 1250.1 2.84894 1.51774 0
M  V30 13554 H 1249.16 3.73227 -0.735249 0
M  V30 13555 H 1250.47 4.93161 -0.747899 0
M  V30 13556 H 1249.62 5.90377 1.39786 0
M  V30 13557 H 1248.36 4.6423 1.4947 0
M  V30 13558 H 1247.37 5.45813 -0.660946 0
M  V30 13559 H 1248.59 6.75032 -0.742178 0
M  V30 13560 H 1246.54 6.39246 1.47312 0
M  V30 13561 H 1246.45 7.55754 0.192705 0
M  V30 13562 H 1247.72 7.67254 1.3763 0
M  V30 13563 N 1251.95 0.502579 1.49372 0
M  V30 13564 C 1253.18 -0.0403087 2.07361 0
M  V30 13565 C 1253.6 -1.29918 1.36026 0
M  V30 13566 O 1252.96 -1.76428 0.417488 0
M  V30 13567 C 1253.01 -0.275362 3.59547 0
M  V30 13568 O 1252.11 -1.34975 3.89686 0
M  V30 13569 H 1251.45 0.0269268 0.663454 0
M  V30 13570 H 1253.98 0.702652 1.92156 0
M  V30 13571 H 1253.99 -0.506392 4.04845 0
M  V30 13572 H 1252.67 0.644382 4.10878 0
M  V30 13573 H 1251.24 -1.10355 3.56197 0
M  V30 13574 N 1253.43 -1.55816 0.23648 0
M  V30 13575 C 1254.84 -1.59159 -0.118601 0
M  V30 13576 C 1255.04 -1.25352 -1.57763 0
M  V30 13577 O 1254.1 -0.995863 -2.32032 0
M  V30 13578 C 1255.41 -2.99885 0.221175 0
M  V30 13579 C 1256.96 -3.12567 0.164624 0
M  V30 13580 C 1257.44 -4.55496 0.478285 0
M  V30 13581 N 1258.93 -4.61215 0.428402 0
M  V30 13582 C 1259.66 -5.69768 0.644398 0
M  V30 13583 N 1259.16 -6.86624 0.922966 0
M  V30 13584 N 1260.95 -5.59143 0.575814 0
M  V30 13585 H 1253.1 -1.76063 1.18809 0
M  V30 13586 H 1255.37 -0.819079 0.477297 0
M  V30 13587 H 1255.07 -3.29326 1.2344 0
M  V30 13588 H 1254.95 -3.74425 -0.456723 0
M  V30 13589 H 1257.33 -2.82914 -0.839263 0
M  V30 13590 H 1257.41 -2.40325 0.876219 0
M  V30 13591 H 1257.06 -4.85868 1.47968 0
M  V30 13592 H 1256.99 -5.25984 -0.254671 0
M  V30 13593 H 1259.48 -3.77251 0.221398 0
M  V30 13594 H 1259.79 -7.6528 1.07548 0
M  V30 13595 H 1258.14 -6.88333 0.960325 0
M  V30 13596 H 1261.33 -4.66727 0.358307 0
M  V30 13597 H 1261.5 -6.43674 0.747548 0
M  V30 13598 N 1254.91 0.036755 -1.57557 0
M  V30 13599 C 1256.15 0.72475 -1.9005 0
M  V30 13600 C 1256.51 1.73374 -0.834226 0
M  V30 13601 O 1255.8 1.90948 0.157943 0
M  V30 13602 C 1255.99 1.44206 -3.27016 0
M  V30 13603 C 1255.82 0.504059 -4.46866 0
M  V30 13604 C 1254.59 0.127948 -5.05138 0
M  V30 13605 C 1256.79 -0.214278 -5.13853 0
M  V30 13606 N 1254.77 -0.812111 -6.08505 0
M  V30 13607 C 1256.14 -1.01027 -6.11714 0
M  V30 13608 C 1258.2 -0.28204 -4.97101 0
M  V30 13609 C 1256.9 -1.86778 -6.94627 0
M  V30 13610 C 1258.93 -1.12664 -5.80569 0
M  V30 13611 C 1258.29 -1.91058 -6.77994 0
M  V30 13612 H 1254.39 0.239542 -0.744408 0
M  V30 13613 H 1256.97 -0.0149454 -1.94694 0
M  V30 13614 H 1255.14 2.15226 -3.23314 0
M  V30 13615 H 1256.88 2.08183 -3.47047 0
M  V30 13616 H 1253.63 0.488471 -4.71074 0
M  V30 13617 H 1254.06 -1.27642 -6.64858 0
M  V30 13618 H 1258.7 0.309735 -4.21664 0
M  V30 13619 H 1256.42 -2.47038 -7.69414 0
M  V30 13620 H 1260 -1.18251 -5.69656 0
M  V30 13621 H 1258.88 -2.55358 -7.41459 0
M  V30 13622 N 1256.39 1.54543 0.308881 0
M  V30 13623 C 1257.32 1.81309 1.40212 0
M  V30 13624 C 1258.33 0.69568 1.47187 0
M  V30 13625 O 1259.52 0.973034 1.49647 0
M  V30 13626 C 1256.62 1.92901 2.78644 0
M  V30 13627 C 1255.79 3.23222 2.94697 0
M  V30 13628 C 1254.85 3.25329 4.13579 0
M  V30 13629 O 1253.88 3.989 4.06039 0
M  V30 13630 N 1255.08 2.50158 5.23833 0
M  V30 13631 H 1257.84 2.75659 1.1761 0
M  V30 13632 H 1255.41 1.54021 0.498925 0
M  V30 13633 H 1257.4 1.91721 3.56406 0
M  V30 13634 H 1255.97 1.05582 2.9423 0
M  V30 13635 H 1255.19 3.37241 2.04113 0
M  V30 13636 H 1256.48 4.09238 3.02328 0
M  V30 13637 H 1255.87 1.90002 5.32838 0
M  V30 13638 H 1254.43 2.5474 5.99959 0
M  V30 13639 N 1257.86 -0.571685 1.46866 0
M  V30 13640 C 1258.8 -1.69475 1.54307 0
M  V30 13641 C 1259.81 -1.57006 0.430449 0
M  V30 13642 O 1261 -1.64229 0.69936 0
M  V30 13643 C 1258.1 -3.07824 1.41766 0
M  V30 13644 C 1257.27 -3.46189 2.67342 0
M  V30 13645 C 1256.33 -4.63642 2.48843 0
M  V30 13646 O 1255.36 -4.68949 3.22608 0
M  V30 13647 N 1256.56 -5.59223 1.55724 0
M  V30 13648 H 1259.32 -1.63543 2.51145 0
M  V30 13649 H 1256.88 -0.757957 1.43062 0
M  V30 13650 H 1258.88 -3.84208 1.27146 0
M  V30 13651 H 1257.45 -3.08063 0.530667 0
M  V30 13652 H 1256.67 -2.59399 2.96826 0
M  V30 13653 H 1257.95 -3.68591 3.50739 0
M  V30 13654 H 1257.35 -5.5768 0.949175 0
M  V30 13655 H 1255.91 -6.34993 1.47063 0
M  V30 13656 N 1259.34 -1.34755 -0.817236 0
M  V30 13657 C 1260.59 -1.2718 -1.57066 0
M  V30 13658 C 1260.91 0.156531 -1.94371 0
M  V30 13659 O 1260.18 1.09049 -1.62742 0
M  V30 13660 H 1258.76 -0.467755 -0.582421 0
M  V30 13661 H 1261.42 -1.68734 -0.975438 0
M  V30 13662 H 1260.52 -1.88043 -2.49091 0
M  V30 13663 N 1260.82 1.03812 -1.18578 0
M  V30 13664 C 1261.77 2.13994 -0.911563 0
M  V30 13665 C 1262.76 1.68907 0.129131 0
M  V30 13666 O 1263.97 1.7999 -0.0192557 0
M  V30 13667 H 1260.34 0.698996 -0.277324 0
M  V30 13668 H 1262.31 2.34318 -1.84763 0
M  V30 13669 C 1261.06 3.44689 -0.456591 0
M  V30 13670 H 1260.39 3.79793 -1.2489 0
M  V30 13671 H 1261.83 4.22911 -0.303738 0
M  V30 13672 C 1260.28 3.26568 0.827961 0
M  V30 13673 O 1260.81 3.54376 1.89158 0
M  V30 13674 N 1259.02 2.79893 0.781567 0
M  V30 13675 H 1258.57 2.57462 -0.0842145 0
M  V30 13676 H 1258.53 2.68148 1.64146 0
M  V30 13677 N 1262.3 0.988223 1.22768 0
M  V30 13678 C 1263.54 0.662441 1.91676 0
M  V30 13679 C 1263.88 -0.802931 1.76824 0
M  V30 13680 O 1263.15 -1.58011 1.13415 0
M  V30 13681 C 1263.43 1.06332 3.44043 0
M  V30 13682 C 1263.29 2.5869 3.67967 0
M  V30 13683 C 1264.61 0.613058 4.35809 0
M  V30 13684 H 1261.73 0.242132 0.69609 0
M  V30 13685 H 1264.37 1.23091 1.44736 0
M  V30 13686 H 1262.52 0.579623 3.84152 0
M  V30 13687 H 1264.19 3.14694 3.37291 0
M  V30 13688 H 1262.43 3.00971 3.12408 0
M  V30 13689 H 1263.1 2.8179 4.74656 0
M  V30 13690 H 1265.58 1.02846 4.0319 0
M  V30 13691 H 1264.46 0.921901 5.41103 0
M  V30 13692 H 1264.72 -0.48641 4.39416 0
M  V30 13693 N 1263.78 -1.38018 0.760839 0
M  V30 13694 C 1265.02 -1.99952 0.320241 0
M  V30 13695 C 1265.35 -1.60397 -1.10014 0
M  V30 13696 O 1264.61 -0.836407 -1.76926 0
M  V30 13697 C 1264.9 -3.55168 0.398778 0
M  V30 13698 C 1264.57 -4.14457 1.77585 0
M  V30 13699 C 1263.23 -4.30363 2.15269 0
M  V30 13700 C 1265.58 -4.47089 2.67883 0
M  V30 13701 C 1262.91 -4.762 3.4271 0
M  V30 13702 C 1265.26 -4.94345 3.94722 0
M  V30 13703 C 1263.93 -5.08458 4.32466 0
M  V30 13704 H 1263.2 -0.731675 0.117185 0
M  V30 13705 H 1265.85 -1.64955 0.972736 0
M  V30 13706 H 1264.15 -3.90346 -0.337273 0
M  V30 13707 H 1265.85 -4.00981 0.0393393 0
M  V30 13708 H 1262.44 -4.02496 1.47292 0
M  V30 13709 H 1266.62 -4.34395 2.40031 0
M  V30 13710 H 1261.88 -4.85312 3.71863 0
M  V30 13711 H 1266.05 -5.18563 4.64828 0
M  V30 13712 H 1263.68 -5.43735 5.31278 0
M  V30 13713 N 1265.25 -0.510493 -1.49103 0
M  V30 13714 C 1266.48 0.0293113 -2.07379 0
M  V30 13715 C 1266.9 1.29195 -1.36713 0
M  V30 13716 O 1266.26 1.76204 -0.426838 0
M  V30 13717 C 1266.31 0.25629 -3.59688 0
M  V30 13718 O 1265.41 1.32907 -3.90397 0
M  V30 13719 H 1264.75 -0.0304449 -0.663302 0
M  V30 13720 H 1267.28 -0.712832 -1.91781 0
M  V30 13721 H 1267.29 0.484915 -4.05108 0
M  V30 13722 H 1265.97 -0.666163 -4.1053 0
M  V30 13723 H 1264.55 1.08464 -3.56777 0
M  V30 13724 N 1266.73 1.55688 -0.24474 0
M  V30 13725 C 1267.97 2.00796 0.382167 0
M  V30 13726 C 1268.34 1.12917 1.55286 0
M  V30 13727 O 1269.54 1.47471 2.24735 0
M  V30 13728 C 1267.81 3.48702 0.783708 0
M  V30 13729 S 1269.37 4.15818 1.40145 0
M  V30 13730 H 1266.18 0.700742 0.120343 0
M  V30 13731 H 1268.79 1.92167 -0.359468 0
M  V30 13732 H 1267.49 4.10327 -0.0776558 0
M  V30 13733 H 1267.02 3.61252 1.55758 0
M  V30 13734 H 1269.04 4.16925 2.6905 0
M  V30 13735 N 1268.21 -0.0283989 1.57574 0
M  V30 13736 C 1269.43 -0.734537 1.93957 0
M  V30 13737 C 1269.86 -1.68062 0.844787 0
M  V30 13738 O 1269.22 -1.802 -0.199432 0
M  V30 13739 C 1269.27 -1.46716 3.29404 0
M  V30 13740 O 1268.37 -2.58036 3.217 0
M  V30 13741 H 1267.71 -0.197507 0.633946 0
M  V30 13742 H 1270.24 0.0163258 2.04593 0
M  V30 13743 H 1270.25 -1.83693 3.64309 0
M  V30 13744 H 1268.93 -0.773292 4.08648 0
M  V30 13745 H 1267.5 -2.23597 2.98427 0
M  V30 13746 N 1269.69 -1.54705 -0.300681 0
M  V30 13747 C 1270.93 -1.74259 -1.03738 0
M  V30 13748 C 1271.27 -0.52703 -1.86912 0
M  V30 13749 O 1270.54 0.475862 -1.88589 0
M  V30 13750 C 1270.82 -3.03175 -1.94311 0
M  V30 13751 C 1270.68 -4.35031 -1.14315 0
M  V30 13752 C 1272 -3.27962 -2.93478 0
M  V30 13753 H 1269.12 -0.634031 -0.37573 0
M  V30 13754 H 1271.76 -1.87421 -0.312012 0
M  V30 13755 H 1269.91 -2.92086 -2.5616 0
M  V30 13756 H 1271.58 -4.5804 -0.547489 0
M  V30 13757 H 1269.82 -4.31503 -0.44587 0
M  V30 13758 H 1270.49 -5.21502 -1.80941 0
M  V30 13759 H 1272.97 -3.38663 -2.41757 0
M  V30 13760 H 1271.85 -4.19481 -3.54016 0
M  V30 13761 H 1272.11 -2.46273 -3.67154 0
M  V30 13762 N 1271.17 0.563888 -1.47167 0
M  V30 13763 C 1272.1 1.68689 -1.53685 0
M  V30 13764 C 1273.08 1.57866 -0.389486 0
M  V30 13765 O 1274.26 1.78819 -0.596336 0
M  V30 13766 C 1271.39 3.06887 -1.43311 0
M  V30 13767 C 1270.43 3.36175 -2.62466 0
M  V30 13768 S 1271.27 3.26166 -4.24707 0
M  V30 13769 C 1272.42 4.66868 -4.16875 0
M  V30 13770 H 1272.66 1.62905 -2.48695 0
M  V30 13771 H 1270.19 0.74417 -1.35283 0
M  V30 13772 H 1272.15 3.86604 -1.38014 0
M  V30 13773 H 1270.81 3.10144 -0.496971 0
M  V30 13774 H 1270 4.36907 -2.51253 0
M  V30 13775 H 1269.6 2.64064 -2.64852 0
M  V30 13776 H 1271.9 5.57673 -3.84717 0
M  V30 13777 H 1272.84 4.83139 -5.1767 0
M  V30 13778 H 1273.25 4.44601 -3.47836 0
M  V30 13779 N 1272.64 1.35187 0.810078 0
M  V30 13780 C 1273.59 1.24366 1.91094 0
M  V30 13781 C 1274.58 0.139718 1.60292 0
M  V30 13782 O 1275.77 0.370609 1.73077 0
M  V30 13783 C 1272.9 1.01434 3.27973 0
M  V30 13784 C 1271.99 2.16203 3.64852 0
M  V30 13785 N 1272.38 3.41408 3.73195 0
M  V30 13786 C 1270.67 2.07512 3.94784 0
M  V30 13787 C 1271.38 4.16858 4.05714 0
M  V30 13788 N 1270.35 3.45579 4.19614 0
M  V30 13789 H 1274.15 2.19232 1.95741 0
M  V30 13790 H 1271.67 1.2761 1.00447 0
M  V30 13791 H 1273.66 0.91771 4.06674 0
M  V30 13792 H 1272.32 0.074495 3.24615 0
M  V30 13793 H 1273.34 3.75802 3.56361 0
M  V30 13794 H 1270.01 1.21362 3.99472 0
M  V30 13795 H 1271.4 5.25039 4.19266 0
M  V30 13796 N 1274.12 -1.03182 1.19127 0
M  V30 13797 C 1275.03 -2.14875 0.94159 0
M  V30 13798 C 1276.05 -1.73727 -0.0973872 0
M  V30 13799 O 1277.22 -2.01214 0.0865775 0
M  V30 13800 C 1274.29 -3.43356 0.480366 0
M  V30 13801 C 1273.35 -3.98835 1.58838 0
M  V30 13802 C 1272.58 -5.21183 1.14907 0
M  V30 13803 O 1272.81 -5.70399 0.0114141 0
M  V30 13804 O 1271.74 -5.69423 1.95042 0
M  V30 13805 H 1275.57 -2.38799 1.8764 0
M  V30 13806 H 1273.15 -1.13299 0.973841 0
M  V30 13807 H 1275.03 -4.20763 0.231658 0
M  V30 13808 H 1273.71 -3.20884 -0.426041 0
M  V30 13809 H 1272.62 -3.22776 1.8912 0
M  V30 13810 H 1273.95 -4.25665 2.47123 0
M  V30 13811 N 1275.6 -0.99472 -1.22242 0
M  V30 13812 C 1276.56 -0.551619 -2.22463 0
M  V30 13813 C 1277.56 0.366498 -1.56568 0
M  V30 13814 O 1278.75 0.158204 -1.7348 0
M  V30 13815 C 1275.89 0.197416 -3.40328 0
M  V30 13816 H 1277.08 -1.43795 -2.63179 0
M  V30 13817 H 1274.63 -0.782121 -1.35324 0
M  V30 13818 H 1275.37 1.09965 -3.05087 0
M  V30 13819 H 1275.15 -0.461829 -3.89371 0
M  V30 13820 H 1276.64 0.495534 -4.1465 0
M  V30 13821 N 1277.08 1.37613 -0.768148 0
M  V30 13822 C 1278.01 2.3291 -0.165911 0
M  V30 13823 C 1278.99 1.556 0.687205 0
M  V30 13824 O 1280.17 1.83854 0.625407 0
M  V30 13825 C 1277.3 3.39822 0.7168 0
M  V30 13826 C 1276.26 4.27986 -0.0347264 0
M  V30 13827 C 1275.58 5.2588 0.967192 0
M  V30 13828 C 1276.88 5.08052 -1.21164 0
M  V30 13829 H 1278.58 2.83524 -0.962006 0
M  V30 13830 H 1276.12 1.36318 -0.464051 0
M  V30 13831 H 1278.08 4.05464 1.14789 0
M  V30 13832 H 1276.8 2.87725 1.54538 0
M  V30 13833 H 1275.46 3.6387 -0.446557 0
M  V30 13834 H 1275.11 4.70064 1.79022 0
M  V30 13835 H 1274.81 5.85726 0.468913 0
M  V30 13836 H 1276.33 5.94397 1.3973 0
M  V30 13837 H 1277.75 5.66853 -0.857373 0
M  V30 13838 H 1276.14 5.77206 -1.64176 0
M  V30 13839 H 1277.21 4.40936 -2.0175 0
M  V30 13840 N 1278.56 0.518393 1.4883 0
M  V30 13841 C 1279.51 -0.270295 2.26392 0
M  V30 13842 C 1280.49 -0.9202 1.31989 0
M  V30 13843 O 1281.68 -0.824923 1.56601 0
M  V30 13844 C 1278.81 -1.32368 3.16755 0
M  V30 13845 C 1277.9 -0.679143 4.18627 0
M  V30 13846 N 1278.29 0.228392 5.05284 0
M  V30 13847 C 1276.59 -0.937712 4.36031 0
M  V30 13848 C 1277.29 0.599076 5.78607 0
M  V30 13849 N 1276.26 -0.0371273 5.43587 0
M  V30 13850 H 1280.07 0.428066 2.90766 0
M  V30 13851 H 1277.58 0.335632 1.58894 0
M  V30 13852 H 1279.58 -1.9023 3.70969 0
M  V30 13853 H 1278.24 -2.02354 2.53935 0
M  V30 13854 H 1279.25 0.600292 5.14409 0
M  V30 13855 H 1275.92 -1.62901 3.84408 0
M  V30 13856 H 1277.31 1.34256 6.5835 0
M  V30 13857 N 1280.03 -1.55556 0.252993 0
M  V30 13858 C 1280.98 -2.23035 -0.660161 0
M  V30 13859 C 1281.98 -1.21994 -1.17532 0
M  V30 13860 O 1283.18 -1.39989 -1.13151 0
M  V30 13861 H 1279.56 -0.715516 -0.23139 0
M  V30 13862 H 1281.53 -2.98323 -0.0679506 0
M  V30 13863 C 1280.28 -2.94817 -1.84332 0
M  V30 13864 H 1279.6 -3.72342 -1.45607 0
M  V30 13865 H 1281.04 -3.45386 -2.45936 0
M  V30 13866 C 1279.5 -1.99033 -2.71822 0
M  V30 13867 O 1280.03 -1.5273 -3.71533 0
M  V30 13868 N 1278.24 -1.66004 -2.38518 0
M  V30 13869 H 1277.78 -2.03853 -1.57485 0
M  V30 13870 H 1277.74 -1.02183 -2.97331 0
M  V30 13871 N 1281.51 0.0200419 -1.57587 0
M  V30 13872 C 1282.46 1.0259 -2.03615 0
M  V30 13873 C 1283.45 1.31504 -0.927116 0
M  V30 13874 O 1284.64 1.30938 -1.19098 0
M  V30 13875 C 1281.77 2.32424 -2.52654 0
M  V30 13876 C 1280.85 2.06561 -3.70396 0
M  V30 13877 N 1281.24 1.50787 -4.82801 0
M  V30 13878 C 1279.54 2.36802 -3.77943 0
M  V30 13879 C 1280.24 1.40935 -5.64369 0
M  V30 13880 N 1279.22 1.88806 -5.09758 0
M  V30 13881 H 1283.02 0.588835 -2.87941 0
M  V30 13882 H 1280.54 0.226163 -1.60817 0
M  V30 13883 H 1282.53 3.05303 -2.83894 0
M  V30 13884 H 1281.19 2.76801 -1.69738 0
M  V30 13885 H 1282.2 1.18935 -5.04058 0
M  V30 13886 H 1278.88 2.84192 -3.05845 0
M  V30 13887 H 1280.27 0.982261 -6.64681 0
M  V30 13888 N 1282.99 1.54862 0.292472 0
M  V30 13889 C 1284.22 1.78291 1.04383 0
M  V30 13890 C 1284.63 0.546703 1.81129 0
M  V30 13891 O 1283.97 -0.493286 1.76953 0
M  V30 13892 C 1284.03 2.94321 2.06435 0
M  V30 13893 C 1283.7 4.32095 1.48806 0
M  V30 13894 C 1284.69 5.11808 0.91369 0
M  V30 13895 C 1282.38 4.78714 1.52112 0
M  V30 13896 C 1284.37 6.36266 0.380053 0
M  V30 13897 C 1282.06 6.03132 0.983613 0
M  V30 13898 C 1283.06 6.81744 0.41406 0
M  V30 13899 O 1282.75 8.03817 -0.115268 0
M  V30 13900 H 1282.48 0.598147 0.314954 0
M  V30 13901 H 1285.03 2.02655 0.334661 0
M  V30 13902 H 1283.26 2.65602 2.81056 0
M  V30 13903 H 1284.95 3.05249 2.67541 0
M  V30 13904 H 1285.72 4.76931 0.880988 0
M  V30 13905 H 1281.6 4.17549 1.95382 0
M  V30 13906 H 1285.14 6.9757 -0.0651481 0
M  V30 13907 H 1281.04 6.37494 1.01349 0
M  V30 13908 H 1281.81 8.185 -0.00277496 0
M  V30 13909 N 1284.47 -0.556076 1.47464 0
M  V30 13910 C 1285.7 -1.33858 1.57764 0
M  V30 13911 C 1286.11 -1.87415 0.22825 0
M  V30 13912 O 1285.47 -1.65054 -0.778674 0
M  V30 13913 C 1285.52 -2.5077 2.60378 0
M  V30 13914 O 1285.24 -1.99426 3.90078 0
M  V30 13915 C 1286.74 -3.42965 2.80873 0
M  V30 13916 H 1283.96 -0.408003 0.532705 0
M  V30 13917 H 1286.51 -0.673501 1.93091 0
M  V30 13918 H 1284.66 -3.13214 2.27982 0
M  V30 13919 H 1285.07 -2.75759 4.46158 0
M  V30 13920 H 1286.55 -4.21412 3.56533 0
M  V30 13921 H 1287.03 -3.96579 1.88737 0
M  V30 13922 H 1287.63 -2.86336 3.14471 0
M  V30 13923 N 1285.95 -1.35615 -0.802897 0
M  V30 13924 C 1286.88 -1.24695 -1.92312 0
M  V30 13925 C 1287.89 -0.169409 -1.61916 0
M  V30 13926 O 1289.08 -0.422995 -1.73416 0
M  V30 13927 C 1286.18 -0.898229 -3.2678 0
M  V30 13928 C 1285.35 -2.07489 -3.85054 0
M  V30 13929 C 1284.41 -1.70137 -4.97936 0
M  V30 13930 O 1283.44 -2.42057 -5.15167 0
M  V30 13931 N 1284.64 -0.627153 -5.77102 0
M  V30 13932 H 1287.41 -2.21208 -2.02205 0
M  V30 13933 H 1284.97 -1.28832 -0.980503 0
M  V30 13934 H 1286.96 -0.629766 -3.9977 0
M  V30 13935 H 1285.53 -0.0226571 -3.12592 0
M  V30 13936 H 1284.75 -2.50694 -3.04214 0
M  V30 13937 H 1286.04 -2.86133 -4.2072 0
M  V30 13938 H 1285.44 -0.0296879 -5.65692 0
M  V30 13939 H 1283.99 -0.41848 -6.50455 0
M  V30 13940 N 1287.43 1.02549 -1.19673 0
M  V30 13941 C 1288.37 2.109 -0.937536 0
M  V30 13942 C 1289.34 1.65599 0.128923 0
M  V30 13943 O 1290.53 1.90795 -0.0139366 0
M  V30 13944 C 1287.67 3.4166 -0.48602 0
M  V30 13945 C 1286.78 4.0049 -1.61963 0
M  V30 13946 C 1285.92 5.19273 -1.11931 0
M  V30 13947 C 1284.95 5.70166 -2.22659 0
M  V30 13948 N 1284.09 6.80221 -1.73909 0
M  V30 13949 H 1288.93 2.32408 -1.86523 0
M  V30 13950 H 1286.47 1.13982 -0.929869 0
M  V30 13951 H 1288.43 4.16693 -0.205614 0
M  V30 13952 H 1287.06 3.20253 0.404678 0
M  V30 13953 H 1286.11 3.22638 -2.01516 0
M  V30 13954 H 1287.42 4.34273 -2.45374 0
M  V30 13955 H 1286.57 6.01478 -0.794336 0
M  V30 13956 H 1285.31 4.87033 -0.254972 0
M  V30 13957 H 1284.32 4.86572 -2.55983 0
M  V30 13958 H 1285.54 6.04444 -3.09554 0
M  V30 13959 H 1283.49 6.49826 -0.897889 0
M  V30 13960 H 1283.41 7.13149 -2.50907 0
M  V30 13961 H 1284.67 7.66011 -1.44386 0
M  V30 13962 N 1288.9 1.00119 1.21713 0
M  V30 13963 C 1290.13 0.700172 1.95224 0
M  V30 13964 C 1290.55 -0.730138 1.73351 0
M  V30 13965 O 1289.91 -1.50026 1.01794 0
M  V30 13966 C 1289.96 1.02202 3.45814 0
M  V30 13967 O 1289.06 0.125188 4.1221 0
M  V30 13968 H 1288.4 0.261238 0.610451 0
M  V30 13969 H 1290.93 1.34041 1.54578 0
M  V30 13970 H 1290.94 0.967293 3.96368 0
M  V30 13971 H 1289.62 2.06422 3.61058 0
M  V30 13972 H 1288.2 0.236114 3.72152 0
M  V30 13973 N 1290.38 -1.37203 0.775435 0
M  V30 13974 C 1291.31 -2.32819 0.17826 0
M  V30 13975 C 1292.29 -1.55963 -0.678944 0
M  V30 13976 O 1293.48 -1.84183 -0.615648 0
M  V30 13977 C 1290.61 -3.40198 -0.698768 0
M  V30 13978 C 1289.56 -4.27961 0.057423 0
M  V30 13979 C 1288.89 -5.26385 -0.93929 0
M  V30 13980 C 1290.19 -5.07402 1.23856 0
M  V30 13981 H 1291.88 -2.8301 0.977028 0
M  V30 13982 H 1289.43 -1.3607 0.471274 0
M  V30 13983 H 1291.38 -4.06067 -1.12637 0
M  V30 13984 H 1290.1 -2.88541 -1.53009 0
M  V30 13985 H 1288.76 -3.63628 0.465848 0
M  V30 13986 H 1288.41 -4.71007 -1.76527 0
M  V30 13987 H 1288.11 -5.85966 -0.437844 0
M  V30 13988 H 1289.64 -5.9513 -1.36576 0
M  V30 13989 H 1291.05 -5.6639 0.887423 0
M  V30 13990 H 1289.45 -5.76327 1.67234 0
M  V30 13991 H 1290.52 -4.3986 2.04085 0
M  V30 13992 N 1291.86 -0.526279 -1.48553 0
M  V30 13993 C 1293.08 0.00731432 -2.07399 0
M  V30 13994 C 1293.51 1.27737 -1.38075 0
M  V30 13995 O 1292.87 1.75741 -0.445503 0
M  V30 13996 C 1292.92 0.218126 -3.5994 0
M  V30 13997 O 1292.02 1.28759 -3.91784 0
M  V30 13998 H 1291.36 -0.0374784 -0.662941 0
M  V30 13999 H 1293.89 -0.733133 -1.91014 0
M  V30 14000 H 1293.9 0.44192 -4.056 0
M  V30 14001 H 1292.58 -0.709668 -4.09801 0
M  V30 14002 H 1291.15 1.04674 -3.57907 0
M  V30 14003 N 1293.34 1.5542 -0.261239 0
M  V30 14004 C 1294.27 2.24949 0.626126 0
M  V30 14005 C 1295.25 1.23474 1.16997 0
M  V30 14006 O 1296.43 1.52161 1.20667 0
M  V30 14007 C 1293.56 2.95996 1.81669 0
M  V30 14008 C 1292.52 4.04282 1.40499 0
M  V30 14009 C 1291.84 4.62831 2.67753 0
M  V30 14010 C 1293.14 5.1923 0.56543 0
M  V30 14011 H 1294.84 2.99364 0.0463164 0
M  V30 14012 H 1292.38 1.43985 0.0208366 0
M  V30 14013 H 1294.34 3.43343 2.44323 0
M  V30 14014 H 1293.06 2.19093 2.42211 0
M  V30 14015 H 1291.72 3.57726 0.801712 0
M  V30 14016 H 1291.37 3.82611 3.26524 0
M  V30 14017 H 1291.07 5.35938 2.40925 0
M  V30 14018 H 1292.59 5.12918 3.31281 0
M  V30 14019 H 1294.01 5.62714 1.09663 0
M  V30 14020 H 1292.4 5.98814 0.392607 0
M  V30 14021 H 1293.47 4.83086 -0.419059 0
M  V30 14022 N 1294.82 -0.0116844 1.57596 0
M  V30 14023 C 1296.04 -0.713924 1.94725 0
M  V30 14024 C 1296.47 -1.67157 0.862565 0
M  V30 14025 O 1295.82 -1.80401 -0.180308 0
M  V30 14026 C 1295.87 -1.43214 3.30941 0
M  V30 14027 O 1294.98 -2.5461 3.24419 0
M  V30 14028 H 1294.32 -0.190772 0.636005 0
M  V30 14029 H 1296.85 0.0380247 2.04565 0
M  V30 14030 H 1296.86 -1.79819 3.66237 0
M  V30 14031 H 1295.53 -0.729906 4.09445 0
M  V30 14032 H 1294.11 -2.20419 3.00782 0
M  V30 14033 N 1296.29 -1.55015 -0.284256 0
M  V30 14034 C 1297.7 -1.65915 -0.856104 0
M  V30 14035 C 1298.06 -0.578758 -1.8747 0
M  V30 14036 O 1297.18 0.281733 -2.14558 0
M  V30 14037 C 1297.78 -3.0077 -1.55957 0
M  V30 14038 C 1296.33 -3.13735 -2.0796 0
M  V30 14039 C 1295.48 -2.61669 -0.917849 0
M  V30 14040 H 1298.43 -1.58583 -0.0608587 0
M  V30 14041 H 1298.45 -2.9313 -2.42601 0
M  V30 14042 H 1297.97 -3.79382 -0.81798 0
M  V30 14043 H 1296.07 -2.39875 -2.85115 0
M  V30 14044 H 1296.18 -4.20138 -2.30263 0
M  V30 14045 H 1294.54 -2.18542 -1.3081 0
M  V30 14046 H 1295.33 -3.42774 -0.189946 0
M  V30 14047 N 1297.77 0.548248 -1.47757 0
M  V30 14048 C 1299.02 1.30243 -1.54535 0
M  V30 14049 C 1299.34 1.93832 -0.213089 0
M  V30 14050 O 1298.61 1.80397 0.763782 0
M  V30 14051 H 1297.19 0.483684 -0.569262 0
M  V30 14052 H 1299.85 0.639485 -1.8411 0
M  V30 14053 H 1298.95 2.09128 -2.31672 0
M  V30 14054 N 1299.25 1.36039 0.795694 0
M  V30 14055 C 1300.2 1.29853 1.90806 0
M  V30 14056 C 1301.17 0.168387 1.65244 0
M  V30 14057 O 1302.35 0.353879 1.8749 0
M  V30 14058 C 1299.49 1.08737 3.27521 0
M  V30 14059 C 1298.6 2.30771 3.65197 0
M  V30 14060 C 1297.74 2.02718 4.90998 0
M  V30 14061 C 1296.78 3.20746 5.21333 0
M  V30 14062 N 1295.92 2.92399 6.38316 0
M  V30 14063 H 1300.76 2.2497 1.95429 0
M  V30 14064 H 1298.29 1.11819 0.955771 0
M  V30 14065 H 1300.25 0.945236 4.06351 0
M  V30 14066 H 1298.88 0.172781 3.22337 0
M  V30 14067 H 1297.93 2.5581 2.81541 0
M  V30 14068 H 1299.24 3.18869 3.83568 0
M  V30 14069 H 1298.4 1.85398 5.77679 0
M  V30 14070 H 1297.14 1.11921 4.74684 0
M  V30 14071 H 1296.14 3.38632 4.33138 0
M  V30 14072 H 1297.37 4.1236 5.3957 0
M  V30 14073 H 1295.31 2.04207 6.23406 0
M  V30 14074 H 1295.23 3.74034 6.56989 0
M  V30 14075 H 1296.5 2.78643 7.27996 0
M  V30 14076 O 1300.77 -0.935015 1.3168 0
M  V30 14077 H 1301.46 -1.56589 1.14015 0
M  V30 END ATOM
M  V30 BEGIN BOND
M  V30 END BOND
M  V30 END CTAB
M  END
$$$$
