drugbank_target|P50579 Methionine aminopeptidase 2 (DB00134; DB01422; DB02310; DB02640; DB02893; DB03086; DB03396; DB03900; DB04108; DB04324; DB05864; DB07309; DB07313; DB07322; DB07323; DB07377; DB07746; DB08633)
 OpenBabel12092119553D

  0  0  0     0  0            999 V3000
M  V30 BEGIN CTAB
M  V30 COUNTS 7341 7408 0 0 0
M  V30 BEGIN ATOM
M  V30 1 H -0.908 1.98254 -0.117106 0
M  V30 2 N 0 1.576 0 0
M  V30 3 C 0.933 2.03868 1.02534 0
M  V30 4 C 1.911 0.928543 1.3348 0
M  V30 5 O 3.095 1.19667 1.45644 0
M  V30 6 C 0.222 2.43627 2.35294 0
M  V30 7 C -0.732 3.65373 2.2001 0
M  V30 8 S 0.101 5.13292 1.52614 0
M  V30 9 C 1.257 5.56322 2.86805 0
M  V30 10 H 1.49 2.90518 0.631377 0
M  V30 11 H -0.977 1.52953 0.210867 0
M  V30 12 H 0.981 2.67203 3.11629 0
M  V30 13 H -0.358 1.57376 2.7183 0
M  V30 14 H -1.165 3.90944 3.18086 0
M  V30 15 H -1.563 3.418 1.51819 0
M  V30 16 H 0.729 5.58782 3.83104 0
M  V30 17 H 1.672 6.56266 2.65933 0
M  V30 18 H 2.08 4.83886 2.90714 0
M  V30 19 N 1.4781 -0.272755 1.55222 0
M  V30 20 C 2.4411 -1.32041 1.87344 0
M  V30 21 C 3.4411 -1.42342 0.74803 0
M  V30 22 O 4.6311 -1.41488 1.0162 0
M  V30 23 C 1.7631 -2.70173 2.07893 0
M  V30 24 H 2.9561 -1.04789 2.80997 0
M  V30 25 H 0.5091 -0.51083 1.47717 0
M  V30 26 H 1.2441 -3.02605 1.16622 0
M  V30 27 H 1.0291 -2.64082 2.89833 0
M  V30 28 H 2.5191 -3.45869 2.34017 0
M  V30 29 N 2.9562 -1.48159 -0.537278 0
M  V30 30 C 4.2042 -1.55497 -1.29094 0
M  V30 31 C 4.5252 -0.227454 -1.93669 0
M  V30 32 O 3.7952 0.750386 -1.80959 0
M  V30 33 H 2.3752 -0.572832 -0.47945 0
M  V30 34 H 5.0372 -1.84579 -0.625818 0
M  V30 35 H 4.1332 -2.33216 -2.07405 0
M  V30 36 N 4.4343 0.785586 -1.36625 0
M  V30 37 C 5.6803 1.54591 -1.31261 0
M  V30 38 C 6.0133 1.93906 0.106823 0
M  V30 39 O 5.2883 1.63007 1.06108 0
M  V30 40 C 5.5713 2.82038 -2.23889 0
M  V30 41 C 5.4243 2.49066 -3.74548 0
M  V30 42 C 6.7433 3.83887 -2.15217 0
M  V30 43 H 3.8623 0.560846 -0.478143 0
M  V30 44 H 6.5043 0.902278 -1.67209 0
M  V30 45 H 4.6543 3.36961 -1.93363 0
M  V30 46 H 6.3263 2.00164 -4.15611 0
M  V30 47 H 4.5693 1.81954 -3.93796 0
M  V30 48 H 5.2403 3.40109 -4.34776 0
M  V30 49 H 7.7163 3.38421 -2.42096 0
M  V30 50 H 6.5923 4.70806 -2.82193 0
M  V30 51 H 6.8533 4.27131 -1.14068 0
M  V30 52 N 5.9124 1.20967 1.01018 0
M  V30 53 C 6.8224 0.980157 2.13143 0
M  V30 54 C 7.8384 -0.0660665 1.73875 0
M  V30 55 O 9.0144 0.122821 2.01025 0
M  V30 56 C 6.0794 0.54216 3.42435 0
M  V30 57 C 5.1404 1.65999 3.95908 0
M  V30 58 C 4.3734 1.2428 5.19028 0
M  V30 59 O 4.5964 0.114196 5.70286 0
M  V30 60 O 3.5304 2.05271 5.65816 0
M  V30 61 H 7.3564 1.91913 2.35379 0
M  V30 62 H 4.9414 0.994099 1.11526 0
M  V30 63 H 6.8234 0.30744 4.20277 0
M  V30 64 H 5.4984 -0.36815 3.216 0
M  V30 65 H 4.4054 1.94906 3.19316 0
M  V30 66 H 5.7384 2.54753 4.21143 0
M  V30 67 N 7.3905 -1.2043 1.01659 0
M  V30 68 C 8.3005 -2.2689 0.596484 0
M  V30 69 C 9.3165 -1.70107 -0.36599 0
M  V30 70 O 10.4925 -2.00117 -0.226942 0
M  V30 71 C 7.5575 -3.4665 -0.0586659 0
M  V30 72 C 6.6185 -4.18662 0.949751 0
M  V30 73 C 5.8515 -5.32705 0.32577 0
M  V30 74 O 6.0745 -5.63656 -0.874509 0
M  V30 75 O 5.0085 -5.92803 1.04249 0
M  V30 76 H 8.8345 -2.65041 1.4828 0
M  V30 77 H 6.4195 -1.27048 0.786082 0
M  V30 78 H 8.3015 -4.19256 -0.424564 0
M  V30 79 H 6.9765 -3.10375 -0.91918 0
M  V30 80 H 5.8835 -3.48229 1.36702 0
M  V30 81 H 7.2165 -4.58878 1.78023 0
M  V30 82 N 8.8686 -0.792821 -1.36206 0
M  V30 83 C 10.1146 -0.36733 -1.99446 0
M  V30 84 C 10.4476 1.05917 -1.62774 0
M  V30 85 O 9.7226 1.7324 -0.88421 0
M  V30 86 C 10.0056 -0.535044 -3.56103 0
M  V30 87 C 9.8586 -2.00548 -4.02617 0
M  V30 88 C 11.1776 0.0478191 -4.40074 0
M  V30 89 H 8.2966 -0.134941 -0.724541 0
M  V30 90 H 10.9386 -0.999794 -1.61568 0
M  V30 91 H 9.0886 0.00336329 -3.885 0
M  V30 92 H 10.7606 -2.60521 -3.80692 0
M  V30 93 H 9.0036 -2.50686 -3.54032 0
M  V30 94 H 9.6746 -2.07377 -5.11565 0
M  V30 95 H 12.1506 -0.411822 -4.14057 0
M  V30 96 H 11.0266 -0.0995336 -5.4881 0
M  V30 97 H 11.2876 1.14025 -4.27142 0
M  V30 98 N 10.3467 1.47872 -0.545128 0
M  V30 99 C 11.3097 2.28337 0.198717 0
M  V30 100 C 12.3097 1.36255 0.853888 0
M  V30 101 O 13.4997 1.59003 0.711606 0
M  V30 102 C 10.6317 3.15585 1.28915 0
M  V30 103 H 11.8247 2.95567 -0.507941 0
M  V30 104 H 9.3777 1.53362 -0.301616 0
M  V30 105 H 10.1127 2.53019 2.02859 0
M  V30 106 H 9.8977 3.83337 0.824309 0
M  V30 107 H 11.3877 3.76243 1.81194 0
M  V30 108 N 11.8248 0.280983 1.55075 0
M  V30 109 C 12.7878 -0.590896 2.21452 0
M  V30 110 C 13.7878 -1.07682 1.19421 0
M  V30 111 O 14.9778 -0.97605 1.44288 0
M  V30 112 C 12.1098 -1.81587 2.88511 0
M  V30 113 H 13.3028 -0.0112554 2.99898 0
M  V30 114 H 10.8558 0.0316438 1.56268 0
M  V30 115 H 11.5908 -2.43587 2.14093 0
M  V30 116 H 11.3758 -1.4753 3.63287 0
M  V30 117 H 12.8658 -2.43575 3.39206 0
M  V30 118 N 13.3029 -1.57598 0.00835791 0
M  V30 119 C 14.5279 -1.95617 -0.689103 0
M  V30 120 C 14.9529 -0.883753 -1.66046 0
M  V30 121 O 14.3109 0.157352 -1.80616 0
M  V30 122 C 14.3589 -3.32736 -1.38994 0
M  V30 123 O 13.4629 -3.27631 -2.50463 0
M  V30 124 H 12.8039 -0.638379 -0.182668 0
M  V30 125 H 15.3339 -2.045 0.064036 0
M  V30 126 H 15.3439 -3.68494 -1.75147 0
M  V30 127 H 14.0189 -4.1034 -0.677778 0
M  V30 128 H 12.5959 -3.03561 -2.16576 0
M  V30 129 N 14.781 0.264519 -1.55364 0
M  V30 130 C 16.029 0.993021 -1.76021 0
M  V30 131 C 16.35 1.86511 -0.569099 0
M  V30 132 O 15.62 1.91438 0.415735 0
M  V30 133 H 14.2 0.369639 -0.649135 0
M  V30 134 H 16.862 0.286707 -1.9278 0
M  V30 135 H 15.958 1.62502 -2.66457 0
M  V30 136 N 16.2591 1.48442 0.529413 0
M  V30 137 C 17.4841 1.60406 1.31471 0
M  V30 138 C 17.9091 0.264738 1.86228 0
M  V30 139 O 17.2671 -0.763668 1.64432 0
M  V30 140 C 17.3151 2.65419 2.44101 0
M  V30 141 O 16.4191 2.22618 3.47153 0
M  V30 142 H 15.7601 0.537863 0.389357 0
M  V30 143 H 18.2901 1.94432 0.636965 0
M  V30 144 H 18.3001 2.86709 2.90279 0
M  V30 145 H 16.9751 3.62652 2.03608 0
M  V30 146 H 15.5521 2.11543 3.0709 0
M  V30 147 N 17.7372 -0.778329 1.37039 0
M  V30 148 C 18.6872 -1.88142 1.28789 0
M  V30 149 C 19.6712 -1.59923 0.177063 0
M  V30 150 O 20.8632 -1.72165 0.410873 0
M  V30 151 C 17.9922 -3.25518 1.09055 0
M  V30 152 C 17.0782 -3.5971 2.24654 0
M  V30 153 N 17.4692 -3.65131 3.50018 0
M  V30 154 C 15.7672 -3.89837 2.16663 0
M  V30 155 C 16.4682 -3.95882 4.26207 0
M  V30 156 N 15.4442 -4.11441 3.55271 0
M  V30 157 H 19.2462 -1.90575 2.23737 0
M  V30 158 H 16.7602 -0.974435 1.29917 0
M  V30 159 H 18.7572 -4.04423 1.0123 0
M  V30 160 H 17.4172 -3.24353 0.15018 0
M  V30 161 H 18.4282 -3.475 3.84011 0
M  V30 162 H 15.1052 -3.96533 1.30645 0
M  V30 163 H 16.4952 -4.06907 5.34674 0
M  V30 164 N 19.2153 -1.21501 -1.00376 0
M  V30 165 C 20.1453 -0.999478 -2.11028 0
M  V30 166 C 21.1263 0.0759671 -1.6993 0
M  V30 167 O 22.3113 -0.0841106 -1.94018 0
M  V30 168 C 19.4413 -0.564709 -3.42678 0
M  V30 169 C 18.3953 -1.58486 -3.97576 0
M  V30 170 C 17.7213 -1.00628 -5.25146 0
M  V30 171 C 19.0213 -2.97204 -4.29496 0
M  V30 172 H 20.7153 -1.92495 -2.29317 0
M  V30 173 H 18.2613 -0.92693 -1.102 0
M  V30 174 H 20.2143 -0.401091 -4.19487 0
M  V30 175 H 18.9383 0.396411 -3.24185 0
M  V30 176 H 17.5973 -1.73606 -3.22888 0
M  V30 177 H 17.2453 -0.0368439 -5.02987 0
M  V30 178 H 16.9453 -1.68771 -5.62841 0
M  V30 179 H 18.4693 -0.854015 -6.04598 0
M  V30 180 H 19.8833 -2.8552 -4.97143 0
M  V30 181 H 18.2803 -3.62372 -4.78338 0
M  V30 182 H 19.3503 -3.47956 -3.3772 0
M  V30 183 N 20.6934 1.19889 -1.02296 0
M  V30 184 C 21.6414 2.24938 -0.592081 0
M  V30 185 C 22.6354 1.65257 0.372357 0
M  V30 186 O 23.8414 1.78371 0.241583 0
M  V30 187 H 20.2164 0.731787 -0.173182 0
M  V30 188 H 22.1874 2.58603 -1.48885 0
M  V30 189 C 20.9364 3.47668 0.047351 0
M  V30 190 H 20.2594 3.93875 -0.685772 0
M  V30 191 H 21.6994 4.22852 0.311862 0
M  V30 192 C 20.1584 3.11136 1.29212 0
M  V30 193 O 20.6884 3.2325 2.38479 0
M  V30 194 N 18.8944 2.65625 1.17863 0
M  V30 195 H 18.4414 2.55968 0.289493 0
M  V30 196 H 18.3994 2.41553 2.01245 0
M  V30 197 N 22.1715 0.800033 1.35784 0
M  V30 198 C 23.4195 0.376597 1.9856 0
M  V30 199 C 23.7405 -1.05812 1.63795 0
M  V30 200 O 23.0105 -1.73103 0.917171 0
M  V30 201 H 21.5905 0.136261 0.734467 0
M  V30 202 H 24.2525 1.02442 1.65806 0
M  V30 203 H 23.3485 0.477002 3.08433 0
M  V30 204 N 23.6496 -1.47581 0.552962 0
M  V30 205 C 24.9266 -1.95563 -0.0381515 0
M  V30 206 C 25.3066 -1.49552 -1.48988 0
M  V30 207 O 24.6546 -0.732414 -2.16444 0
M  V30 208 C 24.8646 -3.48848 0.102919 0
M  V30 209 C 26.2126 -4.24577 -0.0446082 0
M  V30 210 O 27.2366 -3.56187 0.0302548 0
M  V30 211 O 26.0956 -5.46116 -0.204923 0
M  V30 212 H 23.1896 -0.824321 -0.0665067 0
M  V30 213 H 25.7356 -1.58001 0.619186 0
M  V30 214 H 24.5076 -3.75129 1.11328 0
M  V30 215 H 24.1306 -3.93165 -0.592224 0
M  V30 216 N 25.1277 -0.289203 -1.54924 0
M  V30 217 C 26.0577 0.58549 -2.2604 0
M  V30 218 C 27.0387 1.14753 -1.25562 0
M  V30 219 O 28.2237 1.17906 -1.54311 0
M  V30 220 C 25.3537 1.76305 -2.99222 0
M  V30 221 C 24.3077 1.33191 -4.06748 0
M  V30 222 C 23.6337 2.5937 -4.6758 0
M  V30 223 C 24.9337 0.471775 -5.20165 0
M  V30 224 H 26.6277 -0.00763532 -2.99399 0
M  V30 225 H 24.1737 -0.00511229 -1.43999 0
M  V30 226 H 26.1267 2.38097 -3.47689 0
M  V30 227 H 24.8507 2.38223 -2.23422 0
M  V30 228 H 23.5097 0.737121 -3.59113 0
M  V30 229 H 23.1577 3.19576 -3.88433 0
M  V30 230 H 22.8577 2.31228 -5.40192 0
M  V30 231 H 24.3817 3.21985 -5.18804 0
M  V30 232 H 25.7957 0.995056 -5.64599 0
M  V30 233 H 24.1927 0.284639 -5.99425 0
M  V30 234 H 25.2627 -0.506041 -4.82252 0
M  V30 235 N 26.6058 1.57591 -0.0167156 0
M  V30 236 C 27.8828 1.82547 0.702564 0
M  V30 237 C 28.2628 0.898018 1.91047 0
M  V30 238 O 27.6108 -0.0493456 2.28447 0
M  V30 239 C 27.8208 3.31459 1.09251 0
M  V30 240 C 29.1688 3.97622 1.48937 0
M  V30 241 O 30.1928 3.35881 1.18584 0
M  V30 242 O 29.0518 5.06415 2.05442 0
M  V30 243 H 26.1458 0.752268 0.343544 0
M  V30 244 H 28.6918 1.69644 -0.0434495 0
M  V30 245 H 27.4638 3.9061 0.23227 0
M  V30 246 H 27.0868 3.49422 1.89709 0
M  V30 247 N 28.0839 -0.256276 1.55502 0
M  V30 248 C 29.4949 -0.826068 1.67431 0
M  V30 249 C 29.8459 -1.86396 0.612446 0
M  V30 250 O 28.9709 -2.15031 -0.243025 0
M  V30 251 C 29.5659 -1.50512 3.03532 0
M  V30 252 C 28.1249 -2.02273 3.17431 0
M  V30 253 C 27.2719 -0.870548 2.63281 0
M  V30 254 H 30.2229 -0.0322728 1.58667 0
M  V30 255 H 30.2439 -2.37279 2.97454 0
M  V30 256 H 29.7559 -0.749484 3.80794 0
M  V30 257 H 27.8569 -2.80746 2.44974 0
M  V30 258 H 27.9699 -2.22655 4.24219 0
M  V30 259 H 26.3339 -1.26851 2.20864 0
M  V30 260 H 27.1169 -0.128149 3.43061 0
M  V30 261 N 29.562 -1.4872 -0.521534 0
M  V30 262 C 30.839 -1.4766 -1.2828 0
M  V30 263 C 31.219 -0.19292 -2.10217 0
M  V30 264 O 30.567 0.825193 -2.13079 0
M  V30 265 C 30.777 -2.74358 -2.15705 0
M  V30 266 C 32.125 -3.23028 -2.75569 0
M  V30 267 O 33.149 -2.75333 -2.25987 0
M  V30 268 O 32.008 -4.0604 -3.65778 0
M  V30 269 H 29.102 -0.590085 -0.579421 0
M  V30 270 H 31.648 -1.60963 -0.537492 0
M  V30 271 H 30.42 -3.59292 -1.54999 0
M  V30 272 H 30.043 -2.63816 -2.97467 0
M  V30 273 N 31.0401 0.771051 -1.3745 0
M  V30 274 C 32.3171 1.519 -1.23231 0
M  V30 275 C 32.6971 2.10383 0.173809 0
M  V30 276 O 32.0451 1.95583 1.18151 0
M  V30 277 C 32.2551 2.59933 -2.32886 0
M  V30 278 C 33.6031 3.27316 -2.70461 0
M  V30 279 O 34.6271 2.70228 -2.32068 0
M  V30 280 O 33.4861 4.30531 -3.36608 0
M  V30 281 H 30.5801 0.672803 -0.480901 0
M  V30 282 H 33.1261 0.807957 -1.49232 0
M  V30 283 H 31.8981 2.14842 -3.27045 0
M  V30 284 H 31.5211 3.38637 -2.08353 0
M  V30 285 N 32.5182 1.22032 0.997298 0
M  V30 286 C 33.9342 0.979326 1.26021 0
M  V30 287 C 34.1342 -0.32972 1.98784 0
M  V30 288 O 33.1902 -1.05345 2.29475 0
M  V30 289 C 34.5032 2.17509 2.07631 0
M  V30 290 C 36.0512 2.21817 2.2083 0
M  V30 291 C 36.5262 3.40933 3.05825 0
M  V30 292 N 38.0172 3.41067 3.13412 0
M  V30 293 C 38.7522 4.29885 3.79455 0
M  V30 294 N 38.2482 5.28914 4.47462 0
M  V30 295 N 40.0412 4.17673 3.76173 0
M  V30 296 H 32.1922 2.06202 0.509352 0
M  V30 297 H 34.4552 0.90334 0.287541 0
M  V30 298 H 34.1612 3.12415 1.61524 0
M  V30 299 H 34.0352 2.17206 3.08385 0
M  V30 300 H 36.4222 1.27462 2.66153 0
M  V30 301 H 36.5032 2.2616 1.1952 0
M  V30 302 H 36.1472 4.35586 2.61203 0
M  V30 303 H 36.0772 3.33829 4.07266 0
M  V30 304 H 38.5682 2.69406 2.65007 0
M  V30 305 H 38.8812 5.92973 4.95583 0
M  V30 306 H 37.2262 5.32831 4.46224 0
M  V30 307 H 40.4172 3.39564 3.22202 0
M  V30 308 H 40.5902 4.87098 4.27363 0
M  V30 309 N 33.9963 -1.19345 1.0293 0
M  V30 310 C 34.9063 -2.26245 0.620515 0
M  V30 311 C 35.9223 -1.70486 -0.347928 0
M  V30 312 O 37.0983 -2.00347 -0.205704 0
M  V30 313 C 34.1633 -3.46693 -0.0218957 0
M  V30 314 C 33.2243 -4.17632 0.994102 0
M  V30 315 C 32.4573 -5.32329 0.382253 0
M  V30 316 O 32.6803 -5.64552 -0.814676 0
M  V30 317 O 31.6143 -5.91664 1.10531 0
M  V30 318 H 35.4403 -2.63453 1.51083 0
M  V30 319 H 33.0253 -1.26207 0.799513 0
M  V30 320 H 34.9073 -4.19683 -0.380072 0
M  V30 321 H 33.5823 -3.11333 -0.886209 0
M  V30 322 H 32.4893 -3.4676 1.40387 0
M  V30 323 H 33.8223 -4.56964 1.8288 0
M  V30 324 N 35.4744 -0.807222 -1.35358 0
M  V30 325 C 36.3844 -0.219594 -2.3357 0
M  V30 326 C 37.4004 0.637734 -1.61892 0
M  V30 327 O 38.5764 0.549336 -1.93763 0
M  V30 328 C 35.6414 0.62158 -3.41083 0
M  V30 329 C 34.7024 -0.256315 -4.28534 0
M  V30 330 C 33.9354 0.544807 -5.30912 0
M  V30 331 O 34.1584 1.77944 -5.41934 0
M  V30 332 O 33.0924 -0.0646478 -6.01865 0
M  V30 333 H 36.9184 -1.03208 -2.85625 0
M  V30 334 H 34.5034 -0.569025 -1.38139 0
M  V30 335 H 36.3854 1.10067 -4.06772 0
M  V30 336 H 35.0604 1.41165 -2.91297 0
M  V30 337 H 33.9674 -0.782559 -3.65823 0
M  V30 338 H 35.3004 -1.01034 -4.81719 0
M  V30 339 N 36.9525 1.47285 -0.560781 0
M  V30 340 C 38.2005 2.02064 -0.0379868 0
M  V30 341 C 38.5215 1.43711 1.31803 0
M  V30 342 O 37.7915 0.61362 1.86042 0
M  V30 343 H 36.3715 0.746918 -0.0110531 0
M  V30 344 H 39.0335 1.80648 -0.731598 0
M  V30 345 H 38.1295 3.12064 0.0474463 0
M  V30 346 N 38.4306 0.297415 1.54768 0
M  V30 347 C 39.3936 -0.567375 2.22066 0
M  V30 348 C 40.3936 -1.06409 1.20556 0
M  V30 349 O 41.5836 -0.960691 1.45315 0
M  V30 350 C 38.7156 -1.78517 2.90421 0
M  V30 351 H 39.9086 0.0205534 2.99893 0
M  V30 352 H 37.4616 0.0482163 1.56226 0
M  V30 353 H 38.1966 -2.41303 2.16664 0
M  V30 354 H 37.9816 -1.43669 3.64831 0
M  V30 355 H 39.4716 -2.39964 3.41771 0
M  V30 356 N 39.9087 -1.5758 0.0250728 0
M  V30 357 C 40.8717 -2.08896 -0.943139 0
M  V30 358 C 41.8717 -1.00321 -1.25668 0
M  V30 359 O 43.0617 -1.26495 -1.19769 0
M  V30 360 C 40.1937 -2.55143 -2.26086 0
M  V30 361 H 41.3867 -2.95723 -0.498775 0
M  V30 362 H 38.9397 -1.54703 -0.222888 0
M  V30 363 H 39.6747 -1.71633 -2.75159 0
M  V30 364 H 39.4597 -3.34461 -2.04641 0
M  V30 365 H 40.9497 -2.95083 -2.95492 0
M  V30 366 N 41.3868 0.248026 -1.55636 0
M  V30 367 C 42.6118 0.998028 -1.81808 0
M  V30 368 C 43.0368 1.78207 -0.601979 0
M  V30 369 O 42.3948 1.75653 0.448961 0
M  V30 370 C 42.4428 1.9125 -3.05705 0
M  V30 371 O 41.5468 3.00406 -2.82542 0
M  V30 372 H 40.8878 0.284045 -0.600179 0
M  V30 373 H 43.4178 0.269357 -2.02819 0
M  V30 374 H 43.4278 2.32737 -3.35108 0
M  V30 375 H 42.1028 1.33602 -3.93857 0
M  V30 376 H 40.6798 2.63056 -2.64303 0
M  V30 377 N 42.8649 1.48995 0.513639 0
M  V30 378 C 44.0929 1.61531 1.29288 0
M  V30 379 C 44.5079 0.281801 1.86685 0
M  V30 380 O 43.8649 -0.731111 1.67215 0
M  V30 381 C 43.9159 2.67449 2.43215 0
M  V30 382 O 43.6369 3.95626 1.88179 0
M  V30 383 C 45.1379 2.90575 3.34785 0
M  V30 384 H 42.3579 0.544165 0.392588 0
M  V30 385 H 44.9019 1.9494 0.617956 0
M  V30 386 H 43.0569 2.36853 3.0656 0
M  V30 387 H 43.4709 4.53868 2.62876 0
M  V30 388 H 44.9449 3.68449 4.11035 0
M  V30 389 H 45.4219 2.00011 3.91015 0
M  V30 390 H 46.0279 3.22538 2.77218 0
M  V30 391 N 44.343 -0.763751 1.37857 0
M  V30 392 C 45.306 -1.85889 1.34081 0
M  V30 393 C 46.306 -1.58949 0.243277 0
M  V30 394 O 47.496 -1.66882 0.499589 0
M  V30 395 C 44.628 -3.23176 1.08489 0
M  V30 396 H 45.821 -1.90648 2.31502 0
M  V30 397 H 43.374 -0.964367 1.23003 0
M  V30 398 H 44.109 -3.24091 0.116318 0
M  V30 399 H 43.894 -3.44124 1.8794 0
M  V30 400 H 45.384 -4.03254 1.08517 0
M  V30 401 N 45.8211 -1.22559 -0.990812 0
M  V30 402 C 46.7311 -1.01394 -2.11557 0
M  V30 403 C 47.7471 0.0383962 -1.73958 0
M  V30 404 O 48.9231 -0.154787 -2.00804 0
M  V30 405 C 45.9881 -0.596569 -3.41529 0
M  V30 406 C 45.0491 -1.72276 -3.93217 0
M  V30 407 C 44.2821 -1.32521 -5.16985 0
M  V30 408 O 44.5051 -0.204909 -5.70032 0
M  V30 409 O 43.4391 -2.14247 -5.62478 0
M  V30 410 H 47.2651 -1.95633 -2.32296 0
M  V30 411 H 44.8501 -1.01172 -1.0993 0
M  V30 412 H 46.7321 -0.374263 -4.19735 0
M  V30 413 H 45.4071 0.316939 -3.22145 0
M  V30 414 H 44.3141 -1.99961 -3.16174 0
M  V30 415 H 45.6471 -2.61421 -4.17037 0
M  V30 416 N 47.2992 1.18797 -1.03562 0
M  V30 417 C 48.2092 2.25913 -0.632505 0
M  V30 418 C 49.2252 1.70668 0.338882 0
M  V30 419 O 50.4012 2.00453 0.195076 0
M  V30 420 C 47.4662 3.467 0.00350942 0
M  V30 421 C 46.5272 4.17098 -1.01624 0
M  V30 422 C 45.7602 5.32119 -0.410478 0
M  V30 423 O 45.9832 5.64976 0.784725 0
M  V30 424 O 44.9172 5.9107 -1.13667 0
M  V30 425 H 48.7432 2.62648 -1.52478 0
M  V30 426 H 46.3282 1.25781 -0.806195 0
M  V30 427 H 48.2102 4.19878 0.35781 0
M  V30 428 H 46.8852 3.11798 0.869686 0
M  V30 429 H 45.7922 3.4601 -1.42224 0
M  V30 430 H 47.1252 4.55987 -1.85301 0
M  V30 431 N 48.7773 0.814389 1.34928 0
M  V30 432 C 49.7403 0.235759 2.27984 0
M  V30 433 C 50.7403 -0.581412 1.49921 0
M  V30 434 O 51.9303 -0.398758 1.69575 0
M  V30 435 C 49.0623 -0.670433 3.34242 0
M  V30 436 H 50.2553 1.05659 2.80671 0
M  V30 437 H 47.8083 0.585614 1.44915 0
M  V30 438 H 48.5433 -1.51466 2.86755 0
M  V30 439 H 48.3283 -0.0860822 3.92005 0
M  V30 440 H 49.8183 -1.06935 4.03676 0
M  V30 441 N 50.2554 -1.46986 0.568584 0
M  V30 442 C 51.2184 -2.28624 -0.162366 0
M  V30 443 C 52.2184 -1.37596 -0.832103 0
M  V30 444 O 53.4084 -1.60115 -0.68622 0
M  V30 445 C 50.5404 -3.17596 -1.23878 0
M  V30 446 H 51.7334 -2.94722 0.554899 0
M  V30 447 H 49.2864 -1.52863 0.325976 0
M  V30 448 H 50.0214 -2.56214 -1.98808 0
M  V30 449 H 49.8064 -3.846 -0.763219 0
M  V30 450 H 51.2964 -3.79078 -1.75185 0
M  V30 451 N 51.7335 -0.305618 -1.54608 0
M  V30 452 C 52.6805 0.568421 -2.23691 0
M  V30 453 C 53.6505 1.12592 -1.22116 0
M  V30 454 O 54.8355 1.16959 -1.50749 0
M  V30 455 C 51.9755 1.7322 -2.98477 0
M  V30 456 C 51.0885 1.20566 -4.14835 0
M  V30 457 C 50.2235 2.33368 -4.77193 0
M  V30 458 C 49.2625 1.7787 -5.85686 0
M  V30 459 N 48.3995 2.84263 -6.4198 0
M  V30 460 H 53.2395 -0.0272867 -2.97988 0
M  V30 461 H 50.7765 -0.0252363 -1.47078 0
M  V30 462 H 52.7345 2.41675 -3.40072 0
M  V30 463 H 51.3645 2.29947 -2.26548 0
M  V30 464 H 50.4165 0.413223 -3.78149 0
M  V30 465 H 51.7285 0.759417 -4.92985 0
M  V30 466 H 50.8825 3.09761 -5.21664 0
M  V30 467 H 49.6215 2.8132 -3.98385 0
M  V30 468 H 48.6265 0.99968 -5.40635 0
M  V30 469 H 49.8515 1.30816 -6.66381 0
M  V30 470 H 47.7975 3.31541 -5.66053 0
M  V30 471 H 47.7145 2.44149 -7.15491 0
M  V30 472 H 48.9825 3.6054 -6.91109 0
M  V30 473 N 53.2116 1.57565 -0.0334293 0
M  V30 474 C 54.1586 2.10478 0.946981 0
M  V30 475 C 55.1286 1.00787 1.32027 0
M  V30 476 O 56.3136 1.28232 1.41284 0
M  V30 477 C 53.4536 2.63994 2.22263 0
M  V30 478 C 52.5666 3.87709 1.90541 0
M  V30 479 C 51.7016 4.29604 3.12433 0
M  V30 480 C 50.7406 5.46065 2.76549 0
M  V30 481 N 49.8776 5.83096 3.9108 0
M  V30 482 H 54.7176 2.93963 0.488846 0
M  V30 483 H 52.2546 1.45296 0.22969 0
M  V30 484 H 54.2126 2.93114 2.96884 0
M  V30 485 H 52.8426 1.83333 2.65685 0
M  V30 486 H 51.8946 3.65291 1.06144 0
M  V30 487 H 53.2066 4.72403 1.60116 0
M  V30 488 H 52.3606 4.60182 3.9537 0
M  V30 489 H 51.0996 3.43685 3.46023 0
M  V30 490 H 50.1046 5.15176 1.92026 0
M  V30 491 H 51.3296 6.33685 2.44171 0
M  V30 492 H 49.2756 5.00132 4.24504 0
M  V30 493 H 49.1926 6.6244 3.64293 0
M  V30 494 H 50.4606 6.18282 4.74708 0
M  V30 495 N 54.6897 -0.239769 1.55765 0
M  V30 496 C 55.6367 -1.29696 1.90913 0
M  V30 497 C 56.6067 -1.47478 0.764164 0
M  V30 498 O 57.7917 -1.61345 1.01845 0
M  V30 499 C 54.9317 -2.64598 2.21544 0
M  V30 500 C 54.0447 -2.54765 3.48882 0
M  V30 501 C 53.1797 -3.82069 3.69049 0
M  V30 502 C 52.2187 -3.66883 4.89963 0
M  V30 503 N 51.3557 -4.86094 5.06614 0
M  V30 504 H 56.1957 -0.990224 2.81067 0
M  V30 505 H 53.7327 -0.477684 1.39128 0
M  V30 506 H 55.6907 -3.43132 2.3731 0
M  V30 507 H 54.3207 -2.93405 1.34585 0
M  V30 508 H 53.3727 -1.67763 3.41409 0
M  V30 509 H 54.6847 -2.39457 4.37563 0
M  V30 510 H 53.8387 -4.69046 3.84812 0
M  V30 511 H 52.5777 -4.00282 2.78614 0
M  V30 512 H 51.5827 -2.78289 4.74168 0
M  V30 513 H 52.8077 -3.50157 5.81865 0
M  V30 514 H 50.7537 -5.04655 4.19117 0
M  V30 515 H 50.6707 -4.73443 5.89396 0
M  V30 516 H 51.9387 -5.74549 5.26795 0
M  V30 517 N 56.1678 -1.49265 -0.50573 0
M  V30 518 C 57.5838 -1.35923 -0.836486 0
M  V30 519 C 57.7838 -0.388704 -1.97715 0
M  V30 520 O 56.8398 0.181336 -2.51848 0
M  V30 521 C 58.1528 -2.76531 -1.18115 0
M  V30 522 C 59.7008 -2.85197 -1.28964 0
M  V30 523 C 60.1758 -4.26561 -1.66761 0
M  V30 524 N 61.6668 -4.2935 -1.73819 0
M  V30 525 C 62.4018 -5.35693 -2.045 0
M  V30 526 N 61.8978 -6.52287 -2.33438 0
M  V30 527 N 63.6908 -5.23105 -2.05711 0
M  V30 528 H 55.8418 -2.10965 0.246519 0
M  V30 529 H 58.1048 -0.9468 0.0476887 0
M  V30 530 H 57.8108 -3.49226 -0.416398 0
M  V30 531 H 57.6848 -3.11599 -2.1257 0
M  V30 532 H 60.0718 -2.12742 -2.04511 0
M  V30 533 H 60.1528 -2.53718 -0.325704 0
M  V30 534 H 59.7968 -4.99541 -0.917656 0
M  V30 535 H 59.7268 -4.55502 -2.64246 0
M  V30 536 H 62.2178 -3.4526 -1.53635 0
M  V30 537 H 62.5308 -7.29158 -2.56024 0
M  V30 538 H 60.8758 -6.55521 -2.30905 0
M  V30 539 H 64.0668 -4.31026 -1.82577 0
M  V30 540 H 64.2398 -6.06078 -2.29289 0
M  V30 541 N 57.6459 0.756429 -1.3826 0
M  V30 542 C 59.0619 1.0591 -1.19395 0
M  V30 543 C 59.2619 2.01459 -0.0406567 0
M  V30 544 O 58.3179 2.44909 0.614467 0
M  V30 545 C 59.6309 1.64191 -2.51916 0
M  V30 546 C 61.1789 1.76376 -2.58574 0
M  V30 547 C 61.6539 2.38069 -3.91264 0
M  V30 548 N 63.1449 2.45503 -3.92788 0
M  V30 549 C 63.8799 2.94126 -4.92217 0
M  V30 550 N 63.3759 3.42805 -6.02043 0
M  V30 551 N 65.1689 2.9314 -4.7961 0
M  V30 552 H 57.3199 0.122313 -2.12048 0
M  V30 553 H 59.5829 0.116892 -0.940766 0
M  V30 554 H 59.2889 1.01451 -3.3675 0
M  V30 555 H 59.1629 2.6329 -2.70108 0
M  V30 556 H 61.5499 2.38244 -1.74137 0
M  V30 557 H 61.6309 0.759894 -2.44252 0
M  V30 558 H 61.2749 1.76835 -4.76121 0
M  V30 559 H 61.2049 3.39091 -4.02895 0
M  V30 560 H 63.6959 2.1107 -3.13461 0
M  V30 561 H 64.0089 3.78354 -6.73846 0
M  V30 562 H 62.3539 3.4087 -6.05667 0
M  V30 563 H 65.5449 2.54419 -3.92923 0
M  V30 564 H 65.7179 3.30721 -5.5725 0
M  V30 565 N 59.124 1.23083 0.984299 0
M  V30 566 C 60.071 1.00854 2.07598 0
M  V30 567 C 61.041 -0.0726709 1.65941 0
M  V30 568 O 62.226 0.0786535 1.90638 0
M  V30 569 C 59.366 0.601645 3.39815 0
M  V30 570 C 58.479 1.75456 3.94765 0
M  V30 571 C 57.614 1.29482 5.15177 0
M  V30 572 C 56.653 2.41873 5.62284 0
M  V30 573 N 55.79 1.96885 6.73929 0
M  V30 574 H 60.63 1.943 2.25946 0
M  V30 575 H 58.167 0.968001 1.10762 0
M  V30 576 H 60.125 0.346854 4.15756 0
M  V30 577 H 58.755 -0.295803 3.21442 0
M  V30 578 H 57.807 2.12346 3.15616 0
M  V30 579 H 59.119 2.59965 4.25699 0
M  V30 580 H 58.273 0.997923 5.98437 0
M  V30 581 H 57.012 0.420046 4.85888 0
M  V30 582 H 56.017 2.72342 4.77608 0
M  V30 583 H 57.242 3.29881 5.93595 0
M  V30 584 H 55.188 1.11782 6.46406 0
M  V30 585 H 55.105 2.74956 7.04227 0
M  V30 586 H 56.373 1.70289 7.60672 0
M  V30 587 N 60.6021 -1.18246 1.0419 0
M  V30 588 C 61.5491 -2.2192 0.634037 0
M  V30 589 C 62.5191 -1.62179 -0.358765 0
M  V30 590 O 63.7041 -1.89122 -0.252466 0
M  V30 591 C 60.8441 -3.451 0.00445535 0
M  V30 592 C 59.9571 -4.19174 1.04487 0
M  V30 593 C 59.0921 -5.29813 0.383676 0
M  V30 594 C 58.1311 -5.9566 1.4091 0
M  V30 595 N 57.2681 -6.97834 0.772784 0
M  V30 596 H 62.1081 -2.56164 1.52263 0
M  V30 597 H 59.6451 -1.25843 0.761701 0
M  V30 598 H 61.6031 -4.15485 -0.377919 0
M  V30 599 H 60.2331 -3.11472 -0.847652 0
M  V30 600 H 59.2851 -3.47604 1.54518 0
M  V30 601 H 60.5971 -4.64267 1.82368 0
M  V30 602 H 59.7511 -6.06677 -0.0528366 0
M  V30 603 H 58.4901 -4.85825 -0.427208 0
M  V30 604 H 57.4951 -5.17535 1.85574 0
M  V30 605 H 58.7201 -6.4173 2.22171 0
M  V30 606 H 56.6661 -6.55998 -0.0177708 0
M  V30 607 H 56.5831 -7.41186 1.48928 0
M  V30 608 H 57.8511 -7.78665 0.36071 0
M  V30 609 N 62.0802 -0.821533 -1.34494 0
M  V30 610 C 63.0272 -0.240397 -2.29545 0
M  V30 611 C 63.9972 0.634031 -1.53523 0
M  V30 612 O 65.1822 0.575966 -1.81899 0
M  V30 613 C 62.3222 0.592869 -3.39969 0
M  V30 614 C 61.4352 -0.30365 -4.30932 0
M  V30 615 C 60.5702 0.539049 -5.28458 0
M  V30 616 C 59.6092 -0.356942 -6.11058 0
M  V30 617 N 58.7462 0.446603 -7.00678 0
M  V30 618 H 63.5862 -1.05632 -2.7865 0
M  V30 619 H 61.1232 -0.532413 -1.37127 0
M  V30 620 H 63.0812 1.09129 -4.02675 0
M  V30 621 H 61.7112 1.37392 -2.92102 0
M  V30 622 H 60.7632 -0.920276 -3.691 0
M  V30 623 H 62.0752 -0.992661 -4.88823 0
M  V30 624 H 61.2292 1.102 -5.96608 0
M  V30 625 H 59.9682 1.26157 -4.71101 0
M  V30 626 H 58.9732 -0.932047 -5.41842 0
M  V30 627 H 60.1982 -1.07755 -6.70497 0
M  V30 628 H 58.1442 1.15282 -6.45791 0
M  V30 629 H 58.0612 -0.184048 -7.55776 0
M  V30 630 H 59.3292 0.992352 -7.73158 0
M  V30 631 N 63.5583 1.46682 -0.576371 0
M  V30 632 C 64.5053 2.30241 0.160499 0
M  V30 633 C 65.4753 1.40233 0.890162 0
M  V30 634 O 66.6603 1.69186 0.882084 0
M  V30 635 C 63.8003 3.24578 1.1723 0
M  V30 636 C 62.9133 4.29684 0.446736 0
M  V30 637 C 62.0483 5.11154 1.44551 0
M  V30 638 C 61.0873 6.08015 0.70599 0
M  V30 639 N 60.2243 6.82376 1.65251 0
M  V30 640 H 65.0643 2.92727 -0.558127 0
M  V30 641 H 62.6013 1.44272 -0.287056 0
M  V30 642 H 64.5593 3.77711 1.77172 0
M  V30 643 H 63.1893 2.63916 1.85872 0
M  V30 644 H 62.2413 3.79458 -0.267594 0
M  V30 645 H 63.5533 4.98626 -0.131686 0
M  V30 646 H 62.7073 5.68533 2.11791 0
M  V30 647 H 61.4463 4.42158 2.05786 0
M  V30 648 H 60.4513 5.49796 0.0197725 0
M  V30 649 H 61.6763 6.79028 0.09912 0
M  V30 650 H 59.6223 6.16094 2.25308 0
M  V30 651 H 59.5393 7.47556 1.12673 0
M  V30 652 H 60.8073 7.44316 2.31546 0
M  V30 653 N 65.0364 0.313813 1.54444 0
M  V30 654 C 66.2614 -0.296681 2.05267 0
M  V30 655 C 66.6864 -1.45757 1.18897 0
M  V30 656 O 66.0444 -1.80239 0.195886 0
M  V30 657 C 66.0924 -0.71831 3.53373 0
M  V30 658 O 65.1964 -1.82175 3.69981 0
M  V30 659 H 64.5374 -0.0554061 0.661684 0
M  V30 660 H 67.0674 0.459387 1.99376 0
M  V30 661 H 67.0774 -1.00364 3.95463 0
M  V30 662 H 65.7524 0.130821 4.15694 0
M  V30 663 H 64.3294 -1.53598 3.39797 0
M  V30 664 N 66.5145 -1.57545 0.0417849 0
M  V30 665 C 67.4615 -2.10977 -0.935805 0
M  V30 666 C 68.4315 -1.01486 -1.31491 0
M  V30 667 O 69.6165 -1.2898 -1.40602 0
M  V30 668 C 66.7565 -2.65169 -2.2086 0
M  V30 669 C 65.8695 -3.88714 -1.88482 0
M  V30 670 C 65.0045 -4.31254 -3.1015 0
M  V30 671 C 64.0435 -5.47524 -2.7365 0
M  V30 672 N 63.1805 -5.85162 -3.87982 0
M  V30 673 H 68.0205 -2.94218 -0.473249 0
M  V30 674 H 65.5575 -1.45415 -0.221981 0
M  V30 675 H 67.5155 -2.94685 -2.95325 0
M  V30 676 H 66.1455 -1.8474 -2.64709 0
M  V30 677 H 65.1975 -3.65849 -1.04205 0
M  V30 678 H 66.5095 -4.73245 -1.57608 0
M  V30 679 H 65.6635 -4.62273 -3.92923 0
M  V30 680 H 64.4025 -3.45516 -3.44195 0
M  V30 681 H 63.4075 -5.16187 -1.89291 0
M  V30 682 H 64.6325 -6.34971 -2.40807 0
M  V30 683 H 62.5785 -5.02377 -4.21846 0
M  V30 684 H 62.4955 -6.64362 -3.60775 0
M  V30 685 H 63.7635 -6.20791 -4.71422 0
M  V30 686 N 67.9926 0.231505 -1.5589 0
M  V30 687 C 69.2406 0.955461 -1.78088 0
M  V30 688 C 69.5616 1.85262 -0.608533 0
M  V30 689 O 68.8316 1.92277 0.375035 0
M  V30 690 H 67.4116 0.355787 -0.656829 0
M  V30 691 H 70.0736 0.245751 -1.93344 0
M  V30 692 H 69.1696 1.56814 -2.69844 0
M  V30 693 N 69.4707 1.49531 0.497807 0
M  V30 694 C 70.8817 1.52344 1.07927 0
M  V30 695 C 71.2327 0.311469 1.93712 0
M  V30 696 O 70.3577 -0.578405 2.08527 0
M  V30 697 C 70.9527 2.76062 1.96405 0
M  V30 698 C 69.5117 2.81643 2.49709 0
M  V30 699 C 68.6587 2.46299 1.27404 0
M  V30 700 H 71.6097 1.56182 0.281576 0
M  V30 701 H 71.6307 2.56405 2.81135 0
M  V30 702 H 71.1427 3.64254 1.33943 0
M  V30 703 H 69.2437 1.97739 3.15801 0
M  V30 704 H 69.3567 3.83891 2.86643 0
M  V30 705 H 67.7207 1.98148 1.60029 0
M  V30 706 H 68.5037 3.36769 0.66645 0
M  V30 707 N 70.9488 -0.749086 1.3866 0
M  V30 708 C 72.1738 -1.54344 1.38538 0
M  V30 709 C 72.5988 -1.88088 -0.0216655 0
M  V30 710 O 71.9568 -1.50899 -1.00494 0
M  V30 711 C 72.0048 -2.8164 2.25192 0
M  V30 712 O 71.1088 -3.7698 1.67212 0
M  V30 713 H 70.4498 -0.466654 0.472367 0
M  V30 714 H 72.9798 -0.925355 1.82478 0
M  V30 715 H 72.9898 -3.30519 2.3921 0
M  V30 716 H 71.6648 -2.56411 3.27454 0
M  V30 717 H 70.2418 -3.35699 1.6236 0
M  V30 718 N 72.4269 -1.23603 -0.977757 0
M  V30 719 C 73.3899 -1.02069 -2.05218 0
M  V30 720 C 74.3899 0.0184305 -1.60789 0
M  V30 721 O 75.5799 -0.221569 -1.72785 0
M  V30 722 C 72.7119 -0.544926 -3.36517 0
M  V30 723 H 73.9049 -1.9742 -2.25755 0
M  V30 724 H 71.4579 -1.05684 -1.15155 0
M  V30 725 H 72.1929 0.412241 -3.21669 0
M  V30 726 H 71.9779 -1.2948 -3.70105 0
M  V30 727 H 73.4679 -0.414985 -4.15533 0
M  V30 728 N 73.905 1.17692 -1.04816 0
M  V30 729 C 74.868 2.19787 -0.650117 0
M  V30 730 C 75.868 1.58044 0.296427 0
M  V30 731 O 77.058 1.74012 0.0808097 0
M  V30 732 C 74.19 3.40869 0.0456987 0
M  V30 733 H 75.383 2.56516 -1.5537 0
M  V30 734 H 72.936 1.31708 -0.841594 0
M  V30 735 H 73.671 3.09681 0.962726 0
M  V30 736 H 73.456 3.86928 -0.634727 0
M  V30 737 H 74.946 4.16445 0.310432 0
M  V30 738 N 75.3831 0.828654 1.34056 0
M  V30 739 C 76.6311 0.41863 1.97717 0
M  V30 740 C 76.9521 -1.02314 1.66002 0
M  V30 741 O 76.2221 -1.71119 0.953683 0
M  V30 742 H 74.8021 0.151809 0.731412 0
M  V30 743 H 77.4641 1.05936 1.63596 0
M  V30 744 H 76.5601 0.542318 3.07352 0
M  V30 745 N 76.8612 -1.46375 0.584142 0
M  V30 746 C 77.7712 -2.34115 -0.150728 0
M  V30 747 C 78.7872 -1.49838 -0.884567 0
M  V30 748 O 79.9632 -1.82704 -0.847429 0
M  V30 749 C 77.0282 -3.2705 -1.15062 0
M  V30 750 C 76.0892 -4.27228 -0.421293 0
M  V30 751 C 75.3222 -5.15722 -1.37355 0
M  V30 752 O 75.5452 -5.07176 -2.61014 0
M  V30 753 O 74.4792 -5.95383 -0.883355 0
M  V30 754 H 78.3052 -2.98309 0.569708 0
M  V30 755 H 75.8902 -1.45373 0.344535 0
M  V30 756 H 77.7722 -3.84381 -1.72712 0
M  V30 757 H 76.4472 -2.65451 -1.8525 0
M  V30 758 H 75.3542 -3.7358 0.197085 0
M  V30 759 H 76.6872 -4.91616 0.239641 0
M  V30 760 N 78.3393 -0.321999 -1.54275 0
M  V30 761 C 79.2713 0.578671 -2.21775 0
M  V30 762 C 80.2843 1.08109 -1.21722 0
M  V30 763 O 81.4733 0.994938 -1.482 0
M  V30 764 C 78.5733 1.80661 -2.86731 0
M  V30 765 C 77.7463 1.44314 -4.12907 0
M  V30 766 C 76.8053 2.52845 -4.61472 0
M  V30 767 O 75.8313 2.17054 -5.2619 0
M  V30 768 N 77.0333 3.83748 -4.35566 0
M  V30 769 H 79.7983 0.000709447 -2.997 0
M  V30 770 H 77.3593 -0.145132 -1.61248 0
M  V30 771 H 79.3513 2.52655 -3.16145 0
M  V30 772 H 77.9213 2.29245 -2.12521 0
M  V30 773 H 77.1413 0.554906 -3.90275 0
M  V30 774 H 78.4293 1.17598 -4.95023 0
M  V30 775 H 77.8273 4.15625 -3.83761 0
M  V30 776 H 76.3843 4.51977 -4.69638 0
M  V30 777 N 79.8174 1.5752 -0.0501392 0
M  V30 778 C 80.7274 2.14952 0.939827 0
M  V30 779 C 81.7434 1.10706 1.34239 0
M  V30 780 O 82.9194 1.42869 1.41952 0
M  V30 781 C 79.9844 2.68232 2.19665 0
M  V30 782 C 79.0454 3.87272 1.85253 0
M  V30 783 C 78.2784 4.38002 3.04943 0
M  V30 784 O 78.5014 3.87811 4.18281 0
M  V30 785 O 77.4354 5.29602 2.86017 0
M  V30 786 H 81.2614 2.9986 0.481392 0
M  V30 787 H 78.8464 1.4841 0.171699 0
M  V30 788 H 80.7284 3.02475 2.93406 0
M  V30 789 H 79.4034 1.86395 2.64648 0
M  V30 790 H 78.3104 3.5792 1.0883 0
M  V30 791 H 79.6434 4.70336 1.4507 0
M  V30 792 N 81.2955 -0.223234 1.56011 0
M  V30 793 C 82.7065 -0.790368 1.69145 0
M  V30 794 C 83.0575 -1.85055 0.651845 0
M  V30 795 O 82.1825 -2.15498 -0.197359 0
M  V30 796 C 82.7775 -1.4404 3.06656 0
M  V30 797 C 81.3365 -1.95494 3.2165 0
M  V30 798 C 80.4835 -0.814506 2.65068 0
M  V30 799 H 83.4345 0.00139011 1.587 0
M  V30 800 H 83.4555 -2.30916 3.0242 0
M  V30 801 H 82.9675 -0.668543 3.82298 0
M  V30 802 H 81.0685 -2.75487 2.50874 0
M  V30 803 H 81.1815 -2.13607 4.28846 0
M  V30 804 H 79.5455 -1.22137 2.23505 0
M  V30 805 H 80.3285 -0.0553515 3.43255 0
M  V30 806 N 82.7736 -1.49793 -0.48987 0
M  V30 807 C 84.0506 -1.50348 -1.25119 0
M  V30 808 C 84.4306 -0.237466 -2.0976 0
M  V30 809 O 83.7786 0.77981 -2.14782 0
M  V30 810 C 83.9886 -2.78872 -2.09837 0
M  V30 811 C 85.3366 -3.288 -2.68655 0
M  V30 812 O 86.3606 -2.80065 -2.20096 0
M  V30 813 O 85.2196 -4.13707 -3.57083 0
M  V30 814 H 82.3136 -0.602242 -0.566775 0
M  V30 815 H 84.8596 -1.62067 -0.503229 0
M  V30 816 H 83.6316 -3.62499 -1.47343 0
M  V30 817 H 83.2546 -2.70066 -2.91805 0
M  V30 818 N 84.2517 0.741722 -1.39055 0
M  V30 819 C 85.1987 1.85566 -1.37237 0
M  V30 820 C 86.1687 1.64457 -0.233072 0
M  V30 821 O 87.3537 1.85957 -0.427147 0
M  V30 822 C 84.4937 3.23004 -1.215 0
M  V30 823 C 83.6067 3.55864 -2.44918 0
M  V30 824 C 82.7417 4.82669 -2.21821 0
M  V30 825 C 81.7807 5.08351 -3.40948 0
M  V30 826 N 80.9177 6.26356 -3.17211 0
M  V30 827 H 85.7577 1.86455 -2.32462 0
M  V30 828 H 83.2947 0.911176 -1.15482 0
M  V30 829 H 85.2527 4.02331 -1.10389 0
M  V30 830 H 83.8827 3.21411 -0.29908 0
M  V30 831 H 82.9347 2.7129 -2.66657 0
M  V30 832 H 84.2467 3.70765 -3.33668 0
M  V30 833 H 83.4007 5.69962 -2.07914 0
M  V30 834 H 82.1397 4.69929 -1.30454 0
M  V30 835 H 81.1447 4.19522 -3.55361 0
M  V30 836 H 82.3697 5.22981 -4.33207 0
M  V30 837 H 80.3157 6.14917 -2.28502 0
M  V30 838 H 80.2327 6.41813 -3.99515 0
M  V30 839 H 81.5007 7.16506 -3.06984 0
M  V30 840 N 85.7298 1.2412 0.971189 0
M  V30 841 C 86.6398 1.04747 2.09917 0
M  V30 842 C 87.6558 -0.0107162 1.73997 0
M  V30 843 O 88.8318 0.186714 2.00533 0
M  V30 844 C 85.8968 0.650828 3.40537 0
M  V30 845 C 84.9578 1.7851 3.90426 0
M  V30 846 C 84.1908 1.40729 5.14812 0
M  V30 847 O 84.4138 0.29557 5.69634 0
M  V30 848 O 83.3478 2.23168 5.58999 0
M  V30 849 H 87.1738 1.99304 2.29154 0
M  V30 850 H 84.7588 1.02908 1.08307 0
M  V30 851 H 86.6408 0.440992 4.19086 0
M  V30 852 H 85.3158 -0.265649 3.22608 0
M  V30 853 H 84.2228 2.04966 3.12953 0
M  V30 854 H 85.5558 2.68023 4.12825 0
M  V30 855 N 87.2079 -1.17134 1.05439 0
M  V30 856 C 88.4329 -1.91913 0.786396 0
M  V30 857 C 88.8579 -1.7643 -0.652234 0
M  V30 858 O 88.2159 -1.08372 -1.45345 0
M  V30 859 C 88.2639 -3.40921 1.17497 0
M  V30 860 O 87.3679 -4.11244 0.308589 0
M  V30 861 H 86.7089 -0.598215 0.288158 0
M  V30 862 H 89.2389 -1.48457 1.4079 0
M  V30 863 H 89.2489 -3.91668 1.14281 0
M  V30 864 H 87.9239 -3.5151 2.22292 0
M  V30 865 H 86.5009 -3.70731 0.40157 0
M  V30 866 N 88.686 -0.835752 -1.33615 0
M  V30 867 C 89.934 -0.429109 -1.97492 0
M  V30 868 C 90.255 1.01433 -1.66543 0
M  V30 869 O 89.525 1.70611 -0.962744 0
M  V30 870 H 88.105 -0.155686 -0.730596 0
M  V30 871 H 90.767 -1.06802 -1.63031 0
M  V30 872 H 89.863 -0.55861 -3.0706 0
M  V30 873 N 90.1641 1.46063 -0.591896 0
M  V30 874 C 91.1271 2.28854 0.125973 0
M  V30 875 C 92.1271 1.38903 0.810107 0
M  V30 876 O 93.3171 1.61186 0.66066 0
M  V30 877 C 90.4491 3.19526 1.1881 0
M  V30 878 H 91.6421 2.93802 -0.601717 0
M  V30 879 H 89.1951 1.52325 -0.350254 0
M  V30 880 H 89.9301 2.59345 1.94707 0
M  V30 881 H 89.7151 3.85766 0.701936 0
M  V30 882 H 91.2051 3.81817 1.69132 0
M  V30 883 N 91.6422 0.330177 1.54103 0
M  V30 884 C 92.8672 -0.274893 2.0557 0
M  V30 885 C 93.2922 -1.44487 1.20437 0
M  V30 886 O 92.6502 -1.80021 0.214991 0
M  V30 887 C 92.6982 -0.68079 3.54115 0
M  V30 888 O 91.8022 -1.7824 3.71893 0
M  V30 889 H 91.1432 -0.0483849 0.662235 0
M  V30 890 H 93.6732 0.480508 1.98878 0
M  V30 891 H 93.6832 -0.961635 3.96505 0
M  V30 892 H 92.3582 0.174903 4.15532 0
M  V30 893 H 90.9352 -1.49985 3.41407 0
M  V30 894 N 93.1203 -1.57491 0.0584922 0
M  V30 895 C 94.3663 -1.93264 -0.614558 0
M  V30 896 C 94.6993 -0.937717 -1.7006 0
M  V30 897 O 93.9743 0.0351652 -1.94468 0
M  V30 898 C 94.2573 -3.3938 -1.20386 0
M  V30 899 C 94.1103 -4.49625 -0.125375 0
M  V30 900 C 95.4293 -3.86039 -2.11334 0
M  V30 901 H 92.5483 -0.702791 -0.221933 0
M  V30 902 H 95.1903 -1.8961 0.12175 0
M  V30 903 H 93.3403 -3.42626 -1.83139 0
M  V30 904 H 95.0123 -4.58506 0.506971 0
M  V30 905 H 93.2553 -4.30354 0.545672 0
M  V30 906 H 93.9263 -5.48967 -0.577861 0
M  V30 907 H 96.4023 -3.84716 -1.58534 0
M  V30 908 H 95.2783 -4.88914 -2.49507 0
M  V30 909 H 95.5393 -3.23215 -3.01636 0
M  V30 910 N 94.5984 0.214957 -1.56127 0
M  V30 911 C 95.8754 0.963093 -1.70247 0
M  V30 912 C 96.2554 2.02166 -0.60764 0
M  V30 913 O 95.6034 2.25244 0.384385 0
M  V30 914 C 95.8134 1.56756 -3.11815 0
M  V30 915 C 97.1614 2.0573 -3.7143 0
M  V30 916 O 98.1854 1.66637 -3.14818 0
M  V30 917 O 97.0444 2.77603 -4.70743 0
M  V30 918 H 94.1384 0.450321 -0.693643 0
M  V30 919 H 96.6844 0.206219 -1.68442 0
M  V30 920 H 95.4564 0.803533 -3.82961 0
M  V30 921 H 95.0794 2.3898 -3.17765 0
M  V30 922 N 96.0765 1.50051 0.48192 0
M  V30 923 C 96.9865 1.7089 1.60728 0
M  V30 924 C 98.0025 0.591788 1.63627 0
M  V30 925 O 99.1785 0.868817 1.81696 0
M  V30 926 C 96.2435 1.78855 2.97005 0
M  V30 927 C 95.3045 3.02537 3.04581 0
M  V30 928 C 94.5375 3.10112 4.34357 0
M  V30 929 O 94.7605 2.24765 5.24249 0
M  V30 930 O 93.6945 4.02747 4.47301 0
M  V30 931 H 97.5205 2.66264 1.46072 0
M  V30 932 H 95.1055 1.34018 0.660264 0
M  V30 933 H 96.9875 1.86336 3.77964 0
M  V30 934 H 95.6625 0.866628 3.11883 0
M  V30 935 H 94.5695 3.00563 2.22739 0
M  V30 936 H 95.9025 3.94272 2.94636 0
M  V30 937 N 97.5546 -0.734337 1.39446 0
M  V30 938 C 98.8006 -1.49613 1.36908 0
M  V30 939 C 99.1336 -1.94169 -0.0347829 0
M  V30 940 O 98.4086 -1.66833 -0.999847 0
M  V30 941 C 98.6916 -2.73534 2.34203 0
M  V30 942 C 98.5446 -2.34993 3.83534 0
M  V30 943 C 99.8636 -3.75635 2.29317 0
M  V30 944 H 96.9826 -0.542714 0.498629 0
M  V30 945 H 99.6246 -0.839597 1.70443 0
M  V30 946 H 97.7746 -3.29553 2.05736 0
M  V30 947 H 99.4466 -1.84601 4.22753 0
M  V30 948 H 97.6896 -1.67213 4.00278 0
M  V30 949 H 98.3606 -3.23738 4.47099 0
M  V30 950 H 100.837 -3.29203 2.54489 0
M  V30 951 H 99.7126 -4.60008 2.99472 0
M  V30 952 H 99.9736 -4.22603 1.29842 0
M  V30 953 N 99.0327 -1.24633 -0.964593 0
M  V30 954 C 99.9957 -1.0424 -2.04124 0
M  V30 955 C 100.996 0.00137563 -1.608 0
M  V30 956 O 102.186 -0.239883 -1.7254 0
M  V30 957 C 99.3177 -0.580588 -3.3592 0
M  V30 958 H 100.511 -1.99803 -2.23649 0
M  V30 959 H 98.0637 -1.06899 -1.14027 0
M  V30 960 H 98.7987 0.3781 -3.22088 0
M  V30 961 H 98.5837 -1.33398 -3.6871 0
M  V30 962 H 100.074 -0.459034 -4.15069 0
M  V30 963 N 100.511 1.16574 -1.06058 0
M  V30 964 C 101.927 1.3904 -0.783585 0
M  V30 965 C 102.127 1.91784 0.618145 0
M  V30 966 O 101.183 2.11511 1.37911 0
M  V30 967 C 102.496 2.37329 -1.84649 0
M  V30 968 C 104.044 2.51018 -1.86973 0
M  V30 969 C 104.519 3.52588 -2.92311 0
M  V30 970 N 106.01 3.60113 -2.91329 0
M  V30 971 C 106.745 4.38486 -3.69482 0
M  V30 972 N 106.241 5.20302 -4.57447 0
M  V30 973 N 108.034 4.33446 -3.57885 0
M  V30 974 H 100.185 0.806725 -1.96483 0
M  V30 975 H 102.448 0.417117 -0.851303 0
M  V30 976 H 102.154 2.05663 -2.85299 0
M  V30 977 H 102.028 3.36946 -1.6955 0
M  V30 978 H 104.415 2.81989 -0.869827 0
M  V30 979 H 104.496 1.51445 -2.0615 0
M  V30 980 H 104.14 3.22354 -3.92492 0
M  V30 981 H 104.07 4.51886 -2.70383 0
M  V30 982 H 106.561 3.01707 -2.27555 0
M  V30 983 H 106.874 5.77311 -5.13743 0
M  V30 984 H 105.219 5.19653 -4.61503 0
M  V30 985 H 108.41 3.68586 -2.88551 0
M  V30 986 H 108.583 4.94279 -4.19037 0
M  V30 987 N 101.989 0.842826 1.3317 0
M  V30 988 C 102.921 0.236245 2.27979 0
M  V30 989 C 103.934 -0.585282 1.51915 0
M  V30 990 O 105.123 -0.411705 1.73687 0
M  V30 991 C 102.223 -0.685717 3.3189 0
M  V30 992 C 101.396 0.0973448 4.37292 0
M  V30 993 C 100.455 -0.748565 5.20848 0
M  V30 994 O 99.4809 -0.186339 5.68895 0
M  V30 995 N 100.683 -2.06527 5.42519 0
M  V30 996 H 103.448 1.05088 2.80672 0
M  V30 997 H 101.009 0.701667 1.45905 0
M  V30 998 H 103.001 -1.25669 3.84694 0
M  V30 999 H 101.571 -1.40105 2.79445 0
M  V30 1000 H 100.791 0.849706 3.84933 0
M  V30 1001 H 102.079 0.635643 5.04814 0
M  V30 1002 H 101.477 -2.54554 5.05192 0
M  V30 1003 H 100.034 -2.58464 5.98364 0
M  V30 1004 N 103.467 -1.45747 0.599634 0
M  V30 1005 C 104.397 -2.33235 -0.111306 0
M  V30 1006 C 105.378 -1.46359 -0.866781 0
M  V30 1007 O 106.563 -1.75146 -0.838904 0
M  V30 1008 C 103.693 -3.28932 -1.11451 0
M  V30 1009 C 102.647 -4.25381 -0.472772 0
M  V30 1010 C 101.973 -5.1071 -1.58365 0
M  V30 1011 C 103.273 -5.18831 0.600948 0
M  V30 1012 H 104.967 -2.92927 0.61919 0
M  V30 1013 H 102.513 -1.40857 0.299215 0
M  V30 1014 H 104.466 -3.89002 -1.62036 0
M  V30 1015 H 103.19 -2.67381 -1.8755 0
M  V30 1016 H 101.849 -3.66598 0.0121472 0
M  V30 1017 H 101.497 -4.45533 -2.33473 0
M  V30 1018 H 101.197 -5.7604 -1.15982 0
M  V30 1019 H 102.721 -5.73647 -2.09194 0
M  V30 1020 H 104.135 -5.73019 0.179491 0
M  V30 1021 H 102.532 -5.92595 0.946076 0
M  V30 1022 H 103.602 -4.6174 1.48068 0
M  V30 1023 N 104.945 -0.338344 -1.53925 0
M  V30 1024 C 105.855 0.529421 -2.28548 0
M  V30 1025 C 106.871 1.11645 -1.3346 0
M  V30 1026 O 108.047 1.13325 -1.66492 0
M  V30 1027 C 105.112 1.66713 -3.03987 0
M  V30 1028 C 104.173 1.11041 -4.14691 0
M  V30 1029 C 103.406 2.19389 -4.86522 0
M  V30 1030 O 103.629 3.40013 -4.57982 0
M  V30 1031 O 102.563 1.83976 -5.73094 0
M  V30 1032 H 106.389 -0.0770399 -3.03602 0
M  V30 1033 H 103.974 -0.103555 -1.49041 0
M  V30 1034 H 105.856 2.32918 -3.5118 0
M  V30 1035 H 104.531 2.25949 -2.31794 0
M  V30 1036 H 103.438 0.413024 -3.71813 0
M  V30 1037 H 104.771 0.562975 -4.8897 0
M  V30 1038 N 106.423 1.57458 -0.0668435 0
M  V30 1039 C 107.839 1.56947 0.289772 0
M  V30 1040 C 108.039 1.07584 1.70376 0
M  V30 1041 O 107.095 0.739486 2.41429 0
M  V30 1042 C 108.408 3.0052 0.103943 0
M  V30 1043 C 109.956 3.12517 0.173857 0
M  V30 1044 C 110.431 4.57997 0.0163682 0
M  V30 1045 N 111.922 4.63144 0.0721352 0
M  V30 1046 C 112.657 5.73394 -0.0253794 0
M  V30 1047 N 112.153 6.92576 -0.176133 0
M  V30 1048 N 113.946 5.62091 0.0313305 0
M  V30 1049 H 106.097 1.87863 -0.991027 0
M  V30 1050 H 108.36 0.86583 -0.38606 0
M  V30 1051 H 108.066 3.40729 -0.871572 0
M  V30 1052 H 107.94 3.67304 0.858366 0
M  V30 1053 H 110.327 2.72197 1.13985 0
M  V30 1054 H 110.408 2.48381 -0.611586 0
M  V30 1055 H 110.052 4.99005 -0.946374 0
M  V30 1056 H 109.982 5.20158 0.821153 0
M  V30 1057 H 112.473 3.77436 0.187263 0
M  V30 1058 H 112.786 7.72418 -0.242821 0
M  V30 1059 H 111.131 6.94678 -0.211429 0
M  V30 1060 H 114.322 4.67867 0.147773 0
M  V30 1061 H 114.495 6.47982 -0.048121 0
M  V30 1062 N 107.901 -0.206675 1.56239 0
M  V30 1063 C 109.126 -0.949474 1.8439 0
M  V30 1064 C 109.551 -1.76549 0.649016 0
M  V30 1065 O 108.909 -1.76782 -0.402231 0
M  V30 1066 C 108.957 -1.83078 3.10668 0
M  V30 1067 O 108.061 -2.9281 2.90407 0
M  V30 1068 H 107.402 -0.268033 0.607499 0
M  V30 1069 H 109.932 -0.215488 2.03462 0
M  V30 1070 H 109.942 -2.2377 3.41161 0
M  V30 1071 H 108.617 -1.23112 3.97261 0
M  V30 1072 H 107.194 -2.55956 2.71184 0
M  V30 1073 N 109.379 -1.50304 -0.473955 0
M  V30 1074 C 110.342 -1.6841 -1.55469 0
M  V30 1075 C 111.342 -0.554905 -1.50922 0
M  V30 1076 O 112.532 -0.821882 -1.53593 0
M  V30 1077 C 109.664 -1.70667 -2.95102 0
M  V30 1078 H 110.857 -2.64828 -1.40733 0
M  V30 1079 H 108.41 -1.39742 -0.700132 0
M  V30 1080 H 109.145 -0.75932 -3.15285 0
M  V30 1081 H 108.93 -2.52698 -2.9981 0
M  V30 1082 H 110.42 -1.8664 -3.73571 0
M  V30 1083 N 110.857 0.726932 -1.39834 0
M  V30 1084 C 111.787 1.85405 -1.41941 0
M  V30 1085 C 112.768 1.67751 -0.281728 0
M  V30 1086 O 113.953 1.8795 -0.488717 0
M  V30 1087 C 111.083 3.23243 -1.2701 0
M  V30 1088 C 110.037 3.55549 -2.38262 0
M  V30 1089 C 109.363 4.9241 -2.08415 0
M  V30 1090 C 110.663 3.577 -3.80589 0
M  V30 1091 H 112.357 1.83899 -2.36266 0
M  V30 1092 H 109.903 0.883349 -1.13723 0
M  V30 1093 H 111.856 4.01775 -1.27103 0
M  V30 1094 H 110.58 3.25296 -0.291564 0
M  V30 1095 H 109.239 2.79351 -2.37399 0
M  V30 1096 H 108.887 4.91052 -1.0898 0
M  V30 1097 H 108.587 5.14992 -2.82943 0
M  V30 1098 H 110.111 5.73289 -2.10171 0
M  V30 1099 H 111.525 4.26293 -3.83337 0
M  V30 1100 H 109.922 3.91804 -4.54543 0
M  V30 1101 H 110.992 2.57328 -4.10987 0
M  V30 1102 N 112.336 1.25143 0.95797 0
M  V30 1103 C 113.246 1.06968 2.08794 0
M  V30 1104 C 114.262 0.00773911 1.73998 0
M  V30 1105 O 115.438 0.207972 2.00323 0
M  V30 1106 C 112.503 0.68691 3.39827 0
M  V30 1107 C 111.564 1.82641 3.88511 0
M  V30 1108 C 110.797 1.46181 5.1329 0
M  V30 1109 O 111.02 0.355971 5.69288 0
M  V30 1110 O 109.954 2.29085 5.566 0
M  V30 1111 H 113.78 2.01723 2.27027 0
M  V30 1112 H 111.365 1.04051 1.07209 0
M  V30 1113 H 113.247 0.485417 4.18595 0
M  V30 1114 H 111.922 -0.231417 3.22872 0
M  V30 1115 H 110.829 2.08274 3.10762 0
M  V30 1116 H 112.162 2.72386 4.09959 0
M  V30 1117 N 113.814 -1.1601 1.06675 0
M  V30 1118 C 115.091 -1.82679 0.699114 0
M  V30 1119 C 115.471 -1.94559 -0.819137 0
M  V30 1120 O 114.819 -1.49169 -1.73092 0
M  V30 1121 C 115.029 -3.19445 1.40555 0
M  V30 1122 C 116.377 -3.95171 1.55323 0
M  V30 1123 O 117.401 -3.28976 1.36577 0
M  V30 1124 O 116.26 -5.13833 1.86112 0
M  V30 1125 H 113.354 -0.788954 0.247951 0
M  V30 1126 H 115.9 -1.23179 1.16726 0
M  V30 1127 H 114.672 -3.05856 2.44065 0
M  V30 1128 H 114.295 -3.86625 0.927733 0
M  V30 1129 N 115.292 -0.849877 -1.32721 0
M  V30 1130 C 116.239 -0.289033 -2.28983 0
M  V30 1131 C 117.209 0.601324 -1.54833 0
M  V30 1132 O 118.394 0.537253 -1.8308 0
M  V30 1133 C 115.534 0.520623 -3.4115 0
M  V30 1134 C 114.647 -0.394989 -4.3019 0
M  V30 1135 C 113.782 0.426834 -5.29482 0
M  V30 1136 C 112.821 -0.486476 -6.10164 0
M  V30 1137 N 111.958 0.297879 -7.01468 0
M  V30 1138 H 116.798 -1.11519 -2.76347 0
M  V30 1139 H 114.335 -0.56138 -1.35967 0
M  V30 1140 H 116.293 1.00563 -4.04899 0
M  V30 1141 H 114.923 1.31165 -2.9495 0
M  V30 1142 H 113.975 -0.99836 -3.67065 0
M  V30 1143 H 115.287 -1.09612 -4.86607 0
M  V30 1144 H 114.441 0.975205 -5.98811 0
M  V30 1145 H 113.18 1.16136 -4.73671 0
M  V30 1146 H 112.185 -1.04677 -5.39743 0
M  V30 1147 H 113.41 -1.21953 -6.6806 0
M  V30 1148 H 111.356 1.01558 -6.48091 0
M  V30 1149 H 111.273 -0.344318 -7.55216 0
M  V30 1150 H 112.541 0.828131 -7.75089 0
M  V30 1151 N 116.77 1.45427 -0.607355 0
M  V30 1152 C 117.68 2.34325 0.113463 0
M  V30 1153 C 118.696 1.51226 0.860617 0
M  V30 1154 O 119.872 1.84029 0.818255 0
M  V30 1155 C 116.937 3.28839 1.09844 0
M  V30 1156 C 115.998 4.27844 0.353271 0
M  V30 1157 C 115.231 5.17842 1.29133 0
M  V30 1158 O 115.454 5.11264 2.52913 0
M  V30 1159 O 114.388 5.96713 0.788523 0
M  V30 1160 H 118.214 2.97364 -0.617094 0
M  V30 1161 H 115.799 1.44807 -0.367619 0
M  V30 1162 H 117.681 3.8708 1.66575 0
M  V30 1163 H 116.356 2.68365 1.81003 0
M  V30 1164 H 115.263 3.7322 -0.256494 0
M  V30 1165 H 116.596 4.91173 -0.317822 0
M  V30 1166 N 118.248 0.346503 1.53744 0
M  V30 1167 C 119.664 -0.00530975 1.59599 0
M  V30 1168 C 119.864 -1.48465 1.36236 0
M  V30 1169 O 118.92 -2.24376 1.15808 0
M  V30 1170 C 120.233 0.433516 2.97559 0
M  V30 1171 C 121.781 0.386111 3.10609 0
M  V30 1172 C 122.256 0.800451 4.50951 0
M  V30 1173 N 123.747 0.754753 4.5701 0
M  V30 1174 C 124.482 1.04727 5.63755 0
M  V30 1175 N 123.978 1.4081 6.7834 0
M  V30 1176 N 125.771 0.971316 5.53644 0
M  V30 1177 H 117.922 1.31009 1.67184 0
M  V30 1178 H 120.185 0.534242 0.783128 0
M  V30 1179 H 119.891 1.46509 3.19731 0
M  V30 1180 H 119.765 -0.189753 3.76722 0
M  V30 1181 H 122.152 -0.636295 2.88158 0
M  V30 1182 H 122.233 1.04462 2.33498 0
M  V30 1183 H 121.877 1.82088 4.74137 0
M  V30 1184 H 121.807 0.119386 5.26465 0
M  V30 1185 H 124.298 0.488662 3.74727 0
M  V30 1186 H 124.611 1.61607 7.55714 0
M  V30 1187 H 122.956 1.44657 6.79779 0
M  V30 1188 H 126.147 0.688748 4.63005 0
M  V30 1189 H 126.32 1.20263 6.36742 0
M  V30 1190 N 119.726 -1.57421 0.075193 0
M  V30 1191 C 121.003 -1.85029 -0.634329 0
M  V30 1192 C 121.383 -0.968305 -1.87582 0
M  V30 1193 O 120.731 -0.0354749 -2.28472 0
M  V30 1194 C 120.941 -3.35286 -0.968742 0
M  V30 1195 C 122.289 -4.02875 -1.34077 0
M  V30 1196 O 123.313 -3.40051 -1.06037 0
M  V30 1197 O 122.172 -5.13691 -1.86506 0
M  V30 1198 H 119.266 -0.7645 -0.315387 0
M  V30 1199 H 121.812 -1.69366 0.106382 0
M  V30 1200 H 120.584 -3.91203 -0.0871376 0
M  V30 1201 H 120.207 -3.56223 -1.7661 0
M  V30 1202 N 121.204 0.198386 -1.56346 0
M  V30 1203 C 122.114 1.2664 -1.97483 0
M  V30 1204 C 123.13 1.49989 -0.882002 0
M  V30 1205 O 124.306 1.62668 -1.18748 0
M  V30 1206 C 121.371 2.59141 -2.30319 0
M  V30 1207 C 120.432 2.43892 -3.53292 0
M  V30 1208 C 119.665 3.70074 -3.84553 0
M  V30 1209 O 119.888 4.74101 -3.1715 0
M  V30 1210 O 118.822 3.658 -4.7799 0
M  V30 1211 H 122.648 0.947304 -2.88548 0
M  V30 1212 H 120.233 0.403123 -1.43859 0
M  V30 1213 H 122.115 3.37352 -2.5253 0
M  V30 1214 H 120.79 2.90684 -1.42423 0
M  V30 1215 H 119.697 1.63803 -3.36332 0
M  V30 1216 H 121.03 2.17282 -4.41644 0
M  V30 1217 N 122.682 1.50554 0.465978 0
M  V30 1218 C 123.959 1.5232 1.22712 0
M  V30 1219 C 124.339 0.270807 2.09356 0
M  V30 1220 O 123.687 -0.745541 2.15995 0
M  V30 1221 C 123.897 2.82175 2.05374 0
M  V30 1222 C 125.245 3.33033 2.6339 0
M  V30 1223 O 126.269 2.83531 2.15612 0
M  V30 1224 O 125.128 4.19336 3.50456 0
M  V30 1225 H 122.222 0.611183 0.557122 0
M  V30 1226 H 124.768 1.62847 0.477381 0
M  V30 1227 H 123.54 3.64797 1.41558 0
M  V30 1228 H 123.163 2.74675 2.87471 0
M  V30 1229 N 124.16 -0.719506 1.40217 0
M  V30 1230 C 125.437 -1.47221 1.28784 0
M  V30 1231 C 125.817 -2.10883 -0.0956067 0
M  V30 1232 O 125.165 -1.99833 -1.10811 0
M  V30 1233 C 125.375 -2.5111 2.42373 0
M  V30 1234 C 126.723 -3.17053 2.82423 0
M  V30 1235 O 127.747 -2.61429 2.41937 0
M  V30 1236 O 126.606 -4.17742 3.52355 0
M  V30 1237 H 123.7 -0.654491 0.50554 0
M  V30 1238 H 126.246 -0.752014 1.52128 0
M  V30 1239 H 125.018 -2.02556 3.34793 0
M  V30 1240 H 124.641 -3.3067 2.20778 0
M  V30 1241 N 125.638 -1.25649 -0.95132 0
M  V30 1242 C 126.548 -1.08073 -2.08224 0
M  V30 1243 C 127.564 -0.0169666 -1.73992 0
M  V30 1244 O 128.74 -0.218593 -2.0021 0
M  V30 1245 C 125.805 -0.704922 -3.39458 0
M  V30 1246 C 124.866 -1.84699 -3.87537 0
M  V30 1247 C 124.099 -1.48902 -5.12508 0
M  V30 1248 O 124.322 -0.386156 -5.69091 0
M  V30 1249 O 123.256 -2.32033 -5.55378 0
M  V30 1250 H 127.082 -2.02924 -2.25954 0
M  V30 1251 H 124.667 -1.04618 -1.06656 0
M  V30 1252 H 126.549 -0.507609 -4.18332 0
M  V30 1253 H 125.224 0.214291 -3.2299 0
M  V30 1254 H 124.131 -2.09919 -3.09653 0
M  V30 1255 H 125.464 -2.74557 -4.08509 0
M  V30 1256 N 127.117 1.15442 -1.07289 0
M  V30 1257 C 128.394 1.82306 -0.708792 0
M  V30 1258 C 128.774 1.94991 0.808807 0
M  V30 1259 O 128.122 1.50085 1.72298 0
M  V30 1260 C 128.332 3.18695 -1.42247 0
M  V30 1261 C 129.68 3.94341 -1.57417 0
M  V30 1262 O 130.704 3.28247 -1.38319 0
M  V30 1263 O 129.563 5.12839 -1.88834 0
M  V30 1264 H 126.657 0.787628 -0.252132 0
M  V30 1265 H 129.203 1.22559 -1.17377 0
M  V30 1266 H 127.975 3.04557 -2.45684 0
M  V30 1267 H 127.598 3.86128 -0.948223 0
M  V30 1268 N 128.595 0.856903 1.32268 0
M  V30 1269 C 129.843 0.460474 1.96784 0
M  V30 1270 C 130.164 -0.987701 1.68135 0
M  V30 1271 O 129.434 -1.69058 0.989765 0
M  V30 1272 H 128.014 0.167289 0.728027 0
M  V30 1273 H 130.676 1.09383 1.61312 0
M  V30 1274 H 129.772 0.60739 3.06133 0
M  V30 1275 N 130.073 -1.45103 0.615059 0
M  V30 1276 C 131.35 -1.95549 0.0448276 0
M  V30 1277 C 131.73 -1.55737 -1.4251 0
M  V30 1278 O 131.078 -0.823556 -2.13143 0
M  V30 1279 C 131.288 -3.48098 0.250785 0
M  V30 1280 C 132.636 -4.24384 0.135509 0
M  V30 1281 O 133.66 -3.55738 0.181299 0
M  V30 1282 O 132.519 -5.46493 0.0268878 0
M  V30 1283 H 129.613 -0.8264 -0.0314845 0
M  V30 1284 H 132.159 -1.55232 0.685642 0
M  V30 1285 H 130.931 -3.7007 1.27139 0
M  V30 1286 H 130.554 -3.95323 -0.424937 0
M  V30 1287 N 131.551 -0.354651 -1.53558 0
M  V30 1288 C 132.799 0.237972 -2.00694 0
M  V30 1289 C 133.12 1.50173 -1.24391 0
M  V30 1290 O 132.39 1.92673 -0.354135 0
M  V30 1291 H 130.97 0.0909256 -0.741446 0
M  V30 1292 H 133.632 -0.478368 -1.88938 0
M  V30 1293 H 132.728 0.47264 -3.085 0
M  V30 1294 N 133.029 1.57378 -0.0835403 0
M  V30 1295 C 134.306 1.85363 0.624507 0
M  V30 1296 C 134.686 0.978239 1.87066 0
M  V30 1297 O 134.034 0.0475908 2.2845 0
M  V30 1298 C 134.244 3.35795 0.950947 0
M  V30 1299 C 135.592 4.03581 1.31939 0
M  V30 1300 O 136.616 3.40609 1.04232 0
M  V30 1301 O 135.475 5.14672 1.83779 0
M  V30 1302 H 132.569 0.766162 0.311329 0
M  V30 1303 H 135.115 1.69307 -0.115362 0
M  V30 1304 H 133.887 3.91244 0.0663899 0
M  V30 1305 H 133.51 3.57154 1.74719 0
M  V30 1306 N 134.507 -0.190092 1.56449 0
M  V30 1307 C 135.755 -0.907908 1.80559 0
M  V30 1308 C 136.076 -1.83583 0.657438 0
M  V30 1309 O 135.346 -1.93203 -0.323924 0
M  V30 1310 H 133.926 -0.338247 0.666032 0
M  V30 1311 H 136.588 -0.194403 1.93928 0
M  V30 1312 H 135.684 -1.49604 2.73907 0
M  V30 1313 N 135.985 -1.50799 -0.457987 0
M  V30 1314 C 137.262 -1.52968 -1.21902 0
M  V30 1315 C 137.642 -0.281906 -2.09209 0
M  V30 1316 O 136.99 0.734076 -2.16388 0
M  V30 1317 C 137.2 -2.8326 -2.03875 0
M  V30 1318 C 138.548 -3.34425 -2.6162 0
M  V30 1319 O 139.572 -2.8467 -2.14106 0
M  V30 1320 O 138.431 -4.21188 -3.48228 0
M  V30 1321 H 135.525 -0.614129 -0.553873 0
M  V30 1322 H 138.071 -1.63098 -0.468739 0
M  V30 1323 H 136.843 -3.65543 -1.39621 0
M  V30 1324 H 136.466 -2.76195 -2.8601 0
M  V30 1325 N 137.463 0.71206 -1.40597 0
M  V30 1326 C 138.711 1.46907 -1.38791 0
M  V30 1327 C 139.032 1.94998 0.00780391 0
M  V30 1328 O 138.302 1.70587 0.963174 0
M  V30 1329 H 136.882 0.545043 -0.51082 0
M  V30 1330 H 139.544 0.843882 -1.75683 0
M  V30 1331 H 138.64 2.34021 -2.06496 0
M  V30 1332 N 138.941 1.26152 0.944643 0
M  V30 1333 C 139.904 1.07474 2.0244 0
M  V30 1334 C 140.904 0.0242064 1.60782 0
M  V30 1335 O 142.094 0.267302 1.72137 0
M  V30 1336 C 139.226 0.633956 3.34953 0
M  V30 1337 H 140.419 2.03336 2.20442 0
M  V30 1338 H 137.972 1.087 1.12312 0
M  V30 1339 H 138.707 -0.326811 3.22649 0
M  V30 1340 H 138.492 1.39247 3.66542 0
M  V30 1341 H 139.982 0.52501 4.14287 0
M  V30 1342 N 140.419 -1.14872 1.07899 0
M  V30 1343 C 141.647 -1.89661 0.82683 0
M  V30 1344 C 142.062 -1.78312 -0.620519 0
M  V30 1345 O 141.419 -1.13888 -1.42604 0
M  V30 1346 C 141.47 -3.39817 1.23316 0
M  V30 1347 O 141.191 -3.50845 2.62372 0
M  V30 1348 C 142.692 -4.31615 1.0111 0
M  V30 1349 H 139.912 -0.60092 0.298557 0
M  V30 1350 H 142.456 -1.4551 1.43691 0
M  V30 1351 H 140.611 -3.8161 0.667286 0
M  V30 1352 H 141.025 -4.44076 2.79101 0
M  V30 1353 H 142.499 -5.35367 1.34486 0
M  V30 1354 H 142.976 -4.39169 -0.0522168 0
M  V30 1355 H 143.582 -3.95572 1.56215 0
M  V30 1356 N 141.898 -0.863906 -1.31812 0
M  V30 1357 C 143.146 -0.470904 -1.96537 0
M  V30 1358 C 143.467 0.978771 -1.68657 0
M  V30 1359 O 142.737 1.6853 -0.998717 0
M  V30 1360 H 141.317 -0.171148 -0.72713 0
M  V30 1361 H 143.979 -1.10236 -1.60729 0
M  V30 1362 H 143.075 -0.623616 -3.05806 0
M  V30 1363 N 143.376 1.44774 -0.622745 0
M  V30 1364 C 144.323 2.30635 0.0871679 0
M  V30 1365 C 145.293 1.42994 0.845097 0
M  V30 1366 O 146.478 1.71907 0.827812 0
M  V30 1367 C 143.618 3.28144 1.06844 0
M  V30 1368 C 142.731 4.30888 0.309809 0
M  V30 1369 C 141.866 5.15494 1.28215 0
M  V30 1370 C 140.905 6.09953 0.512198 0
M  V30 1371 N 140.042 6.87287 1.43458 0
M  V30 1372 H 144.882 2.90803 -0.650974 0
M  V30 1373 H 142.419 1.43286 -0.33281 0
M  V30 1374 H 144.377 3.83157 1.65066 0
M  V30 1375 H 143.007 2.69695 1.77382 0
M  V30 1376 H 142.059 3.78414 -0.388181 0
M  V30 1377 H 143.371 4.97955 -0.290254 0
M  V30 1378 H 142.525 5.74983 1.93596 0
M  V30 1379 H 141.264 4.48481 1.91614 0
M  V30 1380 H 140.269 5.49581 -0.155151 0
M  V30 1381 H 141.494 6.78999 -0.116958 0
M  V30 1382 H 139.44 6.2295 2.05594 0
M  V30 1383 H 139.357 7.50763 0.888335 0
M  V30 1384 H 140.625 7.51306 2.07749 0
M  V30 1385 N 144.854 0.36279 1.53368 0
M  V30 1386 C 145.801 -0.485008 2.25646 0
M  V30 1387 C 146.771 -1.07982 1.2621 0
M  V30 1388 O 147.956 -1.11284 1.54986 0
M  V30 1389 C 145.096 -1.62023 3.04701 0
M  V30 1390 C 144.209 -1.05086 4.19024 0
M  V30 1391 C 143.344 -2.15496 4.85525 0
M  V30 1392 C 142.383 -1.5601 5.91884 0
M  V30 1393 N 141.52 -2.60241 6.52088 0
M  V30 1394 H 146.36 0.137864 2.97681 0
M  V30 1395 H 143.897 0.0798061 1.46883 0
M  V30 1396 H 145.855 -2.28887 3.48807 0
M  V30 1397 H 144.485 -2.2138 2.34927 0
M  V30 1398 H 143.537 -0.27259 3.79422 0
M  V30 1399 H 144.849 -0.575926 4.95464 0
M  V30 1400 H 144.003 -2.90186 5.32801 0
M  V30 1401 H 142.742 -2.66341 4.08551 0
M  V30 1402 H 141.747 -0.798338 5.43973 0
M  V30 1403 H 142.972 -1.05994 6.70777 0
M  V30 1404 H 140.918 -3.10304 5.77968 0
M  V30 1405 H 140.835 -2.17426 7.24059 0
M  V30 1406 H 142.103 -3.34641 7.04014 0
M  V30 1407 N 146.332 -1.57332 0.0918853 0
M  V30 1408 C 147.279 -2.13847 -0.868211 0
M  V30 1409 C 148.249 -1.05618 -1.28196 0
M  V30 1410 O 149.434 -1.33387 -1.36427 0
M  V30 1411 C 146.574 -2.72062 -2.12312 0
M  V30 1412 C 145.687 -3.94514 -1.7602 0
M  V30 1413 C 144.822 -4.40903 -2.96273 0
M  V30 1414 C 143.861 -5.55953 -2.56092 0
M  V30 1415 N 142.998 -5.97209 -3.69169 0
M  V30 1416 H 147.838 -2.95575 -0.379406 0
M  V30 1417 H 145.375 -1.46048 -0.175606 0
M  V30 1418 H 147.333 -3.03931 -2.858 0
M  V30 1419 H 145.963 -1.93068 -2.58698 0
M  V30 1420 H 145.015 -3.68979 -0.925135 0
M  V30 1421 H 146.327 -4.7802 -1.42472 0
M  V30 1422 H 145.481 -4.74539 -3.78018 0
M  V30 1423 H 144.22 -3.56291 -3.33029 0
M  V30 1424 H 143.225 -5.21948 -1.72773 0
M  V30 1425 H 144.45 -6.42311 -2.20484 0
M  V30 1426 H 142.396 -5.15543 -4.05649 0
M  V30 1427 H 142.313 -6.75504 -3.39456 0
M  V30 1428 H 143.581 -6.35475 -4.51434 0
M  V30 1429 N 147.81 0.181792 -1.56548 0
M  V30 1430 C 148.757 1.22521 -1.95595 0
M  V30 1431 C 149.727 1.4454 -0.818373 0
M  V30 1432 O 150.912 1.57454 -1.07763 0
M  V30 1433 C 148.052 2.56193 -2.31212 0
M  V30 1434 C 147.165 2.41641 -3.58097 0
M  V30 1435 C 146.3 3.68108 -3.82975 0
M  V30 1436 C 145.339 3.48445 -5.03242 0
M  V30 1437 N 144.476 4.66956 -5.24306 0
M  V30 1438 H 149.316 0.885226 -2.84548 0
M  V30 1439 H 146.853 0.425718 -1.40805 0
M  V30 1440 H 148.811 3.34088 -2.49882 0
M  V30 1441 H 147.441 2.88208 -1.45382 0
M  V30 1442 H 146.493 1.54976 -3.474 0
M  V30 1443 H 147.805 2.23052 -4.46149 0
M  V30 1444 H 146.959 4.54441 -4.01956 0
M  V30 1445 H 145.698 3.89666 -2.93278 0
M  V30 1446 H 144.703 2.60499 -4.8417 0
M  V30 1447 H 145.928 3.2832 -5.9446 0
M  V30 1448 H 143.874 4.88752 -4.37559 0
M  V30 1449 H 143.791 4.51242 -6.06561 0
M  V30 1450 H 145.059 5.54602 -5.47756 0
M  V30 1451 N 149.288 1.51039 0.449983 0
M  V30 1452 C 150.235 1.71439 1.54523 0
M  V30 1453 C 151.205 0.555871 1.56522 0
M  V30 1454 O 152.39 0.788871 1.73728 0
M  V30 1455 C 149.53 1.83384 2.92343 0
M  V30 1456 C 148.643 3.10873 2.9997 0
M  V30 1457 C 147.778 3.13488 4.28834 0
M  V30 1458 C 146.817 4.35343 4.30282 0
M  V30 1459 N 145.954 4.35579 5.5065 0
M  V30 1460 H 150.794 2.64934 1.36433 0
M  V30 1461 H 148.331 1.31312 0.662982 0
M  V30 1462 H 150.289 1.88291 3.72293 0
M  V30 1463 H 148.919 0.933086 3.0902 0
M  V30 1464 H 147.971 3.15336 2.12761 0
M  V30 1465 H 149.283 4.00814 2.96901 0
M  V30 1466 H 148.437 3.17241 5.17149 0
M  V30 1467 H 147.176 2.21414 4.34543 0
M  V30 1468 H 146.181 4.3178 3.40362 0
M  V30 1469 H 147.406 5.28668 4.26248 0
M  V30 1470 H 145.352 3.46369 5.57104 0
M  V30 1471 H 145.269 5.19313 5.49409 0
M  V30 1472 H 146.537 4.43507 6.41032 0
M  V30 1473 N 150.766 -0.704594 1.40972 0
M  V30 1474 C 151.713 -1.81862 1.42109 0
M  V30 1475 C 152.683 -1.63781 0.276593 0
M  V30 1476 O 153.868 -1.84759 0.4763 0
M  V30 1477 C 151.008 -3.19669 1.30022 0
M  V30 1478 C 150.121 -3.49246 2.54267 0
M  V30 1479 C 149.256 -4.76618 2.3454 0
M  V30 1480 C 148.295 -4.99133 3.54306 0
M  V30 1481 N 147.432 -6.17726 3.33706 0
M  V30 1482 H 152.272 -1.80226 2.37324 0
M  V30 1483 H 149.809 -0.880238 1.17857 0
M  V30 1484 H 151.767 -3.99263 1.21018 0
M  V30 1485 H 150.397 -3.20506 0.384192 0
M  V30 1486 H 149.449 -2.64125 2.73756 0
M  V30 1487 H 150.761 -3.61788 3.43381 0
M  V30 1488 H 149.915 -5.64249 2.22952 0
M  V30 1489 H 148.654 -4.66305 1.42867 0
M  V30 1490 H 147.659 -4.09953 3.66359 0
M  V30 1491 H 148.884 -5.11311 4.4692 0
M  V30 1492 H 146.83 -6.08642 2.44725 0
M  V30 1493 H 146.747 -6.30995 4.16391 0
M  V30 1494 H 148.015 -7.08115 3.25873 0
M  V30 1495 N 152.244 -1.26651 -0.937939 0
M  V30 1496 C 153.191 -1.0849 -2.03712 0
M  V30 1497 C 154.161 0.011033 -1.66096 0
M  V30 1498 O 155.346 -0.149353 -1.90215 0
M  V30 1499 C 152.486 -0.72735 -3.37348 0
M  V30 1500 C 151.599 -1.89986 -3.87981 0
M  V30 1501 C 150.734 -1.48513 -5.10017 0
M  V30 1502 C 149.773 -2.62575 -5.5292 0
M  V30 1503 N 148.91 -2.21762 -6.66158 0
M  V30 1504 H 153.75 -2.02551 -2.18579 0
M  V30 1505 H 151.287 -1.00844 -1.07093 0
M  V30 1506 H 153.245 -0.50092 -4.14182 0
M  V30 1507 H 151.875 0.176298 -3.22318 0
M  V30 1508 H 150.927 -2.23913 -3.07518 0
M  V30 1509 H 152.239 -2.75586 -4.15757 0
M  V30 1510 H 151.393 -1.21934 -5.94321 0
M  V30 1511 H 150.132 -0.60009 -4.83994 0
M  V30 1512 H 149.137 -2.8988 -4.67172 0
M  V30 1513 H 150.362 -3.51685 -5.80943 0
M  V30 1514 H 148.308 -1.35696 -6.41812 0
M  V30 1515 H 148.225 -3.00903 -6.93537 0
M  V30 1516 H 149.493 -1.98403 -7.53828 0
M  V30 1517 N 153.722 1.14298 -1.08507 0
M  V30 1518 C 154.669 2.19414 -0.715965 0
M  V30 1519 C 155.639 1.63399 0.298326 0
M  V30 1520 O 156.824 1.89929 0.182101 0
M  V30 1521 C 153.964 3.44845 -0.132534 0
M  V30 1522 C 153.077 4.15007 -1.19973 0
M  V30 1523 C 152.212 5.28024 -0.580048 0
M  V30 1524 C 151.251 5.9002 -1.62921 0
M  V30 1525 N 150.388 6.94485 -1.03125 0
M  V30 1526 H 155.228 2.50336 -1.61666 0
M  V30 1527 H 152.765 1.2293 -0.807882 0
M  V30 1528 H 154.723 4.16601 0.223454 0
M  V30 1529 H 153.353 3.14403 0.731467 0
M  V30 1530 H 152.405 3.41629 -1.67313 0
M  V30 1531 H 153.717 4.57178 -1.99473 0
M  V30 1532 H 152.871 6.06455 -0.172364 0
M  V30 1533 H 151.61 4.87076 0.246603 0
M  V30 1534 H 150.615 5.10291 -2.04654 0
M  V30 1535 H 151.84 6.33042 -2.45835 0
M  V30 1536 H 149.786 6.55612 -0.225711 0
M  V30 1537 H 149.703 7.35148 -1.76334 0
M  V30 1538 H 150.971 7.7679 -0.649458 0
M  V30 1539 N 155.201 0.870884 1.31352 0
M  V30 1540 C 156.148 0.325425 2.28494 0
M  V30 1541 C 157.118 -0.576615 1.5577 0
M  V30 1542 O 158.303 -0.508059 1.83911 0
M  V30 1543 C 155.443 -0.466283 3.41935 0
M  V30 1544 C 154.556 0.463378 4.29508 0
M  V30 1545 C 153.691 -0.342544 5.30094 0
M  V30 1546 C 152.73 0.583486 6.09313 0
M  V30 1547 N 151.867 -0.186244 7.01853 0
M  V30 1548 H 156.707 1.15901 2.74538 0
M  V30 1549 H 154.244 0.58294 1.35056 0
M  V30 1550 H 156.202 -0.941085 4.06447 0
M  V30 1551 H 154.832 -1.26456 2.97 0
M  V30 1552 H 153.884 1.05663 3.65431 0
M  V30 1553 H 155.196 1.1734 4.84802 0
M  V30 1554 H 154.35 -0.879816 6.00287 0
M  V30 1555 H 153.089 -1.08585 4.75458 0
M  V30 1556 H 152.094 1.13251 5.3801 0
M  V30 1557 H 153.319 1.32566 6.66035 0
M  V30 1558 H 151.265 -0.912348 6.49625 0
M  V30 1559 H 151.182 0.464422 7.54572 0
M  V30 1560 H 152.45 -0.704716 7.76308 0
M  V30 1561 N 156.679 -1.44442 0.630414 0
M  V30 1562 C 158.095 -1.56832 0.295973 0
M  V30 1563 C 158.295 -1.61806 -1.20088 0
M  V30 1564 O 157.351 -1.5607 -1.9849 0
M  V30 1565 C 158.664 -2.84031 0.987264 0
M  V30 1566 C 160.212 -2.97742 0.96534 0
M  V30 1567 C 160.687 -4.27743 1.63708 0
M  V30 1568 N 162.178 -4.34555 1.60364 0
M  V30 1569 C 162.913 -5.33862 2.09234 0
M  V30 1570 N 162.409 -6.39578 2.66292 0
M  V30 1571 N 164.202 -5.25366 1.99867 0
M  V30 1572 H 156.353 -1.39457 1.60205 0
M  V30 1573 H 158.616 -0.668237 0.672431 0
M  V30 1574 H 158.322 -2.86338 2.04215 0
M  V30 1575 H 158.196 -3.73534 0.524588 0
M  V30 1576 H 160.583 -2.94989 -0.0810639 0
M  V30 1577 H 160.664 -2.09589 1.4665 0
M  V30 1578 H 160.308 -4.31255 2.68293 0
M  V30 1579 H 160.238 -5.14752 1.11076 0
M  V30 1580 H 162.729 -3.58772 1.18705 0
M  V30 1581 H 163.042 -7.11637 3.01317 0
M  V30 1582 H 161.387 -6.40265 2.70343 0
M  V30 1583 H 164.578 -4.41688 1.55013 0
M  V30 1584 H 164.751 -6.02606 2.38265 0
M  V30 1585 N 158.157 -0.370918 -1.53173 0
M  V30 1586 C 159.405 0.216673 -2.00935 0
M  V30 1587 C 159.726 1.48845 -1.25977 0
M  V30 1588 O 158.996 1.92286 -0.374551 0
M  V30 1589 H 157.576 0.0830565 -0.742368 0
M  V30 1590 H 160.238 -0.49838 -1.8842 0
M  V30 1591 H 159.334 0.439893 -3.08984 0
M  V30 1592 N 159.635 1.57281 -0.100228 0
M  V30 1593 C 161.046 1.81725 0.428107 0
M  V30 1594 C 161.397 1.01619 1.67833 0
M  V30 1595 O 160.522 0.247098 2.14985 0
M  V30 1596 C 161.117 3.29617 0.78347 0
M  V30 1597 C 159.676 3.54808 1.25653 0
M  V30 1598 C 158.823 2.76118 0.255752 0
M  V30 1599 H 161.774 1.55324 -0.325608 0
M  V30 1600 H 161.795 3.4322 1.64256 0
M  V30 1601 H 161.307 3.87893 -0.12665 0
M  V30 1602 H 159.408 3.01868 2.18418 0
M  V30 1603 H 159.521 4.63443 1.21482 0
M  V30 1604 H 157.885 2.43745 0.738956 0
M  V30 1605 H 158.668 3.37145 -0.647136 0
M  V30 1606 N 161.113 -0.173488 1.56642 0
M  V30 1607 C 162.06 -1.21482 1.96242 0
M  V30 1608 C 163.03 -1.44104 0.826027 0
M  V30 1609 O 164.215 -1.5688 1.08597 0
M  V30 1610 C 161.355 -2.54964 2.32567 0
M  V30 1611 C 160.468 -2.39739 3.59373 0
M  V30 1612 C 159.603 -3.66072 3.84921 0
M  V30 1613 C 158.642 -3.45771 5.05083 0
M  V30 1614 N 157.779 -4.64169 5.26775 0
M  V30 1615 H 162.619 -0.870123 2.85014 0
M  V30 1616 H 160.156 -0.418245 1.41029 0
M  V30 1617 H 162.114 -3.32758 2.5165 0
M  V30 1618 H 160.744 -2.87433 1.46908 0
M  V30 1619 H 159.796 -1.53131 3.48217 0
M  V30 1620 H 161.108 -2.20683 4.47326 0
M  V30 1621 H 160.262 -4.52303 4.0436 0
M  V30 1622 H 159.001 -3.88105 2.9534 0
M  V30 1623 H 158.006 -2.57927 4.85545 0
M  V30 1624 H 159.231 -3.25163 5.96193 0
M  V30 1625 H 157.177 -4.86425 4.40144 0
M  V30 1626 H 157.094 -4.48019 6.08946 0
M  V30 1627 H 158.362 -5.51689 5.5069 0
M  V30 1628 N 162.591 -1.51276 -0.441967 0
M  V30 1629 C 163.837 -1.63958 -1.19355 0
M  V30 1630 C 164.17 -0.352543 -1.90973 0
M  V30 1631 O 163.445 0.647627 -1.83401 0
M  V30 1632 C 163.728 -2.83979 -2.21422 0
M  V30 1633 C 163.581 -4.22646 -1.53918 0
M  V30 1634 C 164.9 -2.99521 -3.22451 0
M  V30 1635 H 162.019 -0.596709 -0.432559 0
M  V30 1636 H 164.661 -1.83748 -0.483398 0
M  V30 1637 H 162.811 -2.67237 -2.81987 0
M  V30 1638 H 164.483 -4.51045 -0.967256 0
M  V30 1639 H 162.726 -4.25558 -0.841615 0
M  V30 1640 H 163.397 -5.02609 -2.28229 0
M  V30 1641 H 165.873 -3.14944 -2.71937 0
M  V30 1642 H 164.749 -3.85072 -3.91166 0
M  V30 1643 H 165.01 -2.11391 -3.88287 0
M  V30 1644 N 164.069 0.697108 -1.41344 0
M  V30 1645 C 165.001 1.8224 -1.39001 0
M  V30 1646 C 166.014 1.60152 -0.292428 0
M  V30 1647 O 167.203 1.69684 -0.554048 0
M  V30 1648 C 164.303 3.18976 -1.14489 0
M  V30 1649 C 163.476 3.68105 -2.36258 0
M  V30 1650 C 162.535 4.83506 -2.07625 0
M  V30 1651 O 161.561 4.95201 -2.8065 0
M  V30 1652 N 162.763 5.70637 -1.06555 0
M  V30 1653 H 165.528 1.84742 -2.35988 0
M  V30 1654 H 163.089 0.87937 -1.35936 0
M  V30 1655 H 165.081 3.93801 -0.932885 0
M  V30 1656 H 163.651 3.11508 -0.261043 0
M  V30 1657 H 162.871 2.84204 -2.7317 0
M  V30 1658 H 164.159 3.97667 -3.17393 0
M  V30 1659 H 163.557 5.63817 -0.461125 0
M  V30 1660 H 162.114 6.45368 -0.913444 0
M  V30 1661 N 165.547 1.27147 0.931209 0
M  V30 1662 C 166.775 1.16082 1.71267 0
M  V30 1663 C 167.19 -0.282772 1.8667 0
M  V30 1664 O 166.547 -1.19283 1.38122 0
M  V30 1665 C 166.598 1.8358 3.11417 0
M  V30 1666 O 166.319 3.22299 2.96741 0
M  V30 1667 C 167.82 1.78597 4.05732 0
M  V30 1668 H 165.04 0.403758 0.535929 0
M  V30 1669 H 167.584 1.67953 1.16671 0
M  V30 1670 H 165.739 1.35623 3.62885 0
M  V30 1671 H 166.153 3.55851 3.85319 0
M  V30 1672 H 167.627 2.30444 5.01597 0
M  V30 1673 H 168.104 0.754564 4.3267 0
M  V30 1674 H 168.71 2.26152 3.60188 0
M  V30 1675 N 167.025 -1.13721 1.09112 0
M  V30 1676 C 168.302 -1.81155 0.737706 0
M  V30 1677 C 168.682 -1.96253 -0.777683 0
M  V30 1678 O 168.03 -1.52807 -1.69889 0
M  V30 1679 C 168.24 -3.16392 1.47299 0
M  V30 1680 C 169.588 -3.91787 1.63671 0
M  V30 1681 O 170.612 -3.26005 1.43524 0
M  V30 1682 O 169.471 -5.0977 1.96969 0
M  V30 1683 H 166.565 -0.783518 0.26463 0
M  V30 1684 H 169.111 -1.20676 1.19312 0
M  V30 1685 H 167.883 -3.0061 2.50498 0
M  V30 1686 H 167.506 -3.8457 1.00953 0
M  V30 1687 N 168.503 -0.877838 -1.30888 0
M  V30 1688 C 169.914 -0.544193 -1.78593 0
M  V30 1689 C 170.265 0.939301 -1.72254 0
M  V30 1690 O 169.39 1.7337 -1.29505 0
M  V30 1691 C 169.985 -0.98105 -3.24285 0
M  V30 1692 C 168.544 -0.698935 -3.69854 0
M  V30 1693 C 167.691 -1.168 -2.51502 0
M  V30 1694 H 170.642 -1.06278 -1.17859 0
M  V30 1695 H 170.663 -0.307009 -3.79259 0
M  V30 1696 H 170.175 -2.06079 -3.28866 0
M  V30 1697 H 168.276 0.369112 -3.70767 0
M  V30 1698 H 168.389 -1.28148 -4.61644 0
M  V30 1699 H 166.753 -0.587535 -2.47831 0
M  V30 1700 H 167.536 -2.25533 -2.58824 0
M  V30 1701 N 169.982 1.44106 -0.638065 0
M  V30 1702 C 171.393 1.85316 -0.226894 0
M  V30 1703 C 171.744 1.53399 1.22324 0
M  V30 1704 O 170.869 0.975463 1.93167 0
M  V30 1705 C 171.464 3.3637 -0.405013 0
M  V30 1706 C 170.023 3.76369 -0.0482902 0
M  V30 1707 C 169.17 2.67921 -0.715108 0
M  V30 1708 H 172.121 1.34474 -0.842764 0
M  V30 1709 H 172.142 3.7885 0.354 0
M  V30 1710 H 171.654 3.59569 -1.46053 0
M  V30 1711 H 169.755 3.58784 1.00522 0
M  V30 1712 H 169.868 4.76856 -0.463187 0
M  V30 1713 H 168.232 2.54259 -0.149753 0
M  V30 1714 H 169.015 2.93951 -1.77335 0
M  V30 1715 N 171.46 0.379036 1.52974 0
M  V30 1716 C 172.685 -0.209353 2.06341 0
M  V30 1717 C 173.11 -1.40583 1.24972 0
M  V30 1718 O 172.468 -1.79246 0.272155 0
M  V30 1719 C 172.516 -0.567786 3.56102 0
M  V30 1720 O 171.62 -1.66318 3.77375 0
M  V30 1721 H 170.961 -0.0272919 0.663439 0
M  V30 1722 H 173.491 0.543536 1.97248 0
M  V30 1723 H 173.501 -0.835003 3.99364 0
M  V30 1724 H 172.176 0.307013 4.14765 0
M  V30 1725 H 170.753 -1.39048 3.46006 0
M  V30 1726 N 172.938 -1.57226 0.108567 0
M  V30 1727 C 174.184 -1.95121 -0.552761 0
M  V30 1728 C 174.517 -0.991345 -1.66991 0
M  V30 1729 O 173.792 -0.0267211 -1.94482 0
M  V30 1730 C 174.075 -3.43039 -1.09528 0
M  V30 1731 C 173.928 -4.49797 0.0177332 0
M  V30 1732 C 175.247 -3.92567 -1.98945 0
M  V30 1733 H 172.366 -0.709496 -0.199461 0
M  V30 1734 H 175.008 -1.89126 0.182011 0
M  V30 1735 H 173.158 -3.48279 -1.72146 0
M  V30 1736 H 174.83 -4.56661 0.652584 0
M  V30 1737 H 173.073 -4.284 0.682309 0
M  V30 1738 H 173.744 -5.50528 -0.402919 0
M  V30 1739 H 176.22 -3.89565 -1.46214 0
M  V30 1740 H 175.096 -4.96605 -2.33827 0
M  V30 1741 H 175.357 -3.32648 -2.91201 0
M  V30 1742 N 174.416 0.165178 -1.56732 0
M  V30 1743 C 175.827 0.727046 -1.71962 0
M  V30 1744 C 176.178 1.82508 -0.720078 0
M  V30 1745 O 175.303 2.16082 0.117242 0
M  V30 1746 C 175.898 1.32559 -3.11791 0
M  V30 1747 C 174.457 1.83422 -3.28684 0
M  V30 1748 C 173.604 0.715567 -2.67908 0
M  V30 1749 H 176.555 -0.0602896 -1.58585 0
M  V30 1750 H 176.576 2.19533 -3.10782 0
M  V30 1751 H 176.088 0.526195 -3.84516 0
M  V30 1752 H 174.189 2.65986 -2.60926 0
M  V30 1753 H 174.302 1.97543 -4.36478 0
M  V30 1754 H 172.666 1.13758 -2.27884 0
M  V30 1755 H 173.449 -0.0720836 -3.43224 0
M  V30 1756 N 175.894 1.51508 0.433938 0
M  V30 1757 C 177.143 1.63578 1.18005 0
M  V30 1758 C 177.456 0.359514 1.92268 0
M  V30 1759 O 178.662 0.359632 2.69108 0
M  V30 1760 C 177.118 2.88901 2.14626 0
M  V30 1761 C 176.726 4.23544 1.45995 0
M  V30 1762 C 178.47 3.10328 2.89649 0
M  V30 1763 C 176.377 5.40014 2.4112 0
M  V30 1764 H 175.307 0.609277 0.444182 0
M  V30 1765 H 177.958 1.77978 0.446773 0
M  V30 1766 H 176.34 2.68142 2.91403 0
M  V30 1767 H 177.514 4.54696 0.747532 0
M  V30 1768 H 175.829 4.08021 0.831115 0
M  V30 1769 H 178.426 3.94518 3.60915 0
M  V30 1770 H 178.769 2.23544 3.51189 0
M  V30 1771 H 179.302 3.31443 2.19978 0
M  V30 1772 H 176.041 6.29068 1.84264 0
M  V30 1773 H 175.561 5.13233 3.10406 0
M  V30 1774 H 177.24 5.72099 3.02177 0
M  V30 1775 N 177.372 -0.689602 1.41712 0
M  V30 1776 C 178.612 -1.46184 1.42862 0
M  V30 1777 C 178.976 -1.91962 0.0382204 0
M  V30 1778 O 180.177 -2.68694 -0.0755019 0
M  V30 1779 C 178.448 -2.6371 2.4123 0
M  V30 1780 S 180.007 -3.52768 2.6096 0
M  V30 1781 H 176.825 -0.49947 0.506015 0
M  V30 1782 H 179.427 -0.804107 1.78198 0
M  V30 1783 H 178.131 -2.28293 3.41044 0
M  V30 1784 H 177.662 -3.3437 2.07269 0
M  V30 1785 H 179.677 -4.59146 1.88148 0
M  V30 1786 N 178.85 -1.27639 -0.924453 0
M  V30 1787 C 180.127 -1.04887 -1.651 0
M  V30 1788 C 180.507 0.415327 -2.06974 0
M  V30 1789 O 179.855 1.39923 -1.80648 0
M  V30 1790 C 180.065 -2.01348 -2.85061 0
M  V30 1791 C 181.413 -2.30899 -3.56329 0
M  V30 1792 O 182.437 -1.99348 -2.95193 0
M  V30 1793 O 181.296 -2.84699 -4.66485 0
M  V30 1794 H 178.39 -0.400083 -0.723784 0
M  V30 1795 H 180.936 -1.38916 -0.974703 0
M  V30 1796 H 179.708 -3.0008 -2.51133 0
M  V30 1797 H 179.331 -1.679 -3.6041 0
M  V30 1798 N 180.328 1.1314 -1.09713 0
M  V30 1799 C 181.258 2.20748 -0.761102 0
M  V30 1800 C 182.239 1.68061 0.262566 0
M  V30 1801 O 183.424 1.93765 0.129977 0
M  V30 1802 C 180.554 3.46812 -0.184054 0
M  V30 1803 C 179.508 4.12606 -1.13757 0
M  V30 1804 C 178.834 5.33031 -0.422083 0
M  V30 1805 C 180.134 4.59603 -2.48118 0
M  V30 1806 H 181.828 2.49113 -1.66082 0
M  V30 1807 H 179.374 1.19734 -0.799987 0
M  V30 1808 H 181.327 4.21353 0.0631215 0
M  V30 1809 H 180.051 3.17851 0.750868 0
M  V30 1810 H 178.71 3.40036 -1.37007 0
M  V30 1811 H 178.358 5.00335 0.517072 0
M  V30 1812 H 178.058 5.77999 -1.05788 0
M  V30 1813 H 179.582 6.10325 -0.183277 0
M  V30 1814 H 180.996 5.25552 -2.29059 0
M  V30 1815 H 179.393 5.15321 -3.07514 0
M  V30 1816 H 180.463 3.73971 -3.08665 0
M  V30 1817 N 181.806 0.884767 1.30421 0
M  V30 1818 C 183.036 0.517293 2.00019 0
M  V30 1819 C 183.444 -0.898632 1.66497 0
M  V30 1820 O 182.787 -1.60245 0.898181 0
M  V30 1821 C 182.849 0.612025 3.54252 0
M  V30 1822 C 182.513 1.99222 4.1129 0
M  V30 1823 C 183.51 2.9616 4.273 0
M  V30 1824 C 181.195 2.29755 4.46674 0
M  V30 1825 C 183.189 4.21764 4.77906 0
M  V30 1826 C 180.876 3.55606 4.96979 0
M  V30 1827 C 181.874 4.51425 5.12547 0
M  V30 1828 O 181.562 5.75043 5.61766 0
M  V30 1829 H 181.294 0.198529 0.64619 0
M  V30 1830 H 183.848 1.1919 1.67281 0
M  V30 1831 H 182.078 -0.119561 3.86515 0
M  V30 1832 H 183.767 0.255859 4.05093 0
M  V30 1833 H 184.533 2.73882 4.00267 0
M  V30 1834 H 180.412 1.55942 4.33824 0
M  V30 1835 H 183.956 4.96561 4.89972 0
M  V30 1836 H 179.853 3.7772 5.23448 0
M  V30 1837 H 180.621 5.77422 5.80109 0
M  V30 1838 N 183.284 -1.43765 0.645699 0
M  V30 1839 C 184.695 -1.85193 0.236719 0
M  V30 1840 C 185.046 -1.54045 -1.21509 0
M  V30 1841 O 184.171 -0.985694 -1.92647 0
M  V30 1842 C 184.766 -3.36151 0.422845 0
M  V30 1843 C 183.325 -3.76338 0.0682492 0
M  V30 1844 C 182.472 -2.67538 0.729306 0
M  V30 1845 H 185.423 -1.34025 0.849883 0
M  V30 1846 H 185.444 -3.79032 -0.333904 0
M  V30 1847 H 184.956 -3.5879 1.47958 0
M  V30 1848 H 183.057 -3.59312 -0.986179 0
M  V30 1849 H 183.17 -4.76603 0.488469 0
M  V30 1850 H 181.534 -2.54176 0.163235 0
M  V30 1851 H 182.317 -2.93006 1.78892 0
M  V30 1852 N 184.763 -0.387143 -1.52771 0
M  V30 1853 C 185.711 0.463953 -2.27926 0
M  V30 1854 C 186.705 1.06493 -1.31741 0
M  V30 1855 O 187.911 1.00565 -1.49287 0
M  V30 1856 H 184.286 0.16837 -0.732909 0
M  V30 1857 H 186.257 -0.19141 -2.97785 0
M  V30 1858 C 185.006 1.5803 -3.09713 0
M  V30 1859 H 184.329 1.12718 -3.83581 0
M  V30 1860 H 185.769 2.15008 -3.65442 0
M  V30 1861 C 184.228 2.53509 -2.2189 0
M  V30 1862 O 184.758 3.56863 -1.84422 0
M  V30 1863 N 182.964 2.23199 -1.86093 0
M  V30 1864 H 182.511 1.39185 -2.16761 0
M  V30 1865 H 182.469 2.87333 -1.27621 0
M  V30 1866 N 186.241 1.57166 -0.116904 0
M  V30 1867 C 187.489 1.94737 0.540533 0
M  V30 1868 C 187.81 1.00096 1.67349 0
M  V30 1869 O 187.08 0.0568854 1.95817 0
M  V30 1870 H 185.66 0.718981 0.202669 0
M  V30 1871 H 188.322 1.94017 -0.185353 0
M  V30 1872 H 187.418 2.97719 0.936483 0
M  V30 1873 N 187.719 -0.156864 1.56817 0
M  V30 1874 C 188.965 -0.872416 1.83076 0
M  V30 1875 C 189.298 -1.81261 0.697001 0
M  V30 1876 O 188.573 -1.92171 -0.30008 0
M  V30 1877 C 188.856 -1.65551 3.19789 0
M  V30 1878 C 188.709 -0.737467 4.43713 0
M  V30 1879 C 190.028 -2.62012 3.53606 0
M  V30 1880 H 187.147 -0.315715 0.665953 0
M  V30 1881 H 189.789 -0.138004 1.89498 0
M  V30 1882 H 187.939 -2.28159 3.14445 0
M  V30 1883 H 189.611 -0.123143 4.61136 0
M  V30 1884 H 187.854 -0.0464067 4.33775 0
M  V30 1885 H 188.525 -1.32122 5.35955 0
M  V30 1886 H 191.001 -2.09525 3.59497 0
M  V30 1887 H 189.877 -3.13861 4.50314 0
M  V30 1888 H 190.138 -3.42902 2.79053 0
M  V30 1889 N 189.197 -1.51736 -0.425897 0
M  V30 1890 C 190.444 -1.6497 -1.17436 0
M  V30 1891 C 190.772 -0.371445 -1.9092 0
M  V30 1892 O 190.027 0.644963 -1.84767 0
M  V30 1893 C 190.326 -2.81103 -2.20717 0
M  V30 1894 C 189.992 -4.19954 -1.64162 0
M  V30 1895 C 188.654 -4.57725 -1.48462 0
M  V30 1896 C 191.006 -5.06552 -1.22696 0
M  V30 1897 C 188.334 -5.79789 -0.897873 0
M  V30 1898 C 190.686 -6.29205 -0.654464 0
M  V30 1899 C 189.35 -6.6574 -0.484456 0
M  V30 1900 H 188.62 -0.603668 -0.429727 0
M  V30 1901 H 191.267 -1.85798 -0.463829 0
M  V30 1902 H 189.572 -2.54542 -2.97852 0
M  V30 1903 H 191.269 -2.8854 -2.78471 0
M  V30 1904 H 187.859 -3.90181 -1.77361 0
M  V30 1905 H 192.043 -4.77968 -1.33642 0
M  V30 1906 H 187.299 -6.06733 -0.75402 0
M  V30 1907 H 191.473 -6.95643 -0.324694 0
M  V30 1908 H 189.1 -7.60195 -0.0276833 0
M  V30 1909 N 190.675 0.682077 -1.42076 0
M  V30 1910 C 192.086 1.26246 -1.37546 0
M  V30 1911 C 192.437 1.96092 -0.0651481 0
M  V30 1912 O 191.562 1.99587 0.836297 0
M  V30 1913 C 192.157 2.29594 -2.49143 0
M  V30 1914 C 190.716 2.83175 -2.47969 0
M  V30 1915 C 189.863 1.57395 -2.28303 0
M  V30 1916 H 192.814 0.475937 -1.51395 0
M  V30 1917 H 192.835 3.11175 -2.18976 0
M  V30 1918 H 192.347 1.78729 -3.44496 0
M  V30 1919 H 190.448 3.3818 -1.56413 0
M  V30 1920 H 190.561 3.32687 -3.44755 0
M  V30 1921 H 188.925 1.83699 -1.76428 0
M  V30 1922 H 189.708 1.08507 -3.25701 0
M  V30 1923 N 192.153 1.28127 0.917671 0
M  V30 1924 C 193.1 1.11717 2.0196 0
M  V30 1925 C 194.07 0.0153929 1.66093 0
M  V30 1926 O 195.255 0.179596 1.89953 0
M  V30 1927 C 192.395 0.780927 3.36148 0
M  V30 1928 C 191.508 1.96135 3.84909 0
M  V30 1929 C 190.643 1.56609 5.0759 0
M  V30 1930 C 189.682 2.71339 5.48673 0
M  V30 1931 N 188.819 2.32332 6.62545 0
M  V30 1932 H 193.659 2.06003 2.15329 0
M  V30 1933 H 191.196 1.02535 1.05475 0
M  V30 1934 H 193.154 0.56675 4.13333 0
M  V30 1935 H 191.784 -0.124998 3.22558 0
M  V30 1936 H 190.836 2.28777 3.03916 0
M  V30 1937 H 192.148 2.82165 4.1132 0
M  V30 1938 H 191.302 1.31374 5.92305 0
M  V30 1939 H 190.041 0.677014 4.82978 0
M  V30 1940 H 189.046 2.97276 4.62501 0
M  V30 1941 H 190.271 3.60882 5.75274 0
M  V30 1942 H 188.217 1.45889 6.39572 0
M  V30 1943 H 188.134 3.11899 6.88662 0
M  V30 1944 H 189.402 2.10371 7.50576 0
M  V30 1945 N 193.631 -1.12557 1.10312 0
M  V30 1946 C 194.879 -1.83675 0.843091 0
M  V30 1947 C 195.2 -1.84435 -0.633131 0
M  V30 1948 O 194.47 -1.30657 -1.45964 0
M  V30 1949 H 193.05 -0.680138 0.308904 0
M  V30 1950 H 195.712 -1.36301 1.39313 0
M  V30 1951 H 194.808 -2.87908 1.2048 0
M  V30 1952 N 195.109 -0.891671 -1.2995 0
M  V30 1953 C 196.041 -0.320695 -2.26945 0
M  V30 1954 C 197.054 0.528497 -1.53983 0
M  V30 1955 O 198.243 0.346959 -1.75096 0
M  V30 1956 C 195.343 0.562066 -3.34207 0
M  V30 1957 C 194.516 -0.259576 -4.36629 0
M  V30 1958 C 193.575 0.554739 -5.23268 0
M  V30 1959 O 192.601 -0.0249311 -5.69195 0
M  V30 1960 N 193.803 1.8625 -5.4981 0
M  V30 1961 H 196.568 -1.15432 -2.76578 0
M  V30 1962 H 194.129 -0.755336 -1.432 0
M  V30 1963 H 196.121 1.11304 -3.89093 0
M  V30 1964 H 194.691 1.29637 -2.84452 0
M  V30 1965 H 193.911 -0.991986 -3.81514 0
M  V30 1966 H 195.199 -0.822564 -5.02107 0
M  V30 1967 H 194.597 2.35628 -5.14292 0
M  V30 1968 H 193.154 2.36078 -6.07545 0
M  V30 1969 N 196.587 1.43421 -0.653314 0
M  V30 1970 C 197.497 2.34568 0.0388565 0
M  V30 1971 C 198.513 1.53888 0.81207 0
M  V30 1972 O 199.689 1.86539 0.759294 0
M  V30 1973 C 196.754 3.32167 0.993269 0
M  V30 1974 C 195.815 4.28751 0.216977 0
M  V30 1975 C 195.048 5.21688 1.12593 0
M  V30 1976 O 195.271 5.19052 2.36519 0
M  V30 1977 O 194.205 5.98919 0.598284 0
M  V30 1978 H 198.031 2.95251 -0.711386 0
M  V30 1979 H 195.616 1.43564 -0.413502 0
M  V30 1980 H 197.498 3.92183 1.54176 0
M  V30 1981 H 196.173 2.73987 1.72374 0
M  V30 1982 H 195.08 3.72215 -0.375101 0
M  V30 1983 H 196.413 4.89913 -0.473924 0
M  V30 1984 N 198.065 0.39524 1.52563 0
M  V30 1985 C 199.305 -0.184744 2.03563 0
M  V30 1986 C 199.669 -1.43548 1.27507 0
M  V30 1987 O 200.87 -2.093 1.68662 0
M  V30 1988 C 199.141 -0.440294 3.54678 0
M  V30 1989 S 200.7 -0.989712 4.27493 0
M  V30 1990 H 197.518 -0.0515075 0.709132 0
M  V30 1991 H 200.12 0.544957 1.87751 0
M  V30 1992 H 198.824 0.477005 4.07618 0
M  V30 1993 H 198.355 -1.19825 3.74707 0
M  V30 1994 H 200.37 -2.27155 4.41152 0
M  V30 1995 N 199.544 -1.57102 0.125237 0
M  V30 1996 C 200.454 -2.19191 -0.8362 0
M  V30 1997 C 201.47 -1.16985 -1.28805 0
M  V30 1998 O 202.646 -1.49479 -1.34974 0
M  V30 1999 C 199.711 -2.78407 -2.06617 0
M  V30 2000 C 198.772 -3.9567 -1.66565 0
M  V30 2001 C 198.005 -4.52052 -2.83698 0
M  V30 2002 O 198.228 -4.07326 -3.99302 0
M  V30 2003 O 197.162 -5.42645 -2.60423 0
M  V30 2004 H 200.988 -3.01816 -0.337776 0
M  V30 2005 H 198.573 -1.4906 -0.100695 0
M  V30 2006 H 200.455 -3.16129 -2.7864 0
M  V30 2007 H 199.13 -1.9881 -2.55453 0
M  V30 2008 H 198.037 -3.62705 -0.916296 0
M  V30 2009 H 199.37 -4.76722 -1.22464 0
M  V30 2010 N 201.022 0.148545 -1.56898 0
M  V30 2011 C 202.252 0.875118 -1.8715 0
M  V30 2012 C 202.66 1.75322 -0.711262 0
M  V30 2013 O 202.003 1.80745 0.328151 0
M  V30 2014 C 202.065 1.7844 -3.12089 0
M  V30 2015 C 201.729 1.08361 -4.43967 0
M  V30 2016 C 202.726 0.438247 -5.1805 0
M  V30 2017 C 200.411 1.07358 -4.90693 0
M  V30 2018 C 202.405 -0.20779 -6.37061 0
M  V30 2019 C 200.092 0.42373 -6.09629 0
M  V30 2020 C 201.09 -0.215829 -6.82659 0
M  V30 2021 O 200.778 -0.855378 -7.99336 0
M  V30 2022 H 200.51 0.258504 -0.624621 0
M  V30 2023 H 203.064 0.14652 -2.04877 0
M  V30 2024 H 201.294 2.55389 -2.90367 0
M  V30 2025 H 202.983 2.38279 -3.286 0
M  V30 2026 H 203.749 0.437817 -4.8302 0
M  V30 2027 H 199.628 1.5608 -4.33774 0
M  V30 2028 H 203.172 -0.70758 -6.94002 0
M  V30 2029 H 199.069 0.421822 -6.4412 0
M  V30 2030 H 199.837 -0.756892 -8.14993 0
M  V30 2031 N 202.5 1.5196 0.417844 0
M  V30 2032 C 203.911 1.57851 0.997 0
M  V30 2033 C 204.262 0.413714 1.91789 0
M  V30 2034 O 203.387 -0.467057 2.113 0
M  V30 2035 C 203.982 2.86085 1.81496 0
M  V30 2036 C 202.541 2.94483 2.34428 0
M  V30 2037 C 201.688 2.52707 1.14169 0
M  V30 2038 H 204.639 1.57455 0.198392 0
M  V30 2039 H 204.66 2.70947 2.67148 0
M  V30 2040 H 204.172 3.70842 1.14446 0
M  V30 2041 H 202.273 2.142 3.04875 0
M  V30 2042 H 202.386 3.98546 2.65891 0
M  V30 2043 H 200.75 2.06353 1.49301 0
M  V30 2044 H 201.533 3.39828 0.486999 0
M  V30 2045 N 203.978 -0.674533 1.42435 0
M  V30 2046 C 205.389 -1.25514 1.38214 0
M  V30 2047 C 205.74 -1.96055 0.0755464 0
M  V30 2048 O 204.865 -2.00028 -0.8257 0
M  V30 2049 C 205.46 -2.28269 2.50357 0
M  V30 2050 C 204.019 -2.81856 2.49467 0
M  V30 2051 C 203.166 -1.56182 2.29134 0
M  V30 2052 H 206.117 -0.467902 1.51646 0
M  V30 2053 H 206.138 -3.10009 2.20624 0
M  V30 2054 H 205.65 -1.769 3.45439 0
M  V30 2055 H 203.751 -3.37346 1.58204 0
M  V30 2056 H 203.864 -3.30854 3.46515 0
M  V30 2057 H 202.228 -1.82761 1.774 0
M  V30 2058 H 203.011 -1.06778 3.26272 0
M  V30 2059 N 205.456 -1.28612 -0.910864 0
M  V30 2060 C 206.684 -1.18792 -1.69399 0
M  V30 2061 C 207.099 0.253039 -1.87097 0
M  V30 2062 O 206.456 1.17071 -1.40003 0
M  V30 2063 C 206.507 -1.88511 -3.08457 0
M  V30 2064 O 206.228 -3.26979 -2.91576 0
M  V30 2065 C 207.729 -1.85029 -4.02839 0
M  V30 2066 H 204.949 -0.412233 -0.529438 0
M  V30 2067 H 207.493 -1.69788 -1.13984 0
M  V30 2068 H 205.648 -1.41379 -3.60681 0
M  V30 2069 H 206.062 -3.61936 -3.79608 0
M  V30 2070 H 207.536 -2.38395 -4.97867 0
M  V30 2071 H 208.013 -0.823303 -4.31414 0
M  V30 2072 H 208.619 -2.31853 -3.56545 0
M  V30 2073 N 206.934 1.1197 -1.10907 0
M  V30 2074 C 207.866 2.17592 -0.720175 0
M  V30 2075 C 208.879 1.60938 0.245495 0
M  V30 2076 O 210.068 1.78476 0.0292245 0
M  V30 2077 C 207.168 3.38873 -0.0427917 0
M  V30 2078 C 206.341 4.25006 -1.03388 0
M  V30 2079 C 205.4 5.24774 -0.387075 0
M  V30 2080 O 204.426 5.59631 -1.03934 0
M  V30 2081 N 205.628 5.74208 0.852407 0
M  V30 2082 H 208.393 2.51567 -1.62893 0
M  V30 2083 H 205.954 1.27439 -0.998543 0
M  V30 2084 H 207.946 4.02703 0.401501 0
M  V30 2085 H 206.516 3.03007 0.768456 0
M  V30 2086 H 205.736 3.57716 -1.65629 0
M  V30 2087 H 207.024 4.79397 -1.70458 0
M  V30 2088 H 206.422 5.48062 1.40161 0
M  V30 2089 H 204.979 6.39901 1.23977 0
M  V30 2090 N 208.412 0.89855 1.29475 0
M  V30 2091 C 209.689 0.443416 1.90508 0
M  V30 2092 C 210.069 -1.07685 1.81569 0
M  V30 2093 O 209.417 -1.9182 1.24166 0
M  V30 2094 C 209.627 0.956708 3.35631 0
M  V30 2095 C 210.975 0.999728 4.12663 0
M  V30 2096 O 211.999 0.904299 3.4453 0
M  V30 2097 O 210.858 1.14289 5.34416 0
M  V30 2098 H 207.952 0.138025 0.815401 0
M  V30 2099 H 210.498 0.98834 1.37949 0
M  V30 2100 H 209.27 2.00067 3.36287 0
M  V30 2101 H 208.893 0.391728 3.95666 0
M  V30 2102 N 209.89 -1.43072 0.660911 0
M  V30 2103 C 211.138 -2.01323 0.177094 0
M  V30 2104 C 211.459 -1.5245 -1.2159 0
M  V30 2105 O 210.729 -0.740322 -1.81373 0
M  V30 2106 H 209.309 -0.744382 0.0624804 0
M  V30 2107 H 211.971 -1.75179 0.854305 0
M  V30 2108 H 211.067 -3.11649 0.167641 0
M  V30 2109 N 211.368 -0.403325 -1.52352 0
M  V30 2110 C 212.784 -0.0539281 -1.59509 0
M  V30 2111 C 212.984 1.43307 -1.41652 0
M  V30 2112 O 212.04 2.19924 -1.24056 0
M  V30 2113 C 213.353 -0.543654 -2.95745 0
M  V30 2114 C 214.901 -0.501125 -3.08962 0
M  V30 2115 C 215.376 -0.967267 -4.47669 0
M  V30 2116 N 216.867 -0.923849 -4.53893 0
M  V30 2117 C 217.602 -1.25578 -5.5948 0
M  V30 2118 N 217.098 -1.65889 -6.72646 0
M  V30 2119 N 218.891 -1.17613 -5.49658 0
M  V30 2120 H 211.042 -1.37123 -1.62206 0
M  V30 2121 H 213.305 -0.56294 -0.76276 0
M  V30 2122 H 213.011 -1.58275 -3.14073 0
M  V30 2123 H 212.885 0.0498042 -3.77167 0
M  V30 2124 H 215.272 0.528909 -2.90321 0
M  V30 2125 H 215.353 -1.13056 -2.2946 0
M  V30 2126 H 214.997 -1.9956 -4.67053 0
M  V30 2127 H 214.927 -0.314698 -5.25659 0
M  V30 2128 H 217.418 -0.627403 -3.72655 0
M  V30 2129 H 217.731 -1.89543 -7.49195 0
M  V30 2130 H 216.076 -1.69787 -6.73942 0
M  V30 2131 H 219.267 -0.860115 -4.6013 0
M  V30 2132 H 219.44 -1.43812 -6.3184 0
M  V30 2133 N 212.846 1.57033 -0.133567 0
M  V30 2134 C 214.074 2.00044 0.528195 0
M  V30 2135 C 214.489 1.01349 1.59291 0
M  V30 2136 O 213.846 0.00848369 1.82498 0
M  V30 2137 C 213.897 3.43018 1.1411 0
M  V30 2138 O 213.618 4.37939 0.11892 0
M  V30 2139 C 215.119 4.01237 1.88477 0
M  V30 2140 H 212.339 0.656517 0.138661 0
M  V30 2141 H 214.883 2.03267 -0.224196 0
M  V30 2142 H 213.038 3.40688 1.84418 0
M  V30 2143 H 213.452 5.21436 0.56613 0
M  V30 2144 H 214.926 5.03314 2.26669 0
M  V30 2145 H 215.403 3.41193 2.76558 0
M  V30 2146 H 216.009 4.07156 1.22898 0
M  V30 2147 N 214.325 -0.140222 1.56975 0
M  V30 2148 C 215.288 -1.15689 1.97861 0
M  V30 2149 C 216.288 -1.3549 0.865974 0
M  V30 2150 O 217.478 -1.32367 1.13246 0
M  V30 2151 C 214.61 -2.51582 2.30042 0
M  V30 2152 H 215.803 -0.805971 2.88867 0
M  V30 2153 H 213.356 -0.383801 1.51515 0
M  V30 2154 H 214.091 -2.91632 1.41849 0
M  V30 2155 H 213.876 -2.38569 3.11171 0
M  V30 2156 H 215.366 -3.24792 2.62488 0
M  V30 2157 N 215.803 -1.52179 -0.40978 0
M  V30 2158 C 216.766 -1.74853 -1.48186 0
M  V30 2159 C 217.766 -0.618417 -1.48433 0
M  V30 2160 O 218.956 -0.886286 -1.49969 0
M  V30 2161 C 216.088 -1.8303 -2.87598 0
M  V30 2162 H 217.281 -2.70559 -1.29374 0
M  V30 2163 H 214.834 -1.42586 -0.640233 0
M  V30 2164 H 215.569 -0.89236 -3.11781 0
M  V30 2165 H 215.354 -2.65187 -2.88822 0
M  V30 2166 H 216.844 -2.02316 -3.65319 0
M  V30 2167 N 217.281 0.66697 -1.42791 0
M  V30 2168 C 218.527 1.42754 -1.44889 0
M  V30 2169 C 218.882 1.92283 -0.0669755 0
M  V30 2170 O 218.175 1.68494 0.912154 0
M  V30 2171 C 218.369 2.6349 -2.4147 0
M  V30 2172 C 218.198 2.25776 -3.88915 0
M  V30 2173 C 216.968 2.1476 -4.57391 0
M  V30 2174 C 219.166 1.86927 -4.79127 0
M  V30 2175 N 217.148 1.70232 -5.89826 0
M  V30 2176 C 218.519 1.53378 -6.00729 0
M  V30 2177 C 220.574 1.73989 -4.66511 0
M  V30 2178 C 219.277 1.08187 -7.11117 0
M  V30 2179 C 221.303 1.30203 -5.76889 0
M  V30 2180 C 220.665 0.975818 -6.97608 0
M  V30 2181 H 216.764 0.518559 -0.585338 0
M  V30 2182 H 219.348 0.768906 -1.78874 0
M  V30 2183 H 217.519 3.27033 -2.09533 0
M  V30 2184 H 219.251 3.30123 -2.34096 0
M  V30 2185 H 216.006 2.3408 -4.11708 0
M  V30 2186 H 216.43 1.50369 -6.6009 0
M  V30 2187 H 221.072 1.97853 -3.7365 0
M  V30 2188 H 218.79 0.830701 -8.03819 0
M  V30 2189 H 222.376 1.20701 -5.69142 0
M  V30 2190 H 221.256 0.642157 -7.81566 0
M  V30 2191 N 218.759 1.29093 0.90403 0
M  V30 2192 C 220.175 1.07011 1.1841 0
M  V30 2193 C 220.375 -0.181358 2.00682 0
M  V30 2194 O 219.431 -0.880331 2.36657 0
M  V30 2195 C 220.744 2.32311 1.90924 0
M  V30 2196 C 222.292 2.37587 2.03768 0
M  V30 2197 C 222.767 3.62679 2.79693 0
M  V30 2198 N 224.258 3.63376 2.87249 0
M  V30 2199 C 224.993 4.56848 3.46522 0
M  V30 2200 N 224.489 5.60648 4.06996 0
M  V30 2201 N 226.282 4.44426 3.44154 0
M  V30 2202 H 218.433 2.09412 0.354993 0
M  V30 2203 H 220.696 0.922181 0.219742 0
M  V30 2204 H 220.402 3.23536 1.37905 0
M  V30 2205 H 220.276 2.39483 2.91424 0
M  V30 2206 H 222.663 1.46853 2.55965 0
M  V30 2207 H 222.744 2.34403 1.02415 0
M  V30 2208 H 222.388 4.53762 2.28173 0
M  V30 2209 H 222.318 3.63119 3.81381 0
M  V30 2210 H 224.809 2.88321 2.44293 0
M  V30 2211 H 225.122 6.28101 4.50232 0
M  V30 2212 H 223.467 5.64463 4.05471 0
M  V30 2213 H 226.658 3.62529 2.96126 0
M  V30 2214 H 226.831 5.17457 3.90054 0
M  V30 2215 N 220.237 -1.11381 1.11499 0
M  V30 2216 C 221.465 -1.86934 0.88675 0
M  V30 2217 C 221.88 -1.80195 -0.563476 0
M  V30 2218 O 221.237 -1.18367 -1.38908 0
M  V30 2219 C 221.288 -3.35722 1.34064 0
M  V30 2220 O 221.009 -3.4232 2.73401 0
M  V30 2221 C 222.51 -4.2818 1.14791 0
M  V30 2222 H 219.73 -0.591117 0.317523 0
M  V30 2223 H 222.274 -1.40865 1.48248 0
M  V30 2224 H 220.429 -3.79294 0.788355 0
M  V30 2225 H 220.843 -4.34971 2.93087 0
M  V30 2226 H 222.317 -5.30817 1.5145 0
M  V30 2227 H 222.794 -4.39113 0.0875279 0
M  V30 2228 H 223.4 -3.90402 1.68721 0
M  V30 2229 N 221.715 -0.905404 -1.28997 0
M  V30 2230 C 222.943 -0.549846 -1.9946 0
M  V30 2231 C 223.358 0.866834 -1.67724 0
M  V30 2232 O 222.715 1.57298 -0.925404 0
M  V30 2233 C 222.766 -0.739387 -3.53858 0
M  V30 2234 O 222.487 -2.10031 -3.84472 0
M  V30 2235 C 223.988 -0.389541 -4.41585 0
M  V30 2236 H 221.208 -0.210429 -0.637151 0
M  V30 2237 H 223.752 -1.21632 -1.64396 0
M  V30 2238 H 221.907 -0.120023 -3.87214 0
M  V30 2239 H 222.321 -2.13385 -4.79132 0
M  V30 2240 H 223.795 -0.572972 -5.49018 0
M  V30 2241 H 224.272 0.673756 -4.34001 0
M  V30 2242 H 224.878 -0.986089 -4.1371 0
M  V30 2243 N 223.193 1.4272 -0.668489 0
M  V30 2244 C 224.418 2.06484 -0.194758 0
M  V30 2245 C 224.843 1.49862 1.13679 0
M  V30 2246 O 224.201 0.614582 1.70565 0
M  V30 2247 C 224.249 3.60353 -0.133546 0
M  V30 2248 O 223.353 4.02464 0.899806 0
M  V30 2249 H 222.694 0.656137 -0.10188 0
M  V30 2250 H 225.224 1.82964 -0.915722 0
M  V30 2251 H 225.234 4.07976 0.0447041 0
M  V30 2252 H 223.909 4.00938 -1.1055 0
M  V30 2253 H 222.486 3.66402 0.693109 0
M  V30 2254 N 224.671 0.411399 1.52136 0
M  V30 2255 C 225.581 -0.419774 2.30814 0
M  V30 2256 C 226.597 -1.0515 1.38634 0
M  V30 2257 O 227.773 -1.05252 1.71709 0
M  V30 2258 C 224.838 -1.52019 3.11594 0
M  V30 2259 C 223.899 -0.91129 4.19516 0
M  V30 2260 C 223.132 -1.95927 4.96436 0
M  V30 2261 O 223.355 -3.17775 4.73683 0
M  V30 2262 O 222.289 -1.56423 5.81219 0
M  V30 2263 H 226.115 0.221805 3.02889 0
M  V30 2264 H 223.7 0.174547 1.48377 0
M  V30 2265 H 225.582 -2.15898 3.61892 0
M  V30 2266 H 224.257 -2.14633 2.42311 0
M  V30 2267 H 223.164 -0.235157 3.7336 0
M  V30 2268 H 224.497 -0.32904 4.91099 0
M  V30 2269 N 226.149 -1.5696 0.141893 0
M  V30 2270 C 227.059 -2.20066 -0.812905 0
M  V30 2271 C 228.075 -1.18344 -1.27557 0
M  V30 2272 O 229.251 -1.50902 -1.33381 0
M  V30 2273 C 226.316 -2.80583 -2.03652 0
M  V30 2274 C 225.377 -3.97414 -1.62359 0
M  V30 2275 C 224.61 -4.55036 -2.78887 0
M  V30 2276 O 224.833 -4.11538 -3.94959 0
M  V30 2277 O 223.767 -5.45376 -2.54653 0
M  V30 2278 H 227.593 -3.02157 -0.305746 0
M  V30 2279 H 225.178 -1.49159 -0.0848799 0
M  V30 2280 H 227.06 -3.19067 -2.75272 0
M  V30 2281 H 225.735 -2.01508 -2.5333 0
M  V30 2282 H 224.642 -3.63656 -0.877775 0
M  V30 2283 H 225.975 -4.77994 -1.17401 0
M  V30 2284 N 227.627 0.131896 -1.57047 0
M  V30 2285 C 228.574 1.16236 -1.99393 0
M  V30 2286 C 229.544 1.41863 -0.863943 0
M  V30 2287 O 230.729 1.53946 -1.12718 0
M  V30 2288 C 227.869 2.48708 -2.39245 0
M  V30 2289 C 226.982 2.30127 -3.65603 0
M  V30 2290 C 226.117 3.55738 -3.94492 0
M  V30 2291 C 225.156 3.32259 -5.14073 0
M  V30 2292 N 224.293 4.50039 -5.38896 0
M  V30 2293 H 229.133 0.794251 -2.87221 0
M  V30 2294 H 226.67 0.380707 -1.42088 0
M  V30 2295 H 228.628 3.25969 -2.60384 0
M  V30 2296 H 227.258 2.83437 -1.54478 0
M  V30 2297 H 226.31 1.43845 -3.52154 0
M  V30 2298 H 227.622 2.08746 -4.5302 0
M  V30 2299 H 226.776 4.41423 -4.1621 0
M  V30 2300 H 225.515 3.80138 -3.05526 0
M  V30 2301 H 224.52 2.44963 -4.92212 0
M  V30 2302 H 225.745 3.09242 -6.04604 0
M  V30 2303 H 223.691 4.74584 -4.52886 0
M  V30 2304 H 223.608 4.31716 -6.2061 0
M  V30 2305 H 224.876 5.36895 -5.65123 0
M  V30 2306 N 229.106 1.52395 0.401703 0
M  V30 2307 C 230.053 1.76268 1.48991 0
M  V30 2308 C 231.023 0.605386 1.54675 0
M  V30 2309 O 232.208 0.843742 1.7113 0
M  V30 2310 C 229.348 1.92592 2.86361 0
M  V30 2311 C 228.461 3.20259 2.89928 0
M  V30 2312 C 227.596 3.26972 4.18644 0
M  V30 2313 C 226.635 4.48812 4.16214 0
M  V30 2314 N 225.772 4.52877 5.36514 0
M  V30 2315 H 230.612 2.6914 1.27935 0
M  V30 2316 H 228.149 1.33355 0.620871 0
M  V30 2317 H 230.107 2.0004 3.66115 0
M  V30 2318 H 228.737 1.03093 3.05895 0
M  V30 2319 H 227.789 3.21945 2.02621 0
M  V30 2320 H 229.101 4.10056 2.83999 0
M  V30 2321 H 228.255 3.33533 5.06794 0
M  V30 2322 H 226.994 2.35126 4.27278 0
M  V30 2323 H 225.999 4.4239 3.26453 0
M  V30 2324 H 227.224 5.41961 4.09213 0
M  V30 2325 H 225.17 3.63917 5.45802 0
M  V30 2326 H 225.087 5.36529 5.32609 0
M  V30 2327 H 226.355 4.63676 6.26597 0
M  V30 2328 N 230.584 -0.659388 1.43143 0
M  V30 2329 C 231.547 -1.75432 1.47501 0
M  V30 2330 C 232.547 -1.56707 0.360512 0
M  V30 2331 O 233.737 -1.62717 0.622002 0
M  V30 2332 C 230.869 -3.14239 1.32162 0
M  V30 2333 H 232.062 -1.7295 2.45006 0
M  V30 2334 H 229.615 -0.870469 1.29817 0
M  V30 2335 H 230.35 -3.22336 0.356401 0
M  V30 2336 H 230.135 -3.29235 2.12948 0
M  V30 2337 H 231.625 -3.94094 1.3813 0
M  V30 2338 N 232.062 -1.29571 -0.897171 0
M  V30 2339 C 232.992 -1.17473 -2.01798 0
M  V30 2340 C 233.973 -0.068323 -1.69963 0
M  V30 2341 O 235.158 -0.248239 -1.92607 0
M  V30 2342 C 232.288 -0.853099 -3.36659 0
M  V30 2343 C 231.242 -1.9161 -3.82713 0
M  V30 2344 C 230.568 -1.44773 -5.14728 0
M  V30 2345 C 231.868 -3.32535 -4.02763 0
M  V30 2346 H 233.562 -2.11237 -2.12177 0
M  V30 2347 H 231.108 -1.01699 -1.01948 0
M  V30 2348 H 233.061 -0.755165 -4.14578 0
M  V30 2349 H 231.785 0.120236 -3.26379 0
M  V30 2350 H 230.444 -2.00346 -3.07013 0
M  V30 2351 H 230.092 -0.462995 -5.00865 0
M  V30 2352 H 229.792 -2.15865 -5.46513 0
M  V30 2353 H 231.316 -1.36334 -5.95185 0
M  V30 2354 H 232.73 -3.26626 -4.71156 0
M  V30 2355 H 231.127 -4.01607 -4.45905 0
M  V30 2356 H 232.197 -3.75326 -3.07016 0
M  V30 2357 N 233.54 1.10788 -1.12088 0
M  V30 2358 C 234.817 1.79136 -0.785476 0
M  V30 2359 C 235.197 1.98246 0.725377 0
M  V30 2360 O 234.545 1.57258 1.65778 0
M  V30 2361 C 234.755 3.12375 -1.55636 0
M  V30 2362 C 236.103 3.8731 -1.74001 0
M  V30 2363 O 237.127 3.22085 -1.52117 0
M  V30 2364 O 235.986 5.04369 -2.10415 0
M  V30 2365 H 233.08 0.776226 -0.285311 0
M  V30 2366 H 235.626 1.1747 -1.2247 0
M  V30 2367 H 234.398 2.93863 -2.5838 0
M  V30 2368 H 234.021 3.81758 -1.11114 0
M  V30 2369 N 235.018 0.912232 1.28515 0
M  V30 2370 C 235.95 0.35676 2.26406 0
M  V30 2371 C 236.963 -0.503933 1.54804 0
M  V30 2372 O 238.152 -0.319059 1.75625 0
M  V30 2373 C 235.252 -0.508825 3.35058 0
M  V30 2374 C 234.425 0.329007 4.36161 0
M  V30 2375 C 233.484 -0.471422 5.24084 0
M  V30 2376 O 232.51 0.115482 5.69083 0
M  V30 2377 N 233.712 -1.77479 5.52704 0
M  V30 2378 H 236.477 1.19818 2.74707 0
M  V30 2379 H 234.038 0.778022 1.4198 0
M  V30 2380 H 236.03 -1.051 3.90815 0
M  V30 2381 H 234.6 -1.25095 2.86478 0
M  V30 2382 H 233.82 1.05256 3.79888 0
M  V30 2383 H 235.108 0.90234 5.00735 0
M  V30 2384 H 234.506 -2.27417 5.17975 0
M  V30 2385 H 233.063 -2.26382 6.11224 0
M  V30 2386 N 236.496 -1.42363 0.676048 0
M  V30 2387 C 237.459 -2.29199 0.00766941 0
M  V30 2388 C 238.459 -1.43389 -0.727745 0
M  V30 2389 O 239.649 -1.64764 -0.56556 0
M  V30 2390 C 236.781 -3.2591 -0.999785 0
M  V30 2391 H 237.974 -2.89794 0.771988 0
M  V30 2392 H 235.527 -1.50024 0.438468 0
M  V30 2393 H 236.262 -2.70256 -1.79255 0
M  V30 2394 H 236.047 -3.89202 -0.475829 0
M  V30 2395 H 237.537 -3.91028 -1.46583 0
M  V30 2396 N 237.974 -0.419461 -1.51915 0
M  V30 2397 C 239.199 0.154572 -2.06823 0
M  V30 2398 C 239.624 1.3722 -1.28656 0
M  V30 2399 O 238.982 1.78461 -0.319583 0
M  V30 2400 C 239.03 0.473172 -3.57482 0
M  V30 2401 O 238.134 1.56255 -3.81652 0
M  V30 2402 H 237.475 0.0096924 -0.663929 0
M  V30 2403 H 240.005 -0.595642 -1.95738 0
M  V30 2404 H 240.015 0.728825 -4.01438 0
M  V30 2405 H 238.69 -0.416873 -4.13805 0
M  V30 2406 H 237.267 1.29825 -3.49571 0
M  V30 2407 N 239.452 1.56882 -0.150215 0
M  V30 2408 C 240.362 2.20494 0.801222 0
M  V30 2409 C 241.378 1.19019 1.26927 0
M  V30 2410 O 242.554 1.51607 1.32579 0
M  V30 2411 C 239.619 2.81659 2.02161 0
M  V30 2412 C 238.68 3.9827 1.60249 0
M  V30 2413 C 237.913 4.56508 2.7647 0
M  V30 2414 O 238.136 4.13627 3.92771 0
M  V30 2415 O 237.07 5.46719 2.51757 0
M  V30 2416 H 240.896 3.02315 0.289717 0
M  V30 2417 H 238.481 1.49202 0.0769684 0
M  V30 2418 H 240.363 3.20522 2.73576 0
M  V30 2419 H 239.038 2.02849 2.52258 0
M  V30 2420 H 237.945 3.64117 0.858477 0
M  V30 2421 H 239.278 4.78609 1.14864 0
M  V30 2422 N 240.93 -0.123565 1.57115 0
M  V30 2423 C 241.84 -1.17074 2.033 0
M  V30 2424 C 242.856 -1.4561 0.952559 0
M  V30 2425 O 244.032 -1.56817 1.26374 0
M  V30 2426 C 241.097 -2.47857 2.42421 0
M  V30 2427 C 240.158 -2.26758 3.64526 0
M  V30 2428 C 239.391 -3.51305 4.01771 0
M  V30 2429 O 239.614 -4.5843 3.39409 0
M  V30 2430 O 238.548 -3.42578 4.94898 0
M  V30 2431 H 242.374 -0.808555 2.92739 0
M  V30 2432 H 239.959 -0.334027 1.45618 0
M  V30 2433 H 241.841 -3.2492 2.68338 0
M  V30 2434 H 240.516 -2.83558 1.5613 0
M  V30 2435 H 239.423 -1.47569 3.43765 0
M  V30 2436 H 240.756 -1.95963 4.51508 0
M  V30 2437 N 242.408 -1.52605 -0.393616 0
M  V30 2438 C 243.657 -1.66649 -1.13627 0
M  V30 2439 C 243.97 -0.410364 -1.91247 0
M  V30 2440 O 245.176 -0.430854 -2.68059 0
M  V30 2441 C 243.632 -2.9449 -2.06891 0
M  V30 2442 C 243.24 -4.27266 -1.34714 0
M  V30 2443 C 244.984 -3.17899 -2.81319 0
M  V30 2444 C 242.891 -5.46217 -2.26717 0
M  V30 2445 H 241.821 -0.62084 -0.427871 0
M  V30 2446 H 244.472 -1.791 -0.399428 0
M  V30 2447 H 242.854 -2.75774 -2.84191 0
M  V30 2448 H 244.028 -4.56518 -0.626714 0
M  V30 2449 H 242.343 -4.10081 -0.722643 0
M  V30 2450 H 244.94 -4.03949 -3.50328 0
M  V30 2451 H 245.283 -2.32777 -3.45139 0
M  V30 2452 H 245.816 -3.37159 -2.11113 0
M  V30 2453 H 242.555 -6.33733 -1.67521 0
M  V30 2454 H 242.075 -5.21283 -2.96689 0
M  V30 2455 H 243.754 -5.7991 -2.86903 0
M  V30 2456 N 243.887 0.651787 -1.4349 0
M  V30 2457 C 245.133 1.4121 -1.46395 0
M  V30 2458 C 245.488 1.92202 -0.087366 0
M  V30 2459 O 244.781 1.69452 0.894231 0
M  V30 2460 C 244.975 2.60914 -2.44251 0
M  V30 2461 C 244.804 2.21639 -3.91288 0
M  V30 2462 C 243.574 2.09897 -4.59643 0
M  V30 2463 C 245.772 1.81835 -4.81083 0
M  V30 2464 N 243.754 1.63967 -5.91598 0
M  V30 2465 C 245.125 1.46998 -6.02322 0
M  V30 2466 C 247.18 1.69031 -4.6833 0
M  V30 2467 C 245.883 1.00638 -7.12225 0
M  V30 2468 C 247.909 1.24077 -5.78238 0
M  V30 2469 C 247.271 0.901772 -6.98604 0
M  V30 2470 H 243.37 0.512322 -0.590805 0
M  V30 2471 H 245.954 0.74989 -1.7968 0
M  V30 2472 H 244.125 3.24792 -2.1299 0
M  V30 2473 H 245.857 3.27622 -2.37584 0
M  V30 2474 H 242.612 2.297 -4.14168 0
M  V30 2475 H 243.036 1.43359 -6.61647 0
M  V30 2476 H 247.678 1.93878 -3.75727 0
M  V30 2477 H 245.396 0.745399 -8.04655 0
M  V30 2478 H 248.982 1.14657 -5.7039 0
M  V30 2479 H 247.862 0.559226 -7.82203 0
M  V30 2480 N 245.365 1.30045 0.890287 0
M  V30 2481 C 246.313 1.15873 2.01683 0
M  V30 2482 C 247.307 0.0719403 1.69247 0
M  V30 2483 O 248.513 0.232414 1.78493 0
M  V30 2484 H 244.888 0.358203 0.661207 0
M  V30 2485 H 246.859 2.11229 2.10772 0
M  V30 2486 C 245.608 0.861842 3.36849 0
M  V30 2487 H 244.931 1.69016 3.62317 0
M  V30 2488 H 246.371 0.802762 4.16331 0
M  V30 2489 C 244.83 -0.435132 3.34078 0
M  V30 2490 O 245.36 -1.4583 3.74295 0
M  V30 2491 N 243.566 -0.444377 2.87182 0
M  V30 2492 H 243.113 0.388723 2.5465 0
M  V30 2493 H 243.071 -1.31213 2.85711 0
M  V30 2494 N 246.843 -1.10192 1.12674 0
M  V30 2495 C 248.12 -1.78717 0.794965 0
M  V30 2496 C 248.5 -1.98628 -0.714853 0
M  V30 2497 O 247.848 -1.58135 -1.64941 0
M  V30 2498 C 248.058 -3.11546 1.5729 0
M  V30 2499 C 249.406 -3.86382 1.76052 0
M  V30 2500 O 250.43 -3.21274 1.53823 0
M  V30 2501 O 249.289 -5.03246 2.13087 0
M  V30 2502 H 246.383 -0.774702 0.289423 0
M  V30 2503 H 248.929 -1.16819 1.23091 0
M  V30 2504 H 247.701 -2.92489 2.59935 0
M  V30 2505 H 247.324 -3.81164 1.13137 0
M  V30 2506 N 248.321 -0.919034 -1.28029 0
M  V30 2507 C 249.568 -0.554934 -1.94748 0
M  V30 2508 C 249.896 0.90231 -1.72304 0
M  V30 2509 O 249.151 1.65767 -1.04018 0
M  V30 2510 C 249.45 -0.816855 -3.4794 0
M  V30 2511 C 249.116 -2.25448 -3.90492 0
M  V30 2512 C 247.778 -2.64752 -4.01821 0
M  V30 2513 C 250.13 -3.18977 -4.12193 0
M  V30 2514 C 247.458 -3.96727 -4.32232 0
M  V30 2515 C 249.81 -4.50523 -4.44086 0
M  V30 2516 C 248.474 -4.89673 -4.53626 0
M  V30 2517 H 247.744 -0.203065 -0.712633 0
M  V30 2518 H 250.391 -1.16136 -1.52265 0
M  V30 2519 H 248.696 -0.127677 -3.91592 0
M  V30 2520 H 250.393 -0.514238 -3.97689 0
M  V30 2521 H 246.983 -1.93952 -3.82205 0
M  V30 2522 H 251.167 -2.89817 -4.02889 0
M  V30 2523 H 246.423 -4.26754 -4.37825 0
M  V30 2524 H 250.597 -5.23005 -4.59825 0
M  V30 2525 H 248.224 -5.91969 -4.76946 0
M  V30 2526 N 249.799 1.42003 -0.683588 0
M  V30 2527 C 251.215 1.55625 -0.353976 0
M  V30 2528 C 251.415 1.66151 1.14 0
M  V30 2529 O 250.471 1.63329 1.92561 0
M  V30 2530 C 251.784 2.80171 -1.092 0
M  V30 2531 C 253.332 2.93954 -1.07518 0
M  V30 2532 C 253.807 4.21372 -1.79471 0
M  V30 2533 N 255.298 4.28303 -1.76381 0
M  V30 2534 C 256.033 5.25729 -2.28904 0
M  V30 2535 N 255.529 6.29254 -2.89846 0
M  V30 2536 N 257.322 5.17586 -2.19228 0
M  V30 2537 H 249.473 1.33415 -1.6527 0
M  V30 2538 H 251.736 0.64282 -0.696769 0
M  V30 2539 H 251.442 2.78561 -2.14701 0
M  V30 2540 H 251.316 3.7133 -0.662862 0
M  V30 2541 H 253.703 2.95086 -0.028475 0
M  V30 2542 H 253.784 2.04002 -1.54328 0
M  V30 2543 H 253.428 4.21001 -2.84114 0
M  V30 2544 H 253.358 5.10275 -1.30104 0
M  V30 2545 H 255.849 3.54119 -1.31939 0
M  V30 2546 H 256.162 6.99964 -3.27522 0
M  V30 2547 H 254.507 6.29791 -2.93919 0
M  V30 2548 H 257.698 4.35631 -1.71299 0
M  V30 2549 H 257.871 5.93348 -2.60466 0
M  V30 2550 N 251.277 0.427512 1.51691 0
M  V30 2551 C 252.187 -0.39527 2.31246 0
M  V30 2552 C 253.203 -1.03674 1.39742 0
M  V30 2553 O 254.379 -1.03425 1.72816 0
M  V30 2554 C 251.444 -1.48706 3.13189 0
M  V30 2555 C 250.505 -0.866743 4.20459 0
M  V30 2556 C 249.738 -1.90651 4.98486 0
M  V30 2557 O 249.961 -3.12733 4.77026 0
M  V30 2558 O 248.895 -1.5025 5.82845 0
M  V30 2559 H 252.721 0.253918 3.02637 0
M  V30 2560 H 250.306 0.190274 1.48183 0
M  V30 2561 H 252.188 -2.12047 3.64162 0
M  V30 2562 H 250.863 -2.12051 2.44573 0
M  V30 2563 H 249.77 -0.195544 3.73589 0
M  V30 2564 H 251.103 -0.276934 4.9142 0
M  V30 2565 N 252.755 -1.56801 0.158532 0
M  V30 2566 C 253.718 -2.16138 -0.762705 0
M  V30 2567 C 254.718 -1.1061 -1.16713 0
M  V30 2568 O 255.908 -1.36191 -1.08617 0
M  V30 2569 C 253.04 -2.73386 -2.03649 0
M  V30 2570 H 254.233 -2.98886 -0.246354 0
M  V30 2571 H 251.786 -1.56035 -0.0909744 0
M  V30 2572 H 252.521 -1.94335 -2.59623 0
M  V30 2573 H 252.306 -3.50601 -1.75559 0
M  V30 2574 H 253.796 -3.19065 -2.6942 0
M  V30 2575 N 254.233 0.115231 -1.57178 0
M  V30 2576 C 255.196 1.12526 -1.99676 0
M  V30 2577 C 256.196 1.34095 -0.88742 0
M  V30 2578 O 257.386 1.30548 -1.15337 0
M  V30 2579 C 254.518 2.4789 -2.34015 0
M  V30 2580 H 255.711 0.759912 -2.90113 0
M  V30 2581 H 253.264 0.359648 -1.52106 0
M  V30 2582 H 253.999 2.89339 -1.4647 0
M  V30 2583 H 253.784 2.33588 -3.14927 0
M  V30 2584 H 255.274 3.20575 -2.67622 0
M  V30 2585 N 255.711 1.52812 0.385517 0
M  V30 2586 C 256.621 1.80766 1.49535 0
M  V30 2587 C 257.637 0.694651 1.59532 0
M  V30 2588 O 258.813 0.982611 1.75803 0
M  V30 2589 C 255.878 1.97381 2.85029 0
M  V30 2590 C 254.939 3.21295 2.84724 0
M  V30 2591 C 254.172 3.37108 4.13756 0
M  V30 2592 O 254.395 2.5765 5.08893 0
M  V30 2593 O 253.329 4.30378 4.20783 0
M  V30 2594 H 257.155 2.75015 1.28842 0
M  V30 2595 H 254.74 1.37946 0.573697 0
M  V30 2596 H 256.622 2.09996 3.65349 0
M  V30 2597 H 255.297 1.06322 3.05741 0
M  V30 2598 H 254.204 3.1412 2.03174 0
M  V30 2599 H 255.537 4.12212 2.68965 0
M  V30 2600 N 257.189 -0.644168 1.43834 0
M  V30 2601 C 258.152 -1.73857 1.49353 0
M  V30 2602 C 259.152 -1.56315 0.377112 0
M  V30 2603 O 260.342 -1.62048 0.639226 0
M  V30 2604 C 257.474 -3.12819 1.35488 0
M  V30 2605 H 258.667 -1.70342 2.46827 0
M  V30 2606 H 256.22 -0.856652 1.30733 0
M  V30 2607 H 256.955 -3.2194 0.390569 0
M  V30 2608 H 256.74 -3.26958 2.16428 0
M  V30 2609 H 258.23 -3.92606 1.42302 0
M  V30 2610 N 258.668 -1.30515 -0.883378 0
M  V30 2611 C 259.618 -1.13641 -1.9766 0
M  V30 2612 C 260.602 -0.0511314 -1.60819 0
M  V30 2613 O 261.794 -0.274623 -1.74857 0
M  V30 2614 C 258.923 -0.831976 -3.33066 0
M  V30 2615 C 258.009 -1.95759 -3.76217 0
M  V30 2616 N 258.4 -3.20313 -3.9145 0
M  V30 2617 C 256.698 -1.85431 -4.05625 0
M  V30 2618 C 257.399 -3.93856 -4.2808 0
M  V30 2619 N 256.375 -3.21919 -4.38029 0
M  V30 2620 H 260.177 -2.08106 -2.07531 0
M  V30 2621 H 257.691 -1.21877 -1.0733 0
M  V30 2622 H 259.688 -0.692102 -4.11115 0
M  V30 2623 H 258.348 0.104588 -3.24532 0
M  V30 2624 H 259.359 -3.55583 -3.76538 0
M  V30 2625 H 256.036 -0.991531 -4.05555 0
M  V30 2626 H 257.426 -5.01125 -4.47575 0
M  V30 2627 N 260.146 1.09593 -1.13257 0
M  V30 2628 C 261.562 1.33775 -0.870423 0
M  V30 2629 C 261.762 1.95327 0.494926 0
M  V30 2630 O 260.818 2.19853 1.2418 0
M  V30 2631 C 262.131 2.25106 -1.99369 0
M  V30 2632 C 263.679 2.3862 -2.02558 0
M  V30 2633 C 264.154 3.33285 -3.14142 0
M  V30 2634 N 265.645 3.40857 -3.13641 0
M  V30 2635 C 266.38 4.14101 -3.96621 0
M  V30 2636 N 265.876 4.90157 -4.8961 0
M  V30 2637 N 267.669 4.09808 -3.84726 0
M  V30 2638 H 259.82 0.680136 -2.01216 0
M  V30 2639 H 262.083 0.362133 -0.876107 0
M  V30 2640 H 261.789 1.87103 -2.97801 0
M  V30 2641 H 261.663 3.25481 -1.90635 0
M  V30 2642 H 264.05 2.75887 -1.0474 0
M  V30 2643 H 264.131 1.38028 -2.15364 0
M  V30 2644 H 263.775 2.96741 -4.12198 0
M  V30 2645 H 263.705 4.33776 -2.98574 0
M  V30 2646 H 266.196 2.86624 -2.46282 0
M  V30 2647 H 266.509 5.4347 -5.49418 0
M  V30 2648 H 264.854 4.89251 -4.93617 0
M  V30 2649 H 268.045 3.4949 -3.11408 0
M  V30 2650 H 268.218 4.66629 -4.49623 0
M  V30 2651 N 261.624 0.925811 1.2754 0
M  V30 2652 C 262.556 0.380753 2.26015 0
M  V30 2653 C 263.569 -0.487485 1.5533 0
M  V30 2654 O 264.758 -0.300413 1.75954 0
M  V30 2655 C 261.858 -0.473259 3.35579 0
M  V30 2656 C 261.031 0.375249 4.35787 0
M  V30 2657 C 260.09 -0.415809 5.24555 0
M  V30 2658 O 259.116 0.175834 5.68928 0
M  V30 2659 N 260.318 -1.71607 5.54555 0
M  V30 2660 H 263.083 1.22725 2.73421 0
M  V30 2661 H 260.644 0.793037 1.41147 0
M  V30 2662 H 262.636 -1.00949 3.91907 0
M  V30 2663 H 261.206 -1.2205 2.87789 0
M  V30 2664 H 260.426 1.09279 3.7875 0
M  V30 2665 H 261.714 0.955399 4.99749 0
M  V30 2666 H 261.112 -2.2191 5.20358 0
M  V30 2667 H 259.669 -2.19887 6.1359 0
M  V30 2668 N 263.102 -1.41638 0.69111 0
M  V30 2669 C 264.348 -2.01598 0.220519 0
M  V30 2670 C 264.681 -1.54594 -1.17535 0
M  V30 2671 O 263.956 -0.755177 -1.79241 0
M  V30 2672 C 264.239 -3.59062 0.273243 0
M  V30 2673 C 264.092 -4.16203 1.70573 0
M  V30 2674 C 265.411 -4.38546 -0.369457 0
M  V30 2675 H 262.53 -0.732468 0.0816045 0
M  V30 2676 H 265.172 -1.68445 0.878986 0
M  V30 2677 H 263.322 -3.87435 -0.287411 0
M  V30 2678 H 264.994 -3.98722 2.31989 0
M  V30 2679 H 263.237 -3.71414 2.2413 0
M  V30 2680 H 263.908 -5.25358 1.69419 0
M  V30 2681 H 266.384 -4.1596 0.107977 0
M  V30 2682 H 265.26 -5.48069 -0.302002 0
M  V30 2683 H 265.521 -4.17662 -1.44951 0
M  V30 2684 N 264.58 -0.43555 -1.51462 0
M  V30 2685 C 265.996 -0.0877501 -1.59359 0
M  V30 2686 C 266.196 1.4027 -1.4466 0
M  V30 2687 O 265.252 2.17243 -1.28693 0
M  V30 2688 C 266.565 -0.606264 -2.94525 0
M  V30 2689 C 268.113 -0.566548 -3.0783 0
M  V30 2690 C 268.588 -1.06201 -4.45517 0
M  V30 2691 N 270.079 -1.01992 -4.51832 0
M  V30 2692 C 270.814 -1.37417 -5.5669 0
M  V30 2693 N 270.31 -1.80119 -6.68976 0
M  V30 2694 N 272.103 -1.29245 -5.47039 0
M  V30 2695 H 264.254 -1.40533 -1.59261 0
M  V30 2696 H 266.517 -0.578992 -0.750648 0
M  V30 2697 H 266.223 -1.64901 -3.10645 0
M  V30 2698 H 266.097 -0.0302097 -3.77188 0
M  V30 2699 H 268.484 0.467208 -2.91378 0
M  V30 2700 H 268.565 -1.17898 -2.2701 0
M  V30 2701 H 268.209 -2.09422 -4.62715 0
M  V30 2702 H 268.139 -0.426127 -5.24873 0
M  V30 2703 H 270.63 -0.706308 -3.71241 0
M  V30 2704 H 270.943 -2.05392 -7.45006 0
M  V30 2705 H 269.288 -1.84044 -6.70189 0
M  V30 2706 H 272.479 -0.957522 -4.58202 0
M  V30 2707 H 272.652 -1.57182 -6.28648 0
M  V30 2708 N 266.058 1.56714 -0.166846 0
M  V30 2709 C 267.005 2.17746 0.765193 0
M  V30 2710 C 267.975 1.11614 1.23011 0
M  V30 2711 O 269.16 1.39745 1.29908 0
M  V30 2712 C 266.3 2.81882 1.9909 0
M  V30 2713 C 265.413 4.02462 1.56997 0
M  V30 2714 C 264.548 4.54537 2.749 0
M  V30 2715 C 263.587 5.67538 2.29275 0
M  V30 2716 N 262.724 6.14142 3.40255 0
M  V30 2717 H 267.564 2.97048 0.237952 0
M  V30 2718 H 265.101 1.4672 0.105725 0
M  V30 2719 H 267.059 3.17221 2.70974 0
M  V30 2720 H 265.689 2.05191 2.49192 0
M  V30 2721 H 264.741 3.72973 0.748037 0
M  V30 2722 H 266.053 4.84273 1.19503 0
M  V30 2723 H 265.207 4.92035 3.54946 0
M  V30 2724 H 263.946 3.71774 3.1565 0
M  V30 2725 H 262.951 5.29597 1.47674 0
M  V30 2726 H 264.176 6.52099 1.89588 0
M  V30 2727 H 262.122 5.3431 3.8059 0
M  V30 2728 H 262.039 6.9093 3.06841 0
M  V30 2729 H 263.307 6.56289 4.206 0
M  V30 2730 N 267.536 -0.106894 1.57237 0
M  V30 2731 C 268.766 -0.825191 1.89405 0
M  V30 2732 C 269.174 -1.73374 0.757496 0
M  V30 2733 O 268.517 -1.81552 -0.280115 0
M  V30 2734 C 268.579 -1.70102 3.1671 0
M  V30 2735 C 268.243 -0.965523 4.46684 0
M  V30 2736 C 269.24 -0.300741 5.19029 0
M  V30 2737 C 266.925 -0.943105 4.93367 0
M  V30 2738 C 268.919 0.376622 6.36286 0
M  V30 2739 C 266.606 -0.261949 6.10538 0
M  V30 2740 C 267.604 0.396748 6.81847 0
M  V30 2741 O 267.292 1.06701 7.96787 0
M  V30 2742 H 267.024 -0.241852 0.631255 0
M  V30 2743 H 269.578 -0.0921491 2.05193 0
M  V30 2744 H 267.808 -2.47601 2.97036 0
M  V30 2745 H 269.497 -2.29483 3.34802 0
M  V30 2746 H 270.263 -0.309599 4.84011 0
M  V30 2747 H 266.142 -1.44524 4.3776 0
M  V30 2748 H 269.686 0.891334 6.91882 0
M  V30 2749 H 265.583 -0.250896 6.45012 0
M  V30 2750 H 266.351 0.972707 8.127 0
M  V30 2751 N 269.014 -1.53014 -0.377408 0
M  V30 2752 C 270.26 -1.68872 -1.12294 0
M  V30 2753 C 270.593 -0.433224 -1.89306 0
M  V30 2754 O 269.868 0.569258 -1.85983 0
M  V30 2755 C 270.151 -2.93115 -2.09179 0
M  V30 2756 C 270.004 -4.28794 -1.35853 0
M  V30 2757 C 271.323 -3.12928 -3.09458 0
M  V30 2758 H 268.442 -0.614518 -0.406862 0
M  V30 2759 H 271.084 -1.85633 -0.40503 0
M  V30 2760 H 269.234 -2.78956 -2.70399 0
M  V30 2761 H 270.906 -4.54742 -0.775082 0
M  V30 2762 H 269.149 -4.28744 -0.660364 0
M  V30 2763 H 269.82 -5.11837 -2.06706 0
M  V30 2764 H 272.296 -3.26194 -2.58334 0
M  V30 2765 H 271.172 -4.01316 -3.74482 0
M  V30 2766 H 271.433 -2.27669 -3.78971 0
M  V30 2767 N 270.492 0.636531 -1.44174 0
M  V30 2768 C 271.425 1.76139 -1.45087 0
M  V30 2769 C 272.403 1.59611 -0.310326 0
M  V30 2770 O 273.587 1.81568 -0.506477 0
M  V30 2771 C 270.714 3.13648 -1.27839 0
M  V30 2772 C 269.76 3.48838 -2.45386 0
M  V30 2773 S 270.593 3.46927 -4.07924 0
M  V30 2774 C 271.749 4.87064 -3.9309 0
M  V30 2775 H 271.982 1.75096 -2.40268 0
M  V30 2776 H 269.515 0.810666 -1.31406 0
M  V30 2777 H 271.473 3.93002 -1.18575 0
M  V30 2778 H 270.134 3.12235 -0.341787 0
M  V30 2779 H 269.327 4.48886 -2.29167 0
M  V30 2780 H 268.929 2.76935 -2.51362 0
M  V30 2781 H 271.221 5.76153 -3.56446 0
M  V30 2782 H 272.164 5.08337 -4.92949 0
M  V30 2783 H 272.572 4.61384 -3.25246 0
M  V30 2784 N 271.97 1.30982 0.876444 0
M  V30 2785 C 273.195 1.23373 1.66715 0
M  V30 2786 C 273.62 -0.19885 1.87046 0
M  V30 2787 O 272.978 -1.1427 1.40756 0
M  V30 2788 C 273.026 1.97644 3.01611 0
M  V30 2789 O 272.13 1.30935 3.91062 0
M  V30 2790 H 271.471 0.426279 0.509099 0
M  V30 2791 H 274.001 1.72944 1.09323 0
M  V30 2792 H 274.011 2.06992 3.51594 0
M  V30 2793 H 272.686 3.01829 2.86133 0
M  V30 2794 H 271.263 1.29996 3.49507 0
M  V30 2795 N 273.449 -1.08991 1.13837 0
M  V30 2796 C 274.695 -1.81699 0.91417 0
M  V30 2797 C 275.05 -1.84264 -0.553594 0
M  V30 2798 O 274.343 -1.30313 -1.4046 0
M  V30 2799 C 274.537 -3.27042 1.44147 0
M  V30 2800 C 274.366 -3.38637 2.95897 0
M  V30 2801 C 273.136 -3.50177 3.64286 0
M  V30 2802 C 275.334 -3.30791 3.93804 0
M  V30 2803 N 273.316 -3.50501 5.04006 0
M  V30 2804 C 274.687 -3.38037 5.19741 0
M  V30 2805 C 276.742 -3.14488 3.86007 0
M  V30 2806 C 275.445 -3.30659 6.38793 0
M  V30 2807 C 277.471 -3.08438 5.04599 0
M  V30 2808 C 276.833 -3.1628 6.29402 0
M  V30 2809 H 272.932 -0.678967 0.387979 0
M  V30 2810 H 275.516 -1.30224 1.4474 0
M  V30 2811 H 273.687 -3.76976 0.935091 0
M  V30 2812 H 275.419 -3.87785 1.1578 0
M  V30 2813 H 272.174 -3.53815 3.1482 0
M  V30 2814 H 272.598 -3.54236 5.76928 0
M  V30 2815 H 277.24 -3.07291 2.90399 0
M  V30 2816 H 274.958 -3.36618 7.34652 0
M  V30 2817 H 278.544 -2.96952 5.0031 0
M  V30 2818 H 277.424 -3.1162 7.19627 0
M  V30 2819 N 274.927 -0.932562 -1.27047 0
M  V30 2820 C 276.176 -0.571351 -1.93439 0
M  V30 2821 C 276.489 0.892467 -1.74053 0
M  V30 2822 O 277.695 1.36267 -2.34826 0
M  V30 2823 C 276.151 -0.97106 -3.46552 0
M  V30 2824 C 275.759 -2.4559 -3.74686 0
M  V30 2825 C 277.503 -0.681333 -4.18997 0
M  V30 2826 C 275.41 -2.79475 -5.21198 0
M  V30 2827 H 274.34 -0.209966 -0.724176 0
M  V30 2828 H 276.991 -1.13403 -1.44263 0
M  V30 2829 H 275.373 -0.336983 -3.94564 0
M  V30 2830 H 276.547 -3.13829 -3.37414 0
M  V30 2831 H 274.862 -2.71802 -3.15456 0
M  V30 2832 H 277.459 -0.910939 -5.26883 0
M  V30 2833 H 277.802 0.381628 -4.14547 0
M  V30 2834 H 278.335 -1.27473 -3.76823 0
M  V30 2835 H 275.074 -3.847 -5.30741 0
M  V30 2836 H 274.594 -2.1589 -5.596 0
M  V30 2837 H 276.273 -2.67478 -5.89122 0
M  V30 2838 N 276.405 1.4127 -0.698611 0
M  V30 2839 C 277.352 2.30773 -0.0352094 0
M  V30 2840 C 278.322 1.47273 0.768111 0
M  V30 2841 O 279.507 1.76053 0.735524 0
M  V30 2842 C 276.647 3.33346 0.893 0
M  V30 2843 C 275.76 4.31924 0.0809695 0
M  V30 2844 C 274.895 5.21566 1.0071 0
M  V30 2845 C 273.934 6.11811 0.188155 0
M  V30 2846 N 273.071 6.93926 1.06825 0
M  V30 2847 H 277.911 2.86943 -0.804207 0
M  V30 2848 H 275.448 1.4132 -0.408294 0
M  V30 2849 H 277.406 3.91368 1.44523 0
M  V30 2850 H 276.036 2.78719 1.62836 0
M  V30 2851 H 275.088 3.75825 -0.588224 0
M  V30 2852 H 276.4 4.95716 -0.553801 0
M  V30 2853 H 275.554 5.84437 1.62845 0
M  V30 2854 H 274.293 4.58008 1.67572 0
M  V30 2855 H 273.298 5.47986 -0.446254 0
M  V30 2856 H 274.523 6.77425 -0.476716 0
M  V30 2857 H 272.469 6.32973 1.72283 0
M  V30 2858 H 272.386 7.54416 0.489123 0
M  V30 2859 H 273.654 7.61262 1.67632 0
M  V30 2860 N 277.883 0.443576 1.51229 0
M  V30 2861 C 279.294 -0.0180867 1.86691 0
M  V30 2862 C 279.645 -1.41384 1.36033 0
M  V30 2863 O 278.77 -2.04291 0.713722 0
M  V30 2864 C 279.365 -0.039597 3.38777 0
M  V30 2865 C 277.924 -0.445692 3.73752 0
M  V30 2866 C 277.071 0.357584 2.74985 0
M  V30 2867 H 280.022 0.659138 1.44364 0
M  V30 2868 H 280.043 -0.847761 3.70936 0
M  V30 2869 H 279.555 0.976382 3.75617 0
M  V30 2870 H 277.656 -1.46704 3.42503 0
M  V30 2871 H 277.769 -0.166155 4.78812 0
M  V30 2872 H 276.133 -0.184973 2.54027 0
M  V30 2873 H 276.916 1.37256 3.14668 0
M  V30 2874 N 279.361 -1.56624 0.175154 0
M  V30 2875 C 280.609 -1.96609 -0.467885 0
M  V30 2876 C 280.93 -1.06238 -1.63519 0
M  V30 2877 O 280.2 -0.129523 -1.95471 0
M  V30 2878 H 278.78 -0.726008 -0.175845 0
M  V30 2879 H 281.442 -1.93195 0.257234 0
M  V30 2880 H 280.538 -3.00989 -0.825342 0
M  V30 2881 N 280.839 0.0985539 -1.57292 0
M  V30 2882 C 281.772 1.15082 -1.97057 0
M  V30 2883 C 282.75 1.39025 -0.843255 0
M  V30 2884 O 283.934 1.52842 -1.10325 0
M  V30 2885 C 281.061 2.50069 -2.28437 0
M  V30 2886 C 280.107 2.42428 -3.509 0
M  V30 2887 S 280.94 1.84414 -5.02744 0
M  V30 2888 C 282.096 3.21032 -5.37298 0
M  V30 2889 H 282.329 0.811815 -2.86002 0
M  V30 2890 H 279.862 0.306102 -1.51335 0
M  V30 2891 H 281.82 3.27729 -2.47192 0
M  V30 2892 H 280.481 2.8114 -1.40069 0
M  V30 2893 H 279.674 3.41911 -3.70288 0
M  V30 2894 H 279.276 1.72896 -3.31637 0
M  V30 2895 H 281.568 4.17297 -5.33731 0
M  V30 2896 H 282.511 3.06452 -6.38352 0
M  V30 2897 H 282.919 3.20404 -4.64759 0
M  V30 2898 N 282.317 1.53212 0.369288 0
M  V30 2899 C 283.545 1.73119 1.13303 0
M  V30 2900 C 283.96 0.458455 1.83149 0
M  V30 2901 O 283.317 -0.568403 1.73423 0
M  V30 2902 C 283.368 2.89413 2.16616 0
M  V30 2903 O 283.089 4.11761 1.49614 0
M  V30 2904 C 284.59 3.21161 3.05566 0
M  V30 2905 H 281.81 0.579107 0.338934 0
M  V30 2906 H 284.354 1.99942 0.429338 0
M  V30 2907 H 282.509 2.64994 2.82589 0
M  V30 2908 H 282.923 4.76858 2.18419 0
M  V30 2909 H 284.397 4.05949 3.74045 0
M  V30 2910 H 284.874 2.36369 3.70171 0
M  V30 2911 H 285.48 3.47492 2.45213 0
M  V30 2912 N 283.795 -0.628877 1.44509 0
M  V30 2913 C 284.728 -1.75367 1.46019 0
M  V30 2914 C 285.706 -1.59444 0.318787 0
M  V30 2915 O 286.89 -1.81297 0.516099 0
M  V30 2916 C 284.017 -3.12965 1.29501 0
M  V30 2917 C 283.063 -3.47532 2.47233 0
M  V30 2918 S 283.896 -3.44758 4.09758 0
M  V30 2919 C 285.052 -4.84973 3.95667 0
M  V30 2920 H 285.285 -1.7382 2.41193 0
M  V30 2921 H 282.818 -0.803686 1.31834 0
M  V30 2922 H 284.776 -3.92367 1.20658 0
M  V30 2923 H 283.437 -3.12049 0.358341 0
M  V30 2924 H 282.63 -4.47664 2.31544 0
M  V30 2925 H 282.232 -2.75598 2.52828 0
M  V30 2926 H 284.524 -5.74255 3.59496 0
M  V30 2927 H 285.467 -5.05716 4.95638 0
M  V30 2928 H 285.875 -4.59653 3.27688 0
M  V30 2929 N 285.273 -1.31445 -0.869486 0
M  V30 2930 C 286.522 -1.20517 -1.61736 0
M  V30 2931 C 286.835 0.235341 -1.94179 0
M  V30 2932 O 288.041 0.466312 -2.67465 0
M  V30 2933 C 286.497 -2.10982 -2.91573 0
M  V30 2934 C 286.105 -3.60032 -2.66611 0
M  V30 2935 C 287.849 -2.08856 -3.69567 0
M  V30 2936 C 285.756 -4.42503 -3.92358 0
M  V30 2937 H 284.686 -0.447493 -0.606849 0
M  V30 2938 H 287.337 -1.56303 -0.96133 0
M  V30 2939 H 285.719 -1.68095 -3.58553 0
M  V30 2940 H 286.893 -4.11167 -2.08035 0
M  V30 2941 H 285.208 -3.64139 -2.0197 0
M  V30 2942 H 287.805 -2.67716 -4.62852 0
M  V30 2943 H 288.148 -1.07582 -4.02159 0
M  V30 2944 H 288.681 -2.49945 -3.09471 0
M  V30 2945 H 285.42 -5.44533 -3.64916 0
M  V30 2946 H 284.94 -3.96125 -4.50383 0
M  V30 2947 H 286.619 -4.54741 -4.60238 0
M  V30 2948 N 286.751 1.08385 -1.14413 0
M  V30 2949 C 287.661 2.18856 -0.844951 0
M  V30 2950 C 288.677 1.73121 0.174668 0
M  V30 2951 O 289.853 2.014 0.00312857 0
M  V30 2952 C 286.918 3.45155 -0.32696 0
M  V30 2953 C 285.979 4.05513 -1.40916 0
M  V30 2954 C 285.212 5.25784 -0.915793 0
M  V30 2955 O 285.435 5.69884 0.242651 0
M  V30 2956 O 284.369 5.77545 -1.69487 0
M  V30 2957 H 288.195 2.46919 -1.76818 0
M  V30 2958 H 285.78 1.17524 -0.922411 0
M  V30 2959 H 287.662 4.21377 -0.0440211 0
M  V30 2960 H 286.337 3.18668 0.568539 0
M  V30 2961 H 285.244 3.30879 -1.74556 0
M  V30 2962 H 286.577 4.3625 -2.27919 0
M  V30 2963 N 288.23 0.939286 1.26551 0
M  V30 2964 C 289.479 0.581601 1.93133 0
M  V30 2965 C 289.792 -0.883224 1.74524 0
M  V30 2966 O 290.998 -1.3502 2.35546 0
M  V30 2967 C 289.454 0.989425 3.46032 0
M  V30 2968 C 289.062 2.47573 3.73379 0
M  V30 2969 C 290.806 0.703544 4.18629 0
M  V30 2970 C 288.713 2.82235 5.19709 0
M  V30 2971 H 287.643 0.213803 0.723052 0
M  V30 2972 H 290.294 1.14167 1.4366 0
M  V30 2973 H 288.676 0.357902 3.94379 0
M  V30 2974 H 289.85 3.15614 3.35744 0
M  V30 2975 H 288.165 2.73471 3.1401 0
M  V30 2976 H 290.762 0.938869 5.26393 0
M  V30 2977 H 291.105 -0.359639 4.14744 0
M  V30 2978 H 291.638 1.2947 3.76141 0
M  V30 2979 H 288.377 3.87509 5.28694 0
M  V30 2980 H 287.897 2.18854 5.58447 0
M  V30 2981 H 289.576 2.70599 5.87695 0
M  V30 2982 N 289.708 -1.40897 0.706093 0
M  V30 2983 C 290.948 -2.02916 0.245827 0
M  V30 2984 C 291.312 -1.54751 -1.13649 0
M  V30 2985 O 292.513 -2.08768 -1.69321 0
M  V30 2986 C 290.784 -3.56031 0.312537 0
M  V30 2987 S 292.343 -4.38741 -0.0721388 0
M  V30 2988 H 289.161 -0.704186 0.0982007 0
M  V30 2989 H 291.763 -1.72168 0.926207 0
M  V30 2990 H 290.467 -3.88579 1.32039 0
M  V30 2991 H 289.998 -3.91495 -0.386641 0
M  V30 2992 H 292.013 -4.78952 -1.29692 0
M  V30 2993 N 291.186 -0.45159 -1.50991 0
M  V30 2994 C 292.096 0.358431 -2.31846 0
M  V30 2995 C 293.112 1.01438 -1.41373 0
M  V30 2996 O 294.288 1.00663 -1.74439 0
M  V30 2997 C 291.353 1.43704 -3.15515 0
M  V30 2998 C 290.414 0.799742 -4.21785 0
M  V30 2999 C 289.647 1.82696 -5.01456 0
M  V30 3000 O 289.87 3.05105 -4.81941 0
M  V30 3001 O 288.804 1.40958 -5.85162 0
M  V30 3002 H 292.63 -0.302032 -3.02194 0
M  V30 3003 H 290.215 -0.213825 -1.47862 0
M  V30 3004 H 292.097 2.06227 -3.67489 0
M  V30 3005 H 290.772 2.08133 -2.47916 0
M  V30 3006 H 289.679 0.136084 -3.73852 0
M  V30 3007 H 291.012 0.198718 -4.91799 0
M  V30 3008 N 292.664 1.56529 -0.183458 0
M  V30 3009 C 293.611 2.18546 0.742055 0
M  V30 3010 C 294.581 1.12912 1.2182 0
M  V30 3011 O 295.766 1.41115 1.28418 0
M  V30 3012 C 292.906 2.83977 1.96089 0
M  V30 3013 C 292.019 4.04105 1.52719 0
M  V30 3014 C 291.154 4.57427 2.70063 0
M  V30 3015 C 290.193 5.69938 2.23243 0
M  V30 3016 N 289.33 6.17717 3.33722 0
M  V30 3017 H 294.17 2.97284 0.206432 0
M  V30 3018 H 291.707 1.46823 0.0901571 0
M  V30 3019 H 293.665 3.20077 2.67594 0
M  V30 3020 H 292.295 2.07822 2.47002 0
M  V30 3021 H 291.347 3.73745 0.708436 0
M  V30 3022 H 292.659 4.85513 1.1436 0
M  V30 3023 H 291.813 4.95772 3.49708 0
M  V30 3024 H 290.552 3.75101 3.11689 0
M  V30 3025 H 289.557 5.31133 1.42048 0
M  V30 3026 H 290.782 6.54073 1.82661 0
M  V30 3027 H 288.728 5.38317 3.74902 0
M  V30 3028 H 288.645 6.94146 2.99495 0
M  V30 3029 H 289.913 6.60713 4.13616 0
M  V30 3030 N 294.142 -0.090211 1.57342 0
M  V30 3031 C 295.072 -1.10976 2.05443 0
M  V30 3032 C 296.053 -1.41482 0.944284 0
M  V30 3033 O 297.238 -1.51428 1.21586 0
M  V30 3034 C 294.368 -2.42831 2.48295 0
M  V30 3035 C 293.322 -2.26721 3.63018 0
M  V30 3036 C 292.648 -3.63796 3.91863 0
M  V30 3037 C 293.948 -1.7037 4.93732 0
M  V30 3038 H 295.642 -0.709564 2.9087 0
M  V30 3039 H 293.188 -0.339874 1.39932 0
M  V30 3040 H 295.141 -3.14431 2.80555 0
M  V30 3041 H 293.865 -2.84795 1.59873 0
M  V30 3042 H 292.524 -1.57565 3.31012 0
M  V30 3043 H 292.172 -4.03297 3.00601 0
M  V30 3044 H 291.872 -3.53861 4.69101 0
M  V30 3045 H 293.396 -4.36855 4.26603 0
M  V30 3046 H 294.81 -2.31816 5.24342 0
M  V30 3047 H 293.207 -1.71181 5.75167 0
M  V30 3048 H 294.277 -0.663542 4.80339 0
M  V30 3049 N 295.62 -1.53406 -0.361157 0
M  V30 3050 C 296.53 -1.83122 -1.4664 0
M  V30 3051 C 297.546 -0.719943 -1.58407 0
M  V30 3052 O 298.722 -1.01046 -1.74218 0
M  V30 3053 C 295.787 -2.01891 -2.81853 0
M  V30 3054 C 294.848 -3.25784 -2.79577 0
M  V30 3055 C 294.081 -3.43648 -4.0834 0
M  V30 3056 O 294.304 -2.65714 -5.0473 0
M  V30 3057 O 293.238 -4.37018 -4.13883 0
M  V30 3058 H 297.064 -2.7703 -1.24451 0
M  V30 3059 H 294.649 -1.38841 -0.551678 0
M  V30 3060 H 296.531 -2.15782 -3.61962 0
M  V30 3061 H 295.206 -1.11173 -3.0401 0
M  V30 3062 H 294.113 -3.17312 -1.98151 0
M  V30 3063 H 295.446 -4.16439 -2.62373 0
M  V30 3064 N 297.098 0.621204 -1.44841 0
M  V30 3065 C 298.375 1.38 -1.38619 0
M  V30 3066 C 298.755 2.11041 -0.0498935 0
M  V30 3067 O 298.103 2.06992 0.967816 0
M  V30 3068 C 298.313 2.33817 -2.59096 0
M  V30 3069 C 299.661 2.96844 -3.03593 0
M  V30 3070 O 300.685 2.44141 -2.59371 0
M  V30 3071 O 299.544 3.92476 -3.80296 0
M  V30 3072 H 296.638 0.61811 -0.549426 0
M  V30 3073 H 299.184 0.645429 -1.56947 0
M  V30 3074 H 297.956 1.79012 -3.47952 0
M  V30 3075 H 297.579 3.14676 -2.43032 0
M  V30 3076 N 298.576 1.31904 0.862503 0
M  V30 3077 C 299.816 1.23324 1.63004 0
M  V30 3078 C 300.18 -0.203724 1.90916 0
M  V30 3079 O 301.381 -0.413132 2.65606 0
M  V30 3080 C 299.652 2.06116 2.91978 0
M  V30 3081 S 301.211 2.14478 3.82812 0
M  V30 3082 H 298.029 0.439117 0.559193 0
M  V30 3083 H 300.631 1.66658 1.02202 0
M  V30 3084 H 299.335 3.09593 2.69407 0
M  V30 3085 H 298.866 1.6353 3.57801 0
M  V30 3086 H 300.881 1.28855 4.79177 0
M  V30 3087 N 300.054 -1.07777 1.14986 0
M  V30 3088 C 301.279 -1.84558 0.946213 0
M  V30 3089 C 301.704 -1.81323 -0.500362 0
M  V30 3090 O 301.062 -1.20301 -1.35637 0
M  V30 3091 C 301.11 -3.29736 1.45968 0
M  V30 3092 O 300.214 -4.07149 0.65601 0
M  V30 3093 H 299.555 -0.571641 0.33782 0
M  V30 3094 H 302.085 -1.35991 1.52865 0
M  V30 3095 H 302.095 -3.80574 1.47063 0
M  V30 3096 H 300.77 -3.31406 2.51283 0
M  V30 3097 H 299.347 -3.65994 0.714322 0
M  V30 3098 N 301.532 -0.945985 -1.26051 0
M  V30 3099 C 302.948 -0.649045 -1.45807 0
M  V30 3100 C 303.148 0.796158 -1.85104 0
M  V30 3101 O 302.204 1.57233 -1.97571 0
M  V30 3102 C 303.517 -1.61458 -2.53677 0
M  V30 3103 C 305.065 -1.62481 -2.67524 0
M  V30 3104 C 305.54 -2.57776 -3.7857 0
M  V30 3105 N 307.031 -2.5609 -3.85969 0
M  V30 3106 C 307.766 -3.26508 -4.7136 0
M  V30 3107 N 307.262 -4.0637 -5.61102 0
M  V30 3108 N 309.055 -3.15437 -4.65248 0
M  V30 3109 H 301.206 -1.88005 -0.988328 0
M  V30 3110 H 303.469 -0.808198 -0.4955 0
M  V30 3111 H 303.175 -2.64644 -2.31638 0
M  V30 3112 H 303.049 -1.37036 -3.51427 0
M  V30 3113 H 305.436 -0.600167 -2.88933 0
M  V30 3114 H 305.517 -1.90958 -1.70202 0
M  V30 3115 H 305.161 -3.60361 -3.57913 0
M  V30 3116 H 305.091 -2.26587 -4.75359 0
M  V30 3117 H 307.582 -1.98105 -3.21812 0
M  V30 3118 H 307.895 -4.57042 -6.23164 0
M  V30 3119 H 306.24 -4.10469 -5.60839 0
M  V30 3120 H 309.431 -2.52525 -3.94143 0
M  V30 3121 H 309.604 -3.70584 -5.31575 0
M  V30 3122 N 303.011 1.40521 -0.713556 0
M  V30 3123 C 303.958 2.30723 -0.059684 0
M  V30 3124 C 304.928 1.48079 0.752448 0
M  V30 3125 O 306.113 1.76823 0.71681 0
M  V30 3126 C 303.253 3.34274 0.857594 0
M  V30 3127 C 302.366 4.31986 0.0351536 0
M  V30 3128 C 301.501 5.22605 0.951724 0
M  V30 3129 C 300.54 6.11976 0.123253 0
M  V30 3130 N 299.677 6.9502 0.99459 0
M  V30 3131 H 304.517 2.86074 -0.834596 0
M  V30 3132 H 302.054 1.40879 -0.42326 0
M  V30 3133 H 304.012 3.92879 1.40364 0
M  V30 3134 H 302.642 2.8043 1.59871 0
M  V30 3135 H 301.694 3.7518 -0.628052 0
M  V30 3136 H 303.006 4.95101 -0.606347 0
M  V30 3137 H 302.16 5.86131 1.56638 0
M  V30 3138 H 300.899 4.59759 1.62705 0
M  V30 3139 H 299.904 5.47482 -0.50435 0
M  V30 3140 H 301.129 6.76881 -0.548539 0
M  V30 3141 H 299.075 6.34764 1.6556 0
M  V30 3142 H 298.992 7.54892 0.40908 0
M  V30 3143 H 300.26 7.62997 1.59549 0
M  V30 3144 N 304.489 0.459591 1.5075 0
M  V30 3145 C 305.419 -0.330644 2.31147 0
M  V30 3146 C 306.4 -1.00087 1.37538 0
M  V30 3147 O 307.585 -1.00025 1.66459 0
M  V30 3148 C 304.715 -1.41958 3.16962 0
M  V30 3149 C 303.669 -0.871608 4.19031 0
M  V30 3150 C 302.995 -2.05797 4.9351 0
M  V30 3151 C 304.295 0.109251 5.22186 0
M  V30 3152 H 305.989 0.340336 2.97459 0
M  V30 3153 H 303.535 0.165119 1.4305 0
M  V30 3154 H 305.488 -1.9798 3.71997 0
M  V30 3155 H 304.212 -2.11917 2.48513 0
M  V30 3156 H 302.871 -0.333442 3.6508 0
M  V30 3157 H 302.519 -2.74427 4.21544 0
M  V30 3158 H 302.219 -1.6976 5.62544 0
M  V30 3159 H 303.743 -2.62331 5.51375 0
M  V30 3160 H 305.157 -0.361405 5.7216 0
M  V30 3161 H 303.554 0.383316 5.98875 0
M  V30 3162 H 304.624 1.03887 4.73641 0
M  V30 3163 N 305.967 -1.56429 0.191757 0
M  V30 3164 C 307.216 -1.9666 -0.448088 0
M  V30 3165 C 307.529 -1.08136 -1.62991 0
M  V30 3166 O 308.735 -1.38135 -2.33733 0
M  V30 3167 C 307.191 -3.49753 -0.848585 0
M  V30 3168 C 306.799 -4.46935 0.308764 0
M  V30 3169 C 308.543 -3.9876 -1.4557 0
M  V30 3170 C 306.45 -5.91293 -0.112506 0
M  V30 3171 H 305.38 -0.734312 -0.171179 0
M  V30 3172 H 308.031 -1.81301 0.283242 0
M  V30 3173 H 306.413 -3.60604 -1.63649 0
M  V30 3174 H 307.587 -4.47813 1.08627 0
M  V30 3175 H 305.902 -4.08102 0.827158 0
M  V30 3176 H 308.499 -5.04086 -1.78328 0
M  V30 3177 H 308.842 -3.42875 -2.36099 0
M  V30 3178 H 309.375 -3.9101 -0.731836 0
M  V30 3179 H 306.114 -6.51097 0.758514 0
M  V30 3180 H 305.634 -5.93676 -0.854941 0
M  V30 3181 H 307.313 -6.44663 -0.549448 0
M  V30 3182 N 307.445 0.0818655 -1.57387 0
M  V30 3183 C 308.392 1.09834 -2.0299 0
M  V30 3184 C 309.362 1.39043 -0.908639 0
M  V30 3185 O 310.547 1.50282 -1.17559 0
M  V30 3186 C 307.687 2.40971 -2.47037 0
M  V30 3187 C 306.8 2.18379 -3.7274 0
M  V30 3188 C 305.935 3.43008 -4.0561 0
M  V30 3189 C 304.974 3.15736 -5.24383 0
M  V30 3190 N 304.111 4.32667 -5.52941 0
M  V30 3191 H 308.951 0.702472 -2.89602 0
M  V30 3192 H 306.488 0.33531 -1.43227 0
M  V30 3193 H 308.446 3.1752 -2.70623 0
M  V30 3194 H 307.076 2.78379 -1.63417 0
M  V30 3195 H 306.128 1.32569 -3.56552 0
M  V30 3196 H 307.44 1.94227 -4.59431 0
M  V30 3197 H 306.594 4.27958 -4.30043 0
M  V30 3198 H 305.333 3.70225 -3.17466 0
M  V30 3199 H 304.338 2.2918 -4.99757 0
M  V30 3200 H 305.563 2.8985 -6.14136 0
M  V30 3201 H 303.509 4.59935 -4.67756 0
M  V30 3202 H 303.426 4.11753 -6.34031 0
M  V30 3203 H 304.694 5.18644 -5.81918 0
M  V30 3204 N 308.923 1.53595 0.353017 0
M  V30 3205 C 309.833 1.83897 1.45667 0
M  V30 3206 C 310.849 0.728334 1.58023 0
M  V30 3207 O 312.025 1.01968 1.73679 0
M  V30 3208 C 309.09 2.03383 2.80778 0
M  V30 3209 C 308.151 3.27262 2.77845 0
M  V30 3210 C 307.384 3.45809 4.06512 0
M  V30 3211 O 307.607 2.68387 5.03314 0
M  V30 3212 O 306.541 4.39207 4.11559 0
M  V30 3213 H 310.367 2.77686 1.2298 0
M  V30 3214 H 307.952 1.39132 0.544308 0
M  V30 3215 H 309.834 2.17698 3.60812 0
M  V30 3216 H 308.509 1.12783 3.03417 0
M  V30 3217 H 307.416 3.18359 1.96465 0
M  V30 3218 H 308.749 4.17824 2.60161 0
M  V30 3219 N 310.401 -0.613514 1.45168 0
M  V30 3220 C 311.349 -1.74572 1.53712 0
M  V30 3221 C 312.343 -1.64426 0.407505 0
M  V30 3222 O 313.549 -1.70291 0.583176 0
M  V30 3223 H 309.924 -0.576641 0.48269 0
M  V30 3224 H 311.895 -1.64492 2.48968 0
M  V30 3225 C 310.644 -3.12943 1.51532 0
M  V30 3226 H 309.967 -3.21407 2.37776 0
M  V30 3227 H 311.407 -3.9201 1.61569 0
M  V30 3228 C 309.866 -3.36053 0.238798 0
M  V30 3229 O 310.396 -3.95837 -0.6838 0
M  V30 3230 N 308.602 -2.9028 0.136359 0
M  V30 3231 H 308.149 -2.41811 0.887999 0
M  V30 3232 H 308.107 -3.06116 -0.716944 0
M  V30 3233 N 311.879 -1.3236 -0.855495 0
M  V30 3234 C 313.127 -1.22629 -1.60644 0
M  V30 3235 C 313.448 0.212136 -1.93843 0
M  V30 3236 O 312.718 1.13666 -1.59552 0
M  V30 3237 H 311.298 -0.450882 -0.595579 0
M  V30 3238 H 313.96 -1.65871 -1.02337 0
M  V30 3239 H 313.056 -1.80832 -2.54374 0
M  V30 3240 N 313.357 1.07166 -1.15556 0
M  V30 3241 C 314.287 2.16403 -0.877046 0
M  V30 3242 C 315.268 1.69217 0.173111 0
M  V30 3243 O 316.453 1.94181 0.027084 0
M  V30 3244 C 313.583 3.45349 -0.367632 0
M  V30 3245 C 312.537 4.05995 -1.35468 0
M  V30 3246 C 311.863 5.30045 -0.704038 0
M  V30 3247 C 313.163 4.45804 -2.72132 0
M  V30 3248 H 314.857 2.39959 -1.79053 0
M  V30 3249 H 312.403 1.15325 -0.862331 0
M  V30 3250 H 314.356 4.21095 -0.160317 0
M  V30 3251 H 313.08 3.21385 0.581326 0
M  V30 3252 H 311.739 3.32296 -1.54839 0
M  V30 3253 H 311.387 5.02373 0.251128 0
M  V30 3254 H 311.087 5.71579 -1.36277 0
M  V30 3255 H 312.611 6.08495 -0.50654 0
M  V30 3256 H 314.025 5.12671 -2.56595 0
M  V30 3257 H 312.422 4.98296 -3.34397 0
M  V30 3258 H 313.492 3.57083 -3.28054 0
M  V30 3259 N 314.835 0.952656 1.25548 0
M  V30 3260 C 315.783 0.462354 2.27958 0
M  V30 3261 C 316.777 -0.46634 1.62855 0
M  V30 3262 O 317.983 -0.343287 1.76696 0
M  V30 3263 H 314.358 0.13101 0.7405 0
M  V30 3264 H 316.329 1.33839 2.66702 0
M  V30 3265 C 315.078 -0.24628 3.46827 0
M  V30 3266 H 314.401 0.459192 3.97154 0
M  V30 3267 H 315.841 -0.553393 4.20373 0
M  V30 3268 C 314.3 -1.4681 3.0323 0
M  V30 3269 O 314.83 -2.56591 3.09069 0
M  V30 3270 N 313.036 -1.32874 2.58443 0
M  V30 3271 H 312.583 -0.435536 2.53891 0
M  V30 3272 H 312.541 -2.14742 2.29637 0
M  V30 3273 N 316.313 -1.40141 0.720998 0
M  V30 3274 C 317.276 -2.29058 0.0805834 0
M  V30 3275 C 318.276 -1.45632 -0.681758 0
M  V30 3276 O 319.466 -1.6648 -0.512856 0
M  V30 3277 C 316.598 -3.28925 -0.895593 0
M  V30 3278 H 317.791 -2.87191 0.863793 0
M  V30 3279 H 315.344 -1.48553 0.485975 0
M  V30 3280 H 316.079 -2.75822 -1.70566 0
M  V30 3281 H 315.864 -3.90519 -0.351766 0
M  V30 3282 H 317.354 -3.95494 -1.34069 0
M  V30 3283 N 317.792 -0.46758 -1.50504 0
M  V30 3284 C 319.04 0.0884469 -2.01906 0
M  V30 3285 C 319.361 1.40532 -1.35188 0
M  V30 3286 O 318.631 1.89515 -0.496079 0
M  V30 3287 H 317.211 0.0356765 -0.746148 0
M  V30 3288 H 319.873 -0.6172 -1.84869 0
M  V30 3289 H 318.969 0.2425 -3.11156 0
M  V30 3290 N 319.27 1.56325 -0.20005 0
M  V30 3291 C 320.2 2.22318 0.713916 0
M  V30 3292 C 321.181 1.18788 1.21752 0
M  V30 3293 O 322.366 1.47309 1.26545 0
M  V30 3294 C 319.496 2.88639 1.93144 0
M  V30 3295 C 318.45 3.98457 1.56255 0
M  V30 3296 C 317.776 4.51967 2.85709 0
M  V30 3297 C 319.076 5.16612 0.768747 0
M  V30 3298 H 320.77 2.98952 0.163755 0
M  V30 3299 H 318.316 1.43792 0.0773219 0
M  V30 3300 H 320.269 3.33491 2.57608 0
M  V30 3301 H 318.993 2.09419 2.50621 0
M  V30 3302 H 317.652 3.54305 0.941471 0
M  V30 3303 H 317.3 3.69503 3.41287 0
M  V30 3304 H 317 5.26071 2.6177 0
M  V30 3305 H 318.524 4.99523 3.51154 0
M  V30 3306 H 319.938 5.57977 1.3166 0
M  V30 3307 H 318.335 5.96812 0.627286 0
M  V30 3308 H 319.405 4.84358 -0.229168 0
M  V30 3309 N 320.748 -0.0735177 1.57428 0
M  V30 3310 C 321.711 -1.07192 2.02589 0
M  V30 3311 C 322.711 -1.31695 0.922661 0
M  V30 3312 O 323.901 -1.27445 1.18758 0
M  V30 3313 C 321.033 -2.41599 2.40506 0
M  V30 3314 H 322.226 -0.682727 2.92025 0
M  V30 3315 H 319.779 -0.319193 1.53006 0
M  V30 3316 H 320.514 -2.85354 1.5409 0
M  V30 3317 H 320.299 -2.25156 3.21009 0
M  V30 3318 H 321.789 -3.13367 2.76027 0
M  V30 3319 N 322.226 -1.5378 -0.344866 0
M  V30 3320 C 323.473 -1.70963 -1.08526 0
M  V30 3321 C 323.801 -0.472126 -1.88683 0
M  V30 3322 O 323.056 0.546116 -1.87926 0
M  V30 3323 C 323.355 -2.92407 -2.05506 0
M  V30 3324 C 323.021 -4.28066 -1.41671 0
M  V30 3325 C 321.683 -4.64951 -1.2399 0
M  V30 3326 C 324.035 -5.12344 -0.956726 0
M  V30 3327 C 321.363 -5.83733 -0.589277 0
M  V30 3328 C 323.715 -6.3179 -0.320015 0
M  V30 3329 C 322.379 -6.67372 -0.130881 0
M  V30 3330 H 321.649 -0.625598 -0.397124 0
M  V30 3331 H 324.296 -1.87995 -0.36469 0
M  V30 3332 H 322.601 -2.69973 -2.8394 0
M  V30 3333 H 324.298 -3.02895 -2.62784 0
M  V30 3334 H 320.888 -3.99034 -1.56429 0
M  V30 3335 H 325.072 -4.8438 -1.08118 0
M  V30 3336 H 320.328 -6.09877 -0.431344 0
M  V30 3337 H 324.502 -6.96386 0.0445072 0
M  V30 3338 H 322.129 -7.59273 0.375318 0
M  V30 3339 N 323.704 0.605807 -1.45491 0
M  V30 3340 C 325.115 1.18777 -1.44045 0
M  V30 3341 C 325.466 1.95471 -0.169001 0
M  V30 3342 O 324.591 2.0374 0.729324 0
M  V30 3343 C 325.186 2.16064 -2.60963 0
M  V30 3344 C 323.745 2.69633 -2.62631 0
M  V30 3345 C 322.892 1.45072 -2.36325 0
M  V30 3346 H 325.843 0.395017 -1.53705 0
M  V30 3347 H 325.864 2.9913 -2.35163 0
M  V30 3348 H 325.376 1.60217 -3.53486 0
M  V30 3349 H 323.477 3.29414 -1.74119 0
M  V30 3350 H 323.59 3.13944 -3.61906 0
M  V30 3351 H 321.954 1.74089 -1.85917 0
M  V30 3352 H 322.737 0.910899 -3.30995 0
M  V30 3353 N 325.182 1.32811 0.848464 0
M  V30 3354 C 326.41 1.26739 1.63538 0
M  V30 3355 C 326.825 -0.163484 1.88091 0
M  V30 3356 O 326.182 -1.10258 1.45429 0
M  V30 3357 C 326.233 2.03013 2.99112 0
M  V30 3358 O 325.954 3.40518 2.75643 0
M  V30 3359 C 327.455 2.04038 3.93552 0
M  V30 3360 H 324.675 0.437024 0.509167 0
M  V30 3361 H 327.219 1.75033 1.05753 0
M  V30 3362 H 325.374 1.58426 3.53525 0
M  V30 3363 H 325.788 3.79635 3.61908 0
M  V30 3364 H 327.262 2.61877 4.85926 0
M  V30 3365 H 327.739 1.0282 4.26995 0
M  V30 3366 H 328.345 2.486 3.45077 0
M  V30 3367 N 326.66 -1.06551 1.16123 0
M  V30 3368 C 327.908 -1.78947 0.939267 0
M  V30 3369 C 328.229 -1.87532 -0.534476 0
M  V30 3370 O 327.499 -1.38211 -1.38833 0
M  V30 3371 H 326.079 -0.662807 0.344523 0
M  V30 3372 H 328.741 -1.28725 1.46342 0
M  V30 3373 H 327.837 -2.81117 1.35572 0
M  V30 3374 N 328.138 -0.959301 -1.25041 0
M  V30 3375 C 329.378 -0.624343 -1.94631 0
M  V30 3376 C 329.742 0.82403 -1.73418 0
M  V30 3377 O 330.943 1.26881 -2.3697 0
M  V30 3378 C 329.214 -0.978805 -3.43736 0
M  V30 3379 S 330.773 -0.757127 -4.32219 0
M  V30 3380 H 327.591 -0.229327 -0.673001 0
M  V30 3381 H 330.193 -1.23447 -1.51595 0
M  V30 3382 H 328.897 -2.02997 -3.56679 0
M  V30 3383 H 328.428 -0.359117 -3.91757 0
M  V30 3384 H 330.443 0.369759 -4.9482 0
M  V30 3385 N 329.616 1.39756 -0.72842 0
M  V30 3386 C 330.841 2.05472 -0.282159 0
M  V30 3387 C 331.266 1.54549 1.07221 0
M  V30 3388 O 330.624 0.686372 1.67805 0
M  V30 3389 C 330.672 3.59462 -0.286264 0
M  V30 3390 O 329.776 4.05918 0.728298 0
M  V30 3391 H 329.117 0.651226 -0.129618 0
M  V30 3392 H 331.647 1.78915 -0.992499 0
M  V30 3393 H 331.657 4.07798 -0.128373 0
M  V30 3394 H 330.332 3.95889 -1.27456 0
M  V30 3395 H 328.909 3.69012 0.537081 0
M  V30 3396 N 331.094 0.475555 1.50254 0
M  V30 3397 C 332.024 -0.30611 2.31485 0
M  V30 3398 C 333.005 -0.986228 1.38591 0
M  V30 3399 O 334.19 -0.982541 1.67511 0
M  V30 3400 C 331.32 -1.38588 3.1845 0
M  V30 3401 C 330.274 -0.827115 4.19932 0
M  V30 3402 C 329.6 -2.00551 4.95665 0
M  V30 3403 C 330.9 0.16463 5.2204 0
M  V30 3404 H 332.594 0.371866 2.97082 0
M  V30 3405 H 330.14 0.180282 1.42867 0
M  V30 3406 H 332.093 -1.94023 3.74076 0
M  V30 3407 H 330.817 -2.09269 2.50747 0
M  V30 3408 H 329.476 -0.294702 3.65414 0
M  V30 3409 H 329.124 -2.6994 4.2443 0
M  V30 3410 H 328.824 -1.63784 5.64313 0
M  V30 3411 H 330.348 -2.56468 5.54127 0
M  V30 3412 H 331.762 -0.300699 5.72511 0
M  V30 3413 H 330.159 0.446813 5.98434 0
M  V30 3414 H 331.229 1.08905 4.72512 0
M  V30 3415 N 332.573 -1.56217 0.208337 0
M  V30 3416 C 333.521 -2.21053 -0.723769 0
M  V30 3417 C 334.515 -1.18578 -1.20978 0
M  V30 3418 O 335.721 -1.36691 -1.17114 0
M  V30 3419 H 332.096 -0.708595 -0.251788 0
M  V30 3420 H 334.067 -2.98006 -0.153365 0
M  V30 3421 C 332.816 -2.89417 -1.927 0
M  V30 3422 H 332.139 -3.68019 -1.56212 0
M  V30 3423 H 333.579 -3.38201 -2.55727 0
M  V30 3424 C 332.038 -1.91166 -2.77411 0
M  V30 3425 O 332.568 -1.42026 -3.75754 0
M  V30 3426 N 330.774 -1.59105 -2.43175 0
M  V30 3427 H 330.321 -1.99259 -1.63259 0
M  V30 3428 H 330.279 -0.936255 -3.00136 0
M  V30 3429 N 334.051 0.0651679 -1.57465 0
M  V30 3430 C 334.999 1.09542 -2.05191 0
M  V30 3431 C 335.993 1.39675 -0.958509 0
M  V30 3432 O 337.199 1.39003 -1.14359 0
M  V30 3433 H 333.574 0.370623 -0.654326 0
M  V30 3434 H 335.545 0.666802 -2.90854 0
M  V30 3435 C 334.294 2.39881 -2.51699 0
M  V30 3436 H 333.617 2.17547 -3.3543 0
M  V30 3437 H 335.057 3.104 -2.88839 0
M  V30 3438 C 333.516 3.0631 -1.40271 0
M  V30 3439 O 334.046 3.94664 -0.748523 0
M  V30 3440 N 332.252 2.67041 -1.14618 0
M  V30 3441 H 331.799 1.95281 -1.67997 0
M  V30 3442 H 331.757 3.1181 -0.402688 0
M  V30 3443 N 335.529 1.53961 0.336706 0
M  V30 3444 C 336.769 1.73254 1.08454 0
M  V30 3445 C 337.133 0.488937 1.8567 0
M  V30 3446 O 338.334 0.559001 2.62923 0
M  V30 3447 C 336.605 2.96519 1.99528 0
M  V30 3448 S 338.164 3.36655 2.81441 0
M  V30 3449 H 334.982 0.609353 0.366347 0
M  V30 3450 H 337.584 1.92117 0.362124 0
M  V30 3451 H 336.288 3.85193 1.41614 0
M  V30 3452 H 335.819 2.80142 2.76196 0
M  V30 3453 H 337.834 2.90925 4.01967 0
M  V30 3454 N 337.007 -0.598083 1.45811 0
M  V30 3455 C 337.97 -1.69018 1.54808 0
M  V30 3456 C 338.97 -1.55037 0.426652 0
M  V30 3457 O 340.16 -1.59932 0.690456 0
M  V30 3458 C 337.292 -3.0835 1.45371 0
M  V30 3459 H 338.485 -1.62403 2.52121 0
M  V30 3460 H 336.038 -0.814626 1.33392 0
M  V30 3461 H 336.773 -3.20534 0.492793 0
M  V30 3462 H 336.558 -3.19907 2.26721 0
M  V30 3463 H 338.048 -3.8788 1.54721 0
M  V30 3464 N 338.485 -1.33259 -0.841409 0
M  V30 3465 C 339.448 -1.23221 -1.9326 0
M  V30 3466 C 340.448 -0.151895 -1.60081 0
M  V30 3467 O 341.638 -0.403246 -1.69468 0
M  V30 3468 C 338.77 -0.898123 -3.28856 0
M  V30 3469 H 339.963 -2.2021 -2.03587 0
M  V30 3470 H 337.516 -1.17281 -1.03319 0
M  V30 3471 H 338.251 0.0693841 -3.24226 0
M  V30 3472 H 338.036 -1.67934 -3.54317 0
M  V30 3473 H 339.526 -0.852563 -4.08805 0
M  V30 3474 N 339.963 1.05934 -1.16686 0
M  V30 3475 C 340.913 2.11764 -0.844978 0
M  V30 3476 C 341.897 1.59922 0.177178 0
M  V30 3477 O 343.089 1.76983 -0.0241768 0
M  V30 3478 C 340.218 3.41493 -0.351812 0
M  V30 3479 C 339.304 4.00152 -1.40496 0
M  V30 3480 N 339.695 4.32874 -2.61636 0
M  V30 3481 C 337.993 4.278 -1.26106 0
M  V30 3482 C 338.694 4.79552 -3.29249 0
M  V30 3483 N 337.67 4.79211 -2.56628 0
M  V30 3484 H 341.472 2.34916 -1.76612 0
M  V30 3485 H 338.986 1.23511 -1.05446 0
M  V30 3486 H 340.983 4.16773 -0.102796 0
M  V30 3487 H 339.643 3.19778 0.56322 0
M  V30 3488 H 340.654 4.23109 -2.98663 0
M  V30 3489 H 337.331 4.15511 -0.407081 0
M  V30 3490 H 338.721 5.14045 -4.32675 0
M  V30 3491 N 341.441 0.965919 1.2453 0
M  V30 3492 C 342.671 0.643451 1.96324 0
M  V30 3493 C 343.079 -0.790927 1.71875 0
M  V30 3494 O 342.422 -1.54208 0.998273 0
M  V30 3495 C 342.484 0.836078 3.49643 0
M  V30 3496 C 342.148 2.24975 3.97788 0
M  V30 3497 C 343.145 3.22735 4.07601 0
M  V30 3498 C 340.83 2.57697 4.31158 0
M  V30 3499 C 342.824 4.51303 4.50116 0
M  V30 3500 C 340.511 3.86492 4.73357 0
M  V30 3501 C 341.509 4.83107 4.828 0
M  V30 3502 O 341.197 6.09605 5.24058 0
M  V30 3503 H 340.929 0.239223 0.632257 0
M  V30 3504 H 343.483 1.29587 1.59362 0
M  V30 3505 H 341.713 0.12649 3.86493 0
M  V30 3506 H 343.402 0.512965 4.02646 0
M  V30 3507 H 344.168 2.98783 3.82039 0
M  V30 3508 H 340.047 1.83216 4.23028 0
M  V30 3509 H 343.591 5.26716 4.57401 0
M  V30 3510 H 339.488 4.10245 4.98366 0
M  V30 3511 H 340.256 6.13146 5.42213 0
M  V30 3512 N 342.919 -1.39368 0.735821 0
M  V30 3513 C 344.147 -2.04795 0.294393 0
M  V30 3514 C 344.562 -1.55478 -1.07107 0
M  V30 3515 O 343.919 -0.720038 -1.67695 0
M  V30 3516 C 343.97 -3.6035 0.288071 0
M  V30 3517 O 343.691 -4.07852 1.59963 0
M  V30 3518 C 345.192 -4.42976 -0.169422 0
M  V30 3519 H 342.412 -0.658571 0.128551 0
M  V30 3520 H 344.956 -1.78399 0.999701 0
M  V30 3521 H 343.111 -3.85645 -0.368355 0
M  V30 3522 H 343.525 -5.02181 1.51375 0
M  V30 3523 H 344.999 -5.51864 -0.122687 0
M  V30 3524 H 345.476 -4.22068 -1.21472 0
M  V30 3525 H 346.082 -4.22832 0.457469 0
M  V30 3526 N 344.397 -0.483516 -1.5 0
M  V30 3527 C 345.808 -0.0314176 -1.86674 0
M  V30 3528 C 346.159 1.37728 -1.39733 0
M  V30 3529 O 345.284 2.02327 -0.767635 0
M  V30 3530 C 345.879 -0.0502376 -3.38763 0
M  V30 3531 C 344.438 0.346442 -3.74802 0
M  V30 3532 C 343.585 -0.430366 -2.7394 0
M  V30 3533 H 346.536 -0.697182 -1.42566 0
M  V30 3534 H 346.557 0.749116 -3.73053 0
M  V30 3535 H 346.069 -1.07563 -3.72897 0
M  V30 3536 H 344.17 1.37572 -3.46273 0
M  V30 3537 H 344.283 0.0391486 -4.79084 0
M  V30 3538 H 342.647 0.117557 -2.54429 0
M  V30 3539 H 343.43 -1.4555 -3.10918 0
M  V30 3540 N 345.875 1.56104 -0.216619 0
M  V30 3541 C 346.823 2.21434 0.712036 0
M  V30 3542 C 347.817 1.19218 1.20348 0
M  V30 3543 O 349.023 1.3731 1.16387 0
M  V30 3544 H 345.398 0.70992 0.248026 0
M  V30 3545 H 347.369 2.98083 0.137558 0
M  V30 3546 C 346.118 2.90434 1.91163 0
M  V30 3547 H 345.441 3.68842 1.54258 0
M  V30 3548 H 346.881 3.39552 2.5393 0
M  V30 3549 C 345.34 1.92635 2.76394 0
M  V30 3550 O 345.87 1.44017 3.74996 0
M  V30 3551 N 344.076 1.60392 2.42328 0
M  V30 3552 H 343.623 2.00122 1.622 0
M  V30 3553 H 343.581 0.952159 2.99635 0
M  V30 3554 N 347.353 -0.0568162 1.57498 0
M  V30 3555 C 348.316 -1.05038 2.03715 0
M  V30 3556 C 349.316 -1.30709 0.936577 0
M  V30 3557 O 350.506 -1.26178 1.20103 0
M  V30 3558 C 347.638 -2.39034 2.43055 0
M  V30 3559 H 348.831 -0.651715 2.92733 0
M  V30 3560 H 346.384 -0.302947 1.53336 0
M  V30 3561 H 347.119 -2.83703 1.57108 0
M  V30 3562 H 346.904 -2.21739 3.2338 0
M  V30 3563 H 348.394 -3.10421 2.79336 0
M  V30 3564 N 348.832 -1.54138 -0.328536 0
M  V30 3565 C 350.08 -1.71765 -1.06496 0
M  V30 3566 C 350.401 -0.49149 -1.88704 0
M  V30 3567 O 349.671 0.494539 -1.89555 0
M  V30 3568 H 348.251 -0.633295 -0.396164 0
M  V30 3569 H 350.913 -1.91429 -0.366176 0
M  V30 3570 H 350.009 -2.5951 -1.73381 0
M  V30 3571 N 350.31 0.590341 -1.46126 0
M  V30 3572 C 351.587 1.35029 -1.41515 0
M  V30 3573 C 351.967 2.10888 -0.0946472 0
M  V30 3574 O 351.315 2.08998 0.923693 0
M  V30 3575 C 351.525 2.28269 -2.63997 0
M  V30 3576 C 352.873 2.90338 -3.09821 0
M  V30 3577 O 353.897 2.38585 -2.64492 0
M  V30 3578 O 352.756 3.84321 -3.88535 0
M  V30 3579 H 349.85 0.606317 -0.562413 0
M  V30 3580 H 352.396 0.611994 -1.58281 0
M  V30 3581 H 351.168 1.71591 -3.51671 0
M  V30 3582 H 350.791 3.0945 -2.49652 0
M  V30 3583 N 351.788 1.33704 0.83433 0
M  V30 3584 C 353.016 1.28467 1.62185 0
M  V30 3585 C 353.431 -0.143526 1.88254 0
M  V30 3586 O 352.788 -1.08709 1.4659 0
M  V30 3587 C 352.839 2.06174 2.96942 0
M  V30 3588 O 352.56 3.43422 2.72016 0
M  V30 3589 C 354.061 2.08201 3.91366 0
M  V30 3590 H 351.281 0.4424 0.504503 0
M  V30 3591 H 353.825 1.76145 1.03891 0
M  V30 3592 H 351.98 1.62167 3.51825 0
M  V30 3593 H 352.394 3.83453 3.57861 0
M  V30 3594 H 353.868 2.67017 4.83121 0
M  V30 3595 H 354.345 1.07343 4.2588 0
M  V30 3596 H 354.951 2.52246 3.42421 0
M  V30 3597 N 353.266 -1.05314 1.17247 0
M  V30 3598 C 354.494 -1.81971 0.984593 0
M  V30 3599 C 354.909 -1.82929 -0.467166 0
M  V30 3600 O 354.266 -1.25564 -1.32438 0
M  V30 3601 C 354.317 -3.28143 1.51672 0
M  V30 3602 O 354.038 -3.27347 2.91163 0
M  V30 3603 C 355.539 -4.21493 1.37326 0
M  V30 3604 H 352.759 -0.573455 0.348411 0
M  V30 3605 H 355.303 -1.32808 1.55506 0
M  V30 3606 H 353.458 -3.74582 0.988302 0
M  V30 3607 H 353.872 -4.18824 3.15732 0
M  V30 3608 H 355.346 -5.22043 1.79375 0
M  V30 3609 H 355.823 -4.38031 0.320169 0
M  V30 3610 H 356.429 -3.80909 1.89178 0
M  V30 3611 N 354.744 -0.972509 -1.24016 0
M  V30 3612 C 355.99 -0.637978 -1.92504 0
M  V30 3613 C 356.323 0.825383 -1.75787 0
M  V30 3614 O 355.598 1.59442 -1.11393 0
M  V30 3615 C 355.881 -1.01942 -3.45369 0
M  V30 3616 C 355.734 -2.53983 -3.71231 0
M  V30 3617 C 357.053 -0.55751 -4.36555 0
M  V30 3618 H 354.172 -0.233248 -0.699117 0
M  V30 3619 H 356.814 -1.21238 -1.46292 0
M  V30 3620 H 354.964 -0.530656 -3.84859 0
M  V30 3621 H 356.636 -3.10374 -3.41271 0
M  V30 3622 H 354.879 -2.96968 -3.16216 0
M  V30 3623 H 355.55 -2.75723 -4.78206 0
M  V30 3624 H 358.026 -0.977029 -4.04467 0
M  V30 3625 H 356.902 -0.85292 -5.42233 0
M  V30 3626 H 357.163 0.542328 -4.38761 0
M  V30 3627 N 356.222 1.38976 -0.743202 0
M  V30 3628 C 357.152 2.33171 -0.123873 0
M  V30 3629 C 358.133 1.54336 0.71516 0
M  V30 3630 O 359.318 1.82696 0.658467 0
M  V30 3631 C 356.448 3.38474 0.777978 0
M  V30 3632 C 355.402 4.27979 0.0424758 0
M  V30 3633 C 354.728 5.2405 1.06189 0
M  V30 3634 C 356.028 5.10155 -1.1198 0
M  V30 3635 H 357.722 2.85213 -0.910709 0
M  V30 3636 H 355.268 1.37133 -0.439388 0
M  V30 3637 H 357.221 4.03328 1.22084 0
M  V30 3638 H 355.945 2.84891 1.59702 0
M  V30 3639 H 354.604 3.64616 -0.380853 0
M  V30 3640 H 354.252 4.66758 1.87472 0
M  V30 3641 H 353.952 5.84785 0.574485 0
M  V30 3642 H 355.476 5.9178 1.50428 0
M  V30 3643 H 356.89 5.68307 -0.75499 0
M  V30 3644 H 355.287 5.80073 -1.53738 0
M  V30 3645 H 356.357 4.44504 -1.93764 0
M  V30 3646 N 357.7 0.491464 1.49741 0
M  V30 3647 C 358.632 -0.328609 2.26832 0
M  V30 3648 C 359.645 -0.939113 1.32983 0
M  V30 3649 O 360.834 -0.824067 1.58339 0
M  V30 3650 C 357.934 -1.47675 3.05033 0
M  V30 3651 C 357.107 -0.975305 4.26388 0
M  V30 3652 C 356.166 -1.99991 4.86714 0
M  V30 3653 O 355.192 -1.57229 5.47054 0
M  V30 3654 N 356.394 -3.32962 4.75517 0
M  V30 3655 H 359.159 0.332377 2.97851 0
M  V30 3656 H 356.72 0.323441 1.58636 0
M  V30 3657 H 358.712 -2.15954 3.42266 0
M  V30 3658 H 357.282 -2.04206 2.36683 0
M  V30 3659 H 356.502 -0.117723 3.94024 0
M  V30 3660 H 357.79 -0.618531 5.05026 0
M  V30 3661 H 357.188 -3.70399 4.27576 0
M  V30 3662 H 355.745 -3.96982 5.16961 0
M  V30 3663 N 359.178 -1.55987 0.224894 0
M  V30 3664 C 360.408 -2.02489 -0.41007 0
M  V30 3665 C 360.816 -1.10391 -1.53657 0
M  V30 3666 O 360.159 -0.106458 -1.83391 0
M  V30 3667 C 360.221 -3.45319 -0.999757 0
M  V30 3668 C 359.885 -4.56999 -0.00827976 0
M  V30 3669 C 360.882 -5.13812 0.793314 0
M  V30 3670 C 358.567 -5.02176 0.111442 0
M  V30 3671 C 360.561 -6.14276 1.7013 0
M  V30 3672 C 358.248 -6.02477 1.02296 0
M  V30 3673 C 359.246 -6.58403 1.81643 0
M  V30 3674 O 358.934 -7.56751 2.71262 0
M  V30 3675 H 358.666 -0.667915 -0.104235 0
M  V30 3676 H 361.22 -2.0257 0.339782 0
M  V30 3677 H 359.45 -3.42318 -1.79876 0
M  V30 3678 H 361.139 -3.7545 -1.54248 0
M  V30 3679 H 361.905 -4.79756 0.711288 0
M  V30 3680 H 357.784 -4.58323 -0.49605 0
M  V30 3681 H 361.328 -6.57854 2.32107 0
M  V30 3682 H 357.225 -6.35954 1.10599 0
M  V30 3683 H 357.993 -7.74286 2.65375 0
M  V30 3684 N 360.656 0.0484629 -1.57525 0
M  V30 3685 C 361.933 0.777447 -1.79486 0
M  V30 3686 C 362.313 1.94597 -0.818251 0
M  V30 3687 O 361.661 2.28047 0.143767 0
M  V30 3688 C 361.871 1.22864 -3.26658 0
M  V30 3689 C 363.219 1.65251 -3.91123 0
M  V30 3690 O 364.243 1.32372 -3.3069 0
M  V30 3691 O 363.102 2.26207 -4.97486 0
M  V30 3692 H 360.196 0.374357 -0.737419 0
M  V30 3693 H 362.742 0.0267359 -1.69679 0
M  V30 3694 H 361.514 0.393589 -3.89316 0
M  V30 3695 H 361.137 2.03996 -3.41279 0
M  V30 3696 N 362.134 1.5431 0.320358 0
M  V30 3697 C 363.411 1.63322 1.07635 0
M  V30 3698 C 363.791 0.46912 2.05821 0
M  V30 3699 O 363.139 -0.536274 2.22118 0
M  V30 3700 C 363.349 3.00465 1.77544 0
M  V30 3701 C 364.697 3.56621 2.30449 0
M  V30 3702 O 365.721 3.02791 1.87606 0
M  V30 3703 O 364.58 4.5083 3.08892 0
M  V30 3704 H 361.674 0.661502 0.496331 0
M  V30 3705 H 364.22 1.66656 0.319992 0
M  V30 3706 H 362.992 3.76629 1.06143 0
M  V30 3707 H 362.615 3.00824 2.59982 0
M  V30 3708 N 363.613 -0.582584 1.46437 0
M  V30 3709 C 364.862 -1.337 1.5102 0
M  V30 3710 C 365.175 -1.94891 0.166359 0
M  V30 3711 O 366.381 -2.71351 0.0899954 0
M  V30 3712 C 364.837 -2.42315 2.66104 0
M  V30 3713 C 364.445 -1.87427 4.06909 0
M  V30 3714 C 366.189 -3.19099 2.79958 0
M  V30 3715 C 364.096 -2.93672 5.13333 0
M  V30 3716 H 363.026 -0.502619 0.562041 0
M  V30 3717 H 365.677 -0.621701 1.72647 0
M  V30 3718 H 364.059 -3.16645 2.37807 0
M  V30 3719 H 365.233 -1.19639 4.44998 0
M  V30 3720 H 363.548 -1.2331 3.97723 0
M  V30 3721 H 366.145 -3.9839 3.56636 0
M  V30 3722 H 366.488 -3.71695 1.87479 0
M  V30 3723 H 367.021 -2.51875 3.07902 0
M  V30 3724 H 363.76 -2.45962 6.07604 0
M  V30 3725 H 363.28 -3.59948 4.79789 0
M  V30 3726 H 364.959 -3.5762 5.39182 0
M  V30 3727 N 365.091 -1.34144 -0.827227 0
M  V30 3728 C 366.331 -1.27603 -1.59677 0
M  V30 3729 C 366.695 0.153035 -1.91389 0
M  V30 3730 O 367.896 0.342566 -2.66608 0
M  V30 3731 C 366.167 -2.13784 -2.86411 0
M  V30 3732 S 367.726 -2.24552 -3.76991 0
M  V30 3733 H 364.544 -0.453789 -0.547354 0
M  V30 3734 H 367.146 -1.69309 -0.977479 0
M  V30 3735 H 365.85 -3.16627 -2.61104 0
M  V30 3736 H 365.381 -1.72959 -3.5334 0
M  V30 3737 H 367.396 -1.41514 -4.75593 0
M  V30 3738 N 366.569 1.04691 -1.17803 0
M  V30 3739 C 367.516 2.12557 -0.899343 0
M  V30 3740 C 368.486 1.65339 0.158771 0
M  V30 3741 O 369.671 1.90789 0.0204797 0
M  V30 3742 C 366.811 3.42481 -0.424315 0
M  V30 3743 C 365.924 4.03346 -1.54713 0
M  V30 3744 C 365.059 5.21208 -1.02546 0
M  V30 3745 C 364.098 5.74089 -2.12339 0
M  V30 3746 N 363.235 6.83247 -1.61612 0
M  V30 3747 H 368.075 2.35734 -1.823 0
M  V30 3748 H 365.612 1.1564 -0.909159 0
M  V30 3749 H 367.57 4.16996 -0.130421 0
M  V30 3750 H 366.2 3.19471 0.462377 0
M  V30 3751 H 365.252 3.2622 -1.95664 0
M  V30 3752 H 366.564 4.38628 -2.37501 0
M  V30 3753 H 365.718 6.02812 -0.685718 0
M  V30 3754 H 364.457 4.87414 -0.167084 0
M  V30 3755 H 363.462 4.91111 -2.47165 0
M  V30 3756 H 364.687 6.0993 -2.98601 0
M  V30 3757 H 362.633 6.5134 -0.780533 0
M  V30 3758 H 362.55 7.17559 -2.38003 0
M  V30 3759 H 363.818 7.68491 -1.30545 0
M  V30 3760 N 368.047 0.979072 1.23499 0
M  V30 3761 C 369.296 0.642751 1.91185 0
M  V30 3762 C 369.609 -0.827253 1.77245 0
M  V30 3763 O 370.815 -1.27458 2.39722 0
M  V30 3764 C 369.271 1.09901 3.42709 0
M  V30 3765 C 368.879 2.59327 3.65313 0
M  V30 3766 C 370.623 0.836371 4.16179 0
M  V30 3767 C 368.53 2.98627 5.10467 0
M  V30 3768 H 367.46 0.236698 0.715884 0
M  V30 3769 H 370.111 1.1868 1.39955 0
M  V30 3770 H 368.493 0.48319 3.93041 0
M  V30 3771 H 369.667 3.26136 3.25533 0
M  V30 3772 H 367.982 2.83323 3.05151 0
M  V30 3773 H 370.579 1.10586 5.23139 0
M  V30 3774 H 370.922 -0.227509 4.15678 0
M  V30 3775 H 371.455 1.41371 3.71832 0
M  V30 3776 H 368.194 4.04133 5.16098 0
M  V30 3777 H 367.714 2.3651 5.51201 0
M  V30 3778 H 369.393 2.89159 5.78788 0
M  V30 3779 N 369.525 -1.3858 0.750561 0
M  V30 3780 C 370.802 -1.94231 0.231009 0
M  V30 3781 C 371.182 -1.68611 -1.27018 0
M  V30 3782 O 370.53 -1.02296 -2.04323 0
M  V30 3783 C 370.74 -3.44123 0.581428 0
M  V30 3784 C 372.088 -4.2116 0.539389 0
M  V30 3785 O 373.112 -3.52391 0.519541 0
M  V30 3786 O 371.971 -5.43749 0.54765 0
M  V30 3787 H 369.065 -0.825639 0.0474263 0
M  V30 3788 H 371.611 -1.4799 0.830478 0
M  V30 3789 H 370.383 -3.56267 1.61833 0
M  V30 3790 H 370.006 -3.97573 -0.0462047 0
M  V30 3791 N 371.003 -0.499398 -1.49478 0
M  V30 3792 C 372.25 0.0456899 -2.02448 0
M  V30 3793 C 372.578 1.37142 -1.37921 0
M  V30 3794 O 371.833 1.89111 -0.503544 0
M  V30 3795 C 372.132 0.248424 -3.56536 0
M  V30 3796 C 371.798 -0.999107 -4.39692 0
M  V30 3797 C 370.46 -1.34108 -4.62135 0
M  V30 3798 C 372.812 -1.82842 -4.88076 0
M  V30 3799 C 370.14 -2.51191 -5.30208 0
M  V30 3800 C 372.492 -2.99076 -5.57437 0
M  V30 3801 C 371.156 -3.33655 -5.78127 0
M  V30 3802 H 370.426 0.0167191 -0.740811 0
M  V30 3803 H 373.073 -0.65923 -1.79795 0
M  V30 3804 H 371.378 1.03586 -3.77859 0
M  V30 3805 H 373.075 0.684605 -3.95113 0
M  V30 3806 H 369.665 -0.722729 -4.22463 0
M  V30 3807 H 373.849 -1.57737 -4.70566 0
M  V30 3808 H 369.105 -2.78221 -5.44429 0
M  V30 3809 H 373.279 -3.63664 -5.93904 0
M  V30 3810 H 370.906 -4.24483 -6.30649 0
M  V30 3811 N 372.481 1.55866 -0.233164 0
M  V30 3812 C 373.729 1.9821 0.394593 0
M  V30 3813 C 374.05 1.12234 1.59463 0
M  V30 3814 O 373.32 0.201981 1.94856 0
M  V30 3815 H 371.9 0.732034 0.148778 0
M  V30 3816 H 374.562 1.92107 -0.32876 0
M  V30 3817 H 373.658 3.03845 0.713063 0
M  V30 3818 N 373.959 -0.0401083 1.57549 0
M  V30 3819 C 375.187 -0.745196 1.93014 0
M  V30 3820 C 375.602 -1.6948 0.831984 0
M  V30 3821 O 374.959 -1.81482 -0.192463 0
M  V30 3822 C 375.01 -1.51176 3.28372 0
M  V30 3823 O 374.731 -0.600284 4.33968 0
M  V30 3824 C 376.232 -2.315 3.78051 0
M  V30 3825 H 373.452 -0.210088 0.637263 0
M  V30 3826 H 375.996 -0.000924689 2.045 0
M  V30 3827 H 374.151 -2.20801 3.18317 0
M  V30 3828 H 374.565 -1.13669 5.12035 0
M  V30 3829 H 376.039 -2.80697 4.75303 0
M  V30 3830 H 376.516 -3.12436 3.08675 0
M  V30 3831 H 377.122 -1.66971 3.91153 0
M  V30 3832 N 375.437 -1.54477 -0.31217 0
M  V30 3833 C 376.387 -1.81037 -1.38598 0
M  V30 3834 C 377.371 -0.666941 -1.46426 0
M  V30 3835 O 378.563 -0.927269 -1.50767 0
M  V30 3836 C 375.692 -2.05127 -2.75277 0
M  V30 3837 C 374.778 -3.25624 -2.71716 0
M  V30 3838 N 375.169 -4.46428 -2.37773 0
M  V30 3839 C 373.467 -3.27427 -3.02833 0
M  V30 3840 C 374.168 -5.28406 -2.43232 0
M  V30 3841 N 373.144 -4.6586 -2.80135 0
M  V30 3842 H 376.946 -2.7201 -1.11301 0
M  V30 3843 H 374.46 -1.53826 -0.520705 0
M  V30 3844 H 376.457 -2.22299 -3.52688 0
M  V30 3845 H 375.117 -1.15416 -3.03495 0
M  V30 3846 H 376.128 -4.73227 -2.1042 0
M  V30 3847 H 372.805 -2.47786 -3.36018 0
M  V30 3848 H 374.195 -6.34903 -2.19882 0
M  V30 3849 N 376.915 0.57481 -1.46744 0
M  V30 3850 C 378.164 1.32898 -1.51727 0
M  V30 3851 C 378.477 1.948 -0.176692 0
M  V30 3852 O 379.683 2.71299 -0.104385 0
M  V30 3853 C 378.139 2.40901 -2.67385 0
M  V30 3854 C 377.747 1.85266 -4.07898 0
M  V30 3855 C 379.491 3.17609 -2.81646 0
M  V30 3856 C 377.398 2.90945 -5.14883 0
M  V30 3857 H 376.328 0.499631 -0.564699 0
M  V30 3858 H 378.979 0.612536 -1.72975 0
M  V30 3859 H 377.361 3.15379 -2.39483 0
M  V30 3860 H 378.535 1.17278 -4.45626 0
M  V30 3861 H 376.85 1.21199 -3.98371 0
M  V30 3862 H 379.447 3.96493 -3.58744 0
M  V30 3863 H 379.79 3.70696 -1.89448 0
M  V30 3864 H 380.323 2.50239 -3.09233 0
M  V30 3865 H 377.062 2.42736 -6.089 0
M  V30 3866 H 376.582 3.57398 -4.81691 0
M  V30 3867 H 378.261 3.54755 -5.41071 0
M  V30 3868 N 378.394 1.34581 0.820102 0
M  V30 3869 C 379.619 1.30333 1.61332 0
M  V30 3870 C 380.044 -0.119339 1.87721 0
M  V30 3871 O 379.402 -1.08197 1.45475 0
M  V30 3872 C 379.45 2.10258 2.92957 0
M  V30 3873 O 378.554 1.47404 3.85157 0
M  V30 3874 H 377.895 0.447488 0.490561 0
M  V30 3875 H 380.425 1.77425 1.01889 0
M  V30 3876 H 380.435 2.21718 3.42498 0
M  V30 3877 H 379.11 3.13693 2.73074 0
M  V30 3878 H 377.687 1.44703 3.43679 0
M  V30 3879 N 379.872 -1.04064 1.18357 0
M  V30 3880 C 381.12 -1.76915 0.977013 0
M  V30 3881 C 381.441 -1.88624 -0.494577 0
M  V30 3882 O 380.711 -1.41125 -1.3587 0
M  V30 3883 H 379.291 -0.65535 0.358504 0
M  V30 3884 H 381.953 -1.25592 1.49039 0
M  V30 3885 H 381.049 -2.78178 1.41504 0
M  V30 3886 N 381.35 -0.985608 -1.22978 0
M  V30 3887 C 382.766 -0.695104 -1.43668 0
M  V30 3888 C 382.966 0.736866 -1.87543 0
M  V30 3889 O 382.022 1.50868 -2.02473 0
M  V30 3890 C 383.335 -1.69447 -2.48412 0
M  V30 3891 C 384.883 -1.70909 -2.62219 0
M  V30 3892 C 385.358 -2.6969 -3.70178 0
M  V30 3893 N 386.849 -2.6824 -3.77626 0
M  V30 3894 C 387.584 -3.41339 -4.60733 0
M  V30 3895 N 387.08 -4.24015 -5.4789 0
M  V30 3896 N 388.873 -3.30079 -4.54977 0
M  V30 3897 H 381.024 -1.91054 -0.928016 0
M  V30 3898 H 383.287 -0.823553 -0.469536 0
M  V30 3899 H 382.993 -2.7188 -2.23102 0
M  V30 3900 H 382.867 -1.48147 -3.46889 0
M  V30 3901 H 385.254 -0.691785 -2.86877 0
M  V30 3902 H 385.335 -1.96276 -1.6404 0
M  V30 3903 H 384.979 -3.71566 -3.46268 0
M  V30 3904 H 384.909 -2.41595 -4.67909 0
M  V30 3905 H 387.4 -2.08243 -3.15346 0
M  V30 3906 H 387.713 -4.76636 -6.08308 0
M  V30 3907 H 386.058 -4.28104 -5.47496 0
M  V30 3908 H 389.249 -2.64937 -3.85909 0
M  V30 3909 H 389.422 -3.87308 -5.19516 0
M  V30 3910 N 382.828 1.3818 -0.7579 0
M  V30 3911 C 384.077 1.99261 -0.312744 0
M  V30 3912 C 384.39 1.60846 1.11301 0
M  V30 3913 O 385.596 2.14929 1.65885 0
M  V30 3914 C 384.052 3.56294 -0.50821 0
M  V30 3915 C 383.66 4.03657 -1.94333 0
M  V30 3916 C 385.404 4.24313 -0.125982 0
M  V30 3917 C 383.311 5.53347 -2.08712 0
M  V30 3918 H 382.241 0.745456 -0.113185 0
M  V30 3919 H 384.892 1.57889 -0.935056 0
M  V30 3920 H 383.274 3.95575 0.183353 0
M  V30 3921 H 384.448 3.75655 -2.66871 0
M  V30 3922 H 382.763 3.48376 -2.28086 0
M  V30 3923 H 385.36 5.34279 -0.212125 0
M  V30 3924 H 385.703 4.05962 0.921964 0
M  V30 3925 H 386.236 3.90285 -0.769563 0
M  V30 3926 H 382.975 5.76607 -3.11777 0
M  V30 3927 H 382.495 5.83078 -1.4064 0
M  V30 3928 H 384.174 6.19111 -1.87912 0
M  V30 3929 N 384.306 0.507319 1.49211 0
M  V30 3930 C 385.555 -0.0368315 2.01666 0
M  V30 3931 C 385.868 -1.37459 1.39156 0
M  V30 3932 O 387.074 -2.00579 1.82976 0
M  V30 3933 C 385.53 -0.116089 3.59713 0
M  V30 3934 C 385.138 1.2154 4.31198 0
M  V30 3935 C 386.882 -0.610268 4.2009 0
M  V30 3936 C 384.789 1.09796 5.81119 0
M  V30 3937 H 383.719 -0.0175376 0.753796 0
M  V30 3938 H 386.37 0.647691 1.71689 0
M  V30 3939 H 384.752 -0.8652 3.86433 0
M  V30 3940 H 385.926 1.9783 4.16173 0
M  V30 3941 H 384.241 1.64352 3.82593 0
M  V30 3942 H 386.838 -0.715742 5.29888 0
M  V30 3943 H 387.181 -1.61064 3.8388 0
M  V30 3944 H 387.714 0.0824916 3.97714 0
M  V30 3945 H 384.453 2.0728 6.21864 0
M  V30 3946 H 383.973 0.376058 5.9862 0
M  V30 3947 H 385.652 0.779281 6.4229 0
M  V30 3948 N 385.784 -1.5574 0.241426 0
M  V30 3949 C 387.061 -1.90704 -0.434881 0
M  V30 3950 C 387.441 -1.16145 -1.76277 0
M  V30 3951 O 386.789 -0.277152 -2.26813 0
M  V30 3952 C 386.999 -3.43657 -0.608343 0
M  V30 3953 C 388.347 -4.14806 -0.906725 0
M  V30 3954 O 389.371 -3.49366 -0.694408 0
M  V30 3955 O 388.23 -5.30548 -1.31075 0
M  V30 3956 H 385.324 -0.793592 -0.23268 0
M  V30 3957 H 387.87 -1.67288 0.285086 0
M  V30 3958 H 386.642 -3.89927 0.327505 0
M  V30 3959 H 386.265 -3.72918 -1.37906 0
M  V30 3960 N 387.262 0.0317525 -1.57568 0
M  V30 3961 C 388.502 0.727979 -1.90997 0
M  V30 3962 C 388.866 1.72664 -0.839708 0
M  V30 3963 O 390.067 2.47092 -1.05825 0
M  V30 3964 C 388.338 1.38239 -3.29583 0
M  V30 3965 S 389.897 2.10814 -3.84841 0
M  V30 3966 H 386.715 0.241226 -0.668828 0
M  V30 3967 H 389.317 -0.0173037 -1.95492 0
M  V30 3968 H 388.021 0.642288 -4.05343 0
M  V30 3969 H 387.552 2.16628 -3.28384 0
M  V30 3970 H 389.567 3.3792 -3.63352 0
M  V30 3971 N 388.74 1.54641 0.303973 0
M  V30 3972 C 389.703 1.84646 1.35789 0
M  V30 3973 C 390.703 0.7192 1.4382 0
M  V30 3974 O 391.893 0.987491 1.43507 0
M  V30 3975 C 389.025 2.02407 2.74307 0
M  V30 3976 H 390.218 2.78829 1.10429 0
M  V30 3977 H 387.771 1.46658 0.540487 0
M  V30 3978 H 388.506 1.10502 3.04893 0
M  V30 3979 H 388.291 2.84453 2.69868 0
M  V30 3980 H 389.781 2.27002 3.50514 0
M  V30 3981 N 390.218 -0.567019 1.47046 0
M  V30 3982 C 391.465 -1.32462 1.53167 0
M  V30 3983 C 391.793 -1.93571 0.189841 0
M  V30 3984 O 391.048 -1.77865 -0.816243 0
M  V30 3985 C 391.347 -2.4623 2.59047 0
M  V30 3986 C 391.013 -2.03014 4.02612 0
M  V30 3987 C 389.675 -1.90944 4.41694 0
M  V30 3988 C 392.027 -1.69895 4.92732 0
M  V30 3989 C 389.355 -1.44035 5.68745 0
M  V30 3990 C 391.707 -1.2446 6.20236 0
M  V30 3991 C 390.371 -1.10979 6.5821 0
M  V30 3992 H 389.641 -0.484713 0.560477 0
M  V30 3993 H 392.288 -0.636888 1.80599 0
M  V30 3994 H 390.593 -3.20517 2.25335 0
M  V30 3995 H 392.29 -3.04427 2.61008 0
M  V30 3996 H 388.88 -2.13348 3.71726 0
M  V30 3997 H 393.064 -1.78098 4.63244 0
M  V30 3998 H 388.32 -1.32254 5.96925 0
M  V30 3999 H 392.494 -0.978924 6.89485 0
M  V30 4000 H 390.121 -0.744078 7.5655 0
M  V30 4001 N 391.696 -1.35014 -0.812953 0
M  V30 4002 C 392.924 -1.31031 -1.6012 0
M  V30 4003 C 393.339 0.113558 -1.88458 0
M  V30 4004 O 392.696 1.06363 -1.48301 0
M  V30 4005 C 392.747 -2.10872 -2.93624 0
M  V30 4006 O 392.468 -3.47706 -2.66518 0
M  V30 4007 C 393.969 -2.14401 -3.88004 0
M  V30 4008 H 391.189 -0.45037 -0.497401 0
M  V30 4009 H 393.733 -1.77775 -1.01076 0
M  V30 4010 H 391.888 -1.67744 -3.492 0
M  V30 4011 H 392.302 -3.89097 -3.51715 0
M  V30 4012 H 393.776 -2.74669 -4.78812 0
M  V30 4013 H 394.253 -1.14105 -4.24119 0
M  V30 4014 H 394.859 -2.57662 -3.38364 0
M  V30 4015 N 393.175 1.03435 -1.18907 0
M  V30 4016 C 394.421 1.77005 -0.989798 0
M  V30 4017 C 394.754 1.88205 0.478816 0
M  V30 4018 O 394.029 1.39481 1.35556 0
M  V30 4019 C 394.312 3.19925 -1.65287 0
M  V30 4020 C 394.165 3.1663 -3.19477 0
M  V30 4021 C 395.484 4.18189 -1.37134 0
M  V30 4022 H 392.603 0.642538 -0.360991 0
M  V30 4023 H 395.245 1.20784 -1.46667 0
M  V30 4024 H 393.395 3.67929 -1.24741 0
M  V30 4025 H 395.067 2.76567 -3.692 0
M  V30 4026 H 393.31 2.54491 -3.51307 0
M  V30 4027 H 393.981 4.1758 -3.61013 0
M  V30 4028 H 396.457 3.78761 -1.72276 0
M  V30 4029 H 395.333 5.16394 -1.86087 0
M  V30 4030 H 395.594 4.41112 -0.295424 0
M  V30 4031 N 394.653 0.992116 1.22453 0
M  V30 4032 C 395.881 0.685944 1.95198 0
M  V30 4033 C 396.296 -0.749233 1.73297 0
M  V30 4034 O 395.653 -1.50549 1.03156 0
M  V30 4035 C 395.704 0.981395 3.47924 0
M  V30 4036 O 395.425 2.36018 3.6909 0
M  V30 4037 C 396.926 0.692815 4.37853 0
M  V30 4038 H 394.146 0.253821 0.621141 0
M  V30 4039 H 396.69 1.32668 1.55626 0
M  V30 4040 H 394.845 0.386481 3.85467 0
M  V30 4041 H 395.259 2.45884 4.63294 0
M  V30 4042 H 396.733 0.949818 5.43767 0
M  V30 4043 H 397.21 -0.373181 4.37612 0
M  V30 4044 H 397.816 1.26874 4.05935 0
M  V30 4045 N 396.131 -1.37776 0.765217 0
M  V30 4046 C 397.378 -1.99849 0.326588 0
M  V30 4047 C 397.706 -1.60746 -1.09504 0
M  V30 4048 O 396.961 -0.84202 -1.76659 0
M  V30 4049 C 397.26 -3.5504 0.410053 0
M  V30 4050 C 396.926 -4.13891 1.78899 0
M  V30 4051 C 395.588 -4.29678 2.16635 0
M  V30 4052 C 397.94 -4.46236 2.69301 0
M  V30 4053 C 395.268 -4.7511 3.44221 0
M  V30 4054 C 397.62 -4.93089 3.9629 0
M  V30 4055 C 396.284 -5.07082 4.34078 0
M  V30 4056 H 395.554 -0.7313 0.119507 0
M  V30 4057 H 398.201 -1.64645 0.977968 0
M  V30 4058 H 396.506 -3.90451 -0.324878 0
M  V30 4059 H 398.203 -4.00966 0.0520699 0
M  V30 4060 H 394.793 -4.02026 1.48569 0
M  V30 4061 H 398.977 -4.3363 2.41409 0
M  V30 4062 H 394.233 -4.84129 3.73402 0
M  V30 4063 H 398.407 -5.17084 4.66472 0
M  V30 4064 H 396.034 -5.42046 5.33001 0
M  V30 4065 N 397.609 -0.515225 -1.4894 0
M  V30 4066 C 398.557 0.269115 -2.31038 0
M  V30 4067 C 399.551 0.949443 -1.40292 0
M  V30 4068 O 400.757 0.87551 -1.57273 0
M  V30 4069 H 397.132 0.10565 -0.744542 0
M  V30 4070 H 399.103 -0.443096 -2.95092 0
M  V30 4071 C 397.852 1.31213 -3.21991 0
M  V30 4072 H 397.175 0.798034 -3.91754 0
M  V30 4073 H 398.615 1.83263 -3.82349 0
M  V30 4074 C 397.074 2.33791 -2.42576 0
M  V30 4075 O 397.604 3.3995 -2.14003 0
M  V30 4076 N 395.81 2.06625 -2.0434 0
M  V30 4077 H 395.357 1.20314 -2.27777 0
M  V30 4078 H 395.315 2.75483 -1.51514 0
M  V30 4079 N 399.087 1.5561 -0.249682 0
M  V30 4080 C 400.498 1.84979 0.252949 0
M  V30 4081 C 400.849 1.17153 1.57384 0
M  V30 4082 O 399.974 0.450884 2.11651 0
M  V30 4083 C 400.569 3.35584 0.465732 0
M  V30 4084 C 399.128 3.65169 0.912624 0
M  V30 4085 C 398.275 2.77299 -0.00859085 0
M  V30 4086 H 401.226 1.51513 -0.47217 0
M  V30 4087 H 401.247 3.57313 1.30795 0
M  V30 4088 H 400.759 3.8492 -0.49579 0
M  V30 4089 H 398.86 3.21312 1.88652 0
M  V30 4090 H 398.973 4.72912 0.767559 0
M  V30 4091 H 397.337 2.49678 0.50327 0
M  V30 4092 H 398.12 3.29442 -0.965537 0
M  V30 4093 N 400.565 -0.0233959 1.57583 0
M  V30 4094 C 401.512 -1.02224 2.06927 0
M  V30 4095 C 402.482 -1.35575 0.959617 0
M  V30 4096 O 403.667 -1.45815 1.23055 0
M  V30 4097 C 400.807 -2.31636 2.5581 0
M  V30 4098 C 399.92 -2.04394 3.80588 0
M  V30 4099 C 399.055 -3.27717 4.18061 0
M  V30 4100 C 398.094 -2.96056 5.3574 0
M  V30 4101 N 397.231 -4.11847 5.68618 0
M  V30 4102 H 402.071 -0.594504 2.9201 0
M  V30 4103 H 399.608 -0.281921 1.44373 0
M  V30 4104 H 401.566 -3.07258 2.82221 0
M  V30 4105 H 400.196 -2.72122 1.73636 0
M  V30 4106 H 399.248 -1.19244 3.61227 0
M  V30 4107 H 400.56 -1.77042 4.66323 0
M  V30 4108 H 399.714 -4.11702 4.4563 0
M  V30 4109 H 398.453 -3.58188 3.30988 0
M  V30 4110 H 397.458 -2.10474 5.07918 0
M  V30 4111 H 398.683 -2.66857 6.24471 0
M  V30 4112 H 396.629 -4.42258 4.84504 0
M  V30 4113 H 396.546 -3.87938 6.48876 0
M  V30 4114 H 397.814 -4.96689 6.00766 0
M  V30 4115 N 402.043 -1.548 -0.295768 0
M  V30 4116 C 403.273 -1.78069 -1.04762 0
M  V30 4117 C 403.681 -0.542847 -1.81245 0
M  V30 4118 O 403.024 0.497051 -1.76848 0
M  V30 4119 C 403.086 -2.93881 -2.07061 0
M  V30 4120 C 402.75 -4.31777 -1.49725 0
M  V30 4121 C 403.747 -5.11613 -0.924581 0
M  V30 4122 C 401.432 -4.78389 -1.5313 0
M  V30 4123 C 403.426 -6.36184 -0.393594 0
M  V30 4124 C 401.113 -6.02921 -0.996447 0
M  V30 4125 C 402.111 -6.81654 -0.428569 0
M  V30 4126 O 401.799 -8.0384 0.0981593 0
M  V30 4127 H 401.531 -0.597475 -0.316226 0
M  V30 4128 H 404.085 -2.02584 -0.338973 0
M  V30 4129 H 402.315 -2.65003 -2.81621 0
M  V30 4130 H 404.004 -3.04679 -2.6819 0
M  V30 4131 H 404.77 -4.76743 -0.891136 0
M  V30 4132 H 400.649 -4.17132 -1.9627 0
M  V30 4133 H 404.193 -6.97582 0.0503014 0
M  V30 4134 H 400.09 -6.37277 -1.02706 0
M  V30 4135 H 400.858 -8.18499 -0.0146455 0
M  V30 4136 N 403.521 0.559213 -1.47345 0
M  V30 4137 C 404.798 1.31997 -1.44348 0
M  V30 4138 C 405.178 2.1064 -0.139358 0
M  V30 4139 O 404.526 2.1091 0.879153 0
M  V30 4140 C 404.736 2.22618 -2.68779 0
M  V30 4141 C 406.084 2.83701 -3.1591 0
M  V30 4142 O 407.108 2.32921 -2.69493 0
M  V30 4143 O 405.967 3.75993 -3.966 0
M  V30 4144 H 403.061 0.594251 -0.575147 0
M  V30 4145 H 405.607 0.578282 -1.59543 0
M  V30 4146 H 404.379 1.64093 -3.55231 0
M  V30 4147 H 404.002 3.04085 -2.5616 0
M  V30 4148 N 404.999 1.35443 0.805782 0
M  V30 4149 C 406.227 1.31878 1.59423 0
M  V30 4150 C 406.642 -0.103562 1.88516 0
M  V30 4151 O 405.999 -1.05575 1.48863 0
M  V30 4152 C 406.05 2.12426 2.92502 0
M  V30 4153 O 405.771 3.49115 2.6467 0
M  V30 4154 C 407.272 2.16455 3.86862 0
M  V30 4155 H 404.492 0.453002 0.495005 0
M  V30 4156 H 407.036 1.78309 1.00131 0
M  V30 4157 H 405.191 1.69593 3.48306 0
M  V30 4158 H 405.605 3.90957 3.49647 0
M  V30 4159 H 407.079 2.77204 4.77349 0
M  V30 4160 H 407.556 1.16352 4.23508 0
M  V30 4161 H 408.162 2.59453 3.36993 0
M  V30 4162 N 406.477 -1.02803 1.19454 0
M  V30 4163 C 407.407 -2.12999 0.956758 0
M  V30 4164 C 408.388 -1.69743 -0.110188 0
M  V30 4165 O 409.573 -1.94148 0.0450038 0
M  V30 4166 C 406.703 -3.43746 0.495553 0
M  V30 4167 C 405.657 -4.00688 1.50443 0
M  V30 4168 C 404.983 -5.27067 0.900275 0
M  V30 4169 C 406.283 -4.35397 2.8849 0
M  V30 4170 H 407.977 -2.33148 1.87836 0
M  V30 4171 H 405.523 -1.12045 0.904539 0
M  V30 4172 H 407.476 -4.2021 0.316493 0
M  V30 4173 H 406.2 -3.23321 -0.461646 0
M  V30 4174 H 404.859 -3.2632 1.67065 0
M  V30 4175 H 404.507 -5.02959 -0.064503 0
M  V30 4176 H 404.207 -5.66127 1.57397 0
M  V30 4177 H 405.731 -6.06196 0.73203 0
M  V30 4178 H 407.145 -5.02795 2.75446 0
M  V30 4179 H 405.542 -4.85541 3.52661 0
M  V30 4180 H 406.612 -3.44662 3.41081 0
M  V30 4181 N 407.956 -0.998596 -1.21925 0
M  V30 4182 C 408.886 -0.573688 -2.26343 0
M  V30 4183 C 409.867 0.402296 -1.65274 0
M  V30 4184 O 411.052 0.291683 -1.91997 0
M  V30 4185 C 408.182 0.106839 -3.47136 0
M  V30 4186 C 407.136 -0.788269 -4.20678 0
M  V30 4187 C 406.462 0.0254927 -5.34694 0
M  V30 4188 C 407.762 -2.08784 -4.78755 0
M  V30 4189 H 409.456 -1.44651 -2.62138 0
M  V30 4190 H 407.002 -0.696975 -1.26009 0
M  V30 4191 H 408.955 0.415531 -4.19346 0
M  V30 4192 H 407.679 1.01424 -3.10452 0
M  V30 4193 H 406.338 -1.08069 -3.50309 0
M  V30 4194 H 405.986 0.933989 -4.94253 0
M  V30 4195 H 405.686 -0.570437 -5.84825 0
M  V30 4196 H 407.21 0.328147 -6.09718 0
M  V30 4197 H 408.624 -1.84272 -5.42878 0
M  V30 4198 H 407.021 -2.63307 -5.39249 0
M  V30 4199 H 408.091 -2.76284 -3.98491 0
M  V30 4200 N 409.434 1.37368 -0.772513 0
M  V30 4201 C 410.381 2.30262 -0.157488 0
M  V30 4202 C 411.351 1.51137 0.688965 0
M  V30 4203 O 412.536 1.79704 0.641168 0
M  V30 4204 C 409.676 3.37611 0.715045 0
M  V30 4205 C 408.789 4.31746 -0.148098 0
M  V30 4206 C 407.924 5.26171 0.729213 0
M  V30 4207 C 406.963 6.11948 -0.136418 0
M  V30 4208 N 406.1 6.98613 0.698914 0
M  V30 4209 H 410.94 2.82277 -0.955179 0
M  V30 4210 H 408.477 1.38957 -0.482631 0
M  V30 4211 H 410.435 3.98479 1.23575 0
M  V30 4212 H 409.065 2.86959 1.47833 0
M  V30 4213 H 408.117 3.72178 -0.786613 0
M  V30 4214 H 409.429 4.92084 -0.81579 0
M  V30 4215 H 408.583 5.92247 1.31637 0
M  V30 4216 H 407.322 4.66246 1.43059 0
M  V30 4217 H 406.327 5.4485 -0.736102 0
M  V30 4218 H 407.552 6.73945 -0.835134 0
M  V30 4219 H 405.498 6.41215 1.38489 0
M  V30 4220 H 405.415 7.55948 0.0885358 0
M  V30 4221 H 406.683 7.69077 1.27044 0
M  V30 4222 N 410.912 0.523116 1.48665 0
M  V30 4223 C 411.875 -0.232592 2.28017 0
M  V30 4224 C 412.875 -0.874021 1.34972 0
M  V30 4225 O 414.065 -0.735132 1.57929 0
M  V30 4226 C 411.197 -1.33586 3.13636 0
M  V30 4227 H 412.39 0.464008 2.96289 0
M  V30 4228 H 409.943 0.278816 1.53793 0
M  V30 4229 H 410.678 -2.06593 2.4998 0
M  V30 4230 H 410.463 -0.881125 3.82071 0
M  V30 4231 H 411.953 -1.86759 3.73511 0
M  V30 4232 N 412.39 -1.55475 0.257931 0
M  V30 4233 C 413.636 -1.99502 -0.364266 0
M  V30 4234 C 413.969 -1.146 -1.56782 0
M  V30 4235 O 413.244 -0.211968 -1.93342 0
M  V30 4236 C 413.527 -3.51917 -0.763333 0
M  V30 4237 C 413.38 -4.4758 0.446371 0
M  V30 4238 C 414.699 -4.09742 -1.60623 0
M  V30 4239 H 411.818 -0.725277 -0.130929 0
M  V30 4240 H 414.46 -1.8653 0.361446 0
M  V30 4241 H 412.61 -3.63101 -1.38166 0
M  V30 4242 H 414.282 -4.48362 1.08487 0
M  V30 4243 H 412.525 -4.19947 1.08753 0
M  V30 4244 H 413.196 -5.51862 0.123645 0
M  V30 4245 H 415.672 -4.01727 -1.08418 0
M  V30 4246 H 414.548 -5.16631 -1.85429 0
M  V30 4247 H 414.809 -3.58889 -2.58169 0
M  V30 4248 N 413.868 0.0150385 -1.57593 0
M  V30 4249 C 414.815 1.01126 -2.07466 0
M  V30 4250 C 415.785 1.35064 -0.966794 0
M  V30 4251 O 416.97 1.4516 -1.23827 0
M  V30 4252 C 414.11 2.30276 -2.57035 0
M  V30 4253 C 413.223 2.02373 -3.81666 0
M  V30 4254 C 412.358 3.25496 -4.19793 0
M  V30 4255 C 411.397 2.93211 -5.37303 0
M  V30 4256 N 410.534 4.08826 -5.70794 0
M  V30 4257 H 415.374 0.57901 -2.92321 0
M  V30 4258 H 412.911 0.27426 -1.44521 0
M  V30 4259 H 414.869 3.05757 -2.83846 0
M  V30 4260 H 413.499 2.71197 -1.75077 0
M  V30 4261 H 412.551 1.17327 -3.61854 0
M  V30 4262 H 413.863 1.74567 -4.67256 0
M  V30 4263 H 413.017 4.09333 -4.47807 0
M  V30 4264 H 411.756 3.56428 -3.32882 0
M  V30 4265 H 410.761 2.07777 -5.09027 0
M  V30 4266 H 411.986 2.63542 -6.25877 0
M  V30 4267 H 409.932 4.39682 -4.86842 0
M  V30 4268 H 409.849 3.84491 -6.50924 0
M  V30 4269 H 411.117 4.93496 -6.03392 0
M  V30 4270 N 415.346 1.54954 0.287554 0
M  V30 4271 C 416.623 1.65569 1.04146 0
M  V30 4272 C 417.003 0.512672 2.0478 0
M  V30 4273 O 416.351 -0.489038 2.23205 0
M  V30 4274 C 416.561 3.04163 1.71131 0
M  V30 4275 C 417.909 3.61429 2.22832 0
M  V30 4276 O 418.933 3.06702 1.81141 0
M  V30 4277 O 417.792 4.57281 2.9926 0
M  V30 4278 H 414.886 0.671881 0.482188 0
M  V30 4279 H 417.432 1.67297 0.28457 0
M  V30 4280 H 416.204 3.78796 0.981303 0
M  V30 4281 H 415.827 3.06271 2.53543 0
M  V30 4282 N 416.824 -0.551391 1.4764 0
M  V30 4283 C 417.787 -1.64007 1.60107 0
M  V30 4284 C 418.787 -1.53601 0.47576 0
M  V30 4285 O 419.977 -1.57655 0.740988 0
M  V30 4286 C 417.109 -3.03569 1.55108 0
M  V30 4287 H 418.302 -1.543 2.57161 0
M  V30 4288 H 415.855 -0.771776 1.35917 0
M  V30 4289 H 416.59 -3.18804 0.594519 0
M  V30 4290 H 416.375 -3.12532 2.36783 0
M  V30 4291 H 417.865 -3.82762 1.66982 0
M  V30 4292 N 418.302 -1.35869 -0.798587 0
M  V30 4293 C 419.53 -1.32722 -1.58722 0
M  V30 4294 C 419.945 0.0935631 -1.88568 0
M  V30 4295 O 419.302 1.04784 -1.49421 0
M  V30 4296 C 419.353 -2.13974 -2.91371 0
M  V30 4297 O 419.074 -3.50514 -2.62815 0
M  V30 4298 C 420.575 -2.18504 -3.85708 0
M  V30 4299 H 417.795 -0.45562 -0.492596 0
M  V30 4300 H 420.339 -1.78837 -0.991843 0
M  V30 4301 H 418.494 -1.71438 -3.47402 0
M  V30 4302 H 418.908 -3.92806 -3.47568 0
M  V30 4303 H 420.382 -2.79732 -4.75872 0
M  V30 4304 H 420.859 -1.18597 -4.22885 0
M  V30 4305 H 421.465 -2.61236 -3.35612 0
M  V30 4306 N 419.78 1.02168 -1.19998 0
M  V30 4307 C 420.728 2.12717 -0.940967 0
M  V30 4308 C 421.722 1.69069 0.105841 0
M  V30 4309 O 422.928 1.79946 -0.0440583 0
M  V30 4310 H 419.303 0.695108 -0.28693 0
M  V30 4311 H 421.274 2.3175 -1.87975 0
M  V30 4312 C 420.023 3.44027 -0.504049 0
M  V30 4313 H 419.346 3.78036 -1.30112 0
M  V30 4314 H 420.786 4.22452 -0.361991 0
M  V30 4315 C 419.245 3.27678 0.782878 0
M  V30 4316 O 419.775 3.56949 1.84256 0
M  V30 4317 N 417.981 2.80943 0.742921 0
M  V30 4318 H 417.528 2.57322 -0.119687 0
M  V30 4319 H 417.486 2.70385 1.60435 0
M  V30 4320 N 421.258 1.00505 1.21394 0
M  V30 4321 C 422.486 0.706609 1.9446 0
M  V30 4322 C 422.901 -0.73081 1.74082 0
M  V30 4323 O 422.258 -1.49446 1.04747 0
M  V30 4324 C 422.309 1.01824 3.46863 0
M  V30 4325 O 422.03 2.39919 3.66566 0
M  V30 4326 C 423.531 0.739216 4.37093 0
M  V30 4327 H 420.751 0.260394 0.618414 0
M  V30 4328 H 423.295 1.34311 1.54211 0
M  V30 4329 H 421.45 0.427343 3.85036 0
M  V30 4330 H 421.864 2.50784 4.6066 0
M  V30 4331 H 423.338 1.00744 5.42729 0
M  V30 4332 H 423.815 -0.326746 4.37983 0
M  V30 4333 H 424.421 1.31173 4.04566 0
M  V30 4334 N 422.737 -1.36956 0.779787 0
M  V30 4335 C 423.985 -1.99097 0.347079 0
M  V30 4336 C 424.306 -1.62206 -1.08232 0
M  V30 4337 O 423.576 -0.891373 -1.74446 0
M  V30 4338 H 422.156 -0.736409 0.125342 0
M  V30 4339 H 424.818 -1.67308 0.999696 0
M  V30 4340 H 423.914 -3.09107 0.431162 0
M  V30 4341 N 424.215 -0.530993 -1.48385 0
M  V30 4342 C 425.464 0.00474348 -2.01699 0
M  V30 4343 C 425.777 1.35227 -1.41325 0
M  V30 4344 O 426.983 1.97643 -1.86144 0
M  V30 4345 C 425.439 0.0588473 -3.59852 0
M  V30 4346 C 425.047 -1.28385 -4.2921 0
M  V30 4347 C 426.791 0.543358 -4.21008 0
M  V30 4348 C 424.698 -1.19028 -5.79298 0
M  V30 4349 H 423.628 0.00554317 -0.75398 0
M  V30 4350 H 426.279 -0.674924 -1.70637 0
M  V30 4351 H 424.661 0.803612 -3.8776 0
M  V30 4352 H 425.835 -2.04426 -4.12973 0
M  V30 4353 H 424.15 -1.70418 -3.7993 0
M  V30 4354 H 426.747 0.631351 -5.3096 0
M  V30 4355 H 427.09 1.54937 -3.86394 0
M  V30 4356 H 427.623 -0.145754 -3.97533 0
M  V30 4357 H 424.362 -2.17147 -6.18488 0
M  V30 4358 H 423.882 -0.471246 -5.97946 0
M  V30 4359 H 425.561 -0.881365 -6.40969 0
M  V30 4360 N 425.693 1.55336 -0.266172 0
M  V30 4361 C 426.64 2.22172 0.625165 0
M  V30 4362 C 427.61 1.19211 1.15663 0
M  V30 4363 O 428.795 1.47723 1.20758 0
M  V30 4364 C 425.935 2.93972 1.8076 0
M  V30 4365 C 425.048 4.11632 1.31084 0
M  V30 4366 C 424.183 4.71099 2.45436 0
M  V30 4367 C 423.222 5.8097 1.92718 0
M  V30 4368 N 422.359 6.34538 3.00509 0
M  V30 4369 H 427.199 2.9796 0.0485582 0
M  V30 4370 H 424.736 1.47095 0.0122024 0
M  V30 4371 H 426.694 3.33811 2.50251 0
M  V30 4372 H 425.324 2.20623 2.35638 0
M  V30 4373 H 424.376 3.76975 0.509326 0
M  V30 4374 H 425.688 4.90893 0.884633 0
M  V30 4375 H 424.842 5.13612 3.22936 0
M  V30 4376 H 423.581 3.91096 2.91368 0
M  V30 4377 H 422.586 5.37916 1.13695 0
M  V30 4378 H 423.811 6.62836 1.47733 0
M  V30 4379 H 421.757 5.57433 3.45839 0
M  V30 4380 H 421.674 7.09046 2.62279 0
M  V30 4381 H 422.942 6.81709 3.78011 0
M  V30 4382 N 427.171 -0.0066808 1.57599 0
M  V30 4383 C 428.411 -0.697501 1.92131 0
M  V30 4384 C 428.775 -1.71306 0.867071 0
M  V30 4385 O 429.976 -2.45377 1.09743 0
M  V30 4386 C 428.247 -1.32978 3.3174 0
M  V30 4387 S 429.806 -2.04665 3.88146 0
M  V30 4388 H 426.624 -0.230555 0.672581 0
M  V30 4389 H 429.226 0.0484026 1.9544 0
M  V30 4390 H 427.93 -0.57772 4.06313 0
M  V30 4391 H 427.461 -2.11376 3.31789 0
M  V30 4392 H 429.476 -3.32097 3.68682 0
M  V30 4393 N 428.649 -1.55105 -0.279332 0
M  V30 4394 C 429.612 -1.86783 -1.32834 0
M  V30 4395 C 430.612 -0.74199 -1.42657 0
M  V30 4396 O 431.802 -1.0102 -1.41918 0
M  V30 4397 C 428.934 -2.06746 -2.71052 0
M  V30 4398 H 430.127 -2.8055 -1.05979 0
M  V30 4399 H 427.68 -1.47499 -0.517087 0
M  V30 4400 H 428.415 -1.15339 -3.03097 0
M  V30 4401 H 428.2 -2.88711 -2.65309 0
M  V30 4402 H 429.69 -2.32549 -3.46858 0
M  V30 4403 N 430.127 0.543554 -1.4793 0
M  V30 4404 C 431.375 1.29752 -1.54948 0
M  V30 4405 C 431.696 1.93764 -0.219242 0
M  V30 4406 O 430.966 1.80639 0.75805 0
M  V30 4407 H 429.546 0.481874 -0.570795 0
M  V30 4408 H 432.208 0.633636 -1.84312 0
M  V30 4409 H 431.304 2.08392 -2.32334 0
M  V30 4410 N 431.605 1.3629 0.791371 0
M  V30 4411 C 432.854 1.29742 1.54434 0
M  V30 4412 C 433.167 -0.121729 1.95221 0
M  V30 4413 O 434.373 -0.309579 2.69729 0
M  V30 4414 C 432.829 2.27623 2.78776 0
M  V30 4415 C 432.437 3.74963 2.45166 0
M  V30 4416 C 434.181 2.30047 3.56761 0
M  V30 4417 C 432.088 4.64626 3.65891 0
M  V30 4418 H 431.018 0.482113 0.579727 0
M  V30 4419 H 433.669 1.61642 0.868565 0
M  V30 4420 H 432.051 1.88714 3.48142 0
M  V30 4421 H 433.225 4.22596 1.83709 0
M  V30 4422 H 431.54 3.75295 1.80396 0
M  V30 4423 H 434.137 2.94247 4.46456 0
M  V30 4424 H 434.48 1.30846 3.95203 0
M  V30 4425 H 435.013 2.67563 2.94372 0
M  V30 4426 H 431.752 5.64883 3.32547 0
M  V30 4427 H 431.272 4.2171 4.26521 0
M  V30 4428 H 432.951 4.80801 4.32943 0
M  V30 4429 N 433.083 -1.0153 1.20538 0
M  V30 4430 C 434.36 -1.72327 0.925343 0
M  V30 4431 C 434.74 -2.03383 -0.565547 0
M  V30 4432 O 434.088 -1.69934 -1.52757 0
M  V30 4433 C 434.298 -2.9902 1.79967 0
M  V30 4434 C 435.646 -3.72258 2.04228 0
M  V30 4435 O 436.67 -3.08979 1.77231 0
M  V30 4436 O 435.529 -4.86053 2.4983 0
M  V30 4437 H 432.623 -0.751099 0.346092 0
M  V30 4438 H 435.169 -1.07366 1.31417 0
M  V30 4439 H 433.941 -2.72402 2.80915 0
M  V30 4440 H 433.564 -3.71721 1.41099 0
M  V30 4441 N 434.561 -1.01147 -1.20859 0
M  V30 4442 C 435.807 -0.698899 -1.90377 0
M  V30 4443 C 436.14 0.76904 -1.78324 0
M  V30 4444 O 435.415 1.55817 -1.16409 0
M  V30 4445 C 435.698 -1.12878 -3.41951 0
M  V30 4446 C 435.551 -2.65665 -3.62963 0
M  V30 4447 C 436.87 -0.696114 -4.3456 0
M  V30 4448 H 433.989 -0.255372 -0.691342 0
M  V30 4449 H 436.631 -1.25831 -1.42361 0
M  V30 4450 H 434.781 -0.652827 -3.82976 0
M  V30 4451 H 436.453 -3.21074 -3.31224 0
M  V30 4452 H 434.696 -3.06878 -3.06608 0
M  V30 4453 H 435.367 -2.90797 -4.69192 0
M  V30 4454 H 437.843 -1.10521 -4.01154 0
M  V30 4455 H 436.719 -1.025 -5.39245 0
M  V30 4456 H 436.98 0.402465 -4.40264 0
M  V30 4457 N 436.039 1.36541 -0.78704 0
M  V30 4458 C 437.455 1.52571 -0.46844 0
M  V30 4459 C 437.655 1.7415 1.01361 0
M  V30 4460 O 436.711 1.77163 1.79915 0
M  V30 4461 C 438.024 2.71299 -1.29682 0
M  V30 4462 C 439.572 2.85169 -1.29027 0
M  V30 4463 C 440.047 4.06898 -2.10233 0
M  V30 4464 N 441.538 4.1404 -2.07666 0
M  V30 4465 C 442.273 5.07301 -2.67271 0
M  V30 4466 N 441.769 6.06021 -3.35724 0
M  V30 4467 N 443.562 4.99898 -2.57018 0
M  V30 4468 H 435.713 1.20788 -1.74711 0
M  V30 4469 H 437.976 0.589364 -0.742532 0
M  V30 4470 H 437.682 2.61868 -2.34773 0
M  V30 4471 H 437.556 3.6539 -0.936479 0
M  V30 4472 H 439.943 2.94062 -0.247284 0
M  V30 4473 H 440.024 1.91992 -1.69035 0
M  V30 4474 H 439.668 3.98766 -3.1456 0
M  V30 4475 H 439.598 4.99218 -1.67597 0
M  V30 4476 H 442.089 3.43357 -1.57843 0
M  V30 4477 H 442.402 6.73741 -3.78541 0
M  V30 4478 H 440.747 6.06253 -3.39826 0
M  V30 4479 H 443.938 4.21724 -2.03142 0
M  V30 4480 H 444.111 5.72392 -3.03761 0
M  V30 4481 N 437.518 0.538854 1.48102 0
M  V30 4482 C 438.448 -0.207654 2.32575 0
M  V30 4483 C 439.429 -0.926559 1.4265 0
M  V30 4484 O 440.614 -0.91061 1.71527 0
M  V30 4485 C 437.744 -1.24957 3.24042 0
M  V30 4486 C 436.698 -0.648263 4.23062 0
M  V30 4487 C 436.024 -1.79348 5.03725 0
M  V30 4488 C 437.324 0.385897 5.20872 0
M  V30 4489 H 439.018 0.497534 2.95237 0
M  V30 4490 H 436.564 0.240715 1.41974 0
M  V30 4491 H 438.517 -1.77983 3.81969 0
M  V30 4492 H 437.241 -1.98446 2.59397 0
M  V30 4493 H 435.9 -0.139452 3.66335 0
M  V30 4494 H 435.548 -2.51696 4.35498 0
M  V30 4495 H 435.248 -1.39702 5.70751 0
M  V30 4496 H 436.772 -2.32735 5.64506 0
M  V30 4497 H 438.186 -0.057607 5.73271 0
M  V30 4498 H 436.583 0.700227 5.96001 0
M  V30 4499 H 437.653 1.28848 4.67468 0
M  V30 4500 N 438.996 -1.55193 0.274407 0
M  V30 4501 C 440.236 -2.01488 -0.343778 0
M  V30 4502 C 440.6 -1.1586 -1.53103 0
M  V30 4503 O 441.801 -1.51732 -2.2188 0
M  V30 4504 C 440.072 -3.50134 -0.717021 0
M  V30 4505 S 441.631 -4.18417 -1.32184 0
M  V30 4506 H 438.449 -0.70291 -0.106948 0
M  V30 4507 H 441.051 -1.91446 0.396075 0
M  V30 4508 H 439.755 -4.10104 0.155947 0
M  V30 4509 H 439.286 -3.64159 -1.48835 0
M  V30 4510 H 441.301 -4.21984 -2.61044 0
M  V30 4511 N 440.474 -0.00167713 -1.576 0
M  V30 4512 C 441.751 0.719951 -1.81868 0
M  V30 4513 C 442.131 1.91895 -0.879747 0
M  V30 4514 O 441.479 2.28389 0.0711423 0
M  V30 4515 C 441.689 1.12409 -3.30402 0
M  V30 4516 C 443.037 1.52724 -3.96182 0
M  V30 4517 O 444.061 1.21784 -3.34734 0
M  V30 4518 O 442.92 2.10265 -5.04431 0
M  V30 4519 H 440.014 0.350707 -0.748955 0
M  V30 4520 H 442.56 -0.0272597 -1.69678 0
M  V30 4521 H 441.332 0.269532 -3.90371 0
M  V30 4522 H 440.955 1.93035 -3.47596 0
M  V30 4523 N 441.952 1.55251 0.271103 0
M  V30 4524 C 443.198 1.76207 1.00394 0
M  V30 4525 C 443.531 0.562604 1.85872 0
M  V30 4526 O 442.806 -0.439785 1.89463 0
M  V30 4527 C 443.089 3.06828 1.8849 0
M  V30 4528 C 442.942 4.37134 1.05992 0
M  V30 4529 C 444.261 3.33503 2.87165 0
M  V30 4530 H 441.38 0.641086 0.363562 0
M  V30 4531 H 444.022 1.87982 0.276189 0
M  V30 4532 H 442.172 2.96921 2.5054 0
M  V30 4533 H 443.844 4.59001 0.459978 0
M  V30 4534 H 442.087 4.32275 0.363443 0
M  V30 4535 H 442.758 5.2486 1.70955 0
M  V30 4536 H 445.234 3.43215 2.3525 0
M  V30 4537 H 444.11 4.2616 3.45946 0
M  V30 4538 H 444.371 2.53235 3.62387 0
M  V30 4539 N 443.43 -0.535701 1.48216 0
M  V30 4540 C 444.678 -1.28928 1.55634 0
M  V30 4541 C 444.999 -1.93645 0.229514 0
M  V30 4542 O 444.269 -1.81038 -0.74846 0
M  V30 4543 H 442.849 -0.47884 0.573342 0
M  V30 4544 H 445.511 -0.623853 1.84646 0
M  V30 4545 H 444.607 -2.07157 2.33436 0
M  V30 4546 N 444.908 -1.36708 -0.784132 0
M  V30 4547 C 445.818 -1.3363 -1.92822 0
M  V30 4548 C 446.834 -0.237686 -1.72369 0
M  V30 4549 O 448.01 -0.470962 -1.95816 0
M  V30 4550 C 445.075 -1.13011 -3.27764 0
M  V30 4551 C 444.136 -2.32397 -3.60957 0
M  V30 4552 C 443.369 -2.12752 -4.89461 0
M  V30 4553 O 443.592 -1.10541 -5.59586 0
M  V30 4554 O 442.526 -3.00653 -5.21432 0
M  V30 4555 H 446.352 -2.29964 -1.98369 0
M  V30 4556 H 443.937 -1.1731 -0.925136 0
M  V30 4557 H 445.819 -1.03451 -4.08504 0
M  V30 4558 H 444.494 -0.19743 -3.23097 0
M  V30 4559 H 443.401 -2.47527 -2.80502 0
M  V30 4560 H 444.734 -3.2419 -3.70354 0
M  V30 4561 N 446.386 1.0089 -1.21074 0
M  V30 4562 C 447.349 2.0775 -0.968129 0
M  V30 4563 C 448.349 1.6069 0.0593445 0
M  V30 4564 O 449.539 1.73293 -0.177525 0
M  V30 4565 C 446.671 3.37794 -0.459108 0
M  V30 4566 H 447.864 2.30707 -1.9161 0
M  V30 4567 H 445.417 1.17807 -1.02719 0
M  V30 4568 H 446.152 3.20516 0.49397 0
M  V30 4569 H 445.937 3.7328 -1.20019 0
M  V30 4570 H 447.427 4.16454 -0.309099 0
M  V30 4571 N 447.864 1.01787 1.20321 0
M  V30 4572 C 449.113 0.703249 1.89043 0
M  V30 4573 C 449.426 -0.770445 1.79787 0
M  V30 4574 O 450.632 -1.19767 2.43656 0
M  V30 4575 C 449.088 1.20749 3.3904 0
M  V30 4576 C 448.696 2.70817 3.56878 0
M  V30 4577 C 450.44 0.968352 4.13308 0
M  V30 4578 C 448.347 3.14716 5.00708 0
M  V30 4579 H 447.277 0.259354 0.707991 0
M  V30 4580 H 449.928 1.23072 1.36108 0
M  V30 4581 H 448.31 0.607989 3.91305 0
M  V30 4582 H 449.484 3.36327 3.14993 0
M  V30 4583 H 447.799 2.92888 2.95983 0
M  V30 4584 H 450.396 1.27173 5.19356 0
M  V30 4585 H 450.739 -0.095149 4.16191 0
M  V30 4586 H 451.272 1.53129 3.67146 0
M  V30 4587 H 448.011 4.20347 5.02979 0
M  V30 4588 H 447.531 2.53927 5.43398 0
M  V30 4589 H 449.21 3.07426 5.69296 0
M  V30 4590 N 449.342 -1.36122 0.79427 0
M  V30 4591 C 450.274 -2.28683 0.153903 0
M  V30 4592 C 451.287 -1.49707 -0.639669 0
M  V30 4593 O 452.476 -1.7209 -0.474054 0
M  V30 4594 C 449.576 -3.29202 -0.804921 0
M  V30 4595 C 448.749 -4.37358 -0.060366 0
M  V30 4596 C 447.808 -5.17811 -0.935849 0
M  V30 4597 O 446.834 -5.67853 -0.391309 0
M  V30 4598 N 448.036 -5.34721 -2.25951 0
M  V30 4599 H 450.801 -2.84278 0.949008 0
M  V30 4600 H 448.362 -1.4834 0.648611 0
M  V30 4601 H 450.354 -3.79914 -1.39455 0
M  V30 4602 H 448.924 -2.74212 -1.50088 0
M  V30 4603 H 448.144 -3.87746 0.710382 0
M  V30 4604 H 449.432 -5.06777 0.45324 0
M  V30 4605 H 448.83 -4.95687 -2.72601 0
M  V30 4606 H 447.387 -5.88657 -2.79867 0
M  V30 4607 N 450.82 -0.546701 -1.47814 0
M  V30 4608 C 451.73 0.21026 -2.33656 0
M  V30 4609 C 452.746 0.922413 -1.47538 0
M  V30 4610 O 453.922 0.893652 -1.80488 0
M  V30 4611 C 450.987 1.23348 -3.24016 0
M  V30 4612 C 450.048 0.529883 -4.26017 0
M  V30 4613 C 449.281 1.50435 -5.12059 0
M  V30 4614 O 449.504 2.73837 -5.00369 0
M  V30 4615 O 448.438 1.03459 -5.92942 0
M  V30 4616 H 452.264 -0.493605 -2.99662 0
M  V30 4617 H 449.849 -0.307427 -1.46203 0
M  V30 4618 H 451.731 1.82438 -3.79861 0
M  V30 4619 H 450.406 1.91945 -2.60651 0
M  V30 4620 H 449.313 -0.101948 -3.73961 0
M  V30 4621 H 450.646 -0.11445 -4.92067 0
M  V30 4622 N 452.299 1.55045 -0.282633 0
M  V30 4623 C 453.545 2.00056 0.332481 0
M  V30 4624 C 453.878 1.1708 1.54939 0
M  V30 4625 O 453.153 0.2427 1.9298 0
M  V30 4626 C 453.436 3.53086 0.70725 0
M  V30 4627 C 453.289 4.46813 -0.517521 0
M  V30 4628 C 454.608 4.12245 1.54084 0
M  V30 4629 H 451.727 0.727268 0.119373 0
M  V30 4630 H 454.369 1.85932 -0.391076 0
M  V30 4631 H 452.519 3.65253 1.32372 0
M  V30 4632 H 454.191 4.46579 -1.15607 0
M  V30 4633 H 452.434 4.18163 -1.1542 0
M  V30 4634 H 453.105 5.51595 -0.211426 0
M  V30 4635 H 455.581 4.03401 1.02013 0
M  V30 4636 H 454.457 5.19515 1.77186 0
M  V30 4637 H 454.718 3.62951 2.52427 0
M  V30 4638 N 453.777 0.010035 1.57597 0
M  V30 4639 C 454.71 -1.01234 2.04516 0
M  V30 4640 C 455.688 -1.32886 0.937024 0
M  V30 4641 O 456.872 -1.44879 1.20592 0
M  V30 4642 C 453.999 -2.33738 2.45121 0
M  V30 4643 C 453.045 -2.17679 3.66767 0
M  V30 4644 S 453.878 -1.49343 5.14254 0
M  V30 4645 C 455.034 -2.83256 5.58137 0
M  V30 4646 H 455.267 -0.612866 2.90914 0
M  V30 4647 H 452.8 -0.201124 1.53084 0
M  V30 4648 H 454.758 -3.09922 2.69182 0
M  V30 4649 H 453.419 -2.70823 1.59103 0
M  V30 4650 H 452.612 -3.1559 3.92962 0
M  V30 4651 H 452.214 -1.4964 3.42759 0
M  V30 4652 H 454.506 -3.79538 5.6121 0
M  V30 4653 H 455.449 -2.61749 6.57946 0
M  V30 4654 H 455.857 -2.87627 4.85727 0
M  V30 4655 N 455.255 -1.55392 -0.262866 0
M  V30 4656 C 456.165 -1.92077 -1.34698 0
M  V30 4657 C 457.181 -0.819227 -1.53508 0
M  V30 4658 O 458.357 -1.11921 -1.67439 0
M  V30 4659 C 455.422 -2.19407 -2.68443 0
M  V30 4660 C 454.483 -3.42905 -2.58292 0
M  V30 4661 C 453.716 -3.68921 -3.85659 0
M  V30 4662 O 453.939 -2.97275 -4.8681 0
M  V30 4663 O 452.873 -4.62455 -3.85252 0
M  V30 4664 H 456.699 -2.84384 -1.06581 0
M  V30 4665 H 454.284 -1.42069 -0.462264 0
M  V30 4666 H 456.166 -2.38365 -3.47506 0
M  V30 4667 H 454.841 -1.30282 -2.96325 0
M  V30 4668 H 453.748 -3.29272 -1.7757 0
M  V30 4669 H 455.081 -4.32282 -2.35358 0
M  V30 4670 N 456.733 0.527833 -1.48498 0
M  V30 4671 C 457.958 1.313 -1.60546 0
M  V30 4672 C 458.383 1.86199 -0.26672 0
M  V30 4673 O 457.741 1.64513 0.761918 0
M  V30 4674 C 457.789 2.43818 -2.65678 0
M  V30 4675 O 456.893 3.46916 -2.22987 0
M  V30 4676 H 456.234 0.388784 -0.538277 0
M  V30 4677 H 458.764 0.634896 -1.945 0
M  V30 4678 H 458.774 2.89973 -2.87018 0
M  V30 4679 H 457.449 2.03222 -3.62869 0
M  V30 4680 H 456.026 3.06864 -2.11869 0
M  V30 4681 N 458.211 1.37122 0.776871 0
M  V30 4682 C 459.441 1.35034 1.56363 0
M  V30 4683 C 459.849 -0.0674681 1.8908 0
M  V30 4684 O 459.192 -1.03826 1.51545 0
M  V30 4685 C 459.254 2.11894 2.90415 0
M  V30 4686 C 458.918 3.60897 2.80362 0
M  V30 4687 C 459.915 4.54887 2.51742 0
M  V30 4688 C 457.6 4.03951 2.98545 0
M  V30 4689 C 459.594 5.89909 2.41426 0
M  V30 4690 C 457.281 5.3906 2.87849 0
M  V30 4691 C 458.279 6.31852 2.5933 0
M  V30 4692 O 457.967 7.64479 2.48651 0
M  V30 4693 H 457.699 0.464402 0.49123 0
M  V30 4694 H 460.253 1.80992 0.971127 0
M  V30 4695 H 458.483 1.60618 3.51765 0
M  V30 4696 H 460.172 2.02505 3.51776 0
M  V30 4697 H 460.938 4.22934 2.37385 0
M  V30 4698 H 456.817 3.3209 3.19746 0
M  V30 4699 H 460.361 6.62304 2.19086 0
M  V30 4700 H 456.258 5.70617 3.01773 0
M  V30 4701 H 457.026 7.74742 2.64039 0
M  V30 4702 N 459.689 -1.00246 1.21608 0
M  V30 4703 C 460.599 -2.12515 0.993709 0
M  V30 4704 C 461.615 -1.73913 -0.0549939 0
M  V30 4705 O 462.791 -2.00943 0.135619 0
M  V30 4706 C 459.856 -3.42083 0.563953 0
M  V30 4707 C 458.917 -3.94843 1.68516 0
M  V30 4708 C 458.15 -5.18226 1.27582 0
M  V30 4709 O 458.373 -5.70201 0.150506 0
M  V30 4710 O 457.307 -5.64497 2.0887 0
M  V30 4711 H 461.133 -2.34152 1.93407 0
M  V30 4712 H 458.718 -1.10891 1.00118 0
M  V30 4713 H 460.6 -4.20073 0.334194 0
M  V30 4714 H 459.275 -3.21828 -0.347665 0
M  V30 4715 H 458.182 -3.18068 1.96935 0
M  V30 4716 H 459.515 -4.19512 2.5743 0
M  V30 4717 N 461.167 -1.02423 -1.1978 0
M  V30 4718 C 462.413 -0.719051 -1.89625 0
M  V30 4719 C 462.746 0.750083 -1.7913 0
M  V30 4720 O 462.021 1.54574 -1.18056 0
M  V30 4721 C 462.304 -1.16499 -3.40735 0
M  V30 4722 C 462.157 -2.695 -3.60125 0
M  V30 4723 C 463.476 -0.742166 -4.33797 0
M  V30 4724 H 460.595 -0.26269 -0.688595 0
M  V30 4725 H 463.237 -1.27333 -1.41018 0
M  V30 4726 H 461.387 -0.69341 -3.82262 0
M  V30 4727 H 463.059 -3.24569 -3.278 0
M  V30 4728 H 461.302 -3.10113 -3.03336 0
M  V30 4729 H 461.973 -2.95757 -4.66081 0
M  V30 4730 H 464.449 -1.1477 -3.99959 0
M  V30 4731 H 463.325 -1.08213 -5.38127 0
M  V30 4732 H 463.586 0.355747 -4.40666 0
M  V30 4733 N 462.645 1.35699 -0.801477 0
M  V30 4734 C 463.555 2.33661 -0.209691 0
M  V30 4735 C 464.571 1.6162 0.644591 0
M  V30 4736 O 465.747 1.93529 0.557545 0
M  V30 4737 C 462.812 3.40816 0.636033 0
M  V30 4738 C 461.873 4.28639 -0.238147 0
M  V30 4739 C 461.106 5.30676 0.567307 0
M  V30 4740 O 461.329 5.41174 1.8024 0
M  V30 4741 O 460.263 6.01887 -0.0391336 0
M  V30 4742 H 464.089 2.8606 -1.01996 0
M  V30 4743 H 461.674 1.38379 -0.563164 0
M  V30 4744 H 463.556 4.06301 1.11791 0
M  V30 4745 H 462.231 2.90696 1.42399 0
M  V30 4746 H 461.138 3.66152 -0.767044 0
M  V30 4747 H 462.471 4.82143 -0.989915 0
M  V30 4748 N 464.123 0.554532 1.47522 0
M  V30 4749 C 465.372 0.0273458 2.01681 0
M  V30 4750 C 465.685 -1.32962 1.43459 0
M  V30 4751 O 466.891 -1.94657 1.89265 0
M  V30 4752 C 465.347 -0.00159057 3.599 0
M  V30 4753 C 464.955 1.35197 4.27113 0
M  V30 4754 C 466.699 -0.476311 4.21819 0
M  V30 4755 C 464.606 1.28229 5.77331 0
M  V30 4756 H 463.536 0.00645269 0.753972 0
M  V30 4757 H 466.187 0.701985 1.69542 0
M  V30 4758 H 464.569 -0.741821 3.8899 0
M  V30 4759 H 465.743 2.1097 4.09668 0
M  V30 4760 H 464.058 1.76441 3.77171 0
M  V30 4761 H 466.655 -0.5468 5.31897 0
M  V30 4762 H 466.998 -1.4877 3.8881 0
M  V30 4763 H 467.531 0.20898 3.97251 0
M  V30 4764 H 464.27 2.26959 6.14955 0
M  V30 4765 H 463.79 0.566314 5.97121 0
M  V30 4766 H 465.469 0.983226 6.39485 0
M  V30 4767 N 465.601 -1.54893 0.290851 0
M  V30 4768 C 466.878 -1.91991 -0.373989 0
M  V30 4769 C 467.258 -1.21694 -1.72493 0
M  V30 4770 O 466.606 -0.34917 -2.25816 0
M  V30 4771 C 466.816 -3.45419 -0.498703 0
M  V30 4772 C 468.164 -4.1748 -0.774298 0
M  V30 4773 O 469.188 -3.51398 -0.582908 0
M  V30 4774 O 468.047 -5.3445 -1.14129 0
M  V30 4775 H 465.141 -0.800593 -0.207315 0
M  V30 4776 H 467.687 -1.66297 0.338164 0
M  V30 4777 H 466.459 -3.88688 0.451392 0
M  V30 4778 H 466.082 -3.77117 -1.25972 0
M  V30 4779 N 467.08 -0.0183926 -1.57589 0
M  V30 4780 C 468.328 0.661253 -1.90976 0
M  V30 4781 C 468.649 1.73281 -0.894353 0
M  V30 4782 O 467.919 1.9579 0.0656788 0
M  V30 4783 H 466.499 0.247233 -0.704901 0
M  V30 4784 H 469.161 -0.0636639 -1.94796 0
M  V30 4785 H 468.257 1.12083 -2.9128 0
M  V30 4786 N 468.558 1.5553 0.254621 0
M  V30 4787 C 469.505 1.89666 1.31512 0
M  V30 4788 C 470.475 0.750057 1.482 0
M  V30 4789 O 471.66 1.00301 1.62309 0
M  V30 4790 C 468.8 2.19009 2.667 0
M  V30 4791 C 467.913 3.46435 2.58083 0
M  V30 4792 C 467.048 3.65386 3.85573 0
M  V30 4793 C 466.087 4.8644 3.71541 0
M  V30 4794 N 465.224 5.01952 4.90906 0
M  V30 4795 H 470.064 2.80109 1.017 0
M  V30 4796 H 467.601 1.38666 0.490938 0
M  V30 4797 H 469.559 2.34025 3.45381 0
M  V30 4798 H 468.189 1.31779 2.94676 0
M  V30 4799 H 467.241 3.39792 1.71013 0
M  V30 4800 H 468.553 4.35258 2.43622 0
M  V30 4801 H 467.707 3.80319 4.72697 0
M  V30 4802 H 466.446 2.74781 4.02922 0
M  V30 4803 H 465.451 4.71491 2.82801 0
M  V30 4804 H 466.676 5.78497 3.55694 0
M  V30 4805 H 464.622 4.14283 5.08631 0
M  V30 4806 H 464.539 5.84851 4.79046 0
M  V30 4807 H 465.807 5.21289 5.7955 0
M  V30 4808 N 470.036 -0.519951 1.48776 0
M  V30 4809 C 471.264 -1.29971 1.60982 0
M  V30 4810 C 471.679 -1.86803 0.273885 0
M  V30 4811 O 471.036 -1.66904 -0.738193 0
M  V30 4812 C 471.087 -2.44346 2.66415 0
M  V30 4813 O 470.808 -1.89855 3.94825 0
M  V30 4814 C 472.309 -3.36014 2.89153 0
M  V30 4815 H 469.529 -0.394891 0.542496 0
M  V30 4816 H 472.073 -0.626214 1.94676 0
M  V30 4817 H 470.228 -3.07562 2.35552 0
M  V30 4818 H 470.642 -2.64798 4.5275 0
M  V30 4819 H 472.116 -4.12593 3.66703 0
M  V30 4820 H 472.593 -3.91859 1.98351 0
M  V30 4821 H 473.199 -2.78582 3.21359 0
M  V30 4822 N 471.514 -1.37532 -0.769588 0
M  V30 4823 C 472.744 -1.35861 -1.55645 0
M  V30 4824 C 473.152 0.0574398 -1.89113 0
M  V30 4825 O 472.495 1.03021 -1.52093 0
M  V30 4826 C 472.557 -2.13431 -2.89288 0
M  V30 4827 C 472.221 -3.62378 -2.78444 0
M  V30 4828 C 473.218 -4.56215 -2.49326 0
M  V30 4829 C 470.903 -4.05529 -2.96398 0
M  V30 4830 C 472.897 -5.91181 -2.38294 0
M  V30 4831 C 470.584 -5.40579 -2.84987 0
M  V30 4832 C 471.582 -6.33218 -2.55975 0
M  V30 4833 O 471.27 -7.65787 -2.44594 0
M  V30 4834 H 471.002 -0.467001 -0.48876 0
M  V30 4835 H 473.556 -1.81505 -0.961515 0
M  V30 4836 H 471.786 -1.62481 -3.50909 0
M  V30 4837 H 473.475 -2.04368 -3.50697 0
M  V30 4838 H 474.241 -4.24187 -2.35139 0
M  V30 4839 H 470.12 -3.33781 -3.1798 0
M  V30 4840 H 473.664 -6.63457 -2.15571 0
M  V30 4841 H 469.561 -5.72209 -2.98743 0
M  V30 4842 H 470.329 -7.76132 -2.59927 0
M  V30 4843 N 472.992 0.995999 -1.22138 0
M  V30 4844 C 473.924 2.08745 -0.946485 0
M  V30 4845 C 474.937 1.62633 0.0737356 0
M  V30 4846 O 476.126 1.77782 -0.159886 0
M  V30 4847 C 473.226 3.36516 -0.401305 0
M  V30 4848 C 472.399 4.11672 -1.47801 0
M  V30 4849 C 471.458 5.17728 -0.940461 0
M  V30 4850 O 470.484 5.45482 -1.62596 0
M  V30 4851 N 471.686 5.80005 0.239723 0
M  V30 4852 H 474.451 2.32908 -1.88611 0
M  V30 4853 H 472.012 1.16152 -1.12785 0
M  V30 4854 H 474.004 4.04691 -0.0270837 0
M  V30 4855 H 472.574 3.0944 0.443354 0
M  V30 4856 H 471.794 3.38171 -2.02568 0
M  V30 4857 H 473.082 4.58657 -2.20253 0
M  V30 4858 H 472.48 5.5982 0.813518 0
M  V30 4859 H 471.037 6.4943 0.555361 0
M  V30 4860 N 474.47 1.03057 1.19235 0
M  V30 4861 C 475.716 0.729098 1.89241 0
M  V30 4862 C 476.049 -0.740573 1.79525 0
M  V30 4863 O 475.324 -1.53946 1.18874 0
M  V30 4864 C 475.607 1.18304 3.40112 0
M  V30 4865 C 475.46 2.71406 3.5869 0
M  V30 4866 C 476.779 0.765161 4.33397 0
M  V30 4867 H 473.898 0.266338 0.687192 0
M  V30 4868 H 476.54 1.28079 1.40341 0
M  V30 4869 H 474.69 0.713672 3.81889 0
M  V30 4870 H 476.362 3.26303 3.26074 0
M  V30 4871 H 474.605 3.11717 3.01687 0
M  V30 4872 H 475.276 2.98225 4.64506 0
M  V30 4873 H 477.752 1.16889 3.99345 0
M  V30 4874 H 476.628 1.11065 5.37546 0
M  V30 4875 H 476.889 -0.332372 4.40849 0
M  V30 4876 N 475.948 -1.35272 0.808662 0
M  V30 4877 C 476.895 -2.29764 0.218482 0
M  V30 4878 C 477.865 -1.52911 -0.648652 0
M  V30 4879 O 479.05 -1.81341 -0.593297 0
M  V30 4880 C 476.19 -3.39388 -0.625282 0
M  V30 4881 C 475.303 -4.31202 0.262516 0
M  V30 4882 C 474.438 -5.27919 -0.589451 0
M  V30 4883 C 473.477 -6.11371 0.298617 0
M  V30 4884 N 472.614 -7.0022 -0.513443 0
M  V30 4885 H 477.454 -2.79645 1.02968 0
M  V30 4886 H 474.991 -1.37629 0.519303 0
M  V30 4887 H 476.949 -4.01615 -1.12966 0
M  V30 4888 H 475.579 -2.90777 -1.40173 0
M  V30 4889 H 474.631 -3.69962 0.885013 0
M  V30 4890 H 475.943 -4.89748 0.945971 0
M  V30 4891 H 475.097 -5.95529 -1.15888 0
M  V30 4892 H 473.836 -4.69875 -1.30647 0
M  V30 4893 H 472.841 -5.42707 0.880301 0
M  V30 4894 H 474.066 -6.71494 1.01352 0
M  V30 4895 H 472.012 -6.44662 -1.21439 0
M  V30 4896 H 471.929 -7.55917 0.111922 0
M  V30 4897 H 473.197 -7.72175 -1.06608 0
M  V30 4898 N 477.426 -0.562348 -1.47226 0
M  V30 4899 C 478.837 -0.130325 -1.86245 0
M  V30 4900 C 479.188 1.30128 -1.46838 0
M  V30 4901 O 478.313 1.97974 -0.873805 0
M  V30 4902 C 478.908 -0.229738 -3.3802 0
M  V30 4903 C 477.467 0.14728 -3.76112 0
M  V30 4904 C 476.614 -0.574971 -2.71274 0
M  V30 4905 H 479.565 -0.771773 -1.3867 0
M  V30 4906 H 479.586 0.550316 -3.76499 0
M  V30 4907 H 479.098 -1.27178 -3.66671 0
M  V30 4908 H 477.199 1.19023 -3.53078 0
M  V30 4909 H 477.312 -0.214858 -4.78618 0
M  V30 4910 H 475.676 -0.0174756 -2.54694 0
M  V30 4911 H 476.459 -1.61827 -3.02766 0
M  V30 4912 N 478.904 1.54736 -0.299062 0
M  V30 4913 C 480.153 1.99279 0.311549 0
M  V30 4914 C 480.466 1.19107 1.55154 0
M  V30 4915 O 481.672 1.53908 2.23662 0
M  V30 4916 C 480.128 3.54768 0.605632 0
M  V30 4917 C 479.736 4.43746 -0.615914 0
M  V30 4918 C 481.48 4.07841 1.17754 0
M  V30 4919 C 479.387 5.90663 -0.29509 0
M  V30 4920 H 478.317 0.744359 0.120187 0
M  V30 4921 H 480.968 1.78919 -0.407464 0
M  V30 4922 H 479.35 3.71021 1.38419 0
M  V30 4923 H 480.524 4.39267 -1.39218 0
M  V30 4924 H 478.839 4.01434 -1.10633 0
M  V30 4925 H 481.436 5.15174 1.43179 0
M  V30 4926 H 481.779 3.58324 2.11918 0
M  V30 4927 H 482.312 3.95123 0.460739 0
M  V30 4928 H 479.051 6.44325 -1.20524 0
M  V30 4929 H 478.571 5.98155 0.44394 0
M  V30 4930 H 480.25 6.46916 0.104048 0
M  V30 4931 N 480.382 0.0267497 1.57577 0
M  V30 4932 C 481.798 -0.32962 1.56159 0
M  V30 4933 C 481.998 -1.73059 1.03213 0
M  V30 4934 O 481.054 -2.43233 0.677804 0
M  V30 4935 C 482.367 -0.18039 3.00158 0
M  V30 4936 C 483.915 -0.253334 3.11973 0
M  V30 4937 C 484.39 -0.132921 4.57807 0
M  V30 4938 N 485.881 -0.189979 4.6281 0
M  V30 4939 C 486.616 -0.120554 5.73273 0
M  V30 4940 N 486.112 -0.000180315 6.928 0
M  V30 4941 N 487.905 -0.174369 5.61829 0
M  V30 4942 H 480.056 0.942896 1.90324 0
M  V30 4943 H 482.319 0.3639 0.875375 0
M  V30 4944 H 482.025 0.784576 3.42837 0
M  V30 4945 H 481.899 -0.951565 3.65 0
M  V30 4946 H 484.286 -1.20876 2.69208 0
M  V30 4947 H 484.367 0.548177 2.49857 0
M  V30 4948 H 484.011 0.819073 5.01252 0
M  V30 4949 H 483.941 -0.953264 5.179 0
M  V30 4950 H 486.432 -0.283257 3.76837 0
M  V30 4951 H 486.745 0.0461666 7.72786 0
M  V30 4952 H 485.09 0.034569 6.94991 0
M  V30 4953 H 488.281 -0.266794 4.67339 0
M  V30 4954 H 488.454 -0.116802 6.47895 0
M  V30 4955 N 481.861 -1.55662 -0.24637 0
M  V30 4956 C 482.809 -1.91186 -1.3248 0
M  V30 4957 C 483.803 -0.790996 -1.49799 0
M  V30 4958 O 485.009 -0.975617 -1.51267 0
M  V30 4959 H 481.384 -0.607207 -0.443626 0
M  V30 4960 H 483.355 -2.81221 -0.997853 0
M  V30 4961 C 482.104 -2.22349 -2.67313 0
M  V30 4962 H 481.427 -3.08097 -2.54786 0
M  V30 4963 H 482.867 -2.51107 -3.41645 0
M  V30 4964 C 481.326 -1.04001 -3.20446 0
M  V30 4965 O 481.856 -0.28828 -4.00664 0
M  V30 4966 N 480.062 -0.830494 -2.7848 0
M  V30 4967 H 479.609 -1.4435 -2.13356 0
M  V30 4968 H 479.567 -0.0403258 -3.14374 0
M  V30 4969 N 483.339 0.512053 -1.4905 0
M  V30 4970 C 484.269 1.62365 -1.67809 0
M  V30 4971 C 485.25 1.61737 -0.526809 0
M  V30 4972 O 486.435 1.78651 -0.761404 0
M  V30 4973 C 483.565 3.00895 -1.73435 0
M  V30 4974 C 482.519 3.16387 -2.88242 0
M  V30 4975 C 481.845 4.56157 -2.78971 0
M  V30 4976 C 483.145 2.97457 -4.29321 0
M  V30 4977 H 484.839 1.46921 -2.60873 0
M  V30 4978 H 482.385 0.705379 -1.2554 0
M  V30 4979 H 484.338 3.78549 -1.85145 0
M  V30 4980 H 483.062 3.17403 -0.769619 0
M  V30 4981 H 481.721 2.41155 -2.76116 0
M  V30 4982 H 481.369 4.69525 -1.8043 0
M  V30 4983 H 481.069 4.67465 -3.5602 0
M  V30 4984 H 482.593 5.35886 -2.92675 0
M  V30 4985 H 484.007 3.64888 -4.42187 0
M  V30 4986 H 482.404 3.20245 -5.07507 0
M  V30 4987 H 483.474 1.93692 -4.44535 0
M  V30 4988 N 484.817 1.37938 0.762283 0
M  V30 4989 C 485.765 1.34569 1.89721 0
M  V30 4990 C 486.759 0.232929 1.67791 0
M  V30 4991 O 487.965 0.401485 1.75465 0
M  V30 4992 H 484.34 0.419594 0.624055 0
M  V30 4993 H 486.311 2.30357 1.8968 0
M  V30 4994 C 485.06 1.17898 3.27101 0
M  V30 4995 H 484.383 2.02781 3.44558 0
M  V30 4996 H 485.823 1.19593 4.06784 0
M  V30 4997 C 484.282 -0.114728 3.36705 0
M  V30 4998 O 484.812 -1.0949 3.8649 0
M  V30 4999 N 483.018 -0.16863 2.9011 0
M  V30 5000 H 482.565 0.62967 2.49786 0
M  V30 5001 H 482.523 -1.03383 2.96916 0
M  V30 5002 N 486.295 -0.989507 1.22664 0
M  V30 5003 C 487.543 -1.72612 1.05117 0
M  V30 5004 C 487.864 -1.90552 -0.414131 0
M  V30 5005 O 487.134 -1.4676 -1.29762 0
M  V30 5006 H 485.714 -0.639555 0.385977 0
M  V30 5007 H 488.376 -1.19158 1.54232 0
M  V30 5008 H 487.472 -2.71926 1.53175 0
M  V30 5009 N 487.773 -1.03688 -1.18687 0
M  V30 5010 C 488.723 -0.595067 -2.20098 0
M  V30 5011 C 489.707 0.360465 -1.5681 0
M  V30 5012 O 490.899 0.180136 -1.76081 0
M  V30 5013 C 488.028 0.0444495 -3.43271 0
M  V30 5014 C 487.114 -0.934002 -4.13687 0
M  V30 5015 N 487.505 -2.09957 -4.60165 0
M  V30 5016 C 485.803 -0.759177 -4.39491 0
M  V30 5017 C 486.504 -2.71735 -5.1433 0
M  V30 5018 N 485.48 -1.99638 -5.05614 0
M  V30 5019 H 489.282 -1.48336 -2.5372 0
M  V30 5020 H 486.796 -0.904949 -1.3485 0
M  V30 5021 H 488.793 0.37864 -4.15177 0
M  V30 5022 H 487.453 0.928325 -3.11147 0
M  V30 5023 H 488.464 -2.47863 -4.54735 0
M  V30 5024 H 485.141 0.0749292 -4.17433 0
M  V30 5025 H 486.531 -3.70492 -5.60523 0
M  V30 5026 N 489.251 1.34841 -0.815825 0
M  V30 5027 C 490.476 2.03261 -0.41226 0
M  V30 5028 C 490.901 1.61055 0.971751 0
M  V30 5029 O 490.259 0.7917 1.63101 0
M  V30 5030 C 490.307 3.56914 -0.514289 0
M  V30 5031 O 489.411 4.09728 0.468675 0
M  V30 5032 H 488.752 0.641664 -0.170771 0
M  V30 5033 H 491.282 1.72241 -1.10427 0
M  V30 5034 H 491.292 4.06156 -0.387457 0
M  V30 5035 H 489.967 3.86982 -1.52375 0
M  V30 5036 H 488.544 3.71681 0.301316 0
M  V30 5037 N 490.729 0.570148 1.46925 0
M  V30 5038 C 491.978 0.0487352 2.01641 0
M  V30 5039 C 492.291 -1.31433 1.44861 0
M  V30 5040 O 493.497 -1.92638 1.91318 0
M  V30 5041 C 491.953 0.0365817 3.59881 0
M  V30 5042 C 491.561 1.39719 4.25655 0
M  V30 5043 C 493.305 -0.431545 4.22301 0
M  V30 5044 C 491.212 1.34345 5.75939 0
M  V30 5045 H 490.142 0.0144492 0.753862 0
M  V30 5046 H 492.793 0.719928 1.68788 0
M  V30 5047 H 491.175 -0.700522 3.89755 0
M  V30 5048 H 492.349 2.15303 4.07408 0
M  V30 5049 H 490.664 1.80431 3.75278 0
M  V30 5050 H 493.261 -0.490354 5.32447 0
M  V30 5051 H 493.604 -1.44638 3.90366 0
M  V30 5052 H 494.137 0.251102 3.97007 0
M  V30 5053 H 490.876 2.33469 6.12513 0
M  V30 5054 H 490.396 0.629615 5.96486 0
M  V30 5055 H 492.075 1.051 6.38407 0
M  V30 5056 N 492.207 -1.54576 0.307264 0
M  V30 5057 C 493.455 -1.99867 -0.299574 0
M  V30 5058 C 493.776 -1.19714 -1.53927 0
M  V30 5059 O 493.046 -0.29472 -1.9367 0
M  V30 5060 H 491.626 -0.738299 -0.113683 0
M  V30 5061 H 494.288 -1.9032 0.420042 0
M  V30 5062 H 493.384 -3.06901 -0.567283 0
M  V30 5063 N 493.685 -0.035106 -1.57561 0
M  V30 5064 C 494.617 0.973604 -2.07494 0
M  V30 5065 C 495.63 1.28504 -0.999534 0
M  V30 5066 O 496.819 1.24864 -1.27559 0
M  V30 5067 C 493.919 2.29945 -2.48955 0
M  V30 5068 C 493.092 2.1723 -3.79644 0
M  V30 5069 C 492.151 3.328 -4.07592 0
M  V30 5070 O 491.177 3.09418 -4.77754 0
M  V30 5071 N 492.379 4.56779 -3.58236 0
M  V30 5072 H 495.144 0.547525 -2.94656 0
M  V30 5073 H 492.705 0.151515 -1.61189 0
M  V30 5074 H 494.697 3.06097 -2.64739 0
M  V30 5075 H 493.267 2.64173 -1.67126 0
M  V30 5076 H 492.487 1.25768 -3.73599 0
M  V30 5077 H 493.775 2.05945 -4.65257 0
M  V30 5078 H 493.173 4.78668 -3.01485 0
M  V30 5079 H 491.73 5.30079 -3.79288 0
M  V30 5080 N 495.163 1.55791 0.238111 0
M  V30 5081 C 496.393 1.81834 0.980809 0
M  V30 5082 C 496.801 0.609741 1.79106 0
M  V30 5083 O 496.144 -0.431073 1.78571 0
M  V30 5084 C 496.206 3.01363 1.96011 0
M  V30 5085 C 495.87 4.37037 1.33597 0
M  V30 5086 C 496.867 5.14692 0.734063 0
M  V30 5087 C 494.552 4.83743 1.3527 0
M  V30 5088 C 496.546 6.37206 0.157208 0
M  V30 5089 C 494.233 6.06204 0.77199 0
M  V30 5090 C 495.231 6.82775 0.175282 0
M  V30 5091 O 494.919 8.02922 -0.396432 0
M  V30 5092 H 494.651 0.6088 0.293834 0
M  V30 5093 H 497.205 2.03702 0.263552 0
M  V30 5094 H 495.435 2.75273 2.71591 0
M  V30 5095 H 497.124 3.14422 2.56697 0
M  V30 5096 H 497.89 4.79722 0.713582 0
M  V30 5097 H 493.769 4.24129 1.80653 0
M  V30 5098 H 497.313 6.96915 -0.30917 0
M  V30 5099 H 493.21 6.4065 0.789828 0
M  V30 5100 H 493.978 8.17989 -0.289145 0
M  V30 5101 N 496.642 -0.504142 1.49319 0
M  V30 5102 C 498.058 -0.835039 1.36012 0
M  V30 5103 C 498.258 -1.97674 0.390808 0
M  V30 5104 O 497.314 -2.51867 -0.178655 0
M  V30 5105 C 498.627 -1.17821 2.76656 0
M  V30 5106 C 500.175 -1.2866 2.85334 0
M  V30 5107 C 500.65 -1.66307 4.26739 0
M  V30 5108 N 502.141 -1.73362 4.29534 0
M  V30 5109 C 502.876 -2.0393 5.35911 0
M  V30 5110 N 502.372 -2.32744 6.52535 0
M  V30 5111 N 504.165 -2.05155 5.23324 0
M  V30 5112 H 496.316 0.248764 2.10938 0
M  V30 5113 H 498.579 0.0486962 0.946748 0
M  V30 5114 H 498.285 -0.412682 3.4927 0
M  V30 5115 H 498.159 -2.12239 3.11825 0
M  V30 5116 H 500.546 -2.04285 2.1296 0
M  V30 5117 H 500.627 -0.323004 2.53752 0
M  V30 5118 H 500.271 -0.91234 4.99639 0
M  V30 5119 H 500.201 -2.63761 4.55782 0
M  V30 5120 H 502.692 -1.53268 3.45424 0
M  V30 5121 H 503.005 -2.55248 7.2943 0
M  V30 5122 H 501.35 -2.30207 6.55767 0
M  V30 5123 H 504.541 -1.82119 4.3122 0
M  V30 5124 H 504.714 -2.28644 6.06322 0
M  V30 5125 N 498.12 -1.38341 -0.754957 0
M  V30 5126 C 499.369 -1.33791 -1.5094 0
M  V30 5127 C 499.682 0.0699267 -1.95475 0
M  V30 5128 O 500.888 0.237956 -2.70455 0
M  V30 5129 C 499.344 -2.34934 -2.72643 0
M  V30 5130 C 498.952 -3.81332 -2.35138 0
M  V30 5131 C 500.696 -2.39425 -3.50536 0
M  V30 5132 C 498.603 -4.74164 -3.53444 0
M  V30 5133 H 497.533 -0.497314 -0.566741 0
M  V30 5134 H 500.184 -1.63888 -0.825403 0
M  V30 5135 H 498.566 -1.97878 -3.43017 0
M  V30 5136 H 499.74 -4.27319 -1.7244 0
M  V30 5137 H 498.055 -3.79946 -1.70382 0
M  V30 5138 H 500.652 -3.0598 -4.38498 0
M  V30 5139 H 500.995 -1.41278 -3.91594 0
M  V30 5140 H 501.528 -2.75274 -2.87174 0
M  V30 5141 H 498.267 -5.73501 -3.17453 0
M  V30 5142 H 497.787 -4.3287 -4.15191 0
M  V30 5143 H 499.466 -4.92111 -4.20043 0
M  V30 5144 N 499.598 0.982988 -1.23187 0
M  V30 5145 C 500.548 2.05962 -0.977942 0
M  V30 5146 C 501.532 1.60725 0.0751148 0
M  V30 5147 O 502.724 1.76471 -0.136683 0
M  V30 5148 C 499.853 3.38564 -0.568276 0
M  V30 5149 C 498.939 3.90407 -1.6566 0
M  V30 5150 N 499.33 4.15359 -2.88635 0
M  V30 5151 C 497.628 4.18915 -1.53058 0
M  V30 5152 C 498.329 4.57642 -3.5908 0
M  V30 5153 N 497.305 4.6192 -2.86584 0
M  V30 5154 H 501.107 2.23208 -1.91195 0
M  V30 5155 H 498.621 1.16555 -1.13087 0
M  V30 5156 H 500.618 4.15276 -0.36764 0
M  V30 5157 H 499.278 3.22712 0.358713 0
M  V30 5158 H 500.289 4.03258 -3.24966 0
M  V30 5159 H 496.966 4.12081 -0.670506 0
M  V30 5160 H 498.356 4.85488 -4.6449 0
M  V30 5161 N 501.076 1.04316 1.18135 0
M  V30 5162 C 502.039 0.640794 2.2006 0
M  V30 5163 C 503.039 -0.303124 1.57917 0
M  V30 5164 O 504.229 -0.0881855 1.73977 0
M  V30 5165 C 501.361 -0.060148 3.40847 0
M  V30 5166 H 502.554 1.54281 2.57172 0
M  V30 5167 H 500.107 0.836004 1.32063 0
M  V30 5168 H 500.842 -0.975845 3.0927 0
M  V30 5169 H 500.627 0.618319 3.87194 0
M  V30 5170 H 502.117 -0.328082 4.16309 0
M  V30 5171 N 502.554 -1.34406 0.822964 0
M  V30 5172 C 503.802 -1.97892 0.410245 0
M  V30 5173 C 504.123 -1.65567 -1.03017 0
M  V30 5174 O 503.393 -0.94642 -1.71522 0
M  V30 5175 H 501.973 -0.732049 0.148707 0
M  V30 5176 H 504.635 -1.64043 1.05242 0
M  V30 5177 H 503.731 -3.07579 0.529284 0
M  V30 5178 N 504.032 -0.577932 -1.46621 0
M  V30 5179 C 504.979 0.158048 -2.30258 0
M  V30 5180 C 505.949 0.888669 -1.40328 0
M  V30 5181 O 507.134 0.880283 -1.6928 0
M  V30 5182 C 504.274 1.16884 -3.24703 0
M  V30 5183 C 503.387 0.442163 -4.29731 0
M  V30 5184 C 502.522 1.44007 -5.11308 0
M  V30 5185 C 501.561 0.69952 -6.0809 0
M  V30 5186 N 500.698 1.64525 -6.82551 0
M  V30 5187 H 505.538 -0.561242 -2.92667 0
M  V30 5188 H 503.075 -0.288591 -1.44241 0
M  V30 5189 H 505.033 1.7677 -3.779 0
M  V30 5190 H 503.663 1.85591 -2.64113 0
M  V30 5191 H 502.715 -0.271632 -3.79429 0
M  V30 5192 H 504.027 -0.136992 -4.98612 0
M  V30 5193 H 503.181 2.11186 -5.68758 0
M  V30 5194 H 501.92 2.05315 -4.42377 0
M  V30 5195 H 500.925 0.0139217 -5.49798 0
M  V30 5196 H 502.15 0.091894 -6.79038 0
M  V30 5197 H 500.096 2.24653 -6.16334 0
M  V30 5198 H 500.013 1.11878 -7.47676 0
M  V30 5199 H 501.281 2.30754 -7.44562 0
M  V30 5200 N 505.51 1.54411 -0.315457 0
M  V30 5201 C 506.738 2.04833 0.291738 0
M  V30 5202 C 507.153 1.19203 1.46411 0
M  V30 5203 O 506.51 0.220867 1.81159 0
M  V30 5204 C 506.561 3.53969 0.73404 0
M  V30 5205 O 506.282 4.36346 -0.391682 0
M  V30 5206 C 507.783 4.2045 1.40489 0
M  V30 5207 H 505.003 0.668195 0.0612947 0
M  V30 5208 H 507.547 1.99276 -0.45929 0
M  V30 5209 H 505.702 3.5984 1.43506 0
M  V30 5210 H 506.116 5.24481 -0.0447088 0
M  V30 5211 H 507.59 5.26278 1.66539 0
M  V30 5212 H 508.067 3.71067 2.3496 0
M  V30 5213 H 508.673 4.18694 0.746662 0
M  V30 5214 N 506.988 0.0434614 1.5754 0
M  V30 5215 C 508.234 -0.632971 1.92669 0
M  V30 5216 C 508.567 -1.70947 0.921446 0
M  V30 5217 O 507.842 -1.94426 -0.0537202 0
M  V30 5218 C 508.125 -1.23619 3.38216 0
M  V30 5219 C 507.978 -0.168274 4.49485 0
M  V30 5220 C 509.297 -2.15008 3.84005 0
M  V30 5221 H 506.416 -0.228629 0.700641 0
M  V30 5222 H 509.058 0.103651 1.89717 0
M  V30 5223 H 507.208 -1.864 3.40863 0
M  V30 5224 H 508.88 0.463196 4.58969 0
M  V30 5225 H 507.123 0.504581 4.30855 0
M  V30 5226 H 507.794 -0.630218 5.48391 0
M  V30 5227 H 510.27 -1.62198 3.83185 0
M  V30 5228 H 509.146 -2.54161 4.86511 0
M  V30 5229 H 509.407 -3.04707 3.20322 0
M  V30 5230 N 508.466 -1.55915 -0.229846 0
M  V30 5231 C 509.877 -1.68809 -0.797531 0
M  V30 5232 C 510.228 -0.643995 -1.8533 0
M  V30 5233 O 509.353 0.206492 -2.15413 0
M  V30 5234 C 509.948 -3.06043 -1.45338 0
M  V30 5235 C 508.507 -3.20819 -1.96856 0
M  V30 5236 C 507.654 -2.6472 -0.825736 0
M  V30 5237 H 510.605 -1.58699 -0.00533733 0
M  V30 5238 H 510.626 -3.01438 -2.32196 0
M  V30 5239 H 510.138 -3.82012 -0.684743 0
M  V30 5240 H 508.239 -2.49704 -2.76548 0
M  V30 5241 H 508.352 -4.27937 -2.15423 0
M  V30 5242 H 506.716 -2.22985 -1.23084 0
M  V30 5243 H 507.499 -3.43229 -0.0699019 0
M  V30 5244 N 509.944 0.496216 -1.49584 0
M  V30 5245 C 511.193 1.24668 -1.58558 0
M  V30 5246 C 511.506 1.9359 -0.279703 0
M  V30 5247 O 512.712 2.70365 -0.248048 0
M  V30 5248 C 511.168 2.26388 -2.79779 0
M  V30 5249 C 510.776 1.63384 -4.17145 0
M  V30 5250 C 512.52 3.02233 -2.98086 0
M  V30 5251 C 510.427 2.63243 -5.29582 0
M  V30 5252 H 509.357 0.468995 -0.590389 0
M  V30 5253 H 512.008 0.519985 -1.75978 0
M  V30 5254 H 510.39 3.02241 -2.55863 0
M  V30 5255 H 511.564 0.93491 -4.51216 0
M  V30 5256 H 509.879 0.999121 -4.04236 0
M  V30 5257 H 512.476 3.76919 -3.79257 0
M  V30 5258 H 512.819 3.60132 -2.08831 0
M  V30 5259 H 513.352 2.33495 -3.22063 0
M  V30 5260 H 510.091 2.10119 -6.20911 0
M  V30 5261 H 509.611 3.31363 -4.99959 0
M  V30 5262 H 511.29 3.25575 -5.59115 0
M  V30 5263 N 511.423 1.38739 0.74761 0
M  V30 5264 C 512.669 1.35475 1.50912 0
M  V30 5265 C 513.002 -0.0533093 1.94127 0
M  V30 5266 O 512.277 -1.01572 1.65871 0
M  V30 5267 C 512.56 2.31582 2.75757 0
M  V30 5268 C 512.413 3.81274 2.38642 0
M  V30 5269 C 513.732 2.25722 3.77806 0
M  V30 5270 H 510.851 0.493427 0.547447 0
M  V30 5271 H 513.493 1.69634 0.855823 0
M  V30 5272 H 511.643 2.02582 3.31501 0
M  V30 5273 H 513.315 4.20972 1.88626 0
M  V30 5274 H 511.558 3.98664 1.71025 0
M  V30 5275 H 512.229 4.4399 3.27989 0
M  V30 5276 H 514.705 2.51336 3.31616 0
M  V30 5277 H 513.581 2.95069 4.62845 0
M  V30 5278 H 513.842 1.25803 4.23823 0
M  V30 5279 N 512.901 -0.976442 1.23707 0
M  V30 5280 C 513.848 -2.06952 1.02174 0
M  V30 5281 C 514.818 -1.65984 -0.0621034 0
M  V30 5282 O 516.003 -1.90584 0.0907906 0
M  V30 5283 C 513.143 -3.39425 0.62327 0
M  V30 5284 C 512.256 -3.9364 1.77966 0
M  V30 5285 C 511.391 -5.14343 1.3276 0
M  V30 5286 C 510.43 -5.60733 2.45449 0
M  V30 5287 N 509.567 -6.72662 2.01172 0
M  V30 5288 H 514.407 -2.24704 1.95734 0
M  V30 5289 H 511.944 -1.10143 0.975034 0
M  V30 5290 H 513.902 -4.15526 0.37332 0
M  V30 5291 H 512.532 -3.21624 -0.275329 0
M  V30 5292 H 511.584 -3.14258 2.14351 0
M  V30 5293 H 512.896 -4.24035 2.62671 0
M  V30 5294 H 512.05 -5.97789 1.03601 0
M  V30 5295 H 510.789 -4.8561 0.450975 0
M  V30 5296 H 509.794 -4.75865 2.75378 0
M  V30 5297 H 511.019 -5.91483 3.33654 0
M  V30 5298 H 508.965 -6.45681 1.15895 0
M  V30 5299 H 508.882 -7.02462 2.79434 0
M  V30 5300 H 510.15 -7.59572 1.75129 0
M  V30 5301 N 514.379 -1.04941 -1.1758 0
M  V30 5302 C 515.627 -0.756492 -1.87408 0
M  V30 5303 C 515.948 0.718478 -1.81281 0
M  V30 5304 O 515.218 1.519 -1.23706 0
M  V30 5305 H 513.798 -0.276841 -0.693807 0
M  V30 5306 H 516.46 -1.32803 -1.42652 0
M  V30 5307 H 515.556 -1.06918 -2.93215 0
M  V30 5308 N 515.857 1.33968 -0.830081 0
M  V30 5309 C 517.105 1.97672 -0.420734 0
M  V30 5310 C 517.426 1.66111 1.02138 0
M  V30 5311 O 516.696 0.955503 1.71017 0
M  V30 5312 H 515.276 0.73125 -0.152587 0
M  V30 5313 H 517.938 1.63483 -1.0611 0
M  V30 5314 H 517.034 3.07294 -0.545588 0
M  V30 5315 N 517.335 0.585699 1.46312 0
M  V30 5316 C 518.245 -0.148236 2.34131 0
M  V30 5317 C 519.261 -0.882972 1.49932 0
M  V30 5318 O 520.437 -0.845484 1.82794 0
M  V30 5319 C 517.502 -1.14714 3.27172 0
M  V30 5320 C 516.563 -0.416746 4.27272 0
M  V30 5321 C 515.796 -1.36806 5.15868 0
M  V30 5322 O 516.019 -2.60475 5.07454 0
M  V30 5323 O 514.953 -0.877018 5.95476 0
M  V30 5324 H 518.779 0.572882 2.98248 0
M  V30 5325 H 516.364 0.346082 1.45336 0
M  V30 5326 H 518.246 -1.72303 3.84564 0
M  V30 5327 H 516.921 -1.84967 2.65648 0
M  V30 5328 H 515.828 0.201061 3.73559 0
M  V30 5329 H 517.161 0.244872 4.9159 0
M  V30 5330 N 518.813 -1.54241 0.323641 0
M  V30 5331 C 519.776 -2.22997 -0.529602 0
M  V30 5332 C 520.776 -1.22345 -1.04347 0
M  V30 5333 O 521.966 -1.46924 -0.935889 0
M  V30 5334 C 519.098 -2.93409 -1.73562 0
M  V30 5335 H 520.291 -2.99815 0.0714518 0
M  V30 5336 H 517.844 -1.56121 0.0747258 0
M  V30 5337 H 518.579 -2.20729 -2.37591 0
M  V30 5338 H 518.364 -3.67217 -1.37456 0
M  V30 5339 H 519.854 -3.45794 -2.34128 0
M  V30 5340 N 520.291 -0.0518155 -1.57515 0
M  V30 5341 C 521.519 0.631395 -1.9703 0
M  V30 5342 C 521.934 1.64341 -0.92938 0
M  V30 5343 O 521.291 1.82296 0.0863266 0
M  V30 5344 C 521.342 1.31774 -3.36627 0
M  V30 5345 O 521.063 0.346247 -4.3673 0
M  V30 5346 C 522.564 2.09065 -3.90905 0
M  V30 5347 H 519.784 0.172576 -0.648428 0
M  V30 5348 H 522.328 -0.118306 -2.04158 0
M  V30 5349 H 520.483 2.01867 -3.30649 0
M  V30 5350 H 520.897 0.836226 -5.17791 0
M  V30 5351 H 522.371 2.52508 -4.9086 0
M  V30 5352 H 522.848 2.93908 -3.26366 0
M  V30 5353 H 523.454 1.43882 -4.00223 0
M  V30 5354 N 521.769 1.56035 0.221574 0
M  V30 5355 C 523.185 1.49026 0.571271 0
M  V30 5356 C 523.385 0.746912 1.87146 0
M  V30 5357 O 522.441 0.286566 2.50869 0
M  V30 5358 C 523.754 2.93579 0.650522 0
M  V30 5359 C 525.302 3.04099 0.741151 0
M  V30 5360 C 525.777 4.5001 0.851747 0
M  V30 5361 N 527.268 4.54053 0.915968 0
M  V30 5362 C 528.003 5.64232 1.02125 0
M  V30 5363 N 527.499 6.84164 1.09049 0
M  V30 5364 N 529.292 5.52084 1.05639 0
M  V30 5365 H 521.443 2.02791 -0.63162 0
M  V30 5366 H 523.706 0.921736 -0.221602 0
M  V30 5367 H 523.412 3.50912 -0.235253 0
M  V30 5368 H 523.286 3.45476 1.51413 0
M  V30 5369 H 525.673 2.4683 1.61737 0
M  V30 5370 H 525.754 2.55371 -0.148128 0
M  V30 5371 H 525.398 5.07896 -0.0200117 0
M  V30 5372 H 525.328 4.96444 1.75644 0
M  V30 5373 H 527.819 3.67683 0.872782 0
M  V30 5374 H 528.132 7.63883 1.1706 0
M  V30 5375 H 526.477 6.86875 1.05962 0
M  V30 5376 H 529.668 4.57317 0.998953 0
M  V30 5377 H 529.841 6.37983 1.13498 0
M  V30 5378 N 523.247 -0.488276 1.49845 0
M  V30 5379 C 524.18 -1.60651 1.62069 0
M  V30 5380 C 525.158 -1.5568 0.469308 0
M  V30 5381 O 526.342 -1.75553 0.686551 0
M  V30 5382 C 523.469 -2.99197 1.58741 0
M  V30 5383 C 522.515 -3.22385 2.79232 0
M  V30 5384 S 523.348 -3.04133 4.40753 0
M  V30 5385 C 524.504 -4.45052 4.4009 0
M  V30 5386 H 524.737 -1.50039 2.56662 0
M  V30 5387 H 522.27 -0.674371 1.38894 0
M  V30 5388 H 524.228 -3.79081 1.57506 0
M  V30 5389 H 522.889 -3.07213 0.654136 0
M  V30 5390 H 522.082 -4.23557 2.73159 0
M  V30 5391 H 521.684 -2.50245 2.77945 0
M  V30 5392 H 523.976 -5.37375 4.12594 0
M  V30 5393 H 524.919 -4.56172 5.41583 0
M  V30 5394 H 525.327 -4.26327 3.70008 0
M  V30 5395 N 524.725 -1.39134 -0.740242 0
M  V30 5396 C 525.635 -1.39697 -1.88473 0
M  V30 5397 C 526.651 -0.292403 -1.71526 0
M  V30 5398 O 527.827 -0.533021 -1.94219 0
M  V30 5399 C 524.892 -1.23382 -3.24003 0
M  V30 5400 C 523.953 -2.43763 -3.53381 0
M  V30 5401 C 523.186 -2.28216 -4.82445 0
M  V30 5402 O 523.409 -1.28288 -5.55786 0
M  V30 5403 O 522.343 -3.1709 -5.11603 0
M  V30 5404 H 526.169 -2.36159 -1.90952 0
M  V30 5405 H 523.754 -1.20194 -0.887346 0
M  V30 5406 H 525.636 -1.16395 -4.05006 0
M  V30 5407 H 524.311 -0.300121 -3.22306 0
M  V30 5408 H 523.218 -2.56325 -2.72485 0
M  V30 5409 H 524.551 -3.35808 -3.59852 0
M  V30 5410 N 526.204 0.969867 -1.24223 0
M  V30 5411 C 527.114 2.09806 -1.0497 0
M  V30 5412 C 528.13 1.73998 0.00886455 0
M  V30 5413 O 529.306 2.00513 -0.188848 0
M  V30 5414 C 526.371 3.40467 -0.654452 0
M  V30 5415 C 525.432 3.90236 -1.78926 0
M  V30 5416 C 524.665 5.14662 -1.41277 0
M  V30 5417 O 524.888 5.69602 -0.301632 0
M  V30 5418 O 523.822 5.58761 -2.23763 0
M  V30 5419 H 527.648 2.28942 -1.99548 0
M  V30 5420 H 525.233 1.08197 -1.03023 0
M  V30 5421 H 527.115 4.19039 -0.445452 0
M  V30 5422 H 525.79 3.22636 0.262216 0
M  V30 5423 H 524.697 3.12735 -2.05299 0
M  V30 5424 H 526.03 4.1254 -2.68462 0
M  V30 5425 N 527.682 1.05563 1.17022 0
M  V30 5426 C 528.93 0.76642 1.87004 0
M  V30 5427 C 529.251 -0.708854 1.8166 0
M  V30 5428 O 528.521 -1.51242 1.2451 0
M  V30 5429 H 527.101 0.280516 0.692329 0
M  V30 5430 H 529.763 1.33557 1.41945 0
M  V30 5431 H 528.859 1.08472 2.92644 0
M  V30 5432 N 529.16 -1.33526 0.837174 0
M  V30 5433 C 530.07 -2.33023 0.271568 0
M  V30 5434 C 531.086 -1.63272 -0.601514 0
M  V30 5435 O 532.262 -1.94939 -0.506038 0
M  V30 5436 C 529.327 -3.42382 -0.545448 0
M  V30 5437 C 528.388 -4.27857 0.351709 0
M  V30 5438 C 527.621 -5.31994 -0.426409 0
M  V30 5439 O 527.844 -5.45763 -1.65828 0
M  V30 5440 O 526.778 -6.01572 0.1987 0
M  V30 5441 H 530.604 -2.83256 1.09545 0
M  V30 5442 H 528.189 -1.36837 0.599655 0
M  V30 5443 H 530.071 -4.09122 -1.00979 0
M  V30 5444 H 528.746 -2.94369 -1.34641 0
M  V30 5445 H 527.653 -3.6399 0.863853 0
M  V30 5446 H 528.986 -4.79349 1.1174 0
M  V30 5447 N 530.638 -0.59345 -1.46 0
M  V30 5448 C 531.884 -0.0832754 -2.02629 0
M  V30 5449 C 532.217 1.27749 -1.46266 0
M  V30 5450 O 531.492 1.8395 -0.631866 0
M  V30 5451 C 531.775 -0.0290756 -3.60088 0
M  V30 5452 C 531.628 -1.41951 -4.26814 0
M  V30 5453 C 532.947 0.666055 -4.35031 0
M  V30 5454 H 530.066 -0.031736 -0.736316 0
M  V30 5455 H 532.708 -0.762711 -1.74019 0
M  V30 5456 H 530.858 0.549532 -3.84594 0
M  V30 5457 H 532.53 -2.04411 -4.13538 0
M  V30 5458 H 530.773 -1.98422 -3.8576 0
M  V30 5459 H 531.444 -1.33395 -5.3564 0
M  V30 5460 H 533.92 0.174401 -4.15734 0
M  V30 5461 H 532.796 0.673041 -5.44758 0
M  V30 5462 H 533.057 1.72946 -4.06869 0
M  V30 5463 N 532.116 1.54067 -0.331816 0
M  V30 5464 C 533.346 2.04833 0.269605 0
M  V30 5465 C 533.754 1.20714 1.45687 0
M  V30 5466 O 533.097 0.232539 1.82222 0
M  V30 5467 C 533.159 3.51386 0.759499 0
M  V30 5468 C 532.823 4.55971 -0.306557 0
M  V30 5469 C 533.82 5.07126 -1.14538 0
M  V30 5470 C 531.505 5.00216 -0.457116 0
M  V30 5471 C 533.499 6.01096 -2.12042 0
M  V30 5472 C 531.186 5.93999 -1.43556 0
M  V30 5473 C 532.184 6.44326 -2.26568 0
M  V30 5474 O 531.872 7.36267 -3.22749 0
M  V30 5475 H 531.604 0.673509 0.0579763 0
M  V30 5476 H 534.158 1.99748 -0.478521 0
M  V30 5477 H 532.388 3.53896 1.55867 0
M  V30 5478 H 534.077 3.85184 1.28017 0
M  V30 5479 H 534.843 4.73716 -1.04009 0
M  V30 5480 H 530.722 4.60652 0.179142 0
M  V30 5481 H 534.266 6.40302 -2.76873 0
M  V30 5482 H 530.163 6.26825 -1.54146 0
M  V30 5483 H 530.931 7.54165 -3.18083 0
M  V30 5484 N 533.594 0.0601682 1.57485 0
M  V30 5485 C 534.557 -0.896373 2.10945 0
M  V30 5486 C 535.557 -1.23402 1.03095 0
M  V30 5487 O 536.747 -1.16921 1.29132 0
M  V30 5488 C 533.879 -2.20346 2.60116 0
M  V30 5489 H 535.072 -0.432778 2.96761 0
M  V30 5490 H 532.625 -0.188372 1.55161 0
M  V30 5491 H 533.36 -2.71268 1.7772 0
M  V30 5492 H 533.145 -1.9714 3.38937 0
M  V30 5493 H 534.635 -2.88846 3.01592 0
M  V30 5494 N 535.072 -1.5615 -0.213296 0
M  V30 5495 C 536.321 -1.78743 -0.93455 0
M  V30 5496 C 536.634 -0.630199 -1.8517 0
M  V30 5497 O 537.84 -0.739966 -2.61222 0
M  V30 5498 C 536.296 -3.16571 -1.71203 0
M  V30 5499 C 535.904 -4.40043 -0.840617 0
M  V30 5500 C 537.648 -3.48485 -2.42401 0
M  V30 5501 C 535.555 -5.68895 -1.61592 0
M  V30 5502 H 534.485 -0.666426 -0.352692 0
M  V30 5503 H 537.136 -1.82532 -0.188227 0
M  V30 5504 H 535.518 -3.06981 -2.50157 0
M  V30 5505 H 536.692 -4.6071 -0.0910326 0
M  V30 5506 H 535.007 -4.15706 -0.240365 0
M  V30 5507 H 537.604 -4.41983 -3.00924 0
M  V30 5508 H 537.947 -2.71371 -3.15695 0
M  V30 5509 H 538.48 -3.59442 -1.7043 0
M  V30 5510 H 535.219 -6.48925 -0.926106 0
M  V30 5511 H 534.739 -5.52275 -2.33991 0
M  V30 5512 H 536.418 -6.09365 -2.17447 0
M  V30 5513 N 536.55 0.480323 -1.50102 0
M  V30 5514 C 537.46 1.60547 -1.71061 0
M  V30 5515 C 538.476 1.63564 -0.593529 0
M  V30 5516 O 539.652 1.81604 -0.870751 0
M  V30 5517 C 536.717 2.96814 -1.79171 0
M  V30 5518 C 535.778 3.04259 -3.02861 0
M  V30 5519 C 535.011 4.34027 -3.10574 0
M  V30 5520 O 535.234 5.24009 -2.25323 0
M  V30 5521 O 534.168 4.46873 -4.03223 0
M  V30 5522 H 537.994 1.45788 -2.6642 0
M  V30 5523 H 535.579 0.658838 -1.34088 0
M  V30 5524 H 537.461 3.77765 -1.86738 0
M  V30 5525 H 536.136 3.11791 -0.869947 0
M  V30 5526 H 535.043 2.22419 -3.008 0
M  V30 5527 H 536.376 2.94216 -3.94586 0
M  V30 5528 N 538.028 1.39524 0.732853 0
M  V30 5529 C 539.256 1.40143 1.52209 0
M  V30 5530 C 539.671 -0.00348836 1.888 0
M  V30 5531 O 539.028 -0.975357 1.5425 0
M  V30 5532 C 539.079 2.27632 2.8083 0
M  V30 5533 O 538.8 3.62654 2.45792 0
M  V30 5534 C 540.301 2.36658 3.74844 0
M  V30 5535 H 537.521 0.478604 0.470297 0
M  V30 5536 H 540.065 1.83366 0.905388 0
M  V30 5537 H 538.22 1.87818 3.38826 0
M  V30 5538 H 538.634 4.08941 3.28431 0
M  V30 5539 H 540.108 3.02118 4.61984 0
M  V30 5540 H 540.585 1.38638 4.16745 0
M  V30 5541 H 541.191 2.76951 3.22766 0
M  V30 5542 N 539.506 -0.963266 1.24736 0
M  V30 5543 C 540.753 -1.7068 1.0897 0
M  V30 5544 C 541.081 -1.90934 -0.370751 0
M  V30 5545 O 540.336 -1.47155 -1.29011 0
M  V30 5546 C 540.635 -3.09944 1.7796 0
M  V30 5547 C 540.301 -3.09518 3.27887 0
M  V30 5548 C 538.963 -3.09109 3.68789 0
M  V30 5549 C 541.315 -3.03509 4.23712 0
M  V30 5550 C 538.643 -3.00429 5.03944 0
M  V30 5551 C 540.995 -2.96371 5.5888 0
M  V30 5552 C 539.659 -2.94293 5.99123 0
M  V30 5553 H 538.929 -0.624564 0.398749 0
M  V30 5554 H 541.576 -1.12603 1.54896 0
M  V30 5555 H 539.881 -3.71513 1.2444 0
M  V30 5556 H 541.578 -3.66278 1.63222 0
M  V30 5557 H 538.168 -3.10603 2.95337 0
M  V30 5558 H 542.352 -3.0295 3.93109 0
M  V30 5559 H 537.608 -2.97183 5.34314 0
M  V30 5560 H 541.782 -2.90681 6.32833 0
M  V30 5561 H 539.409 -2.87322 7.03811 0
M  V30 5562 N 540.985 -1.06182 -1.16461 0
M  V30 5563 C 542.233 -0.776326 -1.86595 0
M  V30 5564 C 542.554 0.69921 -1.82033 0
M  V30 5565 O 541.824 1.50579 -1.2531 0
M  V30 5566 H 540.404 -0.284184 -0.690832 0
M  V30 5567 H 543.066 -1.34308 -1.41235 0
M  V30 5568 H 542.162 -1.10022 -2.92064 0
M  V30 5569 N 542.463 1.3308 -0.844243 0
M  V30 5570 C 543.688 2.02341 -0.455282 0
M  V30 5571 C 544.113 1.6308 0.93737 0
M  V30 5572 O 543.471 0.826118 1.61385 0
M  V30 5573 C 543.519 3.55743 -0.58988 0
M  V30 5574 O 542.623 4.1063 0.38166 0
M  V30 5575 H 541.964 0.637898 -0.184343 0
M  V30 5576 H 544.494 1.6986 -1.14056 0
M  V30 5577 H 544.504 4.05243 -0.473522 0
M  V30 5578 H 543.179 3.83662 -1.60549 0
M  V30 5579 H 541.756 3.72236 0.22241 0
M  V30 5580 N 543.941 0.601185 1.45683 0
M  V30 5581 C 545.169 0.100054 2.06658 0
M  V30 5582 C 545.584 -1.21285 1.44691 0
M  V30 5583 O 544.941 -1.73735 0.558772 0
M  V30 5584 C 544.992 -0.0528579 3.61461 0
M  V30 5585 O 544.713 1.20809 4.21114 0
M  V30 5586 C 546.214 -0.586193 4.39407 0
M  V30 5587 H 543.434 0.065905 0.667756 0
M  V30 5588 H 545.978 0.827101 1.87028 0
M  V30 5589 H 544.133 -0.730203 3.80456 0
M  V30 5590 H 544.547 1.03368 5.14213 0
M  V30 5591 H 546.021 -0.642297 5.4825 0
M  V30 5592 H 546.498 -1.60713 4.0874 0
M  V30 5593 H 547.104 0.0568935 4.25262 0
M  V30 5594 N 545.419 -1.53889 0.339982 0
M  V30 5595 C 546.667 -2.00458 -0.257112 0
M  V30 5596 C 546.988 -1.22953 -1.51353 0
M  V30 5597 O 546.258 -0.335734 -1.93002 0
M  V30 5598 H 544.838 -0.740544 -0.0979965 0
M  V30 5599 H 547.5 -1.89386 0.460317 0
M  V30 5600 H 546.596 -3.08035 -0.502057 0
M  V30 5601 N 546.897 -0.0685191 -1.57451 0
M  V30 5602 C 547.844 0.899861 -2.12535 0
M  V30 5603 C 548.814 1.29749 -1.03703 0
M  V30 5604 O 549.999 1.38392 -1.31348 0
M  V30 5605 C 547.139 2.16328 -2.6888 0
M  V30 5606 C 546.252 1.81857 -3.91857 0
M  V30 5607 C 545.387 3.02786 -4.36457 0
M  V30 5608 C 544.426 2.64317 -5.5209 0
M  V30 5609 N 543.563 3.77994 -5.91663 0
M  V30 5610 H 548.403 0.423243 -2.94979 0
M  V30 5611 H 545.94 0.197268 -1.45771 0
M  V30 5612 H 547.898 2.90281 -2.99655 0
M  V30 5613 H 546.528 2.61536 -1.89206 0
M  V30 5614 H 545.58 0.979808 -3.67565 0
M  V30 5615 H 546.892 1.49553 -4.75852 0
M  V30 5616 H 546.046 3.85021 -4.68875 0
M  V30 5617 H 544.785 3.38281 -3.51308 0
M  V30 5618 H 543.79 1.80503 -5.19325 0
M  V30 5619 H 545.015 2.29995 -6.38967 0
M  V30 5620 H 542.961 4.13258 -5.09464 0
M  V30 5621 H 542.878 3.49447 -6.7039 0
M  V30 5622 H 544.146 4.60818 -6.28703 0
M  V30 5623 N 548.375 1.56261 0.205012 0
M  V30 5624 C 549.623 1.79684 0.925096 0
M  V30 5625 C 549.944 0.63989 1.84202 0
M  V30 5626 O 549.214 -0.342345 1.92885 0
M  V30 5627 H 547.794 0.662774 0.344587 0
M  V30 5628 H 550.456 1.93734 0.212899 0
M  V30 5629 H 549.552 2.72467 1.52211 0
M  V30 5630 N 549.853 -0.472356 1.50355 0
M  V30 5631 C 551.099 -1.22634 1.6152 0
M  V30 5632 C 551.432 -1.91645 0.313995 0
M  V30 5633 O 550.707 -1.82059 -0.684446 0
M  V30 5634 C 550.99 -2.27099 2.7946 0
M  V30 5635 C 550.843 -1.62402 4.19459 0
M  V30 5636 C 552.162 -3.28421 2.92964 0
M  V30 5637 H 549.281 -0.444494 0.587873 0
M  V30 5638 H 551.923 -0.520321 1.82737 0
M  V30 5639 H 550.073 -2.87314 2.61501 0
M  V30 5640 H 551.745 -1.05793 4.49005 0
M  V30 5641 H 549.988 -0.927184 4.23776 0
M  V30 5642 H 550.659 -2.38309 4.97909 0
M  V30 5643 H 553.135 -2.78227 3.09401 0
M  V30 5644 H 552.011 -3.98845 3.77113 0
M  V30 5645 H 552.272 -3.92467 2.03525 0
M  V30 5646 N 551.331 -1.39911 -0.725443 0
M  V30 5647 C 552.577 -1.37858 -1.48738 0
M  V30 5648 C 552.91 0.0224187 -1.94187 0
M  V30 5649 O 552.185 0.989204 -1.67466 0
M  V30 5650 C 552.468 -2.3594 -2.72038 0
M  V30 5651 C 552.321 -3.85023 -2.32546 0
M  V30 5652 C 553.64 -2.31704 -3.74167 0
M  V30 5653 H 550.759 -0.502074 -0.539528 0
M  V30 5654 H 553.401 -1.70974 -0.828728 0
M  V30 5655 H 551.551 -2.0783 -3.28236 0
M  V30 5656 H 553.223 -4.2392 -1.81905 0
M  V30 5657 H 551.466 -4.01334 -1.64661 0
M  V30 5658 H 552.137 -4.49152 -3.20884 0
M  V30 5659 H 554.613 -2.5658 -3.27576 0
M  V30 5660 H 553.489 -3.02395 -4.58092 0
M  V30 5661 H 553.75 -1.3253 -4.21768 0
M  V30 5662 N 552.809 0.956637 -1.25245 0
M  V30 5663 C 553.759 2.03841 -1.02141 0
M  V30 5664 C 554.743 1.60848 0.0410058 0
M  V30 5665 O 555.935 1.76142 -0.174084 0
M  V30 5666 C 553.064 3.37282 -0.639963 0
M  V30 5667 C 552.15 3.86805 -1.73903 0
M  V30 5668 N 552.541 4.09143 -2.97381 0
M  V30 5669 C 550.839 4.15574 -1.61909 0
M  V30 5670 C 551.54 4.49923 -3.68707 0
M  V30 5671 N 550.516 4.55737 -2.96318 0
M  V30 5672 H 554.318 2.19102 -1.95886 0
M  V30 5673 H 551.832 1.1413 -1.15534 0
M  V30 5674 H 553.829 4.14403 -0.455643 0
M  V30 5675 H 552.489 3.23401 0.29018 0
M  V30 5676 H 553.5 3.96275 -3.33447 0
M  V30 5677 H 550.177 4.10566 -0.757764 0
M  V30 5678 H 551.567 4.75526 -4.74684 0
M  V30 5679 N 554.287 1.06798 1.15896 0
M  V30 5680 C 555.564 0.701057 1.82605 0
M  V30 5681 C 555.944 -0.817066 1.94646 0
M  V30 5682 O 555.292 -1.72933 1.49353 0
M  V30 5683 C 555.502 1.40895 3.19296 0
M  V30 5684 C 556.85 1.55744 3.95005 0
M  V30 5685 O 557.874 1.36927 3.28831 0
M  V30 5686 O 556.733 1.86658 5.13635 0
M  V30 5687 H 553.827 0.248791 0.78869 0
M  V30 5688 H 556.373 1.16857 1.23055 0
M  V30 5689 H 555.145 2.4439 3.05596 0
M  V30 5690 H 554.768 0.931847 3.86526 0
M  V30 5691 N 555.766 -1.3263 0.851289 0
M  V30 5692 C 557.043 -1.91982 0.374448 0
M  V30 5693 C 557.423 -1.77568 -1.14161 0
M  V30 5694 O 556.771 -1.1717 -1.96172 0
M  V30 5695 C 556.981 -3.38862 0.835088 0
M  V30 5696 C 558.329 -4.15999 0.850309 0
M  V30 5697 O 559.353 -3.47566 0.779505 0
M  V30 5698 O 558.212 -5.38189 0.949481 0
M  V30 5699 H 555.306 -0.819846 0.10854 0
M  V30 5700 H 557.852 -1.41422 0.937966 0
M  V30 5701 H 556.624 -3.43281 1.87814 0
M  V30 5702 H 556.247 -3.96821 0.248833 0
M  V30 5703 N 557.244 -0.608902 -1.45362 0
M  V30 5704 C 558.177 0.158059 -2.27652 0
M  V30 5705 C 559.155 0.872397 -1.37215 0
M  V30 5706 O 560.339 0.881002 -1.66645 0
M  V30 5707 C 557.466 1.22896 -3.15617 0
M  V30 5708 C 556.512 0.617607 -4.22005 0
M  V30 5709 S 557.345 -0.575518 -5.32398 0
M  V30 5710 C 558.501 0.495938 -6.23932 0
M  V30 5711 H 558.734 -0.540095 -2.92353 0
M  V30 5712 H 556.267 -0.396456 -1.49223 0
M  V30 5713 H 558.225 1.84195 -3.66855 0
M  V30 5714 H 556.886 1.89919 -2.50179 0
M  V30 5715 H 556.079 1.42341 -4.83482 0
M  V30 5716 H 555.681 0.0797273 -3.73915 0
M  V30 5717 H 557.973 1.37465 -6.63408 0
M  V30 5718 H 558.916 -0.0827108 -7.08052 0
M  V30 5719 H 559.324 0.811856 -5.58631 0
M  V30 5720 N 558.722 1.53707 -0.348139 0
M  V30 5721 C 559.632 2.28881 0.514857 0
M  V30 5722 C 560.648 1.34168 1.10793 0
M  V30 5723 O 561.824 1.6721 1.12262 0
M  V30 5724 C 558.889 3.05042 1.64774 0
M  V30 5725 C 557.95 4.15389 1.08398 0
M  V30 5726 C 557.183 4.87909 2.16287 0
M  V30 5727 O 557.406 4.60137 3.3709 0
M  V30 5728 O 556.34 5.74254 1.80323 0
M  V30 5729 H 560.166 3.03547 -0.0963699 0
M  V30 5730 H 557.751 1.48972 -0.113043 0
M  V30 5731 H 559.633 3.52656 2.30677 0
M  V30 5732 H 558.308 2.33228 2.24469 0
M  V30 5733 H 557.215 3.72068 0.389341 0
M  V30 5734 H 558.548 4.89318 0.531829 0
M  V30 5735 N 560.2 0.0768682 1.57412 0
M  V30 5736 C 561.44 -0.594676 1.95558 0
M  V30 5737 C 561.804 -1.66469 0.956658 0
M  V30 5738 O 563.005 -2.39215 1.22595 0
M  V30 5739 C 561.276 -1.15206 3.38323 0
M  V30 5740 S 562.835 -1.83803 3.9845 0
M  V30 5741 H 559.653 -0.194579 0.683857 0
M  V30 5742 H 562.255 0.151933 1.94909 0
M  V30 5743 H 560.959 -0.36153 4.08805 0
M  V30 5744 H 560.49 -1.93491 3.42527 0
M  V30 5745 H 562.505 -3.12087 3.85767 0
M  V30 5746 N 561.678 -1.56367 -0.196722 0
M  V30 5747 C 562.903 -1.84991 -0.937714 0
M  V30 5748 C 563.328 -0.660244 -1.76132 0
M  V30 5749 O 562.686 0.390967 -1.77034 0
M  V30 5750 C 562.734 -3.11828 -1.81096 0
M  V30 5751 O 561.838 -2.92266 -2.90955 0
M  V30 5752 H 561.179 -0.609193 -0.264159 0
M  V30 5753 H 563.709 -2.03595 -0.202529 0
M  V30 5754 H 563.719 -3.42579 -2.21594 0
M  V30 5755 H 562.394 -3.98037 -1.2058 0
M  V30 5756 H 560.971 -2.72809 -2.54224 0
M  V30 5757 N 563.156 0.464375 -1.50603 0
M  V30 5758 C 564.106 1.55929 -1.66343 0
M  V30 5759 C 565.09 1.52338 -0.517887 0
M  V30 5760 O 566.282 1.59248 -0.772601 0
M  V30 5761 C 563.411 2.94327 -1.7671 0
M  V30 5762 C 562.497 3.02777 -2.96962 0
M  V30 5763 N 562.888 2.81026 -4.20545 0
M  V30 5764 C 561.186 3.33919 -2.95659 0
M  V30 5765 C 561.887 2.94618 -5.01573 0
M  V30 5766 N 560.863 3.25112 -4.35664 0
M  V30 5767 H 564.665 1.37822 -2.59581 0
M  V30 5768 H 562.179 0.671227 -1.47879 0
M  V30 5769 H 564.176 3.73063 -1.86091 0
M  V30 5770 H 562.836 3.13476 -0.846353 0
M  V30 5771 H 563.847 2.56477 -4.49933 0
M  V30 5772 H 560.524 3.59013 -2.13111 0
M  V30 5773 H 561.914 2.81984 -6.09865 0
M  V30 5774 N 564.634 1.40294 0.718013 0
M  V30 5775 C 565.864 1.41544 1.50495 0
M  V30 5776 C 566.272 0.0127877 1.89196 0
M  V30 5777 O 565.615 -0.97305 1.55812 0
M  V30 5778 C 565.677 2.24021 2.81167 0
M  V30 5779 C 565.341 3.72463 2.64803 0
M  V30 5780 C 566.338 4.65154 2.32223 0
M  V30 5781 C 564.023 4.1625 2.81143 0
M  V30 5782 C 566.017 5.99618 2.16189 0
M  V30 5783 C 563.704 5.50784 2.64727 0
M  V30 5784 C 564.702 6.42283 2.32297 0
M  V30 5785 O 564.39 7.74337 2.16004 0
M  V30 5786 H 564.122 0.484819 0.471091 0
M  V30 5787 H 566.676 1.84948 0.893488 0
M  V30 5788 H 564.906 1.75393 3.44636 0
M  V30 5789 H 566.595 2.17243 3.42871 0
M  V30 5790 H 567.361 4.32622 2.19234 0
M  V30 5791 H 563.24 3.45352 3.05373 0
M  V30 5792 H 566.784 6.71 1.90799 0
M  V30 5793 H 562.681 5.82902 2.773 0
M  V30 5794 H 563.449 7.85244 2.30942 0
M  V30 5795 N 566.112 -0.949982 1.2575 0
M  V30 5796 C 567.045 -2.047 1.00862 0
M  V30 5797 C 568.023 -1.62475 -0.0636982 0
M  V30 5798 O 569.207 -1.88343 0.0769153 0
M  V30 5799 C 566.334 -3.34597 0.525613 0
M  V30 5800 C 565.38 -3.95788 1.58916 0
M  V30 5801 S 566.213 -4.31175 3.17567 0
M  V30 5802 C 567.369 -5.64183 2.71013 0
M  V30 5803 H 567.602 -2.25497 1.93749 0
M  V30 5804 H 565.135 -1.09022 1.09332 0
M  V30 5805 H 567.093 -4.09716 0.25359 0
M  V30 5806 H 565.754 -3.11758 -0.382828 0
M  V30 5807 H 564.947 -4.89457 1.20201 0
M  V30 5808 H 564.549 -3.27168 1.81211 0
M  V30 5809 H 566.841 -6.42504 2.14928 0
M  V30 5810 H 567.784 -6.07774 3.6334 0
M  V30 5811 H 568.192 -5.2364 2.1086 0
M  V30 5812 N 567.59 -1.07411 -1.15328 0
M  V30 5813 C 568.537 -0.694995 -2.20087 0
M  V30 5814 C 569.507 0.313904 -1.63107 0
M  V30 5815 O 570.692 0.200216 -1.89747 0
M  V30 5816 C 567.832 -0.0996218 -3.44956 0
M  V30 5817 C 566.945 -1.16007 -4.16133 0
M  V30 5818 C 566.08 -0.529636 -5.28553 0
M  V30 5819 C 565.119 -1.57283 -5.91548 0
M  V30 5820 N 564.256 -0.964932 -6.95438 0
M  V30 5821 H 569.096 -1.5927 -2.51867 0
M  V30 5822 H 566.633 -0.796115 -1.23695 0
M  V30 5823 H 568.591 0.263197 -4.16369 0
M  V30 5824 H 567.221 0.761435 -3.13691 0
M  V30 5825 H 566.273 -1.64045 -3.4321 0
M  V30 5826 H 567.585 -1.95101 -4.59061 0
M  V30 5827 H 566.739 -0.114487 -6.06592 0
M  V30 5828 H 565.478 0.29307 -4.86819 0
M  V30 5829 H 564.483 -1.99775 -5.12221 0
M  V30 5830 H 565.708 -2.39783 -6.35359 0
M  V30 5831 H 563.654 -0.16314 -6.55797 0
M  V30 5832 H 563.571 -1.69311 -7.36797 0
M  V30 5833 H 564.839 -0.575305 -7.77374 0
M  V30 5834 N 569.068 1.32177 -0.85831 0
M  V30 5835 C 570.016 2.30729 -0.294442 0
M  V30 5836 C 571.01 1.59009 0.584165 0
M  V30 5837 O 572.216 1.73713 0.471562 0
M  V30 5838 H 568.591 0.748097 -0.0765171 0
M  V30 5839 H 570.562 2.75774 -1.1398 0
M  V30 5840 C 569.311 3.44098 0.499208 0
M  V30 5841 H 568.634 3.99449 -0.167579 0
M  V30 5842 H 570.074 4.15202 0.859273 0
M  V30 5843 C 568.533 2.91684 1.68588 0
M  V30 5844 O 569.063 2.89481 2.78503 0
M  V30 5845 N 567.269 2.48036 1.51415 0
M  V30 5846 H 566.816 2.50027 0.620006 0
M  V30 5847 H 566.774 2.13322 2.30957 0
M  V30 5848 N 570.547 0.616602 1.45037 0
M  V30 5849 C 571.794 0.115331 2.02171 0
M  V30 5850 C 572.122 -1.25748 1.48383 0
M  V30 5851 O 571.377 -1.84511 0.652229 0
M  V30 5852 C 571.676 0.0356829 3.57382 0
M  V30 5853 C 571.342 1.34535 4.30362 0
M  V30 5854 C 570.004 1.70408 4.50016 0
M  V30 5855 C 572.356 2.21049 4.72003 0
M  V30 5856 C 569.684 2.92529 5.0857 0
M  V30 5857 C 572.036 3.42427 5.31908 0
M  V30 5858 C 570.7 3.78541 5.49784 0
M  V30 5859 H 569.97 0.0422024 0.739797 0
M  V30 5860 H 572.617 0.80002 1.73988 0
M  V30 5861 H 570.922 -0.732314 3.84895 0
M  V30 5862 H 572.619 -0.368463 3.99304 0
M  V30 5863 H 569.209 1.05615 4.15383 0
M  V30 5864 H 573.393 1.94632 4.56544 0
M  V30 5865 H 568.649 3.20605 5.20598 0
M  V30 5866 H 572.823 4.09709 5.63127 0
M  V30 5867 H 570.45 4.73255 5.94923 0
M  V30 5868 N 572.025 -1.5352 0.356285 0
M  V30 5869 C 573.302 -1.93405 -0.292223 0
M  V30 5870 C 573.682 -1.28901 -1.67176 0
M  V30 5871 O 573.03 -0.444632 -2.24132 0
M  V30 5872 C 573.24 -3.47223 -0.35175 0
M  V30 5873 C 574.588 -4.20389 -0.596534 0
M  V30 5874 O 575.612 -3.53554 -0.433344 0
M  V30 5875 O 574.471 -5.3881 -0.913589 0
M  V30 5876 H 571.565 -0.808666 -0.173172 0
M  V30 5877 H 574.111 -1.64713 0.408391 0
M  V30 5878 H 572.883 -3.86423 0.615841 0
M  V30 5879 H 572.506 -3.8212 -1.09864 0
M  V30 5880 N 573.503 -0.0852151 -1.57369 0
M  V30 5881 C 574.749 0.581666 -1.94279 0
M  V30 5882 C 575.082 1.68444 -0.966446 0
M  V30 5883 O 574.357 1.945 0.00215277 0
M  V30 5884 C 574.64 1.14609 -3.41375 0
M  V30 5885 C 574.493 0.0490414 -4.49773 0
M  V30 5886 C 575.812 2.04751 -3.8957 0
M  V30 5887 H 572.931 0.209972 -0.706456 0
M  V30 5888 H 575.573 -0.153915 -1.89376 0
M  V30 5889 H 573.723 1.77297 -3.45685 0
M  V30 5890 H 575.395 -0.584721 -4.57579 0
M  V30 5891 H 573.638 -0.618638 -4.29366 0
M  V30 5892 H 574.309 0.484601 -5.49869 0
M  V30 5893 H 576.785 1.51981 -3.87351 0
M  V30 5894 H 575.661 2.41173 -4.93079 0
M  V30 5895 H 575.922 2.96107 -3.28288 0
M  V30 5896 N 574.981 1.5647 0.188427 0
M  V30 5897 C 576.229 1.80655 0.905986 0
M  V30 5898 C 576.55 0.659391 1.83513 0
M  V30 5899 O 575.82 -0.321868 1.93238 0
M  V30 5900 H 574.4 0.666391 0.337538 0
M  V30 5901 H 577.062 1.93949 0.192339 0
M  V30 5902 H 576.158 2.74066 1.49313 0
M  V30 5903 N 576.459 -0.456382 1.50847 0
M  V30 5904 C 577.409 -1.55045 1.67168 0
M  V30 5905 C 578.393 -1.52061 0.525958 0
M  V30 5906 O 579.585 -1.58836 0.781036 0
M  V30 5907 C 576.714 -2.93386 1.78268 0
M  V30 5908 C 575.8 -3.01198 2.98564 0
M  V30 5909 N 576.191 -2.78792 4.22029 0
M  V30 5910 C 574.489 -3.32346 2.97426 0
M  V30 5911 C 575.19 -2.91953 5.03128 0
M  V30 5912 N 574.166 -3.22797 4.37382 0
M  V30 5913 H 577.968 -1.36444 2.60308 0
M  V30 5914 H 575.482 -0.663375 1.48233 0
M  V30 5915 H 577.479 -3.72071 1.88067 0
M  V30 5916 H 576.139 -3.13022 0.862965 0
M  V30 5917 H 577.15 -2.54087 4.51287 0
M  V30 5918 H 573.827 -3.57877 2.15012 0
M  V30 5919 H 575.217 -2.78745 6.11351 0
M  V30 5920 N 577.937 -1.40673 -0.710563 0
M  V30 5921 C 579.183 -1.39428 -1.47267 0
M  V30 5922 C 579.516 0.00182129 -1.942 0
M  V30 5923 O 578.791 0.971387 -1.68506 0
M  V30 5924 C 579.074 -2.38812 -2.6952 0
M  V30 5925 C 578.927 -3.87467 -2.28449 0
M  V30 5926 C 580.246 -2.3566 -3.71689 0
M  V30 5927 H 577.365 -0.507768 -0.534173 0
M  V30 5928 H 580.007 -1.71843 -0.810547 0
M  V30 5929 H 578.157 -2.113 -3.26013 0
M  V30 5930 H 579.829 -4.25825 -1.77399 0
M  V30 5931 H 578.072 -4.03058 -1.60395 0
M  V30 5932 H 578.743 -4.5253 -3.16103 0
M  V30 5933 H 581.219 -2.6004 -3.24836 0
M  V30 5934 H 580.095 -3.07237 -4.54859 0
M  V30 5935 H 580.356 -1.36996 -4.20339 0
M  V30 5936 N 579.415 0.9433 -1.26252 0
M  V30 5937 C 580.826 1.50404 -1.10614 0
M  V30 5938 C 581.177 1.93666 0.31429 0
M  V30 5939 O 580.302 1.79709 1.20555 0
M  V30 5940 C 580.897 2.73336 -2.00182 0
M  V30 5941 C 579.456 3.25686 -1.88695 0
M  V30 5942 C 578.603 1.98474 -1.93658 0
M  V30 5943 H 581.554 0.759006 -1.39373 0
M  V30 5944 H 581.575 3.47567 -1.54847 0
M  V30 5945 H 581.087 2.41818 -3.03555 0
M  V30 5946 H 579.188 3.61998 -0.882489 0
M  V30 5947 H 579.301 3.92935 -2.74115 0
M  V30 5948 H 577.665 2.14278 -1.37684 0
M  V30 5949 H 578.448 1.6929 -2.98657 0
M  V30 5950 N 580.893 1.08022 1.14757 0
M  V30 5951 C 582.142 0.802468 1.8505 0
M  V30 5952 C 582.455 -0.674061 1.83619 0
M  V30 5953 O 583.661 -1.06683 2.49662 0
M  V30 5954 C 582.117 1.38551 3.32162 0
M  V30 5955 C 581.725 2.89354 3.42021 0
M  V30 5956 C 583.469 1.18608 4.07594 0
M  V30 5957 C 581.376 3.40815 4.83321 0
M  V30 5958 H 580.306 0.296518 0.693248 0
M  V30 5959 H 582.957 1.30114 1.29393 0
M  V30 5960 H 581.339 0.814556 3.87532 0
M  V30 5961 H 582.513 3.52552 2.96722 0
M  V30 5962 H 580.828 3.08165 2.80041 0
M  V30 5963 H 583.425 1.54525 5.11885 0
M  V30 5964 H 583.768 0.125599 4.1611 0
M  V30 5965 H 584.301 1.72375 3.58513 0
M  V30 5966 H 581.04 4.46418 4.79991 0
M  V30 5967 H 580.56 2.82374 5.29174 0
M  V30 5968 H 582.239 3.37171 5.522 0
M  V30 5969 N 582.371 -1.3172 0.865308 0
M  V30 5970 C 583.787 -1.4958 0.556596 0
M  V30 5971 C 583.987 -1.79763 -0.910353 0
M  V30 5972 O 583.043 -1.87351 -1.6928 0
M  V30 5973 C 584.356 -2.63277 1.45279 0
M  V30 5974 C 585.904 -2.77161 1.45433 0
M  V30 5975 C 586.379 -3.93949 2.33598 0
M  V30 5976 N 587.87 -4.01228 2.31453 0
M  V30 5977 C 588.605 -4.90855 2.96393 0
M  V30 5978 N 588.101 -5.85416 3.70486 0
M  V30 5979 N 589.894 -4.84063 2.85726 0
M  V30 5980 H 582.045 -1.10396 1.81456 0
M  V30 5981 H 584.308 -0.54507 0.775631 0
M  V30 5982 H 584.014 -2.47734 2.49641 0
M  V30 5983 H 583.888 -3.59309 1.14792 0
M  V30 5984 H 586.275 -2.9212 0.41831 0
M  V30 5985 H 586.356 -1.8181 1.79941 0
M  V30 5986 H 586 -3.79748 3.37274 0
M  V30 5987 H 585.93 -4.88598 1.96417 0
M  V30 5988 H 588.421 -3.3357 1.77593 0
M  V30 5989 H 588.734 -6.50525 4.17178 0
M  V30 5990 H 587.079 -5.85409 3.74594 0
M  V30 5991 H 590.27 -4.09163 2.27384 0
M  V30 5992 H 590.443 -5.53708 3.36617 0
M  V30 5993 N 583.85 -0.624285 -1.44708 0
M  V30 5994 C 584.779 0.0717025 -2.3339 0
M  V30 5995 C 585.76 0.841814 -1.47809 0
M  V30 5996 O 586.946 0.809056 -1.76544 0
M  V30 5997 C 584.076 1.05852 -3.30776 0
M  V30 5998 C 583.029 0.400503 -4.26122 0
M  V30 5999 C 582.356 1.49674 -5.13324 0
M  V30 6000 C 583.656 -0.688924 -5.17737 0
M  V30 6001 H 585.35 -0.668819 -2.91834 0
M  V30 6002 H 582.896 -0.32308 -1.40329 0
M  V30 6003 H 584.849 1.5541 -3.91696 0
M  V30 6004 H 583.572 1.82984 -2.70526 0
M  V30 6005 H 582.231 -0.0743687 -3.66525 0
M  V30 6006 H 581.88 2.25877 -4.49431 0
M  V30 6007 H 581.58 1.06188 -5.77926 0
M  V30 6008 H 583.104 1.99427 -5.77115 0
M  V30 6009 H 584.518 -0.276724 -5.72632 0
M  V30 6010 H 582.915 -1.04652 -5.90904 0
M  V30 6011 H 583.985 -1.55884 -4.5916 0
M  V30 6012 N 585.328 1.53329 -0.364422 0
M  V30 6013 C 586.739 1.86345 0.115039 0
M  V30 6014 C 587.09 1.28505 1.4826 0
M  V30 6015 O 586.215 0.606639 2.07723 0
M  V30 6016 C 586.81 3.38114 0.215522 0
M  V30 6017 C 585.369 3.70932 0.639237 0
M  V30 6018 C 584.516 2.76471 -0.214261 0
M  V30 6019 H 587.467 1.47593 -0.583258 0
M  V30 6020 H 587.488 3.66031 1.0393 0
M  V30 6021 H 587 3.80182 -0.779948 0
M  V30 6022 H 585.101 3.3442 1.64298 0
M  V30 6023 H 585.214 4.77302 0.41465 0
M  V30 6024 H 583.578 2.52724 0.316678 0
M  V30 6025 H 584.361 3.21373 -1.20725 0
M  V30 6026 N 586.806 0.0935595 1.57322 0
M  V30 6027 C 588.222 -0.263091 1.57417 0
M  V30 6028 C 588.422 -1.68526 1.1046 0
M  V30 6029 O 587.478 -2.40139 0.780357 0
M  V30 6030 C 588.791 -0.0529201 3.00653 0
M  V30 6031 C 590.339 -0.120788 3.12767 0
M  V30 6032 C 590.814 0.0613707 4.57959 0
M  V30 6033 N 592.305 0.00648534 4.632 0
M  V30 6034 C 593.04 0.122699 5.73269 0
M  V30 6035 N 592.536 0.29366 6.92177 0
M  V30 6036 N 594.329 0.0640787 5.62063 0
M  V30 6037 H 586.48 1.02277 1.86154 0
M  V30 6038 H 588.743 0.4007 0.859153 0
M  V30 6039 H 588.449 0.929279 3.39201 0
M  V30 6040 H 588.323 -0.795899 3.68708 0
M  V30 6041 H 590.71 -1.09349 2.74093 0
M  V30 6042 H 590.791 0.653656 2.47307 0
M  V30 6043 H 590.435 1.03093 4.97327 0
M  V30 6044 H 590.365 -0.732748 5.21477 0
M  V30 6045 H 592.856 -0.123173 3.77699 0
M  V30 6046 H 593.169 0.37389 7.71895 0
M  V30 6047 H 591.514 0.329307 6.94219 0
M  V30 6048 H 594.705 -0.0683396 4.6805 0
M  V30 6049 H 594.878 0.158097 6.47807 0
M  V30 6050 N 588.284 -1.56567 -0.180126 0
M  V30 6051 C 589.512 -1.85618 -0.913972 0
M  V30 6052 C 589.927 -0.677892 -1.7621 0
M  V30 6053 O 589.284 0.353171 -1.7905 0
M  V30 6054 C 589.335 -3.13619 -1.79793 0
M  V30 6055 O 589.056 -4.26906 -0.98402 0
M  V30 6056 C 590.557 -3.55954 -2.64219 0
M  V30 6057 H 587.777 -0.616043 -0.265954 0
M  V30 6058 H 590.321 -2.03681 -0.182872 0
M  V30 6059 H 588.476 -2.97409 -2.48247 0
M  V30 6060 H 588.89 -4.9989 -1.58776 0
M  V30 6061 H 590.364 -4.48444 -3.21873 0
M  V30 6062 H 590.841 -2.79653 -3.38661 0
M  V30 6063 H 591.447 -3.74746 -2.01111 0
M  V30 6064 N 589.762 0.448376 -1.51087 0
M  V30 6065 C 590.709 1.54341 -1.71603 0
M  V30 6066 C 591.679 1.56463 -0.557536 0
M  V30 6067 O 592.864 1.73644 -0.79072 0
M  V30 6068 C 590.004 2.92148 -1.83695 0
M  V30 6069 C 589.117 2.99639 -3.11192 0
M  V30 6070 C 588.252 4.285 -3.13944 0
M  V30 6071 C 587.291 4.29819 -4.35801 0
M  V30 6072 N 586.428 5.50186 -4.36164 0
M  V30 6073 H 591.268 1.36151 -2.65079 0
M  V30 6074 H 588.805 0.661585 -1.31383 0
M  V30 6075 H 590.763 3.72093 -1.88687 0
M  V30 6076 H 589.393 3.0892 -0.936374 0
M  V30 6077 H 588.445 2.12425 -3.15562 0
M  V30 6078 H 589.757 2.96474 -4.01129 0
M  V30 6079 H 588.911 5.16811 -3.17791 0
M  V30 6080 H 587.65 4.34307 -2.21876 0
M  V30 6081 H 586.655 3.39902 -4.32142 0
M  V30 6082 H 587.88 4.25685 -5.29121 0
M  V30 6083 H 585.826 5.56735 -3.46961 0
M  V30 6084 H 585.743 5.48856 -5.19897 0
M  V30 6085 H 587.011 6.40559 -4.44189 0
M  V30 6086 N 591.24 1.41047 0.703093 0
M  V30 6087 C 592.19 1.38774 1.80903 0
M  V30 6088 C 593.174 0.263275 1.58731 0
M  V30 6089 O 594.366 0.503362 1.69692 0
M  V30 6090 C 591.495 1.26497 3.19145 0
M  V30 6091 C 590.581 2.43775 3.47037 0
M  V30 6092 N 590.972 3.69249 3.45672 0
M  V30 6093 C 589.27 2.37425 3.77552 0
M  V30 6094 C 589.971 4.46989 3.72258 0
M  V30 6095 N 588.947 3.76998 3.91629 0
M  V30 6096 H 592.749 2.33714 1.78199 0
M  V30 6097 H 590.263 1.34996 0.902762 0
M  V30 6098 H 592.26 1.2295 3.98358 0
M  V30 6099 H 590.92 0.32534 3.23066 0
M  V30 6100 H 591.931 4.02239 3.26228 0
M  V30 6101 H 588.608 1.51895 3.88888 0
M  V30 6102 H 589.998 5.55894 3.77402 0
M  V30 6103 N 592.718 -0.936591 1.26751 0
M  V30 6104 C 593.648 -2.05315 1.11212 0
M  V30 6105 C 594.629 -1.70092 0.0160262 0
M  V30 6106 O 595.814 -1.93279 0.188894 0
M  V30 6107 C 592.944 -3.39123 0.749171 0
M  V30 6108 C 591.898 -3.88425 1.79751 0
M  V30 6109 C 591.224 -5.18936 1.28876 0
M  V30 6110 C 592.524 -4.12798 3.19992 0
M  V30 6111 H 594.218 -2.18573 2.04613 0
M  V30 6112 H 591.764 -1.05027 0.985159 0
M  V30 6113 H 593.717 -4.16704 0.627323 0
M  V30 6114 H 592.441 -3.25855 -0.220543 0
M  V30 6115 H 591.1 -3.13028 1.90811 0
M  V30 6116 H 590.748 -5.02051 0.308757 0
M  V30 6117 H 590.448 -5.52892 1.98958 0
M  V30 6118 H 591.972 -5.99096 1.17967 0
M  V30 6119 H 593.386 -4.80977 3.11983 0
M  V30 6120 H 591.783 -4.58044 3.87705 0
M  V30 6121 H 592.853 -3.18412 3.65707 0
M  V30 6122 N 594.196 -1.08629 -1.14182 0
M  V30 6123 C 595.126 -0.740003 -2.21464 0
M  V30 6124 C 596.107 0.278591 -1.67803 0
M  V30 6125 O 597.292 0.148461 -1.93632 0
M  V30 6126 C 594.422 -0.150952 -3.46972 0
M  V30 6127 C 593.376 -1.09815 -4.13672 0
M  V30 6128 C 592.702 -0.3712 -5.3341 0
M  V30 6129 C 594.002 -2.43722 -4.61949 0
M  V30 6130 H 595.696 -1.63697 -2.50686 0
M  V30 6131 H 593.242 -0.788526 -1.20492 0
M  V30 6132 H 595.195 0.103325 -4.21273 0
M  V30 6133 H 593.919 0.781164 -3.1712 0
M  V30 6134 H 592.578 -1.33756 -3.41328 0
M  V30 6135 H 592.226 0.564792 -4.99819 0
M  V30 6136 H 591.926 -1.00267 -5.78982 0
M  V30 6137 H 593.45 -0.12503 -6.10472 0
M  V30 6138 H 594.864 -2.24034 -5.27714 0
M  V30 6139 H 593.261 -3.02582 -5.18232 0
M  V30 6140 H 594.331 -3.05082 -3.76899 0
M  V30 6141 N 595.674 1.31259 -0.872281 0
M  V30 6142 C 596.622 2.30404 -0.318897 0
M  V30 6143 C 597.616 1.5962 0.567267 0
M  V30 6144 O 598.822 1.74204 0.453111 0
M  V30 6145 H 595.197 0.747243 -0.0844474 0
M  V30 6146 H 597.168 2.74549 -1.16899 0
M  V30 6147 C 595.917 3.44608 0.462683 0
M  V30 6148 H 595.24 3.99248 -0.209936 0
M  V30 6149 H 596.68 4.1609 0.815187 0
M  V30 6150 C 595.139 2.93456 1.65485 0
M  V30 6151 O 595.669 2.92418 2.75417 0
M  V30 6152 N 593.875 2.49628 1.48776 0
M  V30 6153 H 593.422 2.50671 0.593452 0
M  V30 6154 H 593.38 2.15759 2.28682 0
M  V30 6155 N 597.152 0.631951 1.44375 0
M  V30 6156 C 598.398 0.13697 2.02337 0
M  V30 6157 C 598.731 -1.23826 1.49602 0
M  V30 6158 O 598.006 -1.8221 0.680415 0
M  V30 6159 C 598.289 0.124536 3.59885 0
M  V30 6160 C 598.142 1.53217 4.229 0
M  V30 6161 C 599.461 -0.550481 4.36644 0
M  V30 6162 H 596.58 0.051247 0.735216 0
M  V30 6163 H 599.222 0.808581 1.71936 0
M  V30 6164 H 597.372 -0.44737 3.85916 0
M  V30 6165 H 599.044 2.15303 4.07973 0
M  V30 6166 H 597.287 2.0858 3.80364 0
M  V30 6167 H 597.958 1.4755 5.31914 0
M  V30 6168 H 600.434 -0.0641154 4.16051 0
M  V30 6169 H 599.31 -0.528371 5.46351 0
M  V30 6170 H 599.571 -1.62097 4.11311 0
M  V30 6171 N 598.631 -1.53133 0.372548 0
M  V30 6172 C 599.88 -2.00539 -0.216115 0
M  V30 6173 C 600.193 -1.26374 -1.49295 0
M  V30 6174 O 601.399 -1.64404 -2.16064 0
M  V30 6175 C 599.855 -3.57253 -0.435678 0
M  V30 6176 C 599.463 -4.40302 0.82693 0
M  V30 6177 C 601.207 -4.12995 -0.981618 0
M  V30 6178 C 599.114 -5.88583 0.576567 0
M  V30 6179 H 598.044 -0.749246 -0.084536 0
M  V30 6180 H 600.695 -1.76771 0.492364 0
M  V30 6181 H 599.077 -3.77202 -1.20559 0
M  V30 6182 H 600.251 -4.32124 1.60017 0
M  V30 6183 H 598.566 -3.95699 1.29659 0
M  V30 6184 H 601.163 -5.21418 -1.18436 0
M  V30 6185 H 601.506 -3.68027 -1.94581 0
M  V30 6186 H 602.039 -3.96871 -0.271696 0
M  V30 6187 H 598.778 -6.37841 1.51128 0
M  V30 6188 H 598.298 -5.99592 -0.158047 0
M  V30 6189 H 599.977 -6.46676 0.204722 0
M  V30 6190 N 600.109 -0.101901 -1.5727 0
M  V30 6191 C 601.057 0.872034 -2.15635 0
M  V30 6192 C 602.051 1.28742 -1.10099 0
M  V30 6193 O 603.257 1.26116 -1.28432 0
M  V30 6194 H 599.632 0.299269 -0.689886 0
M  V30 6195 H 601.603 0.355137 -2.96279 0
M  V30 6196 C 600.352 2.11886 -2.7568 0
M  V30 6197 H 599.675 1.80813 -3.56576 0
M  V30 6198 H 601.115 2.78077 -3.20077 0
M  V30 6199 C 599.574 2.89739 -1.7191 0
M  V30 6200 O 600.104 3.84522 -1.16213 0
M  V30 6201 N 598.31 2.53407 -1.42245 0
M  V30 6202 H 597.857 1.76398 -1.87727 0
M  V30 6203 H 597.815 3.05795 -0.730529 0
M  V30 6204 N 601.587 1.56661 0.17182 0
M  V30 6205 C 602.497 1.99604 1.2327 0
M  V30 6206 C 603.513 0.907333 1.4847 0
M  V30 6207 O 604.689 1.21492 1.60629 0
M  V30 6208 C 601.754 2.34685 2.55194 0
M  V30 6209 C 600.815 3.57381 2.3786 0
M  V30 6210 C 600.048 3.90779 3.63494 0
M  V30 6211 O 600.271 3.25152 4.6865 0
M  V30 6212 O 599.205 4.84129 3.57634 0
M  V30 6213 H 603.031 2.90114 0.898192 0
M  V30 6214 H 600.616 1.44522 0.378647 0
M  V30 6215 H 602.498 2.5822 3.33017 0
M  V30 6216 H 601.173 1.47336 2.88225 0
M  V30 6217 H 600.08 3.39064 1.5807 0
M  V30 6218 H 601.413 4.45268 2.09754 0
M  V30 6219 N 603.065 -0.440357 1.51323 0
M  V30 6220 C 604.013 -1.55492 1.72988 0
M  V30 6221 C 605.007 -1.58564 0.596138 0
M  V30 6222 O 606.213 -1.62345 0.777443 0
M  V30 6223 H 602.588 -0.516532 0.546533 0
M  V30 6224 H 604.559 -1.34392 2.66423 0
M  V30 6225 C 603.308 -2.93176 1.86931 0
M  V30 6226 H 602.631 -2.91543 2.73574 0
M  V30 6227 H 604.071 -3.70537 2.06103 0
M  V30 6228 C 602.53 -3.30988 0.628365 0
M  V30 6229 O 603.06 -4.01106 -0.218367 0
M  V30 6230 N 601.266 -2.86719 0.473339 0
M  V30 6231 H 600.813 -2.2983 1.16345 0
M  V30 6232 H 600.771 -3.12381 -0.355727 0
M  V30 6233 N 604.543 -1.41418 -0.695603 0
M  V30 6234 C 605.79 -1.40774 -1.45564 0
M  V30 6235 C 606.118 -0.0168604 -1.94493 0
M  V30 6236 O 605.373 0.971259 -1.69897 0
M  V30 6237 C 605.672 -2.36112 -2.68302 0
M  V30 6238 C 605.338 -3.82952 -2.38031 0
M  V30 6239 C 604 -4.22954 -2.29486 0
M  V30 6240 C 606.352 -4.75662 -2.13061 0
M  V30 6241 C 603.68 -5.53674 -1.94067 0
M  V30 6242 C 606.032 -6.06702 -1.79151 0
M  V30 6243 C 604.696 -6.45725 -1.69102 0
M  V30 6244 H 603.966 -0.515128 -0.532658 0
M  V30 6245 H 606.613 -1.74216 -0.795047 0
M  V30 6246 H 604.918 -1.95924 -3.39295 0
M  V30 6247 H 606.615 -2.32887 -3.26442 0
M  V30 6248 H 603.205 -3.5127 -2.45576 0
M  V30 6249 H 607.389 -4.45561 -2.18608 0
M  V30 6250 H 602.645 -5.8279 -1.8484 0
M  V30 6251 H 606.819 -6.78041 -1.5885 0
M  V30 6252 H 604.446 -7.46929 -1.41426 0
M  V30 6253 N 606.021 0.929856 -1.27246 0
M  V30 6254 C 607.269 1.674 -1.13233 0
M  V30 6255 C 607.59 1.92311 0.322744 0
M  V30 6256 O 606.86 1.52784 1.22612 0
M  V30 6257 H 605.44 0.620411 -0.416052 0
M  V30 6258 H 608.102 1.11663 -1.59741 0
M  V30 6259 H 607.198 2.64308 -1.65975 0
M  V30 6260 N 607.499 1.09233 1.13605 0
M  V30 6261 C 608.727 0.848908 1.88683 0
M  V30 6262 C 609.142 -0.599667 1.79024 0
M  V30 6263 O 608.499 -1.41265 1.15544 0
M  V30 6264 C 608.55 1.27273 3.38355 0
M  V30 6265 O 608.271 2.66449 3.47759 0
M  V30 6266 C 609.772 1.0614 4.30406 0
M  V30 6267 H 606.992 0.305549 0.597395 0
M  V30 6268 H 609.536 1.4538 1.43823 0
M  V30 6269 H 607.691 0.711776 3.80805 0
M  V30 6270 H 608.105 2.84264 4.40788 0
M  V30 6271 H 609.579 1.40725 5.33761 0
M  V30 6272 H 610.056 -0.000960332 4.392 0
M  V30 6273 H 610.662 1.60821 3.93722 0
M  V30 6274 N 608.977 -1.30795 0.87923 0
M  V30 6275 C 609.907 -2.30742 0.357796 0
M  V30 6276 C 610.888 -1.60747 -0.556283 0
M  V30 6277 O 612.073 -1.88393 -0.47135 0
M  V30 6278 C 609.203 -3.44583 -0.433555 0
M  V30 6279 C 608.157 -4.26235 0.388251 0
M  V30 6280 C 607.483 -5.32073 -0.529352 0
M  V30 6281 C 608.783 -4.96303 1.62729 0
M  V30 6282 H 610.477 -2.74605 1.19299 0
M  V30 6283 H 608.023 -1.32017 0.575104 0
M  V30 6284 H 609.976 -4.13563 -0.808934 0
M  V30 6285 H 608.7 -2.99511 -1.30234 0
M  V30 6286 H 607.359 -3.58936 0.745695 0
M  V30 6287 H 607.007 -4.83249 -1.39569 0
M  V30 6288 H 606.707 -5.87598 0.0166741 0
M  V30 6289 H 608.231 -6.0391 -0.901373 0
M  V30 6290 H 609.645 -5.5783 1.32283 0
M  V30 6291 H 608.042 -5.61666 2.11309 0
M  V30 6292 H 609.112 -4.22758 2.37494 0
M  V30 6293 N 610.455 -0.639598 -1.44038 0
M  V30 6294 C 611.418 0.0506628 -2.29144 0
M  V30 6295 C 612.418 0.764001 -1.41491 0
M  V30 6296 O 613.608 0.607309 -1.63271 0
M  V30 6297 C 610.74 1.0824 -3.2326 0
M  V30 6298 H 611.933 -0.697987 -2.91664 0
M  V30 6299 H 609.486 -0.400146 -1.51091 0
M  V30 6300 H 610.221 1.86075 -2.65606 0
M  V30 6301 H 610.006 0.574725 -3.87865 0
M  V30 6302 H 611.496 1.56487 -3.87171 0
M  V30 6303 N 611.933 1.52934 -0.380664 0
M  V30 6304 C 613.18 2.01467 0.204278 0
M  V30 6305 C 613.508 1.26744 1.47533 0
M  V30 6306 O 612.763 0.353723 1.92477 0
M  V30 6307 C 613.062 3.5349 0.527199 0
M  V30 6308 C 612.728 4.46171 -0.651295 0
M  V30 6309 C 611.39 4.71227 -0.974619 0
M  V30 6310 C 613.742 5.00909 -1.44012 0
M  V30 6311 C 611.07 5.4827 -2.08847 0
M  V30 6312 C 613.422 5.7917 -2.5445 0
M  V30 6313 C 612.086 6.02507 -2.87301 0
M  V30 6314 H 611.356 0.73722 0.0747504 0
M  V30 6315 H 614.003 1.84411 -0.516234 0
M  V30 6316 H 612.308 3.68574 1.32892 0
M  V30 6317 H 614.005 3.88529 0.992283 0
M  V30 6318 H 610.595 4.26829 -0.389276 0
M  V30 6319 H 614.779 4.81485 -1.20357 0
M  V30 6320 H 610.035 5.64567 -2.34679 0
M  V30 6321 H 614.209 6.20588 -3.1598 0
M  V30 6322 H 611.836 6.61989 -3.7373 0
M  V30 6323 N 613.412 0.11024 1.57214 0
M  V30 6324 C 614.652 -0.553061 1.96775 0
M  V30 6325 C 615.016 -1.64403 0.991753 0
M  V30 6326 O 616.217 -2.36561 1.27642 0
M  V30 6327 C 614.488 -1.08004 3.4069 0
M  V30 6328 S 616.047 -1.75309 4.02259 0
M  V30 6329 H 612.865 -0.18003 0.68783 0
M  V30 6330 H 615.467 0.193242 1.94543 0
M  V30 6331 H 614.171 -0.274735 4.09479 0
M  V30 6332 H 613.702 -1.86182 3.46554 0
M  V30 6333 H 615.717 -3.03834 3.923 0
M  V30 6334 N 614.89 -1.56749 -0.16351 0
M  V30 6335 C 616.306 -1.51043 -0.515567 0
M  V30 6336 C 616.506 -0.815855 -1.84245 0
M  V30 6337 O 615.562 -0.379477 -2.49632 0
M  V30 6338 C 616.875 -2.95791 -0.541114 0
M  V30 6339 C 618.423 -3.0664 -0.627776 0
M  V30 6340 C 618.898 -4.52861 -0.684141 0
M  V30 6341 N 620.389 -4.5714 -0.746818 0
M  V30 6342 C 621.124 -5.67634 -0.811137 0
M  V30 6343 N 620.62 -6.8774 -0.835811 0
M  V30 6344 N 622.413 -5.55624 -0.850756 0
M  V30 6345 H 614.564 -2.00307 0.70645 0
M  V30 6346 H 616.827 -0.912876 0.255659 0
M  V30 6347 H 616.533 -3.49797 0.365329 0
M  V30 6348 H 616.407 -3.50858 -1.38487 0
M  V30 6349 H 618.794 -2.52663 -1.52464 0
M  V30 6350 H 618.875 -2.54645 0.242805 0
M  V30 6351 H 618.519 -5.07472 0.2085 0
M  V30 6352 H 618.449 -5.02621 -1.57098 0
M  V30 6353 H 620.94 -3.70669 -0.735717 0
M  V30 6354 H 621.253 -7.67701 -0.886279 0
M  V30 6355 H 619.598 -6.90334 -0.803958 0
M  V30 6356 H 622.789 -4.60709 -0.828535 0
M  V30 6357 H 622.962 -6.41756 -0.897418 0
M  V30 6358 N 616.368 0.432326 -1.51554 0
M  V30 6359 C 617.784 0.769195 -1.39841 0
M  V30 6360 C 617.984 1.95584 -0.484675 0
M  V30 6361 O 617.04 2.52433 0.0582829 0
M  V30 6362 C 618.353 1.04487 -2.81963 0
M  V30 6363 C 619.901 1.149 -2.91148 0
M  V30 6364 C 620.376 1.45758 -4.34187 0
M  V30 6365 N 621.867 1.52671 -4.37317 0
M  V30 6366 C 622.602 1.78129 -5.4503 0
M  V30 6367 N 622.098 2.01345 -6.62897 0
M  V30 6368 N 623.891 1.79953 -5.32516 0
M  V30 6369 H 616.042 -0.349122 -2.09511 0
M  V30 6370 H 618.305 -0.0938113 -0.943347 0
M  V30 6371 H 618.011 0.24557 -3.50842 0
M  V30 6372 H 617.885 1.97119 -3.21596 0
M  V30 6373 H 620.272 1.93891 -2.22464 0
M  V30 6374 H 620.353 0.201568 -2.55005 0
M  V30 6375 H 619.997 0.672917 -5.03423 0
M  V30 6376 H 619.927 2.41715 -4.67848 0
M  V30 6377 H 622.418 1.36612 -3.52343 0
M  V30 6378 H 622.731 2.20155 -7.40778 0
M  V30 6379 H 621.076 1.98657 -6.66003 0
M  V30 6380 H 624.267 1.61337 -4.39418 0
M  V30 6381 H 624.44 1.99455 -6.1654 0
M  V30 6382 N 617.846 1.41785 0.688094 0
M  V30 6383 C 619.092 1.42753 1.4489 0
M  V30 6384 C 619.447 0.0384235 1.92362 0
M  V30 6385 O 618.74 -0.937066 1.67122 0
M  V30 6386 C 618.934 2.37532 2.67046 0
M  V30 6387 C 618.763 3.85521 2.31525 0
M  V30 6388 C 617.533 4.54152 2.21527 0
M  V30 6389 C 619.731 4.76299 1.94019 0
M  V30 6390 N 617.713 5.87233 1.78969 0
M  V30 6391 C 619.084 5.98386 1.62279 0
M  V30 6392 C 621.139 4.63877 1.80895 0
M  V30 6393 C 619.842 7.09433 1.18732 0
M  V30 6394 C 621.868 5.74893 1.38752 0
M  V30 6395 C 621.23 6.96083 1.07927 0
M  V30 6396 H 617.329 0.577575 0.527192 0
M  V30 6397 H 619.913 1.77713 0.795375 0
M  V30 6398 H 618.084 2.04656 3.30107 0
M  V30 6399 H 619.816 2.29169 3.33562 0
M  V30 6400 H 616.571 4.08188 2.40166 0
M  V30 6401 H 616.995 6.57785 1.60151 0
M  V30 6402 H 621.637 3.70671 2.03378 0
M  V30 6403 H 619.355 8.02497 0.949937 0
M  V30 6404 H 622.941 5.67287 1.29136 0
M  V30 6405 H 621.821 7.80527 0.758111 0
M  V30 6406 N 619.324 -0.923095 1.27737 0
M  V30 6407 C 620.254 -2.04124 1.13383 0
M  V30 6408 C 621.235 -1.70066 0.0340658 0
M  V30 6409 O 622.42 -1.93068 0.209383 0
M  V30 6410 C 619.55 -3.3831 0.785097 0
M  V30 6411 C 618.504 -3.86496 1.8386 0
M  V30 6412 C 617.83 -5.1754 1.34373 0
M  V30 6413 C 619.13 -4.09381 3.24353 0
M  V30 6414 H 620.824 -2.1639 2.06919 0
M  V30 6415 H 618.37 -1.03976 0.996243 0
M  V30 6416 H 620.323 -4.16016 0.671485 0
M  V30 6417 H 619.047 -3.2607 -0.185969 0
M  V30 6418 H 617.706 -3.10987 1.9412 0
M  V30 6419 H 617.354 -5.01696 0.361989 0
M  V30 6420 H 617.054 -5.50751 2.04811 0
M  V30 6421 H 618.578 -5.97811 1.24315 0
M  V30 6422 H 619.992 -4.77641 3.17067 0
M  V30 6423 H 618.389 -4.53906 3.92542 0
M  V30 6424 H 619.459 -3.14515 3.69064 0
M  V30 6425 N 620.802 -1.09834 -1.13024 0
M  V30 6426 C 622.079 -0.749225 -1.80682 0
M  V30 6427 C 622.459 0.765171 -1.96744 0
M  V30 6428 O 621.807 1.68912 -1.53886 0
M  V30 6429 C 622.017 -1.49311 -3.15448 0
M  V30 6430 C 623.365 -1.66162 -3.90737 0
M  V30 6431 O 624.389 -1.45597 -3.25085 0
M  V30 6432 O 623.248 -2.00211 -5.08505 0
M  V30 6433 H 620.342 -0.269614 -0.781817 0
M  V30 6434 H 622.888 -1.20078 -1.19914 0
M  V30 6435 H 621.66 -2.52407 -2.99009 0
M  V30 6436 H 621.283 -1.034 -3.8392 0
M  V30 6437 N 622.28 1.30327 -0.886154 0
M  V30 6438 C 623.696 1.48676 -0.580323 0
M  V30 6439 C 623.896 1.81189 0.881639 0
M  V30 6440 O 622.952 1.90021 1.66278 0
M  V30 6441 C 624.265 2.60932 -1.49449 0
M  V30 6442 C 625.813 2.74812 -1.49824 0
M  V30 6443 C 626.288 3.90183 -2.39836 0
M  V30 6444 N 627.779 3.97495 -2.37806 0
M  V30 6445 C 628.514 4.86078 -3.04165 0
M  V30 6446 N 628.01 5.79448 -3.79753 0
M  V30 6447 N 629.803 4.79456 -2.93391 0
M  V30 6448 H 621.954 1.07495 -1.8319 0
M  V30 6449 H 624.217 0.532661 -0.784204 0
M  V30 6450 H 623.923 2.43731 -2.5355 0
M  V30 6451 H 623.797 3.57437 -1.20494 0
M  V30 6452 H 626.184 2.91418 -0.464731 0
M  V30 6453 H 626.265 1.78924 -1.82811 0
M  V30 6454 H 625.909 3.74334 -3.43273 0
M  V30 6455 H 625.839 4.85411 -2.04166 0
M  V30 6456 H 628.33 3.30703 -1.82877 0
M  V30 6457 H 628.643 6.43805 -4.27475 0
M  V30 6458 H 626.988 5.79376 -3.8386 0
M  V30 6459 H 630.179 4.05494 -2.33864 0
M  V30 6460 H 630.352 5.48283 -3.45383 0
M  V30 6461 N 623.758 0.647228 1.43697 0
M  V30 6462 C 624.688 -0.0345631 2.33474 0
M  V30 6463 C 625.669 -0.818193 1.4913 0
M  V30 6464 O 626.854 -0.780867 1.77809 0
M  V30 6465 C 623.984 -1.00576 3.32418 0
M  V30 6466 C 622.938 -0.33266 4.26705 0
M  V30 6467 C 622.264 -1.41489 5.1564 0
M  V30 6468 C 623.564 0.771204 5.16575 0
M  V30 6469 H 625.258 0.715163 2.90733 0
M  V30 6470 H 622.804 0.345364 1.39797 0
M  V30 6471 H 624.757 -1.49159 3.94119 0
M  V30 6472 H 623.481 -1.78657 2.73403 0
M  V30 6473 H 622.14 0.13267 3.6636 0
M  V30 6474 H 621.788 -2.18698 4.52968 0
M  V30 6475 H 621.488 -0.969799 5.79542 0
M  V30 6476 H 623.012 -1.9022 5.80214 0
M  V30 6477 H 624.426 0.36779 5.72119 0
M  V30 6478 H 622.823 1.1404 5.89165 0
M  V30 6479 H 623.893 1.63169 4.56622 0
M  V30 6480 N 625.236 -1.5273 0.388769 0
M  V30 6481 C 626.484 -2.01174 -0.193208 0
M  V30 6482 C 626.805 -1.27705 -1.47365 0
M  V30 6483 O 626.075 -0.396966 -1.91836 0
M  V30 6484 H 624.655 -0.743287 -0.0743871 0
M  V30 6485 H 627.317 -1.87826 0.520336 0
M  V30 6486 H 626.413 -3.09477 -0.403803 0
M  V30 6487 N 626.714 -0.118576 -1.57153 0
M  V30 6488 C 627.624 0.845484 -2.18835 0
M  V30 6489 C 628.64 1.29299 -1.16438 0
M  V30 6490 O 629.816 1.35607 -1.48905 0
M  V30 6491 C 626.881 2.07795 -2.77529 0
M  V30 6492 C 625.942 1.6824 -3.9496 0
M  V30 6493 C 625.175 2.85612 -4.50845 0
M  V30 6494 O 625.398 4.01025 -4.05629 0
M  V30 6495 O 624.332 2.62721 -5.41536 0
M  V30 6496 H 628.158 0.350568 -3.0167 0
M  V30 6497 H 625.743 0.107013 -1.49016 0
M  V30 6498 H 627.625 2.79978 -3.14945 0
M  V30 6499 H 626.3 2.56294 -1.97725 0
M  V30 6500 H 625.207 0.931663 -3.62313 0
M  V30 6501 H 626.54 1.24484 -4.76198 0
M  V30 6502 N 628.193 1.56834 0.155195 0
M  V30 6503 C 629.418 1.87412 0.888337 0
M  V30 6504 C 629.843 0.70671 1.74319 0
M  V30 6505 O 629.201 -0.343892 1.78009 0
M  V30 6506 C 629.249 3.1652 1.72765 0
M  V30 6507 O 628.353 2.99877 2.83103 0
M  V30 6508 H 627.694 0.615983 0.247914 0
M  V30 6509 H 630.224 2.04061 0.148478 0
M  V30 6510 H 630.234 3.48334 2.12433 0
M  V30 6511 H 628.909 4.01094 1.09985 0
M  V30 6512 H 627.486 2.79453 2.46902 0
M  V30 6513 N 629.671 -0.424282 1.51781 0
M  V30 6514 C 630.618 -1.51591 1.74037 0
M  V30 6515 C 631.588 -1.55556 0.582358 0
M  V30 6516 O 632.773 -1.72364 0.818245 0
M  V30 6517 C 629.913 -2.89188 1.8832 0
M  V30 6518 C 629.026 -2.9465 3.1592 0
M  V30 6519 C 628.161 -4.23452 3.20721 0
M  V30 6520 C 627.2 -4.22831 4.42584 0
M  V30 6521 N 626.337 -5.43178 4.44862 0
M  V30 6522 H 631.177 -1.31917 2.67212 0
M  V30 6523 H 628.714 -0.640599 1.32419 0
M  V30 6524 H 630.672 -3.69044 1.94583 0
M  V30 6525 H 629.302 -3.07392 0.985402 0
M  V30 6526 H 628.354 -2.07378 3.18902 0
M  V30 6527 H 629.666 -2.90055 4.05795 0
M  V30 6528 H 628.82 -5.1169 3.25973 0
M  V30 6529 H 627.559 -4.30722 2.28757 0
M  V30 6530 H 626.564 -3.32984 4.37495 0
M  V30 6531 H 627.789 -4.17213 5.35826 0
M  V30 6532 H 625.735 -5.51145 3.55775 0
M  V30 6533 H 625.652 -5.40515 5.28563 0
M  V30 6534 H 626.92 -6.33412 4.54324 0
M  V30 6535 N 631.149 -1.42148 -0.680565 0
M  V30 6536 C 632.379 -1.45485 -1.46689 0
M  V30 6537 C 632.787 -0.0629451 -1.89095 0
M  V30 6538 O 632.13 0.931397 -1.58337 0
M  V30 6539 C 632.192 -2.31397 -2.75129 0
M  V30 6540 C 631.856 -3.79353 -2.54834 0
M  V30 6541 C 632.853 -4.71148 -2.19808 0
M  V30 6542 C 630.538 -4.23557 -2.70008 0
M  V30 6543 C 632.532 -6.05139 -2.00215 0
M  V30 6544 C 630.219 -5.57609 -2.50031 0
M  V30 6545 C 631.217 -6.48216 -2.15187 0
M  V30 6546 O 630.905 -7.79792 -1.95397 0
M  V30 6547 H 630.637 -0.497139 -0.458071 0
M  V30 6548 H 633.191 -1.87252 -0.844139 0
M  V30 6549 H 631.421 -1.84468 -3.39865 0
M  V30 6550 H 633.11 -2.26257 -3.36991 0
M  V30 6551 H 633.876 -4.38282 -2.07686 0
M  V30 6552 H 629.755 -3.53327 -2.96109 0
M  V30 6553 H 633.299 -6.75823 -1.72941 0
M  V30 6554 H 629.196 -5.9005 -2.61748 0
M  V30 6555 H 629.964 -7.91091 -2.10042 0
M  V30 6556 N 632.627 0.916307 -1.28225 0
M  V30 6557 C 633.557 2.0352 -1.14464 0
M  V30 6558 C 634.538 1.70045 -0.0430844 0
M  V30 6559 O 635.723 1.92954 -0.219619 0
M  V30 6560 C 632.853 3.37889 -0.803027 0
M  V30 6561 C 631.807 3.85516 -1.85908 0
M  V30 6562 C 631.133 5.1682 -1.37116 0
M  V30 6563 C 632.433 4.07655 -3.26519 0
M  V30 6564 H 634.127 2.1529 -2.08064 0
M  V30 6565 H 631.673 1.03446 -1.00174 0
M  V30 6566 H 633.626 4.15654 -0.693537 0
M  V30 6567 H 632.35 3.26164 0.168674 0
M  V30 6568 H 631.009 3.09953 -1.95767 0
M  V30 6569 H 630.657 5.01497 -0.38859 0
M  V30 6570 H 630.357 5.49657 -2.07728 0
M  V30 6571 H 631.881 5.97143 -1.27484 0
M  V30 6572 H 633.295 4.75953 -3.19596 0
M  V30 6573 H 631.692 4.51818 -3.94943 0
M  V30 6574 H 632.762 3.12553 -3.70727 0
M  V30 6575 N 634.105 1.10431 1.1244 0
M  V30 6576 C 635.038 0.696987 2.17296 0
M  V30 6577 C 636.016 -0.301673 1.59777 0
M  V30 6578 O 637.2 -0.200583 1.8743 0
M  V30 6579 C 634.327 0.0284094 3.38688 0
M  V30 6580 C 633.373 0.990536 4.14838 0
M  V30 6581 S 634.206 2.50785 4.73146 0
M  V30 6582 C 635.362 1.85198 5.97873 0
M  V30 6583 H 635.595 1.58523 2.51511 0
M  V30 6584 H 633.128 0.921312 1.239 0
M  V30 6585 H 635.086 -0.351009 4.08997 0
M  V30 6586 H 633.747 -0.836629 3.02753 0
M  V30 6587 H 632.94 0.469991 5.01804 0
M  V30 6588 H 632.542 1.31186 3.50237 0
M  V30 6589 H 634.834 1.18217 6.67106 0
M  V30 6590 H 635.777 2.7012 6.54554 0
M  V30 6591 H 636.185 1.31653 5.48933 0
M  V30 6592 N 635.583 -1.29855 0.893053 0
M  V30 6593 C 636.546 -2.26183 0.370687 0
M  V30 6594 C 637.546 -1.53108 -0.491385 0
M  V30 6595 O 638.736 -1.71643 -0.297386 0
M  V30 6596 C 635.868 -3.37633 -0.470827 0
M  V30 6597 H 637.061 -2.73903 1.22135 0
M  V30 6598 H 634.614 -1.41183 0.67061 0
M  V30 6599 H 635.349 -2.95241 -1.34175 0
M  V30 6600 H 635.134 -3.91825 0.146784 0
M  V30 6601 H 636.624 -4.09313 -0.827825 0
M  V30 6602 N 637.061 -0.65484 -1.43351 0
M  V30 6603 C 637.991 0.0221809 -2.33489 0
M  V30 6604 C 638.972 0.810272 -1.49561 0
M  V30 6605 O 640.157 0.771426 -1.78221 0
M  V30 6606 C 637.287 0.988117 -3.32947 0
M  V30 6607 C 636.241 0.310026 -4.26876 0
M  V30 6608 C 635.567 1.38752 -5.16384 0
M  V30 6609 C 636.867 -0.798589 -5.16159 0
M  V30 6610 H 638.561 -0.730571 -2.9035 0
M  V30 6611 H 636.107 -0.352773 -1.39612 0
M  V30 6612 H 638.06 1.47067 -3.94904 0
M  V30 6613 H 636.784 1.77205 -2.74346 0
M  V30 6614 H 635.443 -0.152097 -3.66284 0
M  V30 6615 H 635.091 2.16293 -4.54121 0
M  V30 6616 H 634.791 0.939051 -5.80048 0
M  V30 6617 H 636.315 1.87141 -5.81215 0
M  V30 6618 H 637.729 -0.398126 -5.71916 0
M  V30 6619 H 636.126 -1.17163 -5.88552 0
M  V30 6620 H 637.196 -1.65588 -4.55751 0
M  V30 6621 N 638.539 1.52521 -0.396863 0
M  V30 6622 C 639.486 2.26671 0.434624 0
M  V30 6623 C 640.456 1.28584 1.05144 0
M  V30 6624 O 641.641 1.57426 1.07804 0
M  V30 6625 C 638.781 3.08234 1.55196 0
M  V30 6626 C 637.894 4.21261 0.957262 0
M  V30 6627 C 637.029 4.90205 2.04627 0
M  V30 6628 C 636.068 5.95213 1.42787 0
M  V30 6629 N 635.205 6.57723 2.45651 0
M  V30 6630 H 640.045 2.973 -0.204139 0
M  V30 6631 H 637.582 1.46669 -0.112505 0
M  V30 6632 H 639.54 3.53819 2.2106 0
M  V30 6633 H 638.17 2.398 2.16092 0
M  V30 6634 H 637.222 3.79935 0.188005 0
M  V30 6635 H 638.534 4.96624 0.465416 0
M  V30 6636 H 637.688 5.39133 2.78246 0
M  V30 6637 H 636.427 4.14383 2.57174 0
M  V30 6638 H 635.432 5.45616 0.676968 0
M  V30 6639 H 636.657 6.72972 0.910255 0
M  V30 6640 H 634.603 5.84737 2.97353 0
M  V30 6641 H 634.52 7.28723 2.01243 0
M  V30 6642 H 635.788 7.11293 3.18876 0
M  V30 6643 N 640.017 0.126909 1.57088 0
M  V30 6644 C 640.965 -0.837618 2.16995 0
M  V30 6645 C 641.959 -1.26974 1.12133 0
M  V30 6646 O 643.165 -1.24056 1.30423 0
M  V30 6647 H 639.54 -0.288256 0.694559 0
M  V30 6648 H 641.511 -0.307957 2.96807 0
M  V30 6649 C 640.26 -2.07474 2.79016 0
M  V30 6650 H 639.583 -1.75117 3.59408 0
M  V30 6651 H 641.023 -2.72949 3.24461 0
M  V30 6652 C 639.482 -2.86967 1.76498 0
M  V30 6653 O 640.012 -3.82625 1.22316 0
M  V30 6654 N 638.218 -2.51111 1.46258 0
M  V30 6655 H 637.765 -1.73389 1.90509 0
M  V30 6656 H 637.723 -3.04594 0.779085 0
M  V30 6657 N 641.495 -1.56914 -0.146875 0
M  V30 6658 C 642.425 -2.01308 -1.1831 0
M  V30 6659 C 643.406 -0.892664 -1.44795 0
M  V30 6660 O 644.591 -1.16048 -1.55713 0
M  V30 6661 C 641.721 -2.3938 -2.51624 0
M  V30 6662 C 640.675 -3.54608 -2.3966 0
M  V30 6663 C 640.001 -3.78493 -3.77686 0
M  V30 6664 C 641.301 -4.87269 -1.88058 0
M  V30 6665 H 642.995 -2.88123 -0.813964 0
M  V30 6666 H 640.541 -1.38615 -0.3901 0
M  V30 6667 H 642.494 -2.69037 -3.24341 0
M  V30 6668 H 641.218 -1.49502 -2.90373 0
M  V30 6669 H 639.877 -3.25116 -1.69396 0
M  V30 6670 H 639.525 -2.85866 -4.13871 0
M  V30 6671 H 639.225 -4.56039 -3.70543 0
M  V30 6672 H 640.749 -4.10576 -4.51951 0
M  V30 6673 H 642.163 -5.15644 -2.50568 0
M  V30 6674 H 640.56 -5.68622 -1.91805 0
M  V30 6675 H 641.63 -4.77634 -0.836277 0
M  V30 6676 N 642.974 0.416227 -1.52004 0
M  V30 6677 C 644.214 1.17307 -1.67387 0
M  V30 6678 C 644.578 1.87959 -0.39183 0
M  V30 6679 O 645.779 2.65472 -0.421671 0
M  V30 6680 C 644.05 2.14661 -2.85754 0
M  V30 6681 S 645.609 2.98549 -3.21581 0
M  V30 6682 H 642.427 0.397505 -0.5895 0
M  V30 6683 H 645.029 0.461431 -1.89976 0
M  V30 6684 H 643.733 1.61431 -3.77317 0
M  V30 6685 H 643.264 2.90375 -2.65417 0
M  V30 6686 H 645.279 4.16536 -2.69652 0
M  V30 6687 N 644.452 1.42507 0.673017 0
M  V30 6688 C 645.729 1.33554 1.42908 0
M  V30 6689 C 646.109 -0.0262211 2.11084 0
M  V30 6690 O 645.457 -1.04181 2.03368 0
M  V30 6691 C 645.667 2.50498 2.43006 0
M  V30 6692 C 647.015 2.92694 3.07596 0
M  V30 6693 O 648.039 2.50401 2.53333 0
M  V30 6694 O 646.898 3.65899 4.05931 0
M  V30 6695 H 643.992 0.526785 0.637516 0
M  V30 6696 H 646.538 1.54518 0.701591 0
M  V30 6697 H 645.31 3.41272 1.9144 0
M  V30 6698 H 644.933 2.3153 3.23233 0
M  V30 6699 N 645.93 -0.909495 1.28709 0
M  V30 6700 C 646.86 -2.0291 1.15542 0
M  V30 6701 C 647.841 -1.7002 0.0521017 0
M  V30 6702 O 649.026 -1.92835 0.229849 0
M  V30 6703 C 646.156 -3.37458 0.820935 0
M  V30 6704 C 645.11 -3.84524 1.87949 0
M  V30 6705 C 644.436 -5.16086 1.39854 0
M  V30 6706 C 645.736 -4.05918 3.28676 0
M  V30 6707 H 647.43 -2.14183 2.09203 0
M  V30 6708 H 644.976 -1.02913 1.00722 0
M  V30 6709 H 646.929 -4.1528 0.715571 0
M  V30 6710 H 645.653 -3.26249 -0.151374 0
M  V30 6711 H 644.312 -3.08911 1.97408 0
M  V30 6712 H 643.96 -5.01284 0.41518 0
M  V30 6713 H 643.66 -5.48547 2.1064 0
M  V30 6714 H 645.184 -5.96459 1.30649 0
M  V30 6715 H 646.598 -4.74252 3.22115 0
M  V30 6716 H 644.995 -4.49717 3.97334 0
M  V30 6717 H 646.065 -3.10583 3.72379 0
M  V30 6718 N 647.408 -1.11026 -1.11852 0
M  V30 6719 C 648.656 -0.854769 -1.83134 0
M  V30 6720 C 648.977 0.621375 -1.84835 0
M  V30 6721 O 648.247 1.45129 -1.31584 0
M  V30 6722 H 646.827 -0.313229 -0.678157 0
M  V30 6723 H 649.489 -1.40178 -1.35411 0
M  V30 6724 H 648.585 -1.22311 -2.87135 0
M  V30 6725 N 648.886 1.2938 -0.899927 0
M  V30 6726 C 650.135 1.9483 -0.521937 0
M  V30 6727 C 650.448 1.71725 0.936473 0
M  V30 6728 O 651.654 2.31282 1.42199 0
M  V30 6729 C 650.11 3.48911 -0.88255 0
M  V30 6730 C 649.718 3.80815 -2.35974 0
M  V30 6731 C 651.462 4.20595 -0.57448 0
M  V30 6732 C 649.369 5.28142 -2.66121 0
M  V30 6733 H 648.299 0.729285 -0.191468 0
M  V30 6734 H 650.95 1.47103 -1.09695 0
M  V30 6735 H 649.332 3.95293 -0.236459 0
M  V30 6736 H 650.506 3.45291 -3.05141 0
M  V30 6737 H 648.821 3.22271 -2.63686 0
M  V30 6738 H 651.418 5.29031 -0.776556 0
M  V30 6739 H 651.761 4.13442 0.487005 0
M  V30 6740 H 652.294 3.79945 -1.17842 0
M  V30 6741 H 649.033 5.4036 -3.71068 0
M  V30 6742 H 648.553 5.64913 -2.01578 0
M  V30 6743 H 650.232 5.95738 -2.52399 0
M  V30 6744 N 650.364 0.662433 1.43002 0
M  V30 6745 C 651.61 0.179857 2.02001 0
M  V30 6746 C 651.943 -1.20625 1.52195 0
M  V30 6747 O 651.218 -1.80726 0.718911 0
M  V30 6748 C 651.501 0.200845 3.59539 0
M  V30 6749 C 651.354 1.62153 4.19555 0
M  V30 6750 C 652.673 -0.457738 4.37713 0
M  V30 6751 H 649.792 0.0668305 0.733964 0
M  V30 6752 H 652.434 0.84487 1.70182 0
M  V30 6753 H 650.584 -0.365411 3.86778 0
M  V30 6754 H 652.256 2.23908 4.03315 0
M  V30 6755 H 650.499 2.16601 3.75854 0
M  V30 6756 H 651.17 1.58799 5.28665 0
M  V30 6757 H 653.646 0.0241495 4.16093 0
M  V30 6758 H 652.522 -0.412363 5.47349 0
M  V30 6759 H 652.783 -1.53336 4.14657 0
M  V30 6760 N 651.842 -1.52309 0.404946 0
M  V30 6761 C 653.119 -1.94237 -0.230544 0
M  V30 6762 C 653.499 -1.34154 -1.6299 0
M  V30 6763 O 652.847 -0.515713 -2.22604 0
M  V30 6764 C 653.057 -3.48166 -0.241106 0
M  V30 6765 C 654.405 -4.22074 -0.462488 0
M  V30 6766 O 655.429 -3.54754 -0.320644 0
M  V30 6767 O 654.288 -5.41443 -0.741708 0
M  V30 6768 H 651.382 -0.813766 -0.147358 0
M  V30 6769 H 653.928 -1.6333 0.460587 0
M  V30 6770 H 652.7 -3.84269 0.738467 0
M  V30 6771 H 652.323 -3.85422 -0.97651 0
M  V30 6772 N 653.32 -0.135238 -1.57019 0
M  V30 6773 C 654.731 0.387521 -1.82634 0
M  V30 6774 C 655.082 1.65528 -1.05332 0
M  V30 6775 O 654.207 2.14381 -0.294926 0
M  V30 6776 C 654.802 0.709852 -3.3128 0
M  V30 6777 C 653.361 1.17718 -3.57518 0
M  V30 6778 C 652.508 0.194183 -2.76619 0
M  V30 6779 H 655.459 -0.360126 -1.5456 0
M  V30 6780 H 655.48 1.5657 -3.46794 0
M  V30 6781 H 654.992 -0.213024 -3.87515 0
M  V30 6782 H 653.093 2.1164 -3.06658 0
M  V30 6783 H 653.206 1.11128 -4.66034 0
M  V30 6784 H 651.57 0.684478 -2.4533 0
M  V30 6785 H 652.353 -0.722076 -3.3562 0
M  V30 6786 N 654.798 1.5699 0.138552 0
M  V30 6787 C 656.028 1.87704 0.863184 0
M  V30 6788 C 656.436 0.722411 1.74865 0
M  V30 6789 O 655.779 -0.316636 1.80951 0
M  V30 6790 C 655.841 3.13219 1.76449 0
M  V30 6791 C 655.505 4.44648 1.05532 0
M  V30 6792 C 656.502 5.18318 0.405252 0
M  V30 6793 C 654.187 4.91367 1.04231 0
M  V30 6794 C 656.181 6.36916 -0.24835 0
M  V30 6795 C 653.868 6.09887 0.384904 0
M  V30 6796 C 654.866 6.82508 -0.259292 0
M  V30 6797 O 654.554 7.98775 -0.906258 0
M  V30 6798 H 654.286 0.626255 0.254521 0
M  V30 6799 H 656.84 2.04966 0.133472 0
M  V30 6800 H 655.07 2.91988 2.53535 0
M  V30 6801 H 656.759 3.30111 2.36181 0
M  V30 6802 H 657.525 4.83289 0.407053 0
M  V30 6803 H 653.404 4.34759 1.53315 0
M  V30 6804 H 656.948 6.93538 -0.751755 0
M  V30 6805 H 652.845 6.44376 0.380799 0
M  V30 6806 H 653.613 8.14494 -0.80877 0
M  V30 6807 N 656.276 -0.40816 1.52223 0
M  V30 6808 C 657.687 -0.986929 1.58482 0
M  V30 6809 C 658.038 -1.91521 0.425917 0
M  V30 6810 O 657.163 -2.11593 -0.453593 0
M  V30 6811 C 657.758 -1.7967 2.87235 0
M  V30 6812 C 656.317 -2.32549 2.9597 0
M  V30 6813 C 655.464 -1.12558 2.53428 0
M  V30 6814 H 658.415 -0.188362 1.57578 0
M  V30 6815 H 658.436 -2.65417 2.72642 0
M  V30 6816 H 657.948 -1.12082 3.71563 0
M  V30 6817 H 656.049 -3.03505 2.16137 0
M  V30 6818 H 656.162 -2.63348 4.00231 0
M  V30 6819 H 654.526 -1.47984 2.07299 0
M  V30 6820 H 655.309 -0.465351 3.40131 0
M  V30 6821 N 657.755 -1.42862 -0.66545 0
M  V30 6822 C 659.166 -1.3901 -1.24632 0
M  V30 6823 C 659.517 -0.0880285 -1.96002 0
M  V30 6824 O 658.642 0.812947 -2.0055 0
M  V30 6825 C 659.237 -2.51806 -2.2667 0
M  V30 6826 C 657.796 -2.51257 -2.80262 0
M  V30 6827 C 656.943 -2.30124 -1.5472 0
M  V30 6828 H 659.894 -1.5194 -0.458237 0
M  V30 6829 H 659.915 -2.22593 -3.08598 0
M  V30 6830 H 659.427 -3.46558 -1.74697 0
M  V30 6831 H 657.528 -1.60349 -3.36332 0
M  V30 6832 H 657.641 -3.48614 -3.28641 0
M  V30 6833 H 656.005 -1.7856 -1.81627 0
M  V30 6834 H 656.788 -3.26945 -1.04699 0
M  V30 6835 N 659.233 0.902656 -1.29189 0
M  V30 6836 C 660.163 2.02294 -1.16616 0
M  V30 6837 C 661.144 1.6999 -0.0611175 0
M  V30 6838 O 662.329 1.9271 -0.240072 0
M  V30 6839 C 659.459 3.37018 -0.83882 0
M  V30 6840 C 658.413 3.83522 -1.89986 0
M  V30 6841 C 657.739 5.15337 -1.42589 0
M  V30 6842 C 659.039 4.04169 -3.30824 0
M  V30 6843 H 660.733 2.13071 -2.10336 0
M  V30 6844 H 658.279 1.02378 -1.01266 0
M  V30 6845 H 660.232 4.14895 -0.737584 0
M  V30 6846 H 658.956 3.26325 0.134071 0
M  V30 6847 H 657.615 3.07859 -1.99043 0
M  V30 6848 H 657.263 5.01056 -0.441759 0
M  V30 6849 H 656.963 5.47423 -2.13547 0
M  V30 6850 H 658.487 5.95758 -1.3381 0
M  V30 6851 H 659.901 4.72537 -3.24626 0
M  V30 6852 H 658.298 4.47604 -3.99713 0
M  V30 6853 H 659.368 3.08604 -3.74021 0
M  V30 6854 N 660.711 1.11618 1.11262 0
M  V30 6855 C 661.951 0.876154 1.8467 0
M  V30 6856 C 662.315 -0.587551 1.82789 0
M  V30 6857 O 663.516 -0.944411 2.51663 0
M  V30 6858 C 661.787 1.42461 3.2778 0
M  V30 6859 S 663.346 1.32185 4.18417 0
M  V30 6860 H 660.164 0.31628 0.636779 0
M  V30 6861 H 662.766 1.42404 1.33946 0
M  V30 6862 H 661.47 2.48367 3.26714 0
M  V30 6863 H 661.001 0.873844 3.83572 0
M  V30 6864 H 663.016 0.287607 4.95366 0
M  V30 6865 N 662.189 -1.289 0.906776 0
M  V30 6866 C 663.466 -1.90221 0.455537 0
M  V30 6867 C 663.846 -1.82251 -1.06527 0
M  V30 6868 O 663.194 -1.25385 -1.91026 0
M  V30 6869 C 663.404 -3.35015 0.97806 0
M  V30 6870 C 664.752 -4.12018 1.02598 0
M  V30 6871 O 665.776 -3.43947 0.926218 0
M  V30 6872 O 664.635 -5.33677 1.17689 0
M  V30 6873 H 661.729 -0.814505 0.143214 0
M  V30 6874 H 664.275 -1.37317 0.997104 0
M  V30 6875 H 663.047 -3.35006 2.02204 0
M  V30 6876 H 662.67 -3.95408 0.416914 0
M  V30 6877 N 663.667 -0.670007 -1.42649 0
M  V30 6878 C 664.916 -0.187526 -2.00826 0
M  V30 6879 C 665.229 1.21142 -1.53571 0
M  V30 6880 O 666.435 1.79001 -2.04134 0
M  V30 6881 C 664.891 -0.284409 -3.58774 0
M  V30 6882 C 664.499 -1.6871 -4.15019 0
M  V30 6883 C 666.243 0.139605 -4.2427 0
M  V30 6884 C 664.15 -1.73701 -5.65316 0
M  V30 6885 H 663.08 -0.0663468 -0.751075 0
M  V30 6886 H 665.731 -0.834492 -1.63427 0
M  V30 6887 H 664.113 0.430364 -3.93655 0
M  V30 6888 H 665.287 -2.42857 -3.91608 0
M  V30 6889 H 663.602 -2.05855 -3.61957 0
M  V30 6890 H 666.199 0.122398 -5.3456 0
M  V30 6891 H 666.542 1.17403 -3.99402 0
M  V30 6892 H 667.075 -0.523995 -3.94334 0
M  V30 6893 H 663.814 -2.75109 -5.94975 0
M  V30 6894 H 663.334 -1.03903 -5.90732 0
M  V30 6895 H 665.013 -1.48829 -6.2965 0
M  V30 6896 N 665.145 1.52092 -0.413018 0
M  V30 6897 C 666.092 2.27119 0.410558 0
M  V30 6898 C 667.062 1.29692 1.03774 0
M  V30 6899 O 668.247 1.58561 1.06128 0
M  V30 6900 C 665.387 3.09863 1.51918 0
M  V30 6901 C 664.5 4.22252 0.912528 0
M  V30 6902 C 663.635 4.92348 1.99417 0
M  V30 6903 C 662.674 5.96694 1.36466 0
M  V30 6904 N 661.811 6.60292 2.38661 0
M  V30 6905 H 666.651 2.97067 -0.235661 0
M  V30 6906 H 664.188 1.46542 -0.128055 0
M  V30 6907 H 666.146 3.56144 2.17295 0
M  V30 6908 H 664.776 2.42078 2.13537 0
M  V30 6909 H 663.828 3.80113 0.147697 0
M  V30 6910 H 665.14 4.9709 0.412717 0
M  V30 6911 H 664.294 5.42054 2.72512 0
M  V30 6912 H 663.033 4.17087 2.52764 0
M  V30 6913 H 662.038 5.46304 0.61906 0
M  V30 6914 H 663.263 6.73899 0.838827 0
M  V30 6915 H 661.209 5.87858 2.91134 0
M  V30 6916 H 661.126 7.30816 1.93503 0
M  V30 6917 H 662.394 7.14635 3.11314 0
M  V30 6918 N 666.623 0.143563 1.56945 0
M  V30 6919 C 667.871 -0.507402 1.95627 0
M  V30 6920 C 668.192 -1.65626 1.02922 0
M  V30 6921 O 667.462 -1.95693 0.0901136 0
M  V30 6922 H 666.042 -0.190436 0.722318 0
M  V30 6923 H 668.704 0.218257 1.93674 0
M  V30 6924 H 667.8 -0.885816 2.99265 0
M  V30 6925 N 668.101 -1.57061 -0.130224 0
M  V30 6926 C 669.326 -1.88802 -0.858409 0
M  V30 6927 C 669.751 -0.734353 -1.73173 0
M  V30 6928 O 669.109 0.315529 -1.78533 0
M  V30 6929 C 669.157 -3.19228 -1.67708 0
M  V30 6930 O 668.261 -3.04343 -2.78297 0
M  V30 6931 H 667.602 -0.619849 -0.238083 0
M  V30 6932 H 670.132 -2.04271 -0.115995 0
M  V30 6933 H 670.142 -3.51669 -2.06864 0
M  V30 6934 H 668.817 -4.02793 -1.0359 0
M  V30 6935 H 667.394 -2.83346 -2.42425 0
M  V30 6936 N 669.579 0.400081 -1.52437 0
M  V30 6937 C 670.809 1.16598 -1.70553 0
M  V30 6938 C 671.217 1.8451 -0.418665 0
M  V30 6939 O 670.56 1.73069 0.615855 0
M  V30 6940 C 670.622 2.26517 -2.7916 0
M  V30 6941 C 670.286 1.78666 -4.20628 0
M  V30 6942 C 671.283 1.26946 -5.04163 0
M  V30 6943 C 668.968 1.85225 -4.66902 0
M  V30 6944 C 670.962 0.824187 -6.32049 0
M  V30 6945 C 668.649 1.40309 -5.94774 0
M  V30 6946 C 669.647 0.889922 -6.77178 0
M  V30 6947 O 669.335 0.447281 -8.02655 0
M  V30 6948 H 669.067 0.356023 -0.574651 0
M  V30 6949 H 671.621 0.475598 -1.99818 0
M  V30 6950 H 669.851 2.98946 -2.45292 0
M  V30 6951 H 671.54 2.88237 -2.85787 0
M  V30 6952 H 672.306 1.21244 -4.69601 0
M  V30 6953 H 668.185 2.24111 -4.02859 0
M  V30 6954 H 671.729 0.422958 -6.96317 0
M  V30 6955 H 667.626 1.45693 -6.28843 0
M  V30 6956 H 668.394 0.569768 -8.16514 0
M  V30 6957 N 671.057 1.43213 0.657864 0
M  V30 6958 C 672.285 1.48015 1.44566 0
M  V30 6959 C 672.7 0.0965951 1.88553 0
M  V30 6960 O 672.057 -0.892221 1.59203 0
M  V30 6961 C 672.108 2.42199 2.68369 0
M  V30 6962 O 671.829 3.75173 2.26223 0
M  V30 6963 C 673.33 2.56195 3.61772 0
M  V30 6964 H 670.55 0.502861 0.444266 0
M  V30 6965 H 673.094 1.87907 0.806917 0
M  V30 6966 H 671.249 2.05514 3.28394 0
M  V30 6967 H 671.663 4.25776 3.06293 0
M  V30 6968 H 673.137 3.26182 4.4532 0
M  V30 6969 H 673.614 1.60534 4.0881 0
M  V30 6970 H 674.22 2.93671 3.07632 0
M  V30 6971 N 672.536 -0.895792 1.29666 0
M  V30 6972 C 673.499 -1.98189 1.15124 0
M  V30 6973 C 674.499 -1.60572 0.0855717 0
M  V30 6974 O 675.689 -1.70991 0.332826 0
M  V30 6975 C 672.821 -3.32289 0.761372 0
M  V30 6976 H 674.014 -2.12518 2.11603 0
M  V30 6977 H 671.567 -1.0808 1.12908 0
M  V30 6978 H 672.302 -3.23662 -0.203393 0
M  V30 6979 H 672.087 -3.60958 1.53139 0
M  V30 6980 H 673.577 -4.1198 0.682792 0
M  V30 6981 N 674.014 -1.12206 -1.10668 0
M  V30 6982 C 674.946 -0.74552 -2.16736 0
M  V30 6983 C 675.959 0.226696 -1.61214 0
M  V30 6984 O 677.148 0.0083936 -1.78498 0
M  V30 6985 C 674.248 -0.0823368 -3.388 0
M  V30 6986 C 673.421 -1.08341 -4.2377 0
M  V30 6987 C 672.48 -0.448292 -5.24287 0
M  V30 6988 O 671.506 -1.10458 -5.58379 0
M  V30 6989 N 672.708 0.785336 -5.75163 0
M  V30 6990 H 675.473 -1.65818 -2.49649 0
M  V30 6991 H 673.034 -1.01335 -1.26265 0
M  V30 6992 H 675.026 0.354476 -4.03145 0
M  V30 6993 H 673.596 0.733041 -3.03884 0
M  V30 6994 H 672.816 -1.69792 -3.55759 0
M  V30 6995 H 674.104 -1.76042 -4.77375 0
M  V30 6996 H 673.502 1.33755 -5.4966 0
M  V30 6997 H 672.059 1.16501 -6.41304 0
M  V30 6998 N 675.492 1.28418 -0.913599 0
M  V30 6999 C 676.739 1.94981 -0.546674 0
M  V30 7000 C 677.067 1.7192 0.909606 0
M  V30 7001 O 676.322 1.03314 1.66207 0
M  V30 7002 C 676.621 3.48283 -0.802099 0
M  V30 7003 C 676.287 3.91444 -2.2379 0
M  V30 7004 C 674.949 4.02939 -2.63046 0
M  V30 7005 C 677.301 4.13542 -3.17227 0
M  V30 7006 C 674.629 4.3391 -3.94891 0
M  V30 7007 C 676.981 4.45992 -4.48636 0
M  V30 7008 C 675.645 4.55698 -4.87746 0
M  V30 7009 H 674.915 0.713487 -0.200042 0
M  V30 7010 H 677.562 1.52756 -1.15489 0
M  V30 7011 H 675.867 3.91643 -0.111076 0
M  V30 7012 H 677.564 3.97903 -0.497375 0
M  V30 7013 H 674.154 3.83024 -1.9233 0
M  V30 7014 H 678.338 4.04114 -2.88107 0
M  V30 7015 H 673.594 4.39631 -4.24894 0
M  V30 7016 H 677.768 4.62038 -5.21051 0
M  V30 7017 H 675.395 4.79451 -5.89942 0
M  V30 7018 N 676.97 0.677563 1.42291 0
M  V30 7019 C 677.88 0.000962654 2.346 0
M  V30 7020 C 678.896 -0.785833 1.55244 0
M  V30 7021 O 680.072 -0.727523 1.87801 0
M  V30 7022 C 677.137 -0.936746 3.33805 0
M  V30 7023 C 676.198 -0.144173 4.29058 0
M  V30 7024 C 675.431 -1.03722 5.23524 0
M  V30 7025 O 675.654 -2.27675 5.22992 0
M  V30 7026 O 674.588 -0.496542 5.99848 0
M  V30 7027 H 678.414 0.761397 2.94001 0
M  V30 7028 H 675.999 0.43781 1.42841 0
M  V30 7029 H 677.881 -1.47497 3.94744 0
M  V30 7030 H 676.556 -1.67698 2.76874 0
M  V30 7031 H 675.463 0.438224 3.71524 0
M  V30 7032 H 676.796 0.55701 4.89038 0
M  V30 7033 N 678.448 -1.51871 0.421078 0
M  V30 7034 C 679.398 -2.24171 -0.416111 0
M  V30 7035 C 680.382 -1.25763 -1.00362 0
M  V30 7036 O 681.574 -1.5094 -0.924452 0
M  V30 7037 C 678.703 -3.07533 -1.52571 0
M  V30 7038 C 677.789 -4.1336 -0.948399 0
M  V30 7039 N 678.18 -5.05704 -0.0987933 0
M  V30 7040 C 676.478 -4.29055 -1.21768 0
M  V30 7041 C 677.179 -5.8127 0.223705 0
M  V30 7042 N 676.155 -5.4221 -0.388524 0
M  V30 7043 H 679.957 -2.92925 0.239166 0
M  V30 7044 H 677.471 -1.60732 0.232191 0
M  V30 7045 H 679.468 -3.57893 -2.13819 0
M  V30 7046 H 678.128 -2.4032 -2.18349 0
M  V30 7047 H 679.139 -5.17214 0.266428 0
M  V30 7048 H 675.816 -3.73071 -1.87416 0
M  V30 7049 H 677.206 -6.65653 0.914076 0
M  V30 7050 N 679.926 -0.151884 -1.56866 0
M  V30 7051 C 681.154 0.504813 -2.00647 0
M  V30 7052 C 681.569 1.58098 -1.03201 0
M  V30 7053 O 680.926 1.82476 -0.0297814 0
M  V30 7054 C 680.977 1.10099 -3.44326 0
M  V30 7055 O 680.698 0.0678021 -4.38048 0
M  V30 7056 C 682.199 1.83782 -4.03409 0
M  V30 7057 H 679.419 0.130989 -0.65809 0
M  V30 7058 H 681.963 -0.247903 -2.02992 0
M  V30 7059 H 680.118 1.8043 -3.42817 0
M  V30 7060 H 680.532 0.505237 -5.22061 0
M  V30 7061 H 682.006 2.2078 -5.05925 0
M  V30 7062 H 682.483 2.72557 -3.44397 0
M  V30 7063 H 683.089 1.18138 -4.08563 0
M  V30 7064 N 681.404 1.57128 0.121893 0
M  V30 7065 C 682.653 1.83888 0.828748 0
M  V30 7066 C 682.966 0.737087 1.81181 0
M  V30 7067 O 684.172 0.891007 2.56463 0
M  V30 7068 C 682.628 3.26014 1.52455 0
M  V30 7069 C 682.236 4.44195 0.58263 0
M  V30 7070 C 683.98 3.62025 2.21671 0
M  V30 7071 C 681.887 5.77349 1.28149 0
M  V30 7072 H 680.817 0.685856 0.313238 0
M  V30 7073 H 683.468 1.83319 0.0814851 0
M  V30 7074 H 681.85 3.21044 2.31834 0
M  V30 7075 H 683.024 4.60457 -0.177729 0
M  V30 7076 H 681.339 4.164 -0.00241228 0
M  V30 7077 H 683.936 4.58776 2.74643 0
M  V30 7078 H 684.279 2.89315 2.99337 0
M  V30 7079 H 684.812 3.68767 1.49184 0
M  V30 7080 H 681.551 6.53221 0.546189 0
M  V30 7081 H 681.071 5.64978 2.01394 0
M  V30 7082 H 682.75 6.21006 1.81549 0
M  V30 7083 N 682.882 -0.391992 1.52647 0
M  V30 7084 C 683.812 -1.48517 1.8018 0
M  V30 7085 C 684.793 -1.57039 0.653667 0
M  V30 7086 O 685.978 -1.72036 0.900962 0
M  V30 7087 C 683.108 -2.86161 1.96797 0
M  V30 7088 C 682.062 -2.92481 3.12472 0
M  V30 7089 C 681.388 -4.32546 3.14338 0
M  V30 7090 C 682.688 -2.624 4.51601 0
M  V30 7091 H 684.382 -1.25726 2.71723 0
M  V30 7092 H 681.928 -0.603387 1.30749 0
M  V30 7093 H 683.881 -3.62639 2.14641 0
M  V30 7094 H 682.605 -3.10283 1.01941 0
M  V30 7095 H 681.264 -2.18451 2.94406 0
M  V30 7096 H 680.912 -4.53703 2.1717 0
M  V30 7097 H 680.612 -4.37695 3.92042 0
M  V30 7098 H 682.136 -5.10934 3.34333 0
M  V30 7099 H 683.55 -3.28596 4.69785 0
M  V30 7100 H 681.947 -2.78903 5.3135 0
M  V30 7101 H 683.017 -1.57754 4.58521 0
M  V30 7102 N 684.36 -1.4356 -0.65026 0
M  V30 7103 C 685.29 -1.51758 -1.77459 0
M  V30 7104 C 686.271 -0.372019 -1.65982 0
M  V30 7105 O 687.456 -0.589627 -1.85033 0
M  V30 7106 C 684.586 -1.44302 -3.15902 0
M  V30 7107 C 683.54 -2.57138 -3.42146 0
M  V30 7108 C 682.866 -2.34735 -4.8042 0
M  V30 7109 C 684.166 -3.99373 -3.36598 0
M  V30 7110 H 685.86 -2.45863 -1.70855 0
M  V30 7111 H 683.406 -1.18333 -0.820566 0
M  V30 7112 H 685.359 -1.48641 -3.94314 0
M  V30 7113 H 684.083 -0.467026 -3.23244 0
M  V30 7114 H 682.742 -2.52157 -2.66106 0
M  V30 7115 H 682.39 -1.35372 -4.84441 0
M  V30 7116 H 682.09 -3.10375 -4.9894 0
M  V30 7117 H 683.614 -2.40862 -5.61086 0
M  V30 7118 H 685.028 -4.05826 -4.04942 0
M  V30 7119 H 683.425 -4.75063 -3.66654 0
M  V30 7120 H 684.495 -4.243 -2.34729 0
M  V30 7121 N 685.838 0.888903 -1.30139 0
M  V30 7122 C 687.254 1.17153 -1.08385 0
M  V30 7123 C 687.454 2.0088 0.157925 0
M  V30 7124 O 686.51 2.37668 0.852652 0
M  V30 7125 C 687.823 1.882 -2.34523 0
M  V30 7126 C 689.371 2.00981 -2.39949 0
M  V30 7127 C 689.846 2.75441 -3.65918 0
M  V30 7128 N 691.337 2.82989 -3.66704 0
M  V30 7129 C 692.072 3.41167 -4.60861 0
M  V30 7130 N 691.568 4.00425 -5.6536 0
M  V30 7131 N 693.361 3.38944 -4.48412 0
M  V30 7132 H 685.512 0.33053 -2.09812 0
M  V30 7133 H 687.775 0.208964 -0.924683 0
M  V30 7134 H 687.481 1.34119 -3.25123 0
M  V30 7135 H 687.355 2.88609 -2.42868 0
M  V30 7136 H 689.742 2.54234 -1.4983 0
M  V30 7137 H 689.823 0.996725 -2.35582 0
M  V30 7138 H 689.467 2.22861 -4.56394 0
M  V30 7139 H 689.397 3.77118 -3.67546 0
M  V30 7140 H 691.888 2.40912 -2.91153 0
M  V30 7141 H 692.201 4.42871 -6.33313 0
M  V30 7142 H 690.546 3.98856 -5.69157 0
M  V30 7143 H 693.737 2.91875 -3.6596 0
M  V30 7144 H 693.91 3.83989 -5.21974 0
M  V30 7145 N 687.317 1.12792 1.10072 0
M  V30 7146 C 688.728 0.899346 1.63611 0
M  V30 7147 C 689.079 -0.565547 1.87872 0
M  V30 7148 O 688.204 -1.43081 1.62348 0
M  V30 7149 C 688.799 1.62608 2.97227 0
M  V30 7150 C 687.358 1.44356 3.47618 0
M  V30 7151 C 686.505 1.65958 2.22156 0
M  V30 7152 H 689.456 1.28216 0.935223 0
M  V30 7153 H 689.477 1.0793 3.64872 0
M  V30 7154 H 688.989 2.69221 2.79538 0
M  V30 7155 H 687.09 0.400148 3.70445 0
M  V30 7156 H 687.203 2.20218 4.25489 0
M  V30 7157 H 685.567 1.08395 2.30484 0
M  V30 7158 H 686.35 2.73877 2.06993 0
M  V30 7159 N 688.795 -1.27931 0.920396 0
M  V30 7160 C 690.023 -1.98805 0.573087 0
M  V30 7161 C 690.438 -1.68724 -0.847201 0
M  V30 7162 O 689.795 -0.943699 -1.56207 0
M  V30 7163 C 689.846 -3.52971 0.780633 0
M  V30 7164 O 689.567 -3.81994 2.14504 0
M  V30 7165 C 691.068 -4.411 0.44105 0
M  V30 7166 H 688.288 -0.634651 0.21785 0
M  V30 7167 H 690.832 -1.62965 1.23542 0
M  V30 7168 H 688.987 -3.87048 0.165204 0
M  V30 7169 H 689.401 -4.76609 2.18962 0
M  V30 7170 H 690.875 -5.48312 0.637006 0
M  V30 7171 H 691.352 -4.34758 -0.62306 0
M  V30 7172 H 691.958 -4.12532 1.0343 0
M  V30 7173 N 690.273 -0.685099 -1.4193 0
M  V30 7174 C 691.513 -0.215676 -2.03259 0
M  V30 7175 C 691.877 1.15934 -1.53047 0
M  V30 7176 O 693.078 1.72401 -2.06231 0
M  V30 7177 C 691.349 -0.259649 -3.56456 0
M  V30 7178 S 692.908 0.137262 -4.38585 0
M  V30 7179 H 689.726 -0.0877362 -0.705566 0
M  V30 7180 H 692.328 -0.900547 -1.73523 0
M  V30 7181 H 691.032 -1.26256 -3.90497 0
M  V30 7182 H 690.563 0.444716 -3.90878 0
M  V30 7183 H 692.578 1.36787 -4.76973 0
M  V30 7184 N 691.751 1.51645 -0.429126 0
M  V30 7185 C 692.698 2.27542 0.386446 0
M  V30 7186 C 693.668 1.30786 1.02393 0
M  V30 7187 O 694.853 1.59678 1.0444 0
M  V30 7188 C 691.993 3.11457 1.48623 0
M  V30 7189 C 691.106 4.23196 0.867691 0
M  V30 7190 C 690.241 4.94435 1.94183 0
M  V30 7191 C 689.28 5.98108 1.30129 0
M  V30 7192 N 688.417 6.62786 2.31644 0
M  V30 7193 H 693.257 2.968 -0.267155 0
M  V30 7194 H 690.794 1.46397 -0.143591 0
M  V30 7195 H 692.752 3.58429 2.13506 0
M  V30 7196 H 691.382 2.44329 2.10957 0
M  V30 7197 H 690.434 3.80248 0.107373 0
M  V30 7198 H 691.746 4.97499 0.35997 0
M  V30 7199 H 690.9 5.44914 2.66747 0
M  V30 7200 H 689.639 4.19744 2.48326 0
M  V30 7201 H 688.644 5.4693 0.561082 0
M  V30 7202 H 689.869 6.74751 0.767303 0
M  V30 7203 H 687.815 5.90913 2.84883 0
M  V30 7204 H 687.732 7.32828 1.85741 0
M  V30 7205 H 689 7.17897 3.03717 0
M  V30 7206 N 693.229 0.160201 1.56784 0
M  V30 7207 C 694.139 -0.787167 2.21 0
M  V30 7208 C 695.155 -1.26167 1.19825 0
M  V30 7209 O 696.331 -1.31611 1.52448 0
M  V30 7210 C 693.396 -2.00364 2.8294 0
M  V30 7211 C 692.457 -1.5771 3.99282 0
M  V30 7212 C 691.69 -2.73558 4.58259 0
M  V30 7213 O 691.913 -3.90129 4.16119 0
M  V30 7214 O 690.847 -2.48271 5.48311 0
M  V30 7215 H 694.673 -0.270462 3.02493 0
M  V30 7216 H 692.258 -0.0674666 1.49248 0
M  V30 7217 H 694.14 -2.71529 3.22257 0
M  V30 7218 H 692.815 -2.50961 2.04451 0
M  V30 7219 H 691.722 -0.835274 3.64656 0
M  V30 7220 H 693.055 -1.11815 4.79331 0
M  V30 7221 N 694.707 -1.5719 -0.113559 0
M  V30 7222 C 695.953 -1.85412 -0.821597 0
M  V30 7223 C 696.286 -0.746722 -1.7927 0
M  V30 7224 O 695.561 0.246971 -1.92926 0
M  V30 7225 C 695.844 -3.24233 -1.56669 0
M  V30 7226 C 695.697 -4.45578 -0.614823 0
M  V30 7227 C 697.016 -3.60697 -2.52161 0
M  V30 7228 H 694.135 -0.674406 -0.29723 0
M  V30 7229 H 696.777 -1.89807 -0.085694 0
M  V30 7230 H 694.927 -3.20617 -2.19401 0
M  V30 7231 H 696.599 -4.613 0.00407137 0
M  V30 7232 H 694.842 -4.33738 0.0732332 0
M  V30 7233 H 695.513 -5.39395 -1.17292 0
M  V30 7234 H 697.989 -3.65139 -1.99532 0
M  V30 7235 H 696.865 -4.58798 -3.01323 0
M  V30 7236 H 697.126 -2.88403 -3.35076 0
M  V30 7237 N 696.185 0.383891 -1.52853 0
M  V30 7238 C 697.431 1.13009 -1.68395 0
M  V30 7239 C 697.764 1.89488 -0.425195 0
M  V30 7240 O 697.039 1.8574 0.577136 0
M  V30 7241 C 697.322 2.10419 -2.92226 0
M  V30 7242 C 697.175 1.3767 -4.28214 0
M  V30 7243 C 698.494 3.10781 -3.11614 0
M  V30 7244 H 695.613 0.409463 -0.612788 0
M  V30 7245 H 698.255 0.412895 -1.85459 0
M  V30 7246 H 696.405 2.71579 -2.77808 0
M  V30 7247 H 698.077 0.794352 -4.54409 0
M  V30 7248 H 696.32 0.678533 -4.2846 0
M  V30 7249 H 696.991 2.08874 -5.10956 0
M  V30 7250 H 699.467 2.59715 -3.25096 0
M  V30 7251 H 698.343 3.76179 -3.99725 0
M  V30 7252 H 698.604 3.79933 -2.2606 0
M  V30 7253 N 697.663 1.43903 0.642637 0
M  V30 7254 C 698.888 1.49758 1.43483 0
M  V30 7255 C 699.313 0.119911 1.87717 0
M  V30 7256 O 698.671 -0.888558 1.58033 0
M  V30 7257 C 698.719 2.45744 2.63898 0
M  V30 7258 O 697.823 1.95101 3.63331 0
M  V30 7259 H 697.164 0.506138 0.429791 0
M  V30 7260 H 699.694 1.88923 0.785438 0
M  V30 7261 H 699.704 2.63399 3.11584 0
M  V30 7262 H 698.379 3.45818 2.31046 0
M  V30 7263 H 696.956 1.87158 3.22531 0
M  V30 7264 N 699.141 -0.881989 1.30609 0
M  V30 7265 C 700.557 -1.16576 1.09005 0
M  V30 7266 C 700.757 -2.00961 -0.14727 0
M  V30 7267 O 699.813 -2.38117 -0.840036 0
M  V30 7268 C 701.126 -1.86954 2.35518 0
M  V30 7269 C 702.674 -1.99706 2.41011 0
M  V30 7270 C 703.149 -2.73497 3.67374 0
M  V30 7271 N 704.64 -2.8104 3.68199 0
M  V30 7272 C 705.375 -3.38718 4.62664 0
M  V30 7273 N 704.871 -3.97421 5.67475 0
M  V30 7274 N 706.664 -3.36561 4.50203 0
M  V30 7275 H 698.815 -0.319398 2.09985 0
M  V30 7276 H 701.078 -0.204058 0.925778 0
M  V30 7277 H 700.784 -1.32393 3.2583 0
M  V30 7278 H 700.658 -2.87317 2.44395 0
M  V30 7279 H 703.045 -2.53436 1.51176 0
M  V30 7280 H 703.126 -0.984218 2.36108 0
M  V30 7281 H 702.77 -2.20438 4.57569 0
M  V30 7282 H 702.7 -3.75163 3.6954 0
M  V30 7283 H 705.191 -2.39365 2.92426 0
M  V30 7284 H 705.504 -4.39507 6.35652 0
M  V30 7285 H 703.849 -3.95832 5.71264 0
M  V30 7286 H 707.04 -2.8993 3.67503 0
M  V30 7287 H 707.213 -3.81215 5.24003 0
M  V30 7288 N 700.619 -1.13374 -1.09472 0
M  V30 7289 C 701.867 -0.893422 -1.8128 0
M  V30 7290 C 702.188 0.582029 -1.86111 0
M  V30 7291 O 701.458 1.42305 -1.34633 0
M  V30 7292 H 700.038 -0.327543 -0.67136 0
M  V30 7293 H 702.7 -1.43018 -1.32408 0
M  V30 7294 H 701.796 -1.28374 -2.84476 0
M  V30 7295 N 702.098 1.27442 -0.927168 0
M  V30 7296 C 703.375 1.89473 -0.485742 0
M  V30 7297 C 703.755 1.83922 1.03614 0
M  V30 7298 O 703.103 1.28409 1.89007 0
M  V30 7299 C 703.313 3.33417 -1.03123 0
M  V30 7300 C 704.661 4.10333 -1.0914 0
M  V30 7301 O 705.685 3.4243 -0.98082 0
M  V30 7302 O 704.544 5.31737 -1.26165 0
M  V30 7303 H 701.638 0.812124 -0.156154 0
M  V30 7304 H 704.184 1.35713 -1.01882 0
M  V30 7305 H 702.956 3.31747 -2.07508 0
M  V30 7306 H 702.579 3.94695 -0.479767 0
M  V30 7307 N 703.576 0.692616 1.41565 0
M  V30 7308 C 704.853 0.150496 1.9502 0
M  V30 7309 C 705.233 -1.33881 1.63215 0
M  V30 7310 O 704.581 -2.08378 0.937598 0
M  V30 7311 C 704.791 0.438636 3.46233 0
M  V30 7312 C 706.139 0.364777 4.2303 0
M  V30 7313 O 707.163 0.373383 3.54238 0
M  V30 7314 O 706.022 0.32234 5.45549 0
M  V30 7315 H 703.116 0.0132454 0.826894 0
M  V30 7316 H 705.662 0.768574 1.51298 0
M  V30 7317 H 704.434 1.46962 3.62654 0
M  V30 7318 H 704.057 -0.210562 3.97042 0
M  V30 7319 N 705.054 -1.51416 0.437162 0
M  V30 7320 C 706.284 -2.06204 -0.127859 0
M  V30 7321 C 706.692 -1.30463 -1.37026 0
M  V30 7322 O 706.035 -0.357516 -1.80187 0
M  V30 7323 C 706.097 -3.55783 -0.515632 0
M  V30 7324 C 705.761 -4.52776 0.619937 0
M  V30 7325 C 706.758 -4.98031 1.49201 0
M  V30 7326 C 704.443 -4.95878 0.800618 0
M  V30 7327 C 706.437 -5.85061 2.52947 0
M  V30 7328 C 704.124 -5.82699 1.84135 0
M  V30 7329 C 705.122 -6.27188 2.70416 0
M  V30 7330 O 704.81 -7.12284 3.72702 0
M  V30 7331 H 704.542 -0.675903 -0.011442 0
M  V30 7332 H 707.096 -1.95977 0.614986 0
M  V30 7333 H 705.326 -3.63793 -1.31118 0
M  V30 7334 H 707.015 -3.93087 -1.01179 0
M  V30 7335 H 707.781 -4.65426 1.36395 0
M  V30 7336 H 703.66 -4.60792 0.138617 0
M  V30 7337 H 707.204 -6.19708 3.20325 0
M  V30 7338 H 703.101 -6.14717 1.9696 0
M  V30 7339 H 703.869 -7.30462 3.69281 0
M  V30 7340 O 706.571 -0.309557 -1.58506 0
M  V30 7341 H 707.262 0.253272 -1.92037 0
M  V30 END ATOM
M  V30 BEGIN BOND
M  V30 END BOND
M  V30 END CTAB
M  END
$$$$
