drugbank_target|Q09093 Cathepsin L1 (DB12245)
 OpenBabel12092121193D

304306  0  0  0  0  0  0  0  0999 V2000
   -0.9080    1.9825   -0.1171 H   0  0  0  0  0 15  0  0  0  0  0  0
    0.0000    1.5760    0.0000 N   0  0  0  0  0 15  0  0  0  0  0  0
    0.9630    2.0737    0.9763 C   0  0  0  0  0 15  0  0  0  0  0  0
    1.9630    0.9831    1.2725 C   0  0  0  0  0 15  0  0  0  0  0  0
    3.1530    1.2457    1.2177 O   0  0  0  0  0 15  0  0  0  0  0  0
    0.2850    2.5151    2.3012 C   0  0  0  0  0 15  0  0  0  0  0  0
    1.4780    2.9489    0.5458 H   0  0  0  0  0 15  0  0  0  0  0  0
   -0.9690    1.5433    0.2475 H   0  0  0  0  0 15  0  0  0  0  0  0
   -0.2340    1.6723    2.7785 H   0  0  0  0  0 15  0  0  0  0  0  0
   -0.4490    3.3116    2.0994 H   0  0  0  0  0 15  0  0  0  0  0  0
    1.0410    2.9035    3.0015 H   0  0  0  0  0 15  0  0  0  0  0  0
    1.4781   -0.2728    1.5522 N   0  0  0  0  0 15  0  0  0  0  0  0
    2.7241   -1.0058    1.7610 C   0  0  0  0  0 15  0  0  0  0  0  0
    3.0571   -1.8593    0.5606 C   0  0  0  0  0 15  0  0  0  0  0  0
    2.3321   -1.8942   -0.4418 O   0  0  0  0  0 15  0  0  0  0  0  0
    2.6151   -1.8882    3.0663 C   0  0  0  0  0 15  0  0  0  0  0  0
    2.4681   -1.0646    4.3702 C   0  0  0  0  0 15  0  0  0  0  0  0
    3.7871   -2.8752    3.3320 C   0  0  0  0  0 15  0  0  0  0  0  0
    0.9061   -0.3642    0.6407 H   0  0  0  0  0 15  0  0  0  0  0  0
    3.5481   -0.2782    1.8795 H   0  0  0  0  0 15  0  0  0  0  0  0
    1.6981   -2.5086    2.9665 H   0  0  0  0  0 15  0  0  0  0  0  0
    3.3701   -0.4649    4.5895 H   0  0  0  0  0 15  0  0  0  0  0  0
    1.6131   -0.3680    4.3224 H   0  0  0  0  0 15  0  0  0  0  0  0
    2.2841   -1.7151    5.2468 H   0  0  0  0  0 15  0  0  0  0  0  0
    4.7601   -2.3561    3.4296 H   0  0  0  0  0 15  0  0  0  0  0  0
    3.6361   -3.4640    4.2579 H   0  0  0  0  0 15  0  0  0  0  0  0
    3.8971   -3.6266    2.5285 H   0  0  0  0  0 15  0  0  0  0  0  0
    2.9562   -1.4816   -0.5373 N   0  0  0  0  0 15  0  0  0  0  0  0
    4.3672   -1.4943   -1.1193 C   0  0  0  0  0 15  0  0  0  0  0  0
    4.7182   -0.2600   -1.9447 C   0  0  0  0  0 15  0  0  0  0  0  0
    3.8432    0.6335   -2.0692 O   0  0  0  0  0 15  0  0  0  0  0  0
    4.4382   -2.7076   -2.0366 C   0  0  0  0  0 15  0  0  0  0  0  0
    2.9972   -2.7492   -2.5709 C   0  0  0  0  0 15  0  0  0  0  0  0
    2.1442   -2.4284   -1.3389 C   0  0  0  0  0 15  0  0  0  0  0  0
    5.0952   -1.5538   -0.3229 H   0  0  0  0  0 15  0  0  0  0  0  0
    5.1162   -2.4886   -2.8783 H   0  0  0  0  0 15  0  0  0  0  0  0
    4.6282   -3.6057   -1.4355 H   0  0  0  0  0 15  0  0  0  0  0  0
    2.7292   -1.8930   -3.2093 H   0  0  0  0  0 15  0  0  0  0  0  0
    2.8422   -3.7616   -2.9672 H   0  0  0  0  0 15  0  0  0  0  0  0
    1.2062   -1.9384   -1.6523 H   0  0  0  0  0 15  0  0  0  0  0  0
    1.9892   -3.3488   -0.7555 H   0  0  0  0  0 15  0  0  0  0  0  0
    4.4343    0.7856   -1.3662 N   0  0  0  0  0 15  0  0  0  0  0  0
    5.7113    1.5320   -1.2161 C   0  0  0  0  0 15  0  0  0  0  0  0
    6.0913    2.1019    0.1961 C   0  0  0  0  0 15  0  0  0  0  0  0
    5.4393    1.9432    1.2022 O   0  0  0  0  0 15  0  0  0  0  0  0
    5.6493    2.6239   -2.3012 C   0  0  0  0  0 15  0  0  0  0  0  0
    6.9973    3.3017   -2.6697 C   0  0  0  0  0 15  0  0  0  0  0  0
    8.0213    2.7267   -2.2919 O   0  0  0  0  0 15  0  0  0  0  0  0
    6.8803    4.3408   -3.3202 O   0  0  0  0  0 15  0  0  0  0  0  0
    3.9743    0.6779   -0.4737 H   0  0  0  0  0 15  0  0  0  0  0  0
    6.5203    0.8237   -1.4837 H   0  0  0  0  0 15  0  0  0  0  0  0
    5.2923    2.1830   -3.2475 H   0  0  0  0  0 15  0  0  0  0  0  0
    4.9153    3.4083   -2.0475 H   0  0  0  0  0 15  0  0  0  0  0  0
    5.9124    1.2097    1.0102 N   0  0  0  0  0 15  0  0  0  0  0  0
    6.8594    0.9643    2.0969 C   0  0  0  0  0 15  0  0  0  0  0  0
    7.8294   -0.1079    1.6575 C   0  0  0  0  0 15  0  0  0  0  0  0
    9.0144    0.0382    1.9076 O   0  0  0  0  0 15  0  0  0  0  0  0
    6.1544    0.5294    3.4101 C   0  0  0  0  0 15  0  0  0  0  0  0
    5.2674    1.6704    3.9840 C   0  0  0  0  0 15  0  0  0  0  0  0
    4.4024    1.1853    5.1781 C   0  0  0  0  0 15  0  0  0  0  0  0
    3.4414    2.2989    5.6729 C   0  0  0  0  0 15  0  0  0  0  0  0
    2.5784    1.8255    6.7795 N   0  0  0  0  0 15  0  0  0  0  0  0
    7.4184    1.8946    2.3002 H   0  0  0  0  0 15  0  0  0  0  0  0
    4.9554    0.9443    1.1279 H   0  0  0  0  0 15  0  0  0  0  0  0
    6.9134    0.2586    4.1640 H   0  0  0  0  0 15  0  0  0  0  0  0
    5.5434   -0.3639    3.2074 H   0  0  0  0  0 15  0  0  0  0  0  0
    4.5954    2.0560    3.2005 H   0  0  0  0  0 15  0  0  0  0  0  0
    5.9074    2.5088    4.3112 H   0  0  0  0  0 15  0  0  0  0  0  0
    5.0614    0.8708    6.0042 H   0  0  0  0  0 15  0  0  0  0  0  0
    3.8004    0.3169    4.8667 H   0  0  0  0  0 15  0  0  0  0  0  0
    2.8054    2.6215    4.8328 H   0  0  0  0  0 15  0  0  0  0  0  0
    4.0304    3.1722    6.0046 H   0  0  0  0  0 15  0  0  0  0  0  0
    1.9764    0.9805    6.4863 H   0  0  0  0  0 15  0  0  0  0  0  0
    1.8934    2.5996    7.0990 H   0  0  0  0  0 15  0  0  0  0  0  0
    3.1614    1.5412    7.6411 H   0  0  0  0  0 15  0  0  0  0  0  0
    7.3905   -1.2043    1.0166 N   0  0  0  0  0 15  0  0  0  0  0  0
    8.6395   -1.8912    0.7012 C   0  0  0  0  0 15  0  0  0  0  0  0
    8.9525   -1.7971   -0.7724 C   0  0  0  0  0 15  0  0  0  0  0  0
   10.1585   -2.4353   -1.2003 O   0  0  0  0  0 15  0  0  0  0  0  0
    8.6145   -3.3917    1.2039 C   0  0  0  0  0 15  0  0  0  0  0  0
    8.2225   -3.5717    2.7044 C   0  0  0  0  0 15  0  0  0  0  0  0
    9.9665   -4.1341    0.9640 C   0  0  0  0  0 15  0  0  0  0  0  0
    7.8735   -5.0104    3.1418 C   0  0  0  0  0 15  0  0  0  0  0  0
    6.8035   -0.7083    0.2586 H   0  0  0  0  0 15  0  0  0  0  0  0
    9.4545   -1.3624    1.2293 H   0  0  0  0  0 15  0  0  0  0  0  0
    7.8365   -3.9137    0.6038 H   0  0  0  0  0 15  0  0  0  0  0  0
    9.0105   -3.1535    3.3599 H   0  0  0  0  0 15  0  0  0  0  0  0
    7.3255   -2.9629    2.9257 H   0  0  0  0  0 15  0  0  0  0  0  0
    9.9225   -5.1949    1.2662 H   0  0  0  0  0 15  0  0  0  0  0  0
   10.2655   -4.1618   -0.0996 H   0  0  0  0  0 15  0  0  0  0  0  0
   10.7985   -3.6731    1.5274 H   0  0  0  0  0 15  0  0  0  0  0  0
    7.5375   -5.0343    4.1981 H   0  0  0  0  0 15  0  0  0  0  0  0
    7.0575   -5.4367    2.5335 H   0  0  0  0  0 15  0  0  0  0  0  0
    8.7365   -5.6962    3.0682 H   0  0  0  0  0 15  0  0  0  0  0  0
    8.8686   -0.7928   -1.3621 N   0  0  0  0  0 15  0  0  0  0  0  0
   10.1456   -0.2906   -1.9343 C   0  0  0  0  0 15  0  0  0  0  0  0
   10.5256    1.2177   -1.7244 C   0  0  0  0  0 15  0  0  0  0  0  0
    9.8736    2.0108   -1.0853 O   0  0  0  0  0 15  0  0  0  0  0  0
   10.0836   -0.6870   -3.4217 C   0  0  0  0  0 15  0  0  0  0  0  0
   11.4316   -0.6686   -4.1930 C   0  0  0  0  0 15  0  0  0  0  0  0
   12.4556   -0.6277   -3.5063 O   0  0  0  0  0 15  0  0  0  0  0  0
   11.3146   -0.7146   -5.4181 O   0  0  0  0  0 15  0  0  0  0  0  0
    8.4086   -0.0728   -0.8238 H   0  0  0  0  0 15  0  0  0  0  0  0
   10.9546   -0.8756   -1.4537 H   0  0  0  0  0 15  0  0  0  0  0  0
    9.7266   -1.7271   -3.5112 H   0  0  0  0  0 15  0  0  0  0  0  0
    9.3496   -0.0761   -3.9753 H   0  0  0  0  0 15  0  0  0  0  0  0
   10.3467    1.4787   -0.5451 N   0  0  0  0  0 15  0  0  0  0  0  0
   11.7577    1.8638   -0.1086 C   0  0  0  0  0 15  0  0  0  0  0  0
   12.1087    1.4531    1.3183 C   0  0  0  0  0 15  0  0  0  0  0  0
   11.2337    0.8506    1.9898 O   0  0  0  0  0 15  0  0  0  0  0  0
   11.8287    3.3827   -0.1903 C   0  0  0  0  0 15  0  0  0  0  0  0
   10.3877    3.7591    0.1912 C   0  0  0  0  0 15  0  0  0  0  0  0
    9.5347    2.7193   -0.5433 C   0  0  0  0  0 15  0  0  0  0  0  0
   12.4857    1.3956   -0.7555 H   0  0  0  0  0 15  0  0  0  0  0  0
   12.5067    3.7583    0.5942 H   0  0  0  0  0 15  0  0  0  0  0  0
   12.0187    3.6813   -1.2289 H   0  0  0  0  0 15  0  0  0  0  0  0
   10.1197    3.5167    1.2314 H   0  0  0  0  0 15  0  0  0  0  0  0
   10.2327    4.7884   -0.1590 H   0  0  0  0  0 15  0  0  0  0  0  0
    8.5967    2.5470    0.0122 H   0  0  0  0  0 15  0  0  0  0  0  0
    9.3797    3.0463   -1.5828 H   0  0  0  0  0 15  0  0  0  0  0  0
   11.8248    0.2810    1.5507 N   0  0  0  0  0 15  0  0  0  0  0  0
   13.2408   -0.0730    1.5943 C   0  0  0  0  0 15  0  0  0  0  0  0
   13.4408   -1.5411    1.2982 C   0  0  0  0  0 15  0  0  0  0  0  0
   12.4968   -2.2909    1.0619 O   0  0  0  0  0 15  0  0  0  0  0  0
   13.8098    0.3069    2.9913 C   0  0  0  0  0 15  0  0  0  0  0  0
   15.3578    0.2540    3.1197 C   0  0  0  0  0 15  0  0  0  0  0  0
   15.8328    0.6085    4.5394 C   0  0  0  0  0 15  0  0  0  0  0  0
   17.3238    0.5602    4.5980 N   0  0  0  0  0 15  0  0  0  0  0  0
   18.0588    0.8072    5.6769 C   0  0  0  0  0 15  0  0  0  0  0  0
   17.5548    1.1191    6.8370 N   0  0  0  0  0 15  0  0  0  0  0  0
   19.3478    0.7356    5.5727 N   0  0  0  0  0 15  0  0  0  0  0  0
   11.4988    1.2380    1.7259 H   0  0  0  0  0 15  0  0  0  0  0  0
   13.7618    0.5005    0.8051 H   0  0  0  0  0 15  0  0  0  0  0  0
   13.4678    1.3282    3.2566 H   0  0  0  0  0 15  0  0  0  0  0  0
   13.3418   -0.3494    3.7558 H   0  0  0  0  0 15  0  0  0  0  0  0
   15.7288   -0.7579    2.8520 H   0  0  0  0  0 15  0  0  0  0  0  0
   15.8098    0.9446    2.3772 H   0  0  0  0  0 15  0  0  0  0  0  0
   15.4538    1.6181    4.8143 H   0  0  0  0  0 15  0  0  0  0  0  0
   15.3838   -0.1040    5.2650 H   0  0  0  0  0 15  0  0  0  0  0  0
   17.8748    0.3293    3.7646 H   0  0  0  0  0 15  0  0  0  0  0  0
   18.1878    1.2941    7.6189 H   0  0  0  0  0 15  0  0  0  0  0  0
   16.5328    1.1570    6.8530 H   0  0  0  0  0 15  0  0  0  0  0  0
   19.7238    0.4918    4.6551 H   0  0  0  0  0 15  0  0  0  0  0  0
   19.8968    0.9315    6.4127 H   0  0  0  0  0 15  0  0  0  0  0  0
   13.3029   -1.5760    0.0084 N   0  0  0  0  0 15  0  0  0  0  0  0
   14.2129   -2.1238   -0.9965 C   0  0  0  0  0 15  0  0  0  0  0  0
   15.2289   -1.0711   -1.3713 C   0  0  0  0  0 15  0  0  0  0  0  0
   16.4049   -1.3905   -1.4569 O   0  0  0  0  0 15  0  0  0  0  0  0
   13.4699   -2.6231   -2.2670 C   0  0  0  0  0 15  0  0  0  0  0  0
   12.5309   -3.8222   -1.9546 C   0  0  0  0  0 15  0  0  0  0  0  0
   11.7639   -4.2976   -3.1645 C   0  0  0  0  0 15  0  0  0  0  0  0
   11.9869   -3.7658   -4.2842 O   0  0  0  0  0 15  0  0  0  0  0  0
   10.9209   -5.2183   -2.9996 O   0  0  0  0  0 15  0  0  0  0  0  0
   14.7469   -2.9848   -0.5607 H   0  0  0  0  0 15  0  0  0  0  0  0
   12.3319   -1.4790   -0.2110 H   0  0  0  0  0 15  0  0  0  0  0  0
   14.2139   -2.9459   -3.0132 H   0  0  0  0  0 15  0  0  0  0  0  0
   12.8889   -1.7931   -2.6950 H   0  0  0  0  0 15  0  0  0  0  0  0
   11.7959   -3.5491   -1.1828 H   0  0  0  0  0 15  0  0  0  0  0  0
   13.1289   -4.6632   -1.5749 H   0  0  0  0  0 15  0  0  0  0  0  0
   14.7810    0.2645   -1.5536 N   0  0  0  0  0 15  0  0  0  0  0  0
   16.0060    1.0173   -1.8074 C   0  0  0  0  0 15  0  0  0  0  0  0
   16.4310    1.7884   -0.5830 C   0  0  0  0  0 15  0  0  0  0  0  0
   15.7890    1.7517    0.4676 O   0  0  0  0  0 15  0  0  0  0  0  0
   15.8370    1.9448   -3.0366 C   0  0  0  0  0 15  0  0  0  0  0  0
   14.9410    3.0339   -2.7934 O   0  0  0  0  0 15  0  0  0  0  0  0
   14.2820    0.2904   -0.5971 H   0  0  0  0  0 15  0  0  0  0  0  0
   16.8120    0.2909   -2.0252 H   0  0  0  0  0 15  0  0  0  0  0  0
   16.8220    2.3628   -3.3262 H   0  0  0  0  0 15  0  0  0  0  0  0
   15.4970    1.3777   -3.9242 H   0  0  0  0  0 15  0  0  0  0  0  0
   14.0740    2.6584   -2.6150 H   0  0  0  0  0 15  0  0  0  0  0  0
   16.2591    1.4844    0.5294 N   0  0  0  0  0 15  0  0  0  0  0  0
   17.5071    1.5618    1.2827 C   0  0  0  0  0 15  0  0  0  0  0  0
   17.8281    0.2377    1.9355 C   0  0  0  0  0 15  0  0  0  0  0  0
   17.0981   -0.7408    1.8135 O   0  0  0  0  0 15  0  0  0  0  0  0
   15.6781    0.5754    0.4764 H   0  0  0  0  0 15  0  0  0  0  0  0
   18.3401    1.8491    0.6160 H   0  0  0  0  0 15  0  0  0  0  0  0
   17.4361    2.3431    2.0617 H   0  0  0  0  0 15  0  0  0  0  0  0
   17.7372   -0.7783    1.3704 N   0  0  0  0  0 15  0  0  0  0  0  0
   18.9672   -1.5651    1.3487 C   0  0  0  0  0 15  0  0  0  0  0  0
   19.3752   -1.8907   -0.0695 C   0  0  0  0  0 15  0  0  0  0  0  0
   18.7182   -1.5143   -1.0399 O   0  0  0  0  0 15  0  0  0  0  0  0
   18.7802   -2.9064    2.1159 C   0  0  0  0  0 15  0  0  0  0  0  0
   18.4442   -2.8075    3.6060 C   0  0  0  0  0 15  0  0  0  0  0  0
   19.4412   -2.5223    4.5462 C   0  0  0  0  0 15  0  0  0  0  0  0
   17.1262   -2.9897    4.0363 C   0  0  0  0  0 15  0  0  0  0  0  0
   19.1202   -2.4205    5.8965 C   0  0  0  0  0 15  0  0  0  0  0  0
   16.8072   -2.8842    5.3875 C   0  0  0  0  0 15  0  0  0  0  0  0
   17.8052   -2.6000    6.3158 C   0  0  0  0  0 15  0  0  0  0  0  0
   17.4932   -2.4946    7.6421 O   0  0  0  0  0 15  0  0  0  0  0  0
   17.2252   -0.4917    0.4639 H   0  0  0  0  0 15  0  0  0  0  0  0
   19.7792   -0.9731    1.8089 H   0  0  0  0  0 15  0  0  0  0  0  0
   18.0092   -3.5194    1.6024 H   0  0  0  0  0 15  0  0  0  0  0  0
   19.6982   -3.5199    2.0213 H   0  0  0  0  0 15  0  0  0  0  0  0
   20.4642   -2.3784    4.2268 H   0  0  0  0  0 15  0  0  0  0  0  0
   16.3432   -3.2010    3.3175 H   0  0  0  0  0 15  0  0  0  0  0  0
   19.8872   -2.1979    6.6207 H   0  0  0  0  0 15  0  0  0  0  0  0
   15.7842   -3.0238    5.7030 H   0  0  0  0  0 15  0  0  0  0  0  0
   16.5522   -2.6486    7.7446 H   0  0  0  0  0 15  0  0  0  0  0  0
   19.2153   -1.2150   -1.0038 N   0  0  0  0  0 15  0  0  0  0  0  0
   20.4613   -1.0345   -1.7443 C   0  0  0  0  0 15  0  0  0  0  0  0
   20.7943    0.4308   -1.8936 C   0  0  0  0  0 15  0  0  0  0  0  0
   20.0693    1.3196   -1.4289 O   0  0  0  0  0 15  0  0  0  0  0  0
   20.3523   -1.7338   -3.1562 C   0  0  0  0  0 15  0  0  0  0  0  0
   20.2053   -3.2743   -3.0840 C   0  0  0  0  0 15  0  0  0  0  0  0
   21.5243   -1.4773   -4.1456 C   0  0  0  0  0 15  0  0  0  0  0  0
   18.6433   -0.3772   -0.6331 H   0  0  0  0  0 15  0  0  0  0  0  0
   21.2853   -1.4969   -1.1701 H   0  0  0  0  0 15  0  0  0  0  0  0
   19.4353   -1.3406   -3.6464 H   0  0  0  0  0 15  0  0  0  0  0  0
   21.1073   -3.7612   -2.6708 H   0  0  0  0  0 15  0  0  0  0  0  0
   19.3503   -3.5767   -2.4547 H   0  0  0  0  0 15  0  0  0  0  0  0
   20.0213   -3.7152   -4.0826 H   0  0  0  0  0 15  0  0  0  0  0  0
   22.4973   -1.8186   -3.7425 H   0  0  0  0  0 15  0  0  0  0  0  0
   21.3733   -1.9917   -5.1149 H   0  0  0  0  0 15  0  0  0  0  0  0
   21.6343   -0.4076   -4.4022 H   0  0  0  0  0 15  0  0  0  0  0  0
   20.6934    1.1989   -1.0230 N   0  0  0  0  0 15  0  0  0  0  0  0
   21.9214    1.9339   -0.7354 C   0  0  0  0  0 15  0  0  0  0  0  0
   22.3364    1.7515    0.7049 C   0  0  0  0  0 15  0  0  0  0  0  0
   21.6934    1.0695    1.4787 O   0  0  0  0  0 15  0  0  0  0  0  0
   21.7444    3.4531   -1.0696 C   0  0  0  0  0 15  0  0  0  0  0  0
   21.4654    3.6296   -2.4533 O   0  0  0  0  0 15  0  0  0  0  0  0
   22.9664    4.3595   -0.8040 C   0  0  0  0  0 15  0  0  0  0  0  0
   20.1864    0.6145   -0.2695 H   0  0  0  0  0 15  0  0  0  0  0  0
   22.7304    1.5220   -1.3659 H   0  0  0  0  0 15  0  0  0  0  0  0
   20.8854    3.8436   -0.4845 H   0  0  0  0  0 15  0  0  0  0  0  0
   21.2994    4.5689   -2.5760 H   0  0  0  0  0 15  0  0  0  0  0  0
   22.7734    5.4117   -1.0879 H   0  0  0  0  0 15  0  0  0  0  0  0
   23.2504    4.3842    0.2617 H   0  0  0  0  0 15  0  0  0  0  0  0
   23.8564    4.0257   -1.3716 H   0  0  0  0  0 15  0  0  0  0  0  0
   22.1715    0.8000    1.3578 N   0  0  0  0  0 15  0  0  0  0  0  0
   23.4195    0.3766    1.9856 C   0  0  0  0  0 15  0  0  0  0  0  0
   23.7405   -1.0581    1.6379 C   0  0  0  0  0 15  0  0  0  0  0  0
   23.0105   -1.7310    0.9172 O   0  0  0  0  0 15  0  0  0  0  0  0
   21.5905    0.1363    0.7345 H   0  0  0  0  0 15  0  0  0  0  0  0
   24.2525    1.0244    1.6581 H   0  0  0  0  0 15  0  0  0  0  0  0
   23.3485    0.4770    3.0843 H   0  0  0  0  0 15  0  0  0  0  0  0
   23.6496   -1.4758    0.5530 N   0  0  0  0  0 15  0  0  0  0  0  0
   24.8956   -2.0278    0.0274 C   0  0  0  0  0 15  0  0  0  0  0  0
   25.2286   -1.4269   -1.3173 C   0  0  0  0  0 15  0  0  0  0  0  0
   24.5036   -0.5809   -1.8562 O   0  0  0  0  0 15  0  0  0  0  0  0
   24.7866   -3.6003   -0.0702 C   0  0  0  0  0 15  0  0  0  0  0  0
   24.6396   -4.3057    1.3013 C   0  0  0  0  0 15  0  0  0  0  0  0
   25.9586   -4.3303   -0.7858 C   0  0  0  0  0 15  0  0  0  0  0  0
   23.0776   -0.7369    0.0114 H   0  0  0  0  0 15  0  0  0  0  0  0
   25.7196   -1.7606    0.7144 H   0  0  0  0  0 15  0  0  0  0  0  0
   23.8696   -3.8293   -0.6554 H   0  0  0  0  0 15  0  0  0  0  0  0
   25.5416   -4.1902    1.9293 H   0  0  0  0  0 15  0  0  0  0  0  0
   23.7846   -3.9109    1.8771 H   0  0  0  0  0 15  0  0  0  0  0  0
   24.4556   -5.3911    1.1857 H   0  0  0  0  0 15  0  0  0  0  0  0
   26.9316   -4.1510   -0.2890 H   0  0  0  0  0 15  0  0  0  0  0  0
   25.8076   -5.4269   -0.8230 H   0  0  0  0  0 15  0  0  0  0  0  0
   26.0686   -4.0194   -1.8410 H   0  0  0  0  0 15  0  0  0  0  0  0
   25.1277   -0.2892   -1.5492 N   0  0  0  0  0 15  0  0  0  0  0  0
   26.0747    0.5921   -2.2308 C   0  0  0  0  0 15  0  0  0  0  0  0
   27.0447    1.1388   -1.2091 C   0  0  0  0  0 15  0  0  0  0  0  0
   28.2297    1.1855   -1.4950 O   0  0  0  0  0 15  0  0  0  0  0  0
   25.3697    1.7638   -2.9662 C   0  0  0  0  0 15  0  0  0  0  0  0
   24.4827    1.2496   -4.1353 C   0  0  0  0  0 15  0  0  0  0  0  0
   23.6177    2.3842   -4.7469 C   0  0  0  0  0 15  0  0  0  0  0  0
   22.6567    1.8407   -5.8377 C   0  0  0  0  0 15  0  0  0  0  0  0
   21.7937    2.9106   -6.3893 N   0  0  0  0  0 15  0  0  0  0  0  0
   26.6337    0.0043   -2.9800 H   0  0  0  0  0 15  0  0  0  0  0  0
   24.1707   -0.0096   -1.4710 H   0  0  0  0  0 15  0  0  0  0  0  0
   26.1287    2.4527   -3.3749 H   0  0  0  0  0 15  0  0  0  0  0  0
   24.7587    2.3234   -2.2410 H   0  0  0  0  0 15  0  0  0  0  0  0
   23.8107    0.4533   -3.7769 H   0  0  0  0  0 15  0  0  0  0  0  0
   25.1227    0.8117   -4.9215 H   0  0  0  0  0 15  0  0  0  0  0  0
   24.2767    3.1528   -5.1835 H   0  0  0  0  0 15  0  0  0  0  0  0
   23.0157    2.8553   -3.9538 H   0  0  0  0  0 15  0  0  0  0  0  0
   22.0207    1.0570   -5.3954 H   0  0  0  0  0 15  0  0  0  0  0  0
   23.2457    1.3788   -6.6496 H   0  0  0  0  0 15  0  0  0  0  0  0
   21.1917    3.3753   -5.6251 H   0  0  0  0  0 15  0  0  0  0  0  0
   21.1087    2.5172   -7.1286 H   0  0  0  0  0 15  0  0  0  0  0  0
   22.3767    3.6785   -6.8725 H   0  0  0  0  0 15  0  0  0  0  0  0
   26.6058    1.5759   -0.0167 N   0  0  0  0  0 15  0  0  0  0  0  0
   27.8828    1.8255    0.7026 C   0  0  0  0  0 15  0  0  0  0  0  0
   28.2628    0.8980    1.9105 C   0  0  0  0  0 15  0  0  0  0  0  0
   27.6108   -0.0493    2.2845 O   0  0  0  0  0 15  0  0  0  0  0  0
   27.8208    3.3146    1.0925 C   0  0  0  0  0 15  0  0  0  0  0  0
   29.1688    3.9762    1.4894 C   0  0  0  0  0 15  0  0  0  0  0  0
   30.1928    3.3588    1.1858 O   0  0  0  0  0 15  0  0  0  0  0  0
   29.0518    5.0641    2.0544 O   0  0  0  0  0 15  0  0  0  0  0  0
   26.1458    0.7523    0.3435 H   0  0  0  0  0 15  0  0  0  0  0  0
   28.6918    1.6964   -0.0434 H   0  0  0  0  0 15  0  0  0  0  0  0
   27.4638    3.9061    0.2323 H   0  0  0  0  0 15  0  0  0  0  0  0
   27.0868    3.4942    1.8971 H   0  0  0  0  0 15  0  0  0  0  0  0
   28.0839   -0.2563    1.5550 N   0  0  0  0  0 15  0  0  0  0  0  0
   29.0159   -1.3398    1.8596 C   0  0  0  0  0 15  0  0  0  0  0  0
   30.0289   -1.4474    0.7452 C   0  0  0  0  0 15  0  0  0  0  0  0
   31.2179   -1.4626    1.0232 O   0  0  0  0  0 15  0  0  0  0  0  0
   28.3179   -2.7194    2.0224 C   0  0  0  0  0 15  0  0  0  0  0  0
   27.4909   -2.8356    3.3303 C   0  0  0  0  0 15  0  0  0  0  0  0
   26.5499   -4.0230    3.3917 C   0  0  0  0  0 15  0  0  0  0  0  0
   25.5759   -3.9227    4.1244 O   0  0  0  0  0 15  0  0  0  0  0  0
   26.7779   -5.1505    2.6778 N   0  0  0  0  0 15  0  0  0  0  0  0
   29.5429   -1.0819    2.7949 H   0  0  0  0  0 15  0  0  0  0  0  0
   27.1039   -0.4464    1.5562 H   0  0  0  0  0 15  0  0  0  0  0  0
   29.0959   -3.4970    2.0370 H   0  0  0  0  0 15  0  0  0  0  0  0
   27.6659   -2.9048    1.1550 H   0  0  0  0  0 15  0  0  0  0  0  0
   26.8859   -1.9256    3.4397 H   0  0  0  0  0 15  0  0  0  0  0  0
   28.1739   -2.8827    4.1926 H   0  0  0  0  0 15  0  0  0  0  0  0
   27.5719   -5.2609    2.0797 H   0  0  0  0  0 15  0  0  0  0  0  0
   26.1289   -5.9097    2.7495 H   0  0  0  0  0 15  0  0  0  0  0  0
   29.6009   -1.5642   -0.4020 O   0  0  0  0  0 15  0  0  0  0  0  0
   30.2919   -1.6249   -1.0543 H   0  0  0  0  0 15  0  0  0  0  0  0
M  END
$$$$
