drugbank_target|P18085 ADP-ribosylation factor 4 (DB04315)
 OpenBabel12092120293D

  0  0  0     0  0            999 V3000
M  V30 BEGIN CTAB
M  V30 COUNTS 2914 2937 0 0 0
M  V30 BEGIN ATOM
M  V30 1 H -0.908 1.98254 -0.117106 0
M  V30 2 N 0 1.576 0 0
M  V30 3 C 0.933 2.03868 1.02534 0
M  V30 4 C 1.911 0.928543 1.3348 0
M  V30 5 O 3.095 1.19667 1.45644 0
M  V30 6 C 0.222 2.43627 2.35294 0
M  V30 7 C -0.732 3.65373 2.2001 0
M  V30 8 S 0.101 5.13292 1.52614 0
M  V30 9 C 1.257 5.56322 2.86805 0
M  V30 10 H 1.49 2.90518 0.631377 0
M  V30 11 H -0.977 1.52953 0.210867 0
M  V30 12 H 0.981 2.67203 3.11629 0
M  V30 13 H -0.358 1.57376 2.7183 0
M  V30 14 H -1.165 3.90944 3.18086 0
M  V30 15 H -1.563 3.418 1.51819 0
M  V30 16 H 0.729 5.58782 3.83104 0
M  V30 17 H 1.672 6.56266 2.65933 0
M  V30 18 H 2.08 4.83886 2.90714 0
M  V30 19 N 1.4781 -0.272755 1.55222 0
M  V30 20 C 2.7261 -1.00234 1.75492 0
M  V30 21 C 3.0471 -1.8681 0.5592 0
M  V30 22 O 2.3171 -1.91215 -0.425882 0
M  V30 23 H 0.8971 -0.373076 0.647166 0
M  V30 24 H 3.5591 -0.296926 1.92625 0
M  V30 25 H 2.6551 -1.63913 2.65592 0
M  V30 26 N 2.9562 -1.48159 -0.537278 0
M  V30 27 C 3.8862 -1.65029 -1.6519 0
M  V30 28 C 4.8672 -0.499281 -1.62607 0
M  V30 29 O 6.0522 -0.730972 -1.79918 0
M  V30 30 C 3.1822 -1.68303 -3.03795 0
M  V30 31 C 2.1362 -2.8283 -3.21234 0
M  V30 32 C 1.4622 -2.71189 -4.60826 0
M  V30 33 C 2.7622 -4.24211 -3.04701 0
M  V30 34 H 4.4562 -2.58341 -1.51328 0
M  V30 35 H 2.0022 -1.24325 -0.726585 0
M  V30 36 H 3.9552 -1.78693 -3.81637 0
M  V30 37 H 2.6792 -0.715635 -3.18663 0
M  V30 38 H 1.3382 -2.71983 -2.45807 0
M  V30 39 H 0.9862 -1.72435 -4.7252 0
M  V30 40 H 0.6862 -3.48035 -4.7344 0
M  V30 41 H 2.2102 -2.83537 -5.40777 0
M  V30 42 H 3.6242 -4.3593 -3.72341 0
M  V30 43 H 2.0212 -5.01998 -3.28813 0
M  V30 44 H 3.0912 -4.41184 -2.01209 0
M  V30 45 N 4.4343 0.785586 -1.36625 0
M  V30 46 C 5.6623 1.57448 -1.3423 0
M  V30 47 C 6.0773 1.88649 0.0755653 0
M  V30 48 O 5.4343 1.50414 1.03354 0
M  V30 49 C 5.4853 2.89316 -2.16745 0
M  V30 50 O 5.2063 2.59459 -3.53005 0
M  V30 51 C 6.7073 3.83606 -2.22174 0
M  V30 52 H 3.9273 0.488226 -0.4603 0
M  V30 53 H 6.4713 0.974733 -1.79775 0
M  V30 54 H 4.6263 3.4575 -1.74745 0
M  V30 55 H 5.0403 3.43804 -3.96105 0
M  V30 56 H 6.5143 4.73181 -2.8426 0
M  V30 57 H 6.9913 4.21734 -1.22627 0
M  V30 58 H 7.5973 3.33104 -2.64427 0
M  V30 59 N 5.9124 1.20967 1.01018 0
M  V30 60 C 7.1614 1.01796 1.74128 0
M  V30 61 C 7.4744 -0.449691 1.90361 0
M  V30 62 O 8.6804 -0.76068 2.60626 0
M  V30 63 C 7.1364 1.7727 3.13215 0
M  V30 64 C 6.7444 3.28171 3.04972 0
M  V30 65 C 8.4884 1.66489 3.90489 0
M  V30 66 C 6.3954 3.96156 4.39107 0
M  V30 67 H 5.3254 0.377276 0.652824 0
M  V30 68 H 7.9764 1.44651 1.12909 0
M  V30 69 H 6.3584 1.27205 3.75013 0
M  V30 70 H 7.5324 3.85499 2.52443 0
M  V30 71 H 5.8474 3.39437 2.41188 0
M  V30 72 H 8.4444 2.14617 4.89738 0
M  V30 73 H 8.7874 0.6222 4.11624 0
M  V30 74 H 9.3204 2.14003 3.35332 0
M  V30 75 H 6.0594 5.00604 4.23174 0
M  V30 76 H 5.5794 3.43617 4.91617 0
M  V30 77 H 7.2584 4.00774 5.07926 0
M  V30 78 N 7.3905 -1.2043 1.01659 0
M  V30 79 C 8.6155 -1.94318 0.724942 0
M  V30 80 C 9.0405 -1.74266 -0.708034 0
M  V30 81 O 8.3985 -1.03694 -1.48719 0
M  V30 82 C 8.4465 -3.44486 1.06591 0
M  V30 83 O 7.5505 -4.12017 0.177599 0
M  V30 84 H 6.8915 -0.60708 0.26898 0
M  V30 85 H 9.4215 -1.52861 1.35995 0
M  V30 86 H 9.4315 -3.95106 1.01762 0
M  V30 87 H 8.1065 -3.58404 2.10997 0
M  V30 88 H 6.6835 -3.71821 0.283421 0
M  V30 89 N 8.8686 -0.792821 -1.36206 0
M  V30 90 C 10.0936 -0.377701 -2.03932 0
M  V30 91 C 10.5186 0.998947 -1.59382 0
M  V30 92 O 9.8766 1.64421 -0.763903 0
M  V30 93 C 9.9246 -0.453635 -3.57735 0
M  V30 94 O 9.0286 0.538151 -4.08874 0
M  V30 95 H 8.3696 -0.159855 -0.644471 0
M  V30 96 H 10.8996 -1.07488 -1.7409 0
M  V30 97 H 10.9096 -0.318464 -4.06755 0
M  V30 98 H 9.5846 -1.45784 -3.89512 0
M  V30 99 H 8.1616 0.364359 -3.71116 0
M  V30 100 N 10.3467 1.47872 -0.545128 0
M  V30 101 C 11.2767 2.32661 0.197793 0
M  V30 102 C 12.2577 1.43041 0.920504 0
M  V30 103 O 13.4427 1.71912 0.90333 0
M  V30 104 C 10.5727 3.24569 1.23582 0
M  V30 105 C 9.5267 4.23333 0.630323 0
M  V30 106 C 8.8527 5.0448 1.77211 0
M  V30 107 C 10.1527 5.20704 -0.407974 0
M  V30 108 H 11.8467 2.95024 -0.510045 0
M  V30 109 H 9.3927 1.4187 -0.246731 0
M  V30 110 H 11.3457 3.8272 1.76362 0
M  V30 111 H 10.0697 2.60236 1.97344 0
M  V30 112 H 8.7287 3.6639 0.123922 0
M  V30 113 H 8.3767 4.36561 2.49847 0
M  V30 114 H 8.0767 5.71339 1.37281 0
M  V30 115 H 9.6007 5.65487 2.3034 0
M  V30 116 H 11.0147 5.7329 0.033305 0
M  V30 117 H 9.4117 5.95699 -0.725486 0
M  V30 118 H 10.4817 4.66917 -1.30828 0
M  V30 119 N 11.8248 0.280983 1.55075 0
M  V30 120 C 13.0718 -0.334115 1.99725 0
M  V30 121 C 13.3998 -1.5542 1.1694 0
M  V30 122 O 12.6548 -1.94361 0.228531 0
M  V30 123 C 12.9538 -0.754656 3.49342 0
M  V30 124 C 12.6198 0.361445 4.49449 0
M  V30 125 C 11.2818 0.667893 4.76542 0
M  V30 126 C 13.6338 1.11322 5.09173 0
M  V30 127 C 10.9618 1.7296 5.60626 0
M  V30 128 C 13.3138 2.1647 5.9441 0
M  V30 129 C 11.9778 2.47742 6.19822 0
M  V30 130 H 11.2478 -0.122261 0.730844 0
M  V30 131 H 13.8948 0.395917 1.87363 0
M  V30 132 H 12.1998 -1.56446 3.5921 0
M  V30 133 H 13.8968 -1.24142 3.813 0
M  V30 134 H 10.4868 0.112481 4.28452 0
M  V30 135 H 14.6708 0.88973 4.8826 0
M  V30 136 H 9.9268 1.97684 5.78559 0
M  V30 137 H 14.1008 2.75193 6.3972 0
M  V30 138 H 11.7278 3.30145 6.84769 0
M  V30 139 N 13.3029 -1.57598 0.00835791 0
M  V30 140 C 14.5279 -1.95617 -0.689103 0
M  V30 141 C 14.9529 -0.883753 -1.66046 0
M  V30 142 O 14.3109 0.157352 -1.80616 0
M  V30 143 C 14.3589 -3.32736 -1.38994 0
M  V30 144 O 13.4629 -3.27631 -2.50463 0
M  V30 145 H 12.8039 -0.638379 -0.182668 0
M  V30 146 H 15.3339 -2.045 0.064036 0
M  V30 147 H 15.3439 -3.68494 -1.75147 0
M  V30 148 H 14.0189 -4.1034 -0.677778 0
M  V30 149 H 12.5959 -3.03561 -2.16576 0
M  V30 150 N 14.781 0.264519 -1.55364 0
M  V30 151 C 16.197 0.61215 -1.47394 0
M  V30 152 C 16.397 1.89134 -0.695018 0
M  V30 153 O 15.453 2.51563 -0.217275 0
M  V30 154 C 16.766 0.731235 -2.91674 0
M  V30 155 C 18.314 0.82473 -3.01939 0
M  V30 156 C 18.789 0.975522 -4.4749 0
M  V30 157 N 20.28 1.04083 -4.51354 0
M  V30 158 C 21.015 1.17646 -5.61201 0
M  V30 159 N 20.511 1.27874 -6.80896 0
M  V30 160 N 22.304 1.20823 -5.48961 0
M  V30 161 H 14.455 -0.575456 -2.04456 0
M  V30 162 H 16.718 -0.196099 -0.927496 0
M  V30 163 H 16.424 -0.138392 -3.51428 0
M  V30 164 H 16.298 1.60883 -3.41169 0
M  V30 165 H 18.685 1.68482 -2.42276 0
M  V30 166 H 18.766 -0.0776479 -2.55682 0
M  V30 167 H 18.41 0.120058 -5.07758 0
M  V30 168 H 18.34 1.89268 -4.91412 0
M  V30 169 H 20.831 0.973846 -3.65136 0
M  V30 170 H 21.144 1.38081 -7.60364 0
M  V30 171 H 19.489 1.24863 -6.83692 0
M  V30 172 H 22.68 1.12469 -4.54388 0
M  V30 173 H 22.853 1.31049 -6.3461 0
M  V30 174 N 16.2591 1.48442 0.529413 0
M  V30 175 C 17.1891 1.65902 1.64313 0
M  V30 176 C 18.1701 0.507897 1.6234 0
M  V30 177 O 19.3551 0.740503 1.79528 0
M  V30 178 C 16.4851 1.69911 3.02898 0
M  V30 179 C 15.4391 2.8453 3.19729 0
M  V30 180 C 14.7651 2.73629 4.59381 0
M  V30 181 C 16.0651 4.25821 3.02447 0
M  V30 182 H 17.7591 2.5914 1.49955 0
M  V30 183 H 15.3051 1.24709 0.719982 0
M  V30 184 H 17.2581 1.80715 3.80684 0
M  V30 185 H 15.9821 0.732524 3.18279 0
M  V30 186 H 14.6411 2.73283 2.44361 0
M  V30 187 H 14.2891 1.74938 4.71599 0
M  V30 188 H 13.9891 3.50541 4.71588 0
M  V30 189 H 15.5131 2.86401 5.39265 0
M  V30 190 H 16.9271 4.37898 3.70024 0
M  V30 191 H 15.3241 5.03735 3.26146 0
M  V30 192 H 16.3941 4.42244 1.98867 0
M  V30 193 N 17.7372 -0.778329 1.37039 0
M  V30 194 C 18.9842 -1.53665 1.31884 0
M  V30 195 C 19.3122 -1.9425 -0.0986303 0
M  V30 196 O 18.5672 -1.63832 -1.07041 0
M  V30 197 C 18.8662 -2.81845 2.19768 0
M  V30 198 C 18.5322 -2.60345 3.68146 0
M  V30 199 C 17.1942 -2.5419 4.08584 0
M  V30 200 C 19.5462 -2.40923 4.62175 0
M  V30 201 C 16.8742 -2.26594 5.41177 0
M  V30 202 C 19.2262 -2.14852 5.94997 0
M  V30 203 C 17.8902 -2.07137 6.34547 0
M  V30 204 H 17.1602 -0.562299 0.482598 0
M  V30 205 H 19.8072 -0.897069 1.69189 0
M  V30 206 H 18.1122 -3.50328 1.75436 0
M  V30 207 H 19.8092 -3.39692 2.13097 0
M  V30 208 H 16.3992 -2.65996 3.36072 0
M  V30 209 H 20.5832 -2.44673 4.31797 0
M  V30 210 H 15.8392 -2.19111 5.70789 0
M  V30 211 H 20.0132 -1.98822 6.67415 0
M  V30 212 H 17.6402 -1.85518 7.37216 0
M  V30 213 N 19.2153 -1.21501 -1.00376 0
M  V30 214 C 20.4633 -1.03095 -1.73827 0
M  V30 215 C 20.7843 0.436341 -1.90055 0
M  V30 216 O 20.0543 1.31466 -1.45236 0
M  V30 217 H 18.6343 -0.378487 -0.644016 0
M  V30 218 H 21.2963 -1.52831 -1.20949 0
M  V30 219 H 20.3923 -1.49991 -2.73695 0
M  V30 220 N 20.6934 1.19889 -1.02296 0
M  V30 221 C 21.6404 2.22901 -0.598651 0
M  V30 222 C 22.6104 1.61588 0.384521 0
M  V30 223 O 23.7954 1.88697 0.282522 0
M  V30 224 C 20.9354 3.45063 0.0504476 0
M  V30 225 C 20.0484 4.20783 -0.978053 0
M  V30 226 C 19.1834 5.30356 -0.299338 0
M  V30 227 C 18.2224 5.97826 -1.31416 0
M  V30 228 N 17.3594 6.98975 -0.661667 0
M  V30 229 H 22.1994 2.58554 -1.48169 0
M  V30 230 H 19.7364 1.27039 -0.741584 0
M  V30 231 H 21.6944 4.14831 0.443971 0
M  V30 232 H 20.3244 3.10084 0.897097 0
M  V30 233 H 19.3764 3.50018 -1.48969 0
M  V30 234 H 20.6884 4.67109 -1.74958 0
M  V30 235 H 19.8424 6.06516 0.149347 0
M  V30 236 H 18.5814 4.85084 0.504445 0
M  V30 237 H 17.5864 5.20422 -1.77317 0
M  V30 238 H 18.8114 6.45183 -2.11933 0
M  V30 239 H 16.7574 6.55886 0.122132 0
M  V30 240 H 16.6744 7.43461 -1.37117 0
M  V30 241 H 17.9424 7.7914 -0.236785 0
M  V30 242 N 22.1715 0.800033 1.35784 0
M  V30 243 C 23.1185 0.203848 2.29898 0
M  V30 244 C 24.0885 -0.658375 1.52495 0
M  V30 245 O 25.2735 -0.604832 1.8096 0
M  V30 246 C 22.4135 -0.64688 3.38983 0
M  V30 247 C 21.5265 0.235054 4.3136 0
M  V30 248 C 20.6615 -0.623054 5.27533 0
M  V30 249 C 19.7005 0.259682 6.11549 0
M  V30 250 N 18.8375 -0.558019 6.99879 0
M  V30 251 H 23.6775 1.01186 2.80295 0
M  V30 252 H 21.2145 0.51053 1.37957 0
M  V30 253 H 23.1725 -1.15521 4.00887 0
M  V30 254 H 21.8025 -1.42021 2.89879 0
M  V30 255 H 20.8545 0.861438 3.70518 0
M  V30 256 H 22.1665 0.914768 4.9034 0
M  V30 257 H 21.3205 -1.19678 5.94779 0
M  V30 258 H 20.0595 -1.33636 4.69034 0
M  V30 259 H 19.0645 0.845726 5.43256 0
M  V30 260 H 20.2895 0.970748 6.72126 0
M  V30 261 H 18.2355 -1.25542 6.43875 0
M  V30 262 H 18.1525 0.0637872 7.55973 0
M  V30 263 H 19.4205 -1.11523 7.71481 0
M  V30 264 N 23.6496 -1.47581 0.552962 0
M  V30 265 C 24.5816 -2.27997 -0.234533 0
M  V30 266 C 25.5946 -1.36753 -0.883321 0
M  V30 267 O 26.7836 -1.61612 -0.757889 0
M  V30 268 C 23.8836 -3.10879 -1.34935 0
M  V30 269 C 23.0566 -4.30056 -0.798158 0
M  V30 270 C 22.1156 -4.94567 -1.79694 0
M  V30 271 O 21.1416 -5.53087 -1.34474 0
M  V30 272 N 22.3436 -4.88878 -3.13015 0
M  V30 273 H 25.1086 -2.96222 0.455255 0
M  V30 274 H 22.6696 -1.57163 0.388761 0
M  V30 275 H 24.6616 -3.50903 -2.01616 0
M  V30 276 H 23.2316 -2.44924 -1.94244 0
M  V30 277 H 22.4516 -3.94174 0.0453079 0
M  V30 278 H 23.7396 -5.07152 -0.409173 0
M  V30 279 H 23.1376 -4.42526 -3.52402 0
M  V30 280 H 21.6946 -5.32934 -3.75266 0
M  V30 281 N 25.1277 -0.289203 -1.54924 0
M  V30 282 C 26.0607 0.633823 -2.19221 0
M  V30 283 C 27.0387 1.14174 -1.15772 0
M  V30 284 O 28.2227 1.21211 -1.44361 0
M  V30 285 C 25.3497 1.86592 -2.82668 0
M  V30 286 C 24.3957 1.49227 -3.99542 0
M  V30 287 S 25.2287 0.558312 -5.32582 0
M  V30 288 C 26.3847 1.79847 -5.99505 0
M  V30 289 H 26.6177 0.0875416 -2.97171 0
M  V30 290 H 24.1507 -0.0733899 -1.54225 0
M  V30 291 H 26.1087 2.57305 -3.19851 0
M  V30 292 H 24.7697 2.38335 -2.04585 0
M  V30 293 H 23.9627 2.40945 -4.42676 0
M  V30 294 H 23.5647 0.865193 -3.63855 0
M  V30 295 H 25.8567 2.7406 -6.19595 0
M  V30 296 H 26.7997 1.4099 -6.93922 0
M  V30 297 H 27.2077 1.96982 -5.29016 0
M  V30 298 N 26.6058 1.57591 -0.0167156 0
M  V30 299 C 28.0218 1.55946 0.339557 0
M  V30 300 C 28.2218 1.02109 1.73713 0
M  V30 301 O 27.2778 0.662303 2.43659 0
M  V30 302 C 28.5908 3.00037 0.199499 0
M  V30 303 C 30.1388 3.11805 0.273193 0
M  V30 304 C 30.6138 4.57713 0.162068 0
M  V30 305 N 32.1048 4.6268 0.219444 0
M  V30 306 C 32.8398 5.73185 0.157054 0
M  V30 307 N 32.3358 6.92786 0.0442936 0
M  V30 308 N 34.1288 5.61707 0.21014 0
M  V30 309 H 26.2798 1.90921 -0.930758 0
M  V30 310 H 28.5428 0.877674 -0.358319 0
M  V30 311 H 28.2488 3.4333 -0.76273 0
M  V30 312 H 28.1228 3.64387 0.974786 0
M  V30 313 H 30.5098 2.68433 1.22587 0
M  V30 314 H 30.5908 2.50201 -0.532256 0
M  V30 315 H 30.2348 5.01763 -0.78714 0
M  V30 316 H 30.1648 5.17283 0.986222 0
M  V30 317 H 32.6558 3.76649 0.307246 0
M  V30 318 H 32.9688 7.728 0.00304069 0
M  V30 319 H 31.3138 6.94999 0.00968457 0
M  V30 320 H 34.5048 4.6716 0.296546 0
M  V30 321 H 34.6778 6.47807 0.158054 0
M  V30 322 N 28.0839 -0.256276 1.55502 0
M  V30 323 C 29.3329 -0.983486 1.76098 0
M  V30 324 C 29.6459 -1.86837 0.578896 0
M  V30 325 O 30.8519 -2.63163 0.667648 0
M  V30 326 C 29.3079 -1.79868 3.1173 0
M  V30 327 C 28.9159 -0.961648 4.37557 0
M  V30 328 C 30.6599 -2.51919 3.41668 0
M  V30 329 C 28.5669 -1.77219 5.64223 0
M  V30 330 H 27.4969 -0.370936 0.656447 0
M  V30 331 H 30.1479 -0.238492 1.81944 0
M  V30 332 H 28.5299 -2.58527 2.99966 0
M  V30 333 H 29.7039 -0.218048 4.60284 0
M  V30 334 H 28.0189 -0.354913 4.14885 0
M  V30 335 H 30.6159 -3.12998 4.33516 0
M  V30 336 H 30.9589 -3.23059 2.62562 0
M  V30 337 H 31.4919 -1.80278 3.54605 0
M  V30 338 H 28.2309 -1.10471 6.46124 0
M  V30 339 H 27.7509 -2.49132 5.45613 0
M  V30 340 H 29.4299 -2.34169 6.03137 0
M  V30 341 N 29.562 -1.4872 -0.521534 0
M  V30 342 C 30.492 -1.66771 -1.63431 0
M  V30 343 C 31.473 -0.516499 -1.62069 0
M  V30 344 O 32.658 -0.750013 -1.79132 0
M  V30 345 C 29.788 -1.71515 -3.01993 0
M  V30 346 C 28.742 -2.86222 -3.18216 0
M  V30 347 C 28.068 -2.76061 -4.57924 0
M  V30 348 C 29.368 -4.27419 -3.00184 0
M  V30 349 H 31.062 -2.59932 -1.48579 0
M  V30 350 H 28.608 -1.25089 -0.713358 0
M  V30 351 H 30.561 -1.82731 -3.7972 0
M  V30 352 H 29.285 -0.749393 -3.17886 0
M  V30 353 H 27.944 -2.74575 -2.42908 0
M  V30 354 H 27.592 -1.77437 -4.70665 0
M  V30 355 H 27.292 -3.53037 -4.69722 0
M  V30 356 H 28.816 -2.89256 -5.37739 0
M  V30 357 H 30.23 -4.39855 -3.67697 0
M  V30 358 H 28.627 -5.05458 -3.2347 0
M  V30 359 H 29.697 -4.43293 -1.96518 0
M  V30 360 N 31.0401 0.771051 -1.3745 0
M  V30 361 C 31.9731 1.89166 -1.27638 0
M  V30 362 C 32.9511 1.61842 -0.156782 0
M  V30 363 O 34.1351 1.85569 -0.331111 0
M  V30 364 C 31.2621 3.24405 -0.973621 0
M  V30 365 C 30.3081 3.70638 -2.1102 0
M  V30 366 S 31.1411 3.84228 -3.73 0
M  V30 367 C 32.2971 5.22313 -3.44876 0
M  V30 368 H 32.5301 1.972 -2.22485 0
M  V30 369 H 30.0631 0.932224 -1.23081 0
M  V30 370 H 32.0211 4.02514 -0.805766 0
M  V30 371 H 30.6821 3.14071 -0.0426279 0
M  V30 372 H 29.8751 4.68685 -1.85338 0
M  V30 373 H 29.4771 2.99632 -2.23822 0
M  V30 374 H 31.7691 6.07505 -2.99908 0
M  V30 375 H 32.7121 5.53008 -4.42253 0
M  V30 376 H 33.1201 4.90284 -2.79789 0
M  V30 377 N 32.5182 1.22032 0.997298 0
M  V30 378 C 33.7642 1.04376 1.73878 0
M  V30 379 C 34.0972 -0.420716 1.89588 0
M  V30 380 O 33.3722 -1.31202 1.43583 0
M  V30 381 C 33.6552 1.75047 3.14691 0
M  V30 382 C 33.5082 3.29062 3.06656 0
M  V30 383 C 34.8272 1.49928 4.13775 0
M  V30 384 H 31.9462 0.380578 0.631133 0
M  V30 385 H 34.5882 1.50312 1.16217 0
M  V30 386 H 32.7382 1.35996 3.63919 0
M  V30 387 H 34.4102 3.7753 2.65083 0
M  V30 388 H 32.6532 3.58967 2.43568 0
M  V30 389 H 33.3242 3.73683 4.06282 0
M  V30 390 H 35.8002 1.83842 3.73285 0
M  V30 391 H 34.6762 2.01878 5.10428 0
M  V30 392 H 34.9372 0.430929 4.39995 0
M  V30 393 N 33.9963 -1.19345 1.0293 0
M  V30 394 C 35.2443 -1.88665 0.724574 0
M  V30 395 C 35.5653 -1.80036 -0.749144 0
M  V30 396 O 34.8353 -1.2111 -1.53978 0
M  V30 397 H 33.4153 -0.698406 0.265025 0
M  V30 398 H 36.0773 -1.44885 1.30362 0
M  V30 399 H 35.1733 -2.94987 1.01926 0
M  V30 400 N 35.4744 -0.807222 -1.35358 0
M  V30 401 C 36.4044 -0.232509 -2.3234 0
M  V30 402 C 37.3854 0.642386 -1.57504 0
M  V30 403 O 38.5704 0.572526 -1.85569 0
M  V30 404 C 35.7004 0.619238 -3.41735 0
M  V30 405 C 34.6544 -0.157215 -4.27711 0
M  V30 406 C 33.9804 0.816273 -5.28433 0
M  V30 407 C 35.2804 -1.35656 -5.04376 0
M  V30 408 H 36.9744 -1.04276 -2.80654 0
M  V30 409 H 34.5204 -0.50288 -1.34934 0
M  V30 410 H 36.4734 1.03137 -4.08584 0
M  V30 411 H 35.1974 1.46239 -2.92031 0
M  V30 412 H 33.8564 -0.550525 -3.62443 0
M  V30 413 H 33.5044 1.65494 -4.74996 0
M  V30 414 H 33.2044 0.301067 -5.86828 0
M  V30 415 H 34.7284 1.22659 -5.98153 0
M  V30 416 H 36.1424 -1.01927 -5.64166 0
M  V30 417 H 34.5394 -1.8063 -5.7227 0
M  V30 418 H 35.6094 -2.14288 -4.34981 0
M  V30 419 N 36.9525 1.47285 -0.560781 0
M  V30 420 C 38.2295 1.9558 0.0277798 0
M  V30 421 C 38.6095 1.5034 1.48192 0
M  V30 422 O 37.9575 0.743882 2.16052 0
M  V30 423 C 38.1675 3.48789 -0.121418 0
M  V30 424 C 39.5155 4.24594 0.0220912 0
M  V30 425 O 40.5395 3.56166 -0.0491439 0
M  V30 426 O 39.3985 5.46217 0.175958 0
M  V30 427 H 36.4925 0.824663 0.0621342 0
M  V30 428 H 39.0385 1.5767 -0.627556 0
M  V30 429 H 37.8105 3.74533 -1.13316 0
M  V30 430 H 37.4335 3.93473 0.571366 0
M  V30 431 N 38.4306 0.297415 1.54768 0
M  V30 432 C 39.3936 -0.567375 2.22066 0
M  V30 433 C 40.3936 -1.06409 1.20556 0
M  V30 434 O 41.5836 -0.960691 1.45315 0
M  V30 435 C 38.7156 -1.78517 2.90421 0
M  V30 436 H 39.9086 0.0205534 2.99893 0
M  V30 437 H 37.4616 0.0482163 1.56226 0
M  V30 438 H 38.1966 -2.41303 2.16664 0
M  V30 439 H 37.9816 -1.43669 3.64831 0
M  V30 440 H 39.4716 -2.39964 3.41771 0
M  V30 441 N 39.9087 -1.5758 0.0250728 0
M  V30 442 C 40.8717 -2.08896 -0.943139 0
M  V30 443 C 41.8717 -1.00321 -1.25668 0
M  V30 444 O 43.0617 -1.26495 -1.19769 0
M  V30 445 C 40.1937 -2.55143 -2.26086 0
M  V30 446 H 41.3867 -2.95723 -0.498775 0
M  V30 447 H 38.9397 -1.54703 -0.222888 0
M  V30 448 H 39.6747 -1.71633 -2.75159 0
M  V30 449 H 39.4597 -3.34461 -2.04641 0
M  V30 450 H 40.9497 -2.95083 -2.95492 0
M  V30 451 N 41.3868 0.248026 -1.55636 0
M  V30 452 C 42.6348 0.974295 -1.77065 0
M  V30 453 C 42.9558 1.85897 -0.588849 0
M  V30 454 O 42.2258 1.91868 0.395407 0
M  V30 455 H 40.8058 0.362733 -0.653019 0
M  V30 456 H 43.4678 0.266244 -1.93073 0
M  V30 457 H 42.5638 1.59667 -2.68166 0
M  V30 458 N 42.8649 1.48995 0.513639 0
M  V30 459 C 43.8119 1.6473 1.61656 0
M  V30 460 C 44.7819 0.488984 1.58739 0
M  V30 461 O 45.9669 0.714478 1.76918 0
M  V30 462 C 43.1069 1.7082 2.99858 0
M  V30 463 C 42.2199 2.9787 3.12885 0
M  V30 464 C 41.3549 2.95017 4.41744 0
M  V30 465 C 40.3939 4.16702 4.48359 0
M  V30 466 N 39.5309 4.11832 5.68629 0
M  V30 467 H 44.3709 2.58909 1.47547 0
M  V30 468 H 41.9079 1.28382 0.71808 0
M  V30 469 H 43.8659 1.72331 3.79944 0
M  V30 470 H 42.4959 0.801181 3.12699 0
M  V30 471 H 41.5479 3.06029 2.25944 0
M  V30 472 H 42.8599 3.8786 3.13633 0
M  V30 473 H 42.0139 2.95021 5.30139 0
M  V30 474 H 40.7529 2.02784 4.43542 0
M  V30 475 H 39.7579 4.16955 3.58369 0
M  V30 476 H 40.9829 5.10113 4.48287 0
M  V30 477 H 38.9289 3.22428 5.71293 0
M  V30 478 H 38.8459 4.95543 5.7094 0
M  V30 479 H 40.1139 4.1592 6.59266 0
M  V30 480 N 44.343 -0.763751 1.37857 0
M  V30 481 C 45.571 -1.55293 1.36718 0
M  V30 482 C 45.986 -1.88745 -0.0455434 0
M  V30 483 O 45.343 -1.52039 -1.00947 0
M  V30 484 C 45.394 -2.85831 2.2132 0
M  V30 485 O 45.115 -2.5381 3.57089 0
M  V30 486 C 46.616 -3.80023 2.28249 0
M  V30 487 H 43.836 -0.480841 0.468009 0
M  V30 488 H 46.38 -0.946009 1.81303 0
M  V30 489 H 44.535 -3.42926 1.80223 0
M  V30 490 H 44.949 -3.37459 4.01524 0
M  V30 491 H 46.423 -4.68599 2.91752 0
M  V30 492 H 46.9 -4.1973 1.2932 0
M  V30 493 H 47.506 -3.28855 2.69693 0
M  V30 494 N 45.8211 -1.22559 -0.990812 0
M  V30 495 C 47.0491 -1.07779 -1.76611 0
M  V30 496 C 47.4641 0.371513 -1.85109 0
M  V30 497 O 46.8211 1.25737 -1.32274 0
M  V30 498 C 46.8721 -1.68512 -3.19822 0
M  V30 499 O 46.5931 -3.07774 -3.1178 0
M  V30 500 C 48.0941 -1.59035 -4.13791 0
M  V30 501 H 45.3141 -0.377729 -0.554583 0
M  V30 502 H 47.8581 -1.62195 -1.24551 0
M  V30 503 H 46.0131 -1.18154 -3.68942 0
M  V30 504 H 46.4271 -3.37062 -4.01858 0
M  V30 505 H 47.9011 -2.0625 -5.1202 0
M  V30 506 H 48.3781 -0.547273 -4.35777 0
M  V30 507 H 48.9841 -2.08709 -3.70568 0
M  V30 508 N 47.2992 1.18797 -1.03562 0
M  V30 509 C 48.5482 1.87978 -0.731235 0
M  V30 510 C 48.8612 1.80911 0.743671 0
M  V30 511 O 50.0672 2.45407 1.16137 0
M  V30 512 C 48.5232 3.3721 -1.25768 0
M  V30 513 C 48.1312 3.52818 -2.76085 0
M  V30 514 C 49.8752 4.11825 -1.0296 0
M  V30 515 C 47.7822 4.9598 -3.22114 0
M  V30 516 H 46.7122 0.704063 -0.269835 0
M  V30 517 H 49.3632 1.34266 -1.25079 0
M  V30 518 H 47.7452 3.90359 -0.666011 0
M  V30 519 H 48.9192 3.09965 -3.40966 0
M  V30 520 H 47.2342 2.91602 -2.97249 0
M  V30 521 H 49.8312 5.17411 -1.34869 0
M  V30 522 H 50.1742 4.16287 0.0333546 0
M  V30 523 H 50.7072 3.64833 -1.58562 0
M  V30 524 H 47.4462 4.96684 -4.27768 0
M  V30 525 H 46.9662 5.39569 -2.61965 0
M  V30 526 H 48.6452 5.6467 -3.15844 0
M  V30 527 N 48.7773 0.814389 1.34928 0
M  V30 528 C 49.7073 0.244827 2.32213 0
M  V30 529 C 50.6883 -0.634024 1.57842 0
M  V30 530 O 51.8733 -0.562676 1.8587 0
M  V30 531 C 49.0033 -0.601106 3.42058 0
M  V30 532 C 47.9573 0.179896 4.27622 0
M  V30 533 C 47.2833 -0.788237 5.28858 0
M  V30 534 C 48.5833 1.38329 5.03649 0
M  V30 535 H 50.2773 1.05763 2.80097 0
M  V30 536 H 47.8233 0.510029 1.34665 0
M  V30 537 H 49.7763 -1.00968 4.09125 0
M  V30 538 H 48.5003 -1.44688 2.92802 0
M  V30 539 H 47.1593 0.569739 3.62146 0
M  V30 540 H 46.8073 -1.62973 4.75866 0
M  V30 541 H 46.5073 -0.269942 5.8698 0
M  V30 542 H 48.0313 -1.19485 5.98795 0
M  V30 543 H 49.4453 1.04918 5.63618 0
M  V30 544 H 47.8423 1.83662 5.71304 0
M  V30 545 H 48.9123 2.16592 4.33839 0
M  V30 546 N 50.2554 -1.46986 0.568584 0
M  V30 547 C 51.4854 -2.0653 0.0539173 0
M  V30 548 C 51.8934 -1.42004 -1.25026 0
M  V30 549 O 51.2364 -0.514541 -1.76347 0
M  V30 550 C 51.2984 -3.58938 -0.200854 0
M  V30 551 C 50.9624 -4.45572 1.01559 0
M  V30 552 C 51.9594 -4.82986 1.92407 0
M  V30 553 C 49.6444 -4.8692 1.23346 0
M  V30 554 C 51.6384 -5.60559 3.03402 0
M  V30 555 C 49.3254 -5.64255 2.34649 0
M  V30 556 C 50.3234 -6.00986 3.24507 0
M  V30 557 O 50.0114 -6.76761 4.33878 0
M  V30 558 H 49.7434 -0.674292 0.0480234 0
M  V30 559 H 52.2974 -1.89812 0.784896 0
M  V30 560 H 50.5274 -3.73911 -0.986279 0
M  V30 561 H 52.2164 -4.0046 -0.662294 0
M  V30 562 H 52.9824 -4.51633 1.76785 0
M  V30 563 H 48.8614 -4.57789 0.543178 0
M  V30 564 H 52.4054 -5.89147 3.73565 0
M  V30 565 H 48.3024 -5.95021 2.5024 0
M  V30 566 H 49.0704 -6.95168 4.32068 0
M  V30 567 N 51.7335 -0.305618 -1.54608 0
M  V30 568 C 52.6805 0.568421 -2.23691 0
M  V30 569 C 53.6505 1.12592 -1.22116 0
M  V30 570 O 54.8355 1.16959 -1.50749 0
M  V30 571 C 51.9755 1.7322 -2.98477 0
M  V30 572 C 51.0885 1.20566 -4.14835 0
M  V30 573 C 50.2235 2.33368 -4.77193 0
M  V30 574 C 49.2625 1.7787 -5.85686 0
M  V30 575 N 48.3995 2.84263 -6.4198 0
M  V30 576 H 53.2395 -0.0272867 -2.97988 0
M  V30 577 H 50.7765 -0.0252363 -1.47078 0
M  V30 578 H 52.7345 2.41675 -3.40072 0
M  V30 579 H 51.3645 2.29947 -2.26548 0
M  V30 580 H 50.4165 0.413223 -3.78149 0
M  V30 581 H 51.7285 0.759417 -4.92985 0
M  V30 582 H 50.8825 3.09761 -5.21664 0
M  V30 583 H 49.6215 2.8132 -3.98385 0
M  V30 584 H 48.6265 0.99968 -5.40635 0
M  V30 585 H 49.8515 1.30816 -6.66381 0
M  V30 586 H 47.7975 3.31541 -5.66053 0
M  V30 587 H 47.7145 2.44149 -7.15491 0
M  V30 588 H 48.9825 3.6054 -6.91109 0
M  V30 589 N 53.2116 1.57565 -0.0334293 0
M  V30 590 C 54.1416 2.13511 0.945265 0
M  V30 591 C 55.1226 1.05231 1.33643 0
M  V30 592 O 56.3076 1.33084 1.41429 0
M  V30 593 C 53.4376 2.6657 2.22616 0
M  V30 594 C 52.3916 3.79676 1.97561 0
M  V30 595 C 51.7176 4.1918 3.31952 0
M  V30 596 C 53.0176 5.0557 1.31135 0
M  V30 597 H 54.7116 2.95538 0.479325 0
M  V30 598 H 52.2576 1.42166 0.229115 0
M  V30 599 H 54.2106 3.04344 2.91466 0
M  V30 600 H 52.9346 1.8171 2.71384 0
M  V30 601 H 51.5936 3.42347 1.31127 0
M  V30 602 H 51.2416 3.31296 3.78487 0
M  V30 603 H 50.9416 4.95402 3.15992 0
M  V30 604 H 52.4656 4.59541 4.02063 0
M  V30 605 H 53.8796 5.40903 1.89992 0
M  V30 606 H 52.2766 5.86818 1.25559 0
M  V30 607 H 53.3466 4.84062 0.284894 0
M  V30 608 N 54.6897 -0.239769 1.55765 0
M  V30 609 C 55.6367 -1.29696 1.90913 0
M  V30 610 C 56.6067 -1.47478 0.764164 0
M  V30 611 O 57.7917 -1.61345 1.01845 0
M  V30 612 C 54.9317 -2.64598 2.21544 0
M  V30 613 C 54.0447 -2.54765 3.48882 0
M  V30 614 C 53.1797 -3.82069 3.69049 0
M  V30 615 C 52.2187 -3.66883 4.89963 0
M  V30 616 N 51.3557 -4.86094 5.06614 0
M  V30 617 H 56.1957 -0.990224 2.81067 0
M  V30 618 H 53.7327 -0.477684 1.39128 0
M  V30 619 H 55.6907 -3.43132 2.3731 0
M  V30 620 H 54.3207 -2.93405 1.34585 0
M  V30 621 H 53.3727 -1.67763 3.41409 0
M  V30 622 H 54.6847 -2.39457 4.37563 0
M  V30 623 H 53.8387 -4.69046 3.84812 0
M  V30 624 H 52.5777 -4.00282 2.78614 0
M  V30 625 H 51.5827 -2.78289 4.74168 0
M  V30 626 H 52.8077 -3.50157 5.81865 0
M  V30 627 H 50.7537 -5.04655 4.19117 0
M  V30 628 H 50.6707 -4.73443 5.89396 0
M  V30 629 H 51.9387 -5.74549 5.26795 0
M  V30 630 N 56.1678 -1.49265 -0.50573 0
M  V30 631 C 57.0978 -1.68495 -1.61653 0
M  V30 632 C 58.0788 -0.53366 -1.61512 0
M  V30 633 O 59.2638 -0.76897 -1.78327 0
M  V30 634 C 56.3938 -1.74709 -3.00157 0
M  V30 635 C 55.3478 -2.89581 -3.15162 0
M  V30 636 C 54.6738 -2.80903 -4.5497 0
M  V30 637 C 55.9738 -4.30578 -2.95634 0
M  V30 638 H 57.6678 -2.61493 -1.45814 0
M  V30 639 H 55.2138 -1.25838 -0.70005 0
M  V30 640 H 57.1668 -1.86748 -3.77761 0
M  V30 641 H 55.8908 -0.783067 -3.17074 0
M  V30 642 H 54.5498 -2.77136 -2.39982 0
M  V30 643 H 54.1978 -1.82419 -4.68756 0
M  V30 644 H 53.8978 -3.57999 -4.65951 0
M  V30 645 H 55.4218 -2.94944 -5.34641 0
M  V30 646 H 56.8358 -4.4373 -3.63011 0
M  V30 647 H 55.2328 -5.0886 -3.18091 0
M  V30 648 H 56.3028 -4.45352 -1.91806 0
M  V30 649 N 57.6459 0.756429 -1.3826 0
M  V30 650 C 58.8939 1.51248 -1.34047 0
M  V30 651 C 59.2149 1.94875 0.0698372 0
M  V30 652 O 58.4849 1.67436 1.01696 0
M  V30 653 H 57.0649 0.561018 -0.493222 0
M  V30 654 H 59.7269 0.899347 -1.7291 0
M  V30 655 H 58.8229 2.40472 -1.98947 0
M  V30 656 N 59.124 1.23083 0.984299 0
M  V30 657 C 60.034 1.02515 2.11016 0
M  V30 658 C 61.05 -0.0291702 1.73976 0
M  V30 659 O 62.226 0.165434 2.00719 0
M  V30 660 C 59.291 0.614673 3.41208 0
M  V30 661 C 58.352 1.74359 3.92297 0
M  V30 662 C 57.585 1.35261 5.16275 0
M  V30 663 O 57.808 0.235136 5.69915 0
M  V30 664 O 56.742 2.17227 5.61334 0
M  V30 665 H 60.568 1.96862 2.31255 0
M  V30 666 H 58.153 1.01753 1.09392 0
M  V30 667 H 60.035 0.396518 4.1953 0
M  V30 668 H 58.71 -0.299851 3.22308 0
M  V30 669 H 57.617 2.01635 3.1511 0
M  V30 670 H 58.95 2.63629 4.15645 0
M  V30 671 N 60.6021 -1.18246 1.0419 0
M  V30 672 C 61.8511 -1.87588 0.741194 0
M  V30 673 C 62.1641 -1.81303 -0.734066 0
M  V30 674 O 63.3701 -2.46019 -1.14834 0
M  V30 675 C 61.8261 -3.36538 1.27555 0
M  V30 676 C 61.4341 -3.51349 2.77953 0
M  V30 677 C 63.1781 -4.11273 1.05143 0
M  V30 678 C 61.0851 -4.94265 3.2474 0
M  V30 679 H 60.0151 -0.702622 0.273565 0
M  V30 680 H 62.6661 -1.33601 1.25789 0
M  V30 681 H 61.0481 -3.9 0.686703 0
M  V30 682 H 62.2221 -3.08153 3.42605 0
M  V30 683 H 60.5371 -2.90022 2.98791 0
M  V30 684 H 63.1341 -5.16689 1.37611 0
M  V30 685 H 63.4771 -4.16298 -0.0112774 0
M  V30 686 H 64.0101 -3.63987 1.60495 0
M  V30 687 H 60.7491 -4.94408 4.30396 0
M  V30 688 H 60.2691 -5.38172 2.64823 0
M  V30 689 H 61.9481 -5.62987 3.18834 0
M  V30 690 N 62.0802 -0.821533 -1.34494 0
M  V30 691 C 63.3262 -0.409552 -1.98622 0
M  V30 692 C 63.6592 1.0244 -1.64984 0
M  V30 693 O 62.9342 1.71325 -0.920758 0
M  V30 694 C 63.2172 -0.610458 -3.54888 0
M  V30 695 C 63.0702 -2.09043 -3.98273 0
M  V30 696 C 64.3892 -0.0455379 -4.40076 0
M  V30 697 H 61.5082 -0.15028 -0.721516 0
M  V30 698 H 64.1502 -1.03384 -1.59411 0
M  V30 699 H 62.3002 -0.079044 -3.8842 0
M  V30 700 H 63.9722 -2.68537 -3.75081 0
M  V30 701 H 62.2152 -2.58139 -3.48635 0
M  V30 702 H 62.8862 -2.18182 -5.07051 0
M  V30 703 H 65.3622 -0.499557 -4.1309 0
M  V30 704 H 64.2382 -0.215922 -5.48475 0
M  V30 705 H 64.4992 1.04939 -4.29465 0
M  V30 706 N 63.5583 1.46682 -0.576371 0
M  V30 707 C 64.7863 2.06798 -0.0649635 0
M  V30 708 C 65.2013 1.42612 1.23723 0
M  V30 709 O 64.5583 0.529203 1.74659 0
M  V30 710 C 64.6093 3.6132 0.114202 0
M  V30 711 O 64.3303 4.23104 -1.13644 0
M  V30 712 C 65.8313 4.38349 0.66069 0
M  V30 713 H 63.0513 0.668778 -0.0545616 0
M  V30 714 H 65.5953 1.88404 -0.795237 0
M  V30 715 H 63.7503 3.79162 0.794673 0
M  V30 716 H 64.1643 5.15894 -0.946253 0
M  V30 717 H 65.6383 5.47081 0.73526 0
M  V30 718 H 66.1153 4.05953 1.67627 0
M  V30 719 H 66.7213 4.25297 0.0152951 0
M  V30 720 N 65.0364 0.313813 1.54444 0
M  V30 721 C 66.2644 -0.293918 2.04802 0
M  V30 722 C 66.6794 -1.46537 1.19047 0
M  V30 723 O 66.0364 -1.81182 0.218939 0
M  V30 724 C 66.0874 -0.737806 3.53891 0
M  V30 725 O 65.8084 0.387038 4.36387 0
M  V30 726 C 67.3094 -1.40936 4.203 0
M  V30 727 H 64.5294 -0.0620057 0.668129 0
M  V30 728 H 67.0734 0.457169 1.99324 0
M  V30 729 H 65.2284 -1.43889 3.59687 0
M  V30 730 H 65.6424 0.0391274 5.24485 0
M  V30 731 H 67.1164 -1.67099 5.26101 0
M  V30 732 H 67.5934 -2.35355 3.70816 0
M  V30 733 H 68.1994 -0.751117 4.18615 0
M  V30 734 N 66.5145 -1.57545 0.0417849 0
M  V30 735 C 67.7635 -1.91494 -0.633492 0
M  V30 736 C 68.0765 -0.921084 -1.72556 0
M  V30 737 O 69.2825 -1.15228 -2.45835 0
M  V30 738 C 67.7385 -3.40072 -1.17808 0
M  V30 739 C 67.3465 -4.47843 -0.118633 0
M  V30 740 C 69.0905 -3.8307 -1.82915 0
M  V30 741 C 66.9975 -5.87529 -0.675578 0
M  V30 742 H 65.9275 -0.714653 -0.24039 0
M  V30 743 H 68.5785 -1.83175 0.109148 0
M  V30 744 H 66.9605 -3.43364 -1.97274 0
M  V30 745 H 68.1345 -4.56128 0.654494 0
M  V30 746 H 66.4495 -4.14128 0.434414 0
M  V30 747 H 69.0465 -4.84794 -2.25563 0
M  V30 748 H 69.3895 -3.1881 -2.67705 0
M  V30 749 H 69.9225 -3.82255 -1.10119 0
M  V30 750 H 66.6615 -6.55362 0.134475 0
M  V30 751 H 66.1815 -5.82824 -1.4169 0
M  V30 752 H 67.8605 -6.36491 -1.1614 0
M  V30 753 N 67.9926 0.231505 -1.5589 0
M  V30 754 C 69.4036 0.799327 -1.68724 0
M  V30 755 C 69.7546 1.85398 -0.642022 0
M  V30 756 O 68.8796 2.1539 0.208784 0
M  V30 757 C 69.4746 1.45664 -3.05888 0
M  V30 758 C 68.0336 1.97197 -3.20609 0
M  V30 759 C 67.1806 0.828552 -2.64632 0
M  V30 760 H 70.1316 0.00702616 -1.58698 0
M  V30 761 H 70.1526 2.32517 -3.01191 0
M  V30 762 H 69.6646 0.688808 -3.81939 0
M  V30 763 H 67.7656 2.76813 -2.4941 0
M  V30 764 H 67.8786 2.15878 -4.27707 0
M  V30 765 H 66.2426 1.23321 -2.22854 0
M  V30 766 H 67.0256 0.0735544 -3.43221 0
M  V30 767 N 69.4707 1.49531 0.497807 0
M  V30 768 C 70.6987 1.62893 1.27567 0
M  V30 769 C 71.1137 0.301585 1.86376 0
M  V30 770 O 70.4707 -0.713335 1.67982 0
M  V30 771 C 70.5217 2.70013 2.40364 0
M  V30 772 O 70.2427 3.976 1.83972 0
M  V30 773 C 71.7437 2.94109 3.31685 0
M  V30 774 H 68.9637 0.548298 0.386794 0
M  V30 775 H 71.5077 1.95584 0.597245 0
M  V30 776 H 69.6627 2.40092 3.04031 0
M  V30 777 H 70.0767 4.56631 2.58047 0
M  V30 778 H 71.5507 3.72788 4.07104 0
M  V30 779 H 72.0277 2.04147 3.88871 0
M  V30 780 H 72.6337 3.2546 2.73781 0
M  V30 781 N 70.9488 -0.749086 1.3866 0
M  V30 782 C 72.1978 -1.50371 1.3443 0
M  V30 783 C 72.5108 -1.95503 -0.0616397 0
M  V30 784 O 73.7168 -2.70554 -0.226489 0
M  V30 785 C 72.1728 -2.71644 2.36088 0
M  V30 786 C 71.7808 -2.3352 3.82325 0
M  V30 787 C 73.5248 -3.49518 2.40909 0
M  V30 788 C 71.4318 -3.51431 4.75658 0
M  V30 789 H 70.3618 -0.564628 0.499712 0
M  V30 790 H 73.0128 -0.818449 1.64237 0
M  V30 791 H 71.3948 -3.42175 1.9933 0
M  V30 792 H 72.5688 -1.70627 4.28046 0
M  V30 793 H 70.8838 -1.6877 3.80665 0
M  V30 794 H 73.4808 -4.37197 3.07836 0
M  V30 795 H 73.8238 -3.90992 1.42937 0
M  V30 796 H 74.3568 -2.86005 2.76489 0
M  V30 797 H 71.0958 -3.15019 5.74842 0
M  V30 798 H 70.6158 -4.13352 4.34627 0
M  V30 799 H 72.2948 -4.17953 4.93887 0
M  V30 800 N 72.4269 -1.23603 -0.977757 0
M  V30 801 C 73.6749 -1.06759 -1.71601 0
M  V30 802 C 73.9959 0.395929 -1.90938 0
M  V30 803 O 73.2659 1.28356 -1.47992 0
M  V30 804 H 71.8459 -0.392062 -0.635843 0
M  V30 805 H 74.5079 -1.55362 -1.1768 0
M  V30 806 H 73.6039 -1.55763 -2.70452 0
M  V30 807 N 73.905 1.17692 -1.04816 0
M  V30 808 C 75.152 1.87859 -0.75599 0
M  V30 809 C 75.48 1.80812 0.716752 0
M  V30 810 O 74.735 1.20819 1.53952 0
M  V30 811 C 75.034 3.37462 -1.17703 0
M  V30 812 C 74.7 3.64713 -2.65133 0
M  V30 813 C 73.362 3.71859 -3.05408 0
M  V30 814 C 75.714 3.76492 -3.60421 0
M  V30 815 C 73.042 3.88271 -4.39843 0
M  V30 816 C 75.394 3.94421 -4.94585 0
M  V30 817 C 74.058 3.99806 -5.3452 0
M  V30 818 H 73.328 0.687425 -0.276636 0
M  V30 819 H 75.975 1.39255 -1.31455 0
M  V30 820 H 74.28 3.88097 -0.537395 0
M  V30 821 H 75.977 3.90109 -0.928218 0
M  V30 822 H 72.567 3.59772 -2.32942 0
M  V30 823 H 76.751 3.70295 -3.30447 0
M  V30 824 H 72.007 3.90687 -4.70291 0
M  V30 825 H 76.181 4.02477 -5.68318 0
M  V30 826 H 73.808 4.12276 -6.38696 0
M  V30 827 N 75.3831 0.828654 1.34056 0
M  V30 828 C 76.3311 0.242973 2.31327 0
M  V30 829 C 77.3251 -0.61944 1.57668 0
M  V30 830 O 78.5311 -0.51014 1.7262 0
M  V30 831 H 74.9061 0.059834 0.749616 0
M  V30 832 H 76.8771 1.07809 2.78244 0
M  V30 833 C 75.6261 -0.575733 3.429 0
M  V30 834 H 74.9491 0.0785582 3.99723 0
M  V30 835 H 76.3891 -0.951547 4.13185 0
M  V30 836 C 74.8481 -1.75044 2.87856 0
M  V30 837 O 75.3781 -2.84882 2.83205 0
M  V30 838 N 73.5841 -1.56903 2.44602 0
M  V30 839 H 73.1311 -0.675547 2.48584 0
M  V30 840 H 73.0891 -2.35652 2.08124 0
M  V30 841 N 76.8612 -1.46375 0.584142 0
M  V30 842 C 78.1072 -2.02678 0.0703716 0
M  V30 843 C 78.4402 -1.4545 -1.28678 0
M  V30 844 O 77.7152 -0.62014 -1.84349 0
M  V30 845 C 77.9982 -3.60099 0.00614674 0
M  V30 846 C 77.8512 -4.27709 1.3923 0
M  V30 847 C 79.1702 -4.34598 -0.693742 0
M  V30 848 H 76.2892 -0.736504 0.027047 0
M  V30 849 H 78.9312 -1.74501 0.751615 0
M  V30 850 H 77.0812 -3.84236 -0.574009 0
M  V30 851 H 78.7532 -4.14832 2.01773 0
M  V30 852 H 76.9962 -3.87016 1.95962 0
M  V30 853 H 77.6672 -5.36478 1.29982 0
M  V30 854 H 80.1432 -4.15615 -0.200869 0
M  V30 855 H 79.0192 -5.44318 -0.707714 0
M  V30 856 H 79.2802 -4.05759 -1.75533 0
M  V30 857 N 78.3393 -0.321999 -1.54275 0
M  V30 858 C 79.2493 0.553631 -2.27974 0
M  V30 859 C 80.2653 1.13054 -1.32268 0
M  V30 860 O 81.4413 1.15084 -1.6528 0
M  V30 861 C 78.5063 1.69927 -3.02201 0
M  V30 862 C 77.5673 1.15433 -4.1349 0
M  V30 863 C 76.8003 2.24537 -4.84168 0
M  V30 864 O 77.0233 3.44852 -4.5435 0
M  V30 865 O 75.9573 1.90044 -5.7111 0
M  V30 866 H 79.7833 -0.0448345 -3.03667 0
M  V30 867 H 77.3683 -0.0877418 -1.49142 0
M  V30 868 H 79.2503 2.3663 -3.48689 0
M  V30 869 H 77.9253 2.28395 -2.29385 0
M  V30 870 H 76.8323 0.452436 -3.71354 0
M  V30 871 H 78.1653 0.614805 -4.88345 0
M  V30 872 N 79.8174 1.5752 -0.0501392 0
M  V30 873 C 81.0454 1.96963 0.633492 0
M  V30 874 C 81.4604 0.927631 1.6444 0
M  V30 875 O 80.8174 -0.0882665 1.82286 0
M  V30 876 C 80.8684 3.36487 1.32132 0
M  V30 877 O 80.5894 4.36693 0.350894 0
M  V30 878 C 82.0904 3.90682 2.09481 0
M  V30 879 H 79.3104 0.648244 0.173266 0
M  V30 880 H 81.8544 2.0417 -0.116134 0
M  V30 881 H 80.0094 3.30434 2.02218 0
M  V30 882 H 80.4234 5.17702 0.841735 0
M  V30 883 H 81.8974 4.90591 2.5303 0
M  V30 884 H 82.3744 3.26053 2.94255 0
M  V30 885 H 82.9804 4.00069 1.44307 0
M  V30 886 N 81.2955 -0.223234 1.56011 0
M  V30 887 C 82.5415 -0.949279 1.79211 0
M  V30 888 C 82.8745 -1.84054 0.619494 0
M  V30 889 O 82.1495 -1.90726 -0.381317 0
M  V30 890 C 82.4325 -1.78965 3.12479 0
M  V30 891 C 82.2855 -0.924997 4.40186 0
M  V30 892 C 83.6045 -2.76774 3.42175 0
M  V30 893 H 80.7235 -0.343676 0.651963 0
M  V30 894 H 83.3655 -0.218253 1.88742 0
M  V30 895 H 81.5155 -2.41291 3.04485 0
M  V30 896 H 83.1875 -0.318615 4.60198 0
M  V30 897 H 81.4305 -0.230344 4.33188 0
M  V30 898 H 82.1015 -1.54735 5.29869 0
M  V30 899 H 84.5775 -2.24584 3.50287 0
M  V30 900 H 83.4535 -3.32678 4.36597 0
M  V30 901 H 83.7145 -3.54429 2.64258 0
M  V30 902 N 82.7736 -1.49793 -0.48987 0
M  V30 903 C 83.6836 -1.70036 -1.61632 0
M  V30 904 C 84.6996 -0.583102 -1.63939 0
M  V30 905 O 85.8756 -0.859169 -1.82154 0
M  V30 906 C 82.9406 -1.77277 -2.97949 0
M  V30 907 C 82.0016 -3.00918 -3.06181 0
M  V30 908 C 81.2346 -3.07804 -4.35996 0
M  V30 909 O 81.4576 -2.21982 -5.25433 0
M  V30 910 O 80.3916 -4.00369 -4.49431 0
M  V30 911 H 84.2176 -2.65486 -1.47482 0
M  V30 912 H 81.8026 -1.33666 -0.667362 0
M  V30 913 H 83.6846 -1.84329 -3.78947 0
M  V30 914 H 82.3596 -0.850076 -3.12339 0
M  V30 915 H 81.2666 -2.99377 -2.2433 0
M  V30 916 H 82.5996 -3.92704 -2.96723 0
M  V30 917 N 84.2517 0.741722 -1.39055 0
M  V30 918 C 85.4817 1.52876 -1.3897 0
M  V30 919 C 85.8897 1.8919 0.0193266 0
M  V30 920 O 85.2327 1.54138 0.999356 0
M  V30 921 C 85.2947 2.84929 -2.19216 0
M  V30 922 C 84.9587 2.71086 -3.67915 0
M  V30 923 C 85.9557 2.40084 -4.61146 0
M  V30 924 C 83.6407 2.88168 -4.11418 0
M  V30 925 C 85.6347 2.26335 -5.95862 0
M  V30 926 C 83.3217 2.74037 -5.46211 0
M  V30 927 C 84.3197 2.43166 -6.38247 0
M  V30 928 O 84.0077 2.29115 -7.70559 0
M  V30 929 H 83.7397 0.479252 -0.476753 0
M  V30 930 H 86.2937 0.924751 -1.83405 0
M  V30 931 H 84.5237 3.47564 -1.69518 0
M  V30 932 H 86.2127 3.46509 -2.11392 0
M  V30 933 H 86.9787 2.26545 -4.28838 0
M  V30 934 H 82.8577 3.11191 -3.40119 0
M  V30 935 H 86.4017 2.0216 -6.67665 0
M  V30 936 H 82.2987 2.87153 -5.78112 0
M  V30 937 H 83.0667 2.44237 -7.81211 0
M  V30 938 N 85.7298 1.2412 0.971189 0
M  V30 939 C 86.6768 1.0305 2.06517 0
M  V30 940 C 87.6468 -0.0550666 1.66009 0
M  V30 941 O 88.8318 0.0988688 1.90544 0
M  V30 942 C 85.9718 0.637653 3.39158 0
M  V30 943 C 85.0848 1.79633 3.92882 0
M  V30 944 C 84.2198 1.34939 5.13775 0
M  V30 945 C 83.2588 2.47823 5.59687 0
M  V30 946 N 82.3958 2.04022 6.71803 0
M  V30 947 H 87.2358 1.96685 2.23873 0
M  V30 948 H 84.7728 0.979694 1.09729 0
M  V30 949 H 86.7308 0.390931 4.15364 0
M  V30 950 H 85.3608 -0.261693 3.21737 0
M  V30 951 H 84.4128 2.15681 3.13346 0
M  V30 952 H 85.7248 2.64466 4.22918 0
M  V30 953 H 84.8788 1.06134 5.97345 0
M  V30 954 H 83.6178 0.471557 4.85415 0
M  V30 955 H 82.6228 2.77392 4.74693 0
M  V30 956 H 83.8478 3.36158 5.90063 0
M  V30 957 H 81.7938 1.18632 6.45184 0
M  V30 958 H 81.7108 2.82409 7.01271 0
M  V30 959 H 82.9788 1.78347 7.58823 0
M  V30 960 N 87.2079 -1.17134 1.05439 0
M  V30 961 C 88.1559 -2.23289 0.651511 0
M  V30 962 C 89.1499 -1.66186 -0.328411 0
M  V30 963 O 90.3559 -1.78949 -0.194206 0
M  V30 964 H 86.7309 -0.726938 0.192523 0
M  V30 965 H 88.7019 -2.54565 1.55689 0
M  V30 966 C 87.4509 -3.47671 0.0448436 0
M  V30 967 H 86.7739 -3.91918 0.78996 0
M  V30 968 H 88.2139 -4.2353 -0.19964 0
M  V30 969 C 86.6729 -3.14453 -1.20918 0
M  V30 970 O 87.2029 -3.29459 -2.29825 0
M  V30 971 N 85.4089 -2.68657 -1.10779 0
M  V30 972 H 84.9559 -2.56646 -0.221526 0
M  V30 973 H 84.9139 -2.46804 -1.9477 0
M  V30 974 N 88.686 -0.835752 -1.33615 0
M  V30 975 C 89.935 -0.426289 -1.97144 0
M  V30 976 C 90.248 1.01912 -1.66953 0
M  V30 977 O 91.454 1.53311 -2.24072 0
M  V30 978 C 89.91 -0.711321 -3.52801 0
M  V30 979 C 89.518 -2.1712 -3.91871 0
M  V30 980 C 91.262 -0.368654 -4.22896 0
M  V30 981 C 89.169 -2.40044 -5.40493 0
M  V30 982 H 88.099 -0.15567 -0.737755 0
M  V30 983 H 90.75 -1.0239 -1.52278 0
M  V30 984 H 89.132 -0.0433766 -3.95976 0
M  V30 985 H 90.306 -2.87936 -3.59763 0
M  V30 986 H 88.621 -2.47654 -3.34749 0
M  V30 987 H 91.218 -0.517601 -5.32189 0
M  V30 988 H 91.561 0.688078 -4.10574 0
M  V30 989 H 92.094 -0.991702 -3.8524 0
M  V30 990 H 88.833 -3.44271 -5.57815 0
M  V30 991 H 88.353 -1.73785 -5.74072 0
M  V30 992 H 90.032 -2.23042 -6.0734 0
M  V30 993 N 90.1641 1.46063 -0.591896 0
M  V30 994 C 91.4041 2.04228 -0.0838014 0
M  V30 995 C 91.7681 1.45231 1.25587 0
M  V30 996 O 92.9691 1.94653 1.85375 0
M  V30 997 C 91.2401 3.57389 -0.0286282 0
M  V30 998 S 92.7991 4.3678 0.420557 0
M  V30 999 H 89.6171 0.709762 -0.0419319 0
M  V30 1000 H 92.2191 1.78983 -0.786465 0
M  V30 1001 H 90.9231 3.97843 -1.00743 0
M  V30 1002 H 90.4541 3.87185 0.69652 0
M  V30 1003 H 92.4691 4.67131 1.67341 0
M  V30 1004 N 91.6422 0.330177 1.54103 0
M  V30 1005 C 92.8892 -0.270405 2.00686 0
M  V30 1006 C 93.2172 -1.51621 1.21825 0
M  V30 1007 O 92.4722 -1.93536 0.29025 0
M  V30 1008 C 92.7712 -0.643134 3.51566 0
M  V30 1009 C 92.4372 0.504251 4.48072 0
M  V30 1010 C 91.0992 0.819163 4.74176 0
M  V30 1011 C 93.4512 1.27465 5.05373 0
M  V30 1012 C 90.7792 1.90708 5.5484 0
M  V30 1013 C 93.1312 2.35271 5.87223 0
M  V30 1014 C 91.7952 2.67336 6.11627 0
M  V30 1015 H 91.0652 -0.0989482 0.734364 0
M  V30 1016 H 93.7122 0.455324 1.86008 0
M  V30 1017 H 92.0172 -1.44938 3.64006 0
M  V30 1018 H 93.7142 -1.11949 3.85056 0
M  V30 1019 H 90.3042 0.248733 4.27878 0
M  V30 1020 H 94.4882 1.04462 4.85182 0
M  V30 1021 H 89.7442 2.15991 5.71977 0
M  V30 1022 H 93.9182 2.95405 6.30641 0
M  V30 1023 H 91.5452 3.51763 6.73919 0
M  V30 1024 N 93.1203 -1.57491 0.0584922 0
M  V30 1025 C 94.3483 -1.97296 -0.623037 0
M  V30 1026 C 94.7633 -0.936338 -1.63946 0
M  V30 1027 O 94.1203 0.0785981 -1.82331 0
M  V30 1028 C 94.1713 -3.37183 -1.30345 0
M  V30 1029 O 93.8923 -4.36872 -0.32773 0
M  V30 1030 C 95.3933 -3.91788 -2.07406 0
M  V30 1031 H 92.6133 -0.649153 -0.169826 0
M  V30 1032 H 95.1573 -2.04106 0.12696 0
M  V30 1033 H 93.3123 -3.31502 -2.00463 0
M  V30 1034 H 93.7263 -5.18141 -0.814269 0
M  V30 1035 H 95.2003 -4.91926 -2.50425 0
M  V30 1036 H 95.6773 -3.27609 -2.92521 0
M  V30 1037 H 96.2833 -4.00829 -1.42184 0
M  V30 1038 N 94.5984 0.214957 -1.56127 0
M  V30 1039 C 95.8444 0.939762 -1.79712 0
M  V30 1040 C 96.1774 1.83723 -0.629247 0
M  V30 1041 O 95.4524 1.90925 0.371197 0
M  V30 1042 C 95.7354 1.77306 -3.13424 0
M  V30 1043 C 95.5884 0.90164 -4.40671 0
M  V30 1044 C 96.9074 2.74956 -3.43638 0
M  V30 1045 H 94.0264 0.340214 -0.653776 0
M  V30 1046 H 96.6684 0.20824 -1.88855 0
M  V30 1047 H 94.8184 2.39673 -3.0576 0
M  V30 1048 H 96.4904 0.294206 -4.60361 0
M  V30 1049 H 94.7334 0.207368 -4.33304 0
M  V30 1050 H 95.4044 1.51923 -5.30682 0
M  V30 1051 H 97.8804 2.22724 -3.51473 0
M  V30 1052 H 96.7564 3.30358 -4.38355 0
M  V30 1053 H 97.0174 3.53023 -2.66134 0
M  V30 1054 N 96.0765 1.50051 0.48192 0
M  V30 1055 C 97.3225 1.61706 1.2338 0
M  V30 1056 C 97.6775 0.308488 1.89911 0
M  V30 1057 O 96.9705 -0.692798 1.78636 0
M  V30 1058 C 97.1645 2.72717 2.30998 0
M  V30 1059 C 96.9935 4.14242 1.75024 0
M  V30 1060 C 95.7635 4.80786 1.55476 0
M  V30 1061 C 97.9615 4.98846 1.25128 0
M  V30 1062 N 95.9435 6.06563 0.946311 0
M  V30 1063 C 97.3145 6.15258 0.765382 0
M  V30 1064 C 99.3695 4.84702 1.13881 0
M  V30 1065 C 98.0725 7.19079 0.178113 0
M  V30 1066 C 100.098 5.8869 0.565486 0
M  V30 1067 C 99.4605 7.04343 0.0899105 0
M  V30 1068 H 95.5595 0.645958 0.440753 0
M  V30 1069 H 98.1435 1.8713 0.537624 0
M  V30 1070 H 96.3145 2.49033 2.98055 0
M  V30 1071 H 98.0465 2.73789 2.9803 0
M  V30 1072 H 94.8015 4.37899 1.80392 0
M  V30 1073 H 95.2255 6.73767 0.660812 0
M  V30 1074 H 99.8675 3.95583 1.49244 0
M  V30 1075 H 97.5855 8.07882 -0.187749 0
M  V30 1076 H 101.171 5.79808 0.480974 0
M  V30 1077 H 100.051 7.83433 -0.346782 0
M  V30 1078 N 97.5546 -0.734337 1.39446 0
M  V30 1079 C 98.8316 -1.48579 1.27215 0
M  V30 1080 C 99.2116 -2.1077 -0.117968 0
M  V30 1081 O 98.5596 -1.98646 -1.12924 0
M  V30 1082 C 98.7696 -2.53667 2.39696 0
M  V30 1083 C 100.118 -3.20031 2.79044 0
M  V30 1084 O 101.142 -2.6398 2.39151 0
M  V30 1085 O 100.001 -4.21455 3.47905 0
M  V30 1086 H 97.0946 -0.659816 0.49857 0
M  V30 1087 H 99.6406 -0.768106 1.51322 0
M  V30 1088 H 98.4126 -2.06096 3.32626 0
M  V30 1089 H 98.0356 -3.32994 2.17258 0
M  V30 1090 N 99.0327 -1.24633 -0.964593 0
M  V30 1091 C 100.279 -1.08949 -1.71049 0
M  V30 1092 C 100.612 0.370302 -1.90637 0
M  V30 1093 O 99.8867 1.27349 -1.47011 0
M  V30 1094 C 100.17 -1.83329 -3.0994 0
M  V30 1095 C 100.023 -3.37077 -2.97824 0
M  V30 1096 C 101.342 -1.60846 -4.09654 0
M  V30 1097 H 98.4607 -0.397178 -0.620821 0
M  V30 1098 H 101.103 -1.5334 -1.12191 0
M  V30 1099 H 99.2527 -1.45597 -3.60186 0
M  V30 1100 H 100.925 -3.84425 -2.5498 0
M  V30 1101 H 99.1677 -3.65298 -2.33965 0
M  V30 1102 H 99.8387 -3.84324 -3.96231 0
M  V30 1103 H 102.315 -1.93674 -3.68279 0
M  V30 1104 H 101.191 -2.1534 -5.04896 0
M  V30 1105 H 101.452 -0.547434 -4.38698 0
M  V30 1106 N 100.511 1.16574 -1.06058 0
M  V30 1107 C 101.759 1.86677 -0.77434 0
M  V30 1108 C 102.08 1.81959 0.701147 0
M  V30 1109 O 101.35 1.2515 1.50713 0
M  V30 1110 H 99.9298 0.691134 -0.283449 0
M  V30 1111 H 102.592 1.41378 -1.34158 0
M  V30 1112 H 101.688 2.92181 -1.09711 0
M  V30 1113 N 101.989 0.842826 1.3317 0
M  V30 1114 C 103.237 0.439577 1.97262 0
M  V30 1115 C 103.558 -1.00548 1.67078 0
M  V30 1116 O 102.828 -1.70098 0.971779 0
M  V30 1117 H 101.408 0.159558 0.72976 0
M  V30 1118 H 104.07 1.07665 1.62463 0
M  V30 1119 H 103.166 0.574886 3.0676 0
M  V30 1120 N 103.467 -1.45747 0.599634 0
M  V30 1121 C 104.399 -2.28628 -0.161879 0
M  V30 1122 C 105.412 -1.39494 -0.839367 0
M  V30 1123 O 106.601 -1.63941 -0.706089 0
M  V30 1124 C 103.701 -3.15014 -1.24976 0
M  V30 1125 C 102.874 -4.32378 -0.660935 0
M  V30 1126 C 101.933 -5.00033 -1.63869 0
M  V30 1127 O 100.959 -5.57085 -1.1681 0
M  V30 1128 N 102.161 -4.98589 -2.97303 0
M  V30 1129 H 104.926 -2.94624 0.549265 0
M  V30 1130 H 102.487 -1.55847 0.438565 0
M  V30 1131 H 104.479 -3.5714 -1.9035 0
M  V30 1132 H 103.049 -2.5098 -1.86354 0
M  V30 1133 H 102.269 -3.9383 0.170688 0
M  V30 1134 H 103.557 -5.08197 -0.247619 0
M  V30 1135 H 102.955 -4.53514 -3.38145 0
M  V30 1136 H 101.512 -5.44603 -3.58121 0
M  V30 1137 N 104.945 -0.338344 -1.53925 0
M  V30 1138 C 106.222 0.314774 -1.93051 0
M  V30 1139 C 106.602 1.68669 -1.26941 0
M  V30 1140 O 105.95 2.24636 -0.418445 0
M  V30 1141 C 106.16 0.392249 -3.46789 0
M  V30 1142 C 107.508 0.645554 -4.19664 0
M  V30 1143 O 108.532 0.474575 -3.53024 0
M  V30 1144 O 107.391 0.976408 -5.37707 0
M  V30 1145 H 104.485 0.182598 -0.80659 0
M  V30 1146 H 107.031 -0.389141 -1.65178 0
M  V30 1147 H 105.803 -0.570702 -3.87116 0
M  V30 1148 H 105.426 1.14316 -3.80812 0
M  V30 1149 N 106.423 1.57458 -0.0668435 0
M  V30 1150 C 107.839 1.56947 0.289772 0
M  V30 1151 C 108.039 1.07584 1.70376 0
M  V30 1152 O 107.095 0.739486 2.41429 0
M  V30 1153 C 108.408 3.0052 0.103943 0
M  V30 1154 C 109.956 3.12517 0.173857 0
M  V30 1155 C 110.431 4.57997 0.0163682 0
M  V30 1156 N 111.922 4.63144 0.0721352 0
M  V30 1157 C 112.657 5.73394 -0.0253794 0
M  V30 1158 N 112.153 6.92576 -0.176133 0
M  V30 1159 N 113.946 5.62091 0.0313305 0
M  V30 1160 H 106.097 1.87863 -0.991027 0
M  V30 1161 H 108.36 0.86583 -0.38606 0
M  V30 1162 H 108.066 3.40729 -0.871572 0
M  V30 1163 H 107.94 3.67304 0.858366 0
M  V30 1164 H 110.327 2.72197 1.13985 0
M  V30 1165 H 110.408 2.48381 -0.611586 0
M  V30 1166 H 110.052 4.99005 -0.946374 0
M  V30 1167 H 109.982 5.20158 0.821153 0
M  V30 1168 H 112.473 3.77436 0.187263 0
M  V30 1169 H 112.786 7.72418 -0.242821 0
M  V30 1170 H 111.131 6.94678 -0.211429 0
M  V30 1171 H 114.322 4.67867 0.147773 0
M  V30 1172 H 114.495 6.47982 -0.048121 0
M  V30 1173 N 107.901 -0.206675 1.56239 0
M  V30 1174 C 109.15 -0.926964 1.79138 0
M  V30 1175 C 109.463 -1.84901 0.638043 0
M  V30 1176 O 110.669 -2.60906 0.751033 0
M  V30 1177 C 109.125 -1.6986 3.17294 0
M  V30 1178 C 108.733 -0.821956 4.40395 0
M  V30 1179 C 110.477 -2.40922 3.4951 0
M  V30 1180 C 108.384 -1.59179 5.69575 0
M  V30 1181 H 107.314 -0.349864 0.667915 0
M  V30 1182 H 109.965 -0.180487 1.8261 0
M  V30 1183 H 108.347 -2.48853 3.08039 0
M  V30 1184 H 109.521 -0.0715019 4.60745 0
M  V30 1185 H 107.836 -0.222741 4.15804 0
M  V30 1186 H 110.433 -2.99047 4.43255 0
M  V30 1187 H 110.776 -3.14542 2.72707 0
M  V30 1188 H 111.309 -1.68905 3.60161 0
M  V30 1189 H 108.048 -0.898589 6.49312 0
M  V30 1190 H 107.568 -2.31648 5.53262 0
M  V30 1191 H 109.247 -2.14862 6.10281 0
M  V30 1192 N 109.379 -1.50304 -0.473955 0
M  V30 1193 C 110.795 -1.37667 -0.807466 0
M  V30 1194 C 110.995 -0.430555 -1.96846 0
M  V30 1195 O 110.051 0.127874 -2.52176 0
M  V30 1196 C 111.364 -2.78974 -1.12223 0
M  V30 1197 C 112.912 -2.87868 -1.22885 0
M  V30 1198 C 113.387 -4.30003 -1.57676 0
M  V30 1199 N 114.878 -4.3294 -1.64673 0
M  V30 1200 C 115.613 -5.3991 -1.93091 0
M  V30 1201 N 115.109 -6.57092 -2.1955 0
M  V30 1202 N 116.902 -5.27351 -1.94569 0
M  V30 1203 H 109.053 -2.10394 0.291212 0
M  V30 1204 H 111.316 -0.945575 0.0677609 0
M  V30 1205 H 111.022 -3.50031 -0.342229 0
M  V30 1206 H 110.896 -3.16038 -2.05913 0
M  V30 1207 H 113.283 -2.17032 -1.99953 0
M  V30 1208 H 113.364 -2.54352 -0.271814 0
M  V30 1209 H 113.008 -5.01375 -0.81149 0
M  V30 1210 H 112.938 -4.61004 -2.54525 0
M  V30 1211 H 115.429 -3.48441 -1.46277 0
M  V30 1212 H 115.742 -7.34425 -2.405 0
M  V30 1213 H 114.087 -6.60272 -2.16948 0
M  V30 1214 H 117.278 -4.34801 -1.73394 0
M  V30 1215 H 117.451 -6.10805 -2.16381 0
M  V30 1216 N 110.857 0.726932 -1.39834 0
M  V30 1217 C 112.268 1.30558 -1.3346 0
M  V30 1218 C 112.619 1.962 -0.00273003 0
M  V30 1219 O 111.744 1.96826 0.899371 0
M  V30 1220 C 112.339 2.37404 -2.41713 0
M  V30 1221 C 110.898 2.90921 -2.38835 0
M  V30 1222 C 110.045 1.64578 -2.2318 0
M  V30 1223 H 112.996 0.523862 -1.49804 0
M  V30 1224 H 113.017 3.17984 -2.08966 0
M  V30 1225 H 112.529 1.89599 -3.38635 0
M  V30 1226 H 110.63 3.42985 -1.45575 0
M  V30 1227 H 110.743 3.43487 -3.33997 0
M  V30 1228 H 109.107 1.89219 -1.70494 0
M  V30 1229 H 109.89 1.18814 -3.22084 0
M  V30 1230 N 112.336 1.25143 0.95797 0
M  V30 1231 C 113.266 1.07711 2.07173 0
M  V30 1232 C 114.247 -0.0128462 1.70095 0
M  V30 1233 O 115.432 0.156061 1.93572 0
M  V30 1234 C 112.562 0.691503 3.40346 0
M  V30 1235 C 111.516 1.73132 3.9142 0
M  V30 1236 C 110.842 1.20049 5.21049 0
M  V30 1237 C 112.142 3.1294 4.1817 0
M  V30 1238 H 113.836 2.00873 2.22014 0
M  V30 1239 H 111.382 0.967191 1.06684 0
M  V30 1240 H 113.335 0.556505 4.17709 0
M  V30 1241 H 112.059 -0.275819 3.25433 0
M  V30 1242 H 110.718 1.8547 3.16222 0
M  V30 1243 H 110.366 0.223499 5.02503 0
M  V30 1244 H 110.066 1.89545 5.56189 0
M  V30 1245 H 111.59 1.07782 6.01012 0
M  V30 1246 H 113.004 3.03775 4.86203 0
M  V30 1247 H 111.401 3.79875 4.64559 0
M  V30 1248 H 112.471 3.6025 3.24573 0
M  V30 1249 N 113.814 -1.1601 1.06675 0
M  V30 1250 C 115.06 -1.87145 0.796766 0
M  V30 1251 C 115.415 -1.8037 -0.669658 0
M  V30 1252 O 114.708 -1.21116 -1.48463 0
M  V30 1253 C 114.902 -3.35547 1.23057 0
M  V30 1254 C 114.731 -3.56769 2.73762 0
M  V30 1255 C 113.501 -3.72635 3.41279 0
M  V30 1256 C 115.699 -3.55166 3.7197 0
M  V30 1257 N 113.681 -3.81845 4.80695 0
M  V30 1258 C 115.052 -3.70406 4.97191 0
M  V30 1259 C 117.107 -3.384 3.65226 0
M  V30 1260 C 115.81 -3.70615 6.16471 0
M  V30 1261 C 117.836 -3.39904 4.83962 0
M  V30 1262 C 117.198 -3.55667 6.08013 0
M  V30 1263 H 113.297 -0.702267 0.344014 0
M  V30 1264 H 115.881 -1.39165 1.36166 0
M  V30 1265 H 114.052 -3.82159 0.693456 0
M  V30 1266 H 115.784 -3.94363 0.908844 0
M  V30 1267 H 112.539 -3.73121 2.91681 0
M  V30 1268 H 112.963 -3.90209 5.53232 0
M  V30 1269 H 117.605 -3.25138 2.70269 0
M  V30 1270 H 115.323 -3.82658 7.11757 0
M  V30 1271 H 118.909 -3.28169 4.80413 0
M  V30 1272 H 117.789 -3.56755 6.98352 0
M  V30 1273 N 115.292 -0.849877 -1.32721 0
M  V30 1274 C 116.239 -0.289033 -2.28983 0
M  V30 1275 C 117.209 0.601324 -1.54833 0
M  V30 1276 O 118.394 0.537253 -1.8308 0
M  V30 1277 C 115.534 0.520623 -3.4115 0
M  V30 1278 C 114.647 -0.394989 -4.3019 0
M  V30 1279 C 113.782 0.426834 -5.29482 0
M  V30 1280 C 112.821 -0.486476 -6.10164 0
M  V30 1281 N 111.958 0.297879 -7.01468 0
M  V30 1282 H 116.798 -1.11519 -2.76347 0
M  V30 1283 H 114.335 -0.56138 -1.35967 0
M  V30 1284 H 116.293 1.00563 -4.04899 0
M  V30 1285 H 114.923 1.31165 -2.9495 0
M  V30 1286 H 113.975 -0.99836 -3.67065 0
M  V30 1287 H 115.287 -1.09612 -4.86607 0
M  V30 1288 H 114.441 0.975205 -5.98811 0
M  V30 1289 H 113.18 1.16136 -4.73671 0
M  V30 1290 H 112.185 -1.04677 -5.39743 0
M  V30 1291 H 113.41 -1.21953 -6.6806 0
M  V30 1292 H 111.356 1.01558 -6.48091 0
M  V30 1293 H 111.273 -0.344318 -7.55216 0
M  V30 1294 H 112.541 0.828131 -7.75089 0
M  V30 1295 N 116.77 1.45427 -0.607355 0
M  V30 1296 C 117.72 2.27612 0.133038 0
M  V30 1297 C 118.704 1.37307 0.838785 0
M  V30 1298 O 119.896 1.61299 0.728813 0
M  V30 1299 C 117.025 3.24173 1.12991 0
M  V30 1300 C 116.111 4.21965 0.425011 0
M  V30 1301 N 116.502 5.02982 -0.533217 0
M  V30 1302 C 114.8 4.40899 0.672593 0
M  V30 1303 C 115.501 5.73931 -0.947518 0
M  V30 1304 N 114.477 5.42819 -0.291321 0
M  V30 1305 H 118.279 2.87649 -0.602935 0
M  V30 1306 H 115.793 1.56576 -0.431006 0
M  V30 1307 H 117.79 3.81783 1.67473 0
M  V30 1308 H 116.45 2.65696 1.86644 0
M  V30 1309 H 117.461 5.09843 -0.90995 0
M  V30 1310 H 114.138 3.93547 1.39382 0
M  V30 1311 H 115.528 6.49037 -1.73782 0
M  V30 1312 N 118.248 0.346503 1.53744 0
M  V30 1313 C 119.478 -0.250047 2.05081 0
M  V30 1314 C 119.886 -1.44529 1.22098 0
M  V30 1315 O 119.229 -1.81992 0.249917 0
M  V30 1316 C 119.291 -0.725934 3.52094 0
M  V30 1317 C 118.955 0.350053 4.55657 0
M  V30 1318 C 119.952 1.19372 5.0601 0
M  V30 1319 C 117.637 0.504827 4.99757 0
M  V30 1320 C 119.631 2.17768 5.99046 0
M  V30 1321 C 117.318 1.49218 5.92602 0
M  V30 1322 C 118.316 2.32706 6.42135 0
M  V30 1323 O 118.004 3.2976 7.33153 0
M  V30 1324 H 117.736 -0.0515469 0.674032 0
M  V30 1325 H 120.29 0.497559 1.99282 0
M  V30 1326 H 118.52 -1.52483 3.55367 0
M  V30 1327 H 120.209 -1.24336 3.86388 0
M  V30 1328 H 120.975 1.08525 4.72702 0
M  V30 1329 H 116.854 -0.135178 4.60802 0
M  V30 1330 H 120.398 2.82971 6.37631 0
M  V30 1331 H 116.295 1.6012 6.25325 0
M  V30 1332 H 117.063 3.25265 7.51096 0
M  V30 1333 N 119.726 -1.57421 0.075193 0
M  V30 1334 C 120.973 -1.93618 -0.593146 0
M  V30 1335 C 121.301 -0.955484 -1.69413 0
M  V30 1336 O 120.556 0.0283251 -1.9568 0
M  V30 1337 C 120.855 -3.36428 -1.20626 0
M  V30 1338 C 120.521 -4.50307 -0.231078 0
M  V30 1339 C 119.183 -4.81186 0.0371936 0
M  V30 1340 C 121.535 -5.19374 0.435888 0
M  V30 1341 C 118.863 -5.78466 0.979461 0
M  V30 1342 C 121.215 -6.17665 1.3665 0
M  V30 1343 C 119.879 -6.46958 1.6432 0
M  V30 1344 H 119.149 -0.708499 -0.217047 0
M  V30 1345 H 121.796 -1.90937 0.146793 0
M  V30 1346 H 120.101 -3.35592 -2.02201 0
M  V30 1347 H 121.798 -3.61727 -1.73073 0
M  V30 1348 H 118.388 -4.26227 -0.450357 0
M  V30 1349 H 122.572 -4.95711 0.241748 0
M  V30 1350 H 117.828 -5.99487 1.20106 0
M  V30 1351 H 122.002 -6.70284 1.88924 0
M  V30 1352 H 119.629 -7.2215 2.37494 0
M  V30 1353 N 121.204 0.198386 -1.56346 0
M  V30 1354 C 122.136 1.26987 -1.90806 0
M  V30 1355 C 123.149 1.41877 -0.798419 0
M  V30 1356 O 124.338 1.42362 -1.07682 0
M  V30 1357 C 121.438 2.64246 -2.12196 0
M  V30 1358 C 120.611 2.71007 -3.43328 0
M  V30 1359 C 119.67 3.89439 -3.5387 0
M  V30 1360 O 118.696 3.76695 -4.26719 0
M  V30 1361 N 119.898 5.04752 -2.86715 0
M  V30 1362 H 122.663 0.977433 -2.83313 0
M  V30 1363 H 120.224 0.388322 -1.57174 0
M  V30 1364 H 122.216 3.41896 -2.1654 0
M  V30 1365 H 120.786 2.85992 -1.26204 0
M  V30 1366 H 120.006 1.79657 -3.50881 0
M  V30 1367 H 121.294 2.72512 -4.29668 0
M  V30 1368 H 120.692 5.18004 -2.2735 0
M  V30 1369 H 119.249 5.8036 -2.96691 0
M  V30 1370 N 122.682 1.50554 0.465978 0
M  V30 1371 C 123.63 1.70324 1.58406 0
M  V30 1372 C 124.624 0.569139 1.59553 0
M  V30 1373 O 125.83 0.749776 1.63641 0
M  V30 1374 H 122.205 0.537688 0.525734 0
M  V30 1375 H 124.176 2.64104 1.38894 0
M  V30 1376 C 122.925 1.81928 2.96307 0
M  V30 1377 H 122.248 2.68586 2.96144 0
M  V30 1378 H 123.688 1.99784 3.73982 0
M  V30 1379 C 122.147 0.572095 3.32007 0
M  V30 1380 O 122.677 -0.286416 4.00678 0
M  V30 1381 N 120.883 0.424606 2.87481 0
M  V30 1382 H 120.43 1.12427 2.31771 0
M  V30 1383 H 120.388 -0.408697 3.11732 0
M  V30 1384 N 124.16 -0.719506 1.40217 0
M  V30 1385 C 125.388 -1.50864 1.41589 0
M  V30 1386 C 125.803 -1.88794 0.0145275 0
M  V30 1387 O 125.16 -1.55174 -0.960594 0
M  V30 1388 C 125.211 -2.78646 2.30302 0
M  V30 1389 O 124.932 -2.42321 3.64983 0
M  V30 1390 C 126.433 -3.72569 2.40224 0
M  V30 1391 H 123.653 -0.465709 0.48307 0
M  V30 1392 H 126.197 -0.88785 1.84221 0
M  V30 1393 H 124.352 -3.37019 1.91042 0
M  V30 1394 H 124.766 -3.24514 4.12057 0
M  V30 1395 H 126.24 -4.5908 3.06512 0
M  V30 1396 H 126.717 -4.15403 1.42608 0
M  V30 1397 H 127.323 -3.20109 2.80019 0
M  V30 1398 N 125.638 -1.25649 -0.95132 0
M  V30 1399 C 126.57 -1.02112 -2.05197 0
M  V30 1400 C 127.583 0.0150571 -1.62793 0
M  V30 1401 O 128.772 -0.223874 -1.77091 0
M  V30 1402 C 125.872 -0.522361 -3.3485 0
M  V30 1403 C 125.045 -1.62546 -4.06076 0
M  V30 1404 C 124.104 -1.12649 -5.14001 0
M  V30 1405 O 123.13 -1.82156 -5.39266 0
M  V30 1406 N 124.332 0.03047 -5.80492 0
M  V30 1407 H 127.097 -1.96885 -2.25957 0
M  V30 1408 H 124.658 -1.16899 -1.1201 0
M  V30 1409 H 126.65 -0.172961 -4.0433 0
M  V30 1410 H 125.22 0.33151 -3.10837 0
M  V30 1411 H 124.44 -2.14628 -3.30649 0
M  V30 1412 H 125.728 -2.36644 -4.50419 0
M  V30 1413 H 125.126 0.611169 -5.62389 0
M  V30 1414 H 123.683 0.320875 -6.5101 0
M  V30 1415 N 127.117 1.15442 -1.07289 0
M  V30 1416 C 128.365 1.85845 -0.794096 0
M  V30 1417 C 128.686 1.82692 0.681809 0
M  V30 1418 O 127.956 1.26741 1.49377 0
M  V30 1419 H 126.536 0.688089 -0.290763 0
M  V30 1420 H 129.198 1.39947 -1.3565 0
M  V30 1421 H 128.294 2.91001 -1.12804 0
M  V30 1422 N 128.595 0.856903 1.32268 0
M  V30 1423 C 129.525 0.31858 2.31316 0
M  V30 1424 C 130.506 -0.583487 1.59779 0
M  V30 1425 O 131.691 -0.503259 1.87566 0
M  V30 1426 C 128.821 -0.491979 3.43798 0
M  V30 1427 C 127.775 0.315849 4.26833 0
M  V30 1428 C 127.101 -0.619586 5.31098 0
M  V30 1429 C 128.401 1.54282 4.98993 0
M  V30 1430 H 130.095 1.14621 2.76591 0
M  V30 1431 H 127.641 0.552613 1.32974 0
M  V30 1432 H 129.594 -0.879012 4.1213 0
M  V30 1433 H 128.318 -1.35299 2.97257 0
M  V30 1434 H 126.977 0.684664 3.6015 0
M  V30 1435 H 126.625 -1.47751 4.8081 0
M  V30 1436 H 126.325 -0.0830621 5.87541 0
M  V30 1437 H 127.849 -1.00375 6.02293 0
M  V30 1438 H 129.263 1.22796 5.59995 0
M  V30 1439 H 127.66 2.01745 5.65172 0
M  V30 1440 H 128.73 2.30285 4.26728 0
M  V30 1441 N 130.073 -1.45103 0.615059 0
M  V30 1442 C 131.322 -2.01396 0.110718 0
M  V30 1443 C 131.635 -1.48834 -1.26916 0
M  V30 1444 O 132.841 -1.97152 -1.86664 0
M  V30 1445 C 131.297 -3.59599 0.14723 0
M  V30 1446 C 130.905 -4.21158 1.52743 0
M  V30 1447 C 132.649 -4.23428 -0.30148 0
M  V30 1448 C 130.556 -5.71535 1.51992 0
M  V30 1449 H 129.486 -0.753061 0.0376241 0
M  V30 1450 H 132.137 -1.66494 0.77149 0
M  V30 1451 H 130.519 -3.91724 -0.580339 0
M  V30 1452 H 131.693 -4.00594 2.2773 0
M  V30 1453 H 130.008 -3.69552 1.91886 0
M  V30 1454 H 132.605 -5.33703 -0.326392 0
M  V30 1455 H 132.948 -3.94629 -1.32565 0
M  V30 1456 H 133.481 -3.96047 0.373065 0
M  V30 1457 H 130.22 -6.05044 2.52193 0
M  V30 1458 H 129.74 -5.94268 0.81274 0
M  V30 1459 H 131.419 -6.34873 1.24681 0
M  V30 1460 N 131.551 -0.354651 -1.53558 0
M  V30 1461 C 132.798 0.238443 -2.01091 0
M  V30 1462 C 133.126 1.49663 -1.24222 0
M  V30 1463 O 132.381 1.93049 -0.321003 0
M  V30 1464 C 132.68 0.587121 -3.52545 0
M  V30 1465 C 132.346 -0.575472 -4.47213 0
M  V30 1466 C 131.008 -0.894497 -4.72813 0
M  V30 1467 C 133.36 -1.35489 -5.03281 0
M  V30 1468 C 130.688 -1.99511 -5.51736 0
M  V30 1469 C 133.04 -2.44583 -5.83405 0
M  V30 1470 C 131.704 -2.77033 -6.07296 0
M  V30 1471 H 130.974 0.0872526 -0.735845 0
M  V30 1472 H 133.621 -0.484859 -1.8526 0
M  V30 1473 H 131.926 1.39129 -3.66265 0
M  V30 1474 H 133.623 1.05809 -3.86789 0
M  V30 1475 H 130.213 -0.316774 -4.27428 0
M  V30 1476 H 134.397 -1.12167 -4.83459 0
M  V30 1477 H 129.653 -2.25063 -5.68469 0
M  V30 1478 H 133.827 -3.05401 -6.25862 0
M  V30 1479 H 131.454 -3.6244 -6.68237 0
M  V30 1480 N 133.029 1.57378 -0.0835403 0
M  V30 1481 C 134.275 1.94217 0.583733 0
M  V30 1482 C 134.608 0.964653 1.68547 0
M  V30 1483 O 133.883 -0.00422258 1.945 0
M  V30 1484 C 134.166 3.41253 1.14972 0
M  V30 1485 C 134.019 4.49768 0.0538277 0
M  V30 1486 C 135.338 3.89352 2.05166 0
M  V30 1487 H 132.457 0.706233 0.210724 0
M  V30 1488 H 135.099 1.89392 -0.1519 0
M  V30 1489 H 133.249 3.45496 1.77665 0
M  V30 1490 H 134.921 4.57641 -0.579851 0
M  V30 1491 H 133.164 4.29432 -0.614068 0
M  V30 1492 H 133.835 5.49817 0.490452 0
M  V30 1493 H 136.311 3.87189 1.52393 0
M  V30 1494 H 135.187 4.92822 2.41698 0
M  V30 1495 H 135.448 3.27973 2.96456 0
M  V30 1496 N 134.507 -0.190092 1.56449 0
M  V30 1497 C 135.753 -0.911052 1.81184 0
M  V30 1498 C 136.086 -1.82699 0.658396 0
M  V30 1499 O 135.361 -1.91491 -0.340775 0
M  V30 1500 C 135.644 -1.72297 3.16205 0
M  V30 1501 C 135.497 -0.831419 4.42049 0
M  V30 1502 C 136.816 -2.69454 3.47969 0
M  V30 1503 H 133.935 -0.32977 0.659106 0
M  V30 1504 H 136.577 -0.178169 1.89163 0
M  V30 1505 H 134.727 -2.34778 3.09534 0
M  V30 1506 H 136.399 -0.220929 4.60771 0
M  V30 1507 H 134.642 -0.138406 4.33579 0
M  V30 1508 H 135.313 -1.43461 5.33032 0
M  V30 1509 H 137.789 -2.17104 3.54972 0
M  V30 1510 H 136.665 -3.23342 4.43555 0
M  V30 1511 H 136.926 -3.48744 2.71717 0
M  V30 1512 N 135.985 -1.50799 -0.457987 0
M  V30 1513 C 137.262 -1.52968 -1.21902 0
M  V30 1514 C 137.642 -0.281906 -2.09209 0
M  V30 1515 O 136.99 0.734076 -2.16388 0
M  V30 1516 C 137.2 -2.8326 -2.03875 0
M  V30 1517 C 138.548 -3.34425 -2.6162 0
M  V30 1518 O 139.572 -2.8467 -2.14106 0
M  V30 1519 O 138.431 -4.21188 -3.48228 0
M  V30 1520 H 135.525 -0.614129 -0.553873 0
M  V30 1521 H 138.071 -1.63098 -0.468739 0
M  V30 1522 H 136.843 -3.65543 -1.39621 0
M  V30 1523 H 136.466 -2.76195 -2.8601 0
M  V30 1524 N 137.463 0.71206 -1.40597 0
M  V30 1525 C 138.688 1.50617 -1.42581 0
M  V30 1526 C 139.113 1.88079 -0.0282102 0
M  V30 1527 O 138.471 1.53511 0.964579 0
M  V30 1528 C 138.519 2.7557 -2.3258 0
M  V30 1529 O 137.623 3.72414 -1.77148 0
M  V30 1530 H 136.964 0.453966 -0.484573 0
M  V30 1531 H 139.494 0.876649 -1.84868 0
M  V30 1532 H 139.504 3.2406 -2.47889 0
M  V30 1533 H 138.179 2.47639 -3.34138 0
M  V30 1534 H 136.756 3.31276 -1.71204 0
M  V30 1535 N 138.941 1.26152 0.944643 0
M  V30 1536 C 139.889 1.07215 2.06417 0
M  V30 1537 C 140.883 9.2007e-05 1.694 0
M  V30 1538 O 142.089 0.1565 1.79318 0
M  V30 1539 H 138.464 0.329837 0.675805 0
M  V30 1540 H 140.435 2.02099 2.19541 0
M  V30 1541 C 139.184 0.718197 3.40202 0
M  V30 1542 H 138.507 1.53497 3.69159 0
M  V30 1543 H 139.947 0.625459 4.19361 0
M  V30 1544 C 138.406 -0.576435 3.31932 0
M  V30 1545 O 138.936 -1.61574 3.67773 0
M  V30 1546 N 137.142 -0.565781 2.85039 0
M  V30 1547 H 136.689 0.280367 2.5607 0
M  V30 1548 H 136.647 -1.43213 2.79888 0
M  V30 1549 N 140.419 -1.14872 1.07899 0
M  V30 1550 C 141.696 -1.81928 0.71845 0
M  V30 1551 C 142.076 -1.95417 -0.798455 0
M  V30 1552 O 141.424 -1.50997 -1.715 0
M  V30 1553 C 141.634 -3.17937 1.43935 0
M  V30 1554 C 142.982 -3.93501 1.59506 0
M  V30 1555 O 144.006 -3.27509 1.40058 0
M  V30 1556 O 142.865 -5.1183 1.91551 0
M  V30 1557 H 139.959 -0.78628 0.256305 0
M  V30 1558 H 142.505 -1.21934 1.18026 0
M  V30 1559 H 141.277 -3.0325 2.47295 0
M  V30 1560 H 140.9 -3.85619 0.968687 0
M  V30 1561 N 141.898 -0.863906 -1.31812 0
M  V30 1562 C 143.314 -0.555004 -1.49639 0
M  V30 1563 C 143.514 0.912266 -1.79666 0
M  V30 1564 O 142.57 1.69479 -1.87171 0
M  V30 1565 C 143.883 -1.44998 -2.63431 0
M  V30 1566 C 145.431 -1.45138 -2.77316 0
M  V30 1567 C 145.906 -2.33179 -3.94197 0
M  V30 1568 N 147.397 -2.31025 -4.01474 0
M  V30 1569 C 148.132 -2.95871 -4.9117 0
M  V30 1570 N 147.628 -3.69863 -5.8581 0
M  V30 1571 N 149.421 -2.85211 -4.84367 0
M  V30 1572 H 141.572 -1.81339 -1.10589 0
M  V30 1573 H 143.835 -0.77505 -0.545895 0
M  V30 1574 H 143.541 -2.49377 -2.48 0
M  V30 1575 H 143.415 -1.14409 -3.59431 0
M  V30 1576 H 145.802 -0.415201 -2.92164 0
M  V30 1577 H 145.883 -1.79747 -1.82001 0
M  V30 1578 H 145.527 -3.3687 -3.80107 0
M  V30 1579 H 145.457 -1.95897 -4.88807 0
M  V30 1580 H 147.948 -1.77238 -3.33759 0
M  V30 1581 H 148.261 -4.16486 -6.50968 0
M  V30 1582 H 146.606 -3.73971 -5.85808 0
M  V30 1583 H 149.797 -2.26948 -4.09405 0
M  V30 1584 H 149.97 -3.36027 -5.54066 0
M  V30 1585 N 143.376 1.44774 -0.622745 0
M  V30 1586 C 144.286 2.34433 0.0886031 0
M  V30 1587 C 145.302 1.52131 0.844529 0
M  V30 1588 O 146.478 1.84886 0.798691 0
M  V30 1589 C 143.543 3.29986 1.0635 0
M  V30 1590 C 142.604 4.28195 0.307873 0
M  V30 1591 C 141.837 5.19183 1.23633 0
M  V30 1592 O 142.06 5.13918 2.47476 0
M  V30 1593 O 140.994 5.97515 0.725189 0
M  V30 1594 H 144.82 2.96693 -0.648599 0
M  V30 1595 H 142.405 1.44408 -0.382957 0
M  V30 1596 H 144.287 3.88825 1.6246 0
M  V30 1597 H 142.962 2.70269 1.78146 0
M  V30 1598 H 141.869 3.72927 -0.296064 0
M  V30 1599 H 143.202 4.90808 -0.3699 0
M  V30 1600 N 144.854 0.36279 1.53368 0
M  V30 1601 C 146.27 0.0116182 1.59596 0
M  V30 1602 C 146.47 -1.47012 1.37803 0
M  V30 1603 O 145.526 -2.23136 1.18181 0
M  V30 1604 C 146.839 0.465052 2.97082 0
M  V30 1605 C 148.387 0.419033 3.10182 0
M  V30 1606 C 148.862 0.848235 4.50077 0
M  V30 1607 N 150.353 0.803183 4.56183 0
M  V30 1608 C 151.088 1.107 5.62613 0
M  V30 1609 N 150.584 1.47996 6.76808 0
M  V30 1610 N 152.377 1.02998 5.52583 0
M  V30 1611 H 144.528 1.32775 1.65785 0
M  V30 1612 H 146.791 0.542518 0.777417 0
M  V30 1613 H 146.497 1.49892 3.18159 0
M  V30 1614 H 146.371 -0.149786 3.76902 0
M  V30 1615 H 148.758 -0.605696 2.88817 0
M  V30 1616 H 148.839 1.06933 2.32377 0
M  V30 1617 H 148.483 1.87107 4.7218 0
M  V30 1618 H 148.413 0.175218 5.26308 0
M  V30 1619 H 150.904 0.52838 3.74188 0
M  V30 1620 H 151.217 1.69613 7.53957 0
M  V30 1621 H 149.562 1.51859 6.78206 0
M  V30 1622 H 152.753 0.737817 4.62249 0
M  V30 1623 H 152.926 1.2701 6.35431 0
M  V30 1624 N 146.332 -1.57332 0.0918853 0
M  V30 1625 C 147.581 -1.93412 -0.572249 0
M  V30 1626 C 147.894 -0.975515 -1.69538 0
M  V30 1627 O 149.1 -1.22991 -2.42045 0
M  V30 1628 C 147.556 -3.43648 -1.0693 0
M  V30 1629 C 147.164 -4.47994 0.0239049 0
M  V30 1630 C 148.908 -3.88695 -1.70635 0
M  V30 1631 C 146.815 -5.89381 -0.488319 0
M  V30 1632 H 145.745 -0.721939 -0.217532 0
M  V30 1633 H 148.396 -1.82735 0.167369 0
M  V30 1634 H 146.778 -3.49466 -1.8625 0
M  V30 1635 H 147.952 -4.53815 0.799277 0
M  V30 1636 H 146.267 -4.12536 0.565946 0
M  V30 1637 H 148.864 -4.91725 -2.10025 0
M  V30 1638 H 149.207 -3.27166 -2.57426 0
M  V30 1639 H 149.74 -3.85564 -0.979023 0
M  V30 1640 H 146.479 -6.54602 0.342906 0
M  V30 1641 H 145.999 -5.87037 -1.23077 0
M  V30 1642 H 147.678 -6.39863 -0.958317 0
M  V30 1643 N 147.81 0.181792 -1.56548 0
M  V30 1644 C 148.742 1.24956 -1.92142 0
M  V30 1645 C 149.755 1.41022 -0.813422 0
M  V30 1646 O 150.944 1.41212 -1.09186 0
M  V30 1647 C 148.044 2.61981 -2.14987 0
M  V30 1648 C 147.217 2.6735 -3.46183 0
M  V30 1649 C 146.276 3.85664 -3.5798 0
M  V30 1650 O 145.302 3.72148 -4.30691 0
M  V30 1651 N 146.504 5.01683 -2.92053 0
M  V30 1652 H 149.269 0.947329 -2.84334 0
M  V30 1653 H 146.83 0.371629 -1.57577 0
M  V30 1654 H 148.822 3.3958 -2.20154 0
M  V30 1655 H 147.392 2.84637 -1.2923 0
M  V30 1656 H 146.612 1.75925 -3.52766 0
M  V30 1657 H 147.9 2.67939 -4.32534 0
M  V30 1658 H 147.298 5.15564 -2.32832 0
M  V30 1659 H 145.855 5.77181 -3.0283 0
M  V30 1660 N 149.288 1.51039 0.449983 0
M  V30 1661 C 150.198 1.74261 1.57067 0
M  V30 1662 C 151.214 0.626363 1.62335 0
M  V30 1663 O 152.39 0.907162 1.79812 0
M  V30 1664 C 149.455 1.85114 2.93144 0
M  V30 1665 C 148.516 3.0893 2.98095 0
M  V30 1666 C 147.749 3.19256 4.27681 0
M  V30 1667 O 147.972 2.35835 5.19363 0
M  V30 1668 O 146.906 4.12144 4.38658 0
M  V30 1669 H 150.732 2.69303 1.40391 0
M  V30 1670 H 148.317 1.35389 0.631688 0
M  V30 1671 H 150.199 1.94311 3.73926 0
M  V30 1672 H 148.874 0.932588 3.09975 0
M  V30 1673 H 147.781 3.0522 2.16314 0
M  V30 1674 H 149.114 4.00433 2.86206 0
M  V30 1675 N 150.766 -0.704594 1.40972 0
M  V30 1676 C 152.012 -1.46675 1.40051 0
M  V30 1677 C 152.345 -1.94199 0.00641102 0
M  V30 1678 O 151.62 -1.68916 -0.964235 0
M  V30 1679 C 151.903 -2.68505 2.39952 0
M  V30 1680 C 151.756 -2.26805 3.88432 0
M  V30 1681 C 153.075 -3.70686 2.37233 0
M  V30 1682 H 150.194 -0.532015 0.510028 0
M  V30 1683 H 152.836 -0.803255 1.72185 0
M  V30 1684 H 150.986 -3.25114 2.1268 0
M  V30 1685 H 152.658 -1.75592 4.26574 0
M  V30 1686 H 150.901 -1.58685 4.03734 0
M  V30 1687 H 151.572 -3.14181 4.53866 0
M  V30 1688 H 154.048 -3.23731 2.61415 0
M  V30 1689 H 152.924 -4.53553 3.09162 0
M  V30 1690 H 153.185 -4.19754 1.38777 0
M  V30 1691 N 152.244 -1.26651 -0.937939 0
M  V30 1692 C 153.207 -1.08546 -2.01867 0
M  V30 1693 C 154.207 -0.0327327 -1.60767 0
M  V30 1694 O 155.397 -0.276427 -1.71993 0
M  V30 1695 C 152.529 -0.651711 -3.34613 0
M  V30 1696 H 153.722 -2.04502 -2.1936 0
M  V30 1697 H 151.275 -1.09294 -1.11734 0
M  V30 1698 H 152.01 0.309696 -3.22818 0
M  V30 1699 H 151.795 -1.41189 -3.65798 0
M  V30 1700 H 153.285 -0.546973 -4.14002 0
M  V30 1701 N 153.722 1.14298 -1.08507 0
M  V30 1702 C 154.999 1.81544 -0.728088 0
M  V30 1703 C 155.379 1.95838 0.78808 0
M  V30 1704 O 154.727 1.51904 1.70697 0
M  V30 1705 C 154.937 3.17169 -1.45619 0
M  V30 1706 C 156.285 3.9265 -1.61591 0
M  V30 1707 O 157.309 3.26762 -1.41793 0
M  V30 1708 O 156.168 5.10807 -1.94263 0
M  V30 1709 H 153.262 0.78491 -0.260471 0
M  V30 1710 H 155.808 1.21307 -1.18671 0
M  V30 1711 H 154.58 3.01934 -2.489 0
M  V30 1712 H 154.203 3.851 -0.989124 0
M  V30 1713 N 155.201 0.870884 1.31352 0
M  V30 1714 C 156.111 0.330783 2.32256 0
M  V30 1715 C 157.127 -0.559767 1.6475 0
M  V30 1716 O 158.303 -0.456263 1.96164 0
M  V30 1717 C 155.368 -0.458137 3.4366 0
M  V30 1718 C 154.429 0.460482 4.26823 0
M  V30 1719 C 153.662 -0.290881 5.32907 0
M  V30 1720 O 153.885 -1.51885 5.49806 0
M  V30 1721 O 152.819 0.351732 6.00871 0
M  V30 1722 H 156.645 1.16718 2.80376 0
M  V30 1723 H 154.23 0.634285 1.35267 0
M  V30 1724 H 156.112 -0.905343 4.1156 0
M  V30 1725 H 154.787 -1.27106 2.97701 0
M  V30 1726 H 153.694 0.956207 3.61673 0
M  V30 1727 H 155.027 1.23903 4.7635 0
M  V30 1728 N 156.679 -1.44442 0.630414 0
M  V30 1729 C 157.609 -2.33418 -0.0618083 0
M  V30 1730 C 158.59 -1.48165 -0.835541 0
M  V30 1731 O 159.775 -1.76886 -0.801564 0
M  V30 1732 C 156.905 -3.31222 -1.04449 0
M  V30 1733 C 155.859 -4.26288 -0.382436 0
M  V30 1734 C 155.185 -5.13954 -1.47497 0
M  V30 1735 C 156.485 -5.1744 0.710865 0
M  V30 1736 H 158.179 -2.91548 0.681184 0
M  V30 1737 H 155.725 -1.40191 0.329026 0
M  V30 1738 H 157.678 -3.92351 -1.53748 0
M  V30 1739 H 156.402 -2.71299 -1.81836 0
M  V30 1740 H 155.061 -3.6649 0.0899054 0
M  V30 1741 H 154.709 -4.50385 -2.2397 0
M  V30 1742 H 154.409 -5.7837 -1.03737 0
M  V30 1743 H 155.933 -5.77955 -1.96979 0
M  V30 1744 H 157.347 -5.72509 0.300996 0
M  V30 1745 H 155.744 -5.90455 1.07156 0
M  V30 1746 H 156.814 -4.58496 1.57829 0
M  V30 1747 N 158.157 -0.370918 -1.53173 0
M  V30 1748 C 159.089 0.507823 -2.23503 0
M  V30 1749 C 160.102 1.04182 -1.251 0
M  V30 1750 O 161.291 0.947286 -1.5129 0
M  V30 1751 C 158.391 1.71447 -2.92334 0
M  V30 1752 C 157.564 1.31105 -4.17289 0
M  V30 1753 C 156.623 2.38035 -4.69282 0
M  V30 1754 O 155.649 2.00204 -5.32829 0
M  V30 1755 N 156.851 3.69697 -4.47554 0
M  V30 1756 H 159.616 -0.0946382 -2.99551 0
M  V30 1757 H 157.177 -0.196358 -1.60705 0
M  V30 1758 H 159.169 2.42469 -3.24023 0
M  V30 1759 H 157.739 2.22368 -2.19707 0
M  V30 1760 H 156.959 0.430462 -3.91843 0
M  V30 1761 H 158.247 1.0179 -4.98514 0
M  V30 1762 H 157.645 4.03205 -3.9679 0
M  V30 1763 H 156.202 4.36807 -4.8378 0
M  V30 1764 N 159.635 1.57281 -0.100228 0
M  V30 1765 C 160.582 2.14305 0.856858 0
M  V30 1766 C 161.552 1.06296 1.27634 0
M  V30 1767 O 162.737 1.34109 1.35718 0
M  V30 1768 C 159.877 2.73184 2.10866 0
M  V30 1769 C 158.99 3.95442 1.73925 0
M  V30 1770 C 158.125 4.42468 2.93931 0
M  V30 1771 C 157.164 5.57303 2.5314 0
M  V30 1772 N 156.301 5.99158 3.65997 0
M  V30 1773 H 161.141 2.95772 0.363726 0
M  V30 1774 H 158.678 1.46139 0.167858 0
M  V30 1775 H 160.636 3.05442 2.84185 0
M  V30 1776 H 159.266 1.94437 2.57671 0
M  V30 1777 H 158.318 3.69464 0.905554 0
M  V30 1778 H 159.63 4.78769 1.39935 0
M  V30 1779 H 158.784 4.76537 3.75496 0
M  V30 1780 H 157.523 3.58052 3.31134 0
M  V30 1781 H 156.528 5.22857 1.70003 0
M  V30 1782 H 157.753 6.43471 2.17075 0
M  V30 1783 H 155.699 5.17687 4.02909 0
M  V30 1784 H 155.616 6.77295 3.35869 0
M  V30 1785 H 156.884 6.3786 4.48057 0
M  V30 1786 N 161.113 -0.173488 1.56642 0
M  V30 1787 C 162.046 -1.24353 1.91342 0
M  V30 1788 C 163.024 -1.4289 0.775965 0
M  V30 1789 O 164.208 -1.57932 1.02907 0
M  V30 1790 C 161.335 -2.60683 2.16245 0
M  V30 1791 C 160.381 -2.58894 3.38934 0
M  V30 1792 S 161.214 -2.0819 4.93373 0
M  V30 1793 C 162.37 -3.46302 5.21369 0
M  V30 1794 H 162.603 -0.947345 2.81803 0
M  V30 1795 H 160.136 -0.377958 1.49703 0
M  V30 1796 H 162.094 -3.39149 2.31275 0
M  V30 1797 H 160.755 -2.87502 1.26496 0
M  V30 1798 H 159.948 -3.59188 3.53553 0
M  V30 1799 H 159.55 -1.88522 3.2301 0
M  V30 1800 H 161.842 -4.42287 5.13214 0
M  V30 1801 H 162.785 -3.3656 6.23003 0
M  V30 1802 H 163.193 -3.42214 4.48943 0
M  V30 1803 N 162.591 -1.51276 -0.441967 0
M  V30 1804 C 163.521 -1.752 -1.54361 0
M  V30 1805 C 164.502 -0.601682 -1.59103 0
M  V30 1806 O 165.687 -0.843913 -1.74905 0
M  V30 1807 C 162.817 -1.87282 -2.92477 0
M  V30 1808 C 161.771 -3.02687 -3.02596 0
M  V30 1809 C 161.097 -2.99947 -4.42647 0
M  V30 1810 C 162.397 -4.4273 -2.77106 0
M  V30 1811 H 164.091 -2.67442 -1.34592 0
M  V30 1812 H 161.637 -1.28694 -0.646048 0
M  V30 1813 H 163.59 -2.02602 -3.695 0
M  V30 1814 H 162.314 -0.916844 -3.13467 0
M  V30 1815 H 160.973 -2.87065 -2.28012 0
M  V30 1816 H 160.621 -2.02136 -4.60597 0
M  V30 1817 H 160.321 -3.77439 -4.50348 0
M  V30 1818 H 161.845 -3.17354 -5.2165 0
M  V30 1819 H 163.259 -4.58727 -3.43864 0
M  V30 1820 H 161.656 -5.21893 -2.96222 0
M  V30 1821 H 162.726 -4.53087 -1.72744 0
M  V30 1822 N 164.069 0.697108 -1.41344 0
M  V30 1823 C 164.999 1.82353 -1.45841 0
M  V30 1824 C 165.98 1.67115 -0.317247 0
M  V30 1825 O 167.165 1.86871 -0.528474 0
M  V30 1826 C 164.295 3.20476 -1.33838 0
M  V30 1827 C 163.249 3.50415 -2.4575 0
M  V30 1828 C 162.575 4.87878 -2.18813 0
M  V30 1829 C 163.875 3.49546 -3.88091 0
M  V30 1830 H 165.569 1.78846 -2.40113 0
M  V30 1831 H 163.115 0.859028 -1.15571 0
M  V30 1832 H 165.068 3.98988 -1.35596 0
M  V30 1833 H 163.792 3.24604 -0.360498 0
M  V30 1834 H 162.451 2.74253 -2.43271 0
M  V30 1835 H 162.099 4.8863 -1.19371 0
M  V30 1836 H 161.799 5.08875 -2.93803 0
M  V30 1837 H 163.323 5.68702 -2.22284 0
M  V30 1838 H 164.737 4.18066 -3.92293 0
M  V30 1839 H 163.134 3.82075 -4.62751 0
M  V30 1840 H 164.204 2.48552 -4.16353 0
M  V30 1841 N 165.547 1.27147 0.931209 0
M  V30 1842 C 166.793 1.13446 1.68101 0
M  V30 1843 C 167.126 -0.319628 1.91552 0
M  V30 1844 O 166.401 -1.23407 1.50336 0
M  V30 1845 C 166.684 1.91482 3.0497 0
M  V30 1846 C 166.537 3.44855 2.88782 0
M  V30 1847 C 167.856 1.71651 4.05246 0
M  V30 1848 H 164.975 0.413498 0.610072 0
M  V30 1849 H 167.617 1.56261 1.08086 0
M  V30 1850 H 165.767 1.55095 3.56199 0
M  V30 1851 H 167.439 3.9105 2.44698 0
M  V30 1852 H 165.682 3.71373 2.24198 0
M  V30 1853 H 166.353 3.94694 3.85902 0
M  V30 1854 H 168.829 2.0337 3.63015 0
M  V30 1855 H 167.705 2.28651 4.99009 0
M  V30 1856 H 167.966 0.663555 4.37092 0
M  V30 1857 N 167.025 -1.13721 1.09112 0
M  V30 1858 C 168.302 -1.81155 0.737706 0
M  V30 1859 C 168.682 -1.96253 -0.777683 0
M  V30 1860 O 168.03 -1.52807 -1.69889 0
M  V30 1861 C 168.24 -3.16392 1.47299 0
M  V30 1862 C 169.588 -3.91787 1.63671 0
M  V30 1863 O 170.612 -3.26005 1.43524 0
M  V30 1864 O 169.471 -5.0977 1.96969 0
M  V30 1865 H 166.565 -0.783518 0.26463 0
M  V30 1866 H 169.111 -1.20676 1.19312 0
M  V30 1867 H 167.883 -3.0061 2.50498 0
M  V30 1868 H 167.506 -3.8457 1.00953 0
M  V30 1869 N 168.503 -0.877838 -1.30888 0
M  V30 1870 C 169.413 -0.343096 -2.32078 0
M  V30 1871 C 170.429 0.551022 -1.65045 0
M  V30 1872 O 171.605 0.445854 -1.96403 0
M  V30 1873 C 168.67 0.439905 -3.43898 0
M  V30 1874 C 167.731 -0.483111 -4.26573 0
M  V30 1875 C 166.964 0.262616 -5.33053 0
M  V30 1876 O 167.187 1.48967 -5.50604 0
M  V30 1877 O 166.121 -0.383593 -6.00676 0
M  V30 1878 H 169.947 -1.18203 -2.79753 0
M  V30 1879 H 167.532 -0.64145 -1.34929 0
M  V30 1880 H 169.414 0.883504 -4.12034 0
M  V30 1881 H 168.089 1.25526 -2.98371 0
M  V30 1882 H 166.996 -0.975374 -3.61161 0
M  V30 1883 H 168.329 -1.26427 -4.75686 0
M  V30 1884 N 169.982 1.44106 -0.638065 0
M  V30 1885 C 170.912 2.33448 0.0494287 0
M  V30 1886 C 171.893 1.48606 0.827672 0
M  V30 1887 O 173.078 1.77308 0.792173 0
M  V30 1888 C 170.208 3.31771 1.02691 0
M  V30 1889 C 169.162 4.26485 0.359823 0
M  V30 1890 C 168.488 5.14729 1.44769 0
M  V30 1891 C 169.788 5.17056 -0.738296 0
M  V30 1892 H 171.482 2.91183 -0.696636 0
M  V30 1893 H 169.028 1.40014 -0.336456 0
M  V30 1894 H 170.981 3.93161 1.51666 0
M  V30 1895 H 169.705 2.7226 1.80395 0
M  V30 1896 H 168.364 3.66437 -0.10934 0
M  V30 1897 H 168.012 4.51566 2.21578 0
M  V30 1898 H 167.712 5.78913 1.00668 0
M  V30 1899 H 169.236 5.78991 1.93911 0
M  V30 1900 H 170.65 5.72342 -0.331354 0
M  V30 1901 H 169.047 5.89879 -1.10286 0
M  V30 1902 H 170.117 4.57652 -1.60258 0
M  V30 1903 N 171.46 0.379036 1.52974 0
M  V30 1904 C 172.876 0.0285448 1.59574 0
M  V30 1905 C 173.076 -1.45542 1.39355 0
M  V30 1906 O 172.132 -2.2187 1.20541 0
M  V30 1907 C 173.445 0.496535 2.96572 0
M  V30 1908 C 174.993 0.451909 3.0972 0
M  V30 1909 C 175.468 0.895924 4.49152 0
M  V30 1910 N 176.959 0.851522 4.55306 0
M  V30 1911 C 177.694 1.16661 5.61407 0
M  V30 1912 N 177.19 1.55166 6.752 0
M  V30 1913 N 178.983 1.08853 5.51459 0
M  V30 1914 H 171.134 1.34525 1.64367 0
M  V30 1915 H 173.397 0.550733 0.771619 0
M  V30 1916 H 173.103 1.53258 3.16552 0
M  V30 1917 H 172.977 -0.109802 3.7704 0
M  V30 1918 H 175.364 -0.575029 2.89443 0
M  V30 1919 H 175.445 1.09392 2.3123 0
M  V30 1920 H 175.089 1.92104 4.70168 0
M  V30 1921 H 175.019 0.23103 5.26093 0
M  V30 1922 H 177.51 0.568038 3.73606 0
M  V30 1923 H 177.823 1.776 7.52116 0
M  V30 1924 H 176.168 1.59044 6.76557 0
M  V30 1925 H 179.359 0.786803 4.6144 0
M  V30 1926 H 179.532 1.33742 6.34048 0
M  V30 1927 N 172.938 -1.57226 0.108567 0
M  V30 1928 C 174.215 -1.86333 -0.594939 0
M  V30 1929 C 174.595 -1.00788 -1.85486 0
M  V30 1930 O 173.943 -0.0839293 -2.28346 0
M  V30 1931 C 174.153 -3.37265 -0.897405 0
M  V30 1932 C 175.501 -4.05629 -1.25501 0
M  V30 1933 O 176.525 -3.42224 -0.987998 0
M  V30 1934 O 175.384 -5.17531 -1.75567 0
M  V30 1935 H 172.478 -0.771018 -0.2991 0
M  V30 1936 H 175.024 -1.69102 0.142283 0
M  V30 1937 H 173.796 -3.913 -0.00413806 0
M  V30 1938 H 173.419 -3.59889 -1.69014 0
M  V30 1939 N 174.416 0.165178 -1.56732 0
M  V30 1940 C 175.379 1.18822 -1.95995 0
M  V30 1941 C 176.379 1.3685 -0.84431 0
M  V30 1942 O 177.569 1.34152 -1.11126 0
M  V30 1943 C 174.701 2.5521 -2.26011 0
M  V30 1944 H 175.894 0.851825 -2.87548 0
M  V30 1945 H 173.447 0.407857 -1.50885 0
M  V30 1946 H 174.182 2.93852 -1.37191 0
M  V30 1947 H 173.967 2.43489 -3.07336 0
M  V30 1948 H 175.457 3.28927 -2.57288 0
M  V30 1949 N 175.894 1.51508 0.433938 0
M  V30 1950 C 177.14 1.64588 1.18484 0
M  V30 1951 C 177.473 0.362666 1.90784 0
M  V30 1952 O 176.748 -0.637892 1.83742 0
M  V30 1953 C 177.031 2.85149 2.19913 0
M  V30 1954 C 176.884 4.23456 1.51674 0
M  V30 1955 C 178.203 3.01227 3.20858 0
M  V30 1956 H 175.322 0.598994 0.429389 0
M  V30 1957 H 177.964 1.84002 0.473647 0
M  V30 1958 H 176.114 2.68729 2.80566 0
M  V30 1959 H 177.786 4.51552 0.943322 0
M  V30 1960 H 176.029 4.25998 0.819035 0
M  V30 1961 H 176.7 5.03812 2.2556 0
M  V30 1962 H 179.176 3.16382 2.70263 0
M  V30 1963 H 178.052 3.87141 3.89118 0
M  V30 1964 H 178.313 2.13447 3.8716 0
M  V30 1965 N 177.372 -0.689602 1.41712 0
M  V30 1966 C 178.302 -1.81577 1.46806 0
M  V30 1967 C 179.283 -1.66945 0.326105 0
M  V30 1968 O 180.468 -1.86588 0.538377 0
M  V30 1969 C 177.598 -3.19762 1.35535 0
M  V30 1970 C 176.552 -3.49107 2.47605 0
M  V30 1971 C 175.878 -4.86711 2.21397 0
M  V30 1972 C 177.178 -3.47483 3.89939 0
M  V30 1973 H 178.872 -1.7757 2.41058 0
M  V30 1974 H 176.418 -0.852887 1.16025 0
M  V30 1975 H 178.371 -3.98263 1.3771 0
M  V30 1976 H 177.095 -3.24409 0.377708 0
M  V30 1977 H 175.754 -2.72959 2.44722 0
M  V30 1978 H 175.402 -4.8799 1.21961 0
M  V30 1979 H 175.102 -5.0731 2.96497 0
M  V30 1980 H 176.626 -5.67515 2.25297 0
M  V30 1981 H 178.04 -4.1598 3.94505 0
M  V30 1982 H 176.437 -3.79615 4.64771 0
M  V30 1983 H 177.507 -2.46341 4.17665 0
M  V30 1984 N 178.85 -1.27639 -0.924453 0
M  V30 1985 C 179.78 -1.13166 -2.04244 0
M  V30 1986 C 180.761 -0.032256 -1.70069 0
M  V30 1987 O 181.946 -0.207328 -1.9309 0
M  V30 1988 C 179.076 -0.781496 -3.38393 0
M  V30 1989 C 178.03 -1.83449 -3.86692 0
M  V30 1990 C 177.356 -1.33822 -5.17683 0
M  V30 1991 C 178.656 -3.23917 -4.09726 0
M  V30 1992 H 180.35 -2.06689 -2.1661 0
M  V30 1993 H 177.896 -0.995136 -1.04082 0
M  V30 1994 H 179.849 -0.667057 -4.16087 0
M  V30 1995 H 178.573 0.189439 -3.2605 0
M  V30 1996 H 177.232 -1.93789 -3.11193 0
M  V30 1997 H 176.88 -0.35665 -5.01734 0
M  V30 1998 H 176.58 -2.04224 -5.50968 0
M  V30 1999 H 178.104 -1.23679 -5.97943 0
M  V30 2000 H 179.518 -3.16559 -4.77978 0
M  V30 2001 H 177.915 -3.92059 -4.54324 0
M  V30 2002 H 178.985 -3.68729 -3.14908 0
M  V30 2003 N 180.328 1.1314 -1.09713 0
M  V30 2004 C 181.258 2.20748 -0.761102 0
M  V30 2005 C 182.239 1.68061 0.262566 0
M  V30 2006 O 183.424 1.93765 0.129977 0
M  V30 2007 C 180.554 3.46812 -0.184054 0
M  V30 2008 C 179.508 4.12606 -1.13757 0
M  V30 2009 C 178.834 5.33031 -0.422083 0
M  V30 2010 C 180.134 4.59603 -2.48118 0
M  V30 2011 H 181.828 2.49113 -1.66082 0
M  V30 2012 H 179.374 1.19734 -0.799987 0
M  V30 2013 H 181.327 4.21353 0.0631215 0
M  V30 2014 H 180.051 3.17851 0.750868 0
M  V30 2015 H 178.71 3.40036 -1.37007 0
M  V30 2016 H 178.358 5.00335 0.517072 0
M  V30 2017 H 178.058 5.77999 -1.05788 0
M  V30 2018 H 179.582 6.10325 -0.183277 0
M  V30 2019 H 180.996 5.25552 -2.29059 0
M  V30 2020 H 179.393 5.15321 -3.07514 0
M  V30 2021 H 180.463 3.73971 -3.08665 0
M  V30 2022 N 181.806 0.884767 1.30421 0
M  V30 2023 C 183.053 0.503105 1.96151 0
M  V30 2024 C 183.381 -0.947676 1.69851 0
M  V30 2025 O 182.636 -1.68467 0.995861 0
M  V30 2026 C 182.935 0.724318 3.49983 0
M  V30 2027 C 182.601 2.15015 3.96332 0
M  V30 2028 C 181.263 2.54005 4.08699 0
M  V30 2029 C 183.615 3.07936 4.20505 0
M  V30 2030 C 180.943 3.85128 4.42599 0
M  V30 2031 C 183.295 4.3859 4.55874 0
M  V30 2032 C 181.959 4.77474 4.66449 0
M  V30 2033 H 181.229 0.184099 0.717766 0
M  V30 2034 H 183.876 1.12058 1.55291 0
M  V30 2035 H 182.181 0.0238086 3.91793 0
M  V30 2036 H 183.878 0.408617 3.98913 0
M  V30 2037 H 180.468 1.8375 3.87213 0
M  V30 2038 H 184.652 2.79033 4.10431 0
M  V30 2039 H 179.908 4.14996 4.48986 0
M  V30 2040 H 184.082 5.10629 4.7353 0
M  V30 2041 H 181.709 5.79115 4.92473 0
M  V30 2042 N 183.284 -1.43765 0.645699 0
M  V30 2043 C 184.247 -2.29163 -0.0409488 0
M  V30 2044 C 185.247 -1.41813 -0.757996 0
M  V30 2045 O 186.437 -1.63527 -0.600382 0
M  V30 2046 C 183.569 -3.23716 -1.06869 0
M  V30 2047 H 184.762 -2.91366 0.710345 0
M  V30 2048 H 182.315 -1.5092 0.406547 0
M  V30 2049 H 183.05 -2.66393 -1.84947 0
M  V30 2050 H 182.835 -3.88105 -0.558277 0
M  V30 2051 H 184.325 -3.87831 -1.54845 0
M  V30 2052 N 184.763 -0.387143 -1.52771 0
M  V30 2053 C 185.711 0.463953 -2.27926 0
M  V30 2054 C 186.705 1.06493 -1.31741 0
M  V30 2055 O 187.911 1.00565 -1.49287 0
M  V30 2056 H 184.286 0.16837 -0.732909 0
M  V30 2057 H 186.257 -0.19141 -2.97785 0
M  V30 2058 C 185.006 1.5803 -3.09713 0
M  V30 2059 H 184.329 1.12718 -3.83581 0
M  V30 2060 H 185.769 2.15008 -3.65442 0
M  V30 2061 C 184.228 2.53509 -2.2189 0
M  V30 2062 O 184.758 3.56863 -1.84422 0
M  V30 2063 N 182.964 2.23199 -1.86093 0
M  V30 2064 H 182.511 1.39185 -2.16761 0
M  V30 2065 H 182.469 2.87333 -1.27621 0
M  V30 2066 N 186.241 1.57166 -0.116904 0
M  V30 2067 C 187.188 2.15202 0.83408 0
M  V30 2068 C 188.158 1.07644 1.26499 0
M  V30 2069 O 189.343 1.35541 1.34288 0
M  V30 2070 C 186.483 2.75405 2.07957 0
M  V30 2071 C 185.596 3.97264 1.69721 0
M  V30 2072 C 184.731 4.45561 2.89221 0
M  V30 2073 C 183.77 5.59956 2.47215 0
M  V30 2074 N 182.907 6.03006 3.59622 0
M  V30 2075 H 187.747 2.96141 0.332335 0
M  V30 2076 H 185.284 1.46309 0.152349 0
M  V30 2077 H 187.242 3.08439 2.80929 0
M  V30 2078 H 185.872 1.97159 2.55594 0
M  V30 2079 H 184.924 3.70404 0.866316 0
M  V30 2080 H 186.236 4.80226 1.34849 0
M  V30 2081 H 185.39 4.80493 3.7042 0
M  V30 2082 H 184.129 3.61544 3.27318 0
M  V30 2083 H 183.134 5.2463 1.64448 0
M  V30 2084 H 184.359 6.45738 2.10238 0
M  V30 2085 H 182.305 5.21931 3.97396 0
M  V30 2086 H 182.222 6.80819 3.28667 0
M  V30 2087 H 183.49 6.42576 4.41267 0
M  V30 2088 N 187.719 -0.156864 1.56817 0
M  V30 2089 C 188.651 -1.21883 1.94106 0
M  V30 2090 C 189.664 -1.3971 0.835754 0
M  V30 2091 O 190.853 -1.39457 1.11418 0
M  V30 2092 C 187.953 -2.58527 2.19127 0
M  V30 2093 C 187.126 -2.61809 3.50393 0
M  V30 2094 C 186.185 -3.7992 3.64071 0
M  V30 2095 O 185.211 -3.65249 4.36557 0
M  V30 2096 N 186.413 -4.96973 2.99997 0
M  V30 2097 H 189.178 -0.901974 2.85805 0
M  V30 2098 H 186.739 -0.346513 1.58148 0
M  V30 2099 H 188.731 -3.36034 2.25529 0
M  V30 2100 H 187.301 -2.82545 1.33742 0
M  V30 2101 H 186.521 -1.7029 3.5552 0
M  V30 2102 H 187.809 -2.61024 4.36742 0
M  V30 2103 H 187.207 -5.11794 2.41004 0
M  V30 2104 H 185.764 -5.7229 3.11974 0
M  V30 2105 N 189.197 -1.51736 -0.425897 0
M  V30 2106 C 190.474 -1.55519 -1.1863 0
M  V30 2107 C 190.854 -0.326219 -2.08564 0
M  V30 2108 O 190.202 0.688012 -2.17896 0
M  V30 2109 C 190.412 -2.87521 -1.9782 0
M  V30 2110 C 191.76 -3.39899 -2.54468 0
M  V30 2111 O 192.784 -2.89148 -2.08019 0
M  V30 2112 O 191.643 -4.2848 -3.39215 0
M  V30 2113 H 188.737 -0.625739 -0.540721 0
M  V30 2114 H 191.283 -1.64055 -0.434038 0
M  V30 2115 H 190.055 -3.68422 -1.31836 0
M  V30 2116 H 189.678 -2.822 -2.80088 0
M  V30 2117 N 190.675 0.682077 -1.42076 0
M  V30 2118 C 191.605 1.80796 -1.47767 0
M  V30 2119 C 192.586 1.6677 -0.334954 0
M  V30 2120 O 193.771 1.863 -0.548264 0
M  V30 2121 C 190.901 3.19038 -1.37229 0
M  V30 2122 C 189.855 3.47789 -2.49453 0
M  V30 2123 C 189.181 4.8553 -2.23975 0
M  V30 2124 C 190.481 3.45411 -3.91776 0
M  V30 2125 H 192.175 1.7629 -2.41997 0
M  V30 2126 H 189.721 0.846721 -1.16476 0
M  V30 2127 H 191.674 3.97528 -1.39821 0
M  V30 2128 H 190.398 3.24204 -0.394907 0
M  V30 2129 H 189.057 2.71657 -2.46166 0
M  V30 2130 H 188.705 4.87337 -1.24547 0
M  V30 2131 H 188.405 5.0573 -2.99184 0
M  V30 2132 H 189.929 5.66312 -2.28304 0
M  V30 2133 H 191.343 4.13882 -3.96705 0
M  V30 2134 H 189.74 3.77145 -4.66778 0
M  V30 2135 H 190.81 2.44122 -4.18966 0
M  V30 2136 N 192.153 1.28127 0.917671 0
M  V30 2137 C 193.564 1.13622 1.48145 0
M  V30 2138 C 193.915 -0.275207 1.9426 0
M  V30 2139 O 193.04 -1.1691 1.82102 0
M  V30 2140 C 193.635 2.05648 2.69248 0
M  V30 2141 C 192.194 1.95219 3.21818 0
M  V30 2142 C 191.341 1.97618 1.94532 0
M  V30 2143 H 194.292 1.40874 0.730772 0
M  V30 2144 H 194.313 1.61818 3.44377 0
M  V30 2145 H 193.825 3.08365 2.35653 0
M  V30 2146 H 191.926 0.955244 3.60147 0
M  V30 2147 H 192.039 2.81976 3.87333 0
M  V30 2148 H 190.403 1.41973 2.11461 0
M  V30 2149 H 191.186 3.02007 1.63238 0
M  V30 2150 N 193.631 -1.12557 1.10312 0
M  V30 2151 C 194.579 -2.20325 0.745629 0
M  V30 2152 C 195.573 -1.67429 -0.25763 0
M  V30 2153 O 196.779 -1.79612 -0.118132 0
M  V30 2154 H 193.154 -0.718118 0.223182 0
M  V30 2155 H 195.125 -2.47733 1.66346 0
M  V30 2156 C 193.874 -3.47168 0.192262 0
M  V30 2157 H 193.197 -3.88215 0.955475 0
M  V30 2158 H 194.637 -4.23995 -0.0198274 0
M  V30 2159 C 193.096 -3.19298 -1.07472 0
M  V30 2160 O 193.626 -3.3891 -2.15645 0
M  V30 2161 N 191.832 -2.73113 -0.992847 0
M  V30 2162 H 191.379 -2.57354 -0.112474 0
M  V30 2163 H 191.337 -2.54842 -1.84127 0
M  V30 2164 N 195.109 -0.891671 -1.2995 0
M  V30 2165 C 196.072 -0.36828 -2.26222 0
M  V30 2166 C 197.072 0.493014 -1.53056 0
M  V30 2167 O 198.262 0.299213 -1.71611 0
M  V30 2168 C 195.394 0.47442 -3.37583 0
M  V30 2169 H 196.587 -1.21844 -2.74033 0
M  V30 2170 H 194.14 -0.669107 -1.41254 0
M  V30 2171 H 194.875 1.34489 -2.95099 0
M  V30 2172 H 194.66 -0.142615 -3.91841 0
M  V30 2173 H 196.15 0.83218 -4.09224 0
M  V30 2174 N 196.587 1.43421 -0.653314 0
M  V30 2175 C 197.52 2.2803 0.0879804 0
M  V30 2176 C 198.498 1.39833 0.82979 0
M  V30 2177 O 199.682 1.69275 0.829341 0
M  V30 2178 C 196.809 3.19247 1.13132 0
M  V30 2179 C 195.855 4.23704 0.487546 0
M  V30 2180 S 196.688 5.30377 -0.738961 0
M  V30 2181 C 197.844 6.25162 0.30384 0
M  V30 2182 H 198.077 2.90554 -0.629739 0
M  V30 2183 H 195.61 1.47934 -0.442156 0
M  V30 2184 H 197.568 3.72346 1.72827 0
M  V30 2185 H 196.229 2.55901 1.82136 0
M  V30 2186 H 195.422 4.87631 1.27407 0
M  V30 2187 H 195.024 3.73983 -0.0352915 0
M  V30 2188 H 197.316 6.67321 1.17 0
M  V30 2189 H 198.259 7.07463 -0.300402 0
M  V30 2190 H 198.667 5.60864 0.63969 0
M  V30 2191 N 198.065 0.39524 1.52563 0
M  V30 2192 C 199.028 -0.425001 2.25225 0
M  V30 2193 C 200.028 -0.985266 1.27079 0
M  V30 2194 O 201.218 -0.866332 1.5113 0
M  V30 2195 C 198.35 -1.59686 3.01186 0
M  V30 2196 H 199.543 0.211233 2.99155 0
M  V30 2197 H 197.096 0.147472 1.55603 0
M  V30 2198 H 197.831 -2.27035 2.31572 0
M  V30 2199 H 197.616 -1.20176 3.73229 0
M  V30 2200 H 199.106 -2.17743 3.5634 0
M  V30 2201 N 199.544 -1.57102 0.125237 0
M  V30 2202 C 200.793 -1.94582 -0.531095 0
M  V30 2203 C 201.106 -1.01126 -1.6743 0
M  V30 2204 O 202.312 -1.28097 -2.39381 0
M  V30 2205 C 200.768 -3.45839 -0.996164 0
M  V30 2206 C 200.376 -4.47842 0.118926 0
M  V30 2207 C 202.12 -3.92227 -1.62352 0
M  V30 2208 C 200.027 -5.90284 -0.363192 0
M  V30 2209 H 198.957 -0.726391 -0.20217 0
M  V30 2210 H 201.608 -1.82339 0.206092 0
M  V30 2211 H 199.99 -3.53338 -1.78796 0
M  V30 2212 H 201.164 -4.52018 0.895358 0
M  V30 2213 H 199.479 -4.11243 0.653324 0
M  V30 2214 H 202.076 -4.96069 -1.99548 0
M  V30 2215 H 202.419 -3.32552 -2.50429 0
M  V30 2216 H 202.952 -3.87554 -0.897019 0
M  V30 2217 H 199.691 -6.53728 0.481679 0
M  V30 2218 H 199.211 -5.89515 -1.10597 0
M  V30 2219 H 200.89 -6.41752 -0.822377 0
M  V30 2220 N 201.022 0.148545 -1.56898 0
M  V30 2221 C 202.247 0.880385 -1.87787 0
M  V30 2222 C 202.672 1.74018 -0.714093 0
M  V30 2223 O 202.03 1.78153 0.336343 0
M  V30 2224 C 202.078 1.71422 -3.17249 0
M  V30 2225 O 201.182 2.8183 -3.01074 0
M  V30 2226 H 200.523 0.245301 -0.617028 0
M  V30 2227 H 203.053 0.139826 -2.04122 0
M  V30 2228 H 203.063 2.10954 -3.49231 0
M  V30 2229 H 201.738 1.08284 -4.01556 0
M  V30 2230 H 200.315 2.45715 -2.80497 0
M  V30 2231 N 202.5 1.5196 0.417844 0
M  V30 2232 C 203.41 1.77554 1.53336 0
M  V30 2233 C 204.426 0.660655 1.6097 0
M  V30 2234 O 205.602 0.945099 1.77848 0
M  V30 2235 C 202.667 1.91291 2.89152 0
M  V30 2236 C 201.728 3.15183 2.91475 0
M  V30 2237 C 200.961 3.28256 4.20813 0
M  V30 2238 O 201.184 2.46798 5.14244 0
M  V30 2239 O 200.118 4.21356 4.29817 0
M  V30 2240 H 203.944 2.7222 1.34647 0
M  V30 2241 H 201.529 1.36698 0.602828 0
M  V30 2242 H 203.411 2.02199 3.69721 0
M  V30 2243 H 202.086 0.998129 3.07927 0
M  V30 2244 H 200.993 3.09739 2.09791 0
M  V30 2245 H 202.326 4.06414 2.77648 0
M  V30 2246 N 203.978 -0.674533 1.42435 0
M  V30 2247 C 204.911 -1.79924 1.40366 0
M  V30 2248 C 205.889 -1.60378 0.267899 0
M  V30 2249 O 207.073 -1.82847 0.458159 0
M  V30 2250 C 204.2 -3.16927 1.19478 0
M  V30 2251 C 203.246 -3.55221 2.36051 0
M  V30 2252 S 204.079 -3.5762 3.98583 0
M  V30 2253 C 205.235 -4.97315 3.80038 0
M  V30 2254 H 205.468 -1.81405 2.35541 0
M  V30 2255 H 203.001 -0.845221 1.29211 0
M  V30 2256 H 204.959 -3.96007 1.08114 0
M  V30 2257 H 203.62 -3.13031 0.258883 0
M  V30 2258 H 202.813 -4.54804 2.17185 0
M  V30 2259 H 202.415 -2.83502 2.43932 0
M  V30 2260 H 204.707 -5.85401 3.41045 0
M  V30 2261 H 205.65 -5.21228 4.79298 0
M  V30 2262 H 206.058 -4.69845 3.12899 0
M  V30 2263 N 205.456 -1.28612 -0.910864 0
M  V30 2264 C 206.684 -1.18792 -1.69399 0
M  V30 2265 C 207.099 0.253039 -1.87097 0
M  V30 2266 O 206.456 1.17071 -1.40003 0
M  V30 2267 C 206.507 -1.88511 -3.08457 0
M  V30 2268 O 206.228 -3.26979 -2.91576 0
M  V30 2269 C 207.729 -1.85029 -4.02839 0
M  V30 2270 H 204.949 -0.412233 -0.529438 0
M  V30 2271 H 207.493 -1.69788 -1.13984 0
M  V30 2272 H 205.648 -1.41379 -3.60681 0
M  V30 2273 H 206.062 -3.61936 -3.79608 0
M  V30 2274 H 207.536 -2.38395 -4.97867 0
M  V30 2275 H 208.013 -0.823303 -4.31414 0
M  V30 2276 H 208.619 -2.31853 -3.56545 0
M  V30 2277 N 206.934 1.1197 -1.10907 0
M  V30 2278 C 208.211 1.79959 -0.766432 0
M  V30 2279 C 208.591 1.97466 0.746363 0
M  V30 2280 O 207.939 1.55491 1.67436 0
M  V30 2281 C 208.149 3.14009 -1.52314 0
M  V30 2282 C 209.497 3.89134 -1.69883 0
M  V30 2283 O 210.521 3.2368 -1.48692 0
M  V30 2284 O 209.38 5.06572 -2.05054 0
M  V30 2285 H 206.474 0.779208 -0.277062 0
M  V30 2286 H 209.02 1.18762 -1.21217 0
M  V30 2287 H 207.792 2.96587 -2.55249 0
M  V30 2288 H 207.415 3.82915 -1.07059 0
M  V30 2289 N 208.412 0.89855 1.29475 0
M  V30 2290 C 209.359 0.373819 2.27753 0
M  V30 2291 C 210.329 -0.543444 1.56958 0
M  V30 2292 O 211.514 -0.468934 1.84948 0
M  V30 2293 C 208.654 -0.393648 3.42848 0
M  V30 2294 C 207.767 0.554379 4.28428 0
M  V30 2295 C 206.902 -0.230026 5.30702 0
M  V30 2296 C 205.941 0.712599 6.07938 0
M  V30 2297 N 205.078 -0.0373283 7.0209 0
M  V30 2298 H 209.918 1.21699 2.72017 0
M  V30 2299 H 207.455 0.611456 1.33789 0
M  V30 2300 H 209.413 -0.85466 4.08352 0
M  V30 2301 H 208.043 -1.20128 2.99615 0
M  V30 2302 H 207.095 1.13391 3.63107 0
M  V30 2303 H 208.407 1.27597 4.82204 0
M  V30 2304 H 207.561 -0.752288 6.02018 0
M  V30 2305 H 206.3 -0.984758 4.77654 0
M  V30 2306 H 205.305 1.24637 5.35486 0
M  V30 2307 H 206.53 1.46664 6.63074 0
M  V30 2308 H 204.476 -0.774348 6.51414 0
M  V30 2309 H 204.393 0.624374 7.53417 0
M  V30 2310 H 205.661 -0.539891 7.77628 0
M  V30 2311 N 209.89 -1.43072 0.660911 0
M  V30 2312 C 210.82 -2.33497 -0.0122829 0
M  V30 2313 C 211.801 -1.49903 -0.803925 0
M  V30 2314 O 212.986 -1.78546 -0.763864 0
M  V30 2315 C 210.116 -3.33363 -0.973994 0
M  V30 2316 C 209.07 -4.27003 -0.291928 0
M  V30 2317 C 208.396 -5.16967 -1.36562 0
M  V30 2318 C 209.696 -5.15816 0.820462 0
M  V30 2319 H 211.39 -2.90038 0.742873 0
M  V30 2320 H 208.936 -1.39461 0.358688 0
M  V30 2321 H 210.889 -3.95524 -1.45392 0
M  V30 2322 H 209.613 -2.75095 -1.7604 0
M  V30 2323 H 208.272 -3.66217 0.167623 0
M  V30 2324 H 207.92 -4.55034 -2.14366 0
M  V30 2325 H 207.62 -5.80441 -0.914454 0
M  V30 2326 H 209.144 -5.82003 -1.84675 0
M  V30 2327 H 210.558 -5.71742 0.422366 0
M  V30 2328 H 208.955 -5.8805 1.19656 0
M  V30 2329 H 210.025 -4.55045 1.67518 0
M  V30 2330 N 211.368 -0.403325 -1.52352 0
M  V30 2331 C 212.616 0.174003 -2.0135 0
M  V30 2332 C 212.937 1.46139 -1.29106 0
M  V30 2333 O 212.207 1.91448 -0.415253 0
M  V30 2334 H 210.787 0.0672911 -0.743963 0
M  V30 2335 H 213.449 -0.538235 -1.87321 0
M  V30 2336 H 212.545 0.374254 -3.09848 0
M  V30 2337 N 212.846 1.57033 -0.133567 0
M  V30 2338 C 213.776 2.1909 0.807567 0
M  V30 2339 C 214.757 1.13517 1.26681 0
M  V30 2340 O 215.942 1.41809 1.32679 0
M  V30 2341 C 213.072 2.80188 2.05212 0
M  V30 2342 C 212.026 3.91471 1.73015 0
M  V30 2343 C 211.352 4.39443 3.04622 0
M  V30 2344 C 212.652 5.12886 0.987168 0
M  V30 2345 H 214.346 2.97988 0.290403 0
M  V30 2346 H 211.892 1.43335 0.138239 0
M  V30 2347 H 213.845 3.22264 2.71521 0
M  V30 2348 H 212.569 1.98601 2.59278 0
M  V30 2349 H 211.228 3.49993 1.0909 0
M  V30 2350 H 210.876 3.54695 3.56651 0
M  V30 2351 H 210.576 5.14495 2.83847 0
M  V30 2352 H 212.1 4.8418 3.72024 0
M  V30 2353 H 213.514 5.51891 1.55208 0
M  V30 2354 H 211.911 5.93615 0.87985 0
M  V30 2355 H 212.981 4.84894 -0.0235286 0
M  V30 2356 N 214.325 -0.140222 1.56975 0
M  V30 2357 C 215.257 -1.19818 1.95388 0
M  V30 2358 C 216.27 -1.38816 0.850525 0
M  V30 2359 O 217.459 -1.38267 1.12891 0
M  V30 2360 C 214.559 -2.56189 2.21857 0
M  V30 2361 C 213.732 -2.58077 3.5315 0
M  V30 2362 C 212.791 -3.76037 3.6808 0
M  V30 2363 O 211.817 -3.60598 4.40406 0
M  V30 2364 N 213.019 -4.93763 3.05251 0
M  V30 2365 H 215.784 -0.871609 2.86746 0
M  V30 2366 H 213.345 -0.32972 1.58507 0
M  V30 2367 H 215.337 -3.33623 2.2908 0
M  V30 2368 H 213.907 -2.81111 1.36731 0
M  V30 2369 H 213.127 -1.6651 3.57307 0
M  V30 2370 H 214.415 -2.56377 4.39486 0
M  V30 2371 H 213.813 -5.09209 2.46419 0
M  V30 2372 H 212.37 -5.68949 3.18026 0
M  V30 2373 N 215.803 -1.52179 -0.40978 0
M  V30 2374 C 217.028 -1.70347 -1.18308 0
M  V30 2375 C 217.453 -0.411887 -1.83535 0
M  V30 2376 O 216.811 0.630587 -1.6998 0
M  V30 2377 C 216.859 -2.83977 -2.22238 0
M  V30 2378 O 215.963 -2.495 -3.28365 0
M  V30 2379 H 215.304 -0.567103 -0.345384 0
M  V30 2380 H 217.834 -1.98879 -0.480445 0
M  V30 2381 H 217.844 -3.0887 -2.66577 0
M  V30 2382 H 216.519 -3.77685 -1.74146 0
M  V30 2383 H 215.096 -2.35277 -2.89308 0
M  V30 2384 N 217.281 0.66697 -1.42791 0
M  V30 2385 C 218.211 1.79218 -1.49677 0
M  V30 2386 C 219.192 1.66405 -0.352623 0
M  V30 2387 O 220.377 1.85708 -0.567993 0
M  V30 2388 C 217.507 3.17565 -1.40605 0
M  V30 2389 C 216.461 3.45124 -2.53127 0
M  V30 2390 C 215.787 4.83127 -2.29112 0
M  V30 2391 C 217.087 3.41236 -3.95418 0
M  V30 2392 H 218.781 1.73713 -2.43853 0
M  V30 2393 H 216.327 0.83432 -1.17367 0
M  V30 2394 H 218.28 3.96022 -1.44029 0
M  V30 2395 H 217.004 3.23767 -0.429271 0
M  V30 2396 H 215.663 2.69031 -2.49034 0
M  V30 2397 H 215.311 4.85988 -1.29709 0
M  V30 2398 H 215.011 5.02528 -3.04531 0
M  V30 2399 H 216.535 5.63859 -2.34297 0
M  V30 2400 H 217.949 4.09651 -4.01073 0
M  V30 2401 H 216.346 3.72173 -4.70752 0
M  V30 2402 H 217.416 2.39665 -4.21532 0
M  V30 2403 N 218.759 1.29093 0.90403 0
M  V30 2404 C 220.175 1.07011 1.1841 0
M  V30 2405 C 220.375 -0.181358 2.00682 0
M  V30 2406 O 219.431 -0.880331 2.36657 0
M  V30 2407 C 220.744 2.32311 1.90924 0
M  V30 2408 C 222.292 2.37587 2.03768 0
M  V30 2409 C 222.767 3.62679 2.79693 0
M  V30 2410 N 224.258 3.63376 2.87249 0
M  V30 2411 C 224.993 4.56848 3.46522 0
M  V30 2412 N 224.489 5.60648 4.06996 0
M  V30 2413 N 226.282 4.44426 3.44154 0
M  V30 2414 H 218.433 2.09412 0.354993 0
M  V30 2415 H 220.696 0.922181 0.219742 0
M  V30 2416 H 220.402 3.23536 1.37905 0
M  V30 2417 H 220.276 2.39483 2.91424 0
M  V30 2418 H 222.663 1.46853 2.55965 0
M  V30 2419 H 222.744 2.34403 1.02415 0
M  V30 2420 H 222.388 4.53762 2.28173 0
M  V30 2421 H 222.318 3.63119 3.81381 0
M  V30 2422 H 224.809 2.88321 2.44293 0
M  V30 2423 H 225.122 6.28101 4.50232 0
M  V30 2424 H 223.467 5.64463 4.05471 0
M  V30 2425 H 226.658 3.62529 2.96126 0
M  V30 2426 H 226.831 5.17457 3.90054 0
M  V30 2427 N 220.237 -1.11381 1.11499 0
M  V30 2428 C 221.185 -2.19522 0.768956 0
M  V30 2429 C 222.179 -1.67693 -0.239857 0
M  V30 2430 O 223.385 -1.79727 -0.0990755 0
M  V30 2431 H 219.76 -0.715711 0.230786 0
M  V30 2432 H 221.731 -2.45954 1.68964 0
M  V30 2433 C 220.48 -3.46945 0.229073 0
M  V30 2434 H 219.803 -3.8718 0.996596 0
M  V30 2435 H 221.243 -4.23993 0.0251441 0
M  V30 2436 C 219.702 -3.2042 -1.04079 0
M  V30 2437 O 220.232 -3.41178 -2.12038 0
M  V30 2438 N 218.438 -2.74151 -0.963823 0
M  V30 2439 H 217.985 -2.57459 -0.0851722 0
M  V30 2440 H 217.943 -2.56781 -1.81414 0
M  V30 2441 N 221.715 -0.905404 -1.28997 0
M  V30 2442 C 223.131 -0.60233 -1.47798 0
M  V30 2443 C 223.331 0.854645 -1.82478 0
M  V30 2444 O 222.387 1.63439 -1.92468 0
M  V30 2445 C 223.7 -1.53306 -2.58685 0
M  V30 2446 C 225.248 -1.53887 -2.72558 0
M  V30 2447 C 225.723 -2.45602 -3.86579 0
M  V30 2448 N 227.214 -2.43681 -3.93921 0
M  V30 2449 C 227.949 -3.11347 -4.81509 0
M  V30 2450 N 227.445 -3.88313 -5.73746 0
M  V30 2451 N 229.238 -3.00476 -4.75048 0
M  V30 2452 H 221.389 -1.84765 -1.04764 0
M  V30 2453 H 223.652 -0.792025 -0.520961 0
M  V30 2454 H 223.358 -2.57141 -2.39941 0
M  V30 2455 H 223.232 -1.25787 -3.55609 0
M  V30 2456 H 225.619 -0.507941 -2.90696 0
M  V30 2457 H 225.7 -1.85447 -1.76191 0
M  V30 2458 H 225.344 -3.48792 -3.69197 0
M  V30 2459 H 225.274 -2.11349 -4.82327 0
M  V30 2460 H 227.765 -1.87767 -3.27951 0
M  V30 2461 H 228.078 -4.36985 -6.37389 0
M  V30 2462 H 226.423 -3.92419 -5.73614 0
M  V30 2463 H 229.614 -2.39858 -4.01977 0
M  V30 2464 H 229.787 -3.53485 -5.43095 0
M  V30 2465 N 223.193 1.4272 -0.668489 0
M  V30 2466 C 224.421 2.05966 -0.196348 0
M  V30 2467 C 224.836 1.50191 1.14403 0
M  V30 2468 O 224.193 0.639208 1.7094 0
M  V30 2469 C 224.244 3.61314 -0.115815 0
M  V30 2470 O 223.965 4.1502 -1.40322 0
M  V30 2471 C 225.466 4.41663 0.380579 0
M  V30 2472 H 222.686 0.663954 -0.0969829 0
M  V30 2473 H 225.23 1.82966 -0.913446 0
M  V30 2474 H 223.385 3.83448 0.551931 0
M  V30 2475 H 223.799 5.08832 -1.27243 0
M  V30 2476 H 225.273 5.5065 0.385848 0
M  V30 2477 H 225.75 4.15792 1.41471 0
M  V30 2478 H 226.356 4.24534 -0.255209 0
M  V30 2479 N 224.671 0.411399 1.52136 0
M  V30 2480 C 225.917 -0.156262 2.02799 0
M  V30 2481 C 226.272 -1.42613 1.29149 0
M  V30 2482 O 225.565 -1.87592 0.389839 0
M  V30 2483 C 225.759 -0.455872 3.54481 0
M  V30 2484 C 225.588 0.783404 4.42824 0
M  V30 2485 C 224.358 1.30928 4.88043 0
M  V30 2486 C 226.556 1.66217 4.86699 0
M  V30 2487 N 224.538 2.5038 5.6052 0
M  V30 2488 C 225.909 2.70292 5.5798 0
M  V30 2489 C 227.964 1.67966 4.68713 0
M  V30 2490 C 226.667 3.7603 6.13184 0
M  V30 2491 C 228.693 2.72624 5.24815 0
M  V30 2492 C 228.055 3.7542 5.9602 0
M  V30 2493 H 224.154 -0.0186886 0.781777 0
M  V30 2494 H 226.738 0.566255 1.86284 0
M  V30 2495 H 224.909 -1.14743 3.71064 0
M  V30 2496 H 226.641 -1.01261 3.91827 0
M  V30 2497 H 223.396 0.866977 4.65597 0
M  V30 2498 H 223.82 3.10881 6.014 0
M  V30 2499 H 228.462 0.898312 4.13147 0
M  V30 2500 H 226.18 4.55019 6.6782 0
M  V30 2501 H 229.766 2.74887 5.12765 0
M  V30 2502 H 228.646 4.55073 6.38654 0
M  V30 2503 N 226.149 -1.5696 0.141893 0
M  V30 2504 C 227.379 -2.00031 -0.516828 0
M  V30 2505 C 227.787 -1.02091 -1.59293 0
M  V30 2506 O 227.13 -0.00909657 -1.83698 0
M  V30 2507 C 227.192 -3.39534 -1.1814 0
M  V30 2508 C 226.856 -4.56313 -0.250513 0
M  V30 2509 C 227.853 -5.17295 0.519839 0
M  V30 2510 C 225.538 -5.02061 -0.154907 0
M  V30 2511 C 227.532 -6.2243 1.3733 0
M  V30 2512 C 225.219 -6.07053 0.702161 0
M  V30 2513 C 226.217 -6.67106 1.46487 0
M  V30 2514 O 225.905 -7.70066 2.30767 0
M  V30 2515 H 225.637 -0.661451 -0.139493 0
M  V30 2516 H 228.191 -2.04086 0.231926 0
M  V30 2517 H 226.421 -3.32302 -1.97769 0
M  V30 2518 H 228.11 -3.66745 -1.73933 0
M  V30 2519 H 228.876 -4.82852 0.45598 0
M  V30 2520 H 224.755 -4.5505 -0.7383 0
M  V30 2521 H 228.299 -6.69233 1.96909 0
M  V30 2522 H 224.196 -6.40923 0.76733 0
M  V30 2523 H 224.964 -7.87264 2.23959 0
M  V30 2524 N 227.627 0.131896 -1.57047 0
M  V30 2525 C 228.873 0.843179 -1.84441 0
M  V30 2526 C 229.206 1.80129 -0.725749 0
M  V30 2527 O 228.481 1.92624 0.269469 0
M  V30 2528 C 228.764 1.60442 -3.22382 0
M  V30 2529 C 228.617 0.666782 -4.4483 0
M  V30 2530 C 229.936 2.56354 -3.5773 0
M  V30 2531 H 227.055 0.305081 -0.670891 0
M  V30 2532 H 229.697 0.107839 -1.89694 0
M  V30 2533 H 227.847 2.23128 -3.18035 0
M  V30 2534 H 229.519 0.0497646 -4.61273 0
M  V30 2535 H 227.762 -0.022609 -4.33794 0
M  V30 2536 H 228.433 1.23579 -5.37989 0
M  V30 2537 H 230.909 2.0378 -3.62785 0
M  V30 2538 H 229.785 3.06657 -4.5525 0
M  V30 2539 H 230.046 3.38419 -2.84473 0
M  V30 2540 N 229.106 1.52395 0.401703 0
M  V30 2541 C 230.038 1.72505 1.50912 0
M  V30 2542 C 231.051 0.605468 1.51122 0
M  V30 2543 O 232.24 0.880828 1.55254 0
M  V30 2544 C 229.34 1.75711 2.89791 0
M  V30 2545 C 228.513 3.04824 3.1369 0
M  V30 2546 C 227.572 2.99743 4.32482 0
M  V30 2547 O 226.598 3.73635 4.29402 0
M  V30 2548 N 227.8 2.18047 5.37992 0
M  V30 2549 H 230.565 2.68049 1.34052 0
M  V30 2550 H 228.126 1.50724 0.591084 0
M  V30 2551 H 230.118 1.69834 3.6734 0
M  V30 2552 H 228.688 0.876092 3.00072 0
M  V30 2553 H 227.908 3.2429 2.24119 0
M  V30 2554 H 229.196 3.90221 3.26504 0
M  V30 2555 H 228.594 1.57456 5.43345 0
M  V30 2556 H 227.151 2.18021 6.14256 0
M  V30 2557 N 230.584 -0.659388 1.43143 0
M  V30 2558 C 231.547 -1.75432 1.47501 0
M  V30 2559 C 232.547 -1.56707 0.360512 0
M  V30 2560 O 233.737 -1.62717 0.622002 0
M  V30 2561 C 230.869 -3.14239 1.32162 0
M  V30 2562 H 232.062 -1.7295 2.45006 0
M  V30 2563 H 229.615 -0.870469 1.29817 0
M  V30 2564 H 230.35 -3.22336 0.356401 0
M  V30 2565 H 230.135 -3.29235 2.12948 0
M  V30 2566 H 231.625 -3.94094 1.3813 0
M  V30 2567 N 232.062 -1.29571 -0.897171 0
M  V30 2568 C 233.29 -1.20583 -1.68129 0
M  V30 2569 C 233.705 0.233181 -1.87354 0
M  V30 2570 O 233.062 1.15579 -1.41236 0
M  V30 2571 C 233.113 -1.91772 -3.06441 0
M  V30 2572 O 232.834 -3.30053 -2.88091 0
M  V30 2573 C 234.335 -1.89291 -4.00854 0
M  V30 2574 H 231.555 -0.417826 -0.525036 0
M  V30 2575 H 234.099 -1.70987 -1.12177 0
M  V30 2576 H 232.254 -1.45196 -3.59161 0
M  V30 2577 H 232.668 -3.65942 -3.75748 0
M  V30 2578 H 234.142 -2.43662 -4.95311 0
M  V30 2579 H 234.619 -0.869014 -4.30517 0
M  V30 2580 H 235.225 -2.35622 -3.54066 0
M  V30 2581 N 233.54 1.10788 -1.12088 0
M  V30 2582 C 234.78 1.84297 -0.883974 0
M  V30 2583 C 235.144 1.83036 0.579797 0
M  V30 2584 O 236.345 2.52061 0.933734 0
M  V30 2585 C 234.616 3.27173 -1.43849 0
M  V30 2586 S 236.175 4.17853 -1.33957 0
M  V30 2587 H 232.993 0.635433 -0.318977 0
M  V30 2588 H 235.595 1.33341 -1.4297 0
M  V30 2589 H 234.299 3.25658 -2.49749 0
M  V30 2590 H 233.83 3.83198 -0.890096 0
M  V30 2591 H 235.845 4.95239 -0.308603 0
M  V30 2592 N 235.018 0.912232 1.28515 0
M  V30 2593 C 235.981 0.404223 2.25607 0
M  V30 2594 C 236.981 -0.468602 1.53821 0
M  V30 2595 O 238.171 -0.271873 1.72065 0
M  V30 2596 C 235.303 -0.420653 3.38295 0
M  V30 2597 H 236.496 1.26188 2.7206 0
M  V30 2598 H 234.049 0.691495 1.40171 0
M  V30 2599 H 234.784 -1.29777 2.97201 0
M  V30 2600 H 234.569 0.204935 3.91564 0
M  V30 2601 H 236.059 -0.766971 4.10496 0
M  V30 2602 N 236.496 -1.42363 0.676048 0
M  V30 2603 C 237.724 -2.05859 0.207268 0
M  V30 2604 C 238.139 -1.50796 -1.13605 0
M  V30 2605 O 237.496 -0.648265 -1.70598 0
M  V30 2606 C 237.547 -3.61248 0.134975 0
M  V30 2607 O 237.268 -4.1427 1.42521 0
M  V30 2608 C 238.769 -4.41859 -0.357151 0
M  V30 2609 H 235.989 -0.663431 0.100503 0
M  V30 2610 H 238.533 -1.82479 0.923136 0
M  V30 2611 H 236.688 -3.83735 -0.531588 0
M  V30 2612 H 237.102 -5.0815 1.29939 0
M  V30 2613 H 238.576 -5.50847 -0.356641 0
M  V30 2614 H 239.053 -4.16536 -1.39264 0
M  V30 2615 H 239.659 -4.24392 0.27772 0
M  V30 2616 N 237.974 -0.419461 -1.51915 0
M  V30 2617 C 238.906 0.43646 -2.25006 0
M  V30 2618 C 239.919 1.00149 -1.28351 0
M  V30 2619 O 241.108 0.898674 -1.54227 0
M  V30 2620 C 238.208 1.6206 -2.9764 0
M  V30 2621 C 237.381 1.17763 -4.21249 0
M  V30 2622 C 236.44 2.22985 -4.76617 0
M  V30 2623 O 235.466 1.83151 -5.38929 0
M  V30 2624 N 236.668 3.55271 -4.59089 0
M  V30 2625 H 239.433 -0.18989 -2.99098 0
M  V30 2626 H 236.994 -0.247386 -1.59999 0
M  V30 2627 H 238.986 2.32038 -3.31573 0
M  V30 2628 H 237.556 2.15266 -2.2667 0
M  V30 2629 H 236.776 0.305582 -3.93014 0
M  V30 2630 H 238.064 0.858781 -5.015 0
M  V30 2631 H 237.462 3.90377 -4.09417 0
M  V30 2632 H 236.019 4.21195 -4.97432 0
M  V30 2633 N 239.452 1.56882 -0.150215 0
M  V30 2634 C 240.7 1.9584 0.499105 0
M  V30 2635 C 241.021 1.03623 1.65188 0
M  V30 2636 O 240.291 0.0984084 1.95653 0
M  V30 2637 H 238.871 0.723119 0.187373 0
M  V30 2638 H 241.533 1.9358 -0.226466 0
M  V30 2639 H 240.629 2.99638 0.873122 0
M  V30 2640 N 240.93 -0.123565 1.57115 0
M  V30 2641 C 242.158 -0.846461 1.88793 0
M  V30 2642 C 242.573 -1.73652 0.740976 0
M  V30 2643 O 241.93 -1.80207 -0.288393 0
M  V30 2644 C 241.981 -1.6837 3.19897 0
M  V30 2645 O 241.702 -0.829477 4.30176 0
M  V30 2646 C 243.203 -2.51214 3.65248 0
M  V30 2647 H 240.423 -0.243573 0.625231 0
M  V30 2648 H 242.967 -0.109324 2.04208 0
M  V30 2649 H 241.122 -2.37364 3.06165 0
M  V30 2650 H 241.536 -1.40651 5.0529 0
M  V30 2651 H 243.01 -3.05497 4.59756 0
M  V30 2652 H 243.487 -3.28359 2.9168 0
M  V30 2653 H 244.093 -1.8747 3.81752 0
M  V30 2654 N 242.408 -1.52605 -0.393616 0
M  V30 2655 C 243.656 -1.67093 -1.13685 0
M  V30 2656 C 243.977 -0.411011 -1.90619 0
M  V30 2657 O 243.247 0.574491 -1.87287 0
M  V30 2658 H 241.827 -0.615923 -0.422668 0
M  V30 2659 H 244.489 -1.89704 -0.447039 0
M  V30 2660 H 243.585 -2.51922 -1.84232 0
M  V30 2661 N 243.887 0.651787 -1.4349 0
M  V30 2662 C 244.817 1.77621 -1.51569 0
M  V30 2663 C 245.798 1.66022 -0.370253 0
M  V30 2664 O 246.983 1.85095 -0.587658 0
M  V30 2665 C 244.113 3.16056 -1.43966 0
M  V30 2666 C 243.067 3.4242 -2.56774 0
M  V30 2667 C 242.393 4.8067 -2.34223 0
M  V30 2668 C 243.693 3.37023 -3.99015 0
M  V30 2669 H 245.387 1.71117 -2.45681 0
M  V30 2670 H 242.933 0.821825 -1.18246 0
M  V30 2671 H 244.886 3.94472 -1.48221 0
M  V30 2672 H 243.61 3.23293 -0.463586 0
M  V30 2673 H 242.269 2.66375 -2.51873 0
M  V30 2674 H 241.917 4.84585 -1.34856 0
M  V30 2675 H 241.617 4.9927 -3.09844 0
M  V30 2676 H 243.141 5.61342 -2.40265 0
M  V30 2677 H 244.555 4.05374 -4.05395 0
M  V30 2678 H 242.952 3.67159 -4.74673 0
M  V30 2679 H 244.022 2.3518 -4.2405 0
M  V30 2680 N 245.365 1.30045 0.890287 0
M  V30 2681 C 246.595 1.21296 1.67245 0
M  V30 2682 C 247.003 -0.227471 1.87828 0
M  V30 2683 O 246.346 -1.16296 1.422 0
M  V30 2684 C 246.408 1.86519 3.07329 0
M  V30 2685 C 246.072 3.35837 3.09939 0
M  V30 2686 C 247.069 4.31915 2.89389 0
M  V30 2687 C 244.754 3.77196 3.31706 0
M  V30 2688 C 246.748 5.67325 2.90552 0
M  V30 2689 C 244.435 5.12725 3.32499 0
M  V30 2690 C 245.433 6.076 3.11947 0
M  V30 2691 O 245.121 7.40655 3.12547 0
M  V30 2692 H 244.853 0.4211 0.528821 0
M  V30 2693 H 247.407 1.72111 1.12103 0
M  V30 2694 H 245.637 1.30228 3.64112 0
M  V30 2695 H 247.326 1.71963 3.67673 0
M  V30 2696 H 248.092 4.01294 2.72375 0
M  V30 2697 H 243.971 3.03796 3.4674 0
M  V30 2698 H 247.515 6.41354 2.74429 0
M  V30 2699 H 243.412 5.42988 3.49047 0
M  V30 2700 H 244.18 7.49577 3.28749 0
M  V30 2701 N 246.843 -1.10192 1.12674 0
M  V30 2702 C 247.753 -2.20172 0.810026 0
M  V30 2703 C 248.769 -1.72821 -0.202188 0
M  V30 2704 O 249.945 -2.01369 -0.0351691 0
M  V30 2705 C 247.01 -3.45631 0.272007 0
M  V30 2706 C 246.071 -4.07704 1.34447 0
M  V30 2707 C 245.304 -5.27175 0.832029 0
M  V30 2708 O 245.527 -5.69425 -0.333284 0
M  V30 2709 O 244.461 -5.80168 1.60277 0
M  V30 2710 H 248.287 -2.49701 1.72867 0
M  V30 2711 H 245.872 -1.18977 0.903597 0
M  V30 2712 H 247.754 -4.21394 -0.0230219 0
M  V30 2713 H 246.429 -3.17723 -0.619164 0
M  V30 2714 H 245.336 -3.33614 1.6927 0
M  V30 2715 H 246.669 -4.3982 2.2095 0
M  V30 2716 N 248.321 -0.919034 -1.28029 0
M  V30 2717 C 249.569 -0.553838 -1.94363 0
M  V30 2718 C 249.89 0.906357 -1.72656 0
M  V30 2719 O 249.16 1.64143 -1.0693 0
M  V30 2720 H 247.74 -0.201834 -0.719216 0
M  V30 2721 H 250.402 -1.16954 -1.55909 0
M  V30 2722 H 249.498 -0.752758 -3.02886 0
M  V30 2723 N 249.799 1.42003 -0.683588 0
M  V30 2724 C 250.729 2.33487 -0.024866 0
M  V30 2725 C 251.71 1.51163 0.779975 0
M  V30 2726 O 252.895 1.79739 0.735362 0
M  V30 2727 C 250.025 3.3487 0.920836 0
M  V30 2728 C 248.979 4.27414 0.223958 0
M  V30 2729 C 248.305 5.19074 1.2832 0
M  V30 2730 C 249.605 5.14445 -0.90242 0
M  V30 2731 H 251.299 2.88819 -0.788921 0
M  V30 2732 H 248.845 1.38873 -0.38083 0
M  V30 2733 H 250.798 3.97787 1.39081 0
M  V30 2734 H 249.522 2.77861 1.71642 0
M  V30 2735 H 248.181 3.65904 -0.225864 0
M  V30 2736 H 247.829 4.58387 2.071 0
M  V30 2737 H 247.529 5.81822 0.821995 0
M  V30 2738 H 249.053 5.84867 1.75392 0
M  V30 2739 H 250.467 5.70998 -0.513272 0
M  V30 2740 H 248.864 5.86072 -1.28997 0
M  V30 2741 H 249.934 4.52322 -1.74737 0
M  V30 2742 N 251.277 0.427512 1.51691 0
M  V30 2743 C 252.554 -0.201684 1.94557 0
M  V30 2744 C 252.934 -1.60981 1.36559 0
M  V30 2745 O 252.282 -2.21814 0.548702 0
M  V30 2746 C 252.492 -0.189394 3.48486 0
M  V30 2747 C 253.84 -0.39978 4.22714 0
M  V30 2748 O 254.864 -0.267945 3.55191 0
M  V30 2749 O 253.723 -0.661249 5.42485 0
M  V30 2750 H 250.817 -0.135261 0.815864 0
M  V30 2751 H 253.363 0.484782 1.62628 0
M  V30 2752 H 252.135 0.795431 3.8313 0
M  V30 2753 H 251.758 -0.919187 3.86829 0
M  V30 2754 N 252.755 -1.56801 0.158532 0
M  V30 2755 C 254.001 -1.97559 -0.483957 0
M  V30 2756 C 254.356 -1.04239 -1.61716 0
M  V30 2757 O 253.649 -0.079603 -1.91435 0
M  V30 2758 C 253.843 -3.4235 -1.02623 0
M  V30 2759 C 253.672 -4.49669 0.0528929 0
M  V30 2760 C 252.442 -5.02838 0.498234 0
M  V30 2761 C 254.64 -5.0725 0.848616 0
M  V30 2762 N 252.622 -5.93775 1.559 0
M  V30 2763 C 253.993 -5.94506 1.7596 0
M  V30 2764 C 256.048 -4.89788 0.895121 0
M  V30 2765 C 254.751 -6.66169 2.71314 0
M  V30 2766 C 256.777 -5.62161 1.83654 0
M  V30 2767 C 256.139 -6.49134 2.73503 0
M  V30 2768 H 252.238 -0.768332 -0.145566 0
M  V30 2769 H 254.822 -1.93012 0.255799 0
M  V30 2770 H 252.993 -3.47467 -1.73555 0
M  V30 2771 H 254.725 -3.70145 -1.63629 0
M  V30 2772 H 251.48 -4.73498 0.0983222 0
M  V30 2773 H 251.904 -6.43948 2.08949 0
M  V30 2774 H 256.546 -4.22255 0.21453 0
M  V30 2775 H 254.264 -7.32923 3.40367 0
M  V30 2776 H 257.85 -5.5064 1.87847 0
M  V30 2777 H 256.73 -7.04153 3.45163 0
M  V30 2778 N 254.233 0.115231 -1.57178 0
M  V30 2779 C 255.163 1.1423 -2.03651 0
M  V30 2780 C 256.144 1.42967 -0.921655 0
M  V30 2781 O 257.329 1.53343 -1.19162 0
M  V30 2782 C 254.459 2.4675 -2.44401 0
M  V30 2783 C 253.413 2.32467 -3.59365 0
M  V30 2784 C 252.739 3.69984 -3.86026 0
M  V30 2785 C 254.039 1.78203 -4.90959 0
M  V30 2786 H 255.733 0.755749 -2.89705 0
M  V30 2787 H 253.279 0.362093 -1.39373 0
M  V30 2788 H 255.232 3.18854 -2.75517 0
M  V30 2789 H 253.956 2.87302 -1.55322 0
M  V30 2790 H 252.615 1.62811 -3.28463 0
M  V30 2791 H 252.263 4.08028 -2.94147 0
M  V30 2792 H 251.963 3.61279 -4.63412 0
M  V30 2793 H 253.487 4.43587 -4.19599 0
M  V30 2794 H 254.901 2.40128 -5.20587 0
M  V30 2795 H 253.298 1.8031 -5.72371 0
M  V30 2796 H 254.368 0.739876 -4.79222 0
M  V30 2797 N 255.711 1.52812 0.385517 0
M  V30 2798 C 256.936 1.72207 1.15583 0
M  V30 2799 C 257.361 0.441034 1.82857 0
M  V30 2800 O 256.719 -0.603465 1.70962 0
M  V30 2801 C 256.767 2.87476 2.17692 0
M  V30 2802 O 255.871 2.54693 3.24354 0
M  V30 2803 H 255.212 0.572526 0.336319 0
M  V30 2804 H 257.742 1.99618 0.448744 0
M  V30 2805 H 257.752 3.13072 2.6163 0
M  V30 2806 H 256.427 3.80408 1.68115 0
M  V30 2807 H 255.004 2.3985 2.85529 0
M  V30 2808 N 257.189 -0.644168 1.43834 0
M  V30 2809 C 258.137 -1.77793 1.49974 0
M  V30 2810 C 259.131 -1.65253 0.372536 0
M  V30 2811 O 260.337 -1.7149 0.546924 0
M  V30 2812 H 256.712 -0.58675 0.47035 0
M  V30 2813 H 258.683 -1.69736 2.45423 0
M  V30 2814 C 257.432 -3.16087 1.4486 0
M  V30 2815 H 256.755 -3.26378 2.30905 0
M  V30 2816 H 258.195 -3.95349 1.53217 0
M  V30 2817 C 256.654 -3.36484 0.167463 0
M  V30 2818 O 257.184 -3.94298 -0.767609 0
M  V30 2819 N 255.39 -2.90504 0.0747556 0
M  V30 2820 H 254.937 -2.4364 0.836507 0
M  V30 2821 H 254.895 -3.04527 -0.781714 0
M  V30 2822 N 258.668 -1.30515 -0.883378 0
M  V30 2823 C 259.578 -1.18959 -2.02203 0
M  V30 2824 C 260.594 -0.109172 -1.73657 0
M  V30 2825 O 261.77 -0.324413 -1.9877 0
M  V30 2826 C 258.835 -0.883871 -3.35244 0
M  V30 2827 C 257.896 -2.04982 -3.77201 0
M  V30 2828 C 257.129 -1.75859 -5.03894 0
M  V30 2829 O 257.352 -0.687276 -5.66244 0
M  V30 2830 O 256.286 -2.61146 -5.42297 0
M  V30 2831 H 260.112 -2.14616 -2.1488 0
M  V30 2832 H 257.697 -1.10124 -1.0096 0
M  V30 2833 H 259.579 -0.728644 -4.15053 0
M  V30 2834 H 258.254 0.0427798 -3.23672 0
M  V30 2835 H 257.161 -2.26038 -2.9809 0
M  V30 2836 H 258.494 -2.95825 -3.93381 0
M  V30 2837 N 260.146 1.09593 -1.13257 0
M  V30 2838 C 261.076 2.18214 -0.830946 0
M  V30 2839 C 262.057 1.68812 0.208966 0
M  V30 2840 O 263.242 1.9408 0.0682666 0
M  V30 2841 C 260.372 3.46051 -0.294296 0
M  V30 2842 C 259.326 4.08778 -1.26826 0
M  V30 2843 C 258.652 5.31419 -0.591449 0
M  V30 2844 C 259.952 4.51476 -2.62615 0
M  V30 2845 H 261.646 2.43703 -1.73923 0
M  V30 2846 H 259.192 1.17128 -0.837675 0
M  V30 2847 H 261.145 4.2134 -0.0709606 0
M  V30 2848 H 259.869 3.20079 0.649366 0
M  V30 2849 H 258.528 3.35505 -1.47756 0
M  V30 2850 H 258.176 5.01727 0.357633 0
M  V30 2851 H 257.876 5.74341 -1.24123 0
M  V30 2852 H 259.4 6.09433 -0.377355 0
M  V30 2853 H 260.814 5.17999 -2.45663 0
M  V30 2854 H 259.211 5.05277 -3.23752 0
M  V30 2855 H 260.281 3.63962 -3.20406 0
M  V30 2856 N 261.624 0.925811 1.2754 0
M  V30 2857 C 262.849 0.580924 1.99098 0
M  V30 2858 C 263.274 -0.833555 1.68622 0
M  V30 2859 O 262.632 -1.55903 0.925422 0
M  V30 2860 C 262.68 0.811186 3.51358 0
M  V30 2861 O 261.784 -0.124129 4.12213 0
M  V30 2862 H 261.125 0.223873 0.625122 0
M  V30 2863 H 263.655 1.24455 1.62395 0
M  V30 2864 H 263.665 0.72601 4.01489 0
M  V30 2865 H 262.34 1.84227 3.72872 0
M  V30 2866 H 260.917 0.0108006 3.72898 0
M  V30 2867 N 263.102 -1.41638 0.69111 0
M  V30 2868 C 264.049 -2.30789 0.0229705 0
M  V30 2869 C 265.019 -1.46863 -0.775911 0
M  V30 2870 O 266.204 -1.75661 -0.74485 0
M  V30 2871 C 263.344 -3.32868 -0.910666 0
M  V30 2872 C 262.457 -4.31875 -0.103874 0
M  V30 2873 C 261.592 -5.21024 -1.03475 0
M  V30 2874 C 260.631 -6.11702 -0.220598 0
M  V30 2875 N 259.768 -6.93349 -1.10504 0
M  V30 2876 H 264.608 -2.87366 0.788978 0
M  V30 2877 H 262.145 -1.41535 0.400794 0
M  V30 2878 H 264.103 -3.90596 -1.46597 0
M  V30 2879 H 262.733 -2.77851 -1.64312 0
M  V30 2880 H 261.785 -3.76131 0.568285 0
M  V30 2881 H 263.097 -4.96003 0.527504 0
M  V30 2882 H 262.251 -5.83565 -1.65943 0
M  V30 2883 H 260.99 -4.57112 -1.69999 0
M  V30 2884 H 259.995 -5.48215 0.417187 0
M  V30 2885 H 261.22 -6.77668 0.440784 0
M  V30 2886 H 259.166 -6.3205 -1.75638 0
M  V30 2887 H 259.083 -7.54146 -0.529125 0
M  V30 2888 H 260.351 -7.60362 -1.71667 0
M  V30 2889 N 264.58 -0.43555 -1.51462 0
M  V30 2890 C 265.996 -0.0877501 -1.59359 0
M  V30 2891 C 266.196 1.4027 -1.4466 0
M  V30 2892 O 265.252 2.17243 -1.28693 0
M  V30 2893 C 266.565 -0.606264 -2.94525 0
M  V30 2894 C 268.113 -0.566548 -3.0783 0
M  V30 2895 C 268.588 -1.06201 -4.45517 0
M  V30 2896 N 270.079 -1.01992 -4.51832 0
M  V30 2897 C 270.814 -1.37417 -5.5669 0
M  V30 2898 N 270.31 -1.80119 -6.68976 0
M  V30 2899 N 272.103 -1.29245 -5.47039 0
M  V30 2900 H 264.254 -1.40533 -1.59261 0
M  V30 2901 H 266.517 -0.578992 -0.750648 0
M  V30 2902 H 266.223 -1.64901 -3.10645 0
M  V30 2903 H 266.097 -0.0302097 -3.77188 0
M  V30 2904 H 268.484 0.467208 -2.91378 0
M  V30 2905 H 268.565 -1.17898 -2.2701 0
M  V30 2906 H 268.209 -2.09422 -4.62715 0
M  V30 2907 H 268.139 -0.426127 -5.24873 0
M  V30 2908 H 270.63 -0.706308 -3.71241 0
M  V30 2909 H 270.943 -2.05392 -7.45006 0
M  V30 2910 H 269.288 -1.84044 -6.70189 0
M  V30 2911 H 272.479 -0.957522 -4.58202 0
M  V30 2912 H 272.652 -1.57182 -6.28648 0
M  V30 2913 O 266.097 1.58538 -0.30787 0
M  V30 2914 H 266.788 1.9201 0.255316 0
M  V30 END ATOM
M  V30 BEGIN BOND
M  V30 END BOND
M  V30 END CTAB
M  END
$$$$
