drugbank_target|P06850 Corticoliberin (DB01285; DB02556; DB02952)
 OpenBabel12092119453D

  0  0  0     0  0            999 V3000
M  V30 BEGIN CTAB
M  V30 COUNTS 3055 3090 0 0 0
M  V30 BEGIN ATOM
M  V30 1 H -0.908 1.98254 -0.117106 0
M  V30 2 N 0 1.576 0 0
M  V30 3 C 0.933 2.03868 1.02534 0
M  V30 4 C 1.911 0.928543 1.3348 0
M  V30 5 O 3.095 1.19667 1.45644 0
M  V30 6 C 0.222 2.43627 2.35294 0
M  V30 7 C -0.732 3.65373 2.2001 0
M  V30 8 S 0.101 5.13292 1.52614 0
M  V30 9 C 1.257 5.56322 2.86805 0
M  V30 10 H 1.49 2.90518 0.631377 0
M  V30 11 H -0.977 1.52953 0.210867 0
M  V30 12 H 0.981 2.67203 3.11629 0
M  V30 13 H -0.358 1.57376 2.7183 0
M  V30 14 H -1.165 3.90944 3.18086 0
M  V30 15 H -1.563 3.418 1.51819 0
M  V30 16 H 0.729 5.58782 3.83104 0
M  V30 17 H 1.672 6.56266 2.65933 0
M  V30 18 H 2.08 4.83886 2.90714 0
M  V30 19 N 1.4781 -0.272755 1.55222 0
M  V30 20 C 2.8941 -0.619959 1.47067 0
M  V30 21 C 3.0941 -1.895 0.684978 0
M  V30 22 O 2.1501 -2.51675 0.203931 0
M  V30 23 C 3.4631 -0.746693 2.91282 0
M  V30 24 C 5.0111 -0.840731 3.01497 0
M  V30 25 C 5.4861 -0.99924 4.46967 0
M  V30 26 N 6.9771 -1.06476 4.50796 0
M  V30 27 C 7.7121 -1.20621 5.6057 0
M  V30 28 N 7.2081 -1.31483 6.80209 0
M  V30 29 N 9.0011 -1.23733 5.48312 0
M  V30 30 H 1.1521 0.564606 2.04758 0
M  V30 31 H 3.4151 0.191177 0.928523 0
M  V30 32 H 3.1211 0.119753 3.51496 0
M  V30 33 H 2.9951 -1.6269 3.40311 0
M  V30 34 H 5.3821 -1.69764 2.41379 0
M  V30 35 H 5.4631 0.0640874 2.5572 0
M  V30 36 H 5.1071 -0.146984 5.07687 0
M  V30 37 H 5.0371 -1.91871 4.90401 0
M  V30 38 H 7.5281 -0.993196 3.64615 0
M  V30 39 H 7.8411 -1.42111 7.59621 0
M  V30 40 H 6.1861 -1.28487 6.8302 0
M  V30 41 H 9.3771 -1.14877 4.53785 0
M  V30 42 H 9.5501 -1.34412 6.33906 0
M  V30 43 N 2.9562 -1.48159 -0.537278 0
M  V30 44 C 3.8862 -1.65029 -1.6519 0
M  V30 45 C 4.8672 -0.499281 -1.62607 0
M  V30 46 O 6.0522 -0.730972 -1.79918 0
M  V30 47 C 3.1822 -1.68303 -3.03795 0
M  V30 48 C 2.1362 -2.8283 -3.21234 0
M  V30 49 C 1.4622 -2.71189 -4.60826 0
M  V30 50 C 2.7622 -4.24211 -3.04701 0
M  V30 51 H 4.4562 -2.58341 -1.51328 0
M  V30 52 H 2.0022 -1.24325 -0.726585 0
M  V30 53 H 3.9552 -1.78693 -3.81637 0
M  V30 54 H 2.6792 -0.715635 -3.18663 0
M  V30 55 H 1.3382 -2.71983 -2.45807 0
M  V30 56 H 0.9862 -1.72435 -4.7252 0
M  V30 57 H 0.6862 -3.48035 -4.7344 0
M  V30 58 H 2.2102 -2.83537 -5.40777 0
M  V30 59 H 3.6242 -4.3593 -3.72341 0
M  V30 60 H 2.0212 -5.01998 -3.28813 0
M  V30 61 H 3.0912 -4.41184 -2.01209 0
M  V30 62 N 4.4343 0.785586 -1.36625 0
M  V30 63 C 5.8453 1.36101 -1.27803 0
M  V30 64 C 6.1963 1.96035 0.0804875 0
M  V30 65 O 5.3213 1.92834 0.982042 0
M  V30 66 C 5.9163 2.47442 -2.31426 0
M  V30 67 C 4.4753 3.00789 -2.26281 0
M  V30 68 C 3.6223 1.73896 -2.15999 0
M  V30 69 H 6.5733 0.586928 -1.47448 0
M  V30 70 H 6.5943 3.2656 -1.95291 0
M  V30 71 H 6.1063 2.03791 -3.30289 0
M  V30 72 H 4.2073 3.48851 -1.30896 0
M  V30 73 H 4.3203 3.57343 -3.19128 0
M  V30 74 H 2.6843 1.9628 -1.62316 0
M  V30 75 H 3.4673 1.32368 -3.16755 0
M  V30 76 N 5.9124 1.20967 1.01018 0
M  V30 77 C 6.8424 0.988272 2.11555 0
M  V30 78 C 7.8234 -0.0849778 1.69888 0
M  V30 79 O 9.0084 0.0738202 1.9406 0
M  V30 80 C 6.1384 0.546528 3.42973 0
M  V30 81 C 5.0924 1.56375 3.9841 0
M  V30 82 C 4.4184 0.97842 5.25672 0
M  V30 83 C 5.7184 2.94922 4.31066 0
M  V30 84 H 7.4124 1.91276 2.30334 0
M  V30 85 H 4.9584 0.921073 1.1069 0
M  V30 86 H 6.9114 0.378839 4.19694 0
M  V30 87 H 5.6354 -0.413598 3.23971 0
M  V30 88 H 4.2944 1.71891 3.23804 0
M  V30 89 H 3.9424 0.0101688 5.02999 0
M  V30 90 H 3.6424 1.65784 5.63728 0
M  V30 91 H 5.1664 0.821939 6.05043 0
M  V30 92 H 6.5804 2.8288 4.9865 0
M  V30 93 H 4.9774 3.5983 4.80253 0
M  V30 94 H 6.0474 3.4616 3.39561 0
M  V30 95 N 7.3905 -1.2043 1.01659 0
M  V30 96 C 8.3205 -2.25466 0.607226 0
M  V30 97 C 9.3015 -1.65853 -0.377716 0
M  V30 98 O 10.4865 -1.92409 -0.263149 0
M  V30 99 C 7.6165 -3.47256 -0.0552949 0
M  V30 100 C 6.5705 -4.19462 0.850632 0
M  V30 101 C 5.8965 -5.34673 0.0538859 0
M  V30 102 C 7.1965 -4.75603 2.15868 0
M  V30 103 H 8.8905 -2.59962 1.48526 0
M  V30 104 H 6.4365 -1.2496 0.715605 0
M  V30 105 H 8.3895 -4.19917 -0.353233 0
M  V30 106 H 7.1135 -3.11924 -0.968045 0
M  V30 107 H 5.7725 -3.48667 1.13257 0
M  V30 108 H 5.4205 -4.95585 -0.860514 0
M  V30 109 H 5.1205 -5.83913 0.657192 0
M  V30 110 H 6.6445 -6.10138 -0.237598 0
M  V30 111 H 8.0585 -5.40083 1.92311 0
M  V30 112 H 6.4555 -5.3528 2.71284 0
M  V30 113 H 7.5255 -3.94346 2.82169 0
M  V30 114 N 8.8686 -0.792821 -1.36206 0
M  V30 115 C 10.1146 -0.36733 -1.99446 0
M  V30 116 C 10.4476 1.05917 -1.62774 0
M  V30 117 O 9.7226 1.7324 -0.88421 0
M  V30 118 C 10.0056 -0.535044 -3.56103 0
M  V30 119 C 9.8586 -2.00548 -4.02617 0
M  V30 120 C 11.1776 0.0478191 -4.40074 0
M  V30 121 H 8.2966 -0.134941 -0.724541 0
M  V30 122 H 10.9386 -0.999794 -1.61568 0
M  V30 123 H 9.0886 0.00336329 -3.885 0
M  V30 124 H 10.7606 -2.60521 -3.80692 0
M  V30 125 H 9.0036 -2.50686 -3.54032 0
M  V30 126 H 9.6746 -2.07377 -5.11565 0
M  V30 127 H 12.1506 -0.411822 -4.14057 0
M  V30 128 H 11.0266 -0.0995336 -5.4881 0
M  V30 129 H 11.2876 1.14025 -4.27142 0
M  V30 130 N 10.3467 1.47872 -0.545128 0
M  V30 131 C 11.5717 2.07391 -0.0190611 0
M  V30 132 C 11.9967 1.39688 1.25971 0
M  V30 133 O 11.3547 0.467816 1.7516 0
M  V30 134 C 11.4027 3.60188 0.172335 0
M  V30 135 O 10.5067 3.9339 1.23766 0
M  V30 136 H 9.8477 0.662411 -0.0459059 0
M  V30 137 H 12.3777 1.90066 -0.757365 0
M  V30 138 H 12.3877 4.06129 0.390305 0
M  V30 139 H 11.0627 4.08865 -0.761725 0
M  V30 140 H 9.6397 3.5921 1.00114 0
M  V30 141 N 11.8248 0.280983 1.55075 0
M  V30 142 C 12.7878 -0.590896 2.21452 0
M  V30 143 C 13.7878 -1.07682 1.19421 0
M  V30 144 O 14.9778 -0.97605 1.44288 0
M  V30 145 C 12.1098 -1.81587 2.88511 0
M  V30 146 H 13.3028 -0.0112554 2.99898 0
M  V30 147 H 10.8558 0.0316438 1.56268 0
M  V30 148 H 11.5908 -2.43587 2.14093 0
M  V30 149 H 11.3758 -1.4753 3.63287 0
M  V30 150 H 12.8658 -2.43575 3.39206 0
M  V30 151 N 13.3029 -1.57598 0.00835791 0
M  V30 152 C 14.5509 -1.90551 -0.6734 0
M  V30 153 C 14.8719 -0.883301 -1.73847 0
M  V30 154 O 14.1419 0.0781442 -1.95744 0
M  V30 155 H 12.7219 -0.703312 -0.251717 0
M  V30 156 H 15.3839 -1.94833 0.0512592 0
M  V30 157 H 14.4799 -2.9056 -1.13935 0
M  V30 158 N 14.781 0.264519 -1.55364 0
M  V30 159 C 16.027 0.99646 -1.76631 0
M  V30 160 C 16.36 1.85632 -0.570478 0
M  V30 161 O 15.635 1.89647 0.43175 0
M  V30 162 C 15.918 1.87187 -3.07625 0
M  V30 163 C 15.771 1.04138 -4.37579 0
M  V30 164 C 17.09 2.85749 -3.34717 0
M  V30 165 H 14.209 0.360841 -0.642622 0
M  V30 166 H 16.851 0.268218 -1.88097 0
M  V30 167 H 15.001 2.49279 -2.9798 0
M  V30 168 H 16.673 0.440517 -4.59192 0
M  V30 169 H 14.916 0.345115 -4.32425 0
M  V30 170 H 15.587 1.68729 -5.2558 0
M  V30 171 H 18.063 2.33793 -3.4421 0
M  V30 172 H 16.939 3.44136 -4.27623 0
M  V30 173 H 17.2 3.61311 -2.54768 0
M  V30 174 N 16.2591 1.48442 0.529413 0
M  V30 175 C 17.1891 1.65902 1.64313 0
M  V30 176 C 18.1701 0.507897 1.6234 0
M  V30 177 O 19.3551 0.740503 1.79528 0
M  V30 178 C 16.4851 1.69911 3.02898 0
M  V30 179 C 15.4391 2.8453 3.19729 0
M  V30 180 C 14.7651 2.73629 4.59381 0
M  V30 181 C 16.0651 4.25821 3.02447 0
M  V30 182 H 17.7591 2.5914 1.49955 0
M  V30 183 H 15.3051 1.24709 0.719982 0
M  V30 184 H 17.2581 1.80715 3.80684 0
M  V30 185 H 15.9821 0.732524 3.18279 0
M  V30 186 H 14.6411 2.73283 2.44361 0
M  V30 187 H 14.2891 1.74938 4.71599 0
M  V30 188 H 13.9891 3.50541 4.71588 0
M  V30 189 H 15.5131 2.86401 5.39265 0
M  V30 190 H 16.9271 4.37898 3.70024 0
M  V30 191 H 15.3241 5.03735 3.26146 0
M  V30 192 H 16.3941 4.42244 1.98867 0
M  V30 193 N 17.7372 -0.778329 1.37039 0
M  V30 194 C 18.6672 -1.90546 1.34962 0
M  V30 195 C 19.6482 -1.68681 0.219274 0
M  V30 196 O 20.8332 -1.89634 0.418624 0
M  V30 197 C 17.9632 -3.27734 1.14925 0
M  V30 198 C 16.9172 -3.64147 2.24902 0
M  V30 199 C 16.2432 -4.99806 1.89996 0
M  V30 200 C 17.5432 -3.71579 3.67051 0
M  V30 201 H 19.2372 -1.92541 2.29277 0
M  V30 202 H 16.7832 -0.924948 1.10366 0
M  V30 203 H 18.7362 -4.06215 1.12104 0
M  V30 204 H 17.4602 -3.26154 0.170631 0
M  V30 205 H 16.1192 -2.8797 2.26868 0
M  V30 206 H 15.7672 -4.94759 0.906796 0
M  V30 207 H 15.4672 -5.25139 2.63634 0
M  V30 208 H 16.9912 -5.80694 1.88749 0
M  V30 209 H 18.4052 -4.40227 3.67251 0
M  V30 210 H 16.8022 -4.08405 4.39688 0
M  V30 211 H 17.8722 -2.72404 4.01154 0
M  V30 212 N 19.2153 -1.21501 -1.00376 0
M  V30 213 C 20.4613 -1.03452 -1.74429 0
M  V30 214 C 20.7943 0.430764 -1.89362 0
M  V30 215 O 20.0693 1.31962 -1.42886 0
M  V30 216 C 20.3523 -1.73375 -3.15615 0
M  V30 217 C 20.2053 -3.27431 -3.08397 0
M  V30 218 C 21.5243 -1.47732 -4.14564 0
M  V30 219 H 18.6433 -0.377226 -0.633143 0
M  V30 220 H 21.2853 -1.49693 -1.17013 0
M  V30 221 H 19.4353 -1.34064 -3.64636 0
M  V30 222 H 21.1073 -3.76119 -2.67081 0
M  V30 223 H 19.3503 -3.5767 -2.45468 0
M  V30 224 H 20.0213 -3.71524 -4.08258 0
M  V30 225 H 22.4973 -1.8186 -3.74254 0
M  V30 226 H 21.3733 -1.99169 -5.11491 0
M  V30 227 H 21.6343 -0.407589 -4.40217 0
M  V30 228 N 20.6934 1.19889 -1.02296 0
M  V30 229 C 21.6564 2.21116 -0.603351 0
M  V30 230 C 22.6564 1.5738 0.329884 0
M  V30 231 O 23.8464 1.73802 0.117702 0
M  V30 232 C 20.9784 3.40696 0.117992 0
M  V30 233 H 22.1714 2.59754 -1.49893 0
M  V30 234 H 19.7244 1.33463 -0.813468 0
M  V30 235 H 20.4594 3.07569 1.0282 0
M  V30 236 H 20.2444 3.88188 -0.552511 0
M  V30 237 H 21.7344 4.15692 0.398696 0
M  V30 238 N 22.1715 0.800033 1.35784 0
M  V30 239 C 23.1015 0.220184 2.3246 0
M  V30 240 C 24.0825 -0.65073 1.57161 0
M  V30 241 O 25.2675 -0.582359 1.85263 0
M  V30 242 C 22.3975 -0.637353 3.41402 0
M  V30 243 C 21.3515 0.134531 4.27789 0
M  V30 244 C 20.6775 -0.844285 5.27992 0
M  V30 245 C 21.9775 1.32979 5.05088 0
M  V30 246 H 23.6715 1.02787 2.81203 0
M  V30 247 H 21.2175 0.495717 1.35199 0
M  V30 248 H 23.1705 -1.05302 4.08031 0
M  V30 249 H 21.8945 -1.47785 2.91251 0
M  V30 250 H 20.5535 0.531296 3.6273 0
M  V30 251 H 20.2015 -1.68011 4.74111 0
M  V30 252 H 19.9015 -0.332184 5.8666 0
M  V30 253 H 21.4255 -1.2583 5.97494 0
M  V30 254 H 22.8395 0.98934 5.64699 0
M  V30 255 H 21.2365 1.77593 5.7322 0
M  V30 256 H 22.3065 2.11978 4.36111 0
M  V30 257 N 23.6496 -1.47581 0.552962 0
M  V30 258 C 24.5796 -2.32762 -0.185451 0
M  V30 259 C 25.5606 -1.43527 -0.912905 0
M  V30 260 O 26.7456 -1.72388 -0.894201 0
M  V30 261 C 23.8756 -3.25219 -1.21859 0
M  V30 262 C 22.8296 -4.23661 -0.607864 0
M  V30 263 C 22.1556 -5.05413 -1.74533 0
M  V30 264 C 23.4556 -5.20481 0.435582 0
M  V30 265 H 25.1496 -2.94749 0.525684 0
M  V30 266 H 22.6956 -1.41738 0.254251 0
M  V30 267 H 24.6486 -3.8365 -1.7433 0
M  V30 268 H 23.3726 -2.61279 -1.95961 0
M  V30 269 H 22.0316 -3.66451 -0.104489 0
M  V30 270 H 21.6796 -4.3788 -2.47529 0
M  V30 271 H 21.3796 -5.72059 -1.34249 0
M  V30 272 H 22.9036 -5.66701 -2.27338 0
M  V30 273 H 24.3176 -5.733 -0.00290157 0
M  V30 274 H 22.7146 -5.95305 0.757067 0
M  V30 275 H 23.7846 -4.66217 1.33303 0
M  V30 276 N 25.1277 -0.289203 -1.54924 0
M  V30 277 C 26.5387 0.205791 -1.85562 0
M  V30 278 C 26.8897 1.54351 -1.2112 0
M  V30 279 O 26.0147 2.10435 -0.504601 0
M  V30 280 C 26.6097 0.380177 -3.3666 0
M  V30 281 C 25.1687 0.819395 -3.67373 0
M  V30 282 C 24.3157 -0.079159 -2.77187 0
M  V30 283 H 27.2667 -0.510577 -1.50262 0
M  V30 284 H 27.2877 1.21659 -3.60526 0
M  V30 285 H 26.7997 -0.593589 -3.83534 0
M  V30 286 H 24.9007 1.80413 -3.26009 0
M  V30 287 H 25.0137 0.646957 -4.74712 0
M  V30 288 H 23.3777 0.439565 -2.50878 0
M  V30 289 H 24.1607 -1.04906 -3.26878 0
M  V30 290 N 26.6058 1.57591 -0.0167156 0
M  V30 291 C 27.8458 1.93145 0.668902 0
M  V30 292 C 28.2098 0.892406 1.7 0
M  V30 293 O 29.4108 1.13373 2.43721 0
M  V30 294 C 27.6818 3.33678 1.28039 0
M  V30 295 S 29.2408 3.91142 1.9888 0
M  V30 296 H 26.0588 0.67593 0.220545 0
M  V30 297 H 28.6608 1.95347 -0.0774105 0
M  V30 298 H 27.3648 4.07126 0.517339 0
M  V30 299 H 26.8958 3.3489 2.06427 0
M  V30 300 H 28.9108 3.73571 3.26587 0
M  V30 301 N 28.0839 -0.256276 1.55502 0
M  V30 302 C 29.4949 -0.826068 1.67431 0
M  V30 303 C 29.8459 -1.86396 0.612446 0
M  V30 304 O 28.9709 -2.15031 -0.243025 0
M  V30 305 C 29.5659 -1.50512 3.03532 0
M  V30 306 C 28.1249 -2.02273 3.17431 0
M  V30 307 C 27.2719 -0.870548 2.63281 0
M  V30 308 H 30.2229 -0.0322728 1.58667 0
M  V30 309 H 30.2439 -2.37279 2.97454 0
M  V30 310 H 29.7559 -0.749484 3.80794 0
M  V30 311 H 27.8569 -2.80746 2.44974 0
M  V30 312 H 27.9699 -2.22655 4.24219 0
M  V30 313 H 26.3339 -1.26851 2.20864 0
M  V30 314 H 27.1169 -0.128149 3.43061 0
M  V30 315 N 29.562 -1.4872 -0.521534 0
M  V30 316 C 30.973 -1.50607 -1.10337 0
M  V30 317 C 31.324 -0.280612 -1.94183 0
M  V30 318 O 30.449 0.611507 -2.0758 0
M  V30 319 C 31.044 -2.72903 -2.00772 0
M  V30 320 C 29.603 -2.77634 -2.54158 0
M  V30 321 C 28.75 -2.44241 -1.31307 0
M  V30 322 H 31.701 -1.55714 -0.306388 0
M  V30 323 H 31.722 -2.519 -2.85178 0
M  V30 324 H 31.234 -3.62077 -1.39721 0
M  V30 325 H 29.335 -1.92689 -3.18907 0
M  V30 326 H 29.448 -3.79283 -2.92714 0
M  V30 327 H 27.812 -1.95577 -1.63161 0
M  V30 328 H 28.595 -3.35666 -0.719943 0
M  V30 329 N 31.0401 0.771051 -1.3745 0
M  V30 330 C 32.2801 1.54264 -1.34096 0
M  V30 331 C 32.6441 1.91858 0.0737639 0
M  V30 332 O 33.8451 2.67797 0.23203 0
M  V30 333 C 32.1161 2.77326 -2.25445 0
M  V30 334 S 33.6751 3.67383 -2.39948 0
M  V30 335 H 30.4931 0.528122 -0.476034 0
M  V30 336 H 33.0951 0.906633 -1.73206 0
M  V30 337 H 31.7991 2.47788 -3.27153 0
M  V30 338 H 31.3301 3.45886 -1.87421 0
M  V30 339 H 33.3451 4.69334 -1.61059 0
M  V30 340 N 32.5182 1.22032 0.997298 0
M  V30 341 C 33.9342 0.979326 1.26021 0
M  V30 342 C 34.1342 -0.32972 1.98784 0
M  V30 343 O 33.1902 -1.05345 2.29475 0
M  V30 344 C 34.5032 2.17509 2.07631 0
M  V30 345 C 36.0512 2.21817 2.2083 0
M  V30 346 C 36.5262 3.40933 3.05825 0
M  V30 347 N 38.0172 3.41067 3.13412 0
M  V30 348 C 38.7522 4.29885 3.79455 0
M  V30 349 N 38.2482 5.28914 4.47462 0
M  V30 350 N 40.0412 4.17673 3.76173 0
M  V30 351 H 32.1922 2.06202 0.509352 0
M  V30 352 H 34.4552 0.90334 0.287541 0
M  V30 353 H 34.1612 3.12415 1.61524 0
M  V30 354 H 34.0352 2.17206 3.08385 0
M  V30 355 H 36.4222 1.27462 2.66153 0
M  V30 356 H 36.5032 2.2616 1.1952 0
M  V30 357 H 36.1472 4.35586 2.61203 0
M  V30 358 H 36.0772 3.33829 4.07266 0
M  V30 359 H 38.5682 2.69406 2.65007 0
M  V30 360 H 38.8812 5.92973 4.95583 0
M  V30 361 H 37.2262 5.32831 4.46224 0
M  V30 362 H 40.4172 3.39564 3.22202 0
M  V30 363 H 40.5902 4.87098 4.27363 0
M  V30 364 N 33.9963 -1.19345 1.0293 0
M  V30 365 C 34.9593 -2.20793 0.615069 0
M  V30 366 C 35.9593 -1.57553 -0.321533 0
M  V30 367 O 37.1493 -1.73862 -0.108483 0
M  V30 368 C 34.2813 -3.40754 -0.0999222 0
M  V30 369 H 35.4743 -2.58955 1.51269 0
M  V30 370 H 33.0273 -1.3303 0.820534 0
M  V30 371 H 33.7623 -3.0811 -1.01187 0
M  V30 372 H 33.5473 -3.87889 0.57309 0
M  V30 373 H 35.0373 -4.15898 -0.376645 0
M  V30 374 N 35.4744 -0.807222 -1.35358 0
M  V30 375 C 36.4044 -0.232509 -2.3234 0
M  V30 376 C 37.3854 0.642386 -1.57504 0
M  V30 377 O 38.5704 0.572526 -1.85569 0
M  V30 378 C 35.7004 0.619238 -3.41735 0
M  V30 379 C 34.6544 -0.157215 -4.27711 0
M  V30 380 C 33.9804 0.816273 -5.28433 0
M  V30 381 C 35.2804 -1.35656 -5.04376 0
M  V30 382 H 36.9744 -1.04276 -2.80654 0
M  V30 383 H 34.5204 -0.50288 -1.34934 0
M  V30 384 H 36.4734 1.03137 -4.08584 0
M  V30 385 H 35.1974 1.46239 -2.92031 0
M  V30 386 H 33.8564 -0.550525 -3.62443 0
M  V30 387 H 33.5044 1.65494 -4.74996 0
M  V30 388 H 33.2044 0.301067 -5.86828 0
M  V30 389 H 34.7284 1.22659 -5.98153 0
M  V30 390 H 36.1424 -1.01927 -5.64166 0
M  V30 391 H 34.5394 -1.8063 -5.7227 0
M  V30 392 H 35.6094 -2.14288 -4.34981 0
M  V30 393 N 36.9525 1.47285 -0.560781 0
M  V30 394 C 37.8825 2.32857 0.173105 0
M  V30 395 C 38.8635 1.44009 0.905281 0
M  V30 396 O 40.0485 1.7286 0.885046 0
M  V30 397 C 37.1785 3.25861 1.20133 0
M  V30 398 C 36.1325 4.23978 0.585388 0
M  V30 399 C 35.4585 5.06332 1.7185 0
M  V30 400 C 36.7585 5.20242 -0.463178 0
M  V30 401 H 38.4525 2.94466 -0.541307 0
M  V30 402 H 35.9985 1.41601 -0.261764 0
M  V30 403 H 37.9515 3.84569 1.72293 0
M  V30 404 H 36.6755 2.62315 1.94573 0
M  V30 405 H 35.3345 3.66501 0.085054 0
M  V30 406 H 34.9825 4.39186 2.45203 0
M  V30 407 H 34.6825 5.72762 1.31213 0
M  V30 408 H 36.2065 5.67899 2.24329 0
M  V30 409 H 37.6205 5.73293 -0.027502 0
M  V30 410 H 36.0175 5.94896 -0.788627 0
M  V30 411 H 37.0875 4.65504 -1.35773 0
M  V30 412 N 38.4306 0.297415 1.54768 0
M  V30 413 C 39.6556 -0.318435 2.04941 0
M  V30 414 C 40.0806 -1.4701 1.17345 0
M  V30 415 O 39.4386 -1.80436 0.176758 0
M  V30 416 C 39.4866 -0.755749 3.52592 0
M  V30 417 O 38.5906 -1.86088 3.68028 0
M  V30 418 H 37.9316 -0.062421 0.661059 0
M  V30 419 H 40.4616 0.438215 1.99852 0
M  V30 420 H 40.4716 -1.04552 3.94376 0
M  V30 421 H 39.1466 0.0867233 4.1581 0
M  V30 422 H 37.7236 -1.57193 3.38149 0
M  V30 423 N 39.9087 -1.5758 0.0250728 0
M  V30 424 C 41.3247 -1.56124 -0.331282 0
M  V30 425 C 41.5247 -1.03029 -1.73169 0
M  V30 426 O 40.5807 -0.675215 -2.43305 0
M  V30 427 C 41.8937 -3.00139 -0.183584 0
M  V30 428 C 43.4417 -3.11946 -0.256654 0
M  V30 429 C 43.9167 -4.57793 -0.137792 0
M  V30 430 N 45.4077 -4.6279 -0.194904 0
M  V30 431 C 46.1427 -5.7326 -0.126655 0
M  V30 432 N 45.6387 -6.928 -0.00755288 0
M  V30 433 N 47.4317 -5.61811 -0.180348 0
M  V30 434 H 39.5827 -1.90424 0.94087 0
M  V30 435 H 41.8457 -0.875761 0.362968 0
M  V30 436 H 41.5517 -3.4292 0.780927 0
M  V30 437 H 41.4257 -3.64899 -0.955448 0
M  V30 438 H 43.8127 -2.69079 -1.21162 0
M  V30 439 H 43.8937 -2.49915 0.545517 0
M  V30 440 H 43.5377 -5.01339 0.813739 0
M  V30 441 H 43.4677 -5.17798 -0.958775 0
M  V30 442 H 45.9587 -3.76807 -0.287267 0
M  V30 443 H 46.2717 -7.72791 0.0379428 0
M  V30 444 H 44.6167 -6.94995 0.0271731 0
M  V30 445 H 47.8077 -4.6731 -0.271767 0
M  V30 446 H 47.9807 -6.47882 -0.123697 0
M  V30 447 N 41.3868 0.248026 -1.55636 0
M  V30 448 C 42.6348 0.974295 -1.77065 0
M  V30 449 C 42.9558 1.85897 -0.588849 0
M  V30 450 O 42.2258 1.91868 0.395407 0
M  V30 451 H 40.8058 0.362733 -0.653019 0
M  V30 452 H 43.4678 0.266244 -1.93073 0
M  V30 453 H 42.5638 1.59667 -2.68166 0
M  V30 454 N 42.8649 1.48995 0.513639 0
M  V30 455 C 44.2759 1.5119 1.09537 0
M  V30 456 C 44.6269 0.290906 1.94031 0
M  V30 457 O 43.7519 -0.60049 2.07902 0
M  V30 458 C 44.3469 2.73964 1.99322 0
M  V30 459 C 42.9059 2.78978 2.52682 0
M  V30 460 C 42.0529 2.44934 1.30009 0
M  V30 461 H 45.0039 1.55875 0.298125 0
M  V30 462 H 45.0249 2.53409 2.83838 0
M  V30 463 H 44.5369 3.62813 1.37799 0
M  V30 464 H 42.6379 1.94378 3.1788 0
M  V30 465 H 42.7509 3.8083 2.90698 0
M  V30 466 H 41.1149 1.9644 1.62122 0
M  V30 467 H 41.8979 3.36043 0.702131 0
M  V30 468 N 44.343 -0.763751 1.37857 0
M  V30 469 C 45.589 -1.52483 1.33704 0
M  V30 470 C 45.922 -1.94051 -0.0759612 0
M  V30 471 O 45.197 -1.64675 -1.03501 0
M  V30 472 C 45.48 -2.78441 2.28348 0
M  V30 473 C 45.333 -2.43075 3.78463 0
M  V30 474 C 46.652 -3.80415 2.21298 0
M  V30 475 H 43.771 -0.553169 0.487005 0
M  V30 476 H 46.413 -0.875562 1.68624 0
M  V30 477 H 44.563 -3.33842 1.987 0
M  V30 478 H 46.235 -1.93527 4.18742 0
M  V30 479 H 44.478 -1.75666 3.96641 0
M  V30 480 H 45.149 -3.33149 4.40132 0
M  V30 481 H 47.625 -3.34527 2.47449 0
M  V30 482 H 46.501 -4.66257 2.89647 0
M  V30 483 H 46.762 -4.25262 1.20849 0
M  V30 484 N 45.8211 -1.22559 -0.990812 0
M  V30 485 C 47.2321 -1.04791 -1.54518 0
M  V30 486 C 47.5831 0.387998 -1.92325 0
M  V30 487 O 46.7081 1.27328 -1.74976 0
M  V30 488 C 47.3031 -1.896 -2.80779 0
M  V30 489 C 45.8621 -1.76124 -3.32652 0
M  V30 490 C 45.0091 -1.8594 -2.05722 0
M  V30 491 H 47.9601 -1.36374 -0.811662 0
M  V30 492 H 47.9811 -1.41464 -3.53225 0
M  V30 493 H 47.4931 -2.94101 -2.53231 0
M  V30 494 H 45.5941 -0.743643 -3.65104 0
M  V30 495 H 45.7071 -2.58913 -4.03114 0
M  V30 496 H 44.0711 -1.29403 -2.19379 0
M  V30 497 H 44.8541 -2.91976 -1.80568 0
M  V30 498 N 47.2992 1.18797 -1.03562 0
M  V30 499 C 48.5472 1.88278 -0.734569 0
M  V30 500 C 48.8682 1.8043 0.739586 0
M  V30 501 O 48.1382 1.21925 1.53333 0
M  V30 502 H 46.7182 0.696991 -0.268725 0
M  V30 503 H 49.3802 1.44192 -1.31129 0
M  V30 504 H 48.4762 2.94443 -1.03489 0
M  V30 505 N 48.7773 0.814389 1.34928 0
M  V30 506 C 49.7403 0.235759 2.27984 0
M  V30 507 C 50.7403 -0.581412 1.49921 0
M  V30 508 O 51.9303 -0.398758 1.69575 0
M  V30 509 C 49.0623 -0.670433 3.34242 0
M  V30 510 H 50.2553 1.05659 2.80671 0
M  V30 511 H 47.8083 0.585614 1.44915 0
M  V30 512 H 48.5433 -1.51466 2.86755 0
M  V30 513 H 48.3283 -0.0860822 3.92005 0
M  V30 514 H 49.8183 -1.06935 4.03676 0
M  V30 515 N 50.2554 -1.46986 0.568584 0
M  V30 516 C 51.6714 -1.57946 0.229189 0
M  V30 517 C 51.8714 -1.56567 -1.26843 0
M  V30 518 O 50.9274 -1.47511 -2.04931 0
M  V30 519 C 52.2404 -2.87963 0.865909 0
M  V30 520 C 53.7884 -3.01568 0.838188 0
M  V30 521 C 54.2634 -4.34301 1.45419 0
M  V30 522 N 55.7544 -4.40965 1.41788 0
M  V30 523 C 56.4894 -5.42256 1.86403 0
M  V30 524 N 55.9854 -6.50297 2.38926 0
M  V30 525 N 57.7784 -5.3337 1.77405 0
M  V30 526 H 49.9294 -1.46126 1.54146 0
M  V30 527 H 52.1924 -0.696156 0.643484 0
M  V30 528 H 51.8984 -2.94742 1.91886 0
M  V30 529 H 51.7724 -3.75423 0.365687 0
M  V30 530 H 54.1594 -2.94379 -0.206106 0
M  V30 531 H 54.2404 -2.1562 1.37629 0
M  V30 532 H 53.8844 -4.42247 2.49761 0
M  V30 533 H 53.8144 -5.19 0.891435 0
M  V30 534 H 56.3054 -3.63484 1.03381 0
M  V30 535 H 56.6184 -7.23777 2.70863 0
M  V30 536 H 54.9634 -6.51155 2.42944 0
M  V30 537 H 58.1544 -4.47865 1.3614 0
M  V30 538 H 58.3274 -6.12169 2.12492 0
M  V30 539 N 51.7335 -0.305618 -1.54608 0
M  V30 540 C 52.6655 0.602161 -2.21149 0
M  V30 541 C 53.6785 1.09394 -1.20569 0
M  V30 542 O 54.8675 1.0106 -1.47136 0
M  V30 543 C 51.9675 1.83692 -2.84799 0
M  V30 544 C 51.1405 1.48686 -4.11353 0
M  V30 545 C 50.1995 2.57725 -4.58764 0
M  V30 546 O 49.2255 2.22623 -5.23858 0
M  V30 547 N 50.4275 3.88346 -4.31471 0
M  V30 548 H 53.1925 0.0324966 -2.99682 0
M  V30 549 H 50.7535 -0.128021 -1.61393 0
M  V30 550 H 52.7455 2.55994 -3.13448 0
M  V30 551 H 51.3155 2.31486 -2.10078 0
M  V30 552 H 50.5355 0.596269 -3.89664 0
M  V30 553 H 51.8235 1.22842 -4.93748 0
M  V30 554 H 51.2215 4.19671 -3.79331 0
M  V30 555 H 49.7785 4.56932 -4.64818 0
M  V30 556 N 53.2116 1.57565 -0.0334293 0
M  V30 557 C 54.1746 2.09393 0.932048 0
M  V30 558 C 55.1746 1.00986 1.25134 0
M  V30 559 O 56.3646 1.27129 1.19096 0
M  V30 560 C 53.4966 2.56338 2.2473 0
M  V30 561 H 54.6896 2.95984 0.483085 0
M  V30 562 H 52.2426 1.54819 0.21468 0
M  V30 563 H 52.9776 1.7309 2.74245 0
M  V30 564 H 52.7626 3.35542 2.02865 0
M  V30 565 H 54.2526 2.96646 2.93923 0
M  V30 566 N 54.6897 -0.239769 1.55765 0
M  V30 567 C 56.1007 -0.808263 1.68297 0
M  V30 568 C 56.4517 -1.85736 0.632181 0
M  V30 569 O 55.5767 -2.15277 -0.220204 0
M  V30 570 C 56.1717 -1.47284 3.05111 0
M  V30 571 C 54.7307 -1.98895 3.19559 0
M  V30 572 C 53.8777 -0.842575 2.64189 0
M  V30 573 H 56.8287 -0.0154422 1.58692 0
M  V30 574 H 56.8497 -2.34111 2.99954 0
M  V30 575 H 56.3617 -0.709053 3.81568 0
M  V30 576 H 54.4627 -2.78132 2.47938 0
M  V30 577 H 54.5757 -2.18143 4.26556 0
M  V30 578 H 52.9397 -1.24501 2.22197 0
M  V30 579 H 53.7227 -0.0917552 3.43177 0
M  V30 580 N 56.1678 -1.49265 -0.50573 0
M  V30 581 C 57.0998 -1.617 -1.62437 0
M  V30 582 C 58.1128 -0.499924 -1.54934 0
M  V30 583 O 59.3018 -0.771785 -1.60953 0
M  V30 584 C 56.4018 -1.5533 -3.01207 0
M  V30 585 C 55.5748 -2.8249 -3.33943 0
M  V30 586 C 54.6338 -2.69238 -4.52103 0
M  V30 587 O 53.6598 -3.43167 -4.5412 0
M  V30 588 N 54.8618 -1.80468 -5.51735 0
M  V30 589 H 57.6268 -2.58177 -1.52199 0
M  V30 590 H 55.1878 -1.46294 -0.693511 0
M  V30 591 H 57.1798 -1.44125 -3.78167 0
M  V30 592 H 55.7498 -0.667297 -3.05395 0
M  V30 593 H 54.9698 -3.08081 -2.45926 0
M  V30 594 H 56.2578 -3.66802 -3.5261 0
M  V30 595 H 55.6558 -1.19653 -5.52901 0
M  V30 596 H 54.2128 -1.75188 -6.27816 0
M  V30 597 N 57.6459 0.756429 -1.3826 0
M  V30 598 C 58.5959 1.86069 -1.31766 0
M  V30 599 C 59.5799 1.59621 -0.202483 0
M  V30 600 O 60.7719 1.7149 -0.438211 0
M  V30 601 C 57.9009 3.23742 -1.1422 0
M  V30 602 C 56.9869 3.56091 -2.30348 0
M  V30 603 N 57.3779 3.59517 -3.55783 0
M  V30 604 C 55.6759 3.86341 -2.22838 0
M  V30 605 C 56.3769 3.89052 -4.32451 0
M  V30 606 N 55.3529 4.05736 -3.61772 0
M  V30 607 H 59.1549 1.86992 -2.26741 0
M  V30 608 H 56.6689 0.953643 -1.31451 0
M  V30 609 H 58.6659 4.02761 -1.07652 0
M  V30 610 H 57.3259 3.24073 -0.201763 0
M  V30 611 H 58.3369 3.41347 -3.89491 0
M  V30 612 H 55.0139 3.94404 -1.36937 0
M  V30 613 H 56.4039 3.98349 -5.4108 0
M  V30 614 N 59.124 1.23083 0.984299 0
M  V30 615 C 60.535 1.05609 1.5396 0
M  V30 616 C 60.886 -0.377793 1.92528 0
M  V30 617 O 60.011 -1.26398 1.75649 0
M  V30 618 C 60.606 1.91087 2.7977 0
M  V30 619 C 59.165 1.77885 3.31713 0
M  V30 620 C 58.312 1.87028 2.04733 0
M  V30 621 H 61.263 1.36802 0.804419 0
M  V30 622 H 61.284 1.43336 3.5247 0
M  V30 623 H 60.796 2.9544 2.51668 0
M  V30 624 H 58.897 0.762995 3.64704 0
M  V30 625 H 59.01 2.61047 4.01735 0
M  V30 626 H 57.374 1.30565 2.18689 0
M  V30 627 H 58.157 2.92929 1.79017 0
M  V30 628 N 60.6021 -1.18246 1.0419 0
M  V30 629 C 61.5341 -2.2142 0.592088 0
M  V30 630 C 62.5471 -1.59233 -0.338909 0
M  V30 631 O 63.7361 -1.78002 -0.133231 0
M  V30 632 C 60.8361 -3.38546 -0.154854 0
M  V30 633 C 60.0091 -4.3031 0.784328 0
M  V30 634 C 59.0681 -5.26138 0.0804583 0
M  V30 635 O 58.0941 -5.64738 0.711292 0
M  V30 636 N 59.2961 -5.68261 -1.18574 0
M  V30 637 H 62.0611 -2.60636 1.47949 0
M  V30 638 H 59.6221 -1.33044 0.922544 0
M  V30 639 H 61.6141 -3.99678 -0.635606 0
M  V30 640 H 60.1841 -2.98012 -0.943811 0
M  V30 641 H 59.4041 -3.66764 1.44491 0
M  V30 642 H 60.6921 -4.8852 1.42218 0
M  V30 643 H 60.0901 -5.38957 -1.71876 0
M  V30 644 H 58.6471 -6.31584 -1.61074 0
M  V30 645 N 62.0802 -0.821533 -1.34494 0
M  V30 646 C 63.4912 -0.467956 -1.8074 0
M  V30 647 C 63.8422 1.01151 -1.68116 0
M  V30 648 O 62.9672 1.78707 -1.22036 0
M  V30 649 C 63.5622 -0.842627 -3.28154 0
M  V30 650 C 62.1212 -0.541439 -3.72485 0
M  V30 651 C 61.2682 -1.06028 -2.56229 0
M  V30 652 H 64.2192 -1.01183 -1.22261 0
M  V30 653 H 64.2402 -0.145876 -3.8022 0
M  V30 654 H 63.7522 -1.91945 -3.37311 0
M  V30 655 H 61.8532 0.526034 -3.68868 0
M  V30 656 H 61.9662 -1.08453 -4.66663 0
M  V30 657 H 60.3302 -0.481892 -2.501 0
M  V30 658 H 61.1132 -2.14352 -2.68157 0
M  V30 659 N 63.5583 1.46682 -0.576371 0
M  V30 660 C 64.4883 2.33028 0.148397 0
M  V30 661 C 65.4693 1.44961 0.889956 0
M  V30 662 O 66.6543 1.73789 0.866662 0
M  V30 663 C 63.7843 3.27117 1.1667 0
M  V30 664 C 62.7383 4.24575 0.540386 0
M  V30 665 C 62.0643 5.08126 1.6647 0
M  V30 666 C 63.3643 5.19722 -0.518331 0
M  V30 667 H 65.0583 2.93875 -0.572509 0
M  V30 668 H 62.6043 1.41315 -0.276768 0
M  V30 669 H 64.5573 3.86374 1.68204 0
M  V30 670 H 63.2813 2.64364 1.9178 0
M  V30 671 H 61.9403 3.66571 0.0461769 0
M  V30 672 H 61.5883 4.41762 2.40531 0
M  V30 673 H 61.2883 5.74122 1.25131 0
M  V30 674 H 62.8123 5.70246 2.18293 0
M  V30 675 H 64.2263 5.73232 -0.0883058 0
M  V30 676 H 62.6233 5.94026 -0.851679 0
M  V30 677 H 63.6933 4.64037 -1.40703 0
M  V30 678 N 65.0364 0.313813 1.54444 0
M  V30 679 C 66.3134 -0.345447 1.92525 0
M  V30 680 C 66.6934 -1.70667 1.24242 0
M  V30 681 O 66.0414 -2.25273 0.382654 0
M  V30 682 C 66.2514 -0.44737 3.46121 0
M  V30 683 C 67.5994 -0.712238 4.18584 0
M  V30 684 O 68.6234 -0.530678 3.52225 0
M  V30 685 O 67.4824 -1.06183 5.36085 0
M  V30 686 H 64.5764 -0.195407 0.803583 0
M  V30 687 H 67.1224 0.362813 1.65776 0
M  V30 688 H 65.8944 0.509043 3.87975 0
M  V30 689 H 65.5174 -1.20359 3.78945 0
M  V30 690 N 66.5145 -1.57545 0.0417849 0
M  V30 691 C 67.7615 -1.92317 -0.634082 0
M  V30 692 C 68.0895 -0.919334 -1.71402 0
M  V30 693 O 67.3445 0.0698253 -1.95575 0
M  V30 694 C 67.6435 -3.33794 -1.27735 0
M  V30 695 C 67.3095 -4.49716 -0.326543 0
M  V30 696 C 65.9715 -4.81156 -0.0648814 0
M  V30 697 C 68.3235 -5.20182 0.325623 0
M  V30 698 C 65.6515 -5.80414 0.856539 0
M  V30 699 C 68.0035 -6.20424 1.23518 0
M  V30 700 C 66.6675 -6.50298 1.5056 0
M  V30 701 H 65.9375 -0.703736 -0.232027 0
M  V30 702 H 68.5845 -1.91205 0.106259 0
M  V30 703 H 66.8895 -3.31228 -2.09274 0
M  V30 704 H 68.5865 -3.57975 -1.80707 0
M  V30 705 H 65.1765 -4.25176 -0.540665 0
M  V30 706 H 69.3605 -4.96112 0.136546 0
M  V30 707 H 64.6165 -6.019 1.07363 0
M  V30 708 H 68.7905 -6.74141 1.74664 0
M  V30 709 H 66.4175 -7.27025 2.22123 0
M  V30 710 N 67.9926 0.231505 -1.5589 0
M  V30 711 C 69.2396 0.957352 -1.78441 0
M  V30 712 C 69.5676 1.84726 -0.60882 0
M  V30 713 O 68.8226 1.91416 0.40725 0
M  V30 714 C 69.1216 1.83577 -3.0665 0
M  V30 715 C 68.7876 1.09993 -4.37278 0
M  V30 716 C 67.4496 0.896629 -4.72773 0
M  V30 717 C 69.8016 0.579558 -5.17968 0
M  V30 718 C 67.1296 0.160896 -5.86479 0
M  V30 719 C 69.4816 -0.142783 -6.32439 0
M  V30 720 C 68.1456 -0.357427 -6.66542 0
M  V30 721 H 67.4156 0.35032 -0.65296 0
M  V30 722 H 70.0626 0.226259 -1.90159 0
M  V30 723 H 68.3676 2.63441 -2.90011 0
M  V30 724 H 70.0646 2.39934 -3.21298 0
M  V30 725 H 66.6546 1.26835 -4.09403 0
M  V30 726 H 70.8386 0.724125 -4.90989 0
M  V30 727 H 66.0946 -0.0157293 -6.11398 0
M  V30 728 H 70.2686 -0.553559 -6.94196 0
M  V30 729 H 67.8956 -0.929466 -7.54497 0
M  V30 730 N 69.4707 1.49531 0.497807 0
M  V30 731 C 70.4027 1.62559 1.61578 0
M  V30 732 C 71.4157 0.508134 1.54667 0
M  V30 733 O 72.6047 0.780309 1.60541 0
M  V30 734 C 69.7047 1.56925 3.00379 0
M  V30 735 C 68.8777 2.84257 3.3244 0
M  V30 736 C 67.9367 2.71632 4.50669 0
M  V30 737 O 66.9627 3.4557 4.52294 0
M  V30 738 N 68.1647 1.83391 5.5077 0
M  V30 739 H 70.9297 2.58981 1.50828 0
M  V30 740 H 68.4907 1.4666 0.685743 0
M  V30 741 H 70.4827 1.46129 3.77397 0
M  V30 742 H 69.0527 0.683483 3.05037 0
M  V30 743 H 68.2727 3.09381 2.44289 0
M  V30 744 H 69.5607 3.68666 3.5066 0
M  V30 745 H 68.9587 1.22583 5.52259 0
M  V30 746 H 67.5157 1.78515 6.26878 0
M  V30 747 N 70.9488 -0.749086 1.3866 0
M  V30 748 C 72.3598 -1.32664 1.31366 0
M  V30 749 C 72.7108 -1.96179 -0.028484 0
M  V30 750 O 71.8358 -1.9537 -0.93057 0
M  V30 751 C 72.4308 -2.41219 2.37905 0
M  V30 752 C 70.9898 -2.94684 2.34176 0
M  V30 753 C 70.1368 -1.68108 2.20533 0
M  V30 754 H 73.0878 -0.547628 1.48952 0
M  V30 755 H 73.1088 -3.21268 2.0388 0
M  V30 756 H 72.6208 -1.94962 3.35576 0
M  V30 757 H 70.7218 -3.45258 1.401 0
M  V30 758 H 70.8348 -3.48757 3.2849 0
M  V30 759 H 69.1988 -1.91907 1.67463 0
M  V30 760 H 69.9818 -1.23923 3.20153 0
M  V30 761 N 72.4269 -1.23603 -0.977757 0
M  V30 762 C 73.8379 -1.06424 -1.53398 0
M  V30 763 C 74.1889 0.367578 -1.92726 0
M  V30 764 O 73.3139 1.25465 -1.76316 0
M  V30 765 C 73.9089 -1.92568 -2.78753 0
M  V30 766 C 72.4679 -1.79642 -3.30765 0
M  V30 767 C 71.6149 -1.88111 -2.03739 0
M  V30 768 H 74.5659 -1.37227 -0.797152 0
M  V30 769 H 74.5869 -1.45203 -3.51705 0
M  V30 770 H 74.0989 -2.96771 -2.50098 0
M  V30 771 H 72.1999 -0.782325 -3.64294 0
M  V30 772 H 72.3129 -2.63174 -4.00345 0
M  V30 773 H 70.6769 -1.31723 -2.17994 0
M  V30 774 H 71.4599 -2.93875 -1.77461 0
M  V30 775 N 73.905 1.17692 -1.04816 0
M  V30 776 C 75.316 1.69501 -0.782698 0
M  V30 777 C 75.667 1.83456 0.695577 0
M  V30 778 O 74.792 1.51942 1.54086 0
M  V30 779 C 75.387 3.07874 -1.41419 0
M  V30 780 C 73.946 3.56864 -1.19686 0
M  V30 781 C 73.093 2.3322 -1.50012 0
M  V30 782 H 76.044 1.02262 -1.2136 0
M  V30 783 H 76.065 3.71528 -0.821428 0
M  V30 784 H 75.577 2.97685 -2.49009 0
M  V30 785 H 73.678 3.72337 -0.140043 0
M  V30 786 H 73.791 4.39851 -1.89916 0
M  V30 787 H 72.155 2.37501 -0.920071 0
M  V30 788 H 72.938 2.25644 -2.58727 0
M  V30 789 N 75.3831 0.828654 1.34056 0
M  V30 790 C 76.3151 0.212052 2.28217 0
M  V30 791 C 77.3281 -0.601362 1.51286 0
M  V30 792 O 78.5171 -0.430104 1.73241 0
M  V30 793 C 75.6171 -0.72088 3.31144 0
M  V30 794 C 74.7901 0.0509587 4.3737 0
M  V30 795 C 73.8491 -0.803766 5.20025 0
M  V30 796 O 72.8751 -0.246667 5.68665 0
M  V30 797 N 74.0771 -2.1227 5.40298 0
M  V30 798 H 76.8421 1.02105 2.81771 0
M  V30 799 H 74.4031 0.686153 1.46641 0
M  V30 800 H 76.3951 -1.29742 3.8334 0
M  V30 801 H 74.9651 -1.43061 2.77943 0
M  V30 802 H 74.1851 0.808831 3.85813 0
M  V30 803 H 75.4731 0.582065 5.0546 0
M  V30 804 H 74.8711 -2.59898 5.02464 0
M  V30 805 H 73.4281 -2.64796 5.95589 0
M  V30 806 N 76.8612 -1.46375 0.584142 0
M  V30 807 C 78.0862 -2.07268 0.0740405 0
M  V30 808 C 78.5112 -1.42979 -1.22223 0
M  V30 809 O 77.8692 -0.514092 -1.73859 0
M  V30 810 C 77.9172 -3.60518 -0.0767769 0
M  V30 811 O 77.0212 -3.96533 -1.13292 0
M  V30 812 H 76.3622 -0.660961 0.0634524 0
M  V30 813 H 78.8922 -1.87991 0.807492 0
M  V30 814 H 78.9022 -4.07021 -0.282489 0
M  V30 815 H 77.5772 -4.06702 0.86986 0
M  V30 816 H 76.1542 -3.61738 -0.905553 0
M  V30 817 N 78.3393 -0.321999 -1.54275 0
M  V30 818 C 79.2493 0.553631 -2.27974 0
M  V30 819 C 80.2653 1.13054 -1.32268 0
M  V30 820 O 81.4413 1.15084 -1.6528 0
M  V30 821 C 78.5063 1.69927 -3.02201 0
M  V30 822 C 77.5673 1.15433 -4.1349 0
M  V30 823 C 76.8003 2.24537 -4.84168 0
M  V30 824 O 77.0233 3.44852 -4.5435 0
M  V30 825 O 75.9573 1.90044 -5.7111 0
M  V30 826 H 79.7833 -0.0448345 -3.03667 0
M  V30 827 H 77.3683 -0.0877418 -1.49142 0
M  V30 828 H 79.2503 2.3663 -3.48689 0
M  V30 829 H 77.9253 2.28395 -2.29385 0
M  V30 830 H 76.8323 0.452436 -3.71354 0
M  V30 831 H 78.1653 0.614805 -4.88345 0
M  V30 832 N 79.8174 1.5752 -0.0501392 0
M  V30 833 C 80.7494 2.08413 0.95376 0
M  V30 834 C 81.7624 1.01175 1.27544 0
M  V30 835 O 82.9514 1.28744 1.23641 0
M  V30 836 C 80.0514 2.51138 2.27559 0
M  V30 837 C 79.2244 3.817 2.13598 0
M  V30 838 C 78.2834 4.10749 3.28895 0
M  V30 839 O 77.3094 4.80685 3.04845 0
M  V30 840 N 78.5114 3.62579 4.5334 0
M  V30 841 H 81.2764 2.95165 0.519383 0
M  V30 842 H 78.8374 1.61327 0.136127 0
M  V30 843 H 80.8294 2.67648 3.03557 0
M  V30 844 H 79.3994 1.6964 2.62567 0
M  V30 845 H 78.6194 3.74782 1.22197 0
M  V30 846 H 79.9074 4.67201 2.01496 0
M  V30 847 H 79.3054 3.06039 4.75769 0
M  V30 848 H 77.8624 3.84329 5.26436 0
M  V30 849 N 81.2955 -0.223234 1.56011 0
M  V30 850 C 82.7065 -0.790368 1.69145 0
M  V30 851 C 83.0575 -1.85055 0.651845 0
M  V30 852 O 82.1825 -2.15498 -0.197359 0
M  V30 853 C 82.7775 -1.4404 3.06656 0
M  V30 854 C 81.3365 -1.95494 3.2165 0
M  V30 855 C 80.4835 -0.814506 2.65068 0
M  V30 856 H 83.4345 0.00139011 1.587 0
M  V30 857 H 83.4555 -2.30916 3.0242 0
M  V30 858 H 82.9675 -0.668543 3.82298 0
M  V30 859 H 81.0685 -2.75487 2.50874 0
M  V30 860 H 81.1815 -2.13607 4.28846 0
M  V30 861 H 79.5455 -1.22137 2.23505 0
M  V30 862 H 80.3285 -0.0553515 3.43255 0
M  V30 863 N 82.7736 -1.49793 -0.48987 0
M  V30 864 C 83.7056 -1.63413 -1.60713 0
M  V30 865 C 84.7186 -0.516329 -1.54395 0
M  V30 866 O 85.9076 -0.788812 -1.60125 0
M  V30 867 C 83.0076 -1.58516 -2.99543 0
M  V30 868 C 82.1806 -2.86016 -3.30928 0
M  V30 869 C 81.2396 -2.74018 -4.49222 0
M  V30 870 O 80.2656 -3.47964 -4.50455 0
M  V30 871 N 81.4676 -1.86309 -5.4979 0
M  V30 872 H 84.2326 -2.59777 -1.49452 0
M  V30 873 H 81.7936 -1.47022 -0.677955 0
M  V30 874 H 83.7856 -1.48128 -3.76617 0
M  V30 875 H 82.3556 -0.69965 -3.0467 0
M  V30 876 H 81.5756 -3.10672 -2.42645 0
M  V30 877 H 82.8636 -3.70521 -3.487 0
M  V30 878 H 82.2616 -1.2551 -5.51601 0
M  V30 879 H 80.8186 -1.81837 -6.25922 0
M  V30 880 N 84.2517 0.741722 -1.39055 0
M  V30 881 C 85.1837 1.8657 -1.33133 0
M  V30 882 C 86.1967 1.61001 -0.241329 0
M  V30 883 O 87.3857 1.7136 -0.499784 0
M  V30 884 C 84.4857 3.22457 -1.04283 0
M  V30 885 C 83.6587 3.75435 -2.24427 0
M  V30 886 C 82.7177 4.89867 -1.92138 0
M  V30 887 O 81.7437 5.03879 -2.64754 0
M  V30 888 N 82.9457 5.73738 -0.88347 0
M  V30 889 H 85.7107 1.92156 -2.29991 0
M  V30 890 H 83.2717 0.922172 -1.3307 0
M  V30 891 H 85.2637 3.9657 -0.807128 0
M  V30 892 H 83.8337 3.12181 -0.161807 0
M  V30 893 H 83.0537 2.92751 -2.6399 0
M  V30 894 H 84.3417 4.07563 -3.04581 0
M  V30 895 H 83.7397 5.64999 -0.281517 0
M  V30 896 H 82.2967 6.47947 -0.707662 0
M  V30 897 N 85.7298 1.2412 0.971189 0
M  V30 898 C 87.1408 1.07236 1.52831 0
M  V30 899 C 87.4918 -0.357352 1.92918 0
M  V30 900 O 86.6168 -1.24528 1.76979 0
M  V30 901 C 87.2118 1.94043 2.77728 0
M  V30 902 C 85.7708 1.81394 3.29808 0
M  V30 903 C 84.9178 1.89189 2.02738 0
M  V30 904 H 87.8688 1.37648 0.789864 0
M  V30 905 H 87.8898 1.47066 3.5093 0
M  V30 906 H 87.4018 2.98093 2.4852 0
M  V30 907 H 85.5028 0.801634 3.63874 0
M  V30 908 H 85.6158 2.65294 3.98944 0
M  V30 909 H 83.9798 1.32877 2.17292 0
M  V30 910 H 84.7628 2.94812 1.759 0
M  V30 911 N 87.2079 -1.17134 1.05439 0
M  V30 912 C 88.1399 -2.2078 0.615539 0
M  V30 913 C 89.1529 -1.59584 -0.322001 0
M  V30 914 O 90.3419 -1.78133 -0.114344 0
M  V30 915 C 87.4419 -3.38691 -0.118938 0
M  V30 916 C 86.6149 -4.29454 0.829924 0
M  V30 917 C 85.6739 -5.26024 0.136258 0
M  V30 918 O 84.6999 -5.63952 0.77115 0
M  V30 919 N 85.9019 -5.69487 -1.1254 0
M  V30 920 H 88.6669 -2.59052 1.50705 0
M  V30 921 H 86.2279 -1.32058 0.936603 0
M  V30 922 H 88.2199 -4.00329 -0.593179 0
M  V30 923 H 86.7899 -2.98996 -0.91215 0
M  V30 924 H 86.0099 -3.65211 1.48373 0
M  V30 925 H 87.2979 -4.86984 1.47392 0
M  V30 926 H 86.6959 -5.4075 -1.6615 0
M  V30 927 H 85.2529 -6.33257 -1.54366 0
M  V30 928 N 88.686 -0.835752 -1.33615 0
M  V30 929 C 89.649 -0.272 -2.2758 0
M  V30 930 C 90.649 0.557487 -1.50827 0
M  V30 931 O 91.839 0.37173 -1.70188 0
M  V30 932 C 88.971 0.617173 -3.35267 0
M  V30 933 H 90.164 -1.10111 -2.78954 0
M  V30 934 H 87.717 -0.608594 -1.43965 0
M  V30 935 H 88.452 1.46884 -2.89129 0
M  V30 936 H 88.237 0.0237066 -3.92093 0
M  V30 937 H 89.727 1.005 -4.05326 0
M  V30 938 N 90.1641 1.46063 -0.591896 0
M  V30 939 C 91.5801 1.57561 -0.254288 0
M  V30 940 C 91.7801 1.58565 1.24336 0
M  V30 941 O 90.8361 1.50753 2.02558 0
M  V30 942 C 92.1491 2.86549 -0.911611 0
M  V30 943 C 93.6971 3.00197 -0.886059 0
M  V30 944 C 94.1721 4.31933 -1.5231 0
M  V30 945 N 95.6631 4.38654 -1.48786 0
M  V30 946 C 96.3981 5.39222 -1.95006 0
M  V30 947 N 95.8941 6.46414 -2.49241 0
M  V30 948 N 97.6871 5.3048 -1.85868 0
M  V30 949 H 89.8381 1.43655 -1.56451 0
M  V30 950 H 92.1011 0.68583 -0.654478 0
M  V30 951 H 91.8071 2.91651 -1.96551 0
M  V30 952 H 91.6811 3.74794 -0.425368 0
M  V30 953 H 94.0681 2.9467 0.159246 0
M  V30 954 H 94.1491 2.13403 -1.41041 0
M  V30 955 H 93.7931 4.38217 -2.56765 0
M  V30 956 H 93.7231 5.17516 -0.973891 0
M  V30 957 H 96.2141 3.61793 -1.09151 0
M  V30 958 H 96.5271 7.19376 -2.82344 0
M  V30 959 H 94.8721 6.47208 -2.53272 0
M  V30 960 H 98.0631 4.45643 -1.43248 0
M  V30 961 H 98.2361 6.08711 -2.22204 0
M  V30 962 N 91.6422 0.330177 1.54103 0
M  V30 963 C 93.0532 -0.15652 1.86043 0
M  V30 964 C 93.4042 -1.51086 1.2517 0
M  V30 965 O 92.5292 -2.09023 0.560217 0
M  V30 966 C 93.1242 -0.290784 3.3755 0
M  V30 967 C 91.6832 -0.721705 3.69416 0
M  V30 968 C 90.8302 0.152622 2.7688 0
M  V30 969 H 93.7812 0.550237 1.48856 0
M  V30 970 H 93.8022 -1.12058 3.63625 0
M  V30 971 H 93.3142 0.695068 3.81825 0
M  V30 972 H 91.4152 -1.71706 3.30678 0
M  V30 973 H 91.5282 -0.520869 4.7626 0
M  V30 974 H 89.8922 -0.372894 2.51956 0
M  V30 975 H 90.6752 1.13536 3.23982 0
M  V30 976 N 93.1203 -1.57491 0.0584922 0
M  V30 977 C 94.3663 -1.93264 -0.614558 0
M  V30 978 C 94.6993 -0.937717 -1.7006 0
M  V30 979 O 93.9743 0.0351652 -1.94468 0
M  V30 980 C 94.2573 -3.3938 -1.20386 0
M  V30 981 C 94.1103 -4.49625 -0.125375 0
M  V30 982 C 95.4293 -3.86039 -2.11334 0
M  V30 983 H 92.5483 -0.702791 -0.221933 0
M  V30 984 H 95.1903 -1.8961 0.12175 0
M  V30 985 H 93.3403 -3.42626 -1.83139 0
M  V30 986 H 95.0123 -4.58506 0.506971 0
M  V30 987 H 93.2553 -4.30354 0.545672 0
M  V30 988 H 93.9263 -5.48967 -0.577861 0
M  V30 989 H 96.4023 -3.84716 -1.58534 0
M  V30 990 H 95.2783 -4.88914 -2.49507 0
M  V30 991 H 95.5393 -3.23215 -3.01636 0
M  V30 992 N 94.5984 0.214957 -1.56127 0
M  V30 993 C 95.5284 1.2695 -1.95974 0
M  V30 994 C 96.5094 1.48539 -0.828868 0
M  V30 995 O 97.6944 1.60611 -1.09168 0
M  V30 996 C 94.8244 2.61794 -2.28214 0
M  V30 997 C 93.7784 2.54851 -3.43853 0
M  V30 998 C 93.1044 3.93785 -3.61715 0
M  V30 999 C 94.4044 2.09065 -4.78632 0
M  V30 1000 H 96.0984 0.93846 -2.84312 0
M  V30 1001 H 93.6444 0.449996 -1.36788 0
M  V30 1002 H 95.5974 3.35731 -2.54682 0
M  V30 1003 H 94.3214 2.96599 -1.36736 0
M  V30 1004 H 92.9804 1.8337 -3.17444 0
M  V30 1005 H 92.6284 4.25908 -2.67602 0
M  V30 1006 H 92.3284 3.90019 -4.39498 0
M  V30 1007 H 93.8524 4.69374 -3.90539 0
M  V30 1008 H 95.2664 2.7275 -5.04262 0
M  V30 1009 H 93.6634 2.16346 -5.59745 0
M  V30 1010 H 94.7334 1.04315 -4.73547 0
M  V30 1011 N 96.0765 1.50051 0.48192 0
M  V30 1012 C 97.0065 1.71046 1.58951 0
M  V30 1013 C 97.9875 0.559288 1.60642 0
M  V30 1014 O 99.1725 0.797243 1.77081 0
M  V30 1015 C 96.3025 1.79462 2.97339 0
M  V30 1016 C 95.2565 2.94558 3.10515 0
M  V30 1017 C 94.5825 2.88105 4.50444 0
M  V30 1018 C 95.8825 4.35227 2.88747 0
M  V30 1019 H 97.5765 2.6378 1.41635 0
M  V30 1020 H 95.1225 1.26936 0.679942 0
M  V30 1021 H 97.0755 1.92734 3.74742 0
M  V30 1022 H 95.7995 0.833412 3.15788 0
M  V30 1023 H 94.4585 2.80918 2.35543 0
M  V30 1024 H 94.1065 1.89853 4.65795 0
M  V30 1025 H 93.8065 3.65366 4.60197 0
M  V30 1026 H 95.3305 3.03412 5.29881 0
M  V30 1027 H 96.7445 4.49449 3.55905 0
M  V30 1028 H 95.1415 5.13856 3.09955 0
M  V30 1029 H 96.2115 4.48347 1.84696 0
M  V30 1030 N 97.5546 -0.734337 1.39446 0
M  V30 1031 C 98.9706 -1.03997 1.21065 0
M  V30 1032 C 99.1706 -2.01369 0.0727019 0
M  V30 1033 O 98.2266 -2.45856 -0.575426 0
M  V30 1034 C 99.5396 -1.60163 2.54496 0
M  V30 1035 C 101.088 -1.7224 2.61347 0
M  V30 1036 C 101.563 -2.31814 3.95002 0
M  V30 1037 N 103.054 -2.39223 3.96644 0
M  V30 1038 C 103.789 -2.86258 4.96834 0
M  V30 1039 N 103.285 -3.33184 6.07421 0
M  V30 1040 N 105.078 -2.85473 4.84213 0
M  V30 1041 H 97.2286 -0.0885624 2.12215 0
M  V30 1042 H 99.4916 -0.10191 0.942506 0
M  V30 1043 H 99.1976 -0.960811 3.38321 0
M  V30 1044 H 99.0716 -2.5896 2.74262 0
M  V30 1045 H 101.459 -2.35443 1.77906 0
M  V30 1046 H 101.54 -0.720939 2.4543 0
M  V30 1047 H 101.184 -1.69238 4.78875 0
M  V30 1048 H 101.114 -3.32638 4.08239 0
M  V30 1049 H 103.605 -2.06057 3.16779 0
M  V30 1050 H 103.918 -3.67586 6.7978 0
M  V30 1051 H 102.263 -3.31191 6.11013 0
M  V30 1052 H 105.454 -2.48136 3.96921 0
M  V30 1053 H 105.627 -3.21814 5.62441 0
M  V30 1054 N 99.0327 -1.24633 -0.964593 0
M  V30 1055 C 99.9657 -0.984662 -2.05863 0
M  V30 1056 C 100.944 0.0826554 -1.6239 0
M  V30 1057 O 102.128 -0.0549296 -1.8842 0
M  V30 1058 C 99.2547 -0.486529 -3.35187 0
M  V30 1059 C 98.3007 -1.54286 -3.97615 0
M  V30 1060 S 99.1337 -3.12513 -4.34851 0
M  V30 1061 C 100.29 -2.6441 -5.67308 0
M  V30 1062 H 100.523 -1.91104 -2.27743 0
M  V30 1063 H 98.0557 -1.08052 -1.10291 0
M  V30 1064 H 100.014 -0.205757 -4.09984 0
M  V30 1065 H 98.6747 0.419186 -3.1129 0
M  V30 1066 H 97.8677 -1.14481 -4.90826 0
M  V30 1067 H 97.4697 -1.7738 -3.2926 0
M  V30 1068 H 99.7617 -2.07416 -6.44969 0
M  V30 1069 H 100.705 -3.56222 -6.11973 0
M  V30 1070 H 101.113 -2.04734 -5.26065 0
M  V30 1071 N 100.511 1.16574 -1.06058 0
M  V30 1072 C 101.759 1.86677 -0.77434 0
M  V30 1073 C 102.08 1.81959 0.701147 0
M  V30 1074 O 101.35 1.2515 1.50713 0
M  V30 1075 H 99.9298 0.691134 -0.283449 0
M  V30 1076 H 102.592 1.41378 -1.34158 0
M  V30 1077 H 101.688 2.92181 -1.09711 0
M  V30 1078 N 101.989 0.842826 1.3317 0
M  V30 1079 C 102.899 0.281444 2.32906 0
M  V30 1080 C 103.915 -0.594587 1.63526 0
M  V30 1081 O 105.091 -0.49777 1.95152 0
M  V30 1082 C 102.156 -0.530929 3.42611 0
M  V30 1083 C 101.217 0.369843 4.27704 0
M  V30 1084 C 100.45 -0.403853 5.3217 0
M  V30 1085 O 100.673 -1.63513 5.46461 0
M  V30 1086 O 99.6069 0.224199 6.01482 0
M  V30 1087 H 103.433 1.10744 2.82789 0
M  V30 1088 H 101.018 0.60545 1.36582 0
M  V30 1089 H 102.9 -0.992437 4.09547 0
M  V30 1090 H 101.575 -1.33392 2.94938 0
M  V30 1091 H 100.482 0.879275 3.6362 0
M  V30 1092 H 101.815 1.13771 4.78871 0
M  V30 1093 N 103.467 -1.45747 0.599634 0
M  V30 1094 C 104.377 -2.34262 -0.125888 0
M  V30 1095 C 105.393 -1.50768 -0.868625 0
M  V30 1096 O 106.569 -1.83592 -0.828003 0
M  V30 1097 C 103.634 -3.28252 -1.11587 0
M  V30 1098 C 102.695 -4.27651 -0.375956 0
M  V30 1099 C 101.928 -5.1715 -1.31877 0
M  V30 1100 O 102.151 -5.09916 -2.55621 0
M  V30 1101 O 101.085 -5.96286 -0.820157 0
M  V30 1102 H 104.911 -2.97688 0.601315 0
M  V30 1103 H 102.496 -1.44999 0.359934 0
M  V30 1104 H 104.378 -3.86191 -1.68626 0
M  V30 1105 H 103.053 -2.67401 -1.82424 0
M  V30 1106 H 101.96 -3.7335 0.236698 0
M  V30 1107 H 103.293 -4.91334 0.29177 0
M  V30 1108 N 104.945 -0.338344 -1.53925 0
M  V30 1109 C 106.175 0.260919 -2.04946 0
M  V30 1110 C 106.583 1.45174 -1.2133 0
M  V30 1111 O 105.926 1.82122 -0.240262 0
M  V30 1112 C 105.988 0.744596 -3.51704 0
M  V30 1113 C 105.652 -0.325883 -4.55837 0
M  V30 1114 C 106.649 -1.16687 -5.06636 0
M  V30 1115 C 104.334 -0.478317 -5.00017 0
M  V30 1116 C 106.328 -2.14588 -6.00192 0
M  V30 1117 C 104.015 -1.46073 -5.93385 0
M  V30 1118 C 105.013 -2.29297 -6.4336 0
M  V30 1119 O 104.701 -3.25867 -7.34892 0
M  V30 1120 H 104.433 0.0551207 -0.673749 0
M  V30 1121 H 106.987 -0.486984 -1.99544 0
M  V30 1122 H 105.217 1.54366 -3.54553 0
M  V30 1123 H 106.906 1.26383 -3.85723 0
M  V30 1124 H 107.672 -1.06016 -4.73271 0
M  V30 1125 H 103.551 0.159613 -4.60724 0
M  V30 1126 H 107.095 -2.79585 -6.39123 0
M  V30 1127 H 102.992 -1.56802 -6.26166 0
M  V30 1128 H 103.76 -3.21278 -7.5281 0
M  V30 1129 N 106.423 1.57458 -0.0668435 0
M  V30 1130 C 107.67 1.93301 0.603406 0
M  V30 1131 C 107.998 0.946486 1.69917 0
M  V30 1132 O 107.253 -0.0387021 1.95662 0
M  V30 1133 C 107.552 3.35784 1.22409 0
M  V30 1134 C 107.218 4.50179 0.254955 0
M  V30 1135 C 105.88 4.81199 -0.0116746 0
M  V30 1136 C 108.232 5.19598 -0.408338 0
M  V30 1137 C 105.56 5.78978 -0.94877 0
M  V30 1138 C 107.912 6.18381 -1.33372 0
M  V30 1139 C 106.576 6.47821 -1.60887 0
M  V30 1140 H 105.846 0.707338 0.220802 0
M  V30 1141 H 108.493 1.91012 -0.136665 0
M  V30 1142 H 106.798 3.34515 2.03978 0
M  V30 1143 H 108.495 3.60804 1.74989 0
M  V30 1144 H 105.085 4.25983 0.472954 0
M  V30 1145 H 109.269 4.95832 -0.215456 0
M  V30 1146 H 104.525 6.00115 -1.16925 0
M  V30 1147 H 108.699 6.71277 -1.85367 0
M  V30 1148 H 106.326 7.23399 -2.33661 0
M  V30 1149 N 107.901 -0.206675 1.56239 0
M  V30 1150 C 108.831 -1.25909 1.96645 0
M  V30 1151 C 109.812 -1.48097 0.836734 0
M  V30 1152 O 110.997 -1.6003 1.10019 0
M  V30 1153 C 108.127 -2.6058 2.29599 0
M  V30 1154 C 107.081 -2.53024 3.452 0
M  V30 1155 C 106.407 -3.91861 3.63798 0
M  V30 1156 C 107.707 -2.06524 4.79734 0
M  V30 1157 H 109.401 -0.923369 2.84806 0
M  V30 1158 H 106.947 -0.442735 1.37025 0
M  V30 1159 H 108.9 -3.34375 2.56459 0
M  V30 1160 H 107.624 -2.95869 1.38307 0
M  V30 1161 H 106.283 -1.81684 3.18412 0
M  V30 1162 H 105.931 -4.24483 2.69857 0
M  V30 1163 H 105.631 -3.87683 4.4156 0
M  V30 1164 H 107.155 -4.67296 3.93022 0
M  V30 1165 H 108.569 -2.70072 5.05702 0
M  V30 1166 H 106.966 -2.13374 5.60885 0
M  V30 1167 H 108.036 -1.01802 4.74093 0
M  V30 1168 N 109.379 -1.50304 -0.473955 0
M  V30 1169 C 110.795 -1.37667 -0.807466 0
M  V30 1170 C 110.995 -0.430555 -1.96846 0
M  V30 1171 O 110.051 0.127874 -2.52176 0
M  V30 1172 C 111.364 -2.78974 -1.12223 0
M  V30 1173 C 112.912 -2.87868 -1.22885 0
M  V30 1174 C 113.387 -4.30003 -1.57676 0
M  V30 1175 N 114.878 -4.3294 -1.64673 0
M  V30 1176 C 115.613 -5.3991 -1.93091 0
M  V30 1177 N 115.109 -6.57092 -2.1955 0
M  V30 1178 N 116.902 -5.27351 -1.94569 0
M  V30 1179 H 109.053 -2.10394 0.291212 0
M  V30 1180 H 111.316 -0.945575 0.0677609 0
M  V30 1181 H 111.022 -3.50031 -0.342229 0
M  V30 1182 H 110.896 -3.16038 -2.05913 0
M  V30 1183 H 113.283 -2.17032 -1.99953 0
M  V30 1184 H 113.364 -2.54352 -0.271814 0
M  V30 1185 H 113.008 -5.01375 -0.81149 0
M  V30 1186 H 112.938 -4.61004 -2.54525 0
M  V30 1187 H 115.429 -3.48441 -1.46277 0
M  V30 1188 H 115.742 -7.34425 -2.405 0
M  V30 1189 H 114.087 -6.60272 -2.16948 0
M  V30 1190 H 117.278 -4.34801 -1.73394 0
M  V30 1191 H 117.451 -6.10805 -2.16381 0
M  V30 1192 N 110.857 0.726932 -1.39834 0
M  V30 1193 C 111.787 1.85405 -1.41941 0
M  V30 1194 C 112.768 1.67751 -0.281728 0
M  V30 1195 O 113.953 1.8795 -0.488717 0
M  V30 1196 C 111.083 3.23243 -1.2701 0
M  V30 1197 C 110.037 3.55549 -2.38262 0
M  V30 1198 C 109.363 4.9241 -2.08415 0
M  V30 1199 C 110.663 3.577 -3.80589 0
M  V30 1200 H 112.357 1.83899 -2.36266 0
M  V30 1201 H 109.903 0.883349 -1.13723 0
M  V30 1202 H 111.856 4.01775 -1.27103 0
M  V30 1203 H 110.58 3.25296 -0.291564 0
M  V30 1204 H 109.239 2.79351 -2.37399 0
M  V30 1205 H 108.887 4.91052 -1.0898 0
M  V30 1206 H 108.587 5.14992 -2.82943 0
M  V30 1207 H 110.111 5.73289 -2.10171 0
M  V30 1208 H 111.525 4.26293 -3.83337 0
M  V30 1209 H 109.922 3.91804 -4.54543 0
M  V30 1210 H 110.992 2.57328 -4.10987 0
M  V30 1211 N 112.336 1.25143 0.95797 0
M  V30 1212 C 113.584 1.09476 1.69881 0
M  V30 1213 C 113.905 -0.365502 1.91544 0
M  V30 1214 O 113.175 -1.25985 1.50015 0
M  V30 1215 H 111.755 0.402128 0.629525 0
M  V30 1216 H 114.417 1.57214 1.15194 0
M  V30 1217 H 113.513 1.60046 2.6794 0
M  V30 1218 N 113.814 -1.1601 1.06675 0
M  V30 1219 C 114.762 -2.22586 0.675157 0
M  V30 1220 C 115.756 -1.66525 -0.310766 0
M  V30 1221 O 116.962 -1.79145 -0.175215 0
M  V30 1222 H 113.337 -0.724855 0.200223 0
M  V30 1223 H 115.308 -2.52899 1.58381 0
M  V30 1224 C 114.057 -3.47604 0.0817162 0
M  V30 1225 H 113.38 -3.91058 0.831484 0
M  V30 1226 H 114.82 -4.23718 -0.154708 0
M  V30 1227 C 113.279 -3.15718 -1.17576 0
M  V30 1228 O 113.809 -3.31878 -2.26318 0
M  V30 1229 N 112.015 -2.69816 -1.07923 0
M  V30 1230 H 111.562 -2.56866 -0.194293 0
M  V30 1231 H 111.52 -2.48855 -1.92141 0
M  V30 1232 N 115.292 -0.849877 -1.32721 0
M  V30 1233 C 116.222 -0.306308 -2.31482 0
M  V30 1234 C 117.203 0.591952 -1.59468 0
M  V30 1235 O 118.388 0.513199 -1.87296 0
M  V30 1236 C 115.518 0.510204 -3.43532 0
M  V30 1237 C 114.472 -0.293209 -4.26994 0
M  V30 1238 C 113.798 0.647743 -5.30762 0
M  V30 1239 C 115.098 -1.51634 -4.99804 0
M  V30 1240 H 116.792 -1.13153 -2.77195 0
M  V30 1241 H 114.338 -0.545553 -1.33266 0
M  V30 1242 H 116.291 0.900856 -4.11658 0
M  V30 1243 H 115.015 1.36874 -2.96535 0
M  V30 1244 H 113.674 -0.665555 -3.60508 0
M  V30 1245 H 113.322 1.50299 -4.8002 0
M  V30 1246 H 113.022 0.11422 -5.87489 0
M  V30 1247 H 114.546 1.03567 -6.01753 0
M  V30 1248 H 115.96 -1.19824 -5.60638 0
M  V30 1249 H 114.357 -1.98745 -5.66234 0
M  V30 1250 H 115.427 -2.28018 -4.27943 0
M  V30 1251 N 116.77 1.45427 -0.607355 0
M  V30 1252 C 117.718 2.32269 0.12411 0
M  V30 1253 C 118.712 1.45955 0.859854 0
M  V30 1254 O 119.918 1.6244 0.775447 0
M  V30 1255 H 116.293 0.749691 0.0588839 0
M  V30 1256 H 118.264 2.91743 -0.626762 0
M  V30 1257 C 117.013 3.29567 1.1082 0
M  V30 1258 H 116.336 3.95978 0.551492 0
M  V30 1259 H 117.776 3.93061 1.58995 0
M  V30 1260 C 116.235 2.56722 2.18164 0
M  V30 1261 O 116.765 2.34842 3.25902 0
M  V30 1262 N 114.971 2.16861 1.93442 0
M  V30 1263 H 114.518 2.34855 1.05834 0
M  V30 1264 H 114.476 1.68444 2.65469 0
M  V30 1265 N 118.248 0.346503 1.53744 0
M  V30 1266 C 119.195 -0.508914 2.25119 0
M  V30 1267 C 120.165 -1.09315 1.25058 0
M  V30 1268 O 121.35 -1.12921 1.53797 0
M  V30 1269 C 118.49 -1.65246 3.02965 0
M  V30 1270 C 117.603 -1.09525 4.17886 0
M  V30 1271 C 116.738 -2.20634 4.83212 0
M  V30 1272 C 115.777 -1.62279 5.90196 0
M  V30 1273 N 114.914 -2.67143 6.49291 0
M  V30 1274 H 119.754 0.106283 2.9781 0
M  V30 1275 H 117.291 0.0642227 1.4696 0
M  V30 1276 H 119.249 -2.32574 3.4636 0
M  V30 1277 H 117.879 -2.2386 2.32565 0
M  V30 1278 H 116.931 -0.312818 3.79112 0
M  V30 1279 H 118.243 -0.628444 4.94825 0
M  V30 1280 H 117.397 -2.95821 5.29693 0
M  V30 1281 H 116.136 -2.70659 4.05703 0
M  V30 1282 H 115.141 -0.855989 5.43096 0
M  V30 1283 H 116.366 -1.13102 6.69615 0
M  V30 1284 H 114.312 -3.16417 5.74645 0
M  V30 1285 H 114.229 -2.25093 7.21713 0
M  V30 1286 H 115.497 -3.4209 7.00425 0
M  V30 1287 N 119.726 -1.57421 0.075193 0
M  V30 1288 C 120.951 -1.98364 -0.605515 0
M  V30 1289 C 121.376 -0.953383 -1.62149 0
M  V30 1290 O 120.734 0.0806053 -1.81121 0
M  V30 1291 C 120.782 -3.38332 -1.24756 0
M  V30 1292 O 119.886 -3.37959 -2.36342 0
M  V30 1293 H 119.227 -0.645553 -0.155428 0
M  V30 1294 H 121.757 -2.04044 0.150714 0
M  V30 1295 H 121.767 -3.75591 -1.5936 0
M  V30 1296 H 120.442 -4.12846 -0.503129 0
M  V30 1297 H 119.019 -3.12474 -2.03506 0
M  V30 1298 N 121.204 0.198386 -1.56346 0
M  V30 1299 C 122.615 0.763358 -1.70381 0
M  V30 1300 C 122.966 1.83995 -0.681203 0
M  V30 1301 O 122.091 2.15785 0.16305 0
M  V30 1302 C 122.686 1.39143 -3.08909 0
M  V30 1303 C 121.245 1.90352 -3.2472 0
M  V30 1304 C 120.392 0.772233 -2.6633 0
M  V30 1305 H 123.343 -0.0266377 -1.58678 0
M  V30 1306 H 123.364 2.26076 -3.06055 0
M  V30 1307 H 122.876 0.607638 -3.83314 0
M  V30 1308 H 120.977 2.71461 -2.55225 0
M  V30 1309 H 121.09 2.06757 -4.3219 0
M  V30 1310 H 119.454 1.18566 -2.2542 0
M  V30 1311 H 120.237 0.00073556 -3.433 0
M  V30 1312 N 122.682 1.50554 0.465978 0
M  V30 1313 C 123.645 1.69233 1.54574 0
M  V30 1314 C 124.645 0.562901 1.50626 0
M  V30 1315 O 125.835 0.830016 1.53155 0
M  V30 1316 C 122.967 1.7223 2.94193 0
M  V30 1317 H 124.16 2.65571 1.39327 0
M  V30 1318 H 121.713 1.40111 0.692711 0
M  V30 1319 H 122.448 0.77603 3.14878 0
M  V30 1320 H 122.233 2.54285 2.98466 0
M  V30 1321 H 123.723 1.88618 3.72576 0
M  V30 1322 N 124.16 -0.719506 1.40217 0
M  V30 1323 C 125.123 -1.8153 1.39927 0
M  V30 1324 C 126.123 -1.58095 0.293723 0
M  V30 1325 O 127.313 -1.65209 0.552429 0
M  V30 1326 C 124.445 -3.19561 1.18716 0
M  V30 1327 H 125.638 -1.83186 2.37451 0
M  V30 1328 H 123.191 -0.924746 1.26008 0
M  V30 1329 H 123.926 -3.23557 0.219366 0
M  V30 1330 H 123.711 -3.3797 1.98793 0
M  V30 1331 H 125.201 -3.99598 1.21291 0
M  V30 1332 N 125.638 -1.25649 -0.95132 0
M  V30 1333 C 127.049 -1.09654 -1.51106 0
M  V30 1334 C 127.4 0.326615 -1.93462 0
M  V30 1335 O 126.525 1.21697 -1.78938 0
M  V30 1336 C 127.12 -1.98437 -2.74605 0
M  V30 1337 C 125.679 -1.86618 -3.2688 0
M  V30 1338 C 124.826 -1.9239 -1.99703 0
M  V30 1339 H 127.777 -1.38887 -0.767865 0
M  V30 1340 H 127.798 -1.5263 -3.48546 0
M  V30 1341 H 127.31 -3.02009 -2.43746 0
M  V30 1342 H 125.411 -0.859421 -3.62553 0
M  V30 1343 H 125.524 -2.71607 -3.94673 0
M  V30 1344 H 123.888 -1.36317 -2.15151 0
M  V30 1345 H 124.671 -2.97573 -1.71188 0
M  V30 1346 N 127.117 1.15442 -1.07289 0
M  V30 1347 C 128.047 2.22312 -0.714107 0
M  V30 1348 C 129.028 1.67467 0.298155 0
M  V30 1349 O 130.213 1.93445 0.171048 0
M  V30 1350 C 127.343 3.47124 -0.110448 0
M  V30 1351 C 126.297 4.14926 -1.04979 0
M  V30 1352 C 125.623 5.33807 -0.308924 0
M  V30 1353 C 126.923 4.64762 -2.38314 0
M  V30 1354 H 128.617 2.5258 -1.6076 0
M  V30 1355 H 126.163 1.21404 -0.77441 0
M  V30 1356 H 128.116 4.21124 0.152482 0
M  V30 1357 H 126.84 3.16187 0.81812 0
M  V30 1358 H 125.499 3.42866 -1.29764 0
M  V30 1359 H 125.147 4.99126 0.623084 0
M  V30 1360 H 124.847 5.80113 -0.935036 0
M  V30 1361 H 126.371 6.10576 -0.0537771 0
M  V30 1362 H 127.785 5.30292 -2.1786 0
M  V30 1363 H 126.182 5.21728 -2.96514 0
M  V30 1364 H 127.252 3.80434 -3.00663 0
M  V30 1365 N 128.595 0.856903 1.32268 0
M  V30 1366 C 129.82 0.474569 2.01897 0
M  V30 1367 C 130.245 -0.921766 1.63967 0
M  V30 1368 O 129.603 -1.60589 0.84148 0
M  V30 1369 C 129.651 0.623799 3.55164 0
M  V30 1370 O 128.755 -0.342459 4.10976 0
M  V30 1371 H 128.096 0.190422 0.63611 0
M  V30 1372 H 130.626 1.15672 1.68764 0
M  V30 1373 H 130.636 0.512169 4.04773 0
M  V30 1374 H 129.311 1.64202 3.82113 0
M  V30 1375 H 127.888 -0.18688 3.72431 0
M  V30 1376 N 130.073 -1.45103 0.615059 0
M  V30 1377 C 131.484 -1.85654 0.197383 0
M  V30 1378 C 131.835 -1.51433 -1.24749 0
M  V30 1379 O 130.96 -0.944608 -1.94695 0
M  V30 1380 C 131.555 -3.36972 0.351448 0
M  V30 1381 C 130.114 -3.76398 -0.011593 0
M  V30 1382 C 129.261 -2.69024 0.672394 0
M  V30 1383 H 132.212 -1.35797 0.821263 0
M  V30 1384 H 132.233 -3.78239 -0.414227 0
M  V30 1385 H 131.745 -3.61847 1.40314 0
M  V30 1386 H 129.846 -3.5714 -1.06217 0
M  V30 1387 H 129.959 -4.77532 0.387265 0
M  V30 1388 H 128.323 -2.54465 0.109284 0
M  V30 1389 H 129.106 -2.96735 1.72636 0
M  V30 1390 N 131.551 -0.354651 -1.53558 0
M  V30 1391 C 132.514 0.484566 -2.24019 0
M  V30 1392 C 133.514 1.01861 -1.24422 0
M  V30 1393 O 134.704 0.906097 -1.4878 0
M  V30 1394 C 131.836 1.67615 -2.96847 0
M  V30 1395 H 133.029 -0.131843 -2.9961 0
M  V30 1396 H 130.582 -0.106165 -1.55939 0
M  V30 1397 H 131.317 2.33095 -2.25471 0
M  V30 1398 H 131.102 1.30029 -3.69912 0
M  V30 1399 H 132.592 2.27114 -3.50441 0
M  V30 1400 N 133.029 1.57378 -0.0835403 0
M  V30 1401 C 134.254 1.98682 0.594987 0
M  V30 1402 C 134.679 0.961969 1.61641 0
M  V30 1403 O 134.037 -0.0709989 1.81161 0
M  V30 1404 C 134.085 3.38988 1.2296 0
M  V30 1405 O 133.189 3.39208 2.34546 0
M  V30 1406 H 132.53 0.646368 0.152002 0
M  V30 1407 H 135.06 2.03961 -0.161533 0
M  V30 1408 H 135.07 3.76431 1.57366 0
M  V30 1409 H 133.745 4.13107 0.481228 0
M  V30 1410 H 132.322 3.13548 2.01846 0
M  V30 1411 N 134.507 -0.190092 1.56449 0
M  V30 1412 C 135.732 -0.929864 1.85387 0
M  V30 1413 C 136.157 -1.7585 0.667704 0
M  V30 1414 O 135.515 -1.77198 -0.383459 0
M  V30 1415 C 135.563 -1.79773 3.12593 0
M  V30 1416 O 134.667 -2.89713 2.93496 0
M  V30 1417 H 134.008 -0.261574 0.610307 0
M  V30 1418 H 136.538 -0.193896 2.03679 0
M  V30 1419 H 136.548 -2.20139 3.43515 0
M  V30 1420 H 135.223 -1.18892 3.98544 0
M  V30 1421 H 133.8 -2.53065 2.73884 0
M  V30 1422 N 135.985 -1.50799 -0.457987 0
M  V30 1423 C 136.915 -1.73553 -1.5621 0
M  V30 1424 C 137.896 -0.584774 -1.59732 0
M  V30 1425 O 139.081 -0.825314 -1.7579 0
M  V30 1426 C 136.211 -1.84169 -2.94447 0
M  V30 1427 C 135.165 -2.99461 -3.0579 0
M  V30 1428 C 134.491 -2.95235 -4.45803 0
M  V30 1429 C 135.791 -4.39766 -2.81786 0
M  V30 1430 H 137.485 -2.66 -1.37421 0
M  V30 1431 H 135.031 -1.28002 -0.659662 0
M  V30 1432 H 136.984 -1.98672 -3.71628 0
M  V30 1433 H 135.708 -0.883545 -3.14422 0
M  V30 1434 H 134.367 -2.8463 -2.31044 0
M  V30 1435 H 134.015 -1.97239 -4.62715 0
M  V30 1436 H 133.715 -3.72642 -4.54326 0
M  V30 1437 H 135.239 -3.11803 -5.24987 0
M  V30 1438 H 136.653 -4.55054 -3.4871 0
M  V30 1439 H 135.05 -5.18722 -3.0174 0
M  V30 1440 H 136.12 -4.51229 -1.7754 0
M  V30 1441 N 137.463 0.71206 -1.40597 0
M  V30 1442 C 138.393 1.83889 -1.43899 0
M  V30 1443 C 139.374 1.67442 -0.299504 0
M  V30 1444 O 140.559 1.87421 -0.508624 0
M  V30 1445 C 137.689 3.21877 -1.30431 0
M  V30 1446 C 136.643 3.53002 -2.42019 0
M  V30 1447 C 135.969 4.90172 -2.13626 0
M  V30 1448 C 137.269 3.53643 -3.84362 0
M  V30 1449 H 138.963 1.81383 -2.38203 0
M  V30 1450 H 136.509 0.871237 -1.14654 0
M  V30 1451 H 138.462 4.00404 -1.31357 0
M  V30 1452 H 137.186 3.24968 -0.326049 0
M  V30 1453 H 135.845 2.76818 -2.40349 0
M  V30 1454 H 135.493 4.89869 -1.14182 0
M  V30 1455 H 135.193 5.11962 -2.88389 0
M  V30 1456 H 136.717 5.71028 -2.1624 0
M  V30 1457 H 138.131 4.22203 -3.87837 0
M  V30 1458 H 136.528 3.86961 -4.58673 0
M  V30 1459 H 137.598 2.52954 -4.13693 0
M  V30 1460 N 138.941 1.26152 0.944643 0
M  V30 1461 C 139.904 1.07474 2.0244 0
M  V30 1462 C 140.904 0.0242064 1.60782 0
M  V30 1463 O 142.094 0.267302 1.72137 0
M  V30 1464 C 139.226 0.633956 3.34953 0
M  V30 1465 H 140.419 2.03336 2.20442 0
M  V30 1466 H 137.972 1.087 1.12312 0
M  V30 1467 H 138.707 -0.326811 3.22649 0
M  V30 1468 H 138.492 1.39247 3.66542 0
M  V30 1469 H 139.982 0.52501 4.14287 0
M  V30 1470 N 140.419 -1.14872 1.07899 0
M  V30 1471 C 141.667 -1.85422 0.803941 0
M  V30 1472 C 141.988 -1.83051 -0.67211 0
M  V30 1473 O 141.258 -1.27532 -1.48703 0
M  V30 1474 H 139.838 -0.686537 0.294408 0
M  V30 1475 H 142.5 -1.39226 1.3639 0
M  V30 1476 H 141.596 -2.90399 1.14346 0
M  V30 1477 N 141.898 -0.863906 -1.31812 0
M  V30 1478 C 143.146 -0.470904 -1.96537 0
M  V30 1479 C 143.467 0.978771 -1.68657 0
M  V30 1480 O 142.737 1.6853 -0.998717 0
M  V30 1481 H 141.317 -0.171148 -0.72713 0
M  V30 1482 H 143.979 -1.10236 -1.60729 0
M  V30 1483 H 143.075 -0.623616 -3.05806 0
M  V30 1484 N 143.376 1.44774 -0.622745 0
M  V30 1485 C 144.601 2.06999 -0.128968 0
M  V30 1486 C 145.026 1.4617 1.1839 0
M  V30 1487 O 144.384 0.560007 1.72434 0
M  V30 1488 C 144.432 3.60595 -0.0188351 0
M  V30 1489 O 143.536 3.99398 1.02739 0
M  V30 1490 H 142.877 0.659047 -0.0809544 0
M  V30 1491 H 145.407 1.85784 -0.85705 0
M  V30 1492 H 145.417 4.07627 0.174476 0
M  V30 1493 H 144.092 4.04252 -0.977384 0
M  V30 1494 H 142.669 3.64011 0.809326 0
M  V30 1495 N 144.854 0.36279 1.53368 0
M  V30 1496 C 146.102 -0.227326 2.00817 0
M  V30 1497 C 146.423 -1.49511 1.25186 0
M  V30 1498 O 145.693 -1.92482 0.364348 0
M  V30 1499 H 144.273 -0.0869923 0.741917 0
M  V30 1500 H 146.935 0.488381 1.88682 0
M  V30 1501 H 146.031 -0.456273 3.08747 0
M  V30 1502 N 146.332 -1.57332 0.0918853 0
M  V30 1503 C 147.557 -1.98995 -0.584442 0
M  V30 1504 C 147.982 -0.970528 -1.61128 0
M  V30 1505 O 147.34 0.0613904 -1.81196 0
M  V30 1506 C 147.388 -3.39636 -1.21161 0
M  V30 1507 O 146.492 -3.40447 -2.32744 0
M  V30 1508 H 145.833 -0.647165 -0.148572 0
M  V30 1509 H 148.363 -2.03873 0.172347 0
M  V30 1510 H 148.373 -3.7726 -1.55367 0
M  V30 1511 H 147.048 -4.13356 -0.459313 0
M  V30 1512 H 145.625 -3.14614 -2.0018 0
M  V30 1513 N 147.81 0.181792 -1.56548 0
M  V30 1514 C 149.226 0.53316 -1.50431 0
M  V30 1515 C 149.426 1.85184 -0.794297 0
M  V30 1516 O 148.482 2.50058 -0.350318 0
M  V30 1517 C 149.795 0.575597 -2.9514 0
M  V30 1518 C 151.343 0.663519 -3.05886 0
M  V30 1519 C 151.818 0.736946 -4.52032 0
M  V30 1520 N 153.309 0.800118 -4.56237 0
M  V30 1521 C 154.044 0.877327 -5.66649 0
M  V30 1522 N 153.54 0.916016 -6.86718 0
M  V30 1523 N 155.333 0.915542 -5.54594 0
M  V30 1524 H 147.484 -0.683025 -2.01118 0
M  V30 1525 H 149.747 -0.244988 -0.915797 0
M  V30 1526 H 149.453 -0.324482 -3.502 0
M  V30 1527 H 149.327 1.42572 -3.49218 0
M  V30 1528 H 151.714 1.55403 -2.50867 0
M  V30 1529 H 151.795 -0.21307 -2.54911 0
M  V30 1530 H 151.439 -0.149262 -5.07681 0
M  V30 1531 H 151.369 1.62953 -5.00753 0
M  V30 1532 H 153.86 0.778926 -3.69785 0
M  V30 1533 H 154.173 0.975813 -7.66614 0
M  V30 1534 H 152.518 0.884469 -6.89349 0
M  V30 1535 H 155.709 0.882245 -4.59711 0
M  V30 1536 H 155.882 0.972253 -6.40665 0
M  V30 1537 N 149.288 1.51039 0.449983 0
M  V30 1538 C 150.699 1.557 1.03026 0
M  V30 1539 C 151.05 0.372939 1.92623 0
M  V30 1540 O 150.175 -0.511771 2.10261 0
M  V30 1541 C 150.77 2.82171 1.87523 0
M  V30 1542 C 149.329 2.89444 2.40622 0
M  V30 1543 C 148.476 2.50228 1.19504 0
M  V30 1544 H 151.427 1.56999 0.231745 0
M  V30 1545 H 151.448 2.65219 2.72835 0
M  V30 1546 H 150.96 3.68331 1.22286 0
M  V30 1547 H 149.061 2.07685 3.0935 0
M  V30 1548 H 149.174 3.92816 2.74285 0
M  V30 1549 H 147.538 2.03139 1.53644 0
M  V30 1550 H 148.321 3.38719 0.558972 0
M  V30 1551 N 150.766 -0.704594 1.40972 0
M  V30 1552 C 151.991 -1.49858 1.43378 0
M  V30 1553 C 152.416 -1.88061 0.038184 0
M  V30 1554 O 151.774 -1.5402 -0.956425 0
M  V30 1555 C 151.822 -2.74333 2.34038 0
M  V30 1556 O 150.926 -3.7147 1.7912 0
M  V30 1557 H 150.267 -0.45139 0.486974 0
M  V30 1558 H 152.797 -0.866832 1.8533 0
M  V30 1559 H 152.807 -3.22741 2.49604 0
M  V30 1560 H 151.482 -2.45863 3.35446 0
M  V30 1561 H 150.059 -3.30363 1.72958 0
M  V30 1562 N 152.244 -1.26651 -0.937939 0
M  V30 1563 C 153.655 -1.1125 -1.49934 0
M  V30 1564 C 154.006 0.306077 -1.93798 0
M  V30 1565 O 153.131 1.19792 -1.80219 0
M  V30 1566 C 153.726 -2.01339 -2.72485 0
M  V30 1567 C 152.285 -1.90074 -3.24883 0
M  V30 1568 C 151.432 -1.94498 -1.97651 0
M  V30 1569 H 154.383 -1.39693 -0.753091 0
M  V30 1570 H 154.404 -1.56319 -3.46907 0
M  V30 1571 H 153.916 -3.04577 -2.40529 0
M  V30 1572 H 152.017 -0.897827 -3.61621 0
M  V30 1573 H 152.13 -2.75778 -3.9177 0
M  V30 1574 H 150.494 -1.38591 -2.13693 0
M  V30 1575 H 151.277 -2.99372 -1.68022 0
M  V30 1576 N 153.722 1.14298 -1.08507 0
M  V30 1577 C 154.632 2.23027 -0.727753 0
M  V30 1578 C 155.648 1.71952 0.26619 0
M  V30 1579 O 156.824 2.011 0.109882 0
M  V30 1580 C 153.889 3.46403 -0.143541 0
M  V30 1581 C 152.95 4.12413 -1.19223 0
M  V30 1582 C 152.183 5.29899 -0.635798 0
M  V30 1583 O 152.406 5.67796 0.544393 0
M  V30 1584 O 151.34 5.85717 -1.38634 0
M  V30 1585 H 155.166 2.55945 -1.63481 0
M  V30 1586 H 152.751 1.22248 -0.858817 0
M  V30 1587 H 154.633 4.21018 0.179404 0
M  V30 1588 H 153.308 3.15206 0.736659 0
M  V30 1589 H 152.215 3.39667 -1.56772 0
M  V30 1590 H 153.548 4.47718 -2.04474 0
M  V30 1591 N 155.201 0.870884 1.31352 0
M  V30 1592 C 156.133 0.28455 2.27427 0
M  V30 1593 C 157.146 -0.552927 1.53123 0
M  V30 1594 O 158.335 -0.374771 1.74521 0
M  V30 1595 C 155.435 -0.615164 3.3327 0
M  V30 1596 C 154.608 0.190079 4.36987 0
M  V30 1597 C 153.667 -0.637917 5.22319 0
M  V30 1598 O 152.693 -0.065626 5.69162 0
M  V30 1599 N 153.895 -1.94973 5.46778 0
M  V30 1600 H 156.66 1.11017 2.7838 0
M  V30 1601 H 154.221 0.732458 1.44384 0
M  V30 1602 H 156.213 -1.1748 3.87273 0
M  V30 1603 H 154.783 -1.34146 2.82354 0
M  V30 1604 H 154.003 0.931165 3.83044 0
M  V30 1605 H 155.291 0.742579 5.03352 0
M  V30 1606 H 154.689 -2.4378 5.10478 0
M  V30 1607 H 153.246 -2.45713 6.03712 0
M  V30 1608 N 156.679 -1.44442 0.630414 0
M  V30 1609 C 157.642 -2.29107 -0.0652523 0
M  V30 1610 C 158.642 -1.41002 -0.772995 0
M  V30 1611 O 159.832 -1.62881 -0.617692 0
M  V30 1612 C 156.964 -3.22564 -1.10296 0
M  V30 1613 H 158.157 -2.92103 0.679401 0
M  V30 1614 H 155.71 -1.51343 0.390517 0
M  V30 1615 H 156.445 -2.64416 -1.87762 0
M  V30 1616 H 156.23 -3.87491 -0.59941 0
M  V30 1617 H 157.72 -3.86167 -1.5895 0
M  V30 1618 N 158.157 -0.370918 -1.53173 0
M  V30 1619 C 159.385 0.217704 -2.05751 0
M  V30 1620 C 159.8 1.42018 -1.24404 0
M  V30 1621 O 159.157 1.80245 -0.286033 0
M  V30 1622 C 159.208 0.605954 -3.56385 0
M  V30 1623 O 158.929 -0.548734 -4.3465 0
M  V30 1624 C 160.43 1.2524 -4.25241 0
M  V30 1625 H 157.65 0.0371659 -0.66997 0
M  V30 1626 H 160.194 -0.530832 -1.9749 0
M  V30 1627 H 158.349 1.3044 -3.6478 0
M  V30 1628 H 158.763 -0.23376 -5.23979 0
M  V30 1629 H 160.237 1.47458 -5.3194 0
M  V30 1630 H 160.714 2.2143 -3.79296 0
M  V30 1631 H 161.32 0.595233 -4.21114 0
M  V30 1632 N 159.635 1.57281 -0.100228 0
M  V30 1633 C 160.598 2.13158 0.842398 0
M  V30 1634 C 161.598 1.06202 1.20738 0
M  V30 1635 O 162.788 1.32066 1.13597 0
M  V30 1636 C 159.92 2.65639 2.13655 0
M  V30 1637 H 161.113 2.97766 0.357114 0
M  V30 1638 H 158.666 1.5559 0.148823 0
M  V30 1639 H 159.401 1.84566 2.66657 0
M  V30 1640 H 159.186 3.43844 1.88451 0
M  V30 1641 H 160.676 3.08846 2.81077 0
M  V30 1642 N 161.113 -0.173488 1.56642 0
M  V30 1643 C 162.061 -1.23417 1.97157 0
M  V30 1644 C 163.055 -1.45946 0.860013 0
M  V30 1645 O 164.261 -1.46551 1.04512 0
M  V30 1646 H 160.636 -0.414818 0.62724 0
M  V30 1647 H 162.607 -0.865582 2.8557 0
M  V30 1648 C 161.356 -2.5665 2.34576 0
M  V30 1649 H 160.679 -2.40137 3.19647 0
M  V30 1650 H 162.119 -3.2956 2.6677 0
M  V30 1651 C 160.578 -3.15245 1.18836 0
M  V30 1652 O 161.108 -3.98883 0.474869 0
M  V30 1653 N 159.314 -2.74303 0.959497 0
M  V30 1654 H 158.861 -2.0639 1.54146 0
M  V30 1655 H 158.819 -3.13844 0.186932 0
M  V30 1656 N 162.591 -1.51276 -0.441967 0
M  V30 1657 C 163.838 -1.63715 -1.19179 0
M  V30 1658 C 164.166 -0.351175 -1.91303 0
M  V30 1659 O 163.421 0.664524 -1.84072 0
M  V30 1660 C 163.72 -2.78746 -2.23686 0
M  V30 1661 C 163.386 -4.18189 -1.68607 0
M  V30 1662 C 162.048 -4.56125 -1.53308 0
M  V30 1663 C 164.4 -5.05222 -1.28062 0
M  V30 1664 C 161.728 -5.78804 -0.959317 0
M  V30 1665 C 164.08 -6.28476 -0.721162 0
M  V30 1666 C 162.744 -6.65188 -0.55504 0
M  V30 1667 H 162.014 -0.599076 -0.436106 0
M  V30 1668 H 164.661 -1.85296 -0.48351 0
M  V30 1669 H 162.966 -2.51369 -3.00535 0
M  V30 1670 H 164.663 -2.8557 -2.81515 0
M  V30 1671 H 161.253 -3.88277 -1.8149 0
M  V30 1672 H 165.437 -4.76524 -1.38704 0
M  V30 1673 H 160.693 -6.05899 -0.81833 0
M  V30 1674 H 164.867 -6.95259 -0.398458 0
M  V30 1675 H 162.494 -7.60123 -0.108311 0
M  V30 1676 N 164.069 0.697108 -1.41344 0
M  V30 1677 C 165.316 1.45714 -1.40619 0
M  V30 1678 C 165.644 1.94494 -0.0147907 0
M  V30 1679 O 164.899 1.69794 0.973066 0
M  V30 1680 C 165.198 2.68553 -2.35826 0
M  V30 1681 C 164.864 2.38438 -3.82698 0
M  V30 1682 C 163.526 2.29936 -4.22709 0
M  V30 1683 C 165.878 2.13567 -4.75435 0
M  V30 1684 C 163.206 1.94656 -5.53467 0
M  V30 1685 C 165.558 1.79797 -6.06511 0
M  V30 1686 C 164.222 1.69789 -6.45545 0
M  V30 1687 H 163.492 0.533206 -0.51456 0
M  V30 1688 H 166.139 0.796901 -1.74131 0
M  V30 1689 H 164.444 3.39503 -1.95563 0
M  V30 1690 H 166.141 3.2669 -2.32539 0
M  V30 1691 H 162.731 2.4595 -3.51008 0
M  V30 1692 H 166.915 2.19082 -4.45328 0
M  V30 1693 H 162.171 1.8546 -5.82593 0
M  V30 1694 H 166.345 1.59572 -6.77872 0
M  V30 1695 H 163.972 1.4222 -7.46778 0
M  V30 1696 N 165.547 1.27147 0.931209 0
M  V30 1697 C 166.963 1.04475 1.20653 0
M  V30 1698 C 167.163 -0.223885 2.00252 0
M  V30 1699 O 166.219 -0.930332 2.34736 0
M  V30 1700 C 167.532 2.28209 1.95809 0
M  V30 1701 C 169.08 2.33211 2.08762 0
M  V30 1702 C 169.555 3.56665 2.87323 0
M  V30 1703 N 171.046 3.57201 2.94892 0
M  V30 1704 C 171.781 4.49395 3.56134 0
M  V30 1705 N 171.277 5.51889 4.18796 0
M  V30 1706 N 173.07 4.37026 3.53504 0
M  V30 1707 H 165.221 2.08612 0.399333 0
M  V30 1708 H 167.484 0.917312 0.239253 0
M  V30 1709 H 167.19 3.20538 1.44736 0
M  V30 1710 H 167.064 2.33247 2.96438 0
M  V30 1711 H 169.451 1.41391 2.59023 0
M  V30 1712 H 169.532 2.32178 1.07364 0
M  V30 1713 H 169.176 4.4882 2.37746 0
M  V30 1714 H 169.106 3.54948 3.88998 0
M  V30 1715 H 171.597 2.83074 2.50354 0
M  V30 1716 H 171.91 6.18409 4.63454 0
M  V30 1717 H 170.255 5.55735 4.17353 0
M  V30 1718 H 173.446 3.56166 3.03749 0
M  V30 1719 H 173.619 5.09067 4.00942 0
M  V30 1720 N 167.025 -1.13721 1.09112 0
M  V30 1721 C 168.271 -1.85198 0.826414 0
M  V30 1722 C 168.604 -1.83129 -0.646319 0
M  V30 1723 O 167.879 -1.2671 -1.47563 0
M  V30 1724 C 168.162 -3.33507 1.35812 0
M  V30 1725 C 168.015 -3.44108 2.89672 0
M  V30 1726 C 169.334 -4.28838 0.989256 0
M  V30 1727 H 166.453 -0.67243 0.301675 0
M  V30 1728 H 169.095 -1.33499 1.35197 0
M  V30 1729 H 167.245 -3.77666 0.911082 0
M  V30 1730 H 168.917 -3.08684 3.428 0
M  V30 1731 H 167.16 -2.85087 3.26967 0
M  V30 1732 H 167.831 -4.48388 3.21951 0
M  V30 1733 H 170.307 -3.92734 1.37475 0
M  V30 1734 H 169.183 -5.31051 1.38838 0
M  V30 1735 H 169.444 -4.4198 -0.102924 0
M  V30 1736 N 168.503 -0.877838 -1.30888 0
M  V30 1737 C 169.433 -0.35534 -2.3078 0
M  V30 1738 C 170.414 0.557994 -1.60687 0
M  V30 1739 O 171.599 0.473355 -1.88343 0
M  V30 1740 C 168.729 0.437221 -3.44537 0
M  V30 1741 C 167.683 -0.383715 -4.26276 0
M  V30 1742 C 167.009 0.535014 -5.32017 0
M  V30 1743 C 168.309 -1.62201 -4.96476 0
M  V30 1744 H 170.003 -1.19007 -2.74732 0
M  V30 1745 H 167.549 -0.573698 -1.32078 0
M  V30 1746 H 169.502 0.813334 -4.13477 0
M  V30 1747 H 168.226 1.30553 -2.99372 0
M  V30 1748 H 166.885 -0.741874 -3.59015 0
M  V30 1749 H 166.533 1.40083 -4.831 0
M  V30 1750 H 166.233 -0.0104211 -5.87599 0
M  V30 1751 H 167.757 0.907799 -6.03814 0
M  V30 1752 H 169.171 -1.31689 -5.5797 0
M  V30 1753 H 167.568 -2.10711 -5.61891 0
M  V30 1754 H 168.638 -2.37044 -4.23011 0
M  V30 1755 N 169.982 1.44106 -0.638065 0
M  V30 1756 C 170.912 2.33448 0.0494287 0
M  V30 1757 C 171.893 1.48606 0.827672 0
M  V30 1758 O 173.078 1.77308 0.792173 0
M  V30 1759 C 170.208 3.31771 1.02691 0
M  V30 1760 C 169.162 4.26485 0.359823 0
M  V30 1761 C 168.488 5.14729 1.44769 0
M  V30 1762 C 169.788 5.17056 -0.738296 0
M  V30 1763 H 171.482 2.91183 -0.696636 0
M  V30 1764 H 169.028 1.40014 -0.336456 0
M  V30 1765 H 170.981 3.93161 1.51666 0
M  V30 1766 H 169.705 2.7226 1.80395 0
M  V30 1767 H 168.364 3.66437 -0.10934 0
M  V30 1768 H 168.012 4.51566 2.21578 0
M  V30 1769 H 167.712 5.78913 1.00668 0
M  V30 1770 H 169.236 5.78991 1.93911 0
M  V30 1771 H 170.65 5.72342 -0.331354 0
M  V30 1772 H 169.047 5.89879 -1.10286 0
M  V30 1773 H 170.117 4.57652 -1.60258 0
M  V30 1774 N 171.46 0.379036 1.52974 0
M  V30 1775 C 172.392 -0.495963 2.2377 0
M  V30 1776 C 173.405 -1.03517 1.25651 0
M  V30 1777 O 174.594 -0.939249 1.51791 0
M  V30 1778 C 171.694 -1.69894 2.93239 0
M  V30 1779 C 170.867 -1.2889 4.17979 0
M  V30 1780 C 169.926 -2.35543 4.70538 0
M  V30 1781 O 168.952 -1.97375 5.33883 0
M  V30 1782 N 170.154 -3.67318 4.49508 0
M  V30 1783 H 172.919 0.110523 2.99496 0
M  V30 1784 H 170.48 0.204878 1.60598 0
M  V30 1785 H 172.472 -2.40747 3.25304 0
M  V30 1786 H 171.042 -2.212 2.20883 0
M  V30 1787 H 170.262 -0.409676 3.92065 0
M  V30 1788 H 171.55 -0.991443 4.99047 0
M  V30 1789 H 170.948 -4.01095 3.98923 0
M  V30 1790 H 169.505 -4.34235 4.8609 0
M  V30 1791 N 172.938 -1.57226 0.108567 0
M  V30 1792 C 173.87 -2.11809 -0.875752 0
M  V30 1793 C 174.883 -1.05839 -1.23701 0
M  V30 1794 O 176.072 -1.33245 -1.18778 0
M  V30 1795 C 173.172 -2.59411 -2.18081 0
M  V30 1796 C 172.345 -3.89364 -1.99284 0
M  V30 1797 C 171.404 -4.22672 -3.13424 0
M  V30 1798 O 170.43 -4.91668 -2.86795 0
M  V30 1799 N 171.632 -3.79154 -4.3957 0
M  V30 1800 H 174.397 -2.9689 -0.409477 0
M  V30 1801 H 171.958 -1.61721 -0.076158 0
M  V30 1802 H 173.95 -2.7873 -2.93414 0
M  V30 1803 H 172.52 -1.79268 -2.5609 0
M  V30 1804 H 171.74 -3.79059 -1.08203 0
M  V30 1805 H 173.028 -4.74358 -1.84017 0
M  V30 1806 H 172.426 -3.23486 -4.64083 0
M  V30 1807 H 170.983 -4.03602 -5.11809 0
M  V30 1808 N 174.416 0.165178 -1.56732 0
M  V30 1809 C 175.346 1.20651 -1.99914 0
M  V30 1810 C 176.327 1.45827 -0.875705 0
M  V30 1811 O 177.512 1.57057 -1.14223 0
M  V30 1812 C 174.642 2.54401 -2.36427 0
M  V30 1813 C 173.596 2.43782 -3.51787 0
M  V30 1814 C 172.922 3.82078 -3.7406 0
M  V30 1815 C 174.222 1.93732 -4.85041 0
M  V30 1816 H 175.916 0.847534 -2.87154 0
M  V30 1817 H 173.462 0.40625 -1.38151 0
M  V30 1818 H 175.415 3.27458 -2.65234 0
M  V30 1819 H 174.139 2.92098 -1.46103 0
M  V30 1820 H 172.798 1.73178 -3.23117 0
M  V30 1821 H 172.446 4.17179 -2.81017 0
M  V30 1822 H 172.146 3.7584 -4.51684 0
M  V30 1823 H 173.67 4.56712 -4.05274 0
M  V30 1824 H 175.084 2.56569 -5.12684 0
M  V30 1825 H 173.481 1.98428 -5.66345 0
M  V30 1826 H 174.551 0.891962 -4.76626 0
M  V30 1827 N 175.894 1.51508 0.433938 0
M  V30 1828 C 176.824 1.76016 1.53429 0
M  V30 1829 C 177.805 0.610112 1.58782 0
M  V30 1830 O 178.99 0.853177 1.74455 0
M  V30 1831 C 176.12 1.88831 2.9148 0
M  V30 1832 C 175.074 3.04288 3.00987 0
M  V30 1833 C 174.4 3.0229 4.4105 0
M  V30 1834 C 175.7 4.44193 2.74754 0
M  V30 1835 H 177.394 2.68152 1.33171 0
M  V30 1836 H 174.94 1.29035 0.639214 0
M  V30 1837 H 176.893 2.04559 3.6842 0
M  V30 1838 H 175.617 0.933455 3.12976 0
M  V30 1839 H 174.276 2.8827 2.26486 0
M  V30 1840 H 173.924 2.04576 4.59519 0
M  V30 1841 H 173.624 3.79822 4.4834 0
M  V30 1842 H 175.148 3.20116 5.1996 0
M  V30 1843 H 176.562 4.60544 3.41426 0
M  V30 1844 H 174.959 5.23457 2.9345 0
M  V30 1845 H 176.029 4.53996 1.70339 0
M  V30 1846 N 177.372 -0.689602 1.41712 0
M  V30 1847 C 178.302 -1.81577 1.46806 0
M  V30 1848 C 179.283 -1.66945 0.326105 0
M  V30 1849 O 180.468 -1.86588 0.538377 0
M  V30 1850 C 177.598 -3.19762 1.35535 0
M  V30 1851 C 176.552 -3.49107 2.47605 0
M  V30 1852 C 175.878 -4.86711 2.21397 0
M  V30 1853 C 177.178 -3.47483 3.89939 0
M  V30 1854 H 178.872 -1.7757 2.41058 0
M  V30 1855 H 176.418 -0.852887 1.16025 0
M  V30 1856 H 178.371 -3.98263 1.3771 0
M  V30 1857 H 177.095 -3.24409 0.377708 0
M  V30 1858 H 175.754 -2.72959 2.44722 0
M  V30 1859 H 175.402 -4.8799 1.21961 0
M  V30 1860 H 175.102 -5.0731 2.96497 0
M  V30 1861 H 176.626 -5.67515 2.25297 0
M  V30 1862 H 178.04 -4.1598 3.94505 0
M  V30 1863 H 176.437 -3.79615 4.64771 0
M  V30 1864 H 177.507 -2.46341 4.17665 0
M  V30 1865 N 178.85 -1.27639 -0.924453 0
M  V30 1866 C 180.261 -1.12834 -1.48746 0
M  V30 1867 C 180.612 0.285505 -1.94112 0
M  V30 1868 O 179.737 1.17874 -1.81479 0
M  V30 1869 C 180.332 -2.04217 -2.70334 0
M  V30 1870 C 178.891 -1.93509 -3.22848 0
M  V30 1871 C 178.038 -1.96583 -1.95577 0
M  V30 1872 H 180.989 -1.40484 -0.738233 0
M  V30 1873 H 181.01 -1.59989 -3.4523 0
M  V30 1874 H 180.522 -3.07111 -2.37285 0
M  V30 1875 H 178.623 -0.936131 -3.60649 0
M  V30 1876 H 178.736 -2.79917 -3.88823 0
M  V30 1877 H 177.1 -1.4085 -2.12211 0
M  V30 1878 H 177.883 -3.01137 -1.64837 0
M  V30 1879 N 180.328 1.1314 -1.09713 0
M  V30 1880 C 181.744 1.36477 -0.827423 0
M  V30 1881 C 181.944 1.93654 0.556817 0
M  V30 1882 O 181 2.15791 1.31112 0
M  V30 1883 C 182.313 2.31334 -1.92106 0
M  V30 1884 C 183.861 2.44943 -1.94864 0
M  V30 1885 C 184.336 3.4311 -3.0338 0
M  V30 1886 N 185.827 3.50662 -3.02639 0
M  V30 1887 C 186.562 4.2651 -3.83246 0
M  V30 1888 N 186.058 5.05485 -4.73768 0
M  V30 1889 N 187.851 4.2184 -3.71493 0
M  V30 1890 H 180.002 0.743807 -1.9895 0
M  V30 1891 H 182.265 0.389823 -0.864143 0
M  V30 1892 H 181.971 1.96483 -2.91698 0
M  V30 1893 H 181.845 3.31381 -1.80184 0
M  V30 1894 H 184.232 2.79079 -0.959099 0
M  V30 1895 H 184.313 1.4481 -2.10864 0
M  V30 1896 H 183.957 3.09704 -4.02549 0
M  V30 1897 H 183.887 4.43055 -2.84622 0
M  V30 1898 H 186.378 2.94315 -2.37039 0
M  V30 1899 H 186.691 5.60675 -5.3185 0
M  V30 1900 H 185.036 5.04708 -4.77802 0
M  V30 1901 H 188.227 3.5922 -3.00131 0
M  V30 1902 H 188.4 4.80697 -4.3455 0
M  V30 1903 N 181.806 0.884767 1.30421 0
M  V30 1904 C 183.222 0.57874 1.48737 0
M  V30 1905 C 183.422 -0.883567 1.81095 0
M  V30 1906 O 182.478 -1.6648 1.89844 0
M  V30 1907 C 183.791 1.49171 2.61091 0
M  V30 1908 C 185.339 1.49532 2.74971 0
M  V30 1909 C 185.814 2.39421 3.90438 0
M  V30 1910 N 187.305 2.37383 3.97748 0
M  V30 1911 C 188.04 3.03647 4.86401 0
M  V30 1912 N 187.536 3.79136 5.79852 0
M  V30 1913 N 189.329 2.9288 4.79768 0
M  V30 1914 H 181.48 1.83075 1.0769 0
M  V30 1915 H 183.743 0.783637 0.533495 0
M  V30 1916 H 183.449 2.53291 2.44001 0
M  V30 1917 H 183.323 1.20113 3.57565 0
M  V30 1918 H 185.71 0.46163 2.91467 0
M  V30 1919 H 185.791 1.8262 1.79119 0
M  V30 1920 H 185.435 3.42874 3.74699 0
M  V30 1921 H 185.365 2.03649 4.85628 0
M  V30 1922 H 187.856 1.82525 3.30897 0
M  V30 1923 H 188.169 4.26789 6.4426 0
M  V30 1924 H 186.514 3.83243 5.79784 0
M  V30 1925 H 189.705 2.33433 4.05742 0
M  V30 1926 H 189.878 3.448 5.4865 0
M  V30 1927 N 183.284 -1.43765 0.645699 0
M  V30 1928 C 184.509 -2.06767 0.161883 0
M  V30 1929 C 184.934 -1.48034 -1.16049 0
M  V30 1930 O 184.292 -0.587369 -1.71522 0
M  V30 1931 C 184.34 -3.60519 0.0762003 0
M  V30 1932 O 183.444 -4.00982 -0.963721 0
M  V30 1933 H 182.785 -0.657675 0.091429 0
M  V30 1934 H 185.315 -1.84397 0.886499 0
M  V30 1935 H 185.325 -4.07853 -0.109604 0
M  V30 1936 H 184 -4.02646 1.04157 0
M  V30 1937 H 182.577 -3.65253 -0.751312 0
M  V30 1938 N 184.763 -0.387143 -1.52771 0
M  V30 1939 C 185.693 0.440551 -2.29306 0
M  V30 1940 C 186.674 1.06535 -1.32606 0
M  V30 1941 O 187.859 1.07853 -1.61497 0
M  V30 1942 C 184.989 1.56919 -3.09829 0
M  V30 1943 C 183.943 1.07054 -4.14395 0
M  V30 1944 C 183.269 2.29109 -4.83129 0
M  V30 1945 C 184.569 0.140015 -5.22112 0
M  V30 1946 H 186.263 -0.198026 -2.98744 0
M  V30 1947 H 183.809 -0.09668 -1.43675 0
M  V30 1948 H 185.762 2.15503 -3.62128 0
M  V30 1949 H 184.486 2.23532 -2.3812 0
M  V30 1950 H 183.145 0.507247 -3.63074 0
M  V30 1951 H 182.793 2.94227 -4.0797 0
M  V30 1952 H 182.493 1.96406 -5.53804 0
M  V30 1953 H 184.017 2.88339 -5.38231 0
M  V30 1954 H 185.431 0.633978 -5.69784 0
M  V30 1955 H 183.828 -0.0971485 -6.00021 0
M  V30 1956 H 184.898 -0.811711 -4.78058 0
M  V30 1957 N 186.241 1.57166 -0.116904 0
M  V30 1958 C 187.518 1.86645 0.585049 0
M  V30 1959 C 187.898 1.0177 1.84949 0
M  V30 1960 O 187.246 0.0960379 2.28298 0
M  V30 1961 C 187.456 3.37736 0.879507 0
M  V30 1962 C 188.804 4.06289 1.23348 0
M  V30 1963 O 189.828 3.42743 0.969836 0
M  V30 1964 O 188.687 5.18455 1.7282 0
M  V30 1965 H 185.781 0.772593 0.295007 0
M  V30 1966 H 188.327 1.69025 -0.151249 0
M  V30 1967 H 187.099 3.91296 -0.0166136 0
M  V30 1968 H 186.722 3.6078 1.67103 0
M  V30 1969 N 187.719 -0.156864 1.56817 0
M  V30 1970 C 188.944 -0.890331 1.87318 0
M  V30 1971 C 189.369 -1.74394 0.704855 0
M  V30 1972 O 188.727 -1.77972 -0.345786 0
M  V30 1973 C 188.775 -1.73102 3.16336 0
M  V30 1974 O 187.879 -2.83422 2.99576 0
M  V30 1975 H 187.22 -0.24857 0.615718 0
M  V30 1976 H 189.75 -0.150649 2.04045 0
M  V30 1977 H 189.76 -2.12803 3.48107 0
M  V30 1978 H 188.435 -1.10412 4.00976 0
M  V30 1979 H 187.012 -2.47199 2.7919 0
M  V30 1980 N 189.197 -1.51736 -0.425897 0
M  V30 1981 C 190.608 -1.5732 -1.00536 0
M  V30 1982 C 190.959 -0.403537 -1.92005 0
M  V30 1983 O 190.084 0.478256 -2.11049 0
M  V30 1984 C 190.679 -2.85119 -1.8301 0
M  V30 1985 C 189.238 -2.93236 -2.35987 0
M  V30 1986 C 188.385 -2.52098 -1.15508 0
M  V30 1987 H 191.336 -1.57348 -0.206739 0
M  V30 1988 H 191.357 -2.69526 -2.68581 0
M  V30 1989 H 190.869 -3.7023 -1.16411 0
M  V30 1990 H 188.97 -2.12581 -3.06007 0
M  V30 1991 H 189.083 -3.9713 -2.68001 0
M  V30 1992 H 187.447 -2.05558 -1.50393 0
M  V30 1993 H 188.23 -3.39565 -0.505014 0
M  V30 1994 N 190.675 0.682077 -1.42076 0
M  V30 1995 C 191.638 1.77756 -1.44691 0
M  V30 1996 C 192.638 1.5726 -0.335535 0
M  V30 1997 O 193.828 1.63686 -0.596037 0
M  V30 1998 C 190.96 3.16301 -1.27146 0
M  V30 1999 H 192.153 1.76826 -2.42224 0
M  V30 2000 H 189.706 0.891012 -1.28416 0
M  V30 2001 H 190.441 3.22862 -0.305075 0
M  V30 2002 H 190.226 3.32581 -2.07683 0
M  V30 2003 H 191.716 3.96241 -1.31843 0
M  V30 2004 N 192.153 1.28127 0.917671 0
M  V30 2005 C 193.116 1.11744 2.00115 0
M  V30 2006 C 194.116 0.0583052 1.60694 0
M  V30 2007 O 195.306 0.303755 1.71531 0
M  V30 2008 C 192.438 0.704862 3.33533 0
M  V30 2009 H 193.631 2.07966 2.16079 0
M  V30 2010 H 191.184 1.11058 1.09981 0
M  V30 2011 H 191.919 -0.258299 3.2327 0
M  V30 2012 H 191.704 1.4699 3.63505 0
M  V30 2013 H 193.194 0.612768 4.1308 0
M  V30 2014 N 193.631 -1.12557 1.10312 0
M  V30 2015 C 194.561 -2.20341 0.772798 0
M  V30 2016 C 195.542 -1.68198 -0.25365 0
M  V30 2017 O 196.727 -1.93831 -0.119699 0
M  V30 2018 C 193.857 -3.46709 0.202443 0
M  V30 2019 C 192.811 -4.11996 1.15943 0
M  V30 2020 C 192.137 -5.328 0.450345 0
M  V30 2021 C 193.437 -4.5828 2.50552 0
M  V30 2022 H 195.131 -2.48229 1.674 0
M  V30 2023 H 192.677 -1.19308 0.806326 0
M  V30 2024 H 194.63 -4.2138 -0.0407752 0
M  V30 2025 H 193.354 -3.18245 -0.734001 0
M  V30 2026 H 192.013 -3.39305 1.38808 0
M  V30 2027 H 191.661 -5.00602 -0.490531 0
M  V30 2028 H 191.361 -5.7743 1.08851 0
M  V30 2029 H 192.885 -6.10219 0.215642 0
M  V30 2030 H 194.299 -5.2433 2.31843 0
M  V30 2031 H 192.696 -5.13683 3.10242 0
M  V30 2032 H 193.766 -3.72329 3.10643 0
M  V30 2033 N 195.109 -0.891671 -1.2995 0
M  V30 2034 C 196.072 -0.36828 -2.26222 0
M  V30 2035 C 197.072 0.493014 -1.53056 0
M  V30 2036 O 198.262 0.299213 -1.71611 0
M  V30 2037 C 195.394 0.47442 -3.37583 0
M  V30 2038 H 196.587 -1.21844 -2.74033 0
M  V30 2039 H 194.14 -0.669107 -1.41254 0
M  V30 2040 H 194.875 1.34489 -2.95099 0
M  V30 2041 H 194.66 -0.142615 -3.91841 0
M  V30 2042 H 196.15 0.83218 -4.09224 0
M  V30 2043 N 196.587 1.43421 -0.653314 0
M  V30 2044 C 197.497 2.34568 0.0388565 0
M  V30 2045 C 198.513 1.53888 0.81207 0
M  V30 2046 O 199.689 1.86539 0.759294 0
M  V30 2047 C 196.754 3.32167 0.993269 0
M  V30 2048 C 195.815 4.28751 0.216977 0
M  V30 2049 C 195.048 5.21688 1.12593 0
M  V30 2050 O 195.271 5.19052 2.36519 0
M  V30 2051 O 194.205 5.98919 0.598284 0
M  V30 2052 H 198.031 2.95251 -0.711386 0
M  V30 2053 H 195.616 1.43564 -0.413502 0
M  V30 2054 H 197.498 3.92183 1.54176 0
M  V30 2055 H 196.173 2.73987 1.72374 0
M  V30 2056 H 195.08 3.72215 -0.375101 0
M  V30 2057 H 196.413 4.89913 -0.473924 0
M  V30 2058 N 198.065 0.39524 1.52563 0
M  V30 2059 C 199.481 0.0454682 1.59535 0
M  V30 2060 C 199.681 -1.44056 1.4089 0
M  V30 2061 O 198.737 -2.20579 1.22888 0
M  V30 2062 C 200.05 0.527963 2.96029 0
M  V30 2063 C 201.598 0.484733 3.09224 0
M  V30 2064 C 202.073 0.943512 4.48176 0
M  V30 2065 N 203.564 0.899765 4.54377 0
M  V30 2066 C 204.299 1.22609 5.60138 0
M  V30 2067 N 203.795 1.62319 6.73516 0
M  V30 2068 N 205.588 1.14696 5.50274 0
M  V30 2069 H 197.739 1.36261 1.62931 0
M  V30 2070 H 200.002 0.558887 0.765735 0
M  V30 2071 H 199.708 1.56607 3.14908 0
M  V30 2072 H 199.582 -0.0698056 3.77135 0
M  V30 2073 H 201.969 -0.544298 2.90037 0
M  V30 2074 H 202.05 1.11838 2.30056 0
M  V30 2075 H 201.694 1.9708 4.68104 0
M  V30 2076 H 201.624 0.286817 5.25818 0
M  V30 2077 H 204.115 0.607632 3.72983 0
M  V30 2078 H 204.428 1.85567 7.5019 0
M  V30 2079 H 202.773 1.66211 6.74833 0
M  V30 2080 H 205.964 0.835701 4.6058 0
M  V30 2081 H 206.137 1.40459 6.32594 0
M  V30 2082 N 199.544 -1.57102 0.125237 0
M  V30 2083 C 200.792 -1.95021 -0.530198 0
M  V30 2084 C 201.113 -1.00982 -1.66816 0
M  V30 2085 O 200.383 -0.0672693 -1.95784 0
M  V30 2086 H 198.963 -0.720046 -0.198853 0
M  V30 2087 H 201.625 -1.93916 0.19564 0
M  V30 2088 H 200.721 -2.98211 -0.920681 0
M  V30 2089 N 201.022 0.148545 -1.56898 0
M  V30 2090 C 201.985 1.16736 -1.97244 0
M  V30 2091 C 202.985 1.35947 -0.858777 0
M  V30 2092 O 204.175 1.32966 -1.12542 0
M  V30 2093 C 201.307 2.52798 -2.28705 0
M  V30 2094 H 202.5 0.821279 -2.88435 0
M  V30 2095 H 200.053 0.391831 -1.51309 0
M  V30 2096 H 200.788 2.92381 -1.403 0
M  V30 2097 H 200.573 2.40216 -3.09901 0
M  V30 2098 H 202.063 3.26179 -2.60762 0
M  V30 2099 N 202.5 1.5196 0.417844 0
M  V30 2100 C 203.916 1.40569 0.755816 0
M  V30 2101 C 204.116 0.503316 1.95113 0
M  V30 2102 O 203.172 -0.0341925 2.52477 0
M  V30 2103 C 204.485 2.82947 1.01791 0
M  V30 2104 C 206.033 2.92231 1.12116 0
M  V30 2105 C 206.508 4.35559 1.41608 0
M  V30 2106 N 207.999 4.38753 1.48491 0
M  V30 2107 C 208.734 5.46705 1.7292 0
M  V30 2108 N 208.23 6.64788 1.95011 0
M  V30 2109 N 210.023 5.34209 1.74863 0
M  V30 2110 H 202.174 2.09168 -0.369098 0
M  V30 2111 H 204.437 0.942409 -0.102809 0
M  V30 2112 H 204.143 3.5106 0.212081 0
M  V30 2113 H 204.017 3.23462 1.94042 0
M  V30 2114 H 206.404 2.24304 1.9176 0
M  V30 2115 H 206.485 2.55185 0.177225 0
M  V30 2116 H 206.129 5.04042 0.624848 0
M  V30 2117 H 206.059 4.70133 2.37239 0
M  V30 2118 H 208.55 3.5363 1.33244 0
M  V30 2119 H 208.863 7.42845 2.13076 0
M  V30 2120 H 207.208 6.67869 1.92293 0
M  V30 2121 H 210.399 4.40937 1.57137 0
M  V30 2122 H 210.572 6.18415 1.93563 0
M  V30 2123 N 203.978 -0.674533 1.42435 0
M  V30 2124 C 204.926 -1.80934 1.46169 0
M  V30 2125 C 205.92 -1.66006 0.3374 0
M  V30 2126 O 207.126 -1.72611 0.510425 0
M  V30 2127 H 203.501 -0.596594 0.457798 0
M  V30 2128 H 205.472 -1.74903 2.41767 0
M  V30 2129 C 204.221 -3.19088 1.38123 0
M  V30 2130 H 203.544 -3.31203 2.23931 0
M  V30 2131 H 204.984 -3.9851 1.44797 0
M  V30 2132 C 203.443 -3.36763 0.0960517 0
M  V30 2133 O 203.973 -3.92581 -0.851073 0
M  V30 2134 N 202.179 -2.90597 0.0131186 0
M  V30 2135 H 201.726 -2.45359 0.784639 0
M  V30 2136 H 201.684 -3.028 -0.846133 0
M  V30 2137 N 205.456 -1.28612 -0.910864 0
M  V30 2138 C 206.419 -1.12803 -1.9952 0
M  V30 2139 C 207.419 -0.0668264 -1.60661 0
M  V30 2140 O 208.609 -0.312847 -1.71368 0
M  V30 2141 C 205.741 -0.72254 -3.33155 0
M  V30 2142 H 206.934 -2.09109 -2.14973 0
M  V30 2143 H 204.487 -1.11639 -1.09391 0
M  V30 2144 H 205.222 0.241152 -3.23402 0
M  V30 2145 H 205.007 -1.48916 -3.62721 0
M  V30 2146 H 206.497 -0.634666 -4.12749 0
M  V30 2147 N 206.934 1.1197 -1.10907 0
M  V30 2148 C 207.864 2.19928 -0.784473 0
M  V30 2149 C 208.845 1.6833 0.244726 0
M  V30 2150 O 210.03 1.93892 0.109418 0
M  V30 2151 C 207.16 3.46597 -0.220827 0
M  V30 2152 C 206.114 4.11376 -1.18127 0
M  V30 2153 C 205.44 5.32554 -0.478594 0
M  V30 2154 C 206.74 4.56945 -2.52979 0
M  V30 2155 H 208.434 2.47337 -1.68715 0
M  V30 2156 H 205.98 1.18879 -0.812642 0
M  V30 2157 H 207.933 4.21396 0.0184278 0
M  V30 2158 H 206.657 3.1863 0.717113 0
M  V30 2159 H 205.316 3.38564 -1.40606 0
M  V30 2160 H 204.964 5.00856 0.463976 0
M  V30 2161 H 204.664 5.76844 -1.11912 0
M  V30 2162 H 206.188 6.10096 -0.248 0
M  V30 2163 H 207.602 5.23093 -2.3462 0
M  V30 2164 H 205.999 5.1203 -3.12962 0
M  V30 2165 H 207.069 3.70676 -3.12614 0
M  V30 2166 N 208.412 0.89855 1.29475 0
M  V30 2167 C 209.66 0.522847 1.9522 0
M  V30 2168 C 209.981 -0.93371 1.71192 0
M  V30 2169 O 209.251 -1.65823 1.04305 0
M  V30 2170 H 207.831 0.190366 0.722336 0
M  V30 2171 H 210.493 1.14459 1.5775 0
M  V30 2172 H 209.589 0.704476 3.04045 0
M  V30 2173 N 209.89 -1.43072 0.660911 0
M  V30 2174 C 211.138 -2.01323 0.177094 0
M  V30 2175 C 211.459 -1.5245 -1.2159 0
M  V30 2176 O 210.729 -0.740322 -1.81373 0
M  V30 2177 H 209.309 -0.744382 0.0624804 0
M  V30 2178 H 211.971 -1.75179 0.854305 0
M  V30 2179 H 211.067 -3.11649 0.167641 0
M  V30 2180 N 211.368 -0.403325 -1.52352 0
M  V30 2181 C 212.318 0.442244 -2.2367 0
M  V30 2182 C 213.302 1.01823 -1.24583 0
M  V30 2183 O 214.494 0.942005 -1.49851 0
M  V30 2184 C 211.623 1.5615 -3.05732 0
M  V30 2185 C 210.709 0.996575 -4.12225 0
M  V30 2186 N 211.1 0.157804 -5.05554 0
M  V30 2187 C 209.398 1.26767 -4.27605 0
M  V30 2188 C 210.099 -0.155853 -5.81491 0
M  V30 2189 N 209.075 0.451775 -5.41719 0
M  V30 2190 H 212.877 -0.204964 -2.93184 0
M  V30 2191 H 210.391 -0.213418 -1.60992 0
M  V30 2192 H 212.388 2.17981 -3.55373 0
M  V30 2193 H 211.048 2.21139 -2.37755 0
M  V30 2194 H 212.059 -0.206049 -5.1749 0
M  V30 2195 H 208.736 1.91757 -3.70858 0
M  V30 2196 H 210.126 -0.836329 -6.66675 0
M  V30 2197 N 212.846 1.57033 -0.133567 0
M  V30 2198 C 213.778 2.13176 0.841944 0
M  V30 2199 C 214.791 1.07794 1.22001 0
M  V30 2200 O 215.98 1.35117 1.16643 0
M  V30 2201 C 213.08 2.62847 2.13926 0
M  V30 2202 C 212.253 3.92486 1.93064 0
M  V30 2203 C 211.312 4.27605 3.0666 0
M  V30 2204 O 210.338 4.96168 2.78937 0
M  V30 2205 N 211.54 3.861 4.33483 0
M  V30 2206 H 214.305 2.97503 0.362192 0
M  V30 2207 H 211.866 1.61821 0.05042 0
M  V30 2208 H 213.858 2.83363 2.88942 0
M  V30 2209 H 212.428 1.83319 2.53205 0
M  V30 2210 H 211.648 3.80732 1.02159 0
M  V30 2211 H 212.936 4.77225 1.76447 0
M  V30 2212 H 212.334 3.30828 4.58878 0
M  V30 2213 H 210.891 4.11694 5.05323 0
M  V30 2214 N 214.325 -0.140222 1.56975 0
M  V30 2215 C 215.235 -1.19223 2.02047 0
M  V30 2216 C 216.251 -1.46612 0.937062 0
M  V30 2217 O 217.427 -1.58148 1.24704 0
M  V30 2218 C 214.492 -2.50414 2.39778 0
M  V30 2219 C 213.553 -2.30612 3.621 0
M  V30 2220 C 212.786 -3.55547 3.98023 0
M  V30 2221 O 213.009 -4.62004 3.34528 0
M  V30 2222 O 211.943 -3.47808 4.91237 0
M  V30 2223 H 215.769 -0.839559 2.91865 0
M  V30 2224 H 213.354 -0.349453 1.45256 0
M  V30 2225 H 215.236 -3.27747 2.64877 0
M  V30 2226 H 213.911 -2.85198 1.53114 0
M  V30 2227 H 212.818 -1.51207 3.4218 0
M  V30 2228 H 214.151 -2.00741 4.49404 0
M  V30 2229 N 215.803 -1.52179 -0.40978 0
M  V30 2230 C 216.766 -1.74853 -1.48186 0
M  V30 2231 C 217.766 -0.618417 -1.48433 0
M  V30 2232 O 218.956 -0.886286 -1.49969 0
M  V30 2233 C 216.088 -1.8303 -2.87598 0
M  V30 2234 H 217.281 -2.70559 -1.29374 0
M  V30 2235 H 214.834 -1.42586 -0.640233 0
M  V30 2236 H 215.569 -0.89236 -3.11781 0
M  V30 2237 H 215.354 -2.65187 -2.88822 0
M  V30 2238 H 216.844 -2.02316 -3.65319 0
M  V30 2239 N 217.281 0.66697 -1.42791 0
M  V30 2240 C 218.692 1.2478 -1.38877 0
M  V30 2241 C 219.043 1.96012 -0.0859426 0
M  V30 2242 O 218.168 2.00463 0.815081 0
M  V30 2243 C 218.763 2.26938 -2.51564 0
M  V30 2244 C 217.322 2.80529 -2.50959 0
M  V30 2245 C 216.469 1.54965 -2.29959 0
M  V30 2246 H 219.42 0.459853 -1.51892 0
M  V30 2247 H 219.441 3.08834 -2.22265 0
M  V30 2248 H 218.953 1.75065 -3.46372 0
M  V30 2249 H 217.054 3.36502 -1.59991 0
M  V30 2250 H 217.167 3.29012 -3.48265 0
M  V30 2251 H 215.531 1.81817 -1.78366 0
M  V30 2252 H 216.314 1.05047 -3.26833 0
M  V30 2253 N 218.759 1.29093 0.90403 0
M  V30 2254 C 219.669 1.15727 2.0407 0
M  V30 2255 C 220.685 0.0815308 1.73809 0
M  V30 2256 O 221.861 0.292749 1.99261 0
M  V30 2257 C 218.926 0.830424 3.36608 0
M  V30 2258 C 217.987 1.98955 3.80415 0
M  V30 2259 C 217.22 1.6782 5.06628 0
M  V30 2260 O 217.443 0.597105 5.67266 0
M  V30 2261 O 216.377 2.52486 5.46383 0
M  V30 2262 H 220.203 2.11171 2.18267 0
M  V30 2263 H 217.788 1.08504 1.027 0
M  V30 2264 H 219.67 0.662521 4.16159 0
M  V30 2265 H 218.345 -0.0942678 3.23563 0
M  V30 2266 H 217.252 2.21267 3.01648 0
M  V30 2267 H 218.585 2.89529 3.98037 0
M  V30 2268 N 220.237 -1.11381 1.11499 0
M  V30 2269 C 221.653 -1.35143 0.849031 0
M  V30 2270 C 221.853 -1.94515 -0.525938 0
M  V30 2271 O 220.909 -2.1785 -1.27662 0
M  V30 2272 C 222.222 -2.28249 1.95762 0
M  V30 2273 C 223.77 -2.41812 1.98736 0
M  V30 2274 C 224.245 -3.3824 3.088 0
M  V30 2275 N 225.736 -3.45803 3.08179 0
M  V30 2276 C 226.471 -4.20358 3.89982 0
M  V30 2277 N 225.967 -4.97884 4.8175 0
M  V30 2278 N 227.76 -4.15877 3.78157 0
M  V30 2279 H 219.911 -0.712062 2.00109 0
M  V30 2280 H 222.174 -0.376025 0.870235 0
M  V30 2281 H 221.88 -1.91817 2.94787 0
M  V30 2282 H 221.754 -3.28473 1.85433 0
M  V30 2283 H 224.141 -2.77518 1.00338 0
M  V30 2284 H 224.222 -1.41437 2.13141 0
M  V30 2285 H 223.866 -3.03261 4.07425 0
M  V30 2286 H 223.796 -4.38471 2.91635 0
M  V30 2287 H 226.287 -2.90506 2.41691 0
M  V30 2288 H 226.6 -5.52142 5.40702 0
M  V30 2289 H 224.945 -4.97043 4.85771 0
M  V30 2290 H 228.136 -3.544 3.05808 0
M  V30 2291 H 228.309 -4.73723 4.42143 0
M  V30 2292 N 221.715 -0.905404 -1.28997 0
M  V30 2293 C 222.625 -0.392246 -2.31298 0
M  V30 2294 C 223.641 0.515889 -1.66176 0
M  V30 2295 O 224.817 0.404093 -1.97304 0
M  V30 2296 C 221.882 0.36686 -3.44754 0
M  V30 2297 C 220.943 -0.573485 -4.25452 0
M  V30 2298 C 220.176 0.149488 -5.33491 0
M  V30 2299 O 220.399 1.37255 -5.5364 0
M  V30 2300 O 219.333 -0.510919 -5.99728 0
M  V30 2301 H 223.159 -1.2411 -2.77183 0
M  V30 2302 H 220.744 -0.669926 -1.33538 0
M  V30 2303 H 222.626 0.795907 -4.13816 0
M  V30 2304 H 221.301 1.19169 -3.00966 0
M  V30 2305 H 220.208 -1.05176 -3.59011 0
M  V30 2306 H 221.541 -1.36489 -4.72897 0
M  V30 2307 N 223.193 1.4272 -0.668489 0
M  V30 2308 C 224.609 1.55992 -0.33745 0
M  V30 2309 C 224.809 1.64933 1.15756 0
M  V30 2310 O 223.865 1.61278 1.94282 0
M  V30 2311 C 225.178 2.81314 -1.06222 0
M  V30 2312 C 226.726 2.95078 -1.04394 0
M  V30 2313 C 227.201 4.23252 -1.74991 0
M  V30 2314 N 228.692 4.3015 -1.71829 0
M  V30 2315 C 229.427 5.28127 -2.23315 0
M  V30 2316 N 228.923 6.32293 -2.83156 0
M  V30 2317 N 230.716 5.19882 -2.13726 0
M  V30 2318 H 222.867 1.3516 -1.63846 0
M  V30 2319 H 225.13 0.650174 -0.689912 0
M  V30 2320 H 224.836 2.80823 -2.11734 0
M  V30 2321 H 224.71 3.72012 -0.62344 0
M  V30 2322 H 227.097 2.951 0.0028244 0
M  V30 2323 H 227.178 2.05627 -1.52155 0
M  V30 2324 H 226.822 4.2399 -2.79633 0
M  V30 2325 H 226.752 5.11626 -1.24685 0
M  V30 2326 H 229.243 3.55499 -1.28175 0
M  V30 2327 H 229.556 7.03398 -3.20079 0
M  V30 2328 H 227.901 6.32873 -2.87223 0
M  V30 2329 H 231.092 4.37423 -1.66669 0
M  V30 2330 H 231.265 5.96077 -2.54158 0
M  V30 2331 N 224.671 0.411399 1.52136 0
M  V30 2332 C 226.087 0.0623865 1.59478 0
M  V30 2333 C 226.287 -1.42554 1.4241 0
M  V30 2334 O 225.343 -2.19263 1.2522 0
M  V30 2335 C 226.656 0.559331 2.95452 0
M  V30 2336 C 228.204 0.517503 3.08692 0
M  V30 2337 C 228.679 0.990994 4.4715 0
M  V30 2338 N 230.17 0.947908 4.53397 0
M  V30 2339 C 230.905 1.28544 5.58806 0
M  V30 2340 N 230.401 1.69454 6.71757 0
M  V30 2341 N 232.194 1.20526 5.49026 0
M  V30 2342 H 224.345 1.37982 1.61477 0
M  V30 2343 H 226.608 0.566977 0.759764 0
M  V30 2344 H 226.314 1.59938 3.1323 0
M  V30 2345 H 226.188 -0.0298014 3.77188 0
M  V30 2346 H 228.575 -0.513505 2.90598 0
M  V30 2347 H 228.656 1.14272 2.28857 0
M  V30 2348 H 228.3 2.02034 4.65988 0
M  V30 2349 H 228.23 0.34257 5.25485 0
M  V30 2350 H 230.721 0.647157 3.72317 0
M  V30 2351 H 231.034 1.93513 7.48179 0
M  V30 2352 H 229.379 1.73359 6.73032 0
M  V30 2353 H 232.57 0.884505 4.59667 0
M  V30 2354 H 232.743 1.47161 6.31069 0
M  V30 2355 N 226.149 -1.5696 0.141893 0
M  V30 2356 C 227.374 -2.00754 -0.520838 0
M  V30 2357 C 227.799 -1.0213 -1.57959 0
M  V30 2358 O 227.157 0.00371324 -1.813 0
M  V30 2359 C 227.205 -3.43318 -1.10294 0
M  V30 2360 O 226.309 -3.47679 -2.21795 0
M  V30 2361 H 225.65 -0.651564 -0.127908 0
M  V30 2362 H 228.18 -2.03221 0.23712 0
M  V30 2363 H 228.19 -3.82012 -1.43287 0
M  V30 2364 H 226.865 -4.14608 -0.327574 0
M  V30 2365 H 225.442 -3.20824 -1.9007 0
M  V30 2366 N 227.627 0.131896 -1.57047 0
M  V30 2367 C 228.537 1.1815 -2.02676 0
M  V30 2368 C 229.553 1.46113 -0.944824 0
M  V30 2369 O 230.729 1.57485 -1.25541 0
M  V30 2370 C 227.794 2.49139 -2.41103 0
M  V30 2371 C 226.855 2.28688 -3.63318 0
M  V30 2372 C 226.088 3.53431 -3.99903 0
M  V30 2373 O 226.311 4.60223 -3.36973 0
M  V30 2374 O 225.245 3.45198 -4.93074 0
M  V30 2375 H 229.071 0.824069 -2.92306 0
M  V30 2376 H 226.656 0.341745 -1.45439 0
M  V30 2377 H 228.538 3.26338 -2.66611 0
M  V30 2378 H 227.213 2.84382 -1.54624 0
M  V30 2379 H 226.12 1.4939 -3.42977 0
M  V30 2380 H 227.453 1.98355 -4.50462 0
M  V30 2381 N 229.106 1.52395 0.401703 0
M  V30 2382 C 230.016 1.7917 1.51444 0
M  V30 2383 C 231.032 0.677691 1.6026 0
M  V30 2384 O 232.208 0.963909 1.76835 0
M  V30 2385 C 229.273 1.94347 2.87107 0
M  V30 2386 C 228.334 3.18257 2.88116 0
M  V30 2387 C 227.567 3.32701 4.17308 0
M  V30 2388 O 227.79 2.52238 5.11598 0
M  V30 2389 O 226.724 4.25891 4.25324 0
M  V30 2390 H 230.55 2.73633 1.31752 0
M  V30 2391 H 228.135 1.3733 0.588296 0
M  V30 2392 H 230.017 2.06109 3.67555 0
M  V30 2393 H 228.692 1.03073 3.06851 0
M  V30 2394 H 227.599 3.11947 2.06494 0
M  V30 2395 H 228.932 4.09336 2.73322 0
M  V30 2396 N 230.584 -0.659388 1.43143 0
M  V30 2397 C 231.995 -1.24041 1.39537 0
M  V30 2398 C 232.346 -1.95963 0.0963364 0
M  V30 2399 O 231.471 -2.00892 -0.804438 0
M  V30 2400 C 232.066 -2.25601 2.52764 0
M  V30 2401 C 230.625 -2.79195 2.52443 0
M  V30 2402 C 229.772 -1.53743 2.30778 0
M  V30 2403 H 232.723 -0.451792 1.52133 0
M  V30 2404 H 232.744 -3.07651 2.23899 0
M  V30 2405 H 232.256 -1.73226 3.47296 0
M  V30 2406 H 230.357 -3.35649 1.61773 0
M  V30 2407 H 230.47 -3.2716 3.50004 0
M  V30 2408 H 228.834 -1.80869 1.79328 0
M  V30 2409 H 229.617 -1.03312 3.27386 0
M  V30 2410 N 232.062 -1.29571 -0.897171 0
M  V30 2411 C 233.473 -1.15964 -1.46319 0
M  V30 2412 C 233.824 0.244267 -1.94674 0
M  V30 2413 O 232.949 1.13998 -1.83939 0
M  V30 2414 C 233.544 -2.09906 -2.65942 0
M  V30 2415 C 232.103 -2.00314 -3.18671 0
M  V30 2416 C 231.25 -2.00687 -1.91363 0
M  V30 2417 H 234.201 -1.42019 -0.708268 0
M  V30 2418 H 234.222 -1.67276 -3.41759 0
M  V30 2419 H 233.734 -3.12075 -2.30718 0
M  V30 2420 H 231.835 -1.01242 -3.58582 0
M  V30 2421 H 231.948 -2.88102 -3.82798 0
M  V30 2422 H 230.312 -1.45319 -2.09175 0
M  V30 2423 H 231.095 -3.04566 -1.58413 0
M  V30 2424 N 233.54 1.10788 -1.12088 0
M  V30 2425 C 234.789 1.82036 -0.868659 0
M  V30 2426 C 235.102 1.85929 0.607426 0
M  V30 2427 O 236.308 2.53346 0.97613 0
M  V30 2428 C 234.764 3.26951 -1.50435 0
M  V30 2429 C 234.372 3.31367 -3.01496 0
M  V30 2430 C 236.116 4.03053 -1.33225 0
M  V30 2431 C 234.023 4.7072 -3.58017 0
M  V30 2432 H 232.953 0.682108 -0.321318 0
M  V30 2433 H 235.604 1.24618 -1.34694 0
M  V30 2434 H 233.986 3.84343 -0.953735 0
M  V30 2435 H 235.16 2.83819 -3.6302 0
M  V30 2436 H 233.475 2.6875 -3.18061 0
M  V30 2437 H 236.072 5.05981 -1.72878 0
M  V30 2438 H 236.415 4.15387 -0.275529 0
M  V30 2439 H 236.948 3.52066 -1.85188 0
M  V30 2440 H 233.687 4.63585 -4.63432 0
M  V30 2441 H 233.207 5.1865 -3.01268 0
M  V30 2442 H 234.886 5.39685 -3.56859 0
M  V30 2443 N 235.018 0.912232 1.28515 0
M  V30 2444 C 236.243 0.559774 1.99703 0
M  V30 2445 C 236.668 -0.851393 1.67729 0
M  V30 2446 O 236.026 -1.56875 0.908834 0
M  V30 2447 C 236.074 0.773874 3.52198 0
M  V30 2448 O 235.178 -0.167842 4.12058 0
M  V30 2449 H 234.519 0.21723 0.627461 0
M  V30 2450 H 237.049 1.22725 1.63706 0
M  V30 2451 H 237.059 0.683386 4.02236 0
M  V30 2452 H 235.734 1.80261 3.74805 0
M  V30 2453 H 234.311 -0.0287509 3.72889 0
M  V30 2454 N 236.496 -1.42363 0.676048 0
M  V30 2455 C 237.426 -2.33497 0.0124832 0
M  V30 2456 C 238.407 -1.50748 -0.787981 0
M  V30 2457 O 239.592 -1.79346 -0.744884 0
M  V30 2458 C 236.722 -3.34377 -0.938582 0
M  V30 2459 C 235.676 -4.27289 -0.246622 0
M  V30 2460 C 235.002 -5.18386 -1.31071 0
M  V30 2461 C 236.302 -5.14916 0.875125 0
M  V30 2462 H 237.996 -2.89233 0.773593 0
M  V30 2463 H 235.542 -1.39073 0.37346 0
M  V30 2464 H 237.495 -3.97044 -1.41188 0
M  V30 2465 H 236.219 -2.76947 -1.73113 0
M  V30 2466 H 234.878 -3.66018 0.206456 0
M  V30 2467 H 234.526 -4.57282 -2.09528 0
M  V30 2468 H 234.226 -5.81378 -0.852839 0
M  V30 2469 H 235.75 -5.83929 -1.78492 0
M  V30 2470 H 237.164 -5.71262 0.482983 0
M  V30 2471 H 235.561 -5.86747 1.25887 0
M  V30 2472 H 236.631 -4.53242 1.72335 0
M  V30 2473 N 237.974 -0.419461 -1.51915 0
M  V30 2474 C 239.251 0.211999 -1.94448 0
M  V30 2475 C 239.631 1.61703 -1.35703 0
M  V30 2476 O 238.979 2.22102 -0.536931 0
M  V30 2477 C 239.189 0.207872 -3.4838 0
M  V30 2478 C 240.537 0.422192 -4.22496 0
M  V30 2479 O 241.561 0.286778 -3.55044 0
M  V30 2480 O 240.42 0.690009 -5.42126 0
M  V30 2481 H 237.514 0.139586 -0.815135 0
M  V30 2482 H 240.06 -0.476151 -1.62883 0
M  V30 2483 H 238.832 -0.775102 -3.83546 0
M  V30 2484 H 238.455 0.939688 -3.86336 0
M  V30 2485 N 239.452 1.56882 -0.150215 0
M  V30 2486 C 240.382 2.19935 0.784284 0
M  V30 2487 C 241.363 1.14854 1.25469 0
M  V30 2488 O 242.548 1.43209 1.31168 0
M  V30 2489 C 239.678 2.82349 2.02229 0
M  V30 2490 C 238.632 3.93285 1.68853 0
M  V30 2491 C 237.958 4.42649 2.99944 0
M  V30 2492 C 239.258 5.13904 0.932714 0
M  V30 2493 H 240.952 2.9828 0.258781 0
M  V30 2494 H 238.498 1.43473 0.123029 0
M  V30 2495 H 240.451 3.25126 2.68088 0
M  V30 2496 H 239.175 2.0134 2.57157 0
M  V30 2497 H 237.834 3.5113 1.05371 0
M  V30 2498 H 237.482 3.58458 3.52869 0
M  V30 2499 H 237.182 5.17476 2.78374 0
M  V30 2500 H 238.706 4.88099 3.66868 0
M  V30 2501 H 240.12 5.53506 1.49345 0
M  V30 2502 H 238.517 5.94515 0.81684 0
M  V30 2503 H 239.587 4.84842 -0.0749568 0
M  V30 2504 N 240.93 -0.123565 1.57115 0
M  V30 2505 C 242.158 -0.846461 1.88793 0
M  V30 2506 C 242.573 -1.73652 0.740976 0
M  V30 2507 O 241.93 -1.80207 -0.288393 0
M  V30 2508 C 241.981 -1.6837 3.19897 0
M  V30 2509 O 241.702 -0.829477 4.30176 0
M  V30 2510 C 243.203 -2.51214 3.65248 0
M  V30 2511 H 240.423 -0.243573 0.625231 0
M  V30 2512 H 242.967 -0.109324 2.04208 0
M  V30 2513 H 241.122 -2.37364 3.06165 0
M  V30 2514 H 241.536 -1.40651 5.0529 0
M  V30 2515 H 243.01 -3.05497 4.59756 0
M  V30 2516 H 243.487 -3.28359 2.9168 0
M  V30 2517 H 244.093 -1.8747 3.81752 0
M  V30 2518 N 242.408 -1.52605 -0.393616 0
M  V30 2519 C 243.655 -1.67424 -1.1391 0
M  V30 2520 C 243.983 -0.411859 -1.90089 0
M  V30 2521 O 243.238 0.605626 -1.86093 0
M  V30 2522 C 243.537 -2.85721 -2.14705 0
M  V30 2523 C 243.203 -4.23342 -1.55218 0
M  V30 2524 C 241.865 -4.60771 -1.3872 0
M  V30 2525 C 244.217 -5.09041 -1.11924 0
M  V30 2526 C 241.545 -5.81563 -0.774689 0
M  V30 2527 C 243.897 -6.30452 -0.520853 0
M  V30 2528 C 242.561 -6.66617 -0.343134 0
M  V30 2529 H 241.831 -0.612648 -0.416826 0
M  V30 2530 H 244.478 -1.8674 -0.424315 0
M  V30 2531 H 242.783 -2.60803 -2.92385 0
M  V30 2532 H 244.48 -2.94382 -2.72288 0
M  V30 2533 H 241.07 -3.93855 -1.69045 0
M  V30 2534 H 245.254 -4.80695 -1.23473 0
M  V30 2535 H 240.51 -6.08196 -0.625154 0
M  V30 2536 H 244.684 -6.96175 -0.177065 0
M  V30 2537 H 242.311 -7.60083 0.133571 0
M  V30 2538 N 243.887 0.651787 -1.4349 0
M  V30 2539 C 244.837 1.75783 -1.45205 0
M  V30 2540 C 245.821 1.57679 -0.320328 0
M  V30 2541 O 247.013 1.67767 -0.564211 0
M  V30 2542 C 244.142 3.14377 -1.3792 0
M  V30 2543 C 243.228 3.38023 -2.56127 0
M  V30 2544 N 243.619 3.32135 -3.81471 0
M  V30 2545 C 241.917 3.68747 -2.50882 0
M  V30 2546 C 242.618 3.55902 -4.60118 0
M  V30 2547 N 241.594 3.77783 -3.90872 0
M  V30 2548 H 245.396 1.69657 -2.39987 0
M  V30 2549 H 242.91 0.853508 -1.38163 0
M  V30 2550 H 244.907 3.93666 -1.37231 0
M  V30 2551 H 243.567 3.21683 -0.441596 0
M  V30 2552 H 244.578 3.11515 -4.13738 0
M  V30 2553 H 241.255 3.8316 -1.65816 0
M  V30 2554 H 242.645 3.57116 -5.69138 0
M  V30 2555 N 245.365 1.30045 0.890287 0
M  V30 2556 C 246.295 1.18541 2.01172 0
M  V30 2557 C 247.276 0.0773356 1.69924 0
M  V30 2558 O 248.461 0.25845 1.92473 0
M  V30 2559 C 245.591 0.870941 3.36202 0
M  V30 2560 C 244.545 1.93637 3.81692 0
M  V30 2561 C 243.871 1.475 5.13953 0
M  V30 2562 C 245.171 3.34666 4.00994 0
M  V30 2563 H 246.865 2.12359 2.11054 0
M  V30 2564 H 244.411 1.02238 1.01407 0
M  V30 2565 H 246.364 0.777141 4.14172 0
M  V30 2566 H 245.088 -0.102926 3.26438 0
M  V30 2567 H 243.747 2.01972 3.05946 0
M  V30 2568 H 243.395 0.489551 5.00612 0
M  V30 2569 H 243.095 2.1876 5.4536 0
M  V30 2570 H 244.619 1.39489 5.94454 0
M  V30 2571 H 246.033 3.2912 4.69417 0
M  V30 2572 H 244.43 4.03966 4.43769 0
M  V30 2573 H 245.5 3.76949 3.05021 0
M  V30 2574 N 246.843 -1.10192 1.12674 0
M  V30 2575 C 247.773 -2.18652 0.819362 0
M  V30 2576 C 248.754 -1.68698 -0.217915 0
M  V30 2577 O 249.939 -1.94041 -0.0785581 0
M  V30 2578 C 247.069 -3.46202 0.27594 0
M  V30 2579 C 246.023 -4.09444 1.24656 0
M  V30 2580 C 245.349 -5.31725 0.563258 0
M  V30 2581 C 246.649 -4.52863 2.60217 0
M  V30 2582 H 248.343 -2.44622 1.72628 0
M  V30 2583 H 245.889 -1.17571 0.831451 0
M  V30 2584 H 247.842 -4.21372 0.0486149 0
M  V30 2585 H 246.566 -3.1973 -0.666331 0
M  V30 2586 H 245.225 -3.36284 1.45974 0
M  V30 2587 H 244.873 -5.0153 -0.384235 0
M  V30 2588 H 244.573 -5.74991 1.21075 0
M  V30 2589 H 246.097 -6.09624 0.34503 0
M  V30 2590 H 247.511 -5.19294 2.42913 0
M  V30 2591 H 245.908 -5.06986 3.21068 0
M  V30 2592 H 246.978 -3.65656 3.18471 0
M  V30 2593 N 248.321 -0.919034 -1.28029 0
M  V30 2594 C 249.737 -0.617972 -1.4715 0
M  V30 2595 C 249.937 0.835242 -1.83374 0
M  V30 2596 O 248.993 1.61388 -1.94191 0
M  V30 2597 C 250.306 -1.56041 -2.57044 0
M  V30 2598 C 251.854 -1.56769 -2.7091 0
M  V30 2599 C 252.329 -2.49688 -3.83953 0
M  V30 2600 N 253.82 -2.47845 -3.91314 0
M  V30 2601 C 254.555 -3.16437 -4.78179 0
M  V30 2602 N 254.051 -3.94376 -5.69596 0
M  V30 2603 N 255.844 -3.05498 -4.71834 0
M  V30 2604 H 247.995 -1.85866 -1.02798 0
M  V30 2605 H 250.258 -0.797506 -0.512531 0
M  V30 2606 H 249.964 -2.59671 -2.372 0
M  V30 2607 H 249.838 -1.29551 -3.54255 0
M  V30 2608 H 252.225 -0.538745 -2.90141 0
M  V30 2609 H 252.306 -1.87305 -1.74214 0
M  V30 2610 H 251.95 -3.52688 -3.65477 0
M  V30 2611 H 251.88 -2.16453 -4.80058 0
M  V30 2612 H 254.371 -1.91234 -3.25941 0
M  V30 2613 H 254.684 -4.43721 -6.32718 0
M  V30 2614 H 253.029 -3.98481 -5.69419 0
M  V30 2615 H 256.22 -2.44108 -3.99411 0
M  V30 2616 H 256.393 -3.59225 -5.39316 0
M  V30 2617 N 249.799 1.42003 -0.683588 0
M  V30 2618 C 250.709 2.34597 -0.0109075 0
M  V30 2619 C 251.725 1.55576 0.779245 0
M  V30 2620 O 252.901 1.88107 0.719555 0
M  V30 2621 C 249.966 3.34199 0.922588 0
M  V30 2622 C 249.027 4.29115 0.125984 0
M  V30 2623 C 248.26 5.23959 1.01502 0
M  V30 2624 O 248.483 5.23952 2.25456 0
M  V30 2625 O 247.417 6.00053 0.47111 0
M  V30 2626 H 251.243 2.93675 -0.773853 0
M  V30 2627 H 248.828 1.42654 -0.443861 0
M  V30 2628 H 250.71 3.95365 1.45823 0
M  V30 2629 H 249.385 2.77582 1.66523 0
M  V30 2630 H 248.292 3.71335 -0.453969 0
M  V30 2631 H 249.625 4.88798 -0.577736 0
M  V30 2632 N 251.277 0.427512 1.51691 0
M  V30 2633 C 252.523 -0.142439 2.02299 0
M  V30 2634 C 252.856 -1.43214 1.31162 0
M  V30 2635 O 252.131 -1.89833 0.423511 0
M  V30 2636 C 252.414 -0.371301 3.58181 0
M  V30 2637 C 252.267 0.936358 4.39946 0
M  V30 2638 C 253.586 -1.14542 4.24933 0
M  V30 2639 H 250.705 -0.0502937 0.735282 0
M  V30 2640 H 253.347 0.564584 1.81418 0
M  V30 2641 H 251.497 -0.973559 3.76104 0
M  V30 2642 H 253.169 1.57184 4.33694 0
M  V30 2643 H 251.412 1.5432 4.05423 0
M  V30 2644 H 252.083 0.730388 5.47147 0
M  V30 2645 H 254.559 -0.635362 4.11221 0
M  V30 2646 H 253.435 -1.27431 5.33903 0
M  V30 2647 H 253.696 -2.17093 3.85127 0
M  V30 2648 N 252.755 -1.56801 0.158532 0
M  V30 2649 C 253.685 -2.20347 -0.772609 0
M  V30 2650 C 254.666 -1.15518 -1.24859 0
M  V30 2651 O 255.851 -1.43902 -1.30406 0
M  V30 2652 C 252.981 -2.83417 -2.00729 0
M  V30 2653 C 251.935 -3.94174 -1.66765 0
M  V30 2654 C 251.261 -4.44233 -2.97592 0
M  V30 2655 C 252.561 -5.14392 -0.905447 0
M  V30 2656 H 254.255 -2.98413 -0.242959 0
M  V30 2657 H 251.801 -1.43537 -0.115419 0
M  V30 2658 H 253.754 -3.26543 -2.6636 0
M  V30 2659 H 252.478 -2.02701 -2.56086 0
M  V30 2660 H 251.137 -3.51684 -1.03508 0
M  V30 2661 H 250.785 -3.60325 -3.50963 0
M  V30 2662 H 250.485 -5.18945 -2.75626 0
M  V30 2663 H 252.009 -4.90037 -3.64274 0
M  V30 2664 H 253.423 -5.5429 -1.46408 0
M  V30 2665 H 251.82 -5.9494 -0.7853 0
M  V30 2666 H 252.89 -4.84795 0.100668 0
M  V30 2667 N 254.233 0.115231 -1.57178 0
M  V30 2668 C 255.143 1.15994 -2.03918 0
M  V30 2669 C 256.159 1.45103 -0.960268 0
M  V30 2670 O 257.335 1.56144 -1.27204 0
M  V30 2671 C 254.4 2.46568 -2.43732 0
M  V30 2672 C 253.461 2.24822 -3.65723 0
M  V30 2673 C 252.694 3.4917 -4.03629 0
M  V30 2674 O 252.917 4.56623 -3.41835 0
M  V30 2675 O 251.851 3.39949 -4.96708 0
M  V30 2676 H 255.677 0.793019 -2.93164 0
M  V30 2677 H 253.262 0.3263 -1.45793 0
M  V30 2678 H 255.144 3.23492 -2.70057 0
M  V30 2679 H 253.819 2.82726 -1.57631 0
M  V30 2680 H 252.726 1.45744 -3.44542 0
M  V30 2681 H 254.059 1.93566 -4.52541 0
M  V30 2682 N 255.711 1.52812 0.385517 0
M  V30 2683 C 256.644 1.72592 1.49289 0
M  V30 2684 C 257.622 0.573819 1.52138 0
M  V30 2685 O 258.806 0.80404 1.70492 0
M  V30 2686 C 255.933 1.78669 2.87741 0
M  V30 2687 C 254.979 3.00455 3.02703 0
M  V30 2688 S 255.812 4.60366 2.73538 0
M  V30 2689 C 256.968 4.69263 4.14177 0
M  V30 2690 H 257.201 2.66248 1.32285 0
M  V30 2691 H 254.734 1.43148 0.578611 0
M  V30 2692 H 256.692 1.82855 3.67524 0
M  V30 2693 H 255.353 0.861 3.02069 0
M  V30 2694 H 254.546 3.01258 4.04054 0
M  V30 2695 H 254.148 2.94278 2.30817 0
M  V30 2696 H 256.44 4.48092 5.08153 0
M  V30 2697 H 257.383 5.71276 4.18388 0
M  V30 2698 H 257.791 3.98072 4.00249 0
M  V30 2699 N 257.189 -0.644168 1.43834 0
M  V30 2700 C 258.152 -1.73857 1.49353 0
M  V30 2701 C 259.152 -1.56315 0.377112 0
M  V30 2702 O 260.342 -1.62048 0.639226 0
M  V30 2703 C 257.474 -3.12819 1.35488 0
M  V30 2704 H 258.667 -1.70342 2.46827 0
M  V30 2705 H 256.22 -0.856652 1.30733 0
M  V30 2706 H 256.955 -3.2194 0.390569 0
M  V30 2707 H 256.74 -3.26958 2.16428 0
M  V30 2708 H 258.23 -3.92606 1.42302 0
M  V30 2709 N 258.668 -1.30515 -0.883378 0
M  V30 2710 C 260.084 -1.08881 -1.16692 0
M  V30 2711 C 260.284 0.149409 -2.00945 0
M  V30 2712 O 259.34 0.84257 -2.38027 0
M  V30 2713 C 260.653 -2.35319 -1.87204 0
M  V30 2714 C 262.201 -2.40799 -1.99962 0
M  V30 2715 C 262.676 -3.67083 -2.73887 0
M  V30 2716 N 264.167 -3.679 -2.81432 0
M  V30 2717 C 264.902 -4.62303 -3.3921 0
M  V30 2718 N 264.398 -5.67052 -3.98025 0
M  V30 2719 N 266.191 -4.49845 -3.3704 0
M  V30 2720 H 258.342 -2.09951 -0.321633 0
M  V30 2721 H 260.605 -0.92556 -0.205043 0
M  V30 2722 H 260.311 -3.25689 -1.3274 0
M  V30 2723 H 260.185 -2.44089 -2.87577 0
M  V30 2724 H 262.572 -1.50907 -2.53597 0
M  V30 2725 H 262.653 -2.36003 -0.98673 0
M  V30 2726 H 262.297 -4.57334 -2.20925 0
M  V30 2727 H 262.227 -3.69141 -3.75556 0
M  V30 2728 H 264.718 -2.92171 -2.39676 0
M  V30 2729 H 265.031 -6.35184 -4.40183 0
M  V30 2730 H 263.376 -5.70842 -3.96439 0
M  V30 2731 H 266.567 -3.67194 -2.90321 0
M  V30 2732 H 266.74 -5.23597 -3.81772 0
M  V30 2733 N 260.146 1.09593 -1.13257 0
M  V30 2734 C 261.109 2.14359 -0.811358 0
M  V30 2735 C 262.109 1.59808 0.178377 0
M  V30 2736 O 263.299 1.74132 -0.0484911 0
M  V30 2737 C 260.431 3.40269 -0.207276 0
M  V30 2738 H 261.624 2.44284 -1.73969 0
M  V30 2739 H 259.177 1.25102 -0.936973 0
M  V30 2740 H 259.912 3.15969 0.73036 0
M  V30 2741 H 259.697 3.81154 -0.919992 0
M  V30 2742 H 261.187 4.176 0.000667944 0
M  V30 2743 N 261.624 0.925811 1.2754 0
M  V30 2744 C 262.534 0.428993 2.30644 0
M  V30 2745 C 263.55 -0.489387 1.66976 0
M  V30 2746 O 264.726 -0.372653 1.97922 0
M  V30 2747 C 261.791 -0.311967 3.45294 0
M  V30 2748 C 260.852 0.641098 4.24486 0
M  V30 2749 C 260.085 -0.0645955 5.33661 0
M  V30 2750 O 260.308 -1.28429 5.55754 0
M  V30 2751 O 259.242 0.606265 5.98839 0
M  V30 2752 H 263.068 1.28504 2.75173 0
M  V30 2753 H 260.653 0.691086 1.32455 0
M  V30 2754 H 262.535 -0.729972 4.15029 0
M  V30 2755 H 261.21 -1.14365 3.02824 0
M  V30 2756 H 260.117 1.10874 3.57292 0
M  V30 2757 H 261.45 1.43995 4.70666 0
M  V30 2758 N 263.102 -1.41638 0.69111 0
M  V30 2759 C 264.034 -2.29194 -0.0161523 0
M  V30 2760 C 265.047 -1.44549 -0.748955 0
M  V30 2761 O 266.236 -1.681 -0.6004 0
M  V30 2762 C 263.336 -3.22325 -1.0469 0
M  V30 2763 C 262.509 -4.35706 -0.384621 0
M  V30 2764 C 261.568 -5.09443 -1.31737 0
M  V30 2765 O 260.594 -5.63386 -0.811451 0
M  V30 2766 N 261.796 -5.16487 -2.64993 0
M  V30 2767 H 264.561 -2.90534 0.735523 0
M  V30 2768 H 262.122 -1.52742 0.53679 0
M  V30 2769 H 264.114 -3.68522 -1.67252 0
M  V30 2770 H 262.684 -2.62323 -1.70015 0
M  V30 2771 H 261.904 -3.91948 0.420804 0
M  V30 2772 H 263.192 -5.08743 0.0760765 0
M  V30 2773 H 262.59 -4.741 -3.08619 0
M  V30 2774 H 261.147 -5.66276 -3.22761 0
M  V30 2775 N 264.58 -0.43555 -1.51462 0
M  V30 2776 C 265.51 0.367376 -2.30592 0
M  V30 2777 C 266.491 1.02263 -1.35928 0
M  V30 2778 O 267.676 1.02661 -1.64847 0
M  V30 2779 C 264.806 1.46983 -3.14664 0
M  V30 2780 C 263.76 0.938161 -4.17591 0
M  V30 2781 C 263.086 2.13622 -4.90173 0
M  V30 2782 C 264.386 -0.0261621 -5.22293 0
M  V30 2783 H 266.08 -0.292969 -2.97963 0
M  V30 2784 H 263.626 -0.14234 -1.43295 0
M  V30 2785 H 265.579 2.03873 -3.688 0
M  V30 2786 H 264.303 2.15843 -2.4511 0
M  V30 2787 H 262.962 0.391481 -3.64504 0
M  V30 2788 H 262.61 2.81098 -4.17124 0
M  V30 2789 H 262.31 1.78688 -5.59772 0
M  V30 2790 H 263.834 2.7107 -5.47132 0
M  V30 2791 H 265.248 0.452384 -5.71512 0
M  V30 2792 H 263.645 -0.287992 -5.99409 0
M  V30 2793 H 264.715 -0.963391 -4.75233 0
M  V30 2794 N 266.058 1.56714 -0.166846 0
M  V30 2795 C 267.021 2.16539 0.751232 0
M  V30 2796 C 268.021 1.11228 1.16125 0
M  V30 2797 O 269.211 1.36765 1.07894 0
M  V30 2798 C 266.343 2.74462 2.02196 0
M  V30 2799 H 267.536 2.99013 0.230499 0
M  V30 2800 H 265.089 1.56081 0.0826982 0
M  V30 2801 H 265.824 1.95709 2.58589 0
M  V30 2802 H 265.609 3.51527 1.73698 0
M  V30 2803 H 267.099 3.20489 2.67725 0
M  V30 2804 N 267.536 -0.106894 1.57237 0
M  V30 2805 C 268.468 -1.15646 1.97885 0
M  V30 2806 C 269.481 -1.36981 0.879779 0
M  V30 2807 O 270.67 -1.35841 1.15799 0
M  V30 2808 C 267.77 -2.51425 2.27241 0
M  V30 2809 C 266.943 -2.50529 3.58545 0
M  V30 2810 C 266.002 -3.68145 3.75973 0
M  V30 2811 O 265.028 -3.51176 4.47956 0
M  V30 2812 N 266.23 -4.87177 3.15656 0
M  V30 2813 H 268.995 -0.81059 2.8853 0
M  V30 2814 H 266.556 -0.296024 1.59171 0
M  V30 2815 H 268.548 -3.28689 2.36105 0
M  V30 2816 H 267.118 -2.78147 1.42663 0
M  V30 2817 H 266.338 -1.58894 3.60758 0
M  V30 2818 H 267.626 -2.46997 4.44826 0
M  V30 2819 H 267.024 -5.03868 2.57165 0
M  V30 2820 H 265.581 -5.62075 3.30023 0
M  V30 2821 N 269.014 -1.53014 -0.377408 0
M  V30 2822 C 269.946 -1.74884 -1.48149 0
M  V30 2823 C 270.959 -0.629433 -1.5014 0
M  V30 2824 O 272.148 -0.905416 -1.53833 0
M  V30 2825 C 269.248 -1.80299 -2.86959 0
M  V30 2826 C 268.421 -3.09776 -3.08801 0
M  V30 2827 C 267.48 -3.06586 -4.27658 0
M  V30 2828 O 266.506 -3.80419 -4.23403 0
M  V30 2829 N 267.708 -2.26578 -5.34455 0
M  V30 2830 H 270.473 -2.70147 -1.29771 0
M  V30 2831 H 268.034 -1.51646 -0.56703 0
M  V30 2832 H 270.026 -1.75657 -3.64591 0
M  V30 2833 H 268.596 -0.92372 -2.98641 0
M  V30 2834 H 267.816 -3.27815 -2.18931 0
M  V30 2835 H 269.104 -3.95366 -3.20255 0
M  V30 2836 H 268.502 -1.66081 -5.40771 0
M  V30 2837 H 267.059 -2.27766 -6.10709 0
M  V30 2838 N 270.492 0.636531 -1.44174 0
M  V30 2839 C 271.455 1.73063 -1.50273 0
M  V30 2840 C 272.455 1.56113 -0.385397 0
M  V30 2841 O 273.645 1.61707 -0.64781 0
M  V30 2842 C 270.777 3.12096 -1.37145 0
M  V30 2843 H 271.97 1.69031 -2.47727 0
M  V30 2844 H 269.523 0.849706 -1.31186 0
M  V30 2845 H 270.258 3.21728 -0.407636 0
M  V30 2846 H 270.043 3.25805 -2.18159 0
M  V30 2847 H 271.533 3.91846 -1.44382 0
M  V30 2848 N 271.97 1.30982 0.876444 0
M  V30 2849 C 272.92 1.14688 1.97055 0
M  V30 2850 C 273.904 0.0596593 1.60789 0
M  V30 2851 O 275.096 0.283892 1.74708 0
M  V30 2852 C 272.225 0.849627 3.3262 0
M  V30 2853 C 271.311 1.97752 3.75173 0
M  V30 2854 N 271.702 3.22384 3.89746 0
M  V30 2855 C 270 1.8758 4.04635 0
M  V30 2856 C 270.701 3.96121 4.25985 0
M  V30 2857 N 269.677 3.24237 4.36315 0
M  V30 2858 H 273.479 2.09204 2.06424 0
M  V30 2859 H 270.993 1.22445 1.06682 0
M  V30 2860 H 272.99 0.713895 4.10742 0
M  V30 2861 H 271.65 -0.087376 3.24582 0
M  V30 2862 H 272.661 3.57575 3.74647 0
M  V30 2863 H 269.338 1.01303 4.05024 0
M  V30 2864 H 270.728 5.03491 4.44911 0
M  V30 2865 N 273.449 -1.08991 1.13837 0
M  V30 2866 C 274.674 -1.85551 0.926585 0
M  V30 2867 C 275.099 -1.80782 -0.519566 0
M  V30 2868 O 274.457 -1.18855 -1.36906 0
M  V30 2869 C 274.505 -3.31266 1.42462 0
M  V30 2870 O 273.609 -4.07822 0.612789 0
M  V30 2871 H 272.95 -0.575192 0.331738 0
M  V30 2872 H 275.48 -1.37604 1.51414 0
M  V30 2873 H 275.49 -3.82112 1.43019 0
M  V30 2874 H 274.165 -3.34052 2.47754 0
M  V30 2875 H 272.742 -3.66731 0.675463 0
M  V30 2876 N 274.927 -0.932562 -1.27047 0
M  V30 2877 C 275.875 -0.42603 -2.28665 0
M  V30 2878 C 276.869 0.49219 -1.62092 0
M  V30 2879 O 278.075 0.371355 -1.76128 0
M  V30 2880 H 274.45 -0.119213 -0.742491 0
M  V30 2881 H 276.421 -1.29579 -2.68797 0
M  V30 2882 C 275.17 0.301426 -3.46391 0
M  V30 2883 H 274.493 -0.39595 -3.97834 0
M  V30 2884 H 275.933 0.6202 -4.1944 0
M  V30 2885 C 274.392 1.51616 -3.00856 0
M  V30 2886 O 274.922 2.61476 -3.04948 0
M  V30 2887 N 273.128 1.36969 -2.56296 0
M  V30 2888 H 272.675 0.475873 -2.53166 0
M  V30 2889 H 272.633 2.18368 -2.26192 0
M  V30 2890 N 276.405 1.4127 -0.698611 0
M  V30 2891 C 277.821 1.55241 -0.370462 0
M  V30 2892 C 278.021 1.67351 1.12231 0
M  V30 2893 O 277.077 1.65363 1.90818 0
M  V30 2894 C 278.39 2.78997 -1.12165 0
M  V30 2895 C 279.938 2.92797 -1.1063 0
M  V30 2896 C 280.413 4.19445 -1.8393 0
M  V30 2897 N 281.904 4.26409 -1.80914 0
M  V30 2898 C 282.639 5.23271 -2.34467 0
M  V30 2899 N 282.135 6.26145 -2.96504 0
M  V30 2900 N 283.928 5.15232 -2.24706 0
M  V30 2901 H 276.079 1.31654 -1.66676 0
M  V30 2902 H 278.342 0.635393 -0.703548 0
M  V30 2903 H 278.048 2.76268 -2.17644 0
M  V30 2904 H 277.922 3.70606 -0.702209 0
M  V30 2905 H 280.309 2.95039 -0.0597713 0
M  V30 2906 H 280.39 2.02353 -1.56483 0
M  V30 2907 H 280.034 4.17964 -2.88563 0
M  V30 2908 H 279.964 5.08866 -1.35509 0
M  V30 2909 H 282.455 3.527 -1.35687 0
M  V30 2910 H 282.768 6.96451 -3.34927 0
M  V30 2911 H 281.113 6.26638 -3.00583 0
M  V30 2912 H 284.304 4.33789 -1.7591 0
M  V30 2913 H 284.477 5.90552 -2.66745 0
M  V30 2914 N 277.883 0.443576 1.51229 0
M  V30 2915 C 278.83 -0.364716 2.279 0
M  V30 2916 C 279.8 -1.0114 1.31757 0
M  V30 2917 O 280.985 -1.02912 1.60667 0
M  V30 2918 C 278.125 -1.45644 3.12861 0
M  V30 2919 C 277.238 -0.827269 4.24005 0
M  V30 2920 C 276.373 -1.89456 4.96266 0
M  V30 2921 C 275.412 -1.24416 5.99322 0
M  V30 2922 N 274.549 -2.25309 6.64966 0
M  V30 2923 H 279.389 0.295464 2.96532 0
M  V30 2924 H 276.926 0.157554 1.46254 0
M  V30 2925 H 278.884 -2.10076 3.6045 0
M  V30 2926 H 277.514 -2.08616 2.46331 0
M  V30 2927 H 276.566 -0.0710839 3.80334 0
M  V30 2928 H 277.878 -0.312481 4.9782 0
M  V30 2929 H 277.032 -2.61535 5.47434 0
M  V30 2930 H 275.771 -2.4431 4.22095 0
M  V30 2931 H 274.776 -0.508868 5.4744 0
M  V30 2932 H 276.001 -0.702882 6.75453 0
M  V30 2933 H 273.947 -2.79231 5.93604 0
M  V30 2934 H 273.864 -1.78739 7.34567 0
M  V30 2935 H 275.132 -2.96853 7.20763 0
M  V30 2936 N 279.361 -1.56624 0.175154 0
M  V30 2937 C 280.291 -2.21155 -0.749195 0
M  V30 2938 C 281.272 -1.16836 -1.23626 0
M  V30 2939 O 282.457 -1.45277 -1.28873 0
M  V30 2940 C 279.587 -2.8553 -1.97711 0
M  V30 2941 C 278.541 -3.95921 -1.62575 0
M  V30 2942 C 277.867 -4.47365 -2.92864 0
M  V30 2943 C 279.167 -5.15323 -0.850838 0
M  V30 2944 H 280.861 -2.98653 -0.211295 0
M  V30 2945 H 278.407 -1.43651 -0.100188 0
M  V30 2946 H 280.36 -3.2935 -2.62881 0
M  V30 2947 H 279.084 -2.05406 -2.53921 0
M  V30 2948 H 277.743 -3.52762 -0.997719 0
M  V30 2949 H 277.391 -3.64027 -3.47122 0
M  V30 2950 H 277.091 -5.21839 -2.70106 0
M  V30 2951 H 278.615 -4.93873 -3.59056 0
M  V30 2952 H 280.029 -5.55812 -1.40521 0
M  V30 2953 H 278.426 -5.95739 -0.722154 0
M  V30 2954 H 279.496 -4.84661 0.152082 0
M  V30 2955 N 280.839 0.0985539 -1.57292 0
M  V30 2956 C 281.772 1.15082 -1.97057 0
M  V30 2957 C 282.75 1.39025 -0.843255 0
M  V30 2958 O 283.934 1.52842 -1.10325 0
M  V30 2959 C 281.061 2.50069 -2.28437 0
M  V30 2960 C 280.107 2.42428 -3.509 0
M  V30 2961 S 280.94 1.84414 -5.02744 0
M  V30 2962 C 282.096 3.21032 -5.37298 0
M  V30 2963 H 282.329 0.811815 -2.86002 0
M  V30 2964 H 279.862 0.306102 -1.51335 0
M  V30 2965 H 281.82 3.27729 -2.47192 0
M  V30 2966 H 280.481 2.8114 -1.40069 0
M  V30 2967 H 279.674 3.41911 -3.70288 0
M  V30 2968 H 279.276 1.72896 -3.31637 0
M  V30 2969 H 281.568 4.17297 -5.33731 0
M  V30 2970 H 282.511 3.06452 -6.38352 0
M  V30 2971 H 282.919 3.20404 -4.64759 0
M  V30 2972 N 282.317 1.53212 0.369288 0
M  V30 2973 C 283.227 1.82342 1.47609 0
M  V30 2974 C 284.243 0.711532 1.58787 0
M  V30 2975 O 285.419 1.0012 1.74751 0
M  V30 2976 C 282.484 2.00393 2.8292 0
M  V30 2977 C 281.545 3.24297 2.81301 0
M  V30 2978 C 280.778 3.41478 4.10157 0
M  V30 2979 O 281.001 2.63033 5.06132 0
M  V30 2980 O 279.935 4.34817 4.16194 0
M  V30 2981 H 283.761 2.76366 1.25918 0
M  V30 2982 H 281.346 1.38547 0.559034 0
M  V30 2983 H 283.228 2.13859 3.63101 0
M  V30 2984 H 281.903 1.09559 3.04596 0
M  V30 2985 H 280.81 3.16257 1.99831 0
M  V30 2986 H 282.143 4.15041 2.64578 0
M  V30 2987 N 283.795 -0.628877 1.44509 0
M  V30 2988 C 285.044 -1.38437 1.4669 0
M  V30 2989 C 285.357 -1.95322 0.104272 0
M  V30 2990 O 286.563 -2.715 0.00362163 0
M  V30 2991 C 285.019 -2.50659 2.5826 0
M  V30 2992 C 284.627 -2.00277 4.0074 0
M  V30 2993 C 286.371 -3.27844 2.69664 0
M  V30 2994 C 284.278 -3.09854 5.0373 0
M  V30 2995 H 283.208 -0.520245 0.545766 0
M  V30 2996 H 285.859 -0.676313 1.70582 0
M  V30 2997 H 284.241 -3.2405 2.27612 0
M  V30 2998 H 285.415 -1.33736 4.40966 0
M  V30 2999 H 283.73 -1.35901 3.93599 0
M  V30 3000 H 286.327 -4.09534 3.43781 0
M  V30 3001 H 286.67 -3.77471 1.75559 0
M  V30 3002 H 287.203 -2.61543 2.99733 0
M  V30 3003 H 283.942 -2.65168 5.99472 0
M  V30 3004 H 283.462 -3.7503 4.68095 0
M  V30 3005 H 285.141 -3.74592 5.27532 0
M  V30 3006 N 285.273 -1.31445 -0.869486 0
M  V30 3007 C 286.522 -1.20517 -1.61736 0
M  V30 3008 C 286.835 0.235341 -1.94179 0
M  V30 3009 O 288.041 0.466312 -2.67465 0
M  V30 3010 C 286.497 -2.10982 -2.91573 0
M  V30 3011 C 286.105 -3.60032 -2.66611 0
M  V30 3012 C 287.849 -2.08856 -3.69567 0
M  V30 3013 C 285.756 -4.42503 -3.92358 0
M  V30 3014 H 284.686 -0.447493 -0.606849 0
M  V30 3015 H 287.337 -1.56303 -0.96133 0
M  V30 3016 H 285.719 -1.68095 -3.58553 0
M  V30 3017 H 286.893 -4.11167 -2.08035 0
M  V30 3018 H 285.208 -3.64139 -2.0197 0
M  V30 3019 H 287.805 -2.67716 -4.62852 0
M  V30 3020 H 288.148 -1.07582 -4.02159 0
M  V30 3021 H 288.681 -2.49945 -3.09471 0
M  V30 3022 H 285.42 -5.44533 -3.64916 0
M  V30 3023 H 284.94 -3.96125 -4.50383 0
M  V30 3024 H 286.619 -4.54741 -4.60238 0
M  V30 3025 N 286.751 1.08385 -1.14413 0
M  V30 3026 C 287.999 1.80419 -0.910679 0
M  V30 3027 C 288.32 1.86658 0.564243 0
M  V30 3028 O 287.59 1.35985 1.41014 0
M  V30 3029 H 286.17 0.668204 -0.333934 0
M  V30 3030 H 288.832 1.31037 -1.44275 0
M  V30 3031 H 287.928 2.83238 -1.31082 0
M  V30 3032 N 288.23 0.939286 1.26551 0
M  V30 3033 C 289.177 0.446088 2.26448 0
M  V30 3034 C 290.147 -0.493234 1.58608 0
M  V30 3035 O 291.332 -0.409857 1.86346 0
M  V30 3036 C 288.472 -0.284375 3.43926 0
M  V30 3037 C 287.585 0.690399 4.26448 0
M  V30 3038 C 286.72 -0.0610712 5.31165 0
M  V30 3039 C 285.759 0.905649 6.05363 0
M  V30 3040 N 284.896 0.186055 7.01853 0
M  V30 3041 H 289.736 1.30291 2.68008 0
M  V30 3042 H 287.273 0.65371 1.31776 0
M  V30 3043 H 289.231 -0.724313 4.10864 0
M  V30 3044 H 287.861 -1.10535 3.03285 0
M  V30 3045 H 286.913 1.24885 3.59316 0
M  V30 3046 H 288.225 1.42873 4.779 0
M  V30 3047 H 287.379 -0.56038 6.04106 0
M  V30 3048 H 286.118 -0.832297 4.80546 0
M  V30 3049 H 285.123 1.4161 5.3125 0
M  V30 3050 H 286.348 1.67685 6.58072 0
M  V30 3051 H 284.294 -0.566714 6.53548 0
M  V30 3052 H 284.211 0.863752 7.51049 0
M  V30 3053 H 285.479 -0.292221 7.78952 0
M  V30 3054 O 289.747 -1.37657 0.844552 0
M  V30 3055 H 290.438 -1.88761 0.43461 0
M  V30 END ATOM
M  V30 BEGIN BOND
M  V30 END BOND
M  V30 END CTAB
M  END
$$$$
