drugbank_target|P48728 Aminomethyltransferase, mitochondrial (DB00116; DB00157; DB04789)
 OpenBabel12092119223D

  0  0  0     0  0            999 V3000
M  V30 BEGIN CTAB
M  V30 COUNTS 6211 6267 0 0 0
M  V30 BEGIN ATOM
M  V30 1 H -0.908 1.98254 -0.117106 0
M  V30 2 N 0 1.576 0 0
M  V30 3 C 0.933 2.03868 1.02534 0
M  V30 4 C 1.911 0.928543 1.3348 0
M  V30 5 O 3.095 1.19667 1.45644 0
M  V30 6 C 0.222 2.43627 2.35294 0
M  V30 7 C -0.732 3.65373 2.2001 0
M  V30 8 S 0.101 5.13292 1.52614 0
M  V30 9 C 1.257 5.56322 2.86805 0
M  V30 10 H 1.49 2.90518 0.631377 0
M  V30 11 H -0.977 1.52953 0.210867 0
M  V30 12 H 0.981 2.67203 3.11629 0
M  V30 13 H -0.358 1.57376 2.7183 0
M  V30 14 H -1.165 3.90944 3.18086 0
M  V30 15 H -1.563 3.418 1.51819 0
M  V30 16 H 0.729 5.58782 3.83104 0
M  V30 17 H 1.672 6.56266 2.65933 0
M  V30 18 H 2.08 4.83886 2.90714 0
M  V30 19 N 1.4781 -0.272755 1.55222 0
M  V30 20 C 2.4101 -1.35946 1.8453 0
M  V30 21 C 3.4231 -1.45525 0.729818 0
M  V30 22 O 4.6121 -1.47337 1.00767 0
M  V30 23 C 1.7121 -2.74069 1.99347 0
M  V30 24 C 0.8851 -2.87079 3.30007 0
M  V30 25 C -0.0559 -4.05879 3.34886 0
M  V30 26 O -1.0299 -3.96626 4.08261 0
M  V30 27 N 0.1721 -5.17857 2.62307 0
M  V30 28 H 2.9371 -1.11149 2.78327 0
M  V30 29 H 0.4981 -0.462869 1.55142 0
M  V30 30 H 2.4901 -3.51838 1.99981 0
M  V30 31 H 1.0601 -2.91688 1.12415 0
M  V30 32 H 0.2801 -1.96193 3.41909 0
M  V30 33 H 1.5681 -2.92701 4.16177 0
M  V30 34 H 0.9661 -5.28261 2.02377 0
M  V30 35 H -0.4769 -5.93855 2.68663 0
M  V30 36 N 2.9562 -1.48159 -0.537278 0
M  V30 37 C 4.3722 -1.34118 -0.865129 0
M  V30 38 C 4.5722 -0.346678 -1.98495 0
M  V30 39 O 3.6282 0.234715 -2.51407 0
M  V30 40 C 4.9412 -2.73963 -1.23954 0
M  V30 41 C 6.4892 -2.82397 -1.34984 0
M  V30 42 C 6.9642 -4.22928 -1.75772 0
M  V30 43 N 8.4552 -4.25566 -1.82887 0
M  V30 44 C 9.1902 -5.31235 -2.15817 0
M  V30 45 N 8.6862 -6.47189 -2.47222 0
M  V30 46 N 10.4792 -5.18624 -2.16761 0
M  V30 47 H 2.6302 -2.1144 0.201715 0
M  V30 48 H 4.8932 -0.947598 0.0275949 0
M  V30 49 H 4.5992 -3.48264 -0.490381 0
M  V30 50 H 4.4732 -3.0702 -2.19132 0
M  V30 51 H 6.8602 -2.08356 -2.08978 0
M  V30 52 H 6.9412 -2.5297 -0.379448 0
M  V30 53 H 6.5852 -4.97482 -1.02341 0
M  V30 54 H 6.5152 -4.49794 -2.73848 0
M  V30 55 H 9.0062 -3.41924 -1.60924 0
M  V30 56 H 9.3192 -7.23564 -2.71433 0
M  V30 57 H 7.6642 -6.50476 -2.44757 0
M  V30 58 H 10.8552 -4.27056 -1.91679 0
M  V30 59 H 11.0282 -6.01078 -2.42093 0
M  V30 60 N 4.4343 0.785586 -1.36625 0
M  V30 61 C 5.3973 1.87999 -1.31107 0
M  V30 62 C 6.3973 1.59316 -0.217959 0
M  V30 63 O 7.5873 1.67656 -0.472977 0
M  V30 64 C 4.7193 3.24861 -1.03334 0
M  V30 65 H 5.9123 1.94307 -2.2844 0
M  V30 66 H 3.4653 0.983813 -1.21453 0
M  V30 67 H 4.2003 3.24235 -0.0647432 0
M  V30 68 H 3.9853 3.4707 -1.82441 0
M  V30 69 H 5.4753 4.04929 -1.02088 0
M  V30 70 N 5.9124 1.20967 1.01018 0
M  V30 71 C 7.1584 1.02526 1.74975 0
M  V30 72 C 7.4914 -0.4408 1.89131 0
M  V30 73 O 6.7664 -1.32718 1.42184 0
M  V30 74 C 7.0494 1.71699 3.1653 0
M  V30 75 C 6.9024 3.25791 3.10129 0
M  V30 76 C 8.2214 1.45531 4.15342 0
M  V30 77 H 5.3404 0.373863 0.635134 0
M  V30 78 H 7.9824 1.49071 1.17805 0
M  V30 79 H 6.1324 1.32128 3.65341 0
M  V30 80 H 7.8044 3.74697 2.69072 0
M  V30 81 H 6.0474 3.56363 2.47362 0
M  V30 82 H 6.7184 3.69353 4.10222 0
M  V30 83 H 9.1944 1.79872 3.75213 0
M  V30 84 H 8.0704 1.96453 5.1254 0
M  V30 85 H 8.3314 0.384237 4.40427 0
M  V30 86 N 7.3905 -1.2043 1.01659 0
M  V30 87 C 8.6155 -1.94318 0.724942 0
M  V30 88 C 9.0405 -1.74266 -0.708034 0
M  V30 89 O 8.3985 -1.03694 -1.48719 0
M  V30 90 C 8.4465 -3.44486 1.06591 0
M  V30 91 O 7.5505 -4.12017 0.177599 0
M  V30 92 H 6.8915 -0.60708 0.26898 0
M  V30 93 H 9.4215 -1.52861 1.35995 0
M  V30 94 H 9.4315 -3.95106 1.01762 0
M  V30 95 H 8.1065 -3.58404 2.10997 0
M  V30 96 H 6.6835 -3.71821 0.283421 0
M  V30 97 N 8.8686 -0.792821 -1.36206 0
M  V30 98 C 10.1146 -0.36733 -1.99446 0
M  V30 99 C 10.4476 1.05917 -1.62774 0
M  V30 100 O 9.7226 1.7324 -0.88421 0
M  V30 101 C 10.0056 -0.535044 -3.56103 0
M  V30 102 C 9.8586 -2.00548 -4.02617 0
M  V30 103 C 11.1776 0.0478191 -4.40074 0
M  V30 104 H 8.2966 -0.134941 -0.724541 0
M  V30 105 H 10.9386 -0.999794 -1.61568 0
M  V30 106 H 9.0886 0.00336329 -3.885 0
M  V30 107 H 10.7606 -2.60521 -3.80692 0
M  V30 108 H 9.0036 -2.50686 -3.54032 0
M  V30 109 H 9.6746 -2.07377 -5.11565 0
M  V30 110 H 12.1506 -0.411822 -4.14057 0
M  V30 111 H 11.0266 -0.0995336 -5.4881 0
M  V30 112 H 11.2876 1.14025 -4.27142 0
M  V30 113 N 10.3467 1.47872 -0.545128 0
M  V30 114 C 11.5927 2.02793 -0.0166104 0
M  V30 115 C 11.9257 1.41987 1.32489 0
M  V30 116 O 11.2007 0.571045 1.85928 0
M  V30 117 C 11.4837 3.59989 0.0893294 0
M  V30 118 C 11.3367 4.3125 -1.27841 0
M  V30 119 C 12.6557 4.32606 0.808724 0
M  V30 120 H 9.7747 0.736962 -0.00751035 0
M  V30 121 H 12.4167 1.76433 -0.705085 0
M  V30 122 H 10.5667 3.82579 0.675681 0
M  V30 123 H 12.2387 4.20035 -1.90704 0
M  V30 124 H 10.4817 3.92076 -1.85632 0
M  V30 125 H 11.1527 5.39736 -1.15713 0
M  V30 126 H 13.6287 4.14936 0.310992 0
M  V30 127 H 12.5047 5.42251 0.851782 0
M  V30 128 H 12.7657 4.00963 1.86229 0
M  V30 129 N 11.8248 0.280983 1.55075 0
M  V30 130 C 12.7878 -0.590896 2.21452 0
M  V30 131 C 13.7878 -1.07682 1.19421 0
M  V30 132 O 14.9778 -0.97605 1.44288 0
M  V30 133 C 12.1098 -1.81587 2.88511 0
M  V30 134 H 13.3028 -0.0112554 2.99898 0
M  V30 135 H 10.8558 0.0316438 1.56268 0
M  V30 136 H 11.5908 -2.43587 2.14093 0
M  V30 137 H 11.3758 -1.4753 3.63287 0
M  V30 138 H 12.8658 -2.43575 3.39206 0
M  V30 139 N 13.3029 -1.57598 0.00835791 0
M  V30 140 C 14.7189 -1.55764 -0.347822 0
M  V30 141 C 14.9189 -1.01186 -1.74252 0
M  V30 142 O 13.9749 -0.649371 -2.44007 0
M  V30 143 C 15.2879 -2.99927 -0.215407 0
M  V30 144 C 16.8359 -3.11656 -0.289725 0
M  V30 145 C 17.3109 -4.57621 -0.18634 0
M  V30 146 N 18.8019 -4.62557 -0.243978 0
M  V30 147 C 19.5369 -5.73094 -0.18745 0
M  V30 148 N 19.0329 -6.92753 -0.0810331 0
M  V30 149 N 20.8259 -5.61588 -0.239925 0
M  V30 150 H 12.9769 -1.91411 0.92062 0
M  V30 151 H 15.2399 -0.879562 0.353659 0
M  V30 152 H 14.9459 -3.43729 0.744512 0
M  V30 153 H 14.8199 -3.63865 -0.994097 0
M  V30 154 H 17.2069 -2.67779 -1.24009 0
M  V30 155 H 17.2879 -2.5048 0.51898 0
M  V30 156 H 16.9319 -5.02174 0.760519 0
M  V30 157 H 16.8619 -5.16752 -1.01364 0
M  V30 158 H 19.3529 -3.76481 -0.327217 0
M  V30 159 H 19.6659 -7.72787 -0.0440241 0
M  V30 160 H 18.0109 -6.94984 -0.0465419 0
M  V30 161 H 21.2019 -4.66996 -0.321317 0
M  V30 162 H 21.3749 -6.47714 -0.192407 0
M  V30 163 N 14.781 0.264519 -1.55364 0
M  V30 164 C 15.711 1.33121 -1.91836 0
M  V30 165 C 16.692 1.51101 -0.781192 0
M  V30 166 O 17.877 1.64003 -1.04003 0
M  V30 167 C 15.007 2.68921 -2.19769 0
M  V30 168 C 13.961 2.65661 -3.35571 0
M  V30 169 C 13.287 4.05093 -3.49004 0
M  V30 170 C 14.587 2.24187 -4.71739 0
M  V30 171 H 16.281 1.02844 -2.81182 0
M  V30 172 H 13.827 0.493286 -1.35287 0
M  V30 173 H 15.78 3.43663 -2.43872 0
M  V30 174 H 14.504 3.00799 -1.27231 0
M  V30 175 H 13.163 1.93377 -3.1145 0
M  V30 176 H 12.811 4.34206 -2.53917 0
M  V30 177 H 12.511 4.03804 -4.26868 0
M  V30 178 H 14.035 4.81561 -3.75408 0
M  V30 179 H 15.449 2.88654 -4.9533 0
M  V30 180 H 13.846 2.34044 -5.52579 0
M  V30 181 H 14.916 1.19327 -4.69988 0
M  V30 182 N 16.2591 1.48442 0.529413 0
M  V30 183 C 17.5071 1.56179 1.28267 0
M  V30 184 C 17.8281 0.237721 1.93546 0
M  V30 185 O 17.0981 -0.740779 1.81354 0
M  V30 186 H 15.6781 0.575367 0.476405 0
M  V30 187 H 18.3401 1.84909 0.61602 0
M  V30 188 H 17.4361 2.34312 2.06165 0
M  V30 189 N 17.7372 -0.778329 1.37039 0
M  V30 190 C 18.9842 -1.53665 1.31884 0
M  V30 191 C 19.3122 -1.9425 -0.0986303 0
M  V30 192 O 18.5672 -1.63832 -1.07041 0
M  V30 193 C 18.8662 -2.81845 2.19768 0
M  V30 194 C 18.5322 -2.60345 3.68146 0
M  V30 195 C 17.1942 -2.5419 4.08584 0
M  V30 196 C 19.5462 -2.40923 4.62175 0
M  V30 197 C 16.8742 -2.26594 5.41177 0
M  V30 198 C 19.2262 -2.14852 5.94997 0
M  V30 199 C 17.8902 -2.07137 6.34547 0
M  V30 200 H 17.1602 -0.562299 0.482598 0
M  V30 201 H 19.8072 -0.897069 1.69189 0
M  V30 202 H 18.1122 -3.50328 1.75436 0
M  V30 203 H 19.8092 -3.39692 2.13097 0
M  V30 204 H 16.3992 -2.65996 3.36072 0
M  V30 205 H 20.5832 -2.44673 4.31797 0
M  V30 206 H 15.8392 -2.19111 5.70789 0
M  V30 207 H 20.0132 -1.98822 6.67415 0
M  V30 208 H 17.6402 -1.85518 7.37216 0
M  V30 209 N 19.2153 -1.21501 -1.00376 0
M  V30 210 C 20.6313 -0.972629 -1.26539 0
M  V30 211 C 20.8313 0.340257 -1.98606 0
M  V30 212 O 19.8873 1.06561 -2.28913 0
M  V30 213 C 21.2003 -2.16404 -2.08781 0
M  V30 214 C 22.7483 -2.20643 -2.22004 0
M  V30 215 C 23.2233 -3.39306 -3.07629 0
M  V30 216 N 24.7143 -3.39401 -3.15217 0
M  V30 217 C 25.4493 -4.27867 -3.81729 0
M  V30 218 N 24.9453 -5.26533 -4.5026 0
M  V30 219 N 26.7383 -4.15672 -3.78382 0
M  V30 220 H 18.8893 -2.05929 -0.520281 0
M  V30 221 H 21.1523 -0.901803 -0.292328 0
M  V30 222 H 20.8583 -3.11554 -1.63178 0
M  V30 223 H 20.7323 -2.15567 -3.09533 0
M  V30 224 H 23.1193 -1.26048 -2.66825 0
M  V30 225 H 23.2003 -2.25523 -1.20718 0
M  V30 226 H 22.8443 -4.34195 -2.63509 0
M  V30 227 H 22.7743 -3.31665 -4.09031 0
M  V30 228 H 25.2653 -2.67997 -2.66432 0
M  V30 229 H 25.5783 -5.90337 -4.98721 0
M  V30 230 H 23.9233 -5.30457 -4.49044 0
M  V30 231 H 27.1143 -3.3785 -3.23998 0
M  V30 232 H 27.2873 -4.84825 -4.2994 0
M  V30 233 N 20.6934 1.19889 -1.02296 0
M  V30 234 C 21.6234 2.25141 -0.619174 0
M  V30 235 C 22.6044 1.66051 0.368915 0
M  V30 236 O 23.7894 1.92546 0.252941 0
M  V30 237 C 20.9194 3.4728 0.0368783 0
M  V30 238 C 19.8734 4.19005 -0.872865 0
M  V30 239 C 19.1994 5.34637 -0.0822402 0
M  V30 240 C 20.4994 4.74452 -2.18387 0
M  V30 241 H 22.1934 2.59171 -1.49903 0
M  V30 242 H 19.7394 1.24579 -0.722222 0
M  V30 243 H 21.6924 4.20098 0.330958 0
M  V30 244 H 20.4164 3.12433 0.95149 0
M  V30 245 H 19.0754 3.48061 -1.15105 0
M  V30 246 H 18.7234 4.96034 0.83422 0
M  V30 247 H 18.4234 5.83557 -0.688149 0
M  V30 248 H 19.9474 6.10255 0.205238 0
M  V30 249 H 21.3614 5.39055 -1.95172 0
M  V30 250 H 19.7584 5.33834 -2.74119 0
M  V30 251 H 20.8284 3.92844 -2.84257 0
M  V30 252 N 22.1715 0.800033 1.35784 0
M  V30 253 C 23.1035 0.163596 2.28615 0
M  V30 254 C 24.1165 -0.633317 1.49976 0
M  V30 255 O 25.3055 -0.466754 1.72289 0
M  V30 256 C 22.4055 -0.790958 3.29541 0
M  V30 257 C 21.5785 -0.0418255 4.3738 0
M  V30 258 C 20.6375 -0.91389 5.18203 0
M  V30 259 O 19.6635 -0.367234 5.68014 0
M  V30 260 N 20.8655 -2.23682 5.35674 0
M  V30 261 H 23.6305 0.96105 2.83873 0
M  V30 262 H 21.1915 0.654894 1.48063 0
M  V30 263 H 23.1835 -1.37844 3.80501 0
M  V30 264 H 21.7535 -1.48925 2.74846 0
M  V30 265 H 20.9735 0.726813 3.87442 0
M  V30 266 H 22.2615 0.474719 5.06581 0
M  V30 267 H 21.6595 -2.70497 4.96838 0
M  V30 268 H 20.2165 -2.77369 5.89839 0
M  V30 269 N 23.6496 -1.47581 0.552962 0
M  V30 270 C 24.6126 -2.28439 -0.186605 0
M  V30 271 C 25.6126 -1.36706 -0.84665 0
M  V30 272 O 26.8026 -1.59378 -0.703164 0
M  V30 273 C 23.9346 -3.16264 -1.2724 0
M  V30 274 H 25.1276 -2.95294 0.523609 0
M  V30 275 H 22.6806 -1.532 0.309745 0
M  V30 276 H 23.4156 -2.54091 -2.01514 0
M  V30 277 H 23.2006 -3.83769 -0.803968 0
M  V30 278 H 24.6906 -3.77198 -1.79196 0
M  V30 279 N 25.1277 -0.289203 -1.54924 0
M  V30 280 C 26.3747 0.323519 -1.99899 0
M  V30 281 C 26.7027 1.54797 -1.17762 0
M  V30 282 O 25.9577 1.94237 -0.238835 0
M  V30 283 C 26.2567 0.736119 -3.49737 0
M  V30 284 C 25.9227 -0.385276 -4.49251 0
M  V30 285 C 24.5847 -0.693156 -4.76181 0
M  V30 286 C 26.9367 -1.14021 -5.08575 0
M  V30 287 C 24.2647 -1.7593 -5.59701 0
M  V30 288 C 26.6167 -2.19619 -5.93254 0
M  V30 289 C 25.2807 -2.51026 -6.185 0
M  V30 290 H 24.5507 0.118384 -0.731482 0
M  V30 291 H 27.1977 -0.405847 -1.8715 0
M  V30 292 H 25.5027 1.54539 -3.60035 0
M  V30 293 H 27.1997 1.22118 -3.81953 0
M  V30 294 H 23.7897 -0.135202 -4.28387 0
M  V30 295 H 27.9737 -0.915611 -4.87781 0
M  V30 296 H 23.2297 -2.0075 -5.77503 0
M  V30 297 H 27.4037 -2.78581 -6.38252 0
M  V30 298 H 25.0307 -3.33772 -6.83008 0
M  V30 299 N 26.6058 1.57591 -0.0167156 0
M  V30 300 C 28.0168 1.79201 0.523834 0
M  V30 301 C 28.3678 0.925796 1.72984 0
M  V30 302 O 27.4928 0.132792 2.15992 0
M  V30 303 C 28.0878 3.25 0.957091 0
M  V30 304 C 26.6468 3.47648 1.44283 0
M  V30 305 C 25.7938 2.74374 0.401757 0
M  V30 306 H 28.7448 1.56831 -0.242816 0
M  V30 307 H 28.7658 3.34031 1.82219 0
M  V30 308 H 28.2778 3.88019 0.0791415 0
M  V30 309 H 26.3788 2.89866 2.34113 0
M  V30 310 H 26.4918 4.56352 1.45877 0
M  V30 311 H 24.8558 2.39485 0.867121 0
M  V30 312 H 25.6388 3.40102 -0.467513 0
M  V30 313 N 28.0839 -0.256276 1.55502 0
M  V30 314 C 29.4949 -0.826068 1.67431 0
M  V30 315 C 29.8459 -1.86396 0.612446 0
M  V30 316 O 28.9709 -2.15031 -0.243025 0
M  V30 317 C 29.5659 -1.50512 3.03532 0
M  V30 318 C 28.1249 -2.02273 3.17431 0
M  V30 319 C 27.2719 -0.870548 2.63281 0
M  V30 320 H 30.2229 -0.0322728 1.58667 0
M  V30 321 H 30.2439 -2.37279 2.97454 0
M  V30 322 H 29.7559 -0.749484 3.80794 0
M  V30 323 H 27.8569 -2.80746 2.44974 0
M  V30 324 H 27.9699 -2.22655 4.24219 0
M  V30 325 H 26.3339 -1.26851 2.20864 0
M  V30 326 H 27.1169 -0.128149 3.43061 0
M  V30 327 N 29.562 -1.4872 -0.521534 0
M  V30 328 C 30.525 -1.63379 -1.60748 0
M  V30 329 C 31.525 -0.50661 -1.52611 0
M  V30 330 O 32.715 -0.772601 -1.5613 0
M  V30 331 C 29.847 -1.61192 -3.00383 0
M  V30 332 H 31.04 -2.60217 -1.49087 0
M  V30 333 H 28.593 -1.37444 -0.744235 0
M  V30 334 H 29.328 -0.65863 -3.17541 0
M  V30 335 H 29.113 -2.43032 -3.07698 0
M  V30 336 H 30.603 -1.7466 -3.7932 0
M  V30 337 N 31.0401 0.771051 -1.3745 0
M  V30 338 C 31.9701 1.89827 -1.3597 0
M  V30 339 C 32.9511 1.68562 -0.228216 0
M  V30 340 O 34.1361 1.8941 -0.428675 0
M  V30 341 C 31.2661 3.2712 -1.16662 0
M  V30 342 C 30.2201 3.6295 -2.2683 0
M  V30 343 C 29.5461 4.98791 -1.92644 0
M  V30 344 C 30.8461 3.69627 -3.69017 0
M  V30 345 H 32.5401 1.91323 -2.30295 0
M  V30 346 H 30.0861 0.919082 -1.10855 0
M  V30 347 H 32.0391 4.05615 -1.14256 0
M  V30 348 H 30.7631 3.26059 -0.187926 0
M  V30 349 H 29.4221 2.86763 -2.28392 0
M  V30 350 H 29.0701 4.94271 -0.933021 0
M  V30 351 H 28.7701 5.23733 -2.66416 0
M  V30 352 H 30.2941 5.79685 -1.91826 0
M  V30 353 H 31.7081 4.38273 -3.69581 0
M  V30 354 H 30.1051 4.06067 -4.41848 0
M  V30 355 H 31.1751 2.70273 -4.02592 0
M  V30 356 N 32.5182 1.22032 0.997298 0
M  V30 357 C 33.7582 1.05375 1.75144 0
M  V30 358 C 34.1222 -0.404696 1.87686 0
M  V30 359 O 35.3232 -0.691998 2.5974 0
M  V30 360 C 33.5942 1.74046 3.12158 0
M  V30 361 S 35.1532 1.72745 4.03366 0
M  V30 362 H 31.9712 0.377449 0.602539 0
M  V30 363 H 34.5732 1.54902 1.19272 0
M  V30 364 H 33.2772 2.79332 3.00669 0
M  V30 365 H 32.8082 1.24731 3.73103 0
M  V30 366 H 34.8232 0.774015 4.90126 0
M  V30 367 N 33.9963 -1.19345 1.0293 0
M  V30 368 C 35.4123 -1.41069 0.746446 0
M  V30 369 C 35.6123 -1.90078 -0.668776 0
M  V30 370 O 34.6683 -2.0778 -1.4347 0
M  V30 371 C 35.9813 -2.42141 1.78292 0
M  V30 372 C 37.5293 -2.55887 1.80252 0
M  V30 373 C 38.0043 -3.60214 2.8286 0
M  V30 374 N 39.4953 -3.67711 2.81679 0
M  V30 375 C 40.2303 -4.48128 3.57727 0
M  V30 376 N 39.7263 -5.32248 4.43491 0
M  V30 377 N 41.5193 -4.42782 3.46267 0
M  V30 378 H 33.6703 -0.858536 1.94275 0
M  V30 379 H 35.9333 -0.439541 0.839945 0
M  V30 380 H 35.6393 -2.13155 2.79746 0
M  V30 381 H 35.5133 -3.41323 1.60557 0
M  V30 382 H 37.9003 -2.84196 0.794757 0
M  V30 383 H 37.9813 -1.56858 2.02062 0
M  V30 384 H 37.6253 -3.32647 3.83807 0
M  V30 385 H 37.5553 -4.58895 2.58307 0
M  V30 386 H 40.0463 -3.07634 2.19476 0
M  V30 387 H 40.3593 -5.90729 4.98256 0
M  V30 388 H 38.7043 -5.31707 4.47564 0
M  V30 389 H 41.8953 -3.76107 2.78677 0
M  V30 390 H 42.0683 -5.05215 4.05785 0
M  V30 391 N 35.4744 -0.807222 -1.35358 0
M  V30 392 C 36.8854 -0.44876 -1.81226 0
M  V30 393 C 37.2364 1.02929 -1.67033 0
M  V30 394 O 36.3614 1.79991 -1.20133 0
M  V30 395 C 36.9564 -0.807774 -3.2903 0
M  V30 396 C 35.5154 -0.501901 -3.73039 0
M  V30 397 C 34.6624 -1.03304 -2.57339 0
M  V30 398 H 37.6134 -0.998808 -1.23327 0
M  V30 399 H 37.6344 -0.10554 -3.80354 0
M  V30 400 H 37.1464 -1.88357 -3.39328 0
M  V30 401 H 35.2474 0.565128 -3.68289 0
M  V30 402 H 35.3604 -1.03497 -4.67787 0
M  V30 403 H 33.7244 -0.455339 -2.50597 0
M  V30 404 H 34.5074 -2.11496 -2.70415 0
M  V30 405 N 36.9525 1.47285 -0.560781 0
M  V30 406 C 37.8825 2.32857 0.173105 0
M  V30 407 C 38.8635 1.44009 0.905281 0
M  V30 408 O 40.0485 1.7286 0.885046 0
M  V30 409 C 37.1785 3.25861 1.20133 0
M  V30 410 C 36.1325 4.23978 0.585388 0
M  V30 411 C 35.4585 5.06332 1.7185 0
M  V30 412 C 36.7585 5.20242 -0.463178 0
M  V30 413 H 38.4525 2.94466 -0.541307 0
M  V30 414 H 35.9985 1.41601 -0.261764 0
M  V30 415 H 37.9515 3.84569 1.72293 0
M  V30 416 H 36.6755 2.62315 1.94573 0
M  V30 417 H 35.3345 3.66501 0.085054 0
M  V30 418 H 34.9825 4.39186 2.45203 0
M  V30 419 H 34.6825 5.72762 1.31213 0
M  V30 420 H 36.2065 5.67899 2.24329 0
M  V30 421 H 37.6205 5.73293 -0.027502 0
M  V30 422 H 36.0175 5.94896 -0.788627 0
M  V30 423 H 37.0875 4.65504 -1.35773 0
M  V30 424 N 38.4306 0.297415 1.54768 0
M  V30 425 C 39.6556 -0.318435 2.04941 0
M  V30 426 C 40.0806 -1.4701 1.17345 0
M  V30 427 O 39.4386 -1.80436 0.176758 0
M  V30 428 C 39.4866 -0.755749 3.52592 0
M  V30 429 O 38.5906 -1.86088 3.68028 0
M  V30 430 H 37.9316 -0.062421 0.661059 0
M  V30 431 H 40.4616 0.438215 1.99852 0
M  V30 432 H 40.4716 -1.04552 3.94376 0
M  V30 433 H 39.1466 0.0867233 4.1581 0
M  V30 434 H 37.7236 -1.57193 3.38149 0
M  V30 435 N 39.9087 -1.5758 0.0250728 0
M  V30 436 C 41.1487 -1.93497 -0.65865 0
M  V30 437 C 41.5127 -0.901409 -1.69525 0
M  V30 438 O 42.7137 -1.14664 -2.43116 0
M  V30 439 C 40.9847 -3.34352 -1.26267 0
M  V30 440 S 42.5437 -3.92191 -1.96803 0
M  V30 441 H 39.3617 -0.67709 -0.216958 0
M  V30 442 H 41.9637 -1.95303 0.0877692 0
M  V30 443 H 40.6677 -4.07395 -0.495741 0
M  V30 444 H 40.1987 -3.3598 -2.04648 0
M  V30 445 H 42.2137 -3.75298 -3.24601 0
M  V30 446 N 41.3868 0.248026 -1.55636 0
M  V30 447 C 42.3498 1.29044 -1.89421 0
M  V30 448 C 43.3498 1.41134 -0.770581 0
M  V30 449 O 44.5398 1.39854 -1.03858 0
M  V30 450 C 41.6718 2.66831 -2.12165 0
M  V30 451 H 42.8648 1.00305 -2.82629 0
M  V30 452 H 40.4178 0.487265 -1.48511 0
M  V30 453 H 41.1528 3.00711 -1.21422 0
M  V30 454 H 40.9378 2.59438 -2.93997 0
M  V30 455 H 42.4278 3.42103 -2.3949 0
M  V30 456 N 42.8649 1.48995 0.513639 0
M  V30 457 C 43.7969 1.60836 1.63293 0
M  V30 458 C 44.8099 0.491701 1.55197 0
M  V30 459 O 45.9989 0.763238 1.6136 0
M  V30 460 C 43.0989 1.53731 3.02027 0
M  V30 461 C 42.2719 2.80715 3.35437 0
M  V30 462 C 41.3309 2.66837 4.53525 0
M  V30 463 O 40.3569 3.40753 4.55934 0
M  V30 464 N 41.5589 1.77539 5.52684 0
M  V30 465 H 44.3239 2.57366 1.53566 0
M  V30 466 H 41.8849 1.45925 0.701259 0
M  V30 467 H 43.8769 1.42118 3.78926 0
M  V30 468 H 42.4469 0.651092 3.05744 0
M  V30 469 H 41.6669 3.06772 2.47557 0
M  V30 470 H 42.9549 3.64927 3.54551 0
M  V30 471 H 42.3529 1.16719 5.53528 0
M  V30 472 H 40.9099 1.71856 6.28736 0
M  V30 473 N 44.343 -0.763751 1.37857 0
M  V30 474 C 45.253 -1.90817 1.36478 0
M  V30 475 C 46.269 -1.71997 0.263248 0
M  V30 476 O 47.445 -1.95095 0.499979 0
M  V30 477 C 44.51 -3.2605 1.17864 0
M  V30 478 C 43.571 -3.57467 2.3773 0
M  V30 479 C 42.804 -4.86249 2.19995 0
M  V30 480 O 43.027 -5.57884 1.18836 0
M  V30 481 O 41.961 -5.16911 3.08361 0
M  V30 482 H 45.787 -1.94933 2.32884 0
M  V30 483 H 43.372 -0.907619 1.1867 0
M  V30 484 H 45.254 -4.06924 1.09504 0
M  V30 485 H 43.929 -3.22769 0.245372 0
M  V30 486 H 42.836 -2.76796 2.51664 0
M  V30 487 H 44.169 -3.655 3.29652 0
M  V30 488 N 45.8211 -1.22559 -0.990812 0
M  V30 489 C 47.0671 -1.05297 -1.73322 0
M  V30 490 C 47.4001 0.410655 -1.89808 0
M  V30 491 O 46.6751 1.30439 -1.44277 0
M  V30 492 C 46.9581 -1.76713 -3.13759 0
M  V30 493 C 46.8111 -3.30684 -3.04907 0
M  V30 494 C 48.1301 -1.52121 -4.12974 0
M  V30 495 H 45.2491 -0.38392 -0.629106 0
M  V30 496 H 47.8911 -1.50926 -1.15418 0
M  V30 497 H 46.0411 -1.37924 -3.63193 0
M  V30 498 H 47.7131 -3.7893 -2.63077 0
M  V30 499 H 45.9561 -3.60253 -2.41661 0
M  V30 500 H 46.6271 -3.75833 -4.04294 0
M  V30 501 H 49.1031 -1.85819 -3.72304 0
M  V30 502 H 47.9791 -2.04582 -5.0935 0
M  V30 503 H 48.2401 -0.454257 -4.3976 0
M  V30 504 N 47.2992 1.18797 -1.03562 0
M  V30 505 C 48.2292 2.24472 -0.643019 0
M  V30 506 C 49.2102 1.66433 0.351283 0
M  V30 507 O 50.3952 1.92803 0.232505 0
M  V30 508 C 47.5252 3.473 4.24935e-05 0
M  V30 509 C 46.4792 4.18055 -0.917257 0
M  V30 510 C 45.8052 5.34519 -0.138941 0
M  V30 511 C 47.1052 4.72109 -2.23407 0
M  V30 512 H 48.7992 2.57566 -1.52643 0
M  V30 513 H 46.3452 1.23806 -0.735394 0
M  V30 514 H 48.2982 4.20426 0.286383 0
M  V30 515 H 47.0222 3.13424 0.918299 0
M  V30 516 H 45.6812 3.46821 -1.1879 0
M  V30 517 H 45.3292 4.96891 0.781562 0
M  V30 518 H 45.0292 5.82794 -0.750005 0
M  V30 519 H 46.5532 6.10438 0.1405 0
M  V30 520 H 47.9672 5.36955 -2.00879 0
M  V30 521 H 46.3642 5.30897 -2.79765 0
M  V30 522 H 47.4342 3.89807 -2.88407 0
M  V30 523 N 48.7773 0.814389 1.34928 0
M  V30 524 C 50.1933 0.499084 1.51596 0
M  V30 525 C 50.3933 -0.978319 1.76157 0
M  V30 526 O 49.4493 -1.76309 1.80752 0
M  V30 527 C 50.7623 1.35121 2.68631 0
M  V30 528 C 52.3103 1.34746 2.82511 0
M  V30 529 C 52.7853 2.18388 4.0258 0
M  V30 530 N 54.2763 2.15966 4.09772 0
M  V30 531 C 55.0113 2.77437 5.01813 0
M  V30 532 N 54.5073 3.47866 5.99134 0
M  V30 533 N 56.3003 2.67037 4.94619 0
M  V30 534 H 48.4513 1.7711 1.17243 0
M  V30 535 H 50.7143 0.754256 0.574284 0
M  V30 536 H 50.4203 2.40001 2.57085 0
M  V30 537 H 50.2943 1.00991 3.63429 0
M  V30 538 H 52.6813 0.30648 2.93504 0
M  V30 539 H 52.7623 1.72869 1.88547 0
M  V30 540 H 52.4063 3.2253 3.92347 0
M  V30 541 H 52.3363 1.77621 4.9574 0
M  V30 542 H 54.8273 1.64729 3.40107 0
M  V30 543 H 55.1403 3.92038 6.65977 0
M  V30 544 H 53.4853 3.51972 5.99284 0
M  V30 545 H 56.6763 2.11597 4.17546 0
M  V30 546 H 56.8493 3.15232 5.66156 0
M  V30 547 N 50.2554 -1.46986 0.568584 0
M  V30 548 C 51.6714 -1.57946 0.229189 0
M  V30 549 C 51.8714 -1.56567 -1.26843 0
M  V30 550 O 50.9274 -1.47511 -2.04931 0
M  V30 551 C 52.2404 -2.87963 0.865909 0
M  V30 552 C 53.7884 -3.01568 0.838188 0
M  V30 553 C 54.2634 -4.34301 1.45419 0
M  V30 554 N 55.7544 -4.40965 1.41788 0
M  V30 555 C 56.4894 -5.42256 1.86403 0
M  V30 556 N 55.9854 -6.50297 2.38926 0
M  V30 557 N 57.7784 -5.3337 1.77405 0
M  V30 558 H 49.9294 -1.46126 1.54146 0
M  V30 559 H 52.1924 -0.696156 0.643484 0
M  V30 560 H 51.8984 -2.94742 1.91886 0
M  V30 561 H 51.7724 -3.75423 0.365687 0
M  V30 562 H 54.1594 -2.94379 -0.206106 0
M  V30 563 H 54.2404 -2.1562 1.37629 0
M  V30 564 H 53.8844 -4.42247 2.49761 0
M  V30 565 H 53.8144 -5.19 0.891435 0
M  V30 566 H 56.3054 -3.63484 1.03381 0
M  V30 567 H 56.6184 -7.23777 2.70863 0
M  V30 568 H 54.9634 -6.51155 2.42944 0
M  V30 569 H 58.1544 -4.47865 1.3614 0
M  V30 570 H 58.3274 -6.12169 2.12492 0
M  V30 571 N 51.7335 -0.305618 -1.54608 0
M  V30 572 C 52.9615 0.304775 -2.04643 0
M  V30 573 C 53.3765 1.47167 -1.18268 0
M  V30 574 O 52.7335 1.81296 -0.209328 0
M  V30 575 C 52.7845 0.756564 -3.53495 0
M  V30 576 O 52.5055 -0.36389 -4.36586 0
M  V30 577 C 54.0065 1.43163 -4.19546 0
M  V30 578 H 51.2265 0.0655481 -0.667791 0
M  V30 579 H 53.7705 -0.446592 -1.99564 0
M  V30 580 H 51.9255 1.45794 -3.58919 0
M  V30 581 H 52.3395 -0.0113121 -5.24499 0
M  V30 582 H 53.8135 1.69886 -5.25207 0
M  V30 583 H 54.2905 2.37318 -3.69563 0
M  V30 584 H 54.8965 0.773307 -4.18211 0
M  V30 585 N 53.2116 1.57565 -0.0334293 0
M  V30 586 C 54.6226 1.79746 0.504798 0
M  V30 587 C 54.9736 0.944091 1.71992 0
M  V30 588 O 54.0986 0.155694 2.15839 0
M  V30 589 C 54.6936 3.25997 0.922567 0
M  V30 590 C 53.2526 3.49159 1.40588 0
M  V30 591 C 52.3996 2.74785 0.372633 0
M  V30 592 H 55.3506 1.56565 -0.259436 0
M  V30 593 H 55.3716 3.35945 1.78666 0
M  V30 594 H 54.8836 3.88081 0.0379825 0
M  V30 595 H 52.9846 2.92332 2.31025 0
M  V30 596 H 53.0976 4.57873 1.41028 0
M  V30 597 H 51.4616 2.40391 0.841672 0
M  V30 598 H 52.2446 3.39587 -0.503559 0
M  V30 599 N 54.6897 -0.239769 1.55765 0
M  V30 600 C 55.6197 -1.30052 1.9393 0
M  V30 601 C 56.6007 -1.49839 0.805132 0
M  V30 602 O 57.7857 -1.62328 1.06599 0
M  V30 603 C 54.9157 -2.65391 2.2402 0
M  V30 604 C 53.8697 -2.60289 3.39755 0
M  V30 605 C 53.1957 -3.99489 3.55405 0
M  V30 606 C 54.4957 -2.16654 4.75246 0
M  V30 607 H 56.1897 -0.983573 2.82783 0
M  V30 608 H 53.7357 -0.471701 1.36055 0
M  V30 609 H 55.6887 -3.3974 2.49308 0
M  V30 610 H 54.4127 -2.98736 1.32 0
M  V30 611 H 53.0717 -1.88398 3.14487 0
M  V30 612 H 52.7197 -4.30112 2.60793 0
M  V30 613 H 52.4197 -3.96962 4.33238 0
M  V30 614 H 53.9437 -4.75528 3.83022 0
M  V30 615 H 55.3577 -2.80737 4.99859 0
M  V30 616 H 53.7547 -2.25223 5.56232 0
M  V30 617 H 54.8247 -1.11835 4.71827 0
M  V30 618 N 56.1678 -1.49265 -0.50573 0
M  V30 619 C 57.3978 -1.61979 -1.28243 0
M  V30 620 C 57.8058 -0.288576 -1.86986 0
M  V30 621 O 57.1488 0.735408 -1.68337 0
M  V30 622 C 57.2108 -2.62632 -2.45489 0
M  V30 623 C 56.8748 -4.071 -2.07651 0
M  V30 624 C 57.8718 -4.94049 -1.61901 0
M  V30 625 C 55.5568 -4.52801 -2.17431 0
M  V30 626 C 57.5508 -6.24736 -1.26428 0
M  V30 627 C 55.2378 -5.83503 -1.8157 0
M  V30 628 C 56.2358 -6.69294 -1.36142 0
M  V30 629 O 55.9238 -7.9756 -1.00764 0
M  V30 630 H 55.6558 -0.54834 -0.395347 0
M  V30 631 H 58.2098 -1.96002 -0.614204 0
M  V30 632 H 56.4398 -2.2378 -3.15372 0
M  V30 633 H 58.1288 -2.64925 -3.07522 0
M  V30 634 H 58.8948 -4.5997 -1.53795 0
M  V30 635 H 54.7738 -3.86196 -2.51742 0
M  V30 636 H 58.3178 -6.91652 -0.908992 0
M  V30 637 H 54.2148 -6.17112 -1.89324 0
M  V30 638 H 54.9828 -8.10529 -1.13952 0
M  V30 639 N 57.6459 0.756429 -1.3826 0
M  V30 640 C 58.9229 1.50584 -1.24835 0
M  V30 641 C 59.3029 2.10556 0.151485 0
M  V30 642 O 58.6509 1.96825 1.1607 0
M  V30 643 C 58.8609 2.57448 -2.3563 0
M  V30 644 C 60.2089 3.24429 -2.73917 0
M  V30 645 O 61.2329 2.67751 -2.34921 0
M  V30 646 O 60.0919 4.26937 -3.41156 0
M  V30 647 H 57.1859 0.667664 -0.48801 0
M  V30 648 H 59.7319 0.792083 -1.5008 0
M  V30 649 H 58.5039 2.11362 -3.29305 0
M  V30 650 H 58.1269 3.36408 -2.11933 0
M  V30 651 N 59.124 1.23083 0.984299 0
M  V30 652 C 60.371 1.06057 1.72505 0
M  V30 653 C 60.699 -0.403105 1.90277 0
M  V30 654 O 59.954 -1.3149 1.44944 0
M  V30 655 C 60.253 1.72673 3.1292 0
M  V30 656 C 59.919 3.22586 3.15038 0
M  V30 657 C 58.581 3.63489 3.15324 0
M  V30 658 C 60.933 4.185 3.10657 0
M  V30 659 C 58.261 4.98772 3.08939 0
M  V30 660 C 60.613 5.53769 3.05814 0
M  V30 661 C 59.277 5.94041 3.04419 0
M  V30 662 H 58.547 0.388091 0.631242 0
M  V30 663 H 61.194 1.52963 1.15215 0
M  V30 664 H 59.499 1.18116 3.73572 0
M  V30 665 H 61.196 1.56982 3.68996 0
M  V30 666 H 57.786 2.90022 3.15571 0
M  V30 667 H 61.97 3.87911 3.09579 0
M  V30 668 H 57.226 5.29193 3.0621 0
M  V30 669 H 61.4 6.27808 3.0138 0
M  V30 670 H 59.027 6.98833 2.99227 0
M  V30 671 N 60.6021 -1.18246 1.0419 0
M  V30 672 C 61.5521 -2.19843 0.604392 0
M  V30 673 C 62.5361 -1.56962 -0.353814 0
M  V30 674 O 63.7281 -1.76156 -0.17267 0
M  V30 675 C 60.8571 -3.43287 -0.0298975 0
M  V30 676 C 59.9431 -4.13288 0.951531 0
M  V30 677 N 60.3341 -4.59271 2.11906 0
M  V30 678 C 58.6321 -4.39165 0.7778 0
M  V30 679 C 59.3331 -5.13173 2.73912 0
M  V30 680 N 58.3091 -5.04763 2.01779 0
M  V30 681 H 62.1111 -2.53089 1.4941 0
M  V30 682 H 59.6251 -1.34465 0.910658 0
M  V30 683 H 61.6221 -4.15334 -0.361037 0
M  V30 684 H 60.2821 -3.11537 -0.915127 0
M  V30 685 H 61.2931 -4.5368 2.49789 0
M  V30 686 H 57.9701 -4.17461 -0.0572331 0
M  V30 687 H 59.3601 -5.58947 3.72864 0
M  V30 688 N 62.0802 -0.821533 -1.34494 0
M  V30 689 C 63.0102 -0.257138 -2.3208 0
M  V30 690 C 63.9912 0.625645 -1.58176 0
M  V30 691 O 65.1762 0.552811 -1.86166 0
M  V30 692 C 62.3062 0.582958 -3.42372 0
M  V30 693 C 61.2602 -0.202571 -4.2752 0
M  V30 694 C 60.5862 0.760179 -5.29269 0
M  V30 695 C 61.8862 -1.40998 -5.02908 0
M  V30 696 H 63.5802 -1.07247 -2.79532 0
M  V30 697 H 61.1262 -0.517163 -1.34393 0
M  V30 698 H 63.0792 0.987972 -4.09655 0
M  V30 699 H 61.8032 1.43133 -2.93565 0
M  V30 700 H 60.4622 -0.588936 -3.61838 0
M  V30 701 H 60.1102 1.60447 -4.76724 0
M  V30 702 H 59.8102 0.238809 -5.87115 0
M  V30 703 H 61.3342 1.16308 -5.9942 0
M  V30 704 H 62.7482 -1.07905 -5.63054 0
M  V30 705 H 61.1452 -1.86689 -5.70322 0
M  V30 706 H 62.2152 -2.1889 -4.32684 0
M  V30 707 N 63.5583 1.46682 -0.576371 0
M  V30 708 C 64.5213 2.28707 0.150239 0
M  V30 709 C 65.5213 1.38035 0.824794 0
M  V30 710 O 66.7113 1.60476 0.677719 0
M  V30 711 C 63.8433 3.18248 1.22192 0
M  V30 712 H 65.0363 2.94423 -0.570521 0
M  V30 713 H 62.5893 1.52688 -0.334078 0
M  V30 714 H 63.3243 2.57265 1.97447 0
M  V30 715 H 63.1093 3.85 0.742812 0
M  V30 716 H 64.5993 3.80001 1.73172 0
M  V30 717 N 65.0364 0.313813 1.54444 0
M  V30 718 C 65.9864 -0.571898 2.20711 0
M  V30 719 C 66.9704 -1.08913 1.18435 0
M  V30 720 O 68.1624 -1.02777 1.44104 0
M  V30 721 C 65.2914 -1.7371 2.96108 0
M  V30 722 C 64.3774 -1.23522 4.05713 0
M  V30 723 N 64.7684 -0.452288 5.03774 0
M  V30 724 C 63.0664 -1.51482 4.19487 0
M  V30 725 C 63.7674 -0.183438 5.81411 0
M  V30 726 N 62.7434 -0.766845 5.38164 0
M  V30 727 H 66.5454 0.0336802 2.93881 0
M  V30 728 H 64.0594 0.119192 1.61962 0
M  V30 729 H 66.0564 -2.38329 3.4206 0
M  V30 730 H 64.7164 -2.34625 2.24458 0
M  V30 731 H 65.7274 -0.0960131 5.17811 0
M  V30 732 H 62.4044 -2.13053 3.59047 0
M  V30 733 H 63.7944 0.446216 6.70417 0
M  V30 734 N 66.5145 -1.57545 0.0417849 0
M  V30 735 C 67.7625 -1.91937 -0.632829 0
M  V30 736 C 68.0835 -0.919978 -1.71934 0
M  V30 737 O 67.3535 0.0366064 -1.95866 0
M  V30 738 H 65.9335 -0.708493 -0.236742 0
M  V30 739 H 68.5955 -1.9468 0.0925745 0
M  V30 740 H 67.6915 -2.92912 -1.07746 0
M  V30 741 N 67.9926 0.231505 -1.5589 0
M  V30 742 C 69.2406 0.955461 -1.78088 0
M  V30 743 C 69.5616 1.85262 -0.608533 0
M  V30 744 O 68.8316 1.92277 0.375035 0
M  V30 745 H 67.4116 0.355787 -0.656829 0
M  V30 746 H 70.0736 0.245751 -1.93344 0
M  V30 747 H 69.1696 1.56814 -2.69844 0
M  V30 748 N 69.4707 1.49531 0.497807 0
M  V30 749 C 70.4177 1.66436 1.59899 0
M  V30 750 C 71.3877 0.505793 1.58212 0
M  V30 751 O 72.5727 0.733202 1.7615 0
M  V30 752 C 69.7127 1.7399 2.98029 0
M  V30 753 C 68.8257 3.01172 3.09708 0
M  V30 754 C 67.9607 2.99686 4.38591 0
M  V30 755 C 66.9997 4.21434 4.43914 0
M  V30 756 N 66.1367 4.1784 5.64229 0
M  V30 757 H 70.9767 2.60459 1.44793 0
M  V30 758 H 68.5137 1.29137 0.704423 0
M  V30 759 H 70.4717 1.76352 3.78095 0
M  V30 760 H 69.1017 0.834301 3.11832 0
M  V30 761 H 68.1537 3.08408 2.22685 0
M  V30 762 H 69.4657 3.91165 3.09502 0
M  V30 763 H 68.6197 3.00628 5.2698 0
M  V30 764 H 67.3587 2.07477 4.41367 0
M  V30 765 H 66.3637 4.20733 3.53926 0
M  V30 766 H 67.5887 5.14839 4.42851 0
M  V30 767 H 65.5347 3.28469 5.67841 0
M  V30 768 H 65.4517 5.01571 5.65652 0
M  V30 769 H 66.7197 4.22889 6.54817 0
M  V30 770 N 70.9488 -0.749086 1.3866 0
M  V30 771 C 71.8818 -1.87111 1.30631 0
M  V30 772 C 72.8598 -1.61572 0.18251 0
M  V30 773 O 74.0438 -1.85019 0.360592 0
M  V30 774 C 71.1708 -3.22815 1.02511 0
M  V30 775 C 70.2168 -3.67234 2.1689 0
M  V30 776 S 71.0498 -3.78245 3.79066 0
M  V30 777 C 72.2058 -5.16761 3.53142 0
M  V30 778 H 72.4388 -1.93636 2.25594 0
M  V30 779 H 69.9718 -0.912525 1.24549 0
M  V30 780 H 71.9298 -4.01181 0.869701 0
M  V30 781 H 70.5908 -3.13964 0.0925884 0
M  V30 782 H 69.7838 -4.65677 1.92771 0
M  V30 783 H 69.3858 -2.96034 2.28561 0
M  V30 784 H 71.6778 -6.02656 3.09534 0
M  V30 785 H 72.6208 -5.45902 4.50995 0
M  V30 786 H 73.0288 -4.85771 2.87554 0
M  V30 787 N 72.4269 -1.23603 -0.977757 0
M  V30 788 C 73.6729 -1.07129 -1.72195 0
M  V30 789 C 74.0059 0.390501 -1.90233 0
M  V30 790 O 73.2809 1.28902 -1.45653 0
M  V30 791 C 73.5639 -1.80031 -3.11867 0
M  V30 792 C 73.4169 -3.33899 -3.01383 0
M  V30 793 C 74.7359 -1.56492 -4.11337 0
M  V30 794 H 71.8549 -0.390571 -0.624999 0
M  V30 795 H 74.4969 -1.52142 -1.13811 0
M  V30 796 H 72.6469 -1.41768 -3.6171 0
M  V30 797 H 74.3189 -3.81699 -2.59043 0
M  V30 798 H 72.5619 -3.62796 -2.37827 0
M  V30 799 H 73.2329 -3.801 -4.00285 0
M  V30 800 H 75.7089 -1.89757 -3.70313 0
M  V30 801 H 74.5849 -2.09973 -5.07151 0
M  V30 802 H 74.8459 -0.500874 -4.39254 0
M  V30 803 N 73.905 1.17692 -1.04816 0
M  V30 804 C 74.868 2.19787 -0.650117 0
M  V30 805 C 75.868 1.58044 0.296427 0
M  V30 806 O 77.058 1.74012 0.0808097 0
M  V30 807 C 74.19 3.40869 0.0456987 0
M  V30 808 H 75.383 2.56516 -1.5537 0
M  V30 809 H 72.936 1.31708 -0.841594 0
M  V30 810 H 73.671 3.09681 0.962726 0
M  V30 811 H 73.456 3.86928 -0.634727 0
M  V30 812 H 74.946 4.16445 0.310432 0
M  V30 813 N 75.3831 0.828654 1.34056 0
M  V30 814 C 76.6301 0.419458 1.98108 0
M  V30 815 C 76.9581 -1.01886 1.65679 0
M  V30 816 O 76.2131 -1.72539 0.923512 0
M  V30 817 C 76.5121 0.575226 3.52741 0
M  V30 818 C 76.1781 1.98012 4.05095 0
M  V30 819 C 74.8401 2.36442 4.19104 0
M  V30 820 C 77.1921 2.89824 4.33188 0
M  V30 821 C 74.5201 3.66009 4.58535 0
M  V30 822 C 76.8721 4.1886 4.74066 0
M  V30 823 C 75.5361 4.5726 4.86281 0
M  V30 824 H 74.8061 0.153491 0.724929 0
M  V30 825 H 77.4531 1.05371 1.59904 0
M  V30 826 H 75.7581 -0.142385 3.91541 0
M  V30 827 H 77.4551 0.239057 4.00287 0
M  V30 828 H 74.0451 1.67162 3.94658 0
M  V30 829 H 78.2291 2.61375 4.21897 0
M  V30 830 H 73.4851 3.95579 4.66184 0
M  V30 831 H 77.6591 4.90086 4.94761 0
M  V30 832 H 75.2861 5.57707 5.16592 0
M  V30 833 N 76.8612 -1.46375 0.584142 0
M  V30 834 C 77.8242 -2.28784 -0.138108 0
M  V30 835 C 78.8242 -1.38471 -0.817462 0
M  V30 836 O 80.0142 -1.60833 -0.669199 0
M  V30 837 C 77.1462 -3.18892 -1.20503 0
M  V30 838 H 78.3392 -2.94117 0.586127 0
M  V30 839 H 75.8922 -1.52509 0.342171 0
M  V30 840 H 76.6272 -2.58309 -1.96079 0
M  V30 841 H 76.4122 -3.85388 -0.722384 0
M  V30 842 H 77.9022 -3.80914 -1.71155 0
M  V30 843 N 78.3393 -0.321999 -1.54275 0
M  V30 844 C 79.5873 0.280489 -2.00144 0
M  V30 845 C 79.9083 1.52777 -1.21178 0
M  V30 846 O 79.1783 1.9338 -0.313187 0
M  V30 847 H 77.7583 0.106632 -0.73935 0
M  V30 848 H 80.4203 -0.438184 -1.8991 0
M  V30 849 H 79.5163 0.537972 -3.07428 0
M  V30 850 N 79.8174 1.5752 -0.0501392 0
M  V30 851 C 81.0634 1.93755 0.618901 0
M  V30 852 C 81.4184 0.928514 1.68512 0
M  V30 853 O 80.7114 -0.0524613 1.91528 0
M  V30 854 C 80.9054 3.34467 1.25963 0
M  V30 855 C 80.7344 4.48965 0.257 0
M  V30 856 C 79.5044 5.05075 -0.150656 0
M  V30 857 C 81.7024 5.11891 -0.497166 0
M  V30 858 N 79.6844 6.03104 -1.14626 0
M  V30 859 C 81.0554 6.05216 -1.34588 0
M  V30 860 C 83.1104 4.9479 -0.55559 0
M  V30 861 C 81.8134 6.83277 -2.24778 0
M  V30 862 C 83.8394 5.73477 -1.44492 0
M  V30 863 C 83.2014 6.66433 -2.28136 0
M  V30 864 H 79.3004 0.756479 0.198149 0
M  V30 865 H 81.8844 1.94316 -0.122229 0
M  V30 866 H 80.0554 3.34685 1.97079 0
M  V30 867 H 81.7874 3.57994 1.88739 0
M  V30 868 H 78.5424 4.7305 0.228094 0
M  V30 869 H 78.9664 6.56813 -1.64092 0
M  V30 870 H 83.6084 4.2273 0.0768625 0
M  V30 871 H 81.3264 7.54629 -2.89069 0
M  V30 872 H 84.9124 5.62273 -1.49468 0
M  V30 873 H 83.7924 7.26258 -2.95835 0
M  V30 874 N 81.2955 -0.223234 1.56011 0
M  V30 875 C 82.5205 -0.968978 1.83373 0
M  V30 876 C 82.9455 -1.77227 0.630254 0
M  V30 877 O 82.3035 -1.76345 -0.420959 0
M  V30 878 C 82.3515 -1.86363 3.08709 0
M  V30 879 O 81.4555 -2.95873 2.87285 0
M  V30 880 H 80.7965 -0.274461 0.604622 0
M  V30 881 H 83.3265 -0.237056 2.03222 0
M  V30 882 H 83.3365 -2.27376 3.38768 0
M  V30 883 H 82.0115 -1.27319 3.95933 0
M  V30 884 H 80.5885 -2.58818 2.68454 0
M  V30 885 N 82.7736 -1.49793 -0.48987 0
M  V30 886 C 83.7036 -1.70201 -1.59856 0
M  V30 887 C 84.6846 -0.55076 -1.60937 0
M  V30 888 O 85.8696 -0.787841 -1.77501 0
M  V30 889 C 82.9996 -1.77882 -2.98287 0
M  V30 890 C 81.9536 -2.92907 -3.12073 0
M  V30 891 C 81.2796 -2.85712 -4.51965 0
M  V30 892 C 82.5796 -4.3369 -2.91051 0
M  V30 893 H 84.2736 -2.63025 -1.43032 0
M  V30 894 H 81.8196 -1.26574 -0.686664 0
M  V30 895 H 83.7726 -1.90744 -3.75759 0
M  V30 896 H 82.4966 -0.816653 -3.16225 0
M  V30 897 H 81.1556 -2.79665 -2.37029 0
M  V30 898 H 80.8036 -1.8738 -4.66795 0
M  V30 899 H 80.5036 -3.62921 -4.62128 0
M  V30 900 H 82.0276 -3.00598 -5.31482 0
M  V30 901 H 83.4416 -4.47555 -3.58284 0
M  V30 902 H 81.8386 -5.12205 -3.12675 0
M  V30 903 H 82.9086 -4.47362 -1.87071 0
M  V30 904 N 84.2517 0.741722 -1.39055 0
M  V30 905 C 85.6627 1.31966 -1.32068 0
M  V30 906 C 86.0137 1.96192 0.0180797 0
M  V30 907 O 85.1387 1.95861 0.920196 0
M  V30 908 C 85.7337 2.39954 -2.39181 0
M  V30 909 C 84.2927 2.93438 -2.35735 0
M  V30 910 C 83.4397 1.66936 -2.21422 0
M  V30 911 H 86.3907 0.539721 -1.4924 0
M  V30 912 H 86.4117 3.20182 -2.05581 0
M  V30 913 H 85.9237 1.9318 -3.36605 0
M  V30 914 H 84.0247 3.4451 -1.41929 0
M  V30 915 H 84.1377 3.4701 -3.30335 0
M  V30 916 H 82.5017 1.91016 -1.68478 0
M  V30 917 H 83.2847 1.22224 -3.20806 0
M  V30 918 N 85.7298 1.2412 0.971189 0
M  V30 919 C 86.9758 1.08041 1.71625 0
M  V30 920 C 87.3088 -0.380407 1.90438 0
M  V30 921 O 86.5838 -1.28127 1.46334 0
M  V30 922 C 86.8668 1.81682 3.10908 0
M  V30 923 C 86.7198 3.35493 2.99608 0
M  V30 924 C 88.0388 1.58671 4.10501 0
M  V30 925 H 85.1578 0.39388 0.622919 0
M  V30 926 H 87.7998 1.52743 1.13003 0
M  V30 927 H 85.9498 1.43684 3.60953 0
M  V30 928 H 87.6218 3.83068 2.57015 0
M  V30 929 H 85.8648 3.64052 2.35899 0
M  V30 930 H 86.5358 3.82217 3.98264 0
M  V30 931 H 89.0118 1.91719 3.69301 0
M  V30 932 H 87.8878 2.1266 5.06031 0
M  V30 933 H 88.1488 0.524161 4.38982 0
M  V30 934 N 87.2079 -1.17134 1.05439 0
M  V30 935 C 88.1399 -2.2078 0.615539 0
M  V30 936 C 89.1529 -1.59584 -0.322001 0
M  V30 937 O 90.3419 -1.78133 -0.114344 0
M  V30 938 C 87.4419 -3.38691 -0.118938 0
M  V30 939 C 86.6149 -4.29454 0.829924 0
M  V30 940 C 85.6739 -5.26024 0.136258 0
M  V30 941 O 84.6999 -5.63952 0.77115 0
M  V30 942 N 85.9019 -5.69487 -1.1254 0
M  V30 943 H 88.6669 -2.59052 1.50705 0
M  V30 944 H 86.2279 -1.32058 0.936603 0
M  V30 945 H 88.2199 -4.00329 -0.593179 0
M  V30 946 H 86.7899 -2.98996 -0.91215 0
M  V30 947 H 86.0099 -3.65211 1.48373 0
M  V30 948 H 87.2979 -4.86984 1.47392 0
M  V30 949 H 86.6959 -5.4075 -1.6615 0
M  V30 950 H 85.2529 -6.33257 -1.54366 0
M  V30 951 N 88.686 -0.835752 -1.33615 0
M  V30 952 C 89.916 -0.442701 -2.01801 0
M  V30 953 C 90.324 0.959807 -1.63047 0
M  V30 954 O 89.667 1.63468 -0.838088 0
M  V30 955 C 89.729 -0.480125 -3.56279 0
M  V30 956 C 89.393 -1.8382 -4.18401 0
M  V30 957 C 90.39 -2.80097 -4.37998 0
M  V30 958 C 88.075 -2.13019 -4.54894 0
M  V30 959 C 90.069 -4.03736 -4.9323 0
M  V30 960 C 87.756 -3.36916 -5.09834 0
M  V30 961 C 88.754 -4.32091 -5.28948 0
M  V30 962 O 88.442 -5.53797 -5.82721 0
M  V30 963 H 88.174 -0.17441 -0.653114 0
M  V30 964 H 90.728 -1.129 -1.71589 0
M  V30 965 H 88.958 0.262931 -3.85805 0
M  V30 966 H 90.647 -0.105335 -4.05763 0
M  V30 967 H 91.413 -2.58838 -4.10156 0
M  V30 968 H 87.292 -1.39733 -4.39313 0
M  V30 969 H 90.836 -4.78034 -5.08064 0
M  V30 970 H 86.733 -3.58033 -5.37106 0
M  V30 971 H 87.501 -5.55494 -6.0114 0
M  V30 972 N 90.1641 1.46063 -0.591896 0
M  V30 973 C 91.5801 1.57561 -0.254288 0
M  V30 974 C 91.7801 1.58565 1.24336 0
M  V30 975 O 90.8361 1.50753 2.02558 0
M  V30 976 C 92.1491 2.86549 -0.911611 0
M  V30 977 C 93.6971 3.00197 -0.886059 0
M  V30 978 C 94.1721 4.31933 -1.5231 0
M  V30 979 N 95.6631 4.38654 -1.48786 0
M  V30 980 C 96.3981 5.39222 -1.95006 0
M  V30 981 N 95.8941 6.46414 -2.49241 0
M  V30 982 N 97.6871 5.3048 -1.85868 0
M  V30 983 H 89.8381 1.43655 -1.56451 0
M  V30 984 H 92.1011 0.68583 -0.654478 0
M  V30 985 H 91.8071 2.91651 -1.96551 0
M  V30 986 H 91.6811 3.74794 -0.425368 0
M  V30 987 H 94.0681 2.9467 0.159246 0
M  V30 988 H 94.1491 2.13403 -1.41041 0
M  V30 989 H 93.7931 4.38217 -2.56765 0
M  V30 990 H 93.7231 5.17516 -0.973891 0
M  V30 991 H 96.2141 3.61793 -1.09151 0
M  V30 992 H 96.5271 7.19376 -2.82344 0
M  V30 993 H 94.8721 6.47208 -2.53272 0
M  V30 994 H 98.0631 4.45643 -1.43248 0
M  V30 995 H 98.2361 6.08711 -2.22204 0
M  V30 996 N 91.6422 0.330177 1.54103 0
M  V30 997 C 92.9192 -0.325007 1.92881 0
M  V30 998 C 93.2992 -1.6934 1.26045 0
M  V30 999 O 92.6472 -2.24855 0.406526 0
M  V30 1000 C 92.8572 -0.410634 3.46576 0
M  V30 1001 C 94.2052 -0.667801 4.19316 0
M  V30 1002 O 95.2292 -0.49329 3.52768 0
M  V30 1003 O 94.0882 -1.00491 5.37181 0
M  V30 1004 H 91.1822 -0.186873 0.80561 0
M  V30 1005 H 93.7282 0.380376 1.65382 0
M  V30 1006 H 92.5002 0.550164 3.87413 0
M  V30 1007 H 92.1232 -1.16333 3.802 0
M  V30 1008 N 93.1203 -1.57491 0.0584922 0
M  V30 1009 C 94.3453 -1.97711 -0.62652 0
M  V30 1010 C 94.7703 -0.936132 -1.63151 0
M  V30 1011 O 94.1283 0.099811 -1.81025 0
M  V30 1012 C 94.1763 -3.36989 -1.28338 0
M  V30 1013 O 93.2803 -3.35433 -2.39913 0
M  V30 1014 H 92.6213 -0.643868 -0.162266 0
M  V30 1015 H 95.1513 -2.04193 0.129064 0
M  V30 1016 H 95.1613 -3.73879 -1.63335 0
M  V30 1017 H 93.8363 -4.12289 -0.546889 0
M  V30 1018 H 92.4133 -3.10298 -2.06809 0
M  V30 1019 N 94.5984 0.214957 -1.56127 0
M  V30 1020 C 95.5484 1.27006 -1.8935 0
M  V30 1021 C 96.5324 1.41969 -0.757202 0
M  V30 1022 O 97.7244 1.44673 -1.01973 0
M  V30 1023 C 94.8534 2.61911 -2.2194 0
M  V30 1024 C 93.9394 2.50822 -3.41978 0
M  V30 1025 N 94.3304 2.09391 -4.60423 0
M  V30 1026 C 92.6284 2.81765 -3.45723 0
M  V30 1027 C 93.3294 2.09712 -5.42582 0
M  V30 1028 N 92.3054 2.50454 -4.82466 0
M  V30 1029 H 96.1074 0.940734 -2.78437 0
M  V30 1030 H 93.6214 0.423492 -1.56781 0
M  V30 1031 H 95.6184 3.38096 -2.43919 0
M  V30 1032 H 94.2784 2.95684 -1.34169 0
M  V30 1033 H 95.2894 1.80416 -4.85459 0
M  V30 1034 H 91.9664 3.19865 -2.68314 0
M  V30 1035 H 93.3564 1.79748 -6.4741 0
M  V30 1036 N 96.0765 1.50051 0.48192 0
M  V30 1037 C 97.3045 1.64237 1.25832 0
M  V30 1038 C 97.7195 0.321336 1.86045 0
M  V30 1039 O 97.0765 -0.695478 1.68729 0
M  V30 1040 C 97.1275 2.72548 2.37487 0
M  V30 1041 O 96.8485 3.99529 1.79745 0
M  V30 1042 C 98.3495 2.9761 3.28547 0
M  V30 1043 H 95.5695 0.55237 0.380957 0
M  V30 1044 H 98.1135 1.96207 0.576467 0
M  V30 1045 H 96.2685 2.43303 3.01467 0
M  V30 1046 H 96.6825 4.59342 2.5319 0
M  V30 1047 H 98.1565 3.77084 4.03127 0
M  V30 1048 H 98.6335 2.0826 3.86684 0
M  V30 1049 H 99.2395 3.28345 2.70314 0
M  V30 1050 N 97.5546 -0.734337 1.39446 0
M  V30 1051 C 98.8316 -1.48579 1.27215 0
M  V30 1052 C 99.2116 -2.1077 -0.117968 0
M  V30 1053 O 98.5596 -1.98646 -1.12924 0
M  V30 1054 C 98.7696 -2.53667 2.39696 0
M  V30 1055 C 100.118 -3.20031 2.79044 0
M  V30 1056 O 101.142 -2.6398 2.39151 0
M  V30 1057 O 100.001 -4.21455 3.47905 0
M  V30 1058 H 97.0946 -0.659816 0.49857 0
M  V30 1059 H 99.6406 -0.768106 1.51322 0
M  V30 1060 H 98.4126 -2.06096 3.32626 0
M  V30 1061 H 98.0356 -3.32994 2.17258 0
M  V30 1062 N 99.0327 -1.24633 -0.964593 0
M  V30 1063 C 100.258 -1.11596 -1.74818 0
M  V30 1064 C 100.683 0.32723 -1.85232 0
M  V30 1065 O 100.041 1.23695 -1.32549 0
M  V30 1066 C 100.089 -1.76397 -3.1451 0
M  V30 1067 O 99.1927 -1.03685 -3.99153 0
M  V30 1068 H 98.5337 -0.390196 -0.537255 0
M  V30 1069 H 101.064 -1.65002 -1.20977 0
M  V30 1070 H 101.074 -1.8228 -3.65018 0
M  V30 1071 H 99.7487 -2.81401 -3.06246 0
M  V30 1072 H 98.3257 -1.05611 -3.57632 0
M  V30 1073 N 100.511 1.16574 -1.06058 0
M  V30 1074 C 101.461 2.18854 -0.63929 0
M  V30 1075 C 102.445 1.57505 0.328798 0
M  V30 1076 O 103.637 1.76408 0.144623 0
M  V30 1077 C 100.766 3.43291 -0.0247203 0
M  V30 1078 C 99.8518 4.11722 -1.01716 0
M  V30 1079 N 100.243 4.55841 -2.19186 0
M  V30 1080 C 98.5408 4.37872 -0.847569 0
M  V30 1081 C 99.2418 5.08751 -2.82042 0
M  V30 1082 N 98.2178 5.01489 -2.09784 0
M  V30 1083 H 102.02 2.5068 -1.53417 0
M  V30 1084 H 99.5338 1.32999 -0.931935 0
M  V30 1085 H 101.531 4.15856 0.294915 0
M  V30 1086 H 100.191 3.12954 0.865448 0
M  V30 1087 H 101.202 4.49649 -2.56975 0
M  V30 1088 H 97.8788 4.17499 -0.00918848 0
M  V30 1089 H 99.2688 5.52944 -3.81709 0
M  V30 1090 N 101.989 0.842826 1.3317 0
M  V30 1091 C 102.919 0.294028 2.31641 0
M  V30 1092 C 103.9 -0.600401 1.59151 0
M  V30 1093 O 105.085 -0.523124 1.87022 0
M  V30 1094 C 102.215 -0.528416 3.43257 0
M  V30 1095 C 101.169 0.27056 4.27144 0
M  V30 1096 C 100.495 -0.675881 5.30411 0
M  V30 1097 C 101.795 1.48981 5.00602 0
M  V30 1098 H 103.489 1.11681 2.77791 0
M  V30 1099 H 101.035 0.538478 1.33553 0
M  V30 1100 H 102.988 -0.922674 4.11175 0
M  V30 1101 H 101.712 -1.38445 2.95805 0
M  V30 1102 H 100.371 0.646427 3.60856 0
M  V30 1103 H 100.019 -1.52842 4.79216 0
M  V30 1104 H 99.7189 -0.145374 5.8742 0
M  V30 1105 H 101.243 -1.06757 6.01195 0
M  V30 1106 H 102.657 1.16849 5.61266 0
M  V30 1107 H 101.054 1.95739 5.6728 0
M  V30 1108 H 102.124 2.25746 4.29147 0
M  V30 1109 N 103.467 -1.45747 0.599634 0
M  V30 1110 C 104.417 -2.27538 -0.145107 0
M  V30 1111 C 105.401 -1.3686 -0.846055 0
M  V30 1112 O 106.593 -1.6091 -0.737357 0
M  V30 1113 C 103.722 -3.23569 -1.14708 0
M  V30 1114 C 102.808 -4.21734 -0.447383 0
M  V30 1115 N 103.199 -5.03257 0.506535 0
M  V30 1116 C 101.497 -4.40536 -0.695966 0
M  V30 1117 C 102.198 -5.74426 0.917068 0
M  V30 1118 N 101.174 -5.42966 0.26253 0
M  V30 1119 H 104.976 -2.87965 0.587672 0
M  V30 1120 H 102.49 -1.56803 0.422697 0
M  V30 1121 H 104.487 -3.8089 -1.69495 0
M  V30 1122 H 103.147 -2.64702 -1.8805 0
M  V30 1123 H 104.158 -5.10319 0.882899 0
M  V30 1124 H 100.835 -3.92802 -1.41467 0
M  V30 1125 H 102.225 -6.4995 1.70338 0
M  V30 1126 N 104.945 -0.338344 -1.53925 0
M  V30 1127 C 106.173 0.261298 -2.05243 0
M  V30 1128 C 106.588 1.44625 -1.21363 0
M  V30 1129 O 105.945 1.80811 -0.247736 0
M  V30 1130 C 105.996 0.681412 -3.5502 0
M  V30 1131 O 105.717 -0.456414 -4.35716 0
M  V30 1132 C 107.218 1.34232 -4.22489 0
M  V30 1133 H 104.438 0.0513685 -0.669031 0
M  V30 1134 H 106.982 -0.488822 -1.98572 0
M  V30 1135 H 105.137 1.38148 -3.61931 0
M  V30 1136 H 105.551 -0.122564 -5.24357 0
M  V30 1137 H 107.025 1.58708 -5.28693 0
M  V30 1138 H 107.502 2.29426 -3.74514 0
M  V30 1139 H 108.108 0.684424 -4.19757 0
M  V30 1140 N 106.423 1.57458 -0.0668435 0
M  V30 1141 C 107.839 1.56947 0.289772 0
M  V30 1142 C 108.039 1.07584 1.70376 0
M  V30 1143 O 107.095 0.739486 2.41429 0
M  V30 1144 C 108.408 3.0052 0.103943 0
M  V30 1145 C 109.956 3.12517 0.173857 0
M  V30 1146 C 110.431 4.57997 0.0163682 0
M  V30 1147 N 111.922 4.63144 0.0721352 0
M  V30 1148 C 112.657 5.73394 -0.0253794 0
M  V30 1149 N 112.153 6.92576 -0.176133 0
M  V30 1150 N 113.946 5.62091 0.0313305 0
M  V30 1151 H 106.097 1.87863 -0.991027 0
M  V30 1152 H 108.36 0.86583 -0.38606 0
M  V30 1153 H 108.066 3.40729 -0.871572 0
M  V30 1154 H 107.94 3.67304 0.858366 0
M  V30 1155 H 110.327 2.72197 1.13985 0
M  V30 1156 H 110.408 2.48381 -0.611586 0
M  V30 1157 H 110.052 4.99005 -0.946374 0
M  V30 1158 H 109.982 5.20158 0.821153 0
M  V30 1159 H 112.473 3.77436 0.187263 0
M  V30 1160 H 112.786 7.72418 -0.242821 0
M  V30 1161 H 111.131 6.94678 -0.211429 0
M  V30 1162 H 114.322 4.67867 0.147773 0
M  V30 1163 H 114.495 6.47982 -0.048121 0
M  V30 1164 N 107.901 -0.206675 1.56239 0
M  V30 1165 C 108.833 -1.27997 1.9013 0
M  V30 1166 C 109.846 -1.42299 0.790883 0
M  V30 1167 O 111.035 -1.42931 1.06925 0
M  V30 1168 C 108.135 -2.65368 2.10792 0
M  V30 1169 C 107.308 -2.72824 3.41886 0
M  V30 1170 C 106.367 -3.9131 3.51799 0
M  V30 1171 O 105.393 -3.78953 4.24716 0
M  V30 1172 N 106.595 -5.06265 2.84035 0
M  V30 1173 H 109.36 -0.992444 2.82791 0
M  V30 1174 H 106.921 -0.396652 1.56966 0
M  V30 1175 H 108.913 -3.43039 2.14724 0
M  V30 1176 H 107.483 -2.86657 1.24685 0
M  V30 1177 H 106.703 -1.81515 3.49923 0
M  V30 1178 H 107.991 -2.74786 4.28217 0
M  V30 1179 H 107.389 -5.19203 2.246 0
M  V30 1180 H 105.946 -5.81925 2.93609 0
M  V30 1181 N 109.379 -1.50304 -0.473955 0
M  V30 1182 C 110.329 -1.65347 -1.56985 0
M  V30 1183 C 111.313 -0.508176 -1.52664 0
M  V30 1184 O 112.505 -0.762446 -1.59737 0
M  V30 1185 C 109.634 -1.74832 -2.95447 0
M  V30 1186 C 108.72 -2.95028 -3.04662 0
M  V30 1187 N 109.111 -4.18747 -2.83698 0
M  V30 1188 C 107.409 -2.93527 -3.35795 0
M  V30 1189 C 108.11 -4.99687 -2.97805 0
M  V30 1190 N 107.086 -4.33585 -3.2788 0
M  V30 1191 H 110.888 -2.58698 -1.39472 0
M  V30 1192 H 108.402 -1.47449 -0.680629 0
M  V30 1193 H 110.399 -1.83712 -3.7424 0
M  V30 1194 H 109.059 -0.826376 -3.14008 0
M  V30 1195 H 110.07 -4.48291 -2.59337 0
M  V30 1196 H 106.747 -2.10821 -3.60362 0
M  V30 1197 H 108.137 -6.08057 -2.85861 0
M  V30 1198 N 110.857 0.726932 -1.39834 0
M  V30 1199 C 112.097 1.4992 -1.38936 0
M  V30 1200 C 112.461 1.91996 0.0126883 0
M  V30 1201 O 113.662 2.68399 0.146715 0
M  V30 1202 C 111.933 2.70013 -2.34153 0
M  V30 1203 S 113.492 3.59563 -2.51515 0
M  V30 1204 H 110.31 0.51271 -0.492595 0
M  V30 1205 H 112.912 0.85107 -1.76003 0
M  V30 1206 H 111.616 2.37254 -3.34871 0
M  V30 1207 H 111.147 3.39748 -1.98331 0
M  V30 1208 H 113.162 4.63973 -1.75909 0
M  V30 1209 N 112.336 1.25143 0.95797 0
M  V30 1210 C 113.561 1.12521 1.74223 0
M  V30 1211 C 113.986 -0.317402 1.85403 0
M  V30 1212 O 113.344 -1.2299 1.33204 0
M  V30 1213 C 113.392 1.78062 3.1357 0
M  V30 1214 O 112.496 1.058 3.98598 0
M  V30 1215 H 111.837 0.39304 0.535178 0
M  V30 1216 H 114.367 1.65641 1.201 0
M  V30 1217 H 114.377 1.84213 3.64046 0
M  V30 1218 H 113.052 2.83021 3.04749 0
M  V30 1219 H 111.629 1.07506 3.57067 0
M  V30 1220 N 113.814 -1.1601 1.06675 0
M  V30 1221 C 114.744 -2.22688 0.702307 0
M  V30 1222 C 115.725 -1.67306 -0.307032 0
M  V30 1223 O 116.91 -1.93352 -0.181305 0
M  V30 1224 C 114.04 -3.47178 0.092038 0
M  V30 1225 C 112.994 -4.15477 1.02777 0
M  V30 1226 C 112.32 -5.33963 0.28061 0
M  V30 1227 C 113.62 -4.66019 2.35846 0
M  V30 1228 H 115.314 -2.53429 1.59419 0
M  V30 1229 H 112.86 -1.21813 0.767961 0
M  V30 1230 H 114.813 -4.21037 -0.174814 0
M  V30 1231 H 113.537 -3.15749 -0.834877 0
M  V30 1232 H 112.196 -3.43549 1.27944 0
M  V30 1233 H 111.844 -4.98788 -0.649545 0
M  V30 1234 H 111.544 -5.806 0.904258 0
M  V30 1235 H 113.068 -6.10596 0.021396 0
M  V30 1236 H 114.482 -5.3144 2.15045 0
M  V30 1237 H 112.879 -5.23293 2.93743 0
M  V30 1238 H 113.949 -3.82023 2.98641 0
M  V30 1239 N 115.292 -0.849877 -1.32721 0
M  V30 1240 C 116.539 -0.450923 -1.97416 0
M  V30 1241 C 116.867 0.992376 -1.67279 0
M  V30 1242 O 116.122 1.71048 -0.950845 0
M  V30 1243 C 116.421 -0.631272 -3.51781 0
M  V30 1244 C 116.087 -2.04432 -4.01894 0
M  V30 1245 C 114.749 -2.4308 -4.1529 0
M  V30 1246 C 117.101 -2.96679 -4.28522 0
M  V30 1247 C 114.429 -3.73257 -4.52654 0
M  V30 1248 C 116.781 -4.26349 -4.67343 0
M  V30 1249 C 115.445 -4.64939 -4.78945 0
M  V30 1250 H 114.715 -0.165004 -0.722395 0
M  V30 1251 H 117.362 -1.07901 -1.58207 0
M  V30 1252 H 115.667 0.0800767 -3.91718 0
M  V30 1253 H 117.364 -0.302709 -3.99856 0
M  V30 1254 H 113.954 -1.73419 -3.91949 0
M  V30 1255 H 118.138 -2.68054 -4.17685 0
M  V30 1256 H 113.394 -4.02946 -4.59831 0
M  V30 1257 H 117.568 -4.97895 -4.86902 0
M  V30 1258 H 115.195 -5.65855 -5.07654 0
M  V30 1259 N 116.77 1.45427 -0.607355 0
M  V30 1260 C 118.047 1.9557 -0.0344566 0
M  V30 1261 C 118.427 1.54979 1.43334 0
M  V30 1262 O 117.775 0.812241 2.13576 0
M  V30 1263 C 117.985 3.48226 -0.232321 0
M  V30 1264 C 119.333 4.2445 -0.113001 0
M  V30 1265 O 120.357 3.55829 -0.162431 0
M  V30 1266 O 119.216 5.465 0.00209442 0
M  V30 1267 H 116.31 0.826222 0.0358667 0
M  V30 1268 H 118.856 1.55594 -0.6774 0
M  V30 1269 H 117.628 3.70739 -1.25174 0
M  V30 1270 H 117.251 3.95092 0.445896 0
M  V30 1271 N 118.248 0.346503 1.53744 0
M  V30 1272 C 119.494 -0.249473 2.0126 0
M  V30 1273 C 119.827 -1.49965 1.23386 0
M  V30 1274 O 119.102 -1.91811 0.32229 0
M  V30 1275 C 119.385 -0.560643 3.55709 0
M  V30 1276 C 119.238 0.701836 4.44291 0
M  V30 1277 C 120.557 -1.36905 4.18264 0
M  V30 1278 H 117.676 -0.0891987 0.731582 0
M  V30 1279 H 120.318 0.467624 1.84156 0
M  V30 1280 H 118.468 -1.17156 3.70414 0
M  V30 1281 H 120.14 1.33974 4.41417 0
M  V30 1282 H 118.383 1.32612 4.13033 0
M  V30 1283 H 119.054 0.43933 5.50249 0
M  V30 1284 H 121.53 -0.852448 4.07275 0
M  V30 1285 H 120.406 -1.55553 5.26398 0
M  V30 1286 H 120.667 -2.37203 3.73078 0
M  V30 1287 N 119.726 -1.57421 0.075193 0
M  V30 1288 C 120.951 -1.98364 -0.605515 0
M  V30 1289 C 121.376 -0.953383 -1.62149 0
M  V30 1290 O 120.734 0.0806053 -1.81121 0
M  V30 1291 C 120.782 -3.38332 -1.24756 0
M  V30 1292 O 119.886 -3.37959 -2.36342 0
M  V30 1293 H 119.227 -0.645553 -0.155428 0
M  V30 1294 H 121.757 -2.04044 0.150714 0
M  V30 1295 H 121.767 -3.75591 -1.5936 0
M  V30 1296 H 120.442 -4.12846 -0.503129 0
M  V30 1297 H 119.019 -3.12474 -2.03506 0
M  V30 1298 N 121.204 0.198386 -1.56346 0
M  V30 1299 C 122.154 1.2499 -1.90687 0
M  V30 1300 C 123.138 1.41158 -0.772217 0
M  V30 1301 O 124.33 1.43584 -1.03502 0
M  V30 1302 C 121.459 2.59542 -2.24706 0
M  V30 1303 C 120.545 2.47181 -3.44619 0
M  V30 1304 N 120.936 2.04495 -4.62618 0
M  V30 1305 C 119.234 2.78082 -3.48692 0
M  V30 1306 C 119.935 2.03945 -5.44776 0
M  V30 1307 N 118.911 2.45323 -4.85095 0
M  V30 1308 H 122.713 0.911149 -2.7942 0
M  V30 1309 H 120.227 0.40684 -1.57221 0
M  V30 1310 H 122.224 3.3549 -2.47491 0
M  V30 1311 H 120.884 2.94244 -1.37298 0
M  V30 1312 H 121.895 1.75256 -4.87345 0
M  V30 1313 H 118.572 3.17002 -2.71691 0
M  V30 1314 H 119.962 1.72872 -6.4928 0
M  V30 1315 N 122.682 1.50554 0.465978 0
M  V30 1316 C 123.615 1.64436 1.58227 0
M  V30 1317 C 124.593 0.492367 1.54966 0
M  V30 1318 O 125.777 0.712536 1.74514 0
M  V30 1319 C 122.904 1.63165 2.96808 0
M  V30 1320 C 121.95 2.83987 3.18204 0
M  V30 1321 S 122.783 4.45219 2.97557 0
M  V30 1322 C 123.939 4.46649 4.3847 0
M  V30 1323 H 124.172 2.58861 1.46213 0
M  V30 1324 H 121.705 1.3988 0.653678 0
M  V30 1325 H 123.663 1.63116 3.76701 0
M  V30 1326 H 122.324 0.69967 3.06208 0
M  V30 1327 H 121.517 2.79416 4.19455 0
M  V30 1328 H 121.119 2.81629 2.46092 0
M  V30 1329 H 123.411 4.20526 5.31191 0
M  V30 1330 H 124.354 5.48295 4.48082 0
M  V30 1331 H 124.762 3.76296 4.20787 0
M  V30 1332 N 124.16 -0.719506 1.40217 0
M  V30 1333 C 125.09 -1.8465 1.42922 0
M  V30 1334 C 126.071 -1.67599 0.29062 0
M  V30 1335 O 127.256 -1.87688 0.498677 0
M  V30 1336 C 124.386 -3.22565 1.28722 0
M  V30 1337 C 123.34 -3.54281 2.40144 0
M  V30 1338 C 122.666 -4.91298 2.11023 0
M  V30 1339 C 123.966 -3.55676 3.82481 0
M  V30 1340 H 125.66 -1.82644 2.37237 0
M  V30 1341 H 123.206 -0.877305 1.1419 0
M  V30 1342 H 125.159 -4.01095 1.29232 0
M  V30 1343 H 123.883 -3.25137 0.308811 0
M  V30 1344 H 122.542 -2.78088 2.38877 0
M  V30 1345 H 122.19 -4.90468 1.11582 0
M  V30 1346 H 121.89 -5.13485 2.8567 0
M  V30 1347 H 123.414 -5.72166 2.13209 0
M  V30 1348 H 124.828 -4.24254 3.85592 0
M  V30 1349 H 123.225 -3.89388 4.56614 0
M  V30 1350 H 124.295 -2.55144 4.12346 0
M  V30 1351 N 125.638 -1.25649 -0.95132 0
M  V30 1352 C 126.57 -1.02112 -2.05197 0
M  V30 1353 C 127.583 0.0150571 -1.62793 0
M  V30 1354 O 128.772 -0.223874 -1.77091 0
M  V30 1355 C 125.872 -0.522361 -3.3485 0
M  V30 1356 C 125.045 -1.62546 -4.06076 0
M  V30 1357 C 124.104 -1.12649 -5.14001 0
M  V30 1358 O 123.13 -1.82156 -5.39266 0
M  V30 1359 N 124.332 0.03047 -5.80492 0
M  V30 1360 H 127.097 -1.96885 -2.25957 0
M  V30 1361 H 124.658 -1.16899 -1.1201 0
M  V30 1362 H 126.65 -0.172961 -4.0433 0
M  V30 1363 H 125.22 0.33151 -3.10837 0
M  V30 1364 H 124.44 -2.14628 -3.30649 0
M  V30 1365 H 125.728 -2.36644 -4.50419 0
M  V30 1366 H 125.126 0.611169 -5.62389 0
M  V30 1367 H 123.683 0.320875 -6.5101 0
M  V30 1368 N 127.117 1.15442 -1.07289 0
M  V30 1369 C 128.345 1.90096 -0.81676 0
M  V30 1370 C 128.76 1.7798 0.629966 0
M  V30 1371 O 128.117 1.1313 1.43206 0
M  V30 1372 C 128.168 3.40466 -1.21512 0
M  V30 1373 O 127.889 3.52232 -2.60508 0
M  V30 1374 C 129.39 4.32145 -0.988198 0
M  V30 1375 H 126.61 0.602495 -0.295366 0
M  V30 1376 H 129.154 1.4627 -1.42918 0
M  V30 1377 H 127.309 3.81958 -0.647039 0
M  V30 1378 H 127.723 4.45549 -2.76742 0
M  V30 1379 H 129.197 5.36072 -1.31645 0
M  V30 1380 H 129.674 4.39135 0.0755063 0
M  V30 1381 H 130.28 3.96395 -1.54115 0
M  V30 1382 N 128.595 0.856903 1.32268 0
M  V30 1383 C 129.542 0.301172 2.28827 0
M  V30 1384 C 130.512 -0.593104 1.5515 0
M  V30 1385 O 131.697 -0.527537 1.83362 0
M  V30 1386 C 128.837 -0.502523 3.41422 0
M  V30 1387 C 127.95 0.417797 4.29975 0
M  V30 1388 C 127.085 -0.398749 5.29701 0
M  V30 1389 C 126.124 0.518827 6.09897 0
M  V30 1390 N 125.261 -0.260674 7.01616 0
M  V30 1391 H 130.101 1.12983 2.75751 0
M  V30 1392 H 127.638 0.568582 1.35667 0
M  V30 1393 H 129.596 -0.984141 4.05426 0
M  V30 1394 H 128.226 -1.29599 2.95642 0
M  V30 1395 H 127.278 1.01781 3.66531 0
M  V30 1396 H 128.59 1.12191 4.86019 0
M  V30 1397 H 127.744 -0.943435 5.9932 0
M  V30 1398 H 126.483 -1.13622 4.7428 0
M  V30 1399 H 125.488 1.07538 5.39181 0
M  V30 1400 H 126.713 1.25495 6.67404 0
M  V30 1401 H 124.659 -0.981198 6.4862 0
M  V30 1402 H 124.576 0.384364 7.55022 0
M  V30 1403 H 125.844 -0.787014 7.75517 0
M  V30 1404 N 130.073 -1.45103 0.615059 0
M  V30 1405 C 131.322 -2.01396 0.110718 0
M  V30 1406 C 131.635 -1.48834 -1.26916 0
M  V30 1407 O 132.841 -1.97152 -1.86664 0
M  V30 1408 C 131.297 -3.59599 0.14723 0
M  V30 1409 C 130.905 -4.21158 1.52743 0
M  V30 1410 C 132.649 -4.23428 -0.30148 0
M  V30 1411 C 130.556 -5.71535 1.51992 0
M  V30 1412 H 129.486 -0.753061 0.0376241 0
M  V30 1413 H 132.137 -1.66494 0.77149 0
M  V30 1414 H 130.519 -3.91724 -0.580339 0
M  V30 1415 H 131.693 -4.00594 2.2773 0
M  V30 1416 H 130.008 -3.69552 1.91886 0
M  V30 1417 H 132.605 -5.33703 -0.326392 0
M  V30 1418 H 132.948 -3.94629 -1.32565 0
M  V30 1419 H 133.481 -3.96047 0.373065 0
M  V30 1420 H 130.22 -6.05044 2.52193 0
M  V30 1421 H 129.74 -5.94268 0.81274 0
M  V30 1422 H 131.419 -6.34873 1.24681 0
M  V30 1423 N 131.551 -0.354651 -1.53558 0
M  V30 1424 C 132.481 0.489091 -2.2832 0
M  V30 1425 C 133.462 1.09324 -1.30316 0
M  V30 1426 O 134.647 1.11255 -1.59173 0
M  V30 1427 C 131.777 1.63456 -3.0643 0
M  V30 1428 C 130.731 1.1582 -4.12031 0
M  V30 1429 C 130.057 2.39305 -4.7816 0
M  V30 1430 C 131.357 0.250731 -5.21698 0
M  V30 1431 H 133.051 -0.134614 -2.99097 0
M  V30 1432 H 130.597 -0.0661826 -1.43848 0
M  V30 1433 H 132.55 2.23136 -3.57475 0
M  V30 1434 H 131.274 2.28533 -2.33325 0
M  V30 1435 H 129.933 0.584146 -3.61916 0
M  V30 1436 H 129.581 3.02814 -4.01637 0
M  V30 1437 H 129.281 2.08109 -5.49513 0
M  V30 1438 H 130.805 2.99691 -5.31994 0
M  V30 1439 H 132.219 0.754695 -5.68311 0
M  V30 1440 H 130.616 0.0301468 -6.00092 0
M  V30 1441 H 131.686 -0.710125 -4.79672 0
M  V30 1442 N 133.029 1.57378 -0.0835403 0
M  V30 1443 C 134.277 1.93547 0.581718 0
M  V30 1444 C 134.598 0.96524 1.69435 0
M  V30 1445 O 133.868 0.0153369 1.95894 0
M  V30 1446 H 132.448 0.714521 0.217874 0
M  V30 1447 H 135.11 1.94366 -0.144158 0
M  V30 1448 H 134.206 2.95665 0.999423 0
M  V30 1449 N 134.507 -0.190092 1.56449 0
M  V30 1450 C 135.732 -0.929864 1.85387 0
M  V30 1451 C 136.157 -1.7585 0.667704 0
M  V30 1452 O 135.515 -1.77198 -0.383459 0
M  V30 1453 C 135.563 -1.79773 3.12593 0
M  V30 1454 O 134.667 -2.89713 2.93496 0
M  V30 1455 H 134.008 -0.261574 0.610307 0
M  V30 1456 H 136.538 -0.193896 2.03679 0
M  V30 1457 H 136.548 -2.20139 3.43515 0
M  V30 1458 H 135.223 -1.18892 3.98544 0
M  V30 1459 H 133.8 -2.53065 2.73884 0
M  V30 1460 N 135.985 -1.50799 -0.457987 0
M  V30 1461 C 137.262 -1.52968 -1.21902 0
M  V30 1462 C 137.642 -0.281906 -2.09209 0
M  V30 1463 O 136.99 0.734076 -2.16388 0
M  V30 1464 C 137.2 -2.8326 -2.03875 0
M  V30 1465 C 138.548 -3.34425 -2.6162 0
M  V30 1466 O 139.572 -2.8467 -2.14106 0
M  V30 1467 O 138.431 -4.21188 -3.48228 0
M  V30 1468 H 135.525 -0.614129 -0.553873 0
M  V30 1469 H 138.071 -1.63098 -0.468739 0
M  V30 1470 H 136.843 -3.65543 -1.39621 0
M  V30 1471 H 136.466 -2.76195 -2.8601 0
M  V30 1472 N 137.463 0.71206 -1.40597 0
M  V30 1473 C 138.879 1.02058 -1.22704 0
M  V30 1474 C 139.079 2.01228 -0.104729 0
M  V30 1475 O 138.135 2.4674 0.53624 0
M  V30 1476 C 139.448 1.56094 -2.57012 0
M  V30 1477 C 140.996 1.6806 -2.64054 0
M  V30 1478 C 141.471 2.25501 -3.9864 0
M  V30 1479 N 142.962 2.32882 -4.004 0
M  V30 1480 C 143.697 2.78317 -5.01325 0
M  V30 1481 N 143.193 3.23478 -6.12645 0
M  V30 1482 N 144.986 2.77733 -4.88693 0
M  V30 1483 H 137.137 0.0547896 -2.12329 0
M  V30 1484 H 139.4 0.0869027 -0.944008 0
M  V30 1485 H 139.106 0.906865 -3.39807 0
M  V30 1486 H 138.98 2.54564 -2.78347 0
M  V30 1487 H 141.367 2.32583 -1.81629 0
M  V30 1488 H 141.448 0.681802 -2.46546 0
M  V30 1489 H 141.092 1.61598 -4.81506 0
M  V30 1490 H 141.022 3.26102 -4.13479 0
M  V30 1491 H 143.513 2.00991 -3.20017 0
M  V30 1492 H 143.826 3.56725 -6.85542 0
M  V30 1493 H 142.171 3.21429 -6.16205 0
M  V30 1494 H 145.362 2.4179 -4.00818 0
M  V30 1495 H 145.535 3.12826 -5.67489 0
M  V30 1496 N 138.941 1.26152 0.944643 0
M  V30 1497 C 140.187 1.11657 1.69294 0
M  V30 1498 C 140.52 -0.339926 1.91202 0
M  V30 1499 O 139.795 -1.24994 1.49019 0
M  V30 1500 C 140.078 1.88236 3.06984 0
M  V30 1501 C 139.931 3.41772 2.92424 0
M  V30 1502 C 141.25 1.67343 4.07043 0
M  V30 1503 H 138.369 0.407004 0.614424 0
M  V30 1504 H 141.011 1.55106 1.09737 0
M  V30 1505 H 139.161 1.51308 3.57824 0
M  V30 1506 H 140.833 3.88433 2.48832 0
M  V30 1507 H 139.076 3.68974 2.28124 0
M  V30 1508 H 139.747 3.90579 3.90067 0
M  V30 1509 H 142.223 1.99509 3.65151 0
M  V30 1510 H 141.099 2.23346 5.01406 0
M  V30 1511 H 141.36 0.617158 4.37771 0
M  V30 1512 N 140.419 -1.14872 1.07899 0
M  V30 1513 C 141.366 -2.19791 0.704319 0
M  V30 1514 C 142.336 -1.63238 -0.306987 0
M  V30 1515 O 143.521 -1.8983 -0.192171 0
M  V30 1516 C 140.661 -3.44911 0.114244 0
M  V30 1517 C 139.774 -4.15637 1.1777 0
M  V30 1518 C 138.909 -5.28324 0.552037 0
M  V30 1519 C 137.948 -5.90875 1.59789 0
M  V30 1520 N 137.085 -6.95022 0.994404 0
M  V30 1521 H 141.925 -2.5119 1.60336 0
M  V30 1522 H 139.462 -1.23356 0.801352 0
M  V30 1523 H 141.42 -4.16477 -0.245544 0
M  V30 1524 H 140.05 -3.14011 -0.74813 0
M  V30 1525 H 139.102 -3.42512 1.65499 0
M  V30 1526 H 140.414 -4.5823 1.97046 0
M  V30 1527 H 139.568 -6.06538 0.1402 0
M  V30 1528 H 138.307 -4.86939 -0.272431 0
M  V30 1529 H 137.312 -5.11369 2.01945 0
M  V30 1530 H 138.537 -6.34337 2.42474 0
M  V30 1531 H 136.483 -6.55722 0.190939 0
M  V30 1532 H 136.4 -7.36073 1.72432 0
M  V30 1533 H 137.668 -7.77123 0.608253 0
M  V30 1534 N 141.898 -0.863906 -1.31812 0
M  V30 1535 C 142.828 -0.330843 -2.31144 0
M  V30 1536 C 143.809 0.575005 -1.60087 0
M  V30 1537 O 144.994 0.493304 -1.8783 0
M  V30 1538 C 142.124 0.47374 -3.44054 0
M  V30 1539 C 141.078 -0.338481 -4.26659 0
M  V30 1540 C 140.404 0.591412 -5.31419 0
M  V30 1541 C 141.704 -1.56926 -4.98168 0
M  V30 1542 H 143.398 -1.16086 -2.75979 0
M  V30 1543 H 140.944 -0.559657 -1.32679 0
M  V30 1544 H 142.897 0.857143 -4.12591 0
M  V30 1545 H 141.621 1.33721 -2.9797 0
M  V30 1546 H 140.28 -0.703754 -3.59782 0
M  V30 1547 H 139.928 1.45199 -4.81587 0
M  V30 1548 H 139.628 0.0519022 -5.87577 0
M  V30 1549 H 141.152 0.97179 -6.02817 0
M  V30 1550 H 142.566 -1.25764 -5.59336 0
M  V30 1551 H 140.963 -2.04739 -5.64094 0
M  V30 1552 H 142.033 -2.32544 -4.25501 0
M  V30 1553 N 143.376 1.44774 -0.622745 0
M  V30 1554 C 144.309 2.27792 0.136329 0
M  V30 1555 C 145.287 1.38041 0.859264 0
M  V30 1556 O 146.471 1.67478 0.86506 0
M  V30 1557 C 143.598 3.16776 1.19878 0
M  V30 1558 C 142.644 4.22575 0.57731 0
M  V30 1559 S 143.477 5.31825 -0.626294 0
M  V30 1560 C 144.633 6.24377 0.436378 0
M  V30 1561 H 144.866 2.91824 -0.567967 0
M  V30 1562 H 142.399 1.48838 -0.410677 0
M  V30 1563 H 144.357 3.68596 1.80686 0
M  V30 1564 H 143.018 2.5198 1.87523 0
M  V30 1565 H 142.211 4.84818 1.37721 0
M  V30 1566 H 141.813 3.73974 0.0440439 0
M  V30 1567 H 144.105 6.64689 1.31128 0
M  V30 1568 H 145.048 7.07941 -0.150271 0
M  V30 1569 H 145.456 5.59381 0.758513 0
M  V30 1570 N 144.854 0.36279 1.53368 0
M  V30 1571 C 145.764 -0.492994 2.29362 0
M  V30 1572 C 146.78 -1.09507 1.35219 0
M  V30 1573 O 147.956 -1.10662 1.68273 0
M  V30 1574 C 145.021 -1.61855 3.066 0
M  V30 1575 C 144.082 -1.04429 4.16405 0
M  V30 1576 C 143.315 -2.11621 4.89951 0
M  V30 1577 O 143.538 -3.32684 4.63333 0
M  V30 1578 O 142.472 -1.74835 5.75948 0
M  V30 1579 H 146.298 0.125331 3.03441 0
M  V30 1580 H 143.883 0.127253 1.48857 0
M  V30 1581 H 145.765 -2.27302 3.54841 0
M  V30 1582 H 144.44 -2.22233 2.3536 0
M  V30 1583 H 143.347 -0.353819 3.72423 0
M  V30 1584 H 144.68 -0.485113 4.89804 0
M  V30 1585 N 146.332 -1.57332 0.0918853 0
M  V30 1586 C 147.557 -1.98995 -0.584442 0
M  V30 1587 C 147.982 -0.970528 -1.61128 0
M  V30 1588 O 147.34 0.0613904 -1.81196 0
M  V30 1589 C 147.388 -3.39636 -1.21161 0
M  V30 1590 O 146.492 -3.40447 -2.32744 0
M  V30 1591 H 145.833 -0.647165 -0.148572 0
M  V30 1592 H 148.363 -2.03873 0.172347 0
M  V30 1593 H 148.373 -3.7726 -1.55367 0
M  V30 1594 H 147.048 -4.13356 -0.459313 0
M  V30 1595 H 145.625 -3.14614 -2.0018 0
M  V30 1596 N 147.81 0.181792 -1.56548 0
M  V30 1597 C 148.74 1.22765 -1.98623 0
M  V30 1598 C 149.721 1.46747 -0.860189 0
M  V30 1599 O 150.906 1.58259 -1.12551 0
M  V30 1600 C 148.036 2.56894 -2.33715 0
M  V30 1601 C 146.99 2.475 -3.49182 0
M  V30 1602 C 146.316 3.86023 -3.69986 0
M  V30 1603 C 147.616 1.98866 -4.82959 0
M  V30 1604 H 149.31 0.877942 -2.86239 0
M  V30 1605 H 146.856 0.42088 -1.37712 0
M  V30 1606 H 148.809 3.30253 -2.61746 0
M  V30 1607 H 147.533 2.93632 -1.42997 0
M  V30 1608 H 146.192 1.76596 -3.21262 0
M  V30 1609 H 145.84 4.20136 -2.76576 0
M  V30 1610 H 145.54 3.80609 -4.47672 0
M  V30 1611 H 147.064 4.60984 -4.00407 0
M  V30 1612 H 148.478 2.61992 -5.09934 0
M  V30 1613 H 146.875 2.04424 -5.64208 0
M  V30 1614 H 147.945 0.942465 -4.75653 0
M  V30 1615 N 149.288 1.51039 0.449983 0
M  V30 1616 C 150.534 1.63322 1.20223 0
M  V30 1617 C 150.867 0.34241 1.91158 0
M  V30 1618 O 150.142 -0.657344 1.83055 0
M  V30 1619 C 150.425 2.82801 2.22925 0
M  V30 1620 C 150.278 4.21823 1.56157 0
M  V30 1621 C 151.597 2.97807 3.24035 0
M  V30 1622 H 148.716 0.594407 0.435718 0
M  V30 1623 H 151.358 1.83489 0.493136 0
M  V30 1624 H 149.508 2.65738 2.834 0
M  V30 1625 H 151.18 4.50526 0.991162 0
M  V30 1626 H 149.423 4.25105 0.864172 0
M  V30 1627 H 150.094 5.01391 2.30891 0
M  V30 1628 H 152.57 3.13497 2.73603 0
M  V30 1629 H 151.446 3.82992 3.93202 0
M  V30 1630 H 151.707 2.09328 3.89402 0
M  V30 1631 N 150.766 -0.704594 1.40972 0
M  V30 1632 C 152.012 -1.46675 1.40051 0
M  V30 1633 C 152.345 -1.94199 0.00641102 0
M  V30 1634 O 151.62 -1.68916 -0.964235 0
M  V30 1635 C 151.903 -2.68505 2.39952 0
M  V30 1636 C 151.756 -2.26805 3.88432 0
M  V30 1637 C 153.075 -3.70686 2.37233 0
M  V30 1638 H 150.194 -0.532015 0.510028 0
M  V30 1639 H 152.836 -0.803255 1.72185 0
M  V30 1640 H 150.986 -3.25114 2.1268 0
M  V30 1641 H 152.658 -1.75592 4.26574 0
M  V30 1642 H 150.901 -1.58685 4.03734 0
M  V30 1643 H 151.572 -3.14181 4.53866 0
M  V30 1644 H 154.048 -3.23731 2.61415 0
M  V30 1645 H 152.924 -4.53553 3.09162 0
M  V30 1646 H 153.185 -4.19754 1.38777 0
M  V30 1647 N 152.244 -1.26651 -0.937939 0
M  V30 1648 C 153.492 -1.12165 -1.68118 0
M  V30 1649 C 153.813 0.334983 -1.92101 0
M  V30 1650 O 153.083 1.23583 -1.52 0
M  V30 1651 H 151.663 -0.412093 -0.623048 0
M  V30 1652 H 154.325 -1.59027 -1.12678 0
M  V30 1653 H 153.421 -1.64289 -2.6536 0
M  V30 1654 N 153.722 1.14298 -1.08507 0
M  V30 1655 C 154.999 1.81544 -0.728088 0
M  V30 1656 C 155.379 1.95838 0.78808 0
M  V30 1657 O 154.727 1.51904 1.70697 0
M  V30 1658 C 154.937 3.17169 -1.45619 0
M  V30 1659 C 156.285 3.9265 -1.61591 0
M  V30 1660 O 157.309 3.26762 -1.41793 0
M  V30 1661 O 156.168 5.10807 -1.94263 0
M  V30 1662 H 153.262 0.78491 -0.260471 0
M  V30 1663 H 155.808 1.21307 -1.18671 0
M  V30 1664 H 154.58 3.01934 -2.489 0
M  V30 1665 H 154.203 3.851 -0.989124 0
M  V30 1666 N 155.201 0.870884 1.31352 0
M  V30 1667 C 156.45 0.478408 1.95944 0
M  V30 1668 C 156.763 -0.974493 1.69597 0
M  V30 1669 O 157.969 -1.47316 2.28058 0
M  V30 1670 C 156.425 0.804609 3.50791 0
M  V30 1671 C 156.033 2.27433 3.85977 0
M  V30 1672 C 157.777 0.480648 4.2177 0
M  V30 1673 C 155.684 2.5429 5.33939 0
M  V30 1674 H 154.614 0.175175 0.733369 0
M  V30 1675 H 157.265 1.06391 1.4951 0
M  V30 1676 H 155.647 0.148347 3.95722 0
M  V30 1677 H 156.821 2.97373 3.52002 0
M  V30 1678 H 155.136 2.56442 3.28065 0
M  V30 1679 H 157.733 0.658519 5.30629 0
M  V30 1680 H 158.076 -0.578979 4.12254 0
M  V30 1681 H 158.609 1.09349 3.82476 0
M  V30 1682 H 155.348 3.58939 5.48491 0
M  V30 1683 H 154.868 1.88945 5.69263 0
M  V30 1684 H 156.547 2.39066 6.01212 0
M  V30 1685 N 156.679 -1.44442 0.630414 0
M  V30 1686 C 157.642 -2.29107 -0.0652523 0
M  V30 1687 C 158.642 -1.41002 -0.772995 0
M  V30 1688 O 159.832 -1.62881 -0.617692 0
M  V30 1689 C 156.964 -3.22564 -1.10296 0
M  V30 1690 H 158.157 -2.92103 0.679401 0
M  V30 1691 H 155.71 -1.51343 0.390517 0
M  V30 1692 H 156.445 -2.64416 -1.87762 0
M  V30 1693 H 156.23 -3.87491 -0.59941 0
M  V30 1694 H 157.72 -3.86167 -1.5895 0
M  V30 1695 N 158.157 -0.370918 -1.53173 0
M  V30 1696 C 159.067 0.480823 -2.2962 0
M  V30 1697 C 160.083 1.08789 -1.35798 0
M  V30 1698 O 161.259 1.09768 -1.68858 0
M  V30 1699 C 158.324 1.60227 -3.07454 0
M  V30 1700 C 157.385 1.0222 -4.16953 0
M  V30 1701 C 156.618 2.0902 -4.91066 0
M  V30 1702 O 156.841 3.30222 -4.65091 0
M  V30 1703 O 155.775 1.71778 -5.76867 0
M  V30 1704 H 159.601 -0.141421 -3.03371 0
M  V30 1705 H 157.186 -0.135146 -1.48787 0
M  V30 1706 H 159.068 2.25417 -3.56041 0
M  V30 1707 H 157.743 2.20982 -2.36535 0
M  V30 1708 H 156.65 0.334064 -3.72605 0
M  V30 1709 H 157.983 0.459131 -4.90054 0
M  V30 1710 N 159.635 1.57281 -0.100228 0
M  V30 1711 C 160.565 2.17328 0.853857 0
M  V30 1712 C 161.546 1.10804 1.2906 0
M  V30 1713 O 162.731 1.38963 1.35657 0
M  V30 1714 C 159.861 2.75772 2.11109 0
M  V30 1715 C 158.815 3.87713 1.81279 0
M  V30 1716 C 158.141 4.32882 3.13874 0
M  V30 1717 C 159.441 5.10677 1.09574 0
M  V30 1718 H 161.135 2.97305 0.353545 0
M  V30 1719 H 158.681 1.43009 0.168612 0
M  V30 1720 H 160.634 3.16433 2.78296 0
M  V30 1721 H 159.358 1.93057 2.63432 0
M  V30 1722 H 158.017 3.476 1.16489 0
M  V30 1723 H 157.665 3.47051 3.64095 0
M  V30 1724 H 157.365 5.08358 2.94696 0
M  V30 1725 H 158.889 4.7618 3.82211 0
M  V30 1726 H 160.303 5.48474 1.66879 0
M  V30 1727 H 158.7 5.91615 1.00557 0
M  V30 1728 H 159.77 4.84835 0.0793299 0
M  V30 1729 N 161.113 -0.173488 1.56642 0
M  V30 1730 C 162.529 -0.525174 1.50712 0
M  V30 1731 C 162.729 -1.8476 0.804107 0
M  V30 1732 O 161.785 -2.49869 0.363574 0
M  V30 1733 C 163.098 -0.559937 2.95441 0
M  V30 1734 C 164.646 -0.647288 3.06234 0
M  V30 1735 C 165.121 -0.712963 4.52417 0
M  V30 1736 N 166.612 -0.775911 4.56655 0
M  V30 1737 C 167.347 -0.847264 5.67106 0
M  V30 1738 N 166.843 -0.879585 6.87194 0
M  V30 1739 N 168.636 -0.886117 5.55071 0
M  V30 1740 H 160.787 0.693681 2.00753 0
M  V30 1741 H 163.05 0.249841 0.914485 0
M  V30 1742 H 162.756 0.343049 3.50023 0
M  V30 1743 H 162.63 -1.40718 3.49969 0
M  V30 1744 H 165.017 -1.5407 2.51687 0
M  V30 1745 H 165.098 0.226586 2.54794 0
M  V30 1746 H 164.742 0.176183 5.07594 0
M  V30 1747 H 164.672 -1.60295 5.0161 0
M  V30 1748 H 167.163 -0.759304 3.70193 0
M  V30 1749 H 167.476 -0.935144 7.67121 0
M  V30 1750 H 165.821 -0.847898 6.89808 0
M  V30 1751 H 169.012 -0.857853 4.60172 0
M  V30 1752 H 169.185 -0.938263 6.41171 0
M  V30 1753 N 162.591 -1.51276 -0.441967 0
M  V30 1754 C 164.002 -1.56244 -1.02199 0
M  V30 1755 C 164.353 -0.383149 -1.92422 0
M  V30 1756 O 163.478 0.500613 -2.1053 0
M  V30 1757 C 164.073 -2.83162 -1.86024 0
M  V30 1758 C 162.632 -2.90716 -2.39084 0
M  V30 1759 C 161.779 -2.50858 -1.18175 0
M  V30 1760 H 164.73 -1.5712 -0.223416 0
M  V30 1761 H 164.751 -2.66663 -2.71425 0
M  V30 1762 H 164.263 -3.68974 -1.20331 0
M  V30 1763 H 162.364 -2.09323 -3.08244 0
M  V30 1764 H 162.477 -3.94266 -2.72198 0
M  V30 1765 H 160.841 -2.03951 -1.52565 0
M  V30 1766 H 161.624 -3.3901 -0.541001 0
M  V30 1767 N 164.069 0.697108 -1.41344 0
M  V30 1768 C 165.017 1.83237 -1.43272 0
M  V30 1769 C 166.011 1.66522 -0.310947 0
M  V30 1770 O 167.217 1.73402 -0.482899 0
M  V30 1771 H 163.592 0.603802 -0.448249 0
M  V30 1772 H 165.563 1.78727 -2.38954 0
M  V30 1773 C 164.312 3.21245 -1.33029 0
M  V30 1774 H 163.635 3.34723 -2.18633 0
M  V30 1775 H 165.075 4.00763 -1.38439 0
M  V30 1776 C 163.534 3.36873 -0.0424635 0
M  V30 1777 O 164.064 3.91177 0.913421 0
M  V30 1778 N 162.27 2.90581 0.0331145 0
M  V30 1779 H 161.817 2.46577 -0.745506 0
M  V30 1780 H 161.775 3.01416 0.894199 0
M  V30 1781 N 165.547 1.27147 0.931209 0
M  V30 1782 C 166.479 1.05364 2.03546 0
M  V30 1783 C 167.492 0.0108438 1.62796 0
M  V30 1784 O 168.681 0.25202 1.76712 0
M  V30 1785 C 165.781 0.575566 3.33977 0
M  V30 1786 C 164.954 1.68985 4.03439 0
M  V30 1787 C 164.013 1.20813 5.12143 0
M  V30 1788 O 163.039 1.90712 5.363 0
M  V30 1789 N 164.241 0.0618851 5.80467 0
M  V30 1790 H 167.006 2.00454 2.22796 0
M  V30 1791 H 164.567 1.18666 1.10136 0
M  V30 1792 H 166.559 0.237264 4.04004 0
M  V30 1793 H 165.129 -0.282016 3.11325 0
M  V30 1794 H 164.349 2.19861 3.27192 0
M  V30 1795 H 165.637 2.4378 4.46597 0
M  V30 1796 H 165.035 -0.521621 5.6329 0
M  V30 1797 H 163.592 -0.217264 6.51438 0
M  V30 1798 N 167.025 -1.13721 1.09112 0
M  V30 1799 C 168.273 -1.84559 0.823562 0
M  V30 1800 C 168.594 -1.83754 -0.652658 0
M  V30 1801 O 167.864 -1.29102 -1.47342 0
M  V30 1802 H 166.444 -0.683376 0.301673 0
M  V30 1803 H 169.106 -1.37771 1.37859 0
M  V30 1804 H 168.202 -2.8917 1.17419 0
M  V30 1805 N 168.503 -0.877838 -1.30888 0
M  V30 1806 C 169.731 -0.507414 -2.00581 0
M  V30 1807 C 170.146 0.902216 -1.65848 0
M  V30 1808 O 169.503 1.59225 -0.891831 0
M  V30 1809 C 169.554 -0.664162 -3.55347 0
M  V30 1810 O 169.275 -2.01829 -3.8884 0
M  V30 1811 C 170.776 -0.295787 -4.42312 0
M  V30 1812 H 167.996 -0.196866 -0.641471 0
M  V30 1813 H 170.54 -1.18117 -1.66939 0
M  V30 1814 H 168.695 -0.0378619 -3.87381 0
M  V30 1815 H 169.109 -2.03174 -4.8355 0
M  V30 1816 H 170.583 -0.456388 -5.5011 0
M  V30 1817 H 171.06 0.765663 -4.32475 0
M  V30 1818 H 171.666 -0.898113 -4.15709 0
M  V30 1819 N 169.982 1.44106 -0.638065 0
M  V30 1820 C 170.912 2.33448 0.0494287 0
M  V30 1821 C 171.893 1.48606 0.827672 0
M  V30 1822 O 173.078 1.77308 0.792173 0
M  V30 1823 C 170.208 3.31771 1.02691 0
M  V30 1824 C 169.162 4.26485 0.359823 0
M  V30 1825 C 168.488 5.14729 1.44769 0
M  V30 1826 C 169.788 5.17056 -0.738296 0
M  V30 1827 H 171.482 2.91183 -0.696636 0
M  V30 1828 H 169.028 1.40014 -0.336456 0
M  V30 1829 H 170.981 3.93161 1.51666 0
M  V30 1830 H 169.705 2.7226 1.80395 0
M  V30 1831 H 168.364 3.66437 -0.10934 0
M  V30 1832 H 168.012 4.51566 2.21578 0
M  V30 1833 H 167.712 5.78913 1.00668 0
M  V30 1834 H 169.236 5.78991 1.93911 0
M  V30 1835 H 170.65 5.72342 -0.331354 0
M  V30 1836 H 169.047 5.89879 -1.10286 0
M  V30 1837 H 170.117 4.57652 -1.60258 0
M  V30 1838 N 171.46 0.379036 1.52974 0
M  V30 1839 C 172.685 -0.209353 2.06341 0
M  V30 1840 C 173.11 -1.40583 1.24972 0
M  V30 1841 O 172.468 -1.79246 0.272155 0
M  V30 1842 C 172.516 -0.567786 3.56102 0
M  V30 1843 O 171.62 -1.66318 3.77375 0
M  V30 1844 H 170.961 -0.0272919 0.663439 0
M  V30 1845 H 173.491 0.543536 1.97248 0
M  V30 1846 H 173.501 -0.835003 3.99364 0
M  V30 1847 H 172.176 0.307013 4.14765 0
M  V30 1848 H 170.753 -1.39048 3.46006 0
M  V30 1849 N 172.938 -1.57226 0.108567 0
M  V30 1850 C 173.868 -2.17778 -0.84232 0
M  V30 1851 C 174.849 -1.11487 -1.2847 0
M  V30 1852 O 176.034 -1.39681 -1.34918 0
M  V30 1853 C 173.164 -2.76888 -2.09644 0
M  V30 1854 C 172.118 -3.88669 -1.79221 0
M  V30 1855 C 171.444 -4.34541 -3.11574 0
M  V30 1856 C 172.744 -5.11251 -1.06864 0
M  V30 1857 H 174.438 -2.97489 -0.337774 0
M  V30 1858 H 171.984 -1.43097 -0.161025 0
M  V30 1859 H 173.937 -3.17904 -2.76614 0
M  V30 1860 H 172.661 -1.94451 -2.62405 0
M  V30 1861 H 171.32 -3.48213 -1.14644 0
M  V30 1862 H 170.968 -3.48977 -3.62249 0
M  V30 1863 H 170.668 -5.09914 -2.91996 0
M  V30 1864 H 172.192 -4.782 -3.7968 0
M  V30 1865 H 173.606 -5.49352 -1.63968 0
M  V30 1866 H 172.003 -5.9214 -0.974178 0
M  V30 1867 H 173.073 -4.8487 -0.0536168 0
M  V30 1868 N 174.416 0.165178 -1.56732 0
M  V30 1869 C 175.663 0.880807 -1.8234 0
M  V30 1870 C 175.991 1.81977 -0.686621 0
M  V30 1871 O 175.246 1.92971 0.325697 0
M  V30 1872 C 175.545 1.70405 -3.1416 0
M  V30 1873 C 175.211 0.913475 -4.4155 0
M  V30 1874 C 173.873 0.695303 -4.7615 0
M  V30 1875 C 176.225 0.359349 -5.1996 0
M  V30 1876 C 173.553 -0.0879947 -5.86634 0
M  V30 1877 C 175.905 -0.410893 -6.31264 0
M  V30 1878 C 174.569 -0.639808 -6.64427 0
M  V30 1879 H 173.839 0.32231 -0.667231 0
M  V30 1880 H 176.486 0.145402 -1.90947 0
M  V30 1881 H 174.791 2.50903 -3.00923 0
M  V30 1882 H 176.488 2.26091 -3.31186 0
M  V30 1883 H 173.078 1.09357 -4.14414 0
M  V30 1884 H 177.262 0.515228 -4.93618 0
M  V30 1885 H 172.518 -0.27503 -6.10781 0
M  V30 1886 H 176.692 -0.847494 -6.91224 0
M  V30 1887 H 174.319 -1.24864 -7.49875 0
M  V30 1888 N 175.894 1.51508 0.433938 0
M  V30 1889 C 177.122 1.68157 1.20543 0
M  V30 1890 C 177.537 0.380362 1.84929 0
M  V30 1891 O 176.894 -0.641446 1.70856 0
M  V30 1892 C 176.945 2.79965 2.28696 0
M  V30 1893 O 176.666 4.05045 1.66943 0
M  V30 1894 C 178.167 3.07912 3.18912 0
M  V30 1895 H 175.387 0.56421 0.363191 0
M  V30 1896 H 177.931 1.97941 0.513754 0
M  V30 1897 H 176.086 2.5277 2.93574 0
M  V30 1898 H 176.5 4.67165 2.38448 0
M  V30 1899 H 177.974 3.89719 3.90926 0
M  V30 1900 H 178.451 2.20456 3.79863 0
M  V30 1901 H 179.057 3.36779 2.59731 0
M  V30 1902 N 177.372 -0.689602 1.41712 0
M  V30 1903 C 178.32 -1.82475 1.44242 0
M  V30 1904 C 179.314 -1.66354 0.319774 0
M  V30 1905 O 180.52 -1.73143 0.492089 0
M  V30 1906 H 176.895 -0.601416 0.451445 0
M  V30 1907 H 178.866 -1.77458 2.39899 0
M  V30 1908 C 177.615 -3.20535 1.3473 0
M  V30 1909 H 176.938 -3.33559 2.20405 0
M  V30 1910 H 178.378 -4.00023 1.40562 0
M  V30 1911 C 176.837 -3.36846 0.0603281 0
M  V30 1912 O 177.367 -3.91656 -0.892663 0
M  V30 1913 N 175.573 -2.90595 -0.0177039 0
M  V30 1914 H 175.12 -2.46178 0.758572 0
M  V30 1915 H 175.078 -3.01886 -0.878201 0
M  V30 1916 N 178.85 -1.27639 -0.924453 0
M  V30 1917 C 179.76 -1.12466 -2.05885 0
M  V30 1918 C 180.776 -0.053869 -1.73917 0
M  V30 1919 O 181.952 -0.261012 -1.99702 0
M  V30 1920 C 179.017 -0.776768 -3.37886 0
M  V30 1921 C 178.078 -1.92878 -3.83532 0
M  V30 1922 C 177.311 -1.59739 -5.09234 0
M  V30 1923 O 177.534 -0.506782 -5.68144 0
M  V30 1924 O 176.468 -2.43761 -5.50331 0
M  V30 1925 H 180.294 -2.07671 -2.21599 0
M  V30 1926 H 177.879 -1.06857 -1.04413 0
M  V30 1927 H 179.761 -0.596229 -4.17161 0
M  V30 1928 H 178.436 0.145732 -3.23372 0
M  V30 1929 H 177.343 -2.1644 -3.0513 0
M  V30 1930 H 178.676 -2.8316 -4.02593 0
M  V30 1931 N 180.328 1.1314 -1.09713 0
M  V30 1932 C 181.291 2.16831 -0.742751 0
M  V30 1933 C 182.291 1.59159 0.229129 0
M  V30 1934 O 183.481 1.74199 0.00693237 0
M  V30 1935 C 180.613 3.40756 -0.0989168 0
M  V30 1936 H 181.806 2.49695 -1.66109 0
M  V30 1937 H 179.359 1.2802 -0.896699 0
M  V30 1938 H 180.094 3.13485 0.830514 0
M  V30 1939 H 179.879 3.83888 -0.798265 0
M  V30 1940 H 181.369 4.17386 0.133524 0
M  V30 1941 N 181.806 0.884767 1.30421 0
M  V30 1942 C 183.054 0.502112 1.95763 0
M  V30 1943 C 183.375 -0.951815 1.70192 0
M  V30 1944 O 182.645 -1.6692 1.0254 0
M  V30 1945 H 181.225 0.182694 0.724315 0
M  V30 1946 H 183.887 1.1278 1.58955 0
M  V30 1947 H 182.983 0.672188 3.04775 0
M  V30 1948 N 183.284 -1.43765 0.645699 0
M  V30 1949 C 184.532 -2.01499 0.155731 0
M  V30 1950 C 184.853 -1.51151 -1.232 0
M  V30 1951 O 184.123 -0.721044 -1.82148 0
M  V30 1952 H 182.703 -0.745003 0.0545817 0
M  V30 1953 H 185.365 -1.76075 0.835677 0
M  V30 1954 H 184.461 -3.1181 0.134577 0
M  V30 1955 N 184.763 -0.387143 -1.52771 0
M  V30 1956 C 186.012 0.19697 -2.00736 0
M  V30 1957 C 186.325 1.48082 -1.27793 0
M  V30 1958 O 187.531 2.14485 -1.66458 0
M  V30 1959 C 185.987 0.401568 -3.57653 0
M  V30 1960 C 185.595 -0.868907 -4.39493 0
M  V30 1961 C 187.339 0.942164 -4.13912 0
M  V30 1962 C 185.246 -0.632705 -5.88006 0
M  V30 1963 H 184.176 0.0773827 -0.750019 0
M  V30 1964 H 186.827 -0.50921 -1.76293 0
M  V30 1965 H 185.209 1.16954 -3.78335 0
M  V30 1966 H 186.383 -1.64133 -4.30577 0
M  V30 1967 H 184.698 -1.33429 -3.94443 0
M  V30 1968 H 187.295 1.13455 -5.22525 0
M  V30 1969 H 187.638 1.9106 -3.69867 0
M  V30 1970 H 188.171 0.233814 -3.97112 0
M  V30 1971 H 184.91 -1.57208 -6.36369 0
M  V30 1972 H 184.43 0.100825 -5.99715 0
M  V30 1973 H 186.109 -0.26642 -6.46451 0
M  V30 1974 N 186.241 1.57166 -0.116904 0
M  V30 1975 C 187.171 2.18222 0.830759 0
M  V30 1976 C 188.152 1.12167 1.27877 0
M  V30 1977 O 189.337 1.40394 1.34176 0
M  V30 1978 C 186.467 2.77996 2.08172 0
M  V30 1979 C 185.421 3.89614 1.77157 0
M  V30 1980 C 184.747 4.36187 3.09265 0
M  V30 1981 C 186.047 5.1181 1.04151 0
M  V30 1982 H 187.741 2.97664 0.321992 0
M  V30 1983 H 185.287 1.4318 0.153434 0
M  V30 1984 H 187.24 3.19366 2.74924 0
M  V30 1985 H 185.964 1.9584 2.6137 0
M  V30 1986 H 184.623 3.48816 1.12796 0
M  V30 1987 H 184.271 3.50893 3.60393 0
M  V30 1988 H 183.971 5.11455 2.89288 0
M  V30 1989 H 185.495 4.80207 3.77139 0
M  V30 1990 H 186.909 5.50214 1.61052 0
M  V30 1991 H 185.306 5.92648 0.942762 0
M  V30 1992 H 186.376 4.84892 0.0279022 0
M  V30 1993 N 187.719 -0.156864 1.56817 0
M  V30 1994 C 188.996 -0.899244 1.73704 0
M  V30 1995 C 189.376 -1.99771 0.682254 0
M  V30 1996 O 188.724 -2.26515 -0.300522 0
M  V30 1997 C 188.934 -1.45075 3.17418 0
M  V30 1998 C 190.282 -1.91802 3.7881 0
M  V30 1999 O 191.306 -1.54838 3.20786 0
M  V30 2000 O 190.165 -2.5994 4.80722 0
M  V30 2001 H 187.259 -0.424267 0.709878 0
M  V30 2002 H 189.805 -0.143561 1.69092 0
M  V30 2003 H 188.577 -0.660846 3.85679 0
M  V30 2004 H 188.2 -2.27021 3.26416 0
M  V30 2005 N 189.197 -1.51736 -0.425897 0
M  V30 2006 C 190.474 -1.55519 -1.1863 0
M  V30 2007 C 190.854 -0.326219 -2.08564 0
M  V30 2008 O 190.202 0.688012 -2.17896 0
M  V30 2009 C 190.412 -2.87521 -1.9782 0
M  V30 2010 C 191.76 -3.39899 -2.54468 0
M  V30 2011 O 192.784 -2.89148 -2.08019 0
M  V30 2012 O 191.643 -4.2848 -3.39215 0
M  V30 2013 H 188.737 -0.625739 -0.540721 0
M  V30 2014 H 191.283 -1.64055 -0.434038 0
M  V30 2015 H 190.055 -3.68422 -1.31836 0
M  V30 2016 H 189.678 -2.822 -2.80088 0
M  V30 2017 N 190.675 0.682077 -1.42076 0
M  V30 2018 C 191.605 1.80796 -1.47767 0
M  V30 2019 C 192.586 1.6677 -0.334954 0
M  V30 2020 O 193.771 1.863 -0.548264 0
M  V30 2021 C 190.901 3.19038 -1.37229 0
M  V30 2022 C 189.855 3.47789 -2.49453 0
M  V30 2023 C 189.181 4.8553 -2.23975 0
M  V30 2024 C 190.481 3.45411 -3.91776 0
M  V30 2025 H 192.175 1.7629 -2.41997 0
M  V30 2026 H 189.721 0.846721 -1.16476 0
M  V30 2027 H 191.674 3.97528 -1.39821 0
M  V30 2028 H 190.398 3.24204 -0.394907 0
M  V30 2029 H 189.057 2.71657 -2.46166 0
M  V30 2030 H 188.705 4.87337 -1.24547 0
M  V30 2031 H 188.405 5.0573 -2.99184 0
M  V30 2032 H 189.929 5.66312 -2.28304 0
M  V30 2033 H 191.343 4.13882 -3.96705 0
M  V30 2034 H 189.74 3.77145 -4.66778 0
M  V30 2035 H 190.81 2.44122 -4.18966 0
M  V30 2036 N 192.153 1.28127 0.917671 0
M  V30 2037 C 193.402 1.14432 1.66097 0
M  V30 2038 C 193.715 -0.307247 1.93172 0
M  V30 2039 O 194.921 -0.565259 2.65551 0
M  V30 2040 C 193.377 2.00015 2.99202 0
M  V30 2041 C 192.985 3.49889 2.79789 0
M  V30 2042 C 194.729 1.94996 3.77064 0
M  V30 2043 C 192.636 4.27636 4.08511 0
M  V30 2044 H 191.566 0.424662 0.62304 0
M  V30 2045 H 194.217 1.52628 1.01868 0
M  V30 2046 H 192.599 1.54672 3.64544 0
M  V30 2047 H 193.773 4.03162 2.23152 0
M  V30 2048 H 192.088 3.56392 2.15345 0
M  V30 2049 H 194.685 2.50354 4.72469 0
M  V30 2050 H 195.028 0.925819 4.05875 0
M  V30 2051 H 195.561 2.38287 3.18534 0
M  V30 2052 H 192.3 5.30615 3.84874 0
M  V30 2053 H 191.82 3.79137 4.64774 0
M  V30 2054 H 193.499 4.37346 4.76799 0
M  V30 2055 N 193.631 -1.12557 1.10312 0
M  V30 2056 C 194.877 -1.84311 0.846011 0
M  V30 2057 C 195.21 -1.83805 -0.626859 0
M  V30 2058 O 194.485 -1.28268 -1.46211 0
M  V30 2059 C 194.768 -3.32048 1.39341 0
M  V30 2060 C 194.621 -3.41016 2.93305 0
M  V30 2061 C 195.94 -4.27764 1.03468 0
M  V30 2062 H 193.059 -0.669192 0.30879 0
M  V30 2063 H 195.701 -1.32057 1.36605 0
M  V30 2064 H 193.851 -3.76678 0.951087 0
M  V30 2065 H 195.523 -3.05031 3.46055 0
M  V30 2066 H 193.766 -2.81603 3.29973 0
M  V30 2067 H 194.437 -4.44948 3.26689 0
M  V30 2068 H 196.913 -3.91253 1.41633 0
M  V30 2069 H 195.789 -5.29549 1.44463 0
M  V30 2070 H 196.05 -4.42064 -0.0560404 0
M  V30 2071 N 195.109 -0.891671 -1.2995 0
M  V30 2072 C 196.337 -0.52866 -2.00032 0
M  V30 2073 C 196.752 0.884574 -1.66795 0
M  V30 2074 O 196.109 1.5827 -0.908669 0
M  V30 2075 C 196.16 -0.701814 -3.54622 0
M  V30 2076 O 195.881 -2.05942 -3.86678 0
M  V30 2077 C 197.382 -0.342683 -4.41973 0
M  V30 2078 H 194.602 -0.203659 -0.639347 0
M  V30 2079 H 197.146 -1.19881 -1.65677 0
M  V30 2080 H 195.301 -0.0789468 -3.8732 0
M  V30 2081 H 195.715 -2.08291 -4.81368 0
M  V30 2082 H 197.189 -0.514709 -5.49595 0
M  V30 2083 H 197.666 0.71975 -4.33262 0
M  V30 2084 H 198.272 -0.942154 -4.14733 0
M  V30 2085 N 196.587 1.43421 -0.653314 0
M  V30 2086 C 197.535 2.32546 0.0501531 0
M  V30 2087 C 198.529 1.48617 0.812985 0
M  V30 2088 O 199.735 1.64825 0.723375 0
M  V30 2089 H 196.11 0.751185 0.0350032 0
M  V30 2090 H 198.081 2.89602 -0.719261 0
M  V30 2091 C 196.83 3.32925 1.00279 0
M  V30 2092 H 196.153 3.97532 0.425236 0
M  V30 2093 H 197.593 3.9792 1.46409 0
M  V30 2094 C 196.052 2.63532 2.09886 0
M  V30 2095 O 196.582 2.45092 3.18265 0
M  V30 2096 N 194.788 2.22905 1.86445 0
M  V30 2097 H 194.335 2.38103 0.98309 0
M  V30 2098 H 194.293 1.76805 2.59976 0
M  V30 2099 N 198.065 0.39524 1.52563 0
M  V30 2100 C 199.293 -0.184943 2.06072 0
M  V30 2101 C 199.708 -1.40021 1.26647 0
M  V30 2102 O 199.065 -1.79767 0.314672 0
M  V30 2103 C 199.116 -0.549179 3.57304 0
M  V30 2104 O 198.837 0.617813 4.33722 0
M  V30 2105 C 200.338 -1.18459 4.2718 0
M  V30 2106 H 197.558 -0.0265025 0.670476 0
M  V30 2107 H 200.102 0.562184 1.96621 0
M  V30 2108 H 198.257 -1.2462 3.66809 0
M  V30 2109 H 198.671 0.317091 5.23541 0
M  V30 2110 H 200.145 -1.38976 5.34219 0
M  V30 2111 H 200.622 -2.15368 3.82771 0
M  V30 2112 H 201.228 -0.528163 4.22008 0
M  V30 2113 N 199.544 -1.57102 0.125237 0
M  V30 2114 C 200.769 -2.0019 -0.542101 0
M  V30 2115 C 201.194 -1.00449 -1.59034 0
M  V30 2116 O 200.552 0.0229423 -1.81285 0
M  V30 2117 C 200.6 -3.42129 -1.13929 0
M  V30 2118 O 199.704 -3.45307 -2.2547 0
M  V30 2119 H 199.045 -0.650171 -0.134812 0
M  V30 2120 H 201.575 -2.03461 0.215553 0
M  V30 2121 H 201.585 -3.80471 -1.4733 0
M  V30 2122 H 200.26 -4.14237 -0.371531 0
M  V30 2123 H 198.837 -3.1879 -1.93462 0
M  V30 2124 N 201.022 0.148545 -1.56898 0
M  V30 2125 C 201.932 1.20293 -2.01412 0
M  V30 2126 C 202.948 1.47107 -0.929273 0
M  V30 2127 O 204.124 1.58807 -1.23863 0
M  V30 2128 C 201.189 2.51682 -2.38447 0
M  V30 2129 C 200.25 2.32529 -3.60872 0
M  V30 2130 C 199.483 3.57653 -3.96132 0
M  V30 2131 O 199.706 4.63771 -3.32073 0
M  V30 2132 O 198.64 3.50408 -4.89385 0
M  V30 2133 H 202.466 0.855025 -2.91416 0
M  V30 2134 H 200.051 0.357151 -1.45068 0
M  V30 2135 H 201.933 3.29147 -2.63135 0
M  V30 2136 H 200.608 2.86006 -1.51599 0
M  V30 2137 H 199.515 1.53019 -3.41373 0
M  V30 2138 H 200.848 2.03121 -4.48333 0
M  V30 2139 N 202.5 1.5196 0.417844 0
M  V30 2140 C 203.748 1.65263 1.16329 0
M  V30 2141 C 204.069 0.380634 1.91249 0
M  V30 2142 O 203.339 -0.604214 1.86349 0
M  V30 2143 H 201.919 0.60912 0.432414 0
M  V30 2144 H 204.581 1.88969 0.477162 0
M  V30 2145 H 203.677 2.4896 1.88217 0
M  V30 2146 N 203.978 -0.674533 1.42435 0
M  V30 2147 C 204.928 -1.7807 1.4239 0
M  V30 2148 C 205.912 -1.58169 0.295202 0
M  V30 2149 O 207.104 -1.68643 0.537449 0
M  V30 2150 C 204.233 -3.16532 1.32901 0
M  V30 2151 C 203.319 -3.42055 2.50717 0
M  V30 2152 N 203.71 -3.38162 3.76139 0
M  V30 2153 C 202.008 -3.72692 2.44983 0
M  V30 2154 C 202.709 -3.63177 4.54398 0
M  V30 2155 N 201.685 -3.83954 3.84812 0
M  V30 2156 H 205.487 -1.73454 2.37257 0
M  V30 2157 H 203.001 -0.875381 1.36788 0
M  V30 2158 H 204.998 -3.958 1.30951 0
M  V30 2159 H 203.658 -3.22345 0.390363 0
M  V30 2160 H 204.669 -3.18057 4.0873 0
M  V30 2161 H 201.346 -3.85749 1.59699 0
M  V30 2162 H 202.736 -3.66125 5.63384 0
M  V30 2163 N 205.456 -1.28612 -0.910864 0
M  V30 2164 C 206.386 -1.15326 -2.03032 0
M  V30 2165 C 207.367 -0.0502924 -1.70026 0
M  V30 2166 O 208.552 -0.227797 -1.92859 0
M  V30 2167 C 205.682 -0.817343 -3.37545 0
M  V30 2168 C 204.636 -1.8754 -3.84724 0
M  V30 2169 C 203.962 -1.39305 -5.16235 0
M  V30 2170 C 205.262 -3.28244 -4.06267 0
M  V30 2171 H 206.956 -2.08975 -2.14406 0
M  V30 2172 H 204.502 -1.00612 -1.03021 0
M  V30 2173 H 206.455 -0.711151 -4.15356 0
M  V30 2174 H 205.179 0.154846 -3.26233 0
M  V30 2175 H 203.838 -1.97079 -3.09121 0
M  V30 2176 H 203.486 -0.409846 -5.01328 0
M  V30 2177 H 203.186 -2.10057 -5.48771 0
M  V30 2178 H 204.71 -1.30014 -5.96598 0
M  V30 2179 H 206.124 -3.21611 -4.74594 0
M  V30 2180 H 204.521 -3.96855 -4.5014 0
M  V30 2181 H 205.591 -3.72048 -3.10979 0
M  V30 2182 N 206.934 1.1197 -1.10907 0
M  V30 2183 C 208.164 1.8713 -0.875553 0
M  V30 2184 C 208.572 1.8016 0.577843 0
M  V30 2185 O 207.915 1.17699 1.41042 0
M  V30 2186 C 207.977 3.37005 -1.2517 0
M  V30 2187 C 207.641 3.67748 -2.71313 0
M  V30 2188 C 208.638 3.65698 -3.69542 0
M  V30 2189 C 206.323 3.96928 -3.07821 0
M  V30 2190 C 208.317 3.92395 -5.023 0
M  V30 2191 C 206.004 4.23284 -4.40765 0
M  V30 2192 C 207.002 4.21005 -5.37814 0
M  V30 2193 O 206.69 4.46704 -6.68364 0
M  V30 2194 H 206.422 0.598786 -0.313737 0
M  V30 2195 H 208.976 1.42568 -1.47863 0
M  V30 2196 H 207.206 3.82146 -0.591741 0
M  V30 2197 H 208.895 3.93519 -0.994877 0
M  V30 2198 H 209.661 3.43211 -3.42682 0
M  V30 2199 H 205.54 3.97841 -2.32902 0
M  V30 2200 H 209.084 3.90531 -5.78041 0
M  V30 2201 H 204.981 4.45246 -4.67361 0
M  V30 2202 H 205.749 4.64299 -6.74069 0
M  V30 2203 N 208.412 0.89855 1.29475 0
M  V30 2204 C 209.658 0.524658 1.95896 0
M  V30 2205 C 209.991 -0.926468 1.70676 0
M  V30 2206 O 209.266 -1.65665 1.01908 0
M  V30 2207 C 209.549 0.81633 3.50725 0
M  V30 2208 C 209.402 2.31907 3.85408 0
M  V30 2209 C 210.721 0.302038 4.39062 0
M  V30 2210 H 207.84 0.19209 0.711527 0
M  V30 2211 H 210.482 1.12502 1.53112 0
M  V30 2212 H 208.632 0.305369 3.87298 0
M  V30 2213 H 210.304 2.89949 3.58786 0
M  V30 2214 H 208.547 2.78027 3.32992 0
M  V30 2215 H 209.218 2.47373 4.93468 0
M  V30 2216 H 211.694 0.739551 4.09475 0
M  V30 2217 H 210.57 0.535331 5.46283 0
M  V30 2218 H 210.831 -0.797216 4.34853 0
M  V30 2219 N 209.89 -1.43072 0.660911 0
M  V30 2220 C 211.136 -2.0202 0.177708 0
M  V30 2221 C 211.469 -1.52066 -1.20787 0
M  V30 2222 O 210.744 -0.716987 -1.80802 0
M  V30 2223 C 211.027 -3.59561 0.197019 0
M  V30 2224 C 210.88 -4.19727 1.61706 0
M  V30 2225 C 212.199 -4.37664 -0.462396 0
M  V30 2226 H 209.318 -0.734034 0.0660494 0
M  V30 2227 H 211.96 -1.70272 0.843058 0
M  V30 2228 H 210.11 -3.86739 -0.369527 0
M  V30 2229 H 211.782 -4.03553 2.23479 0
M  V30 2230 H 210.025 -3.76084 2.16201 0
M  V30 2231 H 210.696 -5.28834 1.58237 0
M  V30 2232 H 213.172 -4.16095 0.0197215 0
M  V30 2233 H 212.048 -5.47305 -0.418188 0
M  V30 2234 H 212.309 -4.14493 -1.53778 0
M  V30 2235 N 211.368 -0.403325 -1.52352 0
M  V30 2236 C 212.593 0.176499 -2.06648 0
M  V30 2237 C 213.018 1.38577 -1.27193 0
M  V30 2238 O 212.376 1.7879 -0.300637 0
M  V30 2239 C 212.424 0.511061 -3.5696 0
M  V30 2240 O 211.528 1.60294 -3.79973 0
M  V30 2241 H 210.869 0.0167337 -0.663789 0
M  V30 2242 H 213.399 -0.574848 -1.96359 0
M  V30 2243 H 213.409 0.771362 -4.00642 0
M  V30 2244 H 212.084 -0.37296 -4.14224 0
M  V30 2245 H 210.661 1.33526 -3.48174 0
M  V30 2246 N 212.846 1.57033 -0.133567 0
M  V30 2247 C 213.794 2.17348 0.828412 0
M  V30 2248 C 214.788 1.12671 1.26498 0
M  V30 2249 O 215.994 1.30947 1.23502 0
M  V30 2250 H 212.369 0.695775 0.285309 0
M  V30 2251 H 214.34 2.96935 0.295372 0
M  V30 2252 C 213.089 2.79893 2.06289 0
M  V30 2253 H 212.412 3.60147 1.73592 0
M  V30 2254 H 213.852 3.25615 2.71572 0
M  V30 2255 C 212.311 1.77713 2.86216 0
M  V30 2256 O 212.841 1.23937 3.82103 0
M  V30 2257 N 211.047 1.47321 2.50489 0
M  V30 2258 H 210.594 1.91243 1.7258 0
M  V30 2259 H 210.552 0.79199 3.04261 0
M  V30 2260 N 214.325 -0.140222 1.56975 0
M  V30 2261 C 215.288 -1.15689 1.97861 0
M  V30 2262 C 216.288 -1.3549 0.865974 0
M  V30 2263 O 217.478 -1.32367 1.13246 0
M  V30 2264 C 214.61 -2.51582 2.30042 0
M  V30 2265 H 215.803 -0.805971 2.88867 0
M  V30 2266 H 213.356 -0.383801 1.51515 0
M  V30 2267 H 214.091 -2.91632 1.41849 0
M  V30 2268 H 213.876 -2.38569 3.11171 0
M  V30 2269 H 215.366 -3.24792 2.62488 0
M  V30 2270 N 215.803 -1.52179 -0.40978 0
M  V30 2271 C 217.051 -1.65878 -1.15451 0
M  V30 2272 C 217.372 -0.390771 -1.91044 0
M  V30 2273 O 216.642 0.594323 -1.86667 0
M  V30 2274 H 215.222 -0.611405 -0.429177 0
M  V30 2275 H 217.884 -1.89219 -0.467134 0
M  V30 2276 H 216.98 -2.49954 -1.86894 0
M  V30 2277 N 217.281 0.66697 -1.42791 0
M  V30 2278 C 218.521 1.43892 -1.4517 0
M  V30 2279 C 218.885 1.91877 -0.0687551 0
M  V30 2280 O 220.086 2.6878 0.0327455 0
M  V30 2281 C 218.357 2.59839 -2.45395 0
M  V30 2282 S 219.916 3.48572 -2.66539 0
M  V30 2283 H 216.734 0.491356 -0.513897 0
M  V30 2284 H 219.336 0.775656 -1.79454 0
M  V30 2285 H 218.04 2.22838 -3.44632 0
M  V30 2286 H 217.571 3.3103 -2.12562 0
M  V30 2287 H 219.586 4.56094 -1.95429 0
M  V30 2288 N 218.759 1.29093 0.90403 0
M  V30 2289 C 220.005 1.17996 1.65676 0
M  V30 2290 C 220.36 -0.266816 1.90541 0
M  V30 2291 O 219.653 -1.19 1.50165 0
M  V30 2292 C 219.847 1.92224 3.01305 0
M  V30 2293 C 219.676 3.43972 2.89678 0
M  V30 2294 C 218.446 4.1332 2.90679 0
M  V30 2295 C 220.644 4.39546 2.67028 0
M  V30 2296 N 218.626 5.51463 2.69743 0
M  V30 2297 C 219.997 5.65119 2.5503 0
M  V30 2298 C 222.052 4.29359 2.52101 0
M  V30 2299 C 220.755 6.81663 2.29626 0
M  V30 2300 C 222.781 5.4565 2.28079 0
M  V30 2301 C 222.143 6.70193 2.16843 0
M  V30 2302 H 218.242 0.486759 0.612037 0
M  V30 2303 H 220.826 1.62868 1.06688 0
M  V30 2304 H 218.997 1.49773 3.58361 0
M  V30 2305 H 220.729 1.73429 3.65656 0
M  V30 2306 H 217.484 3.64984 3.01801 0
M  V30 2307 H 217.908 6.24105 2.6234 0
M  V30 2308 H 222.55 3.33769 2.59534 0
M  V30 2309 H 220.268 7.77313 2.20932 0
M  V30 2310 H 223.854 5.39664 2.1738 0
M  V30 2311 H 222.734 7.58659 1.98511 0
M  V30 2312 N 220.237 -1.11381 1.11499 0
M  V30 2313 C 221.147 -2.21019 0.786628 0
M  V30 2314 C 222.163 -1.72597 -0.220507 0
M  V30 2315 O 223.339 -2.01321 -0.0565251 0
M  V30 2316 C 220.404 -3.459 0.235333 0
M  V30 2317 C 219.465 -4.09107 1.30115 0
M  V30 2318 C 218.698 -5.28027 0.776068 0
M  V30 2319 O 218.921 -5.6904 -0.393661 0
M  V30 2320 O 217.855 -5.81835 1.54114 0
M  V30 2321 H 221.681 -2.51521 1.70209 0
M  V30 2322 H 219.266 -1.19928 0.890928 0
M  V30 2323 H 221.148 -4.21346 -0.067715 0
M  V30 2324 H 219.823 -3.17049 -0.652828 0
M  V30 2325 H 218.73 -3.35391 1.65722 0
M  V30 2326 H 220.063 -4.42139 2.16273 0
M  V30 2327 N 221.715 -0.905404 -1.28997 0
M  V30 2328 C 222.662 -0.385892 -2.27551 0
M  V30 2329 C 223.632 0.535113 -1.57244 0
M  V30 2330 O 224.817 0.459119 -1.85194 0
M  V30 2331 C 221.957 0.375461 -3.43051 0
M  V30 2332 C 221.07 -0.577092 -4.28128 0
M  V30 2333 C 220.205 0.201879 -5.30816 0
M  V30 2334 C 219.244 -0.744829 -6.07551 0
M  V30 2335 N 218.381 9.42587e-05 -7.021 0
M  V30 2336 H 223.221 -1.23139 -2.71368 0
M  V30 2337 H 220.758 -0.618542 -1.33463 0
M  V30 2338 H 222.716 0.832992 -4.088 0
M  V30 2339 H 221.346 1.18537 -3.00248 0
M  V30 2340 H 220.398 -1.15315 -3.62501 0
M  V30 2341 H 221.71 -1.30152 -4.8152 0
M  V30 2342 H 220.864 0.720351 -6.02408 0
M  V30 2343 H 219.603 0.959413 -4.7817 0
M  V30 2344 H 218.608 -1.27475 -5.34818 0
M  V30 2345 H 219.833 -1.50178 -6.62286 0
M  V30 2346 H 217.779 0.739791 -6.51815 0
M  V30 2347 H 217.696 -0.664321 -7.53076 0
M  V30 2348 H 218.964 0.498644 -7.77903 0
M  V30 2349 N 223.193 1.4272 -0.668489 0
M  V30 2350 C 224.47 1.95248 -0.117373 0
M  V30 2351 C 224.85 1.60919 1.36632 0
M  V30 2352 O 224.198 0.902095 2.09939 0
M  V30 2353 C 224.408 3.46927 -0.379806 0
M  V30 2354 C 225.756 4.23588 -0.292923 0
M  V30 2355 O 226.78 3.5482 -0.313204 0
M  V30 2356 O 225.639 5.46017 -0.229697 0
M  V30 2357 H 222.733 0.827 0.00079152 0
M  V30 2358 H 225.279 1.52581 -0.742783 0
M  V30 2359 H 224.051 3.65096 -1.40786 0
M  V30 2360 H 223.674 3.96627 0.277923 0
M  V30 2361 N 224.671 0.411399 1.52136 0
M  V30 2362 C 225.601 -0.404015 2.29978 0
M  V30 2363 C 226.582 -1.04412 1.34284 0
M  V30 2364 O 227.767 -1.0527 1.63192 0
M  V30 2365 C 224.897 -1.5197 3.12286 0
M  V30 2366 C 223.851 -1.00448 4.16046 0
M  V30 2367 C 223.177 -2.21393 4.86712 0
M  V30 2368 C 224.477 -0.0569336 5.22269 0
M  V30 2369 H 226.171 0.245529 2.98392 0
M  V30 2370 H 223.717 0.119525 1.43503 0
M  V30 2371 H 225.67 -2.09715 3.6551 0
M  V30 2372 H 224.394 -2.19716 2.41646 0
M  V30 2373 H 223.053 -0.449421 3.63835 0
M  V30 2374 H 222.701 -2.87699 4.12599 0
M  V30 2375 H 222.401 -1.87571 5.56858 0
M  V30 2376 H 223.925 -2.7974 5.4275 0
M  V30 2377 H 225.339 -0.54325 5.7072 0
M  V30 2378 H 223.736 0.192594 5.99791 0
M  V30 2379 H 224.806 0.887663 4.76706 0
M  V30 2380 N 226.149 -1.5696 0.141893 0
M  V30 2381 C 227.112 -2.15316 -0.785587 0
M  V30 2382 C 228.112 -1.09366 -1.1788 0
M  V30 2383 O 229.302 -1.35031 -1.10056 0
M  V30 2384 C 226.434 -2.71211 -2.06537 0
M  V30 2385 H 227.627 -2.98608 -0.278041 0
M  V30 2386 H 225.18 -1.5593 -0.107519 0
M  V30 2387 H 225.915 -1.91571 -2.6167 0
M  V30 2388 H 225.7 -3.4872 -1.79268 0
M  V30 2389 H 227.19 -3.16189 -2.72789 0
M  V30 2390 N 227.627 0.131896 -1.57047 0
M  V30 2391 C 228.557 1.16384 -2.02428 0
M  V30 2392 C 229.538 1.43936 -0.90644 0
M  V30 2393 O 230.723 1.54599 -1.17528 0
M  V30 2394 C 227.853 2.49328 -2.4177 0
M  V30 2395 C 226.807 2.36266 -3.56879 0
M  V30 2396 C 226.133 3.74057 -3.8208 0
M  V30 2397 C 227.433 1.834 -4.89042 0
M  V30 2398 H 229.127 0.786433 -2.88887 0
M  V30 2399 H 226.673 0.376855 -1.38981 0
M  V30 2400 H 228.626 3.21759 -2.7212 0
M  V30 2401 H 227.35 2.88934 -1.52266 0
M  V30 2402 H 226.009 1.66286 -3.26718 0
M  V30 2403 H 225.657 4.11125 -2.89803 0
M  V30 2404 H 225.357 3.66174 -4.59554 0
M  V30 2405 H 226.881 4.48012 -4.1487 0
M  V30 2406 H 228.295 2.45636 -5.18011 0
M  V30 2407 H 226.692 1.8637 -5.70426 0
M  V30 2408 H 227.762 0.790662 -4.7841 0
M  V30 2409 N 229.106 1.52395 0.401703 0
M  V30 2410 C 230.039 1.70999 1.51111 0
M  V30 2411 C 231.017 0.55765 1.52738 0
M  V30 2412 O 232.201 0.785912 1.71335 0
M  V30 2413 C 229.328 1.75607 2.8962 0
M  V30 2414 C 228.374 2.97227 3.05873 0
M  V30 2415 S 229.207 4.57439 2.78405 0
M  V30 2416 C 230.363 4.64844 4.19131 0
M  V30 2417 H 230.596 2.6483 1.35102 0
M  V30 2418 H 228.129 1.42527 0.593762 0
M  V30 2419 H 230.087 1.78947 3.69443 0
M  V30 2420 H 228.748 0.828914 3.02965 0
M  V30 2421 H 227.941 2.96955 4.07227 0
M  V30 2422 H 227.543 2.91813 2.33925 0
M  V30 2423 H 229.835 4.42677 5.12877 0
M  V30 2424 H 230.778 5.66807 4.24424 0
M  V30 2425 H 231.186 3.93804 4.04448 0
M  V30 2426 N 230.584 -0.659388 1.43143 0
M  V30 2427 C 231.516 -1.7849 1.43784 0
M  V30 2428 C 232.529 -1.5932 0.334787 0
M  V30 2429 O 233.718 -1.68155 0.598842 0
M  V30 2430 C 230.818 -3.15828 1.22906 0
M  V30 2431 C 229.991 -3.61711 2.45934 0
M  V30 2432 C 229.05 -4.77831 2.20371 0
M  V30 2433 O 228.076 -4.87586 2.93681 0
M  V30 2434 N 229.278 -5.67611 1.21647 0
M  V30 2435 H 232.043 -1.7842 2.40803 0
M  V30 2436 H 229.604 -0.84302 1.3822 0
M  V30 2437 H 231.596 -3.91189 1.03697 0
M  V30 2438 H 230.166 -3.10707 0.343542 0
M  V30 2439 H 229.386 -2.76861 2.80609 0
M  V30 2440 H 230.674 -3.89112 3.27825 0
M  V30 2441 H 230.072 -5.62397 0.610449 0
M  V30 2442 H 228.629 -6.42719 1.08423 0
M  V30 2443 N 232.062 -1.29571 -0.897171 0
M  V30 2444 C 233.339 -1.08365 -1.62839 0
M  V30 2445 C 233.719 0.371331 -2.07808 0
M  V30 2446 O 233.067 1.3606 -1.83576 0
M  V30 2447 C 233.277 -2.0735 -2.80726 0
M  V30 2448 C 234.625 -2.38406 -3.51351 0
M  V30 2449 O 235.649 -2.05564 -2.90898 0
M  V30 2450 O 234.508 -2.9453 -4.60341 0
M  V30 2451 H 231.602 -0.415345 -0.715134 0
M  V30 2452 H 234.148 -1.40952 -0.945018 0
M  V30 2453 H 232.92 -3.05339 -2.44711 0
M  V30 2454 H 232.543 -1.75507 -3.56767 0
M  V30 2455 N 233.54 1.10788 -1.12088 0
M  V30 2456 C 234.487 2.17025 -0.785407 0
M  V30 2457 C 235.457 1.64265 0.246191 0
M  V30 2458 O 236.642 1.90412 0.121584 0
M  V30 2459 C 233.782 3.44249 -0.242177 0
M  V30 2460 C 232.895 4.1098 -1.33115 0
M  V30 2461 C 232.03 5.25911 -0.747741 0
M  V30 2462 C 231.069 5.84538 -1.81609 0
M  V30 2463 N 230.206 6.90853 -1.25167 0
M  V30 2464 H 235.046 2.45066 -1.69548 0
M  V30 2465 H 232.583 1.20297 -0.846582 0
M  V30 2466 H 234.541 4.17101 0.0908026 0
M  V30 2467 H 233.171 3.16571 0.631072 0
M  V30 2468 H 232.223 3.36133 -1.78097 0
M  V30 2469 H 233.535 4.50601 -2.13917 0
M  V30 2470 H 232.689 6.056 -0.365216 0
M  V30 2471 H 231.428 4.87614 0.0915188 0
M  V30 2472 H 230.433 5.03522 -2.20785 0
M  V30 2473 H 231.658 6.249 -2.6585 0
M  V30 2474 H 229.604 6.54562 -0.434174 0
M  V30 2475 H 229.521 7.29166 -1.99633 0
M  V30 2476 H 230.789 7.7433 -0.896259 0
M  V30 2477 N 235.018 0.912232 1.28515 0
M  V30 2478 C 236.264 0.545405 1.95328 0
M  V30 2479 C 236.597 -0.908313 1.71649 0
M  V30 2480 O 235.872 -1.64575 1.03659 0
M  V30 2481 C 236.155 0.853483 3.4984 0
M  V30 2482 C 236.008 2.35982 3.82926 0
M  V30 2483 C 237.327 0.348589 4.38717 0
M  V30 2484 H 234.446 0.199626 0.709449 0
M  V30 2485 H 237.088 1.1412 1.5191 0
M  V30 2486 H 235.238 0.34643 3.86952 0
M  V30 2487 H 236.91 2.93738 3.55691 0
M  V30 2488 H 235.153 2.81543 3.30024 0
M  V30 2489 H 235.824 2.52593 4.90816 0
M  V30 2490 H 238.3 0.78294 4.08668 0
M  V30 2491 H 237.176 0.593242 5.45685 0
M  V30 2492 H 237.437 -0.751049 4.35674 0
M  V30 2493 N 236.496 -1.42363 0.676048 0
M  V30 2494 C 237.912 -1.55811 0.345718 0
M  V30 2495 C 238.112 -1.65544 -1.14879 0
M  V30 2496 O 237.168 -1.62306 -1.93424 0
M  V30 2497 C 238.481 -2.80746 1.07713 0
M  V30 2498 C 240.029 -2.9452 1.05958 0
M  V30 2499 C 240.504 -4.22318 1.77233 0
M  V30 2500 N 241.995 -4.29233 1.74108 0
M  V30 2501 C 242.73 -5.26935 2.26113 0
M  V30 2502 N 242.226 -6.30783 2.86505 0
M  V30 2503 N 244.019 -5.18741 2.1648 0
M  V30 2504 H 236.17 -1.34289 1.6456 0
M  V30 2505 H 238.433 -0.646506 0.69335 0
M  V30 2506 H 238.139 -2.79696 2.13221 0
M  V30 2507 H 238.013 -3.71676 0.64316 0
M  V30 2508 H 240.4 -2.95097 0.0128255 0
M  V30 2509 H 240.481 -2.04817 1.53244 0
M  V30 2510 H 240.125 -4.22502 2.81877 0
M  V30 2511 H 240.055 -5.10958 1.27396 0
M  V30 2512 H 242.546 -3.54814 1.30059 0
M  V30 2513 H 242.859 -7.01691 3.23805 0
M  V30 2514 H 241.204 -6.31341 2.90575 0
M  V30 2515 H 244.395 -4.36533 1.68987 0
M  V30 2516 H 244.568 -5.94721 2.57316 0
M  V30 2517 N 237.974 -0.419461 -1.51915 0
M  V30 2518 C 238.884 0.407528 -2.31033 0
M  V30 2519 C 239.9 1.04413 -1.3919 0
M  V30 2520 O 241.076 1.0434 -1.72265 0
M  V30 2521 C 238.141 1.50365 -3.12396 0
M  V30 2522 C 237.202 0.889029 -4.19994 0
M  V30 2523 C 236.435 1.93291 -4.97468 0
M  V30 2524 O 236.658 3.15259 -4.75361 0
M  V30 2525 O 235.592 1.53339 -5.8204 0
M  V30 2526 H 239.418 -0.237865 -3.02767 0
M  V30 2527 H 237.003 -0.182413 -1.48282 0
M  V30 2528 H 238.885 2.13975 -3.63032 0
M  V30 2529 H 237.56 2.13345 -2.43445 0
M  V30 2530 H 236.467 0.215353 -3.7348 0
M  V30 2531 H 237.8 0.302991 -4.91267 0
M  V30 2532 N 239.452 1.56882 -0.150215 0
M  V30 2533 C 240.382 2.19935 0.784284 0
M  V30 2534 C 241.363 1.14854 1.25469 0
M  V30 2535 O 242.548 1.43209 1.31168 0
M  V30 2536 C 239.678 2.82349 2.02229 0
M  V30 2537 C 238.632 3.93285 1.68853 0
M  V30 2538 C 237.958 4.42649 2.99944 0
M  V30 2539 C 239.258 5.13904 0.932714 0
M  V30 2540 H 240.952 2.9828 0.258781 0
M  V30 2541 H 238.498 1.43473 0.123029 0
M  V30 2542 H 240.451 3.25126 2.68088 0
M  V30 2543 H 239.175 2.0134 2.57157 0
M  V30 2544 H 237.834 3.5113 1.05371 0
M  V30 2545 H 237.482 3.58458 3.52869 0
M  V30 2546 H 237.182 5.17476 2.78374 0
M  V30 2547 H 238.706 4.88099 3.66868 0
M  V30 2548 H 240.12 5.53506 1.49345 0
M  V30 2549 H 238.517 5.94515 0.81684 0
M  V30 2550 H 239.587 4.84842 -0.0749568 0
M  V30 2551 N 240.93 -0.123565 1.57115 0
M  V30 2552 C 241.862 -1.17739 1.96648 0
M  V30 2553 C 242.875 -1.37906 0.865201 0
M  V30 2554 O 244.064 -1.37062 1.14351 0
M  V30 2555 C 241.164 -2.53821 2.24562 0
M  V30 2556 C 240.337 -2.54317 3.55867 0
M  V30 2557 C 239.396 -3.72112 3.72047 0
M  V30 2558 O 238.422 -3.55907 4.44206 0
M  V30 2559 N 239.624 -4.90498 3.10471 0
M  V30 2560 H 242.389 -0.841147 2.87654 0
M  V30 2561 H 239.95 -0.31289 1.58848 0
M  V30 2562 H 241.942 -3.31175 2.32606 0
M  V30 2563 H 240.512 -2.79645 1.39705 0
M  V30 2564 H 239.732 -1.62711 3.59053 0
M  V30 2565 H 241.02 -2.51701 4.42181 0
M  V30 2566 H 240.418 -5.06567 2.51806 0
M  V30 2567 H 238.975 -5.65544 3.24043 0
M  V30 2568 N 242.408 -1.52605 -0.393616 0
M  V30 2569 C 243.356 -1.77688 -1.50099 0
M  V30 2570 C 244.35 -0.644615 -1.56656 0
M  V30 2571 O 245.556 -0.826997 -1.59877 0
M  V30 2572 H 241.931 -0.562159 -0.499481 0
M  V30 2573 H 243.902 -2.7043 -1.26135 0
M  V30 2574 C 242.651 -1.95858 -2.87289 0
M  V30 2575 H 241.974 -2.8241 -2.82992 0
M  V30 2576 H 243.414 -2.174 -3.64024 0
M  V30 2577 C 241.873 -0.729848 -3.28899 0
M  V30 2578 O 242.403 0.0949217 -4.01588 0
M  V30 2579 N 240.609 -0.561283 -2.85128 0
M  V30 2580 H 240.156 -1.23357 -2.26143 0
M  V30 2581 H 240.114 0.2595 -3.13327 0
M  V30 2582 N 243.887 0.651787 -1.4349 0
M  V30 2583 C 244.819 1.77725 -1.44729 0
M  V30 2584 C 245.832 1.59141 -0.343231 0
M  V30 2585 O 247.021 1.67835 -0.607751 0
M  V30 2586 C 244.121 3.15172 -1.24579 0
M  V30 2587 C 243.294 3.60402 -2.47849 0
M  V30 2588 C 242.353 4.76656 -2.22902 0
M  V30 2589 O 241.379 4.86022 -2.96263 0
M  V30 2590 N 242.581 5.66958 -1.24656 0
M  V30 2591 H 245.346 1.77141 -2.41746 0
M  V30 2592 H 242.907 0.835678 -1.38665 0
M  V30 2593 H 244.899 3.90634 -1.0577 0
M  V30 2594 H 243.469 3.1052 -0.360015 0
M  V30 2595 H 242.689 2.75369 -2.82073 0
M  V30 2596 H 243.977 3.87368 -3.29884 0
M  V30 2597 H 243.375 5.62065 -0.640265 0
M  V30 2598 H 241.932 6.42135 -1.1183 0
M  V30 2599 N 245.365 1.30045 0.890287 0
M  V30 2600 C 246.613 1.18327 1.63839 0
M  V30 2601 C 246.934 -0.263455 1.93212 0
M  V30 2602 O 246.204 -1.17856 1.56482 0
M  V30 2603 H 244.784 0.434933 0.607324 0
M  V30 2604 H 247.446 1.631 1.06698 0
M  V30 2605 H 246.542 1.74024 2.59079 0
M  V30 2606 N 246.843 -1.10192 1.12674 0
M  V30 2607 C 248.259 -1.34235 0.863317 0
M  V30 2608 C 248.459 -1.95062 -0.505277 0
M  V30 2609 O 247.515 -2.19192 -1.25345 0
M  V30 2610 C 248.828 -2.2616 1.98172 0
M  V30 2611 C 250.376 -2.3969 2.0129 0
M  V30 2612 C 250.851 -3.34946 3.1237 0
M  V30 2613 N 252.342 -3.42515 3.11829 0
M  V30 2614 C 253.077 -4.16199 3.94419 0
M  V30 2615 N 252.573 -4.92747 4.87004 0
M  V30 2616 N 254.366 -4.11843 3.82547 0
M  V30 2617 H 246.517 -0.690798 2.00853 0
M  V30 2618 H 248.78 -0.366774 0.874174 0
M  V30 2619 H 248.486 -1.8868 2.96804 0
M  V30 2620 H 248.36 -3.26488 1.88906 0
M  V30 2621 H 250.747 -2.76438 1.03276 0
M  V30 2622 H 250.828 -1.39169 2.14629 0
M  V30 2623 H 250.472 -2.98923 4.10619 0
M  V30 2624 H 250.402 -4.35353 2.96269 0
M  V30 2625 H 252.893 -2.87926 2.44759 0
M  V30 2626 H 253.206 -5.46376 5.46528 0
M  V30 2627 H 251.551 -4.91862 4.91016 0
M  V30 2628 H 254.742 -3.51136 3.0955 0
M  V30 2629 H 254.915 -4.69007 4.47142 0
M  V30 2630 N 248.321 -0.919034 -1.28029 0
M  V30 2631 C 249.598 -0.473668 -1.89778 0
M  V30 2632 C 249.978 1.04783 -1.83259 0
M  V30 2633 O 249.326 1.8982 -1.27202 0
M  V30 2634 C 249.536 -1.00998 -3.34066 0
M  V30 2635 C 250.884 -1.06525 -4.1102 0
M  V30 2636 O 251.908 -0.958996 -3.43048 0
M  V30 2637 O 250.767 -1.22776 -5.3253 0
M  V30 2638 H 247.861 -0.15098 -0.813101 0
M  V30 2639 H 250.407 -1.01016 -1.36359 0
M  V30 2640 H 249.179 -2.05392 -3.33061 0
M  V30 2641 H 248.802 -0.454626 -3.94992 0
M  V30 2642 N 249.799 1.42003 -0.683588 0
M  V30 2643 C 251.045 2.01712 -0.209825 0
M  V30 2644 C 251.378 1.53968 1.18353 0
M  V30 2645 O 250.653 0.745661 1.79639 0
M  V30 2646 C 250.936 3.59202 -0.254197 0
M  V30 2647 C 250.789 4.17102 -1.68363 0
M  V30 2648 C 252.108 4.38344 0.392709 0
M  V30 2649 H 249.227 0.732891 -0.0777189 0
M  V30 2650 H 251.869 1.68909 -0.87004 0
M  V30 2651 H 250.019 3.87278 0.307954 0
M  V30 2652 H 251.691 3.99946 -2.29871 0
M  V30 2653 H 249.934 3.72597 -2.22157 0
M  V30 2654 H 250.605 5.26249 -1.6663 0
M  V30 2655 H 253.081 4.16011 -0.0859162 0
M  V30 2656 H 251.957 5.47901 0.331063 0
M  V30 2657 H 252.218 4.16887 1.47164 0
M  V30 2658 N 251.277 0.427512 1.51691 0
M  V30 2659 C 252.525 -0.141948 2.01601 0
M  V30 2660 C 252.846 -1.44067 1.31414 0
M  V30 2661 O 252.116 -1.90763 0.445658 0
M  V30 2662 H 250.696 -0.0554468 0.744939 0
M  V30 2663 H 253.358 0.567968 1.86441 0
M  V30 2664 H 252.454 -0.324913 3.10404 0
M  V30 2665 N 252.755 -1.56801 0.158532 0
M  V30 2666 C 253.685 -2.20347 -0.772609 0
M  V30 2667 C 254.666 -1.15518 -1.24859 0
M  V30 2668 O 255.851 -1.43902 -1.30406 0
M  V30 2669 C 252.981 -2.83417 -2.00729 0
M  V30 2670 C 251.935 -3.94174 -1.66765 0
M  V30 2671 C 251.261 -4.44233 -2.97592 0
M  V30 2672 C 252.561 -5.14392 -0.905447 0
M  V30 2673 H 254.255 -2.98413 -0.242959 0
M  V30 2674 H 251.801 -1.43537 -0.115419 0
M  V30 2675 H 253.754 -3.26543 -2.6636 0
M  V30 2676 H 252.478 -2.02701 -2.56086 0
M  V30 2677 H 251.137 -3.51684 -1.03508 0
M  V30 2678 H 250.785 -3.60325 -3.50963 0
M  V30 2679 H 250.485 -5.18945 -2.75626 0
M  V30 2680 H 252.009 -4.90037 -3.64274 0
M  V30 2681 H 253.423 -5.5429 -1.46408 0
M  V30 2682 H 251.82 -5.9494 -0.7853 0
M  V30 2683 H 252.89 -4.84795 0.100668 0
M  V30 2684 N 254.233 0.115231 -1.57178 0
M  V30 2685 C 255.143 1.15994 -2.03918 0
M  V30 2686 C 256.159 1.45103 -0.960268 0
M  V30 2687 O 257.335 1.56144 -1.27204 0
M  V30 2688 C 254.4 2.46568 -2.43732 0
M  V30 2689 C 253.461 2.24822 -3.65723 0
M  V30 2690 C 252.694 3.4917 -4.03629 0
M  V30 2691 O 252.917 4.56623 -3.41835 0
M  V30 2692 O 251.851 3.39949 -4.96708 0
M  V30 2693 H 255.677 0.793019 -2.93164 0
M  V30 2694 H 253.262 0.3263 -1.45793 0
M  V30 2695 H 255.144 3.23492 -2.70057 0
M  V30 2696 H 253.819 2.82726 -1.57631 0
M  V30 2697 H 252.726 1.45744 -3.44542 0
M  V30 2698 H 254.059 1.93566 -4.52541 0
M  V30 2699 N 255.711 1.52812 0.385517 0
M  V30 2700 C 256.957 1.68275 1.13188 0
M  V30 2701 C 257.29 0.423179 1.89533 0
M  V30 2702 O 256.565 -0.579113 1.85679 0
M  V30 2703 C 256.848 2.92001 2.1073 0
M  V30 2704 C 256.701 4.28067 1.38125 0
M  V30 2705 C 258.02 3.11283 3.11113 0
M  V30 2706 H 255.139 0.612352 0.410115 0
M  V30 2707 H 257.781 1.85415 0.414869 0
M  V30 2708 H 255.931 2.77519 2.71874 0
M  V30 2709 H 257.603 4.54324 0.799187 0
M  V30 2710 H 255.846 4.28388 0.683092 0
M  V30 2711 H 256.517 5.10733 2.09417 0
M  V30 2712 H 258.993 3.2482 2.6006 0
M  V30 2713 H 257.869 3.99325 3.76605 0
M  V30 2714 H 258.13 2.25656 3.80173 0
M  V30 2715 N 257.189 -0.644168 1.43834 0
M  V30 2716 C 258.119 -1.76814 1.52509 0
M  V30 2717 C 259.1 -1.65823 0.379052 0
M  V30 2718 O 260.285 -1.84781 0.597466 0
M  V30 2719 C 257.415 -3.15288 1.4564 0
M  V30 2720 C 256.369 -3.41053 2.58586 0
M  V30 2721 C 255.695 -4.79421 2.36769 0
M  V30 2722 C 256.995 -3.34902 4.00797 0
M  V30 2723 H 258.689 -1.69812 2.46586 0
M  V30 2724 H 256.235 -0.815542 1.1868 0
M  V30 2725 H 258.188 -3.93681 1.50311 0
M  V30 2726 H 256.912 -3.23043 0.480725 0
M  V30 2727 H 255.571 -2.65035 2.53282 0
M  V30 2728 H 255.219 -4.83863 1.37424 0
M  V30 2729 H 254.919 -4.9762 3.12487 0
M  V30 2730 H 256.443 -5.6006 2.43238 0
M  V30 2731 H 257.857 -4.03218 4.07539 0
M  V30 2732 H 256.254 -3.64637 4.76613 0
M  V30 2733 H 257.324 -2.32928 4.25291 0
M  V30 2734 N 258.668 -1.30515 -0.883378 0
M  V30 2735 C 259.945 -1.10086 -1.6168 0
M  V30 2736 C 260.325 0.349269 -2.08191 0
M  V30 2737 O 259.673 1.34105 -1.85008 0
M  V30 2738 C 259.883 -2.10315 -2.78511 0
M  V30 2739 C 261.231 -2.42119 -3.48803 0
M  V30 2740 O 262.255 -2.08638 -2.88702 0
M  V30 2741 O 261.114 -2.99396 -4.57192 0
M  V30 2742 H 258.208 -0.422907 -0.710689 0
M  V30 2743 H 260.754 -1.41947 -0.930015 0
M  V30 2744 H 259.526 -3.07917 -2.41459 0
M  V30 2745 H 259.149 -1.79282 -3.54886 0
M  V30 2746 N 260.146 1.09593 -1.13257 0
M  V30 2747 C 261.094 2.18271 -0.803783 0
M  V30 2748 C 262.088 1.68054 0.213148 0
M  V30 2749 O 263.294 1.79862 0.0704699 0
M  V30 2750 H 259.669 0.711949 -0.242143 0
M  V30 2751 H 261.64 2.43235 -1.72856 0
M  V30 2752 C 260.389 3.46536 -0.28424 0
M  V30 2753 H 259.712 3.85545 -1.05807 0
M  V30 2754 H 261.152 4.23899 -0.0925945 0
M  V30 2755 C 259.611 3.22036 0.989684 0
M  V30 2756 O 260.141 3.44509 2.06584 0
M  V30 2757 N 258.347 2.7565 0.920086 0
M  V30 2758 H 257.894 2.57562 0.0442019 0
M  V30 2759 H 257.852 2.59635 1.77306 0
M  V30 2760 N 261.624 0.925811 1.2754 0
M  V30 2761 C 262.587 0.428129 2.25166 0
M  V30 2762 C 263.587 -0.452261 1.54309 0
M  V30 2763 O 264.777 -0.253608 1.72344 0
M  V30 2764 C 261.909 -0.384749 3.38722 0
M  V30 2765 H 263.102 1.29066 2.70706 0
M  V30 2766 H 260.655 0.706323 1.3943 0
M  V30 2767 H 261.39 -1.26618 2.98561 0
M  V30 2768 H 261.175 0.246454 3.91325 0
M  V30 2769 H 262.665 -0.723389 4.11287 0
M  V30 2770 N 263.102 -1.41638 0.69111 0
M  V30 2771 C 264.032 -2.3347 0.037248 0
M  V30 2772 C 265.013 -1.51575 -0.771947 0
M  V30 2773 O 266.198 -1.80126 -0.72582 0
M  V30 2774 C 263.328 -3.35354 -0.903064 0
M  V30 2775 C 262.282 -4.27526 -0.201288 0
M  V30 2776 C 261.608 -5.19747 -1.25565 0
M  V30 2777 C 262.908 -5.13959 0.929689 0
M  V30 2778 H 264.602 -2.88397 0.804227 0
M  V30 2779 H 262.148 -1.38669 0.388189 0
M  V30 2780 H 264.101 -3.98519 -1.36969 0
M  V30 2781 H 262.825 -2.78767 -1.70166 0
M  V30 2782 H 261.484 -3.65779 0.245265 0
M  V30 2783 H 261.132 -4.59479 -2.04666 0
M  V30 2784 H 260.832 -5.8225 -0.791128 0
M  V30 2785 H 262.356 -5.85789 -1.72288 0
M  V30 2786 H 263.77 -5.70718 0.543546 0
M  V30 2787 H 262.167 -5.85379 1.32103 0
M  V30 2788 H 263.237 -4.51389 1.77133 0
M  V30 2789 N 264.58 -0.43555 -1.51462 0
M  V30 2790 C 265.51 0.367376 -2.30592 0
M  V30 2791 C 266.491 1.02263 -1.35928 0
M  V30 2792 O 267.676 1.02661 -1.64847 0
M  V30 2793 C 264.806 1.46983 -3.14664 0
M  V30 2794 C 263.76 0.938161 -4.17591 0
M  V30 2795 C 263.086 2.13622 -4.90173 0
M  V30 2796 C 264.386 -0.0261621 -5.22293 0
M  V30 2797 H 266.08 -0.292969 -2.97963 0
M  V30 2798 H 263.626 -0.14234 -1.43295 0
M  V30 2799 H 265.579 2.03873 -3.688 0
M  V30 2800 H 264.303 2.15843 -2.4511 0
M  V30 2801 H 262.962 0.391481 -3.64504 0
M  V30 2802 H 262.61 2.81098 -4.17124 0
M  V30 2803 H 262.31 1.78688 -5.59772 0
M  V30 2804 H 263.834 2.7107 -5.47132 0
M  V30 2805 H 265.248 0.452384 -5.71512 0
M  V30 2806 H 263.645 -0.287992 -5.99409 0
M  V30 2807 H 264.715 -0.963391 -4.75233 0
M  V30 2808 N 266.058 1.56714 -0.166846 0
M  V30 2809 C 267.021 2.16539 0.751232 0
M  V30 2810 C 268.021 1.11228 1.16125 0
M  V30 2811 O 269.211 1.36765 1.07894 0
M  V30 2812 C 266.343 2.74462 2.02196 0
M  V30 2813 H 267.536 2.99013 0.230499 0
M  V30 2814 H 265.089 1.56081 0.0826982 0
M  V30 2815 H 265.824 1.95709 2.58589 0
M  V30 2816 H 265.609 3.51527 1.73698 0
M  V30 2817 H 267.099 3.20489 2.67725 0
M  V30 2818 N 267.536 -0.106894 1.57237 0
M  V30 2819 C 268.466 -1.13148 2.04254 0
M  V30 2820 C 269.447 -1.42476 0.929224 0
M  V30 2821 O 270.632 -1.52709 1.19973 0
M  V30 2822 C 267.762 -2.4545 2.45706 0
M  V30 2823 C 266.716 -2.30558 3.60592 0
M  V30 2824 C 266.042 -3.67931 3.87983 0
M  V30 2825 C 267.342 -1.75597 4.91897 0
M  V30 2826 H 269.036 -0.740374 2.90101 0
M  V30 2827 H 266.582 -0.354696 1.39563 0
M  V30 2828 H 268.535 -3.17389 2.77205 0
M  V30 2829 H 267.259 -2.86475 1.56843 0
M  V30 2830 H 265.918 -1.61067 3.29322 0
M  V30 2831 H 265.566 -4.06462 2.96306 0
M  V30 2832 H 265.266 -3.58817 4.65322 0
M  V30 2833 H 266.79 -4.41356 4.21945 0
M  V30 2834 H 268.204 -2.37364 5.21854 0
M  V30 2835 H 266.601 -1.77272 5.73319 0
M  V30 2836 H 267.671 -0.714451 4.79608 0
M  V30 2837 N 269.014 -1.53014 -0.377408 0
M  V30 2838 C 269.946 -1.74884 -1.48149 0
M  V30 2839 C 270.959 -0.629433 -1.5014 0
M  V30 2840 O 272.148 -0.905416 -1.53833 0
M  V30 2841 C 269.248 -1.80299 -2.86959 0
M  V30 2842 C 268.421 -3.09776 -3.08801 0
M  V30 2843 C 267.48 -3.06586 -4.27658 0
M  V30 2844 O 266.506 -3.80419 -4.23403 0
M  V30 2845 N 267.708 -2.26578 -5.34455 0
M  V30 2846 H 270.473 -2.70147 -1.29771 0
M  V30 2847 H 268.034 -1.51646 -0.56703 0
M  V30 2848 H 270.026 -1.75657 -3.64591 0
M  V30 2849 H 268.596 -0.92372 -2.98641 0
M  V30 2850 H 267.816 -3.27815 -2.18931 0
M  V30 2851 H 269.104 -3.95366 -3.20255 0
M  V30 2852 H 268.502 -1.66081 -5.40771 0
M  V30 2853 H 267.059 -2.27766 -6.10709 0
M  V30 2854 N 270.492 0.636531 -1.44174 0
M  V30 2855 C 271.74 1.39343 -1.46383 0
M  V30 2856 C 272.061 1.94766 -0.0955715 0
M  V30 2857 O 271.331 1.75452 0.871395 0
M  V30 2858 H 269.911 0.517199 -0.538994 0
M  V30 2859 H 272.573 0.74957 -1.7991 0
M  V30 2860 H 271.669 2.22746 -2.18611 0
M  V30 2861 N 271.97 1.30982 0.876444 0
M  V30 2862 C 273.381 1.18277 1.44456 0
M  V30 2863 C 273.732 -0.213265 1.95037 0
M  V30 2864 O 272.857 -1.11057 1.85729 0
M  V30 2865 C 273.452 2.1411 2.62569 0
M  V30 2866 C 272.011 2.05358 3.15444 0
M  V30 2867 C 271.158 2.03706 1.88146 0
M  V30 2868 H 274.109 1.43127 0.685584 0
M  V30 2869 H 274.13 1.72692 3.39054 0
M  V30 2870 H 273.642 3.15706 2.25724 0
M  V30 2871 H 271.743 1.06934 3.56926 0
M  V30 2872 H 271.856 2.94156 3.78166 0
M  V30 2873 H 270.22 1.48629 2.06837 0
M  V30 2874 H 271.003 3.07047 1.53547 0
M  V30 2875 N 273.449 -1.08991 1.13837 0
M  V30 2876 C 274.677 -1.85011 0.926202 0
M  V30 2877 C 275.092 -1.8135 -0.525127 0
M  V30 2878 O 274.449 -1.21287 -1.36366 0
M  V30 2879 C 274.5 -3.32802 1.41155 0
M  V30 2880 O 274.221 -3.36444 2.80601 0
M  V30 2881 C 275.722 -4.25649 1.23847 0
M  V30 2882 H 272.942 -0.584249 0.32999 0
M  V30 2883 H 275.486 -1.37688 1.51202 0
M  V30 2884 H 273.641 -3.77536 0.868631 0
M  V30 2885 H 274.055 -4.28657 3.02248 0
M  V30 2886 H 275.529 -5.27485 1.62675 0
M  V30 2887 H 276.006 -4.38828 0.18065 0
M  V30 2888 H 276.612 -3.86735 1.76964 0
M  V30 2889 N 274.927 -0.932562 -1.27047 0
M  V30 2890 C 275.89 -0.440064 -2.24936 0
M  V30 2891 C 276.89 0.444071 -1.54547 0
M  V30 2892 O 278.08 0.244465 -1.72476 0
M  V30 2893 C 275.212 0.36678 -3.38921 0
M  V30 2894 H 276.405 -1.305 -2.70018 0
M  V30 2895 H 273.958 -0.713707 -1.39054 0
M  V30 2896 H 274.693 1.25033 -2.99228 0
M  V30 2897 H 274.478 -0.267204 -3.91188 0
M  V30 2898 H 275.968 0.701567 -4.11665 0
M  V30 2899 N 276.405 1.4127 -0.698611 0
M  V30 2900 C 277.368 2.29158 -0.044132 0
M  V30 2901 C 278.368 1.44529 0.704841 0
M  V30 2902 O 279.558 1.65643 0.539276 0
M  V30 2903 C 276.69 3.27459 0.947809 0
M  V30 2904 H 277.883 2.88529 -0.817994 0
M  V30 2905 H 275.436 1.49307 -0.46228 0
M  V30 2906 H 276.171 2.73073 1.74933 0
M  V30 2907 H 275.956 3.8991 0.41385 0
M  V30 2908 H 277.446 3.93311 1.40344 0
M  V30 2909 N 277.883 0.443576 1.51229 0
M  V30 2910 C 278.815 -0.400608 2.25672 0
M  V30 2911 C 279.828 -0.980945 1.29928 0
M  V30 2912 O 281.017 -0.874024 1.55638 0
M  V30 2913 C 278.117 -1.57304 3.00181 0
M  V30 2914 C 277.29 -1.11046 4.23069 0
M  V30 2915 C 276.349 -2.15374 4.80105 0
M  V30 2916 O 275.375 -1.74554 5.41774 0
M  V30 2917 N 276.577 -3.47922 4.64683 0
M  V30 2918 H 279.342 0.23745 2.98758 0
M  V30 2919 H 276.903 0.272809 1.59585 0
M  V30 2920 H 278.895 -2.26733 3.35223 0
M  V30 2921 H 277.465 -2.11632 2.30066 0
M  V30 2922 H 276.685 -0.243019 3.9345 0
M  V30 2923 H 277.973 -0.778888 5.02803 0
M  V30 2924 H 277.371 -3.83815 4.15575 0
M  V30 2925 H 275.928 -4.13228 5.0407 0
M  V30 2926 N 279.361 -1.56624 0.175154 0
M  V30 2927 C 280.607 -1.9729 -0.469506 0
M  V30 2928 C 280.94 -1.06128 -1.62636 0
M  V30 2929 O 280.215 -0.109183 -1.94193 0
M  V30 2930 C 280.498 -3.47375 -0.948804 0
M  V30 2931 C 280.351 -4.49317 0.208491 0
M  V30 2932 C 281.67 -4.00652 -1.82116 0
M  V30 2933 H 278.789 -0.717317 -0.16919 0
M  V30 2934 H 281.431 -1.88184 0.262062 0
M  V30 2935 H 279.581 -3.55267 -1.57219 0
M  V30 2936 H 281.253 -4.53482 0.845682 0
M  V30 2937 H 279.496 -4.25121 0.863395 0
M  V30 2938 H 280.167 -5.51741 -0.169059 0
M  V30 2939 H 282.643 -3.95416 -1.2956 0
M  V30 2940 H 281.519 -5.06075 -2.12554 0
M  V30 2941 H 281.78 -3.44699 -2.7683 0
M  V30 2942 N 280.839 0.0985539 -1.57292 0
M  V30 2943 C 281.769 1.12064 -2.04851 0
M  V30 2944 C 282.75 1.41981 -0.936767 0
M  V30 2945 O 283.935 1.52071 -1.20781 0
M  V30 2946 C 281.065 2.44144 -2.47004 0
M  V30 2947 C 280.019 2.28643 -3.6181 0
M  V30 2948 C 279.345 3.65869 -3.89929 0
M  V30 2949 C 280.645 1.72986 -4.92822 0
M  V30 2950 H 282.339 0.724979 -2.9049 0
M  V30 2951 H 279.885 0.34729 -1.39749 0
M  V30 2952 H 281.838 3.15914 -2.78884 0
M  V30 2953 H 280.562 2.85639 -1.5836 0
M  V30 2954 H 279.221 1.59318 -3.30172 0
M  V30 2955 H 278.869 4.04885 -2.98458 0
M  V30 2956 H 278.569 3.56344 -4.67218 0
M  V30 2957 H 280.093 4.39112 -4.2428 0
M  V30 2958 H 281.507 2.34593 -5.23105 0
M  V30 2959 H 279.904 1.74229 -5.74251 0
M  V30 2960 H 280.974 0.689007 -4.7998 0
M  V30 2961 N 282.317 1.53212 0.369288 0
M  V30 2962 C 283.249 1.75668 1.47219 0
M  V30 2963 C 284.262 0.637387 1.49804 0
M  V30 2964 O 285.451 0.913561 1.5335 0
M  V30 2965 C 282.551 1.81818 2.85999 0
M  V30 2966 C 281.724 3.11409 3.07153 0
M  V30 2967 C 280.783 3.08849 4.26026 0
M  V30 2968 O 279.809 3.82659 4.2138 0
M  V30 2969 N 281.011 2.29409 5.33246 0
M  V30 2970 H 283.776 2.70832 1.28337 0
M  V30 2971 H 281.337 1.51944 0.55898 0
M  V30 2972 H 283.329 1.77588 3.63655 0
M  V30 2973 H 281.899 0.939544 2.98146 0
M  V30 2974 H 281.119 3.28971 2.1719 0
M  V30 2975 H 282.407 3.97059 3.18154 0
M  V30 2976 H 281.805 1.68946 5.39883 0
M  V30 2977 H 280.362 2.31001 6.09493 0
M  V30 2978 N 283.795 -0.628877 1.44509 0
M  V30 2979 C 284.758 -1.72263 1.51188 0
M  V30 2980 C 285.758 -1.55907 0.39367 0
M  V30 2981 O 286.948 -1.61361 0.656377 0
M  V30 2982 C 284.08 -3.11365 1.38798 0
M  V30 2983 H 285.273 -1.67714 2.4862 0
M  V30 2984 H 282.826 -0.842737 1.31634 0
M  V30 2985 H 283.561 -3.21507 0.424693 0
M  V30 2986 H 283.346 -3.24644 2.19884 0
M  V30 2987 H 284.836 -3.91075 1.46458 0
M  V30 2988 N 285.273 -1.31445 -0.869486 0
M  V30 2989 C 286.521 -1.20918 -1.61936 0
M  V30 2990 C 286.842 0.232683 -1.93607 0
M  V30 2991 O 286.112 1.15352 -1.58338 0
M  V30 2992 H 284.692 -0.44454 -0.600328 0
M  V30 2993 H 287.354 -1.64776 -1.0409 0
M  V30 2994 H 286.45 -1.78124 -2.56278 0
M  V30 2995 N 286.751 1.08385 -1.14413 0
M  V30 2996 C 287.997 1.81044 -0.913834 0
M  V30 2997 C 288.33 1.86004 0.558209 0
M  V30 2998 O 287.605 1.33606 1.4135 0
M  V30 2999 C 287.888 3.26648 -1.51569 0
M  V30 3000 C 287.741 3.29895 -3.0576 0
M  V30 3001 C 289.06 4.23629 -1.19273 0
M  V30 3002 H 286.179 0.65727 -0.333414 0
M  V30 3003 H 288.821 1.26896 -1.41412 0
M  V30 3004 H 286.971 3.72889 -1.09023 0
M  V30 3005 H 288.643 2.91977 -3.57137 0
M  V30 3006 H 286.886 2.69163 -3.40197 0
M  V30 3007 H 287.557 4.32516 -3.42977 0
M  V30 3008 H 290.033 3.85727 -1.56057 0
M  V30 3009 H 288.909 5.23822 -1.64017 0
M  V30 3010 H 289.17 4.41968 -0.108068 0
M  V30 3011 N 288.23 0.939286 1.26551 0
M  V30 3012 C 289.193 0.451987 2.24699 0
M  V30 3013 C 290.193 -0.435869 1.5478 0
M  V30 3014 O 291.383 -0.235314 1.72603 0
M  V30 3015 C 288.515 -0.348801 3.39111 0
M  V30 3016 H 289.708 1.3193 2.69322 0
M  V30 3017 H 287.261 0.721072 1.38673 0
M  V30 3018 H 287.996 -1.23444 2.99887 0
M  V30 3019 H 287.781 0.287945 3.91041 0
M  V30 3020 H 289.271 -0.679726 4.12031 0
M  V30 3021 N 289.708 -1.40897 0.706093 0
M  V30 3022 C 290.985 -1.94868 0.169099 0
M  V30 3023 C 291.365 -1.64485 -1.32318 0
M  V30 3024 O 290.713 -0.95744 -2.07474 0
M  V30 3025 C 290.923 -3.45798 0.471654 0
M  V30 3026 C 292.271 -4.22663 0.405127 0
M  V30 3027 O 293.295 -3.53865 0.407168 0
M  V30 3028 O 292.154 -5.45216 0.374383 0
M  V30 3029 H 289.248 -0.82673 0.0211352 0
M  V30 3030 H 291.794 -1.50558 0.782976 0
M  V30 3031 H 290.566 -3.61235 1.50416 0
M  V30 3032 H 290.189 -3.97225 -0.172666 0
M  V30 3033 N 291.186 -0.45159 -1.50991 0
M  V30 3034 C 292.463 0.170707 -1.94854 0
M  V30 3035 C 292.843 1.58788 -1.39103 0
M  V30 3036 O 292.191 2.20913 -0.583921 0
M  V30 3037 C 292.401 0.133929 -3.48743 0
M  V30 3038 C 293.749 0.33248 -4.23296 0
M  V30 3039 O 294.773 0.211403 -3.55572 0
M  V30 3040 O 293.632 0.57486 -5.43468 0
M  V30 3041 H 290.726 0.122264 -0.817912 0
M  V30 3042 H 293.272 -0.510594 -1.61836 0
M  V30 3043 H 292.044 -0.856283 -3.81816 0
M  V30 3044 H 291.667 0.857529 -3.88242 0
M  V30 3045 N 292.664 1.56529 -0.183458 0
M  V30 3046 C 293.594 2.21549 0.737456 0
M  V30 3047 C 294.575 1.17489 1.23005 0
M  V30 3048 O 295.76 1.45959 1.281 0
M  V30 3049 C 292.89 2.86575 1.96194 0
M  V30 3050 C 291.844 3.96778 1.60473 0
M  V30 3051 C 291.17 4.48911 2.90487 0
M  V30 3052 C 292.47 5.15767 0.823497 0
M  V30 3053 H 294.164 2.98761 0.195453 0
M  V30 3054 H 291.71 1.43702 0.0925686 0
M  V30 3055 H 293.663 3.30739 2.61131 0
M  V30 3056 H 292.387 2.06749 2.52828 0
M  V30 3057 H 291.046 3.53286 0.978997 0
M  V30 3058 H 290.694 3.65862 3.45186 0
M  V30 3059 H 290.394 5.23265 2.67335 0
M  V30 3060 H 291.918 4.95771 3.56432 0
M  V30 3061 H 293.332 5.56549 1.37571 0
M  V30 3062 H 291.729 5.96114 0.690551 0
M  V30 3063 H 292.799 4.84574 -0.177782 0
M  V30 3064 N 294.142 -0.090211 1.57342 0
M  V30 3065 C 295.558 -0.444547 1.53284 0
M  V30 3066 C 295.758 -1.80238 0.900914 0
M  V30 3067 O 294.814 -2.4759 0.495513 0
M  V30 3068 C 296.127 -0.402543 2.97993 0
M  V30 3069 C 297.675 -0.48405 3.09234 0
M  V30 3070 C 298.15 -0.472144 4.5556 0
M  V30 3071 N 299.641 -0.532757 4.60126 0
M  V30 3072 C 300.376 -0.545462 5.708 0
M  V30 3073 N 299.872 -0.514082 6.9089 0
M  V30 3074 N 301.665 -0.59064 5.58988 0
M  V30 3075 H 293.816 0.799121 1.96794 0
M  V30 3076 H 296.079 0.297965 0.899956 0
M  V30 3077 H 295.785 0.528106 3.47712 0
M  V30 3078 H 295.659 -1.21969 3.56936 0
M  V30 3079 H 298.046 -1.40512 2.595 0
M  V30 3080 H 298.127 0.361328 2.53235 0
M  V30 3081 H 297.771 0.445 5.05947 0
M  V30 3082 H 297.701 -1.3348 5.09402 0
M  V30 3083 H 300.192 -0.562006 3.73698 0
M  V30 3084 H 300.505 -0.527195 7.71 0
M  V30 3085 H 298.85 -0.481054 6.93333 0
M  V30 3086 H 302.041 -0.61272 4.64073 0
M  V30 3087 H 302.214 -0.597073 6.45243 0
M  V30 3088 N 295.62 -1.53406 -0.361157 0
M  V30 3089 C 296.567 -1.80156 -1.44265 0
M  V30 3090 C 297.537 -0.646183 -1.53015 0
M  V30 3091 O 298.722 -0.888818 -1.68833 0
M  V30 3092 C 295.862 -2.00116 -2.81154 0
M  V30 3093 C 294.975 -3.27833 -2.81335 0
M  V30 3094 C 294.11 -3.37957 -4.09828 0
M  V30 3095 C 293.149 -4.59689 -4.04168 0
M  V30 3096 N 292.286 -4.66942 -5.24318 0
M  V30 3097 H 297.126 -2.72438 -1.20754 0
M  V30 3098 H 294.663 -1.34954 -0.585296 0
M  V30 3099 H 296.621 -2.09677 -3.60682 0
M  V30 3100 H 295.251 -1.11167 -3.03054 0
M  V30 3101 H 294.303 -3.27204 -1.94014 0
M  V30 3102 H 295.615 -4.17442 -2.73027 0
M  V30 3103 H 294.769 -3.46853 -4.97773 0
M  V30 3104 H 293.508 -2.46372 -4.20894 0
M  V30 3105 H 292.513 -4.50889 -3.14609 0
M  V30 3106 H 293.738 -5.5262 -3.947 0
M  V30 3107 H 291.684 -3.7826 -5.35962 0
M  V30 3108 H 291.601 -5.50462 -5.18197 0
M  V30 3109 H 292.869 -4.80127 -6.14084 0
M  V30 3110 N 297.098 0.621204 -1.44841 0
M  V30 3111 C 298.028 1.74366 -1.55303 0
M  V30 3112 C 299.009 1.65199 -0.405385 0
M  V30 3113 O 300.194 1.83807 -0.626787 0
M  V30 3114 C 297.324 3.12931 -1.50637 0
M  V30 3115 C 296.278 3.36896 -2.63979 0
M  V30 3116 C 295.604 4.75594 -2.44366 0
M  V30 3117 C 296.904 3.28483 -4.06074 0
M  V30 3118 H 298.598 1.65867 -2.49256 0
M  V30 3119 H 296.144 0.796558 -1.19962 0
M  V30 3120 H 298.097 3.9124 -1.56555 0
M  V30 3121 H 296.821 3.22237 -0.532057 0
M  V30 3122 H 295.48 2.60972 -2.57467 0
M  V30 3123 H 295.128 4.81616 -1.45105 0
M  V30 3124 H 294.828 4.92586 -3.20364 0
M  V30 3125 H 296.352 5.5612 -2.52117 0
M  V30 3126 H 297.766 3.96684 -4.13902 0
M  V30 3127 H 296.163 3.57008 -4.82354 0
M  V30 3128 H 297.233 2.26133 -4.28943 0
M  V30 3129 N 298.576 1.31904 0.862503 0
M  V30 3130 C 299.987 1.19803 1.43193 0
M  V30 3131 C 300.338 -0.192567 1.95253 0
M  V30 3132 O 299.463 -1.09081 1.86896 0
M  V30 3133 C 300.058 2.16883 2.60283 0
M  V30 3134 C 298.617 2.08692 3.13248 0
M  V30 3135 C 297.764 2.05691 1.85975 0
M  V30 3136 H 300.715 1.43846 0.670365 0
M  V30 3137 H 300.736 1.76278 3.37204 0
M  V30 3138 H 300.248 3.18083 2.22363 0
M  V30 3139 H 298.349 1.10713 3.55771 0
M  V30 3140 H 298.462 2.9815 3.75025 0
M  V30 3141 H 296.826 1.50814 2.05249 0
M  V30 3142 H 297.609 3.08659 1.50282 0
M  V30 3143 N 300.054 -1.07777 1.14986 0
M  V30 3144 C 301.301 -1.8029 0.922056 0
M  V30 3145 C 301.629 -1.86531 -0.55105 0
M  V30 3146 O 300.884 -1.34189 -1.42449 0
M  V30 3147 C 301.183 -3.25495 1.47608 0
M  V30 3148 C 300.849 -3.39361 2.96893 0
M  V30 3149 C 299.511 -3.42852 3.37647 0
M  V30 3150 C 301.863 -3.42512 3.92854 0
M  V30 3151 C 299.191 -3.47094 4.73015 0
M  V30 3152 C 301.543 -3.4829 5.28088 0
M  V30 3153 C 300.207 -3.50058 5.68345 0
M  V30 3154 H 299.477 -0.659727 0.337404 0
M  V30 3155 H 302.124 -1.26854 1.43459 0
M  V30 3156 H 300.429 -3.81683 0.88463 0
M  V30 3157 H 302.126 -3.80168 1.27568 0
M  V30 3158 H 298.716 -3.37339 2.64387 0
M  V30 3159 H 302.9 -3.3904 3.62444 0
M  V30 3160 H 298.156 -3.46758 5.03556 0
M  V30 3161 H 302.33 -3.49675 6.02246 0
M  V30 3162 H 299.957 -3.53097 6.73221 0
M  V30 3163 N 301.532 -0.945985 -1.26051 0
M  V30 3164 C 302.465 -0.403619 -2.24602 0
M  V30 3165 C 303.443 0.510241 -1.54387 0
M  V30 3166 O 304.627 0.446593 -1.83133 0
M  V30 3167 C 301.754 0.419564 -3.36091 0
M  V30 3168 C 300.8 -0.433454 -4.24292 0
M  V30 3169 S 301.633 -1.86037 -5.02146 0
M  V30 3170 C 302.789 -1.04538 -6.17108 0
M  V30 3171 H 303.022 -1.23883 -2.7026 0
M  V30 3172 H 300.555 -0.749438 -1.34992 0
M  V30 3173 H 302.513 0.888595 -4.00767 0
M  V30 3174 H 301.174 1.22951 -2.89036 0
M  V30 3175 H 300.367 0.197486 -5.03613 0
M  V30 3176 H 299.969 -0.837357 -3.64506 0
M  V30 3177 H 302.261 -0.289923 -6.76879 0
M  V30 3178 H 303.204 -1.81222 -6.84518 0
M  V30 3179 H 303.612 -0.579319 -5.61519 0
M  V30 3180 N 303.011 1.40521 -0.713556 0
M  V30 3181 C 304.239 2.05237 -0.261775 0
M  V30 3182 C 304.654 1.53755 1.09567 0
M  V30 3183 O 304.011 0.693268 1.6882 0
M  V30 3184 C 304.062 3.60763 -0.230706 0
M  V30 3185 O 303.783 4.10345 -1.53455 0
M  V30 3186 C 305.284 4.42651 0.239874 0
M  V30 3187 H 302.504 0.660533 -0.118057 0
M  V30 3188 H 305.048 1.79967 -0.971192 0
M  V30 3189 H 303.203 3.8501 0.429661 0
M  V30 3190 H 303.617 5.04526 -1.43366 0
M  V30 3191 H 305.091 5.51599 0.210468 0
M  V30 3192 H 305.568 4.20082 1.28171 0
M  V30 3193 H 306.174 4.23507 -0.390142 0
M  V30 3194 N 304.489 0.459591 1.5075 0
M  V30 3195 C 305.714 -0.0996819 2.0716 0
M  V30 3196 C 306.139 -1.33761 1.32249 0
M  V30 3197 O 305.497 -1.77551 0.366786 0
M  V30 3198 C 305.545 -0.378226 3.58611 0
M  V30 3199 O 304.649 -1.46081 3.85661 0
M  V30 3200 H 303.99 0.00791392 0.663953 0
M  V30 3201 H 306.52 0.647329 1.9409 0
M  V30 3202 H 306.53 -0.622135 4.03229 0
M  V30 3203 H 305.205 0.526439 4.12555 0
M  V30 3204 H 303.782 -1.20511 3.5289 0
M  V30 3205 N 305.967 -1.56429 0.191757 0
M  V30 3206 C 306.93 -2.17707 -0.716688 0
M  V30 3207 C 307.93 -1.13061 -1.14341 0
M  V30 3208 O 309.12 -1.38464 -1.05704 0
M  V30 3209 C 306.252 -2.77644 -1.97804 0
M  V30 3210 H 307.445 -2.99342 -0.1829 0
M  V30 3211 H 304.998 -1.56193 -0.0578566 0
M  V30 3212 H 305.733 -1.99799 -2.55443 0
M  V30 3213 H 305.518 -3.54246 -1.68083 0
M  V30 3214 H 307.008 -3.24708 -2.62592 0
M  V30 3215 N 307.445 0.0818655 -1.57387 0
M  V30 3216 C 308.691 0.784074 -1.8703 0
M  V30 3217 C 309.024 1.77729 -0.782689 0
M  V30 3218 O 308.299 1.93384 0.208051 0
M  V30 3219 C 308.582 1.50105 -3.27323 0
M  V30 3220 C 308.435 0.524925 -4.46727 0
M  V30 3221 C 309.754 2.44843 -3.65705 0
M  V30 3222 H 306.873 0.283582 -0.680257 0
M  V30 3223 H 309.515 0.0474352 -1.89941 0
M  V30 3224 H 307.665 2.12897 -3.24972 0
M  V30 3225 H 309.337 -0.0970111 -4.61198 0
M  V30 3226 H 307.58 -0.160606 -4.33503 0
M  V30 3227 H 308.251 1.064 -5.41648 0
M  V30 3228 H 310.727 1.92135 -3.69085 0
M  V30 3229 H 309.603 2.92018 -4.64776 0
M  V30 3230 H 309.864 3.29197 -2.95096 0
M  V30 3231 N 308.923 1.53595 0.353017 0
M  V30 3232 C 309.856 1.7572 1.45594 0
M  V30 3233 C 310.834 0.605961 1.50887 0
M  V30 3234 O 312.018 0.840023 1.68748 0
M  V30 3235 C 309.145 1.84732 2.83887 0
M  V30 3236 C 308.191 3.06808 2.96262 0
M  V30 3237 S 309.024 4.66065 2.63711 0
M  V30 3238 C 310.18 4.77943 4.04131 0
M  V30 3239 H 310.413 2.68994 1.26608 0
M  V30 3240 H 307.946 1.44343 0.548117 0
M  V30 3241 H 309.904 1.9061 3.63563 0
M  V30 3242 H 308.565 0.92488 3.00175 0
M  V30 3243 H 307.758 3.09761 3.97573 0
M  V30 3244 H 307.36 2.99108 2.24523 0
M  V30 3245 H 309.652 4.5877 4.98534 0
M  V30 3246 H 310.595 5.80022 4.06177 0
M  V30 3247 H 311.003 4.06472 3.91715 0
M  V30 3248 N 310.401 -0.613514 1.45168 0
M  V30 3249 C 311.311 -1.75296 1.55912 0
M  V30 3250 C 312.327 -1.68244 0.443856 0
M  V30 3251 O 313.503 -1.88706 0.70371 0
M  V30 3252 C 310.568 -3.1174 1.5172 0
M  V30 3253 C 309.629 -3.30291 2.74238 0
M  V30 3254 C 308.862 -4.60226 2.70236 0
M  V30 3255 O 309.085 -5.42168 1.77229 0
M  V30 3256 O 308.019 -4.81361 3.61352 0
M  V30 3257 H 311.845 -1.69183 2.52212 0
M  V30 3258 H 309.43 -0.776886 1.27612 0
M  V30 3259 H 311.312 -3.93044 1.51968 0
M  V30 3260 H 309.987 -3.18357 0.585697 0
M  V30 3261 H 308.894 -2.48598 2.79553 0
M  V30 3262 H 310.227 -3.28547 3.66494 0
M  V30 3263 N 311.879 -1.3236 -0.855495 0
M  V30 3264 C 313.125 -1.23054 -1.612 0
M  V30 3265 C 313.458 0.207404 -1.93089 0
M  V30 3266 O 312.733 1.14432 -1.57275 0
M  V30 3267 C 313.016 -2.08937 -2.93287 0
M  V30 3268 C 312.869 -3.61105 -2.68185 0
M  V30 3269 C 314.188 -1.94986 -3.94549 0
M  V30 3270 H 311.307 -0.448364 -0.584926 0
M  V30 3271 H 313.949 -1.62297 -0.987917 0
M  V30 3272 H 312.099 -1.75599 -3.46551 0
M  V30 3273 H 313.771 -4.04652 -2.21483 0
M  V30 3274 H 312.014 -3.83813 -2.02164 0
M  V30 3275 H 312.685 -4.16522 -3.62234 0
M  V30 3276 H 315.161 -2.24189 -3.5054 0
M  V30 3277 H 314.037 -2.57356 -4.84829 0
M  V30 3278 H 314.298 -0.917263 -4.3248 0
M  V30 3279 N 313.357 1.07166 -1.15556 0
M  V30 3280 C 314.604 1.79798 -0.931604 0
M  V30 3281 C 314.932 1.8682 0.54115 0
M  V30 3282 O 314.187 1.34942 1.41736 0
M  V30 3283 C 314.486 3.24707 -1.49332 0
M  V30 3284 C 314.152 3.37781 -2.98688 0
M  V30 3285 C 312.814 3.41057 -3.39461 0
M  V30 3286 C 315.166 3.40424 -3.94665 0
M  V30 3287 C 312.494 3.4458 -4.74849 0
M  V30 3288 C 314.846 3.45485 -5.29927 0
M  V30 3289 C 313.51 3.47039 -5.70193 0
M  V30 3290 H 312.78 0.657928 -0.340898 0
M  V30 3291 H 315.427 1.26091 -1.44129 0
M  V30 3292 H 313.732 3.81208 -0.904859 0
M  V30 3293 H 315.429 3.79486 -1.29582 0
M  V30 3294 H 312.019 3.35932 -2.66172 0
M  V30 3295 H 316.203 3.37113 -3.64237 0
M  V30 3296 H 311.459 3.44083 -5.05388 0
M  V30 3297 H 315.633 3.46476 -6.04092 0
M  V30 3298 H 313.26 3.49522 -6.75084 0
M  V30 3299 N 314.835 0.952656 1.25548 0
M  V30 3300 C 316.083 0.605176 1.92826 0
M  V30 3301 C 316.404 -0.860261 1.74999 0
M  V30 3302 O 315.674 -1.6125 1.11244 0
M  V30 3303 H 314.254 0.220832 0.713612 0
M  V30 3304 H 316.916 1.21047 1.52754 0
M  V30 3305 H 316.012 0.832798 3.00784 0
M  V30 3306 N 316.313 -1.40141 0.720998 0
M  V30 3307 C 317.559 -2.01084 0.263231 0
M  V30 3308 C 317.892 -1.57052 -1.14229 0
M  V30 3309 O 317.167 -0.793027 -1.77599 0
M  V30 3310 C 317.45 -3.58401 0.349344 0
M  V30 3311 C 317.303 -4.12491 1.79363 0
M  V30 3312 C 318.622 -4.39231 -0.276351 0
M  V30 3313 H 315.741 -0.730572 0.0971228 0
M  V30 3314 H 318.383 -1.66543 0.914518 0
M  V30 3315 H 316.533 -3.87958 -0.205165 0
M  V30 3316 H 318.205 -3.93711 2.40394 0
M  V30 3317 H 316.448 -3.66576 2.31958 0
M  V30 3318 H 317.119 -5.21646 1.80524 0
M  V30 3319 H 319.595 -4.15637 0.196184 0
M  V30 3320 H 318.471 -5.48586 -0.185681 0
M  V30 3321 H 318.732 -4.20643 -1.36059 0
M  V30 3322 N 317.792 -0.46758 -1.50504 0
M  V30 3323 C 319.017 0.0886943 -2.0721 0
M  V30 3324 C 319.442 1.33057 -1.32956 0
M  V30 3325 O 318.8 1.77354 -0.376197 0
M  V30 3326 C 318.848 0.359202 -3.58806 0
M  V30 3327 O 317.952 1.44034 -3.8643 0
M  V30 3328 H 317.293 -0.0114349 -0.663902 0
M  V30 3329 H 319.823 -0.657613 -1.93744 0
M  V30 3330 H 319.833 0.600742 -4.03553 0
M  V30 3331 H 318.508 -0.548311 -4.1227 0
M  V30 3332 H 317.085 1.18638 -3.53524 0
M  V30 3333 N 319.27 1.56325 -0.20005 0
M  V30 3334 C 320.518 1.97329 0.436547 0
M  V30 3335 C 320.839 1.08826 1.61808 0
M  V30 3336 O 320.109 0.160604 1.95241 0
M  V30 3337 H 318.689 0.728714 0.164272 0
M  V30 3338 H 321.351 1.92761 -0.287937 0
M  V30 3339 H 320.447 3.02264 0.777353 0
M  V30 3340 N 320.748 -0.0735177 1.57428 0
M  V30 3341 C 321.988 -0.778363 1.89 0
M  V30 3342 C 322.352 -1.7483 0.793634 0
M  V30 3343 O 323.553 -2.49811 0.992367 0
M  V30 3344 C 321.824 -1.46929 3.25802 0
M  V30 3345 S 323.383 -2.20943 3.79117 0
M  V30 3346 H 320.201 -0.258874 0.662197 0
M  V30 3347 H 322.803 -0.0345338 1.95469 0
M  V30 3348 H 321.507 -0.749532 4.03497 0
M  V30 3349 H 321.038 -2.25258 3.22525 0
M  V30 3350 H 323.053 -3.47435 3.54265 0
M  V30 3351 N 322.226 -1.5378 -0.344866 0
M  V30 3352 C 323.642 -1.44015 -0.687888 0
M  V30 3353 C 323.842 -0.595834 -1.92489 0
M  V30 3354 O 322.898 -0.0863064 -2.52352 0
M  V30 3355 C 324.211 -2.87481 -0.881758 0
M  V30 3356 C 325.759 -2.97247 -0.980459 0
M  V30 3357 C 326.234 -4.41819 -1.20665 0
M  V30 3358 N 327.725 -4.45339 -1.27389 0
M  V30 3359 C 328.46 -5.54333 -1.46639 0
M  V30 3360 N 327.956 -6.73335 -1.63071 0
M  V30 3361 N 329.749 -5.41944 -1.49176 0
M  V30 3362 H 321.9 -2.07169 0.468475 0
M  V30 3363 H 324.163 -0.93643 0.147655 0
M  V30 3364 H 323.869 -3.51672 -0.0443444 0
M  V30 3365 H 323.743 -3.32352 -1.78388 0
M  V30 3366 H 326.13 -2.33197 -1.8084 0
M  V30 3367 H 326.211 -2.5574 -0.0552713 0
M  V30 3368 H 325.855 -5.06449 -0.383652 0
M  V30 3369 H 325.785 -4.80917 -2.14539 0
M  V30 3370 H 328.276 -3.59585 -1.1622 0
M  V30 3371 H 328.589 -7.52165 -1.77391 0
M  V30 3372 H 326.934 -6.76282 -1.60209 0
M  V30 3373 H 330.125 -4.47932 -1.3592 0
M  V30 3374 H 330.298 -6.26946 -1.63837 0
M  V30 3375 N 323.704 0.605807 -1.45491 0
M  V30 3376 C 324.95 1.36679 -1.49823 0
M  V30 3377 C 325.283 1.93693 -0.140175 0
M  V30 3378 O 324.558 1.75158 0.845581 0
M  V30 3379 C 324.841 2.51337 -2.57879 0
M  V30 3380 C 324.694 1.99508 -4.03134 0
M  V30 3381 C 326.013 3.53463 -2.62205 0
M  V30 3382 H 323.132 0.495617 -0.545466 0
M  V30 3383 H 325.774 0.682732 -1.7731 0
M  V30 3384 H 323.924 3.09691 -2.34571 0
M  V30 3385 H 325.596 1.45789 -4.37656 0
M  V30 3386 H 323.839 1.30496 -4.13707 0
M  V30 3387 H 324.51 2.82169 -4.74431 0
M  V30 3388 H 326.986 3.04953 -2.83095 0
M  V30 3389 H 325.862 4.31178 -3.39672 0
M  V30 3390 H 326.123 4.09197 -1.67363 0
M  V30 3391 N 325.182 1.32811 0.848464 0
M  V30 3392 C 326.41 1.26739 1.63538 0
M  V30 3393 C 326.825 -0.163484 1.88091 0
M  V30 3394 O 326.182 -1.10258 1.45429 0
M  V30 3395 C 326.233 2.03013 2.99112 0
M  V30 3396 O 325.954 3.40518 2.75643 0
M  V30 3397 C 327.455 2.04038 3.93552 0
M  V30 3398 H 324.675 0.437024 0.509167 0
M  V30 3399 H 327.219 1.75033 1.05753 0
M  V30 3400 H 325.374 1.58426 3.53525 0
M  V30 3401 H 325.788 3.79635 3.61908 0
M  V30 3402 H 327.262 2.61877 4.85926 0
M  V30 3403 H 327.739 1.0282 4.26995 0
M  V30 3404 H 328.345 2.486 3.45077 0
M  V30 3405 N 326.66 -1.06551 1.16123 0
M  V30 3406 C 328.076 -1.3142 0.905585 0
M  V30 3407 C 328.276 -1.96571 -0.442964 0
M  V30 3408 O 327.332 -2.23068 -1.18308 0
M  V30 3409 C 328.645 -2.19741 2.05267 0
M  V30 3410 C 330.193 -2.33165 2.08813 0
M  V30 3411 C 330.668 -3.24838 3.22868 0
M  V30 3412 N 332.159 -3.32421 3.22568 0
M  V30 3413 C 332.894 -4.0344 4.0746 0
M  V30 3414 N 332.39 -4.77003 5.02434 0
M  V30 3415 N 334.183 -3.99464 3.95456 0
M  V30 3416 H 326.334 -0.626548 2.02949 0
M  V30 3417 H 328.597 -0.338777 0.8854 0
M  V30 3418 H 328.303 -1.79142 3.02657 0
M  V30 3419 H 328.177 -3.20313 1.99198 0
M  V30 3420 H 330.564 -2.73013 1.12018 0
M  V30 3421 H 330.645 -1.3227 2.18948 0
M  V30 3422 H 330.289 -2.85708 4.19921 0
M  V30 3423 H 330.219 -4.25707 3.0997 0
M  V30 3424 H 332.71 -2.79994 2.53795 0
M  V30 3425 H 333.023 -5.28712 5.63634 0
M  V30 3426 H 331.368 -4.75992 5.06415 0
M  V30 3427 H 334.559 -3.4111 3.20564 0
M  V30 3428 H 334.732 -4.54544 4.61837 0
M  V30 3429 N 328.138 -0.959301 -1.25041 0
M  V30 3430 C 329.378 -0.624343 -1.94631 0
M  V30 3431 C 329.742 0.82403 -1.73418 0
M  V30 3432 O 330.943 1.26881 -2.3697 0
M  V30 3433 C 329.214 -0.978805 -3.43736 0
M  V30 3434 S 330.773 -0.757127 -4.32219 0
M  V30 3435 H 327.591 -0.229327 -0.673001 0
M  V30 3436 H 330.193 -1.23447 -1.51595 0
M  V30 3437 H 328.897 -2.02997 -3.56679 0
M  V30 3438 H 328.428 -0.359117 -3.91757 0
M  V30 3439 H 330.443 0.369759 -4.9482 0
M  V30 3440 N 329.616 1.39756 -0.72842 0
M  V30 3441 C 330.864 2.00248 -0.272946 0
M  V30 3442 C 331.185 1.58077 1.14178 0
M  V30 3443 O 330.455 0.826014 1.77634 0
M  V30 3444 H 329.035 0.740554 -0.0979247 0
M  V30 3445 H 331.697 1.70903 -0.936912 0
M  V30 3446 H 330.793 3.10495 -0.316142 0
M  V30 3447 N 331.094 0.475555 1.50254 0
M  V30 3448 C 332.324 -0.0753399 2.06463 0
M  V30 3449 C 332.732 -1.33661 1.33908 0
M  V30 3450 O 332.075 -1.79219 0.403257 0
M  V30 3451 C 332.137 -0.424921 3.5698 0
M  V30 3452 C 331.801 0.734965 4.51051 0
M  V30 3453 C 332.798 1.61827 4.94073 0
M  V30 3454 C 330.483 0.926557 4.9368 0
M  V30 3455 C 332.477 2.67754 5.78434 0
M  V30 3456 C 330.164 1.98904 5.77824 0
M  V30 3457 C 331.162 2.8629 6.20103 0
M  V30 3458 O 330.85 3.90708 7.02568 0
M  V30 3459 H 330.582 0.00576308 0.675975 0
M  V30 3460 H 333.136 0.664662 1.94349 0
M  V30 3461 H 331.366 -1.21817 3.67012 0
M  V30 3462 H 333.055 -0.911422 3.95535 0
M  V30 3463 H 333.821 1.48196 4.61804 0
M  V30 3464 H 329.7 0.25584 4.6029 0
M  V30 3465 H 333.244 3.35992 6.11355 0
M  V30 3466 H 329.141 2.12541 6.09505 0
M  V30 3467 H 329.909 3.87751 7.20827 0
M  V30 3468 N 332.573 -1.56217 0.208337 0
M  V30 3469 C 333.801 -2.02337 -0.43215 0
M  V30 3470 C 334.216 -1.08834 -1.54275 0
M  V30 3471 O 333.573 -0.0955462 -1.8225 0
M  V30 3472 C 333.624 -3.48072 -0.976138 0
M  V30 3473 O 333.345 -4.38007 0.0901621 0
M  V30 3474 C 334.846 -4.09773 -1.69119 0
M  V30 3475 H 332.066 -0.662385 -0.10718 0
M  V30 3476 H 334.61 -2.01966 0.320923 0
M  V30 3477 H 332.765 -3.49099 -1.67954 0
M  V30 3478 H 333.179 -5.23543 -0.316701 0
M  V30 3479 H 334.653 -5.13556 -2.02397 0
M  V30 3480 H 335.13 -3.53999 -2.59964 0
M  V30 3481 H 335.736 -4.12556 -1.03332 0
M  V30 3482 N 334.051 0.0651679 -1.57465 0
M  V30 3483 C 335.299 0.761555 -1.87202 0
M  V30 3484 C 335.62 1.77778 -0.801243 0
M  V30 3485 O 334.89 1.95166 0.16937 0
M  V30 3486 H 333.47 0.284251 -0.690804 0
M  V30 3487 H 336.132 0.0396827 -1.9486 0
M  V30 3488 H 335.228 1.27365 -2.84929 0
M  V30 3489 N 335.529 1.53961 0.336706 0
M  V30 3490 C 336.439 1.85432 1.43708 0
M  V30 3491 C 337.455 0.745053 1.57242 0
M  V30 3492 O 338.631 1.03804 1.72588 0
M  V30 3493 C 335.696 2.06349 2.78605 0
M  V30 3494 C 334.757 3.30191 2.74358 0
M  V30 3495 C 333.99 3.50101 4.02822 0
M  V30 3496 O 334.213 2.7371 5.00439 0
M  V30 3497 O 333.147 4.43547 4.06878 0
M  V30 3498 H 336.973 2.78975 1.20028 0
M  V30 3499 H 334.558 1.39701 0.52952 0
M  V30 3500 H 336.44 2.21513 3.58483 0
M  V30 3501 H 335.115 1.15995 3.02203 0
M  V30 3502 H 334.022 3.20425 1.93078 0
M  V30 3503 H 335.355 4.2056 2.55715 0
M  V30 3504 N 337.007 -0.598083 1.45811 0
M  V30 3505 C 338.284 -1.35777 1.40797 0
M  V30 3506 C 338.664 -2.10935 0.083462 0
M  V30 3507 O 338.012 -2.08505 -0.934763 0
M  V30 3508 C 338.222 -2.29666 2.62783 0
M  V30 3509 C 339.57 -2.91977 3.08277 0
M  V30 3510 O 340.594 -2.39984 2.63223 0
M  V30 3511 O 339.453 -3.86376 3.86491 0
M  V30 3512 H 336.547 -0.609291 0.55919 0
M  V30 3513 H 339.093 -0.620379 1.57954 0
M  V30 3514 H 337.865 -1.73454 3.50756 0
M  V30 3515 H 337.488 -3.1077 2.48008 0
M  V30 3516 N 338.485 -1.33259 -0.841409 0
M  V30 3517 C 339.733 -1.24326 -1.59334 0
M  V30 3518 C 340.054 0.191564 -1.94057 0
M  V30 3519 O 339.324 1.11967 -1.60749 0
M  V30 3520 H 337.904 -0.457174 -0.590763 0
M  V30 3521 H 340.566 -1.66947 -1.00571 0
M  V30 3522 H 339.662 -1.8352 -2.52442 0
M  V30 3523 N 339.963 1.05934 -1.16686 0
M  V30 3524 C 341.209 1.79065 -0.95203 0
M  V30 3525 C 341.542 1.87147 0.518629 0
M  V30 3526 O 340.817 1.36574 1.38484 0
M  V30 3527 C 341.1 3.23359 -1.58464 0
M  V30 3528 C 340.953 3.23336 -3.12689 0
M  V30 3529 C 342.272 4.21004 -1.28232 0
M  V30 3530 H 339.391 0.65005 -0.34728 0
M  V30 3531 H 342.033 1.23868 -1.44072 0
M  V30 3532 H 340.183 3.70493 -1.16908 0
M  V30 3533 H 341.855 2.84336 -3.6325 0
M  V30 3534 H 340.098 2.61886 -3.4583 0
M  V30 3535 H 340.769 4.25144 -3.52075 0
M  V30 3536 H 343.245 3.8233 -1.64203 0
M  V30 3537 H 342.121 5.20225 -1.75092 0
M  V30 3538 H 342.382 4.41639 -0.201791 0
M  V30 3539 N 341.441 0.965919 1.2453 0
M  V30 3540 C 342.351 0.502154 2.29163 0
M  V30 3541 C 343.367 -0.436017 1.68448 0
M  V30 3542 O 344.543 -0.309497 1.99008 0
M  V30 3543 C 341.608 -0.201956 3.46111 0
M  V30 3544 C 340.669 0.775821 4.22232 0
M  V30 3545 C 339.902 0.105217 5.33596 0
M  V30 3546 O 340.125 -1.10683 5.59558 0
M  V30 3547 O 339.059 0.796475 5.96607 0
M  V30 3548 H 342.885 1.37194 2.70946 0
M  V30 3549 H 340.47 0.732875 1.30189 0
M  V30 3550 H 342.352 -0.597564 4.17142 0
M  V30 3551 H 341.027 -1.04673 3.06309 0
M  V30 3552 H 339.934 1.22185 3.53584 0
M  V30 3553 H 341.267 1.58896 4.65846 0
M  V30 3554 N 342.919 -1.39368 0.735821 0
M  V30 3555 C 344.168 -1.99733 0.281004 0
M  V30 3556 C 344.481 -1.59055 -1.13846 0
M  V30 3557 O 345.687 -2.12262 -1.69284 0
M  V30 3558 C 344.143 -3.57057 0.451462 0
M  V30 3559 C 343.751 -4.06697 1.87886 0
M  V30 3560 C 345.495 -4.2446 0.0584616 0
M  V30 3561 C 343.402 -5.56598 1.99883 0
M  V30 3562 H 342.332 -0.747163 0.101311 0
M  V30 3563 H 344.983 -1.59357 0.909819 0
M  V30 3564 H 343.365 -3.95234 -0.246263 0
M  V30 3565 H 344.539 -3.79853 2.60861 0
M  V30 3566 H 342.854 -3.5196 2.22515 0
M  V30 3567 H 345.451 -5.34549 0.127099 0
M  V30 3568 H 345.794 -4.04444 -0.986433 0
M  V30 3569 H 346.327 -3.9146 0.707374 0
M  V30 3570 H 343.066 -5.81494 3.02564 0
M  V30 3571 H 342.586 -5.85242 1.31346 0
M  V30 3572 H 344.265 -6.22022 1.78039 0
M  V30 3573 N 344.397 -0.483516 -1.5 0
M  V30 3574 C 345.622 0.0667119 -2.07293 0
M  V30 3575 C 346.047 1.3164 -1.3436 0
M  V30 3576 O 345.405 1.76945 -0.394987 0
M  V30 3577 C 345.453 0.321126 -3.59167 0
M  V30 3578 O 344.557 1.39927 -3.87936 0
M  V30 3579 H 343.898 -0.0184758 -0.663743 0
M  V30 3580 H 346.428 -0.678125 -1.93035 0
M  V30 3581 H 346.438 0.557906 -4.04168 0
M  V30 3582 H 345.113 -0.592007 -4.11665 0
M  V30 3583 H 343.69 1.14882 -3.54763 0
M  V30 3584 N 345.875 1.56104 -0.216619 0
M  V30 3585 C 347.121 1.98466 0.417033 0
M  V30 3586 C 347.454 1.10403 1.59765 0
M  V30 3587 O 346.729 0.160632 1.93836 0
M  V30 3588 C 347.012 3.49769 0.85637 0
M  V30 3589 C 346.865 4.48606 -0.327546 0
M  V30 3590 C 348.184 4.05339 1.7143 0
M  V30 3591 H 345.303 0.721551 0.150112 0
M  V30 3592 H 347.945 1.87423 -0.311864 0
M  V30 3593 H 346.095 3.5931 1.47745 0
M  V30 3594 H 347.767 4.5108 -0.965618 0
M  V30 3595 H 346.01 4.22682 -0.975805 0
M  V30 3596 H 346.681 5.51995 0.0227149 0
M  V30 3597 H 349.157 3.98712 1.19031 0
M  V30 3598 H 348.033 5.11533 1.99061 0
M  V30 3599 H 348.294 3.51918 2.67593 0
M  V30 3600 N 347.353 -0.0568162 1.57498 0
M  V30 3601 C 348.764 -0.606858 1.76562 0
M  V30 3602 C 349.115 -1.77114 0.844094 0
M  V30 3603 O 348.24 -2.16376 0.0318911 0
M  V30 3604 C 348.835 -1.10766 3.20182 0
M  V30 3605 C 347.394 -1.60344 3.40539 0
M  V30 3606 C 346.541 -0.529311 2.72201 0
M  V30 3607 H 349.492 0.169393 1.57793 0
M  V30 3608 H 349.513 -1.97602 3.25167 0
M  V30 3609 H 349.025 -0.26006 3.87228 0
M  V30 3610 H 347.126 -2.47379 2.78629 0
M  V30 3611 H 347.239 -1.67006 4.4905 0
M  V30 3612 H 345.603 -0.977893 2.35179 0
M  V30 3613 H 346.386 0.308352 3.41912 0
M  V30 3614 N 348.832 -1.54138 -0.328536 0
M  V30 3615 C 350.078 -1.7236 -1.06865 0
M  V30 3616 C 350.411 -0.493231 -1.87832 0
M  V30 3617 O 349.686 0.5098 -1.877 0
M  V30 3618 C 349.969 -2.99621 -1.99747 0
M  V30 3619 C 349.822 -4.32899 -1.22143 0
M  V30 3620 C 351.141 -3.22615 -2.99345 0
M  V30 3621 H 348.26 -0.627151 -0.387105 0
M  V30 3622 H 350.902 -1.86827 -0.345767 0
M  V30 3623 H 349.052 -2.87418 -2.61387 0
M  V30 3624 H 350.724 -4.56978 -0.630017 0
M  V30 3625 H 348.967 -4.30628 -0.523628 0
M  V30 3626 H 349.638 -5.18154 -1.90318 0
M  V30 3627 H 352.114 -3.34248 -2.47826 0
M  V30 3628 H 350.99 -4.13027 -3.61524 0
M  V30 3629 H 351.251 -2.3961 -3.71536 0
M  V30 3630 N 350.31 0.590341 -1.46126 0
M  V30 3631 C 351.273 1.68194 -1.55703 0
M  V30 3632 C 352.273 1.54808 -0.434868 0
M  V30 3633 O 353.463 1.59564 -0.698928 0
M  V30 3634 C 350.595 3.07575 -1.47005 0
M  V30 3635 H 351.788 1.61064 -2.52979 0
M  V30 3636 H 349.341 0.807541 -1.33823 0
M  V30 3637 H 350.076 3.20268 -0.509785 0
M  V30 3638 H 349.861 3.187 -2.28414 0
M  V30 3639 H 351.351 3.87055 -1.56776 0
M  V30 3640 N 351.788 1.33704 0.83433 0
M  V30 3641 C 353.036 1.25169 1.58673 0
M  V30 3642 C 353.357 -0.18127 1.94156 0
M  V30 3643 O 352.627 -1.11113 1.6134 0
M  V30 3644 H 351.207 0.4603 0.58833 0
M  V30 3645 H 353.869 1.67478 0.996847 0
M  V30 3646 H 352.965 1.84856 2.51465 0
M  V30 3647 N 353.266 -1.05314 1.17247 0
M  V30 3648 C 354.229 -2.112 0.890357 0
M  V30 3649 C 355.229 -1.60359 -0.118943 0
M  V30 3650 O 356.419 -1.73833 0.113086 0
M  V30 3651 C 353.551 -3.39266 0.333422 0
M  V30 3652 H 354.744 -2.37659 1.82916 0
M  V30 3653 H 352.297 -1.21538 0.982758 0
M  V30 3654 H 353.032 -3.18462 -0.612587 0
M  V30 3655 H 352.817 -3.77477 1.06082 0
M  V30 3656 H 354.307 -4.17315 0.154322 0
M  V30 3657 N 354.744 -0.972509 -1.24016 0
M  V30 3658 C 355.99 -0.637978 -1.92504 0
M  V30 3659 C 356.323 0.825383 -1.75787 0
M  V30 3660 O 355.598 1.59442 -1.11393 0
M  V30 3661 C 355.881 -1.01942 -3.45369 0
M  V30 3662 C 355.734 -2.53983 -3.71231 0
M  V30 3663 C 357.053 -0.55751 -4.36555 0
M  V30 3664 H 354.172 -0.233248 -0.699117 0
M  V30 3665 H 356.814 -1.21238 -1.46292 0
M  V30 3666 H 354.964 -0.530656 -3.84859 0
M  V30 3667 H 356.636 -3.10374 -3.41271 0
M  V30 3668 H 354.879 -2.96968 -3.16216 0
M  V30 3669 H 355.55 -2.75723 -4.78206 0
M  V30 3670 H 358.026 -0.977029 -4.04467 0
M  V30 3671 H 356.902 -0.85292 -5.42233 0
M  V30 3672 H 357.163 0.542328 -4.38761 0
M  V30 3673 N 356.222 1.38976 -0.743202 0
M  V30 3674 C 357.172 2.27843 -0.084513 0
M  V30 3675 C 358.156 1.44677 0.704094 0
M  V30 3676 O 359.348 1.67511 0.571755 0
M  V30 3677 C 356.477 3.33466 0.815781 0
M  V30 3678 C 355.563 4.24095 0.0208844 0
M  V30 3679 N 355.954 4.95609 -1.0102 0
M  V30 3680 C 354.252 4.45303 0.249293 0
M  V30 3681 C 354.953 5.62287 -1.49024 0
M  V30 3682 N 353.929 5.37571 -0.807377 0
M  V30 3683 H 357.731 2.80593 -0.87436 0
M  V30 3684 H 355.245 1.51755 -0.578283 0
M  V30 3685 H 357.242 3.96008 1.30321 0
M  V30 3686 H 355.902 2.82276 1.6047 0
M  V30 3687 H 356.913 4.98849 -1.39176 0
M  V30 3688 H 353.59 4.0504 1.01237 0
M  V30 3689 H 354.98 6.29519 -2.34853 0
M  V30 3690 N 357.7 0.491464 1.49741 0
M  V30 3691 C 358.63 -0.28154 2.31796 0
M  V30 3692 C 359.611 -0.971473 1.3963 0
M  V30 3693 O 360.796 -0.964719 1.68543 0
M  V30 3694 C 357.926 -1.35203 3.19902 0
M  V30 3695 C 356.88 -0.782529 4.20786 0
M  V30 3696 C 356.206 -1.95283 4.97764 0
M  V30 3697 C 357.506 0.21999 5.21837 0
M  V30 3698 H 359.2 0.403355 2.96671 0
M  V30 3699 H 356.746 0.195425 1.42668 0
M  V30 3700 H 358.699 -1.90045 3.76113 0
M  V30 3701 H 357.423 -2.06598 2.52953 0
M  V30 3702 H 356.082 -0.255928 3.65706 0
M  V30 3703 H 355.73 -2.65423 4.2727 0
M  V30 3704 H 355.43 -1.57789 5.66018 0
M  V30 3705 H 356.954 -2.50577 5.56816 0
M  V30 3706 H 358.368 -0.23996 5.72798 0
M  V30 3707 H 356.765 0.51026 5.97927 0
M  V30 3708 H 357.835 1.13911 4.7133 0
M  V30 3709 N 359.178 -1.55987 0.224894 0
M  V30 3710 C 360.141 -2.19178 -0.670348 0
M  V30 3711 C 361.141 -1.15461 -1.11917 0
M  V30 3712 O 362.331 -1.40675 -1.02743 0
M  V30 3713 C 359.463 -2.81777 -1.9187 0
M  V30 3714 H 360.656 -2.99662 -0.119364 0
M  V30 3715 H 358.209 -1.5628 -0.0247128 0
M  V30 3716 H 358.944 -2.05172 -2.51147 0
M  V30 3717 H 358.729 -3.57732 -1.60531 0
M  V30 3718 H 360.219 -3.30205 -2.55645 0
M  V30 3719 N 360.656 0.0484629 -1.57525 0
M  V30 3720 C 361.884 0.755421 -1.92616 0
M  V30 3721 C 362.299 1.69919 -0.822984 0
M  V30 3722 O 361.656 1.81378 0.202085 0
M  V30 3723 C 361.707 1.52915 -3.27566 0
M  V30 3724 O 361.428 0.62329 -4.33644 0
M  V30 3725 C 362.929 2.33502 -3.76818 0
M  V30 3726 H 360.149 0.213465 -0.63614 0
M  V30 3727 H 362.693 0.0117698 -2.04497 0
M  V30 3728 H 360.848 2.22486 -3.17142 0
M  V30 3729 H 361.262 1.16383 -5.11425 0
M  V30 3730 H 362.736 2.83214 -4.73808 0
M  V30 3731 H 363.213 3.14068 -3.07014 0
M  V30 3732 H 363.819 1.69043 -3.90262 0
M  V30 3733 N 362.134 1.5431 0.320358 0
M  V30 3734 C 363.097 1.83195 1.3774 0
M  V30 3735 C 364.097 0.703906 1.44575 0
M  V30 3736 O 365.287 0.972214 1.44546 0
M  V30 3737 C 362.419 1.99487 2.76438 0
M  V30 3738 H 363.612 2.77642 1.1338 0
M  V30 3739 H 361.165 1.46076 0.556012 0
M  V30 3740 H 361.9 1.07262 3.06048 0
M  V30 3741 H 361.685 2.81575 2.7287 0
M  V30 3742 H 363.175 2.23271 3.52902 0
M  V30 3743 N 363.613 -0.582584 1.46437 0
M  V30 3744 C 364.862 -1.337 1.5102 0
M  V30 3745 C 365.175 -1.94891 0.166359 0
M  V30 3746 O 366.381 -2.71351 0.0899954 0
M  V30 3747 C 364.837 -2.42315 2.66104 0
M  V30 3748 C 364.445 -1.87427 4.06909 0
M  V30 3749 C 366.189 -3.19099 2.79958 0
M  V30 3750 C 364.096 -2.93672 5.13333 0
M  V30 3751 H 363.026 -0.502619 0.562041 0
M  V30 3752 H 365.677 -0.621701 1.72647 0
M  V30 3753 H 364.059 -3.16645 2.37807 0
M  V30 3754 H 365.233 -1.19639 4.44998 0
M  V30 3755 H 363.548 -1.2331 3.97723 0
M  V30 3756 H 366.145 -3.9839 3.56636 0
M  V30 3757 H 366.488 -3.71695 1.87479 0
M  V30 3758 H 367.021 -2.51875 3.07902 0
M  V30 3759 H 363.76 -2.45962 6.07604 0
M  V30 3760 H 363.28 -3.59948 4.79789 0
M  V30 3761 H 364.959 -3.5762 5.39182 0
M  V30 3762 N 365.091 -1.34144 -0.827227 0
M  V30 3763 C 366.021 -1.28005 -1.95287 0
M  V30 3764 C 367.002 -0.158321 -1.69362 0
M  V30 3765 O 368.187 -0.349987 -1.9102 0
M  V30 3766 C 365.317 -1.03036 -3.31664 0
M  V30 3767 C 364.271 -2.11628 -3.72019 0
M  V30 3768 C 363.597 -1.71854 -5.0633 0
M  V30 3769 C 364.897 -3.53417 -3.8457 0
M  V30 3770 H 366.591 -2.22187 -2.00682 0
M  V30 3771 H 364.137 -1.0696 -0.964135 0
M  V30 3772 H 366.09 -0.973863 -4.09993 0
M  V30 3773 H 364.814 -0.0529391 -3.26557 0
M  V30 3774 H 363.473 -2.16339 -2.95961 0
M  V30 3775 H 363.121 -0.727841 -4.97706 0
M  V30 3776 H 362.821 -2.44531 -5.34302 0
M  V30 3777 H 364.345 -1.67692 -5.87122 0
M  V30 3778 H 365.759 -3.51142 -4.5318 0
M  V30 3779 H 364.156 -4.24679 -4.2399 0
M  V30 3780 H 365.226 -3.91072 -2.86689 0
M  V30 3781 N 366.569 1.04691 -1.17803 0
M  V30 3782 C 367.516 2.12557 -0.899343 0
M  V30 3783 C 368.486 1.65339 0.158771 0
M  V30 3784 O 369.671 1.90789 0.0204797 0
M  V30 3785 C 366.811 3.42481 -0.424315 0
M  V30 3786 C 365.924 4.03346 -1.54713 0
M  V30 3787 C 365.059 5.21208 -1.02546 0
M  V30 3788 C 364.098 5.74089 -2.12339 0
M  V30 3789 N 363.235 6.83247 -1.61612 0
M  V30 3790 H 368.075 2.35734 -1.823 0
M  V30 3791 H 365.612 1.1564 -0.909159 0
M  V30 3792 H 367.57 4.16996 -0.130421 0
M  V30 3793 H 366.2 3.19471 0.462377 0
M  V30 3794 H 365.252 3.2622 -1.95664 0
M  V30 3795 H 366.564 4.38628 -2.37501 0
M  V30 3796 H 365.718 6.02812 -0.685718 0
M  V30 3797 H 364.457 4.87414 -0.167084 0
M  V30 3798 H 363.462 4.91111 -2.47165 0
M  V30 3799 H 364.687 6.0993 -2.98601 0
M  V30 3800 H 362.633 6.5134 -0.780533 0
M  V30 3801 H 362.55 7.17559 -2.38003 0
M  V30 3802 H 363.818 7.68491 -1.30545 0
M  V30 3803 N 368.047 0.979072 1.23499 0
M  V30 3804 C 368.995 0.510604 2.26926 0
M  V30 3805 C 369.989 -0.431691 1.63807 0
M  V30 3806 O 371.195 -0.30573 1.77385 0
M  V30 3807 H 367.57 0.146688 0.737554 0
M  V30 3808 H 369.541 1.39466 2.63803 0
M  V30 3809 C 368.29 -0.172658 3.47271 0
M  V30 3810 H 367.613 0.543331 3.96091 0
M  V30 3811 H 369.053 -0.464101 4.21452 0
M  V30 3812 C 367.512 -1.40345 3.06276 0
M  V30 3813 O 368.042 -2.49978 3.14442 0
M  V30 3814 N 366.248 -1.27362 2.61203 0
M  V30 3815 H 365.795 -0.381584 2.54758 0
M  V30 3816 H 365.753 -2.09822 2.34141 0
M  V30 3817 N 369.525 -1.3858 0.750561 0
M  V30 3818 C 370.936 -1.82927 0.373438 0
M  V30 3819 C 371.287 -1.62634 -1.09748 0
M  V30 3820 O 370.412 -1.12588 -1.84805 0
M  V30 3821 C 371.007 -3.32088 0.671029 0
M  V30 3822 C 369.566 -3.74795 0.34722 0
M  V30 3823 C 368.713 -2.61391 0.92575 0
M  V30 3824 H 371.664 -1.27351 0.946958 0
M  V30 3825 H 371.685 -3.80465 -0.0518269 0
M  V30 3826 H 371.197 -3.46826 1.74164 0
M  V30 3827 H 369.298 -3.65638 -0.716933 0
M  V30 3828 H 369.411 -4.71667 0.840656 0
M  V30 3829 H 367.775 -2.52265 0.351327 0
M  V30 3830 H 368.558 -2.78929 2.00133 0
M  V30 3831 N 371.003 -0.499398 -1.49478 0
M  V30 3832 C 371.913 0.284489 -2.32869 0
M  V30 3833 C 372.929 0.968885 -1.44529 0
M  V30 3834 O 374.105 0.95062 -1.77553 0
M  V30 3835 C 371.17 1.33594 -3.19928 0
M  V30 3836 C 370.231 0.665149 -4.24116 0
M  V30 3837 C 369.464 1.6665 -5.07014 0
M  V30 3838 O 369.687 2.89618 -4.91404 0
M  V30 3839 O 368.621 1.22271 -5.8935 0
M  V30 3840 H 372.447 -0.39802 -3.01081 0
M  V30 3841 H 370.032 -0.260758 -1.47107 0
M  V30 3842 H 371.914 1.94431 -3.73864 0
M  V30 3843 H 370.589 2.0014 -2.54412 0
M  V30 3844 H 369.496 0.0170769 -3.74096 0
M  V30 3845 H 370.829 0.0421555 -4.92182 0
M  V30 3846 N 372.481 1.55866 -0.233164 0
M  V30 3847 C 373.727 1.98897 0.395959 0
M  V30 3848 C 374.06 1.12091 1.58585 0
M  V30 3849 O 373.335 0.181182 1.93654 0
M  V30 3850 C 373.618 3.50658 0.819224 0
M  V30 3851 C 373.471 4.48233 -0.375109 0
M  V30 3852 C 374.79 4.07135 1.67121 0
M  V30 3853 H 371.909 0.723102 0.142451 0
M  V30 3854 H 374.551 1.87082 -0.331725 0
M  V30 3855 H 372.701 3.60857 1.43925 0
M  V30 3856 H 374.373 4.50031 -1.01341 0
M  V30 3857 H 372.616 4.21624 -1.02058 0
M  V30 3858 H 373.287 5.51988 -0.0358328 0
M  V30 3859 H 375.763 3.99952 1.14795 0
M  V30 3860 H 374.639 5.13615 1.93625 0
M  V30 3861 H 374.9 3.54736 2.63846 0
M  V30 3862 N 373.959 -0.0401083 1.57549 0
M  V30 3863 C 374.906 -1.04413 2.05831 0
M  V30 3864 C 375.876 -1.36585 0.945184 0
M  V30 3865 O 377.061 -1.47112 1.21502 0
M  V30 3866 C 374.201 -2.34336 2.53339 0
M  V30 3867 C 373.314 -2.08419 3.78398 0
M  V30 3868 C 372.449 -3.32133 4.14561 0
M  V30 3869 C 371.488 -3.01721 5.3257 0
M  V30 3870 N 370.625 -4.17855 5.64218 0
M  V30 3871 H 375.465 -0.625442 2.91363 0
M  V30 3872 H 373.002 -0.297218 1.44066 0
M  V30 3873 H 374.96 -3.10234 2.78946 0
M  V30 3874 H 373.59 -2.73948 1.7074 0
M  V30 3875 H 372.642 -1.23069 3.59942 0
M  V30 3876 H 373.954 -1.81978 4.64419 0
M  V30 3877 H 373.108 -4.16406 4.41238 0
M  V30 3878 H 371.847 -3.61678 3.2717 0
M  V30 3879 H 370.852 -2.15849 5.05657 0
M  V30 3880 H 372.077 -2.73466 6.21605 0
M  V30 3881 H 370.023 -4.47372 4.79786 0
M  V30 3882 H 369.94 -3.94798 6.44725 0
M  V30 3883 H 371.208 -5.03033 5.95465 0
M  V30 3884 N 375.437 -1.54477 -0.31217 0
M  V30 3885 C 376.367 -1.87652 -1.38957 0
M  V30 3886 C 377.348 -0.734358 -1.53431 0
M  V30 3887 O 378.533 -0.98911 -1.67123 0
M  V30 3888 C 375.663 -2.11396 -2.75552 0
M  V30 3889 C 374.617 -3.27243 -2.75855 0
M  V30 3890 C 373.943 -3.36382 -4.15633 0
M  V30 3891 C 375.243 -4.64622 -2.38587 0
M  V30 3892 H 376.937 -2.77887 -1.11442 0
M  V30 3893 H 374.483 -1.33707 -0.534655 0
M  V30 3894 H 376.436 -2.33189 -3.51 0
M  V30 3895 H 375.16 -1.17921 -3.04569 0
M  V30 3896 H 373.819 -3.05356 -2.02863 0
M  V30 3897 H 373.467 -2.40445 -4.41809 0
M  V30 3898 H 373.167 -4.14249 -4.1674 0
M  V30 3899 H 374.691 -3.60422 -4.92877 0
M  V30 3900 H 376.105 -4.86219 -3.03749 0
M  V30 3901 H 374.502 -5.45121 -2.50925 0
M  V30 3902 H 375.572 -4.66097 -1.33723 0
M  V30 3903 N 376.915 0.57481 -1.46744 0
M  V30 3904 C 377.878 1.66533 -1.57478 0
M  V30 3905 C 378.878 1.54338 -0.451263 0
M  V30 3906 O 380.068 1.58814 -0.715813 0
M  V30 3907 C 377.2 3.05999 -1.50259 0
M  V30 3908 H 378.393 1.58372 -2.54673 0
M  V30 3909 H 375.946 0.793301 -1.34672 0
M  V30 3910 H 376.681 3.19709 -0.543725 0
M  V30 3911 H 376.466 3.16259 -2.31781 0
M  V30 3912 H 377.956 3.8537 -1.60872 0
M  V30 3913 N 378.394 1.34581 0.820102 0
M  V30 3914 C 379.642 1.26845 1.57336 0
M  V30 3915 C 379.963 -0.160667 1.94337 0
M  V30 3916 O 379.233 -1.09396 1.6251 0
M  V30 3917 H 377.813 0.466514 0.583415 0
M  V30 3918 H 380.475 1.68526 0.979027 0
M  V30 3919 H 379.571 1.87513 2.4949 0
M  V30 3920 N 379.872 -1.04064 1.18357 0
M  V30 3921 C 380.802 -2.14001 0.934113 0
M  V30 3922 C 381.783 -1.69616 -0.128186 0
M  V30 3923 O 382.968 -1.94185 0.0244093 0
M  V30 3924 C 380.098 -3.44253 0.459066 0
M  V30 3925 C 379.052 -4.02261 1.46185 0
M  V30 3926 C 378.378 -5.27992 0.844322 0
M  V30 3927 C 379.678 -4.38432 2.83856 0
M  V30 3928 H 381.372 -2.35127 1.85352 0
M  V30 3929 H 378.918 -1.12998 0.892604 0
M  V30 3930 H 380.871 -4.20522 0.271907 0
M  V30 3931 H 379.595 -3.22813 -0.495912 0
M  V30 3932 H 378.254 -3.28074 1.63595 0
M  V30 3933 H 377.902 -5.02862 -0.117845 0
M  V30 3934 H 377.602 -5.67765 1.51384 0
M  V30 3935 H 379.126 -6.06938 0.667693 0
M  V30 3936 H 380.54 -5.05688 2.70098 0
M  V30 3937 H 378.937 -4.89254 3.47491 0
M  V30 3938 H 380.007 -3.4826 3.37406 0
M  V30 3939 N 381.35 -0.985608 -1.22978 0
M  V30 3940 C 382.313 -0.535071 -2.22867 0
M  V30 3941 C 383.313 0.378123 -1.56291 0
M  V30 3942 O 384.503 0.171092 -1.73358 0
M  V30 3943 C 381.635 0.222702 -3.40172 0
M  V30 3944 H 382.828 -1.41835 -2.6424 0
M  V30 3945 H 380.381 -0.772042 -1.35901 0
M  V30 3946 H 381.116 1.12229 -3.04262 0
M  V30 3947 H 380.901 -0.43288 -3.89703 0
M  V30 3948 H 382.391 0.526335 -4.1427 0
M  V30 3949 N 382.828 1.3818 -0.7579 0
M  V30 3950 C 383.791 2.28764 -0.141286 0
M  V30 3951 C 384.791 1.47388 0.642907 0
M  V30 3952 O 385.981 1.67781 0.468536 0
M  V30 3953 C 383.113 3.31184 0.808069 0
M  V30 3954 H 384.306 2.848 -0.939633 0
M  V30 3955 H 381.859 1.47212 -0.525191 0
M  V30 3956 H 382.594 2.80247 1.63193 0
M  V30 3957 H 382.379 3.91314 0.248104 0
M  V30 3958 H 383.869 3.98909 1.23536 0
M  V30 3959 N 384.306 0.507319 1.49211 0
M  V30 3960 C 385.722 0.163682 1.58758 0
M  V30 3961 C 385.922 -1.33208 1.51188 0
M  V30 3962 O 384.978 -2.10855 1.38911 0
M  V30 3963 C 386.291 0.746095 2.91297 0
M  V30 3964 C 387.839 0.712773 3.04776 0
M  V30 3965 C 388.314 1.27336 4.39943 0
M  V30 3966 N 389.805 1.23433 4.46451 0
M  V30 3967 C 390.54 1.63821 5.495 0
M  V30 3968 N 390.036 2.11832 6.5962 0
M  V30 3969 N 391.829 1.55198 5.4025 0
M  V30 3970 H 383.98 1.47972 1.52375 0
M  V30 3971 H 386.243 0.614147 0.722168 0
M  V30 3972 H 385.949 1.79534 3.02424 0
M  V30 3973 H 385.823 0.210137 3.76614 0
M  V30 3974 H 388.21 -0.327656 2.93275 0
M  V30 3975 H 388.291 1.28595 2.21127 0
M  V30 3976 H 387.935 2.3126 4.52196 0
M  V30 3977 H 387.865 0.676066 5.22242 0
M  V30 3978 H 390.356 0.882627 3.67448 0
M  V30 3979 H 390.669 2.40703 7.34358 0
M  V30 3980 H 389.014 2.1581 6.60644 0
M  V30 3981 H 392.205 1.17505 4.53112 0
M  V30 3982 H 392.378 1.86997 6.20432 0
M  V30 3983 N 385.784 -1.5574 0.241426 0
M  V30 3984 C 387.061 -1.90704 -0.434881 0
M  V30 3985 C 387.441 -1.16145 -1.76277 0
M  V30 3986 O 386.789 -0.277152 -2.26813 0
M  V30 3987 C 386.999 -3.43657 -0.608343 0
M  V30 3988 C 388.347 -4.14806 -0.906725 0
M  V30 3989 O 389.371 -3.49366 -0.694408 0
M  V30 3990 O 388.23 -5.30548 -1.31075 0
M  V30 3991 H 385.324 -0.793592 -0.23268 0
M  V30 3992 H 387.87 -1.67288 0.285086 0
M  V30 3993 H 386.642 -3.89927 0.327505 0
M  V30 3994 H 386.265 -3.72918 -1.37906 0
M  V30 3995 N 387.262 0.0317525 -1.57568 0
M  V30 3996 C 388.487 0.738664 -1.938 0
M  V30 3997 C 388.912 1.68242 -0.841208 0
M  V30 3998 O 388.27 1.80157 0.203267 0
M  V30 3999 C 388.318 1.47417 -3.29091 0
M  V30 4000 O 387.422 2.5872 -3.2115 0
M  V30 4001 H 386.763 0.198856 -0.633524 0
M  V30 4002 H 389.293 -0.0119713 -2.04596 0
M  V30 4003 H 389.303 1.84468 -3.63917 0
M  V30 4004 H 387.978 0.781988 -4.08482 0
M  V30 4005 H 386.555 2.24231 -2.97951 0
M  V30 4006 N 388.74 1.54641 0.303973 0
M  V30 4007 C 389.67 1.88386 1.3796 0
M  V30 4008 C 390.651 0.742485 1.5304 0
M  V30 4009 O 391.836 0.997959 1.66597 0
M  V30 4010 C 388.966 2.12854 2.74427 0
M  V30 4011 C 387.92 3.28702 2.74115 0
M  V30 4012 C 387.246 3.38582 4.13844 0
M  V30 4013 C 388.546 4.65881 2.3612 0
M  V30 4014 H 390.24 2.78474 1.09966 0
M  V30 4015 H 387.786 1.33988 0.527556 0
M  V30 4016 H 389.739 2.35047 3.49758 0
M  V30 4017 H 388.463 1.19535 3.03939 0
M  V30 4018 H 387.122 3.06428 2.0124 0
M  V30 4019 H 386.77 2.42784 4.40528 0
M  V30 4020 H 386.47 4.16453 4.14537 0
M  V30 4021 H 387.994 3.63031 4.90959 0
M  V30 4022 H 389.408 4.87823 3.01167 0
M  V30 4023 H 387.805 5.46444 2.48031 0
M  V30 4024 H 388.875 4.66799 1.3125 0
M  V30 4025 N 390.218 -0.567019 1.47046 0
M  V30 4026 C 391.634 -0.891975 1.32348 0
M  V30 4027 C 391.834 -1.99154 0.306616 0
M  V30 4028 O 390.89 -2.50883 -0.28532 0
M  V30 4029 C 392.203 -1.29449 2.7141 0
M  V30 4030 C 393.751 -1.40646 2.79621 0
M  V30 4031 C 394.226 -1.84257 4.19301 0
M  V30 4032 N 395.717 -1.91424 4.21795 0
M  V30 4033 C 396.452 -2.26476 5.26779 0
M  V30 4034 N 395.948 -2.60211 6.42077 0
M  V30 4035 N 397.741 -2.27166 5.14152 0
M  V30 4036 H 389.892 0.159074 2.11803 0
M  V30 4037 H 392.155 0.00849752 0.947962 0
M  V30 4038 H 391.861 -0.560448 3.47206 0
M  V30 4039 H 391.735 -2.25273 3.02542 0
M  V30 4040 H 394.122 -2.13133 2.04104 0
M  V30 4041 H 394.203 -0.430339 2.52154 0
M  V30 4042 H 393.847 -1.12343 4.95319 0
M  V30 4043 H 393.777 -2.82855 4.44185 0
M  V30 4044 H 396.268 -1.6778 3.38612 0
M  V30 4045 H 396.581 -2.85956 7.17948 0
M  V30 4046 H 394.926 -2.57813 6.45413 0
M  V30 4047 H 398.117 -2.00244 4.23107 0
M  V30 4048 H 398.29 -2.54154 5.96079 0
M  V30 4049 N 391.696 -1.35014 -0.812953 0
M  V30 4050 C 392.626 -1.30069 -1.93919 0
M  V30 4051 C 393.607 -0.176275 -1.69184 0
M  V30 4052 O 394.792 -0.370227 -1.90638 0
M  V30 4053 C 391.922 -1.06547 -3.30552 0
M  V30 4054 C 390.876 -2.15561 -3.69753 0
M  V30 4055 C 390.202 -1.77214 -5.04479 0
M  V30 4056 C 391.502 -3.57476 -3.808 0
M  V30 4057 H 393.196 -2.24303 -1.98314 0
M  V30 4058 H 390.742 -1.07977 -0.952736 0
M  V30 4059 H 392.695 -1.01729 -4.08937 0
M  V30 4060 H 391.419 -0.0875719 -3.26483 0
M  V30 4061 H 390.078 -2.19466 -2.9365 0
M  V30 4062 H 389.726 -0.780589 -4.96906 0
M  V30 4063 H 389.426 -2.50184 -5.31678 0
M  V30 4064 H 390.95 -1.7391 -5.8531 0
M  V30 4065 H 392.364 -3.55929 -4.4943 0
M  V30 4066 H 390.761 -4.29152 -4.19462 0
M  V30 4067 H 391.831 -3.94091 -2.82525 0
M  V30 4068 N 393.175 1.03435 -1.18907 0
M  V30 4069 C 394.085 2.15075 -0.937015 0
M  V30 4070 C 395.101 1.73706 0.101085 0
M  V30 4071 O 396.277 2.01232 -0.0822948 0
M  V30 4072 C 393.342 3.43458 -0.473057 0
M  V30 4073 C 392.403 3.99172 -1.57989 0
M  V30 4074 C 391.636 5.21427 -1.13797 0
M  V30 4075 O 391.859 5.704 0.000725941 0
M  V30 4076 O 390.793 5.69837 -1.9383 0
M  V30 4077 H 394.619 2.39198 -1.87131 0
M  V30 4078 H 392.204 1.13506 -0.971427 0
M  V30 4079 H 394.086 4.20811 -0.222702 0
M  V30 4080 H 392.761 3.20793 0.432869 0
M  V30 4081 H 391.668 3.23178 -1.88433 0
M  V30 4082 H 393.001 4.2619 -2.46217 0
M  V30 4083 N 394.653 0.992116 1.22453 0
M  V30 4084 C 395.616 0.546883 2.2258 0
M  V30 4085 C 396.616 -0.369829 1.56489 0
M  V30 4086 O 397.806 -0.161896 1.73446 0
M  V30 4087 C 394.938 -0.204659 3.40285 0
M  V30 4088 H 396.131 1.43234 2.63484 0
M  V30 4089 H 393.684 0.779239 1.3549 0
M  V30 4090 H 394.419 -1.10614 3.04853 0
M  V30 4091 H 394.204 0.45354 3.89468 0
M  V30 4092 H 395.694 -0.504358 4.14543 0
M  V30 4093 N 396.131 -1.37776 0.765217 0
M  V30 4094 C 397.379 -1.99454 0.325943 0
M  V30 4095 C 397.7 -1.61049 -1.09947 0
M  V30 4096 O 396.97 -0.872821 -1.75381 0
M  V30 4097 H 395.55 -0.737697 0.117525 0
M  V30 4098 H 398.212 -1.68359 0.981895 0
M  V30 4099 H 397.308 -3.09547 0.398353 0
M  V30 4100 N 397.609 -0.515225 -1.4894 0
M  V30 4101 C 398.539 0.244628 -2.32215 0
M  V30 4102 C 399.52 0.949136 -1.41157 0
M  V30 4103 O 400.705 0.937783 -1.70057 0
M  V30 4104 C 397.835 1.30096 -3.22013 0
M  V30 4105 C 396.789 0.715486 -4.21977 0
M  V30 4106 C 396.115 1.87339 -5.00808 0
M  V30 4107 C 397.415 -0.302982 -5.2142 0
M  V30 4108 H 399.109 -0.450501 -2.95991 0
M  V30 4109 H 396.655 -0.218098 -1.42339 0
M  V30 4110 H 398.608 1.84037 -3.79089 0
M  V30 4111 H 397.332 2.02547 -2.56207 0
M  V30 4112 H 395.991 0.197715 -3.66066 0
M  V30 4113 H 395.639 2.58592 -4.31438 0
M  V30 4114 H 395.339 1.48764 -5.68457 0
M  V30 4115 H 396.863 2.41686 -5.60732 0
M  V30 4116 H 398.277 0.148802 -5.73107 0
M  V30 4117 H 396.674 -0.60532 -5.97039 0
M  V30 4118 H 397.744 -1.21395 -4.69459 0
M  V30 4119 N 399.087 1.5561 -0.249682 0
M  V30 4120 C 400.327 2.00916 0.37579 0
M  V30 4121 C 400.691 1.13409 1.54927 0
M  V30 4122 O 401.892 1.48183 2.24266 0
M  V30 4123 C 400.163 3.48949 0.772633 0
M  V30 4124 S 401.722 4.16261 1.38824 0
M  V30 4125 H 398.54 0.70112 0.118117 0
M  V30 4126 H 401.142 1.92052 -0.365567 0
M  V30 4127 H 399.846 4.103 -0.090683 0
M  V30 4128 H 399.377 3.61745 1.5461 0
M  V30 4129 H 401.392 4.17778 2.67724 0
M  V30 4130 N 400.565 -0.0233959 1.57583 0
M  V30 4131 C 401.495 -1.02162 2.09965 0
M  V30 4132 C 402.476 -1.3735 1.00344 0
M  V30 4133 O 403.661 -1.46135 1.27899 0
M  V30 4134 C 400.791 -2.32081 2.58371 0
M  V30 4135 C 399.745 -2.1112 3.72307 0
M  V30 4136 C 399.071 -3.46848 4.06941 0
M  V30 4137 C 400.371 -1.49276 5.00514 0
M  V30 4138 H 402.065 -0.585557 2.93618 0
M  V30 4139 H 399.611 -0.280218 1.41247 0
M  V30 4140 H 401.564 -3.02249 2.93639 0
M  V30 4141 H 400.288 -2.77758 1.71808 0
M  V30 4142 H 398.947 -1.43384 3.37397 0
M  V30 4143 H 398.595 -3.90184 3.17436 0
M  V30 4144 H 398.295 -3.33646 4.83688 0
M  V30 4145 H 399.819 -4.18369 4.44747 0
M  V30 4146 H 401.233 -2.09368 5.33702 0
M  V30 4147 H 399.63 -1.46632 5.8191 0
M  V30 4148 H 400.7 -0.459217 4.82721 0
M  V30 4149 N 402.043 -1.548 -0.295768 0
M  V30 4150 C 403.273 -1.78069 -1.04762 0
M  V30 4151 C 403.681 -0.542847 -1.81245 0
M  V30 4152 O 403.024 0.497051 -1.76848 0
M  V30 4153 C 403.086 -2.93881 -2.07061 0
M  V30 4154 C 402.75 -4.31777 -1.49725 0
M  V30 4155 C 403.747 -5.11613 -0.924581 0
M  V30 4156 C 401.432 -4.78389 -1.5313 0
M  V30 4157 C 403.426 -6.36184 -0.393594 0
M  V30 4158 C 401.113 -6.02921 -0.996447 0
M  V30 4159 C 402.111 -6.81654 -0.428569 0
M  V30 4160 O 401.799 -8.0384 0.0981593 0
M  V30 4161 H 401.531 -0.597475 -0.316226 0
M  V30 4162 H 404.085 -2.02584 -0.338973 0
M  V30 4163 H 402.315 -2.65003 -2.81621 0
M  V30 4164 H 404.004 -3.04679 -2.6819 0
M  V30 4165 H 404.77 -4.76743 -0.891136 0
M  V30 4166 H 400.649 -4.17132 -1.9627 0
M  V30 4167 H 404.193 -6.97582 0.0503014 0
M  V30 4168 H 400.09 -6.37277 -1.02706 0
M  V30 4169 H 400.858 -8.18499 -0.0146455 0
M  V30 4170 N 403.521 0.559213 -1.47345 0
M  V30 4171 C 404.769 1.31388 -1.53563 0
M  V30 4172 C 405.09 1.93985 -0.198678 0
M  V30 4173 O 404.36 1.79825 0.777167 0
M  V30 4174 H 402.94 0.487901 -0.565652 0
M  V30 4175 H 405.602 0.65315 -1.8363 0
M  V30 4176 H 404.698 2.10844 -2.30111 0
M  V30 4177 N 404.999 1.35443 0.805782 0
M  V30 4178 C 405.947 1.28465 1.93906 0
M  V30 4179 C 406.941 0.17943 1.68447 0
M  V30 4180 O 408.147 0.345459 1.76654 0
M  V30 4181 H 404.522 0.399528 0.637088 0
M  V30 4182 H 406.493 2.24206 1.96912 0
M  V30 4183 C 405.242 1.07432 3.30687 0
M  V30 4184 H 404.565 1.91716 3.50835 0
M  V30 4185 H 406.005 1.06591 4.10383 0
M  V30 4186 C 404.464 -0.22179 3.36169 0
M  V30 4187 O 404.994 -1.21731 3.82811 0
M  V30 4188 N 403.2 -0.260841 2.89427 0
M  V30 4189 H 402.747 0.549884 2.51663 0
M  V30 4190 H 402.705 -1.12777 2.93477 0
M  V30 4191 N 406.477 -1.02803 1.19454 0
M  V30 4192 C 407.754 -1.73299 0.907013 0
M  V30 4193 C 408.134 -2.02772 -0.587086 0
M  V30 4194 O 407.482 -1.68304 -1.54551 0
M  V30 4195 C 407.692 -3.00912 1.76785 0
M  V30 4196 C 409.04 -3.74403 2.00268 0
M  V30 4197 O 410.064 -3.10841 1.73943 0
M  V30 4198 O 408.923 -4.88675 2.4466 0
M  V30 4199 H 406.017 -0.754727 0.338106 0
M  V30 4200 H 408.563 -1.08754 1.30271 0
M  V30 4201 H 407.335 -2.75366 2.7801 0
M  V30 4202 H 406.958 -3.73197 1.37149 0
M  V30 4203 N 407.956 -0.998596 -1.21925 0
M  V30 4204 C 409.205 -0.673085 -1.90138 0
M  V30 4205 C 409.518 0.79895 -1.78539 0
M  V30 4206 O 410.724 1.23628 -2.4172 0
M  V30 4207 C 409.18 -1.15339 -3.40918 0
M  V30 4208 C 408.788 -2.65106 -3.61141 0
M  V30 4209 C 410.532 -0.902476 -4.14796 0
M  V30 4210 C 408.439 -3.0671 -5.05651 0
M  V30 4211 H 407.369 -0.248057 -0.712028 0
M  V30 4212 H 410.02 -1.20891 -1.38049 0
M  V30 4213 H 408.402 -0.545658 -3.92223 0
M  V30 4214 H 409.576 -3.31274 -3.20304 0
M  V30 4215 H 407.891 -2.88142 -3.00605 0
M  V30 4216 H 410.488 -1.18895 -5.21314 0
M  V30 4217 H 410.831 0.161349 -4.15987 0
M  V30 4218 H 411.364 -1.47269 -3.69536 0
M  V30 4219 H 408.103 -4.12292 -5.09603 0
M  V30 4220 H 407.623 -2.45249 -5.47369 0
M  V30 4221 H 409.302 -2.9833 -5.74115 0
M  V30 4222 N 409.434 1.37368 -0.772513 0
M  V30 4223 C 410.711 1.93839 -0.26188 0
M  V30 4224 C 411.091 1.7061 1.24319 0
M  V30 4225 O 410.439 1.05534 2.02669 0
M  V30 4226 C 410.649 3.43154 -0.636102 0
M  V30 4227 C 411.997 4.20249 -0.606324 0
M  V30 4228 O 413.021 3.5152 -0.575538 0
M  V30 4229 O 411.88 5.42809 -0.634086 0
M  V30 4230 H 408.974 0.82478 -0.0605555 0
M  V30 4231 H 411.52 1.4665 -0.853917 0
M  V30 4232 H 410.292 3.53647 -1.6748 0
M  V30 4233 H 409.915 3.97596 -0.0170516 0
M  V30 4234 N 410.912 0.523116 1.48665 0
M  V30 4235 C 411.822 -0.247406 2.33292 0
M  V30 4236 C 412.838 -0.945769 1.46052 0
M  V30 4237 O 414.014 -0.922253 1.79043 0
M  V30 4238 C 411.079 -1.28487 3.22012 0
M  V30 4239 C 410.14 -0.597592 4.2512 0
M  V30 4240 C 409.373 -1.58563 5.09601 0
M  V30 4241 O 409.596 -2.81763 4.95949 0
M  V30 4242 O 408.53 -1.12879 5.91221 0
M  V30 4243 H 412.356 0.445869 3.00409 0
M  V30 4244 H 409.941 0.284128 1.46673 0
M  V30 4245 H 411.823 -1.88459 3.7691 0
M  V30 4246 H 410.498 -1.96068 2.57564 0
M  V30 4247 H 409.405 0.0424407 3.74076 0
M  V30 4248 H 410.738 0.0361517 4.92187 0
M  V30 4249 N 412.39 -1.55475 0.257931 0
M  V30 4250 C 413.34 -2.18506 -0.651094 0
M  V30 4251 C 414.324 -1.14431 -1.13112 0
M  V30 4252 O 415.516 -1.40305 -1.07905 0
M  V30 4253 C 412.645 -2.89653 -1.84272 0
M  V30 4254 C 411.731 -4.00996 -1.38068 0
M  V30 4255 N 412.122 -5.01816 -0.633609 0
M  V30 4256 C 410.42 -4.13753 -1.66506 0
M  V30 4257 C 411.121 -5.80371 -0.392922 0
M  V30 4258 N 410.097 -5.3505 -0.960359 0
M  V30 4259 H 413.899 -2.93811 -0.0722883 0
M  V30 4260 H 411.413 -1.62286 0.0607256 0
M  V30 4261 H 413.41 -3.33245 -2.50506 0
M  V30 4262 H 412.07 -2.15854 -2.42564 0
M  V30 4263 H 413.081 -5.17128 -0.282626 0
M  V30 4264 H 409.758 -3.51133 -2.25858 0
M  V30 4265 H 411.148 -6.7159 0.204235 0
M  V30 4266 N 413.868 0.0150385 -1.57593 0
M  V30 4267 C 415.096 0.714395 -1.94175 0
M  V30 4268 C 415.511 1.68135 -0.858841 0
M  V30 4269 O 414.868 1.81766 0.163567 0
M  V30 4270 C 414.919 1.45933 -3.30735 0
M  V30 4271 O 414.64 0.531167 -4.34868 0
M  V30 4272 C 416.141 2.25456 -3.81686 0
M  V30 4273 H 413.361 0.199923 -0.640525 0
M  V30 4274 H 415.905 -0.0316096 -2.04476 0
M  V30 4275 H 414.06 2.15709 -3.21789 0
M  V30 4276 H 414.474 1.05509 -5.13778 0
M  V30 4277 H 415.948 2.731 -4.79709 0
M  V30 4278 H 416.425 3.07485 -3.13607 0
M  V30 4279 H 417.031 1.60727 -3.9376 0
M  V30 4280 N 415.346 1.54954 0.287554 0
M  V30 4281 C 416.574 1.78881 1.03967 0
M  V30 4282 C 416.989 0.554894 1.80462 0
M  V30 4283 O 416.346 -0.475676 1.76192 0
M  V30 4284 C 416.397 3.00488 2.0097 0
M  V30 4285 O 416.118 4.19113 1.27577 0
M  V30 4286 C 417.619 3.36907 2.88112 0
M  V30 4287 H 414.839 0.596259 0.307761 0
M  V30 4288 H 417.383 2.01937 0.322749 0
M  V30 4289 H 415.538 2.79601 2.68145 0
M  V30 4290 H 415.952 4.87765 1.92835 0
M  V30 4291 H 417.426 4.25205 3.52001 0
M  V30 4292 H 417.903 2.55659 3.57121 0
M  V30 4293 H 418.509 3.60001 2.26449 0
M  V30 4294 N 416.824 -0.551391 1.4764 0
M  V30 4295 C 418.235 -1.13349 1.48354 0
M  V30 4296 C 418.586 -1.94709 0.241432 0
M  V30 4297 O 417.711 -2.06306 -0.653205 0
M  V30 4298 C 418.306 -2.0623 2.68802 0
M  V30 4299 C 416.865 -2.597 2.72457 0
M  V30 4300 C 416.012 -1.36201 2.41546 0
M  V30 4301 H 418.963 -0.337698 1.55065 0
M  V30 4302 H 418.984 -2.90196 2.46103 0
M  V30 4303 H 418.496 -1.46987 3.59188 0
M  V30 4304 H 416.597 -3.22724 1.86225 0
M  V30 4305 H 416.71 -3.00296 3.73308 0
M  V30 4306 H 415.074 -1.67068 1.9225 0
M  V30 4307 H 415.857 -0.787425 3.34147 0
M  V30 4308 N 418.302 -1.35869 -0.798587 0
M  V30 4309 C 419.548 -1.2978 -1.55836 0
M  V30 4310 C 419.881 0.125322 -1.93795 0
M  V30 4311 O 419.156 1.07658 -1.61987 0
M  V30 4312 C 419.439 -2.21188 -2.84162 0
M  V30 4313 C 419.292 -3.72155 -2.52628 0
M  V30 4314 C 420.611 -2.11545 -3.85923 0
M  V30 4315 H 417.73 -0.472769 -0.565383 0
M  V30 4316 H 420.372 -1.66341 -0.918192 0
M  V30 4317 H 418.522 -1.90139 -3.38791 0
M  V30 4318 H 420.194 -4.13682 -2.04121 0
M  V30 4319 H 418.437 -3.92042 -1.85704 0
M  V30 4320 H 419.108 -4.31511 -3.44242 0
M  V30 4321 H 421.584 -2.38855 -3.40716 0
M  V30 4322 H 420.46 -2.77688 -4.73477 0
M  V30 4323 H 420.721 -1.09987 -4.282 0
M  V30 4324 N 419.78 1.02168 -1.19998 0
M  V30 4325 C 420.69 2.14069 -0.959774 0
M  V30 4326 C 421.706 1.73804 0.082655 0
M  V30 4327 O 422.882 2.01133 -0.103633 0
M  V30 4328 C 419.947 3.42936 -0.509459 0
M  V30 4329 C 419.008 3.97474 -1.62213 0
M  V30 4330 C 418.241 5.2019 -1.19321 0
M  V30 4331 O 418.464 5.70369 -0.0597726 0
M  V30 4332 O 417.398 5.67749 -1.99863 0
M  V30 4333 H 421.224 2.37199 -1.89658 0
M  V30 4334 H 418.809 1.12469 -0.983411 0
M  V30 4335 H 420.691 4.20551 -0.267322 0
M  V30 4336 H 419.366 3.21234 0.398821 0
M  V30 4337 H 418.273 3.21161 -1.9185 0
M  V30 4338 H 419.606 4.23555 -2.50723 0
M  V30 4339 N 421.258 1.00505 1.21394 0
M  V30 4340 C 422.506 0.686415 1.90086 0
M  V30 4341 C 422.827 -0.785264 1.7849 0
M  V30 4342 O 422.097 -1.56387 1.17983 0
M  V30 4343 H 420.677 0.2509 0.703604 0
M  V30 4344 H 423.339 1.27417 1.47482 0
M  V30 4345 H 422.435 0.959621 2.96981 0
M  V30 4346 N 422.737 -1.36956 0.779787 0
M  V30 4347 C 423.962 -2.04283 0.358224 0
M  V30 4348 C 424.387 -1.58422 -1.01411 0
M  V30 4349 O 423.745 -0.748179 -1.65142 0
M  V30 4350 C 423.793 -3.58152 0.419479 0
M  V30 4351 O 422.897 -4.08342 -0.577142 0
M  V30 4352 H 422.238 -0.645967 0.153698 0
M  V30 4353 H 424.768 -1.75108 1.05822 0
M  V30 4354 H 424.778 -4.07041 0.279636 0
M  V30 4355 H 423.453 -3.90886 1.42061 0
M  V30 4356 H 422.03 -3.70751 -0.399755 0
M  V30 4357 N 424.215 -0.530993 -1.48385 0
M  V30 4358 C 425.145 0.219985 -2.32461 0
M  V30 4359 C 426.126 0.934111 -1.42156 0
M  V30 4360 O 427.311 0.919694 -1.71042 0
M  V30 4361 C 424.441 1.26674 -3.23375 0
M  V30 4362 C 423.395 0.67069 -4.22712 0
M  V30 4363 C 422.721 1.82017 -5.02766 0
M  V30 4364 C 424.021 -0.358268 -5.2107 0
M  V30 4365 H 425.715 -0.48187 -2.95497 0
M  V30 4366 H 423.261 -0.233182 -1.42099 0
M  V30 4367 H 425.214 1.80006 -3.81019 0
M  V30 4368 H 423.938 1.99818 -2.58341 0
M  V30 4369 H 422.597 0.158878 -3.66256 0
M  V30 4370 H 422.245 2.54002 -4.34157 0
M  V30 4371 H 421.945 1.42727 -5.70003 0
M  V30 4372 H 423.469 2.35725 -5.63264 0
M  V30 4373 H 424.883 0.0880081 -5.73232 0
M  V30 4374 H 423.28 -0.66861 -5.96364 0
M  V30 4375 H 424.35 -1.26367 -4.68145 0
M  V30 4376 N 425.693 1.55336 -0.266172 0
M  V30 4377 C 426.918 2.04258 0.359661 0
M  V30 4378 C 427.343 1.14359 1.49344 0
M  V30 4379 O 426.701 0.140369 1.80756 0
M  V30 4380 C 426.749 3.50997 0.826635 0
M  V30 4381 O 425.853 3.64204 1.93466 0
M  V30 4382 H 425.194 0.659668 0.075727 0
M  V30 4383 H 427.724 2.00694 -0.39786 0
M  V30 4384 H 427.734 3.9219 1.12477 0
M  V30 4385 H 426.409 4.159 -0.00293032 0
M  V30 4386 H 424.986 3.34913 1.63974 0
M  V30 4387 N 427.171 -0.0066808 1.57599 0
M  V30 4388 C 428.417 -0.68835 1.91398 0
M  V30 4389 C 428.772 -1.7175 0.86716 0
M  V30 4390 O 428.065 -1.91215 -0.121475 0
M  V30 4391 C 428.259 -1.37939 3.29708 0
M  V30 4392 C 428.088 -0.418689 4.47747 0
M  V30 4393 C 426.858 -0.031526 5.0529 0
M  V30 4394 C 429.056 0.312301 5.13351 0
M  V30 4395 N 427.038 0.928088 6.06844 0
M  V30 4396 C 428.409 1.12682 6.09674 0
M  V30 4397 C 430.464 0.376853 4.96472 0
M  V30 4398 C 429.167 2 6.90936 0
M  V30 4399 C 431.193 1.23723 5.78314 0
M  V30 4400 C 430.555 2.03962 6.74225 0
M  V30 4401 H 426.654 -0.225292 0.748844 0
M  V30 4402 H 429.238 0.0520973 1.9463 0
M  V30 4403 H 427.409 -2.09017 3.27363 0
M  V30 4404 H 429.141 -2.01522 3.50957 0
M  V30 4405 H 425.896 -0.398485 4.71921 0
M  V30 4406 H 426.32 1.40307 6.62301 0
M  V30 4407 H 430.962 -0.22921 4.22178 0
M  V30 4408 H 428.68 2.61676 7.64559 0
M  V30 4409 H 432.266 1.291 5.67296 0
M  V30 4410 H 431.146 2.69461 7.36451 0
M  V30 4411 N 428.649 -1.55105 -0.279332 0
M  V30 4412 C 429.877 -1.7943 -1.03017 0
M  V30 4413 C 430.292 -0.564456 -1.80165 0
M  V30 4414 O 429.649 0.466326 -1.76442 0
M  V30 4415 C 429.7 -3.0155 -1.99374 0
M  V30 4416 O 429.421 -4.19784 -1.25352 0
M  V30 4417 C 430.922 -3.3843 -2.86321 0
M  V30 4418 H 428.142 -0.597882 -0.304594 0
M  V30 4419 H 430.686 -2.02105 -0.312035 0
M  V30 4420 H 428.841 -2.81019 -2.66659 0
M  V30 4421 H 429.255 -4.88781 -1.90246 0
M  V30 4422 H 430.729 -4.27066 -3.49741 0
M  V30 4423 H 431.206 -2.57549 -3.5576 0
M  V30 4424 H 431.812 -3.61197 -2.24536 0
M  V30 4425 N 430.127 0.543554 -1.4793 0
M  V30 4426 C 431.057 1.65888 -1.64327 0
M  V30 4427 C 432.038 1.62818 -0.492383 0
M  V30 4428 O 433.223 1.80226 -0.723338 0
M  V30 4429 C 430.353 3.04506 -1.67013 0
M  V30 4430 C 429.307 3.2243 -2.81466 0
M  V30 4431 C 428.633 4.61972 -2.69233 0
M  V30 4432 C 429.933 3.06496 -4.22915 0
M  V30 4433 H 431.627 1.52421 -2.57698 0
M  V30 4434 H 429.173 0.731849 -1.24016 0
M  V30 4435 H 431.126 3.82391 -1.77074 0
M  V30 4436 H 429.85 3.18964 -0.70212 0
M  V30 4437 H 428.509 2.46957 -2.70938 0
M  V30 4438 H 428.157 4.73247 -1.7043 0
M  V30 4439 H 427.857 4.74911 -3.46025 0
M  V30 4440 H 429.381 5.41974 -2.81242 0
M  V30 4441 H 430.795 3.74186 -4.34348 0
M  V30 4442 H 429.192 3.30938 -5.006 0
M  V30 4443 H 430.262 2.03077 -4.40327 0
M  V30 4444 N 431.605 1.3629 0.791371 0
M  V30 4445 C 432.853 1.30154 1.5461 0
M  V30 4446 C 433.174 -0.119409 1.94634 0
M  V30 4447 O 432.444 -1.05924 1.64794 0
M  V30 4448 H 431.024 0.478784 0.573389 0
M  V30 4449 H 433.686 1.70565 0.94306 0
M  V30 4450 H 432.782 1.92762 2.45457 0
M  V30 4451 N 433.083 -1.0153 1.20538 0
M  V30 4452 C 434.03 -2.10098 0.955383 0
M  V30 4453 C 435 -1.65702 -0.114878 0
M  V30 4454 O 436.185 -1.90776 0.0301118 0
M  V30 4455 C 433.325 -3.41236 0.514969 0
M  V30 4456 C 432.438 -3.99102 1.65353 0
M  V30 4457 C 431.573 -5.18306 1.16329 0
M  V30 4458 C 430.612 -5.68258 2.27485 0
M  V30 4459 N 429.749 -6.78722 1.7967 0
M  V30 4460 H 434.589 -2.30818 1.88486 0
M  V30 4461 H 432.126 -1.13189 0.939499 0
M  V30 4462 H 434.084 -4.16504 0.240935 0
M  V30 4463 H 432.714 -3.20585 -0.377512 0
M  V30 4464 H 431.766 -3.20918 2.04245 0
M  V30 4465 H 433.078 -4.32177 2.49047 0
M  V30 4466 H 432.232 -6.00782 0.845302 0
M  V30 4467 H 430.971 -4.86799 0.296254 0
M  V30 4468 H 429.976 -4.84385 2.60099 0
M  V30 4469 H 431.201 -6.01798 3.14667 0
M  V30 4470 H 429.147 -6.49042 0.95295 0
M  V30 4471 H 429.064 -7.10996 2.56944 0
M  V30 4472 H 430.332 -7.64759 1.50875 0
M  V30 4473 N 434.561 -1.01147 -1.20859 0
M  V30 4474 C 435.977 -0.725422 -1.42161 0
M  V30 4475 C 436.177 0.696919 -1.89064 0
M  V30 4476 O 435.233 1.46539 -2.05627 0
M  V30 4477 C 436.546 -1.74678 -2.44761 0
M  V30 4478 C 438.094 -1.76433 -2.58535 0
M  V30 4479 C 438.569 -2.77481 -3.64374 0
M  V30 4480 N 440.06 -2.76189 -3.71852 0
M  V30 4481 C 440.795 -3.51035 -4.53389 0
M  V30 4482 N 440.291 -4.35541 -5.38773 0
M  V30 4483 N 442.084 -3.39655 -4.47873 0
M  V30 4484 H 434.235 -1.92979 -0.887282 0
M  V30 4485 H 436.498 -0.833327 -0.451962 0
M  V30 4486 H 436.204 -2.76551 -2.17285 0
M  V30 4487 H 436.078 -1.55472 -3.43669 0
M  V30 4488 H 438.465 -0.75248 -2.85345 0
M  V30 4489 H 438.546 -1.99712 -1.5984 0
M  V30 4490 H 438.19 -3.78827 -3.38308 0
M  V30 4491 H 438.12 -2.51466 -4.6268 0
M  V30 4492 H 440.611 -2.14885 -3.10858 0
M  V30 4493 H 440.924 -4.89432 -5.98061 0
M  V30 4494 H 439.269 -4.39621 -5.38292 0
M  V30 4495 H 442.46 -2.73063 -3.80203 0
M  V30 4496 H 442.633 -3.9824 -5.11184 0
M  V30 4497 N 436.039 1.36541 -0.78704 0
M  V30 4498 C 437.455 1.52571 -0.46844 0
M  V30 4499 C 437.655 1.7415 1.01361 0
M  V30 4500 O 436.711 1.77163 1.79915 0
M  V30 4501 C 438.024 2.71299 -1.29682 0
M  V30 4502 C 439.572 2.85169 -1.29027 0
M  V30 4503 C 440.047 4.06898 -2.10233 0
M  V30 4504 N 441.538 4.1404 -2.07666 0
M  V30 4505 C 442.273 5.07301 -2.67271 0
M  V30 4506 N 441.769 6.06021 -3.35724 0
M  V30 4507 N 443.562 4.99898 -2.57018 0
M  V30 4508 H 435.713 1.20788 -1.74711 0
M  V30 4509 H 437.976 0.589364 -0.742532 0
M  V30 4510 H 437.682 2.61868 -2.34773 0
M  V30 4511 H 437.556 3.6539 -0.936479 0
M  V30 4512 H 439.943 2.94062 -0.247284 0
M  V30 4513 H 440.024 1.91992 -1.69035 0
M  V30 4514 H 439.668 3.98766 -3.1456 0
M  V30 4515 H 439.598 4.99218 -1.67597 0
M  V30 4516 H 442.089 3.43357 -1.57843 0
M  V30 4517 H 442.402 6.73741 -3.78541 0
M  V30 4518 H 440.747 6.06253 -3.39826 0
M  V30 4519 H 443.938 4.21724 -2.03142 0
M  V30 4520 H 444.111 5.72392 -3.03761 0
M  V30 4521 N 437.518 0.538854 1.48102 0
M  V30 4522 C 438.934 0.19732 1.58376 0
M  V30 4523 C 439.134 -1.29971 1.5398 0
M  V30 4524 O 438.19 -2.07861 1.43352 0
M  V30 4525 C 439.503 0.807716 2.89649 0
M  V30 4526 C 441.051 0.77726 3.03196 0
M  V30 4527 C 441.526 1.36639 4.37143 0
M  V30 4528 N 443.017 1.32875 4.43732 0
M  V30 4529 C 443.752 1.7544 5.45901 0
M  V30 4530 N 443.248 2.25776 6.54979 0
M  V30 4531 N 445.041 1.66623 5.36836 0
M  V30 4532 H 437.192 1.5117 1.49202 0
M  V30 4533 H 439.455 0.629327 0.708979 0
M  V30 4534 H 439.161 1.85909 2.98548 0
M  V30 4535 H 439.035 0.289975 3.76084 0
M  V30 4536 H 441.422 -0.265374 2.93904 0
M  V30 4537 H 441.503 1.33256 2.18349 0
M  V30 4538 H 441.147 2.408 4.47189 0
M  V30 4539 H 441.077 0.786689 5.20691 0
M  V30 4540 H 443.568 0.96037 3.65493 0
M  V30 4541 H 443.881 2.56226 7.29087 0
M  V30 4542 H 442.226 2.29775 6.55918 0
M  V30 4543 H 445.417 1.27089 4.50517 0
M  V30 4544 H 445.59 2.00115 6.16326 0
M  V30 4545 N 438.996 -1.55193 0.274407 0
M  V30 4546 C 439.959 -2.212 -0.600279 0
M  V30 4547 C 440.959 -1.18963 -1.08187 0
M  V30 4548 O 442.149 -1.43873 -0.982158 0
M  V30 4549 C 439.281 -2.87739 -1.82809 0
M  V30 4550 H 440.474 -2.9989 -0.0239682 0
M  V30 4551 H 438.027 -1.5628 0.0250192 0
M  V30 4552 H 438.762 -2.13058 -2.44493 0
M  V30 4553 H 438.547 -3.62658 -1.49069 0
M  V30 4554 H 440.037 -3.38171 -2.45011 0
M  V30 4555 N 440.474 -0.00167713 -1.576 0
M  V30 4556 C 441.437 0.974046 -2.07473 0
M  V30 4557 C 442.437 1.27143 -0.984444 0
M  V30 4558 O 443.627 1.21633 -1.24703 0
M  V30 4559 C 440.759 2.29849 -2.51759 0
M  V30 4560 H 441.952 0.54262 -2.9495 0
M  V30 4561 H 439.505 0.245829 -1.54355 0
M  V30 4562 H 440.24 2.77677 -1.67529 0
M  V30 4563 H 440.025 2.09584 -3.31386 0
M  V30 4564 H 441.515 2.9984 -2.90664 0
M  V30 4565 N 441.952 1.55251 0.271103 0
M  V30 4566 C 442.885 1.83191 1.36075 0
M  V30 4567 C 443.863 0.685091 1.47463 0
M  V30 4568 O 445.047 0.928292 1.64058 0
M  V30 4569 C 442.174 1.99521 2.73696 0
M  V30 4570 C 441.22 3.22081 2.79582 0
M  V30 4571 S 442.053 4.79388 2.38636 0
M  V30 4572 C 443.209 4.98693 3.78228 0
M  V30 4573 H 443.442 2.75327 1.12171 0
M  V30 4574 H 440.975 1.47046 0.470833 0
M  V30 4575 H 442.933 2.09613 3.52948 0
M  V30 4576 H 441.594 1.0827 2.9485 0
M  V30 4577 H 440.787 3.304 3.80594 0
M  V30 4578 H 440.389 3.10589 2.08352 0
M  V30 4579 H 442.681 4.84551 4.73515 0
M  V30 4580 H 443.624 6.00738 3.7486 0
M  V30 4581 H 444.032 4.26665 3.69618 0
M  V30 4582 N 443.43 -0.535701 1.48216 0
M  V30 4583 C 444.707 -1.29683 1.46429 0
M  V30 4584 C 445.087 -2.10391 0.172852 0
M  V30 4585 O 444.435 -2.12282 -0.845488 0
M  V30 4586 C 444.645 -2.18313 2.72287 0
M  V30 4587 C 445.993 -2.78639 3.20383 0
M  V30 4588 O 447.017 -2.28604 2.73164 0
M  V30 4589 O 445.876 -3.69636 4.02531 0
M  V30 4590 H 442.97 -0.585026 0.584529 0
M  V30 4591 H 445.516 -0.552827 1.60443 0
M  V30 4592 H 444.288 -1.58421 3.57797 0
M  V30 4593 H 443.911 -2.99971 2.60966 0
M  V30 4594 N 444.908 -1.36708 -0.784132 0
M  V30 4595 C 446.155 -1.31231 -1.54222 0
M  V30 4596 C 446.483 0.106864 -1.94206 0
M  V30 4597 O 445.738 1.07734 -1.63376 0
M  V30 4598 C 446.037 -2.18571 -2.82774 0
M  V30 4599 C 445.703 -3.67039 -2.61903 0
M  V30 4600 C 444.365 -4.07503 -2.55919 0
M  V30 4601 C 446.717 -4.61149 -2.4288 0
M  V30 4602 C 444.045 -5.40211 -2.28886 0
M  V30 4603 C 446.397 -5.94081 -2.17373 0
M  V30 4604 C 445.061 -6.33664 -2.09825 0
M  V30 4605 H 444.331 -0.48021 -0.56434 0
M  V30 4606 H 446.978 -1.68807 -0.904233 0
M  V30 4607 H 445.283 -1.73949 -3.51068 0
M  V30 4608 H 446.98 -2.11655 -3.40592 0
M  V30 4609 H 443.57 -3.34941 -2.67418 0
M  V30 4610 H 447.754 -4.30756 -2.46501 0
M  V30 4611 H 443.01 -5.69855 -2.21529 0
M  V30 4612 H 447.184 -6.66566 -2.01649 0
M  V30 4613 H 444.811 -7.36423 -1.88641 0
M  V30 4614 N 446.386 1.0089 -1.21074 0
M  V30 4615 C 447.797 1.56056 -1.02486 0
M  V30 4616 C 448.148 1.91728 0.416506 0
M  V30 4617 O 447.273 1.73066 1.29912 0
M  V30 4618 C 447.868 2.83563 -1.85411 0
M  V30 4619 C 446.427 3.3523 -1.71166 0
M  V30 4620 C 445.574 2.0846 -1.82865 0
M  V30 4621 H 448.525 0.831818 -1.35154 0
M  V30 4622 H 448.546 3.55286 -1.36205 0
M  V30 4623 H 448.058 2.57569 -2.9031 0
M  V30 4624 H 446.159 3.66167 -0.689361 0
M  V30 4625 H 446.272 4.06913 -2.52901 0
M  V30 4626 H 444.636 2.21275 -1.26132 0
M  V30 4627 H 445.419 1.84883 -2.89263 0
M  V30 4628 N 447.864 1.01787 1.20321 0
M  V30 4629 C 449.112 0.706538 1.89347 0
M  V30 4630 C 449.433 -0.766289 1.79313 0
M  V30 4631 O 448.703 -1.55126 1.19635 0
M  V30 4632 H 447.283 0.258348 0.700903 0
M  V30 4633 H 449.945 1.28974 1.46122 0
M  V30 4634 H 449.041 0.991066 2.95946 0
M  V30 4635 N 449.342 -1.36122 0.79427 0
M  V30 4636 C 450.305 -2.28309 0.201889 0
M  V30 4637 C 451.305 -1.49041 -0.603603 0
M  V30 4638 O 452.495 -1.68964 -0.423888 0
M  V30 4639 C 449.627 -3.3321 -0.719978 0
M  V30 4640 H 450.82 -2.82208 1.01481 0
M  V30 4641 H 448.373 -1.45768 0.564037 0
M  V30 4642 H 449.108 -2.84475 -1.55706 0
M  V30 4643 H 448.893 -3.91835 -0.144266 0
M  V30 4644 H 450.383 -4.02044 -1.12916 0
M  V30 4645 N 450.82 -0.546701 -1.47814 0
M  V30 4646 C 451.767 0.206854 -2.29871 0
M  V30 4647 C 452.737 0.918235 -1.38411 0
M  V30 4648 O 453.922 0.915991 -1.67375 0
M  V30 4649 C 451.062 1.23746 -3.22151 0
M  V30 4650 C 450.175 0.533216 -4.28697 0
M  V30 4651 C 449.31 1.5482 -5.08138 0
M  V30 4652 C 448.349 0.828347 -6.06469 0
M  V30 4653 N 447.486 1.78966 -6.78908 0
M  V30 4654 H 452.326 -0.499037 -2.93792 0
M  V30 4655 H 449.863 -0.25793 -1.44821 0
M  V30 4656 H 451.821 1.84746 -3.74065 0
M  V30 4657 H 450.451 1.91151 -2.60117 0
M  V30 4658 H 449.503 -0.191089 -3.7992 0
M  V30 4659 H 450.815 -0.0311987 -4.9879 0
M  V30 4660 H 449.969 2.23202 -5.6415 0
M  V30 4661 H 448.708 2.14652 -4.37922 0
M  V30 4662 H 447.713 0.130539 -5.49645 0
M  V30 4663 H 448.938 0.235907 -6.7869 0
M  V30 4664 H 446.884 2.37675 -6.1143 0
M  V30 4665 H 446.801 1.27712 -7.45135 0
M  V30 4666 H 448.069 2.46496 -7.395 0
M  V30 4667 N 452.299 1.55045 -0.282633 0
M  V30 4668 C 453.545 2.00056 0.332481 0
M  V30 4669 C 453.878 1.1708 1.54939 0
M  V30 4670 O 453.153 0.2427 1.9298 0
M  V30 4671 C 453.436 3.53086 0.70725 0
M  V30 4672 C 453.289 4.46813 -0.517521 0
M  V30 4673 C 454.608 4.12245 1.54084 0
M  V30 4674 H 451.727 0.727268 0.119373 0
M  V30 4675 H 454.369 1.85932 -0.391076 0
M  V30 4676 H 452.519 3.65253 1.32372 0
M  V30 4677 H 454.191 4.46579 -1.15607 0
M  V30 4678 H 452.434 4.18163 -1.1542 0
M  V30 4679 H 453.105 5.51595 -0.211426 0
M  V30 4680 H 455.581 4.03401 1.02013 0
M  V30 4681 H 454.457 5.19515 1.77186 0
M  V30 4682 H 454.718 3.62951 2.52427 0
M  V30 4683 N 453.777 0.010035 1.57597 0
M  V30 4684 C 455.026 -0.671945 1.90178 0
M  V30 4685 C 455.339 -1.74376 0.886131 0
M  V30 4686 O 456.545 -2.48107 1.10252 0
M  V30 4687 C 455.001 -1.24636 3.3763 0
M  V30 4688 C 454.609 -0.208838 4.47513 0
M  V30 4689 C 456.353 -1.90595 3.79307 0
M  V30 4690 C 454.26 -0.793814 5.86048 0
M  V30 4691 H 453.19 -0.25474 0.709665 0
M  V30 4692 H 455.841 0.0722206 1.83358 0
M  V30 4693 H 454.223 -2.04152 3.3932 0
M  V30 4694 H 455.397 0.562463 4.57354 0
M  V30 4695 H 453.712 0.350889 4.14919 0
M  V30 4696 H 456.309 -2.35284 4.80151 0
M  V30 4697 H 456.652 -2.74074 3.13352 0
M  V30 4698 H 457.185 -1.17798 3.79958 0
M  V30 4699 H 453.924 0.00240855 6.555 0
M  V30 4700 H 453.444 -1.53404 5.79851 0
M  V30 4701 H 455.123 -1.2894 6.34022 0
M  V30 4702 N 455.255 -1.55392 -0.262866 0
M  V30 4703 C 456.501 -1.76737 -0.99458 0
M  V30 4704 C 456.834 -0.572453 -1.85571 0
M  V30 4705 O 456.109 0.429732 -1.89693 0
M  V30 4706 C 456.392 -3.07824 -1.8686 0
M  V30 4707 C 456.245 -4.3769 -1.03672 0
M  V30 4708 C 457.564 -3.35021 -2.85393 0
M  V30 4709 H 454.683 -0.643005 -0.360157 0
M  V30 4710 H 457.325 -1.88126 -0.266216 0
M  V30 4711 H 455.475 -2.98245 -2.48962 0
M  V30 4712 H 457.147 -4.59238 -0.43563 0
M  V30 4713 H 455.39 -4.32461 -0.340513 0
M  V30 4714 H 456.061 -5.25759 -1.6817 0
M  V30 4715 H 458.537 -3.44458 -2.33426 0
M  V30 4716 H 457.413 -4.27989 -3.43681 0
M  V30 4717 H 457.674 -2.55153 -3.61039 0
M  V30 4718 N 456.733 0.527833 -1.48498 0
M  V30 4719 C 458.144 1.10975 -1.50138 0
M  V30 4720 C 458.495 1.943 -0.272378 0
M  V30 4721 O 457.62 2.07319 0.620301 0
M  V30 4722 C 458.215 2.01927 -2.72049 0
M  V30 4723 C 456.774 2.55332 -2.76554 0
M  V30 4724 C 455.921 1.32341 -2.43683 0
M  V30 4725 H 458.872 0.312986 -1.55583 0
M  V30 4726 H 458.893 2.86244 -2.50689 0
M  V30 4727 H 458.405 1.41254 -3.61481 0
M  V30 4728 H 456.506 3.19721 -1.91336 0
M  V30 4729 H 456.619 2.94319 -3.78038 0
M  V30 4730 H 454.983 1.63989 -1.94884 0
M  V30 4731 H 455.766 0.734165 -3.35358 0
M  V30 4732 N 458.211 1.37122 0.776871 0
M  V30 4733 C 459.143 1.28342 1.89897 0
M  V30 4734 C 460.156 0.200277 1.61563 0
M  V30 4735 O 461.345 0.456012 1.72577 0
M  V30 4736 C 458.445 0.960427 3.25006 0
M  V30 4737 C 457.618 2.148 3.81025 0
M  V30 4738 C 456.677 1.79608 4.94598 0
M  V30 4739 O 455.703 2.51845 5.10454 0
M  V30 4740 N 456.905 0.737171 5.758 0
M  V30 4741 H 459.67 2.25027 1.97947 0
M  V30 4742 H 457.231 1.3068 0.955739 0
M  V30 4743 H 459.223 0.705942 3.98495 0
M  V30 4744 H 457.793 0.0823066 3.12492 0
M  V30 4745 H 457.013 2.56454 2.99374 0
M  V30 4746 H 458.301 2.9411 4.15183 0
M  V30 4747 H 457.699 0.137637 5.65533 0
M  V30 4748 H 456.256 0.542534 6.49538 0
M  V30 4749 N 459.689 -1.00246 1.21608 0
M  V30 4750 C 460.619 -2.10921 1.00172 0
M  V30 4751 C 461.6 -1.69938 -0.0741587 0
M  V30 4752 O 462.785 -1.94009 0.0861753 0
M  V30 4753 C 459.915 -3.42618 0.568355 0
M  V30 4754 C 458.869 -3.97407 1.58909 0
M  V30 4755 C 458.195 -5.25038 1.01187 0
M  V30 4756 C 459.495 -4.2918 2.97661 0
M  V30 4757 H 461.189 -2.29112 1.92739 0
M  V30 4758 H 458.735 -1.10101 0.928102 0
M  V30 4759 H 460.688 -4.19444 0.405555 0
M  V30 4760 H 459.412 -3.24227 -0.392961 0
M  V30 4761 H 458.071 -3.22703 1.73949 0
M  V30 4762 H 457.719 -5.02982 0.0421965 0
M  V30 4763 H 457.419 -5.62661 1.6937 0
M  V30 4764 H 458.943 -6.04507 0.860448 0
M  V30 4765 H 460.357 -4.96839 2.86049 0
M  V30 4766 H 458.754 -4.77952 3.6288 0
M  V30 4767 H 459.824 -3.3735 3.48315 0
M  V30 4768 N 461.167 -1.02423 -1.1978 0
M  V30 4769 C 462.114 -0.601023 -2.22837 0
M  V30 4770 C 463.084 0.382801 -1.61629 0
M  V30 4771 O 464.269 0.280514 -1.88727 0
M  V30 4772 C 461.409 0.0467755 -3.45068 0
M  V30 4773 C 460.522 -0.98253 -4.20678 0
M  V30 4774 C 459.657 -0.304982 -5.30324 0
M  V30 4775 C 458.696 -1.32052 -5.97686 0
M  V30 4776 N 457.833 -0.669105 -6.98904 0
M  V30 4777 H 462.673 -1.48444 -2.58396 0
M  V30 4778 H 460.21 -0.742936 -1.2696 0
M  V30 4779 H 462.168 0.439556 -4.14878 0
M  V30 4780 H 460.798 0.893796 -3.10179 0
M  V30 4781 H 459.85 -1.49341 -3.49859 0
M  V30 4782 H 461.162 -1.75455 -4.66923 0
M  V30 4783 H 460.316 0.142893 -6.06532 0
M  V30 4784 H 459.055 0.499283 -4.85138 0
M  V30 4785 H 458.06 -1.7787 -5.20233 0
M  V30 4786 H 459.285 -2.1262 -6.44957 0
M  V30 4787 H 457.231 0.115152 -6.55899 0
M  V30 4788 H 457.148 -1.37908 -7.43315 0
M  V30 4789 H 458.416 -0.245076 -7.79115 0
M  V30 4790 N 462.645 1.35699 -0.801477 0
M  V30 4791 C 463.893 1.9852 -0.37871 0
M  V30 4792 C 464.214 1.63907 1.05638 0
M  V30 4793 O 463.484 0.919013 1.73006 0
M  V30 4794 H 462.064 0.734322 -0.137042 0
M  V30 4795 H 464.726 1.65697 -1.02619 0
M  V30 4796 H 463.822 3.08382 -0.480284 0
M  V30 4797 N 464.123 0.554532 1.47522 0
M  V30 4798 C 465.539 0.214107 1.58157 0
M  V30 4799 C 465.739 -1.28331 1.55349 0
M  V30 4800 O 464.795 -2.06329 1.45549 0
M  V30 4801 C 466.108 0.838391 2.88776 0
M  V30 4802 C 467.656 0.809374 3.02354 0
M  V30 4803 C 468.131 1.41268 4.35669 0
M  V30 4804 N 469.622 1.37574 4.42298 0
M  V30 4805 C 470.357 1.8122 5.4401 0
M  V30 4806 N 469.853 2.3271 6.52547 0
M  V30 4807 N 471.646 1.72307 5.35039 0
M  V30 4808 H 463.797 1.52744 1.4759 0
M  V30 4809 H 466.06 0.636812 0.702264 0
M  V30 4810 H 465.766 1.89065 2.96559 0
M  V30 4811 H 465.64 0.329847 3.75755 0
M  V30 4812 H 468.027 -0.234187 2.94169 0
M  V30 4813 H 468.108 1.35565 2.16924 0
M  V30 4814 H 467.752 2.45529 4.4461 0
M  V30 4815 H 467.682 0.841871 5.19827 0
M  V30 4816 H 470.173 0.999081 3.64454 0
M  V30 4817 H 470.486 2.63944 7.26329 0
M  V30 4818 H 468.831 2.36719 6.53444 0
M  V30 4819 H 472.022 1.3186 4.49144 0
M  V30 4820 H 472.195 2.06641 6.14169 0
M  V30 4821 N 465.601 -1.54893 0.290851 0
M  V30 4822 C 466.847 -2.0023 -0.321867 0
M  V30 4823 C 467.18 -1.179 -1.54316 0
M  V30 4824 O 466.455 -0.25293 -1.92848 0
M  V30 4825 C 466.738 -3.53456 -0.688515 0
M  V30 4826 C 466.591 -4.46532 0.541209 0
M  V30 4827 C 467.91 -4.13057 -1.51895 0
M  V30 4828 H 465.029 -0.727891 -0.115515 0
M  V30 4829 H 467.671 -1.85722 0.400931 0
M  V30 4830 H 465.821 -3.6595 -1.30433 0
M  V30 4831 H 467.493 -4.4596 1.17973 0
M  V30 4832 H 465.736 -4.17545 1.17636 0
M  V30 4833 H 466.407 -5.51475 0.240675 0
M  V30 4834 H 468.883 -4.03937 -0.99872 0
M  V30 4835 H 467.759 -5.20448 -1.74429 0
M  V30 4836 H 468.02 -3.64284 -2.50498 0
M  V30 4837 N 467.08 -0.0183926 -1.57589 0
M  V30 4838 C 468.012 0.995557 -2.06449 0
M  V30 4839 C 469.025 1.29556 -0.985849 0
M  V30 4840 O 470.214 1.2621 -1.26227 0
M  V30 4841 C 467.314 2.32572 -2.46502 0
M  V30 4842 C 466.487 2.21245 -3.77319 0
M  V30 4843 C 465.546 3.37104 -4.04039 0
M  V30 4844 O 464.572 3.14468 -4.74445 0
M  V30 4845 N 465.774 4.60553 -3.53372 0
M  V30 4846 H 468.539 0.578746 -2.94059 0
M  V30 4847 H 466.1 0.168603 -1.6102 0
M  V30 4848 H 468.092 3.08887 -2.61478 0
M  V30 4849 H 466.662 2.65931 -1.64315 0
M  V30 4850 H 465.882 1.29723 -3.72244 0
M  V30 4851 H 467.17 2.10868 -4.63047 0
M  V30 4852 H 466.568 4.81839 -2.96391 0
M  V30 4853 H 465.125 5.34072 -3.73644 0
M  V30 4854 N 468.558 1.5553 0.254621 0
M  V30 4855 C 469.974 1.4778 0.602753 0
M  V30 4856 C 470.174 0.707047 1.88688 0
M  V30 4857 O 469.23 0.233288 2.5142 0
M  V30 4858 C 470.543 2.92133 0.712648 0
M  V30 4859 C 472.091 3.02458 0.805488 0
M  V30 4860 C 472.566 4.48102 0.947009 0
M  V30 4861 N 474.057 4.52008 1.01207 0
M  V30 4862 C 474.792 5.61939 1.1407 0
M  V30 4863 N 474.288 6.81697 1.23536 0
M  V30 4864 N 476.081 5.49719 1.17325 0
M  V30 4865 H 468.232 2.04085 -0.588463 0
M  V30 4866 H 470.495 0.926229 -0.202001 0
M  V30 4867 H 470.201 3.51332 -0.160766 0
M  V30 4868 H 470.075 3.42187 1.58707 0
M  V30 4869 H 472.462 2.43344 1.66936 0
M  V30 4870 H 472.543 2.55627 -0.0939266 0
M  V30 4871 H 472.187 5.07824 0.087725 0
M  V30 4872 H 472.117 4.92607 1.86135 0
M  V30 4873 H 474.608 3.65749 0.950577 0
M  V30 4874 H 474.921 7.61228 1.33236 0
M  V30 4875 H 473.266 6.84473 1.20508 0
M  V30 4876 H 476.457 4.55095 1.09573 0
M  V30 4877 H 476.63 6.35432 1.27005 0
M  V30 4878 N 470.036 -0.519951 1.48776 0
M  V30 4879 C 471.452 -0.849418 1.35119 0
M  V30 4880 C 471.652 -1.98077 0.36982 0
M  V30 4881 O 470.708 -2.51664 -0.205359 0
M  V30 4882 C 472.021 -1.20748 2.75391 0
M  V30 4883 C 473.569 -1.31679 2.83954 0
M  V30 4884 C 474.044 -1.70824 4.24951 0
M  V30 4885 N 475.535 -1.77908 4.27672 0
M  V30 4886 C 476.27 -2.09603 5.33717 0
M  V30 4887 N 475.766 -2.39652 6.5003 0
M  V30 4888 N 477.559 -2.10694 5.21119 0
M  V30 4889 H 469.71 0.226377 2.1119 0
M  V30 4890 H 471.973 0.0386519 0.947212 0
M  V30 4891 H 471.679 -0.449703 3.48813 0
M  V30 4892 H 471.553 -2.15534 3.09556 0
M  V30 4893 H 473.94 -2.06532 2.10781 0
M  V30 4894 H 474.021 -0.3499 2.53396 0
M  V30 4895 H 473.665 -0.965282 4.98643 0
M  V30 4896 H 473.595 -2.6858 4.52959 0
M  V30 4897 H 476.086 -1.56923 3.43779 0
M  V30 4898 H 476.399 -2.6297 7.26682 0
M  V30 4899 H 474.744 -2.37149 6.53288 0
M  V30 4900 H 477.935 -1.86682 4.29264 0
M  V30 4901 H 478.108 -2.35062 6.03863 0
M  V30 4902 N 471.514 -1.37532 -0.769588 0
M  V30 4903 C 472.93 -1.18379 -1.07045 0
M  V30 4904 C 473.13 -0.0214312 -2.01489 0
M  V30 4905 O 472.186 0.637809 -2.44312 0
M  V30 4906 C 473.499 -2.50338 -1.66588 0
M  V30 4907 C 475.047 -2.56879 -1.78835 0
M  V30 4908 C 475.522 -3.88974 -2.41792 0
M  V30 4909 N 477.013 -3.90428 -2.4924 0
M  V30 4910 C 477.748 -4.89388 -2.98809 0
M  V30 4911 N 477.244 -5.98745 -3.48535 0
M  V30 4912 N 479.037 -4.76791 -2.97703 0
M  V30 4913 H 471.188 -2.11921 -0.142541 0
M  V30 4914 H 473.451 -0.939608 -0.125863 0
M  V30 4915 H 473.157 -3.35767 -1.0466 0
M  V30 4916 H 473.031 -2.67583 -2.65856 0
M  V30 4917 H 475.418 -1.71856 -2.39895 0
M  V30 4918 H 475.499 -2.43516 -0.783166 0
M  V30 4919 H 475.143 -4.74412 -1.81371 0
M  V30 4920 H 475.073 -3.99641 -3.4292 0
M  V30 4921 H 477.564 -3.11433 -2.14052 0
M  V30 4922 H 477.877 -6.70205 -3.84767 0
M  V30 4923 H 476.222 -6.02387 -3.46634 0
M  V30 4924 H 479.413 -3.90478 -2.58157 0
M  V30 4925 H 479.586 -5.54069 -3.36024 0
M  V30 4926 N 472.992 0.995999 -1.22138 0
M  V30 4927 C 474.238 1.73767 -1.04561 0
M  V30 4928 C 474.571 1.89633 0.418698 0
M  V30 4929 O 473.846 1.43723 1.3105 0
M  V30 4930 C 474.129 3.14505 -1.75382 0
M  V30 4931 C 473.982 3.06306 -3.29388 0
M  V30 4932 C 475.301 4.13615 -1.50369 0
M  V30 4933 H 472.42 0.630728 -0.38125 0
M  V30 4934 H 475.062 1.16057 -1.50435 0
M  V30 4935 H 473.212 3.63775 -1.36383 0
M  V30 4936 H 474.884 2.64681 -3.77812 0
M  V30 4937 H 473.127 2.43186 -3.59226 0
M  V30 4938 H 473.798 4.05884 -3.74116 0
M  V30 4939 H 476.274 3.73089 -1.84239 0
M  V30 4940 H 475.15 5.10212 -2.02421 0
M  V30 4941 H 475.411 4.39949 -0.435611 0
M  V30 4942 N 474.47 1.03057 1.19235 0
M  V30 4943 C 475.718 0.726581 1.88587 0
M  V30 4944 C 476.039 -0.747227 1.80115 0
M  V30 4945 O 475.309 -1.53849 1.21274 0
M  V30 4946 H 473.889 0.265768 0.698124 0
M  V30 4947 H 476.551 1.30516 1.44746 0
M  V30 4948 H 475.647 1.0224 2.94879 0
M  V30 4949 N 475.948 -1.35272 0.808662 0
M  V30 4950 C 476.878 -2.32315 0.234981 0
M  V30 4951 C 477.859 -1.57572 -0.64071 0
M  V30 4952 O 479.044 -1.8563 -0.570551 0
M  V30 4953 C 476.174 -3.41801 -0.615601 0
M  V30 4954 C 475.128 -4.27694 0.161767 0
M  V30 4955 C 474.454 -5.28519 -0.810649 0
M  V30 4956 C 475.754 -5.04231 1.36193 0
M  V30 4957 H 477.448 -2.80543 1.04575 0
M  V30 4958 H 474.994 -1.3488 0.504315 0
M  V30 4959 H 476.947 -4.08693 -1.02702 0
M  V30 4960 H 475.671 -2.92186 -1.45928 0
M  V30 4961 H 474.33 -3.62384 0.554382 0
M  V30 4962 H 473.978 -4.75171 -1.64988 0
M  V30 4963 H 473.678 -5.8686 -0.294822 0
M  V30 4964 H 475.202 -5.98283 -1.22023 0
M  V30 4965 H 476.616 -5.64058 1.02528 0
M  V30 4966 H 475.013 -5.72077 1.81239 0
M  V30 4967 H 476.083 -4.34753 2.14751 0
M  V30 4968 N 477.426 -0.562348 -1.47226 0
M  V30 4969 C 478.359 0.230405 -2.27034 0
M  V30 4970 C 479.337 0.915609 -1.3437 0
M  V30 4971 O 480.521 0.933573 -1.63758 0
M  V30 4972 C 477.648 1.32874 -3.11548 0
M  V30 4973 C 476.694 0.751552 -4.19826 0
M  V30 4974 S 477.527 -0.405848 -5.3396 0
M  V30 4975 C 478.683 0.694186 -6.22038 0
M  V30 4976 H 478.916 -0.446811 -2.93923 0
M  V30 4977 H 476.449 -0.348781 -1.50409 0
M  V30 4978 H 478.407 1.95773 -3.60809 0
M  V30 4979 H 477.068 1.97782 -2.44011 0
M  V30 4980 H 476.261 1.57651 -4.78709 0
M  V30 4981 H 475.863 0.198645 -3.73472 0
M  V30 4982 H 478.155 1.58501 -6.58698 0
M  V30 4983 H 479.098 0.142592 -7.07956 0
M  V30 4984 H 479.506 0.989169 -5.55766 0
M  V30 4985 N 478.904 1.54736 -0.299062 0
M  V30 4986 C 480.144 2.0201 0.31168 0
M  V30 4987 C 480.508 1.18281 1.5124 0
M  V30 4988 O 481.709 1.55243 2.19438 0
M  V30 4989 C 479.98 3.5123 0.661227 0
M  V30 4990 S 481.539 4.20467 1.2551 0
M  V30 4991 H 478.357 0.704523 0.0957517 0
M  V30 4992 H 480.959 1.90791 -0.426482 0
M  V30 4993 H 479.663 4.09804 -0.221171 0
M  V30 4994 H 479.194 3.66481 1.43023 0
M  V30 4995 H 481.209 4.26083 2.54298 0
M  V30 4996 N 480.382 0.0267497 1.57577 0
M  V30 4997 C 481.292 -0.971633 2.13533 0
M  V30 4998 C 482.308 -1.35868 1.08701 0
M  V30 4999 O 483.484 -1.44058 1.40746 0
M  V30 5000 C 480.549 -2.23622 2.64941 0
M  V30 5001 C 479.61 -1.90982 3.8448 0
M  V30 5002 C 478.843 -3.11411 4.33427 0
M  V30 5003 O 479.066 -4.23992 3.81558 0
M  V30 5004 O 478 -2.93848 5.25297 0
M  V30 5005 H 481.826 -0.525853 2.99113 0
M  V30 5006 H 479.411 -0.193712 1.48139 0
M  V30 5007 H 481.293 -2.97864 2.98086 0
M  V30 5008 H 479.968 -2.67386 1.82446 0
M  V30 5009 H 478.875 -1.14132 3.56265 0
M  V30 5010 H 480.208 -1.52036 4.6813 0
M  V30 5011 N 481.861 -1.55662 -0.24637 0
M  V30 5012 C 483.109 -1.77168 -0.972411 0
M  V30 5013 C 483.43 -0.590827 -1.85834 0
M  V30 5014 O 482.7 0.393365 -1.9191 0
M  V30 5015 H 481.28 -0.653405 -0.362038 0
M  V30 5016 H 483.942 -1.93101 -0.264189 0
M  V30 5017 H 483.038 -2.68335 -1.59382 0
M  V30 5018 N 483.339 0.512053 -1.4905 0
M  V30 5019 C 484.302 1.59704 -1.64399 0
M  V30 5020 C 485.302 1.52285 -0.516317 0
M  V30 5021 O 486.492 1.55635 -0.782527 0
M  V30 5022 C 483.624 2.9935 -1.63102 0
M  V30 5023 H 484.817 1.47428 -2.61161 0
M  V30 5024 H 482.37 0.735469 -1.37915 0
M  V30 5025 H 483.105 3.17116 -0.678836 0
M  V30 5026 H 482.89 3.06144 -2.44986 0
M  V30 5027 H 484.38 3.782 -1.77072 0
M  V30 5028 N 484.817 1.37938 0.762283 0
M  V30 5029 C 486.228 1.30094 1.33912 0
M  V30 5030 C 486.579 -0.0472026 1.96143 0
M  V30 5031 O 485.704 -0.94917 1.94473 0
M  V30 5032 C 486.299 2.35592 2.43478 0
M  V30 5033 C 484.858 2.31353 2.96905 0
M  V30 5034 C 484.005 2.18919 1.70205 0
M  V30 5035 H 486.956 1.48423 0.561816 0
M  V30 5036 H 486.977 2.00806 3.23199 0
M  V30 5037 H 486.489 3.33701 1.98155 0
M  V30 5038 H 484.59 1.36799 3.46579 0
M  V30 5039 H 484.703 3.25147 3.51875 0
M  V30 5040 H 483.067 1.65624 1.93496 0
M  V30 5041 H 483.85 3.18956 1.26973 0
M  V30 5042 N 486.295 -0.989507 1.22664 0
M  V30 5043 C 487.228 -2.07805 0.942985 0
M  V30 5044 C 488.206 -1.6219 -0.115356 0
M  V30 5045 O 489.39 -1.88492 0.0169565 0
M  V30 5046 C 486.517 -3.361 0.418898 0
M  V30 5047 C 485.563 -4.00643 1.46244 0
M  V30 5048 S 486.396 -4.41059 3.03689 0
M  V30 5049 C 487.552 -5.7252 2.52927 0
M  V30 5050 H 487.785 -2.31547 1.86476 0
M  V30 5051 H 485.318 -1.12446 1.05808 0
M  V30 5052 H 487.276 -4.10315 0.123114 0
M  V30 5053 H 485.937 -3.10383 -0.481818 0
M  V30 5054 H 485.13 -4.93033 1.04569 0
M  V30 5055 H 484.732 -3.32767 1.7071 0
M  V30 5056 H 487.024 -6.49017 1.94379 0
M  V30 5057 H 487.967 -6.19026 3.4382 0
M  V30 5058 H 488.375 -5.30083 1.94094 0
M  V30 5059 N 487.773 -1.03688 -1.18687 0
M  V30 5060 C 489.189 -0.755413 -1.4059 0
M  V30 5061 C 489.389 0.656659 -1.905 0
M  V30 5062 O 488.445 1.42144 -2.08689 0
M  V30 5063 C 489.758 -1.7983 -2.41001 0
M  V30 5064 C 491.306 -1.81877 -2.54735 0
M  V30 5065 C 491.781 -2.85148 -3.58406 0
M  V30 5066 N 493.272 -2.84015 -3.6591 0
M  V30 5067 C 494.007 -3.60573 -4.45841 0
M  V30 5068 N 493.503 -4.46871 -5.29413 0
M  V30 5069 N 495.296 -3.49079 -4.40568 0
M  V30 5070 H 487.447 -1.94818 -0.846148 0
M  V30 5071 H 489.71 -0.842727 -0.434184 0
M  V30 5072 H 489.416 -2.81097 -2.1137 0
M  V30 5073 H 489.29 -1.62727 -3.40294 0
M  V30 5074 H 491.677 -0.812836 -2.83685 0
M  V30 5075 H 491.758 -2.03057 -1.55568 0
M  V30 5076 H 491.402 -3.85918 -3.30197 0
M  V30 5077 H 491.332 -2.61224 -4.57241 0
M  V30 5078 H 493.823 -2.21431 -3.0623 0
M  V30 5079 H 494.136 -5.02007 -5.87545 0
M  V30 5080 H 492.481 -4.5094 -5.28846 0
M  V30 5081 H 495.672 -2.81066 -3.74325 0
M  V30 5082 H 495.845 -4.08994 -5.02621 0
M  V30 5083 N 489.251 1.34841 -0.815825 0
M  V30 5084 C 490.214 2.27959 -0.238185 0
M  V30 5085 C 491.214 1.49983 0.579816 0
M  V30 5086 O 492.404 1.69617 0.396953 0
M  V30 5087 C 489.536 3.34314 0.666876 0
M  V30 5088 H 490.729 2.80558 -1.05958 0
M  V30 5089 H 488.282 1.44852 -0.587156 0
M  V30 5090 H 489.017 2.86916 1.5116 0
M  V30 5091 H 488.802 3.92014 0.0819106 0
M  V30 5092 H 490.292 4.0379 1.06506 0
M  V30 5093 N 490.729 0.570148 1.46925 0
M  V30 5094 C 491.679 -0.190921 2.27199 0
M  V30 5095 C 492.663 -0.873457 1.35128 0
M  V30 5096 O 493.855 -0.769627 1.59392 0
M  V30 5097 C 490.984 -1.21204 3.21192 0
M  V30 5098 C 490.07 -0.532261 4.20747 0
M  V30 5099 N 490.461 0.405038 5.04176 0
M  V30 5100 C 488.759 -0.784582 4.39045 0
M  V30 5101 C 489.46 0.801149 5.76157 0
M  V30 5102 N 488.436 0.153082 5.43384 0
M  V30 5103 H 492.238 0.529535 2.8909 0
M  V30 5104 H 489.752 0.391019 1.57622 0
M  V30 5105 H 491.749 -1.77135 3.77398 0
M  V30 5106 H 490.409 -1.93345 2.6086 0
M  V30 5107 H 491.42 0.779903 5.11994 0
M  V30 5108 H 488.097 -1.49352 3.89872 0
M  V30 5109 H 489.487 1.57208 6.5325 0
M  V30 5110 N 492.207 -1.54576 0.307264 0
M  V30 5111 C 493.432 -2.05139 -0.305379 0
M  V30 5112 C 493.857 -1.18278 -1.46259 0
M  V30 5113 O 493.215 -0.188243 -1.8032 0
M  V30 5114 C 493.263 -3.53066 -0.733283 0
M  V30 5115 O 492.367 -3.69206 -1.83741 0
M  V30 5116 H 491.708 -0.661444 -0.0582105 0
M  V30 5117 H 494.238 -1.99569 0.450931 0
M  V30 5118 H 494.248 -3.95034 -1.02039 0
M  V30 5119 H 492.923 -4.15746 0.113198 0
M  V30 5120 H 491.5 -3.39143 -1.55037 0
M  V30 5121 N 493.685 -0.035106 -1.57561 0
M  V30 5122 C 495.096 0.502885 -1.798 0
M  V30 5123 C 495.447 1.71892 -0.945921 0
M  V30 5124 O 494.572 2.15822 -0.157991 0
M  V30 5125 C 495.167 0.919097 -3.26095 0
M  V30 5126 C 493.726 1.40216 -3.49308 0
M  V30 5127 C 492.873 0.369709 -2.74824 0
M  V30 5128 H 495.824 -0.261102 -1.56537 0
M  V30 5129 H 495.845 1.78308 -3.36135 0
M  V30 5130 H 495.357 0.0338526 -3.88085 0
M  V30 5131 H 493.458 2.30714 -2.92578 0
M  V30 5132 H 493.571 1.40541 -4.58023 0
M  V30 5133 H 491.935 0.839113 -2.40481 0
M  V30 5134 H 492.718 -0.507173 -3.39533 0
M  V30 5135 N 495.163 1.55791 0.238111 0
M  V30 5136 C 496.412 1.77234 0.962868 0
M  V30 5137 C 496.725 0.600661 1.86149 0
M  V30 5138 O 497.931 0.698315 2.62366 0
M  V30 5139 C 496.387 3.13808 1.76218 0
M  V30 5140 C 495.995 4.3865 0.910518 0
M  V30 5141 C 497.739 3.44585 2.47914 0
M  V30 5142 C 495.646 5.66252 1.70623 0
M  V30 5143 H 494.576 0.660731 0.36325 0
M  V30 5144 H 497.227 1.8221 0.217242 0
M  V30 5145 H 495.609 3.02963 2.55009 0
M  V30 5146 H 496.783 4.60507 0.164316 0
M  V30 5147 H 495.098 4.15271 0.30647 0
M  V30 5148 H 497.695 4.3714 3.07917 0
M  V30 5149 H 498.038 2.66314 3.19973 0
M  V30 5150 H 498.571 3.56685 1.76127 0
M  V30 5151 H 495.31 6.47369 1.02923 0
M  V30 5152 H 494.83 5.48483 2.42748 0
M  V30 5153 H 496.509 6.05829 2.27114 0
M  V30 5154 N 496.642 -0.504142 1.49319 0
M  V30 5155 C 497.572 -1.61473 1.68667 0
M  V30 5156 C 498.553 -1.61455 0.535378 0
M  V30 5157 O 499.738 -1.78245 0.770868 0
M  V30 5158 C 496.868 -2.99971 1.75028 0
M  V30 5159 C 495.822 -3.14854 2.89916 0
M  V30 5160 C 495.148 -4.54671 2.81387 0
M  V30 5161 C 496.448 -2.95176 4.30893 0
M  V30 5162 H 498.142 -1.45535 2.61648 0
M  V30 5163 H 495.688 -0.698711 1.25913 0
M  V30 5164 H 497.641 -3.77562 1.8715 0
M  V30 5165 H 496.365 -3.1699 0.786441 0
M  V30 5166 H 495.024 -2.39687 2.77391 0
M  V30 5167 H 494.672 -4.68562 1.82917 0
M  V30 5168 H 494.372 -4.6557 3.58494 0
M  V30 5169 H 495.896 -5.34327 2.95512 0
M  V30 5170 H 497.31 -3.62538 4.44116 0
M  V30 5171 H 495.707 -3.17549 5.09198 0
M  V30 5172 H 496.777 -1.91332 4.45556 0
M  V30 5173 N 498.12 -1.38341 -0.754957 0
M  V30 5174 C 499.068 -1.35573 -1.89005 0
M  V30 5175 C 500.062 -0.241824 -1.67665 0
M  V30 5176 O 501.268 -0.410785 -1.7525 0
M  V30 5177 H 497.643 -0.422898 -0.621821 0
M  V30 5178 H 499.614 -2.31359 -1.88455 0
M  V30 5179 C 498.363 -1.19631 -3.26471 0
M  V30 5180 H 497.686 -2.04605 -3.43477 0
M  V30 5181 H 499.126 -1.21748 -4.06144 0
M  V30 5182 C 497.585 0.0968705 -3.36761 0
M  V30 5183 O 498.115 1.07439 -3.87066 0
M  V30 5184 N 496.321 0.153242 -2.90196 0
M  V30 5185 H 495.868 -0.642908 -2.49448 0
M  V30 5186 H 495.826 1.01807 -2.9746 0
M  V30 5187 N 499.598 0.982988 -1.23187 0
M  V30 5188 C 500.531 2.07302 -0.953993 0
M  V30 5189 C 501.509 1.62249 0.106753 0
M  V30 5190 O 502.693 1.88481 -0.0269525 0
M  V30 5191 C 499.82 3.35873 -0.436716 0
M  V30 5192 C 498.866 3.99862 -1.48367 0
M  V30 5193 S 499.699 4.39443 -3.06023 0
M  V30 5194 C 500.855 5.7117 -2.55959 0
M  V30 5195 H 501.088 2.30554 -1.87702 0
M  V30 5196 H 498.621 1.11883 -1.06403 0
M  V30 5197 H 500.579 4.10244 -0.144872 0
M  V30 5198 H 499.24 3.10634 0.465351 0
M  V30 5199 H 498.433 4.92471 -1.07182 0
M  V30 5200 H 498.035 3.31857 -1.72473 0
M  V30 5201 H 500.327 6.47977 -1.97818 0
M  V30 5202 H 501.27 6.17194 -3.47098 0
M  V30 5203 H 501.678 5.29046 -1.96902 0
M  V30 5204 N 501.076 1.04316 1.18135 0
M  V30 5205 C 501.986 0.646876 2.25505 0
M  V30 5206 C 503.002 -0.328008 1.7088 0
M  V30 5207 O 504.178 -0.182309 2.00573 0
M  V30 5208 C 501.243 0.0185664 3.46695 0
M  V30 5209 C 500.304 1.04277 4.16443 0
M  V30 5210 C 499.537 0.444352 5.31847 0
M  V30 5211 O 499.76 -0.748735 5.65465 0
M  V30 5212 O 498.694 1.17428 5.90334 0
M  V30 5213 H 502.52 1.54147 2.61672 0
M  V30 5214 H 500.105 0.814188 1.25265 0
M  V30 5215 H 501.987 -0.331068 4.20097 0
M  V30 5216 H 500.662 -0.849814 3.12346 0
M  V30 5217 H 499.569 1.44425 3.45098 0
M  V30 5218 H 500.902 1.882 4.54798 0
M  V30 5219 N 502.554 -1.34406 0.822964 0
M  V30 5220 C 503.802 -1.97892 0.410245 0
M  V30 5221 C 504.123 -1.65567 -1.03017 0
M  V30 5222 O 503.393 -0.94642 -1.71522 0
M  V30 5223 H 501.973 -0.732049 0.148707 0
M  V30 5224 H 504.635 -1.64043 1.05242 0
M  V30 5225 H 503.731 -3.07579 0.529284 0
M  V30 5226 N 504.032 -0.577932 -1.46621 0
M  V30 5227 C 505.26 -0.0671642 -2.06791 0
M  V30 5228 C 505.675 1.23571 -1.42743 0
M  V30 5229 O 505.032 1.74602 -0.531062 0
M  V30 5230 C 505.083 0.110357 -3.61332 0
M  V30 5231 O 504.804 -1.14095 -4.22982 0
M  V30 5232 C 506.305 0.656025 -4.38419 0
M  V30 5233 H 503.525 -0.0552732 -0.66872 0
M  V30 5234 H 506.069 -0.797242 -1.8832 0
M  V30 5235 H 504.224 0.790637 -3.79246 0
M  V30 5236 H 504.638 -0.951742 -5.15793 0
M  V30 5237 H 506.112 0.729438 -5.47159 0
M  V30 5238 H 506.589 1.67195 -4.06131 0
M  V30 5239 H 507.195 0.0107692 -4.25299 0
M  V30 5240 N 505.51 1.54411 -0.315457 0
M  V30 5241 C 506.457 2.24048 0.554166 0
M  V30 5242 C 507.427 1.2283 1.11812 0
M  V30 5243 O 508.612 1.51491 1.15997 0
M  V30 5244 C 505.752 2.99574 1.71316 0
M  V30 5245 C 504.865 4.15594 1.17922 0
M  V30 5246 C 504 4.78669 2.30324 0
M  V30 5247 C 503.039 5.86807 1.74137 0
M  V30 5248 N 502.176 6.43777 2.8017 0
M  V30 5249 H 507.016 2.97964 -0.0462602 0
M  V30 5250 H 504.553 1.47059 -0.0346009 0
M  V30 5251 H 506.511 3.41604 2.39505 0
M  V30 5252 H 505.141 2.28008 2.285 0
M  V30 5253 H 504.193 3.78404 0.389136 0
M  V30 5254 H 505.505 4.93459 0.728012 0
M  V30 5255 H 504.659 5.23626 3.06433 0
M  V30 5256 H 503.398 4.00168 2.78778 0
M  V30 5257 H 502.403 5.41261 0.965236 0
M  V30 5258 H 503.628 6.67201 1.2657 0
M  V30 5259 H 501.574 5.68153 3.2793 0
M  V30 5260 H 501.491 7.17031 2.39588 0
M  V30 5261 H 502.759 6.9339 3.56132 0
M  V30 5262 N 506.988 0.0434614 1.5754 0
M  V30 5263 C 508.237 -0.631454 1.91561 0
M  V30 5264 C 508.55 -1.72457 0.92292 0
M  V30 5265 O 509.756 -2.45712 1.15489 0
M  V30 5266 C 508.212 -1.17447 3.40197 0
M  V30 5267 C 507.82 -0.113867 4.47855 0
M  V30 5268 C 509.564 -1.82507 3.83264 0
M  V30 5269 C 507.471 -0.669326 5.876 0
M  V30 5270 H 506.401 -0.239629 0.714908 0
M  V30 5271 H 509.052 0.111097 1.83163 0
M  V30 5272 H 507.434 -1.96909 3.43574 0
M  V30 5273 H 508.608 0.659348 4.56058 0
M  V30 5274 H 506.923 0.438821 4.14081 0
M  V30 5275 H 509.52 -2.25047 4.85034 0
M  V30 5276 H 509.863 -2.67365 3.19095 0
M  V30 5277 H 510.396 -1.09712 3.82372 0
M  V30 5278 H 507.135 0.141449 6.55347 0
M  V30 5279 H 506.655 -1.4107 5.82974 0
M  V30 5280 H 508.334 -1.15463 6.36614 0
M  V30 5281 N 508.466 -1.55915 -0.229846 0
M  V30 5282 C 509.714 -1.7819 -0.953565 0
M  V30 5283 C 510.035 -0.610504 -1.85197 0
M  V30 5284 O 509.305 0.372988 -1.92316 0
M  V30 5285 H 507.885 -0.657208 -0.355087 0
M  V30 5286 H 510.547 -1.9337 -0.243693 0
M  V30 5287 H 509.643 -2.70011 -1.56527 0
M  V30 5288 N 509.944 0.496216 -1.49584 0
M  V30 5289 C 511.172 1.27394 -1.63029 0
M  V30 5290 C 511.587 1.86344 -0.303569 0
M  V30 5291 O 510.944 1.68057 0.711547 0
M  V30 5292 C 510.995 2.40077 -2.70269 0
M  V30 5293 O 510.716 1.83549 -3.97796 0
M  V30 5294 C 512.217 3.31372 -2.94462 0
M  V30 5295 H 509.437 0.386211 -0.54871 0
M  V30 5296 H 511.981 0.595163 -1.95648 0
M  V30 5297 H 510.136 3.03775 -2.40415 0
M  V30 5298 H 510.55 2.57561 -4.56905 0
M  V30 5299 H 512.024 4.06707 -3.73221 0
M  V30 5300 H 512.501 3.88654 -2.0456 0
M  V30 5301 H 513.107 2.73435 -3.25751 0
M  V30 5302 N 511.423 1.38739 0.74761 0
M  V30 5303 C 512.669 1.35475 1.50912 0
M  V30 5304 C 513.002 -0.0533093 1.94127 0
M  V30 5305 O 512.277 -1.01572 1.65871 0
M  V30 5306 C 512.56 2.31582 2.75757 0
M  V30 5307 C 512.413 3.81274 2.38642 0
M  V30 5308 C 513.732 2.25722 3.77806 0
M  V30 5309 H 510.851 0.493427 0.547447 0
M  V30 5310 H 513.493 1.69634 0.855823 0
M  V30 5311 H 511.643 2.02582 3.31501 0
M  V30 5312 H 513.315 4.20972 1.88626 0
M  V30 5313 H 511.558 3.98664 1.71025 0
M  V30 5314 H 512.229 4.4399 3.27989 0
M  V30 5315 H 514.705 2.51336 3.31616 0
M  V30 5316 H 513.581 2.95069 4.62845 0
M  V30 5317 H 513.842 1.25803 4.23823 0
M  V30 5318 N 512.901 -0.976442 1.23707 0
M  V30 5319 C 514.129 -1.75341 1.09833 0
M  V30 5320 C 514.544 -1.8553 -0.349885 0
M  V30 5321 O 513.901 -1.33732 -1.24185 0
M  V30 5322 C 513.952 -3.17833 1.72233 0
M  V30 5323 O 513.673 -3.08167 3.11391 0
M  V30 5324 C 515.174 -4.11906 1.63853 0
M  V30 5325 H 512.394 -0.550137 0.384175 0
M  V30 5326 H 514.938 -1.2265 1.63638 0
M  V30 5327 H 513.093 -3.67538 1.22452 0
M  V30 5328 H 513.507 -3.97897 3.41729 0
M  V30 5329 H 514.981 -5.09579 2.12211 0
M  V30 5330 H 515.458 -4.35109 0.598092 0
M  V30 5331 H 516.064 -3.68107 2.13019 0
M  V30 5332 N 514.379 -1.04941 -1.1758 0
M  V30 5333 C 515.604 -0.778253 -1.92245 0
M  V30 5334 C 516.029 0.659707 -1.76152 0
M  V30 5335 O 515.387 1.45803 -1.07755 0
M  V30 5336 C 515.435 -1.16051 -3.41416 0
M  V30 5337 O 514.539 -0.291153 -4.11371 0
M  V30 5338 H 513.88 -0.285619 -0.599431 0
M  V30 5339 H 516.41 -1.40159 -1.49052 0
M  V30 5340 H 516.42 -1.12619 -3.92149 0
M  V30 5341 H 515.095 -2.208 -3.52449 0
M  V30 5342 H 513.672 -0.385851 -3.70898 0
M  V30 5343 N 515.857 1.33968 -0.830081 0
M  V30 5344 C 517.105 1.97672 -0.420734 0
M  V30 5345 C 517.426 1.66111 1.02138 0
M  V30 5346 O 516.696 0.955503 1.71017 0
M  V30 5347 H 515.276 0.73125 -0.152587 0
M  V30 5348 H 517.938 1.63483 -1.0611 0
M  V30 5349 H 517.034 3.07294 -0.545588 0
M  V30 5350 N 517.335 0.585699 1.46312 0
M  V30 5351 C 518.575 0.0751432 2.04262 0
M  V30 5352 C 518.939 -1.26201 1.44697 0
M  V30 5353 O 520.14 -1.86198 1.93865 0
M  V30 5354 C 518.411 0.013478 3.57397 0
M  V30 5355 S 519.97 -0.439068 4.36598 0
M  V30 5356 H 516.788 0.0389228 0.709934 0
M  V30 5357 H 519.39 0.778871 1.79315 0
M  V30 5358 H 518.094 0.990558 3.98266 0
M  V30 5359 H 517.625 -0.712927 3.86886 0
M  V30 5360 H 519.64 -1.6932 4.66417 0
M  V30 5361 N 518.813 -1.54241 0.323641 0
M  V30 5362 C 520.224 -1.85975 -0.164405 0
M  V30 5363 C 520.575 -1.24529 -1.51615 0
M  V30 5364 O 519.7 -0.551351 -2.09258 0
M  V30 5365 C 520.295 -3.37424 -0.305091 0
M  V30 5366 C 518.854 -3.69107 -0.737358 0
M  V30 5367 C 518.001 -2.76942 0.140884 0
M  V30 5368 H 520.952 -1.49088 0.543922 0
M  V30 5369 H 520.973 -3.63147 -1.13598 0
M  V30 5370 H 520.485 -3.82116 0.678876 0
M  V30 5371 H 518.586 -3.29947 -1.73107 0
M  V30 5372 H 518.699 -4.76035 -0.541053 0
M  V30 5373 H 517.063 -2.51795 -0.383572 0
M  V30 5374 H 517.846 -3.24461 1.12162 0
M  V30 5375 N 520.291 -0.0518155 -1.57515 0
M  V30 5376 C 521.516 0.634896 -1.97443 0
M  V30 5377 C 521.941 1.63546 -0.929207 0
M  V30 5378 O 521.299 1.80981 0.107484 0
M  V30 5379 C 521.347 1.29765 -3.36442 0
M  V30 5380 O 520.451 2.41333 -3.34413 0
M  V30 5381 H 519.792 0.164994 -0.643174 0
M  V30 5382 H 522.322 -0.120407 -2.04245 0
M  V30 5383 H 522.332 1.64918 -3.73184 0
M  V30 5384 H 521.007 0.564361 -4.12053 0
M  V30 5385 H 519.584 2.08122 -3.09418 0
M  V30 5386 N 521.769 1.56035 0.221574 0
M  V30 5387 C 523.18 1.69229 0.788567 0
M  V30 5388 C 523.531 0.653814 1.84986 0
M  V30 5389 O 522.656 -0.195065 2.15519 0
M  V30 5390 C 523.251 3.06809 1.43713 0
M  V30 5391 C 521.81 3.21858 1.95152 0
M  V30 5392 C 520.957 2.65155 0.811685 0
M  V30 5393 H 523.908 1.587 -0.00307894 0
M  V30 5394 H 523.929 3.02666 2.30594 0
M  V30 5395 H 523.441 3.82369 0.664475 0
M  V30 5396 H 521.542 2.51167 2.7522 0
M  V30 5397 H 521.655 4.29073 2.1315 0
M  V30 5398 H 520.019 2.23635 1.21899 0
M  V30 5399 H 520.802 3.43261 0.0516987 0
M  V30 5400 N 523.247 -0.488276 1.49845 0
M  V30 5401 C 524.472 -1.26997 1.63971 0
M  V30 5402 C 524.897 -1.85427 0.315994 0
M  V30 5403 O 524.255 -1.66475 -0.718032 0
M  V30 5404 C 524.303 -2.36689 2.72049 0
M  V30 5405 O 523.407 -3.40882 2.32107 0
M  V30 5406 H 522.748 -0.374376 0.548396 0
M  V30 5407 H 525.278 -0.583104 1.96115 0
M  V30 5408 H 525.288 -2.82262 2.94605 0
M  V30 5409 H 523.963 -1.93529 3.68129 0
M  V30 5410 H 522.54 -3.01139 2.19931 0
M  V30 5411 N 524.725 -1.39134 -0.740242 0
M  V30 5412 C 525.655 -1.40165 -1.86751 0
M  V30 5413 C 526.636 -0.265708 -1.68012 0
M  V30 5414 O 527.821 -0.47076 -1.88408 0
M  V30 5415 C 524.951 -1.2392 -3.2444 0
M  V30 5416 C 523.905 -2.34858 -3.57807 0
M  V30 5417 C 523.231 -2.03707 -4.94376 0
M  V30 5418 C 524.531 -3.77159 -3.61315 0
M  V30 5419 H 526.225 -2.345 -1.86145 0
M  V30 5420 H 523.771 -1.12875 -0.89416 0
M  V30 5421 H 525.724 -1.23263 -4.02969 0
M  V30 5422 H 524.448 -0.26051 -3.25559 0
M  V30 5423 H 523.107 -2.34723 -2.81604 0
M  V30 5424 H 522.755 -1.04289 -4.9207 0
M  V30 5425 H 522.455 -2.78016 -5.17669 0
M  V30 5426 H 523.979 -2.04691 -5.75268 0
M  V30 5427 H 525.393 -3.79252 -4.29931 0
M  V30 5428 H 523.79 -4.50784 -3.96124 0
M  V30 5429 H 524.86 -4.08513 -2.61238 0
M  V30 5430 N 526.204 0.969867 -1.24223 0
M  V30 5431 C 527.151 2.06407 -1.0327 0
M  V30 5432 C 528.121 1.66014 0.0533 0
M  V30 5433 O 529.306 1.90533 -0.100896 0
M  V30 5434 C 526.446 3.3909 -0.641262 0
M  V30 5435 C 525.559 3.9269 -1.80051 0
M  V30 5436 C 524.694 5.13631 -1.35486 0
M  V30 5437 C 523.733 5.59423 -2.48419 0
M  V30 5438 N 522.87 6.71586 -2.04737 0
M  V30 5439 H 527.71 2.23663 -1.96923 0
M  V30 5440 H 525.247 1.09624 -0.980862 0
M  V30 5441 H 527.205 4.15323 -0.395351 0
M  V30 5442 H 525.835 3.21765 0.258269 0
M  V30 5443 H 524.887 3.13116 -2.16014 0
M  V30 5444 H 526.199 4.22636 -2.64916 0
M  V30 5445 H 525.353 5.97231 -1.0677 0
M  V30 5446 H 524.092 4.85364 -0.476722 0
M  V30 5447 H 523.097 4.74398 -2.77897 0
M  V30 5448 H 524.322 5.89705 -3.36786 0
M  V30 5449 H 522.268 6.45058 -1.19318 0
M  V30 5450 H 522.185 7.0097 -2.83156 0
M  V30 5451 H 523.453 7.58633 -1.79154 0
M  V30 5452 N 527.682 1.05563 1.17022 0
M  V30 5453 C 528.629 0.659893 2.21165 0
M  V30 5454 C 529.599 -0.339813 1.62587 0
M  V30 5455 O 530.784 -0.230378 1.89404 0
M  V30 5456 C 527.924 0.0447297 3.45071 0
M  V30 5457 C 527.037 1.09372 4.17926 0
M  V30 5458 C 526.172 0.445481 5.29329 0
M  V30 5459 C 525.211 1.47852 5.93975 0
M  V30 5460 N 524.348 0.854172 6.96885 0
M  V30 5461 H 529.188 1.55243 2.54369 0
M  V30 5462 H 526.725 0.776336 1.24946 0
M  V30 5463 H 528.683 -0.329404 4.15898 0
M  V30 5464 H 527.313 -0.811244 3.1244 0
M  V30 5465 H 526.365 1.58564 3.45777 0
M  V30 5466 H 527.677 1.87773 4.62107 0
M  V30 5467 H 526.831 0.0179688 6.06697 0
M  V30 5468 H 525.57 -0.370481 4.86291 0
M  V30 5469 H 524.575 1.91601 5.15334 0
M  V30 5470 H 525.8 2.29645 6.39093 0
M  V30 5471 H 523.746 0.0587882 6.55974 0
M  V30 5472 H 523.663 1.57567 7.39397 0
M  V30 5473 H 524.931 0.451559 7.78191 0
M  V30 5474 N 529.16 -1.33526 0.837174 0
M  V30 5475 C 530.108 -2.31168 0.257698 0
M  V30 5476 C 531.102 -1.5806 -0.609388 0
M  V30 5477 O 532.308 -1.72941 -0.499139 0
M  V30 5478 H 528.683 -0.74922 0.0646058 0
M  V30 5479 H 530.654 -2.77552 1.09578 0
M  V30 5480 C 529.403 -3.4326 -0.553887 0
M  V30 5481 H 528.726 -3.99665 0.104008 0
M  V30 5482 H 530.166 -4.13782 -0.925219 0
M  V30 5483 C 528.625 -2.88965 -1.73207 0
M  V30 5484 O 529.155 -2.85013 -2.83073 0
M  V30 5485 N 527.361 -2.45596 -1.55342 0
M  V30 5486 H 526.908 -2.49009 -0.659705 0
M  V30 5487 H 526.866 -2.0962 -2.34322 0
M  V30 5488 N 530.638 -0.59345 -1.46 0
M  V30 5489 C 531.884 -0.0832754 -2.02629 0
M  V30 5490 C 532.217 1.27749 -1.46266 0
M  V30 5491 O 531.492 1.8395 -0.631866 0
M  V30 5492 C 531.775 -0.0290756 -3.60088 0
M  V30 5493 C 531.628 -1.41951 -4.26814 0
M  V30 5494 C 532.947 0.666055 -4.35031 0
M  V30 5495 H 530.066 -0.031736 -0.736316 0
M  V30 5496 H 532.708 -0.762711 -1.74019 0
M  V30 5497 H 530.858 0.549532 -3.84594 0
M  V30 5498 H 532.53 -2.04411 -4.13538 0
M  V30 5499 H 530.773 -1.98422 -3.8576 0
M  V30 5500 H 531.444 -1.33395 -5.3564 0
M  V30 5501 H 533.92 0.174401 -4.15734 0
M  V30 5502 H 532.796 0.673041 -5.44758 0
M  V30 5503 H 533.057 1.72946 -4.06869 0
M  V30 5504 N 532.116 1.54067 -0.331816 0
M  V30 5505 C 533.079 2.23275 0.517768 0
M  V30 5506 C 534.079 1.22897 1.03697 0
M  V30 5507 O 535.269 1.47419 0.928084 0
M  V30 5508 C 532.401 2.94326 1.72004 0
M  V30 5509 H 533.594 2.99773 -0.0873507 0
M  V30 5510 H 531.147 1.56079 -0.0830042 0
M  V30 5511 H 531.882 2.21986 2.36417 0
M  V30 5512 H 531.667 3.67941 1.35507 0
M  V30 5513 H 533.157 3.47031 2.32291 0
M  V30 5514 N 533.594 0.0601682 1.57485 0
M  V30 5515 C 534.527 -0.94676 2.07634 0
M  V30 5516 C 535.505 -1.29837 0.978826 0
M  V30 5517 O 536.689 -1.40969 1.2514 0
M  V30 5518 C 533.816 -2.25822 2.52433 0
M  V30 5519 C 532.862 -2.05901 3.73507 0
M  V30 5520 S 533.695 -1.32907 5.18745 0
M  V30 5521 C 534.851 -2.65356 5.66866 0
M  V30 5522 H 535.084 -0.520003 2.92717 0
M  V30 5523 H 532.617 -0.152319 1.53647 0
M  V30 5524 H 534.575 -3.01201 2.78905 0
M  V30 5525 H 533.236 -2.65624 1.67639 0
M  V30 5526 H 532.429 -3.02929 4.02803 0
M  V30 5527 H 532.031 -1.38659 3.47347 0
M  V30 5528 H 534.323 -3.61492 5.73001 0
M  V30 5529 H 535.266 -2.40685 6.6594 0
M  V30 5530 H 535.674 -2.72028 4.94632 0
M  V30 5531 N 535.072 -1.5615 -0.213296 0
M  V30 5532 C 536.32 -1.79191 -0.934612 0
M  V30 5533 C 536.641 -0.630112 -1.84539 0
M  V30 5534 O 535.911 0.35257 -1.92701 0
M  V30 5535 H 534.491 -0.660937 -0.348097 0
M  V30 5536 H 537.153 -1.93618 -0.22317 0
M  V30 5537 H 536.249 -2.71656 -1.53654 0
M  V30 5538 N 536.55 0.480323 -1.50102 0
M  V30 5539 C 537.78 1.25475 -1.64133 0
M  V30 5540 C 538.188 1.8647 -0.320272 0
M  V30 5541 O 537.531 1.69561 0.70673 0
M  V30 5542 C 537.593 2.40996 -2.6676 0
M  V30 5543 C 537.257 2.00711 -4.10565 0
M  V30 5544 C 538.254 1.53492 -4.96725 0
M  V30 5545 C 535.939 2.09714 -4.56427 0
M  V30 5546 C 537.933 1.15806 -6.26792 0
M  V30 5547 C 535.62 1.7164 -5.86501 0
M  V30 5548 C 536.618 1.24763 -6.71508 0
M  V30 5549 O 536.306 0.872122 -7.99155 0
M  V30 5550 H 536.038 0.385983 -0.554971 0
M  V30 5551 H 538.592 0.580848 -1.97016 0
M  V30 5552 H 536.822 3.11528 -2.291 0
M  V30 5553 H 538.511 3.02981 -2.70106 0
M  V30 5554 H 539.277 1.45966 -4.62514 0
M  V30 5555 H 535.156 2.4515 -3.90413 0
M  V30 5556 H 538.7 0.791465 -6.93096 0
M  V30 5557 H 534.597 1.78822 -6.20236 0
M  V30 5558 H 535.365 1.00178 -8.12346 0
M  V30 5559 N 538.028 1.39524 0.732853 0
M  V30 5560 C 539.274 1.37068 1.49467 0
M  V30 5561 C 539.607 -0.0327166 1.94172 0
M  V30 5562 O 538.882 -0.998071 1.66939 0
M  V30 5563 C 539.165 2.34494 2.73285 0
M  V30 5564 C 539.018 3.83784 2.34585 0
M  V30 5565 C 540.337 2.29717 3.75391 0
M  V30 5566 H 537.456 0.499206 0.542183 0
M  V30 5567 H 540.098 1.70532 0.837783 0
M  V30 5568 H 538.248 2.06087 3.29333 0
M  V30 5569 H 539.92 4.22949 1.84151 0
M  V30 5570 H 538.163 4.00455 1.66787 0
M  V30 5571 H 538.834 4.47444 3.23262 0
M  V30 5572 H 541.31 2.54839 3.28932 0
M  V30 5573 H 540.186 2.99962 4.59689 0
M  V30 5574 H 540.447 1.30291 4.22465 0
M  V30 5575 N 539.506 -0.963266 1.24736 0
M  V30 5576 C 540.917 -1.52145 1.08207 0
M  V30 5577 C 541.268 -1.93142 -0.345061 0
M  V30 5578 O 540.393 -1.77769 -1.23399 0
M  V30 5579 C 540.988 -2.76486 1.95808 0
M  V30 5580 C 539.547 -3.28646 1.8349 0
M  V30 5581 C 538.694 -2.01529 1.90476 0
M  V30 5582 H 541.645 -0.781083 1.38148 0
M  V30 5583 H 541.666 -3.49986 1.49297 0
M  V30 5584 H 541.178 -2.46617 2.99669 0
M  V30 5585 H 539.279 -3.63357 0.824787 0
M  V30 5586 H 539.392 -3.97246 2.67829 0
M  V30 5587 H 537.756 -2.16442 1.34258 0
M  V30 5588 H 538.539 -1.7402 2.95926 0
M  V30 5589 N 540.985 -1.06182 -1.16461 0
M  V30 5590 C 542.225 -0.787048 -1.8864 0
M  V30 5591 C 542.589 0.674093 -1.79778 0
M  V30 5592 O 543.79 1.06341 -2.46871 0
M  V30 5593 C 542.061 -1.2666 -3.34203 0
M  V30 5594 S 543.62 -1.12071 -4.24247 0
M  V30 5595 H 540.438 -0.285539 -0.651144 0
M  V30 5596 H 543.04 -1.35851 -1.40587 0
M  V30 5597 H 541.744 -2.32496 -3.38192 0
M  V30 5598 H 541.275 -0.689841 -3.87304 0
M  V30 5599 H 543.29 -0.0509341 -4.96174 0
M  V30 5600 N 542.463 1.3308 -0.844243 0
M  V30 5601 C 543.373 2.32876 -0.283922 0
M  V30 5602 C 544.389 1.63589 0.592846 0
M  V30 5603 O 545.565 1.95205 0.495693 0
M  V30 5604 C 542.63 3.42667 0.527283 0
M  V30 5605 C 541.691 4.27664 -0.374394 0
M  V30 5606 C 540.924 5.32212 0.39819 0
M  V30 5607 O 541.147 5.46635 1.62932 0
M  V30 5608 O 540.081 6.01458 -0.2306 0
M  V30 5609 H 543.907 2.82671 -1.11045 0
M  V30 5610 H 541.492 1.36518 -0.606903 0
M  V30 5611 H 543.374 4.09652 0.988078 0
M  V30 5612 H 542.049 2.95079 1.33078 0
M  V30 5613 H 540.956 3.63526 -0.883144 0
M  V30 5614 H 542.289 4.78749 -1.1428 0
M  V30 5615 N 543.941 0.601185 1.45683 0
M  V30 5616 C 545.171 0.0999093 2.06358 0
M  V30 5617 C 545.579 -1.21831 1.44754 0
M  V30 5618 O 544.922 -1.75157 0.553695 0
M  V30 5619 C 544.984 -0.12085 3.59297 0
M  V30 5620 C 544.648 1.11459 4.432 0
M  V30 5621 C 545.645 2.03118 4.7858 0
M  V30 5622 C 543.33 1.34162 4.84051 0
M  V30 5623 C 545.324 3.15814 5.53661 0
M  V30 5624 C 543.011 2.4716 5.58888 0
M  V30 5625 C 544.009 3.37814 5.93608 0
M  V30 5626 O 543.697 4.48846 6.66928 0
M  V30 5627 H 543.429 0.0630316 0.673055 0
M  V30 5628 H 545.983 0.826982 1.88016 0
M  V30 5629 H 544.213 -0.902744 3.76015 0
M  V30 5630 H 545.902 -0.572925 4.01836 0
M  V30 5631 H 546.668 1.86801 4.47583 0
M  V30 5632 H 542.547 0.645018 4.56465 0
M  V30 5633 H 546.091 3.86596 5.8068 0
M  V30 5634 H 541.988 2.63432 5.89299 0
M  V30 5635 H 542.756 4.47446 6.85371 0
M  V30 5636 N 545.419 -1.53889 0.339982 0
M  V30 5637 C 546.644 -2.05741 -0.261798 0
M  V30 5638 C 547.069 -1.21354 -1.43718 0
M  V30 5639 O 546.427 -0.22645 -1.7988 0
M  V30 5640 C 546.475 -3.54542 -0.658228 0
M  V30 5641 O 545.579 -3.7302 -1.75869 0
M  V30 5642 H 544.92 -0.662529 -0.0441672 0
M  V30 5643 H 547.45 -1.98568 0.493161 0
M  V30 5644 H 547.46 -3.9711 -0.936368 0
M  V30 5645 H 546.135 -4.15412 0.201358 0
M  V30 5646 H 544.712 -3.42355 -1.47809 0
M  V30 5647 N 546.897 -0.0685191 -1.57451 0
M  V30 5648 C 548.313 0.288101 -1.56978 0
M  V30 5649 C 548.513 1.70262 -1.07765 0
M  V30 5650 O 547.569 2.4135 -0.742054 0
M  V30 5651 C 548.882 0.100745 -3.00531 0
M  V30 5652 C 550.43 0.170531 -3.12535 0
M  V30 5653 C 550.905 0.0114944 -4.57999 0
M  V30 5654 N 552.396 0.0672065 -4.63151 0
M  V30 5655 C 553.131 -0.0314813 -5.73391 0
M  V30 5656 N 552.627 -0.183503 -6.92557 0
M  V30 5657 N 554.42 0.0253489 -5.62094 0
M  V30 5658 H 546.571 -0.993026 -1.87757 0
M  V30 5659 H 548.834 -0.386981 -0.865419 0
M  V30 5660 H 548.54 -0.875197 -3.40636 0
M  V30 5661 H 548.414 0.854457 -3.67395 0
M  V30 5662 H 550.801 1.13696 -2.72318 0
M  V30 5663 H 550.882 -0.614229 -2.48316 0
M  V30 5664 H 550.526 -0.951684 -4.98904 0
M  V30 5665 H 550.456 0.815617 -5.20245 0
M  V30 5666 H 552.947 0.183246 -3.77455 0
M  V30 5667 H 553.26 -0.251041 -7.72392 0
M  V30 5668 H 551.605 -0.218822 -6.94655 0
M  V30 5669 H 554.796 0.142794 -4.67882 0
M  V30 5670 H 554.969 -0.0550166 -6.47977 0
M  V30 5671 N 548.375 1.56261 0.205012 0
M  V30 5672 C 549.786 1.70056 0.770574 0
M  V30 5673 C 550.137 0.673398 1.84282 0
M  V30 5674 O 549.262 -0.172196 2.15714 0
M  V30 5675 C 549.857 3.08316 1.40451 0
M  V30 5676 C 548.416 3.2391 1.91727 0
M  V30 5677 C 547.563 2.66001 0.783516 0
M  V30 5678 H 550.514 1.58688 -0.019911 0
M  V30 5679 H 550.535 3.05094 2.27371 0
M  V30 5680 H 550.047 3.83053 0.623882 0
M  V30 5681 H 548.148 2.54072 2.7254 0
M  V30 5682 H 548.261 4.3131 2.08588 0
M  V30 5683 H 546.625 2.24915 1.19521 0
M  V30 5684 H 547.408 3.43297 0.0152883 0
M  V30 5685 N 549.853 -0.472356 1.50355 0
M  V30 5686 C 551.101 -1.22211 1.60962 0
M  V30 5687 C 551.422 -1.92497 0.311439 0
M  V30 5688 O 550.692 -1.8405 -0.671002 0
M  V30 5689 H 549.272 -0.454092 0.593135 0
M  V30 5690 H 551.934 -0.544977 1.87126 0
M  V30 5691 H 551.03 -1.9707 2.42012 0
M  V30 5692 N 551.331 -1.39911 -0.725443 0
M  V30 5693 C 552.559 -1.40949 -1.51463 0
M  V30 5694 C 552.974 -0.0065242 -1.88799 0
M  V30 5695 O 552.331 0.967163 -1.54765 0
M  V30 5696 C 552.382 -2.29119 -2.79619 0
M  V30 5697 O 552.103 -3.63952 -2.43866 0
M  V30 5698 C 553.604 -2.38642 -3.73584 0
M  V30 5699 H 550.824 -0.481091 -0.467752 0
M  V30 5700 H 553.368 -1.83843 -0.895651 0
M  V30 5701 H 551.523 -1.89612 -3.37826 0
M  V30 5702 H 551.937 -4.10677 -3.26258 0
M  V30 5703 H 553.411 -3.04563 -4.60375 0
M  V30 5704 H 553.888 -1.40846 -4.16004 0
M  V30 5705 H 554.494 -2.78659 -3.21293 0
M  V30 5706 N 552.809 0.956637 -1.25245 0
M  V30 5707 C 553.742 2.05232 -0.99775 0
M  V30 5708 C 554.72 1.62439 0.0723137 0
M  V30 5709 O 555.904 1.88381 -0.066926 0
M  V30 5710 C 553.031 3.34871 -0.507861 0
M  V30 5711 C 552.077 3.96625 -1.56815 0
M  V30 5712 S 552.91 4.32853 -3.15276 0
M  V30 5713 C 554.066 5.65613 -2.68017 0
M  V30 5714 H 554.299 2.26521 -1.9255 0
M  V30 5715 H 551.832 1.09601 -1.08752 0
M  V30 5716 H 553.79 4.09845 -0.231858 0
M  V30 5717 H 552.451 3.11551 0.399356 0
M  V30 5718 H 551.644 4.90087 -1.17604 0
M  V30 5719 H 551.246 3.28124 -1.79473 0
M  V30 5720 H 553.538 6.43635 -2.11518 0
M  V30 5721 H 554.481 6.09693 -3.60112 0
M  V30 5722 H 554.889 5.24751 -2.0808 0
M  V30 5723 N 554.287 1.06798 1.15896 0
M  V30 5724 C 555.217 0.704677 2.22613 0
M  V30 5725 C 556.198 -0.305252 1.67339 0
M  V30 5726 O 557.383 -0.179247 1.93371 0
M  V30 5727 C 554.513 0.0957325 3.47168 0
M  V30 5728 C 553.467 1.0322 4.15367 0
M  V30 5729 C 552.793 0.286293 5.33933 0
M  V30 5730 C 554.093 2.36341 4.65768 0
M  V30 5731 H 555.787 1.59688 2.53259 0
M  V30 5732 H 553.333 0.769257 1.21731 0
M  V30 5733 H 555.286 -0.170333 4.21056 0
M  V30 5734 H 554.01 -0.831516 3.15838 0
M  V30 5735 H 552.669 1.28309 3.43413 0
M  V30 5736 H 552.317 -0.644237 4.98857 0
M  V30 5737 H 552.017 0.910436 5.80504 0
M  V30 5738 H 553.541 0.0278938 6.10594 0
M  V30 5739 H 554.955 2.1561 5.31211 0
M  V30 5740 H 553.352 2.94299 5.2298 0
M  V30 5741 H 554.422 2.99047 3.81705 0
M  V30 5742 N 555.766 -1.3263 0.851289 0
M  V30 5743 C 556.696 -2.31449 0.308771 0
M  V30 5744 C 557.677 -1.59531 -0.590255 0
M  V30 5745 O 558.862 -1.87351 -0.511205 0
M  V30 5746 C 555.992 -3.43586 -0.506548 0
M  V30 5747 C 554.946 -4.26963 0.297753 0
M  V30 5748 C 554.272 -5.30831 -0.642094 0
M  V30 5749 C 555.572 -4.99643 1.52166 0
M  V30 5750 H 557.266 -2.77074 1.13447 0
M  V30 5751 H 554.812 -1.33207 0.546971 0
M  V30 5752 H 556.765 -4.11754 -0.896474 0
M  V30 5753 H 555.489 -2.96681 -1.36558 0
M  V30 5754 H 554.148 -3.60437 0.669391 0
M  V30 5755 H 553.796 -4.8018 -1.49788 0
M  V30 5756 H 553.496 -5.87501 -0.107968 0
M  V30 5757 H 555.02 -6.01862 -1.02927 0
M  V30 5758 H 556.434 -5.6051 1.20421 0
M  V30 5759 H 554.831 -5.66022 1.99347 0
M  V30 5760 H 555.901 -4.27701 2.28474 0
M  V30 5761 N 557.244 -0.608902 -1.45362 0
M  V30 5762 C 558.49 -0.104762 -2.02529 0
M  V30 5763 C 558.823 1.26191 -1.47613 0
M  V30 5764 O 558.098 1.8327 -0.65134 0
M  V30 5765 C 558.381 -0.0672661 -3.60037 0
M  V30 5766 C 558.234 -1.4647 -4.25284 0
M  V30 5767 C 559.553 0.619877 -4.35713 0
M  V30 5768 H 556.672 -0.0395438 -0.735938 0
M  V30 5769 H 559.314 -0.781126 -1.73201 0
M  V30 5770 H 557.464 0.50871 -3.85155 0
M  V30 5771 H 559.136 -2.08785 -4.11347 0
M  V30 5772 H 557.379 -2.02502 -3.83634 0
M  V30 5773 H 558.05 -1.39069 -5.34195 0
M  V30 5774 H 560.526 0.130297 -4.15896 0
M  V30 5775 H 559.402 0.615224 -5.45441 0
M  V30 5776 H 559.663 1.68621 -4.0868 0
M  V30 5777 N 558.722 1.53707 -0.348139 0
M  V30 5778 C 559.632 2.28881 0.514857 0
M  V30 5779 C 560.648 1.34168 1.10793 0
M  V30 5780 O 561.824 1.6721 1.12262 0
M  V30 5781 C 558.889 3.05042 1.64774 0
M  V30 5782 C 557.95 4.15389 1.08398 0
M  V30 5783 C 557.183 4.87909 2.16287 0
M  V30 5784 O 557.406 4.60137 3.3709 0
M  V30 5785 O 556.34 5.74254 1.80323 0
M  V30 5786 H 560.166 3.03547 -0.0963699 0
M  V30 5787 H 557.751 1.48972 -0.113043 0
M  V30 5788 H 559.633 3.52656 2.30677 0
M  V30 5789 H 558.308 2.33228 2.24469 0
M  V30 5790 H 557.215 3.72068 0.389341 0
M  V30 5791 H 558.548 4.89318 0.531829 0
M  V30 5792 N 560.2 0.0768682 1.57412 0
M  V30 5793 C 561.446 -0.591961 1.93968 0
M  V30 5794 C 561.779 -1.68954 0.9575 0
M  V30 5795 O 561.054 -1.94496 -0.0124675 0
M  V30 5796 C 561.337 -1.16418 3.40762 0
M  V30 5797 C 561.19 -0.0728933 4.49741 0
M  V30 5798 C 562.509 -2.06814 3.88479 0
M  V30 5799 H 559.628 -0.213716 0.705333 0
M  V30 5800 H 562.27 0.14387 1.89455 0
M  V30 5801 H 560.42 -1.79128 3.4474 0
M  V30 5802 H 562.092 0.560446 4.57883 0
M  V30 5803 H 560.335 0.595859 4.29688 0
M  V30 5804 H 561.006 -0.513755 5.49604 0
M  V30 5805 H 563.482 -1.54033 3.8654 0
M  V30 5806 H 562.358 -2.43785 4.91793 0
M  V30 5807 H 562.619 -2.97844 3.26713 0
M  V30 5808 N 561.678 -1.56367 -0.196722 0
M  V30 5809 C 563.094 -1.49916 -0.54749 0
M  V30 5810 C 563.294 -0.77659 -1.85934 0
M  V30 5811 O 562.35 -0.32644 -2.50381 0
M  V30 5812 C 563.663 -2.94577 -0.603734 0
M  V30 5813 C 565.211 -3.05239 -0.692677 0
M  V30 5814 C 565.686 -4.51308 -0.780046 0
M  V30 5815 N 567.177 -4.55453 -0.843616 0
M  V30 5816 C 567.912 -5.65786 -0.931358 0
M  V30 5817 N 567.408 -6.85812 -0.981503 0
M  V30 5818 N 569.201 -5.53695 -0.968421 0
M  V30 5819 H 561.352 -2.01761 0.663803 0
M  V30 5820 H 563.615 -0.918094 0.236238 0
M  V30 5821 H 563.321 -3.50494 0.29105 0
M  V30 5822 H 563.195 -3.47841 -1.45898 0
M  V30 5823 H 565.582 -2.49372 -1.57789 0
M  V30 5824 H 565.663 -2.55103 0.188736 0
M  V30 5825 H 565.307 -5.078 0.100811 0
M  V30 5826 H 565.237 -4.99176 -1.67724 0
M  V30 5827 H 567.728 -3.69025 -0.814176 0
M  V30 5828 H 568.041 -7.65648 -1.04892 0
M  V30 5829 H 566.386 -6.88474 -0.950208 0
M  V30 5830 H 569.577 -4.58848 -0.926072 0
M  V30 5831 H 569.75 -6.39708 -1.03334 0
M  V30 5832 N 563.156 0.464375 -1.50603 0
M  V30 5833 C 564.572 0.798684 -1.38178 0
M  V30 5834 C 564.772 1.96568 -0.44308 0
M  V30 5835 O 563.828 2.52252 0.111814 0
M  V30 5836 C 565.141 1.10444 -2.79683 0
M  V30 5837 C 566.689 1.2105 -2.88645 0
M  V30 5838 C 567.164 1.54934 -4.30998 0
M  V30 5839 N 568.655 1.61913 -4.3398 0
M  V30 5840 C 569.39 1.8965 -5.41129 0
M  V30 5841 N 568.886 2.15361 -6.58477 0
M  V30 5842 N 570.679 1.91207 -5.28579 0
M  V30 5843 H 562.83 -0.304603 -2.10204 0
M  V30 5844 H 565.093 -0.0737804 -0.945125 0
M  V30 5845 H 564.799 0.319934 -3.50242 0
M  V30 5846 H 564.673 2.03896 -3.17342 0
M  V30 5847 H 567.06 1.98567 -2.18301 0
M  V30 5848 H 567.141 0.255613 -2.5452 0
M  V30 5849 H 566.785 0.779549 -5.01882 0
M  V30 5850 H 566.715 2.51584 -4.62615 0
M  V30 5851 H 569.206 1.44055 -3.49366 0
M  V30 5852 H 569.519 2.35818 -7.35941 0
M  V30 5853 H 567.864 2.1274 -6.6164 0
M  V30 5854 H 571.055 1.70622 -4.35897 0
M  V30 5855 H 571.228 2.12488 -6.12171 0
M  V30 5856 N 564.634 1.40294 0.718013 0
M  V30 5857 C 565.581 1.40367 1.8321 0
M  V30 5858 C 566.551 0.260952 1.64037 0
M  V30 5859 O 567.736 0.458648 1.85205 0
M  V30 5860 C 564.876 1.26965 3.20895 0
M  V30 5861 C 563.989 2.50922 3.51656 0
M  V30 5862 C 563.124 2.29981 4.78834 0
M  V30 5863 C 562.163 3.49527 5.02491 0
M  V30 5864 N 561.3 3.27796 6.20882 0
M  V30 5865 H 566.14 2.35593 1.82482 0
M  V30 5866 H 563.677 1.17012 0.891444 0
M  V30 5867 H 565.635 1.17202 4.00399 0
M  V30 5868 H 564.265 0.353591 3.20858 0
M  V30 5869 H 563.317 2.71223 2.66725 0
M  V30 5870 H 564.629 3.39913 3.65048 0
M  V30 5871 H 563.783 2.17558 5.66351 0
M  V30 5872 H 562.522 1.38411 4.67647 0
M  V30 5873 H 561.527 3.6243 4.1343 0
M  V30 5874 H 562.752 4.42021 5.15553 0
M  V30 5875 H 560.698 2.38906 6.1095 0
M  V30 5876 H 560.615 4.10351 6.34939 0
M  V30 5877 H 561.883 3.19101 7.11193 0
M  V30 5878 N 566.112 -0.949982 1.2575 0
M  V30 5879 C 567.044 -2.05088 1.02331 0
M  V30 5880 C 568.057 -1.62795 -0.0133247 0
M  V30 5881 O 569.246 -1.77067 0.225759 0
M  V30 5882 C 566.346 -3.34794 0.525924 0
M  V30 5883 C 565.519 -4.05903 1.62978 0
M  V30 5884 C 564.578 -5.1388 1.13196 0
M  V30 5885 O 563.604 -5.39072 1.82729 0
M  V30 5886 N 564.806 -5.80495 -0.0242926 0
M  V30 5887 H 567.571 -2.25747 1.97125 0
M  V30 5888 H 565.132 -1.11886 1.17018 0
M  V30 5889 H 567.124 -4.04312 0.177263 0
M  V30 5890 H 565.694 -3.10872 -0.328202 0
M  V30 5891 H 564.914 -3.3042 2.1498 0
M  V30 5892 H 566.202 -4.50166 2.37124 0
M  V30 5893 H 565.6 -5.62454 -0.605184 0
M  V30 5894 H 564.157 -6.51043 -0.313947 0
M  V30 5895 N 567.59 -1.07411 -1.15328 0
M  V30 5896 C 568.522 -0.652924 -2.19703 0
M  V30 5897 C 569.535 0.294869 -1.60107 0
M  V30 5898 O 570.724 0.0840932 -1.78302 0
M  V30 5899 C 567.824 0.061434 -3.38844 0
M  V30 5900 C 566.997 -0.902696 -4.27984 0
M  V30 5901 C 566.056 -0.225521 -5.25717 0
M  V30 5902 O 565.082 -0.86676 -5.62562 0
M  V30 5903 N 566.284 1.02858 -5.71315 0
M  V30 5904 H 569.049 -1.55081 -2.56457 0
M  V30 5905 H 566.61 -0.958883 -1.30449 0
M  V30 5906 H 568.602 0.525145 -4.01278 0
M  V30 5907 H 567.172 0.861269 -3.00501 0
M  V30 5908 H 566.392 -1.54551 -3.6264 0
M  V30 5909 H 567.68 -1.55636 -4.84412 0
M  V30 5910 H 567.078 1.56948 -5.43492 0
M  V30 5911 H 565.635 1.43596 -6.35786 0
M  V30 5912 N 569.068 1.32177 -0.85831 0
M  V30 5913 C 570.001 2.26823 -0.25035 0
M  V30 5914 C 570.979 1.50571 0.61378 0
M  V30 5915 O 572.163 1.79682 0.569777 0
M  V30 5916 C 569.29 3.32472 0.646556 0
M  V30 5917 C 568.336 4.26255 -0.144675 0
M  V30 5918 S 569.169 5.13608 -1.5155 0
M  V30 5919 C 570.325 6.22778 -0.624408 0
M  V30 5920 H 570.558 2.7804 -1.05267 0
M  V30 5921 H 568.091 1.39764 -0.656152 0
M  V30 5922 H 570.049 3.93817 1.15837 0
M  V30 5923 H 568.71 2.80031 1.42272 0
M  V30 5924 H 567.903 5.01114 0.538613 0
M  V30 5925 H 567.505 3.69346 -0.588198 0
M  V30 5926 H 569.797 6.77287 0.169846 0
M  V30 5927 H 570.74 6.95233 -1.34376 0
M  V30 5928 H 571.148 5.64156 -0.197128 0
M  V30 5929 N 570.547 0.616602 1.45037 0
M  V30 5930 C 571.51 -0.0871112 2.29034 0
M  V30 5931 C 572.51 -0.786414 1.40258 0
M  V30 5932 O 573.7 -0.633207 1.62284 0
M  V30 5933 C 570.832 -1.13369 3.21497 0
M  V30 5934 H 572.025 0.651497 2.92738 0
M  V30 5935 H 569.578 0.376058 1.51709 0
M  V30 5936 H 570.313 -1.90277 2.62612 0
M  V30 5937 H 570.098 -0.636358 3.86902 0
M  V30 5938 H 571.588 -1.62627 3.84633 0
M  V30 5939 N 572.025 -1.5352 0.356285 0
M  V30 5940 C 573.271 -2.01414 -0.236653 0
M  V30 5941 C 573.604 -1.24339 -1.49176 0
M  V30 5942 O 572.879 -0.334496 -1.91602 0
M  V30 5943 C 573.162 -3.56059 -0.537982 0
M  V30 5944 C 573.015 -4.43835 0.730112 0
M  V30 5945 C 574.334 -4.19127 -1.34239 0
M  V30 5946 H 571.453 -0.732135 -0.0845386 0
M  V30 5947 H 574.095 -1.83854 0.479341 0
M  V30 5948 H 572.245 -3.71153 -1.14795 0
M  V30 5949 H 573.917 -4.40555 1.36782 0
M  V30 5950 H 572.16 -4.1218 1.3524 0
M  V30 5951 H 572.831 -5.49958 0.474358 0
M  V30 5952 H 575.307 -4.07809 -0.826498 0
M  V30 5953 H 574.183 -5.27378 -1.52198 0
M  V30 5954 H 574.444 -3.74581 -2.34822 0
M  V30 5955 N 573.503 -0.0852151 -1.57369 0
M  V30 5956 C 574.749 0.581666 -1.94279 0
M  V30 5957 C 575.082 1.68444 -0.966446 0
M  V30 5958 O 574.357 1.945 0.00215277 0
M  V30 5959 C 574.64 1.14609 -3.41375 0
M  V30 5960 C 574.493 0.0490414 -4.49773 0
M  V30 5961 C 575.812 2.04751 -3.8957 0
M  V30 5962 H 572.931 0.209972 -0.706456 0
M  V30 5963 H 575.573 -0.153915 -1.89376 0
M  V30 5964 H 573.723 1.77297 -3.45685 0
M  V30 5965 H 575.395 -0.584721 -4.57579 0
M  V30 5966 H 573.638 -0.618638 -4.29366 0
M  V30 5967 H 574.309 0.484601 -5.49869 0
M  V30 5968 H 576.785 1.51981 -3.87351 0
M  V30 5969 H 575.661 2.41173 -4.93079 0
M  V30 5970 H 575.922 2.96107 -3.28288 0
M  V30 5971 N 574.981 1.5647 0.188427 0
M  V30 5972 C 576.206 1.85486 0.927891 0
M  V30 5973 C 576.631 0.669575 1.75779 0
M  V30 5974 O 575.989 -0.381573 1.77239 0
M  V30 5975 C 576.037 3.12784 1.7944 0
M  V30 5976 O 575.141 2.93805 2.894 0
M  V30 5977 H 574.482 0.610585 0.260925 0
M  V30 5978 H 577.012 2.037 0.191729 0
M  V30 5979 H 577.022 3.43749 2.19774 0
M  V30 5980 H 575.697 3.98671 1.18468 0
M  V30 5981 H 574.274 2.74153 2.52774 0
M  V30 5982 N 576.459 -0.456382 1.50847 0
M  V30 5983 C 577.406 -1.55249 1.70782 0
M  V30 5984 C 578.376 -1.56757 0.549231 0
M  V30 5985 O 579.561 -1.74061 0.7815 0
M  V30 5986 C 576.701 -2.93118 1.82143 0
M  V30 5987 C 575.814 -3.01285 3.09598 0
M  V30 5988 C 574.949 -4.30159 3.11667 0
M  V30 5989 C 573.988 -4.32124 4.33515 0
M  V30 5990 N 573.125 -5.52492 4.3324 0
M  V30 5991 H 577.965 -1.37555 2.64353 0
M  V30 5992 H 575.502 -0.668543 1.3103 0
M  V30 5993 H 577.46 -3.73088 1.86711 0
M  V30 5994 H 576.09 -3.09413 0.919978 0
M  V30 5995 H 575.142 -2.14096 3.14431 0
M  V30 5996 H 576.454 -2.98597 3.99551 0
M  V30 5997 H 575.608 -5.18489 3.15046 0
M  V30 5998 H 574.347 -4.35477 2.1957 0
M  V30 5999 H 573.352 -3.42189 4.30333 0
M  V30 6000 H 574.577 -4.28485 5.26856 0
M  V30 6001 H 572.523 -5.58567 3.44004 0
M  V30 6002 H 572.44 -5.51605 5.16979 0
M  V30 6003 H 573.708 -6.42906 4.40786 0
M  V30 6004 N 577.937 -1.40673 -0.710563 0
M  V30 6005 C 578.87 -1.35742 -1.83438 0
M  V30 6006 C 579.848 -0.226997 -1.61008 0
M  V30 6007 O 581.032 -0.411477 -1.83954 0
M  V30 6008 C 578.159 -1.11374 -3.19865 0
M  V30 6009 C 577.205 -2.26935 -3.61113 0
M  V30 6010 S 578.038 -3.89352 -3.67648 0
M  V30 6011 C 579.194 -3.67258 -5.06826 0
M  V30 6012 H 579.427 -2.30848 -1.87341 0
M  V30 6013 H 576.96 -1.27018 -0.877831 0
M  V30 6014 H 578.918 -0.980004 -3.9863 0
M  V30 6015 H 577.579 -0.179135 -3.13589 0
M  V30 6016 H 576.772 -2.0554 -4.60184 0
M  V30 6017 H 576.374 -2.36638 -2.89618 0
M  V30 6018 H 578.666 -3.26036 -5.93891 0
M  V30 6019 H 579.609 -4.65878 -5.33257 0
M  V30 6020 H 580.017 -3.0084 -4.77656 0
M  V30 6021 N 579.415 0.9433 -1.26252 0
M  V30 6022 C 580.826 1.50404 -1.10614 0
M  V30 6023 C 581.177 1.93666 0.31429 0
M  V30 6024 O 580.302 1.79709 1.20555 0
M  V30 6025 C 580.897 2.73336 -2.00182 0
M  V30 6026 C 579.456 3.25686 -1.88695 0
M  V30 6027 C 578.603 1.98474 -1.93658 0
M  V30 6028 H 581.554 0.759006 -1.39373 0
M  V30 6029 H 581.575 3.47567 -1.54847 0
M  V30 6030 H 581.087 2.41818 -3.03555 0
M  V30 6031 H 579.188 3.61998 -0.882489 0
M  V30 6032 H 579.301 3.92935 -2.74115 0
M  V30 6033 H 577.665 2.14278 -1.37684 0
M  V30 6034 H 578.448 1.6929 -2.98657 0
M  V30 6035 N 580.893 1.08022 1.14757 0
M  V30 6036 C 582.14 0.807509 1.85703 0
M  V30 6037 C 582.468 -0.666617 1.8272 0
M  V30 6038 O 581.723 -1.50562 1.25018 0
M  V30 6039 C 582.022 1.26964 3.34088 0
M  V30 6040 C 581.688 2.7509 3.57262 0
M  V30 6041 C 580.35 3.15547 3.63296 0
M  V30 6042 C 582.702 3.70667 3.66409 0
M  V30 6043 C 580.03 4.50384 3.75994 0
M  V30 6044 C 582.382 5.05274 3.80632 0
M  V30 6045 C 581.046 5.45342 3.84913 0
M  V30 6046 H 580.316 0.295488 0.679535 0
M  V30 6047 H 582.963 1.35245 1.35577 0
M  V30 6048 H 581.268 0.644216 3.86467 0
M  V30 6049 H 582.965 1.03544 3.87401 0
M  V30 6050 H 579.555 2.42775 3.53212 0
M  V30 6051 H 583.739 3.40533 3.61041 0
M  V30 6052 H 578.995 4.80886 3.77569 0
M  V30 6053 H 583.169 5.79201 3.86652 0
M  V30 6054 H 580.796 6.49823 3.94505 0
M  V30 6055 N 582.371 -1.3172 0.865308 0
M  V30 6056 C 583.617 -1.97168 0.474633 0
M  V30 6057 C 583.95 -1.68263 -0.969604 0
M  V30 6058 O 583.225 -0.976588 -1.68205 0
M  V30 6059 C 583.508 -3.52689 0.726808 0
M  V30 6060 C 583.361 -3.91185 2.22024 0
M  V30 6061 C 584.68 -4.39689 0.190201 0
M  V30 6062 H 581.799 -0.716185 0.17392 0
M  V30 6063 H 584.441 -1.55925 1.08569 0
M  V30 6064 H 582.591 -3.8795 0.206705 0
M  V30 6065 H 584.263 -3.66049 2.80724 0
M  V30 6066 H 582.506 -3.3996 2.69462 0
M  V30 6067 H 583.177 -4.99604 2.34735 0
M  V30 6068 H 585.653 -4.11225 0.635103 0
M  V30 6069 H 584.529 -5.47469 0.396132 0
M  V30 6070 H 584.79 -4.32683 -0.907625 0
M  V30 6071 N 583.85 -0.624285 -1.44708 0
M  V30 6072 C 585.26 -0.2092 -1.85524 0
M  V30 6073 C 585.611 1.23783 -1.52225 0
M  V30 6074 O 584.736 1.94089 -0.956986 0
M  V30 6075 C 585.332 -0.372897 -3.36742 0
M  V30 6076 C 583.891 -0.012374 -3.76398 0
M  V30 6077 C 583.038 -0.68951 -2.68591 0
M  V30 6078 H 585.989 -0.829894 -1.35272 0
M  V30 6079 H 586.01 0.390134 -3.78495 0
M  V30 6080 H 585.522 -1.42615 -3.60947 0
M  V30 6081 H 583.623 1.03941 -3.57809 0
M  V30 6082 H 583.736 -0.417663 -4.77276 0
M  V30 6083 H 582.1 -0.125484 -2.54391 0
M  V30 6084 H 582.883 -1.74522 -2.9563 0
M  V30 6085 N 585.328 1.53329 -0.364422 0
M  V30 6086 C 586.556 2.05657 0.226424 0
M  V30 6087 C 586.971 1.23801 1.42544 0
M  V30 6088 O 586.328 0.27839 1.80364 0
M  V30 6089 C 586.379 3.56125 0.621056 0
M  V30 6090 O 586.1 4.34879 -0.530304 0
M  V30 6091 C 587.601 4.24706 1.27041 0
M  V30 6092 H 584.821 0.669806 0.0400056 0
M  V30 6093 H 587.365 1.97714 -0.522456 0
M  V30 6094 H 585.52 3.64223 1.31985 0
M  V30 6095 H 585.934 5.24073 -0.211546 0
M  V30 6096 H 587.408 5.3131 1.49711 0
M  V30 6097 H 587.885 3.78354 2.23036 0
M  V30 6098 H 588.491 4.20858 0.613079 0
M  V30 6099 N 586.806 0.0935595 1.57322 0
M  V30 6100 C 587.754 -0.883457 2.15169 0
M  V30 6101 C 588.748 -1.29324 1.09415 0
M  V30 6102 O 589.954 -1.26795 1.27762 0
M  V30 6103 H 586.329 -0.302923 0.688289 0
M  V30 6104 H 588.3 -0.370845 2.96087 0
M  V30 6105 C 587.049 -2.13345 2.74552 0
M  V30 6106 H 586.372 -1.82702 3.55612 0
M  V30 6107 H 587.812 -2.7977 3.18598 0
M  V30 6108 C 586.271 -2.90646 1.70371 0
M  V30 6109 O 586.801 -3.85133 1.14173 0
M  V30 6110 N 585.007 -2.54157 1.40899 0
M  V30 6111 H 584.554 -1.77391 1.86789 0
M  V30 6112 H 584.512 -3.06178 0.714301 0
M  V30 6113 N 588.284 -1.56567 -0.180126 0
M  V30 6114 C 589.514 -1.85349 -0.912647 0
M  V30 6115 C 589.922 -0.675795 -1.76719 0
M  V30 6116 O 589.265 0.3645 -1.80047 0
M  V30 6117 C 589.327 -3.08431 -1.84691 0
M  V30 6118 C 588.991 -4.41694 -1.17284 0
M  V30 6119 C 589.988 -5.17062 -0.542532 0
M  V30 6120 C 587.673 -4.8843 -1.17223 0
M  V30 6121 C 589.667 -6.37351 0.0793953 0
M  V30 6122 C 587.354 -6.08652 -0.54647 0
M  V30 6123 C 588.352 -6.82955 0.0782458 0
M  V30 6124 O 588.04 -8.00897 0.694158 0
M  V30 6125 H 587.772 -0.619286 -0.271036 0
M  V30 6126 H 590.326 -2.0454 -0.187768 0
M  V30 6127 H 588.556 -2.85163 -2.61188 0
M  V30 6128 H 590.245 -3.23733 -2.44851 0
M  V30 6129 H 591.011 -4.8204 -0.535045 0
M  V30 6130 H 586.89 -4.30542 -1.64788 0
M  V30 6131 H 590.434 -6.95287 0.567612 0
M  V30 6132 H 586.331 -6.4314 -0.55151 0
M  V30 6133 H 587.099 -8.16352 0.592537 0
M  V30 6134 N 589.762 0.448376 -1.51087 0
M  V30 6135 C 590.992 1.21965 -1.66757 0
M  V30 6136 C 591.4 1.85748 -0.359753 0
M  V30 6137 O 590.743 1.71022 0.670604 0
M  V30 6138 C 590.805 2.35284 -2.71812 0
M  V30 6139 C 590.469 1.91957 -4.1473 0
M  V30 6140 C 591.466 1.42921 -4.9987 0
M  V30 6141 C 589.151 1.99985 -4.60772 0
M  V30 6142 C 591.145 1.02485 -6.29107 0
M  V30 6143 C 588.832 1.5916 -5.90009 0
M  V30 6144 C 589.83 1.10491 -6.74004 0
M  V30 6145 O 589.518 0.702413 -8.00825 0
M  V30 6146 H 589.25 0.374125 -0.563034 0
M  V30 6147 H 591.804 0.538927 -1.98204 0
M  V30 6148 H 590.034 3.06599 -2.35657 0
M  V30 6149 H 591.723 2.97184 -2.76472 0
M  V30 6150 H 592.489 1.36123 -4.65506 0
M  V30 6151 H 588.368 2.36814 -3.95525 0
M  V30 6152 H 591.912 0.644271 -6.94619 0
M  V30 6153 H 587.809 1.65626 -6.2389 0
M  V30 6154 H 588.577 0.829248 -8.14288 0
M  V30 6155 N 591.24 1.41047 0.703093 0
M  V30 6156 C 592.468 1.4334 1.49202 0
M  V30 6157 C 592.883 0.0365596 1.88765 0
M  V30 6158 O 592.24 -0.942419 1.56284 0
M  V30 6159 C 592.291 2.33538 2.75939 0
M  V30 6160 O 592.012 3.67786 2.38045 0
M  V30 6161 C 593.513 2.44555 3.6974 0
M  V30 6162 H 590.733 0.488472 0.460039 0
M  V30 6163 H 593.277 1.85245 0.86629 0
M  V30 6164 H 591.432 1.94962 3.34766 0
M  V30 6165 H 591.846 4.15816 3.19683 0
M  V30 6166 H 593.32 3.11849 4.55471 0
M  V30 6167 H 593.797 1.47447 4.1371 0
M  V30 6168 H 594.403 2.83735 3.16819 0
M  V30 6169 N 592.718 -0.936591 1.26751 0
M  V30 6170 C 593.648 -2.05315 1.11212 0
M  V30 6171 C 594.629 -1.70092 0.0160262 0
M  V30 6172 O 595.814 -1.93279 0.188894 0
M  V30 6173 C 592.944 -3.39123 0.749171 0
M  V30 6174 C 591.898 -3.88425 1.79751 0
M  V30 6175 C 591.224 -5.18936 1.28876 0
M  V30 6176 C 592.524 -4.12798 3.19992 0
M  V30 6177 H 594.218 -2.18573 2.04613 0
M  V30 6178 H 591.764 -1.05027 0.985159 0
M  V30 6179 H 593.717 -4.16704 0.627323 0
M  V30 6180 H 592.441 -3.25855 -0.220543 0
M  V30 6181 H 591.1 -3.13028 1.90811 0
M  V30 6182 H 590.748 -5.02051 0.308757 0
M  V30 6183 H 590.448 -5.52892 1.98958 0
M  V30 6184 H 591.972 -5.99096 1.17967 0
M  V30 6185 H 593.386 -4.80977 3.11983 0
M  V30 6186 H 591.783 -4.58044 3.87705 0
M  V30 6187 H 592.853 -3.18412 3.65707 0
M  V30 6188 N 594.196 -1.08629 -1.14182 0
M  V30 6189 C 595.143 -0.718299 -2.19338 0
M  V30 6190 C 596.113 0.296587 -1.63431 0
M  V30 6191 O 597.298 0.180079 -1.89948 0
M  V30 6192 C 594.438 -0.136203 -3.44831 0
M  V30 6193 C 593.551 -1.20414 -4.14879 0
M  V30 6194 C 592.686 -0.585666 -5.27962 0
M  V30 6195 C 591.725 -1.63548 -5.89846 0
M  V30 6196 N 590.862 -1.03864 -6.94375 0
M  V30 6197 H 595.702 -1.61932 -2.50164 0
M  V30 6198 H 593.239 -0.80919 -1.22844 0
M  V30 6199 H 595.197 0.219021 -4.16625 0
M  V30 6200 H 593.827 0.728121 -3.14481 0
M  V30 6201 H 592.879 -1.67676 -3.41451 0
M  V30 6202 H 594.191 -1.99959 -4.56966 0
M  V30 6203 H 593.345 -0.178818 -6.06436 0
M  V30 6204 H 592.084 0.24142 -4.87102 0
M  V30 6205 H 591.089 -2.05197 -5.10073 0
M  V30 6206 H 592.314 -2.46509 -6.3278 0
M  V30 6207 H 590.26 -0.232687 -6.55587 0
M  V30 6208 H 590.177 -1.77116 -7.3496 0
M  V30 6209 H 591.445 -0.657724 -7.7672 0
M  V30 6210 O 595.713 1.26359 -1.00577 0
M  V30 6211 H 596.404 1.82071 -0.661052 0
M  V30 END ATOM
M  V30 BEGIN BOND
M  V30 END BOND
M  V30 END CTAB
M  END
$$$$
