drugbank_target|P01859 Ig gamma-2 chain C region (DB02854; DB04688; DB07329; DB07375; DB08323; DB08409; DB08510; DB08547; DB08618)
 OpenBabel12092120413D

  0  0  0     0  0            999 V3000
M  V30 BEGIN CTAB
M  V30 COUNTS 5000 5071 0 0 0
M  V30 BEGIN ATOM
M  V30 1 H -0.908 1.98254 -0.117106 0
M  V30 2 N 0 1.576 0 0
M  V30 3 C 0.963 2.07369 0.976253 0
M  V30 4 C 1.963 0.98309 1.27248 0
M  V30 5 O 3.153 1.24574 1.21766 0
M  V30 6 C 0.285 2.51514 2.30116 0
M  V30 7 H 1.478 2.94892 0.545759 0
M  V30 8 H -0.969 1.54328 0.247471 0
M  V30 9 H -0.234 1.67234 2.77855 0
M  V30 10 H -0.449 3.31163 2.09937 0
M  V30 11 H 1.041 2.90345 3.00149 0
M  V30 12 N 1.4781 -0.272755 1.55222 0
M  V30 13 C 2.7031 -1.02683 1.80197 0
M  V30 14 C 3.1281 -1.79142 0.573551 0
M  V30 15 O 2.4861 -1.74917 -0.476849 0
M  V30 16 C 2.5341 -1.9609 3.02624 0
M  V30 17 O 1.6381 -3.04863 2.77727 0
M  V30 18 H 0.9791 -0.293557 0.595584 0
M  V30 19 H 3.5091 -0.30159 2.02365 0
M  V30 20 H 3.5191 -2.38039 3.31363 0
M  V30 21 H 2.1941 -1.39851 3.91682 0
M  V30 22 H 0.7711 -2.67228 2.60084 0
M  V30 23 N 2.9562 -1.48159 -0.537278 0
M  V30 24 C 4.1842 -1.59454 -1.31841 0
M  V30 25 C 4.5992 -0.252065 -1.8711 0
M  V30 26 O 3.9562 0.757621 -1.66031 0
M  V30 27 C 4.0072 -2.63546 -2.47439 0
M  V30 28 O 3.7282 -3.92583 -1.94449 0
M  V30 29 C 5.2292 -2.85212 -3.39366 0
M  V30 30 H 2.4492 -0.53785 -0.401196 0
M  V30 31 H 4.9932 -1.93932 -0.648891 0
M  V30 32 H 3.1482 -2.31946 -3.1029 0
M  V30 33 H 3.5622 -4.49629 -2.70063 0
M  V30 34 H 5.0362 -3.61863 -4.16844 0
M  V30 35 H 5.5132 -1.93765 -3.94147 0
M  V30 36 H 6.1192 -3.18086 -2.82314 0
M  V30 37 N 4.4343 0.785586 -1.36625 0
M  V30 38 C 5.3813 1.89838 -1.31264 0
M  V30 39 C 6.3513 1.65115 -0.180633 0
M  V30 40 O 7.5363 1.87222 -0.36777 0
M  V30 41 C 4.6763 3.26706 -1.11163 0
M  V30 42 C 3.7893 3.63476 -2.33472 0
M  V30 43 C 2.9243 4.89481 -2.06353 0
M  V30 44 C 1.9633 5.18941 -3.24602 0
M  V30 45 N 1.1003 6.36131 -2.97123 0
M  V30 46 H 5.9403 1.93756 -2.26413 0
M  V30 47 H 3.4773 0.947454 -1.12524 0
M  V30 48 H 5.4353 4.05639 -0.975337 0
M  V30 49 H 4.0653 3.222 -0.196674 0
M  V30 50 H 3.1173 2.79636 -2.57891 0
M  V30 51 H 4.4293 3.81193 -3.21704 0
M  V30 52 H 3.5833 5.76288 -1.89675 0
M  V30 53 H 2.3223 4.73841 -1.15437 0
M  V30 54 H 1.3273 4.30615 -3.41834 0
M  V30 55 H 2.5523 5.36498 -4.16349 0
M  V30 56 H 0.4983 6.21875 -2.08823 0
M  V30 57 H 0.4153 6.54198 -3.78894 0
M  V30 58 H 1.6833 7.2591 -2.84033 0
M  V30 59 N 5.9124 1.20967 1.01018 0
M  V30 60 C 7.1604 1.02172 1.74371 0
M  V30 61 C 7.4814 -0.446414 1.89821 0
M  V30 62 O 6.7514 -1.32234 1.44537 0
M  V30 63 H 5.3314 0.375066 0.646014 0
M  V30 64 H 7.9934 1.52187 1.21758 0
M  V30 65 H 7.0894 1.48538 2.74487 0
M  V30 66 N 7.3905 -1.2043 1.01659 0
M  V30 67 C 8.8015 -1.71517 0.737482 0
M  V30 68 C 9.1525 -1.81547 -0.743973 0
M  V30 69 O 8.2775 -1.47803 -1.58061 0
M  V30 70 C 8.8725 -3.11515 1.33206 0
M  V30 71 C 7.4315 -3.59912 1.10183 0
M  V30 72 C 6.5785 -2.37116 1.43776 0
M  V30 73 H 9.5295 -1.05444 1.18606 0
M  V30 74 H 9.5505 -3.73575 0.722636 0
M  V30 75 H 9.0625 -3.04182 2.41028 0
M  V30 76 H 7.1635 -3.72577 0.0412756 0
M  V30 77 H 7.2765 -4.44731 1.78188 0
M  V30 78 H 5.6405 -2.39857 0.856778 0
M  V30 79 H 6.4235 -2.32424 2.52654 0
M  V30 80 N 8.8686 -0.792821 -1.36206 0
M  V30 81 C 10.0936 -0.377701 -2.03932 0
M  V30 82 C 10.5186 0.998947 -1.59382 0
M  V30 83 O 9.8766 1.64421 -0.763903 0
M  V30 84 C 9.9246 -0.453635 -3.57735 0
M  V30 85 O 9.0286 0.538151 -4.08874 0
M  V30 86 H 8.3696 -0.159855 -0.644471 0
M  V30 87 H 10.8996 -1.07488 -1.7409 0
M  V30 88 H 10.9096 -0.318464 -4.06755 0
M  V30 89 H 9.5846 -1.45784 -3.89512 0
M  V30 90 H 8.1616 0.364359 -3.71116 0
M  V30 91 N 10.3467 1.47872 -0.545128 0
M  V30 92 C 11.5927 2.02793 -0.0166104 0
M  V30 93 C 11.9257 1.41987 1.32489 0
M  V30 94 O 11.2007 0.571045 1.85928 0
M  V30 95 C 11.4837 3.59989 0.0893294 0
M  V30 96 C 11.3367 4.3125 -1.27841 0
M  V30 97 C 12.6557 4.32606 0.808724 0
M  V30 98 H 9.7747 0.736962 -0.00751035 0
M  V30 99 H 12.4167 1.76433 -0.705085 0
M  V30 100 H 10.5667 3.82579 0.675681 0
M  V30 101 H 12.2387 4.20035 -1.90704 0
M  V30 102 H 10.4817 3.92076 -1.85632 0
M  V30 103 H 11.1527 5.39736 -1.15713 0
M  V30 104 H 13.6287 4.14936 0.310992 0
M  V30 105 H 12.5047 5.42251 0.851782 0
M  V30 106 H 12.7657 4.00963 1.86229 0
M  V30 107 N 11.8248 0.280983 1.55075 0
M  V30 108 C 13.0718 -0.334115 1.99725 0
M  V30 109 C 13.3998 -1.5542 1.1694 0
M  V30 110 O 12.6548 -1.94361 0.228531 0
M  V30 111 C 12.9538 -0.754656 3.49342 0
M  V30 112 C 12.6198 0.361445 4.49449 0
M  V30 113 C 11.2818 0.667893 4.76542 0
M  V30 114 C 13.6338 1.11322 5.09173 0
M  V30 115 C 10.9618 1.7296 5.60626 0
M  V30 116 C 13.3138 2.1647 5.9441 0
M  V30 117 C 11.9778 2.47742 6.19822 0
M  V30 118 H 11.2478 -0.122261 0.730844 0
M  V30 119 H 13.8948 0.395917 1.87363 0
M  V30 120 H 12.1998 -1.56446 3.5921 0
M  V30 121 H 13.8968 -1.24142 3.813 0
M  V30 122 H 10.4868 0.112481 4.28452 0
M  V30 123 H 14.6708 0.88973 4.8826 0
M  V30 124 H 9.9268 1.97684 5.78559 0
M  V30 125 H 14.1008 2.75193 6.3972 0
M  V30 126 H 11.7278 3.30145 6.84769 0
M  V30 127 N 13.3029 -1.57598 0.00835791 0
M  V30 128 C 14.7139 -1.7892 -0.53333 0
M  V30 129 C 15.0649 -0.916609 -1.73473 0
M  V30 130 O 14.1899 -0.121336 -2.1606 0
M  V30 131 C 14.7849 -3.24488 -0.974313 0
M  V30 132 C 13.3439 -3.46878 -1.46125 0
M  V30 133 C 12.4909 -2.74157 -0.416302 0
M  V30 134 H 15.4419 -1.56958 0.234495 0
M  V30 135 H 15.4629 -3.3306 -1.83988 0
M  V30 136 H 14.9749 -3.87972 -0.099718 0
M  V30 137 H 13.0759 -2.8862 -2.35646 0
M  V30 138 H 13.1889 -4.55572 -1.48295 0
M  V30 139 H 11.5529 -2.39022 -0.87981 0
M  V30 140 H 12.3359 -3.40345 0.44947 0
M  V30 141 N 14.781 0.264519 -1.55364 0
M  V30 142 C 15.711 1.33121 -1.91836 0
M  V30 143 C 16.692 1.51101 -0.781192 0
M  V30 144 O 17.877 1.64003 -1.04003 0
M  V30 145 C 15.007 2.68921 -2.19769 0
M  V30 146 C 13.961 2.65661 -3.35571 0
M  V30 147 C 13.287 4.05093 -3.49004 0
M  V30 148 C 14.587 2.24187 -4.71739 0
M  V30 149 H 16.281 1.02844 -2.81182 0
M  V30 150 H 13.827 0.493286 -1.35287 0
M  V30 151 H 15.78 3.43663 -2.43872 0
M  V30 152 H 14.504 3.00799 -1.27231 0
M  V30 153 H 13.163 1.93377 -3.1145 0
M  V30 154 H 12.811 4.34206 -2.53917 0
M  V30 155 H 12.511 4.03804 -4.26868 0
M  V30 156 H 14.035 4.81561 -3.75408 0
M  V30 157 H 15.449 2.88654 -4.9533 0
M  V30 158 H 13.846 2.34044 -5.52579 0
M  V30 159 H 14.916 1.19327 -4.69988 0
M  V30 160 N 16.2591 1.48442 0.529413 0
M  V30 161 C 17.2221 1.62524 1.61612 0
M  V30 162 C 18.2221 0.498509 1.52877 0
M  V30 163 O 19.4121 0.76431 1.56537 0
M  V30 164 C 16.5441 1.59597 3.01233 0
M  V30 165 H 17.7371 2.59423 1.50465 0
M  V30 166 H 15.2901 1.37047 0.751514 0
M  V30 167 H 16.0251 0.641781 3.17886 0
M  V30 168 H 15.8101 2.41397 3.08982 0
M  V30 169 H 17.3001 1.72646 3.80241 0
M  V30 170 N 17.7372 -0.778329 1.37039 0
M  V30 171 C 19.1482 -1.35421 1.28523 0
M  V30 172 C 19.4992 -1.96075 -0.0700901 0
M  V30 173 O 18.6242 -1.93352 -0.971801 0
M  V30 174 C 19.2192 -2.46211 2.32735 0
M  V30 175 C 17.7782 -2.99585 2.27873 0
M  V30 176 C 16.9252 -1.72748 2.16918 0
M  V30 177 H 19.8762 -0.5791 1.47757 0
M  V30 178 H 19.8972 -3.2552 1.9702 0
M  V30 179 H 19.4092 -2.02036 3.31365 0
M  V30 180 H 17.5102 -3.48152 1.32745 0
M  V30 181 H 17.6232 -3.55646 3.21018 0
M  V30 182 H 15.9872 -1.95416 1.63354 0
M  V30 183 H 16.7702 -1.30686 3.17452 0
M  V30 184 N 19.2153 -1.21501 -1.00376 0
M  V30 185 C 20.4553 -1.04444 -1.75701 0
M  V30 186 C 20.8193 0.414644 -1.87469 0
M  V30 187 O 22.0203 0.705763 -2.59369 0
M  V30 188 C 20.2913 -1.72389 -3.13077 0
M  V30 189 S 21.8503 -1.70604 -4.04277 0
M  V30 190 H 18.6683 -0.374249 -0.604532 0
M  V30 191 H 21.2703 -1.54267 -1.20091 0
M  V30 192 H 19.9743 -2.77734 -3.02146 0
M  V30 193 H 19.5053 -1.22751 -3.73759 0
M  V30 194 H 21.5203 -0.748012 -4.9053 0
M  V30 195 N 20.6934 1.19889 -1.02296 0
M  V30 196 C 21.9184 1.9393 -0.735237 0
M  V30 197 C 22.3434 1.74639 0.698782 0
M  V30 198 O 21.7014 1.04481 1.48167 0
M  V30 199 C 21.7494 3.43916 -1.08417 0
M  V30 200 O 20.8534 4.11917 -0.199446 0
M  V30 201 H 20.1944 0.605645 -0.272196 0
M  V30 202 H 22.7244 1.52137 -1.36804 0
M  V30 203 H 22.7344 3.9456 -1.03856 0
M  V30 204 H 21.4094 3.5728 -2.12894 0
M  V30 205 H 19.9864 3.71666 -0.303136 0
M  V30 206 N 22.1715 0.800033 1.35784 0
M  V30 207 C 23.5875 0.482977 1.52117 0
M  V30 208 C 23.7875 -0.996948 1.75109 0
M  V30 209 O 22.8435 -1.78216 1.78872 0
M  V30 210 C 24.1565 1.32264 2.70049 0
M  V30 211 C 25.7045 1.31742 2.83924 0
M  V30 212 C 26.1795 2.14106 4.04874 0
M  V30 213 N 27.6705 2.11607 4.12039 0
M  V30 214 C 28.4055 2.72099 5.04727 0
M  V30 215 N 27.9015 3.41492 6.02789 0
M  V30 216 N 29.6945 2.61776 4.97423 0
M  V30 217 H 21.8455 1.75856 1.19115 0
M  V30 218 H 24.1085 0.748122 0.582252 0
M  V30 219 H 23.8145 2.37261 2.59616 0
M  V30 220 H 23.6885 0.971303 3.6448 0
M  V30 221 H 26.0755 0.275333 2.93813 0
M  V30 222 H 26.1565 1.70859 1.9037 0
M  V30 223 H 25.8005 3.18351 3.95746 0
M  V30 224 H 25.7305 1.72353 4.97596 0
M  V30 225 H 28.2215 1.61112 3.41835 0
M  V30 226 H 28.5345 3.84953 6.70098 0
M  V30 227 H 26.8795 3.45596 6.02983 0
M  V30 228 H 30.0705 2.07157 4.19766 0
M  V30 229 H 30.2435 3.0921 5.69468 0
M  V30 230 N 23.6496 -1.47581 0.552962 0
M  V30 231 C 24.8746 -2.07378 0.0300593 0
M  V30 232 C 25.2996 -1.40355 -1.25229 0
M  V30 233 O 24.6576 -0.477099 -1.7491 0
M  V30 234 C 24.7056 -3.60274 -0.153231 0
M  V30 235 O 23.8096 -3.94041 -1.21678 0
M  V30 236 H 23.1506 -0.662158 0.0494182 0
M  V30 237 H 25.6806 -1.89662 0.767434 0
M  V30 238 H 25.6906 -4.0633 -0.368761 0
M  V30 239 H 24.3656 -4.08455 0.783397 0
M  V30 240 H 22.9426 -3.59735 -0.982079 0
M  V30 241 N 25.1277 -0.289203 -1.54924 0
M  V30 242 C 26.3557 0.326463 -2.04308 0
M  V30 243 C 26.7707 1.48413 -1.16701 0
M  V30 244 O 26.1277 1.81507 -0.190087 0
M  V30 245 C 26.1787 0.794014 -3.52672 0
M  V30 246 O 25.8997 -0.317564 -4.36948 0
M  V30 247 C 27.4007 1.47605 -4.18004 0
M  V30 248 H 24.6207 0.0726272 -0.667058 0
M  V30 249 H 27.1647 -0.425401 -2.00026 0
M  V30 250 H 25.3197 1.49593 -3.57352 0
M  V30 251 H 25.7337 0.0443186 -5.24481 0
M  V30 252 H 27.2077 1.75447 -5.23376 0
M  V30 253 H 27.6847 2.41224 -3.67025 0
M  V30 254 H 28.2907 0.81762 -4.17367 0
M  V30 255 N 26.6058 1.57591 -0.0167156 0
M  V30 256 C 27.8308 1.9598 0.67872 0
M  V30 257 C 28.2558 0.892546 1.65575 0
M  V30 258 O 27.6138 -0.147772 1.80697 0
M  V30 259 C 27.6618 3.33468 1.37227 0
M  V30 260 O 26.7658 3.28954 2.48722 0
M  V30 261 H 26.1068 0.639339 0.17928 0
M  V30 262 H 28.6368 2.04463 -0.0748802 0
M  V30 263 H 28.6468 3.69417 1.7319 0
M  V30 264 H 27.3218 4.10694 0.656007 0
M  V30 265 H 25.8988 3.04705 2.14963 0
M  V30 266 N 28.0839 -0.256276 1.55502 0
M  V30 267 C 28.9939 -1.33882 1.92647 0
M  V30 268 C 30.0099 -1.53159 0.825727 0
M  V30 269 O 31.1859 -1.66963 1.12629 0
M  V30 270 C 28.2509 -2.6751 2.20543 0
M  V30 271 C 27.3119 -2.56836 3.43997 0
M  V30 272 C 26.5449 -3.84092 3.70553 0
M  V30 273 O 26.7679 -4.85545 2.99336 0
M  V30 274 O 25.7019 -3.83288 4.64084 0
M  V30 275 H 29.5279 -1.05374 2.84833 0
M  V30 276 H 27.1129 -0.456237 1.42263 0
M  V30 277 H 28.9949 -3.46492 2.39835 0
M  V30 278 H 27.6699 -2.9577 1.31536 0
M  V30 279 H 26.5769 -1.76172 3.30021 0
M  V30 280 H 27.9099 -2.33523 4.33275 0
M  V30 281 N 29.562 -1.4872 -0.521534 0
M  V30 282 C 30.787 -1.61101 -1.30618 0
M  V30 283 C 31.212 -0.274611 -1.86085 0
M  V30 284 O 30.57 0.754937 -1.64834 0
M  V30 285 C 30.618 -2.66709 -2.4269 0
M  V30 286 O 29.722 -2.24456 -3.45967 0
M  V30 287 H 29.063 -0.539921 -0.386499 0
M  V30 288 H 31.593 -1.94767 -0.626645 0
M  V30 289 H 31.603 -2.88245 -2.88754 0
M  V30 290 H 30.278 -3.63727 -2.01682 0
M  V30 291 H 28.855 -2.13168 -3.05964 0
M  V30 292 N 31.0401 0.771051 -1.3745 0
M  V30 293 C 32.2681 1.56015 -1.35893 0
M  V30 294 C 32.6831 1.88718 0.0555523 0
M  V30 295 O 32.0401 1.51502 1.01752 0
M  V30 296 C 32.0911 2.87001 -2.19801 0
M  V30 297 O 31.8121 2.557 -3.55738 0
M  V30 298 C 33.3131 3.81228 -2.26231 0
M  V30 299 H 30.5331 0.483317 -0.465453 0
M  V30 300 H 33.0771 0.955611 -1.80799 0
M  V30 301 H 31.2321 3.43877 -1.78402 0
M  V30 302 H 31.6461 3.39584 -3.99729 0
M  V30 303 H 33.1201 4.70139 -2.89263 0
M  V30 304 H 33.5971 4.20409 -1.27093 0
M  V30 305 H 34.2031 3.30281 -2.67945 0
M  V30 306 N 32.5182 1.22032 0.997298 0
M  V30 307 C 33.4812 0.987909 2.06816 0
M  V30 308 C 34.4812 -0.0440084 1.6074 0
M  V30 309 O 35.6712 0.194053 1.73116 0
M  V30 310 C 32.8032 0.49132 3.37341 0
M  V30 311 H 33.9962 1.93803 2.28868 0
M  V30 312 H 31.5492 1.03838 1.16822 0
M  V30 313 H 32.2842 -0.463364 3.20973 0
M  V30 314 H 32.0692 1.23575 3.72118 0
M  V30 315 H 33.5592 0.348824 4.16141 0
M  V30 316 N 33.9963 -1.19345 1.0293 0
M  V30 317 C 34.9593 -2.20793 0.615069 0
M  V30 318 C 35.9593 -1.57553 -0.321533 0
M  V30 319 O 37.1493 -1.73862 -0.108483 0
M  V30 320 C 34.2813 -3.40754 -0.0999222 0
M  V30 321 H 35.4743 -2.58955 1.51269 0
M  V30 322 H 33.0273 -1.3303 0.820534 0
M  V30 323 H 33.7623 -3.0811 -1.01187 0
M  V30 324 H 33.5473 -3.87889 0.57309 0
M  V30 325 H 35.0373 -4.15898 -0.376645 0
M  V30 326 N 35.4744 -0.807222 -1.35358 0
M  V30 327 C 36.4044 -0.232509 -2.3234 0
M  V30 328 C 37.3854 0.642386 -1.57504 0
M  V30 329 O 38.5704 0.572526 -1.85569 0
M  V30 330 C 35.7004 0.619238 -3.41735 0
M  V30 331 C 34.6544 -0.157215 -4.27711 0
M  V30 332 C 33.9804 0.816273 -5.28433 0
M  V30 333 C 35.2804 -1.35656 -5.04376 0
M  V30 334 H 36.9744 -1.04276 -2.80654 0
M  V30 335 H 34.5204 -0.50288 -1.34934 0
M  V30 336 H 36.4734 1.03137 -4.08584 0
M  V30 337 H 35.1974 1.46239 -2.92031 0
M  V30 338 H 33.8564 -0.550525 -3.62443 0
M  V30 339 H 33.5044 1.65494 -4.74996 0
M  V30 340 H 33.2044 0.301067 -5.86828 0
M  V30 341 H 34.7284 1.22659 -5.98153 0
M  V30 342 H 36.1424 -1.01927 -5.64166 0
M  V30 343 H 34.5394 -1.8063 -5.7227 0
M  V30 344 H 35.6094 -2.14288 -4.34981 0
M  V30 345 N 36.9525 1.47285 -0.560781 0
M  V30 346 C 38.2005 2.02064 -0.0379868 0
M  V30 347 C 38.5215 1.43711 1.31803 0
M  V30 348 O 37.7915 0.61362 1.86042 0
M  V30 349 H 36.3715 0.746918 -0.0110531 0
M  V30 350 H 39.0335 1.80648 -0.731598 0
M  V30 351 H 38.1295 3.12064 0.0474463 0
M  V30 352 N 38.4306 0.297415 1.54768 0
M  V30 353 C 39.6706 -0.313829 2.01976 0
M  V30 354 C 40.0346 -1.51366 1.1812 0
M  V30 355 O 41.2356 -2.19603 1.5501 0
M  V30 356 C 39.5066 -0.664964 3.51159 0
M  V30 357 S 41.0656 -1.25958 4.20333 0
M  V30 358 H 37.8836 -0.0965014 0.704421 0
M  V30 359 H 40.4856 0.424451 1.90837 0
M  V30 360 H 39.1896 0.21681 4.09827 0
M  V30 361 H 38.7206 -1.43413 3.66328 0
M  V30 362 H 40.7356 -2.54751 4.25813 0
M  V30 363 N 39.9087 -1.5758 0.0250728 0
M  V30 364 C 40.8387 -2.13007 -0.956575 0
M  V30 365 C 41.8197 -1.0452 -1.342 0
M  V30 366 O 43.0047 -1.32332 -1.42133 0
M  V30 367 C 40.1347 -2.65386 -2.24026 0
M  V30 368 C 39.0887 -3.78623 -1.99571 0
M  V30 369 C 38.4147 -4.17414 -3.3417 0
M  V30 370 C 39.7147 -5.04867 -1.33814 0
M  V30 371 H 41.4087 -2.9528 -0.494991 0
M  V30 372 H 38.9547 -1.42042 -0.236651 0
M  V30 373 H 40.9077 -3.02794 -2.93076 0
M  V30 374 H 39.6317 -1.80268 -2.72343 0
M  V30 375 H 38.2907 -3.41646 -1.32941 0
M  V30 376 H 37.9387 -3.29284 -3.80238 0
M  V30 377 H 37.6387 -4.93719 -3.18615 0
M  V30 378 H 39.1627 -4.57402 -4.04495 0
M  V30 379 H 40.5767 -5.39888 -1.92857 0
M  V30 380 H 38.9737 -5.86144 -1.28669 0
M  V30 381 H 40.0437 -4.83904 -0.310561 0
M  V30 382 N 41.3868 0.248026 -1.55636 0
M  V30 383 C 42.6328 0.97767 -1.77678 0
M  V30 384 C 42.9658 1.85016 -0.590135 0
M  V30 385 O 42.2408 1.90095 0.411611 0
M  V30 386 C 42.5238 1.83914 -3.09593 0
M  V30 387 C 42.3768 0.99491 -4.38659 0
M  V30 388 C 43.6958 2.82183 -3.37729 0
M  V30 389 H 40.8148 0.354005 -0.646413 0
M  V30 390 H 43.4568 0.248253 -1.88371 0
M  V30 391 H 41.6068 2.46104 -3.00608 0
M  V30 392 H 43.2788 0.391789 -4.59633 0
M  V30 393 H 41.5218 0.299231 -4.32767 0
M  V30 394 H 42.1928 1.63145 -5.2734 0
M  V30 395 H 44.6688 2.30129 -3.4667 0
M  V30 396 H 43.5448 3.39582 -4.31249 0
M  V30 397 H 43.8058 3.58588 -2.58586 0
M  V30 398 N 42.8649 1.48995 0.513639 0
M  V30 399 C 43.8119 1.6473 1.61656 0
M  V30 400 C 44.7819 0.488984 1.58739 0
M  V30 401 O 45.9669 0.714478 1.76918 0
M  V30 402 C 43.1069 1.7082 2.99858 0
M  V30 403 C 42.2199 2.9787 3.12885 0
M  V30 404 C 41.3549 2.95017 4.41744 0
M  V30 405 C 40.3939 4.16702 4.48359 0
M  V30 406 N 39.5309 4.11832 5.68629 0
M  V30 407 H 44.3709 2.58909 1.47547 0
M  V30 408 H 41.9079 1.28382 0.71808 0
M  V30 409 H 43.8659 1.72331 3.79944 0
M  V30 410 H 42.4959 0.801181 3.12699 0
M  V30 411 H 41.5479 3.06029 2.25944 0
M  V30 412 H 42.8599 3.8786 3.13633 0
M  V30 413 H 42.0139 2.95021 5.30139 0
M  V30 414 H 40.7529 2.02784 4.43542 0
M  V30 415 H 39.7579 4.16955 3.58369 0
M  V30 416 H 40.9829 5.10113 4.48287 0
M  V30 417 H 38.9289 3.22428 5.71293 0
M  V30 418 H 38.8459 4.95543 5.7094 0
M  V30 419 H 40.1139 4.1592 6.59266 0
M  V30 420 N 44.343 -0.763751 1.37857 0
M  V30 421 C 45.62 -1.51244 1.24035 0
M  V30 422 C 46 -2.10472 -0.162649 0
M  V30 423 O 45.348 -1.96206 -1.17112 0
M  V30 424 C 45.558 -2.58694 2.34261 0
M  V30 425 C 46.906 -3.25878 2.72193 0
M  V30 426 O 47.93 -2.68993 2.33497 0
M  V30 427 O 46.789 -4.2874 3.38887 0
M  V30 428 H 43.883 -0.670243 0.484462 0
M  V30 429 H 46.429 -0.800031 1.49658 0
M  V30 430 H 45.201 -2.13105 3.2818 0
M  V30 431 H 44.824 -3.37527 2.10146 0
M  V30 432 N 45.8211 -1.22559 -0.990812 0
M  V30 433 C 47.0511 -1.07623 -1.76355 0
M  V30 434 C 47.4591 0.37601 -1.85426 0
M  V30 435 O 46.8021 1.27228 -1.32509 0
M  V30 436 C 46.8641 -1.61507 -3.21179 0
M  V30 437 C 46.5281 -3.10146 -3.35646 0
M  V30 438 C 47.5251 -4.07553 -3.22796 0
M  V30 439 C 45.2101 -3.49644 -3.60631 0
M  V30 440 C 47.2041 -5.42442 -3.34716 0
M  V30 441 C 44.8911 -4.84682 -3.72192 0
M  V30 442 C 45.8891 -5.8089 -3.59243 0
M  V30 443 O 45.5771 -7.13476 -3.70415 0
M  V30 444 H 45.3091 -0.377745 -0.560611 0
M  V30 445 H 47.8631 -1.62658 -1.25425 0
M  V30 446 H 46.0931 -1.00881 -3.73309 0
M  V30 447 H 47.7821 -1.42202 -3.80175 0
M  V30 448 H 48.5481 -3.78381 -3.03403 0
M  V30 449 H 44.4271 -2.75282 -3.69785 0
M  V30 450 H 47.9711 -6.17518 -3.24526 0
M  V30 451 H 43.8681 -5.13534 -3.91092 0
M  V30 452 H 44.6361 -7.21083 -3.87275 0
M  V30 453 N 47.2992 1.18797 -1.03562 0
M  V30 454 C 48.5462 1.8865 -0.736023 0
M  V30 455 C 48.8742 1.80041 0.735889 0
M  V30 456 O 48.1292 1.19179 1.55225 0
M  V30 457 C 48.4282 3.38692 -1.14117 0
M  V30 458 C 48.0942 3.67504 -2.6125 0
M  V30 459 C 46.7562 3.75078 -3.01447 0
M  V30 460 C 49.1082 3.80293 -3.56408 0
M  V30 461 C 46.4362 3.92915 -4.35701 0
M  V30 462 C 48.7882 3.99645 -4.90374 0
M  V30 463 C 47.4522 4.05453 -5.30249 0
M  V30 464 H 46.7222 0.690321 -0.26933 0
M  V30 465 H 49.3692 1.40641 -1.29971 0
M  V30 466 H 47.6742 3.88645 -0.496202 0
M  V30 467 H 49.3712 3.91072 -0.886789 0
M  V30 468 H 45.9612 3.62223 -2.29113 0
M  V30 469 H 50.1452 3.73779 -3.26501 0
M  V30 470 H 45.4012 3.95653 -4.66121 0
M  V30 471 H 49.5752 4.08482 -5.64017 0
M  V30 472 H 47.2022 4.19027 -6.34288 0
M  V30 473 N 48.7773 0.814389 1.34928 0
M  V30 474 C 50.1883 0.458364 1.80986 0
M  V30 475 C 50.5393 -1.02042 1.67577 0
M  V30 476 O 49.6643 -1.79352 1.21086 0
M  V30 477 C 50.2593 0.825212 3.28597 0
M  V30 478 C 48.8183 0.521677 3.72767 0
M  V30 479 C 47.9653 1.04668 2.56788 0
M  V30 480 H 50.9163 1.00533 1.22795 0
M  V30 481 H 50.9373 0.12571 3.80292 0
M  V30 482 H 50.4493 1.90154 3.38324 0
M  V30 483 H 48.5503 -0.545589 3.68584 0
M  V30 484 H 48.6633 1.05977 4.67232 0
M  V30 485 H 47.0273 0.468622 2.50352 0
M  V30 486 H 47.8103 2.12927 2.6929 0
M  V30 487 N 50.2554 -1.46986 0.568584 0
M  V30 488 C 51.1654 -2.33942 -0.17555 0
M  V30 489 C 52.1814 -1.48891 -0.90041 0
M  V30 490 O 53.3574 -1.81794 -0.86676 0
M  V30 491 C 50.4224 -3.25811 -1.18524 0
M  V30 492 C 49.4834 -4.26757 -0.466582 0
M  V30 493 C 48.7164 -5.14236 -1.42817 0
M  V30 494 O 48.9394 -5.04379 -2.66379 0
M  V30 495 O 47.8734 -5.94412 -0.946453 0
M  V30 496 H 51.6994 -2.98896 0.538036 0
M  V30 497 H 49.2844 -1.4573 0.329097 0
M  V30 498 H 51.1664 -3.82527 -1.76779 0
M  V30 499 H 49.8414 -2.63471 -1.88055 0
M  V30 500 H 48.7484 -3.73769 0.157451 0
M  V30 501 H 50.0814 -4.91843 0.187485 0
M  V30 502 N 51.7335 -0.305618 -1.54608 0
M  V30 503 C 53.1445 0.186098 -1.8577 0
M  V30 504 C 53.4955 1.53058 -1.22751 0
M  V30 505 O 52.6205 2.09888 -0.526893 0
M  V30 506 C 53.2155 0.344449 -3.37044 0
M  V30 507 C 51.7745 0.780384 -3.68221 0
M  V30 508 C 50.9215 -0.108554 -2.77087 0
M  V30 509 H 53.8725 -0.526485 -1.49712 0
M  V30 510 H 53.8935 1.17828 -3.61796 0
M  V30 511 H 53.4055 -0.634235 -3.82883 0
M  V30 512 H 51.5065 1.76945 -3.27904 0
M  V30 513 H 51.6195 0.596572 -4.75371 0
M  V30 514 H 49.9835 0.412931 -2.5133 0
M  V30 515 H 50.7665 -1.08368 -3.25747 0
M  V30 516 N 53.2116 1.57565 -0.0334293 0
M  V30 517 C 54.4576 1.92262 0.645226 0
M  V30 518 C 54.7906 0.910543 1.71531 0
M  V30 519 O 54.0656 -0.066099 1.94388 0
M  V30 520 C 54.3486 3.37422 1.2577 0
M  V30 521 C 54.2016 4.49369 0.196891 0
M  V30 522 C 55.5206 3.82628 2.17449 0
M  V30 523 H 52.6396 0.699171 0.233085 0
M  V30 524 H 55.2816 1.89779 -0.0915694 0
M  V30 525 H 53.4316 3.39669 1.88566 0
M  V30 526 H 55.1036 4.59254 -0.433962 0
M  V30 527 H 53.3466 4.31168 -0.477137 0
M  V30 528 H 54.0176 5.47978 0.665124 0
M  V30 529 H 56.4936 3.82145 1.64634 0
M  V30 530 H 55.3696 4.84883 2.57254 0
M  V30 531 H 55.6306 3.18376 3.0674 0
M  V30 532 N 54.6897 -0.239769 1.55765 0
M  V30 533 C 55.9177 -0.98417 1.81994 0
M  V30 534 C 56.3327 -1.7867 0.610124 0
M  V30 535 O 55.6897 -1.77571 -0.421271 0
M  V30 536 C 55.7407 -1.91635 3.06526 0
M  V30 537 O 55.4617 -1.14629 4.22838 0
M  V30 538 C 56.9627 -2.77616 3.45607 0
M  V30 539 H 54.1827 -0.28928 0.605441 0
M  V30 540 H 56.7267 -0.260499 2.02834 0
M  V30 541 H 54.8817 -2.5942 2.87715 0
M  V30 542 H 55.2957 -1.77745 4.93464 0
M  V30 543 H 56.7697 -3.38759 4.35828 0
M  V30 544 H 57.2467 -3.4909 2.6652 0
M  V30 545 H 57.8527 -2.15271 3.66795 0
M  V30 546 N 56.1678 -1.49265 -0.50573 0
M  V30 547 C 57.4138 -1.58748 -1.26202 0
M  V30 548 C 57.7468 -0.271227 -1.92297 0
M  V30 549 O 57.0218 0.724831 -1.80489 0
M  V30 550 C 57.3048 -2.74332 -2.33268 0
M  V30 551 C 57.1578 -4.15737 -1.71705 0
M  V30 552 C 58.4768 -2.85576 -3.34865 0
M  V30 553 H 55.5958 -0.577826 -0.457478 0
M  V30 554 H 58.2378 -1.81532 -0.560897 0
M  V30 555 H 56.3878 -2.55036 -2.93068 0
M  V30 556 H 58.0598 -4.46537 -1.15769 0
M  V30 557 H 56.3028 -4.21605 -1.02135 0
M  V30 558 H 56.9738 -4.92477 -2.49341 0
M  V30 559 H 59.4498 -3.03127 -2.8505 0
M  V30 560 H 58.3258 -3.68135 -4.07146 0
M  V30 561 H 58.5868 -1.94732 -3.96903 0
M  V30 562 N 57.6459 0.756429 -1.3826 0
M  V30 563 C 58.8709 1.55077 -1.37717 0
M  V30 564 C 59.2959 1.88073 0.03164 0
M  V30 565 O 58.6539 1.50364 1.01293 0
M  V30 566 C 58.7019 2.8283 -2.23695 0
M  V30 567 O 57.8059 3.77862 -1.6521 0
M  V30 568 H 57.1469 0.469152 -0.469885 0
M  V30 569 H 59.6769 0.935019 -1.81985 0
M  V30 570 H 59.6869 3.31783 -2.37453 0
M  V30 571 H 58.3619 2.58144 -3.2609 0
M  V30 572 H 56.9389 3.36555 -1.60578 0
M  V30 573 N 59.124 1.23083 0.984299 0
M  V30 574 C 60.37 1.07221 1.72845 0
M  V30 575 C 60.725 -0.387453 1.88458 0
M  V30 576 O 60.018 -1.28309 1.42293 0
M  V30 577 C 60.212 1.72673 3.1292 0
M  V30 578 C 60.041 3.24853 3.10967 0
M  V30 579 C 58.811 3.93998 3.16376 0
M  V30 580 C 61.009 4.21674 2.94441 0
M  V30 581 N 58.991 5.33192 3.04268 0
M  V30 582 C 60.362 5.47756 2.90453 0
M  V30 583 C 62.417 4.12457 2.78897 0
M  V30 584 C 61.12 6.6568 2.72512 0
M  V30 585 C 63.146 5.3004 2.62319 0
M  V30 586 C 62.508 6.55046 2.59026 0
M  V30 587 H 58.607 0.44685 0.641755 0
M  V30 588 H 61.191 1.55753 1.16829 0
M  V30 589 H 59.362 1.26679 3.67161 0
M  V30 590 H 61.094 1.49824 3.75945 0
M  V30 591 H 57.849 3.45052 3.24401 0
M  V30 592 H 58.273 6.06157 3.015 0
M  V30 593 H 62.915 3.16588 2.80235 0
M  V30 594 H 60.633 7.61689 2.69919 0
M  V30 595 H 64.219 5.24747 2.5126 0
M  V30 596 H 63.099 7.44498 2.46357 0
M  V30 597 N 60.6021 -1.18246 1.0419 0
M  V30 598 C 61.5501 -2.23968 0.627792 0
M  V30 599 C 62.5441 -1.65828 -0.346019 0
M  V30 600 O 63.7501 -1.78733 -0.213175 0
M  V30 601 H 60.1251 -0.728939 0.184802 0
M  V30 602 H 62.0961 -2.56202 1.52981 0
M  V30 603 C 60.8451 -3.47699 0.00796591 0
M  V30 604 H 60.1681 -3.92734 0.748347 0
M  V30 605 H 61.6081 -4.23294 -0.24455 0
M  V30 606 C 60.0671 -3.13153 -1.24246 0
M  V30 607 O 60.5971 -3.27003 -2.33307 0
M  V30 608 N 58.8031 -2.67467 -1.13622 0
M  V30 609 H 58.3501 -2.56396 -0.248734 0
M  V30 610 H 58.3081 -2.44724 -1.97377 0
M  V30 611 N 62.0802 -0.821533 -1.34494 0
M  V30 612 C 63.3052 -0.420873 -2.03085 0
M  V30 613 C 63.7302 0.964915 -1.61465 0
M  V30 614 O 63.0882 1.62763 -0.798607 0
M  V30 615 C 63.1362 -0.529414 -3.56693 0
M  V30 616 O 62.2402 0.451302 -4.09923 0
M  V30 617 H 61.5812 -0.173489 -0.640935 0
M  V30 618 H 64.1112 -1.11157 -1.71771 0
M  V30 619 H 64.1212 -0.404671 -4.05988 0
M  V30 620 H 62.7962 -1.54014 -3.86332 0
M  V30 621 H 61.3732 0.285558 -3.71805 0
M  V30 622 N 63.5583 1.46682 -0.576371 0
M  V30 623 C 64.8063 2.02013 -0.0594163 0
M  V30 624 C 65.1273 1.45101 1.30271 0
M  V30 625 O 64.3973 0.633317 1.8538 0
M  V30 626 H 62.9773 0.746759 -0.0189745 0
M  V30 627 H 65.6393 1.79862 -0.750717 0
M  V30 628 H 64.7353 3.12097 0.014345 0
M  V30 629 N 65.0364 0.313813 1.54444 0
M  V30 630 C 65.9994 -0.54379 2.22656 0
M  V30 631 C 66.9994 -1.05124 1.21678 0
M  V30 632 O 68.1894 -0.945225 1.46325 0
M  V30 633 C 65.3214 -1.75427 2.92298 0
M  V30 634 H 66.5144 0.0523599 2.99854 0
M  V30 635 H 64.0674 0.0647834 1.56166 0
M  V30 636 H 64.8024 -2.38991 2.19211 0
M  V30 637 H 64.5874 -1.39791 3.66334 0
M  V30 638 H 66.0774 -2.36325 3.44297 0
M  V30 639 N 66.5145 -1.57545 0.0417849 0
M  V30 640 C 67.4445 -2.14009 -0.933929 0
M  V30 641 C 68.4255 -1.05938 -1.33083 0
M  V30 642 O 69.6105 -1.33833 -1.40721 0
M  V30 643 C 66.7405 -2.67747 -2.21199 0
M  V30 644 C 65.6945 -3.80718 -1.95544 0
M  V30 645 C 65.0205 -4.20935 -3.29724 0
M  V30 646 C 66.3205 -5.06258 -1.28452 0
M  V30 647 H 68.0145 -2.95788 -0.463645 0
M  V30 648 H 65.5605 -1.42285 -0.221573 0
M  V30 649 H 67.5135 -3.05886 -2.89848 0
M  V30 650 H 66.2375 -1.83147 -2.70416 0
M  V30 651 H 64.8965 -3.43037 -1.2931 0
M  V30 652 H 64.5445 -3.33298 -3.76724 0
M  V30 653 H 64.2445 -4.9707 -3.13361 0
M  V30 654 H 65.7685 -4.61666 -3.9962 0
M  V30 655 H 67.1825 -5.41903 -1.8712 0
M  V30 656 H 65.5795 -5.87475 -1.22445 0
M  V30 657 H 66.6495 -4.84207 -0.259219 0
M  V30 658 N 67.9926 0.231505 -1.5589 0
M  V30 659 C 69.2206 0.974505 -1.82513 0
M  V30 660 C 69.6356 1.78344 -0.619591 0
M  V30 661 O 68.9926 1.77792 0.411848 0
M  V30 662 C 69.0436 1.90007 -3.07538 0
M  V30 663 O 68.7646 1.12385 -4.2344 0
M  V30 664 C 70.2656 2.75779 -3.47075 0
M  V30 665 H 67.4856 0.286065 -0.606966 0
M  V30 666 H 70.0296 0.249739 -2.02969 0
M  V30 667 H 68.1846 2.57891 -2.89086 0
M  V30 668 H 68.5986 1.75125 -4.944 0
M  V30 669 H 70.0726 3.36443 -4.37619 0
M  V30 670 H 70.5496 3.47672 -2.68367 0
M  V30 671 H 71.1556 2.13323 -3.67931 0
M  V30 672 N 69.4707 1.49531 0.497807 0
M  V30 673 C 70.6957 1.63159 1.28039 0
M  V30 674 C 71.1207 0.30418 1.85624 0
M  V30 675 O 70.4787 -0.728618 1.66015 0
M  V30 676 C 70.5267 2.70537 2.38416 0
M  V30 677 O 69.6307 2.29931 3.42353 0
M  V30 678 H 68.9717 0.546001 0.377861 0
M  V30 679 H 71.5017 1.9574 0.59558 0
M  V30 680 H 71.5117 2.92802 2.84132 0
M  V30 681 H 70.1867 3.6689 1.95869 0
M  V30 682 H 68.7637 2.18009 3.02533 0
M  V30 683 N 70.9488 -0.749086 1.3866 0
M  V30 684 C 72.1968 -1.50535 1.34847 0
M  V30 685 C 72.5178 -1.94909 -0.0595016 0
M  V30 686 O 71.7878 -1.67973 -1.00806 0
M  V30 687 H 70.3678 -0.558395 0.49619 0
M  V30 688 H 73.0298 -0.890165 1.73384 0
M  V30 689 H 72.1258 -2.39413 2.00219 0
M  V30 690 N 72.4269 -1.23603 -0.977757 0
M  V30 691 C 73.6729 -1.07129 -1.72195 0
M  V30 692 C 74.0059 0.390501 -1.90233 0
M  V30 693 O 73.2809 1.28902 -1.45653 0
M  V30 694 C 73.5639 -1.80031 -3.11867 0
M  V30 695 C 73.4169 -3.33899 -3.01383 0
M  V30 696 C 74.7359 -1.56492 -4.11337 0
M  V30 697 H 71.8549 -0.390571 -0.624999 0
M  V30 698 H 74.4969 -1.52142 -1.13811 0
M  V30 699 H 72.6469 -1.41768 -3.6171 0
M  V30 700 H 74.3189 -3.81699 -2.59043 0
M  V30 701 H 72.5619 -3.62796 -2.37827 0
M  V30 702 H 73.2329 -3.801 -4.00285 0
M  V30 703 H 75.7089 -1.89757 -3.70313 0
M  V30 704 H 74.5849 -2.09973 -5.07151 0
M  V30 705 H 74.8459 -0.500874 -4.39254 0
M  V30 706 N 73.905 1.17692 -1.04816 0
M  V30 707 C 74.855 2.1952 -0.616042 0
M  V30 708 C 75.839 1.57147 0.345485 0
M  V30 709 O 77.031 1.76245 0.163325 0
M  V30 710 C 74.16 3.43298 0.0116917 0
M  V30 711 C 73.246 4.12777 -0.973435 0
M  V30 712 N 73.637 4.5814 -2.14339 0
M  V30 713 C 71.935 4.38747 -0.80108 0
M  V30 714 C 72.636 5.11713 -2.7663 0
M  V30 715 N 71.612 5.03686 -2.04453 0
M  V30 716 H 75.414 2.52293 -1.5075 0
M  V30 717 H 72.928 1.3398 -0.917776 0
M  V30 718 H 74.925 4.15519 0.339006 0
M  V30 719 H 73.585 3.12018 0.898593 0
M  V30 720 H 74.596 4.52349 -2.52191 0
M  V30 721 H 71.273 4.17485 0.0350934 0
M  V30 722 H 72.663 5.56962 -3.75823 0
M  V30 723 N 75.3831 0.828654 1.34056 0
M  V30 724 C 76.6111 0.43262 2.02326 0
M  V30 725 C 77.0261 -0.963147 1.62385 0
M  V30 726 O 76.3831 -1.62425 0.832121 0
M  V30 727 C 76.4341 0.53182 3.57567 0
M  V30 728 O 76.1551 1.87258 3.96063 0
M  V30 729 C 77.6561 0.131422 4.43105 0
M  V30 730 H 74.8761 0.172923 0.648335 0
M  V30 731 H 77.4201 1.1184 1.71208 0
M  V30 732 H 75.5751 -0.105938 3.87255 0
M  V30 733 H 75.9891 1.85087 4.90758 0
M  V30 734 H 77.4631 0.251904 5.51425 0
M  V30 735 H 77.9401 -0.925645 4.29335 0
M  V30 736 H 78.5461 0.743207 4.18756 0
M  V30 737 N 76.8612 -1.46375 0.584142 0
M  V30 738 C 78.1082 -2.02378 0.0702675 0
M  V30 739 C 78.4362 -1.45545 -1.29023 0
M  V30 740 O 77.6912 -0.610967 -1.85918 0
M  V30 741 C 77.9902 -3.57373 -0.0439342 0
M  V30 742 C 77.6562 -4.33252 1.24915 0
M  V30 743 C 76.3182 -4.53701 1.60341 0
M  V30 744 C 78.6702 -4.7681 2.1048 0
M  V30 745 C 75.9982 -5.1496 2.81128 0
M  V30 746 C 78.3502 -5.39404 3.30494 0
M  V30 747 C 77.0142 -5.5808 3.66201 0
M  V30 748 H 76.2842 -0.740554 0.0257127 0
M  V30 749 H 78.9312 -1.75727 0.761065 0
M  V30 750 H 77.2362 -3.83169 -0.817869 0
M  V30 751 H 78.9332 -3.98384 -0.457318 0
M  V30 752 H 75.5232 -4.17633 0.963364 0
M  V30 753 H 79.7072 -4.60766 1.84414 0
M  V30 754 H 74.9632 -5.27611 3.08928 0
M  V30 755 H 79.1372 -5.72114 3.97063 0
M  V30 756 H 76.7642 -6.05318 4.59885 0
M  V30 757 N 78.3393 -0.321999 -1.54275 0
M  V30 758 C 79.7503 0.166384 -1.85957 0
M  V30 759 C 80.1013 1.51747 -1.24367 0
M  V30 760 O 79.2263 2.09317 -0.549124 0
M  V30 761 C 79.8213 0.308681 -3.37391 0
M  V30 762 C 78.3803 0.741286 -3.69028 0
M  V30 763 C 77.5273 -0.137937 -2.76957 0
M  V30 764 H 80.4783 -0.542335 -1.49146 0
M  V30 765 H 80.4993 1.13984 -3.63026 0
M  V30 766 H 80.0113 -0.674809 -3.82188 0
M  V30 767 H 78.1123 1.73458 -3.29762 0
M  V30 768 H 78.2253 0.546118 -4.75977 0
M  V30 769 H 76.5893 0.386251 -2.51754 0
M  V30 770 H 77.3723 -1.11816 -3.2458 0
M  V30 771 N 79.8174 1.5752 -0.0501392 0
M  V30 772 C 80.7804 2.1037 0.909786 0
M  V30 773 C 81.7804 1.02308 1.24056 0
M  V30 774 O 82.9704 1.28385 1.17741 0
M  V30 775 C 80.1024 2.58708 2.21998 0
M  V30 776 H 81.2954 2.96479 0.451665 0
M  V30 777 H 78.8484 1.55038 0.198248 0
M  V30 778 H 79.5834 1.75989 2.72394 0
M  V30 779 H 79.3684 3.37675 1.99295 0
M  V30 780 H 80.8584 2.99747 2.9076 0
M  V30 781 N 81.2955 -0.223234 1.56011 0
M  V30 782 C 82.5415 -0.949279 1.79211 0
M  V30 783 C 82.8745 -1.84054 0.619494 0
M  V30 784 O 82.1495 -1.90726 -0.381317 0
M  V30 785 C 82.4325 -1.78965 3.12479 0
M  V30 786 C 82.2855 -0.924997 4.40186 0
M  V30 787 C 83.6045 -2.76774 3.42175 0
M  V30 788 H 80.7235 -0.343676 0.651963 0
M  V30 789 H 83.3655 -0.218253 1.88742 0
M  V30 790 H 81.5155 -2.41291 3.04485 0
M  V30 791 H 83.1875 -0.318615 4.60198 0
M  V30 792 H 81.4305 -0.230344 4.33188 0
M  V30 793 H 82.1015 -1.54735 5.29869 0
M  V30 794 H 84.5775 -2.24584 3.50287 0
M  V30 795 H 83.4535 -3.32678 4.36597 0
M  V30 796 H 83.7145 -3.54429 2.64258 0
M  V30 797 N 82.7736 -1.49793 -0.48987 0
M  V30 798 C 83.7036 -1.70201 -1.59856 0
M  V30 799 C 84.6846 -0.55076 -1.60937 0
M  V30 800 O 85.8696 -0.787841 -1.77501 0
M  V30 801 C 82.9996 -1.77882 -2.98287 0
M  V30 802 C 81.9536 -2.92907 -3.12073 0
M  V30 803 C 81.2796 -2.85712 -4.51965 0
M  V30 804 C 82.5796 -4.3369 -2.91051 0
M  V30 805 H 84.2736 -2.63025 -1.43032 0
M  V30 806 H 81.8196 -1.26574 -0.686664 0
M  V30 807 H 83.7726 -1.90744 -3.75759 0
M  V30 808 H 82.4966 -0.816653 -3.16225 0
M  V30 809 H 81.1556 -2.79665 -2.37029 0
M  V30 810 H 80.8036 -1.8738 -4.66795 0
M  V30 811 H 80.5036 -3.62921 -4.62128 0
M  V30 812 H 82.0276 -3.00598 -5.31482 0
M  V30 813 H 83.4416 -4.47555 -3.58284 0
M  V30 814 H 81.8386 -5.12205 -3.12675 0
M  V30 815 H 82.9086 -4.47362 -1.87071 0
M  V30 816 N 84.2517 0.741722 -1.39055 0
M  V30 817 C 85.1837 1.8657 -1.33133 0
M  V30 818 C 86.1967 1.61001 -0.241329 0
M  V30 819 O 87.3857 1.7136 -0.499784 0
M  V30 820 C 84.4857 3.22457 -1.04283 0
M  V30 821 C 83.6587 3.75435 -2.24427 0
M  V30 822 C 82.7177 4.89867 -1.92138 0
M  V30 823 O 81.7437 5.03879 -2.64754 0
M  V30 824 N 82.9457 5.73738 -0.88347 0
M  V30 825 H 85.7107 1.92156 -2.29991 0
M  V30 826 H 83.2717 0.922172 -1.3307 0
M  V30 827 H 85.2637 3.9657 -0.807128 0
M  V30 828 H 83.8337 3.12181 -0.161807 0
M  V30 829 H 83.0537 2.92751 -2.6399 0
M  V30 830 H 84.3417 4.07563 -3.04581 0
M  V30 831 H 83.7397 5.64999 -0.281517 0
M  V30 832 H 82.2967 6.47947 -0.707662 0
M  V30 833 N 85.7298 1.2412 0.971189 0
M  V30 834 C 86.9548 1.10667 1.75407 0
M  V30 835 C 87.3798 -0.337048 1.85056 0
M  V30 836 O 86.7378 -1.24396 1.31892 0
M  V30 837 C 86.7858 1.74726 3.15441 0
M  V30 838 O 85.8898 1.01566 3.99697 0
M  V30 839 H 85.2308 0.387341 0.539317 0
M  V30 840 H 87.7608 1.64358 1.2185 0
M  V30 841 H 87.7708 1.80341 3.6598 0
M  V30 842 H 86.4458 2.79773 3.07734 0
M  V30 843 H 85.0228 1.03713 3.58187 0
M  V30 844 N 87.2079 -1.17134 1.05439 0
M  V30 845 C 88.4329 -1.91913 0.786396 0
M  V30 846 C 88.8579 -1.7643 -0.652234 0
M  V30 847 O 88.2159 -1.08372 -1.45345 0
M  V30 848 C 88.2639 -3.40921 1.17497 0
M  V30 849 O 87.3679 -4.11244 0.308589 0
M  V30 850 H 86.7089 -0.598215 0.288158 0
M  V30 851 H 89.2389 -1.48457 1.4079 0
M  V30 852 H 89.2489 -3.91668 1.14281 0
M  V30 853 H 87.9239 -3.5151 2.22292 0
M  V30 854 H 86.5009 -3.70731 0.40157 0
M  V30 855 N 88.686 -0.835752 -1.33615 0
M  V30 856 C 89.934 -0.429109 -1.97492 0
M  V30 857 C 90.255 1.01433 -1.66543 0
M  V30 858 O 89.525 1.70611 -0.962744 0
M  V30 859 H 88.105 -0.155686 -0.730596 0
M  V30 860 H 90.767 -1.06802 -1.63031 0
M  V30 861 H 89.863 -0.55861 -3.0706 0
M  V30 862 N 90.1641 1.46063 -0.591896 0
M  V30 863 C 91.0941 2.33172 0.123673 0
M  V30 864 C 92.0751 1.45897 0.87453 0
M  V30 865 O 93.2601 1.74698 0.848181 0
M  V30 866 C 90.3901 3.28336 1.13194 0
M  V30 867 C 89.3441 4.25124 0.495324 0
M  V30 868 C 88.6701 5.09863 1.61071 0
M  V30 869 C 89.9701 5.19143 -0.573425 0
M  V30 870 H 91.6641 2.93252 -0.603646 0
M  V30 871 H 89.2101 1.41014 -0.291741 0
M  V30 872 H 91.1631 3.88137 1.64097 0
M  V30 873 H 89.8871 2.66383 1.88965 0
M  V30 874 H 88.5461 3.66599 0.00729452 0
M  V30 875 H 88.1941 4.44288 2.35832 0
M  V30 876 H 87.8941 5.75417 1.19035 0
M  V30 877 H 89.4181 5.72529 2.12233 0
M  V30 878 H 90.8321 5.73106 -0.1491 0
M  V30 879 H 89.2291 5.93089 -0.914636 0
M  V30 880 H 90.2991 4.62519 -1.45617 0
M  V30 881 N 91.6422 0.330177 1.54103 0
M  V30 882 C 92.8722 -0.271784 2.04805 0
M  V30 883 C 93.2802 -1.45816 1.20559 0
M  V30 884 O 92.6232 -1.82247 0.2306 0
M  V30 885 C 92.6852 -0.763238 3.51305 0
M  V30 886 C 92.3492 0.301705 4.56003 0
M  V30 887 C 93.3462 1.13999 5.07248 0
M  V30 888 C 91.0312 0.451793 5.00264 0
M  V30 889 C 93.0252 2.11402 6.01322 0
M  V30 890 C 90.7122 1.42924 5.94151 0
M  V30 891 C 91.7102 2.25882 6.44567 0
M  V30 892 O 91.3982 3.21965 7.3661 0
M  V30 893 H 91.1302 -0.058693 0.673447 0
M  V30 894 H 93.6842 0.476395 1.99799 0
M  V30 895 H 91.9142 -1.56244 3.5373 0
M  V30 896 H 93.6032 -1.28427 3.85047 0
M  V30 897 H 94.3692 1.03505 4.73827 0
M  V30 898 H 90.2482 -0.184044 4.60632 0
M  V30 899 H 93.7922 2.76192 6.40596 0
M  V30 900 H 89.6892 1.53479 6.26988 0
M  V30 901 H 90.4572 3.17281 7.54503 0
M  V30 902 N 93.1203 -1.57491 0.0584922 0
M  V30 903 C 94.3453 -1.97711 -0.62652 0
M  V30 904 C 94.7703 -0.936132 -1.63151 0
M  V30 905 O 94.1283 0.099811 -1.81025 0
M  V30 906 C 94.1763 -3.36989 -1.28338 0
M  V30 907 O 93.2803 -3.35433 -2.39913 0
M  V30 908 H 92.6213 -0.643868 -0.162266 0
M  V30 909 H 95.1513 -2.04193 0.129064 0
M  V30 910 H 95.1613 -3.73879 -1.63335 0
M  V30 911 H 93.8363 -4.12289 -0.546889 0
M  V30 912 H 92.4133 -3.10298 -2.06809 0
M  V30 913 N 94.5984 0.214957 -1.56127 0
M  V30 914 C 95.5284 1.2695 -1.95974 0
M  V30 915 C 96.5094 1.48539 -0.828868 0
M  V30 916 O 97.6944 1.60611 -1.09168 0
M  V30 917 C 94.8244 2.61794 -2.28214 0
M  V30 918 C 93.7784 2.54851 -3.43853 0
M  V30 919 C 93.1044 3.93785 -3.61715 0
M  V30 920 C 94.4044 2.09065 -4.78632 0
M  V30 921 H 96.0984 0.93846 -2.84312 0
M  V30 922 H 93.6444 0.449996 -1.36788 0
M  V30 923 H 95.5974 3.35731 -2.54682 0
M  V30 924 H 94.3214 2.96599 -1.36736 0
M  V30 925 H 92.9804 1.8337 -3.17444 0
M  V30 926 H 92.6284 4.25908 -2.67602 0
M  V30 927 H 92.3284 3.90019 -4.39498 0
M  V30 928 H 93.8524 4.69374 -3.90539 0
M  V30 929 H 95.2664 2.7275 -5.04262 0
M  V30 930 H 93.6634 2.16346 -5.59745 0
M  V30 931 H 94.7334 1.04315 -4.73547 0
M  V30 932 N 96.0765 1.50051 0.48192 0
M  V30 933 C 97.3015 1.64508 1.26301 0
M  V30 934 C 97.7265 0.323851 1.85291 0
M  V30 935 O 97.0845 -0.710969 1.66778 0
M  V30 936 C 97.1325 2.7305 2.35533 0
M  V30 937 O 96.2365 2.3355 3.39895 0
M  V30 938 H 95.5775 0.549978 0.372048 0
M  V30 939 H 98.1075 1.9636 0.574786 0
M  V30 940 H 98.1175 2.95799 2.8101 0
M  V30 941 H 96.7925 3.68946 1.91967 0
M  V30 942 H 95.3695 2.21205 3.00204 0
M  V30 943 N 97.5546 -0.734337 1.39446 0
M  V30 944 C 98.7796 -1.52866 1.40167 0
M  V30 945 C 99.2046 -1.881 -0.00171513 0
M  V30 946 O 98.5626 -1.51957 -0.988879 0
M  V30 947 C 98.6106 -2.79235 2.28167 0
M  V30 948 O 97.7146 -3.75185 1.71201 0
M  V30 949 H 97.0556 -0.461618 0.477289 0
M  V30 950 H 99.5856 -0.905949 1.8345 0
M  V30 951 H 99.5956 -3.27963 2.42702 0
M  V30 952 H 98.2706 -2.52923 3.30156 0
M  V30 953 H 96.8476 -3.33958 1.65912 0
M  V30 954 N 99.0327 -1.24633 -0.964593 0
M  V30 955 C 100.279 -1.08949 -1.71049 0
M  V30 956 C 100.612 0.370302 -1.90637 0
M  V30 957 O 99.8867 1.27349 -1.47011 0
M  V30 958 C 100.17 -1.83329 -3.0994 0
M  V30 959 C 100.023 -3.37077 -2.97824 0
M  V30 960 C 101.342 -1.60846 -4.09654 0
M  V30 961 H 98.4607 -0.397178 -0.620821 0
M  V30 962 H 101.103 -1.5334 -1.12191 0
M  V30 963 H 99.2527 -1.45597 -3.60186 0
M  V30 964 H 100.925 -3.84425 -2.5498 0
M  V30 965 H 99.1677 -3.65298 -2.33965 0
M  V30 966 H 99.8387 -3.84324 -3.96231 0
M  V30 967 H 102.315 -1.93674 -3.68279 0
M  V30 968 H 101.191 -2.1534 -5.04896 0
M  V30 969 H 101.452 -0.547434 -4.38698 0
M  V30 970 N 100.511 1.16574 -1.06058 0
M  V30 971 C 101.757 1.87324 -0.777022 0
M  V30 972 C 102.09 1.81351 0.694645 0
M  V30 973 O 101.365 1.22753 1.50871 0
M  V30 974 C 101.648 3.36991 -1.26922 0
M  V30 975 C 101.501 3.51667 -2.80447 0
M  V30 976 C 102.82 4.3131 -0.87521 0
M  V30 977 H 99.9388 0.680191 -0.28374 0
M  V30 978 H 102.581 1.37036 -1.3161 0
M  V30 979 H 100.731 3.79949 -0.81063 0
M  V30 980 H 102.403 3.17664 -3.34495 0
M  V30 981 H 100.646 2.93656 -3.19294 0
M  V30 982 H 101.317 4.56766 -3.0995 0
M  V30 983 H 103.793 3.9624 -1.27014 0
M  V30 984 H 102.669 5.34545 -1.2471 0
M  V30 985 H 102.93 4.41552 0.220071 0
M  V30 986 N 101.989 0.842826 1.3317 0
M  V30 987 C 103.217 0.454055 2.01856 0
M  V30 988 C 103.632 -0.94587 1.63397 0
M  V30 989 O 102.989 -1.61534 0.849302 0
M  V30 990 C 103.04 0.569715 3.56982 0
M  V30 991 O 102.761 1.91448 3.94055 0
M  V30 992 C 104.262 0.178412 4.42941 0
M  V30 993 H 101.482 0.17979 0.646465 0
M  V30 994 H 104.026 1.1365 1.70012 0
M  V30 995 H 102.181 -0.0648587 3.87346 0
M  V30 996 H 102.595 1.90282 4.88767 0
M  V30 997 H 104.069 0.310376 5.51127 0
M  V30 998 H 104.546 -0.880056 4.30293 0
M  V30 999 H 105.152 0.787579 4.17944 0
M  V30 1000 N 103.467 -1.45747 0.599634 0
M  V30 1001 C 104.713 -2.02592 0.0918643 0
M  V30 1002 C 105.046 -1.46806 -1.27128 0
M  V30 1003 O 104.321 -0.639658 -1.83681 0
M  V30 1004 C 104.604 -3.60073 0.0443398 0
M  V30 1005 C 104.457 -4.26208 1.43759 0
M  V30 1006 C 105.776 -4.35309 -0.647608 0
M  V30 1007 H 102.895 -0.736175 0.034857 0
M  V30 1008 H 105.537 -1.73694 0.770081 0
M  V30 1009 H 103.687 -3.84823 -0.533224 0
M  V30 1010 H 105.359 -4.12668 2.06162 0
M  V30 1011 H 103.602 -3.84916 2.00056 0
M  V30 1012 H 104.273 -5.35069 1.35665 0
M  V30 1013 H 106.749 -4.15805 -0.156776 0
M  V30 1014 H 105.625 -5.45038 -0.649942 0
M  V30 1015 H 105.886 -4.07598 -1.71219 0
M  V30 1016 N 104.945 -0.338344 -1.53925 0
M  V30 1017 C 106.356 0.146651 -1.86123 0
M  V30 1018 C 106.707 1.5042 -1.2597 0
M  V30 1019 O 105.832 2.08723 -0.571294 0
M  V30 1020 C 106.427 0.272879 -3.37699 0
M  V30 1021 C 104.986 0.702103 -3.69794 0
M  V30 1022 C 104.133 -0.167304 -2.76795 0
M  V30 1023 H 107.084 -0.558123 -1.48562 0
M  V30 1024 H 107.105 1.10128 -3.64214 0
M  V30 1025 H 106.617 -0.715307 -3.81451 0
M  V30 1026 H 104.718 1.6995 -3.31584 0
M  V30 1027 H 104.831 0.495604 -4.7653 0
M  V30 1028 H 103.195 0.359527 -2.5215 0
M  V30 1029 H 103.978 -1.15253 -3.23375 0
M  V30 1030 N 106.423 1.57458 -0.0668435 0
M  V30 1031 C 107.648 1.9804 0.616027 0
M  V30 1032 C 108.073 0.944771 1.62652 0
M  V30 1033 O 107.431 -0.0902094 1.81075 0
M  V30 1034 C 107.479 3.37665 1.26549 0
M  V30 1035 O 106.583 3.36701 2.38131 0
M  V30 1036 H 105.924 0.644719 0.158849 0
M  V30 1037 H 108.454 2.04121 -0.139891 0
M  V30 1038 H 108.464 3.7474 1.6135 0
M  V30 1039 H 107.139 4.12573 0.525016 0
M  V30 1040 H 105.716 3.1139 2.0516 0
M  V30 1041 N 107.901 -0.206675 1.56239 0
M  V30 1042 C 109.126 -0.949474 1.8439 0
M  V30 1043 C 109.551 -1.76549 0.649016 0
M  V30 1044 O 108.909 -1.76782 -0.402231 0
M  V30 1045 C 108.957 -1.83078 3.10668 0
M  V30 1046 O 108.061 -2.9281 2.90407 0
M  V30 1047 H 107.402 -0.268033 0.607499 0
M  V30 1048 H 109.932 -0.215488 2.03462 0
M  V30 1049 H 109.942 -2.2377 3.41161 0
M  V30 1050 H 108.617 -1.23112 3.97261 0
M  V30 1051 H 107.194 -2.55956 2.71184 0
M  V30 1052 N 109.379 -1.50304 -0.473955 0
M  V30 1053 C 110.327 -1.69482 -1.59307 0
M  V30 1054 C 111.321 -0.560669 -1.59853 0
M  V30 1055 O 112.527 -0.741087 -1.64036 0
M  V30 1056 H 108.902 -0.534892 -0.528578 0
M  V30 1057 H 110.873 -2.63364 -1.40293 0
M  V30 1058 C 109.622 -1.80354 -2.97267 0
M  V30 1059 H 108.945 -2.67012 -2.97564 0
M  V30 1060 H 110.385 -1.97798 -3.75036 0
M  V30 1061 C 108.844 -0.55448 -3.32306 0
M  V30 1062 O 109.374 0.307661 -4.0052 0
M  V30 1063 N 107.58 -0.409354 -2.87702 0
M  V30 1064 H 107.127 -1.11196 -2.32364 0
M  V30 1065 H 107.085 0.425223 -3.11511 0
M  V30 1066 N 110.857 0.726932 -1.39834 0
M  V30 1067 C 112.104 1.48664 -1.37496 0
M  V30 1068 C 112.432 1.94482 0.0264678 0
M  V30 1069 O 111.687 1.67692 1.00886 0
M  V30 1070 C 111.986 2.73495 -2.30077 0
M  V30 1071 C 111.652 2.46502 -3.77555 0
M  V30 1072 C 110.314 2.3885 -4.17737 0
M  V30 1073 C 112.666 2.23604 -4.70798 0
M  V30 1074 C 109.994 2.06352 -5.49214 0
M  V30 1075 C 112.346 1.92622 -6.02561 0
M  V30 1076 C 111.01 1.83444 -6.41798 0
M  V30 1077 H 110.28 0.544001 -0.503135 0
M  V30 1078 H 112.927 0.833657 -1.72402 0
M  V30 1079 H 111.232 3.43575 -1.88317 0
M  V30 1080 H 112.929 3.31549 -2.25558 0
M  V30 1081 H 109.519 2.5334 -3.45712 0
M  V30 1082 H 113.703 2.28479 -4.40581 0
M  V30 1083 H 108.959 1.97776 -5.78528 0
M  V30 1084 H 113.133 1.73914 -6.74334 0
M  V30 1085 H 110.76 1.58029 -7.43593 0
M  V30 1086 N 112.336 1.25143 0.95797 0
M  V30 1087 C 113.584 1.09476 1.69881 0
M  V30 1088 C 113.905 -0.365502 1.91544 0
M  V30 1089 O 113.175 -1.25985 1.50015 0
M  V30 1090 H 111.755 0.402128 0.629525 0
M  V30 1091 H 114.417 1.57214 1.15194 0
M  V30 1092 H 113.513 1.60046 2.6794 0
M  V30 1093 N 113.814 -1.1601 1.06675 0
M  V30 1094 C 115.042 -1.90527 0.806667 0
M  V30 1095 C 115.457 -1.77643 -0.639396 0
M  V30 1096 O 114.814 -1.12369 -1.43803 0
M  V30 1097 C 114.865 -3.41106 1.19705 0
M  V30 1098 O 114.586 -3.53608 2.58636 0
M  V30 1099 C 116.087 -4.32663 0.965266 0
M  V30 1100 H 113.307 -0.604053 0.292166 0
M  V30 1101 H 115.851 -1.47026 1.4214 0
M  V30 1102 H 114.006 -3.82296 0.626774 0
M  V30 1103 H 114.42 -4.47011 2.74375 0
M  V30 1104 H 115.894 -5.36763 1.288 0
M  V30 1105 H 116.371 -4.39089 -0.0987936 0
M  V30 1106 H 116.977 -3.97206 1.52011 0
M  V30 1107 N 115.292 -0.849877 -1.32721 0
M  V30 1108 C 116.224 -0.248332 -2.27851 0
M  V30 1109 C 117.237 0.577218 -1.52224 0
M  V30 1110 O 118.426 0.402489 -1.73903 0
M  V30 1111 C 115.526 0.668107 -3.32249 0
M  V30 1112 C 114.699 -0.120534 -4.37234 0
M  V30 1113 C 113.758 0.720932 -5.21238 0
M  V30 1114 O 112.784 0.156166 -5.68986 0
M  V30 1115 N 113.986 2.03647 -5.43607 0
M  V30 1116 H 116.751 -1.06575 -2.80111 0
M  V30 1117 H 114.312 -0.709395 -1.45531 0
M  V30 1118 H 116.304 1.23627 -3.85355 0
M  V30 1119 H 114.874 1.38621 -2.80184 0
M  V30 1120 H 114.094 -0.870108 -3.84477 0
M  V30 1121 H 115.382 -0.662406 -5.0447 0
M  V30 1122 H 114.78 2.51871 -5.06535 0
M  V30 1123 H 113.337 2.55287 -5.99727 0
M  V30 1124 N 116.77 1.45427 -0.607355 0
M  V30 1125 C 117.998 2.06614 -0.108814 0
M  V30 1126 C 118.413 1.45204 1.2067 0
M  V30 1127 O 117.77 0.566132 1.73497 0
M  V30 1128 C 117.821 3.61481 0.0375347 0
M  V30 1129 O 117.542 4.20598 -1.22593 0
M  V30 1130 C 119.043 4.39652 0.567561 0
M  V30 1131 H 116.263 0.66747 -0.0687351 0
M  V30 1132 H 118.807 1.86675 -0.835022 0
M  V30 1133 H 116.962 3.80762 0.714068 0
M  V30 1134 H 117.376 5.1377 -1.05547 0
M  V30 1135 H 118.85 5.48518 0.61905 0
M  V30 1136 H 119.327 4.09417 1.58978 0
M  V30 1137 H 119.933 4.25234 -0.0749202 0
M  V30 1138 N 118.248 0.346503 1.53744 0
M  V30 1139 C 119.478 -0.250047 2.05081 0
M  V30 1140 C 119.886 -1.44529 1.22098 0
M  V30 1141 O 119.229 -1.81992 0.249917 0
M  V30 1142 C 119.291 -0.725934 3.52094 0
M  V30 1143 C 118.955 0.350053 4.55657 0
M  V30 1144 C 119.952 1.19372 5.0601 0
M  V30 1145 C 117.637 0.504827 4.99757 0
M  V30 1146 C 119.631 2.17768 5.99046 0
M  V30 1147 C 117.318 1.49218 5.92602 0
M  V30 1148 C 118.316 2.32706 6.42135 0
M  V30 1149 O 118.004 3.2976 7.33153 0
M  V30 1150 H 117.736 -0.0515469 0.674032 0
M  V30 1151 H 120.29 0.497559 1.99282 0
M  V30 1152 H 118.52 -1.52483 3.55367 0
M  V30 1153 H 120.209 -1.24336 3.86388 0
M  V30 1154 H 120.975 1.08525 4.72702 0
M  V30 1155 H 116.854 -0.135178 4.60802 0
M  V30 1156 H 120.398 2.82971 6.37631 0
M  V30 1157 H 116.295 1.6012 6.25325 0
M  V30 1158 H 117.063 3.25265 7.51096 0
M  V30 1159 N 119.726 -1.57421 0.075193 0
M  V30 1160 C 120.954 -1.97946 -0.602076 0
M  V30 1161 C 121.369 -0.953674 -1.62943 0
M  V30 1162 O 120.726 0.0592551 -1.82404 0
M  V30 1163 C 120.777 -3.38546 -1.26762 0
M  V30 1164 O 120.498 -4.37195 -0.281376 0
M  V30 1165 C 121.999 -3.93966 -2.03239 0
M  V30 1166 H 119.219 -0.650918 -0.162931 0
M  V30 1167 H 121.763 -2.03959 0.148601 0
M  V30 1168 H 119.918 -3.33609 -1.96936 0
M  V30 1169 H 120.332 -5.18975 -0.759267 0
M  V30 1170 H 121.806 -4.94555 -2.45193 0
M  V30 1171 H 122.283 -3.30693 -2.8903 0
M  V30 1172 H 122.889 -4.02315 -1.37924 0
M  V30 1173 N 121.204 0.198386 -1.56346 0
M  V30 1174 C 122.444 0.92609 -1.82217 0
M  V30 1175 C 122.808 1.80584 -0.652195 0
M  V30 1176 O 124.009 2.56907 -0.790716 0
M  V30 1177 C 122.28 1.72354 -3.13096 0
M  V30 1178 S 123.839 2.50371 -3.6036 0
M  V30 1179 H 120.657 0.310677 -0.639532 0
M  V30 1180 H 123.259 0.189755 -1.94577 0
M  V30 1181 H 121.963 1.0678 -3.96265 0
M  V30 1182 H 121.494 2.50175 -3.03605 0
M  V30 1183 H 123.509 3.74488 -3.25535 0
M  V30 1184 N 122.682 1.50554 0.465978 0
M  V30 1185 C 123.63 1.70324 1.58406 0
M  V30 1186 C 124.624 0.569139 1.59553 0
M  V30 1187 O 125.83 0.749776 1.63641 0
M  V30 1188 H 122.205 0.537688 0.525734 0
M  V30 1189 H 124.176 2.64104 1.38894 0
M  V30 1190 C 122.925 1.81928 2.96307 0
M  V30 1191 H 122.248 2.68586 2.96144 0
M  V30 1192 H 123.688 1.99784 3.73982 0
M  V30 1193 C 122.147 0.572095 3.32007 0
M  V30 1194 O 122.677 -0.286416 4.00678 0
M  V30 1195 N 120.883 0.424606 2.87481 0
M  V30 1196 H 120.43 1.12427 2.31771 0
M  V30 1197 H 120.388 -0.408697 3.11732 0
M  V30 1198 N 124.16 -0.719506 1.40217 0
M  V30 1199 C 125.406 -1.48152 1.38488 0
M  V30 1200 C 125.739 -1.94195 -0.0141867 0
M  V30 1201 O 125.014 -1.67884 -0.982096 0
M  V30 1202 C 125.297 -2.71035 2.37091 0
M  V30 1203 C 125.15 -2.30912 3.86005 0
M  V30 1204 C 126.469 -3.73182 2.33288 0
M  V30 1205 H 123.588 -0.537395 0.504357 0
M  V30 1206 H 126.23 -0.821472 1.71324 0
M  V30 1207 H 124.38 -3.27352 2.0922 0
M  V30 1208 H 126.052 -1.80107 4.24687 0
M  V30 1209 H 124.295 -1.62958 4.02029 0
M  V30 1210 H 124.966 -3.18978 4.50508 0
M  V30 1211 H 127.442 -3.26485 2.57966 0
M  V30 1212 H 126.318 -4.56806 3.04334 0
M  V30 1213 H 126.579 -4.21202 1.34317 0
M  V30 1214 N 125.638 -1.25649 -0.95132 0
M  V30 1215 C 126.915 -1.01361 -1.67288 0
M  V30 1216 C 127.295 0.459135 -2.06046 0
M  V30 1217 O 126.643 1.43723 -1.7764 0
M  V30 1218 C 126.853 -1.95256 -2.89268 0
M  V30 1219 C 128.201 -2.23289 -3.61147 0
M  V30 1220 O 129.225 -1.93041 -2.99355 0
M  V30 1221 O 128.084 -2.74741 -4.72419 0
M  V30 1222 H 125.178 -0.38464 -0.732107 0
M  V30 1223 H 127.724 -1.36817 -1.00395 0
M  V30 1224 H 126.496 -2.94685 -2.57442 0
M  V30 1225 H 126.119 -1.60218 -3.6389 0
M  V30 1226 N 127.117 1.15442 -1.07289 0
M  V30 1227 C 128.067 2.18164 -0.662467 0
M  V30 1228 C 129.051 1.57845 0.312074 0
M  V30 1229 O 130.243 1.76552 0.125905 0
M  V30 1230 C 127.372 3.43246 -0.0611295 0
M  V30 1231 C 126.458 4.1062 -1.06077 0
M  V30 1232 N 126.849 4.53491 -2.24008 0
M  V30 1233 C 125.147 4.36949 -0.893964 0
M  V30 1234 C 125.848 5.05731 -2.87422 0
M  V30 1235 N 124.824 4.99236 -2.15091 0
M  V30 1236 H 128.626 2.49038 -1.56068 0
M  V30 1237 H 126.14 1.32003 -0.945988 0
M  V30 1238 H 128.137 4.16145 0.250792 0
M  V30 1239 H 126.797 3.13854 0.832207 0
M  V30 1240 H 127.808 4.46898 -2.6173 0
M  V30 1241 H 124.485 4.17466 -0.0534693 0
M  V30 1242 H 125.875 5.48865 -3.87553 0
M  V30 1243 N 128.595 0.856903 1.32268 0
M  V30 1244 C 129.542 0.301172 2.28827 0
M  V30 1245 C 130.512 -0.593104 1.5515 0
M  V30 1246 O 131.697 -0.527537 1.83362 0
M  V30 1247 C 128.837 -0.502523 3.41422 0
M  V30 1248 C 127.95 0.417797 4.29975 0
M  V30 1249 C 127.085 -0.398749 5.29701 0
M  V30 1250 C 126.124 0.518827 6.09897 0
M  V30 1251 N 125.261 -0.260674 7.01616 0
M  V30 1252 H 130.101 1.12983 2.75751 0
M  V30 1253 H 127.638 0.568582 1.35667 0
M  V30 1254 H 129.596 -0.984141 4.05426 0
M  V30 1255 H 128.226 -1.29599 2.95642 0
M  V30 1256 H 127.278 1.01781 3.66531 0
M  V30 1257 H 128.59 1.12191 4.86019 0
M  V30 1258 H 127.744 -0.943435 5.9932 0
M  V30 1259 H 126.483 -1.13622 4.7428 0
M  V30 1260 H 125.488 1.07538 5.39181 0
M  V30 1261 H 126.713 1.25495 6.67404 0
M  V30 1262 H 124.659 -0.981198 6.4862 0
M  V30 1263 H 124.576 0.384364 7.55022 0
M  V30 1264 H 125.844 -0.787014 7.75517 0
M  V30 1265 N 130.073 -1.45103 0.615059 0
M  V30 1266 C 131.484 -1.85654 0.197383 0
M  V30 1267 C 131.835 -1.51433 -1.24749 0
M  V30 1268 O 130.96 -0.944608 -1.94695 0
M  V30 1269 C 131.555 -3.36972 0.351448 0
M  V30 1270 C 130.114 -3.76398 -0.011593 0
M  V30 1271 C 129.261 -2.69024 0.672394 0
M  V30 1272 H 132.212 -1.35797 0.821263 0
M  V30 1273 H 132.233 -3.78239 -0.414227 0
M  V30 1274 H 131.745 -3.61847 1.40314 0
M  V30 1275 H 129.846 -3.5714 -1.06217 0
M  V30 1276 H 129.959 -4.77532 0.387265 0
M  V30 1277 H 128.323 -2.54465 0.109284 0
M  V30 1278 H 129.106 -2.96735 1.72636 0
M  V30 1279 N 131.551 -0.354651 -1.53558 0
M  V30 1280 C 132.776 0.242153 -2.05981 0
M  V30 1281 C 133.201 1.42553 -1.2272 0
M  V30 1282 O 132.559 1.79656 -0.243604 0
M  V30 1283 C 132.607 0.624367 -3.55154 0
M  V30 1284 O 131.711 1.72301 -3.74681 0
M  V30 1285 H 131.052 0.0378432 -0.662921 0
M  V30 1286 H 133.582 -0.512087 -1.98088 0
M  V30 1287 H 133.592 0.898433 -3.97985 0
M  V30 1288 H 132.267 -0.240989 -4.15201 0
M  V30 1289 H 130.844 1.44535 -3.4375 0
M  V30 1290 N 133.029 1.57378 -0.0835403 0
M  V30 1291 C 133.977 2.14602 0.89714 0
M  V30 1292 C 134.971 1.08589 1.30018 0
M  V30 1293 O 136.177 1.26952 1.27606 0
M  V30 1294 H 132.552 0.686346 0.3073 0
M  V30 1295 H 134.523 2.95845 0.38969 0
M  V30 1296 C 133.272 2.73188 2.15089 0
M  V30 1297 H 132.595 3.54442 1.84962 0
M  V30 1298 H 134.035 3.1681 2.81793 0
M  V30 1299 C 132.494 1.68517 2.91725 0
M  V30 1300 O 133.024 1.11718 3.85852 0
M  V30 1301 N 131.23 1.39277 2.55049 0
M  V30 1302 H 130.777 1.85655 1.78577 0
M  V30 1303 H 130.735 0.694791 3.06627 0
M  V30 1304 N 134.507 -0.190092 1.56449 0
M  V30 1305 C 135.735 -0.925772 1.85033 0
M  V30 1306 C 136.15 -1.76638 0.666658 0
M  V30 1307 O 135.507 -1.78822 -0.364565 0
M  V30 1308 C 135.558 -1.81786 3.12468 0
M  V30 1309 O 135.279 -1.01118 4.26271 0
M  V30 1310 C 136.78 -2.6648 3.54265 0
M  V30 1311 H 134 -0.269872 0.614337 0
M  V30 1312 H 136.544 -0.195837 2.0356 0
M  V30 1313 H 134.699 -2.50136 2.95822 0
M  V30 1314 H 135.113 -1.61956 4.98869 0
M  V30 1315 H 136.587 -3.24722 4.46385 0
M  V30 1316 H 137.064 -3.40434 2.77491 0
M  V30 1317 H 137.67 -2.03493 3.73458 0
M  V30 1318 N 135.985 -1.50799 -0.457987 0
M  V30 1319 C 136.932 -1.70617 -1.5543 0
M  V30 1320 C 137.902 -0.547562 -1.56815 0
M  V30 1321 O 139.087 -0.779647 -1.74144 0
M  V30 1322 C 136.227 -1.81831 -2.93311 0
M  V30 1323 C 135.34 -3.09278 -3.01615 0
M  V30 1324 C 134.475 -3.11209 -4.30491 0
M  V30 1325 C 133.514 -4.33055 -4.32585 0
M  V30 1326 N 132.651 -4.32652 -5.52952 0
M  V30 1327 H 137.491 -2.64207 -1.37836 0
M  V30 1328 H 135.028 -1.30959 -0.669937 0
M  V30 1329 H 136.986 -1.86314 -3.73287 0
M  V30 1330 H 135.616 -0.916685 -3.0951 0
M  V30 1331 H 134.668 -3.14203 -2.1443 0
M  V30 1332 H 135.98 -3.99233 -2.99022 0
M  V30 1333 H 135.134 -3.14494 -5.18824 0
M  V30 1334 H 133.873 -2.19106 -4.35711 0
M  V30 1335 H 132.878 -4.29969 -3.42647 0
M  V30 1336 H 134.103 -5.264 -4.29046 0
M  V30 1337 H 132.049 -3.43409 -5.58933 0
M  V30 1338 H 131.966 -5.16392 -5.52155 0
M  V30 1339 H 133.234 -4.40101 -6.43375 0
M  V30 1340 N 137.463 0.71206 -1.40597 0
M  V30 1341 C 138.709 1.47416 -1.39271 0
M  V30 1342 C 139.042 1.942 0.00388791 0
M  V30 1343 O 138.317 1.68403 0.973179 0
M  V30 1344 C 138.6 2.69774 -2.38525 0
M  V30 1345 C 138.453 2.28861 -3.87224 0
M  V30 1346 C 139.772 3.71939 -2.35264 0
M  V30 1347 H 136.891 0.534713 -0.5072 0
M  V30 1348 H 139.533 0.812375 -1.71757 0
M  V30 1349 H 137.683 3.26238 -2.10953 0
M  V30 1350 H 139.355 1.77852 -4.25636 0
M  V30 1351 H 137.598 1.60824 -4.02887 0
M  V30 1352 H 138.269 3.16584 -4.52193 0
M  V30 1353 H 140.745 3.25113 -2.59694 0
M  V30 1354 H 139.621 4.55186 -3.06753 0
M  V30 1355 H 139.882 4.20484 -1.36549 0
M  V30 1356 N 138.941 1.26152 0.944643 0
M  V30 1357 C 140.218 1.02247 1.66748 0
M  V30 1358 C 140.598 -0.448202 2.06287 0
M  V30 1359 O 139.946 -1.42779 1.78399 0
M  V30 1360 C 140.156 1.96788 2.88228 0
M  V30 1361 C 141.504 2.25201 3.59958 0
M  V30 1362 O 142.528 1.94626 2.98327 0
M  V30 1363 O 141.387 2.77242 4.70956 0
M  V30 1364 H 138.481 0.388517 0.730057 0
M  V30 1365 H 141.027 1.37348 0.99668 0
M  V30 1366 H 139.799 2.96047 2.55875 0
M  V30 1367 H 139.422 1.62145 3.63035 0
M  V30 1368 N 140.419 -1.14872 1.07899 0
M  V30 1369 C 141.366 -2.19791 0.704319 0
M  V30 1370 C 142.336 -1.63238 -0.306987 0
M  V30 1371 O 143.521 -1.8983 -0.192171 0
M  V30 1372 C 140.661 -3.44911 0.114244 0
M  V30 1373 C 139.774 -4.15637 1.1777 0
M  V30 1374 C 138.909 -5.28324 0.552037 0
M  V30 1375 C 137.948 -5.90875 1.59789 0
M  V30 1376 N 137.085 -6.95022 0.994404 0
M  V30 1377 H 141.925 -2.5119 1.60336 0
M  V30 1378 H 139.462 -1.23356 0.801352 0
M  V30 1379 H 141.42 -4.16477 -0.245544 0
M  V30 1380 H 140.05 -3.14011 -0.74813 0
M  V30 1381 H 139.102 -3.42512 1.65499 0
M  V30 1382 H 140.414 -4.5823 1.97046 0
M  V30 1383 H 139.568 -6.06538 0.1402 0
M  V30 1384 H 138.307 -4.86939 -0.272431 0
M  V30 1385 H 137.312 -5.11369 2.01945 0
M  V30 1386 H 138.537 -6.34337 2.42474 0
M  V30 1387 H 136.483 -6.55722 0.190939 0
M  V30 1388 H 136.4 -7.36073 1.72432 0
M  V30 1389 H 137.668 -7.77123 0.608253 0
M  V30 1390 N 141.898 -0.863906 -1.31812 0
M  V30 1391 C 143.126 -0.486111 -2.01108 0
M  V30 1392 C 143.541 0.919755 -1.64882 0
M  V30 1393 O 142.898 1.60162 -0.874893 0
M  V30 1394 C 142.949 -0.626435 -3.56031 0
M  V30 1395 O 142.67 -1.97693 -3.90959 0
M  V30 1396 C 144.171 -0.248857 -4.42601 0
M  V30 1397 H 141.391 -0.190052 -0.643523 0
M  V30 1398 H 143.935 -1.1634 -1.68182 0
M  V30 1399 H 142.09 0.00322717 -3.874 0
M  V30 1400 H 142.504 -1.98034 -4.85678 0
M  V30 1401 H 143.978 -0.398016 -5.50563 0
M  V30 1402 H 144.455 0.811489 -4.31638 0
M  V30 1403 H 145.061 -0.853971 -4.16638 0
M  V30 1404 N 143.376 1.44774 -0.622745 0
M  V30 1405 C 144.622 2.0242 -0.124083 0
M  V30 1406 C 144.955 1.4881 1.24777 0
M  V30 1407 O 144.23 0.668799 1.8264 0
M  V30 1408 C 144.513 3.59957 -0.101619 0
M  V30 1409 C 144.366 4.23867 -1.50521 0
M  V30 1410 C 145.685 4.36284 0.578272 0
M  V30 1411 H 142.804 0.735528 -0.0465645 0
M  V30 1412 H 145.446 1.72447 -0.797617 0
M  V30 1413 H 143.596 3.85623 0.471934 0
M  V30 1414 H 145.268 4.09336 -2.12701 0
M  V30 1415 H 143.511 3.81684 -2.06154 0
M  V30 1416 H 144.182 5.32843 -1.4416 0
M  V30 1417 H 146.658 4.16001 0.0906057 0
M  V30 1418 H 145.534 5.46004 0.563149 0
M  V30 1419 H 145.795 4.10271 1.64713 0
M  V30 1420 N 144.854 0.36279 1.53368 0
M  V30 1421 C 145.764 -0.492994 2.29362 0
M  V30 1422 C 146.78 -1.09507 1.35219 0
M  V30 1423 O 147.956 -1.10662 1.68273 0
M  V30 1424 C 145.021 -1.61855 3.066 0
M  V30 1425 C 144.082 -1.04429 4.16405 0
M  V30 1426 C 143.315 -2.11621 4.89951 0
M  V30 1427 O 143.538 -3.32684 4.63333 0
M  V30 1428 O 142.472 -1.74835 5.75948 0
M  V30 1429 H 146.298 0.125331 3.03441 0
M  V30 1430 H 143.883 0.127253 1.48857 0
M  V30 1431 H 145.765 -2.27302 3.54841 0
M  V30 1432 H 144.44 -2.22233 2.3536 0
M  V30 1433 H 143.347 -0.353819 3.72423 0
M  V30 1434 H 144.68 -0.485113 4.89804 0
M  V30 1435 N 146.332 -1.57332 0.0918853 0
M  V30 1436 C 147.748 -1.57389 -0.264766 0
M  V30 1437 C 147.948 -1.10281 -1.68643 0
M  V30 1438 O 147.004 -0.777801 -2.40222 0
M  V30 1439 C 148.317 -3.00648 -0.0561195 0
M  V30 1440 C 149.865 -3.12754 -0.124116 0
M  V30 1441 C 150.34 -4.57965 0.0564972 0
M  V30 1442 N 151.831 -4.632 0.00155611 0
M  V30 1443 C 152.566 -5.73281 0.116598 0
M  V30 1444 N 152.062 -6.92208 0.286294 0
M  V30 1445 N 153.855 -5.6207 0.0580973 0
M  V30 1446 H 146.006 -1.86262 1.02079 0
M  V30 1447 H 148.269 -0.859579 0.399786 0
M  V30 1448 H 147.975 -3.393 0.925669 0
M  V30 1449 H 147.849 -3.68623 -0.799823 0
M  V30 1450 H 150.236 -2.73976 -1.09641 0
M  V30 1451 H 150.317 -2.47377 0.651024 0
M  V30 1452 H 149.961 -4.97436 1.02564 0
M  V30 1453 H 149.891 -5.21399 -0.738297 0
M  V30 1454 H 152.382 -3.77686 -0.127192 0
M  V30 1455 H 152.695 -7.71934 0.365676 0
M  V30 1456 H 151.04 -6.94254 0.32192 0
M  V30 1457 H 154.231 -4.68043 -0.0733204 0
M  V30 1458 H 154.404 -6.47824 0.151203 0
M  V30 1459 N 147.81 0.181792 -1.56548 0
M  V30 1460 C 148.757 1.22521 -1.95595 0
M  V30 1461 C 149.727 1.4454 -0.818373 0
M  V30 1462 O 150.912 1.57454 -1.07763 0
M  V30 1463 C 148.052 2.56193 -2.31212 0
M  V30 1464 C 147.165 2.41641 -3.58097 0
M  V30 1465 C 146.3 3.68108 -3.82975 0
M  V30 1466 C 145.339 3.48445 -5.03242 0
M  V30 1467 N 144.476 4.66956 -5.24306 0
M  V30 1468 H 149.316 0.885226 -2.84548 0
M  V30 1469 H 146.853 0.425718 -1.40805 0
M  V30 1470 H 148.811 3.34088 -2.49882 0
M  V30 1471 H 147.441 2.88208 -1.45382 0
M  V30 1472 H 146.493 1.54976 -3.474 0
M  V30 1473 H 147.805 2.23052 -4.46149 0
M  V30 1474 H 146.959 4.54441 -4.01956 0
M  V30 1475 H 145.698 3.89666 -2.93278 0
M  V30 1476 H 144.703 2.60499 -4.8417 0
M  V30 1477 H 145.928 3.2832 -5.9446 0
M  V30 1478 H 143.874 4.88752 -4.37559 0
M  V30 1479 H 143.791 4.51242 -6.06561 0
M  V30 1480 H 145.059 5.54602 -5.47756 0
M  V30 1481 N 149.288 1.51039 0.449983 0
M  V30 1482 C 150.528 1.64732 1.21007 0
M  V30 1483 C 150.892 0.349865 1.88785 0
M  V30 1484 O 152.093 0.362431 2.66345 0
M  V30 1485 C 150.364 2.80902 2.20973 0
M  V30 1486 S 151.923 3.14851 3.05638 0
M  V30 1487 H 148.741 0.5805 0.410538 0
M  V30 1488 H 151.343 1.88901 0.503634 0
M  V30 1489 H 150.047 3.73627 1.69796 0
M  V30 1490 H 149.578 2.58882 2.96215 0
M  V30 1491 H 151.593 2.60306 4.22439 0
M  V30 1492 N 150.766 -0.704594 1.40972 0
M  V30 1493 C 152.006 -1.47691 1.41304 0
M  V30 1494 C 152.37 -1.91992 0.0178582 0
M  V30 1495 O 153.571 -2.68599 -0.103996 0
M  V30 1496 C 151.842 -2.66254 2.38419 0
M  V30 1497 S 153.401 -3.55516 2.57204 0
M  V30 1498 H 150.219 -0.504808 0.500689 0
M  V30 1499 H 152.821 -0.822962 1.77335 0
M  V30 1500 H 151.525 -2.31897 3.38603 0
M  V30 1501 H 151.056 -3.3655 2.03711 0
M  V30 1502 H 153.071 -4.61115 1.83268 0
M  V30 1503 N 152.244 -1.26651 -0.937939 0
M  V30 1504 C 153.49 -1.12553 -1.687 0
M  V30 1505 C 153.823 0.329782 -1.91379 0
M  V30 1506 O 153.098 1.24202 -1.4968 0
M  V30 1507 C 153.381 -1.89862 -3.05981 0
M  V30 1508 C 153.234 -3.43318 -2.90607 0
M  V30 1509 C 154.553 -1.69499 -4.0615 0
M  V30 1510 H 151.672 -0.410257 -0.612257 0
M  V30 1511 H 154.314 -1.55685 -1.08913 0
M  V30 1512 H 152.464 -1.53204 -3.57017 0
M  V30 1513 H 154.136 -3.89747 -2.46769 0
M  V30 1514 H 152.379 -3.70179 -2.26164 0
M  V30 1515 H 153.05 -3.92642 -3.8799 0
M  V30 1516 H 155.526 -2.01442 -3.64088 0
M  V30 1517 H 154.402 -2.26002 -5.00214 0
M  V30 1518 H 154.663 -0.640365 -4.37438 0
M  V30 1519 N 153.722 1.14298 -1.08507 0
M  V30 1520 C 154.632 2.23027 -0.727753 0
M  V30 1521 C 155.648 1.71952 0.26619 0
M  V30 1522 O 156.824 2.011 0.109882 0
M  V30 1523 C 153.889 3.46403 -0.143541 0
M  V30 1524 C 152.95 4.12413 -1.19223 0
M  V30 1525 C 152.183 5.29899 -0.635798 0
M  V30 1526 O 152.406 5.67796 0.544393 0
M  V30 1527 O 151.34 5.85717 -1.38634 0
M  V30 1528 H 155.166 2.55945 -1.63481 0
M  V30 1529 H 152.751 1.22248 -0.858817 0
M  V30 1530 H 154.633 4.21018 0.179404 0
M  V30 1531 H 153.308 3.15206 0.736659 0
M  V30 1532 H 152.215 3.39667 -1.56772 0
M  V30 1533 H 153.548 4.47718 -2.04474 0
M  V30 1534 N 155.201 0.870884 1.31352 0
M  V30 1535 C 156.441 0.488783 1.9847 0
M  V30 1536 C 156.805 -0.941536 1.67329 0
M  V30 1537 O 158.006 -1.42903 2.27667 0
M  V30 1538 C 156.277 0.739688 3.49662 0
M  V30 1539 S 157.836 0.457582 4.36408 0
M  V30 1540 H 154.654 0.18242 0.6872 0
M  V30 1541 H 157.256 1.12711 1.59739 0
M  V30 1542 H 155.96 1.77944 3.69816 0
M  V30 1543 H 155.491 0.0883905 3.93301 0
M  V30 1544 H 157.506 -0.709752 4.91098 0
M  V30 1545 N 156.679 -1.44442 0.630414 0
M  V30 1546 C 158.09 -1.85434 0.217063 0
M  V30 1547 C 158.441 -1.52748 -1.23136 0
M  V30 1548 O 157.566 -0.965205 -1.93682 0
M  V30 1549 C 158.161 -3.36581 0.387168 0
M  V30 1550 C 156.72 -3.76389 0.0283297 0
M  V30 1551 C 155.867 -2.68296 0.700889 0
M  V30 1552 H 158.818 -1.34919 0.83562 0
M  V30 1553 H 158.839 -3.78657 -0.374086 0
M  V30 1554 H 158.351 -3.60339 1.44144 0
M  V30 1555 H 156.452 -3.58246 -1.02423 0
M  V30 1556 H 156.565 -4.77095 0.437892 0
M  V30 1557 H 154.929 -2.54335 0.136267 0
M  V30 1558 H 155.712 -2.94887 1.75774 0
M  V30 1559 N 158.157 -0.370918 -1.53173 0
M  V30 1560 C 159.568 0.107139 -1.86392 0
M  V30 1561 C 159.919 1.47714 -1.29132 0
M  V30 1562 O 159.044 2.07464 -0.615439 0
M  V30 1563 C 159.639 0.201187 -3.38202 0
M  V30 1564 C 158.198 0.623507 -3.712 0
M  V30 1565 C 157.345 -0.225978 -2.76378 0
M  V30 1566 H 160.296 -0.58951 -1.47345 0
M  V30 1567 H 160.317 1.02377 -3.66468 0
M  V30 1568 H 159.829 -0.796058 -3.79848 0
M  V30 1569 H 157.93 1.62879 -3.35114 0
M  V30 1570 H 158.043 0.394414 -4.77474 0
M  V30 1571 H 156.407 0.305962 -2.52856 0
M  V30 1572 H 157.19 -1.22086 -3.20858 0
M  V30 1573 N 159.635 1.57281 -0.100228 0
M  V30 1574 C 160.875 1.96419 0.56558 0
M  V30 1575 C 161.239 0.981265 1.65031 0
M  V30 1576 O 162.44 1.26133 2.37369 0
M  V30 1577 C 160.711 3.39996 1.10171 0
M  V30 1578 S 162.27 4.01134 1.77867 0
M  V30 1579 H 159.088 0.68667 0.184406 0
M  V30 1580 H 161.69 1.94662 -0.180851 0
M  V30 1581 H 160.394 4.09296 0.300803 0
M  V30 1582 H 159.925 3.45361 1.88385 0
M  V30 1583 H 161.94 3.90358 3.06326 0
M  V30 1584 N 161.113 -0.173488 1.56642 0
M  V30 1585 C 162.524 -0.736155 1.71574 0
M  V30 1586 C 162.875 -1.82888 0.710389 0
M  V30 1587 O 162 -2.16017 -0.1287 0
M  V30 1588 C 162.595 -1.34211 3.11083 0
M  V30 1589 C 161.154 -1.85162 3.27707 0
M  V30 1590 C 160.301 -0.729765 2.67525 0
M  V30 1591 H 163.252 0.0518786 1.58615 0
M  V30 1592 H 163.273 -2.21178 3.09613 0
M  V30 1593 H 162.785 -0.546579 3.84232 0
M  V30 1594 H 160.886 -2.67366 2.59512 0
M  V30 1595 H 160.999 -1.99855 4.35425 0
M  V30 1596 H 159.363 -1.14965 2.27278 0
M  V30 1597 H 160.146 0.0538806 3.43258 0
M  V30 1598 N 162.591 -1.51276 -0.441967 0
M  V30 1599 C 163.554 -1.7167 -1.51862 0
M  V30 1600 C 164.554 -0.586793 -1.49711 0
M  V30 1601 O 165.744 -0.854276 -1.51815 0
M  V30 1602 C 162.876 -1.76889 -2.91416 0
M  V30 1603 H 164.069 -2.67754 -1.35084 0
M  V30 1604 H 161.622 -1.41196 -0.670333 0
M  V30 1605 H 162.357 -0.826026 -3.13604 0
M  V30 1606 H 162.142 -2.59001 -2.94382 0
M  V30 1607 H 163.632 -1.94522 -3.69528 0
M  V30 1608 N 164.069 0.697108 -1.41344 0
M  V30 1609 C 165.48 1.27697 -1.36199 0
M  V30 1610 C 165.831 1.9615 -0.0443463 0
M  V30 1611 O 164.956 1.98689 0.857419 0
M  V30 1612 C 165.551 2.32223 -2.46694 0
M  V30 1613 C 164.11 2.8579 -2.44952 0
M  V30 1614 C 163.257 1.59807 -2.26621 0
M  V30 1615 H 166.208 0.491968 -1.50882 0
M  V30 1616 H 166.229 3.1348 -2.15664 0
M  V30 1617 H 165.741 1.82373 -3.42581 0
M  V30 1618 H 163.842 3.3982 -1.52817 0
M  V30 1619 H 163.955 3.36325 -3.41207 0
M  V30 1620 H 162.319 1.8556 -1.7447 0
M  V30 1621 H 163.102 1.11956 -3.24532 0
M  V30 1622 N 165.547 1.27147 0.931209 0
M  V30 1623 C 166.958 1.12044 1.49342 0
M  V30 1624 C 167.309 -0.295795 1.93957 0
M  V30 1625 O 166.434 -1.18835 1.80852 0
M  V30 1626 C 167.029 2.02781 2.71414 0
M  V30 1627 C 165.588 1.91794 3.2387 0
M  V30 1628 C 164.735 1.95543 1.96617 0
M  V30 1629 H 167.686 1.40091 0.745672 0
M  V30 1630 H 167.707 1.58156 3.46074 0
M  V30 1631 H 167.219 3.05848 2.38911 0
M  V30 1632 H 165.32 0.916992 3.6114 0
M  V30 1633 H 165.433 2.77852 3.90302 0
M  V30 1634 H 163.797 1.39722 2.12955 0
M  V30 1635 H 164.58 3.00259 1.66432 0
M  V30 1636 N 167.025 -1.13721 1.09112 0
M  V30 1637 C 168.271 -1.85198 0.826414 0
M  V30 1638 C 168.604 -1.83129 -0.646319 0
M  V30 1639 O 167.879 -1.2671 -1.47563 0
M  V30 1640 C 168.162 -3.33507 1.35812 0
M  V30 1641 C 168.015 -3.44108 2.89672 0
M  V30 1642 C 169.334 -4.28838 0.989256 0
M  V30 1643 H 166.453 -0.67243 0.301675 0
M  V30 1644 H 169.095 -1.33499 1.35197 0
M  V30 1645 H 167.245 -3.77666 0.911082 0
M  V30 1646 H 168.917 -3.08684 3.428 0
M  V30 1647 H 167.16 -2.85087 3.26967 0
M  V30 1648 H 167.831 -4.48388 3.21951 0
M  V30 1649 H 170.307 -3.92734 1.37475 0
M  V30 1650 H 169.183 -5.31051 1.38838 0
M  V30 1651 H 169.444 -4.4198 -0.102924 0
M  V30 1652 N 168.503 -0.877838 -1.30888 0
M  V30 1653 C 169.466 -0.344265 -2.266 0
M  V30 1654 C 170.466 0.50922 -1.52524 0
M  V30 1655 O 171.656 0.317398 -1.71284 0
M  V30 1656 C 168.788 0.510198 -3.37061 0
M  V30 1657 H 169.981 -1.1893 -2.7531 0
M  V30 1658 H 167.534 -0.654088 -1.41956 0
M  V30 1659 H 168.269 1.37612 -2.93655 0
M  V30 1660 H 168.054 -0.101047 -3.9197 0
M  V30 1661 H 169.544 0.875537 -4.08319 0
M  V30 1662 N 169.982 1.44106 -0.638065 0
M  V30 1663 C 171.23 2.01579 -0.145043 0
M  V30 1664 C 171.551 1.50496 1.24 0
M  V30 1665 O 170.821 0.711374 1.82527 0
M  V30 1666 H 169.401 0.745282 -0.05063 0
M  V30 1667 H 172.063 1.76516 -0.826327 0
M  V30 1668 H 171.159 3.11877 -0.118039 0
M  V30 1669 N 171.46 0.379036 1.52974 0
M  V30 1670 C 172.871 -0.0972525 1.86447 0
M  V30 1671 C 173.222 -1.47027 1.29914 0
M  V30 1672 O 172.347 -2.07135 0.626433 0
M  V30 1673 C 172.942 -0.183248 3.38304 0
M  V30 1674 C 171.501 -0.603812 3.71525 0
M  V30 1675 C 170.648 0.240632 2.76254 0
M  V30 1676 H 173.599 0.597316 1.4703 0
M  V30 1677 H 173.62 -1.00432 3.67006 0
M  V30 1678 H 173.132 0.816191 3.79421 0
M  V30 1679 H 171.233 -1.61099 3.35973 0
M  V30 1680 H 171.346 -0.369086 4.77676 0
M  V30 1681 H 169.71 -0.292548 2.53014 0
M  V30 1682 H 170.493 1.23786 3.20206 0
M  V30 1683 N 172.938 -1.57226 0.108567 0
M  V30 1684 C 174.163 -1.99604 -0.563303 0
M  V30 1685 C 174.588 -0.987563 -1.6009 0
M  V30 1686 O 173.946 0.0421687 -1.81251 0
M  V30 1687 C 173.994 -3.40902 -1.17552 0
M  V30 1688 O 173.098 -3.42896 -2.2912 0
M  V30 1689 H 172.439 -0.648704 -0.1417 0
M  V30 1690 H 174.969 -2.03679 0.193961 0
M  V30 1691 H 174.979 -3.78886 -1.51357 0
M  V30 1692 H 173.654 -4.1382 -0.415445 0
M  V30 1693 H 172.231 -3.1672 -1.96832 0
M  V30 1694 N 174.416 0.165178 -1.56732 0
M  V30 1695 C 175.662 0.882112 -1.82611 0
M  V30 1696 C 175.995 1.81628 -0.687378 0
M  V30 1697 O 175.27 1.92009 0.310267 0
M  V30 1698 C 175.553 1.67245 -3.18906 0
M  V30 1699 C 175.406 0.760987 -4.43316 0
M  V30 1700 C 176.725 2.63884 -3.52212 0
M  V30 1701 H 173.844 0.319242 -0.664269 0
M  V30 1702 H 176.486 0.148052 -1.89422 0
M  V30 1703 H 174.636 2.29824 -3.1323 0
M  V30 1704 H 176.308 0.147596 -4.61064 0
M  V30 1705 H 174.551 0.0694102 -4.33744 0
M  V30 1706 H 175.222 1.34962 -5.35247 0
M  V30 1707 H 177.698 2.11429 -3.58381 0
M  V30 1708 H 176.574 3.16245 -4.48643 0
M  V30 1709 H 176.835 3.44377 -2.77231 0
M  V30 1710 N 175.894 1.51508 0.433938 0
M  V30 1711 C 177.141 1.64345 1.18309 0
M  V30 1712 C 177.469 0.361315 1.91115 0
M  V30 1713 O 176.724 -0.654753 1.84422 0
M  V30 1714 C 177.023 2.79928 2.22205 0
M  V30 1715 C 176.689 4.19078 1.66387 0
M  V30 1716 C 175.351 4.56932 1.50887 0
M  V30 1717 C 177.703 5.05894 1.25381 0
M  V30 1718 C 175.031 5.79305 0.928608 0
M  V30 1719 C 177.383 6.2885 0.687823 0
M  V30 1720 C 176.047 6.65473 0.519755 0
M  V30 1721 H 175.317 0.601381 0.432923 0
M  V30 1722 H 177.964 1.85549 0.473676 0
M  V30 1723 H 176.269 2.52959 2.99197 0
M  V30 1724 H 177.966 2.87059 2.79997 0
M  V30 1725 H 174.556 3.89234 1.79428 0
M  V30 1726 H 178.74 4.77253 1.36175 0
M  V30 1727 H 173.996 6.06324 0.786186 0
M  V30 1728 H 178.17 6.95461 0.361581 0
M  V30 1729 H 175.797 7.6017 0.0679979 0
M  V30 1730 N 177.372 -0.689602 1.41712 0
M  V30 1731 C 178.302 -1.81577 1.46806 0
M  V30 1732 C 179.283 -1.66945 0.326105 0
M  V30 1733 O 180.468 -1.86588 0.538377 0
M  V30 1734 C 177.598 -3.19762 1.35535 0
M  V30 1735 C 176.552 -3.49107 2.47605 0
M  V30 1736 C 175.878 -4.86711 2.21397 0
M  V30 1737 C 177.178 -3.47483 3.89939 0
M  V30 1738 H 178.872 -1.7757 2.41058 0
M  V30 1739 H 176.418 -0.852887 1.16025 0
M  V30 1740 H 178.371 -3.98263 1.3771 0
M  V30 1741 H 177.095 -3.24409 0.377708 0
M  V30 1742 H 175.754 -2.72959 2.44722 0
M  V30 1743 H 175.402 -4.8799 1.21961 0
M  V30 1744 H 175.102 -5.0731 2.96497 0
M  V30 1745 H 176.626 -5.67515 2.25297 0
M  V30 1746 H 178.04 -4.1598 3.94505 0
M  V30 1747 H 176.437 -3.79615 4.64771 0
M  V30 1748 H 177.507 -2.46341 4.17665 0
M  V30 1749 N 178.85 -1.27639 -0.924453 0
M  V30 1750 C 180.097 -1.14167 -1.67249 0
M  V30 1751 C 180.425 0.311863 -1.91984 0
M  V30 1752 O 179.68 1.24425 -1.51053 0
M  V30 1753 C 179.979 -1.87407 -3.04325 0
M  V30 1754 C 179.645 -3.37249 -2.99289 0
M  V30 1755 C 178.307 -3.7812 -2.97622 0
M  V30 1756 C 180.659 -4.32845 -2.90336 0
M  V30 1757 C 177.987 -5.12944 -2.8479 0
M  V30 1758 C 180.339 -5.6773 -2.79045 0
M  V30 1759 C 179.003 -6.07889 -2.7573 0
M  V30 1760 H 178.273 -0.417766 -0.612007 0
M  V30 1761 H 180.92 -1.58286 -1.07786 0
M  V30 1762 H 179.225 -1.35805 -3.67511 0
M  V30 1763 H 180.922 -1.74408 -3.61086 0
M  V30 1764 H 177.512 -3.04748 -3.01374 0
M  V30 1765 H 181.696 -4.02239 -2.90719 0
M  V30 1766 H 176.952 -5.432 -2.80612 0
M  V30 1767 H 181.126 -6.41472 -2.71083 0
M  V30 1768 H 178.753 -7.12314 -2.65544 0
M  V30 1769 N 180.328 1.1314 -1.09713 0
M  V30 1770 C 181.739 1.66029 -0.853885 0
M  V30 1771 C 182.09 1.86241 0.617142 0
M  V30 1772 O 181.215 1.5834 1.47503 0
M  V30 1773 C 181.81 3.01599 -1.5435 0
M  V30 1774 C 180.369 3.51467 -1.34714 0
M  V30 1775 C 179.516 2.26648 -1.59769 0
M  V30 1776 H 182.467 0.970226 -1.25588 0
M  V30 1777 H 182.488 3.67709 -0.978267 0
M  V30 1778 H 182 2.86856 -2.6141 0
M  V30 1779 H 180.101 3.71408 -0.297838 0
M  V30 1780 H 180.214 4.314 -2.08401 0
M  V30 1781 H 178.578 2.33385 -1.01998 0
M  V30 1782 H 179.361 2.14467 -2.68065 0
M  V30 1783 N 181.806 0.884767 1.30421 0
M  V30 1784 C 183.217 0.553656 1.78302 0
M  V30 1785 C 183.568 -0.930153 1.7275 0
M  V30 1786 O 182.693 -1.72681 1.30423 0
M  V30 1787 C 183.288 0.998234 3.2376 0
M  V30 1788 C 181.847 0.71854 3.69478 0
M  V30 1789 C 180.994 1.18132 2.50879 0
M  V30 1790 H 183.945 1.06901 1.17294 0
M  V30 1791 H 183.966 0.327118 3.79091 0
M  V30 1792 H 183.478 2.0782 3.27769 0
M  V30 1793 H 181.579 -0.349444 3.70958 0
M  V30 1794 H 181.692 1.30595 4.60958 0
M  V30 1795 H 180.056 0.600669 2.47516 0
M  V30 1796 H 180.839 2.26902 2.57624 0
M  V30 1797 N 183.284 -1.43765 0.645699 0
M  V30 1798 C 184.231 -2.30745 -0.0504648 0
M  V30 1799 C 185.201 -1.4432 -0.822241 0
M  V30 1800 O 186.386 -1.73202 -0.800358 0
M  V30 1801 C 183.526 -3.29802 -1.0161 0
M  V30 1802 C 182.639 -4.31326 -0.241219 0
M  V30 1803 C 181.774 -5.17469 -1.19998 0
M  V30 1804 C 180.813 -6.10691 -0.415094 0
M  V30 1805 N 179.95 -6.89483 -1.32506 0
M  V30 1806 H 184.79 -2.8973 0.697155 0
M  V30 1807 H 182.327 -1.42738 0.355563 0
M  V30 1808 H 184.285 -3.85734 -1.58949 0
M  V30 1809 H 182.915 -2.72483 -1.73069 0
M  V30 1810 H 181.967 -3.77749 0.448334 0
M  V30 1811 H 183.279 -4.9743 0.369437 0
M  V30 1812 H 182.433 -5.7799 -1.84424 0
M  V30 1813 H 181.172 -4.51473 -1.84455 0
M  V30 1814 H 180.177 -5.49265 0.242565 0
M  V30 1815 H 181.402 -6.78727 0.224966 0
M  V30 1816 H 179.348 -6.26142 -1.95657 0
M  V30 1817 H 179.265 -7.52081 -0.768783 0
M  V30 1818 H 180.533 -7.54516 -1.9577 0
M  V30 1819 N 184.763 -0.387143 -1.52771 0
M  V30 1820 C 186.174 0.0873634 -1.86495 0
M  V30 1821 C 186.525 1.46336 -1.30691 0
M  V30 1822 O 185.65 2.068 -0.637409 0
M  V30 1823 C 186.245 0.165305 -3.38396 0
M  V30 1824 C 184.804 0.584101 -3.7184 0
M  V30 1825 C 183.951 -0.255279 -2.76122 0
M  V30 1826 H 186.902 -0.605104 -1.46711 0
M  V30 1827 H 186.923 0.984848 -3.67534 0
M  V30 1828 H 186.435 -0.836301 -3.78982 0
M  V30 1829 H 184.536 1.59315 -3.36823 0
M  V30 1830 H 184.649 0.343749 -4.77865 0
M  V30 1831 H 183.013 0.279126 -2.53166 0
M  V30 1832 H 183.796 -1.25482 -3.19545 0
M  V30 1833 N 186.241 1.57166 -0.116904 0
M  V30 1834 C 187.188 2.15202 0.83408 0
M  V30 1835 C 188.158 1.07644 1.26499 0
M  V30 1836 O 189.343 1.35541 1.34288 0
M  V30 1837 C 186.483 2.75405 2.07957 0
M  V30 1838 C 185.596 3.97264 1.69721 0
M  V30 1839 C 184.731 4.45561 2.89221 0
M  V30 1840 C 183.77 5.59956 2.47215 0
M  V30 1841 N 182.907 6.03006 3.59622 0
M  V30 1842 H 187.747 2.96141 0.332335 0
M  V30 1843 H 185.284 1.46309 0.152349 0
M  V30 1844 H 187.242 3.08439 2.80929 0
M  V30 1845 H 185.872 1.97159 2.55594 0
M  V30 1846 H 184.924 3.70404 0.866316 0
M  V30 1847 H 186.236 4.80226 1.34849 0
M  V30 1848 H 185.39 4.80493 3.7042 0
M  V30 1849 H 184.129 3.61544 3.27318 0
M  V30 1850 H 183.134 5.2463 1.64448 0
M  V30 1851 H 184.359 6.45738 2.10238 0
M  V30 1852 H 182.305 5.21931 3.97396 0
M  V30 1853 H 182.222 6.80819 3.28667 0
M  V30 1854 H 183.49 6.42576 4.41267 0
M  V30 1855 N 187.719 -0.156864 1.56817 0
M  V30 1856 C 188.996 -0.899244 1.73704 0
M  V30 1857 C 189.376 -1.99771 0.682254 0
M  V30 1858 O 188.724 -2.26515 -0.300522 0
M  V30 1859 C 188.934 -1.45075 3.17418 0
M  V30 1860 C 190.282 -1.91802 3.7881 0
M  V30 1861 O 191.306 -1.54838 3.20786 0
M  V30 1862 O 190.165 -2.5994 4.80722 0
M  V30 1863 H 187.259 -0.424267 0.709878 0
M  V30 1864 H 189.805 -0.143561 1.69092 0
M  V30 1865 H 188.577 -0.660846 3.85679 0
M  V30 1866 H 188.2 -2.27021 3.26416 0
M  V30 1867 N 189.197 -1.51736 -0.425897 0
M  V30 1868 C 190.425 -1.68794 -1.1965 0
M  V30 1869 C 190.84 -0.390164 -1.84725 0
M  V30 1870 O 190.197 0.632376 -1.71194 0
M  V30 1871 C 190.248 -2.81174 -2.27208 0
M  V30 1872 O 189.969 -4.05925 -1.64793 0
M  V30 1873 C 191.47 -3.09599 -3.17275 0
M  V30 1874 H 188.69 -0.566128 -0.360194 0
M  V30 1875 H 191.234 -1.98211 -0.503249 0
M  V30 1876 H 189.389 -2.54324 -2.9223 0
M  V30 1877 H 189.803 -4.68423 -2.35967 0
M  V30 1878 H 191.277 -3.91786 -3.88854 0
M  V30 1879 H 191.754 -2.22468 -3.78688 0
M  V30 1880 H 192.36 -3.38151 -2.57941 0
M  V30 1881 N 190.675 0.682077 -1.42076 0
M  V30 1882 C 191.605 1.80796 -1.47767 0
M  V30 1883 C 192.586 1.6677 -0.334954 0
M  V30 1884 O 193.771 1.863 -0.548264 0
M  V30 1885 C 190.901 3.19038 -1.37229 0
M  V30 1886 C 189.855 3.47789 -2.49453 0
M  V30 1887 C 189.181 4.8553 -2.23975 0
M  V30 1888 C 190.481 3.45411 -3.91776 0
M  V30 1889 H 192.175 1.7629 -2.41997 0
M  V30 1890 H 189.721 0.846721 -1.16476 0
M  V30 1891 H 191.674 3.97528 -1.39821 0
M  V30 1892 H 190.398 3.24204 -0.394907 0
M  V30 1893 H 189.057 2.71657 -2.46166 0
M  V30 1894 H 188.705 4.87337 -1.24547 0
M  V30 1895 H 188.405 5.0573 -2.99184 0
M  V30 1896 H 189.929 5.66312 -2.28304 0
M  V30 1897 H 191.343 4.13882 -3.96705 0
M  V30 1898 H 189.74 3.77145 -4.66778 0
M  V30 1899 H 190.81 2.44122 -4.18966 0
M  V30 1900 N 192.153 1.28127 0.917671 0
M  V30 1901 C 193.086 1.06039 2.02067 0
M  V30 1902 C 194.064 -0.0223285 1.62585 0
M  V30 1903 O 195.248 0.124823 1.88086 0
M  V30 1904 C 192.375 0.610596 3.33151 0
M  V30 1905 C 191.421 1.68937 3.91615 0
M  V30 1906 S 192.254 3.28437 4.22953 0
M  V30 1907 C 193.41 2.85283 5.57103 0
M  V30 1908 H 193.643 1.99425 2.20493 0
M  V30 1909 H 191.176 1.12071 1.06205 0
M  V30 1910 H 193.134 0.357778 4.08938 0
M  V30 1911 H 191.795 -0.303364 3.12632 0
M  V30 1912 H 190.988 1.32619 4.86239 0
M  V30 1913 H 190.59 1.89478 3.2245 0
M  V30 1914 H 192.882 2.3121 6.36827 0
M  V30 1915 H 193.825 3.7869 5.98331 0
M  V30 1916 H 194.233 2.24118 5.18104 0
M  V30 1917 N 193.631 -1.12557 1.10312 0
M  V30 1918 C 194.88 -1.83395 0.839588 0
M  V30 1919 C 195.193 -1.84939 -0.636929 0
M  V30 1920 O 196.399 -2.51761 -1.01631 0
M  V30 1921 C 194.855 -3.29303 1.45215 0
M  V30 1922 C 194.463 -3.36122 2.96186 0
M  V30 1923 C 196.207 -4.05121 1.26796 0
M  V30 1924 C 194.114 -4.76357 3.50483 0
M  V30 1925 H 193.044 -0.687133 0.310425 0
M  V30 1926 H 195.695 -1.26746 1.32694 0
M  V30 1927 H 194.077 -3.85812 0.892469 0
M  V30 1928 H 195.251 -2.89559 3.58458 0
M  V30 1929 H 193.566 -2.73776 3.13745 0
M  V30 1930 H 196.163 -5.08668 1.64806 0
M  V30 1931 H 196.506 -4.15773 0.209409 0
M  V30 1932 H 197.039 -3.54967 1.79563 0
M  V30 1933 H 193.778 -4.70899 4.55998 0
M  V30 1934 H 193.298 -5.23377 2.92978 0
M  V30 1935 H 194.977 -5.45294 3.48228 0
M  V30 1936 N 195.109 -0.891671 -1.2995 0
M  V30 1937 C 196.334 -0.527932 -2.00568 0
M  V30 1938 C 196.759 0.877969 -1.66353 0
M  V30 1939 O 196.117 1.58301 -0.883762 0
M  V30 1940 C 196.165 -0.717745 -3.53385 0
M  V30 1941 O 195.269 0.233376 -4.11739 0
M  V30 1942 H 194.61 -0.20722 -0.630837 0
M  V30 1943 H 197.14 -1.20105 -1.65638 0
M  V30 1944 H 197.15 -0.619307 -4.03272 0
M  V30 1945 H 195.825 -1.74276 -3.77625 0
M  V30 1946 H 194.402 0.0880706 -3.72796 0
M  V30 1947 N 196.587 1.43421 -0.653314 0
M  V30 1948 C 198.003 1.56341 -0.320886 0
M  V30 1949 C 198.203 1.63696 1.17499 0
M  V30 1950 O 197.259 1.59208 1.95982 0
M  V30 1951 C 198.572 2.82424 -1.03233 0
M  V30 1952 C 200.12 2.96168 -1.01259 0
M  V30 1953 C 200.595 4.25084 -1.70492 0
M  V30 1954 N 202.086 4.31948 -1.67257 0
M  V30 1955 C 202.821 5.30466 -2.17701 0
M  V30 1956 N 202.317 6.35261 -2.76434 0
M  V30 1957 N 204.11 5.2212 -2.082 0
M  V30 1958 H 196.261 1.3689 -1.62403 0
M  V30 1959 H 198.524 0.657455 -0.682977 0
M  V30 1960 H 198.23 2.83053 -2.08744 0
M  V30 1961 H 198.104 3.72653 -0.583948 0
M  V30 1962 H 200.491 2.9508 0.0341235 0
M  V30 1963 H 200.572 2.07229 -1.49966 0
M  V30 1964 H 200.216 4.26932 -2.7512 0
M  V30 1965 H 200.146 5.1292 -1.19251 0
M  V30 1966 H 202.637 3.56838 -1.24398 0
M  V30 1967 H 202.95 7.06754 -3.12601 0
M  V30 1968 H 201.295 6.35884 -2.80495 0
M  V30 1969 H 204.486 4.39166 -1.62021 0
M  V30 1970 H 204.659 5.98739 -2.47822 0
M  V30 1971 N 198.065 0.39524 1.52563 0
M  V30 1972 C 199.293 -0.184943 2.06072 0
M  V30 1973 C 199.708 -1.40021 1.26647 0
M  V30 1974 O 199.065 -1.79767 0.314672 0
M  V30 1975 C 199.116 -0.549179 3.57304 0
M  V30 1976 O 198.837 0.617813 4.33722 0
M  V30 1977 C 200.338 -1.18459 4.2718 0
M  V30 1978 H 197.558 -0.0265025 0.670476 0
M  V30 1979 H 200.102 0.562184 1.96621 0
M  V30 1980 H 198.257 -1.2462 3.66809 0
M  V30 1981 H 198.671 0.317091 5.23541 0
M  V30 1982 H 200.145 -1.38976 5.34219 0
M  V30 1983 H 200.622 -2.15368 3.82771 0
M  V30 1984 H 201.228 -0.528163 4.22008 0
M  V30 1985 N 199.544 -1.57102 0.125237 0
M  V30 1986 C 200.955 -1.82384 -0.399142 0
M  V30 1987 C 201.306 -1.04276 -1.66195 0
M  V30 1988 O 200.431 -0.281269 -2.14564 0
M  V30 1989 C 201.026 -3.30821 -0.730932 0
M  V30 1990 C 199.585 -3.56762 -1.19992 0
M  V30 1991 C 198.732 -2.7649 -0.211792 0
M  V30 1992 H 201.683 -1.54786 0.350277 0
M  V30 1993 H 201.704 -3.4579 -1.58775 0
M  V30 1994 H 201.216 -3.87643 0.188345 0
M  V30 1995 H 199.317 -3.05305 -2.13588 0
M  V30 1996 H 199.43 -4.65317 -1.14093 0
M  V30 1997 H 197.794 -2.4489 -0.700085 0
M  V30 1998 H 198.577 -3.36073 0.700691 0
M  V30 1999 N 201.022 0.148545 -1.56898 0
M  V30 2000 C 201.932 1.20293 -2.01412 0
M  V30 2001 C 202.948 1.47107 -0.929273 0
M  V30 2002 O 204.124 1.58807 -1.23863 0
M  V30 2003 C 201.189 2.51682 -2.38447 0
M  V30 2004 C 200.25 2.32529 -3.60872 0
M  V30 2005 C 199.483 3.57653 -3.96132 0
M  V30 2006 O 199.706 4.63771 -3.32073 0
M  V30 2007 O 198.64 3.50408 -4.89385 0
M  V30 2008 H 202.466 0.855025 -2.91416 0
M  V30 2009 H 200.051 0.357151 -1.45068 0
M  V30 2010 H 201.933 3.29147 -2.63135 0
M  V30 2011 H 200.608 2.86006 -1.51599 0
M  V30 2012 H 199.515 1.53019 -3.41373 0
M  V30 2013 H 200.848 2.03121 -4.48333 0
M  V30 2014 N 202.5 1.5196 0.417844 0
M  V30 2015 C 203.746 1.65836 1.16732 0
M  V30 2016 C 204.079 0.382881 1.90388 0
M  V30 2017 O 203.354 -0.618368 1.84408 0
M  V30 2018 C 203.637 2.87466 2.16876 0
M  V30 2019 C 203.49 4.25041 1.47174 0
M  V30 2020 C 204.809 3.04613 3.17646 0
M  V30 2021 H 201.928 0.603515 0.423011 0
M  V30 2022 H 204.57 1.84494 0.454105 0
M  V30 2023 H 202.72 2.71689 2.777 0
M  V30 2024 H 204.392 4.52527 0.895376 0
M  V30 2025 H 202.635 4.26843 0.773806 0
M  V30 2026 H 203.306 5.06176 2.20204 0
M  V30 2027 H 205.782 3.1923 2.66892 0
M  V30 2028 H 204.658 3.91247 3.8499 0
M  V30 2029 H 204.919 2.17541 3.84874 0
M  V30 2030 N 203.978 -0.674533 1.42435 0
M  V30 2031 C 205.206 -1.46283 1.46317 0
M  V30 2032 C 205.621 -1.88653 0.0745836 0
M  V30 2033 O 204.978 -1.58151 -0.91074 0
M  V30 2034 C 205.029 -2.71178 2.3905 0
M  V30 2035 O 204.75 -2.30586 3.72507 0
M  V30 2036 C 206.251 -3.64738 2.51955 0
M  V30 2037 H 203.471 -0.450104 0.497642 0
M  V30 2038 H 206.015 -0.828792 1.86953 0
M  V30 2039 H 204.17 -3.3077 2.01667 0
M  V30 2040 H 204.584 -3.11241 4.22172 0
M  V30 2041 H 206.058 -4.49096 3.20962 0
M  V30 2042 H 206.535 -4.10656 1.55752 0
M  V30 2043 H 207.141 -3.11038 2.90061 0
M  V30 2044 N 205.456 -1.28612 -0.910864 0
M  V30 2045 C 206.696 -1.1719 -1.67469 0
M  V30 2046 C 207.06 0.274441 -1.90028 0
M  V30 2047 O 208.261 0.511425 -2.6389 0
M  V30 2048 C 206.532 -1.95137 -2.99427 0
M  V30 2049 S 208.091 -2.00122 -3.90508 0
M  V30 2050 H 204.909 -0.41806 -0.575106 0
M  V30 2051 H 207.511 -1.6275 -1.08317 0
M  V30 2052 H 206.215 -2.99381 -2.80712 0
M  V30 2053 H 205.746 -1.50137 -3.63624 0
M  V30 2054 H 207.761 -1.10981 -4.8363 0
M  V30 2055 N 206.934 1.1197 -1.10907 0
M  V30 2056 C 208.18 1.8386 -0.855773 0
M  V30 2057 C 208.513 1.84134 0.617103 0
M  V30 2058 O 207.788 1.29041 1.45529 0
M  V30 2059 C 208.071 3.31305 -1.411 0
M  V30 2060 C 207.924 3.39456 -2.9511 0
M  V30 2061 C 209.243 4.2721 -1.05736 0
M  V30 2062 H 206.362 0.667545 -0.312334 0
M  V30 2063 H 209.004 1.31331 -1.37303 0
M  V30 2064 H 207.154 3.76169 -0.97105 0
M  V30 2065 H 208.826 3.03191 -3.47668 0
M  V30 2066 H 207.069 2.79849 -3.31462 0
M  V30 2067 H 207.74 4.43209 -3.29044 0
M  V30 2068 H 210.216 3.90497 -1.43706 0
M  V30 2069 H 209.092 5.28775 -1.47269 0
M  V30 2070 H 209.353 4.42088 0.0325958 0
M  V30 2071 N 208.412 0.89855 1.29475 0
M  V30 2072 C 209.658 0.524658 1.95896 0
M  V30 2073 C 209.991 -0.926468 1.70676 0
M  V30 2074 O 209.266 -1.65665 1.01908 0
M  V30 2075 C 209.549 0.81633 3.50725 0
M  V30 2076 C 209.402 2.31907 3.85408 0
M  V30 2077 C 210.721 0.302038 4.39062 0
M  V30 2078 H 207.84 0.19209 0.711527 0
M  V30 2079 H 210.482 1.12502 1.53112 0
M  V30 2080 H 208.632 0.305369 3.87298 0
M  V30 2081 H 210.304 2.89949 3.58786 0
M  V30 2082 H 208.547 2.78027 3.32992 0
M  V30 2083 H 209.218 2.47373 4.93468 0
M  V30 2084 H 211.694 0.739551 4.09475 0
M  V30 2085 H 210.57 0.535331 5.46283 0
M  V30 2086 H 210.831 -0.797216 4.34853 0
M  V30 2087 N 209.89 -1.43072 0.660911 0
M  V30 2088 C 211.136 -2.0202 0.177708 0
M  V30 2089 C 211.469 -1.52066 -1.20787 0
M  V30 2090 O 210.744 -0.716987 -1.80802 0
M  V30 2091 C 211.027 -3.59561 0.197019 0
M  V30 2092 C 210.88 -4.19727 1.61706 0
M  V30 2093 C 212.199 -4.37664 -0.462396 0
M  V30 2094 H 209.318 -0.734034 0.0660494 0
M  V30 2095 H 211.96 -1.70272 0.843058 0
M  V30 2096 H 210.11 -3.86739 -0.369527 0
M  V30 2097 H 211.782 -4.03553 2.23479 0
M  V30 2098 H 210.025 -3.76084 2.16201 0
M  V30 2099 H 210.696 -5.28834 1.58237 0
M  V30 2100 H 213.172 -4.16095 0.0197215 0
M  V30 2101 H 212.048 -5.47305 -0.418188 0
M  V30 2102 H 212.309 -4.14493 -1.53778 0
M  V30 2103 N 211.368 -0.403325 -1.52352 0
M  V30 2104 C 212.645 0.232611 -1.94212 0
M  V30 2105 C 213.025 1.63133 -1.33981 0
M  V30 2106 O 212.373 2.22659 -0.513344 0
M  V30 2107 C 212.583 0.244811 -3.4814 0
M  V30 2108 C 213.931 0.46698 -4.22024 0
M  V30 2109 O 214.955 0.324419 -3.5472 0
M  V30 2110 O 213.814 0.74747 -5.41364 0
M  V30 2111 H 210.908 0.148223 -0.813609 0
M  V30 2112 H 213.454 -0.458848 -1.63379 0
M  V30 2113 H 212.226 -0.734378 -3.84347 0
M  V30 2114 H 211.849 0.980611 -3.85318 0
M  V30 2115 N 212.846 1.57033 -0.133567 0
M  V30 2116 C 214.092 1.95976 0.521649 0
M  V30 2117 C 214.425 1.01779 1.65393 0
M  V30 2118 O 213.7 0.0576581 1.94415 0
M  V30 2119 C 213.983 3.44738 1.04057 0
M  V30 2120 C 213.836 4.49711 -0.0892897 0
M  V30 2121 C 215.155 3.95682 1.92675 0
M  V30 2122 H 212.274 0.712579 0.188149 0
M  V30 2123 H 214.916 1.88813 -0.212076 0
M  V30 2124 H 213.066 3.50973 1.66583 0
M  V30 2125 H 214.738 4.55565 -0.725152 0
M  V30 2126 H 212.981 4.27261 -0.750378 0
M  V30 2127 H 213.652 5.51099 0.315284 0
M  V30 2128 H 216.128 3.91841 1.39998 0
M  V30 2129 H 215.004 5.00262 2.25897 0
M  V30 2130 H 215.265 3.37239 2.85872 0
M  V30 2131 N 214.325 -0.140222 1.56975 0
M  V30 2132 C 215.55 -0.870414 1.88251 0
M  V30 2133 C 215.975 -1.73637 0.723312 0
M  V30 2134 O 215.333 -1.78329 -0.32689 0
M  V30 2135 C 215.381 -1.69737 3.18154 0
M  V30 2136 O 214.485 -2.80229 3.02565 0
M  V30 2137 H 213.826 -0.242025 0.61832 0
M  V30 2138 H 216.356 -0.128999 2.04193 0
M  V30 2139 H 216.366 -2.09099 3.50345 0
M  V30 2140 H 215.041 -1.06152 4.02125 0
M  V30 2141 H 213.618 -2.44224 2.81796 0
M  V30 2142 N 215.803 -1.52179 -0.40978 0
M  V30 2143 C 216.753 -1.71857 -1.49831 0
M  V30 2144 C 217.737 -0.572469 -1.50372 0
M  V30 2145 O 218.929 -0.829509 -1.56359 0
M  V30 2146 C 216.058 -1.87206 -2.87765 0
M  V30 2147 C 215.144 -3.07685 -2.91875 0
M  V30 2148 N 215.535 -4.30403 -2.65683 0
M  V30 2149 C 213.833 -3.07505 -3.23043 0
M  V30 2150 C 214.534 -5.11868 -2.76344 0
M  V30 2151 N 213.51 -4.47101 -3.09195 0
M  V30 2152 H 217.312 -2.64381 -1.28375 0
M  V30 2153 H 214.826 -1.50203 -0.617479 0
M  V30 2154 H 216.823 -1.99419 -3.66111 0
M  V30 2155 H 215.483 -0.958814 -3.10221 0
M  V30 2156 H 216.494 -4.58887 -2.4009 0
M  V30 2157 H 213.171 -2.25915 -3.51096 0
M  V30 2158 H 214.561 -6.19634 -2.59814 0
M  V30 2159 N 217.281 0.66697 -1.42791 0
M  V30 2160 C 218.191 1.80962 -1.49299 0
M  V30 2161 C 219.207 1.69775 -0.381108 0
M  V30 2162 O 220.383 1.91188 -0.633188 0
M  V30 2163 C 217.448 3.17156 -1.40045 0
M  V30 2164 C 216.509 3.40242 -2.6179 0
M  V30 2165 C 215.742 4.69939 -2.52969 0
M  V30 2166 O 215.965 5.48372 -1.56985 0
M  V30 2167 O 214.899 4.94441 -3.43237 0
M  V30 2168 H 218.725 1.78427 -2.45759 0
M  V30 2169 H 216.31 0.823713 -1.24641 0
M  V30 2170 H 218.192 3.98413 -1.37276 0
M  V30 2171 H 216.867 3.20312 -0.467138 0
M  V30 2172 H 215.774 2.58802 -2.70134 0
M  V30 2173 H 217.107 3.41923 -3.54047 0
M  V30 2174 N 218.759 1.29093 0.90403 0
M  V30 2175 C 220.036 1.075 1.63411 0
M  V30 2176 C 220.416 -0.382346 2.07609 0
M  V30 2177 O 219.764 -1.37031 1.82851 0
M  V30 2178 C 219.974 2.05858 2.81822 0
M  V30 2179 C 221.322 2.36539 3.52611 0
M  V30 2180 O 222.346 2.04019 2.91984 0
M  V30 2181 O 221.205 2.92085 4.61897 0
M  V30 2182 H 218.299 0.411547 0.717327 0
M  V30 2183 H 220.845 1.40449 0.952479 0
M  V30 2184 H 219.617 3.04037 2.46327 0
M  V30 2185 H 219.24 1.73613 3.57693 0
M  V30 2186 N 220.237 -1.11381 1.11499 0
M  V30 2187 C 221.648 -1.6465 0.880191 0
M  V30 2188 C 221.999 -1.87199 -0.587434 0
M  V30 2189 O 221.124 -1.60667 -1.44966 0
M  V30 2190 C 221.719 -2.99105 1.59128 0
M  V30 2191 C 220.278 -3.49279 1.40289 0
M  V30 2192 C 219.425 -2.24077 1.63354 0
M  V30 2193 H 222.376 -0.950123 1.27116 0
M  V30 2194 H 222.397 -3.66107 1.03664 0
M  V30 2195 H 221.909 -2.82661 2.65941 0
M  V30 2196 H 220.01 -3.70887 0.356888 0
M  V30 2197 H 220.123 -4.2803 2.15238 0
M  V30 2198 H 218.487 -2.31733 1.05698 0
M  V30 2199 H 219.27 -2.10175 2.71443 0
M  V30 2200 N 221.715 -0.905404 -1.28997 0
M  V30 2201 C 222.625 -0.392246 -2.31298 0
M  V30 2202 C 223.641 0.515889 -1.66176 0
M  V30 2203 O 224.817 0.404093 -1.97304 0
M  V30 2204 C 221.882 0.36686 -3.44754 0
M  V30 2205 C 220.943 -0.573485 -4.25452 0
M  V30 2206 C 220.176 0.149488 -5.33491 0
M  V30 2207 O 220.399 1.37255 -5.5364 0
M  V30 2208 O 219.333 -0.510919 -5.99728 0
M  V30 2209 H 223.159 -1.2411 -2.77183 0
M  V30 2210 H 220.744 -0.669926 -1.33538 0
M  V30 2211 H 222.626 0.795907 -4.13816 0
M  V30 2212 H 221.301 1.19169 -3.00966 0
M  V30 2213 H 220.208 -1.05176 -3.59011 0
M  V30 2214 H 221.541 -1.36489 -4.72897 0
M  V30 2215 N 223.193 1.4272 -0.668489 0
M  V30 2216 C 224.439 2.01923 -0.188419 0
M  V30 2217 C 224.772 1.52704 1.19979 0
M  V30 2218 O 224.047 0.726566 1.8042 0
M  V30 2219 C 224.33 3.59451 -0.216085 0
M  V30 2220 C 224.183 4.18864 -1.6393 0
M  V30 2221 C 225.502 4.37903 0.439179 0
M  V30 2222 H 222.621 0.733674 -0.0699412 0
M  V30 2223 H 225.263 1.69822 -0.852076 0
M  V30 2224 H 223.413 3.86929 0.349012 0
M  V30 2225 H 225.085 4.02362 -2.25616 0
M  V30 2226 H 223.328 3.74933 -2.18193 0
M  V30 2227 H 223.999 5.27987 -1.61039 0
M  V30 2228 H 226.475 4.16079 -0.0417878 0
M  V30 2229 H 225.351 5.47519 0.389157 0
M  V30 2230 H 225.612 4.15303 1.51577 0
M  V30 2231 N 224.671 0.411399 1.52136 0
M  V30 2232 C 225.603 -0.448386 2.24771 0
M  V30 2233 C 226.616 -1.00828 1.27818 0
M  V30 2234 O 227.805 -0.906841 1.53749 0
M  V30 2235 C 224.905 -1.63636 2.96777 0
M  V30 2236 C 224.078 -1.19995 4.20618 0
M  V30 2237 C 223.137 -2.25509 4.75428 0
M  V30 2238 O 222.163 -1.86007 5.3795 0
M  V30 2239 N 223.365 -3.577 4.57199 0
M  V30 2240 H 226.13 0.174025 2.99194 0
M  V30 2241 H 223.691 0.238897 1.60128 0
M  V30 2242 H 225.683 -2.33793 3.30338 0
M  V30 2243 H 224.253 -2.16465 2.25526 0
M  V30 2244 H 223.473 -0.326421 3.92846 0
M  V30 2245 H 224.761 -0.885365 5.01038 0
M  V30 2246 H 224.159 -3.92543 4.07341 0
M  V30 2247 H 222.716 -4.23827 4.95191 0
M  V30 2248 N 226.149 -1.5696 0.141893 0
M  V30 2249 C 227.396 -1.9596 -0.510492 0
M  V30 2250 C 227.724 -1.02648 -1.65208 0
M  V30 2251 O 226.979 -0.0546947 -1.95624 0
M  V30 2252 C 227.278 -3.41242 -1.06249 0
M  V30 2253 C 226.944 -4.50882 -0.0398791 0
M  V30 2254 C 225.606 -4.80595 0.241247 0
M  V30 2255 C 227.958 -5.17058 0.65578 0
M  V30 2256 C 225.286 -5.73792 1.22393 0
M  V30 2257 C 227.638 -6.11313 1.62724 0
M  V30 2258 C 226.302 -6.39407 1.91612 0
M  V30 2259 H 225.572 -0.717068 -0.186802 0
M  V30 2260 H 228.219 -1.90142 0.227643 0
M  V30 2261 H 226.524 -3.43866 -1.87785 0
M  V30 2262 H 228.221 -3.68742 -1.57576 0
M  V30 2263 H 224.811 -4.27754 -0.269174 0
M  V30 2264 H 228.995 -4.94239 0.451779 0
M  V30 2265 H 224.251 -5.93853 1.45424 0
M  V30 2266 H 228.425 -6.61668 2.17183 0
M  V30 2267 H 226.052 -7.11427 2.6791 0
M  V30 2268 N 227.627 0.131896 -1.57047 0
M  V30 2269 C 228.575 1.18146 -2.0036 0
M  V30 2270 C 229.569 1.43614 -0.898406 0
M  V30 2271 O 230.775 1.43729 -1.08361 0
M  V30 2272 H 227.15 0.398042 -0.638018 0
M  V30 2273 H 229.121 0.789564 -2.87765 0
M  V30 2274 C 227.87 2.50341 -2.41298 0
M  V30 2275 H 227.193 2.31578 -3.25902 0
M  V30 2276 H 228.633 3.22371 -2.75414 0
M  V30 2277 C 227.092 3.11984 -1.27153 0
M  V30 2278 O 227.622 3.97484 -0.580459 0
M  V30 2279 N 225.828 2.71662 -1.03189 0
M  V30 2280 H 225.375 2.02231 -1.59564 0
M  V30 2281 H 225.333 3.13238 -0.270077 0
M  V30 2282 N 229.106 1.52395 0.401703 0
M  V30 2283 C 230.352 1.68019 1.14635 0
M  V30 2284 C 230.707 0.408722 1.88009 0
M  V30 2285 O 230 -0.597133 1.82057 0
M  V30 2286 C 230.194 2.84578 2.16217 0
M  V30 2287 C 230.023 4.22938 1.5282 0
M  V30 2288 C 228.793 4.88352 1.29772 0
M  V30 2289 C 230.991 5.04778 0.985094 0
M  V30 2290 N 228.973 6.10726 0.623455 0
M  V30 2291 C 230.344 6.1845 0.438172 0
M  V30 2292 C 232.399 4.90057 0.880275 0
M  V30 2293 C 231.102 7.19013 -0.203306 0
M  V30 2294 C 233.128 5.9086 0.252639 0
M  V30 2295 C 232.49 7.03829 -0.283573 0
M  V30 2296 H 228.589 0.668413 0.405892 0
M  V30 2297 H 231.173 1.89717 0.437674 0
M  V30 2298 H 229.344 2.64483 2.84435 0
M  V30 2299 H 231.076 2.89202 2.83098 0
M  V30 2300 H 227.831 4.46846 1.56926 0
M  V30 2301 H 228.255 6.76323 0.302733 0
M  V30 2302 H 232.897 4.02938 1.28065 0
M  V30 2303 H 230.615 8.05751 -0.615726 0
M  V30 2304 H 234.201 5.81543 0.172954 0
M  V30 2305 H 233.081 7.80493 -0.761575 0
M  V30 2306 N 230.584 -0.659388 1.43143 0
M  V30 2307 C 231.814 -1.44513 1.47646 0
M  V30 2308 C 232.222 -1.88981 0.0910095 0
M  V30 2309 O 231.565 -1.59702 -0.907789 0
M  V30 2310 C 231.627 -2.71663 2.35456 0
M  V30 2311 C 231.291 -2.49175 3.83094 0
M  V30 2312 C 232.288 -2.1279 4.74359 0
M  V30 2313 C 229.973 -2.63691 4.27519 0
M  V30 2314 C 231.967 -1.9121 6.08044 0
M  V30 2315 C 229.654 -2.41726 5.61259 0
M  V30 2316 C 230.652 -2.0554 6.51339 0
M  V30 2317 O 230.34 -1.838 7.82606 0
M  V30 2318 H 230.072 -0.45064 0.503884 0
M  V30 2319 H 232.626 -0.816248 1.88485 0
M  V30 2320 H 230.856 -3.37089 1.89493 0
M  V30 2321 H 232.545 -3.33595 2.31235 0
M  V30 2322 H 233.311 -2.01157 4.41317 0
M  V30 2323 H 229.19 -2.90832 3.57684 0
M  V30 2324 H 232.734 -1.62889 6.78316 0
M  V30 2325 H 228.631 -2.52959 5.9387 0
M  V30 2326 H 229.399 -1.98275 7.94122 0
M  V30 2327 N 232.062 -1.29571 -0.897171 0
M  V30 2328 C 233.308 -1.17863 -1.65034 0
M  V30 2329 C 233.641 0.268729 -1.92332 0
M  V30 2330 O 232.916 1.19378 -1.53555 0
M  V30 2331 C 233.199 -1.995 -2.99786 0
M  V30 2332 C 233.052 -3.5239 -2.79538 0
M  V30 2333 C 234.371 -1.82335 -4.00552 0
M  V30 2334 H 231.49 -0.429528 -0.598895 0
M  V30 2335 H 234.132 -1.59072 -1.03905 0
M  V30 2336 H 232.282 -1.64485 -3.51962 0
M  V30 2337 H 233.954 -3.97401 -2.34244 0
M  V30 2338 H 232.197 -3.77187 -2.14273 0
M  V30 2339 H 232.868 -4.04787 -3.75302 0
M  V30 2340 H 235.344 -2.12924 -3.57495 0
M  V30 2341 H 234.22 -2.41801 -4.92771 0
M  V30 2342 H 234.481 -0.779209 -4.35179 0
M  V30 2343 N 233.54 1.10788 -1.12088 0
M  V30 2344 C 234.817 1.79136 -0.785476 0
M  V30 2345 C 235.197 1.98246 0.725377 0
M  V30 2346 O 234.545 1.57258 1.65778 0
M  V30 2347 C 234.755 3.12375 -1.55636 0
M  V30 2348 C 236.103 3.8731 -1.74001 0
M  V30 2349 O 237.127 3.22085 -1.52117 0
M  V30 2350 O 235.986 5.04369 -2.10415 0
M  V30 2351 H 233.08 0.776226 -0.285311 0
M  V30 2352 H 235.626 1.1747 -1.2247 0
M  V30 2353 H 234.398 2.93863 -2.5838 0
M  V30 2354 H 234.021 3.81758 -1.11114 0
M  V30 2355 N 235.018 0.912232 1.28515 0
M  V30 2356 C 236.266 0.543523 1.94654 0
M  V30 2357 C 236.587 -0.9155 1.72173 0
M  V30 2358 O 235.857 -1.64708 1.06058 0
M  V30 2359 H 234.437 0.198017 0.720277 0
M  V30 2360 H 237.099 1.16126 1.56527 0
M  V30 2361 H 236.195 0.736684 3.03281 0
M  V30 2362 N 236.496 -1.42363 0.676048 0
M  V30 2363 C 237.742 -2.0182 0.199125 0
M  V30 2364 C 238.075 -1.53339 -1.19168 0
M  V30 2365 O 237.35 -0.736124 -1.80032 0
M  V30 2366 C 237.633 -3.59331 0.235144 0
M  V30 2367 C 237.486 -4.17989 1.66149 0
M  V30 2368 C 238.805 -4.3813 -0.41595 0
M  V30 2369 H 235.924 -0.733293 0.0738311 0
M  V30 2370 H 238.566 -1.69368 0.86107 0
M  V30 2371 H 236.716 -3.87109 -0.328487 0
M  V30 2372 H 238.388 -4.0116 2.27747 0
M  V30 2373 H 236.631 -3.7377 2.20178 0
M  V30 2374 H 237.302 -5.27126 1.63837 0
M  V30 2375 H 239.778 -4.16051 0.0638529 0
M  V30 2376 H 238.654 -5.47717 -0.360115 0
M  V30 2377 H 238.915 -4.16101 -1.49373 0
M  V30 2378 N 237.974 -0.419461 -1.51915 0
M  V30 2379 C 238.884 0.407528 -2.31033 0
M  V30 2380 C 239.9 1.04413 -1.3919 0
M  V30 2381 O 241.076 1.0434 -1.72265 0
M  V30 2382 C 238.141 1.50365 -3.12396 0
M  V30 2383 C 237.202 0.889029 -4.19994 0
M  V30 2384 C 236.435 1.93291 -4.97468 0
M  V30 2385 O 236.658 3.15259 -4.75361 0
M  V30 2386 O 235.592 1.53339 -5.8204 0
M  V30 2387 H 239.418 -0.237865 -3.02767 0
M  V30 2388 H 237.003 -0.182413 -1.48282 0
M  V30 2389 H 238.885 2.13975 -3.63032 0
M  V30 2390 H 237.56 2.13345 -2.43445 0
M  V30 2391 H 236.467 0.215353 -3.7348 0
M  V30 2392 H 237.8 0.302991 -4.91267 0
M  V30 2393 N 239.452 1.56882 -0.150215 0
M  V30 2394 C 240.698 1.96518 0.500834 0
M  V30 2395 C 241.031 1.03527 1.64304 0
M  V30 2396 O 240.306 0.0782751 1.94342 0
M  V30 2397 C 240.589 3.45822 1.00395 0
M  V30 2398 C 240.442 4.49591 -0.136983 0
M  V30 2399 C 241.761 3.97704 1.88467 0
M  V30 2400 H 238.88 0.714535 0.18058 0
M  V30 2401 H 241.522 1.88577 -0.232091 0
M  V30 2402 H 239.672 3.5272 1.62851 0
M  V30 2403 H 241.344 4.5477 -0.77343 0
M  V30 2404 H 239.587 4.26441 -0.795652 0
M  V30 2405 H 240.258 5.51402 0.256815 0
M  V30 2406 H 242.734 3.93304 1.35834 0
M  V30 2407 H 241.61 5.0263 2.20578 0
M  V30 2408 H 241.871 3.40252 2.82279 0
M  V30 2409 N 240.93 -0.123565 1.57115 0
M  V30 2410 C 241.88 -1.1575 1.96433 0
M  V30 2411 C 242.864 -1.37313 0.838686 0
M  V30 2412 O 244.056 -1.38482 1.10235 0
M  V30 2413 C 241.185 -2.48526 2.36833 0
M  V30 2414 C 240.271 -2.30457 3.5602 0
M  V30 2415 N 240.662 -1.8219 4.71848 0
M  V30 2416 C 238.96 -2.61129 3.61563 0
M  V30 2417 C 239.661 -1.77721 5.53886 0
M  V30 2418 N 238.637 -2.21899 4.96248 0
M  V30 2419 H 242.439 -0.776797 2.83449 0
M  V30 2420 H 239.953 -0.331364 1.58983 0
M  V30 2421 H 241.95 -3.233 2.63216 0
M  V30 2422 H 240.61 -2.87358 1.5118 0
M  V30 2423 H 241.621 -1.51805 4.95152 0
M  V30 2424 H 238.298 -3.03678 2.86507 0
M  V30 2425 H 239.688 -1.41697 6.56789 0
M  V30 2426 N 242.408 -1.52605 -0.393616 0
M  V30 2427 C 243.356 -1.77688 -1.50099 0
M  V30 2428 C 244.35 -0.644615 -1.56656 0
M  V30 2429 O 245.556 -0.826997 -1.59877 0
M  V30 2430 H 241.931 -0.562159 -0.499481 0
M  V30 2431 H 243.902 -2.7043 -1.26135 0
M  V30 2432 C 242.651 -1.95858 -2.87289 0
M  V30 2433 H 241.974 -2.8241 -2.82992 0
M  V30 2434 H 243.414 -2.174 -3.64024 0
M  V30 2435 C 241.873 -0.729848 -3.28899 0
M  V30 2436 O 242.403 0.0949217 -4.01588 0
M  V30 2437 N 240.609 -0.561283 -2.85128 0
M  V30 2438 H 240.156 -1.23357 -2.26143 0
M  V30 2439 H 240.114 0.2595 -3.13327 0
M  V30 2440 N 243.887 0.651787 -1.4349 0
M  V30 2441 C 244.85 1.74647 -1.48429 0
M  V30 2442 C 245.85 1.56513 -0.368817 0
M  V30 2443 O 247.04 1.62385 -0.630623 0
M  V30 2444 C 244.172 3.13533 -1.33827 0
M  V30 2445 H 245.365 1.71649 -2.4592 0
M  V30 2446 H 242.918 0.863573 -1.30277 0
M  V30 2447 H 243.653 3.22142 -0.37349 0
M  V30 2448 H 243.438 3.28101 -2.14691 0
M  V30 2449 H 244.928 3.93356 -1.40218 0
M  V30 2450 N 245.365 1.30045 0.890287 0
M  V30 2451 C 246.312 1.15976 1.99545 0
M  V30 2452 C 247.282 0.0506202 1.66023 0
M  V30 2453 O 248.467 0.219847 1.89529 0
M  V30 2454 C 245.607 0.852054 3.34416 0
M  V30 2455 C 244.72 2.04255 3.80662 0
M  V30 2456 C 243.855 1.6734 5.04154 0
M  V30 2457 C 242.894 2.82916 5.42794 0
M  V30 2458 N 242.031 2.46333 6.57468 0
M  V30 2459 H 246.871 2.10524 2.10911 0
M  V30 2460 H 244.408 1.04749 1.03276 0
M  V30 2461 H 246.366 0.654296 4.12037 0
M  V30 2462 H 244.996 -0.0565502 3.2275 0
M  V30 2463 H 244.048 2.35172 2.98995 0
M  V30 2464 H 245.36 2.90826 4.05242 0
M  V30 2465 H 244.514 1.43908 5.89386 0
M  V30 2466 H 243.253 0.779308 4.81433 0
M  V30 2467 H 242.258 3.0702 4.56091 0
M  V30 2468 H 243.483 3.73004 5.6749 0
M  V30 2469 H 241.429 1.59423 6.36334 0
M  V30 2470 H 241.346 3.26436 6.81891 0
M  V30 2471 H 242.614 2.26244 7.45945 0
M  V30 2472 N 246.843 -1.10192 1.12674 0
M  V30 2473 C 248.071 -1.85983 0.906527 0
M  V30 2474 C 248.486 -1.80783 -0.544333 0
M  V30 2475 O 247.843 -1.19834 -1.37645 0
M  V30 2476 C 247.894 -3.34281 1.37618 0
M  V30 2477 O 247.615 -3.39401 2.77017 0
M  V30 2478 C 249.116 -4.26938 1.19325 0
M  V30 2479 H 246.336 -0.587716 0.323775 0
M  V30 2480 H 248.88 -1.39284 1.49734 0
M  V30 2481 H 247.035 -3.78436 0.828539 0
M  V30 2482 H 247.449 -4.31838 2.97684 0
M  V30 2483 H 248.923 -5.29181 1.57071 0
M  V30 2484 H 249.4 -4.38995 0.134097 0
M  V30 2485 H 250.006 -3.8859 1.72852 0
M  V30 2486 N 248.321 -0.919034 -1.28029 0
M  V30 2487 C 249.268 -0.410005 -2.27129 0
M  V30 2488 C 250.238 0.518405 -1.57803 0
M  V30 2489 O 251.423 0.439451 -1.8567 0
M  V30 2490 C 248.563 0.339054 -3.4343 0
M  V30 2491 C 247.676 -0.622468 -4.27492 0
M  V30 2492 C 246.811 0.145567 -5.31001 0
M  V30 2493 C 245.85 -0.809226 -6.06727 0
M  V30 2494 N 244.987 -0.0743728 -7.02061 0
M  V30 2495 H 249.827 -1.26011 -2.70047 0
M  V30 2496 H 247.364 -0.632663 -1.328 0
M  V30 2497 H 249.322 0.789586 -4.0966 0
M  V30 2498 H 247.952 1.15346 -3.01488 0
M  V30 2499 H 247.004 -1.19153 -3.61257 0
M  V30 2500 H 248.316 -1.35252 -4.80113 0
M  V30 2501 H 247.47 0.656417 -6.03139 0
M  V30 2502 H 246.209 0.908643 -4.79161 0
M  V30 2503 H 245.214 -1.3314 -5.33436 0
M  V30 2504 H 246.439 -1.57194 -6.60656 0
M  V30 2505 H 244.385 0.670616 -6.52563 0
M  V30 2506 H 244.302 -0.744157 -7.52329 0
M  V30 2507 H 245.57 0.416109 -7.78389 0
M  V30 2508 N 249.799 1.42003 -0.683588 0
M  V30 2509 C 251.21 1.84501 -0.285736 0
M  V30 2510 C 251.561 1.57213 1.17382 0
M  V30 2511 O 250.686 1.03642 1.89966 0
M  V30 2512 C 251.281 3.34912 -0.511821 0
M  V30 2513 C 249.84 3.76025 -0.168005 0
M  V30 2514 C 248.987 2.6551 -0.799983 0
M  V30 2515 H 251.938 1.31724 -0.885119 0
M  V30 2516 H 251.959 3.79784 0.233292 0
M  V30 2517 H 251.471 3.54741 -1.57418 0
M  V30 2518 H 249.572 3.61801 0.890567 0
M  V30 2519 H 249.685 4.75141 -0.614661 0
M  V30 2520 H 248.049 2.53654 -0.230568 0
M  V30 2521 H 248.832 2.8816 -1.86597 0
M  V30 2522 N 251.277 0.427512 1.51691 0
M  V30 2523 C 252.693 0.0792977 1.59403 0
M  V30 2524 C 252.893 -1.41035 1.43914 0
M  V30 2525 O 251.949 -2.17922 1.27539 0
M  V30 2526 C 253.262 0.590636 2.94842 0
M  V30 2527 C 254.81 0.550215 3.08126 0
M  V30 2528 C 255.285 1.03836 4.46074 0
M  V30 2529 N 256.776 0.995943 4.52366 0
M  V30 2530 C 257.511 1.34463 5.57411 0
M  V30 2531 N 257.007 1.76569 6.69922 0
M  V30 2532 N 258.8 1.26343 5.47717 0
M  V30 2533 H 250.951 1.39687 1.60004 0
M  V30 2534 H 253.214 0.575003 0.753708 0
M  V30 2535 H 252.92 1.63251 3.11516 0
M  V30 2536 H 252.794 0.0102061 3.77199 0
M  V30 2537 H 255.181 -0.482654 2.91126 0
M  V30 2538 H 255.262 1.16693 2.27632 0
M  V30 2539 H 254.906 2.06965 4.63819 0
M  V30 2540 H 254.836 0.398286 5.25092 0
M  V30 2541 H 257.327 0.68661 3.7161 0
M  V30 2542 H 257.64 2.01438 7.46085 0
M  V30 2543 H 255.985 1.80488 6.71155 0
M  V30 2544 H 259.176 0.933209 4.58703 0
M  V30 2545 H 259.349 1.53846 6.29472 0
M  V30 2546 N 252.755 -1.56801 0.158532 0
M  V30 2547 C 253.665 -2.20916 -0.789518 0
M  V30 2548 C 254.681 -1.1969 -1.26294 0
M  V30 2549 O 255.857 -1.52308 -1.31773 0
M  V30 2550 C 252.922 -2.82727 -2.00665 0
M  V30 2551 C 251.983 -3.99114 -1.58134 0
M  V30 2552 C 251.216 -4.57968 -2.74045 0
M  V30 2553 O 251.439 -4.15704 -3.90572 0
M  V30 2554 O 250.373 -5.48047 -2.48855 0
M  V30 2555 H 254.199 -3.02464 -0.273681 0
M  V30 2556 H 251.784 -1.4924 -0.0690548 0
M  V30 2557 H 253.666 -3.21968 -2.71872 0
M  V30 2558 H 252.341 -2.04184 -2.51179 0
M  V30 2559 H 251.248 -3.64567 -0.839155 0
M  V30 2560 H 252.581 -4.79212 -1.12325 0
M  V30 2561 N 254.233 0.115231 -1.57178 0
M  V30 2562 C 255.143 1.15994 -2.03918 0
M  V30 2563 C 256.159 1.45103 -0.960268 0
M  V30 2564 O 257.335 1.56144 -1.27204 0
M  V30 2565 C 254.4 2.46568 -2.43732 0
M  V30 2566 C 253.461 2.24822 -3.65723 0
M  V30 2567 C 252.694 3.4917 -4.03629 0
M  V30 2568 O 252.917 4.56623 -3.41835 0
M  V30 2569 O 251.851 3.39949 -4.96708 0
M  V30 2570 H 255.677 0.793019 -2.93164 0
M  V30 2571 H 253.262 0.3263 -1.45793 0
M  V30 2572 H 255.144 3.23492 -2.70057 0
M  V30 2573 H 253.819 2.82726 -1.57631 0
M  V30 2574 H 252.726 1.45744 -3.44542 0
M  V30 2575 H 254.059 1.93566 -4.52541 0
M  V30 2576 N 255.711 1.52812 0.385517 0
M  V30 2577 C 256.643 1.74096 1.49074 0
M  V30 2578 C 257.656 0.621462 1.50472 0
M  V30 2579 O 258.845 0.897245 1.54311 0
M  V30 2580 C 255.945 1.78774 2.87911 0
M  V30 2581 C 255.118 3.08134 3.10439 0
M  V30 2582 C 254.177 3.04313 4.29278 0
M  V30 2583 O 253.203 3.78168 4.25415 0
M  V30 2584 N 254.405 2.23741 5.35649 0
M  V30 2585 H 257.17 2.69455 1.31202 0
M  V30 2586 H 254.731 1.51343 0.575065 0
M  V30 2587 H 256.723 1.73721 3.65518 0
M  V30 2588 H 255.293 0.907869 2.99126 0
M  V30 2589 H 254.513 3.26649 2.20667 0
M  V30 2590 H 255.801 3.93662 3.22347 0
M  V30 2591 H 255.199 1.63211 5.41645 0
M  V30 2592 H 253.756 2.24524 6.11909 0
M  V30 2593 N 257.189 -0.644168 1.43834 0
M  V30 2594 C 258.436 -1.40395 1.4593 0
M  V30 2595 C 258.764 -1.94305 0.0869658 0
M  V30 2596 O 258.019 -1.73288 -0.909378 0
M  V30 2597 C 258.318 -2.59615 2.45631 0
M  V30 2598 C 257.984 -2.2407 3.91284 0
M  V30 2599 C 256.646 -2.14089 4.30952 0
M  V30 2600 C 258.998 -1.95775 4.83034 0
M  V30 2601 C 256.326 -1.73981 5.6031 0
M  V30 2602 C 258.678 -1.57163 6.12766 0
M  V30 2603 C 257.342 -1.45713 6.51402 0
M  V30 2604 H 256.612 -0.513741 0.533995 0
M  V30 2605 H 259.259 -0.731724 1.76969 0
M  V30 2606 H 257.564 -3.32011 2.08028 0
M  V30 2607 H 259.261 -3.17834 2.44504 0
M  V30 2608 H 255.851 -2.32753 3.59895 0
M  V30 2609 H 260.035 -2.02403 4.53152 0
M  V30 2610 H 255.291 -1.63709 5.89075 0
M  V30 2611 H 259.465 -1.34303 6.83327 0
M  V30 2612 H 257.092 -1.14406 7.51542 0
M  V30 2613 N 258.668 -1.30515 -0.883378 0
M  V30 2614 C 259.616 -1.16941 -2.01066 0
M  V30 2615 C 260.61 -0.0809148 -1.69207 0
M  V30 2616 O 261.816 -0.241877 -1.78367 0
M  V30 2617 H 258.191 -0.361705 -0.659298 0
M  V30 2618 H 260.162 -2.12344 -2.09649 0
M  V30 2619 C 258.911 -0.879694 -3.36388 0
M  V30 2620 H 258.234 -1.70936 -3.61415 0
M  V30 2621 H 259.674 -0.82483 -4.159 0
M  V30 2622 C 258.133 0.417409 -3.34304 0
M  V30 2623 O 258.663 1.43843 -3.75063 0
M  V30 2624 N 256.869 0.429141 -2.87414 0
M  V30 2625 H 256.416 -0.402222 -2.5444 0
M  V30 2626 H 256.374 1.29696 -2.86403 0
M  V30 2627 N 260.146 1.09593 -1.13257 0
M  V30 2628 C 261.371 1.8604 -0.916732 0
M  V30 2629 C 261.796 1.80504 0.529146 0
M  V30 2630 O 261.154 1.18127 1.37534 0
M  V30 2631 C 261.202 3.32017 -1.40703 0
M  V30 2632 O 260.306 4.08141 -0.591153 0
M  V30 2633 H 259.647 0.576943 -0.328683 0
M  V30 2634 H 262.177 1.38405 -1.50682 0
M  V30 2635 H 262.187 3.82865 -1.4099 0
M  V30 2636 H 260.862 3.35361 -2.45979 0
M  V30 2637 H 259.439 3.67084 -0.656005 0
M  V30 2638 N 261.624 0.925811 1.2754 0
M  V30 2639 C 262.852 0.581509 1.9856 0
M  V30 2640 C 263.267 -0.840041 1.69082 0
M  V30 2641 O 262.624 -1.55805 0.950312 0
M  V30 2642 C 262.675 0.795589 3.52637 0
M  V30 2643 O 262.396 2.16121 3.81082 0
M  V30 2644 C 263.897 0.459744 4.4091 0
M  V30 2645 H 261.117 0.220538 0.633722 0
M  V30 2646 H 263.661 1.24232 1.6244 0
M  V30 2647 H 261.816 0.18161 3.86974 0
M  V30 2648 H 262.23 2.2098 4.75676 0
M  V30 2649 H 263.704 0.660244 5.48037 0
M  V30 2650 H 264.181 -0.604625 4.35018 0
M  V30 2651 H 264.787 1.05178 4.12089 0
M  V30 2652 N 263.102 -1.41638 0.69111 0
M  V30 2653 C 264.349 -2.01299 0.220193 0
M  V30 2654 C 264.677 -1.54715 -1.17871 0
M  V30 2655 O 263.932 -0.747193 -1.80874 0
M  V30 2656 C 264.231 -3.56714 0.221277 0
M  V30 2657 C 263.897 -4.22792 1.56709 0
M  V30 2658 C 262.559 -4.40557 1.93554 0
M  V30 2659 C 264.911 -4.59883 2.45268 0
M  V30 2660 C 262.239 -4.92688 3.18552 0
M  V30 2661 C 264.591 -5.13403 3.69595 0
M  V30 2662 C 263.255 -5.29379 4.06589 0
M  V30 2663 H 262.525 -0.736606 0.0805743 0
M  V30 2664 H 265.172 -1.69598 0.889319 0
M  V30 2665 H 263.477 -3.8818 -0.531391 0
M  V30 2666 H 265.174 -4.00678 -0.160547 0
M  V30 2667 H 261.764 -4.09336 1.2705 0
M  V30 2668 H 265.948 -4.45817 2.18084 0
M  V30 2669 H 261.204 -5.03242 3.47214 0
M  V30 2670 H 265.378 -5.41084 4.38407 0
M  V30 2671 H 263.005 -5.69537 5.03519 0
M  V30 2672 N 264.58 -0.43555 -1.51462 0
M  V30 2673 C 265.996 -0.0877501 -1.59359 0
M  V30 2674 C 266.196 1.4027 -1.4466 0
M  V30 2675 O 265.252 2.17243 -1.28693 0
M  V30 2676 C 266.565 -0.606264 -2.94525 0
M  V30 2677 C 268.113 -0.566548 -3.0783 0
M  V30 2678 C 268.588 -1.06201 -4.45517 0
M  V30 2679 N 270.079 -1.01992 -4.51832 0
M  V30 2680 C 270.814 -1.37417 -5.5669 0
M  V30 2681 N 270.31 -1.80119 -6.68976 0
M  V30 2682 N 272.103 -1.29245 -5.47039 0
M  V30 2683 H 264.254 -1.40533 -1.59261 0
M  V30 2684 H 266.517 -0.578992 -0.750648 0
M  V30 2685 H 266.223 -1.64901 -3.10645 0
M  V30 2686 H 266.097 -0.0302097 -3.77188 0
M  V30 2687 H 268.484 0.467208 -2.91378 0
M  V30 2688 H 268.565 -1.17898 -2.2701 0
M  V30 2689 H 268.209 -2.09422 -4.62715 0
M  V30 2690 H 268.139 -0.426127 -5.24873 0
M  V30 2691 H 270.63 -0.706308 -3.71241 0
M  V30 2692 H 270.943 -2.05392 -7.45006 0
M  V30 2693 H 269.288 -1.84044 -6.70189 0
M  V30 2694 H 272.479 -0.957522 -4.58202 0
M  V30 2695 H 272.652 -1.57182 -6.28648 0
M  V30 2696 N 266.058 1.56714 -0.166846 0
M  V30 2697 C 267.304 1.97039 0.479962 0
M  V30 2698 C 267.637 1.05264 1.63197 0
M  V30 2699 O 266.912 0.0988833 1.94248 0
M  V30 2700 C 267.195 3.46867 0.967212 0
M  V30 2701 C 267.048 4.49421 -0.18466 0
M  V30 2702 C 268.367 3.9968 1.84238 0
M  V30 2703 H 265.486 0.71641 0.172992 0
M  V30 2704 H 268.128 1.8832 -0.252079 0
M  V30 2705 H 266.278 3.54428 1.59101 0
M  V30 2706 H 267.95 4.53924 -0.821621 0
M  V30 2707 H 266.193 4.25573 -0.840837 0
M  V30 2708 H 266.864 5.51644 0.198317 0
M  V30 2709 H 269.34 3.94723 1.31655 0
M  V30 2710 H 268.216 5.04941 2.15234 0
M  V30 2711 H 268.477 3.43226 2.78654 0
M  V30 2712 N 267.536 -0.106894 1.57237 0
M  V30 2713 C 268.782 -0.81373 1.85759 0
M  V30 2714 C 269.115 -1.78952 0.754315 0
M  V30 2715 O 268.39 -1.93029 -0.23879 0
M  V30 2716 C 268.673 -1.55293 3.24894 0
M  V30 2717 C 268.526 -0.595929 4.45835 0
M  V30 2718 C 269.845 -2.5063 3.61763 0
M  V30 2719 H 266.964 -0.294369 0.67566 0
M  V30 2720 H 269.606 -0.0776472 1.89841 0
M  V30 2721 H 267.756 -2.1804 3.21544 0
M  V30 2722 H 269.428 0.0236262 4.61294 0
M  V30 2723 H 267.671 0.0916191 4.33703 0
M  V30 2724 H 268.342 -1.15004 5.39887 0
M  V30 2725 H 270.818 -1.97982 3.65981 0
M  V30 2726 H 269.694 -2.99376 4.60071 0
M  V30 2727 H 269.955 -3.3385 2.89821 0
M  V30 2728 N 269.014 -1.53014 -0.377408 0
M  V30 2729 C 270.239 -1.72818 -1.14668 0
M  V30 2730 C 270.664 -0.450725 -1.8262 0
M  V30 2731 O 270.022 0.59439 -1.7128 0
M  V30 2732 C 270.07 -2.88627 -2.16164 0
M  V30 2733 O 269.174 -2.56409 -3.22998 0
M  V30 2734 H 268.515 -0.574301 -0.333278 0
M  V30 2735 H 271.045 -1.99853 -0.438152 0
M  V30 2736 H 271.055 -3.14455 -2.59966 0
M  V30 2737 H 269.73 -3.81294 -1.66095 0
M  V30 2738 H 268.307 -2.4136 -2.84253 0
M  V30 2739 N 270.492 0.636531 -1.44174 0
M  V30 2740 C 271.738 1.39826 -1.4689 0
M  V30 2741 C 272.071 1.93947 -0.0990585 0
M  V30 2742 O 271.346 1.73325 0.882544 0
M  V30 2743 C 271.629 2.56751 -2.5249 0
M  V30 2744 C 271.482 2.08014 -3.98811 0
M  V30 2745 C 272.801 3.58946 -2.54649 0
M  V30 2746 H 269.92 0.507075 -0.53483 0
M  V30 2747 H 272.562 0.720188 -1.75822 0
M  V30 2748 H 270.712 3.14597 -2.2795 0
M  V30 2749 H 272.384 1.5504 -4.34466 0
M  V30 2750 H 270.627 1.39242 -4.10846 0
M  V30 2751 H 271.298 2.92169 -4.68339 0
M  V30 2752 H 273.774 3.1089 -2.76563 0
M  V30 2753 H 272.65 4.38286 -3.3045 0
M  V30 2754 H 272.911 4.12655 -1.58646 0
M  V30 2755 N 271.97 1.30982 0.876444 0
M  V30 2756 C 272.9 1.20668 1.99903 0
M  V30 2757 C 273.881 0.095354 1.69833 0
M  V30 2758 O 275.066 0.27885 1.92188 0
M  V30 2759 C 272.196 0.90655 3.3526 0
M  V30 2760 C 271.15 1.97675 3.79617 0
M  V30 2761 C 270.476 1.52943 5.1236 0
M  V30 2762 C 271.776 3.389 3.97422 0
M  V30 2763 H 273.47 2.14586 2.0879 0
M  V30 2764 H 271.016 1.03308 1.00317 0
M  V30 2765 H 272.969 0.821025 4.13324 0
M  V30 2766 H 271.693 -0.0682969 3.26529 0
M  V30 2767 H 270.352 2.05205 3.03787 0
M  V30 2768 H 270 0.54262 5.00065 0
M  V30 2769 H 269.7 2.24532 5.43009 0
M  V30 2770 H 271.224 1.45786 5.92941 0
M  V30 2771 H 272.638 3.34081 4.659 0
M  V30 2772 H 271.035 4.0865 4.3946 0
M  V30 2773 H 272.105 3.80163 3.01006 0
M  V30 2774 N 273.449 -1.08991 1.13837 0
M  V30 2775 C 274.677 -1.85011 0.926202 0
M  V30 2776 C 275.092 -1.8135 -0.525127 0
M  V30 2777 O 274.449 -1.21287 -1.36366 0
M  V30 2778 C 274.5 -3.32802 1.41155 0
M  V30 2779 O 274.221 -3.36444 2.80601 0
M  V30 2780 C 275.722 -4.25649 1.23847 0
M  V30 2781 H 272.942 -0.584249 0.32999 0
M  V30 2782 H 275.486 -1.37688 1.51202 0
M  V30 2783 H 273.641 -3.77536 0.868631 0
M  V30 2784 H 274.055 -4.28657 3.02248 0
M  V30 2785 H 275.529 -5.27485 1.62675 0
M  V30 2786 H 276.006 -4.38828 0.18065 0
M  V30 2787 H 276.612 -3.86735 1.76964 0
M  V30 2788 N 274.927 -0.932562 -1.27047 0
M  V30 2789 C 276.173 -0.576412 -1.94436 0
M  V30 2790 C 276.506 0.880891 -1.73072 0
M  V30 2791 O 275.781 1.62905 -1.06264 0
M  V30 2792 C 276.064 -0.909031 -3.48437 0
M  V30 2793 C 275.917 -2.42044 -3.79123 0
M  V30 2794 C 277.236 -0.418341 -4.38107 0
M  V30 2795 H 274.355 -0.210888 -0.706184 0
M  V30 2796 H 276.997 -1.16522 -1.50075 0
M  V30 2797 H 275.147 -0.407947 -3.86352 0
M  V30 2798 H 276.819 -2.99359 -3.50973 0
M  V30 2799 H 275.062 -2.86758 -3.25503 0
M  V30 2800 H 275.733 -2.6037 -4.86736 0
M  V30 2801 H 278.209 -0.847856 -4.0737 0
M  V30 2802 H 277.085 -0.679981 -5.44672 0
M  V30 2803 H 277.346 0.681642 -4.36814 0
M  V30 2804 N 276.405 1.4127 -0.698611 0
M  V30 2805 C 277.651 2.01478 -0.231207 0
M  V30 2806 C 277.984 1.55215 1.16713 0
M  V30 2807 O 277.259 0.764672 1.78838 0
M  V30 2808 C 277.542 3.58912 -0.292281 0
M  V30 2809 C 277.395 4.15293 -1.72778 0
M  V30 2810 C 278.714 4.38736 0.346194 0
M  V30 2811 H 275.833 0.732025 -0.0854878 0
M  V30 2812 H 278.475 1.67977 -0.887906 0
M  V30 2813 H 276.625 3.87582 0.26686 0
M  V30 2814 H 278.297 3.97486 -2.341 0
M  V30 2815 H 276.54 3.7022 -2.26096 0
M  V30 2816 H 277.211 5.24452 -1.72202 0
M  V30 2817 H 279.687 4.15897 -0.130035 0
M  V30 2818 H 278.563 5.48221 0.272932 0
M  V30 2819 H 278.824 4.18425 1.42734 0
M  V30 2820 N 277.883 0.443576 1.51229 0
M  V30 2821 C 278.833 -0.382787 2.24764 0
M  V30 2822 C 279.817 -0.984836 1.27239 0
M  V30 2823 O 281.009 -0.901943 1.52296 0
M  V30 2824 C 278.138 -1.47989 3.09765 0
M  V30 2825 C 277.224 -0.886931 4.14722 0
M  V30 2826 N 277.615 -0.0237103 5.05794 0
M  V30 2827 C 275.913 -1.15385 4.30816 0
M  V30 2828 C 276.614 0.309971 5.80874 0
M  V30 2829 N 275.59 -0.307989 5.42727 0
M  V30 2830 H 279.392 0.282624 2.92538 0
M  V30 2831 H 276.906 0.256027 1.60369 0
M  V30 2832 H 278.903 -2.08482 3.61027 0
M  V30 2833 H 277.563 -2.14758 2.43535 0
M  V30 2834 H 278.574 0.34318 5.16762 0
M  V30 2835 H 275.251 -1.81857 3.75812 0
M  V30 2836 H 276.641 1.01279 6.64223 0
M  V30 2837 N 279.361 -1.56624 0.175154 0
M  V30 2838 C 280.293 -2.15333 -0.785128 0
M  V30 2839 C 281.306 -1.1099 -1.19101 0
M  V30 2840 O 282.495 -1.38162 -1.13019 0
M  V30 2841 C 279.595 -2.68427 -2.06882 0
M  V30 2842 C 278.768 -3.97466 -1.8259 0
M  V30 2843 C 277.827 -4.35585 -2.95215 0
M  V30 2844 O 276.853 -5.03389 -2.65684 0
M  V30 2845 N 278.055 -3.97457 -4.23094 0
M  V30 2846 H 280.82 -2.98359 -0.283187 0
M  V30 2847 H 278.381 -1.61898 -0.00749817 0
M  V30 2848 H 280.373 -2.90924 -2.81328 0
M  V30 2849 H 278.943 -1.89968 -2.48256 0
M  V30 2850 H 278.163 -3.83307 -0.920287 0
M  V30 2851 H 279.451 -4.81736 -1.63733 0
M  V30 2852 H 278.849 -3.42878 -4.49945 0
M  V30 2853 H 277.406 -4.24947 -4.9423 0
M  V30 2854 N 280.839 0.0985539 -1.57292 0
M  V30 2855 C 282.116 0.834155 -1.76921 0
M  V30 2856 C 282.496 1.97101 -0.755928 0
M  V30 2857 O 281.844 2.27474 0.216245 0
M  V30 2858 C 282.054 1.33194 -3.22584 0
M  V30 2859 C 283.402 1.77611 -3.85668 0
M  V30 2860 O 284.426 1.42825 -3.26312 0
M  V30 2861 O 283.285 2.4192 -4.90038 0
M  V30 2862 H 280.379 0.397628 -0.725135 0
M  V30 2863 H 282.925 0.0807044 -1.69508 0
M  V30 2864 H 281.697 0.517248 -3.87866 0
M  V30 2865 H 281.32 2.1475 -3.34616 0
M  V30 2866 N 282.317 1.53212 0.369288 0
M  V30 2867 C 283.563 1.70413 1.11046 0
M  V30 2868 C 283.918 0.448509 1.87099 0
M  V30 2869 O 283.211 -0.558382 1.83283 0
M  V30 2870 C 283.405 2.89101 2.10132 0
M  V30 2871 C 283.234 4.26084 1.43814 0
M  V30 2872 C 282.004 4.90994 1.19384 0
M  V30 2873 C 284.202 5.06754 0.877802 0
M  V30 2874 N 282.184 6.11911 0.49377 0
M  V30 2875 C 283.555 6.1924 0.306891 0
M  V30 2876 C 285.61 4.91814 0.776129 0
M  V30 2877 C 284.313 7.1842 -0.355774 0
M  V30 2878 C 286.339 5.91263 0.127252 0
M  V30 2879 C 285.701 7.03069 -0.432801 0
M  V30 2880 H 281.8 0.676872 0.391623 0
M  V30 2881 H 284.384 1.90603 0.397334 0
M  V30 2882 H 282.555 2.70456 2.78761 0
M  V30 2883 H 284.287 2.95142 2.76899 0
M  V30 2884 H 281.042 4.50074 1.47413 0
M  V30 2885 H 281.466 6.76813 0.159207 0
M  V30 2886 H 286.108 4.05564 1.19489 0
M  V30 2887 H 283.826 8.04264 -0.786499 0
M  V30 2888 H 287.412 5.81779 0.0495613 0
M  V30 2889 H 286.292 7.78702 -0.926958 0
M  V30 2890 N 283.795 -0.628877 1.44509 0
M  V30 2891 C 284.725 -1.75187 1.54376 0
M  V30 2892 C 285.706 -1.65411 0.396618 0
M  V30 2893 O 286.891 -1.84137 0.617031 0
M  V30 2894 C 284.021 -3.13725 1.48976 0
M  V30 2895 C 282.975 -3.38291 2.62189 0
M  V30 2896 C 282.301 -4.76883 2.41841 0
M  V30 2897 C 283.601 -3.30632 4.04326 0
M  V30 2898 H 285.295 -1.67187 2.48373 0
M  V30 2899 H 282.841 -0.802909 1.19538 0
M  V30 2900 H 284.794 -3.92064 1.54478 0
M  V30 2901 H 283.518 -3.22515 0.514961 0
M  V30 2902 H 282.177 -2.62334 2.56079 0
M  V30 2903 H 281.825 -4.82378 1.42548 0
M  V30 2904 H 281.525 -4.94278 3.17747 0
M  V30 2905 H 283.049 -5.57449 2.49165 0
M  V30 2906 H 284.463 -3.98873 4.11793 0
M  V30 2907 H 282.86 -3.59561 4.80454 0
M  V30 2908 H 283.93 -2.28404 4.27738 0
M  V30 2909 N 285.273 -1.31445 -0.869486 0
M  V30 2910 C 286.221 -1.19067 -1.99814 0
M  V30 2911 C 287.215 -0.0988569 -1.69111 0
M  V30 2912 O 288.421 -0.260781 -1.78101 0
M  V30 2913 H 284.796 -0.368677 -0.655425 0
M  V30 2914 H 286.767 -2.14555 -2.07385 0
M  V30 2915 C 285.516 -0.915323 -3.35436 0
M  V30 2916 H 284.839 -1.74759 -3.59582 0
M  V30 2917 H 286.279 -0.868895 -4.15001 0
M  V30 2918 C 284.738 0.381928 -3.34728 0
M  V30 2919 O 285.268 1.39857 -3.76567 0
M  V30 2920 N 283.474 0.398633 -2.87853 0
M  V30 2921 H 283.021 -0.429186 -2.54 0
M  V30 2922 H 282.979 1.26651 -2.87762 0
M  V30 2923 N 286.751 1.08385 -1.14413 0
M  V30 2924 C 287.999 1.80419 -0.910679 0
M  V30 2925 C 288.32 1.86658 0.564243 0
M  V30 2926 O 287.59 1.35985 1.41014 0
M  V30 2927 H 286.17 0.668204 -0.333934 0
M  V30 2928 H 288.832 1.31037 -1.44275 0
M  V30 2929 H 287.928 2.83238 -1.31082 0
M  V30 2930 N 288.23 0.939286 1.26551 0
M  V30 2931 C 289.177 0.446088 2.26448 0
M  V30 2932 C 290.147 -0.493234 1.58608 0
M  V30 2933 O 291.332 -0.409857 1.86346 0
M  V30 2934 C 288.472 -0.284375 3.43926 0
M  V30 2935 C 287.585 0.690399 4.26448 0
M  V30 2936 C 286.72 -0.0610712 5.31165 0
M  V30 2937 C 285.759 0.905649 6.05363 0
M  V30 2938 N 284.896 0.186055 7.01853 0
M  V30 2939 H 289.736 1.30291 2.68008 0
M  V30 2940 H 287.273 0.65371 1.31776 0
M  V30 2941 H 289.231 -0.724313 4.10864 0
M  V30 2942 H 287.861 -1.10535 3.03285 0
M  V30 2943 H 286.913 1.24885 3.59316 0
M  V30 2944 H 288.225 1.42873 4.779 0
M  V30 2945 H 287.379 -0.56038 6.04106 0
M  V30 2946 H 286.118 -0.832297 4.80546 0
M  V30 2947 H 285.123 1.4161 5.3125 0
M  V30 2948 H 286.348 1.67685 6.58072 0
M  V30 2949 H 284.294 -0.566714 6.53548 0
M  V30 2950 H 284.211 0.863752 7.51049 0
M  V30 2951 H 285.479 -0.292221 7.78952 0
M  V30 2952 N 289.708 -1.40897 0.706093 0
M  V30 2953 C 290.618 -2.3455 0.0482286 0
M  V30 2954 C 291.634 -1.56796 -0.754396 0
M  V30 2955 O 292.81 -1.89228 -0.689538 0
M  V30 2956 C 289.875 -3.35625 -0.869303 0
M  V30 2957 C 288.936 -4.29261 -0.0576994 0
M  V30 2958 C 288.169 -5.25508 -0.931531 0
M  V30 2959 O 288.392 -5.27472 -2.17092 0
M  V30 2960 O 287.326 -6.00727 -0.375587 0
M  V30 2961 H 291.152 -2.92407 0.820476 0
M  V30 2962 H 288.737 -1.4193 0.4665 0
M  V30 2963 H 290.619 -3.97635 -1.39514 0
M  V30 2964 H 289.294 -2.80196 -1.62086 0
M  V30 2965 H 288.201 -3.70566 0.512988 0
M  V30 2966 H 289.534 -4.87817 0.655426 0
M  V30 2967 N 291.186 -0.45159 -1.50991 0
M  V30 2968 C 292.416 0.108177 -2.06317 0
M  V30 2969 C 292.824 1.35774 -1.31765 0
M  V30 2970 O 292.167 1.79838 -0.374694 0
M  V30 2971 C 292.229 0.481659 -3.56259 0
M  V30 2972 C 291.893 -0.663114 -4.52163 0
M  V30 2973 C 292.89 -1.53947 -4.96585 0
M  V30 2974 C 290.575 -0.8479 -4.95092 0
M  V30 2975 C 292.569 -2.58518 -5.82621 0
M  V30 2976 C 290.256 -1.89686 -5.80915 0
M  V30 2977 C 291.254 -2.76388 -6.24579 0
M  V30 2978 O 290.942 -3.79482 -7.08695 0
M  V30 2979 H 290.674 0.00499183 -0.675982 0
M  V30 2980 H 293.228 -0.633659 -1.95381 0
M  V30 2981 H 291.458 1.27641 -3.65027 0
M  V30 2982 H 293.147 0.974233 -3.94035 0
M  V30 2983 H 293.913 -1.4083 -4.64103 0
M  V30 2984 H 289.792 -0.18258 -4.60638 0
M  V30 2985 H 293.336 -3.26224 -6.16623 0
M  V30 2986 H 289.233 -2.02817 -6.12809 0
M  V30 2987 H 290.001 -3.76234 -7.26905 0
M  V30 2988 N 292.664 1.56529 -0.183458 0
M  V30 2989 C 293.611 2.18546 0.742055 0
M  V30 2990 C 294.581 1.12912 1.2182 0
M  V30 2991 O 295.766 1.41115 1.28418 0
M  V30 2992 C 292.906 2.83977 1.96089 0
M  V30 2993 C 292.019 4.04105 1.52719 0
M  V30 2994 C 291.154 4.57427 2.70063 0
M  V30 2995 C 290.193 5.69938 2.23243 0
M  V30 2996 N 289.33 6.17717 3.33722 0
M  V30 2997 H 294.17 2.97284 0.206432 0
M  V30 2998 H 291.707 1.46823 0.0901571 0
M  V30 2999 H 293.665 3.20077 2.67594 0
M  V30 3000 H 292.295 2.07822 2.47002 0
M  V30 3001 H 291.347 3.73745 0.708436 0
M  V30 3002 H 292.659 4.85513 1.1436 0
M  V30 3003 H 291.813 4.95772 3.49708 0
M  V30 3004 H 290.552 3.75101 3.11689 0
M  V30 3005 H 289.557 5.31133 1.42048 0
M  V30 3006 H 290.782 6.54073 1.82661 0
M  V30 3007 H 288.728 5.38317 3.74902 0
M  V30 3008 H 288.645 6.94146 2.99495 0
M  V30 3009 H 289.913 6.60713 4.13616 0
M  V30 3010 N 294.142 -0.090211 1.57342 0
M  V30 3011 C 295.382 -0.798365 1.88163 0
M  V30 3012 C 295.746 -1.75662 0.775046 0
M  V30 3013 O 296.947 -2.50849 0.965816 0
M  V30 3014 C 295.218 -1.50376 3.24225 0
M  V30 3015 S 296.777 -2.24952 3.76752 0
M  V30 3016 H 293.595 -0.265883 0.659414 0
M  V30 3017 H 296.197 -0.055264 1.95422 0
M  V30 3018 H 294.901 -0.792286 4.0268 0
M  V30 3019 H 294.432 -2.28666 3.20118 0
M  V30 3020 H 296.447 -3.51173 3.5056 0
M  V30 3021 N 295.62 -1.53406 -0.361157 0
M  V30 3022 C 296.567 -1.80156 -1.44265 0
M  V30 3023 C 297.537 -0.646183 -1.53015 0
M  V30 3024 O 298.722 -0.888818 -1.68833 0
M  V30 3025 C 295.862 -2.00116 -2.81154 0
M  V30 3026 C 294.975 -3.27833 -2.81335 0
M  V30 3027 C 294.11 -3.37957 -4.09828 0
M  V30 3028 C 293.149 -4.59689 -4.04168 0
M  V30 3029 N 292.286 -4.66942 -5.24318 0
M  V30 3030 H 297.126 -2.72438 -1.20754 0
M  V30 3031 H 294.663 -1.34954 -0.585296 0
M  V30 3032 H 296.621 -2.09677 -3.60682 0
M  V30 3033 H 295.251 -1.11167 -3.03054 0
M  V30 3034 H 294.303 -3.27204 -1.94014 0
M  V30 3035 H 295.615 -4.17442 -2.73027 0
M  V30 3036 H 294.769 -3.46853 -4.97773 0
M  V30 3037 H 293.508 -2.46372 -4.20894 0
M  V30 3038 H 292.513 -4.50889 -3.14609 0
M  V30 3039 H 293.738 -5.5262 -3.947 0
M  V30 3040 H 291.684 -3.7826 -5.35962 0
M  V30 3041 H 291.601 -5.50462 -5.18197 0
M  V30 3042 H 292.869 -4.80127 -6.14084 0
M  V30 3043 N 297.098 0.621204 -1.44841 0
M  V30 3044 C 298.344 1.3826 -1.48365 0
M  V30 3045 C 298.677 1.93831 -0.119624 0
M  V30 3046 O 297.952 1.74251 0.864111 0
M  V30 3047 C 298.235 2.54058 -2.55199 0
M  V30 3048 C 298.088 2.03772 -4.00995 0
M  V30 3049 C 299.407 3.56225 -2.58442 0
M  V30 3050 H 296.526 0.501374 -0.540179 0
M  V30 3051 H 299.168 0.7015 -1.76576 0
M  V30 3052 H 297.318 3.12162 -2.31274 0
M  V30 3053 H 298.99 1.50423 -4.36086 0
M  V30 3054 H 297.233 1.34876 -4.12299 0
M  V30 3055 H 297.904 2.87185 -4.71411 0
M  V30 3056 H 300.38 3.07939 -2.79844 0
M  V30 3057 H 299.256 4.34756 -3.3508 0
M  V30 3058 H 299.517 4.10949 -1.63013 0
M  V30 3059 N 298.576 1.31904 0.862503 0
M  V30 3060 C 299.801 1.25135 1.65397 0
M  V30 3061 C 300.226 -0.179 1.87246 0
M  V30 3062 O 299.584 -1.1277 1.4196 0
M  V30 3063 C 299.632 2.00832 2.99498 0
M  V30 3064 O 298.736 1.35075 3.89652 0
M  V30 3065 H 298.077 0.431655 0.504549 0
M  V30 3066 H 300.607 1.74094 1.07483 0
M  V30 3067 H 300.617 2.10709 3.49379 0
M  V30 3068 H 299.292 3.04847 2.82916 0
M  V30 3069 H 297.869 1.33696 3.48109 0
M  V30 3070 N 300.054 -1.07777 1.14986 0
M  V30 3071 C 301.002 -2.16964 0.838406 0
M  V30 3072 C 301.996 -1.68372 -0.186386 0
M  V30 3073 O 303.202 -1.79951 -0.0418465 0
M  V30 3074 H 299.577 -0.708006 0.253439 0
M  V30 3075 H 301.548 -2.40454 1.76704 0
M  V30 3076 C 300.297 -3.4604 0.339335 0
M  V30 3077 H 299.62 -3.83813 1.11927 0
M  V30 3078 H 301.06 -4.23698 0.160021 0
M  V30 3079 C 299.519 -3.23569 -0.938325 0
M  V30 3080 O 300.049 -3.47752 -2.01077 0
M  V30 3081 N 298.255 -2.77079 -0.876117 0
M  V30 3082 H 297.802 -2.576 -0.00322037 0
M  V30 3083 H 297.76 -2.62422 -1.73153 0
M  V30 3084 N 301.532 -0.945985 -1.26051 0
M  V30 3085 C 302.479 -0.45809 -2.26208 0
M  V30 3086 C 303.449 0.484816 -1.58867 0
M  V30 3087 O 304.634 0.399969 -1.86561 0
M  V30 3088 C 301.774 0.266131 -3.44072 0
M  V30 3089 C 300.887 -0.713005 -4.26075 0
M  V30 3090 C 300.022 0.0329013 -5.3119 0
M  V30 3091 C 299.061 -0.93774 -6.04874 0
M  V30 3092 N 298.198 -0.223274 -7.01745 0
M  V30 3093 H 303.038 -1.3171 -2.67313 0
M  V30 3094 H 300.575 -0.66069 -1.31428 0
M  V30 3095 H 302.533 0.702514 -4.11243 0
M  V30 3096 H 301.163 1.08925 -3.03867 0
M  V30 3097 H 300.215 -1.26789 -3.58648 0
M  V30 3098 H 301.527 -1.45406 -4.77136 0
M  V30 3099 H 300.681 0.528335 -6.04395 0
M  V30 3100 H 299.42 0.806801 -4.8098 0
M  V30 3101 H 298.425 -1.44425 -5.30492 0
M  V30 3102 H 299.65 -1.71172 -6.57173 0
M  V30 3103 H 297.596 0.532046 -6.53839 0
M  V30 3104 H 297.513 -0.90357 -7.50581 0
M  V30 3105 H 298.781 0.250907 -7.79096 0
M  V30 3106 N 303.011 1.40521 -0.713556 0
M  V30 3107 C 304.259 2.00527 -0.251692 0
M  V30 3108 C 304.58 1.56857 1.15848 0
M  V30 3109 O 303.85 0.807127 1.785 0
M  V30 3110 H 302.43 0.741551 -0.0900646 0
M  V30 3111 H 305.092 1.71887 -0.918733 0
M  V30 3112 H 304.188 3.10813 -0.283192 0
M  V30 3113 N 304.489 0.459591 1.5075 0
M  V30 3114 C 305.419 -0.330644 2.31147 0
M  V30 3115 C 306.4 -1.00087 1.37538 0
M  V30 3116 O 307.585 -1.00025 1.66459 0
M  V30 3117 C 304.715 -1.41958 3.16962 0
M  V30 3118 C 303.669 -0.871608 4.19031 0
M  V30 3119 C 302.995 -2.05797 4.9351 0
M  V30 3120 C 304.295 0.109251 5.22186 0
M  V30 3121 H 305.989 0.340336 2.97459 0
M  V30 3122 H 303.535 0.165119 1.4305 0
M  V30 3123 H 305.488 -1.9798 3.71997 0
M  V30 3124 H 304.212 -2.11917 2.48513 0
M  V30 3125 H 302.871 -0.333442 3.6508 0
M  V30 3126 H 302.519 -2.74427 4.21544 0
M  V30 3127 H 302.219 -1.6976 5.62544 0
M  V30 3128 H 303.743 -2.62331 5.51375 0
M  V30 3129 H 305.157 -0.361405 5.7216 0
M  V30 3130 H 303.554 0.383316 5.98875 0
M  V30 3131 H 304.624 1.03887 4.73641 0
M  V30 3132 N 305.967 -1.56429 0.191757 0
M  V30 3133 C 307.378 -1.83912 -0.321428 0
M  V30 3134 C 307.729 -1.11231 -1.61623 0
M  V30 3135 O 306.854 -0.37202 -2.13178 0
M  V30 3136 C 307.449 -3.33624 -0.589961 0
M  V30 3137 C 306.008 -3.6153 -1.04753 0
M  V30 3138 C 305.155 -2.7714 -0.0943327 0
M  V30 3139 H 308.106 -1.53161 0.415612 0
M  V30 3140 H 308.127 -3.52213 -1.43966 0
M  V30 3141 H 307.639 -3.86495 0.352588 0
M  V30 3142 H 305.74 -3.14089 -2.00447 0
M  V30 3143 H 305.853 -4.69737 -0.942549 0
M  V30 3144 H 304.217 -2.47638 -0.595589 0
M  V30 3145 H 305 -3.32799 0.842601 0
M  V30 3146 N 307.445 0.0818655 -1.57387 0
M  V30 3147 C 308.408 1.08265 -2.02018 0
M  V30 3148 C 309.408 1.32183 -0.915664 0
M  V30 3149 O 310.598 1.28073 -1.18081 0
M  V30 3150 C 307.73 2.42871 -2.39221 0
M  V30 3151 H 308.923 0.698204 -2.91659 0
M  V30 3152 H 306.476 0.327303 -1.52835 0
M  V30 3153 H 307.211 2.86167 -1.52575 0
M  V30 3154 H 306.996 2.26855 -3.19811 0
M  V30 3155 H 308.486 3.14826 -2.74362 0
M  V30 3156 N 308.923 1.53595 0.353017 0
M  V30 3157 C 310.334 1.61937 0.929153 0
M  V30 3158 C 310.685 0.494686 1.89861 0
M  V30 3159 O 309.81 -0.377017 2.1309 0
M  V30 3160 C 310.405 2.93526 1.69199 0
M  V30 3161 C 308.964 3.04161 2.21727 0
M  V30 3162 C 308.111 2.57322 1.03348 0
M  V30 3163 H 311.062 1.58155 0.131431 0
M  V30 3164 H 311.083 2.82034 2.55416 0
M  V30 3165 H 310.595 3.75362 0.986144 0
M  V30 3166 H 308.696 2.26938 2.95516 0
M  V30 3167 H 308.809 4.09465 2.48748 0
M  V30 3168 H 307.173 2.12499 1.40414 0
M  V30 3169 H 307.956 3.41588 0.342428 0
M  V30 3170 N 310.401 -0.613514 1.45168 0
M  V30 3171 C 311.65 -1.36874 1.4815 0
M  V30 3172 C 311.963 -1.952 0.124982 0
M  V30 3173 O 313.169 -2.71481 0.0324176 0
M  V30 3174 C 311.625 -2.47905 2.60904 0
M  V30 3175 C 311.233 -1.96016 4.02842 0
M  V30 3176 C 312.977 -3.24965 2.73126 0
M  V30 3177 C 310.884 -3.04494 5.06988 0
M  V30 3178 H 309.814 -0.514428 0.551253 0
M  V30 3179 H 312.465 -0.658182 1.7129 0
M  V30 3180 H 310.847 -3.21618 2.31037 0
M  V30 3181 H 312.021 -1.29051 4.4236 0
M  V30 3182 H 310.336 -1.31719 3.95018 0
M  V30 3183 H 312.933 -4.05865 3.48106 0
M  V30 3184 H 313.276 -3.75588 1.79553 0
M  V30 3185 H 313.809 -2.5835 3.0249 0
M  V30 3186 H 310.548 -2.58795 6.0225 0
M  V30 3187 H 310.068 -3.70044 4.72046 0
M  V30 3188 H 311.747 -3.68976 5.31475 0
M  V30 3189 N 311.879 -1.3236 -0.855495 0
M  V30 3190 C 312.789 -1.23221 -1.99634 0
M  V30 3191 C 313.805 -0.145983 -1.73387 0
M  V30 3192 O 314.981 -0.366502 -1.98037 0
M  V30 3193 C 312.046 -0.954782 -3.33294 0
M  V30 3194 C 311.107 -2.12937 -3.72769 0
M  V30 3195 C 310.34 -1.86508 -5.00051 0
M  V30 3196 O 310.563 -0.807231 -5.64659 0
M  V30 3197 O 309.497 -2.72591 -5.36636 0
M  V30 3198 H 313.323 -2.19126 -2.1028 0
M  V30 3199 H 310.908 -1.12241 -0.986018 0
M  V30 3200 H 312.79 -0.816519 -4.13414 0
M  V30 3201 H 311.465 -0.0258854 -3.2369 0
M  V30 3202 H 310.372 -2.3231 -2.93228 0
M  V30 3203 H 311.705 -3.04102 -3.87018 0
M  V30 3204 N 313.357 1.07166 -1.15556 0
M  V30 3205 C 314.304 2.14417 -0.854055 0
M  V30 3206 C 315.274 1.64965 0.193806 0
M  V30 3207 O 316.459 1.90703 0.0609443 0
M  V30 3208 C 313.599 3.43304 -0.351574 0
M  V30 3209 C 312.712 4.06537 -1.46123 0
M  V30 3210 C 311.847 5.23266 -0.914677 0
M  V30 3211 C 310.886 5.78464 -2.00114 0
M  V30 3212 N 310.023 6.86521 -1.47083 0
M  V30 3213 H 314.863 2.39548 -1.77259 0
M  V30 3214 H 312.4 1.17543 -0.884425 0
M  V30 3215 H 314.358 4.17179 -0.0419409 0
M  V30 3216 H 312.988 3.18419 0.530037 0
M  V30 3217 H 312.04 3.30297 -1.88701 0
M  V30 3218 H 313.352 4.43567 -2.28144 0
M  V30 3219 H 312.506 6.04131 -0.557698 0
M  V30 3220 H 311.245 4.87658 -0.0636583 0
M  V30 3221 H 310.25 4.96243 -2.36692 0
M  V30 3222 H 311.475 6.16126 -2.85597 0
M  V30 3223 H 309.421 6.52849 -0.642198 0
M  V30 3224 H 309.338 7.22446 -2.22729 0
M  V30 3225 H 310.606 7.71087 -1.14215 0
M  V30 3226 N 314.835 0.952656 1.25548 0
M  V30 3227 C 316.063 0.623496 1.97282 0
M  V30 3228 C 316.478 -0.803987 1.70826 0
M  V30 3229 O 315.835 -1.53755 0.983147 0
M  V30 3230 C 315.886 0.870209 3.5087 0
M  V30 3231 O 315.607 2.24156 3.76412 0
M  V30 3232 C 317.108 0.553164 4.39835 0
M  V30 3233 H 314.328 0.233931 0.628902 0
M  V30 3234 H 316.872 1.27649 1.59768 0
M  V30 3235 H 315.027 0.263652 3.86502 0
M  V30 3236 H 315.441 2.31021 4.70882 0
M  V30 3237 H 316.915 0.776342 5.46513 0
M  V30 3238 H 317.392 -0.512215 4.36203 0
M  V30 3239 H 317.998 1.13896 4.09766 0
M  V30 3240 N 316.313 -1.40141 0.720998 0
M  V30 3241 C 317.562 -2.0002 0.259804 0
M  V30 3242 C 317.875 -1.57839 -1.15526 0
M  V30 3243 O 319.081 -2.10455 -1.71525 0
M  V30 3244 C 317.537 -3.57516 0.413566 0
M  V30 3245 C 317.145 -4.08667 1.83562 0
M  V30 3246 C 318.889 -4.24498 0.0134387 0
M  V30 3247 C 316.796 -5.58686 1.93968 0
M  V30 3248 H 315.726 -0.748195 0.0933806 0
M  V30 3249 H 318.377 -1.60313 0.892866 0
M  V30 3250 H 316.759 -3.9495 -0.288169 0
M  V30 3251 H 317.933 -3.82598 2.56817 0
M  V30 3252 H 316.248 -3.543 2.1877 0
M  V30 3253 H 318.845 -5.34654 0.0703954 0
M  V30 3254 H 319.188 -4.03375 -1.02927 0
M  V30 3255 H 319.721 -3.92188 0.665815 0
M  V30 3256 H 316.46 -5.8467 2.96379 0
M  V30 3257 H 315.98 -5.86602 1.25131 0
M  V30 3258 H 317.659 -6.23875 1.71431 0
M  V30 3259 N 317.792 -0.46758 -1.50504 0
M  V30 3260 C 319.017 0.0886943 -2.0721 0
M  V30 3261 C 319.442 1.33057 -1.32956 0
M  V30 3262 O 318.8 1.77354 -0.376197 0
M  V30 3263 C 318.848 0.359202 -3.58806 0
M  V30 3264 O 317.952 1.44034 -3.8643 0
M  V30 3265 H 317.293 -0.0114349 -0.663902 0
M  V30 3266 H 319.823 -0.657613 -1.93744 0
M  V30 3267 H 319.833 0.600742 -4.03553 0
M  V30 3268 H 318.508 -0.548311 -4.1227 0
M  V30 3269 H 317.085 1.18638 -3.53524 0
M  V30 3270 N 319.27 1.56325 -0.20005 0
M  V30 3271 C 320.217 2.1932 0.718833 0
M  V30 3272 C 321.187 1.14198 1.20615 0
M  V30 3273 O 322.372 1.42469 1.26914 0
M  V30 3274 C 319.512 2.86041 1.93066 0
M  V30 3275 C 318.625 4.05702 1.48425 0
M  V30 3276 C 317.76 4.60266 2.65196 0
M  V30 3277 C 316.799 5.72273 2.17185 0
M  V30 3278 N 315.936 6.21221 3.27152 0
M  V30 3279 H 320.776 2.97486 0.17489 0
M  V30 3280 H 318.313 1.46911 0.0745794 0
M  V30 3281 H 320.271 3.22897 2.64184 0
M  V30 3282 H 318.901 2.1043 2.44783 0
M  V30 3283 H 317.953 3.74475 0.668755 0
M  V30 3284 H 319.265 4.86699 1.09204 0
M  V30 3285 H 318.419 4.99453 3.4443 0
M  V30 3286 H 317.158 3.78386 3.07693 0
M  V30 3287 H 316.163 5.3261 1.36407 0
M  V30 3288 H 317.388 6.55974 1.75713 0
M  V30 3289 H 315.334 5.42263 3.69171 0
M  V30 3290 H 315.251 6.97284 2.92116 0
M  V30 3291 H 316.519 6.65063 4.06585 0
M  V30 3292 N 320.748 -0.0735177 1.57428 0
M  V30 3293 C 321.976 -0.785969 1.9139 0
M  V30 3294 C 322.391 -1.71207 0.795847 0
M  V30 3295 O 321.748 -1.81033 -0.230915 0
M  V30 3296 C 321.799 -1.58107 3.25091 0
M  V30 3297 O 321.52 -0.6922 4.32597 0
M  V30 3298 C 323.021 -2.39467 3.73055 0
M  V30 3299 H 320.241 -0.223558 0.632663 0
M  V30 3300 H 322.785 -0.044302 2.04452 0
M  V30 3301 H 320.94 -2.27503 3.13562 0
M  V30 3302 H 321.354 -1.24504 5.09508 0
M  V30 3303 H 322.828 -2.90716 4.69242 0
M  V30 3304 H 323.305 -3.18913 3.01979 0
M  V30 3305 H 323.911 -1.7523 3.87523 0
M  V30 3306 N 322.226 -1.5378 -0.344866 0
M  V30 3307 C 323.173 -1.81676 -1.42346 0
M  V30 3308 C 324.143 -0.662376 -1.52321 0
M  V30 3309 O 325.328 -0.906675 -1.67881 0
M  V30 3310 C 322.468 -2.03087 -2.79015 0
M  V30 3311 C 321.581 -3.30799 -2.77842 0
M  V30 3312 C 320.716 -3.42285 -4.0622 0
M  V30 3313 C 319.755 -4.6395 -3.9927 0
M  V30 3314 N 318.892 -4.72477 -5.19336 0
M  V30 3315 H 323.732 -2.73703 -1.17858 0
M  V30 3316 H 321.269 -1.35568 -0.570949 0
M  V30 3317 H 323.227 -2.1349 -3.58438 0
M  V30 3318 H 321.857 -1.14375 -3.01858 0
M  V30 3319 H 320.909 -3.29244 -1.90533 0
M  V30 3320 H 322.221 -4.20314 -2.68584 0
M  V30 3321 H 321.375 -3.52113 -4.94066 0
M  V30 3322 H 320.114 -2.50823 -4.18258 0
M  V30 3323 H 319.119 -4.54201 -3.09809 0
M  V30 3324 H 320.344 -5.56775 -3.88817 0
M  V30 3325 H 318.29 -3.83924 -5.3192 0
M  V30 3326 H 318.207 -5.55927 -5.12329 0
M  V30 3327 H 319.475 -4.86613 -6.08957 0
M  V30 3328 N 323.704 0.605807 -1.45491 0
M  V30 3329 C 324.952 1.36207 -1.49305 0
M  V30 3330 C 325.273 1.94519 -0.136863 0
M  V30 3331 O 324.543 1.77261 0.833983 0
M  V30 3332 H 323.123 0.50565 -0.549843 0
M  V30 3333 H 325.785 0.711239 -1.81459 0
M  V30 3334 H 324.881 2.18058 -2.23287 0
M  V30 3335 N 325.182 1.32811 0.848464 0
M  V30 3336 C 326.114 1.18095 1.96433 0
M  V30 3337 C 327.127 0.114354 1.62398 0
M  V30 3338 O 328.316 0.363892 1.74751 0
M  V30 3339 C 325.416 0.786798 3.2964 0
M  V30 3340 C 324.589 1.943 3.91875 0
M  V30 3341 C 323.648 1.53138 5.03423 0
M  V30 3342 O 322.674 2.24432 5.23086 0
M  V30 3343 N 323.876 0.430915 5.78898 0
M  V30 3344 H 326.641 2.14218 2.09597 0
M  V30 3345 H 324.202 1.2543 1.02367 0
M  V30 3346 H 326.194 0.493715 4.01677 0
M  V30 3347 H 324.764 -0.0834541 3.12489 0
M  V30 3348 H 323.984 2.40224 3.12547 0
M  V30 3349 H 325.272 2.71689 4.30189 0
M  V30 3350 H 324.67 -0.162333 5.65467 0
M  V30 3351 H 323.227 0.197466 6.51501 0
M  V30 3352 N 326.66 -1.06551 1.16123 0
M  V30 3353 C 328.071 -1.60768 0.949232 0
M  V30 3354 C 328.422 -1.89523 -0.507508 0
M  V30 3355 O 327.547 -1.66671 -1.38021 0
M  V30 3356 C 328.142 -2.92086 1.71671 0
M  V30 3357 C 326.701 -3.43015 1.54977 0
M  V30 3358 C 325.848 -2.16947 1.72711 0
M  V30 3359 H 328.799 -0.895354 1.31031 0
M  V30 3360 H 328.82 -3.6138 1.19099 0
M  V30 3361 H 328.332 -2.71127 2.7769 0
M  V30 3362 H 326.433 -3.69039 0.513873 0
M  V30 3363 H 326.546 -4.18516 2.33198 0
M  V30 3364 H 324.91 -2.27041 1.15431 0
M  V30 3365 H 325.693 -1.98473 2.80113 0
M  V30 3366 N 328.138 -0.959301 -1.25041 0
M  V30 3367 C 329.554 -0.664474 -1.4511 0
M  V30 3368 C 329.754 0.776481 -1.85938 0
M  V30 3369 O 328.81 1.55128 -1.99227 0
M  V30 3370 C 330.123 -1.64139 -2.5195 0
M  V30 3371 C 331.671 -1.65309 -2.65786 0
M  V30 3372 C 332.146 -2.61777 -3.75815 0
M  V30 3373 N 333.637 -2.60169 -3.83231 0
M  V30 3374 C 334.372 -3.31489 -4.6787 0
M  V30 3375 N 333.868 -4.12298 -5.56761 0
M  V30 3376 N 335.661 -3.20354 -4.61876 0
M  V30 3377 H 327.812 -1.89043 -0.968332 0
M  V30 3378 H 330.075 -0.813408 -0.4869 0
M  V30 3379 H 329.781 -2.67086 -2.28819 0
M  V30 3380 H 329.655 -1.40756 -3.49954 0
M  V30 3381 H 332.042 -0.630778 -2.8828 0
M  V30 3382 H 332.123 -1.92753 -1.68167 0
M  V30 3383 H 331.767 -3.64137 -3.54071 0
M  V30 3384 H 331.697 -2.31616 -4.72929 0
M  V30 3385 H 334.188 -2.01507 -3.19692 0
M  V30 3386 H 334.501 -4.63625 -6.18281 0
M  V30 3387 H 332.846 -4.16395 -5.56454 0
M  V30 3388 H 336.037 -2.56692 -3.91442 0
M  V30 3389 H 336.21 -3.76201 -5.27614 0
M  V30 3390 N 329.616 1.39756 -0.72842 0
M  V30 3391 C 330.526 2.34444 -0.0855374 0
M  V30 3392 C 331.542 1.57976 0.729356 0
M  V30 3393 O 332.718 1.90301 0.659346 0
M  V30 3394 C 329.783 3.36965 0.815798 0
M  V30 3395 C 328.844 4.29299 -0.0105996 0
M  V30 3396 C 328.077 5.26923 0.84781 0
M  V30 3397 O 328.3 5.30859 2.08673 0
M  V30 3398 O 327.234 6.01249 0.279969 0
M  V30 3399 H 331.06 2.91065 -0.866892 0
M  V30 3400 H 328.645 1.4117 -0.48902 0
M  V30 3401 H 330.527 3.99804 1.33171 0
M  V30 3402 H 329.202 2.82739 1.57608 0
M  V30 3403 H 328.109 3.69703 -0.571877 0
M  V30 3404 H 329.442 4.86712 -0.73295 0
M  V30 3405 N 331.094 0.475555 1.50254 0
M  V30 3406 C 332.505 0.0215174 1.86688 0
M  V30 3407 C 332.856 -1.38467 1.39001 0
M  V30 3408 O 331.981 -2.02732 0.756894 0
M  V30 3409 C 332.576 0.0322715 3.38785 0
M  V30 3410 C 331.135 -0.366314 3.74613 0
M  V30 3411 C 330.282 0.415832 2.74164 0
M  V30 3412 H 333.233 0.689612 1.42934 0
M  V30 3413 H 333.254 -0.76889 3.7265 0
M  V30 3414 H 332.766 1.05584 3.73462 0
M  V30 3415 H 330.867 -1.39406 3.45538 0
M  V30 3416 H 330.98 -0.064555 4.79057 0
M  V30 3417 H 329.344 -0.131048 2.54363 0
M  V30 3418 H 330.127 1.43899 3.11686 0
M  V30 3419 N 332.573 -1.56217 0.208337 0
M  V30 3420 C 333.505 -2.1695 -0.739276 0
M  V30 3421 C 334.518 -1.13492 -1.1672 0
M  V30 3422 O 335.707 -1.40529 -1.10063 0
M  V30 3423 C 332.807 -2.72755 -2.01142 0
M  V30 3424 C 331.98 -4.0125 -1.74118 0
M  V30 3425 C 331.039 -4.41749 -2.85909 0
M  V30 3426 O 330.065 -5.08912 -2.54946 0
M  V30 3427 N 331.267 -4.06342 -4.14568 0
M  V30 3428 H 334.032 -2.98893 -0.219837 0
M  V30 3429 H 331.593 -1.61878 0.0268445 0
M  V30 3430 H 333.585 -2.96826 -2.75094 0
M  V30 3431 H 332.155 -1.95191 -2.4417 0
M  V30 3432 H 331.375 -3.85173 -0.838775 0
M  V30 3433 H 332.663 -4.851 -1.53477 0
M  V30 3434 H 332.061 -3.52345 -4.42571 0
M  V30 3435 H 330.618 -4.35335 -4.85105 0
M  V30 3436 N 334.051 0.0651679 -1.57465 0
M  V30 3437 C 335.297 0.764193 -1.87851 0
M  V30 3438 C 335.63 1.76889 -0.801495 0
M  V30 3439 O 334.905 1.93594 0.187528 0
M  V30 3440 C 335.188 1.46625 -3.28897 0
M  V30 3441 C 335.041 0.477515 -4.47258 0
M  V30 3442 C 336.36 2.4095 -3.68281 0
M  V30 3443 H 333.479 0.276351 -0.683227 0
M  V30 3444 H 336.121 0.0272868 -1.8998 0
M  V30 3445 H 334.271 2.09438 -3.27212 0
M  V30 3446 H 335.943 -0.145922 -4.61069 0
M  V30 3447 H 334.186 -0.206576 -4.33308 0
M  V30 3448 H 334.857 1.0065 -5.42746 0
M  V30 3449 H 337.333 1.88209 -3.71102 0
M  V30 3450 H 336.209 2.87072 -4.67847 0
M  V30 3451 H 336.47 3.26049 -2.98571 0
M  V30 3452 N 335.529 1.53961 0.336706 0
M  V30 3453 C 336.759 1.75229 1.09446 0
M  V30 3454 C 337.167 0.494602 1.82621 0
M  V30 3455 O 336.51 -0.543764 1.75468 0
M  V30 3456 C 336.572 2.88288 2.1478 0
M  V30 3457 C 336.236 4.27656 1.6112 0
M  V30 3458 C 337.233 5.08981 1.0599 0
M  V30 3459 C 334.918 4.74161 1.6576 0
M  V30 3460 C 336.912 6.34916 0.562129 0
M  V30 3461 C 334.599 6.00067 1.15595 0
M  V30 3462 C 335.597 6.80278 0.609147 0
M  V30 3463 O 335.285 8.03818 0.114999 0
M  V30 3464 H 335.017 0.588881 0.331956 0
M  V30 3465 H 337.571 2.01614 0.392566 0
M  V30 3466 H 335.801 2.57443 2.88548 0
M  V30 3467 H 337.49 2.97461 2.76174 0
M  V30 3468 H 338.256 4.74213 1.01722 0
M  V30 3469 H 334.135 4.11781 2.07261 0
M  V30 3470 H 337.679 6.9747 0.134668 0
M  V30 3471 H 333.576 6.3433 1.19566 0
M  V30 3472 H 334.344 8.18172 0.231651 0
M  V30 3473 N 337.007 -0.598083 1.45811 0
M  V30 3474 C 338.235 -1.38322 1.53866 0
M  V30 3475 C 338.65 -1.87992 0.174479 0
M  V30 3476 O 338.007 -1.62756 -0.825627 0
M  V30 3477 C 338.058 -2.58125 2.53089 0
M  V30 3478 O 337.779 -2.10516 3.84206 0
M  V30 3479 C 339.28 -3.50869 2.70935 0
M  V30 3480 H 336.5 -0.423093 0.520801 0
M  V30 3481 H 339.044 -0.728527 1.91083 0
M  V30 3482 H 337.199 -3.19615 2.18917 0
M  V30 3483 H 337.613 -2.88425 4.38077 0
M  V30 3484 H 339.087 -4.31451 3.44317 0
M  V30 3485 H 339.564 -4.01822 1.77301 0
M  V30 3486 H 340.17 -2.95225 3.06141 0
M  V30 3487 N 338.485 -1.33259 -0.841409 0
M  V30 3488 C 339.415 -1.25926 -1.96634 0
M  V30 3489 C 340.396 -0.140349 -1.6952 0
M  V30 3490 O 341.581 -0.329707 -1.91381 0
M  V30 3491 C 338.711 -0.99512 -3.32738 0
M  V30 3492 C 337.665 -2.0767 -3.74242 0
M  V30 3493 C 336.991 -1.66474 -5.08125 0
M  V30 3494 C 338.291 -3.49318 -3.88297 0
M  V30 3495 H 339.985 -2.20046 -2.03027 0
M  V30 3496 H 337.531 -1.05931 -0.975425 0
M  V30 3497 H 339.484 -0.930323 -4.11002 0
M  V30 3498 H 338.208 -0.0183004 -3.26595 0
M  V30 3499 H 336.867 -2.13187 -2.98239 0
M  V30 3500 H 336.515 -0.675012 -4.9845 0
M  V30 3501 H 336.215 -2.3885 -5.36865 0
M  V30 3502 H 337.739 -1.61455 -5.88867 0
M  V30 3503 H 339.153 -3.46316 -4.56879 0
M  V30 3504 H 337.55 -4.20158 -4.28471 0
M  V30 3505 H 338.62 -3.8801 -2.9082 0
M  V30 3506 N 339.963 1.05934 -1.16686 0
M  V30 3507 C 341.374 1.60263 -0.957745 0
M  V30 3508 C 341.725 1.89789 0.49745 0
M  V30 3509 O 340.85 1.67401 1.37135 0
M  V30 3510 C 341.445 2.91172 -1.73218 0
M  V30 3511 C 340.004 3.42188 -1.56794 0
M  V30 3512 C 339.151 2.16028 -1.73859 0
M  V30 3513 H 342.102 0.888392 -1.31504 0
M  V30 3514 H 342.123 3.60744 -1.21014 0
M  V30 3515 H 341.635 2.6965 -2.79124 0
M  V30 3516 H 339.736 3.68762 -0.533437 0
M  V30 3517 H 339.849 4.17273 -2.35414 0
M  V30 3518 H 338.213 2.26426 -1.16633 0
M  V30 3519 H 338.996 1.96985 -2.81161 0
M  V30 3520 N 341.441 0.965919 1.2453 0
M  V30 3521 C 342.852 0.665929 1.7442 0
M  V30 3522 C 343.203 -0.818407 1.78316 0
M  V30 3523 O 342.328 -1.64037 1.41141 0
M  V30 3524 C 342.923 1.20211 3.16757 0
M  V30 3525 C 341.482 0.952059 3.6416 0
M  V30 3526 C 340.629 1.33848 2.42858 0
M  V30 3527 H 343.58 1.14144 1.10258 0
M  V30 3528 H 343.601 0.567544 3.76244 0
M  V30 3529 H 343.113 2.28244 3.13889 0
M  V30 3530 H 341.214 -0.112821 3.72429 0
M  V30 3531 H 341.327 1.59645 4.51719 0
M  V30 3532 H 339.691 0.756864 2.43195 0
M  V30 3533 H 340.474 2.42827 2.42673 0
M  V30 3534 N 342.919 -1.39368 0.735821 0
M  V30 3535 C 344.144 -2.05319 0.293052 0
M  V30 3536 C 344.569 -1.55115 -1.064 0
M  V30 3537 O 343.927 -0.695261 -1.67439 0
M  V30 3538 C 343.975 -3.59305 0.305323 0
M  V30 3539 O 343.079 -4.06299 -0.706761 0
M  V30 3540 H 342.42 -0.650529 0.13307 0
M  V30 3541 H 344.95 -1.78386 1.00197 0
M  V30 3542 H 344.96 -4.07724 0.149997 0
M  V30 3543 H 343.635 -3.95207 1.29553 0
M  V30 3544 H 342.212 -3.69292 -0.517504 0
M  V30 3545 N 344.397 -0.483516 -1.5 0
M  V30 3546 C 345.813 -0.138404 -1.58999 0
M  V30 3547 C 346.013 1.35597 -1.4905 0
M  V30 3548 O 345.069 2.13039 -1.35539 0
M  V30 3549 C 346.382 -0.699658 -2.92447 0
M  V30 3550 C 347.93 -0.664195 -3.05872 0
M  V30 3551 C 348.405 -1.20321 -4.41913 0
M  V30 3552 N 349.896 -1.16315 -4.48358 0
M  V30 3553 C 350.631 -1.55058 -5.52037 0
M  V30 3554 N 350.127 -2.01311 -6.62907 0
M  V30 3555 N 351.92 -1.46584 -5.42651 0
M  V30 3556 H 344.071 -1.45529 -1.5471 0
M  V30 3557 H 346.334 -0.60258 -0.731848 0
M  V30 3558 H 346.04 -1.747 -3.05242 0
M  V30 3559 H 345.914 -0.150194 -3.76901 0
M  V30 3560 H 348.301 0.374272 -2.92717 0
M  V30 3561 H 348.382 -1.25061 -2.23144 0
M  V30 3562 H 348.026 -2.24037 -4.55818 0
M  V30 3563 H 347.956 -0.592896 -5.23252 0
M  V30 3564 H 350.447 -0.824058 -3.68806 0
M  V30 3565 H 350.76 -2.2899 -7.38095 0
M  V30 3566 H 349.105 -2.05273 -6.63994 0
M  V30 3567 H 352.296 -1.10281 -4.54924 0
M  V30 3568 H 352.469 -1.77103 -6.23329 0
M  V30 3569 N 345.875 1.56104 -0.216619 0
M  V30 3570 C 346.785 2.23694 0.706982 0
M  V30 3571 C 347.801 1.24295 1.21765 0
M  V30 3572 O 348.977 1.57094 1.2603 0
M  V30 3573 C 346.042 2.8998 1.90033 0
M  V30 3574 C 345.103 4.04708 1.43213 0
M  V30 3575 C 344.336 4.67824 2.56859 0
M  V30 3576 O 344.559 4.29913 3.74874 0
M  V30 3577 O 343.493 5.56905 2.28343 0
M  V30 3578 H 347.319 3.03272 0.161235 0
M  V30 3579 H 344.904 1.49394 0.0136177 0
M  V30 3580 H 346.786 3.31837 2.59735 0
M  V30 3581 H 345.461 2.13365 2.43428 0
M  V30 3582 H 344.368 3.6743 0.70327 0
M  V30 3583 H 345.701 4.83051 0.944615 0
M  V30 3584 N 347.353 -0.0568162 1.57498 0
M  V30 3585 C 348.263 -1.08346 2.08083 0
M  V30 3586 C 349.279 -1.41439 1.01346 0
M  V30 3587 O 350.455 -1.51316 1.32912 0
M  V30 3588 C 347.52 -2.37352 2.52715 0
M  V30 3589 C 346.581 -2.11093 3.73816 0
M  V30 3590 C 345.814 -3.33949 4.1631 0
M  V30 3591 O 346.037 -4.43622 3.58547 0
M  V30 3592 O 344.971 -3.21279 5.08983 0
M  V30 3593 H 348.797 -0.683667 2.95905 0
M  V30 3594 H 346.382 -0.271965 1.46904 0
M  V30 3595 H 348.264 -3.13246 2.81877 0
M  V30 3596 H 346.939 -2.76681 1.68016 0
M  V30 3597 H 345.846 -1.32856 3.49714 0
M  V30 3598 H 347.179 -1.76637 4.59413 0
M  V30 3599 N 348.832 -1.54138 -0.328536 0
M  V30 3600 C 349.765 -1.78014 -1.4278 0
M  V30 3601 C 350.743 -0.629889 -1.49904 0
M  V30 3602 O 351.927 -0.866763 -1.6739 0
M  V30 3603 C 349.054 -1.89225 -2.80912 0
M  V30 3604 C 348.1 -3.11483 -2.91343 0
M  V30 3605 S 348.933 -4.70201 -2.56263 0
M  V30 3606 C 350.089 -4.84312 -3.96476 0
M  V30 3607 H 350.322 -2.70974 -1.22313 0
M  V30 3608 H 347.855 -1.45197 -0.525084 0
M  V30 3609 H 349.813 -1.9637 -3.60485 0
M  V30 3610 H 348.474 -0.972518 -2.98665 0
M  V30 3611 H 347.667 -3.16046 -3.92595 0
M  V30 3612 H 347.269 -3.02642 -2.19736 0
M  V30 3613 H 349.561 -4.66643 -4.91173 0
M  V30 3614 H 350.504 -5.86411 -3.96898 0
M  V30 3615 H 350.912 -4.12652 -3.85199 0
M  V30 3616 N 350.31 0.590341 -1.46126 0
M  V30 3617 C 351.538 1.37504 -1.54597 0
M  V30 3618 C 351.953 1.87897 -0.184447 0
M  V30 3619 O 351.31 1.63192 0.816984 0
M  V30 3620 C 351.361 2.56779 -2.54454 0
M  V30 3621 O 351.082 2.08476 -3.85317 0
M  V30 3622 C 352.583 3.49427 -2.72792 0
M  V30 3623 H 349.803 0.420325 -0.523037 0
M  V30 3624 H 352.347 0.718383 -1.91467 0
M  V30 3625 H 350.502 3.1845 -2.20609 0
M  V30 3626 H 350.916 2.86097 -4.396 0
M  V30 3627 H 352.39 4.29619 -3.466 0
M  V30 3628 H 352.867 4.00876 -1.79429 0
M  V30 3629 H 353.473 2.93598 -3.07702 0
M  V30 3630 N 351.788 1.33704 0.83433 0
M  V30 3631 C 352.735 1.24335 1.94447 0
M  V30 3632 C 353.705 0.120991 1.65659 0
M  V30 3633 O 354.89 0.300035 1.88426 0
M  V30 3634 C 352.03 0.993124 3.30501 0
M  V30 3635 C 351.143 2.20217 3.71657 0
M  V30 3636 C 350.278 1.88572 4.96602 0
M  V30 3637 C 349.317 3.05683 5.30306 0
M  V30 3638 N 348.454 2.73997 6.46429 0
M  V30 3639 H 353.294 2.1928 2.01792 0
M  V30 3640 H 350.831 1.09035 0.987404 0
M  V30 3641 H 352.789 0.828467 4.08892 0
M  V30 3642 H 351.419 0.0803902 3.227 0
M  V30 3643 H 350.471 2.47642 2.88752 0
M  V30 3644 H 351.783 3.07752 3.92543 0
M  V30 3645 H 350.937 1.68776 5.82752 0
M  V30 3646 H 349.676 0.982799 4.77695 0
M  V30 3647 H 348.681 3.26088 4.42659 0
M  V30 3648 H 349.906 3.96737 5.51159 0
M  V30 3649 H 347.852 1.86268 6.28999 0
M  V30 3650 H 347.769 3.55064 6.67432 0
M  V30 3651 H 349.037 2.57679 7.35678 0
M  V30 3652 N 353.266 -1.05314 1.17247 0
M  V30 3653 C 354.214 -2.15137 0.884238 0
M  V30 3654 C 355.208 -1.68729 -0.15063 0
M  V30 3655 O 356.414 -1.8 -0.00366673 0
M  V30 3656 H 352.789 -0.702471 0.2684 0
M  V30 3657 H 354.76 -2.36652 1.81764 0
M  V30 3658 C 353.509 -3.45243 0.412659 0
M  V30 3659 H 352.832 -3.81352 1.20043 0
M  V30 3660 H 354.272 -4.23263 0.249858 0
M  V30 3661 C 352.731 -3.25487 -0.86948 0
M  V30 3662 O 353.261 -3.51938 -1.93655 0
M  V30 3663 N 351.467 -2.78875 -0.817147 0
M  V30 3664 H 351.014 -2.57549 0.0514211 0
M  V30 3665 H 350.972 -2.66036 -1.67547 0
M  V30 3666 N 354.744 -0.972509 -1.24016 0
M  V30 3667 C 355.676 -0.464375 -2.24446 0
M  V30 3668 C 356.689 0.4295 -1.57032 0
M  V30 3669 O 357.878 0.234902 -1.76948 0
M  V30 3670 C 354.978 0.348385 -3.37105 0
M  V30 3671 C 354.151 -0.53673 -4.34094 0
M  V30 3672 C 353.21 0.220838 -5.25736 0
M  V30 3673 O 352.236 -0.386867 -5.67884 0
M  V30 3674 N 353.438 1.50907 -5.60542 0
M  V30 3675 H 356.203 -1.32788 -2.68677 0
M  V30 3676 H 353.764 -0.844877 -1.38107 0
M  V30 3677 H 355.756 0.863341 -3.95384 0
M  V30 3678 H 354.326 1.11285 -2.92121 0
M  V30 3679 H 353.546 -1.23261 -3.74433 0
M  V30 3680 H 354.834 -1.14022 -4.95859 0
M  V30 3681 H 354.232 2.02444 -5.28236 0
M  V30 3682 H 352.789 1.96962 -6.21329 0
M  V30 3683 N 356.222 1.38976 -0.743202 0
M  V30 3684 C 357.468 2.0064 -0.295189 0
M  V30 3685 C 357.801 1.5885 1.11716 0
M  V30 3686 O 357.076 0.821181 1.76315 0
M  V30 3687 C 357.359 3.578 -0.406318 0
M  V30 3688 C 357.212 4.09586 -1.85903 0
M  V30 3689 C 358.531 4.39616 0.206439 0
M  V30 3690 H 355.65 0.728935 -0.108733 0
M  V30 3691 H 358.292 1.65067 -0.940897 0
M  V30 3692 H 356.442 3.88235 0.143419 0
M  V30 3693 H 358.114 3.89837 -2.46627 0
M  V30 3694 H 356.357 3.6284 -2.3776 0
M  V30 3695 H 357.028 5.18708 -1.888 0
M  V30 3696 H 359.504 4.15273 -0.262283 0
M  V30 3697 H 358.38 5.48812 0.0983819 0
M  V30 3698 H 358.641 4.22754 1.2935 0
M  V30 3699 N 357.7 0.491464 1.49741 0
M  V30 3700 C 358.925 -0.0557177 2.07325 0
M  V30 3701 C 359.35 -1.30925 1.35056 0
M  V30 3702 O 358.708 -1.76733 0.404365 0
M  V30 3703 C 358.756 -0.302074 3.59333 0
M  V30 3704 O 357.86 -1.37868 3.88672 0
M  V30 3705 H 357.201 0.0219956 0.663636 0
M  V30 3706 H 359.731 0.688352 1.92673 0
M  V30 3707 H 359.741 -0.536464 4.04458 0
M  V30 3708 H 358.416 0.61383 4.11345 0
M  V30 3709 H 356.993 -1.12999 3.55367 0
M  V30 3710 N 359.178 -1.55987 0.224894 0
M  V30 3711 C 360.108 -2.23426 -0.678457 0
M  V30 3712 C 361.089 -1.20709 -1.19847 0
M  V30 3713 O 362.274 -1.49304 -1.24186 0
M  V30 3714 C 359.404 -2.91676 -1.88527 0
M  V30 3715 C 358.358 -4.00893 -1.49896 0
M  V30 3716 C 357.684 -4.56455 -2.78483 0
M  V30 3717 C 358.984 -5.17769 -0.686461 0
M  V30 3718 H 360.678 -2.99175 -0.116173 0
M  V30 3719 H 358.224 -1.43897 -0.054436 0
M  V30 3720 H 360.177 -3.37547 -2.5227 0
M  V30 3721 H 358.901 -2.1338 -2.47258 0
M  V30 3722 H 357.56 -3.55758 -0.884985 0
M  V30 3723 H 357.208 -3.74886 -3.35365 0
M  V30 3724 H 356.908 -5.30169 -2.53368 0
M  V30 3725 H 358.432 -5.05047 -3.43162 0
M  V30 3726 H 359.846 -5.60001 -1.22767 0
M  V30 3727 H 358.243 -5.97735 -0.532259 0
M  V30 3728 H 359.313 -4.83932 0.306196 0
M  V30 3729 N 360.656 0.0484629 -1.57525 0
M  V30 3730 C 361.884 0.755421 -1.92616 0
M  V30 3731 C 362.299 1.69919 -0.822984 0
M  V30 3732 O 361.656 1.81378 0.202085 0
M  V30 3733 C 361.707 1.52915 -3.27566 0
M  V30 3734 O 361.428 0.62329 -4.33644 0
M  V30 3735 C 362.929 2.33502 -3.76818 0
M  V30 3736 H 360.149 0.213465 -0.63614 0
M  V30 3737 H 362.693 0.0117698 -2.04497 0
M  V30 3738 H 360.848 2.22486 -3.17142 0
M  V30 3739 H 361.262 1.16383 -5.11425 0
M  V30 3740 H 362.736 2.83214 -4.73808 0
M  V30 3741 H 363.213 3.14068 -3.07014 0
M  V30 3742 H 363.819 1.69043 -3.90262 0
M  V30 3743 N 362.134 1.5431 0.320358 0
M  V30 3744 C 363.374 1.74395 1.0661 0
M  V30 3745 C 363.738 0.508602 1.85141 0
M  V30 3746 O 364.939 0.586856 2.62316 0
M  V30 3747 C 363.21 2.98619 1.96371 0
M  V30 3748 S 364.769 3.39621 2.77854 0
M  V30 3749 H 361.587 0.613204 0.359863 0
M  V30 3750 H 364.189 1.9249 0.341727 0
M  V30 3751 H 362.893 3.86673 1.3752 0
M  V30 3752 H 362.424 2.83055 2.73209 0
M  V30 3753 H 364.439 2.95172 3.98858 0
M  V30 3754 N 363.613 -0.582584 1.46437 0
M  V30 3755 C 364.543 -1.70187 1.59871 0
M  V30 3756 C 365.524 -1.64066 0.449042 0
M  V30 3757 O 366.709 -1.82081 0.6753 0
M  V30 3758 C 363.839 -3.08827 1.58881 0
M  V30 3759 C 362.793 -3.29779 2.72819 0
M  V30 3760 C 362.119 -4.68947 2.5689 0
M  V30 3761 C 363.419 -3.17601 4.1464 0
M  V30 3762 H 365.113 -1.592 2.53566 0
M  V30 3763 H 362.659 -0.764472 1.22032 0
M  V30 3764 H 364.612 -3.86951 1.66873 0
M  V30 3765 H 363.336 -3.20713 0.617306 0
M  V30 3766 H 361.995 -2.54054 2.64296 0
M  V30 3767 H 361.643 -4.77599 1.57823 0
M  V30 3768 H 361.343 -4.83919 3.33312 0
M  V30 3769 H 362.867 -5.4924 2.66773 0
M  V30 3770 H 364.281 -3.8557 4.24274 0
M  V30 3771 H 362.678 -3.44094 4.9165 0
M  V30 3772 H 363.748 -2.14681 4.34788 0
M  V30 3773 N 365.091 -1.34144 -0.827227 0
M  V30 3774 C 366.337 -1.26446 -1.58554 0
M  V30 3775 C 366.67 0.1664 -1.93486 0
M  V30 3776 O 365.945 1.1107 -1.59667 0
M  V30 3777 C 366.228 -2.15111 -2.8879 0
M  V30 3778 C 366.081 -3.66712 -2.60465 0
M  V30 3779 C 367.4 -2.03311 -3.90324 0
M  V30 3780 H 364.519 -0.46067 -0.575284 0
M  V30 3781 H 367.161 -1.64356 -0.953269 0
M  V30 3782 H 365.311 -1.8291 -3.42748 0
M  V30 3783 H 366.983 -4.09259 -2.1285 0
M  V30 3784 H 365.226 -3.88014 -1.93978 0
M  V30 3785 H 365.897 -4.24112 -3.53317 0
M  V30 3786 H 368.373 -2.31574 -3.45706 0
M  V30 3787 H 367.249 -2.67582 -4.79261 0
M  V30 3788 H 367.51 -1.00879 -4.30437 0
M  V30 3789 N 366.569 1.04691 -1.17803 0
M  V30 3790 C 367.516 2.12557 -0.899343 0
M  V30 3791 C 368.486 1.65339 0.158771 0
M  V30 3792 O 369.671 1.90789 0.0204797 0
M  V30 3793 C 366.811 3.42481 -0.424315 0
M  V30 3794 C 365.924 4.03346 -1.54713 0
M  V30 3795 C 365.059 5.21208 -1.02546 0
M  V30 3796 C 364.098 5.74089 -2.12339 0
M  V30 3797 N 363.235 6.83247 -1.61612 0
M  V30 3798 H 368.075 2.35734 -1.823 0
M  V30 3799 H 365.612 1.1564 -0.909159 0
M  V30 3800 H 367.57 4.16996 -0.130421 0
M  V30 3801 H 366.2 3.19471 0.462377 0
M  V30 3802 H 365.252 3.2622 -1.95664 0
M  V30 3803 H 366.564 4.38628 -2.37501 0
M  V30 3804 H 365.718 6.02812 -0.685718 0
M  V30 3805 H 364.457 4.87414 -0.167084 0
M  V30 3806 H 363.462 4.91111 -2.47165 0
M  V30 3807 H 364.687 6.0993 -2.98601 0
M  V30 3808 H 362.633 6.5134 -0.780533 0
M  V30 3809 H 362.55 7.17559 -2.38003 0
M  V30 3810 H 363.818 7.68491 -1.30545 0
M  V30 3811 N 368.047 0.979072 1.23499 0
M  V30 3812 C 369.295 0.645941 1.91499 0
M  V30 3813 C 369.616 -0.822948 1.76784 0
M  V30 3814 O 368.886 -1.58854 1.14639 0
M  V30 3815 H 367.466 0.235919 0.708767 0
M  V30 3816 H 370.128 1.2426 1.50152 0
M  V30 3817 H 369.224 0.896411 2.9895 0
M  V30 3818 N 369.525 -1.3858 0.750561 0
M  V30 3819 C 370.772 -2.00184 0.305373 0
M  V30 3820 C 371.1 -1.59575 -1.11203 0
M  V30 3821 O 370.355 -0.823236 -1.77542 0
M  V30 3822 C 370.654 -3.55455 0.372373 0
M  V30 3823 C 370.32 -4.15765 1.745 0
M  V30 3824 C 368.982 -4.31951 2.12065 0
M  V30 3825 C 371.334 -4.49067 2.64553 0
M  V30 3826 C 368.662 -4.78734 3.39162 0
M  V30 3827 C 371.014 -4.97265 3.91038 0
M  V30 3828 C 369.678 -5.11658 4.28676 0
M  V30 3829 H 368.948 -0.732526 0.111744 0
M  V30 3830 H 371.595 -1.65673 0.960451 0
M  V30 3831 H 369.9 -3.90084 -0.366272 0
M  V30 3832 H 371.597 -4.00999 0.00953918 0
M  V30 3833 H 368.187 -4.03579 1.44297 0
M  V30 3834 H 372.371 -4.36166 2.36796 0
M  V30 3835 H 367.627 -4.88062 3.68246 0
M  V30 3836 H 371.801 -5.22003 4.60962 0
M  V30 3837 H 369.428 -5.47668 5.27222 0
M  V30 3838 N 371.003 -0.499398 -1.49478 0
M  V30 3839 C 372.233 0.0424839 -2.06556 0
M  V30 3840 C 372.641 1.31514 -1.36018 0
M  V30 3841 O 371.984 1.78555 -0.431718 0
M  V30 3842 C 372.046 0.368074 -3.57611 0
M  V30 3843 C 371.71 -0.806631 -4.49825 0
M  V30 3844 C 372.707 -1.69667 -4.91436 0
M  V30 3845 C 370.392 -1.00498 -4.92144 0
M  V30 3846 C 372.386 -2.76923 -5.74101 0
M  V30 3847 C 370.073 -2.08072 -5.74586 0
M  V30 3848 C 371.071 -2.96119 -6.15469 0
M  V30 3849 O 370.759 -4.01836 -6.96264 0
M  V30 3850 H 370.491 -0.0165165 -0.675798 0
M  V30 3851 H 373.045 -0.695497 -1.93267 0
M  V30 3852 H 371.275 1.15963 -3.68903 0
M  V30 3853 H 372.964 0.848381 -3.96935 0
M  V30 3854 H 373.73 -1.55524 -4.59388 0
M  V30 3855 H 369.609 -0.329036 -4.59824 0
M  V30 3856 H 373.153 -3.45676 -6.05932 0
M  V30 3857 H 369.05 -2.22211 -6.06047 0
M  V30 3858 H 369.818 -3.9917 -7.14567 0
M  V30 3859 N 372.481 1.55866 -0.233164 0
M  V30 3860 C 373.892 1.847 0.272554 0
M  V30 3861 C 374.243 1.15477 1.58617 0
M  V30 3862 O 373.368 0.42841 2.12117 0
M  V30 3863 C 373.963 3.35071 0.501299 0
M  V30 3864 C 372.522 3.6418 0.951304 0
M  V30 3865 C 371.669 2.77292 0.0208209 0
M  V30 3866 H 374.62 1.52005 -0.456074 0
M  V30 3867 H 374.641 3.55906 1.34577 0
M  V30 3868 H 374.153 3.85424 -0.454936 0
M  V30 3869 H 372.254 3.19293 1.92049 0
M  V30 3870 H 372.367 4.72071 0.817675 0
M  V30 3871 H 370.731 2.49131 0.529723 0
M  V30 3872 H 371.514 3.30448 -0.93054 0
M  V30 3873 N 373.959 -0.0401083 1.57549 0
M  V30 3874 C 375.184 -0.748931 1.93406 0
M  V30 3875 C 375.609 -1.68686 0.832274 0
M  V30 3876 O 374.967 -1.80047 -0.212818 0
M  V30 3877 C 375.015 -1.4916 3.28304 0
M  V30 3878 O 374.119 -2.6042 3.19774 0
M  V30 3879 H 373.46 -0.202212 0.63246 0
M  V30 3880 H 375.99 0.00112086 2.046 0
M  V30 3881 H 376 -1.86395 3.62934 0
M  V30 3882 H 374.675 -0.80364 4.08062 0
M  V30 3883 H 373.252 -2.25808 2.96758 0
M  V30 3884 N 375.437 -1.54477 -0.31217 0
M  V30 3885 C 376.714 -1.63891 -1.06767 0
M  V30 3886 C 377.094 -0.480028 -2.0557 0
M  V30 3887 O 376.442 0.524487 -2.22399 0
M  V30 3888 C 376.652 -3.01402 -1.75948 0
M  V30 3889 C 378 -3.57838 -2.28554 0
M  V30 3890 O 379.024 -3.03782 -1.85998 0
M  V30 3891 O 377.883 -4.52462 -3.06497 0
M  V30 3892 H 374.977 -0.664125 -0.492816 0
M  V30 3893 H 377.523 -1.66823 -0.311149 0
M  V30 3894 H 376.295 -3.77187 -1.04144 0
M  V30 3895 H 375.918 -3.02199 -2.58383 0
M  V30 3896 N 376.915 0.57481 -1.46744 0
M  V30 3897 C 378.164 1.32898 -1.51727 0
M  V30 3898 C 378.477 1.948 -0.176692 0
M  V30 3899 O 379.683 2.71299 -0.104385 0
M  V30 3900 C 378.139 2.40901 -2.67385 0
M  V30 3901 C 377.747 1.85266 -4.07898 0
M  V30 3902 C 379.491 3.17609 -2.81646 0
M  V30 3903 C 377.398 2.90945 -5.14883 0
M  V30 3904 H 376.328 0.499631 -0.564699 0
M  V30 3905 H 378.979 0.612536 -1.72975 0
M  V30 3906 H 377.361 3.15379 -2.39483 0
M  V30 3907 H 378.535 1.17278 -4.45626 0
M  V30 3908 H 376.85 1.21199 -3.98371 0
M  V30 3909 H 379.447 3.96493 -3.58744 0
M  V30 3910 H 379.79 3.70696 -1.89448 0
M  V30 3911 H 380.323 2.50239 -3.09233 0
M  V30 3912 H 377.062 2.42736 -6.089 0
M  V30 3913 H 376.582 3.57398 -4.81691 0
M  V30 3914 H 378.261 3.54755 -5.41071 0
M  V30 3915 N 378.394 1.34581 0.820102 0
M  V30 3916 C 379.619 1.30333 1.61332 0
M  V30 3917 C 380.044 -0.119339 1.87721 0
M  V30 3918 O 379.402 -1.08197 1.45475 0
M  V30 3919 C 379.45 2.10258 2.92957 0
M  V30 3920 O 378.554 1.47404 3.85157 0
M  V30 3921 H 377.895 0.447488 0.490561 0
M  V30 3922 H 380.425 1.77425 1.01889 0
M  V30 3923 H 380.435 2.21718 3.42498 0
M  V30 3924 H 379.11 3.13693 2.73074 0
M  V30 3925 H 377.687 1.44703 3.43679 0
M  V30 3926 N 379.872 -1.04064 1.18357 0
M  V30 3927 C 381.118 -1.77528 0.980397 0
M  V30 3928 C 381.451 -1.87948 -0.48879 0
M  V30 3929 O 380.726 -1.3876 -1.36293 0
M  V30 3930 C 381.009 -3.20797 1.63588 0
M  V30 3931 C 380.862 -3.1832 3.17793 0
M  V30 3932 C 382.181 -4.18911 1.34914 0
M  V30 3933 H 379.3 -0.644443 0.357578 0
M  V30 3934 H 381.942 -1.2156 1.46024 0
M  V30 3935 H 380.092 -3.68586 1.22788 0
M  V30 3936 H 381.764 -2.78521 3.67728 0
M  V30 3937 H 380.007 -2.56351 3.49952 0
M  V30 3938 H 380.678 -4.19489 3.58794 0
M  V30 3939 H 383.154 -3.7967 1.70265 0
M  V30 3940 H 382.03 -5.17374 1.83346 0
M  V30 3941 H 382.291 -4.41262 0.272027 0
M  V30 3942 N 381.35 -0.985608 -1.22978 0
M  V30 3943 C 382.26 -0.538548 -2.28335 0
M  V30 3944 C 383.276 0.409163 -1.69121 0
M  V30 3945 O 384.452 0.277797 -1.99475 0
M  V30 3946 C 381.517 0.146867 -3.46389 0
M  V30 3947 C 380.578 -0.842896 -4.20944 0
M  V30 3948 C 379.811 -0.190095 -5.33361 0
M  V30 3949 O 380.034 1.01767 -5.61248 0
M  V30 3950 O 378.968 -0.891289 -5.95264 0
M  V30 3951 H 382.794 -1.41487 -2.68729 0
M  V30 3952 H 380.379 -0.753495 -1.29007 0
M  V30 3953 H 382.261 0.531125 -4.1804 0
M  V30 3954 H 380.936 0.997871 -3.07935 0
M  V30 3955 H 379.843 -1.27795 -3.51595 0
M  V30 3956 H 381.176 -1.66287 -4.6326 0
M  V30 3957 N 382.828 1.3818 -0.7579 0
M  V30 3958 C 384.074 2.0078 -0.325423 0
M  V30 3959 C 384.429 1.59085 1.08211 0
M  V30 3960 O 383.722 0.820394 1.73148 0
M  V30 3961 C 383.916 3.55252 -0.391218 0
M  V30 3962 C 383.745 4.11947 -1.8036 0
M  V30 3963 C 382.515 4.43519 -2.42113 0
M  V30 3964 C 384.713 4.33908 -2.76095 0
M  V30 3965 N 382.695 4.85847 -3.75267 0
M  V30 3966 C 384.066 4.78692 -3.94023 0
M  V30 3967 C 386.121 4.16015 -2.73561 0
M  V30 3968 C 384.824 5.07459 -5.09782 0
M  V30 3969 C 386.85 4.45909 -3.88483 0
M  V30 3970 C 386.212 4.90921 -5.0515 0
M  V30 3971 H 382.311 0.764215 -0.165831 0
M  V30 3972 H 384.895 1.67724 -0.988776 0
M  V30 3973 H 383.066 3.87646 0.241886 0
M  V30 3974 H 384.798 4.04653 0.061989 0
M  V30 3975 H 381.553 4.32113 -1.93842 0
M  V30 3976 H 381.977 5.11339 -4.4369 0
M  V30 3977 H 386.619 3.80399 -1.84544 0
M  V30 3978 H 384.337 5.4197 -5.99412 0
M  V30 3979 H 387.923 4.33666 -3.87847 0
M  V30 3980 H 386.803 5.1361 -5.92599 0
M  V30 3981 N 384.306 0.507319 1.49211 0
M  V30 3982 C 385.216 -0.272136 2.33016 0
M  V30 3983 C 386.232 -0.961206 1.45041 0
M  V30 3984 O 387.408 -0.941191 1.78055 0
M  V30 3985 C 384.473 -1.31895 3.20631 0
M  V30 3986 C 383.534 -0.642648 4.24463 0
M  V30 3987 C 382.767 -1.63959 5.07891 0
M  V30 3988 O 382.99 -2.87007 4.92933 0
M  V30 3989 O 381.924 -1.19143 5.8999 0
M  V30 3990 H 385.75 0.413982 3.00865 0
M  V30 3991 H 383.335 0.268556 1.46966 0
M  V30 3992 H 385.217 -1.92446 3.7489 0
M  V30 3993 H 383.892 -1.98788 2.5547 0
M  V30 3994 H 382.799 0.00276252 3.741 0
M  V30 3995 H 384.132 -0.0160534 4.92197 0
M  V30 3996 N 385.784 -1.5574 0.241426 0
M  V30 3997 C 387.009 -2.0366 -0.392111 0
M  V30 3998 C 387.434 -1.11969 -1.51144 0
M  V30 3999 O 386.792 -0.111594 -1.80956 0
M  V30 4000 C 386.84 -3.49638 -0.882371 0
M  V30 4001 O 385.944 -3.6108 -1.99235 0
M  V30 4002 H 385.285 -0.658379 -0.0862122 0
M  V30 4003 H 387.815 -2.01302 0.365881 0
M  V30 4004 H 387.825 -3.90351 -1.18702 0
M  V30 4005 H 386.5 -4.15852 -0.0632361 0
M  V30 4006 H 385.077 -3.32262 -1.69282 0
M  V30 4007 N 387.262 0.0317525 -1.57568 0
M  V30 4008 C 388.21 1.05165 -2.07468 0
M  V30 4009 C 389.204 1.3761 -0.98792 0
M  V30 4010 O 390.41 1.36546 -1.17282 0
M  V30 4011 H 386.785 0.35666 -0.66204 0
M  V30 4012 H 388.756 0.604958 -2.92203 0
M  V30 4013 C 387.505 2.34488 -2.56731 0
M  V30 4014 H 386.828 2.10383 -3.39969 0
M  V30 4015 H 388.268 3.04203 -2.95358 0
M  V30 4016 C 386.727 3.03266 -1.46736 0
M  V30 4017 O 387.257 3.92988 -0.832069 0
M  V30 4018 N 385.463 2.6455 -1.20256 0
M  V30 4019 H 385.01 1.91674 -1.72102 0
M  V30 4020 H 384.968 3.10886 -0.468737 0
M  V30 4021 N 388.74 1.54641 0.303973 0
M  V30 4022 C 389.988 1.73437 1.0375 0
M  V30 4023 C 390.309 0.521449 1.87899 0
M  V30 4024 O 389.579 -0.46432 1.90318 0
M  V30 4025 H 388.159 0.639518 0.386039 0
M  V30 4026 H 390.821 1.91988 0.335675 0
M  V30 4027 H 389.917 2.62235 1.69231 0
M  V30 4028 N 390.218 -0.567019 1.47046 0
M  V30 4029 C 391.15 -1.68985 1.54844 0
M  V30 4030 C 392.163 -1.56869 0.435431 0
M  V30 4031 O 393.352 -1.64006 0.70457 0
M  V30 4032 C 390.452 -3.07373 1.42742 0
M  V30 4033 C 389.625 -3.45339 2.6844 0
M  V30 4034 C 388.684 -4.62849 2.50314 0
M  V30 4035 O 387.71 -4.67922 3.24095 0
M  V30 4036 N 388.912 -5.58726 1.57499 0
M  V30 4037 H 391.677 -1.62745 2.51663 0
M  V30 4038 H 389.238 -0.753411 1.43302 0
M  V30 4039 H 391.23 -3.83803 1.28365 0
M  V30 4040 H 389.8 -3.07893 0.540445 0
M  V30 4041 H 389.02 -2.58455 2.97648 0
M  V30 4042 H 390.308 -3.67476 3.51907 0
M  V30 4043 H 389.706 -5.57376 0.966876 0
M  V30 4044 H 388.263 -6.34523 1.49078 0
M  V30 4045 N 391.696 -1.35014 -0.812953 0
M  V30 4046 C 393.107 -1.25035 -1.38648 0
M  V30 4047 C 393.458 0.119967 -1.95833 0
M  V30 4048 O 392.583 1.02069 -1.90816 0
M  V30 4049 C 393.178 -2.26394 -2.52054 0
M  V30 4050 C 391.737 -2.20175 -3.05287 0
M  V30 4051 C 390.884 -2.12451 -1.78213 0
M  V30 4052 H 393.835 -1.46235 -0.616516 0
M  V30 4053 H 393.856 -1.88672 -3.30429 0
M  V30 4054 H 393.368 -3.26116 -2.10404 0
M  V30 4055 H 391.469 -1.23841 -3.51417 0
M  V30 4056 H 391.582 -3.11863 -3.63701 0
M  V30 4057 H 389.946 -1.58328 -1.9951 0
M  V30 4058 H 390.729 -3.14024 -1.38723 0
M  V30 4059 N 393.175 1.03435 -1.18907 0
M  V30 4060 C 394.085 2.15075 -0.937015 0
M  V30 4061 C 395.101 1.73706 0.101085 0
M  V30 4062 O 396.277 2.01232 -0.0822948 0
M  V30 4063 C 393.342 3.43458 -0.473057 0
M  V30 4064 C 392.403 3.99172 -1.57989 0
M  V30 4065 C 391.636 5.21427 -1.13797 0
M  V30 4066 O 391.859 5.704 0.000725941 0
M  V30 4067 O 390.793 5.69837 -1.9383 0
M  V30 4068 H 394.619 2.39198 -1.87131 0
M  V30 4069 H 392.204 1.13506 -0.971427 0
M  V30 4070 H 394.086 4.20811 -0.222702 0
M  V30 4071 H 392.761 3.20793 0.432869 0
M  V30 4072 H 391.668 3.23178 -1.88433 0
M  V30 4073 H 393.001 4.2619 -2.46217 0
M  V30 4074 N 394.653 0.992116 1.22453 0
M  V30 4075 C 395.601 0.534644 2.26372 0
M  V30 4076 C 396.595 -0.414293 1.64256 0
M  V30 4077 O 397.801 -0.286899 1.77699 0
M  V30 4078 H 394.176 0.154502 0.735957 0
M  V30 4079 H 396.147 1.42256 2.62309 0
M  V30 4080 C 394.896 -0.135815 3.47435 0
M  V30 4081 H 394.219 0.585311 3.95492 0
M  V30 4082 H 395.659 -0.419374 4.21921 0
M  V30 4083 C 394.118 -1.37089 3.07747 0
M  V30 4084 O 394.648 -2.46629 3.17076 0
M  V30 4085 N 392.854 -1.24585 2.62539 0
M  V30 4086 H 392.401 -0.354542 2.55149 0
M  V30 4087 H 392.359 -2.07327 2.36353 0
M  V30 4088 N 396.131 -1.37776 0.765217 0
M  V30 4089 C 397.079 -2.32209 0.134798 0
M  V30 4090 C 398.073 -1.54607 -0.692315 0
M  V30 4091 O 399.279 -1.70052 -0.590109 0
M  V30 4092 H 395.654 -0.751591 0.0248005 0
M  V30 4093 H 397.625 -2.8297 0.947119 0
M  V30 4094 C 396.374 -3.39841 -0.735063 0
M  V30 4095 H 395.697 -3.99654 -0.107991 0
M  V30 4096 H 397.137 -4.08296 -1.14326 0
M  V30 4097 C 395.596 -2.79378 -1.88281 0
M  V30 4098 O 396.126 -2.69608 -2.97783 0
M  V30 4099 N 394.332 -2.37016 -1.68142 0
M  V30 4100 H 393.879 -2.45162 -0.790772 0
M  V30 4101 H 393.837 -1.96905 -2.45104 0
M  V30 4102 N 397.609 -0.515225 -1.4894 0
M  V30 4103 C 398.839 0.0205735 -2.0659 0
M  V30 4104 C 399.247 1.30064 -1.37405 0
M  V30 4105 O 398.59 1.78087 -0.450632 0
M  V30 4106 C 398.652 0.330124 -3.57981 0
M  V30 4107 C 398.316 -0.854295 -4.48944 0
M  V30 4108 C 399.313 -1.7487 -4.89609 0
M  V30 4109 C 396.998 -1.05712 -4.9105 0
M  V30 4110 C 398.992 -2.82996 -5.71132 0
M  V30 4111 C 396.679 -2.14154 -5.72347 0
M  V30 4112 C 397.677 -3.0263 -6.12294 0
M  V30 4113 O 397.365 -4.09198 -6.91962 0
M  V30 4114 H 397.097 -0.0236833 -0.675585 0
M  V30 4115 H 399.651 -0.715956 -1.92518 0
M  V30 4116 H 397.881 1.12044 -3.70112 0
M  V30 4117 H 399.57 0.806233 -3.97812 0
M  V30 4118 H 400.336 -1.60388 -4.57712 0
M  V30 4119 H 396.215 -0.377788 -4.59449 0
M  V30 4120 H 399.759 -3.52083 -6.02232 0
M  V30 4121 H 395.656 -2.28626 -6.03656 0
M  V30 4122 H 396.424 -4.06726 -7.10293 0
M  V30 4123 N 399.087 1.5561 -0.249682 0
M  V30 4124 C 400.034 2.21496 0.648694 0
M  V30 4125 C 401.004 1.17977 1.16921 0
M  V30 4126 O 402.189 1.46434 1.22318 0
M  V30 4127 C 399.329 2.92039 1.83868 0
M  V30 4128 C 398.442 4.10219 1.35442 0
M  V30 4129 C 397.577 4.6847 2.50419 0
M  V30 4130 C 396.616 5.78893 1.98869 0
M  V30 4131 N 395.753 6.31315 3.07223 0
M  V30 4132 H 400.593 2.97892 0.0801582 0
M  V30 4133 H 398.13 1.47074 0.0278031 0
M  V30 4134 H 400.088 3.31138 2.53778 0
M  V30 4135 H 398.718 2.18111 2.37965 0
M  V30 4136 H 397.77 3.76413 0.54928 0
M  V30 4137 H 399.082 4.89927 0.936649 0
M  V30 4138 H 398.236 5.10158 3.28366 0
M  V30 4139 H 396.975 3.87984 2.95499 0
M  V30 4140 H 395.98 5.3668 1.19393 0
M  V30 4141 H 397.205 6.61232 1.54755 0
M  V30 4142 H 395.151 5.53733 3.51732 0
M  V30 4143 H 395.068 7.06224 2.69784 0
M  V30 4144 H 396.336 6.77662 3.8522 0
M  V30 4145 N 400.565 -0.0233959 1.57583 0
M  V30 4146 C 401.793 -0.724682 1.93794 0
M  V30 4147 C 402.208 -1.68588 0.849912 0
M  V30 4148 O 401.565 -1.81676 -0.173204 0
M  V30 4149 C 401.616 -1.47684 3.29957 0
M  V30 4150 O 401.337 -0.554222 4.3458 0
M  V30 4151 C 402.838 -2.27477 3.80485 0
M  V30 4152 H 400.058 -0.203317 0.639455 0
M  V30 4153 H 402.602 0.0207653 2.04489 0
M  V30 4154 H 400.757 -2.17412 3.20641 0
M  V30 4155 H 401.171 -1.08232 5.13212 0
M  V30 4156 H 402.645 -2.7564 4.78254 0
M  V30 4157 H 403.122 -3.09144 3.11972 0
M  V30 4158 H 403.728 -1.62813 3.92902 0
M  V30 4159 N 402.043 -1.548 -0.295768 0
M  V30 4160 C 403.271 -1.78327 -1.04914 0
M  V30 4161 C 403.686 -0.545316 -1.80753 0
M  V30 4162 O 403.043 0.485013 -1.75937 0
M  V30 4163 C 403.094 -2.99418 -2.02561 0
M  V30 4164 O 402.815 -4.18431 -1.29798 0
M  V30 4165 C 404.316 -3.35375 -2.89895 0
M  V30 4166 H 401.536 -0.594618 -0.310918 0
M  V30 4167 H 404.08 -2.01763 -0.333454 0
M  V30 4168 H 402.235 -2.78175 -2.69624 0
M  V30 4169 H 402.649 -4.86736 -1.95419 0
M  V30 4170 H 404.123 -4.23332 -3.54251 0
M  V30 4171 H 404.6 -2.53761 -3.58472 0
M  V30 4172 H 405.206 -3.58796 -2.28355 0
M  V30 4173 N 403.521 0.559213 -1.47345 0
M  V30 4174 C 404.932 1.14134 -1.47751 0
M  V30 4175 C 405.283 1.94834 -0.231103 0
M  V30 4176 O 404.408 2.05957 0.664137 0
M  V30 4177 C 405.003 2.07653 -2.67705 0
M  V30 4178 C 403.562 2.61141 -2.71076 0
M  V30 4179 C 402.709 1.3748 -2.40821 0
M  V30 4180 H 405.66 0.345917 -1.54884 0
M  V30 4181 H 405.681 2.91497 -2.44561 0
M  V30 4182 H 405.193 1.4889 -3.58404 0
M  V30 4183 H 403.294 3.23707 -1.84511 0
M  V30 4184 H 403.407 3.02272 -3.7171 0
M  V30 4185 H 401.771 1.68086 -1.91362 0
M  V30 4186 H 402.554 0.805135 -3.33725 0
M  V30 4187 N 404.999 1.35443 0.805782 0
M  V30 4188 C 406.41 1.25768 1.37983 0
M  V30 4189 C 406.761 -0.10958 1.95894 0
M  V30 4190 O 405.886 -1.01056 1.91355 0
M  V30 4191 C 406.481 2.27727 2.5085 0
M  V30 4192 C 405.04 2.2179 3.04115 0
M  V30 4193 C 404.187 2.13393 1.77084 0
M  V30 4194 H 407.138 1.4656 0.608752 0
M  V30 4195 H 407.159 1.90422 3.29424 0
M  V30 4196 H 406.671 3.27227 2.08671 0
M  V30 4197 H 404.772 1.25703 3.50756 0
M  V30 4198 H 404.885 3.13788 3.62042 0
M  V30 4199 H 403.249 1.59384 1.98668 0
M  V30 4200 H 404.032 3.14755 1.37056 0
M  V30 4201 N 406.477 -1.02803 1.19454 0
M  V30 4202 C 407.41 -2.107 0.876396 0
M  V30 4203 C 408.388 -1.61741 -0.166897 0
M  V30 4204 O 409.572 -1.88451 -0.0430195 0
M  V30 4205 C 406.699 -3.37262 0.311758 0
M  V30 4206 C 405.745 -4.05093 1.33424 0
M  V30 4207 S 406.578 -4.50498 2.89503 0
M  V30 4208 C 407.734 -5.80277 2.34584 0
M  V30 4209 H 407.967 -2.37362 1.79016 0
M  V30 4210 H 405.5 -1.15755 1.02177 0
M  V30 4211 H 407.458 -4.10499 -0.00748752 0
M  V30 4212 H 406.119 -3.08693 -0.58032 0
M  V30 4213 H 405.312 -4.9611 0.888302 0
M  V30 4214 H 404.914 -3.3803 1.60037 0
M  V30 4215 H 407.206 -6.54873 1.73633 0
M  V30 4216 H 408.149 -6.29651 3.23952 0
M  V30 4217 H 408.557 -5.3599 1.77131 0
M  V30 4218 N 407.956 -0.998596 -1.21925 0
M  V30 4219 C 408.886 -0.573688 -2.26343 0
M  V30 4220 C 409.867 0.402296 -1.65274 0
M  V30 4221 O 411.052 0.291683 -1.91997 0
M  V30 4222 C 408.182 0.106839 -3.47136 0
M  V30 4223 C 407.136 -0.788269 -4.20678 0
M  V30 4224 C 406.462 0.0254927 -5.34694 0
M  V30 4225 C 407.762 -2.08784 -4.78755 0
M  V30 4226 H 409.456 -1.44651 -2.62138 0
M  V30 4227 H 407.002 -0.696975 -1.26009 0
M  V30 4228 H 408.955 0.415531 -4.19346 0
M  V30 4229 H 407.679 1.01424 -3.10452 0
M  V30 4230 H 406.338 -1.08069 -3.50309 0
M  V30 4231 H 405.986 0.933989 -4.94253 0
M  V30 4232 H 405.686 -0.570437 -5.84825 0
M  V30 4233 H 407.21 0.328147 -6.09718 0
M  V30 4234 H 408.624 -1.84272 -5.42878 0
M  V30 4235 H 407.021 -2.63307 -5.39249 0
M  V30 4236 H 408.091 -2.76284 -3.98491 0
M  V30 4237 N 409.434 1.37368 -0.772513 0
M  V30 4238 C 410.711 1.93839 -0.26188 0
M  V30 4239 C 411.091 1.7061 1.24319 0
M  V30 4240 O 410.439 1.05534 2.02669 0
M  V30 4241 C 410.649 3.43154 -0.636102 0
M  V30 4242 C 411.997 4.20249 -0.606324 0
M  V30 4243 O 413.021 3.5152 -0.575538 0
M  V30 4244 O 411.88 5.42809 -0.634086 0
M  V30 4245 H 408.974 0.82478 -0.0605555 0
M  V30 4246 H 411.52 1.4665 -0.853917 0
M  V30 4247 H 410.292 3.53647 -1.6748 0
M  V30 4248 H 409.915 3.97596 -0.0170516 0
M  V30 4249 N 410.912 0.523116 1.48665 0
M  V30 4250 C 412.137 -0.0117284 2.07397 0
M  V30 4251 C 412.562 -1.28031 1.37803 0
M  V30 4252 O 411.92 -1.75836 0.441762 0
M  V30 4253 C 411.968 -0.225786 3.59892 0
M  V30 4254 O 411.072 -1.29592 3.91509 0
M  V30 4255 H 410.413 0.0360673 0.66302 0
M  V30 4256 H 412.943 0.729066 1.9117 0
M  V30 4257 H 412.953 -0.450552 4.05505 0
M  V30 4258 H 411.628 0.700944 4.09951 0
M  V30 4259 H 410.205 -1.05436 3.57684 0
M  V30 4260 N 412.39 -1.55475 0.257931 0
M  V30 4261 C 413.667 -1.91155 -0.414629 0
M  V30 4262 C 414.047 -1.18008 -1.75035 0
M  V30 4263 O 413.395 -0.301193 -2.26506 0
M  V30 4264 C 413.605 -3.44283 -0.571859 0
M  V30 4265 C 414.953 -4.15744 -0.862678 0
M  V30 4266 O 415.977 -3.50083 -0.657314 0
M  V30 4267 O 414.836 -5.31909 -1.2544 0
M  V30 4268 H 411.93 -0.796016 -0.22425 0
M  V30 4269 H 414.476 -1.66976 0.302814 0
M  V30 4270 H 413.248 -3.89558 0.368844 0
M  V30 4271 H 412.871 -3.7436 -1.33943 0
M  V30 4272 N 413.868 0.0150385 -1.57593 0
M  V30 4273 C 415.116 0.701613 -1.8953 0
M  V30 4274 C 415.437 1.75139 -0.857396 0
M  V30 4275 O 414.707 1.95607 0.107194 0
M  V30 4276 H 413.287 0.26213 -0.699498 0
M  V30 4277 H 415.949 -0.0223304 -1.94887 0
M  V30 4278 H 415.045 1.18236 -2.88837 0
M  V30 4279 N 415.346 1.54954 0.287554 0
M  V30 4280 C 416.571 1.79209 1.04397 0
M  V30 4281 C 416.996 0.556431 1.79682 0
M  V30 4282 O 416.354 -0.493518 1.74454 0
M  V30 4283 C 416.402 3.00739 1.98969 0
M  V30 4284 O 415.506 2.74805 3.075 0
M  V30 4285 H 414.847 0.592755 0.299227 0
M  V30 4286 H 417.377 2.02068 0.320886 0
M  V30 4287 H 417.387 3.29077 2.4119 0
M  V30 4288 H 416.062 3.90329 1.43582 0
M  V30 4289 H 414.639 2.57523 2.69697 0
M  V30 4290 N 416.824 -0.551391 1.4764 0
M  V30 4291 C 418.071 -1.3083 1.54563 0
M  V30 4292 C 418.399 -1.93359 0.210361 0
M  V30 4293 O 417.654 -1.78721 -0.797332 0
M  V30 4294 C 417.953 -2.43469 2.61644 0
M  V30 4295 C 417.619 -1.98732 4.04742 0
M  V30 4296 C 416.281 -1.86248 4.43695 0
M  V30 4297 C 418.633 -1.64659 4.94507 0
M  V30 4298 C 415.961 -1.37995 5.70241 0
M  V30 4299 C 418.313 -1.17875 6.21521 0
M  V30 4300 C 416.977 -1.03992 6.5935 0
M  V30 4301 H 416.247 -0.478741 0.565587 0
M  V30 4302 H 418.894 -0.617697 1.81264 0
M  V30 4303 H 417.199 -3.18109 2.28722 0
M  V30 4304 H 418.896 -3.01642 2.64222 0
M  V30 4305 H 415.486 -2.09393 3.73968 0
M  V30 4306 H 419.67 -1.73174 4.65107 0
M  V30 4307 H 414.926 -1.25915 5.98294 0
M  V30 4308 H 419.1 -0.905739 6.90485 0
M  V30 4309 H 416.727 -0.663794 7.57296 0
M  V30 4310 N 418.302 -1.35869 -0.798587 0
M  V30 4311 C 419.549 -1.29588 -1.55606 0
M  V30 4312 C 419.877 0.127456 -1.94082 0
M  V30 4313 O 419.132 1.09461 -1.62225 0
M  V30 4314 C 419.431 -2.1556 -2.85077 0
M  V30 4315 C 419.097 -3.6424 -2.65781 0
M  V30 4316 C 417.759 -4.04766 -2.60227 0
M  V30 4317 C 420.111 -4.58547 -2.47758 0
M  V30 4318 C 417.439 -5.37753 -2.34603 0
M  V30 4319 C 419.791 -5.91742 -2.23662 0
M  V30 4320 C 418.455 -6.31402 -2.16534 0
M  V30 4321 H 417.725 -0.474197 -0.569402 0
M  V30 4322 H 420.372 -1.67839 -0.922086 0
M  V30 4323 H 418.677 -1.70216 -3.52893 0
M  V30 4324 H 420.374 -2.08031 -3.42818 0
M  V30 4325 H 416.964 -3.32086 -2.70956 0
M  V30 4326 H 421.148 -4.28117 -2.51056 0
M  V30 4327 H 416.404 -5.67474 -2.2756 0
M  V30 4328 H 420.578 -6.6439 -2.08708 0
M  V30 4329 H 418.205 -7.34381 -1.96441 0
M  V30 4330 N 419.78 1.02168 -1.19998 0
M  V30 4331 C 420.71 2.12488 -0.96804 0
M  V30 4332 C 421.691 1.69799 0.101185 0
M  V30 4333 O 422.876 1.94121 -0.0552993 0
M  V30 4334 C 420.006 3.43479 -0.513776 0
M  V30 4335 C 418.96 3.99884 -1.52566 0
M  V30 4336 C 418.286 5.26582 -0.928214 0
M  V30 4337 C 419.586 4.33861 -2.90795 0
M  V30 4338 H 421.28 2.32149 -1.89069 0
M  V30 4339 H 418.826 1.11564 -0.910468 0
M  V30 4340 H 420.779 4.20036 -0.338774 0
M  V30 4341 H 419.503 3.23561 0.444493 0
M  V30 4342 H 418.162 3.25429 -1.68794 0
M  V30 4343 H 417.81 5.02986 0.0378289 0
M  V30 4344 H 417.51 5.65284 -1.60397 0
M  V30 4345 H 419.034 6.05799 -0.764167 0
M  V30 4346 H 420.448 5.01327 -2.78109 0
M  V30 4347 H 418.845 4.83664 -3.55231 0
M  V30 4348 H 419.915 3.42848 -3.42904 0
M  V30 4349 N 421.258 1.00505 1.21394 0
M  V30 4350 C 422.488 0.705584 1.94178 0
M  V30 4351 C 422.896 -0.735846 1.74304 0
M  V30 4352 O 422.239 -1.50954 1.04683 0
M  V30 4353 C 422.301 0.94689 3.46806 0
M  V30 4354 C 421.965 2.37517 3.90429 0
M  V30 4355 C 422.962 3.35539 3.97127 0
M  V30 4356 C 420.647 2.71284 4.22742 0
M  V30 4357 C 422.641 4.65395 4.3553 0
M  V30 4358 C 420.328 4.01356 4.60822 0
M  V30 4359 C 421.326 4.98223 4.67186 0
M  V30 4360 O 421.014 6.25969 5.04399 0
M  V30 4361 H 420.746 0.259216 0.624326 0
M  V30 4362 H 423.3 1.34592 1.55159 0
M  V30 4363 H 421.53 0.249386 3.85895 0
M  V30 4364 H 423.219 0.640804 4.0081 0
M  V30 4365 H 423.985 3.10786 3.7234 0
M  V30 4366 H 419.864 1.96581 4.16985 0
M  V30 4367 H 423.408 5.41002 4.40412 0
M  V30 4368 H 419.305 4.25893 4.85063 0
M  V30 4369 H 420.073 6.30085 5.22431 0
M  V30 4370 N 422.737 -1.36956 0.779787 0
M  V30 4371 C 423.962 -2.04283 0.358224 0
M  V30 4372 C 424.387 -1.58422 -1.01411 0
M  V30 4373 O 423.745 -0.748179 -1.65142 0
M  V30 4374 C 423.793 -3.58152 0.419479 0
M  V30 4375 O 422.897 -4.08342 -0.577142 0
M  V30 4376 H 422.238 -0.645967 0.153698 0
M  V30 4377 H 424.768 -1.75108 1.05822 0
M  V30 4378 H 424.778 -4.07041 0.279636 0
M  V30 4379 H 423.453 -3.90886 1.42061 0
M  V30 4380 H 422.03 -3.70751 -0.399755 0
M  V30 4381 N 424.215 -0.530993 -1.48385 0
M  V30 4382 C 425.162 0.231223 -2.29639 0
M  V30 4383 C 426.132 0.932864 -1.37429 0
M  V30 4384 O 427.317 0.933692 -1.66394 0
M  V30 4385 C 424.457 1.27155 -3.2082 0
M  V30 4386 C 423.57 0.578655 -4.28107 0
M  V30 4387 C 422.705 1.602 -5.06467 0
M  V30 4388 C 421.744 0.892625 -6.05556 0
M  V30 4389 N 420.881 1.86157 -6.76971 0
M  V30 4390 H 425.721 -0.467848 -2.94305 0
M  V30 4391 H 423.258 -0.242556 -1.45086 0
M  V30 4392 H 425.216 1.88703 -3.72085 0
M  V30 4393 H 423.846 1.939 -2.58075 0
M  V30 4394 H 422.898 -0.150782 -3.80101 0
M  V30 4395 H 424.21 0.0217065 -4.98795 0
M  V30 4396 H 423.364 2.29173 -5.61751 0
M  V30 4397 H 422.103 2.19285 -4.35621 0
M  V30 4398 H 421.108 0.188829 -5.49476 0
M  V30 4399 H 422.333 0.307878 -6.78402 0
M  V30 4400 H 420.279 2.44147 -6.08875 0
M  V30 4401 H 420.196 1.35608 -7.43738 0
M  V30 4402 H 421.464 2.54325 -7.36844 0
M  V30 4403 N 425.693 1.55336 -0.266172 0
M  V30 4404 C 426.623 2.25146 0.618981 0
M  V30 4405 C 427.604 1.23845 1.16604 0
M  V30 4406 O 428.789 1.52544 1.20183 0
M  V30 4407 C 425.919 2.96572 1.80728 0
M  V30 4408 C 424.873 4.04726 1.39215 0
M  V30 4409 C 424.199 4.63678 2.66283 0
M  V30 4410 C 425.499 5.19407 0.548942 0
M  V30 4411 H 427.193 2.99377 0.0368116 0
M  V30 4412 H 424.739 1.43991 0.0162651 0
M  V30 4413 H 426.692 3.44116 2.43232 0
M  V30 4414 H 425.416 2.19861 2.41514 0
M  V30 4415 H 424.075 3.57979 0.790351 0
M  V30 4416 H 423.723 3.83646 3.25308 0
M  V30 4417 H 423.423 5.367 2.39222 0
M  V30 4418 H 424.947 5.13967 3.29651 0
M  V30 4419 H 426.361 5.63059 1.07876 0
M  V30 4420 H 424.758 5.98936 0.373593 0
M  V30 4421 H 425.828 4.8295 -0.434394 0
M  V30 4422 N 427.171 -0.0066808 1.57599 0
M  V30 4423 C 428.399 -0.704087 1.94551 0
M  V30 4424 C 428.814 -1.67677 0.867746 0
M  V30 4425 O 428.171 -1.8185 -0.153925 0
M  V30 4426 C 428.222 -1.44177 3.31505 0
M  V30 4427 O 427.943 -0.508097 4.35144 0
M  V30 4428 C 429.444 -2.23429 3.82876 0
M  V30 4429 H 426.664 -0.196523 0.641576 0
M  V30 4430 H 429.208 0.042453 2.04456 0
M  V30 4431 H 427.363 -2.13999 3.22929 0
M  V30 4432 H 427.777 -1.02782 5.14331 0
M  V30 4433 H 429.251 -2.70552 4.8115 0
M  V30 4434 H 429.728 -3.05818 3.15233 0
M  V30 4435 H 430.334 -1.58636 3.94607 0
M  V30 4436 N 428.649 -1.55105 -0.279332 0
M  V30 4437 C 429.895 -1.75672 -1.01327 0
M  V30 4438 C 430.228 -0.552739 -1.86168 0
M  V30 4439 O 429.503 0.449827 -1.89227 0
M  V30 4440 C 429.786 -3.05825 -1.90114 0
M  V30 4441 C 429.639 -4.36565 -1.08309 0
M  V30 4442 C 430.958 -3.31975 -2.8893 0
M  V30 4443 H 428.077 -0.639149 -0.366957 0
M  V30 4444 H 430.719 -1.87833 -0.286154 0
M  V30 4445 H 428.869 -2.95588 -2.52111 0
M  V30 4446 H 430.541 -4.58751 -0.484314 0
M  V30 4447 H 428.784 -4.32076 -0.386362 0
M  V30 4448 H 429.455 -5.23946 -1.73737 0
M  V30 4449 H 431.931 -3.41963 -2.37067 0
M  V30 4450 H 430.807 -4.2432 -3.48201 0
M  V30 4451 H 431.068 -2.51309 -3.63725 0
M  V30 4452 N 430.127 0.543554 -1.4793 0
M  V30 4453 C 431.404 1.30458 -1.4574 0
M  V30 4454 C 431.784 2.1048 -0.161692 0
M  V30 4455 O 431.132 2.11831 0.856734 0
M  V30 4456 C 431.342 2.19754 -2.71126 0
M  V30 4457 C 432.69 2.80334 -3.18901 0
M  V30 4458 O 433.714 2.30049 -2.71948 0
M  V30 4459 O 432.573 3.71766 -4.00565 0
M  V30 4460 H 429.667 0.588117 -0.581418 0
M  V30 4461 H 432.213 0.561328 -1.60147 0
M  V30 4462 H 430.985 1.60316 -3.56952 0
M  V30 4463 H 430.608 3.01351 -2.59371 0
M  V30 4464 N 431.605 1.3629 0.791371 0
M  V30 4465 C 432.552 1.30458 1.90393 0
M  V30 4466 C 433.522 0.173632 1.6519 0
M  V30 4467 O 434.707 0.35983 1.87376 0
M  V30 4468 C 431.847 1.09777 3.27174 0
M  V30 4469 C 430.96 2.31929 3.64462 0
M  V30 4470 C 430.095 2.04276 4.90352 0
M  V30 4471 C 429.134 3.224 5.20312 0
M  V30 4472 N 428.271 2.94424 6.37385 0
M  V30 4473 H 433.111 2.25589 1.94714 0
M  V30 4474 H 430.648 1.12122 0.952216 0
M  V30 4475 H 432.606 0.958133 4.06049 0
M  V30 4476 H 431.236 0.183014 3.22281 0
M  V30 4477 H 430.288 2.56703 2.80727 0
M  V30 4478 H 431.6 3.20085 3.82553 0
M  V30 4479 H 430.754 1.87231 5.77087 0
M  V30 4480 H 429.493 1.13428 4.74326 0
M  V30 4481 H 428.498 3.40005 4.32061 0
M  V30 4482 H 429.723 4.14071 5.38258 0
M  V30 4483 H 427.669 2.06185 6.22755 0
M  V30 4484 H 427.586 3.76118 6.55798 0
M  V30 4485 H 428.854 2.80953 7.27108 0
M  V30 4486 N 433.083 -1.0153 1.20538 0
M  V30 4487 C 434.308 -1.79283 1.04271 0
M  V30 4488 C 434.733 -1.8372 -0.403544 0
M  V30 4489 O 434.091 -1.27321 -1.2907 0
M  V30 4490 C 434.139 -3.21535 1.63241 0
M  V30 4491 O 433.243 -4.03099 0.870908 0
M  V30 4492 H 432.584 -0.55293 0.367647 0
M  V30 4493 H 435.114 -1.27696 1.59859 0
M  V30 4494 H 435.124 -3.72243 1.6703 0
M  V30 4495 H 433.799 -3.1762 2.68497 0
M  V30 4496 H 432.376 -3.61693 0.907323 0
M  V30 4497 N 434.561 -1.01147 -1.20859 0
M  V30 4498 C 435.977 -0.725422 -1.42161 0
M  V30 4499 C 436.177 0.696919 -1.89064 0
M  V30 4500 O 435.233 1.46539 -2.05627 0
M  V30 4501 C 436.546 -1.74678 -2.44761 0
M  V30 4502 C 438.094 -1.76433 -2.58535 0
M  V30 4503 C 438.569 -2.77481 -3.64374 0
M  V30 4504 N 440.06 -2.76189 -3.71852 0
M  V30 4505 C 440.795 -3.51035 -4.53389 0
M  V30 4506 N 440.291 -4.35541 -5.38773 0
M  V30 4507 N 442.084 -3.39655 -4.47873 0
M  V30 4508 H 434.235 -1.92979 -0.887282 0
M  V30 4509 H 436.498 -0.833327 -0.451962 0
M  V30 4510 H 436.204 -2.76551 -2.17285 0
M  V30 4511 H 436.078 -1.55472 -3.43669 0
M  V30 4512 H 438.465 -0.75248 -2.85345 0
M  V30 4513 H 438.546 -1.99712 -1.5984 0
M  V30 4514 H 438.19 -3.78827 -3.38308 0
M  V30 4515 H 438.12 -2.51466 -4.6268 0
M  V30 4516 H 440.611 -2.14885 -3.10858 0
M  V30 4517 H 440.924 -4.89432 -5.98061 0
M  V30 4518 H 439.269 -4.39621 -5.38292 0
M  V30 4519 H 442.46 -2.73063 -3.80203 0
M  V30 4520 H 442.633 -3.9824 -5.11184 0
M  V30 4521 N 436.039 1.36541 -0.78704 0
M  V30 4522 C 437.285 2.00044 -0.367938 0
M  V30 4523 C 437.64 1.61345 1.04812 0
M  V30 4524 O 436.933 0.856936 1.71368 0
M  V30 4525 C 437.127 3.54343 -0.466485 0
M  V30 4526 C 436.956 4.08029 -1.89058 0
M  V30 4527 C 435.726 4.38284 -2.51466 0
M  V30 4528 C 437.924 4.27954 -2.85236 0
M  V30 4529 N 435.906 4.77778 -3.85488 0
M  V30 4530 C 437.277 4.70227 -4.04088 0
M  V30 4531 C 439.332 4.10119 -2.82324 0
M  V30 4532 C 438.035 4.96532 -5.20432 0
M  V30 4533 C 440.061 4.37569 -3.97854 0
M  V30 4534 C 439.423 4.80095 -5.15449 0
M  V30 4535 H 435.522 0.760525 -0.182004 0
M  V30 4536 H 438.106 1.65589 -1.02413 0
M  V30 4537 H 436.277 3.88072 0.159606 0
M  V30 4538 H 438.009 4.04693 -0.0238577 0
M  V30 4539 H 434.764 4.27905 -2.02965 0
M  V30 4540 H 435.188 5.01813 -4.54437 0
M  V30 4541 H 439.83 3.76399 -1.92571 0
M  V30 4542 H 437.548 5.29134 -6.10773 0
M  V30 4543 H 441.134 4.25341 -3.96958 0
M  V30 4544 H 440.014 5.00925 -6.0336 0
M  V30 4545 N 437.518 0.538854 1.48102 0
M  V30 4546 C 438.45 -0.256278 2.27763 0
M  V30 4547 C 439.463 -0.89633 1.35904 0
M  V30 4548 O 440.652 -0.773275 1.60881 0
M  V30 4549 C 437.752 -1.37896 3.09577 0
M  V30 4550 C 436.925 -0.839159 4.29275 0
M  V30 4551 C 435.984 -1.84405 4.9283 0
M  V30 4552 O 435.01 -1.39746 5.51779 0
M  V30 4553 N 436.212 -3.17666 4.85869 0
M  V30 4554 H 438.977 0.426968 2.96643 0
M  V30 4555 H 436.538 0.373747 1.57527 0
M  V30 4556 H 438.53 -2.04955 3.48963 0
M  V30 4557 H 437.1 -1.96572 2.4306 0
M  V30 4558 H 436.32 0.00769287 3.94199 0
M  V30 4559 H 437.608 -0.457548 5.06739 0
M  V30 4560 H 437.006 -3.56609 4.39143 0
M  V30 4561 H 435.563 -3.80334 5.29329 0
M  V30 4562 N 438.996 -1.55193 0.274407 0
M  V30 4563 C 439.928 -2.1989 -0.646595 0
M  V30 4564 C 440.941 -1.1834 -1.11801 0
M  V30 4565 O 442.13 -1.4507 -1.04004 0
M  V30 4566 C 439.23 -2.8104 -1.89393 0
M  V30 4567 C 438.403 -4.08274 -1.56943 0
M  V30 4568 C 437.462 -4.53478 -2.66916 0
M  V30 4569 O 436.488 -5.19267 -2.33132 0
M  V30 4570 N 437.69 -4.2356 -3.9696 0
M  V30 4571 H 440.455 -2.99556 -0.0928686 0
M  V30 4572 H 438.016 -1.61618 0.0954783 0
M  V30 4573 H 440.008 -3.08226 -2.62257 0
M  V30 4574 H 438.578 -2.05372 -2.35672 0
M  V30 4575 H 437.798 -3.88384 -0.674655 0
M  V30 4576 H 439.086 -4.91173 -1.32764 0
M  V30 4577 H 438.484 -3.70799 -4.27229 0
M  V30 4578 H 437.041 -4.55518 -4.66205 0
M  V30 4579 N 440.474 -0.00167713 -1.576 0
M  V30 4580 C 441.722 0.681471 -1.90264 0
M  V30 4581 C 442.043 1.7422 -0.875924 0
M  V30 4582 O 441.313 1.95709 0.0864412 0
M  V30 4583 H 439.893 0.254696 -0.702239 0
M  V30 4584 H 442.555 -0.0429996 -1.94853 0
M  V30 4585 H 441.651 1.15166 -2.90075 0
M  V30 4586 N 441.952 1.55251 0.271103 0
M  V30 4587 C 442.9 1.89054 1.35504 0
M  V30 4588 C 443.894 0.767064 1.51038 0
M  V30 4589 O 445.1 0.951429 1.528 0
M  V30 4590 H 441.475 0.600072 0.45323 0
M  V30 4591 H 443.446 2.79598 1.04247 0
M  V30 4592 C 442.195 2.18068 2.70817 0
M  V30 4593 H 441.518 3.04005 2.59656 0
M  V30 4594 H 442.958 2.4564 3.45597 0
M  V30 4595 C 441.417 0.988901 3.2206 0
M  V30 4596 O 441.947 0.224501 4.01072 0
M  V30 4597 N 440.153 0.786085 2.79766 0
M  V30 4598 H 439.7 1.40937 2.15626 0
M  V30 4599 H 439.658 -0.00969349 3.14399 0
M  V30 4600 N 443.43 -0.535701 1.48216 0
M  V30 4601 C 444.676 -1.29375 1.56173 0
M  V30 4602 C 445.009 -1.92804 0.232429 0
M  V30 4603 O 444.284 -1.78992 -0.761048 0
M  V30 4604 C 444.567 -2.38747 2.69577 0
M  V30 4605 C 444.42 -1.80046 4.12193 0
M  V30 4606 C 445.739 -3.40551 2.78771 0
M  V30 4607 H 442.858 -0.469027 0.568491 0
M  V30 4608 H 445.5 -0.597358 1.80365 0
M  V30 4609 H 443.65 -2.98147 2.4908 0
M  V30 4610 H 445.322 -1.24742 4.44114 0
M  V30 4611 H 443.565 -1.10609 4.19462 0
M  V30 4612 H 444.236 -2.59212 4.87353 0
M  V30 4613 H 446.712 -2.91099 2.97322 0
M  V30 4614 H 445.588 -4.1448 3.59857 0
M  V30 4615 H 445.849 -4.00746 1.86696 0
M  V30 4616 N 444.908 -1.36708 -0.784132 0
M  V30 4617 C 446.155 -1.31231 -1.54222 0
M  V30 4618 C 446.483 0.106864 -1.94206 0
M  V30 4619 O 445.738 1.07734 -1.63376 0
M  V30 4620 C 446.037 -2.18571 -2.82774 0
M  V30 4621 C 445.703 -3.67039 -2.61903 0
M  V30 4622 C 444.365 -4.07503 -2.55919 0
M  V30 4623 C 446.717 -4.61149 -2.4288 0
M  V30 4624 C 444.045 -5.40211 -2.28886 0
M  V30 4625 C 446.397 -5.94081 -2.17373 0
M  V30 4626 C 445.061 -6.33664 -2.09825 0
M  V30 4627 H 444.331 -0.48021 -0.56434 0
M  V30 4628 H 446.978 -1.68807 -0.904233 0
M  V30 4629 H 445.283 -1.73949 -3.51068 0
M  V30 4630 H 446.98 -2.11655 -3.40592 0
M  V30 4631 H 443.57 -3.34941 -2.67418 0
M  V30 4632 H 447.754 -4.30756 -2.46501 0
M  V30 4633 H 443.01 -5.69855 -2.21529 0
M  V30 4634 H 447.184 -6.66566 -2.01649 0
M  V30 4635 H 444.811 -7.36423 -1.88641 0
M  V30 4636 N 446.386 1.0089 -1.21074 0
M  V30 4637 C 447.611 1.78727 -1.05221 0
M  V30 4638 C 448.036 1.83932 0.393795 0
M  V30 4639 O 447.394 1.28004 1.28393 0
M  V30 4640 C 447.442 3.20665 -1.64944 0
M  V30 4641 O 446.546 4.02632 -0.892273 0
M  V30 4642 H 445.887 0.550973 -0.370574 0
M  V30 4643 H 448.417 1.26847 -1.60534 0
M  V30 4644 H 448.427 3.71352 -1.69002 0
M  V30 4645 H 447.102 3.16191 -2.70177 0
M  V30 4646 H 445.679 3.61207 -0.926492 0
M  V30 4647 N 447.864 1.01787 1.20321 0
M  V30 4648 C 449.104 0.716493 1.91431 0
M  V30 4649 C 449.468 -0.740352 1.77152 0
M  V30 4650 O 450.669 -1.1543 2.42754 0
M  V30 4651 C 448.94 1.14169 3.38674 0
M  V30 4652 S 450.499 0.962482 4.28114 0
M  V30 4653 H 447.317 0.261175 0.661293 0
M  V30 4654 H 449.919 1.30539 1.45533 0
M  V30 4655 H 448.623 2.19784 3.46588 0
M  V30 4656 H 448.154 0.545621 3.89598 0
M  V30 4657 H 450.169 -0.133253 4.96021 0
M  V30 4658 N 449.342 -1.36122 0.79427 0
M  V30 4659 C 450.567 -2.03891 0.379871 0
M  V30 4660 C 450.992 -1.59488 -0.997251 0
M  V30 4661 O 450.35 -0.765652 -1.64339 0
M  V30 4662 C 450.398 -3.57687 0.457442 0
M  V30 4663 O 449.502 -4.08931 -0.5338 0
M  V30 4664 H 448.843 -0.6443 0.160541 0
M  V30 4665 H 451.373 -1.73976 1.07673 0
M  V30 4666 H 451.383 -4.06721 0.322792 0
M  V30 4667 H 450.058 -3.89357 1.46199 0
M  V30 4668 H 448.635 -3.71154 -0.360409 0
M  V30 4669 N 450.82 -0.546701 -1.47814 0
M  V30 4670 C 452.066 -0.0187684 -2.02791 0
M  V30 4671 C 452.399 1.32338 -1.42128 0
M  V30 4672 O 451.674 1.85867 -0.573023 0
M  V30 4673 C 451.957 0.0854985 -3.59998 0
M  V30 4674 C 451.81 -1.283 -4.31114 0
M  V30 4675 C 453.129 0.80412 -4.32691 0
M  V30 4676 H 450.248 -0.0082946 -0.736953 0
M  V30 4677 H 452.89 -0.706962 -1.76358 0
M  V30 4678 H 451.04 0.671609 -3.82651 0
M  V30 4679 H 452.712 -1.91151 -4.19832 0
M  V30 4680 H 450.955 -1.86049 -3.91878 0
M  V30 4681 H 451.626 -1.16287 -5.39612 0
M  V30 4682 H 454.102 0.306576 -4.14969 0
M  V30 4683 H 452.978 0.846011 -5.42341 0
M  V30 4684 H 453.239 1.85802 -4.01161 0
M  V30 4685 N 452.299 1.55045 -0.282633 0
M  V30 4686 C 453.232 2.18951 0.64311 0
M  V30 4687 C 454.21 1.15287 1.14664 0
M  V30 4688 O 455.394 1.43846 1.21822 0
M  V30 4689 C 452.521 2.81874 1.87789 0
M  V30 4690 C 451.567 3.98906 1.50919 0
M  V30 4691 S 452.4 5.3234 0.580884 0
M  V30 4692 C 453.556 5.98737 1.82387 0
M  V30 4693 H 453.789 2.97131 0.100138 0
M  V30 4694 H 451.322 1.54255 -0.0668514 0
M  V30 4695 H 453.28 3.18757 2.58658 0
M  V30 4696 H 451.941 2.03573 2.392 0
M  V30 4697 H 451.134 4.4165 2.42819 0
M  V30 4698 H 450.736 3.63485 0.88061 0
M  V30 4699 H 453.028 6.18427 2.76684 0
M  V30 4700 H 453.971 6.93318 1.4393 0
M  V30 4701 H 454.379 5.28177 1.99223 0
M  V30 4702 N 453.777 0.010035 1.57597 0
M  V30 4703 C 454.727 -0.986858 2.05536 0
M  V30 4704 C 455.711 -1.29711 0.952042 0
M  V30 4705 O 456.903 -1.28641 1.21575 0
M  V30 4706 C 454.032 -2.2756 2.57043 0
M  V30 4707 C 453.118 -1.99455 3.74271 0
M  V30 4708 N 453.509 -1.41546 4.85591 0
M  V30 4709 C 451.807 -2.29547 3.82393 0
M  V30 4710 C 452.508 -1.3014 5.66956 0
M  V30 4711 N 451.484 -1.79044 5.13268 0
M  V30 4712 H 455.286 -0.533778 2.89012 0
M  V30 4713 H 452.8 -0.195432 1.6122 0
M  V30 4714 H 454.797 -2.99829 2.89669 0
M  V30 4715 H 453.457 -2.73512 1.7499 0
M  V30 4716 H 454.468 -1.09294 5.06236 0
M  V30 4717 H 451.145 -2.78304 3.11213 0
M  V30 4718 H 452.535 -0.855237 6.66435 0
M  V30 4719 N 455.255 -1.55392 -0.262866 0
M  V30 4720 C 456.165 -1.92077 -1.34698 0
M  V30 4721 C 457.181 -0.819227 -1.53508 0
M  V30 4722 O 458.357 -1.11921 -1.67439 0
M  V30 4723 C 455.422 -2.19407 -2.68443 0
M  V30 4724 C 454.483 -3.42905 -2.58292 0
M  V30 4725 C 453.716 -3.68921 -3.85659 0
M  V30 4726 O 453.939 -2.97275 -4.8681 0
M  V30 4727 O 452.873 -4.62455 -3.85252 0
M  V30 4728 H 456.699 -2.84384 -1.06581 0
M  V30 4729 H 454.284 -1.42069 -0.462264 0
M  V30 4730 H 456.166 -2.38365 -3.47506 0
M  V30 4731 H 454.841 -1.30282 -2.96325 0
M  V30 4732 H 453.748 -3.29272 -1.7757 0
M  V30 4733 H 455.081 -4.32282 -2.35358 0
M  V30 4734 N 456.733 0.527833 -1.48498 0
M  V30 4735 C 457.696 1.61439 -1.62696 0
M  V30 4736 C 458.696 1.52824 -0.500136 0
M  V30 4737 O 459.886 1.56456 -0.765976 0
M  V30 4738 C 457.018 3.01063 -1.59918 0
M  V30 4739 H 458.211 1.50189 -2.59583 0
M  V30 4740 H 455.764 0.750055 -1.37127 0
M  V30 4741 H 456.499 3.17818 -0.645163 0
M  V30 4742 H 456.284 3.08725 -2.41726 0
M  V30 4743 H 457.774 3.80057 -1.73051 0
M  V30 4744 N 458.211 1.37122 0.776871 0
M  V30 4745 C 459.141 1.35164 1.90402 0
M  V30 4746 C 460.122 0.221069 1.68657 0
M  V30 4747 O 461.307 0.420642 1.8959 0
M  V30 4748 C 458.437 1.15274 3.27611 0
M  V30 4749 C 457.391 2.25289 3.63908 0
M  V30 4750 C 456.717 1.90527 4.99603 0
M  V30 4751 C 458.017 3.67446 3.71188 0
M  V30 4752 H 459.711 2.29482 1.92297 0
M  V30 4753 H 457.257 1.10465 0.923773 0
M  V30 4754 H 459.21 1.12536 4.06096 0
M  V30 4755 H 457.934 0.174102 3.26136 0
M  V30 4756 H 456.593 2.27174 2.87728 0
M  V30 4757 H 456.241 0.91206 4.94662 0
M  V30 4758 H 455.941 2.64193 5.24858 0
M  V30 4759 H 457.465 1.89367 5.80493 0
M  V30 4760 H 458.879 3.67719 4.39836 0
M  V30 4761 H 457.276 4.40123 4.07936 0
M  V30 4762 H 458.346 4.01443 2.71977 0
M  V30 4763 N 459.689 -1.00246 1.21608 0
M  V30 4764 C 460.639 -2.07492 0.945051 0
M  V30 4765 C 461.623 -1.60585 -0.100675 0
M  V30 4766 O 462.815 -1.76667 0.10859 0
M  V30 4767 C 459.944 -3.39425 0.514342 0
M  V30 4768 C 459.03 -3.92993 1.59428 0
M  V30 4769 N 459.421 -4.19898 2.81991 0
M  V30 4770 C 457.719 -4.21297 1.46374 0
M  V30 4771 C 458.42 -4.63297 3.51754 0
M  V30 4772 N 457.396 -4.66421 2.79199 0
M  V30 4773 H 461.198 -2.26222 1.87619 0
M  V30 4774 H 458.712 -1.18339 1.11219 0
M  V30 4775 H 460.709 -4.15808 0.301527 0
M  V30 4776 H 459.369 -3.22101 -0.410008 0
M  V30 4777 H 460.38 -4.08377 3.1851 0
M  V30 4778 H 457.057 -4.13095 0.604863 0
M  V30 4779 H 458.447 -4.92816 4.56708 0
M  V30 4780 N 461.167 -1.02423 -1.1978 0
M  V30 4781 C 462.115 -0.594474 -2.24875 0
M  V30 4782 C 463.109 0.370598 -1.65296 0
M  V30 4783 O 464.315 0.239684 -1.78397 0
M  V30 4784 H 460.69 -0.173961 -0.731602 0
M  V30 4785 H 462.661 -1.4916 -2.58445 0
M  V30 4786 C 461.41 0.0436512 -3.47673 0
M  V30 4787 H 460.733 -0.689963 -3.93801 0
M  V30 4788 H 462.173 0.307362 -4.22884 0
M  V30 4789 C 460.632 1.28881 -3.11274 0
M  V30 4790 O 461.162 2.38135 -3.23503 0
M  V30 4791 N 459.368 1.1758 -2.6575 0
M  V30 4792 H 458.915 0.286769 -2.55999 0
M  V30 4793 H 458.873 2.00988 -2.41767 0
M  V30 4794 N 462.645 1.35699 -0.801477 0
M  V30 4795 C 463.595 2.2728 -0.181073 0
M  V30 4796 C 464.579 1.47533 0.642098 0
M  V30 4797 O 465.771 1.69785 0.500193 0
M  V30 4798 C 462.9 3.36626 0.673612 0
M  V30 4799 C 461.986 4.23802 -0.159008 0
M  V30 4800 N 462.377 4.90879 -1.2195 0
M  V30 4801 C 460.675 4.45959 0.0602005 0
M  V30 4802 C 461.376 5.5546 -1.72738 0
M  V30 4803 N 460.352 5.33663 -1.03465 0
M  V30 4804 H 464.154 2.76632 -0.992582 0
M  V30 4805 H 461.668 1.49166 -0.642127 0
M  V30 4806 H 463.665 4.01179 1.13408 0
M  V30 4807 H 462.325 2.88828 1.48353 0
M  V30 4808 H 463.336 4.92497 -1.60209 0
M  V30 4809 H 460.013 4.08969 0.839664 0
M  V30 4810 H 461.403 6.18991 -2.61342 0
M  V30 4811 N 464.123 0.554532 1.47522 0
M  V30 4812 C 465.353 0.0342074 2.06572 0
M  V30 4813 C 465.761 -1.26375 1.40805 0
M  V30 4814 O 465.104 -1.7683 0.49769 0
M  V30 4815 C 465.166 -0.235096 3.5873 0
M  V30 4816 C 464.83 0.973024 4.46521 0
M  V30 4817 C 465.827 1.8779 4.848 0
M  V30 4818 C 463.512 1.18694 4.88075 0
M  V30 4819 C 465.506 2.98039 5.63428 0
M  V30 4820 C 463.193 2.29254 5.66468 0
M  V30 4821 C 464.191 3.18757 6.04055 0
M  V30 4822 O 463.879 4.27401 6.8087 0
M  V30 4823 H 463.611 0.041587 0.67472 0
M  V30 4824 H 466.165 0.766748 1.90552 0
M  V30 4825 H 464.395 -1.02191 3.72953 0
M  V30 4826 H 466.084 -0.700477 3.9981 0
M  V30 4827 H 466.85 1.72467 4.53299 0
M  V30 4828 H 462.729 0.49947 4.58286 0
M  V30 4829 H 466.273 3.67926 5.92685 0
M  V30 4830 H 462.17 2.4455 5.97382 0
M  V30 4831 H 462.938 4.25415 6.9926 0
M  V30 4832 N 465.601 -1.54893 0.290851 0
M  V30 4833 C 466.829 -2.04343 -0.324288 0
M  V30 4834 C 467.244 -1.16859 -1.48289 0
M  V30 4835 O 466.601 -0.192018 -1.81487 0
M  V30 4836 C 466.652 -3.52756 -0.79026 0
M  V30 4837 O 466.373 -4.36913 0.322213 0
M  V30 4838 C 467.874 -4.18161 -1.4716 0
M  V30 4839 H 465.094 -0.667135 -0.0719173 0
M  V30 4840 H 467.638 -1.99981 0.427529 0
M  V30 4841 H 465.793 -3.57511 -1.49213 0
M  V30 4842 H 466.207 -5.24486 -0.0387372 0
M  V30 4843 H 467.681 -5.23562 -1.7489 0
M  V30 4844 H 468.158 -3.67282 -2.40834 0
M  V30 4845 H 468.764 -4.17454 -0.813178 0
M  V30 4846 N 467.08 -0.0183926 -1.57589 0
M  V30 4847 C 468.012 0.995557 -2.06449 0
M  V30 4848 C 469.025 1.29556 -0.985849 0
M  V30 4849 O 470.214 1.2621 -1.26227 0
M  V30 4850 C 467.314 2.32572 -2.46502 0
M  V30 4851 C 466.487 2.21245 -3.77319 0
M  V30 4852 C 465.546 3.37104 -4.04039 0
M  V30 4853 O 464.572 3.14468 -4.74445 0
M  V30 4854 N 465.774 4.60553 -3.53372 0
M  V30 4855 H 468.539 0.578746 -2.94059 0
M  V30 4856 H 466.1 0.168603 -1.6102 0
M  V30 4857 H 468.092 3.08887 -2.61478 0
M  V30 4858 H 466.662 2.65931 -1.64315 0
M  V30 4859 H 465.882 1.29723 -3.72244 0
M  V30 4860 H 467.17 2.10868 -4.63047 0
M  V30 4861 H 466.568 4.81839 -2.96391 0
M  V30 4862 H 465.125 5.34072 -3.73644 0
M  V30 4863 N 468.558 1.5553 0.254621 0
M  V30 4864 C 469.505 1.89666 1.31512 0
M  V30 4865 C 470.475 0.750057 1.482 0
M  V30 4866 O 471.66 1.00301 1.62309 0
M  V30 4867 C 468.8 2.19009 2.667 0
M  V30 4868 C 467.913 3.46435 2.58083 0
M  V30 4869 C 467.048 3.65386 3.85573 0
M  V30 4870 C 466.087 4.8644 3.71541 0
M  V30 4871 N 465.224 5.01952 4.90906 0
M  V30 4872 H 470.064 2.80109 1.017 0
M  V30 4873 H 467.601 1.38666 0.490938 0
M  V30 4874 H 469.559 2.34025 3.45381 0
M  V30 4875 H 468.189 1.31779 2.94676 0
M  V30 4876 H 467.241 3.39792 1.71013 0
M  V30 4877 H 468.553 4.35258 2.43622 0
M  V30 4878 H 467.707 3.80319 4.72697 0
M  V30 4879 H 466.446 2.74781 4.02922 0
M  V30 4880 H 465.451 4.71491 2.82801 0
M  V30 4881 H 466.676 5.78497 3.55694 0
M  V30 4882 H 464.622 4.14283 5.08631 0
M  V30 4883 H 464.539 5.84851 4.79046 0
M  V30 4884 H 465.807 5.21289 5.7955 0
M  V30 4885 N 470.036 -0.519951 1.48776 0
M  V30 4886 C 471.261 -1.30447 1.6124 0
M  V30 4887 C 471.686 -1.86055 0.276591 0
M  V30 4888 O 471.044 -1.64915 -0.753183 0
M  V30 4889 C 471.092 -2.42406 2.66967 0
M  V30 4890 O 470.196 -3.45728 2.24824 0
M  V30 4891 H 469.537 -0.385924 0.540332 0
M  V30 4892 H 472.067 -0.624572 1.94834 0
M  V30 4893 H 472.077 -2.88447 2.88552 0
M  V30 4894 H 470.752 -2.01294 3.63941 0
M  V30 4895 H 469.329 -3.05737 2.13494 0
M  V30 4896 N 471.514 -1.37532 -0.769588 0
M  V30 4897 C 472.444 -1.36172 -1.89682 0
M  V30 4898 C 473.425 -0.23001 -1.68538 0
M  V30 4899 O 474.61 -0.43069 -1.89364 0
M  V30 4900 C 471.74 -1.1701 -3.26995 0
M  V30 4901 C 470.694 -2.27216 -3.62708 0
M  V30 4902 C 470.02 -1.93174 -4.98586 0
M  V30 4903 C 471.32 -3.6941 -3.69234 0
M  V30 4904 H 473.014 -2.30499 -1.91078 0
M  V30 4905 H 470.56 -1.10953 -0.917902 0
M  V30 4906 H 472.513 -1.14688 -4.05493 0
M  V30 4907 H 471.237 -0.191395 -3.26039 0
M  V30 4908 H 469.896 -2.28697 -2.86519 0
M  V30 4909 H 469.544 -0.938281 -4.94171 0
M  V30 4910 H 469.244 -2.66973 -5.23449 0
M  V30 4911 H 470.768 -1.92443 -5.79481 0
M  V30 4912 H 472.182 -3.70047 -4.37879 0
M  V30 4913 H 470.579 -4.4228 -4.05597 0
M  V30 4914 H 471.649 -4.0288 -2.69844 0
M  V30 4915 N 472.992 0.995999 -1.22138 0
M  V30 4916 C 474.217 1.77601 -1.0711 0
M  V30 4917 C 474.642 1.84339 0.374264 0
M  V30 4918 O 474 1.29359 1.27028 0
M  V30 4919 C 474.048 3.18897 -1.68336 0
M  V30 4920 O 473.152 4.01663 -0.934928 0
M  V30 4921 H 472.493 0.547011 -0.376397 0
M  V30 4922 H 475.023 1.25137 -1.6187 0
M  V30 4923 H 475.033 3.69539 -1.72931 0
M  V30 4924 H 473.708 3.13308 -2.73516 0
M  V30 4925 H 472.285 3.60204 -0.964751 0
M  V30 4926 N 474.47 1.03057 1.19235 0
M  V30 4927 C 475.4 0.633497 2.24742 0
M  V30 4928 C 476.381 -0.358335 1.66283 0
M  V30 4929 O 477.566 -0.240676 1.92703 0
M  V30 4930 C 474.696 -0.0147648 3.47297 0
M  V30 4931 C 473.65 0.899527 4.18441 0
M  V30 4932 C 472.976 0.116281 5.34574 0
M  V30 4933 C 474.276 2.21404 4.73051 0
M  V30 4934 H 475.97 1.5155 2.58211 0
M  V30 4935 H 473.516 0.73014 1.24117 0
M  V30 4936 H 475.469 -0.304202 4.20301 0
M  V30 4937 H 474.193 -0.931577 3.13032 0
M  V30 4938 H 472.852 1.17319 3.47321 0
M  V30 4939 H 472.5 -0.802619 4.96555 0
M  V30 4940 H 472.2 0.725293 5.83107 0
M  V30 4941 H 473.724 -0.166376 6.10373 0
M  V30 4942 H 475.138 1.98601 5.37802 0
M  V30 4943 H 473.535 2.77512 5.32078 0
M  V30 4944 H 474.605 2.86752 3.91026 0
M  V30 4945 N 475.948 -1.35272 0.808662 0
M  V30 4946 C 477.173 -2.03477 0.401475 0
M  V30 4947 C 477.598 -1.60537 -0.980279 0
M  V30 4948 O 476.956 -0.78304 -1.63518 0
M  V30 4949 C 477.004 -3.57181 0.495354 0
M  V30 4950 O 476.108 -4.09474 -0.490397 0
M  V30 4951 H 475.449 -0.642561 0.167366 0
M  V30 4952 H 477.979 -1.72824 1.09512 0
M  V30 4953 H 477.989 -4.06356 0.365912 0
M  V30 4954 H 476.664 -3.87784 1.5032 0
M  V30 4955 H 475.241 -3.71516 -0.321023 0
M  V30 4956 N 477.426 -0.562348 -1.47226 0
M  V30 4957 C 478.837 -0.130325 -1.86245 0
M  V30 4958 C 479.188 1.30128 -1.46838 0
M  V30 4959 O 478.313 1.97974 -0.873805 0
M  V30 4960 C 478.908 -0.229738 -3.3802 0
M  V30 4961 C 477.467 0.14728 -3.76112 0
M  V30 4962 C 476.614 -0.574971 -2.71274 0
M  V30 4963 H 479.565 -0.771773 -1.3867 0
M  V30 4964 H 479.586 0.550316 -3.76499 0
M  V30 4965 H 479.098 -1.27178 -3.66671 0
M  V30 4966 H 477.199 1.19023 -3.53078 0
M  V30 4967 H 477.312 -0.214858 -4.78618 0
M  V30 4968 H 475.676 -0.0174756 -2.54694 0
M  V30 4969 H 476.459 -1.61827 -3.02766 0
M  V30 4970 N 478.904 1.54736 -0.299062 0
M  V30 4971 C 480.152 1.99706 0.31017 0
M  V30 4972 C 480.473 1.18896 1.54559 0
M  V30 4973 O 479.743 0.284445 1.93824 0
M  V30 4974 H 478.323 0.737686 0.117596 0
M  V30 4975 H 480.985 1.9054 -0.409943 0
M  V30 4976 H 480.081 3.06596 0.58355 0
M  V30 4977 N 480.382 0.0267497 1.57577 0
M  V30 4978 C 481.329 -0.955894 2.10075 0
M  V30 4979 C 482.299 -1.32453 1.00226 0
M  V30 4980 O 483.484 -1.41826 1.27632 0
M  V30 4981 C 480.624 -2.2338 2.6305 0
M  V30 4982 C 479.737 -1.92183 3.86898 0
M  V30 4983 C 478.872 -3.14251 4.28275 0
M  V30 4984 C 477.911 -2.78862 5.44888 0
M  V30 4985 N 477.048 -3.93548 5.81433 0
M  V30 4986 H 481.888 -0.501303 2.93753 0
M  V30 4987 H 479.425 -0.235847 1.45197 0
M  V30 4988 H 481.383 -2.98124 2.91853 0
M  V30 4989 H 480.013 -2.6646 1.82205 0
M  V30 4990 H 479.065 -1.07692 3.64838 0
M  V30 4991 H 480.377 -1.62117 4.7172 0
M  V30 4992 H 479.531 -3.97317 4.58502 0
M  V30 4993 H 478.27 -3.47476 3.42215 0
M  V30 4994 H 477.275 -1.94208 5.14357 0
M  V30 4995 H 478.5 -2.46855 6.32645 0
M  V30 4996 H 476.446 -4.2662 4.98328 0
M  V30 4997 H 476.363 -3.67098 6.6089 0
M  V30 4998 H 477.631 -4.77325 6.16264 0
M  V30 4999 O 481.899 -1.6109 -0.114939 0
M  V30 5000 H 482.59 -1.78767 -0.745784 0
M  V30 END ATOM
M  V30 BEGIN BOND
M  V30 END BOND
M  V30 END CTAB
M  END
$$$$
