drugbank_target|O15923 Deoxyuridine triphosphatase (DB03413)
 OpenBabel12092120273D

  0  0  0     0  0            999 V3000
M  V30 BEGIN CTAB
M  V30 COUNTS 4472 4520 0 0 0
M  V30 BEGIN ATOM
M  V30 1 H -0.908 1.98254 -0.117106 0
M  V30 2 N 0 1.576 0 0
M  V30 3 C 0.933 2.03868 1.02534 0
M  V30 4 C 1.911 0.928543 1.3348 0
M  V30 5 O 3.095 1.19667 1.45644 0
M  V30 6 C 0.222 2.43627 2.35294 0
M  V30 7 C -0.732 3.65373 2.2001 0
M  V30 8 S 0.101 5.13292 1.52614 0
M  V30 9 C 1.257 5.56322 2.86805 0
M  V30 10 H 1.49 2.90518 0.631377 0
M  V30 11 H -0.977 1.52953 0.210867 0
M  V30 12 H 0.981 2.67203 3.11629 0
M  V30 13 H -0.358 1.57376 2.7183 0
M  V30 14 H -1.165 3.90944 3.18086 0
M  V30 15 H -1.563 3.418 1.51819 0
M  V30 16 H 0.729 5.58782 3.83104 0
M  V30 17 H 1.672 6.56266 2.65933 0
M  V30 18 H 2.08 4.83886 2.90714 0
M  V30 19 N 1.4781 -0.272755 1.55222 0
M  V30 20 C 2.4261 -1.35705 1.88909 0
M  V30 21 C 3.4201 -1.5112 0.765456 0
M  V30 22 O 4.6261 -1.52901 0.949802 0
M  V30 23 H 1.0011 -0.453868 0.59959 0
M  V30 24 H 2.9721 -1.04544 2.79487 0
M  V30 25 C 1.7211 -2.71049 2.17779 0
M  V30 26 H 1.0441 -2.59979 3.03728 0
M  V30 27 H 2.4841 -3.45858 2.45272 0
M  V30 28 C 0.9431 -3.22165 0.985473 0
M  V30 29 O 1.4731 -4.01096 0.220233 0
M  V30 30 N -0.3209 -2.7985 0.783108 0
M  V30 31 H -0.7739 -2.15775 1.40708 0
M  V30 32 H -0.8159 -3.14397 -0.0130392 0
M  V30 33 N 2.9562 -1.48159 -0.537278 0
M  V30 34 C 4.3722 -1.34118 -0.865129 0
M  V30 35 C 4.5722 -0.346678 -1.98495 0
M  V30 36 O 3.6282 0.234715 -2.51407 0
M  V30 37 C 4.9412 -2.73963 -1.23954 0
M  V30 38 C 6.4892 -2.82397 -1.34984 0
M  V30 39 C 6.9642 -4.22928 -1.75772 0
M  V30 40 N 8.4552 -4.25566 -1.82887 0
M  V30 41 C 9.1902 -5.31235 -2.15817 0
M  V30 42 N 8.6862 -6.47189 -2.47222 0
M  V30 43 N 10.4792 -5.18624 -2.16761 0
M  V30 44 H 2.6302 -2.1144 0.201715 0
M  V30 45 H 4.8932 -0.947598 0.0275949 0
M  V30 46 H 4.5992 -3.48264 -0.490381 0
M  V30 47 H 4.4732 -3.0702 -2.19132 0
M  V30 48 H 6.8602 -2.08356 -2.08978 0
M  V30 49 H 6.9412 -2.5297 -0.379448 0
M  V30 50 H 6.5852 -4.97482 -1.02341 0
M  V30 51 H 6.5152 -4.49794 -2.73848 0
M  V30 52 H 9.0062 -3.41924 -1.60924 0
M  V30 53 H 9.3192 -7.23564 -2.71433 0
M  V30 54 H 7.6642 -6.50476 -2.44757 0
M  V30 55 H 10.8552 -4.27056 -1.91679 0
M  V30 56 H 11.0282 -6.01078 -2.42093 0
M  V30 57 N 4.4343 0.785586 -1.36625 0
M  V30 58 C 5.6803 1.54591 -1.31261 0
M  V30 59 C 6.0133 1.93906 0.106823 0
M  V30 60 O 5.2883 1.63007 1.06108 0
M  V30 61 C 5.5713 2.82038 -2.23889 0
M  V30 62 C 5.4243 2.49066 -3.74548 0
M  V30 63 C 6.7433 3.83887 -2.15217 0
M  V30 64 H 3.8623 0.560846 -0.478143 0
M  V30 65 H 6.5043 0.902278 -1.67209 0
M  V30 66 H 4.6543 3.36961 -1.93363 0
M  V30 67 H 6.3263 2.00164 -4.15611 0
M  V30 68 H 4.5693 1.81954 -3.93796 0
M  V30 69 H 5.2403 3.40109 -4.34776 0
M  V30 70 H 7.7163 3.38421 -2.42096 0
M  V30 71 H 6.5923 4.70806 -2.82193 0
M  V30 72 H 6.8533 4.27131 -1.14068 0
M  V30 73 N 5.9124 1.20967 1.01018 0
M  V30 74 C 6.8444 0.922059 2.09835 0
M  V30 75 C 7.8574 -0.0927106 1.62536 0
M  V30 76 O 9.0464 0.139127 1.77957 0
M  V30 77 C 6.1464 0.362004 3.36961 0
M  V30 78 C 5.3194 1.42986 4.13369 0
M  V30 79 C 4.3784 0.879976 5.1879 0
M  V30 80 O 3.4044 1.56219 5.47343 0
M  V30 81 N 4.6064 -0.307396 5.79686 0
M  V30 82 H 7.3714 1.8588 2.35093 0
M  V30 83 H 4.9324 1.11422 1.1746 0
M  V30 84 H 6.9244 -0.0201474 4.04695 0
M  V30 85 H 5.4944 -0.479437 3.08902 0
M  V30 86 H 4.7144 1.98608 3.40512 0
M  V30 87 H 6.0024 2.14885 4.61196 0
M  V30 88 H 5.4004 -0.878796 5.58832 0
M  V30 89 H 3.9574 -0.631115 6.48737 0
M  V30 90 N 7.3905 -1.2043 1.01659 0
M  V30 91 C 8.6155 -1.94318 0.724942 0
M  V30 92 C 9.0405 -1.74266 -0.708034 0
M  V30 93 O 8.3985 -1.03694 -1.48719 0
M  V30 94 C 8.4465 -3.44486 1.06591 0
M  V30 95 O 7.5505 -4.12017 0.177599 0
M  V30 96 H 6.8915 -0.60708 0.26898 0
M  V30 97 H 9.4215 -1.52861 1.35995 0
M  V30 98 H 9.4315 -3.95106 1.01762 0
M  V30 99 H 8.1065 -3.58404 2.10997 0
M  V30 100 H 6.6835 -3.71821 0.283421 0
M  V30 101 N 8.8686 -0.792821 -1.36206 0
M  V30 102 C 10.1166 -0.366062 -1.98757 0
M  V30 103 C 10.4376 1.0668 -1.63231 0
M  V30 104 O 9.7076 1.73587 -0.907978 0
M  V30 105 H 8.2876 -0.132364 -0.735179 0
M  V30 106 H 10.9496 -1.01562 -1.66347 0
M  V30 107 H 10.0456 -0.460638 -3.08682 0
M  V30 108 N 10.3467 1.47872 -0.545128 0
M  V30 109 C 11.5937 2.02493 -0.0165858 0
M  V30 110 C 11.9217 1.42073 1.32836 0
M  V30 111 O 11.1767 0.561459 1.87473 0
M  V30 112 C 11.4757 3.57131 0.13867 0
M  V30 113 C 11.1417 4.36411 -1.13384 0
M  V30 114 C 9.8037 4.57792 -1.48256 0
M  V30 115 C 12.1557 4.82223 -1.97764 0
M  V30 116 C 9.4837 5.22233 -2.67376 0
M  V30 117 C 11.8357 5.47977 -3.16076 0
M  V30 118 C 10.4997 5.67593 -3.51275 0
M  V30 119 H 9.7697 0.740975 -0.00606918 0
M  V30 120 H 12.4167 1.77683 -0.714207 0
M  V30 121 H 10.7217 3.80865 0.919172 0
M  V30 122 H 12.4187 3.97031 0.562782 0
M  V30 123 H 9.0087 4.2004 -0.852297 0
M  V30 124 H 13.1927 4.65493 -1.72132 0
M  V30 125 H 8.4487 5.35616 -2.94831 0
M  V30 126 H 12.6227 5.8244 -3.81755 0
M  V30 127 H 10.2497 6.17298 -4.43675 0
M  V30 128 N 11.8248 0.280983 1.55075 0
M  V30 129 C 13.2408 -0.0729964 1.59433 0
M  V30 130 C 13.4408 -1.5411 1.29817 0
M  V30 131 O 12.4968 -2.29086 1.06187 0
M  V30 132 C 13.8098 0.306921 2.9913 0
M  V30 133 C 15.3578 0.254023 3.11968 0
M  V30 134 C 15.8328 0.608467 4.5394 0
M  V30 135 N 17.3238 0.560241 4.59799 0
M  V30 136 C 18.0588 0.80722 5.6769 0
M  V30 137 N 17.5548 1.11912 6.83701 0
M  V30 138 N 19.3478 0.735623 5.57266 0
M  V30 139 H 11.4988 1.238 1.7259 0
M  V30 140 H 13.7618 0.500547 0.805082 0
M  V30 141 H 13.4678 1.32816 3.25657 0
M  V30 142 H 13.3418 -0.349363 3.75579 0
M  V30 143 H 15.7288 -0.75794 2.852 0
M  V30 144 H 15.8098 0.944649 2.37718 0
M  V30 145 H 15.4538 1.61814 4.81434 0
M  V30 146 H 15.3838 -0.104013 5.26497 0
M  V30 147 H 17.8748 0.329288 3.76463 0
M  V30 148 H 18.1878 1.29409 7.61888 0
M  V30 149 H 16.5328 1.15695 6.85303 0
M  V30 150 H 19.7238 0.491752 4.6551 0
M  V30 151 H 19.8968 0.931482 6.4127 0
M  V30 152 N 13.3029 -1.57598 0.00835791 0
M  V30 153 C 14.5489 -1.91211 -0.675732 0
M  V30 154 C 14.8819 -0.883139 -1.72958 0
M  V30 155 O 14.1569 0.097016 -1.94258 0
M  V30 156 C 14.4399 -3.35379 -1.31123 0
M  V30 157 C 14.2929 -4.48999 -0.268356 0
M  V30 158 C 15.6119 -3.7912 -2.23508 0
M  V30 159 H 12.7309 -0.695374 -0.244179 0
M  V30 160 H 15.3729 -1.89901 0.0613655 0
M  V30 161 H 13.5229 -3.36626 -1.93946 0
M  V30 162 H 15.1949 -4.59887 0.360844 0
M  V30 163 H 13.4379 -4.31873 0.408482 0
M  V30 164 H 14.1089 -5.46851 -0.752218 0
M  V30 165 H 16.5849 -3.79477 -1.70693 0
M  V30 166 H 15.4609 -4.80729 -2.64936 0
M  V30 167 H 15.7219 -3.13455 -3.11766 0
M  V30 168 N 14.781 0.264519 -1.55364 0
M  V30 169 C 16.192 0.834936 -1.6699 0
M  V30 170 C 16.543 1.86718 -0.602552 0
M  V30 171 O 15.668 2.14899 0.254425 0
M  V30 172 C 16.263 1.5212 -3.02729 0
M  V30 173 C 14.822 2.03954 -3.16354 0
M  V30 174 C 13.969 0.884498 -2.62815 0
M  V30 175 H 16.92 0.0406869 -1.58648 0
M  V30 176 H 16.941 2.38853 -2.96191 0
M  V30 177 H 16.453 0.769668 -3.80392 0
M  V30 178 H 14.554 2.82041 -2.43482 0
M  V30 179 H 14.667 2.24902 -4.23032 0
M  V30 180 H 13.031 1.2802 -2.20188 0
M  V30 181 H 13.814 0.14634 -3.42988 0
M  V30 182 N 16.2591 1.48442 0.529413 0
M  V30 183 C 17.2221 1.62524 1.61612 0
M  V30 184 C 18.2221 0.498509 1.52877 0
M  V30 185 O 19.4121 0.76431 1.56537 0
M  V30 186 C 16.5441 1.59597 3.01233 0
M  V30 187 H 17.7371 2.59423 1.50465 0
M  V30 188 H 15.2901 1.37047 0.751514 0
M  V30 189 H 16.0251 0.641781 3.17886 0
M  V30 190 H 15.8101 2.41397 3.08982 0
M  V30 191 H 17.3001 1.72646 3.80241 0
M  V30 192 N 17.7372 -0.778329 1.37039 0
M  V30 193 C 19.1532 -1.07796 1.17695 0
M  V30 194 C 19.3532 -2.01498 0.00860115 0
M  V30 195 O 18.4092 -2.43901 -0.653352 0
M  V30 196 C 19.7222 -1.68178 2.49272 0
M  V30 197 C 21.2702 -1.80467 2.55735 0
M  V30 198 C 21.7452 -2.44263 3.87427 0
M  V30 199 N 23.2362 -2.51721 3.88833 0
M  V30 200 C 23.9712 -3.01919 4.87476 0
M  V30 201 N 23.4672 -3.5234 5.96513 0
M  V30 202 N 25.2602 -3.00733 4.74885 0
M  V30 203 H 17.4112 -0.156032 2.11826 0
M  V30 204 H 19.6742 -0.131844 0.938787 0
M  V30 205 H 19.3802 -1.06796 3.35093 0
M  V30 206 H 19.2542 -2.67554 2.65885 0
M  V30 207 H 21.6412 -2.40984 1.70325 0
M  V30 208 H 21.7222 -0.798656 2.43013 0
M  V30 209 H 21.3662 -1.84388 4.73248 0
M  V30 210 H 21.2962 -3.45458 3.9745 0
M  V30 211 H 23.7872 -2.1603 3.10063 0
M  V30 212 H 24.1002 -3.89027 6.67741 0
M  V30 213 H 22.4452 -3.50462 6.00168 0
M  V30 214 H 25.6362 -2.60638 3.88826 0
M  V30 215 H 25.8092 -3.39545 5.51918 0
M  V30 216 N 19.2153 -1.21501 -1.00376 0
M  V30 217 C 20.4613 -1.03452 -1.74429 0
M  V30 218 C 20.7943 0.430764 -1.89362 0
M  V30 219 O 20.0693 1.31962 -1.42886 0
M  V30 220 C 20.3523 -1.73375 -3.15615 0
M  V30 221 C 20.2053 -3.27431 -3.08397 0
M  V30 222 C 21.5243 -1.47732 -4.14564 0
M  V30 223 H 18.6433 -0.377226 -0.633143 0
M  V30 224 H 21.2853 -1.49693 -1.17013 0
M  V30 225 H 19.4353 -1.34064 -3.64636 0
M  V30 226 H 21.1073 -3.76119 -2.67081 0
M  V30 227 H 19.3503 -3.5767 -2.45468 0
M  V30 228 H 20.0213 -3.71524 -4.08258 0
M  V30 229 H 22.4973 -1.8186 -3.74254 0
M  V30 230 H 21.3733 -1.99169 -5.11491 0
M  V30 231 H 21.6343 -0.407589 -4.40217 0
M  V30 232 N 20.6934 1.19889 -1.02296 0
M  V30 233 C 21.6234 2.25141 -0.619174 0
M  V30 234 C 22.6044 1.66051 0.368915 0
M  V30 235 O 23.7894 1.92546 0.252941 0
M  V30 236 C 20.9194 3.4728 0.0368783 0
M  V30 237 C 19.8734 4.19005 -0.872865 0
M  V30 238 C 19.1994 5.34637 -0.0822402 0
M  V30 239 C 20.4994 4.74452 -2.18387 0
M  V30 240 H 22.1934 2.59171 -1.49903 0
M  V30 241 H 19.7394 1.24579 -0.722222 0
M  V30 242 H 21.6924 4.20098 0.330958 0
M  V30 243 H 20.4164 3.12433 0.95149 0
M  V30 244 H 19.0754 3.48061 -1.15105 0
M  V30 245 H 18.7234 4.96034 0.83422 0
M  V30 246 H 18.4234 5.83557 -0.688149 0
M  V30 247 H 19.9474 6.10255 0.205238 0
M  V30 248 H 21.3614 5.39055 -1.95172 0
M  V30 249 H 19.7584 5.33834 -2.74119 0
M  V30 250 H 20.8284 3.92844 -2.84257 0
M  V30 251 N 22.1715 0.800033 1.35784 0
M  V30 252 C 23.1195 0.193851 2.31791 0
M  V30 253 C 24.1135 -0.652744 1.56319 0
M  V30 254 O 25.3195 -0.546641 1.71499 0
M  V30 255 H 21.6945 0.04392 0.750716 0
M  V30 256 H 23.6655 1.01883 2.80468 0
M  V30 257 C 22.4145 -0.648338 3.41602 0
M  V30 258 H 21.7375 -0.00624665 3.998 0
M  V30 259 H 23.1775 -1.03898 4.11073 0
M  V30 260 C 21.6365 -1.8111 2.84079 0
M  V30 261 O 22.1665 -2.90825 2.77099 0
M  V30 262 N 20.3725 -1.62056 2.41218 0
M  V30 263 H 19.9195 -0.728123 2.47095 0
M  V30 264 H 19.8775 -2.40013 2.03079 0
M  V30 265 N 23.6496 -1.47581 0.552962 0
M  V30 266 C 24.8746 -2.07378 0.0300593 0
M  V30 267 C 25.2996 -1.40355 -1.25229 0
M  V30 268 O 24.6576 -0.477099 -1.7491 0
M  V30 269 C 24.7056 -3.60274 -0.153231 0
M  V30 270 O 23.8096 -3.94041 -1.21678 0
M  V30 271 H 23.1506 -0.662158 0.0494182 0
M  V30 272 H 25.6806 -1.89662 0.767434 0
M  V30 273 H 25.6906 -4.0633 -0.368761 0
M  V30 274 H 24.3656 -4.08455 0.783397 0
M  V30 275 H 22.9426 -3.59735 -0.982079 0
M  V30 276 N 25.1277 -0.289203 -1.54924 0
M  V30 277 C 26.0577 0.58549 -2.2604 0
M  V30 278 C 27.0387 1.14753 -1.25562 0
M  V30 279 O 28.2237 1.17906 -1.54311 0
M  V30 280 C 25.3537 1.76305 -2.99222 0
M  V30 281 C 24.3077 1.33191 -4.06748 0
M  V30 282 C 23.6337 2.5937 -4.6758 0
M  V30 283 C 24.9337 0.471775 -5.20165 0
M  V30 284 H 26.6277 -0.00763532 -2.99399 0
M  V30 285 H 24.1737 -0.00511229 -1.43999 0
M  V30 286 H 26.1267 2.38097 -3.47689 0
M  V30 287 H 24.8507 2.38223 -2.23422 0
M  V30 288 H 23.5097 0.737121 -3.59113 0
M  V30 289 H 23.1577 3.19576 -3.88433 0
M  V30 290 H 22.8577 2.31228 -5.40192 0
M  V30 291 H 24.3817 3.21985 -5.18804 0
M  V30 292 H 25.7957 0.995056 -5.64599 0
M  V30 293 H 24.1927 0.284639 -5.99425 0
M  V30 294 H 25.2627 -0.506041 -4.82252 0
M  V30 295 N 26.6058 1.57591 -0.0167156 0
M  V30 296 C 27.5688 2.08393 0.954204 0
M  V30 297 C 28.5688 0.996531 1.26198 0
M  V30 298 O 29.7588 1.25858 1.20438 0
M  V30 299 C 26.8908 2.5394 2.27436 0
M  V30 300 H 28.0838 2.95455 0.514451 0
M  V30 301 H 25.6368 1.54582 0.231089 0
M  V30 302 H 26.3718 1.70171 2.76066 0
M  V30 303 H 26.1568 3.33371 2.06412 0
M  V30 304 H 27.6468 2.93512 2.97053 0
M  V30 305 N 28.0839 -0.256276 1.55502 0
M  V30 306 C 29.0339 -1.31981 1.85916 0
M  V30 307 C 30.0179 -1.43927 0.719296 0
M  V30 308 O 31.2099 -1.47326 0.981019 0
M  V30 309 C 28.3389 -2.67703 2.14918 0
M  V30 310 C 27.4249 -2.59801 3.35208 0
M  V30 311 N 27.8159 -2.21524 4.54709 0
M  V30 312 C 26.1139 -2.90832 3.38131 0
M  V30 313 C 26.8149 -2.24024 5.36832 0
M  V30 314 N 25.7909 -2.63158 4.75656 0
M  V30 315 H 29.5929 -1.01423 2.75845 0
M  V30 316 H 27.1069 -0.464911 1.55603 0
M  V30 317 H 29.1039 -3.44445 2.34869 0
M  V30 318 H 27.7639 -2.99137 1.26282 0
M  V30 319 H 28.7749 -1.93223 4.80505 0
M  V30 320 H 25.4519 -3.26867 2.59739 0
M  V30 321 H 26.8419 -1.9685 6.42417 0
M  V30 322 N 29.562 -1.4872 -0.521534 0
M  V30 323 C 30.492 -1.66771 -1.63431 0
M  V30 324 C 31.473 -0.516499 -1.62069 0
M  V30 325 O 32.658 -0.750013 -1.79132 0
M  V30 326 C 29.788 -1.71515 -3.01993 0
M  V30 327 C 28.742 -2.86222 -3.18216 0
M  V30 328 C 28.068 -2.76061 -4.57924 0
M  V30 329 C 29.368 -4.27419 -3.00184 0
M  V30 330 H 31.062 -2.59932 -1.48579 0
M  V30 331 H 28.608 -1.25089 -0.713358 0
M  V30 332 H 30.561 -1.82731 -3.7972 0
M  V30 333 H 29.285 -0.749393 -3.17886 0
M  V30 334 H 27.944 -2.74575 -2.42908 0
M  V30 335 H 27.592 -1.77437 -4.70665 0
M  V30 336 H 27.292 -3.53037 -4.69722 0
M  V30 337 H 28.816 -2.89256 -5.37739 0
M  V30 338 H 30.23 -4.39855 -3.67697 0
M  V30 339 H 28.627 -5.05458 -3.2347 0
M  V30 340 H 29.697 -4.43293 -1.96518 0
M  V30 341 N 31.0401 0.771051 -1.3745 0
M  V30 342 C 31.9721 1.89352 -1.29146 0
M  V30 343 C 32.9851 1.61477 -0.207124 0
M  V30 344 O 34.1741 1.72382 -0.463324 0
M  V30 345 C 31.2741 3.24596 -0.974195 0
M  V30 346 C 30.4471 3.80111 -2.16413 0
M  V30 347 C 29.5061 4.93832 -1.81703 0
M  V30 348 O 28.5321 5.09382 -2.54006 0
M  V30 349 N 29.7341 5.75483 -0.761573 0
M  V30 350 H 32.4991 1.96991 -2.25864 0
M  V30 351 H 30.0601 0.950191 -1.31084 0
M  V30 352 H 32.0521 3.98193 -0.722828 0
M  V30 353 H 30.6221 3.12454 -0.0955527 0
M  V30 354 H 29.8421 2.98284 -2.57721 0
M  V30 355 H 31.1301 4.13932 -2.95867 0
M  V30 356 H 30.5281 5.65469 -0.161609 0
M  V30 357 H 29.0851 6.49302 -0.570064 0
M  V30 358 N 32.5182 1.22032 0.997298 0
M  V30 359 C 33.7952 0.950823 1.70935 0
M  V30 360 C 34.1752 -0.535292 2.042 0
M  V30 361 O 33.5232 -1.50217 1.72183 0
M  V30 362 C 33.7332 1.84386 2.96315 0
M  V30 363 C 35.0812 2.09732 3.69185 0
M  V30 364 O 36.1052 1.81798 3.06314 0
M  V30 365 O 34.9642 2.57018 4.82291 0
M  V30 366 H 32.0582 0.357204 0.745878 0
M  V30 367 H 34.6042 1.32997 1.05404 0
M  V30 368 H 33.3762 2.84928 2.68201 0
M  V30 369 H 32.9992 1.46602 3.69586 0
M  V30 370 N 33.9963 -1.19345 1.0293 0
M  V30 371 C 35.2443 -1.88665 0.724574 0
M  V30 372 C 35.5653 -1.80036 -0.749144 0
M  V30 373 O 34.8353 -1.2111 -1.53978 0
M  V30 374 H 33.4153 -0.698406 0.265025 0
M  V30 375 H 36.0773 -1.44885 1.30362 0
M  V30 376 H 35.1733 -2.94987 1.01926 0
M  V30 377 N 35.4744 -0.807222 -1.35358 0
M  V30 378 C 36.4044 -0.232509 -2.3234 0
M  V30 379 C 37.3854 0.642386 -1.57504 0
M  V30 380 O 38.5704 0.572526 -1.85569 0
M  V30 381 C 35.7004 0.619238 -3.41735 0
M  V30 382 C 34.6544 -0.157215 -4.27711 0
M  V30 383 C 33.9804 0.816273 -5.28433 0
M  V30 384 C 35.2804 -1.35656 -5.04376 0
M  V30 385 H 36.9744 -1.04276 -2.80654 0
M  V30 386 H 34.5204 -0.50288 -1.34934 0
M  V30 387 H 36.4734 1.03137 -4.08584 0
M  V30 388 H 35.1974 1.46239 -2.92031 0
M  V30 389 H 33.8564 -0.550525 -3.62443 0
M  V30 390 H 33.5044 1.65494 -4.74996 0
M  V30 391 H 33.2044 0.301067 -5.86828 0
M  V30 392 H 34.7284 1.22659 -5.98153 0
M  V30 393 H 36.1424 -1.01927 -5.64166 0
M  V30 394 H 34.5394 -1.8063 -5.7227 0
M  V30 395 H 35.6094 -2.14288 -4.34981 0
M  V30 396 N 36.9525 1.47285 -0.560781 0
M  V30 397 C 37.9005 2.31756 0.197942 0
M  V30 398 C 38.8945 1.43146 0.905854 0
M  V30 399 O 40.1005 1.59891 0.826733 0
M  V30 400 H 36.4755 0.747438 0.0827049 0
M  V30 401 H 38.4465 2.9359 -0.533629 0
M  V30 402 C 37.1955 3.25874 1.21249 0
M  V30 403 H 36.5185 3.94023 0.67719 0
M  V30 404 H 37.9585 3.87803 1.71419 0
M  V30 405 C 36.4175 2.49651 2.26221 0
M  V30 406 O 36.9475 2.24355 3.33208 0
M  V30 407 N 35.1535 2.10597 2.00243 0
M  V30 408 H 34.7005 2.31369 1.13252 0
M  V30 409 H 34.6585 1.59913 2.70694 0
M  V30 410 N 38.4306 0.297415 1.54768 0
M  V30 411 C 39.6796 -0.313669 1.99246 0
M  V30 412 C 39.9926 -1.55281 1.18942 0
M  V30 413 O 41.1986 -2.23825 1.5367 0
M  V30 414 C 39.6546 -0.609407 3.54703 0
M  V30 415 C 39.2626 0.611192 4.43811 0
M  V30 416 C 41.0066 -1.18188 4.07715 0
M  V30 417 C 38.9136 0.288805 5.90694 0
M  V30 418 H 37.8436 -0.120979 0.744231 0
M  V30 419 H 40.4946 0.40556 1.78962 0
M  V30 420 H 38.8766 -1.38813 3.70873 0
M  V30 421 H 40.0506 1.3875 4.39414 0
M  V30 422 H 38.3656 1.10205 4.01552 0
M  V30 423 H 40.9626 -1.43727 5.15021 0
M  V30 424 H 41.3056 -2.12299 3.58099 0
M  V30 425 H 41.8386 -0.464944 3.95074 0
M  V30 426 H 38.5776 1.19838 6.44453 0
M  V30 427 H 38.0976 -0.450305 5.98107 0
M  V30 428 H 39.7766 -0.110933 6.46905 0
M  V30 429 N 39.9087 -1.5758 0.0250728 0
M  V30 430 C 41.1557 -1.91633 -0.654444 0
M  V30 431 C 41.4837 -0.901103 -1.72367 0
M  V30 432 O 40.7387 0.0905647 -1.9549 0
M  V30 433 C 41.0377 -3.32421 -1.31268 0
M  V30 434 C 40.7037 -4.49344 -0.374223 0
M  V30 435 C 39.3657 -4.8106 -0.115911 0
M  V30 436 C 41.7177 -5.20498 0.270432 0
M  V30 437 C 39.0457 -5.8129 0.79493 0
M  V30 438 C 41.3977 -6.21699 1.1693 0
M  V30 439 C 40.0617 -6.51859 1.43655 0
M  V30 440 H 39.3317 -0.701236 -0.239478 0
M  V30 441 H 41.9787 -1.91307 0.0859734 0
M  V30 442 H 40.2837 -3.28989 -2.12775 0
M  V30 443 H 41.9807 -3.56038 -1.84494 0
M  V30 444 H 38.5707 -4.24579 -0.58573 0
M  V30 445 H 42.7547 -4.96229 0.0839194 0
M  V30 446 H 38.0107 -6.03005 1.00973 0
M  V30 447 H 42.1847 -6.75955 1.67504 0
M  V30 448 H 39.8117 -7.2934 2.144 0
M  V30 449 N 41.3868 0.248026 -1.55636 0
M  V30 450 C 42.3198 1.3334 -1.85191 0
M  V30 451 C 43.2978 1.46429 -0.706906 0
M  V30 452 O 44.4818 1.62662 -0.952544 0
M  V30 453 C 41.6088 2.70703 -2.03562 0
M  V30 454 C 40.6548 2.7477 -3.26196 0
M  V30 455 S 41.4878 2.31493 -4.82878 0
M  V30 456 C 42.6438 3.70783 -5.04253 0
M  V30 457 H 42.8768 1.08072 -2.76962 0
M  V30 458 H 40.4098 0.448952 -1.47729 0
M  V30 459 H 42.3678 3.49798 -2.1483 0
M  V30 460 H 41.0288 2.9321 -1.12635 0
M  V30 461 H 40.2218 3.75648 -3.36013 0
M  V30 462 H 39.8238 2.03719 -3.13647 0
M  V30 463 H 42.1158 4.6627 -4.91527 0
M  V30 464 H 43.0588 3.65901 -6.06236 0
M  V30 465 H 43.4668 3.63244 -4.32105 0
M  V30 466 N 42.8649 1.48995 0.513639 0
M  V30 467 C 44.1419 1.48338 1.27495 0
M  V30 468 C 44.5219 0.204065 2.10111 0
M  V30 469 O 43.8699 -0.813881 2.13514 0
M  V30 470 C 44.0799 2.75498 2.14247 0
M  V30 471 C 45.4279 3.24484 2.73852 0
M  V30 472 O 46.4519 2.76528 2.24523 0
M  V30 473 O 45.3109 4.07974 3.6362 0
M  V30 474 H 42.4049 0.593149 0.576284 0
M  V30 475 H 44.9509 1.61246 0.528948 0
M  V30 476 H 43.7229 3.60109 1.53092 0
M  V30 477 H 43.3459 2.6539 2.96064 0
M  V30 478 N 44.343 -0.763751 1.37857 0
M  V30 479 C 45.754 -1.3405 1.29952 0
M  V30 480 C 46.105 -1.96138 -0.0492898 0
M  V30 481 O 45.23 -1.94372 -0.951239 0
M  V30 482 C 45.825 -2.43729 2.35333 0
M  V30 483 C 44.384 -2.97151 2.31037 0
M  V30 484 C 43.531 -1.70438 2.18738 0
M  V30 485 H 46.482 -0.563396 1.48363 0
M  V30 486 H 46.503 -3.23412 2.00462 0
M  V30 487 H 46.015 -1.9851 3.33489 0
M  V30 488 H 44.116 -3.46724 1.3643 0
M  V30 489 H 44.229 -3.52221 3.24772 0
M  V30 490 H 42.593 -1.93673 1.65418 0
M  V30 491 H 43.376 -1.27312 3.18821 0
M  V30 492 N 45.8211 -1.22559 -0.990812 0
M  V30 493 C 47.0981 -0.959875 -1.70428 0
M  V30 494 C 47.4781 0.524455 -2.04481 0
M  V30 495 O 46.8261 1.49302 -1.72977 0
M  V30 496 C 47.0361 -1.85955 -2.95333 0
M  V30 497 C 48.3841 -2.11687 -3.68068 0
M  V30 498 O 49.4081 -1.8342 -3.05345 0
M  V30 499 O 48.2671 -2.59572 -4.80921 0
M  V30 500 H 45.3611 -0.361154 -0.743974 0
M  V30 501 H 47.9071 -1.33554 -1.04697 0
M  V30 502 H 46.6791 -2.86346 -2.66687 0
M  V30 503 H 46.3021 -1.4856 -3.68803 0
M  V30 504 N 47.2992 1.18797 -1.03562 0
M  V30 505 C 48.5452 1.89192 -0.746867 0
M  V30 506 C 48.9002 1.78531 0.717245 0
M  V30 507 O 48.1932 1.17137 1.51622 0
M  V30 508 C 48.3872 3.38692 -1.14117 0
M  V30 509 C 48.2162 3.63902 -2.64207 0
M  V30 510 C 46.9862 3.81553 -3.31279 0
M  V30 511 C 49.1842 3.64903 -3.62423 0
M  V30 512 N 47.1662 3.94455 -4.70402 0
M  V30 513 C 48.5372 3.83458 -4.87196 0
M  V30 514 C 50.5922 3.47965 -3.56125 0
M  V30 515 C 49.2952 3.86829 -6.06429 0
M  V30 516 C 51.3212 3.52616 -4.7478 0
M  V30 517 C 50.6832 3.71663 -5.9837 0
M  V30 518 H 46.7822 0.711141 -0.325273 0
M  V30 519 H 49.3662 1.42727 -1.32428 0
M  V30 520 H 47.5372 3.83864 -0.591889 0
M  V30 521 H 49.2692 3.96634 -0.803966 0
M  V30 522 H 46.0242 3.80723 -2.81686 0
M  V30 523 H 46.4482 4.0474 -5.42692 0
M  V30 524 H 51.0902 3.32189 -2.61553 0
M  V30 525 H 48.8082 4.01395 -7.01362 0
M  V30 526 H 52.3942 3.40791 -4.71543 0
M  V30 527 H 51.2742 3.75145 -6.88648 0
M  V30 528 N 48.7773 0.814389 1.34928 0
M  V30 529 C 50.1933 0.499084 1.51596 0
M  V30 530 C 50.3933 -0.978319 1.76157 0
M  V30 531 O 49.4493 -1.76309 1.80752 0
M  V30 532 C 50.7623 1.35121 2.68631 0
M  V30 533 C 52.3103 1.34746 2.82511 0
M  V30 534 C 52.7853 2.18388 4.0258 0
M  V30 535 N 54.2763 2.15966 4.09772 0
M  V30 536 C 55.0113 2.77437 5.01813 0
M  V30 537 N 54.5073 3.47866 5.99134 0
M  V30 538 N 56.3003 2.67037 4.94619 0
M  V30 539 H 48.4513 1.7711 1.17243 0
M  V30 540 H 50.7143 0.754256 0.574284 0
M  V30 541 H 50.4203 2.40001 2.57085 0
M  V30 542 H 50.2943 1.00991 3.63429 0
M  V30 543 H 52.6813 0.30648 2.93504 0
M  V30 544 H 52.7623 1.72869 1.88547 0
M  V30 545 H 52.4063 3.2253 3.92347 0
M  V30 546 H 52.3363 1.77621 4.9574 0
M  V30 547 H 54.8273 1.64729 3.40107 0
M  V30 548 H 55.1403 3.92038 6.65977 0
M  V30 549 H 53.4853 3.51972 5.99284 0
M  V30 550 H 56.6763 2.11597 4.17546 0
M  V30 551 H 56.8493 3.15232 5.66156 0
M  V30 552 N 50.2554 -1.46986 0.568584 0
M  V30 553 C 51.1874 -2.28233 -0.210337 0
M  V30 554 C 52.2004 -1.37682 -0.868767 0
M  V30 555 O 53.3894 -1.62406 -0.740705 0
M  V30 556 C 50.4894 -3.12293 -1.3163 0
M  V30 557 C 49.6624 -4.30878 -0.7525 0
M  V30 558 C 48.7214 -4.96445 -1.74439 0
M  V30 559 O 47.7474 -5.54482 -1.286 0
M  V30 560 N 48.9494 -4.92171 -3.07812 0
M  V30 561 H 51.7144 -2.95723 0.486648 0
M  V30 562 H 49.2754 -1.56742 0.405409 0
M  V30 563 H 51.2674 -3.53022 -1.97883 0
M  V30 564 H 49.8374 -2.46971 -1.91636 0
M  V30 565 H 49.0574 -3.94104 0.0871128 0
M  V30 566 H 50.3454 -5.07558 -0.35536 0
M  V30 567 H 49.7434 -4.46239 -3.47688 0
M  V30 568 H 48.3004 -5.36884 -3.69592 0
M  V30 569 N 51.7335 -0.305618 -1.54608 0
M  V30 570 C 52.9825 0.303098 -1.9941 0
M  V30 571 C 53.2955 1.54648 -1.19764 0
M  V30 572 O 54.5015 2.23007 -1.54855 0
M  V30 573 C 52.9575 0.590588 -3.55021 0
M  V30 574 C 52.5655 -0.634719 -4.43481 0
M  V30 575 C 54.3095 1.16025 -4.08336 0
M  V30 576 C 52.2165 -0.320126 -5.90533 0
M  V30 577 H 51.1465 0.117031 -0.744862 0
M  V30 578 H 53.7975 -0.415045 -1.78745 0
M  V30 579 H 52.1795 1.36845 -3.71604 0
M  V30 580 H 53.3535 -1.41079 -4.38672 0
M  V30 581 H 51.6685 -1.12333 -4.00962 0
M  V30 582 H 54.2655 1.40994 -5.15776 0
M  V30 583 H 54.6085 2.10397 -3.5922 0
M  V30 584 H 55.1415 0.443985 -3.95315 0
M  V30 585 H 51.8805 -1.23254 -6.43808 0
M  V30 586 H 51.4005 0.418579 -5.98338 0
M  V30 587 H 53.0795 0.0766241 -6.46955 0
M  V30 588 N 53.2116 1.57565 -0.0334293 0
M  V30 589 C 54.6276 1.56297 0.322997 0
M  V30 590 C 54.8276 1.03945 1.7262 0
M  V30 591 O 53.8836 0.688109 2.42943 0
M  V30 592 C 55.1966 3.00232 0.167664 0
M  V30 593 C 56.7446 3.12078 0.240107 0
M  V30 594 C 57.2196 4.57859 0.113513 0
M  V30 595 N 58.7106 4.62887 0.170359 0
M  V30 596 C 59.4456 5.73319 0.0962517 0
M  V30 597 N 58.9416 6.92794 -0.0291881 0
M  V30 598 N 60.7346 5.61898 0.150551 0
M  V30 599 H 52.8856 1.89923 -0.950956 0
M  V30 600 H 55.1486 0.873824 -0.367608 0
M  V30 601 H 54.8546 3.42501 -0.799102 0
M  V30 602 H 54.7286 3.654 0.936083 0
M  V30 603 H 57.1156 2.69718 1.19733 0
M  V30 604 H 57.1966 2.49623 -0.558763 0
M  V30 605 H 56.8406 5.009 -0.840314 0
M  V30 606 H 56.7706 5.18299 0.931302 0
M  V30 607 H 59.2616 3.76954 0.26728 0
M  V30 608 H 59.5746 7.7276 -0.0789252 0
M  V30 609 H 57.9196 6.94971 -0.0640299 0
M  V30 610 H 61.1106 4.67448 0.246981 0
M  V30 611 H 61.2836 6.47938 0.0893365 0
M  V30 612 N 54.6897 -0.239769 1.55765 0
M  V30 613 C 55.6397 -1.30002 1.87306 0
M  V30 614 C 56.6237 -1.43156 0.73452 0
M  V30 615 O 57.8157 -1.46277 0.99659 0
M  V30 616 C 54.9447 -2.65409 2.17745 0
M  V30 617 C 54.0307 -2.56231 3.37945 0
M  V30 618 N 54.4217 -2.16689 4.57033 0
M  V30 619 C 52.7197 -2.87229 3.41197 0
M  V30 620 C 53.4207 -2.18318 5.39177 0
M  V30 621 N 52.3967 -2.58098 4.78421 0
M  V30 622 H 56.1987 -0.984912 2.76906 0
M  V30 623 H 53.7127 -0.448381 1.56087 0
M  V30 624 H 55.7097 -3.41934 2.38509 0
M  V30 625 H 54.3697 -2.97781 1.29448 0
M  V30 626 H 55.3807 -1.88116 4.82528 0
M  V30 627 H 52.0577 -3.24094 2.63191 0
M  V30 628 H 53.4477 -1.90025 6.44469 0
M  V30 629 N 56.1678 -1.49265 -0.50573 0
M  V30 630 C 57.4138 -1.58748 -1.26202 0
M  V30 631 C 57.7468 -0.271227 -1.92297 0
M  V30 632 O 57.0218 0.724831 -1.80489 0
M  V30 633 C 57.3048 -2.74332 -2.33268 0
M  V30 634 C 57.1578 -4.15737 -1.71705 0
M  V30 635 C 58.4768 -2.85576 -3.34865 0
M  V30 636 H 55.5958 -0.577826 -0.457478 0
M  V30 637 H 58.2378 -1.81532 -0.560897 0
M  V30 638 H 56.3878 -2.55036 -2.93068 0
M  V30 639 H 58.0598 -4.46537 -1.15769 0
M  V30 640 H 56.3028 -4.21605 -1.02135 0
M  V30 641 H 56.9738 -4.92477 -2.49341 0
M  V30 642 H 59.4498 -3.03127 -2.8505 0
M  V30 643 H 58.3258 -3.68135 -4.07146 0
M  V30 644 H 58.5868 -1.94732 -3.96903 0
M  V30 645 N 57.6459 0.756429 -1.3826 0
M  V30 646 C 58.9229 1.50584 -1.24835 0
M  V30 647 C 59.3029 2.10556 0.151485 0
M  V30 648 O 58.6509 1.96825 1.1607 0
M  V30 649 C 58.8609 2.57448 -2.3563 0
M  V30 650 C 60.2089 3.24429 -2.73917 0
M  V30 651 O 61.2329 2.67751 -2.34921 0
M  V30 652 O 60.0919 4.26937 -3.41156 0
M  V30 653 H 57.1859 0.667664 -0.48801 0
M  V30 654 H 59.7319 0.792083 -1.5008 0
M  V30 655 H 58.5039 2.11362 -3.29305 0
M  V30 656 H 58.1269 3.36408 -2.11933 0
M  V30 657 N 59.124 1.23083 0.984299 0
M  V30 658 C 60.401 0.9689 1.69917 0
M  V30 659 C 60.781 -0.513604 2.04757 0
M  V30 660 O 60.129 -1.48383 1.73767 0
M  V30 661 C 60.339 1.87518 2.94343 0
M  V30 662 C 61.687 2.13636 3.6694 0
M  V30 663 O 62.711 1.85036 3.04368 0
M  V30 664 O 61.57 2.62119 4.79537 0
M  V30 665 H 58.664 0.365095 0.742048 0
M  V30 666 H 61.21 1.34107 1.03987 0
M  V30 667 H 59.982 2.87756 2.65164 0
M  V30 668 H 59.605 1.50514 3.6801 0
M  V30 669 N 60.6021 -1.18246 1.0419 0
M  V30 670 C 61.8481 -1.88793 0.75689 0
M  V30 671 C 62.2031 -1.78909 -0.707767 0
M  V30 672 O 61.4961 -1.1794 -1.50999 0
M  V30 673 C 61.6901 -3.38082 1.15911 0
M  V30 674 C 61.5191 -3.62496 2.66133 0
M  V30 675 C 60.2891 -3.7979 3.33298 0
M  V30 676 C 62.4871 -3.62976 3.64353 0
M  V30 677 N 60.4691 -3.91955 4.72487 0
M  V30 678 C 61.8401 -3.80869 4.89222 0
M  V30 679 C 63.8951 -3.46071 3.57965 0
M  V30 680 C 62.5981 -3.83608 6.08471 0
M  V30 681 C 64.6241 -3.50093 4.76643 0
M  V30 682 C 63.9861 -3.68484 6.00332 0
M  V30 683 H 60.0851 -0.709406 0.32904 0
M  V30 684 H 62.6691 -1.42022 1.33183 0
M  V30 685 H 60.8401 -3.83544 0.612238 0
M  V30 686 H 62.5721 -3.96202 0.824989 0
M  V30 687 H 59.3271 -3.79224 2.83701 0
M  V30 688 H 59.7511 -4.01857 5.44831 0
M  V30 689 H 64.3931 -3.30797 2.63311 0
M  V30 690 H 62.1111 -3.97669 7.0348 0
M  V30 691 H 65.6971 -3.38285 4.73344 0
M  V30 692 H 64.5771 -3.71488 6.90627 0
M  V30 693 N 62.0802 -0.821533 -1.34494 0
M  V30 694 C 63.0432 -0.247847 -2.27856 0
M  V30 695 C 64.0432 0.573453 -1.50227 0
M  V30 696 O 65.2332 0.389759 -1.69784 0
M  V30 697 C 62.3652 0.652698 -3.34593 0
M  V30 698 H 63.5582 -1.07146 -2.80107 0
M  V30 699 H 61.1112 -0.593291 -1.44602 0
M  V30 700 H 61.8462 1.49943 -2.87555 0
M  V30 701 H 61.6312 0.065292 -3.92046 0
M  V30 702 H 63.1212 1.04793 -4.04238 0
M  V30 703 N 63.5583 1.46682 -0.576371 0
M  V30 704 C 64.4883 2.33028 0.148397 0
M  V30 705 C 65.4693 1.44961 0.889956 0
M  V30 706 O 66.6543 1.73789 0.866662 0
M  V30 707 C 63.7843 3.27117 1.1667 0
M  V30 708 C 62.7383 4.24575 0.540386 0
M  V30 709 C 62.0643 5.08126 1.6647 0
M  V30 710 C 63.3643 5.19722 -0.518331 0
M  V30 711 H 65.0583 2.93875 -0.572509 0
M  V30 712 H 62.6043 1.41315 -0.276768 0
M  V30 713 H 64.5573 3.86374 1.68204 0
M  V30 714 H 63.2813 2.64364 1.9178 0
M  V30 715 H 61.9403 3.66571 0.0461769 0
M  V30 716 H 61.5883 4.41762 2.40531 0
M  V30 717 H 61.2883 5.74122 1.25131 0
M  V30 718 H 62.8123 5.70246 2.18293 0
M  V30 719 H 64.2263 5.73232 -0.0883058 0
M  V30 720 H 62.6233 5.94026 -0.851679 0
M  V30 721 H 63.6933 4.64037 -1.40703 0
M  V30 722 N 65.0364 0.313813 1.54444 0
M  V30 723 C 65.9994 -0.54379 2.22656 0
M  V30 724 C 66.9994 -1.05124 1.21678 0
M  V30 725 O 68.1894 -0.945225 1.46325 0
M  V30 726 C 65.3214 -1.75427 2.92298 0
M  V30 727 H 66.5144 0.0523599 2.99854 0
M  V30 728 H 64.0674 0.0647834 1.56166 0
M  V30 729 H 64.8024 -2.38991 2.19211 0
M  V30 730 H 64.5874 -1.39791 3.66334 0
M  V30 731 H 66.0774 -2.36325 3.44297 0
M  V30 732 N 66.5145 -1.57545 0.0417849 0
M  V30 733 C 67.7635 -1.91494 -0.633492 0
M  V30 734 C 68.0765 -0.921084 -1.72556 0
M  V30 735 O 69.2825 -1.15228 -2.45835 0
M  V30 736 C 67.7385 -3.40072 -1.17808 0
M  V30 737 C 67.3465 -4.47843 -0.118633 0
M  V30 738 C 69.0905 -3.8307 -1.82915 0
M  V30 739 C 66.9975 -5.87529 -0.675578 0
M  V30 740 H 65.9275 -0.714653 -0.24039 0
M  V30 741 H 68.5785 -1.83175 0.109148 0
M  V30 742 H 66.9605 -3.43364 -1.97274 0
M  V30 743 H 68.1345 -4.56128 0.654494 0
M  V30 744 H 66.4495 -4.14128 0.434414 0
M  V30 745 H 69.0465 -4.84794 -2.25563 0
M  V30 746 H 69.3895 -3.1881 -2.67705 0
M  V30 747 H 69.9225 -3.82255 -1.10119 0
M  V30 748 H 66.6615 -6.55362 0.134475 0
M  V30 749 H 66.1815 -5.82824 -1.4169 0
M  V30 750 H 67.8605 -6.36491 -1.1614 0
M  V30 751 N 67.9926 0.231505 -1.5589 0
M  V30 752 C 69.2206 0.974505 -1.82513 0
M  V30 753 C 69.6356 1.78344 -0.619591 0
M  V30 754 O 68.9926 1.77792 0.411848 0
M  V30 755 C 69.0436 1.90007 -3.07538 0
M  V30 756 O 68.7646 1.12385 -4.2344 0
M  V30 757 C 70.2656 2.75779 -3.47075 0
M  V30 758 H 67.4856 0.286065 -0.606966 0
M  V30 759 H 70.0296 0.249739 -2.02969 0
M  V30 760 H 68.1846 2.57891 -2.89086 0
M  V30 761 H 68.5986 1.75125 -4.944 0
M  V30 762 H 70.0726 3.36443 -4.37619 0
M  V30 763 H 70.5496 3.47672 -2.68367 0
M  V30 764 H 71.1556 2.13323 -3.67931 0
M  V30 765 N 69.4707 1.49531 0.497807 0
M  V30 766 C 70.4037 1.61043 1.6168 0
M  V30 767 C 71.3817 0.459386 1.55976 0
M  V30 768 O 72.5657 0.675358 1.75986 0
M  V30 769 C 69.6927 1.56833 3.00202 0
M  V30 770 C 68.7387 2.77173 3.24156 0
M  V30 771 S 69.5717 4.38808 3.06933 0
M  V30 772 C 70.7277 4.37248 4.47845 0
M  V30 773 H 70.9607 2.55702 1.51671 0
M  V30 774 H 68.4937 1.38462 0.683201 0
M  V30 775 H 70.4517 1.55089 3.80076 0
M  V30 776 H 69.1127 0.634561 3.07623 0
M  V30 777 H 68.3057 2.70456 4.25288 0
M  V30 778 H 67.9077 2.76346 2.5201 0
M  V30 779 H 70.1997 4.09164 5.39992 0
M  V30 780 H 71.1427 5.38668 4.59612 0
M  V30 781 H 71.5507 3.67286 4.28674 0
M  V30 782 N 70.9488 -0.749086 1.3866 0
M  V30 783 C 71.8588 -1.89358 1.38494 0
M  V30 784 C 72.8748 -1.71708 0.281476 0
M  V30 785 O 74.0508 -1.94554 0.520643 0
M  V30 786 C 71.1158 -3.24782 1.21316 0
M  V30 787 C 70.1768 -3.54926 2.41508 0
M  V30 788 C 69.4098 -4.83888 2.2514 0
M  V30 789 O 69.6328 -5.56592 1.24746 0
M  V30 790 O 68.5668 -5.13612 3.13826 0
M  V30 791 H 72.3928 -1.92452 2.34938 0
M  V30 792 H 69.9778 -0.894981 1.19626 0
M  V30 793 H 71.8598 -4.05739 1.13814 0
M  V30 794 H 70.5348 -3.2249 0.279592 0
M  V30 795 H 69.4418 -2.74112 2.54585 0
M  V30 796 H 70.7748 -3.61983 3.3351 0
M  V30 797 N 72.4269 -1.23603 -0.977757 0
M  V30 798 C 73.6519 -1.09735 -1.75991 0
M  V30 799 C 74.0769 0.346858 -1.84874 0
M  V30 800 O 73.4349 1.25093 -1.3123 0
M  V30 801 C 73.4829 -1.73051 -3.16363 0
M  V30 802 O 72.5869 -0.994452 -4.0023 0
M  V30 803 H 71.9279 -0.384476 -0.541364 0
M  V30 804 H 74.4579 -1.6371 -1.2272 0
M  V30 805 H 74.4679 -1.78398 -3.66931 0
M  V30 806 H 73.1429 -2.78137 -3.09213 0
M  V30 807 H 71.7199 -1.01812 -3.58732 0
M  V30 808 N 73.905 1.17692 -1.04816 0
M  V30 809 C 74.868 2.19787 -0.650117 0
M  V30 810 C 75.868 1.58044 0.296427 0
M  V30 811 O 77.058 1.74012 0.0808097 0
M  V30 812 C 74.19 3.40869 0.0456987 0
M  V30 813 H 75.383 2.56516 -1.5537 0
M  V30 814 H 72.936 1.31708 -0.841594 0
M  V30 815 H 73.671 3.09681 0.962726 0
M  V30 816 H 73.456 3.86928 -0.634727 0
M  V30 817 H 74.946 4.16445 0.310432 0
M  V30 818 N 75.3831 0.828654 1.34056 0
M  V30 819 C 76.2931 0.256725 2.33191 0
M  V30 820 C 77.3091 -0.611898 1.62886 0
M  V30 821 O 78.4851 -0.51844 1.94613 0
M  V30 822 C 75.5501 -0.567238 3.42028 0
M  V30 823 C 74.6111 0.324458 4.28072 0
M  V30 824 C 73.8441 -0.460274 5.31712 0
M  V30 825 O 74.0671 -1.693 5.44696 0
M  V30 826 O 73.0011 0.160391 6.01686 0
M  V30 827 H 76.8271 1.07739 2.83947 0
M  V30 828 H 74.4121 0.59093 1.37217 0
M  V30 829 H 76.2941 -1.03582 4.08471 0
M  V30 830 H 74.9691 -1.36513 2.93506 0
M  V30 831 H 73.8761 0.840659 3.64532 0
M  V30 832 H 75.2091 1.08685 4.8005 0
M  V30 833 N 76.8612 -1.46375 0.584142 0
M  V30 834 C 77.7912 -2.33103 -0.136037 0
M  V30 835 C 78.7722 -1.45431 -0.882255 0
M  V30 836 O 79.9572 -1.74246 -0.857434 0
M  V30 837 C 77.0872 -3.27731 -1.14933 0
M  V30 838 C 76.0412 -4.24855 -0.517862 0
M  V30 839 C 75.3672 -5.09001 -1.63773 0
M  V30 840 C 76.6672 -5.19439 0.545886 0
M  V30 841 H 78.3612 -2.93568 0.588086 0
M  V30 842 H 75.9072 -1.41166 0.284259 0
M  V30 843 H 77.8602 -3.87261 -1.66153 0
M  V30 844 H 76.5842 -2.65377 -1.90375 0
M  V30 845 H 75.2432 -3.6659 -0.0267361 0
M  V30 846 H 74.8912 -4.43031 -2.38185 0
M  V30 847 H 74.5912 -5.74777 -1.22085 0
M  V30 848 H 76.1152 -5.71396 -2.15266 0
M  V30 849 H 77.5292 -5.73177 0.118704 0
M  V30 850 H 75.9262 -5.93566 0.88317 0
M  V30 851 H 76.9962 -4.63285 1.43162 0
M  V30 852 N 78.3393 -0.321999 -1.54275 0
M  V30 853 C 79.5883 0.281931 -1.9972 0
M  V30 854 C 79.9013 1.53369 -1.21397 0
M  V30 855 O 81.1073 2.21352 -1.57211 0
M  V30 856 C 79.5633 0.5529 -3.55628 0
M  V30 857 C 79.1713 -0.681721 -4.42783 0
M  V30 858 C 80.9153 1.11687 -4.09544 0
M  V30 859 C 78.8223 -0.382742 -5.9016 0
M  V30 860 H 77.7523 0.109124 -0.746062 0
M  V30 861 H 80.4033 -0.43398 -1.78294 0
M  V30 862 H 78.7853 1.32896 -3.73035 0
M  V30 863 H 79.9593 -1.45723 -4.37151 0
M  V30 864 H 78.2743 -1.1658 -3.99748 0
M  V30 865 H 80.8713 1.35515 -5.17242 0
M  V30 866 H 81.2143 2.06575 -3.61431 0
M  V30 867 H 81.7473 0.402032 -3.95763 0
M  V30 868 H 78.4863 -1.30076 -6.42464 0
M  V30 869 H 78.0063 0.355094 -5.98748 0
M  V30 870 H 79.6853 0.00800157 -6.47 0
M  V30 871 N 79.8174 1.5752 -0.0501392 0
M  V30 872 C 81.0944 1.83996 0.663685 0
M  V30 873 C 81.4744 0.938339 1.89099 0
M  V30 874 O 80.8224 -0.00087759 2.285 0
M  V30 875 C 81.0324 3.33702 1.02196 0
M  V30 876 C 82.3804 4.00691 1.40469 0
M  V30 877 O 83.4044 3.38321 1.11433 0
M  V30 878 O 82.2634 5.10658 1.94654 0
M  V30 879 H 79.3574 0.759385 0.32751 0
M  V30 880 H 81.9034 1.69514 -0.0794238 0
M  V30 881 H 80.6754 3.91015 0.149364 0
M  V30 882 H 80.2984 3.53368 1.82255 0
M  V30 883 N 81.2955 -0.223234 1.56011 0
M  V30 884 C 82.5205 -0.968978 1.83373 0
M  V30 885 C 82.9455 -1.77227 0.630254 0
M  V30 886 O 82.3035 -1.76345 -0.420959 0
M  V30 887 C 82.3515 -1.86363 3.08709 0
M  V30 888 O 81.4555 -2.95873 2.87285 0
M  V30 889 H 80.7965 -0.274461 0.604622 0
M  V30 890 H 83.3265 -0.237056 2.03222 0
M  V30 891 H 83.3365 -2.27376 3.38768 0
M  V30 892 H 82.0115 -1.27319 3.95933 0
M  V30 893 H 80.5885 -2.58818 2.68454 0
M  V30 894 N 82.7736 -1.49793 -0.48987 0
M  V30 895 C 84.0036 -1.6333 -1.26518 0
M  V30 896 C 84.4116 -0.308392 -1.8667 0
M  V30 897 O 83.7546 0.717512 -1.69108 0
M  V30 898 C 83.8166 -2.6522 -2.4269 0
M  V30 899 C 83.4806 -4.09279 -2.03321 0
M  V30 900 C 84.4776 -4.95738 -1.56652 0
M  V30 901 C 82.1626 -4.55082 -2.12616 0
M  V30 902 C 84.1566 -6.26041 -1.19795 0
M  V30 903 C 81.8436 -5.85396 -1.75371 0
M  V30 904 C 82.8416 -6.707 -1.29036 0
M  V30 905 O 82.5296 -7.98584 -0.92299 0
M  V30 906 H 82.2616 -0.552502 -0.389509 0
M  V30 907 H 84.8156 -1.96642 -0.593381 0
M  V30 908 H 83.0456 -2.27112 -3.12981 0
M  V30 909 H 84.7346 -2.68171 -3.04695 0
M  V30 910 H 85.5006 -4.61575 -1.48908 0
M  V30 911 H 81.3796 -3.88844 -2.47631 0
M  V30 912 H 84.9236 -6.92578 -0.835582 0
M  V30 913 H 80.8206 -6.19085 -1.82768 0
M  V30 914 H 81.5886 -8.11692 -1.05349 0
M  V30 915 N 84.2517 0.741722 -1.39055 0
M  V30 916 C 85.6627 1.31966 -1.32068 0
M  V30 917 C 86.0137 1.96192 0.0180797 0
M  V30 918 O 85.1387 1.95861 0.920196 0
M  V30 919 C 85.7337 2.39954 -2.39181 0
M  V30 920 C 84.2927 2.93438 -2.35735 0
M  V30 921 C 83.4397 1.66936 -2.21422 0
M  V30 922 H 86.3907 0.539721 -1.4924 0
M  V30 923 H 86.4117 3.20182 -2.05581 0
M  V30 924 H 85.9237 1.9318 -3.36605 0
M  V30 925 H 84.0247 3.4451 -1.41929 0
M  V30 926 H 84.1377 3.4701 -3.30335 0
M  V30 927 H 82.5017 1.91016 -1.68478 0
M  V30 928 H 83.2847 1.22224 -3.20806 0
M  V30 929 N 85.7298 1.2412 0.971189 0
M  V30 930 C 86.9758 1.09048 1.71698 0
M  V30 931 C 87.3308 -0.367442 1.88859 0
M  V30 932 O 86.6238 -1.26792 1.43646 0
M  V30 933 C 86.8178 1.75983 3.11071 0
M  V30 934 C 86.6468 3.28133 3.07504 0
M  V30 935 C 85.4168 3.97331 3.1218 0
M  V30 936 C 87.6148 4.24773 2.89952 0
M  V30 937 N 85.5968 5.3639 2.98596 0
M  V30 938 C 86.9678 5.50806 2.84627 0
M  V30 939 C 89.0228 4.15392 2.74506 0
M  V30 940 C 87.7258 6.68533 2.65437 0
M  V30 941 C 89.7518 5.32793 2.56682 0
M  V30 942 C 89.1138 6.57756 2.52063 0
M  V30 943 H 85.2128 0.453632 0.636979 0
M  V30 944 H 87.7968 1.56983 1.15171 0
M  V30 945 H 85.9678 1.30566 3.65796 0
M  V30 946 H 87.6998 1.53803 3.74335 0
M  V30 947 H 84.4548 3.48473 3.20724 0
M  V30 948 H 84.8788 6.09321 2.95054 0
M  V30 949 H 89.5208 3.19543 2.76861 0
M  V30 950 H 87.2388 7.64509 2.61825 0
M  V30 951 H 90.8248 5.27383 2.4568 0
M  V30 952 H 89.7048 7.4707 2.38446 0
M  V30 953 N 87.2079 -1.17134 1.05439 0
M  V30 954 C 88.1549 -2.21235 0.657539 0
M  V30 955 C 89.1249 -1.62551 -0.341543 0
M  V30 956 O 90.3099 -1.89379 -0.232393 0
M  V30 957 C 87.4499 -3.45076 0.0410575 0
M  V30 958 C 86.5629 -4.18042 1.08927 0
M  V30 959 C 85.6979 -5.29376 0.439848 0
M  V30 960 C 84.7369 -5.94132 1.4722 0
M  V30 961 N 83.8739 -6.96975 0.846756 0
M  V30 962 H 88.7139 -2.54534 1.54972 0
M  V30 963 H 86.2509 -1.25028 0.775006 0
M  V30 964 H 88.2089 -4.15862 -0.33383 0
M  V30 965 H 86.8389 -3.12353 -0.814568 0
M  V30 966 H 85.8909 -3.45945 1.58196 0
M  V30 967 H 87.2029 -4.62306 1.87282 0
M  V30 968 H 86.3569 -6.06699 0.0115125 0
M  V30 969 H 85.0959 -4.86251 -0.375656 0
M  V30 970 H 84.1009 -5.15538 1.91052 0
M  V30 971 H 85.3259 -6.39337 2.28965 0
M  V30 972 H 83.2719 -6.5598 0.0518075 0
M  V30 973 H 83.1889 -7.39565 1.5678 0
M  V30 974 H 84.4569 -7.78239 0.443277 0
M  V30 975 N 88.686 -0.835752 -1.33615 0
M  V30 976 C 89.932 -0.439817 -1.98588 0
M  V30 977 C 90.287 0.989274 -1.65019 0
M  V30 978 O 89.58 1.68168 -0.918159 0
M  V30 979 C 89.774 -0.593925 -3.52431 0
M  V30 980 C 89.603 -2.03644 -4.00948 0
M  V30 981 C 88.373 -2.67103 -4.28934 0
M  V30 982 C 90.571 -3.00479 -4.17393 0
M  V30 983 N 88.553 -4.02462 -4.6357 0
M  V30 984 C 89.924 -4.20777 -4.55353 0
M  V30 985 C 91.979 -2.96926 -3.99674 0
M  V30 986 C 90.682 -5.37994 -4.77447 0
M  V30 987 C 92.708 -4.1337 -4.22941 0
M  V30 988 C 92.07 -5.32422 -4.61201 0
M  V30 989 H 88.169 -0.209303 -0.75347 0
M  V30 990 H 90.753 -1.08316 -1.61789 0
M  V30 991 H 88.924 0.019599 -3.88395 0
M  V30 992 H 90.656 -0.169738 -4.04344 0
M  V30 993 H 87.411 -2.18259 -4.20309 0
M  V30 994 H 87.835 -4.72232 -4.85104 0
M  V30 995 H 92.477 -2.06015 -3.69212 0
M  V30 996 H 90.195 -6.29451 -5.06771 0
M  V30 997 H 93.781 -4.12034 -4.10754 0
M  V30 998 H 92.661 -6.21027 -4.78848 0
M  V30 999 N 90.1641 1.46063 -0.591896 0
M  V30 1000 C 91.4101 2.03203 -0.0894879 0
M  V30 1001 C 91.7651 1.45407 1.25994 0
M  V30 1002 O 91.0581 0.61326 1.8152 0
M  V30 1003 C 91.2521 3.57391 0.0249813 0
M  V30 1004 C 91.0811 4.30142 -1.3118 0
M  V30 1005 C 89.8511 4.68688 -1.88838 0
M  V30 1006 C 92.0491 4.63098 -2.23708 0
M  V30 1007 N 90.0311 5.26228 -3.1616 0
M  V30 1008 C 91.4021 5.21305 -3.3562 0
M  V30 1009 C 93.4571 4.45031 -2.23274 0
M  V30 1010 C 92.1601 5.63351 -4.47245 0
M  V30 1011 C 94.1861 4.881 -3.33935 0
M  V30 1012 C 93.5481 5.46386 -4.44569 0
M  V30 1013 H 89.6471 0.778323 -0.0757431 0
M  V30 1014 H 92.2311 1.78094 -0.78681 0
M  V30 1015 H 90.4021 3.82195 0.69149 0
M  V30 1016 H 92.1341 4.0118 0.532613 0
M  V30 1017 H 88.8891 4.5174 -1.42223 0
M  V30 1018 H 89.3131 5.59512 -3.8115 0
M  V30 1019 H 93.9551 3.99295 -1.39008 0
M  V30 1020 H 91.6731 6.08061 -5.32247 0
M  V30 1021 H 95.2591 4.75866 -3.34728 0
M  V30 1022 H 94.1391 5.79102 -5.28782 0
M  V30 1023 N 91.6422 0.330177 1.54103 0
M  V30 1024 C 92.5892 -0.532762 2.24567 0
M  V30 1025 C 93.5592 -1.10635 1.23892 0
M  V30 1026 O 94.7442 -1.14546 1.5259 0
M  V30 1027 C 91.8842 -1.6845 3.01195 0
M  V30 1028 C 90.9972 -1.13951 4.167 0
M  V30 1029 C 90.1322 -2.25746 4.80845 0
M  V30 1030 C 89.1712 -1.6853 5.88442 0
M  V30 1031 N 88.3082 -2.74014 6.46421 0
M  V30 1032 H 93.1482 0.0746905 2.97906 0
M  V30 1033 H 90.6852 0.048632 1.4702 0
M  V30 1034 H 92.6432 -2.36234 3.43874 0
M  V30 1035 H 91.2732 -2.26314 2.30178 0
M  V30 1036 H 90.3252 -0.35301 3.78758 0
M  V30 1037 H 91.6372 -0.680892 4.94131 0
M  V30 1038 H 90.7912 -3.01422 5.26526 0
M  V30 1039 H 89.5302 -2.74947 4.0281 0
M  V30 1040 H 88.5352 -0.913543 5.42157 0
M  V30 1041 H 89.7602 -1.20198 6.68378 0
M  V30 1042 H 87.7062 -3.22494 5.71256 0
M  V30 1043 H 87.6232 -2.32735 7.19285 0
M  V30 1044 H 88.8912 -3.49499 6.96757 0
M  V30 1045 N 93.1203 -1.57491 0.0584922 0
M  V30 1046 C 94.0683 -2.13148 -0.931168 0
M  V30 1047 C 95.0623 -1.06507 -1.31729 0
M  V30 1048 O 96.2683 -1.24906 -1.29609 0
M  V30 1049 H 92.6433 -0.68137 -0.31818 0
M  V30 1050 H 94.6143 -2.95187 -0.436707 0
M  V30 1051 C 93.3633 -2.69732 -2.19408 0
M  V30 1052 H 92.6863 -3.51454 -1.90578 0
M  V30 1053 H 94.1263 -3.12287 -2.86798 0
M  V30 1054 C 92.5853 -1.63855 -2.94369 0
M  V30 1055 O 93.1153 -1.05565 -3.87581 0
M  V30 1056 N 91.3213 -1.35202 -2.57233 0
M  V30 1057 H 90.8683 -1.82791 -1.81508 0
M  V30 1058 H 90.8263 -0.645922 -3.07693 0
M  V30 1059 N 94.5984 0.214957 -1.56127 0
M  V30 1060 C 95.8444 0.939762 -1.79712 0
M  V30 1061 C 96.1774 1.83723 -0.629247 0
M  V30 1062 O 95.4524 1.90925 0.371197 0
M  V30 1063 C 95.7354 1.77306 -3.13424 0
M  V30 1064 C 95.5884 0.90164 -4.40671 0
M  V30 1065 C 96.9074 2.74956 -3.43638 0
M  V30 1066 H 94.0264 0.340214 -0.653776 0
M  V30 1067 H 96.6684 0.20824 -1.88855 0
M  V30 1068 H 94.8184 2.39673 -3.0576 0
M  V30 1069 H 96.4904 0.294206 -4.60361 0
M  V30 1070 H 94.7334 0.207368 -4.33304 0
M  V30 1071 H 95.4044 1.51923 -5.30682 0
M  V30 1072 H 97.8804 2.22724 -3.51473 0
M  V30 1073 H 96.7564 3.30358 -4.38355 0
M  V30 1074 H 97.0174 3.53023 -2.66134 0
M  V30 1075 N 96.0765 1.50051 0.48192 0
M  V30 1076 C 97.0235 1.68122 1.58125 0
M  V30 1077 C 97.9935 0.522545 1.57666 0
M  V30 1078 O 99.1785 0.751844 1.75362 0
M  V30 1079 C 96.3185 1.77142 2.96167 0
M  V30 1080 C 95.4315 3.0444 3.06497 0
M  V30 1081 C 94.5665 3.04321 4.35387 0
M  V30 1082 C 93.6055 4.26118 4.3942 0
M  V30 1083 N 92.7425 4.238 5.59766 0
M  V30 1084 H 97.5825 2.6198 1.42022 0
M  V30 1085 H 95.1195 1.29877 0.690687 0
M  V30 1086 H 97.0775 1.80352 3.76203 0
M  V30 1087 H 95.7075 0.867329 3.1093 0
M  V30 1088 H 94.7595 3.10752 2.19402 0
M  V30 1089 H 96.0715 3.94426 3.05336 0
M  V30 1090 H 95.2255 3.062 5.23762 0
M  V30 1091 H 93.9645 2.12147 4.39141 0
M  V30 1092 H 92.9695 4.24463 3.49444 0
M  V30 1093 H 94.1945 5.19507 4.37366 0
M  V30 1094 H 92.1405 3.34474 5.64326 0
M  V30 1095 H 92.0575 5.07542 5.60301 0
M  V30 1096 H 93.3255 4.2981 6.50295 0
M  V30 1097 N 97.5546 -0.734337 1.39446 0
M  V30 1098 C 98.5176 -1.83004 1.37994 0
M  V30 1099 C 99.5176 -1.58397 0.276938 0
M  V30 1100 O 100.708 -1.65785 0.534875 0
M  V30 1101 C 97.8396 -3.20802 1.1532 0
M  V30 1102 H 99.0326 -1.85694 2.35494 0
M  V30 1103 H 96.5856 -0.938059 1.25021 0
M  V30 1104 H 97.3206 -3.23772 0.185036 0
M  V30 1105 H 97.1056 -3.4006 1.95197 0
M  V30 1106 H 98.5956 -4.00862 1.17046 0
M  V30 1107 N 99.0327 -1.24633 -0.964593 0
M  V30 1108 C 99.9647 -0.999302 -2.06268 0
M  V30 1109 C 100.978 0.0323226 -1.62768 0
M  V30 1110 O 102.167 -0.205079 -1.77318 0
M  V30 1111 C 99.2667 -0.486816 -3.35385 0
M  V30 1112 C 98.4397 -1.5823 -4.07777 0
M  V30 1113 C 97.4987 -1.07191 -5.15166 0
M  V30 1114 O 96.5247 -1.76426 -5.41168 0
M  V30 1115 N 97.7267 0.0920373 -5.80427 0
M  V30 1116 H 100.492 -1.94477 -2.28033 0
M  V30 1117 H 98.0527 -1.15704 -1.13244 0
M  V30 1118 H 100.045 -0.130066 -4.04491 0
M  V30 1119 H 98.6147 0.364459 -3.10468 0
M  V30 1120 H 97.8347 -2.11109 -3.32906 0
M  V30 1121 H 99.1227 -2.31854 -4.52903 0
M  V30 1122 H 98.5207 0.670784 -5.61709 0
M  V30 1123 H 97.0777 0.389905 -6.50633 0
M  V30 1124 N 100.511 1.16574 -1.06058 0
M  V30 1125 C 101.739 1.90952 -0.796552 0
M  V30 1126 C 102.154 1.77302 0.648808 0
M  V30 1127 O 101.511 1.11605 1.44397 0
M  V30 1128 C 101.562 3.41736 -1.17894 0
M  V30 1129 O 101.283 3.54975 -2.56758 0
M  V30 1130 C 102.784 4.33169 -0.942308 0
M  V30 1131 H 100.004 0.605594 -0.288959 0
M  V30 1132 H 102.548 1.47777 -1.41358 0
M  V30 1133 H 100.703 3.82623 -0.606491 0
M  V30 1134 H 101.117 4.4846 -2.72 0
M  V30 1135 H 102.591 5.37439 -1.25952 0
M  V30 1136 H 103.068 4.3903 0.122078 0
M  V30 1137 H 103.674 3.98007 -1.49902 0
M  V30 1138 N 101.989 0.842826 1.3317 0
M  V30 1139 C 103.266 0.362216 1.92217 0
M  V30 1140 C 103.646 -1.15289 1.76838 0
M  V30 1141 O 102.994 -1.96914 1.15919 0
M  V30 1142 C 103.204 0.813495 3.39387 0
M  V30 1143 C 104.552 0.823804 4.16532 0
M  V30 1144 O 105.576 0.757358 3.48055 0
M  V30 1145 O 104.435 0.915193 5.38782 0
M  V30 1146 H 101.529 0.103317 0.820521 0
M  V30 1147 H 104.075 0.928942 1.42017 0
M  V30 1148 H 102.847 1.85624 3.4447 0
M  V30 1149 H 102.47 0.223561 3.96971 0
M  V30 1150 N 103.467 -1.45747 0.599634 0
M  V30 1151 C 104.4 -2.27547 -0.172552 0
M  V30 1152 C 105.378 -1.36657 -0.881116 0
M  V30 1153 O 106.562 -1.66081 -0.891595 0
M  V30 1154 C 103.689 -3.14829 -1.24903 0
M  V30 1155 C 102.735 -4.21603 -0.644465 0
M  V30 1156 S 103.568 -5.32754 0.541606 0
M  V30 1157 C 104.724 -6.23604 -0.535656 0
M  V30 1158 H 104.957 -2.92691 0.521468 0
M  V30 1159 H 102.49 -1.49473 0.386947 0
M  V30 1160 H 104.448 -3.65675 -1.86527 0
M  V30 1161 H 103.109 -2.48965 -1.91508 0
M  V30 1162 H 102.302 -4.82566 -1.45417 0
M  V30 1163 H 101.904 -3.73857 -0.103534 0
M  V30 1164 H 104.196 -6.62519 -1.41686 0
M  V30 1165 H 105.139 -7.0809 0.0376246 0
M  V30 1166 H 105.547 -5.58103 -0.84741 0
M  V30 1167 N 104.945 -0.338344 -1.53925 0
M  V30 1168 C 105.895 0.536712 -2.21593 0
M  V30 1169 C 106.879 1.07015 -1.20153 0
M  V30 1170 O 108.071 1.00471 -1.45721 0
M  V30 1171 C 105.2 1.68977 -2.98834 0
M  V30 1172 C 104.286 1.17052 -4.07627 0
M  V30 1173 N 104.677 0.372085 -5.0443 0
M  V30 1174 C 102.975 1.44789 -4.21844 0
M  V30 1175 C 103.676 0.0909171 -5.81629 0
M  V30 1176 N 102.652 0.681131 -5.39316 0
M  V30 1177 H 106.454 -0.0804298 -2.9379 0
M  V30 1178 H 103.968 -0.144943 -1.61752 0
M  V30 1179 H 105.965 2.32857 -3.45808 0
M  V30 1180 H 104.625 2.31024 -2.28162 0
M  V30 1181 H 105.636 0.0136217 -5.17898 0
M  V30 1182 H 102.313 2.07313 -3.62391 0
M  V30 1183 H 103.703 -0.552817 -6.69622 0
M  V30 1184 N 106.423 1.57458 -0.0668435 0
M  V30 1185 C 107.371 2.13639 0.919851 0
M  V30 1186 C 108.365 1.07204 1.31163 0
M  V30 1187 O 109.571 1.25591 1.28945 0
M  V30 1188 H 105.946 0.683048 0.314562 0
M  V30 1189 H 107.917 2.95415 0.421047 0
M  V30 1190 C 106.666 2.70892 2.17975 0
M  V30 1191 H 105.989 3.5246 1.88711 0
M  V30 1192 H 107.429 3.13803 2.85138 0
M  V30 1193 C 105.888 1.65414 2.93496 0
M  V30 1194 O 106.418 1.07619 3.87015 0
M  V30 1195 N 104.624 1.36564 2.56512 0
M  V30 1196 H 104.171 1.83751 1.80536 0
M  V30 1197 H 104.129 0.66223 3.07347 0
M  V30 1198 N 107.901 -0.206675 1.56239 0
M  V30 1199 C 109.147 -0.930218 1.80208 0
M  V30 1200 C 109.48 -1.83387 0.638981 0
M  V30 1201 O 108.755 -1.91119 -0.361066 0
M  V30 1202 C 109.038 -1.75641 3.1436 0
M  V30 1203 C 108.891 -0.878257 4.41142 0
M  V30 1204 C 110.21 -2.73129 3.45092 0
M  V30 1205 H 107.329 -0.336742 0.655571 0
M  V30 1206 H 109.971 -0.198222 1.88963 0
M  V30 1207 H 108.121 -2.38048 3.07027 0
M  V30 1208 H 109.793 -0.269787 4.6051 0
M  V30 1209 H 108.036 -0.184385 4.33408 0
M  V30 1210 H 108.707 -1.49106 5.3148 0
M  V30 1211 H 111.183 -2.20856 3.52649 0
M  V30 1212 H 110.059 -3.28028 4.40101 0
M  V30 1213 H 110.32 -3.51606 2.68003 0
M  V30 1214 N 109.379 -1.50304 -0.473955 0
M  V30 1215 C 110.795 -1.37667 -0.807466 0
M  V30 1216 C 110.995 -0.430555 -1.96846 0
M  V30 1217 O 110.051 0.127874 -2.52176 0
M  V30 1218 C 111.364 -2.78974 -1.12223 0
M  V30 1219 C 112.912 -2.87868 -1.22885 0
M  V30 1220 C 113.387 -4.30003 -1.57676 0
M  V30 1221 N 114.878 -4.3294 -1.64673 0
M  V30 1222 C 115.613 -5.3991 -1.93091 0
M  V30 1223 N 115.109 -6.57092 -2.1955 0
M  V30 1224 N 116.902 -5.27351 -1.94569 0
M  V30 1225 H 109.053 -2.10394 0.291212 0
M  V30 1226 H 111.316 -0.945575 0.0677609 0
M  V30 1227 H 111.022 -3.50031 -0.342229 0
M  V30 1228 H 110.896 -3.16038 -2.05913 0
M  V30 1229 H 113.283 -2.17032 -1.99953 0
M  V30 1230 H 113.364 -2.54352 -0.271814 0
M  V30 1231 H 113.008 -5.01375 -0.81149 0
M  V30 1232 H 112.938 -4.61004 -2.54525 0
M  V30 1233 H 115.429 -3.48441 -1.46277 0
M  V30 1234 H 115.742 -7.34425 -2.405 0
M  V30 1235 H 114.087 -6.60272 -2.16948 0
M  V30 1236 H 117.278 -4.34801 -1.73394 0
M  V30 1237 H 117.451 -6.10805 -2.16381 0
M  V30 1238 N 110.857 0.726932 -1.39834 0
M  V30 1239 C 112.106 1.48214 -1.36805 0
M  V30 1240 C 112.419 1.95576 0.0305291 0
M  V30 1241 O 113.625 2.7088 0.183417 0
M  V30 1242 C 112.081 2.67854 -2.40379 0
M  V30 1243 C 111.689 2.27408 -3.85992 0
M  V30 1244 C 113.433 3.45641 -2.46439 0
M  V30 1245 C 111.34 3.43819 -4.81189 0
M  V30 1246 H 110.27 0.556606 -0.508631 0
M  V30 1247 H 112.921 0.792216 -1.65518 0
M  V30 1248 H 111.303 3.3896 -2.04749 0
M  V30 1249 H 112.477 1.63795 -4.30706 0
M  V30 1250 H 110.792 1.62692 -3.83302 0
M  V30 1251 H 113.389 4.32244 -3.14753 0
M  V30 1252 H 113.732 3.88669 -1.49139 0
M  V30 1253 H 114.265 2.8157 -2.81004 0
M  V30 1254 H 111.004 3.05834 -5.79781 0
M  V30 1255 H 110.524 4.06385 -4.41148 0
M  V30 1256 H 112.203 4.10043 -5.00474 0
M  V30 1257 N 112.336 1.25143 0.95797 0
M  V30 1258 C 113.246 1.06968 2.08794 0
M  V30 1259 C 114.262 0.00773911 1.73998 0
M  V30 1260 O 115.438 0.207972 2.00323 0
M  V30 1261 C 112.503 0.68691 3.39827 0
M  V30 1262 C 111.564 1.82641 3.88511 0
M  V30 1263 C 110.797 1.46181 5.1329 0
M  V30 1264 O 111.02 0.355971 5.69288 0
M  V30 1265 O 109.954 2.29085 5.566 0
M  V30 1266 H 113.78 2.01723 2.27027 0
M  V30 1267 H 111.365 1.04051 1.07209 0
M  V30 1268 H 113.247 0.485417 4.18595 0
M  V30 1269 H 111.922 -0.231417 3.22872 0
M  V30 1270 H 110.829 2.08274 3.10762 0
M  V30 1271 H 112.162 2.72386 4.09959 0
M  V30 1272 N 113.814 -1.1601 1.06675 0
M  V30 1273 C 115.063 -1.85973 0.780818 0
M  V30 1274 C 115.376 -1.82819 -0.695444 0
M  V30 1275 O 116.582 -2.484 -1.09589 0
M  V30 1276 C 115.038 -3.33757 1.34665 0
M  V30 1277 C 114.646 -3.45374 2.85343 0
M  V30 1278 C 116.39 -4.0895 1.13843 0
M  V30 1279 C 114.297 -4.87266 3.35151 0
M  V30 1280 H 113.227 -0.696661 0.288407 0
M  V30 1281 H 115.878 -1.30903 1.28595 0
M  V30 1282 H 114.26 -3.88456 0.769274 0
M  V30 1283 H 115.434 -3.00816 3.49065 0
M  V30 1284 H 113.749 -2.83619 3.04876 0
M  V30 1285 H 116.346 -5.13654 1.4854 0
M  V30 1286 H 116.689 -4.16229 0.0770282 0
M  V30 1287 H 117.222 -3.605 1.68179 0
M  V30 1288 H 113.961 -4.85168 4.40786 0
M  V30 1289 H 113.481 -5.32433 2.76179 0
M  V30 1290 H 115.16 -5.56097 3.30704 0
M  V30 1291 N 115.292 -0.849877 -1.32721 0
M  V30 1292 C 116.255 -0.296122 -2.27279 0
M  V30 1293 C 117.255 0.541458 -1.5141 0
M  V30 1294 O 118.445 0.353658 -1.70572 0
M  V30 1295 C 115.577 0.581579 -3.35902 0
M  V30 1296 H 116.77 -1.13064 -2.77771 0
M  V30 1297 H 114.323 -0.62383 -1.43311 0
M  V30 1298 H 115.058 1.43809 -2.9067 0
M  V30 1299 H 114.843 -0.0178814 -3.92096 0
M  V30 1300 H 116.333 0.961951 -4.0637 0
M  V30 1301 N 116.77 1.45427 -0.607355 0
M  V30 1302 C 118.047 1.9557 -0.0344566 0
M  V30 1303 C 118.427 1.54979 1.43334 0
M  V30 1304 O 117.775 0.812241 2.13576 0
M  V30 1305 C 117.985 3.48226 -0.232321 0
M  V30 1306 C 119.333 4.2445 -0.113001 0
M  V30 1307 O 120.357 3.55829 -0.162431 0
M  V30 1308 O 119.216 5.465 0.00209442 0
M  V30 1309 H 116.31 0.826222 0.0358667 0
M  V30 1310 H 118.856 1.55594 -0.6774 0
M  V30 1311 H 117.628 3.70739 -1.25174 0
M  V30 1312 H 117.251 3.95092 0.445896 0
M  V30 1313 N 118.248 0.346503 1.53744 0
M  V30 1314 C 119.497 -0.250122 2.00143 0
M  V30 1315 C 119.81 -1.51418 1.23822 0
M  V30 1316 O 121.016 -2.18823 1.60713 0
M  V30 1317 C 119.472 -0.496252 3.56462 0
M  V30 1318 C 119.08 0.752077 4.41642 0
M  V30 1319 C 120.824 -1.05157 4.11269 0
M  V30 1320 C 118.731 0.476583 5.89477 0
M  V30 1321 H 117.661 -0.0972409 0.747703 0
M  V30 1322 H 120.312 0.46229 1.77581 0
M  V30 1323 H 118.694 -1.26944 3.75102 0
M  V30 1324 H 119.868 1.5266 4.34778 0
M  V30 1325 H 118.183 1.22925 3.97842 0
M  V30 1326 H 120.78 -1.27269 5.19333 0
M  V30 1327 H 121.123 -2.00799 3.64672 0
M  V30 1328 H 121.656 -0.339019 3.96353 0
M  V30 1329 H 118.395 1.4028 6.40314 0
M  V30 1330 H 117.915 -0.259794 5.99237 0
M  V30 1331 H 119.594 0.0949315 6.4693 0
M  V30 1332 N 119.726 -1.57421 0.075193 0
M  V30 1333 C 120.656 -2.15942 -0.888324 0
M  V30 1334 C 121.637 -1.08737 -1.30806 0
M  V30 1335 O 122.822 -1.36787 -1.37851 0
M  V30 1336 C 119.952 -2.72379 -2.1547 0
M  V30 1337 C 118.906 -3.8478 -1.87425 0
M  V30 1338 C 118.232 -4.27834 -3.20721 0
M  V30 1339 C 119.532 -5.08869 -1.17684 0
M  V30 1340 H 121.226 -2.96705 -0.400799 0
M  V30 1341 H 118.772 -1.42723 -0.191342 0
M  V30 1342 H 120.725 -3.11965 -2.83295 0
M  V30 1343 H 119.449 -1.88841 -2.6647 0
M  V30 1344 H 118.108 -3.45703 -1.22004 0
M  V30 1345 H 117.756 -3.41214 -3.6957 0
M  V30 1346 H 117.456 -5.03605 -3.02746 0
M  V30 1347 H 118.98 -4.70039 -3.89738 0
M  V30 1348 H 120.394 -5.4575 -1.75584 0
M  V30 1349 H 118.791 -5.8994 -1.09956 0
M  V30 1350 H 119.861 -4.84648 -0.156453 0
M  V30 1351 N 121.204 0.198386 -1.56346 0
M  V30 1352 C 122.154 1.2499 -1.90687 0
M  V30 1353 C 123.138 1.41158 -0.772217 0
M  V30 1354 O 124.33 1.43584 -1.03502 0
M  V30 1355 C 121.459 2.59542 -2.24706 0
M  V30 1356 C 120.545 2.47181 -3.44619 0
M  V30 1357 N 120.936 2.04495 -4.62618 0
M  V30 1358 C 119.234 2.78082 -3.48692 0
M  V30 1359 C 119.935 2.03945 -5.44776 0
M  V30 1360 N 118.911 2.45323 -4.85095 0
M  V30 1361 H 122.713 0.911149 -2.7942 0
M  V30 1362 H 120.227 0.40684 -1.57221 0
M  V30 1363 H 122.224 3.3549 -2.47491 0
M  V30 1364 H 120.884 2.94244 -1.37298 0
M  V30 1365 H 121.895 1.75256 -4.87345 0
M  V30 1366 H 118.572 3.17002 -2.71691 0
M  V30 1367 H 119.962 1.72872 -6.4928 0
M  V30 1368 N 122.682 1.50554 0.465978 0
M  V30 1369 C 123.929 1.61798 1.21768 0
M  V30 1370 C 124.257 0.320696 1.91838 0
M  V30 1371 O 123.512 -0.693724 1.82992 0
M  V30 1372 C 123.811 2.75152 2.28093 0
M  V30 1373 C 123.477 4.15454 1.75239 0
M  V30 1374 C 122.139 4.53628 1.60546 0
M  V30 1375 C 124.491 5.03121 1.36083 0
M  V30 1376 C 121.819 5.77204 1.05128 0
M  V30 1377 C 124.171 6.27249 0.821056 0
M  V30 1378 C 122.835 6.64221 0.660795 0
M  V30 1379 H 122.105 0.592063 0.445582 0
M  V30 1380 H 124.752 1.84503 0.512927 0
M  V30 1381 H 123.057 2.46556 3.04496 0
M  V30 1382 H 124.754 2.81055 2.86023 0
M  V30 1383 H 121.344 3.85341 1.87644 0
M  V30 1384 H 125.528 4.74257 1.46267 0
M  V30 1385 H 120.784 6.0452 0.91462 0
M  V30 1386 H 124.958 6.94537 0.509018 0
M  V30 1387 H 122.585 7.59854 0.229226 0
M  V30 1388 N 124.16 -0.719506 1.40217 0
M  V30 1389 C 125.385 -1.51371 1.4178 0
M  V30 1390 C 125.81 -1.88091 0.0182355 0
M  V30 1391 O 125.168 -1.52997 -0.972707 0
M  V30 1392 C 125.216 -2.768 2.31115 0
M  V30 1393 O 124.32 -3.73349 1.7517 0
M  V30 1394 H 123.661 -0.456529 0.482159 0
M  V30 1395 H 126.191 -0.88644 1.844 0
M  V30 1396 H 126.201 -3.25371 2.46167 0
M  V30 1397 H 124.876 -2.49407 3.3282 0
M  V30 1398 H 123.453 -3.32179 1.69444 0
M  V30 1399 N 125.638 -1.25649 -0.95132 0
M  V30 1400 C 126.568 -1.08808 -2.06599 0
M  V30 1401 C 127.549 0.00382547 -1.701 0
M  V30 1402 O 128.734 -0.166325 -1.93486 0
M  V30 1403 C 125.864 -0.709542 -3.39975 0
M  V30 1404 C 124.818 -1.75206 -3.90496 0
M  V30 1405 C 124.144 -1.22811 -5.20405 0
M  V30 1406 C 125.444 -3.15153 -4.16504 0
M  V30 1407 H 127.138 -2.02048 -2.20946 0
M  V30 1408 H 124.684 -0.972835 -1.06169 0
M  V30 1409 H 126.637 -0.578649 -4.17408 0
M  V30 1410 H 125.361 0.258556 -3.25575 0
M  V30 1411 H 124.02 -1.87145 -3.15234 0
M  V30 1412 H 123.668 -0.250145 -5.02378 0
M  V30 1413 H 123.368 -1.92492 -5.55176 0
M  V30 1414 H 124.892 -1.10968 -6.00432 0
M  V30 1415 H 126.306 -3.06349 -4.84586 0
M  V30 1416 H 124.703 -3.82333 -4.62538 0
M  V30 1417 H 125.773 -3.61966 -3.22658 0
M  V30 1418 N 127.117 1.15442 -1.07289 0
M  V30 1419 C 128.342 1.90638 -0.816828 0
M  V30 1420 C 128.767 1.77445 0.624083 0
M  V30 1421 O 128.125 1.10671 1.43602 0
M  V30 1422 C 128.173 3.39008 -1.22906 0
M  V30 1423 O 127.277 4.10701 -0.373975 0
M  V30 1424 H 126.618 0.593555 -0.297638 0
M  V30 1425 H 129.148 1.46198 -1.43134 0
M  V30 1426 H 129.158 3.89801 -1.20497 0
M  V30 1427 H 127.833 3.47929 -2.27856 0
M  V30 1428 H 126.41 3.70046 -0.460499 0
M  V30 1429 N 128.595 0.856903 1.32268 0
M  V30 1430 C 129.843 0.460474 1.96784 0
M  V30 1431 C 130.164 -0.987701 1.68135 0
M  V30 1432 O 129.434 -1.69058 0.989765 0
M  V30 1433 H 128.014 0.167289 0.728027 0
M  V30 1434 H 130.676 1.09383 1.61312 0
M  V30 1435 H 129.772 0.60739 3.06133 0
M  V30 1436 N 130.073 -1.45103 0.615059 0
M  V30 1437 C 130.983 -2.34382 -0.101034 0
M  V30 1438 C 131.999 -1.51681 -0.852585 0
M  V30 1439 O 133.175 -1.8446 -0.808484 0
M  V30 1440 C 130.24 -3.29417 -1.08099 0
M  V30 1441 C 129.301 -4.28025 -0.330577 0
M  V30 1442 C 128.534 -5.1852 -1.26385 0
M  V30 1443 O 128.757 -5.12598 -2.50198 0
M  V30 1444 O 127.691 -5.97122 -0.756866 0
M  V30 1445 H 131.517 -2.97033 0.632855 0
M  V30 1446 H 129.102 -1.4461 0.375293 0
M  V30 1447 H 130.984 -3.87958 -1.6452 0
M  V30 1448 H 129.659 -2.69321 -1.79577 0
M  V30 1449 H 128.566 -3.73078 0.276283 0
M  V30 1450 H 129.899 -4.90997 0.343866 0
M  V30 1451 N 131.551 -0.354651 -1.53558 0
M  V30 1452 C 132.8 0.239504 -2.00273 0
M  V30 1453 C 133.113 1.50759 -1.24623 0
M  V30 1454 O 134.319 2.17968 -1.61871 0
M  V30 1455 C 132.775 0.477341 -3.5672 0
M  V30 1456 C 132.383 -0.775488 -4.41237 0
M  V30 1457 C 134.127 1.02975 -4.11821 0
M  V30 1458 C 132.034 -0.507838 -5.89216 0
M  V30 1459 H 130.964 0.0932743 -0.748208 0
M  V30 1460 H 133.615 -0.471701 -1.77334 0
M  V30 1461 H 131.997 1.24953 -3.7577 0
M  V30 1462 H 133.171 -1.54963 -4.33962 0
M  V30 1463 H 131.486 -1.25033 -3.97185 0
M  V30 1464 H 134.083 1.24513 -5.2 0
M  V30 1465 H 134.426 1.98862 -3.65731 0
M  V30 1466 H 134.959 0.317994 -3.96527 0
M  V30 1467 H 131.698 -1.43674 -6.39561 0
M  V30 1468 H 131.218 0.228011 -5.99366 0
M  V30 1469 H 132.897 -0.129238 -6.46871 0
M  V30 1470 N 133.029 1.57378 -0.0835403 0
M  V30 1471 C 133.961 2.10389 0.909338 0
M  V30 1472 C 134.974 1.03858 1.25369 0
M  V30 1473 O 136.163 1.31338 1.20882 0
M  V30 1474 C 133.263 2.55908 2.2218 0
M  V30 1475 C 132.436 3.86145 2.05453 0
M  V30 1476 C 131.495 4.17633 3.20108 0
M  V30 1477 O 130.521 4.87043 2.94581 0
M  V30 1478 N 131.723 3.72113 4.45547 0
M  V30 1479 H 134.488 2.962 0.456657 0
M  V30 1480 H 132.049 1.61579 0.101877 0
M  V30 1481 H 134.041 2.74027 2.97811 0
M  V30 1482 H 132.611 1.75171 2.58909 0
M  V30 1483 H 131.831 3.7729 1.1422 0
M  V30 1484 H 133.119 4.7137 1.91541 0
M  V30 1485 H 132.517 3.16062 4.69171 0
M  V30 1486 H 131.074 3.95409 5.18165 0
M  V30 1487 N 134.507 -0.190092 1.56449 0
M  V30 1488 C 135.454 -1.23557 1.94942 0
M  V30 1489 C 136.424 -1.44972 0.810696 0
M  V30 1490 O 137.609 -1.58023 1.06927 0
M  V30 1491 C 134.749 -2.57416 2.2985 0
M  V30 1492 C 133.862 -2.43537 3.5681 0
M  V30 1493 C 132.997 -3.70134 3.81017 0
M  V30 1494 C 132.036 -3.51109 5.01387 0
M  V30 1495 N 131.173 -4.6973 5.21822 0
M  V30 1496 H 136.013 -0.900304 2.84075 0
M  V30 1497 H 133.55 -0.43318 1.40577 0
M  V30 1498 H 135.508 -3.35409 2.48106 0
M  V30 1499 H 134.138 -2.88975 1.43852 0
M  V30 1500 H 133.19 -1.56816 3.46573 0
M  V30 1501 H 134.502 -2.25415 4.4496 0
M  V30 1502 H 133.656 -4.56566 3.9954 0
M  V30 1503 H 132.395 -3.91215 2.91207 0
M  V30 1504 H 131.4 -2.63063 4.82782 0
M  V30 1505 H 132.625 -3.31468 5.9271 0
M  V30 1506 H 130.571 -4.91065 4.34961 0
M  V30 1507 H 130.488 -4.54452 6.0416 0
M  V30 1508 H 131.756 -5.57499 5.44808 0
M  V30 1509 N 135.985 -1.50799 -0.457987 0
M  V30 1510 C 137.401 -1.38515 -0.792819 0
M  V30 1511 C 137.601 -0.451409 -1.96379 0
M  V30 1512 O 136.657 0.10112 -2.52297 0
M  V30 1513 C 137.97 -2.80149 -1.09258 0
M  V30 1514 C 139.518 -2.89156 -1.19825 0
M  V30 1515 C 139.993 -4.31651 -1.53106 0
M  V30 1516 N 141.484 -4.34662 -1.60072 0
M  V30 1517 C 142.219 -5.41928 -1.87354 0
M  V30 1518 N 141.715 -6.59384 -2.12568 0
M  V30 1519 N 143.508 -5.29385 -1.88965 0
M  V30 1520 H 135.659 -2.10073 0.313511 0
M  V30 1521 H 137.922 -0.944803 0.0777862 0
M  V30 1522 H 137.628 -3.50374 -0.305084 0
M  V30 1523 H 137.502 -3.18204 -2.02549 0
M  V30 1524 H 139.889 -2.19141 -1.97639 0
M  V30 1525 H 139.97 -2.54626 -0.244821 0
M  V30 1526 H 139.614 -5.02208 -0.758266 0
M  V30 1527 H 139.544 -4.63678 -2.49621 0
M  V30 1528 H 142.035 -3.49973 -1.42573 0
M  V30 1529 H 142.348 -7.36934 -2.32696 0
M  V30 1530 H 140.693 -6.62535 -2.09933 0
M  V30 1531 H 143.884 -4.36616 -1.68772 0
M  V30 1532 H 144.057 -6.13066 -2.09891 0
M  V30 1533 N 137.463 0.71206 -1.40597 0
M  V30 1534 C 138.691 1.50111 -1.42388 0
M  V30 1535 C 139.106 1.88784 -0.0245395 0
M  V30 1536 O 138.463 1.55681 0.952351 0
M  V30 1537 C 138.514 2.7742 -2.31776 0
M  V30 1538 O 138.235 2.40382 -3.66262 0
M  V30 1539 C 139.736 3.7129 -2.42196 0
M  V30 1540 H 136.956 0.46314 -0.485533 0
M  V30 1541 H 139.5 0.878068 -1.8469 0
M  V30 1542 H 137.655 3.36001 -1.92827 0
M  V30 1543 H 138.069 3.22324 -4.13772 0
M  V30 1544 H 139.543 4.57448 -3.08943 0
M  V30 1545 H 140.02 4.14641 -1.44809 0
M  V30 1546 H 140.626 3.18619 -2.81712 0
M  V30 1547 N 138.941 1.26152 0.944643 0
M  V30 1548 C 139.873 1.03199 2.04652 0
M  V30 1549 C 140.886 -0.00642356 1.62799 0
M  V30 1550 O 142.075 0.233263 1.76969 0
M  V30 1551 C 139.175 0.540111 3.34568 0
M  V30 1552 C 138.348 1.64697 4.05208 0
M  V30 1553 C 137.407 1.15374 5.13396 0
M  V30 1554 O 136.433 1.85013 5.38293 0
M  V30 1555 N 137.635 0.00031529 5.805 0
M  V30 1556 H 140.4 1.9808 2.2491 0
M  V30 1557 H 137.961 1.17491 1.11389 0
M  V30 1558 H 139.953 0.194401 4.04233 0
M  V30 1559 H 138.523 -0.315021 3.11009 0
M  V30 1560 H 137.743 2.16379 3.29506 0
M  V30 1561 H 139.031 2.3903 4.49157 0
M  V30 1562 H 138.429 -0.581336 5.62705 0
M  V30 1563 H 136.986 -0.286346 6.51171 0
M  V30 1564 N 140.419 -1.14872 1.07899 0
M  V30 1565 C 141.696 -1.81928 0.71845 0
M  V30 1566 C 142.076 -1.95417 -0.798455 0
M  V30 1567 O 141.424 -1.50997 -1.715 0
M  V30 1568 C 141.634 -3.17937 1.43935 0
M  V30 1569 C 142.982 -3.93501 1.59506 0
M  V30 1570 O 144.006 -3.27509 1.40058 0
M  V30 1571 O 142.865 -5.1183 1.91551 0
M  V30 1572 H 139.959 -0.78628 0.256305 0
M  V30 1573 H 142.505 -1.21934 1.18026 0
M  V30 1574 H 141.277 -3.0325 2.47295 0
M  V30 1575 H 140.9 -3.85619 0.968687 0
M  V30 1576 N 141.898 -0.863906 -1.31812 0
M  V30 1577 C 142.808 -0.318461 -2.32428 0
M  V30 1578 C 143.824 0.568496 -1.64451 0
M  V30 1579 O 145 0.46666 -1.95919 0
M  V30 1580 C 142.065 0.476355 -3.43412 0
M  V30 1581 C 141.126 -0.43784 -4.27061 0
M  V30 1582 C 140.359 0.319138 -5.32745 0
M  V30 1583 O 140.582 1.54799 -5.48993 0
M  V30 1584 O 139.516 -0.319861 -6.01049 0
M  V30 1585 H 143.342 -1.15229 -2.80991 0
M  V30 1586 H 140.927 -0.627103 -1.35602 0
M  V30 1587 H 142.809 0.927156 -4.11074 0
M  V30 1588 H 141.484 1.28683 -2.97022 0
M  V30 1589 H 140.391 -0.937013 -3.62175 0
M  V30 1590 H 141.724 -1.21375 -4.77 0
M  V30 1591 N 143.376 1.44774 -0.622745 0
M  V30 1592 C 144.323 2.30635 0.0871679 0
M  V30 1593 C 145.293 1.42994 0.845097 0
M  V30 1594 O 146.478 1.71907 0.827812 0
M  V30 1595 C 143.618 3.28144 1.06844 0
M  V30 1596 C 142.731 4.30888 0.309809 0
M  V30 1597 C 141.866 5.15494 1.28215 0
M  V30 1598 C 140.905 6.09953 0.512198 0
M  V30 1599 N 140.042 6.87287 1.43458 0
M  V30 1600 H 144.882 2.90803 -0.650974 0
M  V30 1601 H 142.419 1.43286 -0.33281 0
M  V30 1602 H 144.377 3.83157 1.65066 0
M  V30 1603 H 143.007 2.69695 1.77382 0
M  V30 1604 H 142.059 3.78414 -0.388181 0
M  V30 1605 H 143.371 4.97955 -0.290254 0
M  V30 1606 H 142.525 5.74983 1.93596 0
M  V30 1607 H 141.264 4.48481 1.91614 0
M  V30 1608 H 140.269 5.49581 -0.155151 0
M  V30 1609 H 141.494 6.78999 -0.116958 0
M  V30 1610 H 139.44 6.2295 2.05594 0
M  V30 1611 H 139.357 7.50763 0.888335 0
M  V30 1612 H 140.625 7.51306 2.07749 0
M  V30 1613 N 144.854 0.36279 1.53368 0
M  V30 1614 C 146.102 -0.227326 2.00817 0
M  V30 1615 C 146.423 -1.49511 1.25186 0
M  V30 1616 O 145.693 -1.92482 0.364348 0
M  V30 1617 H 144.273 -0.0869923 0.741917 0
M  V30 1618 H 146.935 0.488381 1.88682 0
M  V30 1619 H 146.031 -0.456273 3.08747 0
M  V30 1620 N 146.332 -1.57332 0.0918853 0
M  V30 1621 C 147.295 -2.12708 -0.85369 0
M  V30 1622 C 148.295 -1.05561 -1.213 0
M  V30 1623 O 149.485 -1.31461 -1.14296 0
M  V30 1624 C 146.617 -2.64503 -2.15061 0
M  V30 1625 H 147.81 -2.97573 -0.3729 0
M  V30 1626 H 145.363 -1.55509 -0.157072 0
M  V30 1627 H 146.098 -1.83149 -2.67632 0
M  V30 1628 H 145.883 -3.4284 -1.90272 0
M  V30 1629 H 147.373 -3.07351 -2.82711 0
M  V30 1630 N 147.81 0.181792 -1.56548 0
M  V30 1631 C 149.087 0.926765 -1.72251 0
M  V30 1632 C 149.467 2.00831 -0.650386 0
M  V30 1633 O 148.815 2.26008 0.336521 0
M  V30 1634 C 149.025 1.50106 -3.1507 0
M  V30 1635 C 150.373 1.97805 -3.75711 0
M  V30 1636 O 151.397 1.59922 -3.18282 0
M  V30 1637 O 150.256 2.67555 -4.76525 0
M  V30 1638 H 147.35 0.435506 -0.703039 0
M  V30 1639 H 149.896 0.170443 -1.68842 0
M  V30 1640 H 148.668 0.72212 -3.84579 0
M  V30 1641 H 148.291 2.32186 -3.22763 0
M  V30 1642 N 149.288 1.51039 0.449983 0
M  V30 1643 C 150.565 1.53612 1.21089 0
M  V30 1644 C 150.945 0.292997 2.09057 0
M  V30 1645 O 150.293 -0.72259 2.16774 0
M  V30 1646 C 150.503 2.84337 2.0237 0
M  V30 1647 C 151.851 3.35807 2.59843 0
M  V30 1648 O 152.875 2.85802 2.12593 0
M  V30 1649 O 151.734 4.23029 3.45989 0
M  V30 1650 H 148.828 0.617057 0.550608 0
M  V30 1651 H 151.374 1.63344 0.460082 0
M  V30 1652 H 150.146 3.66278 1.37681 0
M  V30 1653 H 149.769 2.77708 2.84542 0
M  V30 1654 N 150.766 -0.704594 1.40972 0
M  V30 1655 C 152.012 -1.46675 1.40051 0
M  V30 1656 C 152.345 -1.94199 0.00641102 0
M  V30 1657 O 151.62 -1.68916 -0.964235 0
M  V30 1658 C 151.903 -2.68505 2.39952 0
M  V30 1659 C 151.756 -2.26805 3.88432 0
M  V30 1660 C 153.075 -3.70686 2.37233 0
M  V30 1661 H 150.194 -0.532015 0.510028 0
M  V30 1662 H 152.836 -0.803255 1.72185 0
M  V30 1663 H 150.986 -3.25114 2.1268 0
M  V30 1664 H 152.658 -1.75592 4.26574 0
M  V30 1665 H 150.901 -1.58685 4.03734 0
M  V30 1666 H 151.572 -3.14181 4.53866 0
M  V30 1667 H 154.048 -3.23731 2.61415 0
M  V30 1668 H 152.924 -4.53553 3.09162 0
M  V30 1669 H 153.185 -4.19754 1.38777 0
M  V30 1670 N 152.244 -1.26651 -0.937939 0
M  V30 1671 C 153.207 -1.08546 -2.01867 0
M  V30 1672 C 154.207 -0.0327327 -1.60767 0
M  V30 1673 O 155.397 -0.276427 -1.71993 0
M  V30 1674 C 152.529 -0.651711 -3.34613 0
M  V30 1675 H 153.722 -2.04502 -2.1936 0
M  V30 1676 H 151.275 -1.09294 -1.11734 0
M  V30 1677 H 152.01 0.309696 -3.22818 0
M  V30 1678 H 151.795 -1.41189 -3.65798 0
M  V30 1679 H 153.285 -0.546973 -4.14002 0
M  V30 1680 N 153.722 1.14298 -1.08507 0
M  V30 1681 C 154.652 2.21542 -0.737646 0
M  V30 1682 C 155.633 1.67773 0.280377 0
M  V30 1683 O 156.818 1.93616 0.150521 0
M  V30 1684 C 153.948 3.46988 -0.147259 0
M  V30 1685 C 152.902 4.13789 -1.09374 0
M  V30 1686 C 152.228 5.33449 -0.365524 0
M  V30 1687 C 153.528 4.62208 -2.4323 0
M  V30 1688 H 155.222 2.5086 -1.6343 0
M  V30 1689 H 152.768 1.20576 -0.787243 0
M  V30 1690 H 154.721 4.21262 0.107808 0
M  V30 1691 H 153.445 3.17037 0.784538 0
M  V30 1692 H 152.104 3.4147 -1.33393 0
M  V30 1693 H 151.752 4.99759 0.57011 0
M  V30 1694 H 151.452 5.79088 -0.996512 0
M  V30 1695 H 152.976 6.10485 -0.118534 0
M  V30 1696 H 154.39 5.27952 -2.23472 0
M  V30 1697 H 152.787 5.18553 -3.02031 0
M  V30 1698 H 153.857 3.77224 -3.04681 0
M  V30 1699 N 155.201 0.870884 1.31352 0
M  V30 1700 C 156.148 0.325425 2.28494 0
M  V30 1701 C 157.118 -0.576615 1.5577 0
M  V30 1702 O 158.303 -0.508059 1.83911 0
M  V30 1703 C 155.443 -0.466283 3.41935 0
M  V30 1704 C 154.556 0.463378 4.29508 0
M  V30 1705 C 153.691 -0.342544 5.30094 0
M  V30 1706 C 152.73 0.583486 6.09313 0
M  V30 1707 N 151.867 -0.186244 7.01853 0
M  V30 1708 H 156.707 1.15901 2.74538 0
M  V30 1709 H 154.244 0.58294 1.35056 0
M  V30 1710 H 156.202 -0.941085 4.06447 0
M  V30 1711 H 154.832 -1.26456 2.97 0
M  V30 1712 H 153.884 1.05663 3.65431 0
M  V30 1713 H 155.196 1.1734 4.84802 0
M  V30 1714 H 154.35 -0.879816 6.00287 0
M  V30 1715 H 153.089 -1.08585 4.75458 0
M  V30 1716 H 152.094 1.13251 5.3801 0
M  V30 1717 H 153.319 1.32566 6.66035 0
M  V30 1718 H 151.265 -0.912348 6.49625 0
M  V30 1719 H 151.182 0.464422 7.54572 0
M  V30 1720 H 152.45 -0.704716 7.76308 0
M  V30 1721 N 156.679 -1.44442 0.630414 0
M  V30 1722 C 157.904 -2.06927 0.139944 0
M  V30 1723 C 158.329 -1.46795 -1.17613 0
M  V30 1724 O 157.687 -0.569144 -1.72135 0
M  V30 1725 C 157.735 -3.6058 0.0379581 0
M  V30 1726 O 156.839 -3.99937 -1.0062 0
M  V30 1727 H 156.18 -0.658608 0.0844483 0
M  V30 1728 H 158.71 -1.85327 0.866891 0
M  V30 1729 H 158.72 -4.07714 -0.152856 0
M  V30 1730 H 157.395 -4.03728 0.998809 0
M  V30 1731 H 155.972 -3.64436 -0.79001 0
M  V30 1732 N 158.157 -0.370918 -1.53173 0
M  V30 1733 C 159.087 0.464847 -2.28826 0
M  V30 1734 C 160.068 1.07936 -1.31468 0
M  V30 1735 O 161.253 1.0956 -1.60344 0
M  V30 1736 C 158.383 1.60196 -3.08147 0
M  V30 1737 C 157.337 1.11443 -4.13237 0
M  V30 1738 C 156.663 2.3422 -4.80672 0
M  V30 1739 C 157.963 0.195384 -5.21934 0
M  V30 1740 H 159.657 -0.166329 -2.98938 0
M  V30 1741 H 157.203 -0.0814359 -1.4377 0
M  V30 1742 H 159.156 2.19332 -3.59822 0
M  V30 1743 H 157.88 2.26045 -2.35735 0
M  V30 1744 H 156.539 0.545727 -3.62515 0
M  V30 1745 H 156.187 2.98537 -4.04827 0
M  V30 1746 H 155.887 2.02269 -5.51689 0
M  V30 1747 H 157.411 2.94032 -5.35143 0
M  V30 1748 H 158.825 0.694375 -5.69079 0
M  V30 1749 H 157.222 -0.0335027 -6.00091 0
M  V30 1750 H 158.292 -0.760961 -4.78892 0
M  V30 1751 N 159.635 1.57281 -0.100228 0
M  V30 1752 C 160.582 2.14305 0.856858 0
M  V30 1753 C 161.552 1.06296 1.27634 0
M  V30 1754 O 162.737 1.34109 1.35718 0
M  V30 1755 C 159.877 2.73184 2.10866 0
M  V30 1756 C 158.99 3.95442 1.73925 0
M  V30 1757 C 158.125 4.42468 2.93931 0
M  V30 1758 C 157.164 5.57303 2.5314 0
M  V30 1759 N 156.301 5.99158 3.65997 0
M  V30 1760 H 161.141 2.95772 0.363726 0
M  V30 1761 H 158.678 1.46139 0.167858 0
M  V30 1762 H 160.636 3.05442 2.84185 0
M  V30 1763 H 159.266 1.94437 2.57671 0
M  V30 1764 H 158.318 3.69464 0.905554 0
M  V30 1765 H 159.63 4.78769 1.39935 0
M  V30 1766 H 158.784 4.76537 3.75496 0
M  V30 1767 H 157.523 3.58052 3.31134 0
M  V30 1768 H 156.528 5.22857 1.70003 0
M  V30 1769 H 157.753 6.43471 2.17075 0
M  V30 1770 H 155.699 5.17687 4.02909 0
M  V30 1771 H 155.616 6.77295 3.35869 0
M  V30 1772 H 156.884 6.3786 4.48057 0
M  V30 1773 N 161.113 -0.173488 1.56642 0
M  V30 1774 C 162.023 -1.23482 1.99473 0
M  V30 1775 C 163.039 -1.48567 0.905752 0
M  V30 1776 O 164.215 -1.60758 1.21321 0
M  V30 1777 C 161.28 -2.55444 2.34413 0
M  V30 1778 C 160.341 -2.38241 3.57127 0
M  V30 1779 C 159.574 -3.63909 3.90392 0
M  V30 1780 O 159.797 -4.68996 3.24653 0
M  V30 1781 O 158.731 -3.58149 4.83749 0
M  V30 1782 H 162.557 -0.901279 2.90018 0
M  V30 1783 H 160.142 -0.380185 1.44482 0
M  V30 1784 H 162.024 -3.33292 2.57865 0
M  V30 1785 H 160.699 -2.88382 1.4703 0
M  V30 1786 H 159.606 -1.58431 3.38896 0
M  V30 1787 H 160.939 -2.10228 4.45045 0
M  V30 1788 N 162.591 -1.51276 -0.441967 0
M  V30 1789 C 163.524 -1.66933 -1.55591 0
M  V30 1790 C 164.502 -0.516958 -1.54163 0
M  V30 1791 O 165.686 -0.740209 -1.73358 0
M  V30 1792 C 162.813 -1.67866 -2.94174 0
M  V30 1793 C 161.859 -2.89013 -3.13646 0
M  V30 1794 S 162.692 -4.49897 -2.90436 0
M  V30 1795 C 163.848 -4.53568 -4.31308 0
M  V30 1796 H 164.081 -2.61155 -1.42076 0
M  V30 1797 H 161.614 -1.40902 -0.631341 0
M  V30 1798 H 163.572 -1.69089 -3.74058 0
M  V30 1799 H 162.233 -0.748296 -3.05056 0
M  V30 1800 H 161.426 -2.86054 -4.14957 0
M  V30 1801 H 161.028 -2.85509 -2.4158 0
M  V30 1802 H 163.32 -4.28924 -5.24434 0
M  V30 1803 H 164.263 -5.55355 -4.39303 0
M  V30 1804 H 164.671 -3.82943 -4.14747 0
M  V30 1805 N 164.069 0.697108 -1.41344 0
M  V30 1806 C 165.317 1.45426 -1.40341 0
M  V30 1807 C 165.638 1.94996 -0.0128787 0
M  V30 1808 O 164.908 1.71599 0.945027 0
M  V30 1809 H 163.488 0.539594 -0.516573 0
M  V30 1810 H 166.15 0.825201 -1.76569 0
M  V30 1811 H 165.246 2.31817 -2.08967 0
M  V30 1812 N 165.547 1.27147 0.931209 0
M  V30 1813 C 166.794 1.13278 1.67852 0
M  V30 1814 C 167.122 -0.32204 1.91815 0
M  V30 1815 O 166.377 -1.25224 1.50391 0
M  V30 1816 C 166.676 1.8579 3.05314 0
M  V30 1817 C 166.342 3.35657 3.01073 0
M  V30 1818 C 165.004 3.76536 2.99623 0
M  V30 1819 C 167.356 4.31299 2.92627 0
M  V30 1820 C 164.684 5.11426 2.87506 0
M  V30 1821 C 167.036 5.66242 2.82051 0
M  V30 1822 C 165.7 6.06418 2.7895 0
M  V30 1823 H 164.97 0.414515 0.614214 0
M  V30 1824 H 167.617 1.57712 1.08624 0
M  V30 1825 H 165.922 1.33854 3.68226 0
M  V30 1826 H 167.619 1.72491 3.62005 0
M  V30 1827 H 164.209 3.03146 3.02986 0
M  V30 1828 H 168.393 4.00692 2.92848 0
M  V30 1829 H 163.649 5.41705 2.83489 0
M  V30 1830 H 167.823 6.40026 2.74481 0
M  V30 1831 H 165.45 7.10895 2.69318 0
M  V30 1832 N 167.025 -1.13721 1.09112 0
M  V30 1833 C 168.272 -1.84924 0.825192 0
M  V30 1834 C 168.6 -1.83347 -0.649151 0
M  V30 1835 O 167.855 -1.26449 -1.49362 0
M  V30 1836 C 168.154 -3.32861 1.30146 0
M  V30 1837 C 167.82 -3.54621 2.78486 0
M  V30 1838 C 166.482 -3.60268 3.18999 0
M  V30 1839 C 168.834 -3.62855 3.74146 0
M  V30 1840 C 166.162 -3.71679 4.53951 0
M  V30 1841 C 168.514 -3.75793 5.08883 0
M  V30 1842 C 167.178 -3.79692 5.4899 0
M  V30 1843 H 166.448 -0.676684 0.301959 0
M  V30 1844 H 169.095 -1.3428 1.36533 0
M  V30 1845 H 167.4 -3.85835 0.681064 0
M  V30 1846 H 169.097 -3.86395 1.07236 0
M  V30 1847 H 165.687 -3.50879 2.46134 0
M  V30 1848 H 169.871 -3.57775 3.43963 0
M  V30 1849 H 165.127 -3.72963 4.84467 0
M  V30 1850 H 169.301 -3.81107 5.82864 0
M  V30 1851 H 166.928 -3.88287 6.53558 0
M  V30 1852 N 168.503 -0.877838 -1.30888 0
M  V30 1853 C 169.743 -0.499301 -1.98208 0
M  V30 1854 C 170.107 0.932649 -1.67826 0
M  V30 1855 O 171.308 1.41694 -2.28421 0
M  V30 1856 C 169.579 -0.758221 -3.49265 0
M  V30 1857 S 171.138 -0.480719 -4.36159 0
M  V30 1858 H 167.956 -0.186062 -0.686223 0
M  V30 1859 H 170.558 -1.13556 -1.59139 0
M  V30 1860 H 169.262 -1.79903 -3.68867 0
M  V30 1861 H 168.793 -0.109247 -3.93248 0
M  V30 1862 H 170.808 0.683698 -4.91467 0
M  V30 1863 N 169.982 1.44106 -0.638065 0
M  V30 1864 C 171.398 1.56672 -0.304286 0
M  V30 1865 C 171.598 1.6244 1.19228 0
M  V30 1866 O 170.654 1.57121 1.9766 0
M  V30 1867 C 171.967 2.83503 -1.00231 0
M  V30 1868 C 173.515 2.97226 -0.981116 0
M  V30 1869 C 173.99 4.26868 -1.65974 0
M  V30 1870 N 175.481 4.33698 -1.62666 0
M  V30 1871 C 176.216 5.32745 -2.12063 0
M  V30 1872 N 175.712 6.38157 -2.6968 0
M  V30 1873 N 177.505 5.24299 -2.02651 0
M  V30 1874 H 169.656 1.38605 -1.60942 0
M  V30 1875 H 171.919 0.664661 -0.675965 0
M  V30 1876 H 171.625 2.85251 -2.0573 0
M  V30 1877 H 171.499 3.73251 -0.54439 0
M  V30 1878 H 173.886 2.95027 0.0654188 0
M  V30 1879 H 173.967 2.08808 -1.47759 0
M  V30 1880 H 173.611 4.29826 -2.70576 0
M  V30 1881 H 173.541 5.14156 -1.13804 0
M  V30 1882 H 176.032 3.58138 -1.20606 0
M  V30 1883 H 176.345 7.10029 -3.05087 0
M  V30 1884 H 174.69 6.38823 -2.73734 0
M  V30 1885 H 177.881 4.4086 -1.57353 0
M  V30 1886 H 178.054 6.01334 -2.41457 0
M  V30 1887 N 171.46 0.379036 1.52974 0
M  V30 1888 C 172.871 -0.0972525 1.86447 0
M  V30 1889 C 173.222 -1.47027 1.29914 0
M  V30 1890 O 172.347 -2.07135 0.626433 0
M  V30 1891 C 172.942 -0.183248 3.38304 0
M  V30 1892 C 171.501 -0.603812 3.71525 0
M  V30 1893 C 170.648 0.240632 2.76254 0
M  V30 1894 H 173.599 0.597316 1.4703 0
M  V30 1895 H 173.62 -1.00432 3.67006 0
M  V30 1896 H 173.132 0.816191 3.79421 0
M  V30 1897 H 171.233 -1.61099 3.35973 0
M  V30 1898 H 171.346 -0.369086 4.77676 0
M  V30 1899 H 169.71 -0.292548 2.53014 0
M  V30 1900 H 170.493 1.23786 3.20206 0
M  V30 1901 N 172.938 -1.57226 0.108567 0
M  V30 1902 C 174.349 -1.8195 -0.418464 0
M  V30 1903 C 174.7 -1.02508 -1.67292 0
M  V30 1904 O 173.825 -0.258496 -2.14851 0
M  V30 1905 C 174.42 -3.30028 -0.765979 0
M  V30 1906 C 172.979 -3.55469 -1.23769 0
M  V30 1907 C 172.126 -2.7625 -0.241106 0
M  V30 1908 H 175.077 -1.55149 0.33384 0
M  V30 1909 H 175.098 -3.44086 -1.62434 0
M  V30 1910 H 174.61 -3.87821 0.147219 0
M  V30 1911 H 172.711 -3.03022 -2.16814 0
M  V30 1912 H 172.824 -4.6408 -1.19022 0
M  V30 1913 H 171.188 -2.44133 -0.72602 0
M  V30 1914 H 171.971 -3.36797 0.665007 0
M  V30 1915 N 174.416 0.165178 -1.56732 0
M  V30 1916 C 175.379 1.18822 -1.95995 0
M  V30 1917 C 176.379 1.3685 -0.84431 0
M  V30 1918 O 177.569 1.34152 -1.11126 0
M  V30 1919 C 174.701 2.5521 -2.26011 0
M  V30 1920 H 175.894 0.851825 -2.87548 0
M  V30 1921 H 173.447 0.407857 -1.50885 0
M  V30 1922 H 174.182 2.93852 -1.37191 0
M  V30 1923 H 173.967 2.43489 -3.07336 0
M  V30 1924 H 175.457 3.28927 -2.57288 0
M  V30 1925 N 175.894 1.51508 0.433938 0
M  V30 1926 C 176.844 1.69451 1.52546 0
M  V30 1927 C 177.828 0.548474 1.51263 0
M  V30 1928 O 179.02 0.804529 1.57659 0
M  V30 1929 C 176.149 1.82604 2.90707 0
M  V30 1930 C 175.235 3.03002 2.96733 0
M  V30 1931 N 175.626 4.26121 2.72496 0
M  V30 1932 C 173.924 3.02327 3.27894 0
M  V30 1933 C 174.625 5.07407 2.84452 0
M  V30 1934 N 173.601 4.42126 3.16269 0
M  V30 1935 H 177.403 2.62305 1.32564 0
M  V30 1936 H 174.917 1.49202 0.641297 0
M  V30 1937 H 176.914 1.93569 3.69238 0
M  V30 1938 H 175.574 0.909339 3.11707 0
M  V30 1939 H 176.585 4.55009 2.4736 0
M  V30 1940 H 173.262 2.20301 3.54646 0
M  V30 1941 H 174.652 6.15422 2.69639 0
M  V30 1942 N 177.372 -0.689602 1.41712 0
M  V30 1943 C 178.335 -1.78521 1.43746 0
M  V30 1944 C 179.335 -1.57436 0.327191 0
M  V30 1945 O 180.525 -1.64 0.587348 0
M  V30 1946 C 177.657 -3.16971 1.25467 0
M  V30 1947 H 178.85 -1.78108 2.41283 0
M  V30 1948 H 176.403 -0.89781 1.27942 0
M  V30 1949 H 177.138 -3.23019 0.287948 0
M  V30 1950 H 176.923 -3.33678 2.05917 0
M  V30 1951 H 178.413 -3.96935 1.2974 0
M  V30 1952 N 178.85 -1.27639 -0.924453 0
M  V30 1953 C 179.797 -1.10644 -2.0255 0
M  V30 1954 C 180.767 -0.00658438 -1.66099 0
M  V30 1955 O 181.952 -0.16952 -1.90045 0
M  V30 1956 C 179.092 -0.76309 -3.36557 0
M  V30 1957 C 178.205 -1.94091 -3.85944 0
M  V30 1958 C 177.34 -1.53914 -5.08413 0
M  V30 1959 C 176.379 -2.68425 -5.50104 0
M  V30 1960 N 175.516 -2.28815 -6.63768 0
M  V30 1961 H 180.356 -2.04858 -2.16419 0
M  V30 1962 H 177.893 -1.01974 -1.06017 0
M  V30 1963 H 179.851 -0.544822 -4.13627 0
M  V30 1964 H 178.481 0.142102 -3.22487 0
M  V30 1965 H 177.533 -2.27162 -3.05125 0
M  V30 1966 H 178.845 -2.7998 -4.12811 0
M  V30 1967 H 177.999 -1.28231 -5.92994 0
M  V30 1968 H 176.738 -0.651391 -4.8333 0
M  V30 1969 H 175.743 -2.94819 -4.64071 0
M  V30 1970 H 176.968 -3.57826 -5.7718 0
M  V30 1971 H 174.914 -1.42495 -6.40337 0
M  V30 1972 H 174.831 -3.08242 -6.90306 0
M  V30 1973 H 176.099 -2.06387 -7.51681 0
M  V30 1974 N 180.328 1.1314 -1.09713 0
M  V30 1975 C 181.553 1.88862 -0.857081 0
M  V30 1976 C 181.978 1.78729 0.586304 0
M  V30 1977 O 181.336 1.13692 1.41222 0
M  V30 1978 C 181.384 3.36325 -1.30069 0
M  V30 1979 O 180.488 4.09815 -0.461007 0
M  V30 1980 H 179.829 0.587108 -0.310162 0
M  V30 1981 H 182.359 1.43129 -1.46203 0
M  V30 1982 H 182.369 3.87157 -1.28738 0
M  V30 1983 H 181.044 3.43017 -2.35185 0
M  V30 1984 H 179.621 3.68986 -0.538888 0
M  V30 1985 N 181.806 0.884767 1.30421 0
M  V30 1986 C 183.034 0.518044 2.0031 0
M  V30 1987 C 183.449 -0.893408 1.66324 0
M  V30 1988 O 182.806 -1.5875 0.900262 0
M  V30 1989 C 182.857 0.682997 3.54989 0
M  V30 1990 O 182.578 2.03888 3.87764 0
M  V30 1991 C 184.079 0.31924 4.42149 0
M  V30 1992 H 181.299 0.200265 0.640418 0
M  V30 1993 H 183.843 1.19001 1.6631 0
M  V30 1994 H 181.998 0.0584052 3.87356 0
M  V30 1995 H 182.412 2.05735 4.82466 0
M  V30 1996 H 183.886 0.485555 5.4986 0
M  V30 1997 H 184.363 -0.742717 4.32875 0
M  V30 1998 H 184.969 0.920147 4.15227 0
M  V30 1999 N 183.284 -1.43765 0.645699 0
M  V30 2000 C 184.247 -2.29163 -0.0409488 0
M  V30 2001 C 185.247 -1.41813 -0.757996 0
M  V30 2002 O 186.437 -1.63527 -0.600382 0
M  V30 2003 C 183.569 -3.23716 -1.06869 0
M  V30 2004 H 184.762 -2.91366 0.710345 0
M  V30 2005 H 182.315 -1.5092 0.406547 0
M  V30 2006 H 183.05 -2.66393 -1.84947 0
M  V30 2007 H 182.835 -3.88105 -0.558277 0
M  V30 2008 H 184.325 -3.87831 -1.54845 0
M  V30 2009 N 184.763 -0.387143 -1.52771 0
M  V30 2010 C 185.726 0.436939 -2.24997 0
M  V30 2011 C 186.726 0.991991 -1.26555 0
M  V30 2012 O 187.916 0.874335 -1.50669 0
M  V30 2013 C 185.048 1.61281 -3.00335 0
M  V30 2014 H 186.241 -0.195365 -2.99263 0
M  V30 2015 H 183.794 -0.139218 -1.55679 0
M  V30 2016 H 184.529 2.2826 -2.30364 0
M  V30 2017 H 184.314 1.22154 -3.72587 0
M  V30 2018 H 185.804 2.19629 -3.5518 0
M  V30 2019 N 186.241 1.57166 -0.116904 0
M  V30 2020 C 187.466 1.999 0.55271 0
M  V30 2021 C 187.891 0.996039 1.59564 0
M  V30 2022 O 187.249 -0.032556 1.81271 0
M  V30 2023 C 187.297 3.4152 1.15742 0
M  V30 2024 O 186.401 3.44106 2.27299 0
M  V30 2025 H 185.742 0.649447 0.138258 0
M  V30 2026 H 188.272 2.03573 -0.204759 0
M  V30 2027 H 188.282 3.79684 1.49346 0
M  V30 2028 H 186.957 4.14034 0.393493 0
M  V30 2029 H 185.534 3.17759 1.9515 0
M  V30 2030 N 187.719 -0.156864 1.56817 0
M  V30 2031 C 188.967 -0.869404 1.82444 0
M  V30 2032 C 189.288 -1.82147 0.69623 0
M  V30 2033 O 188.558 -1.93847 -0.28287 0
M  V30 2034 H 187.138 -0.324043 0.673056 0
M  V30 2035 H 189.8 -0.153224 1.94297 0
M  V30 2036 H 188.896 -1.43761 2.77019 0
M  V30 2037 N 189.197 -1.51736 -0.425897 0
M  V30 2038 C 190.129 -1.70083 -1.53638 0
M  V30 2039 C 191.142 -0.581349 -1.52066 0
M  V30 2040 O 192.331 -0.856017 -1.56635 0
M  V30 2041 C 189.431 -1.71078 -2.9255 0
M  V30 2042 C 188.604 -2.99795 -3.185 0
M  V30 2043 C 187.663 -2.92825 -4.37196 0
M  V30 2044 O 186.689 -3.66756 -4.35291 0
M  V30 2045 N 187.891 -2.0946 -5.41393 0
M  V30 2046 H 190.656 -2.65882 -1.383 0
M  V30 2047 H 188.217 -1.49765 -0.614988 0
M  V30 2048 H 190.209 -1.63969 -3.69995 0
M  V30 2049 H 188.779 -0.828242 -3.01428 0
M  V30 2050 H 187.999 -3.20684 -2.2925 0
M  V30 2051 H 189.287 -3.84977 -3.32671 0
M  V30 2052 H 188.685 -1.48792 -5.45781 0
M  V30 2053 H 187.242 -2.08221 -6.17647 0
M  V30 2054 N 190.675 0.682077 -1.42076 0
M  V30 2055 C 192.091 0.994324 -1.24841 0
M  V30 2056 C 192.291 2.0096 -0.147389 0
M  V30 2057 O 191.347 2.47822 0.483782 0
M  V30 2058 C 192.66 1.50607 -2.60265 0
M  V30 2059 C 194.208 1.62421 -2.6756 0
M  V30 2060 C 194.683 2.16994 -4.03333 0
M  V30 2061 N 196.174 2.24337 -4.0525 0
M  V30 2062 C 196.909 2.67621 -5.07116 0
M  V30 2063 N 196.405 3.1041 -6.19368 0
M  V30 2064 N 198.198 2.67305 -4.94474 0
M  V30 2065 H 190.349 0.00973908 -2.12398 0
M  V30 2066 H 192.612 0.0668593 -0.945639 0
M  V30 2067 H 192.318 0.834583 -3.41654 0
M  V30 2068 H 192.192 2.48602 -2.83684 0
M  V30 2069 H 194.579 2.28678 -1.86521 0
M  V30 2070 H 194.66 0.629352 -2.47937 0
M  V30 2071 H 194.304 1.51349 -4.84826 0
M  V30 2072 H 194.234 3.17258 -4.20304 0
M  V30 2073 H 196.725 1.94158 -3.24209 0
M  V30 2074 H 197.038 3.42103 -6.92954 0
M  V30 2075 H 195.383 3.08286 -6.22884 0
M  V30 2076 H 198.574 2.33233 -4.05857 0
M  V30 2077 H 198.747 3.00718 -5.73997 0
M  V30 2078 N 192.153 1.28127 0.917671 0
M  V30 2079 C 193.381 1.17892 1.70026 0
M  V30 2080 C 193.796 -0.262958 1.8696 0
M  V30 2081 O 193.153 -1.17811 1.3938 0
M  V30 2082 C 193.204 1.86872 3.09453 0
M  V30 2083 O 192.925 3.25428 2.93306 0
M  V30 2084 C 194.426 1.8289 4.03815 0
M  V30 2085 H 191.646 0.40942 0.531617 0
M  V30 2086 H 194.19 1.69181 1.14883 0
M  V30 2087 H 192.345 1.39464 3.61426 0
M  V30 2088 H 192.759 3.59918 3.81523 0
M  V30 2089 H 194.233 2.35751 4.99125 0
M  V30 2090 H 194.71 0.800412 4.31845 0
M  V30 2091 H 195.316 2.29959 3.57769 0
M  V30 2092 N 193.631 -1.12557 1.10312 0
M  V30 2093 C 194.579 -2.20325 0.745629 0
M  V30 2094 C 195.573 -1.67429 -0.25763 0
M  V30 2095 O 196.779 -1.79612 -0.118132 0
M  V30 2096 H 193.154 -0.718118 0.223182 0
M  V30 2097 H 195.125 -2.47733 1.66346 0
M  V30 2098 C 193.874 -3.47168 0.192262 0
M  V30 2099 H 193.197 -3.88215 0.955475 0
M  V30 2100 H 194.637 -4.23995 -0.0198274 0
M  V30 2101 C 193.096 -3.19298 -1.07472 0
M  V30 2102 O 193.626 -3.3891 -2.15645 0
M  V30 2103 N 191.832 -2.73113 -0.992847 0
M  V30 2104 H 191.379 -2.57354 -0.112474 0
M  V30 2105 H 191.337 -2.54842 -1.84127 0
M  V30 2106 N 195.109 -0.891671 -1.2995 0
M  V30 2107 C 196.357 -0.512486 -1.95494 0
M  V30 2108 C 196.678 0.942776 -1.70695 0
M  V30 2109 O 195.948 1.66374 -1.03424 0
M  V30 2110 H 194.528 -0.186533 -0.723336 0
M  V30 2111 H 197.19 -1.13621 -1.58355 0
M  V30 2112 H 196.286 -0.688342 -3.04415 0
M  V30 2113 N 196.587 1.43421 -0.653314 0
M  V30 2114 C 197.835 2.01414 -0.166415 0
M  V30 2115 C 198.156 1.51803 1.22397 0
M  V30 2116 O 197.426 0.730693 1.81763 0
M  V30 2117 H 196.006 0.744703 -0.0585319 0
M  V30 2118 H 198.668 1.75629 -0.845003 0
M  V30 2119 H 197.764 3.11734 -0.151111 0
M  V30 2120 N 198.065 0.39524 1.52563 0
M  V30 2121 C 199.342 -0.242908 1.94086 0
M  V30 2122 C 199.722 -1.63841 1.33114 0
M  V30 2123 O 199.07 -2.22928 0.501529 0
M  V30 2124 C 199.28 -0.26327 3.48006 0
M  V30 2125 C 200.628 -0.489354 4.21771 0
M  V30 2126 O 201.652 -0.343226 3.54543 0
M  V30 2127 O 200.511 -0.776169 5.4096 0
M  V30 2128 H 197.605 -0.152536 0.812811 0
M  V30 2129 H 200.151 0.450178 1.6362 0
M  V30 2130 H 198.923 0.713985 3.84731 0
M  V30 2131 H 198.546 -1.00103 3.84792 0
M  V30 2132 N 199.544 -1.57102 0.125237 0
M  V30 2133 C 200.792 -1.95021 -0.530198 0
M  V30 2134 C 201.113 -1.00982 -1.66816 0
M  V30 2135 O 200.383 -0.0672693 -1.95784 0
M  V30 2136 H 198.963 -0.720046 -0.198853 0
M  V30 2137 H 201.625 -1.93916 0.19564 0
M  V30 2138 H 200.721 -2.98211 -0.920681 0
M  V30 2139 N 201.022 0.148545 -1.56898 0
M  V30 2140 C 202.299 0.890019 -1.74178 0
M  V30 2141 C 202.679 1.99407 -0.692839 0
M  V30 2142 O 202.027 2.26671 0.288505 0
M  V30 2143 C 202.237 1.43389 -3.18183 0
M  V30 2144 C 203.585 1.89791 -3.79822 0
M  V30 2145 O 204.609 1.53134 -3.21603 0
M  V30 2146 O 203.468 2.57387 -4.82093 0
M  V30 2147 H 200.562 0.420496 -0.712118 0
M  V30 2148 H 203.108 0.134591 -1.69165 0
M  V30 2149 H 201.88 0.640383 -3.86024 0
M  V30 2150 H 201.503 2.25287 -3.27615 0
M  V30 2151 N 202.5 1.5196 0.417844 0
M  V30 2152 C 203.748 1.65263 1.16329 0
M  V30 2153 C 204.069 0.380634 1.91249 0
M  V30 2154 O 203.339 -0.604214 1.86349 0
M  V30 2155 H 201.919 0.60912 0.432414 0
M  V30 2156 H 204.581 1.88969 0.477162 0
M  V30 2157 H 203.677 2.4896 1.88217 0
M  V30 2158 N 203.978 -0.674533 1.42435 0
M  V30 2159 C 205.255 -1.4305 1.33402 0
M  V30 2160 C 205.635 -2.11081 -0.0284674 0
M  V30 2161 O 204.983 -2.03257 -1.04397 0
M  V30 2162 C 205.193 -2.43272 2.50239 0
M  V30 2163 C 206.541 -3.07907 2.92367 0
M  V30 2164 O 207.565 -2.53599 2.50132 0
M  V30 2165 O 206.424 -4.0632 3.65467 0
M  V30 2166 H 203.518 -0.638076 0.526106 0
M  V30 2167 H 206.064 -0.703235 1.54443 0
M  V30 2168 H 204.836 -1.91803 3.41068 0
M  V30 2169 H 204.459 -3.23479 2.31186 0
M  V30 2170 N 205.456 -1.28612 -0.910864 0
M  V30 2171 C 206.733 -1.06632 -1.63979 0
M  V30 2172 C 207.113 0.393351 -2.07403 0
M  V30 2173 O 206.461 1.37999 -1.82122 0
M  V30 2174 C 206.671 -2.0436 -2.8291 0
M  V30 2175 C 208.019 -2.34666 -3.5386 0
M  V30 2176 O 209.043 -2.02467 -2.93062 0
M  V30 2177 O 207.902 -2.89631 -4.63439 0
M  V30 2178 H 204.996 -0.407737 -0.7195 0
M  V30 2179 H 207.542 -1.39942 -0.959914 0
M  V30 2180 H 206.314 -3.02727 -2.47936 0
M  V30 2181 H 205.937 -1.71714 -3.58609 0
M  V30 2182 N 206.934 1.1197 -1.10907 0
M  V30 2183 C 207.844 2.21433 -0.774896 0
M  V30 2184 C 208.86 1.72478 0.229657 0
M  V30 2185 O 210.036 2.01288 0.0672008 0
M  V30 2186 C 207.101 3.4602 -0.216986 0
M  V30 2187 C 206.162 4.09791 -1.27944 0
M  V30 2188 C 205.395 5.28431 -0.748055 0
M  V30 2189 O 205.618 5.68823 0.423833 0
M  V30 2190 O 204.552 5.82644 -1.51027 0
M  V30 2191 H 208.378 2.5242 -1.68873 0
M  V30 2192 H 205.963 1.20399 -0.884555 0
M  V30 2193 H 207.845 4.21304 0.090059 0
M  V30 2194 H 206.52 3.16698 0.669633 0
M  V30 2195 H 205.427 3.36265 -1.63941 0
M  V30 2196 H 206.76 4.4328 -2.13925 0
M  V30 2197 N 208.412 0.89855 1.29475 0
M  V30 2198 C 209.342 0.39201 2.30186 0
M  V30 2199 C 210.323 -0.532359 1.61555 0
M  V30 2200 O 211.508 -0.443331 1.89072 0
M  V30 2201 C 208.638 -0.382353 3.45189 0
M  V30 2202 C 207.592 0.451483 4.25612 0
M  V30 2203 C 206.918 -0.450307 5.328 0
M  V30 2204 C 208.218 1.70079 4.93832 0
M  V30 2205 H 209.912 1.23362 2.72804 0
M  V30 2206 H 207.458 0.594638 1.31149 0
M  V30 2207 H 209.411 -0.747451 4.14718 0
M  V30 2208 H 208.135 -1.25774 3.01411 0
M  V30 2209 H 206.794 0.798897 3.57789 0
M  V30 2210 H 206.442 -1.32379 4.85268 0
M  V30 2211 H 206.142 0.103902 5.87508 0
M  V30 2212 H 207.666 -0.811623 6.05182 0
M  V30 2213 H 209.08 1.40549 5.55805 0
M  V30 2214 H 207.477 2.19623 5.58467 0
M  V30 2215 H 208.547 2.43744 4.19186 0
M  V30 2216 N 209.89 -1.43072 0.660911 0
M  V30 2217 C 210.82 -2.33497 -0.0122829 0
M  V30 2218 C 211.801 -1.49903 -0.803925 0
M  V30 2219 O 212.986 -1.78546 -0.763864 0
M  V30 2220 C 210.116 -3.33363 -0.973994 0
M  V30 2221 C 209.07 -4.27003 -0.291928 0
M  V30 2222 C 208.396 -5.16967 -1.36562 0
M  V30 2223 C 209.696 -5.15816 0.820462 0
M  V30 2224 H 211.39 -2.90038 0.742873 0
M  V30 2225 H 208.936 -1.39461 0.358688 0
M  V30 2226 H 210.889 -3.95524 -1.45392 0
M  V30 2227 H 209.613 -2.75095 -1.7604 0
M  V30 2228 H 208.272 -3.66217 0.167623 0
M  V30 2229 H 207.92 -4.55034 -2.14366 0
M  V30 2230 H 207.62 -5.80441 -0.914454 0
M  V30 2231 H 209.144 -5.82003 -1.84675 0
M  V30 2232 H 210.558 -5.71742 0.422366 0
M  V30 2233 H 208.955 -5.8805 1.19656 0
M  V30 2234 H 210.025 -4.55045 1.67518 0
M  V30 2235 N 211.368 -0.403325 -1.52352 0
M  V30 2236 C 212.278 0.432009 -2.30588 0
M  V30 2237 C 213.294 1.05884 -1.38075 0
M  V30 2238 O 214.47 1.06161 -1.71148 0
M  V30 2239 C 211.535 1.53669 -3.10784 0
M  V30 2240 C 210.596 0.933525 -4.19027 0
M  V30 2241 C 209.829 1.98557 -4.9539 0
M  V30 2242 O 210.052 3.20283 -4.71991 0
M  V30 2243 O 208.986 1.59504 -5.80381 0
M  V30 2244 H 212.812 -0.205739 -3.03002 0
M  V30 2245 H 210.397 -0.166675 -1.48467 0
M  V30 2246 H 212.279 2.17814 -3.60742 0
M  V30 2247 H 210.954 2.15915 -2.41169 0
M  V30 2248 H 209.861 0.254954 -3.7323 0
M  V30 2249 H 211.194 0.35508 -4.90918 0
M  V30 2250 N 212.846 1.57033 -0.133567 0
M  V30 2251 C 213.776 2.1909 0.807567 0
M  V30 2252 C 214.757 1.13517 1.26681 0
M  V30 2253 O 215.942 1.41809 1.32679 0
M  V30 2254 C 213.072 2.80188 2.05212 0
M  V30 2255 C 212.026 3.91471 1.73015 0
M  V30 2256 C 211.352 4.39443 3.04622 0
M  V30 2257 C 212.652 5.12886 0.987168 0
M  V30 2258 H 214.346 2.97988 0.290403 0
M  V30 2259 H 211.892 1.43335 0.138239 0
M  V30 2260 H 213.845 3.22264 2.71521 0
M  V30 2261 H 212.569 1.98601 2.59278 0
M  V30 2262 H 211.228 3.49993 1.0909 0
M  V30 2263 H 210.876 3.54695 3.56651 0
M  V30 2264 H 210.576 5.14495 2.83847 0
M  V30 2265 H 212.1 4.8418 3.72024 0
M  V30 2266 H 213.514 5.51891 1.55208 0
M  V30 2267 H 211.911 5.93615 0.87985 0
M  V30 2268 H 212.981 4.84894 -0.0235286 0
M  V30 2269 N 214.325 -0.140222 1.56975 0
M  V30 2270 C 215.258 -1.20266 1.93936 0
M  V30 2271 C 216.236 -1.41212 0.806099 0
M  V30 2272 O 217.42 -1.55713 1.06234 0
M  V30 2273 C 214.547 -2.56037 2.21726 0
M  V30 2274 C 213.593 -2.51646 3.44349 0
M  V30 2275 S 214.426 -1.97678 4.97678 0
M  V30 2276 C 215.582 -3.35165 5.28597 0
M  V30 2277 H 215.815 -0.887358 2.83749 0
M  V30 2278 H 213.348 -0.346119 1.50471 0
M  V30 2279 H 215.306 -3.34167 2.38416 0
M  V30 2280 H 213.967 -2.84755 1.32566 0
M  V30 2281 H 213.16 -3.51608 3.61092 0
M  V30 2282 H 212.762 -1.81628 3.26936 0
M  V30 2283 H 215.054 -4.31302 5.2248 0
M  V30 2284 H 215.997 -3.23269 6.30002 0
M  V30 2285 H 216.405 -3.32614 4.56101 0
M  V30 2286 N 215.803 -1.52179 -0.40978 0
M  V30 2287 C 217.05 -1.66206 -1.15679 0
M  V30 2288 C 217.378 -0.391674 -1.90516 0
M  V30 2289 O 216.633 0.62533 -1.8544 0
M  V30 2290 C 216.932 -2.83428 -2.17723 0
M  V30 2291 C 216.598 -4.21672 -1.59699 0
M  V30 2292 C 215.26 -4.59274 -1.43599 0
M  V30 2293 C 217.612 -5.07825 -1.17317 0
M  V30 2294 C 214.94 -5.80709 -0.836328 0
M  V30 2295 C 217.292 -6.29864 -0.587691 0
M  V30 2296 C 215.956 -6.66216 -0.413818 0
M  V30 2297 H 215.226 -0.608192 -0.423301 0
M  V30 2298 H 217.873 -1.86279 -0.444097 0
M  V30 2299 H 216.178 -2.57687 -2.95135 0
M  V30 2300 H 217.875 -2.91477 -2.75394 0
M  V30 2301 H 214.465 -3.9204 -1.73213 0
M  V30 2302 H 218.649 -4.79359 -1.28565 0
M  V30 2303 H 213.905 -6.07498 -0.689626 0
M  V30 2304 H 218.079 -6.95948 -0.250894 0
M  V30 2305 H 215.706 -7.60182 0.0529471 0
M  V30 2306 N 217.281 0.66697 -1.42791 0
M  V30 2307 C 218.528 1.42699 -1.43678 0
M  V30 2308 C 218.856 1.94419 -0.0560425 0
M  V30 2309 O 218.111 1.7182 0.936831 0
M  V30 2310 C 218.41 2.6349 -2.4147 0
M  V30 2311 C 218.076 2.30267 -3.8767 0
M  V30 2312 C 216.738 2.20918 -4.27491 0
M  V30 2313 C 219.09 2.03435 -4.79858 0
M  V30 2314 C 216.418 1.82873 -5.57471 0
M  V30 2315 C 218.77 1.66892 -6.10188 0
M  V30 2316 C 217.434 1.56058 -6.49001 0
M  V30 2317 H 216.704 0.522171 -0.525755 0
M  V30 2318 H 219.351 0.759785 -1.75783 0
M  V30 2319 H 217.656 3.35279 -2.0272 0
M  V30 2320 H 219.353 3.21684 -2.39417 0
M  V30 2321 H 215.943 2.38449 -3.56146 0
M  V30 2322 H 220.127 2.09586 -4.49875 0
M  V30 2323 H 215.383 1.7306 -5.86396 0
M  V30 2324 H 219.557 1.45157 -6.81104 0
M  V30 2325 H 217.184 1.26348 -7.49627 0
M  V30 2326 N 218.759 1.29093 0.90403 0
M  V30 2327 C 220.17 1.15186 1.46932 0
M  V30 2328 C 220.521 -0.254587 1.94541 0
M  V30 2329 O 219.646 -1.14972 1.83332 0
M  V30 2330 C 220.241 2.08492 2.67051 0
M  V30 2331 C 218.8 1.98621 3.19729 0
M  V30 2332 C 217.947 1.9967 1.92425 0
M  V30 2333 H 220.898 1.41641 0.715789 0
M  V30 2334 H 220.919 1.65461 3.42641 0
M  V30 2335 H 220.431 3.10847 2.3237 0
M  V30 2336 H 218.532 0.993389 3.59114 0
M  V30 2337 H 218.645 2.86068 3.8432 0
M  V30 2338 H 217.009 1.44208 2.09943 0
M  V30 2339 H 217.792 3.03721 1.60026 0
M  V30 2340 N 220.237 -1.11381 1.11499 0
M  V30 2341 C 221.167 -2.19509 0.796125 0
M  V30 2342 C 222.148 -1.68458 -0.235796 0
M  V30 2343 O 223.333 -1.93947 -0.0991344 0
M  V30 2344 C 220.463 -3.46475 0.239205 0
M  V30 2345 C 219.417 -4.10744 1.20307 0
M  V30 2346 C 218.743 -5.32293 0.50683 0
M  V30 2347 C 220.043 -4.55597 2.55399 0
M  V30 2348 H 221.737 -2.46439 1.70024 0
M  V30 2349 H 219.283 -1.18446 0.818935 0
M  V30 2350 H 221.236 -4.214 0.00392006 0
M  V30 2351 H 219.96 -3.19006 -0.700206 0
M  V30 2352 H 218.619 -3.37813 1.42399 0
M  V30 2353 H 218.267 -5.01095 -0.437408 0
M  V30 2354 H 217.967 -5.76243 1.1497 0
M  V30 2355 H 219.491 -6.09956 0.280351 0
M  V30 2356 H 220.905 -5.21841 2.37391 0
M  V30 2357 H 219.302 -5.10363 3.15673 0
M  V30 2358 H 220.372 -3.69013 3.14575 0
M  V30 2359 N 221.715 -0.905404 -1.28997 0
M  V30 2360 C 222.943 -0.549846 -1.9946 0
M  V30 2361 C 223.358 0.866834 -1.67724 0
M  V30 2362 O 222.715 1.57298 -0.925404 0
M  V30 2363 C 222.766 -0.739387 -3.53858 0
M  V30 2364 O 222.487 -2.10031 -3.84472 0
M  V30 2365 C 223.988 -0.389541 -4.41585 0
M  V30 2366 H 221.208 -0.210429 -0.637151 0
M  V30 2367 H 223.752 -1.21632 -1.64396 0
M  V30 2368 H 221.907 -0.120023 -3.87214 0
M  V30 2369 H 222.321 -2.13385 -4.79132 0
M  V30 2370 H 223.795 -0.572972 -5.49018 0
M  V30 2371 H 224.272 0.673756 -4.34001 0
M  V30 2372 H 224.878 -0.986089 -4.1371 0
M  V30 2373 N 223.193 1.4272 -0.668489 0
M  V30 2374 C 224.103 2.34596 0.0139753 0
M  V30 2375 C 225.119 1.5474 0.795703 0
M  V30 2376 O 226.295 1.87334 0.739466 0
M  V30 2377 C 223.36 3.33202 0.957982 0
M  V30 2378 C 222.421 4.28957 0.17149 0
M  V30 2379 C 221.654 5.22853 1.07053 0
M  V30 2380 O 221.877 5.21531 2.31001 0
M  V30 2381 O 220.811 5.9952 0.534727 0
M  V30 2382 H 224.637 2.9448 -0.742661 0
M  V30 2383 H 222.222 1.43117 -0.428705 0
M  V30 2384 H 224.104 3.93796 1.50008 0
M  V30 2385 H 222.779 2.758 1.69458 0
M  V30 2386 H 221.686 3.71796 -0.414558 0
M  V30 2387 H 223.019 4.89383 -0.52586 0
M  V30 2388 N 224.671 0.411399 1.52136 0
M  V30 2389 C 225.917 -0.163888 2.02137 0
M  V30 2390 C 226.25 -1.44597 1.29636 0
M  V30 2391 O 225.525 -1.90272 0.403353 0
M  V30 2392 C 225.808 -0.40927 3.57767 0
M  V30 2393 C 225.661 0.889643 4.40914 0
M  V30 2394 C 226.98 -1.19042 4.23694 0
M  V30 2395 H 224.099 -0.0580896 0.734707 0
M  V30 2396 H 226.741 0.54531 1.82007 0
M  V30 2397 H 224.891 -1.0134 3.7505 0
M  V30 2398 H 226.563 1.52575 4.35337 0
M  V30 2399 H 224.806 1.50011 4.07037 0
M  V30 2400 H 225.477 0.672314 5.4789 0
M  V30 2401 H 227.953 -0.678942 4.10524 0
M  V30 2402 H 226.829 -1.33086 5.32522 0
M  V30 2403 H 227.09 -2.21166 3.82803 0
M  V30 2404 N 226.149 -1.5696 0.141893 0
M  V30 2405 C 227.112 -2.15316 -0.785587 0
M  V30 2406 C 228.112 -1.09366 -1.1788 0
M  V30 2407 O 229.302 -1.35031 -1.10056 0
M  V30 2408 C 226.434 -2.71211 -2.06537 0
M  V30 2409 H 227.627 -2.98608 -0.278041 0
M  V30 2410 H 225.18 -1.5593 -0.107519 0
M  V30 2411 H 225.915 -1.91571 -2.6167 0
M  V30 2412 H 225.7 -3.4872 -1.79268 0
M  V30 2413 H 227.19 -3.16189 -2.72789 0
M  V30 2414 N 227.627 0.131896 -1.57047 0
M  V30 2415 C 228.852 0.860418 -1.8871 0
M  V30 2416 C 229.277 1.73251 -0.73251 0
M  V30 2417 O 228.635 1.785 0.317429 0
M  V30 2418 C 228.683 1.68047 -3.19049 0
M  V30 2419 O 227.787 2.7862 -3.04047 0
M  V30 2420 H 227.128 0.238743 -0.619595 0
M  V30 2421 H 229.658 0.118169 -2.04258 0
M  V30 2422 H 229.668 2.07238 -3.51449 0
M  V30 2423 H 228.343 1.04018 -4.02682 0
M  V30 2424 H 226.92 2.42726 -2.83088 0
M  V30 2425 N 229.106 1.52395 0.401703 0
M  V30 2426 C 230.069 1.75636 1.47257 0
M  V30 2427 C 231.069 0.62628 1.48103 0
M  V30 2428 O 232.259 0.894227 1.49497 0
M  V30 2429 C 229.391 1.84553 2.86624 0
M  V30 2430 H 230.584 2.71241 1.27938 0
M  V30 2431 H 228.137 1.42923 0.632662 0
M  V30 2432 H 228.872 0.908882 3.11303 0
M  V30 2433 H 228.657 2.66715 2.87412 0
M  V30 2434 H 230.147 2.04251 3.64241 0
M  V30 2435 N 230.584 -0.659388 1.43143 0
M  V30 2436 C 231.83 -1.42145 1.44647 0
M  V30 2437 C 232.163 -1.9408 0.0681907 0
M  V30 2438 O 231.438 -1.71899 -0.910007 0
M  V30 2439 C 231.721 -2.60735 2.48373 0
M  V30 2440 C 231.574 -2.14332 3.95451 0
M  V30 2441 C 232.893 -3.62951 2.48906 0
M  V30 2442 H 230.012 -0.51552 0.526696 0
M  V30 2443 H 232.654 -0.748069 1.74654 0
M  V30 2444 H 230.804 -3.18184 2.22916 0
M  V30 2445 H 232.476 -1.61932 4.31944 0
M  V30 2446 H 230.719 -1.4576 4.08578 0
M  V30 2447 H 231.39 -2.99583 4.63631 0
M  V30 2448 H 233.866 -3.1525 2.71582 0
M  V30 2449 H 232.742 -4.43487 3.23435 0
M  V30 2450 H 233.003 -4.15126 1.52061 0
M  V30 2451 N 232.062 -1.29571 -0.897171 0
M  V30 2452 C 233.025 -1.14913 -1.98312 0
M  V30 2453 C 234.025 -0.0838629 -1.60581 0
M  V30 2454 O 235.215 -0.331006 -1.71026 0
M  V30 2455 C 232.347 -0.757835 -3.3237 0
M  V30 2456 H 233.54 -2.11377 -2.12743 0
M  V30 2457 H 231.093 -1.12793 -1.08201 0
M  V30 2458 H 231.828 0.206837 -3.2364 0
M  V30 2459 H 231.613 -1.52755 -3.61121 0
M  V30 2460 H 233.103 -0.678408 -4.12053 0
M  V30 2461 N 233.54 1.10788 -1.12088 0
M  V30 2462 C 234.768 1.86461 -0.896651 0
M  V30 2463 C 235.183 1.80492 0.553912 0
M  V30 2464 O 234.54 1.19102 1.38278 0
M  V30 2465 C 234.591 3.35006 -1.35843 0
M  V30 2466 O 234.312 3.40866 -2.75213 0
M  V30 2467 C 235.813 4.27565 -1.1706 0
M  V30 2468 H 233.033 0.589425 -0.320654 0
M  V30 2469 H 235.577 1.40076 -1.48993 0
M  V30 2470 H 233.732 3.7887 -0.808458 0
M  V30 2471 H 234.146 4.33411 -2.9539 0
M  V30 2472 H 235.62 5.30007 -1.54263 0
M  V30 2473 H 236.097 4.3906 -0.110814 0
M  V30 2474 H 236.703 3.89501 -1.70789 0
M  V30 2475 N 235.018 0.912232 1.28515 0
M  V30 2476 C 236.265 0.544599 1.95039 0
M  V30 2477 C 236.593 -0.911435 1.71823 0
M  V30 2478 O 235.848 -1.66317 1.03137 0
M  V30 2479 C 236.147 0.798392 3.48368 0
M  V30 2480 C 235.813 2.23374 3.91682 0
M  V30 2481 C 234.475 2.62617 4.03219 0
M  V30 2482 C 236.827 3.16786 4.13879 0
M  V30 2483 C 234.155 3.94429 4.3433 0
M  V30 2484 C 236.507 4.48161 4.46469 0
M  V30 2485 C 235.171 4.8726 4.56217 0
M  V30 2486 H 234.441 0.199283 0.7137 0
M  V30 2487 H 237.088 1.15327 1.52879 0
M  V30 2488 H 235.393 0.106908 3.91654 0
M  V30 2489 H 237.09 0.493141 3.97956 0
M  V30 2490 H 233.68 1.91922 3.83228 0
M  V30 2491 H 237.864 2.87677 4.0442 0
M  V30 2492 H 233.12 4.24426 4.40082 0
M  V30 2493 H 237.294 5.20559 4.62592 0
M  V30 2494 H 234.921 5.89431 4.80078 0
M  V30 2495 N 236.496 -1.42363 0.676048 0
M  V30 2496 C 237.912 -1.55811 0.345718 0
M  V30 2497 C 238.112 -1.65544 -1.14879 0
M  V30 2498 O 237.168 -1.62306 -1.93424 0
M  V30 2499 C 238.481 -2.80746 1.07713 0
M  V30 2500 C 240.029 -2.9452 1.05958 0
M  V30 2501 C 240.504 -4.22318 1.77233 0
M  V30 2502 N 241.995 -4.29233 1.74108 0
M  V30 2503 C 242.73 -5.26935 2.26113 0
M  V30 2504 N 242.226 -6.30783 2.86505 0
M  V30 2505 N 244.019 -5.18741 2.1648 0
M  V30 2506 H 236.17 -1.34289 1.6456 0
M  V30 2507 H 238.433 -0.646506 0.69335 0
M  V30 2508 H 238.139 -2.79696 2.13221 0
M  V30 2509 H 238.013 -3.71676 0.64316 0
M  V30 2510 H 240.4 -2.95097 0.0128255 0
M  V30 2511 H 240.481 -2.04817 1.53244 0
M  V30 2512 H 240.125 -4.22502 2.81877 0
M  V30 2513 H 240.055 -5.10958 1.27396 0
M  V30 2514 H 242.546 -3.54814 1.30059 0
M  V30 2515 H 242.859 -7.01691 3.23805 0
M  V30 2516 H 241.204 -6.31341 2.90575 0
M  V30 2517 H 244.395 -4.36533 1.68987 0
M  V30 2518 H 244.568 -5.94721 2.57316 0
M  V30 2519 N 237.974 -0.419461 -1.51915 0
M  V30 2520 C 238.922 0.415502 -2.28859 0
M  V30 2521 C 239.916 1.03674 -1.3397 0
M  V30 2522 O 241.122 0.973757 -1.51387 0
M  V30 2523 H 237.497 0.152786 -0.736315 0
M  V30 2524 H 239.468 -0.254531 -2.97312 0
M  V30 2525 C 238.217 1.51425 -3.12995 0
M  V30 2526 H 237.54 1.04556 -3.85886 0
M  V30 2527 H 238.98 2.07208 -3.6992 0
M  V30 2528 C 237.439 2.48745 -2.27217 0
M  V30 2529 O 237.969 3.52871 -1.9195 0
M  V30 2530 N 236.175 2.19202 -1.90785 0
M  V30 2531 H 235.722 1.34556 -2.19664 0
M  V30 2532 H 235.68 2.84561 -1.33687 0
M  V30 2533 N 239.452 1.56882 -0.150215 0
M  V30 2534 C 240.701 1.95403 0.500071 0
M  V30 2535 C 241.014 1.03777 1.658 0
M  V30 2536 O 242.22 1.31889 2.37313 0
M  V30 2537 C 240.676 3.4738 0.941018 0
M  V30 2538 C 240.284 4.47596 -0.190158 0
M  V30 2539 C 242.028 3.9476 1.56091 0
M  V30 2540 C 239.935 5.90787 0.269237 0
M  V30 2541 H 238.865 0.729515 0.190588 0
M  V30 2542 H 241.516 1.81988 -0.235074 0
M  V30 2543 H 239.898 3.56138 1.73152 0
M  V30 2544 H 241.072 4.50536 -0.967157 0
M  V30 2545 H 239.387 4.10151 -0.718666 0
M  V30 2546 H 241.984 4.99181 1.9163 0
M  V30 2547 H 242.327 3.36494 2.45107 0
M  V30 2548 H 242.86 3.88932 0.835249 0
M  V30 2549 H 239.599 6.52879 -0.585621 0
M  V30 2550 H 239.119 5.912 1.01204 0
M  V30 2551 H 240.798 6.42979 0.720176 0
M  V30 2552 N 240.93 -0.123565 1.57115 0
M  V30 2553 C 242.179 -0.830704 1.83799 0
M  V30 2554 C 242.492 -1.81259 0.735158 0
M  V30 2555 O 243.698 -2.56558 0.888278 0
M  V30 2556 C 242.154 -1.52802 3.25852 0
M  V30 2557 C 241.762 -0.587356 4.44133 0
M  V30 2558 C 243.506 -2.22056 3.61789 0
M  V30 2559 C 241.413 -1.28764 5.77212 0
M  V30 2560 H 240.343 -0.313967 0.685522 0
M  V30 2561 H 242.994 -0.0834359 1.8331 0
M  V30 2562 H 241.376 -2.32175 3.20797 0
M  V30 2563 H 242.55 0.172829 4.60476 0
M  V30 2564 H 240.865 -0.00201892 4.164 0
M  V30 2565 H 243.462 -2.75131 4.58483 0
M  V30 2566 H 243.805 -2.99644 2.88997 0
M  V30 2567 H 244.338 -1.49576 3.68608 0
M  V30 2568 H 241.077 -0.55314 6.53162 0
M  V30 2569 H 240.597 -2.01995 5.64764 0
M  V30 2570 H 242.276 -1.8221 6.20813 0
M  V30 2571 N 242.408 -1.52605 -0.393616 0
M  V30 2572 C 243.34 -1.73303 -1.49995 0
M  V30 2573 C 244.353 -0.613473 -1.50799 0
M  V30 2574 O 245.542 -0.889049 -1.54784 0
M  V30 2575 C 242.642 -1.77245 -2.88855 0
M  V30 2576 C 241.815 -3.06483 -3.12069 0
M  V30 2577 C 240.874 -3.02033 -4.30886 0
M  V30 2578 O 239.9 -3.75907 -4.27414 0
M  V30 2579 N 241.102 -2.20897 -5.36828 0
M  V30 2580 H 243.867 -2.68756 -1.32629 0
M  V30 2581 H 241.428 -1.51036 -0.583083 0
M  V30 2582 H 243.42 -1.7178 -3.66434 0
M  V30 2583 H 241.99 -0.891993 -2.99603 0
M  V30 2584 H 241.21 -3.25474 -2.22396 0
M  V30 2585 H 242.498 -3.91947 -3.2443 0
M  V30 2586 H 241.896 -1.60336 -5.42502 0
M  V30 2587 H 240.453 -2.21275 -6.13091 0
M  V30 2588 N 243.887 0.651787 -1.4349 0
M  V30 2589 C 244.817 1.77621 -1.51569 0
M  V30 2590 C 245.798 1.66022 -0.370253 0
M  V30 2591 O 246.983 1.85095 -0.587658 0
M  V30 2592 C 244.113 3.16056 -1.43966 0
M  V30 2593 C 243.067 3.4242 -2.56774 0
M  V30 2594 C 242.393 4.8067 -2.34223 0
M  V30 2595 C 243.693 3.37023 -3.99015 0
M  V30 2596 H 245.387 1.71117 -2.45681 0
M  V30 2597 H 242.933 0.821825 -1.18246 0
M  V30 2598 H 244.886 3.94472 -1.48221 0
M  V30 2599 H 243.61 3.23293 -0.463586 0
M  V30 2600 H 242.269 2.66375 -2.51873 0
M  V30 2601 H 241.917 4.84585 -1.34856 0
M  V30 2602 H 241.617 4.9927 -3.09844 0
M  V30 2603 H 243.141 5.61342 -2.40265 0
M  V30 2604 H 244.555 4.05374 -4.05395 0
M  V30 2605 H 242.952 3.67159 -4.74673 0
M  V30 2606 H 244.022 2.3518 -4.2405 0
M  V30 2607 N 245.365 1.30045 0.890287 0
M  V30 2608 C 246.328 1.15963 1.977 0
M  V30 2609 C 247.328 0.0923777 1.60534 0
M  V30 2610 O 248.518 0.340071 1.70848 0
M  V30 2611 C 245.65 0.775451 3.31963 0
M  V30 2612 H 246.843 2.12502 2.11619 0
M  V30 2613 H 244.396 1.13366 1.07601 0
M  V30 2614 H 245.131 -0.189671 3.23745 0
M  V30 2615 H 244.916 1.54668 3.60306 0
M  V30 2616 H 246.406 0.700251 4.11687 0
M  V30 2617 N 246.843 -1.10192 1.12674 0
M  V30 2618 C 248.068 -1.86523 0.906853 0
M  V30 2619 C 248.493 -1.80221 -0.538711 0
M  V30 2620 O 247.851 -1.17396 -1.38158 0
M  V30 2621 C 247.899 -3.32758 1.3894 0
M  V30 2622 O 247.003 -4.08449 0.5695 0
M  V30 2623 H 246.344 -0.578678 0.325619 0
M  V30 2624 H 248.874 -1.39203 1.49946 0
M  V30 2625 H 248.884 -3.83608 1.38958 0
M  V30 2626 H 247.559 -3.36661 2.44197 0
M  V30 2627 H 246.136 -3.67427 0.636528 0
M  V30 2628 N 248.321 -0.919034 -1.28029 0
M  V30 2629 C 249.57 -0.550802 -1.94034 0
M  V30 2630 C 249.883 0.910877 -1.73096 0
M  V30 2631 O 251.089 1.3875 -2.33368 0
M  V30 2632 C 249.545 -0.934249 -3.47563 0
M  V30 2633 C 249.153 -2.41602 -3.7727 0
M  V30 2634 C 250.897 -0.636854 -4.19696 0
M  V30 2635 C 248.804 -2.73932 -5.24133 0
M  V30 2636 H 247.734 -0.202273 -0.726362 0
M  V30 2637 H 250.385 -1.11867 -1.45458 0
M  V30 2638 H 248.767 -0.295115 -3.94899 0
M  V30 2639 H 249.941 -3.10233 -3.40723 0
M  V30 2640 H 248.256 -2.68441 -3.18321 0
M  V30 2641 H 250.853 -0.855005 -5.2782 0
M  V30 2642 H 251.196 0.425575 -4.14119 0
M  V30 2643 H 251.729 -1.23469 -3.78154 0
M  V30 2644 H 248.468 -3.79049 -5.34792 0
M  V30 2645 H 247.988 -2.09942 -5.61858 0
M  V30 2646 H 249.667 -2.61215 -5.91925 0
M  V30 2647 N 249.799 1.42003 -0.683588 0
M  V30 2648 C 251.029 2.05448 -0.217866 0
M  V30 2649 C 251.437 1.51491 1.13346 0
M  V30 2650 O 250.78 0.653048 1.717 0
M  V30 2651 C 250.842 3.59399 -0.0850118 0
M  V30 2652 C 250.506 4.36093 -1.36645 0
M  V30 2653 C 251.503 4.66169 -2.30179 0
M  V30 2654 C 249.188 4.75578 -1.61649 0
M  V30 2655 C 251.182 5.34676 -3.46988 0
M  V30 2656 C 248.869 5.43824 -2.78745 0
M  V30 2657 C 249.867 5.73299 -3.71238 0
M  V30 2658 O 249.555 6.40142 -4.86285 0
M  V30 2659 H 249.287 0.668344 -0.101454 0
M  V30 2660 H 251.841 1.82974 -0.933248 0
M  V30 2661 H 250.071 3.80566 0.686031 0
M  V30 2662 H 251.76 4.04457 0.341973 0
M  V30 2663 H 252.526 4.36156 -2.12115 0
M  V30 2664 H 248.405 4.52025 -0.905243 0
M  V30 2665 H 251.949 5.57599 -4.19201 0
M  V30 2666 H 247.846 5.73254 -2.96732 0
M  V30 2667 H 248.614 6.58636 -4.85944 0
M  V30 2668 N 251.277 0.427512 1.51691 0
M  V30 2669 C 252.693 0.0792977 1.59403 0
M  V30 2670 C 252.893 -1.41035 1.43914 0
M  V30 2671 O 251.949 -2.17922 1.27539 0
M  V30 2672 C 253.262 0.590636 2.94842 0
M  V30 2673 C 254.81 0.550215 3.08126 0
M  V30 2674 C 255.285 1.03836 4.46074 0
M  V30 2675 N 256.776 0.995943 4.52366 0
M  V30 2676 C 257.511 1.34463 5.57411 0
M  V30 2677 N 257.007 1.76569 6.69922 0
M  V30 2678 N 258.8 1.26343 5.47717 0
M  V30 2679 H 250.951 1.39687 1.60004 0
M  V30 2680 H 253.214 0.575003 0.753708 0
M  V30 2681 H 252.92 1.63251 3.11516 0
M  V30 2682 H 252.794 0.0102061 3.77199 0
M  V30 2683 H 255.181 -0.482654 2.91126 0
M  V30 2684 H 255.262 1.16693 2.27632 0
M  V30 2685 H 254.906 2.06965 4.63819 0
M  V30 2686 H 254.836 0.398286 5.25092 0
M  V30 2687 H 257.327 0.68661 3.7161 0
M  V30 2688 H 257.64 2.01438 7.46085 0
M  V30 2689 H 255.985 1.80488 6.71155 0
M  V30 2690 H 259.176 0.933209 4.58703 0
M  V30 2691 H 259.349 1.53846 6.29472 0
M  V30 2692 N 252.755 -1.56801 0.158532 0
M  V30 2693 C 254.002 -1.9649 -0.489679 0
M  V30 2694 C 254.33 -1.04394 -1.6411 0
M  V30 2695 O 253.585 -0.0754401 -1.95555 0
M  V30 2696 C 253.884 -3.4235 -1.02623 0
M  V30 2697 C 253.55 -4.50899 0.00794526 0
M  V30 2698 C 252.212 -4.80312 0.292207 0
M  V30 2699 C 254.564 -5.16333 0.710584 0
M  V30 2700 C 251.892 -5.72461 1.28472 0
M  V30 2701 C 254.244 -6.09553 1.69199 0
M  V30 2702 C 252.908 -6.37339 1.98383 0
M  V30 2703 H 252.178 -0.719009 -0.179186 0
M  V30 2704 H 254.825 -1.8989 0.247798 0
M  V30 2705 H 253.13 -3.45838 -1.84128 0
M  V30 2706 H 254.827 -3.70393 -1.53656 0
M  V30 2707 H 251.417 -4.28015 -0.22379 0
M  V30 2708 H 255.601 -4.93732 0.504174 0
M  V30 2709 H 250.857 -5.92278 1.51714 0
M  V30 2710 H 255.031 -6.59327 2.24189 0
M  V30 2711 H 252.658 -7.08546 2.7544 0
M  V30 2712 N 254.233 0.115231 -1.57178 0
M  V30 2713 C 255.51 0.852873 -1.76027 0
M  V30 2714 C 255.89 1.97892 -0.73498 0
M  V30 2715 O 255.238 2.27232 0.24036 0
M  V30 2716 C 255.448 1.36608 -3.21153 0
M  V30 2717 C 256.796 1.81692 -3.83762 0
M  V30 2718 O 257.82 1.46278 -3.24779 0
M  V30 2719 O 256.679 2.47104 -4.87444 0
M  V30 2720 H 253.773 0.405296 -0.720877 0
M  V30 2721 H 256.319 0.0986785 -1.69413 0
M  V30 2722 H 255.091 0.558357 -3.87296 0
M  V30 2723 H 254.714 2.18287 -3.3232 0
M  V30 2724 N 255.711 1.52812 0.385517 0
M  V30 2725 C 256.641 1.80808 1.47752 0
M  V30 2726 C 257.622 0.660318 1.5676 0
M  V30 2727 O 258.807 0.908246 1.71652 0
M  V30 2728 C 255.937 1.98008 2.85324 0
M  V30 2729 C 254.891 3.13709 2.91154 0
M  V30 2730 C 254.217 3.16169 4.31209 0
M  V30 2731 C 255.517 4.52709 2.60483 0
M  V30 2732 H 257.211 2.72253 1.24573 0
M  V30 2733 H 254.757 1.31003 0.597839 0
M  V30 2734 H 256.71 2.16176 3.61726 0
M  V30 2735 H 255.434 1.03255 3.09848 0
M  V30 2736 H 254.093 2.95329 2.17201 0
M  V30 2737 H 253.741 2.19092 4.52778 0
M  V30 2738 H 253.441 3.93894 4.36029 0
M  V30 2739 H 254.965 3.36496 5.09512 0
M  V30 2740 H 256.379 4.71173 3.26602 0
M  V30 2741 H 254.776 5.32528 2.76648 0
M  V30 2742 H 255.846 4.59186 1.55809 0
M  V30 2743 N 257.189 -0.644168 1.43834 0
M  V30 2744 C 258.438 -1.39985 1.45214 0
M  V30 2745 C 258.751 -1.95421 0.0835494 0
M  V30 2746 O 259.957 -2.71488 -0.0251748 0
M  V30 2747 C 258.413 -2.53384 2.55587 0
M  V30 2748 C 258.021 -2.04517 3.98594 0
M  V30 2749 C 259.765 -3.30685 2.66172 0
M  V30 2750 C 257.672 -3.1518 5.00416 0
M  V30 2751 H 256.602 -0.526005 0.540218 0
M  V30 2752 H 259.253 -0.694367 1.69855 0
M  V30 2753 H 257.635 -3.26446 2.24163 0
M  V30 2754 H 258.809 -1.38405 4.39523 0
M  V30 2755 H 257.124 -1.40068 3.92135 0
M  V30 2756 H 259.721 -4.13158 3.39418 0
M  V30 2757 H 260.064 -3.79312 1.71546 0
M  V30 2758 H 260.597 -2.64708 2.96942 0
M  V30 2759 H 257.336 -2.71511 5.96625 0
M  V30 2760 H 256.856 -3.79974 4.64091 0
M  V30 2761 H 258.535 -3.80166 5.23529 0
M  V30 2762 N 258.668 -1.30515 -0.883378 0
M  V30 2763 C 259.896 -1.22359 -1.66841 0
M  V30 2764 C 260.311 0.213296 -1.87591 0
M  V30 2765 O 259.668 1.14075 -1.42454 0
M  V30 2766 C 259.719 -1.95011 -3.04389 0
M  V30 2767 O 259.44 -3.3309 -2.84575 0
M  V30 2768 C 260.941 -1.93532 -3.98824 0
M  V30 2769 H 258.161 -0.423371 -0.520575 0
M  V30 2770 H 260.705 -1.72167 -1.10357 0
M  V30 2771 H 258.86 -1.48997 -3.57601 0
M  V30 2772 H 259.274 -3.69907 -3.71846 0
M  V30 2773 H 260.748 -2.48902 -4.92699 0
M  V30 2774 H 261.225 -0.914627 -4.29571 0
M  V30 2775 H 261.831 -2.39364 -3.51547 0
M  V30 2776 N 260.146 1.09593 -1.13257 0
M  V30 2777 C 261.093 2.1618 -0.808381 0
M  V30 2778 C 262.063 1.64517 0.228754 0
M  V30 2779 O 263.248 1.9053 0.101381 0
M  V30 2780 C 260.388 3.43973 -0.278675 0
M  V30 2781 C 259.501 4.09545 -1.37466 0
M  V30 2782 C 258.636 5.25088 -0.803479 0
M  V30 2783 C 257.675 5.82579 -1.87799 0
M  V30 2784 N 256.812 6.89486 -1.32488 0
M  V30 2785 H 261.652 2.43254 -1.72138 0
M  V30 2786 H 259.189 1.19392 -0.859294 0
M  V30 2787 H 261.147 4.17174 0.0465583 0
M  V30 2788 H 259.777 3.17223 0.597459 0
M  V30 2789 H 258.829 3.34226 -1.81652 0
M  V30 2790 H 260.141 4.48307 -2.18684 0
M  V30 2791 H 259.295 6.05178 -0.429427 0
M  V30 2792 H 258.034 4.87684 0.0397956 0
M  V30 2793 H 257.039 5.01152 -2.26113 0
M  V30 2794 H 258.264 6.22045 -2.72463 0
M  V30 2795 H 256.21 6.54064 -0.503575 0
M  V30 2796 H 256.127 7.27007 -2.07355 0
M  V30 2797 H 257.395 7.73336 -0.978336 0
M  V30 2798 N 261.624 0.925811 1.2754 0
M  V30 2799 C 262.872 0.564138 1.94067 0
M  V30 2800 C 263.193 -0.897188 1.73134 0
M  V30 2801 O 262.463 -1.63573 1.07799 0
M  V30 2802 H 261.043 0.205645 0.718136 0
M  V30 2803 H 263.705 1.1778 1.55287 0
M  V30 2804 H 262.801 0.76881 3.02483 0
M  V30 2805 N 263.102 -1.41638 0.69111 0
M  V30 2806 C 264.032 -2.3347 0.037248 0
M  V30 2807 C 265.013 -1.51575 -0.771947 0
M  V30 2808 O 266.198 -1.80126 -0.72582 0
M  V30 2809 C 263.328 -3.35354 -0.903064 0
M  V30 2810 C 262.282 -4.27526 -0.201288 0
M  V30 2811 C 261.608 -5.19747 -1.25565 0
M  V30 2812 C 262.908 -5.13959 0.929689 0
M  V30 2813 H 264.602 -2.88397 0.804227 0
M  V30 2814 H 262.148 -1.38669 0.388189 0
M  V30 2815 H 264.101 -3.98519 -1.36969 0
M  V30 2816 H 262.825 -2.78767 -1.70166 0
M  V30 2817 H 261.484 -3.65779 0.245265 0
M  V30 2818 H 261.132 -4.59479 -2.04666 0
M  V30 2819 H 260.832 -5.8225 -0.791128 0
M  V30 2820 H 262.356 -5.85789 -1.72288 0
M  V30 2821 H 263.77 -5.70718 0.543546 0
M  V30 2822 H 262.167 -5.85379 1.32103 0
M  V30 2823 H 263.237 -4.51389 1.77133 0
M  V30 2824 N 264.58 -0.43555 -1.51462 0
M  V30 2825 C 265.51 0.367376 -2.30592 0
M  V30 2826 C 266.491 1.02263 -1.35928 0
M  V30 2827 O 267.676 1.02661 -1.64847 0
M  V30 2828 C 264.806 1.46983 -3.14664 0
M  V30 2829 C 263.76 0.938161 -4.17591 0
M  V30 2830 C 263.086 2.13622 -4.90173 0
M  V30 2831 C 264.386 -0.0261621 -5.22293 0
M  V30 2832 H 266.08 -0.292969 -2.97963 0
M  V30 2833 H 263.626 -0.14234 -1.43295 0
M  V30 2834 H 265.579 2.03873 -3.688 0
M  V30 2835 H 264.303 2.15843 -2.4511 0
M  V30 2836 H 262.962 0.391481 -3.64504 0
M  V30 2837 H 262.61 2.81098 -4.17124 0
M  V30 2838 H 262.31 1.78688 -5.59772 0
M  V30 2839 H 263.834 2.7107 -5.47132 0
M  V30 2840 H 265.248 0.452384 -5.71512 0
M  V30 2841 H 263.645 -0.287992 -5.99409 0
M  V30 2842 H 264.715 -0.963391 -4.75233 0
M  V30 2843 N 266.058 1.56714 -0.166846 0
M  V30 2844 C 266.988 2.20754 0.760913 0
M  V30 2845 C 267.969 1.16178 1.24244 0
M  V30 2846 O 269.154 1.44592 1.29641 0
M  V30 2847 C 266.284 2.84478 1.99223 0
M  V30 2848 C 265.238 3.95053 1.64672 0
M  V30 2849 C 264.564 4.45805 2.95232 0
M  V30 2850 C 265.864 5.14865 0.878155 0
M  V30 2851 H 267.558 2.98537 0.22713 0
M  V30 2852 H 265.104 1.43596 0.107805 0
M  V30 2853 H 267.057 3.27951 2.64624 0
M  V30 2854 H 265.781 2.04056 2.55007 0
M  V30 2855 H 264.44 3.52228 1.01641 0
M  V30 2856 H 264.088 3.62181 3.49047 0
M  V30 2857 H 263.788 5.204 2.7287 0
M  V30 2858 H 265.312 4.91962 3.6167 0
M  V30 2859 H 266.726 5.55059 1.43466 0
M  V30 2860 H 265.123 5.95348 0.753738 0
M  V30 2861 H 266.193 4.84735 -0.126377 0
M  V30 2862 N 267.536 -0.106894 1.57237 0
M  V30 2863 C 268.499 -1.11466 2.0027 0
M  V30 2864 C 269.499 -1.33623 0.894519 0
M  V30 2865 O 270.689 -1.29935 1.16028 0
M  V30 2866 C 267.821 -2.46646 2.35327 0
M  V30 2867 H 269.014 -0.744516 2.90512 0
M  V30 2868 H 266.567 -0.351576 1.52295 0
M  V30 2869 H 267.302 -2.88558 1.48003 0
M  V30 2870 H 267.087 -2.31915 3.16161 0
M  V30 2871 H 268.577 -3.19151 2.69318 0
M  V30 2872 N 269.014 -1.53014 -0.377408 0
M  V30 2873 C 269.977 -1.77957 -1.44444 0
M  V30 2874 C 270.977 -0.649763 -1.47087 0
M  V30 2875 O 272.167 -0.917897 -1.48055 0
M  V30 2876 C 269.299 -1.89089 -2.83651 0
M  V30 2877 H 270.492 -2.73243 -1.23606 0
M  V30 2878 H 268.045 -1.43912 -0.609844 0
M  V30 2879 H 268.78 -0.958293 -3.09818 0
M  V30 2880 H 268.565 -2.71254 -2.83132 0
M  V30 2881 H 270.055 -2.1002 -3.60945 0
M  V30 2882 N 270.492 0.636531 -1.44174 0
M  V30 2883 C 271.424 1.7618 -1.46606 0
M  V30 2884 C 272.437 1.58768 -0.360091 0
M  V30 2885 O 273.626 1.67181 -0.625518 0
M  V30 2886 C 270.726 3.13833 -1.27915 0
M  V30 2887 C 269.899 3.57753 -2.51658 0
M  V30 2888 C 268.958 4.74265 -2.27945 0
M  V30 2889 O 267.984 4.82852 -3.01401 0
M  V30 2890 N 269.186 5.65604 -1.30662 0
M  V30 2891 H 271.951 1.74567 -2.43612 0
M  V30 2892 H 269.512 0.820924 -1.39544 0
M  V30 2893 H 271.504 3.8949 -1.09907 0
M  V30 2894 H 270.074 3.10121 -0.39293 0
M  V30 2895 H 269.294 2.72362 -2.84978 0
M  V30 2896 H 270.582 3.83847 -3.33974 0
M  V30 2897 H 269.98 5.61354 -0.699844 0
M  V30 2898 H 268.537 6.40913 -1.18634 0
M  V30 2899 N 271.97 1.30982 0.876444 0
M  V30 2900 C 273.247 1.10942 1.61094 0
M  V30 2901 C 273.627 -0.338223 2.08373 0
M  V30 2902 O 272.975 -1.33122 1.85717 0
M  V30 2903 C 273.185 2.11789 2.77392 0
M  V30 2904 C 274.533 2.43965 3.47514 0
M  V30 2905 O 275.557 2.10166 2.87591 0
M  V30 2906 O 274.416 3.01817 4.55597 0
M  V30 2907 H 271.51 0.42667 0.708436 0
M  V30 2908 H 274.056 1.42438 0.922474 0
M  V30 2909 H 272.828 3.09194 2.39823 0
M  V30 2910 H 272.451 1.81161 3.5393 0
M  V30 2911 N 273.449 -1.08991 1.13837 0
M  V30 2912 C 274.379 -2.17771 0.842507 0
M  V30 2913 C 275.36 -1.6892 -0.20001 0
M  V30 2914 O 276.545 -1.94113 -0.0579731 0
M  V30 2915 C 273.675 -3.4589 0.312644 0
M  V30 2916 C 272.629 -4.08099 1.28992 0
M  V30 2917 C 271.955 -5.31098 0.619623 0
M  V30 2918 C 273.255 -4.50077 2.65005 0
M  V30 2919 H 274.949 -2.42777 1.75213 0
M  V30 2920 H 272.495 -1.16682 0.843875 0
M  V30 2921 H 274.448 -4.21297 0.0933043 0
M  V30 2922 H 273.172 -3.20419 -0.632382 0
M  V30 2923 H 271.831 -3.34717 1.49533 0
M  V30 2924 H 271.479 -5.0191 -0.33102 0
M  V30 2925 H 271.179 -5.73674 1.27167 0
M  V30 2926 H 272.703 -6.09224 0.409669 0
M  V30 2927 H 274.117 -5.16688 2.48407 0
M  V30 2928 H 272.514 -5.03553 3.26427 0
M  V30 2929 H 273.584 -3.62257 3.22332 0
M  V30 2930 N 274.927 -0.932562 -1.27047 0
M  V30 2931 C 276.204 -0.49377 -1.89265 0
M  V30 2932 C 276.584 1.02833 -1.8436 0
M  V30 2933 O 275.932 1.88461 -1.29209 0
M  V30 2934 C 276.142 -1.04536 -3.32976 0
M  V30 2935 C 277.49 -1.10879 -4.09867 0
M  V30 2936 O 278.514 -0.995327 -3.42011 0
M  V30 2937 O 277.373 -1.28417 -5.31198 0
M  V30 2938 H 274.467 -0.159596 -0.811454 0
M  V30 2939 H 277.013 -1.02457 -1.3528 0
M  V30 2940 H 275.785 -2.08913 -3.30864 0
M  V30 2941 H 275.408 -0.496494 -3.94488 0
M  V30 2942 N 276.405 1.4127 -0.698611 0
M  V30 2943 C 277.652 2.0118 -0.230865 0
M  V30 2944 C 277.98 1.55338 1.17049 0
M  V30 2945 O 277.235 0.756775 1.80475 0
M  V30 2946 C 277.534 3.56592 -0.240192 0
M  V30 2947 C 277.2 4.21955 -1.58948 0
M  V30 2948 C 275.862 4.39524 -1.95887 0
M  V30 2949 C 278.214 4.58576 -2.47704 0
M  V30 2950 C 275.542 4.90992 -3.2116 0
M  V30 2951 C 277.894 5.11435 -3.72313 0
M  V30 2952 C 276.558 5.27215 -4.0939 0
M  V30 2953 H 275.828 0.736169 -0.0844796 0
M  V30 2954 H 278.475 1.69124 -0.8983 0
M  V30 2955 H 276.78 3.88456 0.510797 0
M  V30 2956 H 278.477 4.00758 0.139296 0
M  V30 2957 H 275.067 4.08657 -1.29219 0
M  V30 2958 H 279.251 4.44654 -2.20445 0
M  V30 2959 H 274.507 5.01393 -3.49878 0
M  V30 2960 H 278.681 5.38752 -4.4127 0
M  V30 2961 H 276.308 5.66859 -5.06533 0
M  V30 2962 N 277.883 0.443576 1.51229 0
M  V30 2963 C 278.831 -0.37904 2.29491 0
M  V30 2964 C 279.825 -1.0153 1.35603 0
M  V30 2965 O 281.031 -0.94955 1.52917 0
M  V30 2966 H 277.406 -0.141053 0.738653 0
M  V30 2967 H 279.377 0.301799 2.9687 0
M  V30 2968 C 278.126 -1.46426 3.15364 0
M  V30 2969 H 277.449 -0.984037 3.87501 0
M  V30 2970 H 278.889 -2.01297 3.7317 0
M  V30 2971 C 277.348 -2.45099 2.31146 0
M  V30 2972 O 277.878 -3.49773 1.9754 0
M  V30 2973 N 276.084 -2.16139 1.94249 0
M  V30 2974 H 275.631 -1.31044 2.21777 0
M  V30 2975 H 275.589 -2.82398 1.38198 0
M  V30 2976 N 279.361 -1.56624 0.175154 0
M  V30 2977 C 280.291 -2.21155 -0.749195 0
M  V30 2978 C 281.272 -1.16836 -1.23626 0
M  V30 2979 O 282.457 -1.45277 -1.28873 0
M  V30 2980 C 279.587 -2.8553 -1.97711 0
M  V30 2981 C 278.541 -3.95921 -1.62575 0
M  V30 2982 C 277.867 -4.47365 -2.92864 0
M  V30 2983 C 279.167 -5.15323 -0.850838 0
M  V30 2984 H 280.861 -2.98653 -0.211295 0
M  V30 2985 H 278.407 -1.43651 -0.100188 0
M  V30 2986 H 280.36 -3.2935 -2.62881 0
M  V30 2987 H 279.084 -2.05406 -2.53921 0
M  V30 2988 H 277.743 -3.52762 -0.997719 0
M  V30 2989 H 277.391 -3.64027 -3.47122 0
M  V30 2990 H 277.091 -5.21839 -2.70106 0
M  V30 2991 H 278.615 -4.93873 -3.59056 0
M  V30 2992 H 280.029 -5.55812 -1.40521 0
M  V30 2993 H 278.426 -5.95739 -0.722154 0
M  V30 2994 H 279.496 -4.84661 0.152082 0
M  V30 2995 N 280.839 0.0985539 -1.57292 0
M  V30 2996 C 282.085 0.803867 -1.86188 0
M  V30 2997 C 282.418 1.78549 -0.763794 0
M  V30 2998 O 281.693 1.93153 0.22855 0
M  V30 2999 C 281.976 1.53568 -3.25713 0
M  V30 3000 C 281.829 0.572277 -4.46145 0
M  V30 3001 C 283.148 2.48708 -3.63087 0
M  V30 3002 H 280.267 0.290781 -0.677211 0
M  V30 3003 H 282.909 0.0675783 -1.8988 0
M  V30 3004 H 281.059 2.16332 -3.22696 0
M  V30 3005 H 282.731 -0.0480894 -4.61275 0
M  V30 3006 H 280.974 -0.114618 -4.33649 0
M  V30 3007 H 281.645 1.12139 -5.40489 0
M  V30 3008 H 284.121 1.96039 -3.67026 0
M  V30 3009 H 282.997 2.96932 -4.61652 0
M  V30 3010 H 283.258 3.32309 -2.91588 0
M  V30 3011 N 282.317 1.53212 0.369288 0
M  V30 3012 C 283.565 1.68881 1.11012 0
M  V30 3013 C 283.886 0.441285 1.89941 0
M  V30 3014 O 283.156 -0.544623 1.88177 0
M  V30 3015 H 281.736 0.622569 0.412816 0
M  V30 3016 H 284.398 1.90391 0.416802 0
M  V30 3017 H 283.494 2.54822 1.80201 0
M  V30 3018 N 283.795 -0.628877 1.44509 0
M  V30 3019 C 285.025 -1.41349 1.50678 0
M  V30 3020 C 285.433 -1.88745 0.131075 0
M  V30 3021 O 284.776 -1.61592 -0.87371 0
M  V30 3022 C 284.838 -2.66608 2.41165 0
M  V30 3023 C 284.502 -2.40993 3.88293 0
M  V30 3024 C 285.499 -2.0268 4.78766 0
M  V30 3025 C 283.184 -2.54563 4.33016 0
M  V30 3026 C 285.178 -1.78269 6.11963 0
M  V30 3027 C 282.865 -2.29766 5.6626 0
M  V30 3028 C 283.863 -1.91678 6.55552 0
M  V30 3029 O 283.551 -1.67158 7.86329 0
M  V30 3030 H 283.283 -0.439851 0.51333 0
M  V30 3031 H 285.837 -0.776084 1.90174 0
M  V30 3032 H 284.067 -3.32994 1.96601 0
M  V30 3033 H 285.756 -3.28615 2.38259 0
M  V30 3034 H 286.522 -1.91751 4.45485 0
M  V30 3035 H 282.401 -2.83179 3.63773 0
M  V30 3036 H 285.945 -1.48465 6.81619 0
M  V30 3037 H 281.842 -2.40306 5.99102 0
M  V30 3038 H 282.61 -1.81386 7.98149 0
M  V30 3039 N 285.273 -1.31445 -0.869486 0
M  V30 3040 C 286.503 -1.23942 -1.65294 0
M  V30 3041 C 286.911 0.197561 -1.88166 0
M  V30 3042 O 286.254 1.14019 -1.44033 0
M  V30 3043 C 286.316 -1.91385 -3.04322 0
M  V30 3044 C 285.98 -3.40726 -3.04557 0
M  V30 3045 C 286.977 -4.36464 -2.82481 0
M  V30 3046 C 284.662 -3.82425 -3.25663 0
M  V30 3047 C 286.656 -5.71876 -2.8149 0
M  V30 3048 C 284.343 -5.1795 -3.243 0
M  V30 3049 C 285.341 -6.12486 -3.02241 0
M  V30 3050 O 285.029 -7.45534 -3.00724 0
M  V30 3051 H 284.761 -0.429459 -0.522054 0
M  V30 3052 H 287.315 -1.73873 -1.0935 0
M  V30 3053 H 285.545 -1.36004 -3.61994 0
M  V30 3054 H 287.234 -1.77791 -3.64891 0
M  V30 3055 H 288 -4.05576 -2.65956 0
M  V30 3056 H 283.879 -3.09274 -3.41863 0
M  V30 3057 H 287.423 -6.45638 -2.64191 0
M  V30 3058 H 283.32 -5.48473 -3.40365 0
M  V30 3059 H 284.088 -7.54713 -3.16782 0
M  V30 3060 N 286.751 1.08385 -1.14413 0
M  V30 3061 C 287.997 1.81044 -0.913834 0
M  V30 3062 C 288.33 1.86004 0.558209 0
M  V30 3063 O 287.605 1.33606 1.4135 0
M  V30 3064 C 287.888 3.26648 -1.51569 0
M  V30 3065 C 287.741 3.29895 -3.0576 0
M  V30 3066 C 289.06 4.23629 -1.19273 0
M  V30 3067 H 286.179 0.65727 -0.333414 0
M  V30 3068 H 288.821 1.26896 -1.41412 0
M  V30 3069 H 286.971 3.72889 -1.09023 0
M  V30 3070 H 288.643 2.91977 -3.57137 0
M  V30 3071 H 286.886 2.69163 -3.40197 0
M  V30 3072 H 287.557 4.32516 -3.42977 0
M  V30 3073 H 290.033 3.85727 -1.56057 0
M  V30 3074 H 288.909 5.23822 -1.64017 0
M  V30 3075 H 289.17 4.41968 -0.108068 0
M  V30 3076 N 288.23 0.939286 1.26551 0
M  V30 3077 C 289.193 0.451987 2.24699 0
M  V30 3078 C 290.193 -0.435869 1.5478 0
M  V30 3079 O 291.383 -0.235314 1.72603 0
M  V30 3080 C 288.515 -0.348801 3.39111 0
M  V30 3081 H 289.708 1.3193 2.69322 0
M  V30 3082 H 287.261 0.721072 1.38673 0
M  V30 3083 H 287.996 -1.23444 2.99887 0
M  V30 3084 H 287.781 0.287945 3.91041 0
M  V30 3085 H 289.271 -0.679726 4.12031 0
M  V30 3086 N 289.708 -1.40897 0.706093 0
M  V30 3087 C 290.655 -2.30751 0.0474474 0
M  V30 3088 C 291.625 -1.47678 -0.76029 0
M  V30 3089 O 292.81 -1.76441 -0.726177 0
M  V30 3090 C 289.95 -3.33815 -0.875309 0
M  V30 3091 C 289.063 -4.31961 -0.0580623 0
M  V30 3092 C 288.198 -5.22093 -0.979425 0
M  V30 3093 C 287.237 -6.11902 -0.155706 0
M  V30 3094 N 286.374 -6.94482 -1.03144 0
M  V30 3095 H 291.214 -2.86513 0.819413 0
M  V30 3096 H 288.751 -1.41102 0.415783 0
M  V30 3097 H 290.709 -3.92129 -1.42446 0
M  V30 3098 H 289.339 -2.79579 -1.61356 0
M  V30 3099 H 288.391 -3.75507 0.608147 0
M  V30 3100 H 289.703 -4.95415 0.580082 0
M  V30 3101 H 288.857 -5.85292 -1.59744 0
M  V30 3102 H 287.596 -4.5889 -1.65141 0
M  V30 3103 H 286.601 -5.47742 0.475309 0
M  V30 3104 H 287.826 -6.77162 0.512635 0
M  V30 3105 H 285.772 -6.33877 -1.68924 0
M  V30 3106 H 285.689 -7.54665 -0.449108 0
M  V30 3107 H 286.957 -7.6214 -1.63593 0
M  V30 3108 N 291.186 -0.45159 -1.50991 0
M  V30 3109 C 292.416 0.108177 -2.06317 0
M  V30 3110 C 292.824 1.35774 -1.31765 0
M  V30 3111 O 292.167 1.79838 -0.374694 0
M  V30 3112 C 292.229 0.481659 -3.56259 0
M  V30 3113 C 291.893 -0.663114 -4.52163 0
M  V30 3114 C 292.89 -1.53947 -4.96585 0
M  V30 3115 C 290.575 -0.8479 -4.95092 0
M  V30 3116 C 292.569 -2.58518 -5.82621 0
M  V30 3117 C 290.256 -1.89686 -5.80915 0
M  V30 3118 C 291.254 -2.76388 -6.24579 0
M  V30 3119 O 290.942 -3.79482 -7.08695 0
M  V30 3120 H 290.674 0.00499183 -0.675982 0
M  V30 3121 H 293.228 -0.633659 -1.95381 0
M  V30 3122 H 291.458 1.27641 -3.65027 0
M  V30 3123 H 293.147 0.974233 -3.94035 0
M  V30 3124 H 293.913 -1.4083 -4.64103 0
M  V30 3125 H 289.792 -0.18258 -4.60638 0
M  V30 3126 H 293.336 -3.26224 -6.16623 0
M  V30 3127 H 289.233 -2.02817 -6.12809 0
M  V30 3128 H 290.001 -3.76234 -7.26905 0
M  V30 3129 N 292.664 1.56529 -0.183458 0
M  V30 3130 C 293.892 2.01623 0.464285 0
M  V30 3131 C 294.307 1.06366 1.55986 0
M  V30 3132 O 293.664 0.0665398 1.82379 0
M  V30 3133 C 293.715 3.46475 1.03139 0
M  V30 3134 O 293.436 4.38095 -0.0204675 0
M  V30 3135 C 294.937 4.0703 1.75617 0
M  V30 3136 H 292.157 0.660596 0.117704 0
M  V30 3137 H 294.701 2.02451 -0.288751 0
M  V30 3138 H 292.856 3.46383 1.73486 0
M  V30 3139 H 293.27 5.22973 0.399952 0
M  V30 3140 H 294.744 5.10271 2.10542 0
M  V30 3141 H 295.221 3.49819 2.65563 0
M  V30 3142 H 295.827 4.1086 1.09882 0
M  V30 3143 N 294.142 -0.090211 1.57342 0
M  V30 3144 C 295.072 -1.10976 2.05443 0
M  V30 3145 C 296.053 -1.41482 0.944284 0
M  V30 3146 O 297.238 -1.51428 1.21586 0
M  V30 3147 C 294.368 -2.42831 2.48295 0
M  V30 3148 C 293.322 -2.26721 3.63018 0
M  V30 3149 C 292.648 -3.63796 3.91863 0
M  V30 3150 C 293.948 -1.7037 4.93732 0
M  V30 3151 H 295.642 -0.709564 2.9087 0
M  V30 3152 H 293.188 -0.339874 1.39932 0
M  V30 3153 H 295.141 -3.14431 2.80555 0
M  V30 3154 H 293.865 -2.84795 1.59873 0
M  V30 3155 H 292.524 -1.57565 3.31012 0
M  V30 3156 H 292.172 -4.03297 3.00601 0
M  V30 3157 H 291.872 -3.53861 4.69101 0
M  V30 3158 H 293.396 -4.36855 4.26603 0
M  V30 3159 H 294.81 -2.31816 5.24342 0
M  V30 3160 H 293.207 -1.71181 5.75167 0
M  V30 3161 H 294.277 -0.663542 4.80339 0
M  V30 3162 N 295.62 -1.53406 -0.361157 0
M  V30 3163 C 296.568 -1.80832 -1.46296 0
M  V30 3164 C 297.562 -0.677699 -1.55253 0
M  V30 3165 O 298.768 -0.860723 -1.58087 0
M  V30 3166 H 295.143 -0.572627 -0.487445 0
M  V30 3167 H 297.114 -2.73045 -1.20371 0
M  V30 3168 C 295.863 -2.01907 -2.8307 0
M  V30 3169 H 295.186 -2.88349 -2.76938 0
M  V30 3170 H 296.626 -2.25072 -3.59331 0
M  V30 3171 C 295.085 -0.799449 -3.27277 0
M  V30 3172 O 295.615 0.00971761 -4.01699 0
M  V30 3173 N 293.821 -0.621637 -2.83873 0
M  V30 3174 H 293.368 -1.28126 -2.23476 0
M  V30 3175 H 293.326 0.19298 -3.13807 0
M  V30 3176 N 297.098 0.621204 -1.44841 0
M  V30 3177 C 298.03 1.74615 -1.48466 0
M  V30 3178 C 299.043 1.58377 -0.37691 0
M  V30 3179 O 300.232 1.66508 -0.643215 0
M  V30 3180 C 297.332 3.12459 -1.31236 0
M  V30 3181 C 296.505 3.55064 -2.55438 0
M  V30 3182 C 295.564 4.71821 -2.32963 0
M  V30 3183 O 294.59 4.79628 -3.06505 0
M  V30 3184 N 295.792 5.64186 -1.36654 0
M  V30 3185 H 298.557 1.71973 -2.45449 0
M  V30 3186 H 296.118 0.806077 -1.40407 0
M  V30 3187 H 298.11 3.88302 -1.14032 0
M  V30 3188 H 296.68 3.09686 -0.4258 0
M  V30 3189 H 295.9 2.69324 -2.87851 0
M  V30 3190 H 297.188 3.80284 -3.38026 0
M  V30 3191 H 296.586 5.6058 -0.759344 0
M  V30 3192 H 295.143 6.39618 -1.25425 0
M  V30 3193 N 298.576 1.31904 0.862503 0
M  V30 3194 C 299.825 1.21373 1.61094 0
M  V30 3195 C 300.138 -0.22504 1.94301 0
M  V30 3196 O 301.344 -0.452121 2.67709 0
M  V30 3197 C 299.8 2.12525 2.9045 0
M  V30 3198 C 299.408 3.61441 2.64697 0
M  V30 3199 C 301.152 2.10813 3.68454 0
M  V30 3200 C 299.059 4.44578 3.90006 0
M  V30 3201 H 297.989 0.450705 0.604468 0
M  V30 3202 H 300.64 1.56811 0.953027 0
M  V30 3203 H 299.022 1.69994 3.57656 0
M  V30 3204 H 300.196 4.12264 2.05851 0
M  V30 3205 H 298.511 3.65205 2.00036 0
M  V30 3206 H 301.108 2.70167 4.61426 0
M  V30 3207 H 301.451 1.09713 4.01583 0
M  V30 3208 H 301.984 2.51583 3.08141 0
M  V30 3209 H 298.723 5.46461 3.62023 0
M  V30 3210 H 298.243 3.98508 4.48276 0
M  V30 3211 H 299.922 4.57176 4.5782 0
M  V30 3212 N 300.054 -1.07777 1.14986 0
M  V30 3213 C 301.47 -1.32373 0.891596 0
M  V30 3214 C 301.67 -1.9609 -0.463788 0
M  V30 3215 O 300.726 -2.21801 -1.20667 0
M  V30 3216 C 302.039 -2.21905 2.02925 0
M  V30 3217 C 303.587 -2.35367 2.06329 0
M  V30 3218 C 304.062 -3.28245 3.19405 0
M  V30 3219 N 305.553 -3.35824 3.19024 0
M  V30 3220 C 306.288 -4.07739 4.03158 0
M  V30 3221 N 305.784 -4.82306 4.97346 0
M  V30 3222 N 307.577 -4.03635 3.91197 0
M  V30 3223 H 299.728 -0.648039 2.02273 0
M  V30 3224 H 301.991 -0.348149 0.881757 0
M  V30 3225 H 301.697 -1.82342 3.0074 0
M  V30 3226 H 301.571 -3.22407 1.95789 0
M  V30 3227 H 303.958 -2.74186 1.09116 0
M  V30 3228 H 304.039 -1.34585 2.17533 0
M  V30 3229 H 303.683 -2.90146 4.16867 0
M  V30 3230 H 303.613 -4.28971 3.05437 0
M  V30 3231 H 306.104 -2.8267 2.50811 0
M  V30 3232 H 306.417 -5.34661 5.57994 0
M  V30 3233 H 304.762 -4.81337 5.01338 0
M  V30 3234 H 307.953 -3.44491 3.16928 0
M  V30 3235 H 308.126 -4.59417 4.5699 0
M  V30 3236 N 301.532 -0.945985 -1.26051 0
M  V30 3237 C 302.464 -0.416662 -2.25381 0
M  V30 3238 C 303.477 0.462712 -1.56086 0
M  V30 3239 O 304.666 0.272383 -1.7641 0
M  V30 3240 C 301.766 0.419812 -3.3629 0
M  V30 3241 C 300.939 -0.444531 -4.35135 0
M  V30 3242 C 299.998 0.332305 -5.2515 0
M  V30 3243 O 299.024 -0.266324 -5.68577 0
M  V30 3244 N 300.226 1.62763 -5.57215 0
M  V30 3245 H 302.991 -1.27059 -2.71433 0
M  V30 3246 H 300.552 -0.815392 -1.39868 0
M  V30 3247 H 302.544 0.947013 -3.93464 0
M  V30 3248 H 301.114 1.17456 -2.89694 0
M  V30 3249 H 300.334 -1.15291 -3.76964 0
M  V30 3250 H 301.622 -1.03478 -4.98166 0
M  V30 3251 H 301.02 2.13603 -5.23823 0
M  V30 3252 H 299.577 2.10097 -6.17011 0
M  V30 3253 N 303.011 1.40521 -0.713556 0
M  V30 3254 C 303.941 2.33381 -0.0743864 0
M  V30 3255 C 304.922 1.52784 0.747735 0
M  V30 3256 O 306.107 1.81258 0.697071 0
M  V30 3257 C 303.237 3.36748 0.849598 0
M  V30 3258 C 302.191 4.27793 0.133247 0
M  V30 3259 C 301.517 5.21679 1.17281 0
M  V30 3260 C 302.817 5.12415 -1.01134 0
M  V30 3261 H 304.511 2.87081 -0.850007 0
M  V30 3262 H 302.057 1.38034 -0.410201 0
M  V30 3263 H 304.01 4.00648 1.30612 0
M  V30 3264 H 302.734 2.81439 1.65709 0
M  V30 3265 H 301.393 3.65342 -0.303426 0
M  V30 3266 H 301.041 4.62677 1.9733 0
M  V30 3267 H 300.741 5.83435 0.698397 0
M  V30 3268 H 302.265 5.88456 1.62947 0
M  V30 3269 H 303.679 5.69781 -0.634274 0
M  V30 3270 H 302.076 5.83203 -1.41399 0
M  V30 3271 H 303.146 4.48514 -1.84292 0
M  V30 3272 N 304.489 0.459591 1.5075 0
M  V30 3273 C 305.436 -0.340524 2.28274 0
M  V30 3274 C 306.406 -0.997371 1.32822 0
M  V30 3275 O 307.591 -1.01202 1.61749 0
M  V30 3276 C 304.731 -1.42317 3.14388 0
M  V30 3277 C 303.844 -0.782251 4.24859 0
M  V30 3278 C 302.979 -1.84182 4.98247 0
M  V30 3279 C 302.018 -1.18053 6.00608 0
M  V30 3280 N 301.155 -2.18244 6.67319 0
M  V30 3281 H 305.995 0.326899 2.96202 0
M  V30 3282 H 303.532 0.173057 1.46078 0
M  V30 3283 H 305.49 -2.06241 3.62658 0
M  V30 3284 H 304.12 -2.05992 2.4853 0
M  V30 3285 H 303.172 -0.0307404 3.80388 0
M  V30 3286 H 304.484 -0.259663 4.98124 0
M  V30 3287 H 303.638 -2.55714 5.50177 0
M  V30 3288 H 302.377 -2.39819 4.24662 0
M  V30 3289 H 301.382 -0.450776 5.47949 0
M  V30 3290 H 302.607 -0.631202 6.7616 0
M  V30 3291 H 300.553 -2.72919 5.96533 0
M  V30 3292 H 300.47 -1.70938 7.36421 0
M  V30 3293 H 301.738 -2.89191 7.23871 0
M  V30 3294 N 305.967 -1.56429 0.191757 0
M  V30 3295 C 307.215 -1.97095 -0.447006 0
M  V30 3296 C 307.536 -1.07967 -1.62383 0
M  V30 3297 O 306.806 -0.150248 -1.95323 0
M  V30 3298 H 305.386 -0.727832 -0.168135 0
M  V30 3299 H 308.048 -1.92911 0.27771 0
M  V30 3300 H 307.144 -3.01848 -0.793371 0
M  V30 3301 N 307.445 0.0818655 -1.57387 0
M  V30 3302 C 308.675 0.794954 -1.90694 0
M  V30 3303 C 309.083 1.72147 -0.784982 0
M  V30 3304 O 308.426 1.81974 0.251196 0
M  V30 3305 C 308.488 1.65042 -3.19376 0
M  V30 3306 C 308.152 0.894337 -4.48164 0
M  V30 3307 C 309.149 0.21813 -5.19442 0
M  V30 3308 C 306.834 0.864495 -4.94805 0
M  V30 3309 C 308.828 -0.477802 -6.35607 0
M  V30 3310 C 306.515 0.164785 -6.10878 0
M  V30 3311 C 307.513 -0.505173 -6.81129 0
M  V30 3312 O 307.201 -1.19363 -7.94989 0
M  V30 3313 H 306.933 0.231779 -0.635023 0
M  V30 3314 H 309.487 0.059493 -2.05314 0
M  V30 3315 H 307.717 2.42844 -3.00938 0
M  V30 3316 H 309.406 2.24127 -3.38411 0
M  V30 3317 H 310.172 0.232558 -4.84442 0
M  V30 3318 H 306.051 1.37542 -4.40004 0
M  V30 3319 H 309.595 -1.00129 -6.90377 0
M  V30 3320 H 305.492 0.148249 -6.4533 0
M  V30 3321 H 306.26 -1.10188 -8.11049 0
M  V30 3322 N 308.923 1.53595 0.353017 0
M  V30 3323 C 309.87 1.80919 1.43308 0
M  V30 3324 C 310.84 0.654288 1.5267 0
M  V30 3325 O 312.025 0.897759 1.6836 0
M  V30 3326 C 309.165 2.01605 2.80089 0
M  V30 3327 C 308.278 3.29321 2.79593 0
M  V30 3328 C 307.413 3.40125 4.0803 0
M  V30 3329 C 306.452 4.61826 4.01725 0
M  V30 3330 N 305.589 4.69716 5.21834 0
M  V30 3331 H 310.429 2.73074 1.19308 0
M  V30 3332 H 307.966 1.35263 0.578131 0
M  V30 3333 H 309.924 2.11586 3.59565 0
M  V30 3334 H 308.554 1.12772 3.0246 0
M  V30 3335 H 307.606 3.28229 1.92276 0
M  V30 3336 H 308.918 4.18884 2.70809 0
M  V30 3337 H 308.072 3.49488 4.95927 0
M  V30 3338 H 306.811 2.48601 4.19582 0
M  V30 3339 H 305.816 4.52552 3.12213 0
M  V30 3340 H 307.041 5.54705 3.91764 0
M  V30 3341 H 304.987 3.81097 5.33948 0
M  V30 3342 H 304.904 5.53202 5.1527 0
M  V30 3343 H 306.172 4.83376 6.11529 0
M  V30 3344 N 310.401 -0.613514 1.45168 0
M  V30 3345 C 311.311 -1.75296 1.55912 0
M  V30 3346 C 312.327 -1.68244 0.443856 0
M  V30 3347 O 313.503 -1.88706 0.70371 0
M  V30 3348 C 310.568 -3.1174 1.5172 0
M  V30 3349 C 309.629 -3.30291 2.74238 0
M  V30 3350 C 308.862 -4.60226 2.70236 0
M  V30 3351 O 309.085 -5.42168 1.77229 0
M  V30 3352 O 308.019 -4.81361 3.61352 0
M  V30 3353 H 311.845 -1.69183 2.52212 0
M  V30 3354 H 309.43 -0.776886 1.27612 0
M  V30 3355 H 311.312 -3.93044 1.51968 0
M  V30 3356 H 309.987 -3.18357 0.585697 0
M  V30 3357 H 308.894 -2.48598 2.79553 0
M  V30 3358 H 310.227 -3.28547 3.66494 0
M  V30 3359 N 311.879 -1.3236 -0.855495 0
M  V30 3360 C 313.127 -1.22629 -1.60644 0
M  V30 3361 C 313.448 0.212136 -1.93843 0
M  V30 3362 O 312.718 1.13666 -1.59552 0
M  V30 3363 H 311.298 -0.450882 -0.595579 0
M  V30 3364 H 313.96 -1.65871 -1.02337 0
M  V30 3365 H 313.056 -1.80832 -2.54374 0
M  V30 3366 N 313.357 1.07166 -1.15556 0
M  V30 3367 C 314.603 1.80065 -0.932984 0
M  V30 3368 C 314.936 1.86586 0.53845 0
M  V30 3369 O 314.211 1.35098 1.39924 0
M  V30 3370 C 314.494 3.25022 -1.55025 0
M  V30 3371 C 314.347 3.26634 -3.09242 0
M  V30 3372 C 315.666 4.22341 -1.2376 0
M  V30 3373 H 312.785 0.653697 -0.340366 0
M  V30 3374 H 315.427 1.25389 -1.4275 0
M  V30 3375 H 313.577 3.71712 -1.12972 0
M  V30 3376 H 315.249 2.88173 -3.60214 0
M  V30 3377 H 313.492 2.65539 -3.43033 0
M  V30 3378 H 314.163 4.28854 -3.47546 0
M  V30 3379 H 316.639 3.8405 -1.60139 0
M  V30 3380 H 315.515 5.22053 -1.69564 0
M  V30 3381 H 315.776 4.41828 -0.154938 0
M  V30 3382 N 314.835 0.952656 1.25548 0
M  V30 3383 C 316.065 0.622592 1.96996 0
M  V30 3384 C 316.473 -0.809112 1.71026 0
M  V30 3385 O 315.816 -1.55258 0.981861 0
M  V30 3386 C 315.878 0.798946 3.5051 0
M  V30 3387 C 315.542 2.20744 4.00151 0
M  V30 3388 C 316.539 3.18394 4.11001 0
M  V30 3389 C 314.224 2.5311 4.33867 0
M  V30 3390 C 316.218 4.46504 4.54877 0
M  V30 3391 C 313.905 3.8145 4.7743 0
M  V30 3392 C 314.903 4.77959 4.87897 0
M  V30 3393 O 314.591 6.04012 5.30494 0
M  V30 3394 H 314.323 0.232503 0.634758 0
M  V30 3395 H 316.877 1.2789 1.60728 0
M  V30 3396 H 315.107 0.0854903 3.86605 0
M  V30 3397 H 316.796 0.47023 4.03167 0
M  V30 3398 H 317.562 2.94715 3.85186 0
M  V30 3399 H 313.441 1.78719 4.24948 0
M  V30 3400 H 316.985 5.21835 4.62962 0
M  V30 3401 H 312.882 4.04936 5.0269 0
M  V30 3402 H 313.65 6.0736 5.48685 0
M  V30 3403 N 316.313 -1.40141 0.720998 0
M  V30 3404 C 317.559 -2.01084 0.263231 0
M  V30 3405 C 317.892 -1.57052 -1.14229 0
M  V30 3406 O 317.167 -0.793027 -1.77599 0
M  V30 3407 C 317.45 -3.58401 0.349344 0
M  V30 3408 C 317.303 -4.12491 1.79363 0
M  V30 3409 C 318.622 -4.39231 -0.276351 0
M  V30 3410 H 315.741 -0.730572 0.0971228 0
M  V30 3411 H 318.383 -1.66543 0.914518 0
M  V30 3412 H 316.533 -3.87958 -0.205165 0
M  V30 3413 H 318.205 -3.93711 2.40394 0
M  V30 3414 H 316.448 -3.66576 2.31958 0
M  V30 3415 H 317.119 -5.21646 1.80524 0
M  V30 3416 H 319.595 -4.15637 0.196184 0
M  V30 3417 H 318.471 -5.48586 -0.185681 0
M  V30 3418 H 318.732 -4.20643 -1.36059 0
M  V30 3419 N 317.792 -0.46758 -1.50504 0
M  V30 3420 C 318.739 0.328413 -2.28452 0
M  V30 3421 C 319.709 0.990313 -1.33349 0
M  V30 3422 O 320.894 1.00343 -1.62284 0
M  V30 3423 C 318.034 1.40648 -3.15138 0
M  V30 3424 C 317.147 0.759709 -4.25267 0
M  V30 3425 C 316.282 1.81537 -4.99217 0
M  V30 3426 C 315.321 1.14866 -6.01226 0
M  V30 3427 N 314.458 2.14702 -6.68467 0
M  V30 3428 H 319.298 -0.342603 -2.96024 0
M  V30 3429 H 316.835 -0.180801 -1.45985 0
M  V30 3430 H 318.793 2.04315 -3.63746 0
M  V30 3431 H 317.423 2.04671 -2.49619 0
M  V30 3432 H 316.475 0.0105671 -3.80399 0
M  V30 3433 H 317.787 0.233243 -4.98254 0
M  V30 3434 H 316.941 2.52793 -5.51526 0
M  V30 3435 H 315.68 2.37564 -4.25928 0
M  V30 3436 H 314.685 0.42171 -5.4818 0
M  V30 3437 H 315.91 0.595334 -6.76485 0
M  V30 3438 H 313.856 2.69752 -5.97972 0
M  V30 3439 H 313.773 1.6703 -7.37317 0
M  V30 3440 H 315.041 2.85348 -7.25394 0
M  V30 3441 N 319.27 1.56325 -0.20005 0
M  V30 3442 C 320.516 1.98012 0.438059 0
M  V30 3443 C 320.849 1.08702 1.60927 0
M  V30 3444 O 320.124 0.140064 1.93995 0
M  V30 3445 C 320.407 3.48841 0.893419 0
M  V30 3446 C 320.26 4.48928 -0.279947 0
M  V30 3447 C 321.579 4.03498 1.75719 0
M  V30 3448 H 318.698 0.719918 0.157757 0
M  V30 3449 H 321.34 1.87743 -0.291968 0
M  V30 3450 H 319.49 3.57723 1.51547 0
M  V30 3451 H 321.162 4.52079 -0.91772 0
M  V30 3452 H 319.405 4.23694 -0.930919 0
M  V30 3453 H 320.076 5.5194 0.0812601 0
M  V30 3454 H 322.552 3.97427 1.23253 0
M  V30 3455 H 321.428 5.09393 2.04476 0
M  V30 3456 H 321.689 3.4906 2.71311 0
M  V30 3457 N 320.748 -0.0735177 1.57428 0
M  V30 3458 C 322.164 -0.428264 1.53747 0
M  V30 3459 C 322.364 -1.79272 0.91998 0
M  V30 3460 O 321.42 -2.47051 0.521745 0
M  V30 3461 C 322.733 -0.370914 2.98404 0
M  V30 3462 C 324.281 -0.451224 3.0973 0
M  V30 3463 C 324.756 -0.4238 4.56035 0
M  V30 3464 N 326.247 -0.483925 4.60665 0
M  V30 3465 C 326.982 -0.484891 5.71346 0
M  V30 3466 N 326.478 -0.440775 6.91396 0
M  V30 3467 N 328.271 -0.531319 5.59583 0
M  V30 3468 H 320.422 0.819949 1.95935 0
M  V30 3469 H 322.685 0.307493 0.896745 0
M  V30 3470 H 322.391 0.564956 3.47133 0
M  V30 3471 H 322.265 -1.18176 3.5821 0
M  V30 3472 H 324.652 -1.37752 2.60976 0
M  V30 3473 H 324.733 0.388167 2.52838 0
M  V30 3474 H 324.377 0.498638 5.05446 0
M  V30 3475 H 324.307 -1.2807 5.10789 0
M  V30 3476 H 326.798 -0.522338 3.74273 0
M  V30 3477 H 327.111 -0.44539 7.71515 0
M  V30 3478 H 325.456 -0.40749 6.93804 0
M  V30 3479 H 328.647 -0.563464 4.64696 0
M  V30 3480 H 328.82 -0.528603 6.4584 0
M  V30 3481 N 322.226 -1.5378 -0.344866 0
M  V30 3482 C 323.136 -1.84667 -1.4469 0
M  V30 3483 C 324.152 -0.736704 -1.57635 0
M  V30 3484 O 325.328 -1.02888 -1.73136 0
M  V30 3485 C 322.393 -2.04869 -2.79696 0
M  V30 3486 C 321.454 -3.28731 -2.76106 0
M  V30 3487 C 320.687 -3.4796 -4.04673 0
M  V30 3488 O 320.91 -2.71052 -5.01883 0
M  V30 3489 O 319.844 -4.41383 -4.09224 0
M  V30 3490 H 323.67 -2.78334 -1.21506 0
M  V30 3491 H 321.255 -1.39418 -0.536921 0
M  V30 3492 H 323.137 -2.19609 -3.59652 0
M  V30 3493 H 321.812 -1.14391 -3.02814 0
M  V30 3494 H 320.719 -3.19396 -1.94774 0
M  V30 3495 H 322.052 -4.19198 -2.57941 0
M  V30 3496 N 323.704 0.605807 -1.45491 0
M  V30 3497 C 324.952 1.36207 -1.49305 0
M  V30 3498 C 325.273 1.94519 -0.136863 0
M  V30 3499 O 324.543 1.77261 0.833983 0
M  V30 3500 H 323.123 0.50565 -0.549843 0
M  V30 3501 H 325.785 0.711239 -1.81459 0
M  V30 3502 H 324.881 2.18058 -2.23287 0
M  V30 3503 N 325.182 1.32811 0.848464 0
M  V30 3504 C 326.428 1.23907 1.60546 0
M  V30 3505 C 326.761 -0.197161 1.93197 0
M  V30 3506 O 326.036 -1.13596 1.5788 0
M  V30 3507 C 326.319 2.10489 2.92175 0
M  V30 3508 C 326.172 3.62522 2.66266 0
M  V30 3509 C 327.491 1.97075 3.93509 0
M  V30 3510 H 324.61 0.451459 0.58254 0
M  V30 3511 H 327.252 1.62818 0.979296 0
M  V30 3512 H 325.402 1.77434 3.45614 0
M  V30 3513 H 327.074 4.05821 2.19334 0
M  V30 3514 H 325.317 3.84879 2.00126 0
M  V30 3515 H 325.988 4.18437 3.6002 0
M  V30 3516 H 328.464 2.26045 3.49346 0
M  V30 3517 H 327.34 2.59923 4.83457 0
M  V30 3518 H 327.601 0.940186 4.31987 0
M  V30 3519 N 326.66 -1.06551 1.16123 0
M  V30 3520 C 327.57 -2.17484 0.879662 0
M  V30 3521 C 328.586 -1.73377 -0.147104 0
M  V30 3522 O 329.762 -2.01379 0.0289128 0
M  V30 3523 C 326.827 -3.44591 0.381829 0
M  V30 3524 C 325.888 -4.0322 1.4735 0
M  V30 3525 C 325.121 -5.24261 0.999324 0
M  V30 3526 O 325.344 -5.70198 -0.151957 0
M  V30 3527 O 324.278 -5.74775 1.78653 0
M  V30 3528 H 328.104 -2.44075 1.80724 0
M  V30 3529 H 325.689 -1.16042 0.940992 0
M  V30 3530 H 327.571 -4.21254 0.111053 0
M  V30 3531 H 326.246 -3.19532 -0.51777 0
M  V30 3532 H 325.153 -3.2806 1.79798 0
M  V30 3533 H 326.486 -4.32568 2.34831 0
M  V30 3534 N 328.138 -0.959301 -1.25041 0
M  V30 3535 C 329.415 -0.533805 -1.88175 0
M  V30 3536 C 329.795 0.988994 -1.865 0
M  V30 3537 O 329.143 1.85677 -1.33177 0
M  V30 3538 C 329.353 -1.11575 -3.30684 0
M  V30 3539 C 330.701 -1.19548 -4.07423 0
M  V30 3540 O 331.725 -1.06765 -3.39823 0
M  V30 3541 O 330.584 -1.39656 -5.28354 0
M  V30 3542 H 327.678 -0.176772 -0.807887 0
M  V30 3543 H 330.224 -1.05303 -1.33076 0
M  V30 3544 H 328.996 -2.15884 -3.26358 0
M  V30 3545 H 328.619 -0.580059 -3.93346 0
M  V30 3546 N 329.616 1.39756 -0.72842 0
M  V30 3547 C 330.564 2.32485 -0.0731849 0
M  V30 3548 C 331.558 1.52717 0.733063 0
M  V30 3549 O 332.764 1.68428 0.634988 0
M  V30 3550 H 329.139 0.751984 -0.00486469 0
M  V30 3551 H 331.11 2.85382 -0.871761 0
M  V30 3552 C 329.859 3.37773 0.824908 0
M  V30 3553 H 329.182 3.99227 0.213915 0
M  V30 3554 H 330.622 4.05121 1.25111 0
M  V30 3555 C 329.081 2.74287 1.95622 0
M  V30 3556 O 329.611 2.61618 3.04826 0
M  V30 3557 N 327.817 2.32475 1.74367 0
M  V30 3558 H 327.364 2.4298 0.855494 0
M  V30 3559 H 327.322 1.90337 2.50238 0
M  V30 3560 N 331.094 0.475555 1.50254 0
M  V30 3561 C 332.004 -0.321501 2.32387 0
M  V30 3562 C 333.02 -0.991755 1.42969 0
M  V30 3563 O 334.196 -0.978747 1.76018 0
M  V30 3564 C 331.261 -1.38667 3.17762 0
M  V30 3565 C 330.322 -0.732538 4.23004 0
M  V30 3566 C 329.555 -1.74695 5.04299 0
M  V30 3567 O 329.778 -2.97399 4.86734 0
M  V30 3568 O 328.712 -1.31631 5.8733 0
M  V30 3569 H 332.538 0.350071 3.01676 0
M  V30 3570 H 330.123 0.237321 1.47503 0
M  V30 3571 H 332.005 -2.00354 3.70724 0
M  V30 3572 H 330.68 -2.04163 2.51196 0
M  V30 3573 H 329.587 -0.0765902 3.74022 0
M  V30 3574 H 330.92 -0.120452 4.92053 0
M  V30 3575 N 332.573 -1.56217 0.208337 0
M  V30 3576 C 333.503 -2.22694 -0.702116 0
M  V30 3577 C 334.484 -1.19432 -1.2112 0
M  V30 3578 O 335.669 -1.47978 -1.25762 0
M  V30 3579 C 332.799 -2.8966 -1.9161 0
M  V30 3580 C 331.753 -3.9928 -1.5414 0
M  V30 3581 C 331.079 -4.53476 -2.83308 0
M  V30 3582 C 332.379 -5.17012 -0.741339 0
M  V30 3583 H 334.073 -2.99034 -0.147898 0
M  V30 3584 H 331.619 -1.43831 -0.0696951 0
M  V30 3585 H 333.572 -3.34852 -2.55836 0
M  V30 3586 H 332.296 -2.10746 -2.49507 0
M  V30 3587 H 330.955 -3.54799 -0.922668 0
M  V30 3588 H 330.603 -3.71308 -3.39322 0
M  V30 3589 H 330.303 -5.27451 -2.58976 0
M  V30 3590 H 331.827 -5.01378 -3.485 0
M  V30 3591 H 333.241 -5.58667 -1.28699 0
M  V30 3592 H 331.638 -5.97137 -0.595627 0
M  V30 3593 H 332.708 -4.8423 0.254851 0
M  V30 3594 N 334.051 0.0651679 -1.57465 0
M  V30 3595 C 334.981 1.07693 -2.07182 0
M  V30 3596 C 335.962 1.39962 -0.966673 0
M  V30 3597 O 337.147 1.49475 -1.2398 0
M  V30 3598 C 334.277 2.3885 -2.52127 0
M  V30 3599 C 333.231 2.20917 -3.66579 0
M  V30 3600 C 332.557 3.57515 -3.97601 0
M  V30 3601 C 333.857 1.62493 -4.9638 0
M  V30 3602 H 335.551 0.663199 -2.91962 0
M  V30 3603 H 333.097 0.317569 -1.40455 0
M  V30 3604 H 335.05 3.09928 -2.85522 0
M  V30 3605 H 333.774 2.82215 -1.64384 0
M  V30 3606 H 332.433 1.52279 -3.33477 0
M  V30 3607 H 332.081 3.98463 -3.06979 0
M  V30 3608 H 331.781 3.46353 -4.74672 0
M  V30 3609 H 333.305 4.30013 -4.33499 0
M  V30 3610 H 334.719 2.23445 -5.27963 0
M  V30 3611 H 333.116 1.62009 -5.77818 0
M  V30 3612 H 334.186 0.587041 -4.81333 0
M  V30 3613 N 335.529 1.53961 0.336706 0
M  V30 3614 C 336.479 1.7881 1.41461 0
M  V30 3615 C 337.463 0.643561 1.47469 0
M  V30 3616 O 338.655 0.903166 1.52223 0
M  V30 3617 C 335.784 2.00722 2.78506 0
M  V30 3618 C 334.87 3.2126 2.76862 0
M  V30 3619 N 335.261 4.42588 2.44845 0
M  V30 3620 C 333.559 3.22568 3.08004 0
M  V30 3621 C 334.26 5.2447 2.51607 0
M  V30 3622 N 333.236 4.61344 2.87511 0
M  V30 3623 H 337.038 2.70205 1.15615 0
M  V30 3624 H 334.552 1.52978 0.545112 0
M  V30 3625 H 336.549 2.1666 3.5618 0
M  V30 3626 H 335.209 1.10573 3.05293 0
M  V30 3627 H 336.22 4.69819 2.17922 0
M  V30 3628 H 332.897 2.42409 3.39918 0
M  V30 3629 H 334.287 6.31324 2.29955 0
M  V30 3630 N 337.007 -0.598083 1.45811 0
M  V30 3631 C 337.917 -1.73632 1.57763 0
M  V30 3632 C 338.933 -1.67763 0.461676 0
M  V30 3633 O 340.109 -1.87949 0.723685 0
M  V30 3634 C 337.174 -3.10114 1.55018 0
M  V30 3635 C 336.235 -3.27364 2.77726 0
M  V30 3636 C 335.468 -4.57334 2.75102 0
M  V30 3637 O 335.691 -5.40258 1.8297 0
M  V30 3638 O 334.625 -4.77502 3.66437 0
M  V30 3639 H 338.451 -1.66498 2.53992 0
M  V30 3640 H 336.036 -0.763308 1.28429 0
M  V30 3641 H 337.918 -3.9141 1.56129 0
M  V30 3642 H 336.593 -3.17718 0.619431 0
M  V30 3643 H 335.5 -2.45619 2.82174 0
M  V30 3644 H 336.833 -3.24641 3.69958 0
M  V30 3645 N 338.485 -1.33259 -0.841409 0
M  V30 3646 C 339.725 -1.25902 -1.61022 0
M  V30 3647 C 340.089 0.173325 -1.91216 0
M  V30 3648 O 341.29 0.370824 -2.6623 0
M  V30 3649 C 339.561 -2.10735 -2.88662 0
M  V30 3650 S 341.12 -2.20541 -3.79351 0
M  V30 3651 H 337.938 -0.447958 -0.552137 0
M  V30 3652 H 340.54 -1.68263 -0.995382 0
M  V30 3653 H 339.244 -3.1384 -2.64448 0
M  V30 3654 H 338.775 -1.69201 -3.55154 0
M  V30 3655 H 340.79 -1.36462 -4.77067 0
M  V30 3656 N 339.963 1.05934 -1.16686 0
M  V30 3657 C 341.209 1.79065 -0.95203 0
M  V30 3658 C 341.542 1.87147 0.518629 0
M  V30 3659 O 340.817 1.36574 1.38484 0
M  V30 3660 C 341.1 3.23359 -1.58464 0
M  V30 3661 C 340.953 3.23336 -3.12689 0
M  V30 3662 C 342.272 4.21004 -1.28232 0
M  V30 3663 H 339.391 0.65005 -0.34728 0
M  V30 3664 H 342.033 1.23868 -1.44072 0
M  V30 3665 H 340.183 3.70493 -1.16908 0
M  V30 3666 H 341.855 2.84336 -3.6325 0
M  V30 3667 H 340.098 2.61886 -3.4583 0
M  V30 3668 H 340.769 4.25144 -3.52075 0
M  V30 3669 H 343.245 3.8233 -1.64203 0
M  V30 3670 H 342.121 5.20225 -1.75092 0
M  V30 3671 H 342.382 4.41639 -0.201791 0
M  V30 3672 N 341.441 0.965919 1.2453 0
M  V30 3673 C 342.373 0.452465 2.2469 0
M  V30 3674 C 343.386 -0.437821 1.56802 0
M  V30 3675 O 344.575 -0.244283 1.76821 0
M  V30 3676 C 341.675 -0.366258 3.36915 0
M  V30 3677 C 340.848 0.513701 4.34373 0
M  V30 3678 C 339.907 -0.248716 5.25612 0
M  V30 3679 O 338.933 0.356745 5.68081 0
M  V30 3680 N 340.135 -1.53877 5.59734 0
M  V30 3681 H 342.9 1.31361 2.69378 0
M  V30 3682 H 340.461 0.837541 1.38553 0
M  V30 3683 H 342.453 -0.884297 3.94921 0
M  V30 3684 H 341.023 -1.12832 2.91526 0
M  V30 3685 H 340.243 1.21273 3.75082 0
M  V30 3686 H 341.531 1.11391 4.96457 0
M  V30 3687 H 340.929 -2.05243 5.27154 0
M  V30 3688 H 339.486 -2.00254 6.20275 0
M  V30 3689 N 342.919 -1.39368 0.735821 0
M  V30 3690 C 344.144 -2.05319 0.293052 0
M  V30 3691 C 344.569 -1.55115 -1.064 0
M  V30 3692 O 343.927 -0.695261 -1.67439 0
M  V30 3693 C 343.975 -3.59305 0.305323 0
M  V30 3694 O 343.079 -4.06299 -0.706761 0
M  V30 3695 H 342.42 -0.650529 0.13307 0
M  V30 3696 H 344.95 -1.78386 1.00197 0
M  V30 3697 H 344.96 -4.07724 0.149997 0
M  V30 3698 H 343.635 -3.95207 1.29553 0
M  V30 3699 H 342.212 -3.69292 -0.517504 0
M  V30 3700 N 344.397 -0.483516 -1.5 0
M  V30 3701 C 345.643 0.0672592 -2.02688 0
M  V30 3702 C 345.976 1.38247 -1.36387 0
M  V30 3703 O 345.251 1.88131 -0.493675 0
M  V30 3704 C 345.534 0.238109 -3.59312 0
M  V30 3705 C 345.387 -1.099 -4.36168 0
M  V30 3706 C 346.706 0.986916 -4.28892 0
M  V30 3707 H 343.825 0.0229696 -0.736642 0
M  V30 3708 H 346.467 -0.631527 -1.79197 0
M  V30 3709 H 344.617 0.8333 -3.79458 0
M  V30 3710 H 346.289 -1.73172 -4.27562 0
M  V30 3711 H 344.532 -1.69261 -3.99416 0
M  V30 3712 H 345.203 -0.932954 -5.44059 0
M  V30 3713 H 347.679 0.482302 -4.13295 0
M  V30 3714 H 346.555 1.07527 -5.38265 0
M  V30 3715 H 346.816 2.0265 -3.92919 0
M  V30 3716 N 345.875 1.56104 -0.216619 0
M  V30 3717 C 347.1 2.0301 0.424462 0
M  V30 3718 C 347.525 1.0955 1.52907 0
M  V30 3719 O 346.883 0.0827914 1.81111 0
M  V30 3720 C 346.931 3.4819 0.937883 0
M  V30 3721 O 346.035 3.57865 2.04955 0
M  V30 3722 H 345.376 0.656925 0.0966755 0
M  V30 3723 H 347.906 2.01859 -0.33381 0
M  V30 3724 H 347.916 3.88413 1.24897 0
M  V30 3725 H 346.591 4.15699 0.129387 0
M  V30 3726 H 345.168 3.29527 1.74546 0
M  V30 3727 N 347.353 -0.0568162 1.57498 0
M  V30 3728 C 348.599 -0.75422 1.88253 0
M  V30 3729 C 348.932 -1.76461 0.810865 0
M  V30 3730 O 348.207 -1.93691 -0.177259 0
M  V30 3731 C 348.49 -1.44878 3.2967 0
M  V30 3732 C 348.343 -0.453789 4.47505 0
M  V30 3733 C 349.662 -2.38994 3.69554 0
M  V30 3734 H 346.781 -0.272724 0.684683 0
M  V30 3735 H 349.423 -0.0172113 1.89992 0
M  V30 3736 H 347.573 -2.077 3.28318 0
M  V30 3737 H 349.245 0.170371 4.60985 0
M  V30 3738 H 347.488 0.229552 4.33192 0
M  V30 3739 H 348.159 -0.977699 5.43273 0
M  V30 3740 H 350.635 -1.86239 3.72095 0
M  V30 3741 H 349.511 -2.84587 4.69363 0
M  V30 3742 H 349.772 -3.24461 3.00296 0
M  V30 3743 N 348.832 -1.54138 -0.328536 0
M  V30 3744 C 349.742 -1.86192 -1.42723 0
M  V30 3745 C 350.758 -0.753382 -1.56844 0
M  V30 3746 O 351.934 -1.04718 -1.72035 0
M  V30 3747 C 348.999 -2.07824 -2.77507 0
M  V30 3748 C 348.06 -3.31641 -2.72603 0
M  V30 3749 C 347.293 -3.52232 -4.00959 0
M  V30 3750 O 347.516 -2.7636 -4.9898 0
M  V30 3751 O 346.45 -4.45699 -4.0452 0
M  V30 3752 H 350.276 -2.79608 -1.18547 0
M  V30 3753 H 347.861 -1.3998 -0.522104 0
M  V30 3754 H 349.743 -2.23411 -3.57303 0
M  V30 3755 H 348.418 -1.17596 -3.01584 0
M  V30 3756 H 347.325 -3.21444 -1.91376 0
M  V30 3757 H 348.658 -4.2191 -2.53481 0
M  V30 3758 N 350.31 0.590341 -1.46126 0
M  V30 3759 C 351.587 1.35029 -1.41515 0
M  V30 3760 C 351.967 2.10888 -0.0946472 0
M  V30 3761 O 351.315 2.08998 0.923693 0
M  V30 3762 C 351.525 2.28269 -2.63997 0
M  V30 3763 C 352.873 2.90338 -3.09821 0
M  V30 3764 O 353.897 2.38585 -2.64492 0
M  V30 3765 O 352.756 3.84321 -3.88535 0
M  V30 3766 H 349.85 0.606317 -0.562413 0
M  V30 3767 H 352.396 0.611994 -1.58281 0
M  V30 3768 H 351.168 1.71591 -3.51671 0
M  V30 3769 H 350.791 3.0945 -2.49652 0
M  V30 3770 N 351.788 1.33704 0.83433 0
M  V30 3771 C 353.034 1.25603 1.59222 0
M  V30 3772 C 353.367 -0.176659 1.93395 0
M  V30 3773 O 352.642 -1.11915 1.59076 0
M  V30 3774 C 352.925 2.13576 2.89926 0
M  V30 3775 C 352.778 3.65326 2.62406 0
M  V30 3776 C 354.097 2.01238 3.91397 0
M  V30 3777 H 351.216 0.457613 0.577719 0
M  V30 3778 H 353.858 1.63848 0.961972 0
M  V30 3779 H 352.008 1.8109 3.43713 0
M  V30 3780 H 353.68 4.08124 2.15017 0
M  V30 3781 H 351.923 3.8698 1.96033 0
M  V30 3782 H 352.594 4.22232 3.55562 0
M  V30 3783 H 355.07 2.29738 3.46929 0
M  V30 3784 H 353.946 2.65036 4.80673 0
M  V30 3785 H 354.207 0.985951 4.30966 0
M  V30 3786 N 353.266 -1.05314 1.17247 0
M  V30 3787 C 354.196 -2.1498 0.911362 0
M  V30 3788 C 355.177 -1.69471 -0.146169 0
M  V30 3789 O 356.362 -1.942 0.003812 0
M  V30 3790 C 353.492 -3.4472 0.422528 0
M  V30 3791 C 352.446 -4.03789 1.4191 0
M  V30 3792 C 351.772 -5.28858 0.788274 0
M  V30 3793 C 353.072 -4.41418 2.7919 0
M  V30 3794 H 354.766 -2.3708 1.82848 0
M  V30 3795 H 352.312 -1.13938 0.880569 0
M  V30 3796 H 354.265 -4.20787 0.227289 0
M  V30 3797 H 352.989 -3.22269 -0.530123 0
M  V30 3798 H 351.648 -3.2979 1.60106 0
M  V30 3799 H 351.296 -5.02709 -0.171173 0
M  V30 3800 H 350.996 -5.69338 1.45353 0
M  V30 3801 H 352.52 -6.07612 0.603282 0
M  V30 3802 H 353.934 -5.08524 2.64719 0
M  V30 3803 H 352.331 -4.92913 3.42282 0
M  V30 3804 H 353.401 -3.51819 3.33693 0
M  V30 3805 N 354.744 -0.972509 -1.24016 0
M  V30 3806 C 355.692 -0.498562 -2.27194 0
M  V30 3807 C 356.686 0.440372 -1.63576 0
M  V30 3808 O 357.892 0.315133 -1.7722 0
M  V30 3809 H 354.267 -0.142775 -0.738322 0
M  V30 3810 H 356.238 -1.38065 -2.64539 0
M  V30 3811 C 354.987 0.191072 -3.47175 0
M  V30 3812 H 354.31 -0.522318 -3.96373 0
M  V30 3813 H 355.75 0.486445 -4.212 0
M  V30 3814 C 354.209 1.41967 -3.05527 0
M  V30 3815 O 354.739 2.51642 -3.13112 0
M  V30 3816 N 352.945 1.28746 -2.60524 0
M  V30 3817 H 352.492 0.395089 -2.54552 0
M  V30 3818 H 352.45 2.11061 -2.33025 0
M  V30 3819 N 356.222 1.38976 -0.743202 0
M  V30 3820 C 357.132 2.3434 -0.110399 0
M  V30 3821 C 358.148 1.58741 0.712559 0
M  V30 3822 O 359.324 1.9099 0.639125 0
M  V30 3823 C 356.389 3.37812 0.780012 0
M  V30 3824 C 355.45 4.29263 -0.0561319 0
M  V30 3825 C 354.683 5.27793 0.791875 0
M  V30 3826 O 354.906 5.33043 2.03031 0
M  V30 3827 O 353.84 6.01512 0.216183 0
M  V30 3828 H 357.666 2.90129 -0.897714 0
M  V30 3829 H 355.251 1.40643 -0.503966 0
M  V30 3830 H 357.133 4.01194 1.28923 0
M  V30 3831 H 355.808 2.84395 1.546 0
M  V30 3832 H 354.715 3.69076 -0.611056 0
M  V30 3833 H 356.048 4.85907 -0.784531 0
M  V30 3834 N 357.7 0.491464 1.49741 0
M  V30 3835 C 358.948 -0.0563141 2.02022 0
M  V30 3836 C 359.269 -1.38363 1.37407 0
M  V30 3837 O 358.539 -1.88702 0.526166 0
M  V30 3838 H 357.119 -0.0238014 0.746621 0
M  V30 3839 H 359.781 0.646533 1.83864 0
M  V30 3840 H 358.877 -0.192967 3.11503 0
M  V30 3841 N 359.178 -1.55987 0.224894 0
M  V30 3842 C 360.406 -2.02784 -0.410665 0
M  V30 3843 C 360.821 -1.10464 -1.53112 0
M  V30 3844 O 360.178 -0.114871 -1.82138 0
M  V30 3845 C 360.229 -3.49087 -0.939165 0
M  V30 3846 O 359.95 -4.37887 0.136614 0
M  V30 3847 C 361.451 -4.11543 -1.64763 0
M  V30 3848 H 358.671 -0.663484 -0.100148 0
M  V30 3849 H 361.215 -2.01614 0.342326 0
M  V30 3850 H 359.37 -3.50861 -1.64242 0
M  V30 3851 H 359.784 -5.23849 -0.261155 0
M  V30 3852 H 361.258 -5.15673 -1.96939 0
M  V30 3853 H 361.735 -3.56736 -2.56195 0
M  V30 3854 H 362.341 -4.13629 -0.989503 0
M  V30 3855 N 360.656 0.0484629 -1.57525 0
M  V30 3856 C 361.886 0.754326 -1.92337 0
M  V30 3857 C 362.294 1.70443 -0.82132 0
M  V30 3858 O 361.637 1.82466 0.21254 0
M  V30 3859 C 361.699 1.58231 -3.22805 0
M  V30 3860 C 361.363 0.799074 -4.4996 0
M  V30 3861 C 362.36 0.1079 -5.19788 0
M  V30 3862 C 360.045 0.759345 -4.96527 0
M  V30 3863 C 362.039 -0.612516 -6.3445 0
M  V30 3864 C 359.726 0.0351713 -6.1109 0
M  V30 3865 C 360.724 -0.649537 -6.79904 0
M  V30 3866 O 360.412 -1.36199 -7.92278 0
M  V30 3867 H 360.144 0.218257 -0.639797 0
M  V30 3868 H 362.698 0.0159295 -2.05394 0
M  V30 3869 H 360.928 2.36406 -3.06021 0
M  V30 3870 H 362.617 2.16898 -3.43089 0
M  V30 3871 H 363.383 0.129748 -4.84826 0
M  V30 3872 H 359.262 1.28177 -4.42822 0
M  V30 3873 H 362.806 -1.14751 -6.88097 0
M  V30 3874 H 358.703 0.0113314 -6.45499 0
M  V30 3875 H 359.471 -1.27366 -8.0853 0
M  V30 3876 N 362.134 1.5431 0.320358 0
M  V30 3877 C 363.064 1.86912 1.3995 0
M  V30 3878 C 364.045 0.726211 1.53819 0
M  V30 3879 O 365.23 0.980233 1.67646 0
M  V30 3880 C 362.36 2.09932 2.7667 0
M  V30 3881 C 361.314 3.25776 2.77586 0
M  V30 3882 C 360.64 3.34173 4.17412 0
M  V30 3883 C 361.94 4.6335 2.41048 0
M  V30 3884 H 363.634 2.77292 1.12914 0
M  V30 3885 H 361.18 1.33421 0.541738 0
M  V30 3886 H 363.133 2.31324 3.52232 0
M  V30 3887 H 361.857 1.16304 3.0519 0
M  V30 3888 H 360.516 3.04276 2.04479 0
M  V30 3889 H 360.164 2.38098 4.43078 0
M  V30 3890 H 359.864 4.12033 4.18931 0
M  V30 3891 H 361.388 3.57803 4.94782 0
M  V30 3892 H 362.802 4.84602 3.06324 0
M  V30 3893 H 361.199 5.43782 2.53813 0
M  V30 3894 H 362.269 4.65381 1.36193 0
M  V30 3895 N 363.613 -0.582584 1.46437 0
M  V30 3896 C 364.56 -1.69164 1.5701 0
M  V30 3897 C 365.53 -1.60847 0.414403 0
M  V30 3898 O 366.715 -1.80058 0.631171 0
M  V30 3899 C 363.855 -3.075 1.56646 0
M  V30 3900 C 362.968 -3.2644 2.82951 0
M  V30 3901 C 362.103 -4.55026 2.7409 0
M  V30 3902 C 361.142 -4.6731 3.95333 0
M  V30 3903 N 360.279 -5.87221 3.84858 0
M  V30 3904 H 365.119 -1.59464 2.51744 0
M  V30 3905 H 362.656 -0.777186 1.24893 0
M  V30 3906 H 364.614 -3.8757 1.5442 0
M  V30 3907 H 363.244 -3.16096 0.654439 0
M  V30 3908 H 362.296 -2.39974 2.95155 0
M  V30 3909 H 363.608 -3.31385 3.72808 0
M  V30 3910 H 362.762 -5.43324 2.6997 0
M  V30 3911 H 361.501 -4.52519 1.81873 0
M  V30 3912 H 360.506 -3.77429 3.99784 0
M  V30 3913 H 361.731 -4.71595 4.88646 0
M  V30 3914 H 359.677 -5.85712 2.95427 0
M  V30 3915 H 359.594 -5.93435 4.6837 0
M  V30 3916 H 360.862 -6.7795 3.84713 0
M  V30 3917 N 365.091 -1.34144 -0.827227 0
M  V30 3918 C 366.054 -1.25264 -1.91942 0
M  V30 3919 C 367.054 -0.168866 -1.59911 0
M  V30 3920 O 368.244 -0.421198 -1.69031 0
M  V30 3921 C 365.376 -0.932952 -3.27885 0
M  V30 3922 H 366.569 -2.22357 -2.0124 0
M  V30 3923 H 364.122 -1.1837 -1.0207 0
M  V30 3924 H 364.857 0.0349917 -3.24281 0
M  V30 3925 H 364.642 -1.71682 -3.52516 0
M  V30 3926 H 366.132 -0.895874 -4.07877 0
M  V30 3927 N 366.569 1.04691 -1.17803 0
M  V30 3928 C 367.815 1.78181 -0.980977 0
M  V30 3929 C 368.17 1.86191 0.484825 0
M  V30 3930 O 367.463 1.35436 1.35527 0
M  V30 3931 C 367.657 3.21467 -1.56186 0
M  V30 3932 C 367.486 3.27422 -3.08261 0
M  V30 3933 C 366.256 3.36415 -3.77032 0
M  V30 3934 C 368.454 3.15947 -4.0581 0
M  V30 3935 N 366.436 3.31554 -5.16667 0
M  V30 3936 C 367.807 3.18514 -5.31929 0
M  V30 3937 C 369.862 2.99945 -3.97413 0
M  V30 3938 C 368.565 3.06723 -6.50625 0
M  V30 3939 C 370.591 2.89497 -5.15699 0
M  V30 3940 C 369.953 2.92702 -6.40706 0
M  V30 3941 H 366.052 0.6641 -0.412911 0
M  V30 3942 H 368.636 1.24762 -1.49474 0
M  V30 3943 H 366.807 3.73245 -1.07436 0
M  V30 3944 H 368.539 3.8322 -1.30093 0
M  V30 3945 H 365.294 3.41887 -3.27735 0
M  V30 3946 H 365.718 3.3258 -5.89678 0
M  V30 3947 H 370.36 2.96302 -3.01604 0
M  V30 3948 H 368.078 3.0912 -7.46639 0
M  V30 3949 H 371.664 2.78179 -5.10987 0
M  V30 3950 H 370.544 2.84697 -7.30696 0
M  V30 3951 N 368.047 0.979072 1.23499 0
M  V30 3952 C 368.957 0.526431 2.28617 0
M  V30 3953 C 369.973 -0.418126 1.68901 0
M  V30 3954 O 371.149 -0.288372 1.99325 0
M  V30 3955 C 368.214 -0.165235 3.46306 0
M  V30 3956 C 367.275 0.82056 4.21385 0
M  V30 3957 C 366.508 0.161807 5.33455 0
M  V30 3958 O 366.731 -1.04742 5.60701 0
M  V30 3959 O 365.665 0.859708 5.95729 0
M  V30 3960 H 369.491 1.4006 2.69475 0
M  V30 3961 H 367.076 0.746643 1.29405 0
M  V30 3962 H 368.958 -0.553287 4.17752 0
M  V30 3963 H 367.633 -1.01419 3.07402 0
M  V30 3964 H 366.54 1.25929 3.52268 0
M  V30 3965 H 367.873 1.63828 4.64135 0
M  V30 3966 N 369.525 -1.3858 0.750561 0
M  V30 3967 C 370.472 -2.30483 0.120835 0
M  V30 3968 C 371.442 -1.50022 -0.712923 0
M  V30 3969 O 372.627 -1.78662 -0.669676 0
M  V30 3970 C 369.767 -3.36431 -0.768666 0
M  V30 3971 C 368.88 -4.31927 0.0793922 0
M  V30 3972 C 368.015 -5.24944 -0.81283 0
M  V30 3973 C 367.054 -6.12088 0.0390447 0
M  V30 3974 N 366.191 -6.97412 -0.809969 0
M  V30 3975 H 371.031 -2.83761 0.91015 0
M  V30 3976 H 368.568 -1.39707 0.460463 0
M  V30 3977 H 370.526 -3.96462 -1.29898 0
M  V30 3978 H 369.156 -2.8457 -1.5238 0
M  V30 3979 H 368.208 -3.73382 0.727303 0
M  V30 3980 H 369.52 -4.93319 0.737401 0
M  V30 3981 H 368.674 -5.90078 -1.41042 0
M  V30 3982 H 367.413 -4.63911 -1.50458 0
M  V30 3983 H 366.418 -5.45952 0.649328 0
M  V30 3984 H 367.643 -6.75189 0.727809 0
M  V30 3985 H 365.589 -6.38931 -1.48672 0
M  V30 3986 H 365.506 -7.55712 -0.208789 0
M  V30 3987 H 366.774 -7.66959 -1.39263 0
M  V30 3988 N 371.003 -0.499398 -1.49478 0
M  V30 3989 C 372.252 0.0475259 -2.01644 0
M  V30 3990 C 372.565 1.38195 -1.38425 0
M  V30 3991 O 373.771 2.01547 -1.8191 0
M  V30 3992 C 372.227 0.135164 -3.59646 0
M  V30 3993 C 371.835 -1.19252 -4.31837 0
M  V30 3994 C 373.579 0.632538 -4.19761 0
M  V30 3995 C 371.486 -1.06713 -5.81693 0
M  V30 3996 H 370.416 0.0215349 -0.753692 0
M  V30 3997 H 373.067 -0.638577 -1.7203 0
M  V30 3998 H 371.449 0.885681 -3.85969 0
M  V30 3999 H 372.623 -1.9562 -4.17216 0
M  V30 4000 H 370.938 -1.62321 -3.83459 0
M  V30 4001 H 373.535 0.743833 -5.29501 0
M  V30 4002 H 373.878 1.63098 -3.83021 0
M  V30 4003 H 374.411 -0.0613987 -3.97753 0
M  V30 4004 H 371.15 -2.03979 -6.22955 0
M  V30 4005 H 370.67 -0.344307 -5.98811 0
M  V30 4006 H 372.349 -0.745208 -6.42694 0
M  V30 4007 N 372.481 1.55866 -0.233164 0
M  V30 4008 C 373.444 2.1953 0.658715 0
M  V30 4009 C 374.444 1.16053 1.11303 0
M  V30 4010 O 375.634 1.41218 1.01996 0
M  V30 4011 C 372.766 2.82791 1.90373 0
M  V30 4012 H 373.959 2.99721 0.10347 0
M  V30 4013 H 371.512 1.56291 0.0164245 0
M  V30 4014 H 372.247 2.06501 2.50056 0
M  V30 4015 H 372.032 3.58578 1.58632 0
M  V30 4016 H 373.522 3.31556 2.53891 0
M  V30 4017 N 373.959 -0.0401083 1.57549 0
M  V30 4018 C 375.199 -0.738098 1.90608 0
M  V30 4019 C 375.563 -1.73107 0.830539 0
M  V30 4020 O 376.764 -2.4765 1.04513 0
M  V30 4021 C 375.035 -1.39985 3.28845 0
M  V30 4022 S 376.594 -2.12852 3.83718 0
M  V30 4023 H 373.412 -0.24477 0.667539 0
M  V30 4024 H 376.014 0.00693599 1.95499 0
M  V30 4025 H 374.718 -0.663775 4.04997 0
M  V30 4026 H 374.249 -2.18366 3.2723 0
M  V30 4027 H 376.264 -3.39842 3.61555 0
M  V30 4028 N 375.437 -1.54477 -0.31217 0
M  V30 4029 C 376.662 -1.77526 -1.07235 0
M  V30 4030 C 377.087 -0.527775 -1.80544 0
M  V30 4031 O 376.445 0.52121 -1.73646 0
M  V30 4032 C 376.493 -2.97535 -2.03728 0
M  V30 4033 O 375.597 -2.69878 -3.11833 0
M  V30 4034 H 374.938 -0.58792 -0.30862 0
M  V30 4035 H 377.468 -2.01532 -0.352993 0
M  V30 4036 H 377.478 -3.25198 -2.46395 0
M  V30 4037 H 376.153 -3.87996 -1.49774 0
M  V30 4038 H 374.73 -2.53199 -2.7376 0
M  V30 4039 N 376.915 0.57481 -1.46744 0
M  V30 4040 C 378.161 1.3347 -1.52688 0
M  V30 4041 C 378.494 1.93353 -0.181229 0
M  V30 4042 O 377.769 1.76912 0.808237 0
M  V30 4043 C 378.052 2.45811 -2.63152 0
M  V30 4044 C 377.905 1.90912 -4.07275 0
M  V30 4045 C 379.224 3.47822 -2.69644 0
M  V30 4046 H 376.343 0.483935 -0.555856 0
M  V30 4047 H 378.985 0.644968 -1.78718 0
M  V30 4048 H 377.135 3.04646 -2.41088 0
M  V30 4049 H 378.807 1.36473 -4.4065 0
M  V30 4050 H 377.05 1.21691 -4.16382 0
M  V30 4051 H 377.721 2.72042 -4.80309 0
M  V30 4052 H 380.197 2.9888 -2.895 0
M  V30 4053 H 379.073 4.23876 -3.48742 0
M  V30 4054 H 379.334 4.05555 -1.76005 0
M  V30 4055 N 378.394 1.34581 0.820102 0
M  V30 4056 C 379.641 1.27096 1.57648 0
M  V30 4057 C 379.969 -0.158317 1.93855 0
M  V30 4058 O 379.224 -1.12028 1.60463 0
M  V30 4059 C 379.523 2.10997 2.8847 0
M  V30 4060 C 379.189 3.59966 2.71543 0
M  V30 4061 C 377.851 4.00575 2.66634 0
M  V30 4062 C 380.203 4.54548 2.55021 0
M  V30 4063 C 377.531 5.33953 2.43128 0
M  V30 4064 C 379.883 5.88109 2.33047 0
M  V30 4065 C 378.547 6.27878 2.26552 0
M  V30 4066 H 377.817 0.465078 0.576874 0
M  V30 4067 H 380.464 1.6635 0.948671 0
M  V30 4068 H 378.769 1.6458 3.55557 0
M  V30 4069 H 380.466 2.0255 3.46084 0
M  V30 4070 H 377.056 3.27733 2.76205 0
M  V30 4071 H 381.24 4.24069 2.57835 0
M  V30 4072 H 376.496 5.63781 2.3656 0
M  V30 4073 H 380.67 6.60985 2.19251 0
M  V30 4074 H 378.297 7.31162 2.081 0
M  V30 4075 N 379.872 -1.04064 1.18357 0
M  V30 4076 C 381.149 -1.74252 0.888581 0
M  V30 4077 C 381.529 -2.02138 -0.60856 0
M  V30 4078 O 380.877 -1.66656 -1.56327 0
M  V30 4079 C 381.087 -3.0277 1.73584 0
M  V30 4080 C 382.435 -3.76506 1.96286 0
M  V30 4081 O 383.459 -3.12668 1.70637 0
M  V30 4082 O 382.318 -4.91243 2.39464 0
M  V30 4083 H 379.412 -0.758271 0.330082 0
M  V30 4084 H 381.958 -1.1013 1.2911 0
M  V30 4085 H 380.73 -2.78299 2.75073 0
M  V30 4086 H 380.353 -3.74631 1.33183 0
M  V30 4087 N 381.35 -0.985608 -1.22978 0
M  V30 4088 C 382.313 -0.535071 -2.22867 0
M  V30 4089 C 383.313 0.378123 -1.56291 0
M  V30 4090 O 384.503 0.171092 -1.73358 0
M  V30 4091 C 381.635 0.222702 -3.40172 0
M  V30 4092 H 382.828 -1.41835 -2.6424 0
M  V30 4093 H 380.381 -0.772042 -1.35901 0
M  V30 4094 H 381.116 1.12229 -3.04262 0
M  V30 4095 H 380.901 -0.43288 -3.89703 0
M  V30 4096 H 382.391 0.526335 -4.1427 0
M  V30 4097 N 382.828 1.3818 -0.7579 0
M  V30 4098 C 384.075 2.00019 -0.315985 0
M  V30 4099 C 384.403 1.60163 1.10355 0
M  V30 4100 O 383.658 0.83264 1.77103 0
M  V30 4101 C 383.957 3.55252 -0.391218 0
M  V30 4102 C 383.623 4.14834 -1.76702 0
M  V30 4103 C 382.285 4.30821 -2.14353 0
M  V30 4104 C 384.637 4.47658 -2.66931 0
M  V30 4105 C 381.965 4.76928 -3.41696 0
M  V30 4106 C 384.317 4.95184 -3.93669 0
M  V30 4107 C 382.981 5.09377 -4.31383 0
M  V30 4108 H 382.251 0.731923 -0.115627 0
M  V30 4109 H 384.898 1.65161 -0.969223 0
M  V30 4110 H 383.203 3.90273 0.34558 0
M  V30 4111 H 384.9 4.00988 -0.030805 0
M  V30 4112 H 381.49 4.02808 -1.46435 0
M  V30 4113 H 385.674 4.34904 -2.39106 0
M  V30 4114 H 380.93 4.86103 -3.70829 0
M  V30 4115 H 385.104 5.19551 -4.63724 0
M  V30 4116 H 382.731 5.44865 -5.30119 0
M  V30 4117 N 384.306 0.507319 1.49211 0
M  V30 4118 C 385.554 -0.0348839 2.0207 0
M  V30 4119 C 385.875 -1.36898 1.38866 0
M  V30 4120 O 385.145 -1.88133 0.546151 0
M  V30 4121 H 383.725 -0.0158812 0.746831 0
M  V30 4122 H 386.387 0.665998 1.83168 0
M  V30 4123 H 385.483 -0.159917 3.1169 0
M  V30 4124 N 385.784 -1.5574 0.241426 0
M  V30 4125 C 386.717 -2.17168 -0.700935 0
M  V30 4126 C 387.695 -1.12206 -1.1768 0
M  V30 4127 O 388.879 -1.40565 -1.25593 0
M  V30 4128 C 386.006 -2.76796 -1.95196 0
M  V30 4129 C 385.052 -3.94764 -1.61442 0
M  V30 4130 S 385.885 -5.30613 -0.72182 0
M  V30 4131 C 387.041 -5.93691 -1.98197 0
M  V30 4132 H 387.274 -2.96761 -0.178882 0
M  V30 4133 H 384.807 -1.54378 0.0259299 0
M  V30 4134 H 386.765 -3.11787 -2.67019 0
M  V30 4135 H 385.426 -1.9716 -2.44514 0
M  V30 4136 H 384.619 -4.35057 -2.54443 0
M  V30 4137 H 384.221 -3.61022 -0.976672 0
M  V30 4138 H 386.513 -6.10874 -2.92983 0
M  V30 4139 H 387.456 -6.89258 -1.62262 0
M  V30 4140 H 387.864 -5.22709 -2.13156 0
M  V30 4141 N 387.262 0.0317525 -1.57568 0
M  V30 4142 C 388.673 0.578692 -1.77505 0
M  V30 4143 C 389.024 1.75749 -0.872164 0
M  V30 4144 O 388.149 2.16298 -0.0663106 0
M  V30 4145 C 388.744 1.05658 -3.21904 0
M  V30 4146 C 387.303 1.54906 -3.43047 0
M  V30 4147 C 386.45 0.485939 -2.73009 0
M  V30 4148 H 389.401 -0.194475 -1.57504 0
M  V30 4149 H 389.422 1.92404 -3.28269 0
M  V30 4150 H 388.934 0.198422 -3.87592 0
M  V30 4151 H 387.035 2.42915 -2.82529 0
M  V30 4152 H 387.148 1.59841 -4.5165 0
M  V30 4153 H 385.512 0.940354 -2.36705 0
M  V30 4154 H 386.295 -0.362709 -3.41379 0
M  V30 4155 N 388.74 1.54641 0.303973 0
M  V30 4156 C 389.65 1.88439 1.39743 0
M  V30 4157 C 390.666 0.778239 1.55626 0
M  V30 4158 O 391.842 1.07442 1.70347 0
M  V30 4159 C 388.907 2.12212 2.74166 0
M  V30 4160 C 387.968 3.35936 2.67293 0
M  V30 4161 C 387.201 3.58566 3.95305 0
M  V30 4162 O 387.424 2.84263 4.9452 0
M  V30 4163 O 386.358 4.52078 3.97378 0
M  V30 4164 H 390.184 2.81458 1.14083 0
M  V30 4165 H 387.769 1.40793 0.499768 0
M  V30 4166 H 389.651 2.29067 3.53704 0
M  V30 4167 H 388.326 1.22379 2.99675 0
M  V30 4168 H 387.233 3.24448 1.86237 0
M  V30 4169 H 388.566 4.2589 2.46736 0
M  V30 4170 N 390.218 -0.567019 1.47046 0
M  V30 4171 C 391.128 -1.70247 1.6141 0
M  V30 4172 C 392.144 -1.66746 0.497157 0
M  V30 4173 O 393.32 -1.86371 0.763389 0
M  V30 4174 C 390.385 -3.06756 1.61561 0
M  V30 4175 C 389.446 -3.21399 2.84607 0
M  V30 4176 C 388.679 -4.51396 2.84741 0
M  V30 4177 O 388.902 -5.36255 1.94388 0
M  V30 4178 O 387.836 -4.69621 3.76483 0
M  V30 4179 H 391.662 -1.61073 2.57467 0
M  V30 4180 H 389.247 -0.735894 1.30019 0
M  V30 4181 H 391.129 -3.8801 1.64396 0
M  V30 4182 H 389.804 -3.16333 0.686684 0
M  V30 4183 H 388.711 -2.39579 2.8732 0
M  V30 4184 H 390.044 -3.16721 3.76761 0
M  V30 4185 N 391.696 -1.35014 -0.812953 0
M  V30 4186 C 392.606 -1.2951 -1.95613 0
M  V30 4187 C 393.622 -0.20107 -1.72834 0
M  V30 4188 O 394.798 -0.42932 -1.96771 0
M  V30 4189 C 391.863 -1.06033 -3.30088 0
M  V30 4190 C 390.924 -2.24688 -3.65805 0
M  V30 4191 C 390.157 -2.02322 -4.93864 0
M  V30 4192 O 390.38 -0.986464 -5.61805 0
M  V30 4193 O 389.314 -2.89525 -5.27692 0
M  V30 4194 H 393.14 -2.25705 -2.03202 0
M  V30 4195 H 390.725 -1.15321 -0.949811 0
M  V30 4196 H 392.607 -0.94763 -4.10607 0
M  V30 4197 H 391.282 -0.128852 -3.23443 0
M  V30 4198 H 390.189 -2.41521 -2.85689 0
M  V30 4199 H 391.522 -3.16261 -3.77147 0
M  V30 4200 N 393.175 1.03435 -1.18907 0
M  V30 4201 C 394.591 1.28973 -0.940111 0
M  V30 4202 C 394.791 1.97676 0.390691 0
M  V30 4203 O 393.847 2.26127 1.12352 0
M  V30 4204 C 395.16 2.14221 -2.11021 0
M  V30 4205 C 396.708 2.27547 -2.14922 0
M  V30 4206 C 397.183 3.16164 -3.31367 0
M  V30 4207 N 398.674 3.23752 -3.31269 0
M  V30 4208 C 399.409 3.92495 -4.18014 0
M  V30 4209 N 398.905 4.63515 -5.14904 0
M  V30 4210 N 400.698 3.88838 -4.05908 0
M  V30 4211 H 392.849 0.57252 -2.04538 0
M  V30 4212 H 395.112 0.315184 -0.894071 0
M  V30 4213 H 394.818 1.71054 -3.073 0
M  V30 4214 H 394.692 3.14919 -2.0762 0
M  V30 4215 H 397.079 2.69947 -1.19217 0
M  V30 4216 H 397.16 1.26418 -2.22378 0
M  V30 4217 H 396.804 2.74474 -4.27348 0
M  V30 4218 H 396.734 4.17339 -3.21148 0
M  V30 4219 H 399.225 2.73167 -2.61129 0
M  V30 4220 H 399.538 5.13583 -5.77453 0
M  V30 4221 H 397.883 4.62398 -5.18857 0
M  V30 4222 H 401.074 3.32491 -3.29495 0
M  V30 4223 H 401.247 4.4214 -4.73726 0
M  V30 4224 N 394.653 0.992116 1.22453 0
M  V30 4225 C 396.069 0.702713 1.43297 0
M  V30 4226 C 396.269 -0.726909 1.87932 0
M  V30 4227 O 395.325 -1.49792 2.0327 0
M  V30 4228 C 396.638 1.70762 2.47509 0
M  V30 4229 C 398.186 1.72298 2.61309 0
M  V30 4230 C 398.661 2.71649 3.68742 0
M  V30 4231 N 400.152 2.70239 3.76199 0
M  V30 4232 C 400.887 3.43778 4.58917 0
M  V30 4233 N 400.383 4.26914 5.45633 0
M  V30 4234 N 402.176 3.32487 4.5322 0
M  V30 4235 H 394.327 1.91543 0.917871 0
M  V30 4236 H 396.59 0.826031 0.465162 0
M  V30 4237 H 396.296 2.73059 2.21657 0
M  V30 4238 H 396.17 1.49985 3.46099 0
M  V30 4239 H 398.557 0.706989 2.86506 0
M  V30 4240 H 398.638 1.97143 1.62997 0
M  V30 4241 H 398.282 3.73397 3.44292 0
M  V30 4242 H 398.212 2.44074 4.66622 0
M  V30 4243 H 400.703 2.09912 3.14237 0
M  V30 4244 H 401.016 4.79855 6.05771 0
M  V30 4245 H 399.361 4.31002 5.45218 0
M  V30 4246 H 402.552 2.6698 3.84499 0
M  V30 4247 H 402.725 3.90058 5.17454 0
M  V30 4248 N 396.131 -1.37776 0.765217 0
M  V30 4249 C 397.081 -2.2768 0.12075 0
M  V30 4250 C 398.065 -1.45778 -0.680988 0
M  V30 4251 O 399.257 -1.684 -0.545033 0
M  V30 4252 C 396.386 -3.34722 -0.762626 0
M  V30 4253 C 395.472 -4.24074 0.0465881 0
M  V30 4254 N 395.863 -4.93939 1.08892 0
M  V30 4255 C 394.161 -4.45643 -0.178418 0
M  V30 4256 C 394.862 -5.59845 1.57951 0
M  V30 4257 N 393.838 -5.36218 0.892797 0
M  V30 4258 H 397.64 -2.79166 0.918889 0
M  V30 4259 H 395.154 -1.50816 0.602353 0
M  V30 4260 H 397.151 -3.98031 -1.24005 0
M  V30 4261 H 395.811 -2.84793 -1.55959 0
M  V30 4262 H 396.822 -4.96572 1.47095 0
M  V30 4263 H 393.499 -4.06599 -0.9478 0
M  V30 4264 H 394.889 -6.25703 2.44838 0
M  V30 4265 N 397.609 -0.515225 -1.4894 0
M  V30 4266 C 398.572 0.244681 -2.2789 0
M  V30 4267 C 399.572 0.881166 -1.34507 0
M  V30 4268 O 400.762 0.743497 -1.57537 0
M  V30 4269 C 397.894 1.35247 -3.12923 0
M  V30 4270 H 399.087 -0.448289 -2.96531 0
M  V30 4271 H 396.64 -0.270656 -1.53939 0
M  V30 4272 H 397.375 2.07916 -2.48881 0
M  V30 4273 H 397.16 0.901374 -3.81599 0
M  V30 4274 H 398.65 1.88737 -3.72516 0
M  V30 4275 N 399.087 1.5561 -0.249682 0
M  V30 4276 C 400.317 2.03116 0.377803 0
M  V30 4277 C 400.725 1.12822 1.51881 0
M  V30 4278 O 400.068 0.13562 1.83199 0
M  V30 4279 C 400.13 3.46866 0.944693 0
M  V30 4280 C 399.794 4.56955 -0.0644259 0
M  V30 4281 C 400.791 5.12485 -0.874957 0
M  V30 4282 C 398.476 5.01936 -0.19132 0
M  V30 4283 C 400.47 6.11491 -1.79881 0
M  V30 4284 C 398.157 6.00773 -1.11868 0
M  V30 4285 C 399.155 6.5543 -1.92095 0
M  V30 4286 O 398.843 7.5234 -2.83267 0
M  V30 4287 H 398.575 0.669489 0.0935961 0
M  V30 4288 H 401.129 2.02004 -0.371966 0
M  V30 4289 H 399.359 3.45136 1.74407 0
M  V30 4290 H 401.048 3.77856 1.48255 0
M  V30 4291 H 401.814 4.78564 -0.787523 0
M  V30 4292 H 397.693 4.59055 0.423072 0
M  V30 4293 H 401.237 6.54078 -2.42543 0
M  V30 4294 H 397.134 6.34114 -1.20703 0
M  V30 4295 H 397.902 7.69966 -2.7766 0
M  V30 4296 N 400.565 -0.0233959 1.57583 0
M  V30 4297 C 401.842 -0.748794 1.807 0
M  V30 4298 C 402.222 -1.9327 0.849106 0
M  V30 4299 O 401.57 -2.28247 -0.107468 0
M  V30 4300 C 401.78 -1.17651 3.28571 0
M  V30 4301 C 403.128 -1.59008 3.93702 0
M  V30 4302 O 404.152 -1.27094 3.32755 0
M  V30 4303 O 403.011 -2.18264 5.01022 0
M  V30 4304 H 400.105 -0.362578 0.743281 0
M  V30 4305 H 402.651 0.000261958 1.697 0
M  V30 4306 H 401.423 -0.331603 3.89892 0
M  V30 4307 H 401.046 -1.98541 3.44481 0
M  V30 4308 N 402.043 -1.548 -0.295768 0
M  V30 4309 C 403.289 -1.75517 -1.02789 0
M  V30 4310 C 403.644 -0.537266 -1.84746 0
M  V30 4311 O 402.937 0.470299 -1.85738 0
M  V30 4312 C 403.131 -2.98797 -1.961 0
M  V30 4313 C 402.96 -4.3246 -1.23321 0
M  V30 4314 C 401.73 -4.96131 -0.95822 0
M  V30 4315 C 403.928 -5.10365 -0.635024 0
M  V30 4316 N 401.91 -6.1357 -0.201257 0
M  V30 4317 C 403.281 -6.19999 -0.0110937 0
M  V30 4318 C 405.336 -4.94957 -0.540594 0
M  V30 4319 C 404.039 -7.15904 0.698136 0
M  V30 4320 C 406.065 -5.91197 0.154992 0
M  V30 4321 C 405.427 -7.00203 0.767752 0
M  V30 4322 H 401.526 -0.694786 -0.358882 0
M  V30 4323 H 404.11 -1.92281 -0.305943 0
M  V30 4324 H 402.281 -2.83448 -2.6554 0
M  V30 4325 H 404.013 -3.08017 -2.62502 0
M  V30 4326 H 400.768 -4.56595 -1.25771 0
M  V30 4327 H 401.192 -6.76802 0.16389 0
M  V30 4328 H 405.834 -4.10803 -1.00003 0
M  V30 4329 H 403.552 -7.99595 1.16933 0
M  V30 4330 H 407.138 -5.81353 0.228069 0
M  V30 4331 H 406.018 -7.73393 1.29743 0
M  V30 4332 N 403.521 0.559213 -1.47345 0
M  V30 4333 C 404.451 1.67622 -1.62558 0
M  V30 4334 C 405.432 1.63331 -0.475087 0
M  V30 4335 O 406.617 1.80983 -0.704182 0
M  V30 4336 C 403.747 3.0626 -1.63774 0
M  V30 4337 C 402.701 3.25397 -2.7803 0
M  V30 4338 C 402.027 4.64801 -2.64318 0
M  V30 4339 C 403.327 3.10965 -4.19641 0
M  V30 4340 H 405.021 1.55146 -2.56067 0
M  V30 4341 H 402.567 0.744961 -1.23233 0
M  V30 4342 H 404.52 3.84247 -1.73008 0
M  V30 4343 H 403.244 3.1969 -0.66825 0
M  V30 4344 H 401.903 2.49817 -2.68304 0
M  V30 4345 H 401.551 4.75028 -1.65401 0
M  V30 4346 H 401.251 4.78555 -3.40968 0
M  V30 4347 H 402.775 5.44926 -2.75478 0
M  V30 4348 H 404.189 3.78772 -4.30354 0
M  V30 4349 H 402.586 3.36229 -4.97062 0
M  V30 4350 H 403.656 2.07736 -4.38148 0
M  V30 4351 N 404.999 1.35443 0.805782 0
M  V30 4352 C 405.946 1.28431 1.91766 0
M  V30 4353 C 406.916 0.156102 1.65365 0
M  V30 4354 O 408.101 0.339936 1.87747 0
M  V30 4355 C 405.241 1.06301 3.2832 0
M  V30 4356 C 404.354 2.2805 3.66902 0
M  V30 4357 C 403.489 1.99064 4.92491 0
M  V30 4358 C 402.528 3.16863 5.23703 0
M  V30 4359 N 401.665 2.87647 6.40471 0
M  V30 4360 H 406.505 2.23511 1.97096 0
M  V30 4361 H 404.042 1.11105 0.964054 0
M  V30 4362 H 406 0.915012 4.07042 0
M  V30 4363 H 404.63 0.148822 3.22457 0
M  V30 4364 H 403.682 2.53711 2.83434 0
M  V30 4365 H 404.994 3.1601 3.85927 0
M  V30 4366 H 404.148 1.81099 5.7904 0
M  V30 4367 H 402.887 1.0839 4.75503 0
M  V30 4368 H 401.892 3.35404 4.35642 0
M  V30 4369 H 403.117 4.08339 5.4262 0
M  V30 4370 H 401.063 1.99568 6.24907 0
M  V30 4371 H 400.98 3.69141 6.59751 0
M  V30 4372 H 402.248 2.73226 7.30047 0
M  V30 4373 N 406.477 -1.02803 1.19454 0
M  V30 4374 C 407.702 -1.80378 1.02364 0
M  V30 4375 C 408.127 -1.83282 -0.423007 0
M  V30 4376 O 407.485 -1.25945 -1.30413 0
M  V30 4377 C 407.533 -3.23248 1.59821 0
M  V30 4378 O 406.637 -4.04 0.828105 0
M  V30 4379 H 405.978 -0.556799 0.361761 0
M  V30 4380 H 408.508 -1.29385 1.58495 0
M  V30 4381 H 408.518 -3.73994 1.63073 0
M  V30 4382 H 407.193 -3.2045 2.65113 0
M  V30 4383 H 405.77 -3.62635 0.86891 0
M  V30 4384 N 407.956 -0.998596 -1.21925 0
M  V30 4385 C 408.919 -0.558679 -2.22287 0
M  V30 4386 C 409.919 0.361525 -1.56683 0
M  V30 4387 O 411.109 0.152695 -1.73529 0
M  V30 4388 C 408.241 0.18661 -3.40389 0
M  V30 4389 H 409.434 -1.4463 -2.62721 0
M  V30 4390 H 406.987 -0.786413 -1.35075 0
M  V30 4391 H 407.722 1.08996 -3.05435 0
M  V30 4392 H 407.507 -0.474188 -3.89222 0
M  V30 4393 H 408.997 0.482367 -4.14805 0
M  V30 4394 N 409.434 1.37368 -0.772513 0
M  V30 4395 C 410.397 2.28601 -0.165541 0
M  V30 4396 C 411.397 1.48062 0.627238 0
M  V30 4397 O 412.587 1.68268 0.450715 0
M  V30 4398 C 409.719 3.32023 0.772897 0
M  V30 4399 H 410.912 2.83787 -0.969787 0
M  V30 4400 H 408.465 1.46647 -0.540775 0
M  V30 4401 H 409.2 2.81962 1.60212 0
M  V30 4402 H 408.985 3.91555 0.206585 0
M  V30 4403 H 410.475 4.00197 1.19298 0
M  V30 4404 N 410.912 0.523116 1.48665 0
M  V30 4405 C 411.842 -0.23231 2.32342 0
M  V30 4406 C 412.823 -0.941637 1.41659 0
M  V30 4407 O 414.008 -0.928751 1.70552 0
M  V30 4408 C 411.138 -1.28387 3.22698 0
M  V30 4409 C 410.092 -0.693098 4.22351 0
M  V30 4410 C 409.418 -1.8468 5.01794 0
M  V30 4411 C 410.718 0.33063 5.21252 0
M  V30 4412 H 412.412 0.466192 2.95748 0
M  V30 4413 H 409.958 0.225643 1.42221 0
M  V30 4414 H 411.911 -1.82024 3.80059 0
M  V30 4415 H 410.635 -2.01186 2.57278 0
M  V30 4416 H 409.294 -0.178299 3.66166 0
M  V30 4417 H 408.942 -2.56301 4.32804 0
M  V30 4418 H 408.642 -1.45747 5.69238 0
M  V30 4419 H 410.166 -2.38709 5.62006 0
M  V30 4420 H 411.58 -0.118407 5.73178 0
M  V30 4421 H 409.977 0.636974 5.9671 0
M  V30 4422 H 411.047 1.23883 4.68808 0
M  V30 4423 N 412.39 -1.55475 0.257931 0
M  V30 4424 C 413.667 -1.91155 -0.414629 0
M  V30 4425 C 414.047 -1.18008 -1.75035 0
M  V30 4426 O 413.395 -0.301193 -2.26506 0
M  V30 4427 C 413.605 -3.44283 -0.571859 0
M  V30 4428 C 414.953 -4.15744 -0.862678 0
M  V30 4429 O 415.977 -3.50083 -0.657314 0
M  V30 4430 O 414.836 -5.31909 -1.2544 0
M  V30 4431 H 411.93 -0.796016 -0.22425 0
M  V30 4432 H 414.476 -1.66976 0.302814 0
M  V30 4433 H 413.248 -3.89558 0.368844 0
M  V30 4434 H 412.871 -3.7436 -1.33943 0
M  V30 4435 N 413.868 0.0150385 -1.57593 0
M  V30 4436 C 415.116 0.701613 -1.8953 0
M  V30 4437 C 415.437 1.75139 -0.857396 0
M  V30 4438 O 414.707 1.95607 0.107194 0
M  V30 4439 H 413.287 0.26213 -0.699498 0
M  V30 4440 H 415.949 -0.0223304 -1.94887 0
M  V30 4441 H 415.045 1.18236 -2.88837 0
M  V30 4442 N 415.346 1.54954 0.287554 0
M  V30 4443 C 416.293 1.86834 1.35505 0
M  V30 4444 C 417.263 0.718452 1.49758 0
M  V30 4445 O 418.448 0.968358 1.644 0
M  V30 4446 C 415.588 2.13303 2.71286 0
M  V30 4447 C 414.701 3.40883 2.65373 0
M  V30 4448 C 413.836 3.57125 3.93236 0
M  V30 4449 C 412.875 4.78449 3.81776 0
M  V30 4450 N 412.012 4.91426 5.01443 0
M  V30 4451 H 416.852 2.77889 1.07619 0
M  V30 4452 H 414.389 1.37593 0.520241 0
M  V30 4453 H 416.347 2.26646 3.50267 0
M  V30 4454 H 414.977 1.25499 2.97405 0
M  V30 4455 H 414.029 3.36088 1.78182 0
M  V30 4456 H 415.341 4.29993 2.52799 0
M  V30 4457 H 414.495 3.70207 4.80658 0
M  V30 4458 H 413.234 2.66173 4.0866 0
M  V30 4459 H 412.239 4.65386 2.92738 0
M  V30 4460 H 413.464 5.70822 3.67884 0
M  V30 4461 H 411.41 4.03401 5.17304 0
M  V30 4462 H 411.327 5.74559 4.91343 0
M  V30 4463 H 412.595 5.08879 5.90477 0
M  V30 4464 N 416.824 -0.551391 1.4764 0
M  V30 4465 C 418.072 -1.30572 1.54258 0
M  V30 4466 C 418.393 -1.93877 0.208963 0
M  V30 4467 O 417.663 -1.80234 -0.767619 0
M  V30 4468 H 416.243 -0.484894 0.568231 0
M  V30 4469 H 418.905 -0.643402 1.83974 0
M  V30 4470 H 418.001 -2.09621 2.31226 0
M  V30 4471 O 418.341 -1.45728 -0.696113 0
M  V30 4472 H 419.032 -1.39109 -1.3479 0
M  V30 END ATOM
M  V30 BEGIN BOND
M  V30 END BOND
M  V30 END CTAB
M  END
$$$$
