drugbank_target|P38435 Vitamin K-dependent gamma-carboxylase (DB00036; DB00100; DB00142; DB00170; DB01022; DB01125; DB09332; DB13152)
 OpenBabel12092119313D

  0  0  0     0  0            999 V3000
M  V30 BEGIN CTAB
M  V30 COUNTS 12324 12503 0 0 0
M  V30 BEGIN ATOM
M  V30 1 H -0.908 1.98254 -0.117106 0
M  V30 2 N 0 1.576 0 0
M  V30 3 C 0.933 2.03868 1.02534 0
M  V30 4 C 1.911 0.928543 1.3348 0
M  V30 5 O 3.095 1.19667 1.45644 0
M  V30 6 C 0.222 2.43627 2.35294 0
M  V30 7 C -0.732 3.65373 2.2001 0
M  V30 8 S 0.101 5.13292 1.52614 0
M  V30 9 C 1.257 5.56322 2.86805 0
M  V30 10 H 1.49 2.90518 0.631377 0
M  V30 11 H -0.977 1.52953 0.210867 0
M  V30 12 H 0.981 2.67203 3.11629 0
M  V30 13 H -0.358 1.57376 2.7183 0
M  V30 14 H -1.165 3.90944 3.18086 0
M  V30 15 H -1.563 3.418 1.51819 0
M  V30 16 H 0.729 5.58782 3.83104 0
M  V30 17 H 1.672 6.56266 2.65933 0
M  V30 18 H 2.08 4.83886 2.90714 0
M  V30 19 N 1.4781 -0.272755 1.55222 0
M  V30 20 C 2.4411 -1.32041 1.87344 0
M  V30 21 C 3.4411 -1.42342 0.74803 0
M  V30 22 O 4.6311 -1.41488 1.0162 0
M  V30 23 C 1.7631 -2.70173 2.07893 0
M  V30 24 H 2.9561 -1.04789 2.80997 0
M  V30 25 H 0.5091 -0.51083 1.47717 0
M  V30 26 H 1.2441 -3.02605 1.16622 0
M  V30 27 H 1.0291 -2.64082 2.89833 0
M  V30 28 H 2.5191 -3.45869 2.34017 0
M  V30 29 N 2.9562 -1.48159 -0.537278 0
M  V30 30 C 4.2022 -1.56035 -1.29541 0
M  V30 31 C 4.5352 -0.230377 -1.92829 0
M  V30 32 O 3.8102 0.762952 -1.78911 0
M  V30 33 C 4.0932 -2.69323 -2.39034 0
M  V30 34 C 3.9462 -4.12002 -1.80485 0
M  V30 35 C 5.2652 -2.78408 -3.40847 0
M  V30 36 H 2.3842 -0.567992 -0.469632 0
M  V30 37 H 5.0262 -1.80302 -0.599277 0
M  V30 38 H 3.1762 -2.48763 -2.98412 0
M  V30 39 H 4.8482 -4.43981 -1.25215 0
M  V30 40 H 3.0912 -4.19344 -1.11055 0
M  V30 41 H 3.7622 -4.87077 -2.59731 0
M  V30 42 H 6.2382 -2.97012 -2.91416 0
M  V30 43 H 5.1142 -3.59416 -4.14863 0
M  V30 44 H 5.3752 -1.86269 -4.00944 0
M  V30 45 N 4.4343 0.785586 -1.36625 0
M  V30 46 C 5.6593 1.57963 -1.34397 0
M  V30 47 C 6.0843 1.87964 0.071526 0
M  V30 48 O 5.4423 1.48182 1.0446 0
M  V30 49 C 5.4903 2.87511 -2.17646 0
M  V30 50 O 4.5943 3.81281 -1.57158 0
M  V30 51 H 3.9353 0.479014 -0.459828 0
M  V30 52 H 6.4653 0.973411 -1.79961 0
M  V30 53 H 6.4753 3.36745 -2.30362 0
M  V30 54 H 5.1503 2.65002 -3.20541 0
M  V30 55 H 3.7273 3.39885 -1.53403 0
M  V30 56 N 5.9124 1.20967 1.01018 0
M  V30 57 C 6.8754 0.965918 2.07853 0
M  V30 58 C 7.8754 -0.0610545 1.60684 0
M  V30 59 O 9.0654 0.175681 1.73312 0
M  V30 60 C 6.1974 0.455513 3.37843 0
M  V30 61 H 7.3904 1.91365 2.3091 0
M  V30 62 H 4.9434 1.02594 1.17916 0
M  V30 63 H 5.6784 -0.497381 3.20463 0
M  V30 64 H 5.4634 1.19622 3.73407 0
M  V30 65 H 6.9534 0.304667 4.16487 0
M  V30 66 N 7.3905 -1.2043 1.01659 0
M  V30 67 C 8.6385 -1.89423 0.704522 0
M  V30 68 C 8.9595 -1.79231 -0.768197 0
M  V30 69 O 8.2295 -1.1947 -1.55254 0
M  V30 70 H 6.8095 -0.701178 0.257602 0
M  V30 71 H 9.4715 -1.4626 1.28818 0
M  V30 72 H 8.5675 -2.96052 0.987916 0
M  V30 73 N 8.8686 -0.792821 -1.36206 0
M  V30 74 C 10.0936 -0.377701 -2.03932 0
M  V30 75 C 10.5186 0.998947 -1.59382 0
M  V30 76 O 9.8766 1.64421 -0.763903 0
M  V30 77 C 9.9246 -0.453635 -3.57735 0
M  V30 78 O 9.0286 0.538151 -4.08874 0
M  V30 79 H 8.3696 -0.159855 -0.644471 0
M  V30 80 H 10.8996 -1.07488 -1.7409 0
M  V30 81 H 10.9096 -0.318464 -4.06755 0
M  V30 82 H 9.5846 -1.45784 -3.89512 0
M  V30 83 H 8.1616 0.364359 -3.71116 0
M  V30 84 N 10.3467 1.47872 -0.545128 0
M  V30 85 C 11.3097 2.28337 0.198717 0
M  V30 86 C 12.3097 1.36255 0.853888 0
M  V30 87 O 13.4997 1.59003 0.711606 0
M  V30 88 C 10.6317 3.15585 1.28915 0
M  V30 89 H 11.8247 2.95567 -0.507941 0
M  V30 90 H 9.3777 1.53362 -0.301616 0
M  V30 91 H 10.1127 2.53019 2.02859 0
M  V30 92 H 9.8977 3.83337 0.824309 0
M  V30 93 H 11.3877 3.76243 1.81194 0
M  V30 94 N 11.8248 0.280983 1.55075 0
M  V30 95 C 13.2408 -0.0729964 1.59433 0
M  V30 96 C 13.4408 -1.5411 1.29817 0
M  V30 97 O 12.4968 -2.29086 1.06187 0
M  V30 98 C 13.8098 0.306921 2.9913 0
M  V30 99 C 15.3578 0.254023 3.11968 0
M  V30 100 C 15.8328 0.608467 4.5394 0
M  V30 101 N 17.3238 0.560241 4.59799 0
M  V30 102 C 18.0588 0.80722 5.6769 0
M  V30 103 N 17.5548 1.11912 6.83701 0
M  V30 104 N 19.3478 0.735623 5.57266 0
M  V30 105 H 11.4988 1.238 1.7259 0
M  V30 106 H 13.7618 0.500547 0.805082 0
M  V30 107 H 13.4678 1.32816 3.25657 0
M  V30 108 H 13.3418 -0.349363 3.75579 0
M  V30 109 H 15.7288 -0.75794 2.852 0
M  V30 110 H 15.8098 0.944649 2.37718 0
M  V30 111 H 15.4538 1.61814 4.81434 0
M  V30 112 H 15.3838 -0.104013 5.26497 0
M  V30 113 H 17.8748 0.329288 3.76463 0
M  V30 114 H 18.1878 1.29409 7.61888 0
M  V30 115 H 16.5328 1.15695 6.85303 0
M  V30 116 H 19.7238 0.491752 4.6551 0
M  V30 117 H 19.8968 0.931482 6.4127 0
M  V30 118 N 13.3029 -1.57598 0.00835791 0
M  V30 119 C 14.5309 -1.95214 -0.68549 0
M  V30 120 C 14.9459 -0.883706 -1.66841 0
M  V30 121 O 14.3029 0.136565 -1.81988 0
M  V30 122 C 14.3539 -3.32865 -1.41007 0
M  V30 123 O 14.0749 -4.35609 -0.466552 0
M  V30 124 C 15.5759 -3.84991 -2.19765 0
M  V30 125 H 12.7959 -0.643422 -0.190392 0
M  V30 126 H 15.3399 -2.04406 0.0619607 0
M  V30 127 H 13.4949 -3.24956 -2.10908 0
M  V30 128 H 13.9089 -5.15288 -0.978699 0
M  V30 129 H 15.3829 -4.8371 -2.65948 0
M  V30 130 H 15.8599 -3.18137 -3.02796 0
M  V30 131 H 16.4659 -3.96103 -1.54864 0
M  V30 132 N 14.781 0.264519 -1.55364 0
M  V30 133 C 16.006 1.01726 -1.80739 0
M  V30 134 C 16.431 1.78836 -0.583044 0
M  V30 135 O 15.789 1.75167 0.467566 0
M  V30 136 C 15.837 1.94482 -3.03659 0
M  V30 137 O 14.941 3.03386 -2.7934 0
M  V30 138 H 14.282 0.290395 -0.597132 0
M  V30 139 H 16.812 0.290854 -2.02522 0
M  V30 140 H 16.822 2.36278 -3.32621 0
M  V30 141 H 15.497 1.37772 -3.92418 0
M  V30 142 H 14.074 2.65844 -2.61498 0
M  V30 143 N 16.2591 1.48442 0.529413 0
M  V30 144 C 17.6701 1.5002 1.11134 0
M  V30 145 C 18.0211 0.27031 1.94329 0
M  V30 146 O 17.1461 -0.622507 2.07253 0
M  V30 147 C 17.7411 2.71834 2.02217 0
M  V30 148 C 16.3001 2.76283 2.55627 0
M  V30 149 C 15.4471 2.43542 1.326 0
M  V30 150 H 18.3981 1.5555 0.314641 0
M  V30 151 H 18.4191 2.50384 2.8651 0
M  V30 152 H 17.9311 3.61331 1.41639 0
M  V30 153 H 16.0321 1.90995 3.19924 0
M  V30 154 H 16.1451 3.77725 2.94721 0
M  V30 155 H 14.5091 1.94709 1.64196 0
M  V30 156 H 15.2921 3.3528 0.737734 0
M  V30 157 N 17.7372 -0.778329 1.37039 0
M  V30 158 C 18.9622 -1.57248 1.35233 0
M  V30 159 C 19.3872 -1.87999 -0.0615568 0
M  V30 160 O 18.7452 -1.48734 -1.03672 0
M  V30 161 C 18.7932 -2.86353 2.19167 0
M  V30 162 O 17.8972 -3.80442 1.59178 0
M  V30 163 H 17.2382 -0.476569 0.462362 0
M  V30 164 H 19.7682 -0.963853 1.80474 0
M  V30 165 H 19.7782 -3.35519 2.32145 0
M  V30 166 H 18.4532 -2.63299 3.21942 0
M  V30 167 H 17.0302 -3.39067 1.55203 0
M  V30 168 N 19.2153 -1.21501 -1.00376 0
M  V30 169 C 20.4403 -1.05977 -1.78279 0
M  V30 170 C 20.8653 0.385994 -1.84097 0
M  V30 171 O 20.2233 1.27849 -1.28547 0
M  V30 172 C 20.2713 -1.66302 -3.19963 0
M  V30 173 O 19.3753 -0.909333 -4.0225 0
M  V30 174 H 18.7163 -0.372906 -0.549397 0
M  V30 175 H 21.2463 -1.6107 -1.26165 0
M  V30 176 H 21.2563 -1.70574 -3.70632 0
M  V30 177 H 19.9313 -2.71515 -3.15043 0
M  V30 178 H 18.5083 -0.941795 -3.60811 0
M  V30 179 N 20.6934 1.19889 -1.02296 0
M  V30 180 C 21.9704 1.85148 -0.630832 0
M  V30 181 C 22.3504 1.91385 0.890782 0
M  V30 182 O 21.6984 1.42642 1.78509 0
M  V30 183 C 21.9084 3.24442 -1.28602 0
M  V30 184 C 23.2564 4.00663 -1.4055 0
M  V30 185 O 24.2804 3.33818 -1.24273 0
M  V30 186 O 23.1394 5.20387 -1.66913 0
M  V30 187 H 20.2334 0.797613 -0.218499 0
M  V30 188 H 22.7794 1.27427 -1.12074 0
M  V30 189 H 21.5514 3.14704 -2.32545 0
M  V30 190 H 21.1744 3.89802 -0.7836 0
M  V30 191 N 22.1715 0.800033 1.35784 0
M  V30 192 C 23.1185 0.203848 2.29898 0
M  V30 193 C 24.0885 -0.658375 1.52495 0
M  V30 194 O 25.2735 -0.604832 1.8096 0
M  V30 195 C 22.4135 -0.64688 3.38983 0
M  V30 196 C 21.5265 0.235054 4.3136 0
M  V30 197 C 20.6615 -0.623054 5.27533 0
M  V30 198 C 19.7005 0.259682 6.11549 0
M  V30 199 N 18.8375 -0.558019 6.99879 0
M  V30 200 H 23.6775 1.01186 2.80295 0
M  V30 201 H 21.2145 0.51053 1.37957 0
M  V30 202 H 23.1725 -1.15521 4.00887 0
M  V30 203 H 21.8025 -1.42021 2.89879 0
M  V30 204 H 20.8545 0.861438 3.70518 0
M  V30 205 H 22.1665 0.914768 4.9034 0
M  V30 206 H 21.3205 -1.19678 5.94779 0
M  V30 207 H 20.0595 -1.33636 4.69034 0
M  V30 208 H 19.0645 0.845726 5.43256 0
M  V30 209 H 20.2895 0.970748 6.72126 0
M  V30 210 H 18.2355 -1.25542 6.43875 0
M  V30 211 H 18.1525 0.0637872 7.55973 0
M  V30 212 H 19.4205 -1.11523 7.71481 0
M  V30 213 N 23.6496 -1.47581 0.552962 0
M  V30 214 C 24.8956 -2.02782 0.0273648 0
M  V30 215 C 25.2286 -1.42687 -1.31734 0
M  V30 216 O 24.5036 -0.580897 -1.85623 0
M  V30 217 C 24.7866 -3.60031 -0.0702371 0
M  V30 218 C 24.6396 -4.30566 1.30126 0
M  V30 219 C 25.9586 -4.33028 -0.785771 0
M  V30 220 H 23.0776 -0.736912 0.0114185 0
M  V30 221 H 25.7196 -1.76056 0.714432 0
M  V30 222 H 23.8696 -3.82932 -0.655382 0
M  V30 223 H 25.5416 -4.19018 1.92929 0
M  V30 224 H 23.7846 -3.91086 1.87709 0
M  V30 225 H 24.4556 -5.39114 1.18573 0
M  V30 226 H 26.9316 -4.15095 -0.288982 0
M  V30 227 H 25.8076 -5.42695 -0.823013 0
M  V30 228 H 26.0686 -4.01945 -1.841 0
M  V30 229 N 25.1277 -0.289203 -1.54924 0
M  V30 230 C 26.0597 0.625583 -2.20497 0
M  V30 231 C 27.0727 1.10667 -1.19402 0
M  V30 232 O 28.2617 1.02615 -1.46056 0
M  V30 233 C 25.3617 1.86702 -2.82835 0
M  V30 234 C 24.5347 1.5304 -4.09753 0
M  V30 235 C 23.5937 2.62576 -4.56005 0
M  V30 236 O 22.6197 2.28167 -5.21468 0
M  V30 237 N 23.8217 3.92901 -4.27328 0
M  V30 238 H 26.5867 0.0642801 -2.99631 0
M  V30 239 H 24.1477 -0.110896 -1.6152 0
M  V30 240 H 26.1397 2.59304 -3.10715 0
M  V30 241 H 24.7097 2.33702 -2.07611 0
M  V30 242 H 23.9297 0.637564 -3.8901 0
M  V30 243 H 25.2177 1.28072 -4.92418 0
M  V30 244 H 24.6157 4.23671 -3.74859 0
M  V30 245 H 23.1727 4.61837 -4.59946 0
M  V30 246 N 26.6058 1.57591 -0.0167156 0
M  V30 247 C 27.5528 2.09462 0.969251 0
M  V30 248 C 28.5228 0.99381 1.33089 0
M  V30 249 O 29.7078 1.26726 1.42636 0
M  V30 250 C 26.8478 2.61622 2.25051 0
M  V30 251 C 25.9608 3.85666 1.94642 0
M  V30 252 C 25.0958 4.26266 3.16972 0
M  V30 253 C 24.1348 5.43101 2.82326 0
M  V30 254 N 23.2718 5.78915 3.97243 0
M  V30 255 H 28.1118 2.93428 0.519997 0
M  V30 256 H 25.6488 1.45044 0.245087 0
M  V30 257 H 27.6068 2.89949 2.99976 0
M  V30 258 H 26.2368 1.80505 2.67615 0
M  V30 259 H 25.2888 3.64145 1.10013 0
M  V30 260 H 26.6008 4.70678 1.65117 0
M  V30 261 H 25.7548 4.55963 4.00228 0
M  V30 262 H 24.4938 3.39996 3.49648 0
M  V30 263 H 23.4988 5.1311 1.97479 0
M  V30 264 H 24.7238 6.3106 2.50879 0
M  V30 265 H 22.6698 4.95602 4.29785 0
M  V30 266 H 22.5868 6.58539 3.71299 0
M  V30 267 H 23.8548 6.13212 4.81239 0
M  V30 268 N 28.0839 -0.256276 1.55502 0
M  V30 269 C 29.3609 -1.00789 1.67633 0
M  V30 270 C 29.7409 -2.03706 0.553826 0
M  V30 271 O 29.0889 -2.24145 -0.443969 0
M  V30 272 C 29.2989 -1.64968 3.07549 0
M  V30 273 C 30.6469 -2.15505 3.65845 0
M  V30 274 O 31.6709 -1.74925 3.1029 0
M  V30 275 O 30.5299 -2.89986 4.63217 0
M  V30 276 H 27.6239 -0.468553 0.681459 0
M  V30 277 H 30.1699 -0.250806 1.67836 0
M  V30 278 H 28.9419 -0.904785 3.80696 0
M  V30 279 H 28.5649 -2.47321 3.11317 0
M  V30 280 N 29.562 -1.4872 -0.521534 0
M  V30 281 C 30.509 -1.63871 -1.62527 0
M  V30 282 C 31.479 -0.480559 -1.58996 0
M  V30 283 O 32.664 -0.705085 -1.77294 0
M  V30 284 C 29.804 -1.69227 -3.00759 0
M  V30 285 C 28.917 -2.96207 -3.14461 0
M  V30 286 C 28.052 -2.92671 -4.43303 0
M  V30 287 C 27.091 -4.14318 -4.50563 0
M  V30 288 N 26.228 -4.0881 -5.70805 0
M  V30 289 H 31.068 -2.58123 -1.48918 0
M  V30 290 H 28.605 -1.28 -0.724878 0
M  V30 291 H 30.563 -1.70314 -3.80853 0
M  V30 292 H 29.193 -0.784586 -3.1312 0
M  V30 293 H 28.245 -3.04826 -2.27564 0
M  V30 294 H 29.557 -3.86192 -3.15686 0
M  V30 295 H 28.711 -2.92206 -5.31696 0
M  V30 296 H 27.45 -2.00429 -4.44612 0
M  V30 297 H 26.455 -4.15049 -3.60575 0
M  V30 298 H 27.68 -5.07729 -4.50986 0
M  V30 299 H 25.626 -3.19394 -5.72995 0
M  V30 300 H 25.543 -4.92509 -5.7356 0
M  V30 301 H 26.811 -4.12418 -6.61462 0
M  V30 302 N 31.0401 0.771051 -1.3745 0
M  V30 303 C 32.0031 1.86598 -1.33093 0
M  V30 304 C 33.0031 1.59076 -0.234845 0
M  V30 305 O 34.1931 1.67145 -0.490732 0
M  V30 306 C 31.3251 3.23747 -1.06773 0
M  V30 307 H 32.5181 1.91873 -2.30488 0
M  V30 308 H 30.0711 0.970876 -1.2249 0
M  V30 309 H 30.8061 3.24148 -0.099129 0
M  V30 310 H 30.5911 3.45115 -1.86112 0
M  V30 311 H 32.0811 4.03824 -1.06377 0
M  V30 312 N 32.5182 1.22032 0.997298 0
M  V30 313 C 33.4282 1.00271 2.12092 0
M  V30 314 C 34.4442 -0.047621 1.73935 0
M  V30 315 O 35.6202 0.144136 2.00884 0
M  V30 316 C 32.6852 0.578449 3.4184 0
M  V30 317 C 31.7462 1.70189 3.94125 0
M  V30 318 C 30.9792 1.29778 5.17681 0
M  V30 319 O 31.2022 0.174676 5.70132 0
M  V30 320 O 30.1362 2.11261 5.63607 0
M  V30 321 H 33.9622 1.94398 2.3333 0
M  V30 322 H 31.5472 1.00587 1.10465 0
M  V30 323 H 33.4292 0.351998 4.19927 0
M  V30 324 H 32.1042 -0.334019 3.21972 0
M  V30 325 H 31.0112 1.98282 3.1723 0
M  V30 326 H 32.3442 2.59206 4.18417 0
M  V30 327 N 33.9963 -1.19345 1.0293 0
M  V30 328 C 34.9263 -2.2481 0.631105 0
M  V30 329 C 35.9073 -1.66245 -0.360104 0
M  V30 330 O 37.0923 -1.92677 -0.242726 0
M  V30 331 C 34.2223 -3.47295 -0.0184607 0
M  V30 332 C 33.1763 -4.18536 0.895073 0
M  V30 333 C 32.5023 -5.34586 0.110592 0
M  V30 334 C 33.8023 -4.73287 2.209 0
M  V30 335 H 35.4963 -2.58372 1.51275 0
M  V30 336 H 33.0423 -1.24194 0.728818 0
M  V30 337 H 34.9953 -4.20268 -0.308675 0
M  V30 338 H 33.7193 -3.12933 -0.934907 0
M  V30 339 H 32.3783 -3.47446 1.16949 0
M  V30 340 H 32.0263 -4.96469 -0.807902 0
M  V30 341 H 31.7263 -5.83183 0.719087 0
M  V30 342 H 33.2503 -6.10355 -0.172871 0
M  V30 343 H 34.6643 -5.38013 1.98028 0
M  V30 344 H 33.0613 -5.32373 2.76946 0
M  V30 345 H 34.1313 -3.91331 2.86336 0
M  V30 346 N 35.4744 -0.807222 -1.35358 0
M  V30 347 C 36.7234 -0.384376 -1.98004 0
M  V30 348 C 37.0364 1.0543 -1.64754 0
M  V30 349 O 38.2424 1.58029 -2.20769 0
M  V30 350 C 36.6984 -0.636326 -3.5423 0
M  V30 351 C 36.3064 -2.08759 -3.96388 0
M  V30 352 C 38.0504 -0.278869 -4.23583 0
M  V30 353 C 35.9574 -2.28525 -5.45463 0
M  V30 354 H 34.8874 -0.139986 -0.740891 0
M  V30 355 H 37.5384 -0.991369 -1.54415 0
M  V30 356 H 35.9204 0.0406256 -3.95979 0
M  V30 357 H 37.0944 -2.8024 -3.6579 0
M  V30 358 H 35.4094 -2.40497 -3.39926 0
M  V30 359 H 38.0064 -0.404599 -5.33167 0
M  V30 360 H 38.3494 0.775012 -4.09022 0
M  V30 361 H 38.8824 -0.909764 -3.87257 0
M  V30 362 H 35.6214 -3.32361 -5.64992 0
M  V30 363 H 35.1414 -1.61569 -5.77629 0
M  V30 364 H 36.8204 -2.10109 -6.11934 0
M  V30 365 N 36.9525 1.47285 -0.560781 0
M  V30 366 C 38.1775 2.07359 -0.0410566 0
M  V30 367 C 38.6025 1.41017 1.24483 0
M  V30 368 O 37.9605 0.486368 1.74654 0
M  V30 369 C 38.0085 3.6035 0.134123 0
M  V30 370 O 37.1125 3.94681 1.19587 0
M  V30 371 H 36.4535 0.661887 -0.0529291 0
M  V30 372 H 38.9835 1.89252 -0.777482 0
M  V30 373 H 38.9935 4.0652 0.347207 0
M  V30 374 H 37.6685 4.08034 -0.805047 0
M  V30 375 H 36.2455 3.60251 0.962987 0
M  V30 376 N 38.4306 0.297415 1.54768 0
M  V30 377 C 39.6786 -0.312295 1.99673 0
M  V30 378 C 39.9996 -1.54686 1.18732 0
M  V30 379 O 39.2696 -1.93854 0.282382 0
M  V30 380 H 37.8496 -0.118381 0.73756 0
M  V30 381 H 40.5116 0.407915 1.90583 0
M  V30 382 H 39.6076 -0.586813 3.06534 0
M  V30 383 N 39.9087 -1.5758 0.0250728 0
M  V30 384 C 41.3197 -1.79476 -0.514323 0
M  V30 385 C 41.6707 -0.934956 -1.72491 0
M  V30 386 O 40.7957 -0.144245 -2.15919 0
M  V30 387 C 41.3907 -3.25503 -0.939842 0
M  V30 388 C 39.9497 -3.48408 -1.42438 0
M  V30 389 C 39.0967 -2.74583 -0.387201 0
M  V30 390 H 42.0477 -1.567 0.25113 0
M  V30 391 H 42.0687 -3.34992 -1.80445 0
M  V30 392 H 41.5807 -3.88056 -0.0585628 0
M  V30 393 H 39.6817 -2.91103 -2.32572 0
M  V30 394 H 39.7947 -4.57119 -1.43455 0
M  V30 395 H 38.1587 -2.39942 -0.854409 0
M  V30 396 H 38.9417 -3.39849 0.485543 0
M  V30 397 N 41.3868 0.248026 -1.55636 0
M  V30 398 C 42.8028 0.596483 -1.48035 0
M  V30 399 C 43.0028 1.88386 -0.715039 0
M  V30 400 O 42.0588 2.51319 -0.243944 0
M  V30 401 C 43.3718 0.700258 -2.92433 0
M  V30 402 C 44.9198 0.792659 -3.02797 0
M  V30 403 C 45.3948 0.928005 -4.485 0
M  V30 404 N 46.8858 0.992903 -4.52433 0
M  V30 405 C 47.6208 1.11687 -5.62418 0
M  V30 406 N 47.1168 1.20645 -6.82214 0
M  V30 407 N 48.9098 1.14994 -5.50212 0
M  V30 408 H 41.0608 -0.597109 -2.03834 0
M  V30 409 H 43.3238 -0.205925 -0.925364 0
M  V30 410 H 43.0298 -0.175658 -3.51261 0
M  V30 411 H 42.9038 1.57255 -3.42857 0
M  V30 412 H 45.2908 1.65903 -2.4405 0
M  V30 413 H 45.3718 -0.104762 -2.55585 0
M  V30 414 H 45.0158 0.0661971 -5.07857 0
M  V30 415 H 44.9458 1.84045 -4.93391 0
M  V30 416 H 47.4368 0.935064 -3.66149 0
M  V30 417 H 47.7498 1.30008 -7.61786 0
M  V30 418 H 46.0948 1.17605 -6.84977 0
M  V30 419 H 49.2858 1.07643 -4.55555 0
M  V30 420 H 49.4588 1.24311 -6.35965 0
M  V30 421 N 42.8649 1.48995 0.513639 0
M  V30 422 C 43.7969 1.60836 1.63293 0
M  V30 423 C 44.8099 0.491701 1.55197 0
M  V30 424 O 45.9989 0.763238 1.6136 0
M  V30 425 C 43.0989 1.53731 3.02027 0
M  V30 426 C 42.2719 2.80715 3.35437 0
M  V30 427 C 41.3309 2.66837 4.53525 0
M  V30 428 O 40.3569 3.40753 4.55934 0
M  V30 429 N 41.5589 1.77539 5.52684 0
M  V30 430 H 44.3239 2.57366 1.53566 0
M  V30 431 H 41.8849 1.45925 0.701259 0
M  V30 432 H 43.8769 1.42118 3.78926 0
M  V30 433 H 42.4469 0.651092 3.05744 0
M  V30 434 H 41.6669 3.06772 2.47557 0
M  V30 435 H 42.9549 3.64927 3.54551 0
M  V30 436 H 42.3529 1.16719 5.53528 0
M  V30 437 H 40.9099 1.71856 6.28736 0
M  V30 438 N 44.343 -0.763751 1.37857 0
M  V30 439 C 45.62 -1.51244 1.24035 0
M  V30 440 C 46 -2.10472 -0.162649 0
M  V30 441 O 45.348 -1.96206 -1.17112 0
M  V30 442 C 45.558 -2.58694 2.34261 0
M  V30 443 C 46.906 -3.25878 2.72193 0
M  V30 444 O 47.93 -2.68993 2.33497 0
M  V30 445 O 46.789 -4.2874 3.38887 0
M  V30 446 H 43.883 -0.670243 0.484462 0
M  V30 447 H 46.429 -0.800031 1.49658 0
M  V30 448 H 45.201 -2.13105 3.2818 0
M  V30 449 H 44.824 -3.37527 2.10146 0
M  V30 450 N 45.8211 -1.22559 -0.990812 0
M  V30 451 C 47.0461 -1.07862 -1.77145 0
M  V30 452 C 47.4711 0.366447 -1.84496 0
M  V30 453 O 46.8291 1.26478 -1.29896 0
M  V30 454 C 46.8771 -1.69686 -3.18181 0
M  V30 455 O 45.9811 -0.951946 -4.01263 0
M  V30 456 H 45.3221 -0.378712 -0.545411 0
M  V30 457 H 47.8521 -1.62399 -1.2445 0
M  V30 458 H 47.8621 -1.74496 -3.68802 0
M  V30 459 H 46.5371 -2.74841 -3.12146 0
M  V30 460 H 45.1141 -0.980011 -3.59792 0
M  V30 461 N 47.2992 1.18797 -1.03562 0
M  V30 462 C 48.7152 1.40671 -0.753917 0
M  V30 463 C 48.9152 1.9043 0.658686 0
M  V30 464 O 47.9712 2.08538 1.42366 0
M  V30 465 C 49.2842 2.41192 -1.79574 0
M  V30 466 C 50.8322 2.54928 -1.81606 0
M  V30 467 C 51.3072 3.58709 -2.84766 0
M  V30 468 N 52.7982 3.66212 -2.83625 0
M  V30 469 C 53.5332 4.46225 -3.60098 0
M  V30 470 N 53.0292 5.29888 -4.46308 0
M  V30 471 N 54.8222 4.40939 -3.4861 0
M  V30 472 H 46.9732 0.848221 -1.94728 0
M  V30 473 H 49.2362 0.435081 -0.842264 0
M  V30 474 H 48.9422 2.11669 -2.80872 0
M  V30 475 H 48.8162 3.40467 -1.62365 0
M  V30 476 H 51.2032 2.83771 -0.809817 0
M  V30 477 H 51.2842 1.55784 -2.02891 0
M  V30 478 H 50.9282 3.30607 -3.85566 0
M  V30 479 H 50.8582 4.57519 -2.60737 0
M  V30 480 H 53.3492 3.06466 -2.21105 0
M  V30 481 H 53.6622 5.88078 -5.01382 0
M  V30 482 H 52.0072 5.29326 -4.50377 0
M  V30 483 H 55.1982 3.74624 -2.80668 0
M  V30 484 H 55.3712 5.03056 -4.08459 0
M  V30 485 N 48.7773 0.814389 1.34928 0
M  V30 486 C 50.0263 0.394871 1.97797 0
M  V30 487 C 50.3393 -1.04555 1.65311 0
M  V30 488 O 51.5453 -1.56856 2.21604 0
M  V30 489 C 50.0013 0.655103 3.53888 0
M  V30 490 C 49.6093 2.10858 3.95276 0
M  V30 491 C 51.3533 0.301329 4.23429 0
M  V30 492 C 49.2603 2.31415 5.44244 0
M  V30 493 H 48.1903 0.143913 0.740139 0
M  V30 494 H 50.8413 0.999544 1.53888 0
M  V30 495 H 49.2233 -0.0196253 3.95995 0
M  V30 496 H 50.3973 2.82176 3.64298 0
M  V30 497 H 48.7123 2.42297 3.38646 0
M  V30 498 H 51.3093 0.432869 5.32945 0
M  V30 499 H 51.6523 -0.75331 4.09428 0
M  V30 500 H 52.1853 0.930288 3.86769 0
M  V30 501 H 48.9243 3.35353 5.63222 0
M  V30 502 H 48.4443 1.6463 5.76764 0
M  V30 503 H 50.1233 2.13352 6.10811 0
M  V30 504 N 50.2554 -1.46986 0.568584 0
M  V30 505 C 51.5034 -2.02041 0.0487022 0
M  V30 506 C 51.8244 -1.44408 -1.31039 0
M  V30 507 O 51.0944 -0.623477 -1.85714 0
M  V30 508 H 49.6744 -0.746849 0.015014 0
M  V30 509 H 52.3364 -1.80257 0.741168 0
M  V30 510 H 51.4324 -3.12085 -0.0308961 0
M  V30 511 N 51.7335 -0.305618 -1.54608 0
M  V30 512 C 52.6805 0.568421 -2.23691 0
M  V30 513 C 53.6505 1.12592 -1.22116 0
M  V30 514 O 54.8355 1.16959 -1.50749 0
M  V30 515 C 51.9755 1.7322 -2.98477 0
M  V30 516 C 51.0885 1.20566 -4.14835 0
M  V30 517 C 50.2235 2.33368 -4.77193 0
M  V30 518 C 49.2625 1.7787 -5.85686 0
M  V30 519 N 48.3995 2.84263 -6.4198 0
M  V30 520 H 53.2395 -0.0272867 -2.97988 0
M  V30 521 H 50.7765 -0.0252363 -1.47078 0
M  V30 522 H 52.7345 2.41675 -3.40072 0
M  V30 523 H 51.3645 2.29947 -2.26548 0
M  V30 524 H 50.4165 0.413223 -3.78149 0
M  V30 525 H 51.7285 0.759417 -4.92985 0
M  V30 526 H 50.8825 3.09761 -5.21664 0
M  V30 527 H 49.6215 2.8132 -3.98385 0
M  V30 528 H 48.6265 0.99968 -5.40635 0
M  V30 529 H 49.8515 1.30816 -6.66381 0
M  V30 530 H 47.7975 3.31541 -5.66053 0
M  V30 531 H 47.7145 2.44149 -7.15491 0
M  V30 532 H 48.9825 3.6054 -6.91109 0
M  V30 533 N 53.2116 1.57565 -0.0334293 0
M  V30 534 C 54.1416 2.13511 0.945265 0
M  V30 535 C 55.1226 1.05231 1.33643 0
M  V30 536 O 56.3076 1.33084 1.41429 0
M  V30 537 C 53.4376 2.6657 2.22616 0
M  V30 538 C 52.3916 3.79676 1.97561 0
M  V30 539 C 51.7176 4.1918 3.31952 0
M  V30 540 C 53.0176 5.0557 1.31135 0
M  V30 541 H 54.7116 2.95538 0.479325 0
M  V30 542 H 52.2576 1.42166 0.229115 0
M  V30 543 H 54.2106 3.04344 2.91466 0
M  V30 544 H 52.9346 1.8171 2.71384 0
M  V30 545 H 51.5936 3.42347 1.31127 0
M  V30 546 H 51.2416 3.31296 3.78487 0
M  V30 547 H 50.9416 4.95402 3.15992 0
M  V30 548 H 52.4656 4.59541 4.02063 0
M  V30 549 H 53.8796 5.40903 1.89992 0
M  V30 550 H 52.2766 5.86818 1.25559 0
M  V30 551 H 53.3466 4.84062 0.284894 0
M  V30 552 N 54.6897 -0.239769 1.55765 0
M  V30 553 C 55.6197 -1.30052 1.9393 0
M  V30 554 C 56.6007 -1.49839 0.805132 0
M  V30 555 O 57.7857 -1.62328 1.06599 0
M  V30 556 C 54.9157 -2.65391 2.2402 0
M  V30 557 C 53.8697 -2.60289 3.39755 0
M  V30 558 C 53.1957 -3.99489 3.55405 0
M  V30 559 C 54.4957 -2.16654 4.75246 0
M  V30 560 H 56.1897 -0.983573 2.82783 0
M  V30 561 H 53.7357 -0.471701 1.36055 0
M  V30 562 H 55.6887 -3.3974 2.49308 0
M  V30 563 H 54.4127 -2.98736 1.32 0
M  V30 564 H 53.0717 -1.88398 3.14487 0
M  V30 565 H 52.7197 -4.30112 2.60793 0
M  V30 566 H 52.4197 -3.96962 4.33238 0
M  V30 567 H 53.9437 -4.75528 3.83022 0
M  V30 568 H 55.3577 -2.80737 4.99859 0
M  V30 569 H 53.7547 -2.25223 5.56232 0
M  V30 570 H 54.8247 -1.11835 4.71827 0
M  V30 571 N 56.1678 -1.49265 -0.50573 0
M  V30 572 C 57.4158 -1.582 -1.25766 0
M  V30 573 C 57.7368 -0.268482 -1.93143 0
M  V30 574 O 57.0068 0.711833 -1.8251 0
M  V30 575 H 55.5868 -0.582873 -0.467191 0
M  V30 576 H 58.2488 -1.85865 -0.586525 0
M  V30 577 H 57.3448 -2.37563 -2.02412 0
M  V30 578 N 57.6459 0.756429 -1.3826 0
M  V30 579 C 58.8929 1.51547 -1.34312 0
M  V30 580 C 59.2209 1.94382 0.0677144 0
M  V30 581 O 58.4759 1.65514 1.04421 0
M  V30 582 C 58.7749 2.78313 -2.24224 0
M  V30 583 C 58.4409 2.54455 -3.72241 0
M  V30 584 C 57.1029 2.47657 -4.12576 0
M  V30 585 C 59.4549 2.3354 -4.65949 0
M  V30 586 C 56.7829 2.17956 -5.44713 0
M  V30 587 C 59.1349 2.05359 -5.9834 0
M  V30 588 C 57.7989 1.97016 -6.37762 0
M  V30 589 H 57.0689 0.55455 -0.491482 0
M  V30 590 H 59.7159 0.870039 -1.70595 0
M  V30 591 H 58.0209 3.47492 -1.80987 0
M  V30 592 H 59.7179 3.36259 -2.18474 0
M  V30 593 H 56.3079 2.60616 -3.40261 0
M  V30 594 H 60.4919 2.37772 -4.35635 0
M  V30 595 H 55.7479 2.10003 -5.74203 0
M  V30 596 H 59.9219 1.88179 -6.70494 0
M  V30 597 H 57.5489 1.73766 -7.40074 0
M  V30 598 N 59.124 1.23083 0.984299 0
M  V30 599 C 60.034 1.02515 2.11016 0
M  V30 600 C 61.05 -0.0291702 1.73976 0
M  V30 601 O 62.226 0.165434 2.00719 0
M  V30 602 C 59.291 0.614673 3.41208 0
M  V30 603 C 58.352 1.74359 3.92297 0
M  V30 604 C 57.585 1.35261 5.16275 0
M  V30 605 O 57.808 0.235136 5.69915 0
M  V30 606 O 56.742 2.17227 5.61334 0
M  V30 607 H 60.568 1.96862 2.31255 0
M  V30 608 H 58.153 1.01753 1.09392 0
M  V30 609 H 60.035 0.396518 4.1953 0
M  V30 610 H 58.71 -0.299851 3.22308 0
M  V30 611 H 57.617 2.01635 3.1511 0
M  V30 612 H 58.95 2.63629 4.15645 0
M  V30 613 N 60.6021 -1.18246 1.0419 0
M  V30 614 C 61.8481 -1.88793 0.75689 0
M  V30 615 C 62.2031 -1.78909 -0.707767 0
M  V30 616 O 61.4961 -1.1794 -1.50999 0
M  V30 617 C 61.6901 -3.38082 1.15911 0
M  V30 618 C 61.5191 -3.62496 2.66133 0
M  V30 619 C 60.2891 -3.7979 3.33298 0
M  V30 620 C 62.4871 -3.62976 3.64353 0
M  V30 621 N 60.4691 -3.91955 4.72487 0
M  V30 622 C 61.8401 -3.80869 4.89222 0
M  V30 623 C 63.8951 -3.46071 3.57965 0
M  V30 624 C 62.5981 -3.83608 6.08471 0
M  V30 625 C 64.6241 -3.50093 4.76643 0
M  V30 626 C 63.9861 -3.68484 6.00332 0
M  V30 627 H 60.0851 -0.709406 0.32904 0
M  V30 628 H 62.6691 -1.42022 1.33183 0
M  V30 629 H 60.8401 -3.83544 0.612238 0
M  V30 630 H 62.5721 -3.96202 0.824989 0
M  V30 631 H 59.3271 -3.79224 2.83701 0
M  V30 632 H 59.7511 -4.01857 5.44831 0
M  V30 633 H 64.3931 -3.30797 2.63311 0
M  V30 634 H 62.1111 -3.97669 7.0348 0
M  V30 635 H 65.6971 -3.38285 4.73344 0
M  V30 636 H 64.5771 -3.71488 6.90627 0
M  V30 637 N 62.0802 -0.821533 -1.34494 0
M  V30 638 C 63.3082 -0.421884 -2.02553 0
M  V30 639 C 63.7232 0.971745 -1.61872 0
M  V30 640 O 63.0802 1.62864 -0.823496 0
M  V30 641 C 63.1312 -0.51285 -3.57844 0
M  V30 642 O 62.8522 -1.85155 -3.97051 0
M  V30 643 C 64.3532 -0.107921 -4.43169 0
M  V30 644 H 61.5732 -0.169482 -0.649243 0
M  V30 645 H 64.1172 -1.1093 -1.71798 0
M  V30 646 H 62.2722 0.126474 -3.87193 0
M  V30 647 H 62.6862 -1.82482 -4.91732 0
M  V30 648 H 64.1602 -0.222657 -5.51551 0
M  V30 649 H 64.6372 0.948401 -4.28838 0
M  V30 650 H 65.2432 -0.720989 -4.19144 0
M  V30 651 N 63.5583 1.46682 -0.576371 0
M  V30 652 C 64.8353 1.95599 0.00703437 0
M  V30 653 C 65.2153 1.51904 1.46589 0
M  V30 654 O 64.5633 0.766755 2.15251 0
M  V30 655 C 64.7733 3.4864 -0.158404 0
M  V30 656 C 66.1213 4.24594 -0.0229439 0
M  V30 657 O 67.1453 3.56094 -0.0869173 0
M  V30 658 O 66.0043 5.46373 0.118015 0
M  V30 659 H 63.0983 0.825275 0.053384 0
M  V30 660 H 65.6443 1.56996 -0.644244 0
M  V30 661 H 64.4163 3.7331 -1.17282 0
M  V30 662 H 64.0393 3.94057 0.5296 0
M  V30 663 N 65.0364 0.313813 1.54444 0
M  V30 664 C 65.9664 -0.549454 2.26943 0
M  V30 665 C 66.9474 -1.12741 1.27372 0
M  V30 666 O 68.1324 -1.15436 1.56167 0
M  V30 667 C 65.2624 -1.71523 3.01989 0
M  V30 668 C 64.2164 -1.26703 4.08816 0
M  V30 669 C 63.5424 -2.51898 4.71647 0
M  V30 670 C 64.8424 -0.388962 5.2085 0
M  V30 671 H 66.5364 0.0552661 2.99349 0
M  V30 672 H 64.0824 0.0280207 1.43973 0
M  V30 673 H 66.0354 -2.32535 3.51433 0
M  V30 674 H 64.7594 -2.34639 2.27183 0
M  V30 675 H 63.4184 -0.679896 3.6024 0
M  V30 676 H 63.0664 -3.13356 3.93468 0
M  V30 677 H 62.7664 -2.22605 5.43802 0
M  V30 678 H 64.2904 -3.1369 5.23861 0
M  V30 679 H 65.7044 -0.905107 5.6611 0
M  V30 680 H 64.1014 -0.18924 5.99802 0
M  V30 681 H 65.1714 0.582699 4.81386 0
M  V30 682 N 66.5145 -1.57545 0.0417849 0
M  V30 683 C 67.7395 -1.97035 -0.647455 0
M  V30 684 C 68.1645 -0.918775 -1.64135 0
M  V30 685 O 67.5225 0.119006 -1.80909 0
M  V30 686 C 67.5705 -3.35609 -1.31905 0
M  V30 687 O 66.6745 -3.3287 -2.43457 0
M  V30 688 H 66.0155 -0.64211 -0.169086 0
M  V30 689 H 68.5455 -2.04318 0.107399 0
M  V30 690 H 68.5555 -3.72126 -1.67291 0
M  V30 691 H 67.2305 -4.11685 -0.590586 0
M  V30 692 H 65.8075 -3.08087 -2.10088 0
M  V30 693 N 67.9926 0.231505 -1.5589 0
M  V30 694 C 69.2176 0.978689 -1.82856 0
M  V30 695 C 69.6426 1.77559 -0.620846 0
M  V30 696 O 69.0006 1.76119 0.430305 0
M  V30 697 C 69.0486 1.87997 -3.07716 0
M  V30 698 O 68.1526 2.97393 -2.85712 0
M  V30 699 H 67.4936 0.277663 -0.603158 0
M  V30 700 H 70.0236 0.24783 -2.03093 0
M  V30 701 H 70.0336 2.2917 -3.37558 0
M  V30 702 H 68.7086 1.29417 -3.95252 0
M  V30 703 H 67.2856 2.60238 -2.67078 0
M  V30 704 N 69.4707 1.49531 0.497807 0
M  V30 705 C 70.7167 1.60388 1.25089 0
M  V30 706 C 71.0717 0.288328 1.90227 0
M  V30 707 O 70.3647 -0.711706 1.77891 0
M  V30 708 C 70.5587 2.70252 2.33878 0
M  V30 709 C 70.3877 4.12363 1.79408 0
M  V30 710 C 69.1577 4.7911 1.60566 0
M  V30 711 C 71.3557 4.97491 1.30412 0
M  V30 712 N 69.3377 6.05525 1.01059 0
M  V30 713 C 70.7087 6.14411 0.830595 0
M  V30 714 C 72.7637 4.83466 1.19015 0
M  V30 715 C 71.4667 7.1885 0.254371 0
M  V30 716 C 73.4927 5.88057 0.627892 0
M  V30 717 C 72.8547 7.04208 0.16461 0
M  V30 718 H 68.9537 0.641246 0.447579 0
M  V30 719 H 71.5377 1.86549 0.557441 0
M  V30 720 H 69.7087 2.45858 3.0068 0
M  V30 721 H 71.4407 2.70613 3.00917 0
M  V30 722 H 68.1957 4.35961 1.85026 0
M  V30 723 H 68.6197 6.73028 0.732236 0
M  V30 724 H 73.2617 3.93978 1.53431 0
M  V30 725 H 70.9797 8.08036 -0.102052 0
M  V30 726 H 74.5657 5.79266 0.542444 0
M  V30 727 H 73.4457 7.83757 -0.263669 0
M  V30 728 N 70.9488 -0.749086 1.3866 0
M  V30 729 C 72.3648 -1.05276 1.19955 0
M  V30 730 C 72.5648 -2.01435 0.05134 0
M  V30 731 O 71.6208 -2.45232 -0.60147 0
M  V30 732 C 72.9338 -1.62853 2.52783 0
M  V30 733 C 74.4818 -1.75002 2.59506 0
M  V30 734 C 74.9568 -2.35991 3.92521 0
M  V30 735 N 76.4478 -2.43416 3.94085 0
M  V30 736 C 77.1828 -2.91511 4.9377 0
M  V30 737 N 76.6788 -3.39608 6.03853 0
M  V30 738 N 78.4718 -2.90592 4.81157 0
M  V30 739 H 70.6228 -0.111066 2.12109 0
M  V30 740 H 72.8858 -0.111901 0.941373 0
M  V30 741 H 72.5918 -0.99664 3.37283 0
M  V30 742 H 72.4658 -2.61854 2.715 0
M  V30 743 H 74.8528 -2.37317 1.75398 0
M  V30 744 H 74.9338 -0.74693 2.44652 0
M  V30 745 H 74.5778 -1.74308 4.77053 0
M  V30 746 H 74.5078 -3.3695 4.04688 0
M  V30 747 H 76.9988 -2.09405 3.14576 0
M  V30 748 H 77.3118 -3.74775 6.75843 0
M  V30 749 H 75.6568 -3.37653 6.07466 0
M  V30 750 H 78.8478 -2.52332 3.94267 0
M  V30 751 H 79.0208 -3.27762 5.58996 0
M  V30 752 N 72.4269 -1.23603 -0.977757 0
M  V30 753 C 73.8429 -0.999251 -1.24447 0
M  V30 754 C 74.0429 0.298053 -1.99283 0
M  V30 755 O 73.0989 1.01681 -2.31122 0
M  V30 756 C 74.4119 -2.20784 -2.04144 0
M  V30 757 C 75.9599 -2.25303 -2.17273 0
M  V30 758 C 76.4349 -3.45755 -3.00362 0
M  V30 759 N 77.9259 -3.4601 -3.07947 0
M  V30 760 C 78.6609 -4.35868 -3.72568 0
M  V30 761 N 78.1569 -5.35966 -4.38991 0
M  V30 762 N 79.9499 -4.23605 -3.6948 0
M  V30 763 H 72.1009 -2.06986 -0.476483 0
M  V30 764 H 74.3639 -0.907801 -0.273134 0
M  V30 765 H 74.0699 -3.14945 -1.56533 0
M  V30 766 H 73.9439 -2.22085 -3.04891 0
M  V30 767 H 76.3309 -1.3168 -2.64092 0
M  V30 768 H 76.4119 -2.28033 -1.15907 0
M  V30 769 H 76.0559 -4.39687 -2.5424 0
M  V30 770 H 75.9859 -3.40266 -4.01904 0
M  V30 771 H 78.4769 -2.73588 -2.60688 0
M  V30 772 H 78.7899 -6.00783 -4.86086 0
M  V30 773 H 77.1349 -5.39863 -4.37691 0
M  V30 774 H 80.3259 -3.44647 -3.16759 0
M  V30 775 H 80.4989 -4.93836 -4.1956 0
M  V30 776 N 73.905 1.17692 -1.04816 0
M  V30 777 C 74.835 2.23777 -0.666791 0
M  V30 778 C 75.816 1.66796 0.33361 0
M  V30 779 O 77.001 1.93039 0.212042 0
M  V30 780 C 74.131 3.47281 -0.0367933 0
M  V30 781 C 73.085 4.17059 -0.961546 0
M  V30 782 C 72.411 5.34342 -0.195626 0
M  V30 783 C 73.711 4.69713 -2.28402 0
M  V30 784 H 75.405 2.55933 -1.55367 0
M  V30 785 H 72.951 1.23019 -0.748484 0
M  V30 786 H 74.904 4.20706 0.241775 0
M  V30 787 H 73.628 3.14381 0.885004 0
M  V30 788 H 72.287 3.45541 -1.22462 0
M  V30 789 H 71.935 4.97692 0.728816 0
M  V30 790 H 71.635 5.81966 -0.811775 0
M  V30 791 H 73.159 6.10553 0.0757473 0
M  V30 792 H 74.573 5.34794 -2.06563 0
M  V30 793 H 72.97 5.279 -2.8538 0
M  V30 794 H 74.04 3.86726 -2.92525 0
M  V30 795 N 75.3831 0.828654 1.34056 0
M  V30 796 C 76.6291 0.42008 1.98402 0
M  V30 797 C 76.9621 -1.01564 1.65525 0
M  V30 798 O 76.2371 -1.70834 0.929831 0
M  V30 799 C 76.5201 0.62927 3.54559 0
M  V30 800 C 76.3731 2.11152 3.97159 0
M  V30 801 C 77.6921 0.0688756 4.40046 0
M  V30 802 H 74.8111 0.154104 0.720709 0
M  V30 803 H 77.4531 1.04228 1.5886 0
M  V30 804 H 75.6031 0.0996418 3.88372 0
M  V30 805 H 77.2751 2.70522 3.73651 0
M  V30 806 H 75.5181 2.59985 3.47261 0
M  V30 807 H 76.1891 2.20868 5.05887 0
M  V30 808 H 78.6651 0.521458 4.1282 0
M  V30 809 H 77.5411 0.245006 5.48353 0
M  V30 810 H 77.8021 -1.0266 4.30015 0
M  V30 811 N 76.8612 -1.46375 0.584142 0
M  V30 812 C 78.0892 -2.06761 0.0759296 0
M  V30 813 C 78.5042 -1.43266 -1.22965 0
M  V30 814 O 77.8612 -0.538458 -1.74376 0
M  V30 815 C 77.9122 -3.61375 -0.0950384 0
M  V30 816 O 77.6332 -4.22495 1.15887 0
M  V30 817 C 79.1342 -4.38693 -0.637434 0
M  V30 818 H 76.3542 -0.668479 0.0581075 0
M  V30 819 H 78.8982 -1.8798 0.805218 0
M  V30 820 H 77.0532 -3.79578 -0.774554 0
M  V30 821 H 77.4672 -5.15385 0.973598 0
M  V30 822 H 78.9412 -5.47464 -0.706237 0
M  V30 823 H 79.4182 -4.06836 -1.65472 0
M  V30 824 H 80.0242 -4.25299 0.00725967 0
M  V30 825 N 78.3393 -0.321999 -1.54275 0
M  V30 826 C 79.2693 0.537411 -2.27231 0
M  V30 827 C 80.2503 1.12064 -1.27968 0
M  V30 828 O 81.4353 1.14606 -1.56777 0
M  V30 829 C 78.5653 1.69919 -3.02894 0
M  V30 830 C 77.5193 1.24534 -4.09482 0
M  V30 831 C 76.8453 2.49394 -4.72977 0
M  V30 832 C 78.1453 0.361335 -5.21049 0
M  V30 833 H 79.8393 -0.0711406 -2.99315 0
M  V30 834 H 77.3853 -0.0356555 -1.43956 0
M  V30 835 H 79.3383 2.30668 -3.52662 0
M  V30 836 H 78.0623 2.33431 -2.28424 0
M  V30 837 H 76.7213 0.660782 -3.60596 0
M  V30 838 H 76.3693 3.11265 -3.95124 0
M  V30 839 H 76.0693 2.19718 -5.44975 0
M  V30 840 H 77.5933 3.10908 -5.25517 0
M  V30 841 H 79.0073 0.875072 -5.66582 0
M  V30 842 H 77.4043 0.157428 -5.99893 0
M  V30 843 H 78.4743 -0.60822 -4.8107 0
M  V30 844 N 79.8174 1.5752 -0.0501392 0
M  V30 845 C 80.7474 2.14502 0.922566 0
M  V30 846 C 81.7284 1.06642 1.3252 0
M  V30 847 O 82.9134 1.34577 1.4001 0
M  V30 848 C 80.0434 2.68916 2.19776 0
M  V30 849 C 78.9974 3.8175 1.93523 0
M  V30 850 C 78.3234 4.22677 3.27487 0
M  V30 851 C 79.6234 5.06932 1.25765 0
M  V30 852 H 81.3174 2.9603 0.447952 0
M  V30 853 H 78.8634 1.42401 0.214024 0
M  V30 854 H 80.8164 3.07419 2.88222 0
M  V30 855 H 79.5404 1.84578 2.69441 0
M  V30 856 H 78.1994 3.43718 1.27489 0
M  V30 857 H 77.8474 3.35291 3.74952 0
M  V30 858 H 77.5474 4.98725 3.1072 0
M  V30 859 H 79.0714 4.63779 3.97166 0
M  V30 860 H 80.4854 5.42888 1.84244 0
M  V30 861 H 78.8824 5.88116 1.19328 0
M  V30 862 H 79.9524 4.84337 0.233536 0
M  V30 863 N 81.2955 -0.223234 1.56011 0
M  V30 864 C 82.2435 -1.29627 1.93131 0
M  V30 865 C 83.2375 -1.48608 0.813146 0
M  V30 866 O 84.4435 -1.49802 0.997966 0
M  V30 867 H 80.8185 -0.434563 0.613726 0
M  V30 868 H 82.7895 -0.955995 2.82672 0
M  V30 869 C 81.5385 -2.63983 2.26292 0
M  V30 870 H 80.8615 -2.50185 3.11846 0
M  V30 871 H 82.3015 -3.3788 2.56151 0
M  V30 872 C 80.7605 -3.18866 1.08747 0
M  V30 873 O 81.2905 -4.00192 0.347727 0
M  V30 874 N 79.4965 -2.77217 0.871743 0
M  V30 875 H 79.0435 -2.1119 1.47501 0
M  V30 876 H 79.0015 -3.1428 0.0869905 0
M  V30 877 N 82.7736 -1.49793 -0.48987 0
M  V30 878 C 84.1896 -1.36803 -0.822022 0
M  V30 879 C 84.3896 -0.409652 -1.97292 0
M  V30 880 O 83.4456 0.154614 -2.52026 0
M  V30 881 C 84.7586 -2.77768 -1.15175 0
M  V30 882 C 86.3066 -2.86549 -1.25931 0
M  V30 883 C 86.7816 -4.28306 -1.62228 0
M  V30 884 N 88.2726 -4.31169 -1.69256 0
M  V30 885 C 89.0076 -5.37832 -1.98807 0
M  V30 886 N 88.5036 -6.54726 -2.26507 0
M  V30 887 N 90.2966 -5.25258 -2.00152 0
M  V30 888 H 82.4476 -2.10691 0.268881 0
M  V30 889 H 84.7106 -0.946241 0.057728 0
M  V30 890 H 84.4166 -3.49648 -0.379335 0
M  V30 891 H 84.2906 -3.13836 -2.09253 0
M  V30 892 H 86.6776 -2.14899 -2.02243 0
M  V30 893 H 86.7586 -2.54049 -0.298776 0
M  V30 894 H 86.4026 -5.00486 -0.864622 0
M  V30 895 H 86.3326 -4.58279 -2.594 0
M  V30 896 H 88.8236 -3.4687 -1.49965 0
M  V30 897 H 89.1366 -7.31833 -2.48276 0
M  V30 898 H 87.4816 -6.57933 -2.23939 0
M  V30 899 H 90.6726 -4.32938 -1.77996 0
M  V30 900 H 90.8456 -6.08476 -2.22848 0
M  V30 901 N 84.2517 0.741722 -1.39055 0
M  V30 902 C 85.6627 1.31966 -1.32068 0
M  V30 903 C 86.0137 1.96192 0.0180797 0
M  V30 904 O 85.1387 1.95861 0.920196 0
M  V30 905 C 85.7337 2.39954 -2.39181 0
M  V30 906 C 84.2927 2.93438 -2.35735 0
M  V30 907 C 83.4397 1.66936 -2.21422 0
M  V30 908 H 86.3907 0.539721 -1.4924 0
M  V30 909 H 86.4117 3.20182 -2.05581 0
M  V30 910 H 85.9237 1.9318 -3.36605 0
M  V30 911 H 84.0247 3.4451 -1.41929 0
M  V30 912 H 84.1377 3.4701 -3.30335 0
M  V30 913 H 82.5017 1.91016 -1.68478 0
M  V30 914 H 83.2847 1.22224 -3.20806 0
M  V30 915 N 85.7298 1.2412 0.971189 0
M  V30 916 C 86.9578 1.10575 1.74874 0
M  V30 917 C 87.3728 -0.342017 1.85676 0
M  V30 918 O 86.7298 -1.23617 1.34258 0
M  V30 919 C 86.7808 1.73579 3.171 0
M  V30 920 O 86.5018 3.12695 3.06844 0
M  V30 921 C 88.0028 1.65598 4.11208 0
M  V30 922 H 85.2228 0.386504 0.548503 0
M  V30 923 H 87.7668 1.64156 1.21955 0
M  V30 924 H 85.9218 1.24009 3.67016 0
M  V30 925 H 86.3358 3.43412 3.96445 0
M  V30 926 H 87.8098 2.1437 5.08674 0
M  V30 927 H 88.2868 0.616532 4.34851 0
M  V30 928 H 88.8928 2.14578 3.67201 0
M  V30 929 N 87.2079 -1.17134 1.05439 0
M  V30 930 C 88.4849 -1.83411 0.679699 0
M  V30 931 C 88.8649 -1.9368 -0.839726 0
M  V30 932 O 88.2129 -1.47325 -1.74664 0
M  V30 933 C 88.4229 -3.20918 1.37159 0
M  V30 934 C 89.7709 -3.96796 1.51123 0
M  V30 935 O 90.7949 -3.30406 1.3308 0
M  V30 936 O 89.6539 -5.15778 1.80651 0
M  V30 937 H 86.7479 -0.79154 0.239569 0
M  V30 938 H 89.2939 -1.24411 1.15413 0
M  V30 939 H 88.0659 -3.08428 2.40807 0
M  V30 940 H 87.6889 -3.87587 0.886674 0
M  V30 941 N 88.686 -0.835752 -1.33615 0
M  V30 942 C 90.097 -0.487099 -1.80234 0
M  V30 943 C 90.448 0.993627 -1.69179 0
M  V30 944 O 89.573 1.77403 -1.23924 0
M  V30 945 C 90.168 -0.877385 -3.27242 0
M  V30 946 C 88.727 -0.580915 -3.7189 0
M  V30 947 C 87.874 -1.0874 -2.5509 0
M  V30 948 H 90.825 -1.02474 -1.2118 0
M  V30 949 H 90.846 -0.186195 -3.80044 0
M  V30 950 H 90.358 -1.95512 -3.35256 0
M  V30 951 H 88.459 0.486881 -3.69405 0
M  V30 952 H 88.572 -1.13396 -4.65487 0
M  V30 953 H 86.936 -0.508392 -2.49575 0
M  V30 954 H 87.719 -2.17184 -2.65868 0
M  V30 955 N 90.1641 1.46063 -0.591896 0
M  V30 956 C 91.1271 2.28854 0.125973 0
M  V30 957 C 92.1271 1.38903 0.810107 0
M  V30 958 O 93.3171 1.61186 0.66066 0
M  V30 959 C 90.4491 3.19526 1.1881 0
M  V30 960 H 91.6421 2.93802 -0.601717 0
M  V30 961 H 89.1951 1.52325 -0.350254 0
M  V30 962 H 89.9301 2.59345 1.94707 0
M  V30 963 H 89.7151 3.85766 0.701936 0
M  V30 964 H 91.2051 3.81817 1.69132 0
M  V30 965 N 91.6422 0.330177 1.54103 0
M  V30 966 C 92.8672 -0.274893 2.0557 0
M  V30 967 C 93.2922 -1.44487 1.20437 0
M  V30 968 O 92.6502 -1.80021 0.214991 0
M  V30 969 C 92.6982 -0.68079 3.54115 0
M  V30 970 O 91.8022 -1.7824 3.71893 0
M  V30 971 H 91.1432 -0.0483849 0.662235 0
M  V30 972 H 93.6732 0.480508 1.98878 0
M  V30 973 H 93.6832 -0.961635 3.96505 0
M  V30 974 H 92.3582 0.174903 4.15532 0
M  V30 975 H 90.9352 -1.49985 3.41407 0
M  V30 976 N 93.1203 -1.57491 0.0584922 0
M  V30 977 C 94.0503 -2.14988 -0.911178 0
M  V30 978 C 95.0313 -1.07343 -1.31952 0
M  V30 979 O 96.2163 -1.35318 -1.39294 0
M  V30 980 C 93.3463 -2.70078 -2.18347 0
M  V30 981 C 92.3003 -3.82771 -1.91495 0
M  V30 982 C 91.6263 -4.24408 -3.25241 0
M  V30 983 C 92.9263 -5.07592 -1.23075 0
M  V30 984 H 94.6203 -2.96263 -0.432246 0
M  V30 985 H 92.1663 -1.42512 -0.206469 0
M  V30 986 H 94.1193 -3.08943 -2.86587 0
M  V30 987 H 92.8433 -1.86005 -2.68458 0
M  V30 988 H 91.5023 -3.44389 -1.25664 0
M  V30 989 H 91.1503 -3.37275 -3.73168 0
M  V30 990 H 90.8503 -5.00366 -3.08071 0
M  V30 991 H 92.3743 -4.65879 -3.94701 0
M  V30 992 H 93.7883 -5.43857 -1.81362 0
M  V30 993 H 92.1853 -5.88741 -1.16207 0
M  V30 994 H 93.2553 -4.84454 -0.207847 0
M  V30 995 N 94.5984 0.214957 -1.56127 0
M  V30 996 C 95.5614 1.24997 -1.92116 0
M  V30 997 C 96.5614 1.39467 -0.800344 0
M  V30 998 O 97.7514 1.37619 -1.06802 0
M  V30 999 C 94.8834 2.62271 -2.17777 0
M  V30 1000 H 96.0764 0.942875 -2.84693 0
M  V30 1001 H 93.6294 0.455654 -1.49511 0
M  V30 1002 H 94.3644 2.98068 -1.27773 0
M  V30 1003 H 94.1494 2.53143 -2.99434 0
M  V30 1004 H 95.6394 3.36946 -2.46693 0
M  V30 1005 N 96.0765 1.50051 0.48192 0
M  V30 1006 C 97.3225 1.60736 1.2366 0
M  V30 1007 C 97.6555 0.301786 1.91841 0
M  V30 1008 O 96.9305 -0.696025 1.8162 0
M  V30 1009 C 97.2135 2.78009 2.28874 0
M  V30 1010 C 97.0665 4.18416 1.65069 0
M  V30 1011 C 98.3855 2.90867 3.30279 0
M  V30 1012 H 95.5045 0.585031 0.448228 0
M  V30 1013 H 98.1465 1.82402 0.531946 0
M  V30 1014 H 96.2965 2.59667 2.88973 0
M  V30 1015 H 97.9685 4.48322 1.0865 0
M  V30 1016 H 96.2115 4.23177 0.954148 0
M  V30 1017 H 96.8825 4.96381 2.41474 0
M  V30 1018 H 99.3585 3.07623 2.80191 0
M  V30 1019 H 98.2345 3.74566 4.01238 0
M  V30 1020 H 98.4955 2.01021 3.93755 0
M  V30 1021 N 97.5546 -0.734337 1.39446 0
M  V30 1022 C 98.8016 -1.49391 1.36706 0
M  V30 1023 C 99.1296 -1.94465 -0.0367813 0
M  V30 1024 O 98.3846 -1.67154 -1.01774 0
M  V30 1025 C 98.6836 -2.74711 2.28623 0
M  V30 1026 C 98.3496 -2.48501 3.76242 0
M  V30 1027 C 97.0116 -2.41062 4.16464 0
M  V30 1028 C 99.3636 -2.26098 4.69606 0
M  V30 1029 C 96.6916 -2.09262 5.48112 0
M  V30 1030 C 99.0436 -1.95814 6.01531 0
M  V30 1031 C 97.7076 -1.86845 6.40816 0
M  V30 1032 H 96.9776 -0.546661 0.500243 0
M  V30 1033 H 99.6246 -0.842788 1.71957 0
M  V30 1034 H 97.9296 -3.44569 1.86492 0
M  V30 1035 H 99.6266 -3.32741 2.23796 0
M  V30 1036 H 96.2166 -2.55169 3.44364 0
M  V30 1037 H 100.401 -2.30812 4.39363 0
M  V30 1038 H 95.6566 -2.00841 5.77471 0
M  V30 1039 H 99.8306 -1.77488 6.73403 0
M  V30 1040 H 97.4576 -1.6197 7.42745 0
M  V30 1041 N 99.0327 -1.24633 -0.964593 0
M  V30 1042 C 100.449 -1.01239 -1.2338 0
M  V30 1043 C 100.649 0.2769 -1.99588 0
M  V30 1044 O 99.7047 0.992241 -2.32187 0
M  V30 1045 C 101.018 -2.22937 -2.01791 0
M  V30 1046 C 102.566 -2.27594 -2.14872 0
M  V30 1047 C 103.041 -3.48921 -2.96678 0
M  V30 1048 N 104.532 -3.49257 -3.04259 0
M  V30 1049 C 105.267 -4.39795 -3.67924 0
M  V30 1050 N 104.763 -5.40591 -4.33281 0
M  V30 1051 N 106.556 -4.275 -3.64966 0
M  V30 1052 H 98.7067 -2.0748 -0.454502 0
M  V30 1053 H 100.97 -0.910647 -0.26349 0
M  V30 1054 H 100.676 -3.16587 -1.53184 0
M  V30 1055 H 100.55 -2.25306 -3.02518 0
M  V30 1056 H 102.937 -1.34473 -2.6268 0
M  V30 1057 H 103.018 -2.2925 -1.13482 0
M  V30 1058 H 102.662 -4.42359 -2.49562 0
M  V30 1059 H 102.592 -3.4451 -3.98272 0
M  V30 1060 H 105.083 -2.76337 -2.57771 0
M  V30 1061 H 105.396 -6.05904 -4.79687 0
M  V30 1062 H 103.741 -5.44475 -4.3194 0
M  V30 1063 H 106.932 -3.47987 -3.13086 0
M  V30 1064 H 107.105 -4.98258 -4.14298 0
M  V30 1065 N 100.511 1.16574 -1.06058 0
M  V30 1066 C 101.758 1.87047 -0.775873 0
M  V30 1067 C 102.086 1.81562 0.697534 0
M  V30 1068 O 101.341 1.22445 1.52662 0
M  V30 1069 C 101.64 3.36195 -1.21275 0
M  V30 1070 C 101.306 3.6188 -2.68986 0
M  V30 1071 C 99.9678 3.68599 -3.09335 0
M  V30 1072 C 102.32 3.72648 -3.64394 0
M  V30 1073 C 99.6478 3.83584 -4.43937 0
M  V30 1074 C 102 3.89154 -4.98741 0
M  V30 1075 C 100.664 3.94114 -5.3873 0
M  V30 1076 H 99.9338 0.684452 -0.283912 0
M  V30 1077 H 102.581 1.37853 -1.32925 0
M  V30 1078 H 100.886 3.87505 -0.578528 0
M  V30 1079 H 102.583 3.89103 -0.969542 0
M  V30 1080 H 99.1728 3.57281 -2.36744 0
M  V30 1081 H 103.357 3.66769 -3.34356 0
M  V30 1082 H 98.6128 3.85677 -4.74409 0
M  V30 1083 H 102.787 3.96427 -5.72554 0
M  V30 1084 H 100.414 4.05478 -6.43033 0
M  V30 1085 N 101.989 0.842826 1.3317 0
M  V30 1086 C 102.919 0.294028 2.31641 0
M  V30 1087 C 103.9 -0.600401 1.59151 0
M  V30 1088 O 105.085 -0.523124 1.87022 0
M  V30 1089 C 102.215 -0.528416 3.43257 0
M  V30 1090 C 101.169 0.27056 4.27144 0
M  V30 1091 C 100.495 -0.675881 5.30411 0
M  V30 1092 C 101.795 1.48981 5.00602 0
M  V30 1093 H 103.489 1.11681 2.77791 0
M  V30 1094 H 101.035 0.538478 1.33553 0
M  V30 1095 H 102.988 -0.922674 4.11175 0
M  V30 1096 H 101.712 -1.38445 2.95805 0
M  V30 1097 H 100.371 0.646427 3.60856 0
M  V30 1098 H 100.019 -1.52842 4.79216 0
M  V30 1099 H 99.7189 -0.145374 5.8742 0
M  V30 1100 H 101.243 -1.06757 6.01195 0
M  V30 1101 H 102.657 1.16849 5.61266 0
M  V30 1102 H 101.054 1.95739 5.6728 0
M  V30 1103 H 102.124 2.25746 4.29147 0
M  V30 1104 N 103.467 -1.45747 0.599634 0
M  V30 1105 C 104.714 -2.02292 0.0917284 0
M  V30 1106 C 105.042 -1.46906 -1.27472 0
M  V30 1107 O 104.297 -0.630652 -1.8526 0
M  V30 1108 C 104.596 -3.57399 -0.00602758 0
M  V30 1109 C 104.262 -4.31902 1.29503 0
M  V30 1110 C 102.924 -4.51974 1.65144 0
M  V30 1111 C 105.276 -4.74551 2.15525 0
M  V30 1112 C 102.604 -5.11949 2.86574 0
M  V30 1113 C 104.956 -5.35868 3.36196 0
M  V30 1114 C 103.62 -5.54165 3.72099 0
M  V30 1115 H 102.89 -0.740239 0.0335658 0
M  V30 1116 H 105.537 -1.7491 0.779661 0
M  V30 1117 H 103.842 -3.84014 -0.777183 0
M  V30 1118 H 105.539 -3.98846 -0.415038 0
M  V30 1119 H 102.129 -4.16588 1.00761 0
M  V30 1120 H 106.313 -4.58784 1.8929 0
M  V30 1121 H 101.569 -5.24305 3.14507 0
M  V30 1122 H 105.743 -5.6787 4.03109 0
M  V30 1123 H 103.37 -6.00406 4.6628 0
M  V30 1124 N 104.945 -0.338344 -1.53925 0
M  V30 1125 C 106.193 0.259245 -2.0043 0
M  V30 1126 C 106.514 1.51484 -1.22791 0
M  V30 1127 O 105.784 1.93037 -0.33368 0
M  V30 1128 H 104.364 0.0987845 -0.740439 0
M  V30 1129 H 107.026 -0.458302 -1.89435 0
M  V30 1130 H 106.122 0.505334 -3.07982 0
M  V30 1131 N 106.423 1.57458 -0.0668435 0
M  V30 1132 C 107.67 1.93301 0.603406 0
M  V30 1133 C 107.998 0.946486 1.69917 0
M  V30 1134 O 107.253 -0.0387021 1.95662 0
M  V30 1135 C 107.552 3.35784 1.22409 0
M  V30 1136 C 107.218 4.50179 0.254955 0
M  V30 1137 C 105.88 4.81199 -0.0116746 0
M  V30 1138 C 108.232 5.19598 -0.408338 0
M  V30 1139 C 105.56 5.78978 -0.94877 0
M  V30 1140 C 107.912 6.18381 -1.33372 0
M  V30 1141 C 106.576 6.47821 -1.60887 0
M  V30 1142 H 105.846 0.707338 0.220802 0
M  V30 1143 H 108.493 1.91012 -0.136665 0
M  V30 1144 H 106.798 3.34515 2.03978 0
M  V30 1145 H 108.495 3.60804 1.74989 0
M  V30 1146 H 105.085 4.25983 0.472954 0
M  V30 1147 H 109.269 4.95832 -0.215456 0
M  V30 1148 H 104.525 6.00115 -1.16925 0
M  V30 1149 H 108.699 6.71277 -1.85367 0
M  V30 1150 H 106.326 7.23399 -2.33661 0
M  V30 1151 N 107.901 -0.206675 1.56239 0
M  V30 1152 C 108.831 -1.25909 1.96645 0
M  V30 1153 C 109.812 -1.48097 0.836734 0
M  V30 1154 O 110.997 -1.6003 1.10019 0
M  V30 1155 C 108.127 -2.6058 2.29599 0
M  V30 1156 C 107.081 -2.53024 3.452 0
M  V30 1157 C 106.407 -3.91861 3.63798 0
M  V30 1158 C 107.707 -2.06524 4.79734 0
M  V30 1159 H 109.401 -0.923369 2.84806 0
M  V30 1160 H 106.947 -0.442735 1.37025 0
M  V30 1161 H 108.9 -3.34375 2.56459 0
M  V30 1162 H 107.624 -2.95869 1.38307 0
M  V30 1163 H 106.283 -1.81684 3.18412 0
M  V30 1164 H 105.931 -4.24483 2.69857 0
M  V30 1165 H 105.631 -3.87683 4.4156 0
M  V30 1166 H 107.155 -4.67296 3.93022 0
M  V30 1167 H 108.569 -2.70072 5.05702 0
M  V30 1168 H 106.966 -2.13374 5.60885 0
M  V30 1169 H 108.036 -1.01802 4.74093 0
M  V30 1170 N 109.379 -1.50304 -0.473955 0
M  V30 1171 C 110.312 -1.63595 -1.59097 0
M  V30 1172 C 111.29 -0.484142 -1.55225 0
M  V30 1173 O 112.474 -0.703271 -1.7489 0
M  V30 1174 C 109.601 -1.61589 -2.97669 0
M  V30 1175 C 108.647 -2.82295 -3.19705 0
M  V30 1176 S 109.48 -4.43635 -2.99913 0
M  V30 1177 C 110.636 -4.44317 -4.40832 0
M  V30 1178 H 110.869 -2.58082 -1.47583 0
M  V30 1179 H 108.402 -1.39531 -0.661087 0
M  V30 1180 H 110.36 -1.61116 -3.7756 0
M  V30 1181 H 109.021 -0.683421 -3.06575 0
M  V30 1182 H 108.214 -2.77188 -4.20931 0
M  V30 1183 H 107.816 -2.8032 -2.47582 0
M  V30 1184 H 110.108 -4.17703 -5.33414 0
M  V30 1185 H 111.051 -5.45911 -4.50984 0
M  V30 1186 H 111.459 -3.74059 -4.22777 0
M  V30 1187 N 110.857 0.726932 -1.39834 0
M  V30 1188 C 112.103 1.48884 -1.377 0
M  V30 1189 C 112.436 1.94185 0.0244852 0
M  V30 1190 O 111.711 1.67361 0.990986 0
M  V30 1191 C 111.994 2.72288 -2.3565 0
M  V30 1192 C 111.847 2.32956 -3.84775 0
M  V30 1193 C 113.166 3.74414 -2.31306 0
M  V30 1194 H 110.285 0.540062 -0.5015 0
M  V30 1195 H 112.927 0.830547 -1.70886 0
M  V30 1196 H 111.077 3.28457 -2.07481 0
M  V30 1197 H 112.749 1.82356 -4.23726 0
M  V30 1198 H 110.992 1.65088 -4.01159 0
M  V30 1199 H 111.663 3.21362 -4.4881 0
M  V30 1200 H 114.139 3.27849 -2.56231 0
M  V30 1201 H 113.015 4.58414 -3.01907 0
M  V30 1202 H 113.276 4.21909 -1.32081 0
M  V30 1203 N 112.336 1.25143 0.95797 0
M  V30 1204 C 113.266 1.07711 2.07173 0
M  V30 1205 C 114.247 -0.0128462 1.70095 0
M  V30 1206 O 115.432 0.156061 1.93572 0
M  V30 1207 C 112.562 0.691503 3.40346 0
M  V30 1208 C 111.516 1.73132 3.9142 0
M  V30 1209 C 110.842 1.20049 5.21049 0
M  V30 1210 C 112.142 3.1294 4.1817 0
M  V30 1211 H 113.836 2.00873 2.22014 0
M  V30 1212 H 111.382 0.967191 1.06684 0
M  V30 1213 H 113.335 0.556505 4.17709 0
M  V30 1214 H 112.059 -0.275819 3.25433 0
M  V30 1215 H 110.718 1.8547 3.16222 0
M  V30 1216 H 110.366 0.223499 5.02503 0
M  V30 1217 H 110.066 1.89545 5.56189 0
M  V30 1218 H 111.59 1.07782 6.01012 0
M  V30 1219 H 113.004 3.03775 4.86203 0
M  V30 1220 H 111.401 3.79875 4.64559 0
M  V30 1221 H 112.471 3.6025 3.24573 0
M  V30 1222 N 113.814 -1.1601 1.06675 0
M  V30 1223 C 115.091 -1.82679 0.699114 0
M  V30 1224 C 115.471 -1.94559 -0.819137 0
M  V30 1225 O 114.819 -1.49169 -1.73092 0
M  V30 1226 C 115.029 -3.19445 1.40555 0
M  V30 1227 C 116.377 -3.95171 1.55323 0
M  V30 1228 O 117.401 -3.28976 1.36577 0
M  V30 1229 O 116.26 -5.13833 1.86112 0
M  V30 1230 H 113.354 -0.788954 0.247951 0
M  V30 1231 H 115.9 -1.23179 1.16726 0
M  V30 1232 H 114.672 -3.05856 2.44065 0
M  V30 1233 H 114.295 -3.86625 0.927733 0
M  V30 1234 N 115.292 -0.849877 -1.32721 0
M  V30 1235 C 116.541 -0.447175 -1.96681 0
M  V30 1236 C 116.854 1.00135 -1.68025 0
M  V30 1237 O 118.06 1.50926 -2.25685 0
M  V30 1238 C 116.516 -0.7487 -3.52026 0
M  V30 1239 C 116.124 -2.21264 -3.89546 0
M  V30 1240 C 117.868 -0.413487 -4.22481 0
M  V30 1241 C 115.775 -2.45763 -5.37917 0
M  V30 1242 H 114.705 -0.163486 -0.736063 0
M  V30 1243 H 117.356 -1.03999 -1.51183 0
M  V30 1244 H 115.738 -0.0853727 -3.95908 0
M  V30 1245 H 116.912 -2.91736 -3.56689 0
M  V30 1246 H 115.227 -2.5119 -3.32103 0
M  V30 1247 H 117.824 -0.574017 -5.3161 0
M  V30 1248 H 118.167 0.644492 -4.11281 0
M  V30 1249 H 118.7 -1.03251 -3.84167 0
M  V30 1250 H 115.439 -3.50168 -5.54132 0
M  V30 1251 H 114.959 -1.79864 -5.72197 0
M  V30 1252 H 116.638 -2.29471 -6.0494 0
M  V30 1253 N 116.77 1.45427 -0.607355 0
M  V30 1254 C 118.181 1.85756 -0.187535 0
M  V30 1255 C 118.532 1.5077 1.25551 0
M  V30 1256 O 117.657 0.93427 1.95193 0
M  V30 1257 C 118.252 3.37154 -0.333572 0
M  V30 1258 C 116.811 3.76387 0.0315542 0
M  V30 1259 C 115.958 2.69377 -0.658117 0
M  V30 1260 H 118.909 1.36231 -0.81405 0
M  V30 1261 H 118.93 3.78014 0.43428 0
M  V30 1262 H 118.442 3.62586 -1.38393 0
M  V30 1263 H 116.543 3.56571 1.0811 0
M  V30 1264 H 116.656 4.77731 -0.361935 0
M  V30 1265 H 115.02 2.5452 -0.0957873 0
M  V30 1266 H 115.803 2.97646 -1.7106 0
M  V30 1267 N 118.248 0.346503 1.53744 0
M  V30 1268 C 119.18 -0.543316 2.22667 0
M  V30 1269 C 120.193 -1.06159 1.23427 0
M  V30 1270 O 121.382 -0.971235 1.49764 0
M  V30 1271 C 118.482 -1.76076 2.89569 0
M  V30 1272 C 117.655 -1.37727 4.15151 0
M  V30 1273 C 116.714 -2.45471 4.65436 0
M  V30 1274 O 115.74 -2.08655 5.29577 0
M  V30 1275 N 116.942 -3.7677 4.41616 0
M  V30 1276 H 119.707 0.0469703 2.99663 0
M  V30 1277 H 117.268 0.170766 1.60997 0
M  V30 1278 H 119.26 -2.47593 3.20125 0
M  V30 1279 H 117.83 -2.25835 2.16142 0
M  V30 1280 H 117.05 -0.492746 3.91108 0
M  V30 1281 H 118.338 -1.09708 4.96832 0
M  V30 1282 H 117.736 -4.09467 3.90325 0
M  V30 1283 H 116.293 -4.44448 4.7677 0
M  V30 1284 N 119.726 -1.57421 0.075193 0
M  V30 1285 C 120.636 -2.1642 -0.905511 0
M  V30 1286 C 121.652 -1.12828 -1.32461 0
M  V30 1287 O 122.828 -1.45109 -1.39661 0
M  V30 1288 C 119.893 -2.71693 -2.15369 0
M  V30 1289 C 118.954 -3.90171 -1.79068 0
M  V30 1290 C 118.187 -4.42798 -2.97936 0
M  V30 1291 O 118.41 -3.94416 -4.12058 0
M  V30 1292 O 117.344 -5.34085 -2.77555 0
M  V30 1293 H 121.17 -3.00588 -0.433626 0
M  V30 1294 H 118.755 -1.48664 -0.148067 0
M  V30 1295 H 120.637 -3.07104 -2.88557 0
M  V30 1296 H 119.312 -1.90582 -2.61649 0
M  V30 1297 H 118.219 -3.59606 -1.03122 0
M  V30 1298 H 119.552 -4.72584 -1.37569 0
M  V30 1299 N 121.204 0.198386 -1.56346 0
M  V30 1300 C 122.62 0.549085 -1.49857 0
M  V30 1301 C 122.82 1.86016 -0.774611 0
M  V30 1302 O 121.876 2.50416 -0.323776 0
M  V30 1303 C 123.189 0.606868 -2.94512 0
M  V30 1304 C 124.737 0.695925 -3.05165 0
M  V30 1305 C 125.212 0.784848 -4.51225 0
M  V30 1306 N 126.703 0.848463 -4.55363 0
M  V30 1307 C 127.438 0.937378 -5.65686 0
M  V30 1308 N 126.934 0.9888 -6.85707 0
M  V30 1309 N 128.727 0.974312 -5.53592 0
M  V30 1310 H 120.878 -0.661655 -2.01831 0
M  V30 1311 H 123.141 -0.235261 -0.918344 0
M  V30 1312 H 122.847 -0.28732 -3.50524 0
M  V30 1313 H 122.721 1.46268 -3.47686 0
M  V30 1314 H 125.108 1.58055 -2.49204 0
M  V30 1315 H 125.189 -0.186022 -2.55123 0
M  V30 1316 H 124.833 -0.0954072 -5.0781 0
M  V30 1317 H 124.763 1.68255 -4.98997 0
M  V30 1318 H 127.254 0.818103 -3.68938 0
M  V30 1319 H 127.567 1.05707 -7.65536 0
M  V30 1320 H 125.912 0.957534 -6.88372 0
M  V30 1321 H 129.103 0.930954 -4.58749 0
M  V30 1322 H 129.276 1.04015 -6.39597 0
M  V30 1323 N 122.682 1.50554 0.465978 0
M  V30 1324 C 123.93 1.61479 1.21528 0
M  V30 1325 C 124.251 0.319596 1.92363 0
M  V30 1326 O 123.521 -0.663194 1.84333 0
M  V30 1327 H 122.101 0.595055 0.451573 0
M  V30 1328 H 124.763 1.87355 0.53704 0
M  V30 1329 H 123.859 2.42846 1.96042 0
M  V30 1330 N 124.16 -0.719506 1.40217 0
M  V30 1331 C 125.09 -1.8465 1.42922 0
M  V30 1332 C 126.071 -1.67599 0.29062 0
M  V30 1333 O 127.256 -1.87688 0.498677 0
M  V30 1334 C 124.386 -3.22565 1.28722 0
M  V30 1335 C 123.34 -3.54281 2.40144 0
M  V30 1336 C 122.666 -4.91298 2.11023 0
M  V30 1337 C 123.966 -3.55676 3.82481 0
M  V30 1338 H 125.66 -1.82644 2.37237 0
M  V30 1339 H 123.206 -0.877305 1.1419 0
M  V30 1340 H 125.159 -4.01095 1.29232 0
M  V30 1341 H 123.883 -3.25137 0.308811 0
M  V30 1342 H 122.542 -2.78088 2.38877 0
M  V30 1343 H 122.19 -4.90468 1.11582 0
M  V30 1344 H 121.89 -5.13485 2.8567 0
M  V30 1345 H 123.414 -5.72166 2.13209 0
M  V30 1346 H 124.828 -4.24254 3.85592 0
M  V30 1347 H 123.225 -3.89388 4.56614 0
M  V30 1348 H 124.295 -2.55144 4.12346 0
M  V30 1349 N 125.638 -1.25649 -0.95132 0
M  V30 1350 C 126.863 -1.13443 -1.73624 0
M  V30 1351 C 127.288 0.307565 -1.85568 0
M  V30 1352 O 126.646 1.22282 -1.33854 0
M  V30 1353 C 126.694 -1.79723 -3.12621 0
M  V30 1354 O 125.798 -1.07912 -3.98031 0
M  V30 1355 H 125.139 -0.395872 -0.533086 0
M  V30 1356 H 127.669 -1.66276 -1.1922 0
M  V30 1357 H 127.679 -1.86141 -3.63064 0
M  V30 1358 H 126.354 -2.84633 -3.03244 0
M  V30 1359 H 124.931 -1.09398 -3.56492 0
M  V30 1360 N 127.117 1.15442 -1.07289 0
M  V30 1361 C 128.342 1.90638 -0.816828 0
M  V30 1362 C 128.767 1.77445 0.624083 0
M  V30 1363 O 128.125 1.10671 1.43602 0
M  V30 1364 C 128.173 3.39008 -1.22906 0
M  V30 1365 O 127.277 4.10701 -0.373975 0
M  V30 1366 H 126.618 0.593555 -0.297638 0
M  V30 1367 H 129.148 1.46198 -1.43134 0
M  V30 1368 H 129.158 3.89801 -1.20497 0
M  V30 1369 H 127.833 3.47929 -2.27856 0
M  V30 1370 H 126.41 3.70046 -0.460499 0
M  V30 1371 N 128.595 0.856903 1.32268 0
M  V30 1372 C 129.525 0.31858 2.31316 0
M  V30 1373 C 130.506 -0.583487 1.59779 0
M  V30 1374 O 131.691 -0.503259 1.87566 0
M  V30 1375 C 128.821 -0.491979 3.43798 0
M  V30 1376 C 127.775 0.315849 4.26833 0
M  V30 1377 C 127.101 -0.619586 5.31098 0
M  V30 1378 C 128.401 1.54282 4.98993 0
M  V30 1379 H 130.095 1.14621 2.76591 0
M  V30 1380 H 127.641 0.552613 1.32974 0
M  V30 1381 H 129.594 -0.879012 4.1213 0
M  V30 1382 H 128.318 -1.35299 2.97257 0
M  V30 1383 H 126.977 0.684664 3.6015 0
M  V30 1384 H 126.625 -1.47751 4.8081 0
M  V30 1385 H 126.325 -0.0830621 5.87541 0
M  V30 1386 H 127.849 -1.00375 6.02293 0
M  V30 1387 H 129.263 1.22796 5.59995 0
M  V30 1388 H 127.66 2.01745 5.65172 0
M  V30 1389 H 128.73 2.30285 4.26728 0
M  V30 1390 N 130.073 -1.45103 0.615059 0
M  V30 1391 C 131.35 -1.95549 0.0448276 0
M  V30 1392 C 131.73 -1.55737 -1.4251 0
M  V30 1393 O 131.078 -0.823556 -2.13143 0
M  V30 1394 C 131.288 -3.48098 0.250785 0
M  V30 1395 C 132.636 -4.24384 0.135509 0
M  V30 1396 O 133.66 -3.55738 0.181299 0
M  V30 1397 O 132.519 -5.46493 0.0268878 0
M  V30 1398 H 129.613 -0.8264 -0.0314845 0
M  V30 1399 H 132.159 -1.55232 0.685642 0
M  V30 1400 H 130.931 -3.7007 1.27139 0
M  V30 1401 H 130.554 -3.95323 -0.424937 0
M  V30 1402 N 131.551 -0.354651 -1.53558 0
M  V30 1403 C 132.967 -0.00315426 -1.596 0
M  V30 1404 C 133.167 1.47741 -1.37021 0
M  V30 1405 O 132.223 2.23759 -1.16996 0
M  V30 1406 C 133.536 -0.44929 -2.97325 0
M  V30 1407 C 135.084 -0.402578 -3.104 0
M  V30 1408 C 135.559 -0.824355 -4.5052 0
M  V30 1409 N 137.05 -0.778979 -4.56603 0
M  V30 1410 C 137.785 -1.07715 -5.63192 0
M  V30 1411 N 137.281 -1.44405 -6.77583 0
M  V30 1412 N 139.074 -1.00066 -5.53121 0
M  V30 1413 H 131.225 -1.31893 -1.66487 0
M  V30 1414 H 133.488 -0.538388 -0.780284 0
M  V30 1415 H 133.194 -1.48202 -3.1895 0
M  V30 1416 H 133.068 0.169772 -3.76818 0
M  V30 1417 H 135.455 0.621004 -2.88492 0
M  V30 1418 H 135.536 -1.05699 -2.32941 0
M  V30 1419 H 135.18 -1.846 -4.73165 0
M  V30 1420 H 135.11 -0.147304 -5.26394 0
M  V30 1421 H 137.601 -0.508528 -3.74463 0
M  V30 1422 H 137.914 -1.65612 -7.54846 0
M  V30 1423 H 136.259 -1.4826 -6.79002 0
M  V30 1424 H 139.45 -0.713293 -4.62633 0
M  V30 1425 H 139.623 -1.23638 -6.36096 0
M  V30 1426 N 133.029 1.57378 -0.0835403 0
M  V30 1427 C 133.976 2.13384 0.879539 0
M  V30 1428 C 134.946 1.04936 1.28754 0
M  V30 1429 O 136.131 1.32662 1.37133 0
M  V30 1430 C 133.271 2.70932 2.13752 0
M  V30 1431 C 132.384 3.93575 1.7811 0
M  V30 1432 C 131.519 4.39326 2.98607 0
M  V30 1433 C 130.558 5.54587 2.59037 0
M  V30 1434 N 129.695 5.95243 3.72331 0
M  V30 1435 H 134.535 2.9537 0.395076 0
M  V30 1436 H 132.072 1.45953 0.183349 0
M  V30 1437 H 134.03 3.02411 2.87408 0
M  V30 1438 H 132.66 1.91693 2.59718 0
M  V30 1439 H 131.712 3.68483 0.94469 0
M  V30 1440 H 133.024 4.77258 1.45005 0
M  V30 1441 H 132.178 4.72528 3.80529 0
M  V30 1442 H 130.917 3.5452 3.34913 0
M  V30 1443 H 129.922 5.21024 1.75539 0
M  V30 1444 H 131.147 6.41133 2.23887 0
M  V30 1445 H 129.093 5.13385 4.08378 0
M  V30 1446 H 129.01 6.73694 3.43034 0
M  V30 1447 H 130.278 6.33072 4.54797 0
M  V30 1448 N 134.507 -0.190092 1.56449 0
M  V30 1449 C 135.737 -0.92443 1.84764 0
M  V30 1450 C 136.145 -1.77146 0.664529 0
M  V30 1451 O 135.488 -1.79812 -0.375957 0
M  V30 1452 C 135.55 -1.86651 3.07248 0
M  V30 1453 C 135.214 -1.20094 4.40938 0
M  V30 1454 C 136.211 -0.575445 5.16706 0
M  V30 1455 C 133.896 -1.2033 4.87674 0
M  V30 1456 C 135.89 0.0388111 6.37388 0
M  V30 1457 C 133.577 -0.585214 6.08291 0
M  V30 1458 C 134.575 0.0347578 6.82991 0
M  V30 1459 O 134.263 0.643147 8.01323 0
M  V30 1460 H 133.995 -0.274974 0.617548 0
M  V30 1461 H 136.549 -0.200788 2.04416 0
M  V30 1462 H 134.779 -2.62998 2.83494 0
M  V30 1463 H 136.468 -2.46907 3.22167 0
M  V30 1464 H 137.234 -0.565728 4.81689 0
M  V30 1465 H 133.113 -1.67526 4.29484 0
M  V30 1466 H 136.657 0.523329 6.95634 0
M  V30 1467 H 132.554 -0.592451 6.42775 0
M  V30 1468 H 133.322 0.540545 8.16713 0
M  V30 1469 N 135.985 -1.50799 -0.457987 0
M  V30 1470 C 136.915 -1.73553 -1.5621 0
M  V30 1471 C 137.896 -0.584774 -1.59732 0
M  V30 1472 O 139.081 -0.825314 -1.7579 0
M  V30 1473 C 136.211 -1.84169 -2.94447 0
M  V30 1474 C 135.165 -2.99461 -3.0579 0
M  V30 1475 C 134.491 -2.95235 -4.45803 0
M  V30 1476 C 135.791 -4.39766 -2.81786 0
M  V30 1477 H 137.485 -2.66 -1.37421 0
M  V30 1478 H 135.031 -1.28002 -0.659662 0
M  V30 1479 H 136.984 -1.98672 -3.71628 0
M  V30 1480 H 135.708 -0.883545 -3.14422 0
M  V30 1481 H 134.367 -2.8463 -2.31044 0
M  V30 1482 H 134.015 -1.97239 -4.62715 0
M  V30 1483 H 133.715 -3.72642 -4.54326 0
M  V30 1484 H 135.239 -3.11803 -5.24987 0
M  V30 1485 H 136.653 -4.55054 -3.4871 0
M  V30 1486 H 135.05 -5.18722 -3.0174 0
M  V30 1487 H 136.12 -4.51229 -1.7754 0
M  V30 1488 N 137.463 0.71206 -1.40597 0
M  V30 1489 C 138.74 1.46536 -1.29563 0
M  V30 1490 C 139.12 2.10931 0.0844217 0
M  V30 1491 O 138.468 2.00418 1.0975 0
M  V30 1492 C 138.678 2.49821 -2.43701 0
M  V30 1493 C 140.026 3.15551 -2.841 0
M  V30 1494 O 141.05 2.60142 -2.4332 0
M  V30 1495 O 139.909 4.15867 -3.54566 0
M  V30 1496 H 137.003 0.651801 -0.509004 0
M  V30 1497 H 139.549 0.743935 -1.52524 0
M  V30 1498 H 138.321 2.00778 -3.35863 0
M  V30 1499 H 137.944 3.29495 -2.22528 0
M  V30 1500 N 138.941 1.26152 0.944643 0
M  V30 1501 C 140.189 1.11271 1.6871 0
M  V30 1502 C 140.51 -0.345166 1.91921 0
M  V30 1503 O 139.78 -1.24387 1.51343 0
M  V30 1504 H 138.36 0.408783 0.625224 0
M  V30 1505 H 141.022 1.58427 1.1352 0
M  V30 1506 H 140.118 1.62879 2.66227 0
M  V30 1507 N 140.419 -1.14872 1.07899 0
M  V30 1508 C 141.349 -2.2193 0.725887 0
M  V30 1509 C 142.33 -1.67622 -0.28927 0
M  V30 1510 O 143.515 -1.93533 -0.160787 0
M  V30 1511 C 140.645 -3.47061 0.128856 0
M  V30 1512 C 139.599 -4.14363 1.07178 0
M  V30 1513 C 138.925 -5.33636 0.337229 0
M  V30 1514 C 140.225 -4.63492 2.40775 0
M  V30 1515 H 141.919 -2.51724 1.62097 0
M  V30 1516 H 139.465 -1.20991 0.780838 0
M  V30 1517 H 141.418 -4.21199 -0.130147 0
M  V30 1518 H 140.142 -3.16617 -0.80134 0
M  V30 1519 H 138.801 -3.42173 1.3158 0
M  V30 1520 H 138.449 -4.99449 -0.596606 0
M  V30 1521 H 138.149 -5.79609 0.965788 0
M  V30 1522 H 139.673 -6.10539 0.0861567 0
M  V30 1523 H 141.087 -5.2913 2.20669 0
M  V30 1524 H 139.484 -5.20148 2.99276 0
M  V30 1525 H 140.554 -3.78834 3.02676 0
M  V30 1526 N 141.898 -0.863906 -1.31812 0
M  V30 1527 C 143.175 -0.39275 -1.91616 0
M  V30 1528 C 143.555 1.12461 -1.7865 0
M  V30 1529 O 142.903 1.95045 -1.19037 0
M  V30 1530 C 143.113 -0.867385 -3.38049 0
M  V30 1531 C 144.461 -0.889966 -4.15168 0
M  V30 1532 O 145.485 -0.812635 -3.46806 0
M  V30 1533 O 144.344 -1.00079 -5.37258 0
M  V30 1534 H 141.438 -0.116358 -0.818773 0
M  V30 1535 H 143.984 -0.951418 -1.40521 0
M  V30 1536 H 142.756 -1.91081 -3.41473 0
M  V30 1537 H 142.379 -0.286687 -3.96565 0
M  V30 1538 N 143.376 1.44774 -0.622745 0
M  V30 1539 C 144.622 2.0242 -0.124083 0
M  V30 1540 C 144.955 1.4881 1.24777 0
M  V30 1541 O 144.23 0.668799 1.8264 0
M  V30 1542 C 144.513 3.59957 -0.101619 0
M  V30 1543 C 144.366 4.23867 -1.50521 0
M  V30 1544 C 145.685 4.36284 0.578272 0
M  V30 1545 H 142.804 0.735528 -0.0465645 0
M  V30 1546 H 145.446 1.72447 -0.797617 0
M  V30 1547 H 143.596 3.85623 0.471934 0
M  V30 1548 H 145.268 4.09336 -2.12701 0
M  V30 1549 H 143.511 3.81684 -2.06154 0
M  V30 1550 H 144.182 5.32843 -1.4416 0
M  V30 1551 H 146.658 4.16001 0.0906057 0
M  V30 1552 H 145.534 5.46004 0.563149 0
M  V30 1553 H 145.795 4.10271 1.64713 0
M  V30 1554 N 144.854 0.36279 1.53368 0
M  V30 1555 C 146.094 -0.227882 2.03126 0
M  V30 1556 C 146.458 -1.4622 1.24434 0
M  V30 1557 O 147.659 -2.12831 1.64184 0
M  V30 1558 C 145.93 -0.515427 3.53664 0
M  V30 1559 S 147.489 -1.08017 4.25297 0
M  V30 1560 H 144.307 -0.0665377 0.70788 0
M  V30 1561 H 146.909 0.50501 1.88865 0
M  V30 1562 H 145.613 0.390436 4.08539 0
M  V30 1563 H 145.144 -1.27747 3.72081 0
M  V30 1564 H 147.159 -2.36462 4.36234 0
M  V30 1565 N 146.332 -1.57332 0.0918853 0
M  V30 1566 C 147.748 -1.57389 -0.264766 0
M  V30 1567 C 147.948 -1.10281 -1.68643 0
M  V30 1568 O 147.004 -0.777801 -2.40222 0
M  V30 1569 C 148.317 -3.00648 -0.0561195 0
M  V30 1570 C 149.865 -3.12754 -0.124116 0
M  V30 1571 C 150.34 -4.57965 0.0564972 0
M  V30 1572 N 151.831 -4.632 0.00155611 0
M  V30 1573 C 152.566 -5.73281 0.116598 0
M  V30 1574 N 152.062 -6.92208 0.286294 0
M  V30 1575 N 153.855 -5.6207 0.0580973 0
M  V30 1576 H 146.006 -1.86262 1.02079 0
M  V30 1577 H 148.269 -0.859579 0.399786 0
M  V30 1578 H 147.975 -3.393 0.925669 0
M  V30 1579 H 147.849 -3.68623 -0.799823 0
M  V30 1580 H 150.236 -2.73976 -1.09641 0
M  V30 1581 H 150.317 -2.47377 0.651024 0
M  V30 1582 H 149.961 -4.97436 1.02564 0
M  V30 1583 H 149.891 -5.21399 -0.738297 0
M  V30 1584 H 152.382 -3.77686 -0.127192 0
M  V30 1585 H 152.695 -7.71934 0.365676 0
M  V30 1586 H 151.04 -6.94254 0.32192 0
M  V30 1587 H 154.231 -4.68043 -0.0733204 0
M  V30 1588 H 154.404 -6.47824 0.151203 0
M  V30 1589 N 147.81 0.181792 -1.56548 0
M  V30 1590 C 149.057 0.900097 -1.81396 0
M  V30 1591 C 149.385 1.82695 -0.667281 0
M  V30 1592 O 148.64 1.92614 0.346146 0
M  V30 1593 C 148.939 1.73728 -3.12335 0
M  V30 1594 C 148.605 0.960255 -4.40556 0
M  V30 1595 C 147.267 0.745766 -4.75386 0
M  V30 1596 C 149.619 0.414477 -5.19549 0
M  V30 1597 C 146.947 -0.0257694 -5.86694 0
M  V30 1598 C 149.299 -0.343916 -6.31664 0
M  V30 1599 C 147.963 -0.569301 -6.65068 0
M  V30 1600 H 147.233 0.329369 -0.663775 0
M  V30 1601 H 149.88 0.165647 -1.90782 0
M  V30 1602 H 148.185 2.54081 -2.98245 0
M  V30 1603 H 149.882 2.29591 -3.28769 0
M  V30 1604 H 146.472 1.13746 -4.13231 0
M  V30 1605 H 150.656 0.567554 -4.93044 0
M  V30 1606 H 145.912 -0.210233 -6.11038 0
M  V30 1607 H 150.086 -0.774133 -6.92084 0
M  V30 1608 H 147.713 -1.16903 -7.51158 0
M  V30 1609 N 149.288 1.51039 0.449983 0
M  V30 1610 C 150.699 1.557 1.03026 0
M  V30 1611 C 151.05 0.372939 1.92623 0
M  V30 1612 O 150.175 -0.511771 2.10261 0
M  V30 1613 C 150.77 2.82171 1.87523 0
M  V30 1614 C 149.329 2.89444 2.40622 0
M  V30 1615 C 148.476 2.50228 1.19504 0
M  V30 1616 H 151.427 1.56999 0.231745 0
M  V30 1617 H 151.448 2.65219 2.72835 0
M  V30 1618 H 150.96 3.68331 1.22286 0
M  V30 1619 H 149.061 2.07685 3.0935 0
M  V30 1620 H 149.174 3.92816 2.74285 0
M  V30 1621 H 147.538 2.03139 1.53644 0
M  V30 1622 H 148.321 3.38719 0.558972 0
M  V30 1623 N 150.766 -0.704594 1.40972 0
M  V30 1624 C 151.696 -1.83124 1.44872 0
M  V30 1625 C 152.677 -1.67281 0.30838 0
M  V30 1626 O 153.862 -1.87149 0.518556 0
M  V30 1627 C 150.992 -3.21181 1.32136 0
M  V30 1628 C 149.946 -3.51714 2.43888 0
M  V30 1629 C 149.272 -4.89032 2.16222 0
M  V30 1630 C 150.572 -3.516 3.86232 0
M  V30 1631 H 152.266 -1.80117 2.39161 0
M  V30 1632 H 149.812 -0.865145 1.15114 0
M  V30 1633 H 151.765 -3.99702 1.33479 0
M  V30 1634 H 150.489 -3.24791 0.343279 0
M  V30 1635 H 149.148 -2.75539 2.41813 0
M  V30 1636 H 148.796 -4.89256 1.16778 0
M  V30 1637 H 148.496 -5.10426 2.911 0
M  V30 1638 H 150.02 -5.69873 2.19265 0
M  V30 1639 H 151.434 -4.2014 3.9007 0
M  V30 1640 H 149.831 -3.84523 4.60719 0
M  V30 1641 H 150.901 -2.50757 4.15029 0
M  V30 1642 N 152.244 -1.26651 -0.937939 0
M  V30 1643 C 153.174 -1.10993 -2.05433 0
M  V30 1644 C 154.155 -0.0142161 -1.70094 0
M  V30 1645 O 155.34 -0.186837 -1.93299 0
M  V30 1646 C 152.47 -0.745561 -3.39203 0
M  V30 1647 C 151.424 -1.79337 -3.88616 0
M  V30 1648 C 150.75 -1.28324 -5.19073 0
M  V30 1649 C 152.05 -3.19553 -4.13138 0
M  V30 1650 H 153.744 -2.0438 -2.1879 0
M  V30 1651 H 151.29 -0.984041 -1.05131 0
M  V30 1652 H 153.243 -0.622888 -4.16771 0
M  V30 1653 H 151.967 0.22401 -3.25831 0
M  V30 1654 H 150.626 -1.90477 -3.13231 0
M  V30 1655 H 150.274 -0.303414 -5.02084 0
M  V30 1656 H 149.974 -1.98369 -5.53103 0
M  V30 1657 H 151.498 -1.1733 -5.99221 0
M  V30 1658 H 152.912 -3.11471 -4.81309 0
M  V30 1659 H 151.309 -3.87218 -4.58457 0
M  V30 1660 H 152.379 -3.65368 -3.18801 0
M  V30 1661 N 153.722 1.14298 -1.08507 0
M  V30 1662 C 154.999 1.81544 -0.728088 0
M  V30 1663 C 155.379 1.95838 0.78808 0
M  V30 1664 O 154.727 1.51904 1.70697 0
M  V30 1665 C 154.937 3.17169 -1.45619 0
M  V30 1666 C 156.285 3.9265 -1.61591 0
M  V30 1667 O 157.309 3.26762 -1.41793 0
M  V30 1668 O 156.168 5.10807 -1.94263 0
M  V30 1669 H 153.262 0.78491 -0.260471 0
M  V30 1670 H 155.808 1.21307 -1.18671 0
M  V30 1671 H 154.58 3.01934 -2.489 0
M  V30 1672 H 154.203 3.851 -0.989124 0
M  V30 1673 N 155.201 0.870884 1.31352 0
M  V30 1674 C 156.164 0.332243 2.26779 0
M  V30 1675 C 157.164 -0.517302 1.52252 0
M  V30 1676 O 158.354 -0.326477 1.71113 0
M  V30 1677 C 155.486 -0.528066 3.36785 0
M  V30 1678 H 156.679 1.17469 2.75937 0
M  V30 1679 H 154.232 0.64655 1.423 0
M  V30 1680 H 154.967 -1.39167 2.92922 0
M  V30 1681 H 154.752 0.0802582 3.92018 0
M  V30 1682 H 156.242 -0.897179 4.07849 0
M  V30 1683 N 156.679 -1.44442 0.630414 0
M  V30 1684 C 157.609 -2.33418 -0.0618083 0
M  V30 1685 C 158.59 -1.48165 -0.835541 0
M  V30 1686 O 159.775 -1.76886 -0.801564 0
M  V30 1687 C 156.905 -3.31222 -1.04449 0
M  V30 1688 C 155.859 -4.26288 -0.382436 0
M  V30 1689 C 155.185 -5.13954 -1.47497 0
M  V30 1690 C 156.485 -5.1744 0.710865 0
M  V30 1691 H 158.179 -2.91548 0.681184 0
M  V30 1692 H 155.725 -1.40191 0.329026 0
M  V30 1693 H 157.678 -3.92351 -1.53748 0
M  V30 1694 H 156.402 -2.71299 -1.81836 0
M  V30 1695 H 155.061 -3.6649 0.0899054 0
M  V30 1696 H 154.709 -4.50385 -2.2397 0
M  V30 1697 H 154.409 -5.7837 -1.03737 0
M  V30 1698 H 155.933 -5.77955 -1.96979 0
M  V30 1699 H 157.347 -5.72509 0.300996 0
M  V30 1700 H 155.744 -5.90455 1.07156 0
M  V30 1701 H 156.814 -4.58496 1.57829 0
M  V30 1702 N 158.157 -0.370918 -1.53173 0
M  V30 1703 C 159.573 -0.0200818 -1.59587 0
M  V30 1704 C 159.773 1.46279 -1.38581 0
M  V30 1705 O 158.829 2.22506 -1.19363 0
M  V30 1706 C 160.142 -0.4808 -2.96831 0
M  V30 1707 C 161.69 -0.435477 -3.09956 0
M  V30 1708 C 162.165 -0.872092 -4.4962 0
M  V30 1709 N 163.656 -0.827364 -4.55751 0
M  V30 1710 C 164.391 -1.13683 -5.62018 0
M  V30 1711 N 163.887 -1.51584 -6.76014 0
M  V30 1712 N 165.68 -1.05927 -5.52029 0
M  V30 1713 H 157.831 -1.33652 -1.65079 0
M  V30 1714 H 160.094 -0.546634 -0.774529 0
M  V30 1715 H 159.8 -1.51577 -3.1736 0
M  V30 1716 H 159.674 0.129796 -3.76977 0
M  V30 1717 H 162.061 0.590371 -2.89134 0
M  V30 1718 H 162.142 -1.08164 -2.31806 0
M  V30 1719 H 161.786 -1.89608 -4.71181 0
M  V30 1720 H 161.716 -0.203127 -5.26208 0
M  V30 1721 H 164.207 -0.548216 -3.73902 0
M  V30 1722 H 164.52 -1.73609 -7.53047 0
M  V30 1723 H 162.865 -1.55454 -6.77391 0
M  V30 1724 H 166.056 -0.762321 -4.61851 0
M  V30 1725 H 166.229 -1.30378 -6.34749 0
M  V30 1726 N 159.635 1.57281 -0.100228 0
M  V30 1727 C 161.046 1.81725 0.428107 0
M  V30 1728 C 161.397 1.01619 1.67833 0
M  V30 1729 O 160.522 0.247098 2.14985 0
M  V30 1730 C 161.117 3.29617 0.78347 0
M  V30 1731 C 159.676 3.54808 1.25653 0
M  V30 1732 C 158.823 2.76118 0.255752 0
M  V30 1733 H 161.774 1.55324 -0.325608 0
M  V30 1734 H 161.795 3.4322 1.64256 0
M  V30 1735 H 161.307 3.87893 -0.12665 0
M  V30 1736 H 159.408 3.01868 2.18418 0
M  V30 1737 H 159.521 4.63443 1.21482 0
M  V30 1738 H 157.885 2.43745 0.738956 0
M  V30 1739 H 158.668 3.37145 -0.647136 0
M  V30 1740 N 161.113 -0.173488 1.56642 0
M  V30 1741 C 162.043 -1.2171 1.99271 0
M  V30 1742 C 163.024 -1.46289 0.867959 0
M  V30 1743 O 164.209 -1.5766 1.13388 0
M  V30 1744 C 161.339 -2.55651 2.35074 0
M  V30 1745 C 160.293 -2.45645 3.50489 0
M  V30 1746 C 159.619 -3.84056 3.72028 0
M  V30 1747 C 160.919 -1.96302 4.84007 0
M  V30 1748 H 162.613 -0.86275 2.867 0
M  V30 1749 H 160.159 -0.413571 1.37933 0
M  V30 1750 H 162.112 -3.2886 2.63494 0
M  V30 1751 H 160.836 -2.92869 1.44552 0
M  V30 1752 H 159.495 -1.7489 3.22194 0
M  V30 1753 H 159.143 -4.18664 2.788 0
M  V30 1754 H 158.843 -3.7823 4.49684 0
M  V30 1755 H 160.367 -4.58854 4.02846 0
M  V30 1756 H 161.781 -2.59284 5.11317 0
M  V30 1757 H 160.178 -2.01429 5.65284 0
M  V30 1758 H 161.248 -0.917226 4.76146 0
M  V30 1759 N 162.591 -1.51276 -0.441967 0
M  V30 1760 C 164.002 -1.56244 -1.02199 0
M  V30 1761 C 164.353 -0.383149 -1.92422 0
M  V30 1762 O 163.478 0.500613 -2.1053 0
M  V30 1763 C 164.073 -2.83162 -1.86024 0
M  V30 1764 C 162.632 -2.90716 -2.39084 0
M  V30 1765 C 161.779 -2.50858 -1.18175 0
M  V30 1766 H 164.73 -1.5712 -0.223416 0
M  V30 1767 H 164.751 -2.66663 -2.71425 0
M  V30 1768 H 164.263 -3.68974 -1.20331 0
M  V30 1769 H 162.364 -2.09323 -3.08244 0
M  V30 1770 H 162.477 -3.94266 -2.72198 0
M  V30 1771 H 160.841 -2.03951 -1.52565 0
M  V30 1772 H 161.624 -3.3901 -0.541001 0
M  V30 1773 N 164.069 0.697108 -1.41344 0
M  V30 1774 C 164.999 1.82353 -1.45841 0
M  V30 1775 C 165.98 1.67115 -0.317247 0
M  V30 1776 O 167.165 1.86871 -0.528474 0
M  V30 1777 C 164.295 3.20476 -1.33838 0
M  V30 1778 C 163.249 3.50415 -2.4575 0
M  V30 1779 C 162.575 4.87878 -2.18813 0
M  V30 1780 C 163.875 3.49546 -3.88091 0
M  V30 1781 H 165.569 1.78846 -2.40113 0
M  V30 1782 H 163.115 0.859028 -1.15571 0
M  V30 1783 H 165.068 3.98988 -1.35596 0
M  V30 1784 H 163.792 3.24604 -0.360498 0
M  V30 1785 H 162.451 2.74253 -2.43271 0
M  V30 1786 H 162.099 4.8863 -1.19371 0
M  V30 1787 H 161.799 5.08875 -2.93803 0
M  V30 1788 H 163.323 5.68702 -2.22284 0
M  V30 1789 H 164.737 4.18066 -3.92293 0
M  V30 1790 H 163.134 3.82075 -4.62751 0
M  V30 1791 H 164.204 2.48552 -4.16353 0
M  V30 1792 N 165.547 1.27147 0.931209 0
M  V30 1793 C 166.824 1.0401 1.65654 0
M  V30 1794 C 167.204 -0.426297 2.06751 0
M  V30 1795 O 166.552 -1.40879 1.79904 0
M  V30 1796 C 166.762 1.99834 2.86125 0
M  V30 1797 C 168.11 2.29007 3.57549 0
M  V30 1798 O 169.134 1.97779 2.96246 0
M  V30 1799 O 167.993 2.82222 4.67989 0
M  V30 1800 H 165.087 0.396239 0.725895 0
M  V30 1801 H 167.633 1.38397 0.982056 0
M  V30 1802 H 166.405 2.98744 2.52721 0
M  V30 1803 H 166.028 1.65987 3.61295 0
M  V30 1804 N 167.025 -1.13721 1.09112 0
M  V30 1805 C 168.271 -1.85413 0.836283 0
M  V30 1806 C 168.626 -1.8175 -0.631249 0
M  V30 1807 O 167.919 -1.24238 -1.45861 0
M  V30 1808 C 168.113 -3.32861 1.30146 0
M  V30 1809 C 167.942 -3.50882 2.81268 0
M  V30 1810 C 166.712 -3.65312 3.49106 0
M  V30 1811 C 168.91 -3.47196 3.7942 0
M  V30 1812 N 166.892 -3.71563 4.88686 0
M  V30 1813 C 168.263 -3.59777 5.04936 0
M  V30 1814 C 170.318 -3.30577 3.72321 0
M  V30 1815 C 169.021 -3.57455 6.24194 0
M  V30 1816 C 171.047 -3.29562 4.91063 0
M  V30 1817 C 170.409 -3.42691 6.15421 0
M  V30 1818 H 166.508 -0.694812 0.358832 0
M  V30 1819 H 169.092 -1.36246 1.39087 0
M  V30 1820 H 167.263 -3.80602 0.774361 0
M  V30 1821 H 168.995 -3.92346 0.99229 0
M  V30 1822 H 165.75 -3.6685 2.9953 0
M  V30 1823 H 166.174 -3.78387 5.61384 0
M  V30 1824 H 170.816 -3.19332 2.77105 0
M  V30 1825 H 168.534 -3.67475 7.19714 0
M  V30 1826 H 172.12 -3.17905 4.87266 0
M  V30 1827 H 171 -3.41862 7.05762 0
M  V30 1828 N 168.503 -0.877838 -1.30888 0
M  V30 1829 C 169.436 -0.283995 -2.26426 0
M  V30 1830 C 170.414 0.591361 -1.51465 0
M  V30 1831 O 171.598 0.54304 -1.80509 0
M  V30 1832 C 168.725 0.597129 -3.33395 0
M  V30 1833 C 167.771 -0.207937 -4.25993 0
M  V30 1834 S 168.604 -1.59158 -5.11301 0
M  V30 1835 C 169.76 -0.716791 -6.21782 0
M  V30 1836 H 169.993 -1.09383 -2.76446 0
M  V30 1837 H 167.526 -0.676828 -1.38775 0
M  V30 1838 H 169.484 1.09978 -3.95493 0
M  V30 1839 H 168.145 1.38099 -2.82113 0
M  V30 1840 H 167.338 0.464163 -5.01858 0
M  V30 1841 H 166.94 -0.642963 -3.68432 0
M  V30 1842 H 169.232 0.0692833 -6.77465 0
M  V30 1843 H 170.175 -1.44682 -6.93161 0
M  V30 1844 H 170.583 -0.280855 -5.63801 0
M  V30 1845 N 169.982 1.44106 -0.638065 0
M  V30 1846 C 171.212 2.06037 -0.152394 0
M  V30 1847 C 171.62 1.47808 1.18108 0
M  V30 1848 O 170.963 0.598092 1.73691 0
M  V30 1849 C 171.025 3.59488 0.0293714 0
M  V30 1850 C 170.689 4.4022 -1.22702 0
M  V30 1851 C 171.686 4.73256 -2.15232 0
M  V30 1852 C 169.371 4.8048 -1.46437 0
M  V30 1853 C 171.365 5.45444 -3.29802 0
M  V30 1854 C 169.052 5.52417 -2.61303 0
M  V30 1855 C 170.05 5.84819 -3.52811 0
M  V30 1856 O 169.738 6.55289 -4.65673 0
M  V30 1857 H 169.47 0.671233 -0.0801401 0
M  V30 1858 H 172.024 1.85851 -0.874563 0
M  V30 1859 H 170.254 3.78191 0.806758 0
M  V30 1860 H 171.943 4.03164 0.470475 0
M  V30 1861 H 172.709 4.42684 -1.98131 0
M  V30 1862 H 168.588 4.54676 -0.760977 0
M  V30 1863 H 172.132 5.70653 -4.01249 0
M  V30 1864 H 168.029 5.82404 -2.78344 0
M  V30 1865 H 168.797 6.73762 -4.64744 0
M  V30 1866 N 171.46 0.379036 1.52974 0
M  V30 1867 C 172.39 -0.452706 2.29069 0
M  V30 1868 C 173.371 -1.07237 1.32039 0
M  V30 1869 O 174.556 -1.08708 1.60923 0
M  V30 1870 C 171.686 -1.5856 3.08992 0
M  V30 1871 C 170.64 -1.0925 4.13822 0
M  V30 1872 C 169.966 -2.31668 4.81907 0
M  V30 1873 C 171.266 -0.167702 5.22031 0
M  V30 1874 H 172.96 0.182181 2.98845 0
M  V30 1875 H 170.506 0.0890592 1.43724 0
M  V30 1876 H 172.459 -2.1742 3.6098 0
M  V30 1877 H 171.183 -2.24792 2.36931 0
M  V30 1878 H 169.842 -0.526494 3.628 0
M  V30 1879 H 169.49 -2.96386 4.06404 0
M  V30 1880 H 169.19 -1.9934 5.52754 0
M  V30 1881 H 170.714 -2.91189 5.36695 0
M  V30 1882 H 172.128 -0.664186 5.6944 0
M  V30 1883 H 170.525 0.0653265 6.00064 0
M  V30 1884 H 171.595 0.786347 4.78482 0
M  V30 1885 N 172.938 -1.57226 0.108567 0
M  V30 1886 C 174.184 -1.95121 -0.552761 0
M  V30 1887 C 174.517 -0.991345 -1.66991 0
M  V30 1888 O 173.792 -0.0267211 -1.94482 0
M  V30 1889 C 174.075 -3.43039 -1.09528 0
M  V30 1890 C 173.928 -4.49797 0.0177332 0
M  V30 1891 C 175.247 -3.92567 -1.98945 0
M  V30 1892 H 172.366 -0.709496 -0.199461 0
M  V30 1893 H 175.008 -1.89126 0.182011 0
M  V30 1894 H 173.158 -3.48279 -1.72146 0
M  V30 1895 H 174.83 -4.56661 0.652584 0
M  V30 1896 H 173.073 -4.284 0.682309 0
M  V30 1897 H 173.744 -5.50528 -0.402919 0
M  V30 1898 H 176.22 -3.89565 -1.46214 0
M  V30 1899 H 175.096 -4.96605 -2.33827 0
M  V30 1900 H 175.357 -3.32648 -2.91201 0
M  V30 1901 N 174.416 0.165178 -1.56732 0
M  V30 1902 C 175.646 0.894919 -1.86212 0
M  V30 1903 C 176.054 1.76066 -0.692627 0
M  V30 1904 O 175.397 1.80387 0.347303 0
M  V30 1905 C 175.459 1.8174 -3.10179 0
M  V30 1906 C 175.123 1.13064 -4.42793 0
M  V30 1907 C 176.12 0.493169 -5.17556 0
M  V30 1908 C 173.805 1.12556 -4.89527 0
M  V30 1909 C 175.799 -0.140209 -6.37246 0
M  V30 1910 C 173.486 0.488366 -6.09145 0
M  V30 1911 C 174.484 -0.143411 -6.82849 0
M  V30 1912 O 174.172 -0.77055 -8.00199 0
M  V30 1913 H 173.904 0.265114 -0.621844 0
M  V30 1914 H 176.458 0.168242 -2.0471 0
M  V30 1915 H 174.688 2.58455 -2.87642 0
M  V30 1916 H 176.377 2.4175 -3.26055 0
M  V30 1917 H 177.143 0.489023 -4.82528 0
M  V30 1918 H 173.022 1.60672 -4.32094 0
M  V30 1919 H 176.566 -0.633932 -6.94714 0
M  V30 1920 H 172.463 0.490116 -6.43637 0
M  V30 1921 H 173.231 -0.670408 -8.1575 0
M  V30 1922 N 175.894 1.51508 0.433938 0
M  V30 1923 C 177.122 1.68157 1.20543 0
M  V30 1924 C 177.537 0.380362 1.84929 0
M  V30 1925 O 176.894 -0.641446 1.70856 0
M  V30 1926 C 176.945 2.79965 2.28696 0
M  V30 1927 O 176.666 4.05045 1.66943 0
M  V30 1928 C 178.167 3.07912 3.18912 0
M  V30 1929 H 175.387 0.56421 0.363191 0
M  V30 1930 H 177.931 1.97941 0.513754 0
M  V30 1931 H 176.086 2.5277 2.93574 0
M  V30 1932 H 176.5 4.67165 2.38448 0
M  V30 1933 H 177.974 3.89719 3.90926 0
M  V30 1934 H 178.451 2.20456 3.79863 0
M  V30 1935 H 179.057 3.36779 2.59731 0
M  V30 1936 N 177.372 -0.689602 1.41712 0
M  V30 1937 C 178.621 -1.44534 1.40686 0
M  V30 1938 C 178.934 -1.95588 0.0213352 0
M  V30 1939 O 180.14 -2.71271 -0.111534 0
M  V30 1940 C 178.596 -2.61387 2.47396 0
M  V30 1941 C 178.204 -2.17094 3.91885 0
M  V30 1942 C 179.948 -3.38986 2.55517 0
M  V30 1943 C 177.855 -3.3094 4.90135 0
M  V30 1944 H 176.785 -0.542925 0.52321 0
M  V30 1945 H 179.436 -0.748054 1.6756 0
M  V30 1946 H 177.818 -3.33412 2.13664 0
M  V30 1947 H 178.992 -1.52318 4.34897 0
M  V30 1948 H 177.307 -1.52473 3.8748 0
M  V30 1949 H 179.904 -4.23747 3.26102 0
M  V30 1950 H 180.247 -3.84578 1.59391 0
M  V30 1951 H 180.78 -2.74021 2.8837 0
M  V30 1952 H 177.519 -2.90355 5.87685 0
M  V30 1953 H 177.039 -3.94546 4.51767 0
M  V30 1954 H 178.718 -3.9663 5.11169 0
M  V30 1955 N 178.85 -1.27639 -0.924453 0
M  V30 1956 C 179.783 -1.04966 -2.02626 0
M  V30 1957 C 180.761 0.0309505 -1.62571 0
M  V30 1958 O 181.945 -0.114846 -1.8815 0
M  V30 1959 C 179.072 -0.59292 -3.3347 0
M  V30 1960 C 178.118 -1.66858 -3.92506 0
M  V30 1961 S 178.951 -3.2619 -4.24689 0
M  V30 1962 C 180.107 -2.82325 -5.58609 0
M  V30 1963 H 180.34 -1.98252 -2.21547 0
M  V30 1964 H 177.873 -1.11506 -1.06798 0
M  V30 1965 H 179.831 -0.336086 -4.09122 0
M  V30 1966 H 178.492 0.319939 -3.12466 0
M  V30 1967 H 177.685 -1.30038 -4.86935 0
M  V30 1968 H 177.287 -1.87766 -3.2345 0
M  V30 1969 H 179.579 -2.2783 -6.38044 0
M  V30 1970 H 180.522 -3.75511 -6.00331 0
M  V30 1971 H 180.93 -2.21367 -5.19285 0
M  V30 1972 N 180.328 1.1314 -1.09713 0
M  V30 1973 C 181.575 1.84484 -0.834987 0
M  V30 1974 C 181.903 1.83689 0.639418 0
M  V30 1975 O 181.158 1.2724 1.4869 0
M  V30 1976 C 181.457 3.32167 -1.3191 0
M  V30 1977 C 181.123 3.53139 -2.80363 0
M  V30 1978 C 179.785 3.58571 -3.20905 0
M  V30 1979 C 182.137 3.60866 -3.76065 0
M  V30 1980 C 179.465 3.69267 -4.55916 0
M  V30 1981 C 181.817 3.73089 -5.10869 0
M  V30 1982 C 180.481 3.76775 -5.50996 0
M  V30 1983 H 179.751 0.675073 -0.305544 0
M  V30 1984 H 182.398 1.33554 -1.37243 0
M  V30 1985 H 180.703 3.85469 -0.701517 0
M  V30 1986 H 182.4 3.85821 -1.09284 0
M  V30 1987 H 178.99 3.49569 -2.47991 0
M  V30 1988 H 183.174 3.55946 -3.45855 0
M  V30 1989 H 178.43 3.70388 -4.86438 0
M  V30 1990 H 182.604 3.78011 -5.84877 0
M  V30 1991 H 180.231 3.84815 -6.55608 0
M  V30 1992 N 181.806 0.884767 1.30421 0
M  V30 1993 C 182.736 0.367574 2.30589 0
M  V30 1994 C 183.717 -0.549464 1.60981 0
M  V30 1995 O 184.902 -0.46336 1.88591 0
M  V30 1996 C 182.032 -0.418944 3.44764 0
M  V30 1997 C 180.986 0.406316 4.26067 0
M  V30 1998 C 180.312 -0.506793 5.32293 0
M  V30 1999 C 181.612 1.64832 4.95608 0
M  V30 2000 H 183.306 1.20462 2.74097 0
M  V30 2001 H 180.852 0.580695 1.31772 0
M  V30 2002 H 182.805 -0.791395 4.13902 0
M  V30 2003 H 181.529 -1.28964 3.0006 0
M  V30 2004 H 180.188 0.760903 3.58617 0
M  V30 2005 H 179.836 -1.37519 4.83836 0
M  V30 2006 H 179.536 0.0415828 5.87585 0
M  V30 2007 H 181.06 -0.875764 6.04287 0
M  V30 2008 H 182.474 1.34646 5.57264 0
M  V30 2009 H 180.871 2.13688 5.60765 0
M  V30 2010 H 181.941 2.39284 4.21748 0
M  V30 2011 N 183.284 -1.43765 0.645699 0
M  V30 2012 C 184.532 -2.01499 0.155731 0
M  V30 2013 C 184.853 -1.51151 -1.232 0
M  V30 2014 O 184.123 -0.721044 -1.82148 0
M  V30 2015 H 182.703 -0.745003 0.0545817 0
M  V30 2016 H 185.365 -1.76075 0.835677 0
M  V30 2017 H 184.461 -3.1181 0.134577 0
M  V30 2018 N 184.763 -0.387143 -1.52771 0
M  V30 2019 C 185.726 0.436939 -2.24997 0
M  V30 2020 C 186.726 0.991991 -1.26555 0
M  V30 2021 O 187.916 0.874335 -1.50669 0
M  V30 2022 C 185.048 1.61281 -3.00335 0
M  V30 2023 H 186.241 -0.195365 -2.99263 0
M  V30 2024 H 183.794 -0.139218 -1.55679 0
M  V30 2025 H 184.529 2.2826 -2.30364 0
M  V30 2026 H 184.314 1.22154 -3.72587 0
M  V30 2027 H 185.804 2.19629 -3.5518 0
M  V30 2028 N 186.241 1.57166 -0.116904 0
M  V30 2029 C 187.171 2.18222 0.830759 0
M  V30 2030 C 188.152 1.12167 1.27877 0
M  V30 2031 O 189.337 1.40394 1.34176 0
M  V30 2032 C 186.467 2.77996 2.08172 0
M  V30 2033 C 185.421 3.89614 1.77157 0
M  V30 2034 C 184.747 4.36187 3.09265 0
M  V30 2035 C 186.047 5.1181 1.04151 0
M  V30 2036 H 187.741 2.97664 0.321992 0
M  V30 2037 H 185.287 1.4318 0.153434 0
M  V30 2038 H 187.24 3.19366 2.74924 0
M  V30 2039 H 185.964 1.9584 2.6137 0
M  V30 2040 H 184.623 3.48816 1.12796 0
M  V30 2041 H 184.271 3.50893 3.60393 0
M  V30 2042 H 183.971 5.11455 2.89288 0
M  V30 2043 H 185.495 4.80207 3.77139 0
M  V30 2044 H 186.909 5.50214 1.61052 0
M  V30 2045 H 185.306 5.92648 0.942762 0
M  V30 2046 H 186.376 4.84892 0.0279022 0
M  V30 2047 N 187.719 -0.156864 1.56817 0
M  V30 2048 C 188.967 -0.869404 1.82444 0
M  V30 2049 C 189.288 -1.82147 0.69623 0
M  V30 2050 O 188.558 -1.93847 -0.28287 0
M  V30 2051 H 187.138 -0.324043 0.673056 0
M  V30 2052 H 189.8 -0.153224 1.94297 0
M  V30 2053 H 188.896 -1.43761 2.77019 0
M  V30 2054 N 189.197 -1.51736 -0.425897 0
M  V30 2055 C 190.13 -1.68574 -1.53812 0
M  V30 2056 C 191.108 -0.53328 -1.53606 0
M  V30 2057 O 192.292 -0.758555 -1.72564 0
M  V30 2058 C 189.419 -1.70977 -2.92377 0
M  V30 2059 C 188.465 -2.92324 -3.10563 0
M  V30 2060 S 189.298 -4.52952 -2.85648 0
M  V30 2061 C 190.454 -4.58117 -4.26474 0
M  V30 2062 H 190.687 -2.62647 -1.39298 0
M  V30 2063 H 188.22 -1.41564 -0.616361 0
M  V30 2064 H 190.178 -1.73047 -3.72243 0
M  V30 2065 H 188.839 -0.78061 -3.04245 0
M  V30 2066 H 188.032 -2.90439 -4.11899 0
M  V30 2067 H 187.634 -2.88055 -2.38538 0
M  V30 2068 H 189.926 -4.34462 -5.19855 0
M  V30 2069 H 190.869 -5.59983 -4.33388 0
M  V30 2070 H 191.277 -3.8732 -4.10662 0
M  V30 2071 N 190.675 0.682077 -1.42076 0
M  V30 2072 C 191.608 1.80666 -1.3941 0
M  V30 2073 C 192.586 1.60518 -0.25939 0
M  V30 2074 O 193.77 1.83088 -0.448456 0
M  V30 2075 C 190.897 3.17556 -1.17796 0
M  V30 2076 C 189.943 3.56468 -2.34164 0
M  V30 2077 S 190.776 3.59729 -3.96681 0
M  V30 2078 C 191.932 4.99323 -3.77395 0
M  V30 2079 H 192.165 1.82652 -2.34575 0
M  V30 2080 H 189.698 0.852062 -1.2876 0
M  V30 2081 H 191.656 3.96575 -1.06012 0
M  V30 2082 H 190.317 3.13164 -0.242279 0
M  V30 2083 H 189.51 4.5595 -2.1477 0
M  V30 2084 H 189.112 2.84792 -2.42425 0
M  V30 2085 H 191.404 5.87202 -3.37935 0
M  V30 2086 H 192.347 5.23763 -4.76527 0
M  V30 2087 H 192.755 4.71498 -3.10403 0
M  V30 2088 N 192.153 1.28127 0.917671 0
M  V30 2089 C 193.083 1.14248 2.03641 0
M  V30 2090 C 194.064 0.0412748 1.7005 0
M  V30 2091 O 195.249 0.217566 1.92977 0
M  V30 2092 C 192.379 0.799431 3.37974 0
M  V30 2093 C 191.333 1.85497 3.85713 0
M  V30 2094 C 190.659 1.36565 5.16966 0
M  V30 2095 C 191.959 3.26085 4.08002 0
M  V30 2096 H 193.653 2.07835 2.15511 0
M  V30 2097 H 191.199 1.00064 1.03553 0
M  V30 2098 H 193.152 0.689114 4.15727 0
M  V30 2099 H 191.876 -0.172145 3.26146 0
M  V30 2100 H 190.535 1.95437 3.10161 0
M  V30 2101 H 190.183 0.383253 5.01538 0
M  V30 2102 H 189.883 2.07143 5.49878 0
M  V30 2103 H 191.407 1.26848 5.97279 0
M  V30 2104 H 192.821 3.19089 4.76293 0
M  V30 2105 H 191.218 3.94462 4.52238 0
M  V30 2106 H 192.288 3.70394 3.12948 0
M  V30 2107 N 193.631 -1.12557 1.10312 0
M  V30 2108 C 194.879 -1.83675 0.843091 0
M  V30 2109 C 195.2 -1.84435 -0.633131 0
M  V30 2110 O 194.47 -1.30657 -1.45964 0
M  V30 2111 H 193.05 -0.680138 0.308904 0
M  V30 2112 H 195.712 -1.36301 1.39313 0
M  V30 2113 H 194.808 -2.87908 1.2048 0
M  V30 2114 N 195.109 -0.891671 -1.2995 0
M  V30 2115 C 196.039 -0.379797 -2.30391 0
M  V30 2116 C 197.02 0.540919 -1.6127 0
M  V30 2117 O 198.205 0.453352 -1.88834 0
M  V30 2118 C 195.335 0.400654 -3.44981 0
M  V30 2119 C 194.289 -0.428905 -4.25846 0
M  V30 2120 C 193.615 0.478557 -5.32554 0
M  V30 2121 C 194.915 -1.67458 -4.94727 0
M  V30 2122 H 196.609 -1.21914 -2.73454 0
M  V30 2123 H 194.155 -0.587675 -1.31462 0
M  V30 2124 H 196.108 0.769434 -4.14316 0
M  V30 2125 H 194.832 1.27371 -3.0074 0
M  V30 2126 H 193.491 -0.779911 -3.58208 0
M  V30 2127 H 193.139 1.34951 -4.84559 0
M  V30 2128 H 192.839 -0.0727433 -5.87555 0
M  V30 2129 H 194.363 0.843705 -6.04743 0
M  V30 2130 H 195.777 -1.376 -5.56542 0
M  V30 2131 H 194.174 -2.16659 -5.59624 0
M  V30 2132 H 195.244 -2.41518 -4.20473 0
M  V30 2133 N 196.587 1.43421 -0.653314 0
M  V30 2134 C 197.827 2.03689 -0.170346 0
M  V30 2135 C 198.191 1.50427 1.19314 0
M  V30 2136 O 199.392 2.0234 1.76952 0
M  V30 2137 C 197.663 3.56946 -0.180183 0
M  V30 2138 S 199.222 4.38171 0.234925 0
M  V30 2139 H 196.04 0.707345 -0.0719976 0
M  V30 2140 H 198.642 1.75486 -0.86167 0
M  V30 2141 H 197.346 3.93212 -1.17526 0
M  V30 2142 H 196.877 3.89791 0.531675 0
M  V30 2143 H 198.892 4.73808 1.47378 0
M  V30 2144 N 198.065 0.39524 1.52563 0
M  V30 2145 C 199.295 -0.184675 2.05773 0
M  V30 2146 C 199.703 -1.40571 1.26635 0
M  V30 2147 O 199.046 -1.81105 0.30769 0
M  V30 2148 C 199.108 -0.613551 3.54226 0
M  V30 2149 C 198.772 0.49484 4.54313 0
M  V30 2150 C 199.769 1.3541 5.01956 0
M  V30 2151 C 197.454 0.663565 4.97898 0
M  V30 2152 C 199.448 2.36716 5.91814 0
M  V30 2153 C 197.135 1.67996 5.87555 0
M  V30 2154 C 198.133 2.53017 6.34406 0
M  V30 2155 O 197.821 3.52917 7.22291 0
M  V30 2156 H 197.553 -0.030077 0.675331 0
M  V30 2157 H 200.107 0.560708 1.97599 0
M  V30 2158 H 198.337 -1.411 3.60038 0
M  V30 2159 H 200.026 -1.11981 3.90148 0
M  V30 2160 H 200.792 1.23509 4.6901 0
M  V30 2161 H 196.671 0.0114913 4.60999 0
M  V30 2162 H 200.215 3.03113 6.28306 0
M  V30 2163 H 196.112 1.79933 6.19915 0
M  V30 2164 H 196.88 3.48996 7.40367 0
M  V30 2165 N 199.544 -1.57102 0.125237 0
M  V30 2166 C 200.96 -1.57915 -0.231322 0
M  V30 2167 C 201.16 -1.13833 -1.66266 0
M  V30 2168 O 200.216 -0.828581 -2.38518 0
M  V30 2169 C 201.529 -3.00699 0.00766489 0
M  V30 2170 C 203.077 -3.12947 -0.0577483 0
M  V30 2171 C 203.552 -4.57742 0.153626 0
M  V30 2172 N 205.043 -4.63092 0.0998073 0
M  V30 2173 C 205.778 -5.72905 0.238174 0
M  V30 2174 N 205.274 -6.91445 0.433057 0
M  V30 2175 N 207.067 -5.6182 0.177308 0
M  V30 2176 H 199.218 -1.84055 1.06007 0
M  V30 2177 H 201.481 -0.850905 0.417929 0
M  V30 2178 H 201.187 -3.3726 0.997431 0
M  V30 2179 H 201.061 -3.70236 -0.721452 0
M  V30 2180 H 203.448 -2.7624 -1.03804 0
M  V30 2181 H 203.529 -2.4594 0.70335 0
M  V30 2182 H 203.173 -4.95149 1.13092 0
M  V30 2183 H 203.103 -5.22848 -0.627534 0
M  V30 2184 H 205.594 -3.77871 -0.047051 0
M  V30 2185 H 205.907 -7.70985 0.529332 0
M  V30 2186 H 204.252 -6.93415 0.469109 0
M  V30 2187 H 207.443 -4.68093 0.0259748 0
M  V30 2188 H 207.616 -6.47357 0.288582 0
M  V30 2189 N 201.022 0.148545 -1.56898 0
M  V30 2190 C 202.271 0.85984 -1.82454 0
M  V30 2191 C 202.584 1.82406 -0.706229 0
M  V30 2192 O 203.79 2.57938 -0.847349 0
M  V30 2193 C 202.246 1.57967 -3.2338 0
M  V30 2194 C 201.854 0.65794 -4.43142 0
M  V30 2195 C 203.598 2.27784 -3.58211 0
M  V30 2196 C 201.505 1.3793 -5.75091 0
M  V30 2197 H 200.435 0.324834 -0.68044 0
M  V30 2198 H 203.086 0.112588 -1.83154 0
M  V30 2199 H 201.468 2.37249 -3.17063 0
M  V30 2200 H 202.642 -0.0995497 -4.60692 0
M  V30 2201 H 200.957 0.0682643 -4.16344 0
M  V30 2202 H 203.554 2.8239 -4.54048 0
M  V30 2203 H 203.897 3.04204 -2.84193 0
M  V30 2204 H 204.43 1.55421 -3.66182 0
M  V30 2205 H 201.169 0.656982 -6.52199 0
M  V30 2206 H 200.689 2.10954 -5.61479 0
M  V30 2207 H 202.368 1.92063 -6.17835 0
M  V30 2208 N 202.5 1.5196 0.417844 0
M  V30 2209 C 203.725 1.69717 1.1921 0
M  V30 2210 C 204.15 0.402148 1.83751 0
M  V30 2211 O 203.508 -0.639593 1.69643 0
M  V30 2212 C 203.556 2.82794 2.2374 0
M  V30 2213 O 202.66 2.47756 3.29683 0
M  V30 2214 H 202.001 0.565263 0.348387 0
M  V30 2215 H 204.531 1.98621 0.490985 0
M  V30 2216 H 204.541 3.07452 2.68212 0
M  V30 2217 H 203.216 3.76756 1.76146 0
M  V30 2218 H 201.793 2.33739 2.90552 0
M  V30 2219 N 203.978 -0.674533 1.42435 0
M  V30 2220 C 205.218 -1.4466 1.44405 0
M  V30 2221 C 205.582 -1.91911 0.0585784 0
M  V30 2222 O 206.783 -2.68759 -0.0469991 0
M  V30 2223 C 205.054 -2.61136 2.44013 0
M  V30 2224 S 206.613 -3.49981 2.64687 0
M  V30 2225 H 203.431 -0.494074 0.511284 0
M  V30 2226 H 206.033 -0.785162 1.7904 0
M  V30 2227 H 204.737 -2.24662 3.43446 0
M  V30 2228 H 204.268 -3.32153 2.10803 0
M  V30 2229 H 206.283 -4.57124 1.93007 0
M  V30 2230 N 205.456 -1.28612 -0.910864 0
M  V30 2231 C 206.702 -1.16106 -1.66274 0
M  V30 2232 C 207.035 0.289113 -1.92036 0
M  V30 2233 O 206.31 1.21 -1.52281 0
M  V30 2234 C 206.593 -1.96309 -3.01885 0
M  V30 2235 C 206.446 -3.49405 -2.8326 0
M  V30 2236 C 207.765 -1.78076 -4.02463 0
M  V30 2237 H 204.884 -0.423152 -0.603417 0
M  V30 2238 H 207.526 -1.57961 -1.05586 0
M  V30 2239 H 205.676 -1.60742 -3.53687 0
M  V30 2240 H 207.348 -3.94894 -2.38446 0
M  V30 2241 H 205.591 -3.74893 -2.18261 0
M  V30 2242 H 206.262 -4.00784 -3.79574 0
M  V30 2243 H 208.738 -2.0912 -3.59733 0
M  V30 2244 H 207.614 -2.36561 -4.95308 0
M  V30 2245 H 207.875 -0.733008 -4.35981 0
M  V30 2246 N 206.934 1.1197 -1.10907 0
M  V30 2247 C 207.864 2.19928 -0.784473 0
M  V30 2248 C 208.845 1.6833 0.244726 0
M  V30 2249 O 210.03 1.93892 0.109418 0
M  V30 2250 C 207.16 3.46597 -0.220827 0
M  V30 2251 C 206.114 4.11376 -1.18127 0
M  V30 2252 C 205.44 5.32554 -0.478594 0
M  V30 2253 C 206.74 4.56945 -2.52979 0
M  V30 2254 H 208.434 2.47337 -1.68715 0
M  V30 2255 H 205.98 1.18879 -0.812642 0
M  V30 2256 H 207.933 4.21396 0.0184278 0
M  V30 2257 H 206.657 3.1863 0.717113 0
M  V30 2258 H 205.316 3.38564 -1.40606 0
M  V30 2259 H 204.964 5.00856 0.463976 0
M  V30 2260 H 204.664 5.76844 -1.11912 0
M  V30 2261 H 206.188 6.10096 -0.248 0
M  V30 2262 H 207.602 5.23093 -2.3462 0
M  V30 2263 H 205.999 5.1203 -3.12962 0
M  V30 2264 H 207.069 3.70676 -3.12614 0
M  V30 2265 N 208.412 0.89855 1.29475 0
M  V30 2266 C 209.659 0.523882 1.95606 0
M  V30 2267 C 209.987 -0.929608 1.70847 0
M  V30 2268 O 209.242 -1.67401 1.01367 0
M  V30 2269 C 209.541 0.761398 3.49195 0
M  V30 2270 C 209.207 2.19207 3.94029 0
M  V30 2271 C 207.869 2.58326 4.05982 0
M  V30 2272 C 210.221 3.12379 4.17216 0
M  V30 2273 C 207.549 3.898 4.38489 0
M  V30 2274 C 209.901 4.43401 4.51197 0
M  V30 2275 C 208.565 4.82394 4.61359 0
M  V30 2276 H 207.835 0.191702 0.715773 0
M  V30 2277 H 210.482 1.13699 1.54094 0
M  V30 2278 H 208.787 0.0653622 3.91745 0
M  V30 2279 H 210.484 0.450904 3.98457 0
M  V30 2280 H 207.074 1.87846 3.85242 0
M  V30 2281 H 211.258 2.83371 4.07449 0
M  V30 2282 H 206.514 4.19734 4.44559 0
M  V30 2283 H 210.688 5.15623 4.68087 0
M  V30 2284 H 208.315 5.84306 4.86303 0
M  V30 2285 N 209.89 -1.43072 0.660911 0
M  V30 2286 C 210.82 -2.33497 -0.0122829 0
M  V30 2287 C 211.801 -1.49903 -0.803925 0
M  V30 2288 O 212.986 -1.78546 -0.763864 0
M  V30 2289 C 210.116 -3.33363 -0.973994 0
M  V30 2290 C 209.07 -4.27003 -0.291928 0
M  V30 2291 C 208.396 -5.16967 -1.36562 0
M  V30 2292 C 209.696 -5.15816 0.820462 0
M  V30 2293 H 211.39 -2.90038 0.742873 0
M  V30 2294 H 208.936 -1.39461 0.358688 0
M  V30 2295 H 210.889 -3.95524 -1.45392 0
M  V30 2296 H 209.613 -2.75095 -1.7604 0
M  V30 2297 H 208.272 -3.66217 0.167623 0
M  V30 2298 H 207.92 -4.55034 -2.14366 0
M  V30 2299 H 207.62 -5.80441 -0.914454 0
M  V30 2300 H 209.144 -5.82003 -1.84675 0
M  V30 2301 H 210.558 -5.71742 0.422366 0
M  V30 2302 H 208.955 -5.8805 1.19656 0
M  V30 2303 H 210.025 -4.55045 1.67518 0
M  V30 2304 N 211.368 -0.403325 -1.52352 0
M  V30 2305 C 212.298 0.416205 -2.29761 0
M  V30 2306 C 213.279 1.05123 -1.33728 0
M  V30 2307 O 214.464 1.06134 -1.62632 0
M  V30 2308 C 211.594 1.53624 -3.11475 0
M  V30 2309 C 210.548 1.02653 -4.15507 0
M  V30 2310 C 209.874 2.23971 -4.85532 0
M  V30 2311 C 211.174 0.08463 -5.22231 0
M  V30 2312 H 212.868 -0.229701 -2.98518 0
M  V30 2313 H 210.414 -0.111913 -1.43564 0
M  V30 2314 H 212.367 2.1165 -3.64393 0
M  V30 2315 H 211.091 2.20994 -2.40477 0
M  V30 2316 H 209.75 0.46871 -3.63591 0
M  V30 2317 H 209.398 2.89883 -4.11068 0
M  V30 2318 H 209.098 1.90521 -5.55856 0
M  V30 2319 H 210.622 2.82614 -5.41259 0
M  V30 2320 H 212.036 0.573509 -5.70424 0
M  V30 2321 H 210.433 -0.160783 -5.99885 0
M  V30 2322 H 211.503 -0.86237 -4.7717 0
M  V30 2323 N 212.846 1.57033 -0.133567 0
M  V30 2324 C 214.257 1.82593 0.389464 0
M  V30 2325 C 214.608 1.05156 1.6564 0
M  V30 2326 O 213.733 0.292644 2.14412 0
M  V30 2327 C 214.328 3.31204 0.713377 0
M  V30 2328 C 212.887 3.57393 1.18098 0
M  V30 2329 C 212.034 2.76598 0.197126 0
M  V30 2330 H 214.985 1.54598 -0.358481 0
M  V30 2331 H 215.006 3.46627 1.56939 0
M  V30 2332 H 214.518 3.87537 -0.2089 0
M  V30 2333 H 212.619 3.06433 2.11966 0
M  V30 2334 H 212.732 4.65915 1.11624 0
M  V30 2335 H 211.096 2.45257 0.687088 0
M  V30 2336 H 211.879 3.35697 -0.718504 0
M  V30 2337 N 214.325 -0.140222 1.56975 0
M  V30 2338 C 215.555 -0.865181 1.87612 0
M  V30 2339 C 215.963 -1.74942 0.72055 0
M  V30 2340 O 215.306 -1.80917 -0.318561 0
M  V30 2341 C 215.368 -1.76782 3.13031 0
M  V30 2342 C 215.032 -1.06005 4.44536 0
M  V30 2343 C 216.029 -0.410768 5.18275 0
M  V30 2344 C 213.714 -1.04754 4.91255 0
M  V30 2345 C 215.708 0.241572 6.36942 0
M  V30 2346 C 213.395 -0.391394 6.09845 0
M  V30 2347 C 214.393 0.252029 6.82535 0
M  V30 2348 O 214.081 0.897757 7.98871 0
M  V30 2349 H 213.813 -0.255188 0.625983 0
M  V30 2350 H 216.367 -0.135653 2.04952 0
M  V30 2351 H 214.597 -2.53846 2.91718 0
M  V30 2352 H 216.286 -2.36533 3.29859 0
M  V30 2353 H 217.052 -0.412195 4.83245 0
M  V30 2354 H 212.931 -1.53777 4.34596 0
M  V30 2355 H 216.475 0.744375 6.93617 0
M  V30 2356 H 212.372 -0.387656 6.44335 0
M  V30 2357 H 213.14 0.800102 8.1458 0
M  V30 2358 N 215.803 -1.52179 -0.40978 0
M  V30 2359 C 217.049 -1.67408 -1.15525 0
M  V30 2360 C 217.404 -0.398746 -1.88223 0
M  V30 2361 O 216.697 0.60678 -1.81738 0
M  V30 2362 C 216.891 -2.83428 -2.17723 0
M  V30 2363 C 216.72 -4.22121 -1.55061 0
M  V30 2364 C 215.49 -4.87657 -1.3236 0
M  V30 2365 C 217.688 -5.04248 -1.01185 0
M  V30 2366 N 215.67 -6.10387 -0.655834 0
M  V30 2367 C 217.041 -6.18209 -0.470963 0
M  V30 2368 C 219.096 -4.89583 -0.906252 0
M  V30 2369 C 217.799 -7.1911 0.165172 0
M  V30 2370 C 219.825 -5.90718 -0.28397 0
M  V30 2371 C 219.187 -7.03969 0.246243 0
M  V30 2372 H 215.286 -0.666251 -0.409431 0
M  V30 2373 H 217.87 -1.89482 -0.447729 0
M  V30 2374 H 216.041 -2.6297 -2.85834 0
M  V30 2375 H 217.773 -2.87697 -2.84627 0
M  V30 2376 H 214.528 -4.46007 -1.59294 0
M  V30 2377 H 214.952 -6.76153 -0.338596 0
M  V30 2378 H 219.594 -4.02253 -1.302 0
M  V30 2379 H 217.312 -8.06066 0.572986 0
M  V30 2380 H 220.898 -5.81443 -0.203792 0
M  V30 2381 H 219.778 -7.80886 0.720173 0
M  V30 2382 N 217.281 0.66697 -1.42791 0
M  V30 2383 C 218.511 1.45294 -1.46878 0
M  V30 2384 C 218.919 1.89027 -0.0809861 0
M  V30 2385 O 218.262 1.59219 0.916246 0
M  V30 2386 C 218.324 2.72908 -2.34012 0
M  V30 2387 C 217.988 2.51203 -3.81767 0
M  V30 2388 C 218.985 2.15302 -4.73224 0
M  V30 2389 C 216.67 2.65954 -4.26115 0
M  V30 2390 C 218.664 1.94431 -6.07022 0
M  V30 2391 C 216.351 2.44699 -5.59969 0
M  V30 2392 C 217.349 2.08992 -6.5024 0
M  V30 2393 O 217.037 1.87948 -7.81621 0
M  V30 2394 H 216.769 0.453306 -0.501487 0
M  V30 2395 H 219.323 0.826232 -1.88049 0
M  V30 2396 H 217.553 3.38089 -1.87703 0
M  V30 2397 H 219.242 3.34816 -2.29462 0
M  V30 2398 H 220.008 2.03495 -4.40244 0
M  V30 2399 H 215.887 2.92724 -3.56137 0
M  V30 2400 H 219.431 1.66484 -6.77443 0
M  V30 2401 H 215.328 2.56105 -5.9252 0
M  V30 2402 H 216.096 2.02483 -7.93059 0
M  V30 2403 N 218.759 1.29093 0.90403 0
M  V30 2404 C 220.005 1.16986 1.65656 0
M  V30 2405 C 220.338 -0.278925 1.92186 0
M  V30 2406 O 219.613 -1.2019 1.5292 0
M  V30 2407 C 219.896 1.97908 3.0084 0
M  V30 2408 C 219.749 3.50903 2.81403 0
M  V30 2409 C 221.068 1.80208 4.01513 0
M  V30 2410 H 218.187 0.426346 0.601164 0
M  V30 2411 H 220.829 1.58518 1.04747 0
M  V30 2412 H 218.979 1.62616 3.52829 0
M  V30 2413 H 220.651 3.96153 2.36348 0
M  V30 2414 H 218.894 3.76045 2.1627 0
M  V30 2415 H 219.565 4.02791 3.77443 0
M  V30 2416 H 222.041 2.11025 3.58619 0
M  V30 2417 H 220.917 2.39184 4.94047 0
M  V30 2418 H 221.178 0.756119 4.35586 0
M  V30 2419 N 220.237 -1.11381 1.11499 0
M  V30 2420 C 221.484 -1.83132 0.864231 0
M  V30 2421 C 221.812 -1.84683 -0.610114 0
M  V30 2422 O 221.067 -1.29589 -1.46646 0
M  V30 2423 C 221.366 -3.30026 1.37177 0
M  V30 2424 C 221.032 -3.48634 2.85946 0
M  V30 2425 C 219.694 -3.53421 3.26569 0
M  V30 2426 C 222.046 -3.54837 3.81759 0
M  V30 2427 C 219.374 -3.61967 4.61733 0
M  V30 2428 C 221.726 -3.64915 5.1674 0
M  V30 2429 C 220.39 -3.67962 5.5692 0
M  V30 2430 H 219.66 -0.670127 0.316245 0
M  V30 2431 H 222.307 -1.31354 1.3935 0
M  V30 2432 H 220.612 -3.84304 0.762753 0
M  V30 2433 H 222.309 -3.84034 1.15408 0
M  V30 2434 H 218.899 -3.45579 2.53521 0
M  V30 2435 H 223.083 -3.50399 3.51474 0
M  V30 2436 H 218.339 -3.62603 4.92269 0
M  V30 2437 H 222.513 -3.68658 5.90816 0
M  V30 2438 H 220.14 -3.74336 6.61647 0
M  V30 2439 N 221.715 -0.905404 -1.28997 0
M  V30 2440 C 222.645 -0.404212 -2.29975 0
M  V30 2441 C 223.626 0.523784 -1.61835 0
M  V30 2442 O 224.811 0.433298 -1.89304 0
M  V30 2443 C 221.941 0.364042 -3.45387 0
M  V30 2444 C 220.895 -0.474048 -4.25367 0
M  V30 2445 C 220.221 0.422045 -5.33032 0
M  V30 2446 C 221.521 -1.72696 -4.92923 0
M  V30 2447 H 223.215 -1.24807 -2.72146 0
M  V30 2448 H 220.761 -0.601585 -1.30832 0
M  V30 2449 H 222.714 0.725447 -4.15109 0
M  V30 2450 H 221.438 1.24174 -3.02074 0
M  V30 2451 H 220.097 -0.81786 -3.57361 0
M  V30 2452 H 219.745 1.29804 -4.85963 0
M  V30 2453 H 219.445 -0.135057 -5.87445 0
M  V30 2454 H 220.969 0.779517 -6.05604 0
M  V30 2455 H 222.383 -1.43495 -5.55051 0
M  V30 2456 H 220.78 -2.22582 -5.57295 0
M  V30 2457 H 221.85 -2.45964 -4.17887 0
M  V30 2458 N 223.193 1.4272 -0.668489 0
M  V30 2459 C 224.123 2.335 -0.000100175 0
M  V30 2460 C 225.104 1.50328 0.795964 0
M  V30 2461 O 226.289 1.78949 0.754385 0
M  V30 2462 C 223.419 3.33874 0.956302 0
M  V30 2463 C 222.373 4.27152 0.269278 0
M  V30 2464 C 221.699 5.17684 1.33818 0
M  V30 2465 C 222.999 5.15373 -0.847805 0
M  V30 2466 H 224.693 2.89639 -0.758244 0
M  V30 2467 H 222.239 1.39269 -0.366079 0
M  V30 2468 H 224.192 3.9629 1.43292 0
M  V30 2469 H 222.916 2.76025 1.74579 0
M  V30 2470 H 221.575 3.66123 -0.187042 0
M  V30 2471 H 221.223 4.56165 2.1195 0
M  V30 2472 H 220.923 5.80918 0.883659 0
M  V30 2473 H 222.447 5.82974 1.81586 0
M  V30 2474 H 223.861 5.7151 -0.452681 0
M  V30 2475 H 222.258 5.87407 -1.22773 0
M  V30 2476 H 223.328 4.5415 -1.69929 0
M  V30 2477 N 224.671 0.411399 1.52136 0
M  V30 2478 C 225.948 -0.222308 1.94333 0
M  V30 2479 C 226.328 -1.6242 1.34844 0
M  V30 2480 O 225.676 -2.22384 0.525145 0
M  V30 2481 C 225.886 -0.226345 3.48265 0
M  V30 2482 C 227.234 -0.444592 4.22266 0
M  V30 2483 O 228.258 -0.305602 3.54887 0
M  V30 2484 O 227.117 -0.718749 5.41753 0
M  V30 2485 H 224.211 -0.143907 0.814383 0
M  V30 2486 H 226.757 0.467506 1.63133 0
M  V30 2487 H 225.529 0.75475 3.83952 0
M  V30 2488 H 225.152 -0.960163 3.85832 0
M  V30 2489 N 226.149 -1.5696 0.141893 0
M  V30 2490 C 227.096 -2.16501 -0.799737 0
M  V30 2491 C 228.066 -1.09643 -1.24771 0
M  V30 2492 O 229.251 -1.3766 -1.32115 0
M  V30 2493 C 226.391 -2.78679 -2.03549 0
M  V30 2494 C 225.504 -3.99914 -1.6338 0
M  V30 2495 C 224.639 -4.50106 -2.82096 0
M  V30 2496 C 223.678 -5.63819 -2.38275 0
M  V30 2497 N 222.815 -6.08651 -3.49983 0
M  V30 2498 H 227.655 -2.96632 -0.285179 0
M  V30 2499 H 225.192 -1.46533 -0.129053 0
M  V30 2500 H 227.15 -3.1287 -2.75986 0
M  V30 2501 H 225.78 -2.012 -2.52425 0
M  V30 2502 H 224.832 -3.71735 -0.807279 0
M  V30 2503 H 226.144 -4.82311 -1.27192 0
M  V30 2504 H 225.298 -4.86325 -3.62729 0
M  V30 2505 H 224.037 -3.66706 -3.21525 0
M  V30 2506 H 223.042 -5.2718 -1.56081 0
M  V30 2507 H 224.267 -6.49 -1.99938 0
M  V30 2508 H 222.213 -5.28188 -3.89042 0
M  V30 2509 H 222.13 -6.85961 -3.17794 0
M  V30 2510 H 223.398 -6.49515 -4.30988 0
M  V30 2511 N 227.627 0.131896 -1.57047 0
M  V30 2512 C 228.855 0.856461 -1.88341 0
M  V30 2513 C 229.27 1.74042 -0.731757 0
M  V30 2514 O 228.627 1.80051 0.297945 0
M  V30 2515 C 228.678 1.70064 -3.18999 0
M  V30 2516 O 228.399 0.852278 -4.2973 0
M  V30 2517 C 229.9 2.53148 -3.63911 0
M  V30 2518 H 227.12 0.246885 -0.62393 0
M  V30 2519 H 229.664 0.120152 -2.04147 0
M  V30 2520 H 227.819 2.38984 -3.04902 0
M  V30 2521 H 228.233 1.43329 -5.04537 0
M  V30 2522 H 229.707 3.07931 -4.58129 0
M  V30 2523 H 230.184 3.29901 -2.89935 0
M  V30 2524 H 230.79 1.89492 -3.80753 0
M  V30 2525 N 229.106 1.52395 0.401703 0
M  V30 2526 C 230.331 1.70972 1.17403 0
M  V30 2527 C 230.756 0.421615 1.83314 0
M  V30 2528 O 230.114 -0.621564 1.70312 0
M  V30 2529 C 230.162 2.85151 2.20728 0
M  V30 2530 O 229.266 2.51238 3.27037 0
M  V30 2531 H 228.607 0.568927 0.342372 0
M  V30 2532 H 231.137 1.99131 0.469891 0
M  V30 2533 H 231.147 3.10279 2.64936 0
M  V30 2534 H 229.822 3.78603 1.7214 0
M  V30 2535 H 228.399 2.36808 2.88057 0
M  V30 2536 N 230.584 -0.659388 1.43143 0
M  V30 2537 C 231.83 -1.41984 1.45644 0
M  V30 2538 C 232.185 -1.92245 0.0771718 0
M  V30 2539 O 231.478 -1.68976 -0.903205 0
M  V30 2540 C 231.672 -2.62206 2.42864 0
M  V30 2541 C 231.501 -2.23711 3.90107 0
M  V30 2542 C 230.271 -2.12332 4.58523 0
M  V30 2543 C 232.469 -1.84384 4.80112 0
M  V30 2544 N 230.451 -1.67102 5.9072 0
M  V30 2545 C 231.822 -1.5019 6.01534 0
M  V30 2546 C 233.877 -1.71512 4.67427 0
M  V30 2547 C 232.58 -1.04414 7.11681 0
M  V30 2548 C 234.606 -1.27142 5.77572 0
M  V30 2549 C 233.968 -0.938808 6.98116 0
M  V30 2550 H 230.067 -0.515448 0.588079 0
M  V30 2551 H 232.651 -0.759409 1.79279 0
M  V30 2552 H 230.822 -3.25917 2.11265 0
M  V30 2553 H 232.554 -3.28877 2.35843 0
M  V30 2554 H 229.309 -2.31893 4.12944 0
M  V30 2555 H 229.733 -1.46866 6.60878 0
M  V30 2556 H 234.375 -1.95868 3.74694 0
M  V30 2557 H 232.093 -0.788061 8.04248 0
M  V30 2558 H 235.679 -1.17681 5.69774 0
M  V30 2559 H 234.559 -0.6007 7.81896 0
M  V30 2560 N 232.062 -1.29571 -0.897171 0
M  V30 2561 C 233.01 -1.14802 -2.02295 0
M  V30 2562 C 234.004 -0.0629637 -1.69283 0
M  V30 2563 O 235.21 -0.222945 -1.78614 0
M  V30 2564 H 231.585 -0.354692 -0.663097 0
M  V30 2565 H 233.556 -2.10108 -2.11889 0
M  V30 2566 C 232.305 -0.843966 -3.37302 0
M  V30 2567 H 231.628 -1.67093 -3.63208 0
M  V30 2568 H 233.068 -0.780672 -4.16751 0
M  V30 2569 C 231.527 0.452843 -3.33843 0
M  V30 2570 O 232.057 1.47813 -3.73516 0
M  V30 2571 N 230.263 0.459601 -2.86943 0
M  V30 2572 H 229.81 -0.375213 -2.54853 0
M  V30 2573 H 229.768 1.32726 -2.85011 0
M  V30 2574 N 233.54 1.10788 -1.12088 0
M  V30 2575 C 234.488 2.19111 -0.780587 0
M  V30 2576 C 235.482 1.67818 0.230961 0
M  V30 2577 O 236.688 1.79777 0.0895427 0
M  V30 2578 H 233.063 0.714477 -0.234578 0
M  V30 2579 H 235.034 2.45055 -1.70266 0
M  V30 2580 C 233.783 3.46818 -0.24747 0
M  V30 2581 H 233.106 3.86646 -1.01712 0
M  V30 2582 H 234.546 4.23973 -0.0476291 0
M  V30 2583 C 233.005 3.20968 1.02378 0
M  V30 2584 O 233.535 3.42298 2.10226 0
M  V30 2585 N 231.741 2.74658 0.949271 0
M  V30 2586 H 231.288 2.57501 0.0715173 0
M  V30 2587 H 231.246 2.57739 1.80049 0
M  V30 2588 N 235.018 0.912232 1.28515 0
M  V30 2589 C 235.968 0.370649 2.24967 0
M  V30 2590 C 236.952 -0.516375 1.52389 0
M  V30 2591 O 238.144 -0.356345 1.73376 0
M  V30 2592 C 235.273 -0.389526 3.41083 0
M  V30 2593 C 234.359 0.51313 4.20984 0
M  V30 2594 N 234.75 1.62604 4.78951 0
M  V30 2595 C 233.048 0.313235 4.44899 0
M  V30 2596 C 233.749 2.18619 5.39055 0
M  V30 2597 N 232.725 1.47765 5.23132 0
M  V30 2598 H 236.527 1.22061 2.67354 0
M  V30 2599 H 234.041 0.764712 1.43269 0
M  V30 2600 H 236.038 -0.794353 4.09262 0
M  V30 2601 H 234.698 -1.2366 3.0023 0
M  V30 2602 H 235.709 2.00864 4.77362 0
M  V30 2603 H 232.386 -0.494452 4.14562 0
M  V30 2604 H 233.776 3.12228 5.94948 0
M  V30 2605 N 236.496 -1.42363 0.676048 0
M  V30 2606 C 237.721 -2.06377 0.205705 0
M  V30 2607 C 238.146 -1.50463 -1.12883 0
M  V30 2608 O 237.504 -0.623619 -1.70237 0
M  V30 2609 C 237.552 -3.60277 0.152655 0
M  V30 2610 O 236.656 -4.02935 -0.87845 0
M  V30 2611 H 235.997 -0.655588 0.105359 0
M  V30 2612 H 238.527 -1.82475 0.925412 0
M  V30 2613 H 238.537 -4.07993 -0.0230675 0
M  V30 2614 H 237.212 -4.00346 1.12675 0
M  V30 2615 H 235.789 -3.66764 -0.673668 0
M  V30 2616 N 237.974 -0.419461 -1.51915 0
M  V30 2617 C 239.204 0.151915 -2.06041 0
M  V30 2618 C 239.612 1.38539 -1.28855 0
M  V30 2619 O 238.955 1.80592 -0.336463 0
M  V30 2620 C 239.017 0.557119 -3.55157 0
M  V30 2621 C 238.681 -0.567054 -4.53468 0
M  V30 2622 C 239.678 -1.43379 -4.99738 0
M  V30 2623 C 237.363 -0.742693 -4.96779 0
M  V30 2624 C 239.357 -2.46102 -5.87973 0
M  V30 2625 C 237.044 -1.77322 -5.84808 0
M  V30 2626 C 238.042 -2.63078 -6.30301 0
M  V30 2627 O 237.73 -3.64364 -7.16585 0
M  V30 2628 H 237.462 0.0193293 -0.675724 0
M  V30 2629 H 240.016 -0.592073 -1.96682 0
M  V30 2630 H 238.246 1.35355 -3.62238 0
M  V30 2631 H 239.935 1.05759 -3.9188 0
M  V30 2632 H 240.701 -1.30954 -4.66986 0
M  V30 2633 H 236.58 -0.0848307 -4.60922 0
M  V30 2634 H 240.124 -3.13071 -6.23404 0
M  V30 2635 H 236.021 -1.89773 -6.16974 0
M  V30 2636 H 236.789 -3.60731 -7.34721 0
M  V30 2637 N 239.452 1.56882 -0.150215 0
M  V30 2638 C 240.382 2.19935 0.784284 0
M  V30 2639 C 241.363 1.14854 1.25469 0
M  V30 2640 O 242.548 1.43209 1.31168 0
M  V30 2641 C 239.678 2.82349 2.02229 0
M  V30 2642 C 238.632 3.93285 1.68853 0
M  V30 2643 C 237.958 4.42649 2.99944 0
M  V30 2644 C 239.258 5.13904 0.932714 0
M  V30 2645 H 240.952 2.9828 0.258781 0
M  V30 2646 H 238.498 1.43473 0.123029 0
M  V30 2647 H 240.451 3.25126 2.68088 0
M  V30 2648 H 239.175 2.0134 2.57157 0
M  V30 2649 H 237.834 3.5113 1.05371 0
M  V30 2650 H 237.482 3.58458 3.52869 0
M  V30 2651 H 237.182 5.17476 2.78374 0
M  V30 2652 H 238.706 4.88099 3.66868 0
M  V30 2653 H 240.12 5.53506 1.49345 0
M  V30 2654 H 238.517 5.94515 0.81684 0
M  V30 2655 H 239.587 4.84842 -0.0749568 0
M  V30 2656 N 240.93 -0.123565 1.57115 0
M  V30 2657 C 242.16 -0.845233 1.88519 0
M  V30 2658 C 242.568 -1.74168 0.739064 0
M  V30 2659 O 241.911 -1.81244 -0.299355 0
M  V30 2660 C 241.973 -1.73452 3.14888 0
M  V30 2661 C 241.637 -1.01285 4.45635 0
M  V30 2662 C 242.634 -0.355774 5.18681 0
M  V30 2663 C 240.319 -0.99538 4.92339 0
M  V30 2664 C 242.313 0.309114 6.3665 0
M  V30 2665 C 240 -0.32669 6.10226 0
M  V30 2666 C 240.998 0.324406 6.82229 0
M  V30 2667 O 240.686 0.982437 7.97874 0
M  V30 2668 H 240.418 -0.248534 0.628655 0
M  V30 2669 H 242.972 -0.113907 2.05084 0
M  V30 2670 H 241.202 -2.50737 2.94394 0
M  V30 2671 H 242.891 -2.33021 3.32349 0
M  V30 2672 H 243.657 -0.360918 4.83655 0
M  V30 2673 H 239.536 -1.49159 4.36202 0
M  V30 2674 H 243.08 0.8179 6.92789 0
M  V30 2675 H 238.977 -0.319294 6.4471 0
M  V30 2676 H 239.745 0.886454 8.13686 0
M  V30 2677 N 242.408 -1.52605 -0.393616 0
M  V30 2678 C 243.656 -1.67093 -1.13685 0
M  V30 2679 C 243.977 -0.411011 -1.90619 0
M  V30 2680 O 243.247 0.574491 -1.87287 0
M  V30 2681 H 241.827 -0.615923 -0.422668 0
M  V30 2682 H 244.489 -1.89704 -0.447039 0
M  V30 2683 H 243.585 -2.51922 -1.84232 0
M  V30 2684 N 243.887 0.651787 -1.4349 0
M  V30 2685 C 244.817 1.77621 -1.51569 0
M  V30 2686 C 245.798 1.66022 -0.370253 0
M  V30 2687 O 246.983 1.85095 -0.587658 0
M  V30 2688 C 244.113 3.16056 -1.43966 0
M  V30 2689 C 243.067 3.4242 -2.56774 0
M  V30 2690 C 242.393 4.8067 -2.34223 0
M  V30 2691 C 243.693 3.37023 -3.99015 0
M  V30 2692 H 245.387 1.71117 -2.45681 0
M  V30 2693 H 242.933 0.821825 -1.18246 0
M  V30 2694 H 244.886 3.94472 -1.48221 0
M  V30 2695 H 243.61 3.23293 -0.463586 0
M  V30 2696 H 242.269 2.66375 -2.51873 0
M  V30 2697 H 241.917 4.84585 -1.34856 0
M  V30 2698 H 241.617 4.9927 -3.09844 0
M  V30 2699 H 243.141 5.61342 -2.40265 0
M  V30 2700 H 244.555 4.05374 -4.05395 0
M  V30 2701 H 242.952 3.67159 -4.74673 0
M  V30 2702 H 244.022 2.3518 -4.2405 0
M  V30 2703 N 245.365 1.30045 0.890287 0
M  V30 2704 C 246.295 1.18541 2.01172 0
M  V30 2705 C 247.276 0.0773356 1.69924 0
M  V30 2706 O 248.461 0.25845 1.92473 0
M  V30 2707 C 245.591 0.870941 3.36202 0
M  V30 2708 C 244.545 1.93637 3.81692 0
M  V30 2709 C 243.871 1.475 5.13953 0
M  V30 2710 C 245.171 3.34666 4.00994 0
M  V30 2711 H 246.865 2.12359 2.11054 0
M  V30 2712 H 244.411 1.02238 1.01407 0
M  V30 2713 H 246.364 0.777141 4.14172 0
M  V30 2714 H 245.088 -0.102926 3.26438 0
M  V30 2715 H 243.747 2.01972 3.05946 0
M  V30 2716 H 243.395 0.489551 5.00612 0
M  V30 2717 H 243.095 2.1876 5.4536 0
M  V30 2718 H 244.619 1.39489 5.94454 0
M  V30 2719 H 246.033 3.2912 4.69417 0
M  V30 2720 H 244.43 4.03966 4.43769 0
M  V30 2721 H 245.5 3.76949 3.05021 0
M  V30 2722 N 246.843 -1.10192 1.12674 0
M  V30 2723 C 247.806 -2.14786 0.799979 0
M  V30 2724 C 248.806 -1.59711 -0.18685 0
M  V30 2725 O 249.996 -1.74156 0.0392558 0
M  V30 2726 C 247.128 -3.40374 0.189228 0
M  V30 2727 H 248.321 -2.45203 1.72671 0
M  V30 2728 H 245.874 -1.25597 0.930326 0
M  V30 2729 H 246.609 -3.15577 -0.747107 0
M  V30 2730 H 246.394 -3.81637 0.899766 0
M  V30 2731 H 247.884 -4.17594 -0.0228143 0
M  V30 2732 N 248.321 -0.919034 -1.28029 0
M  V30 2733 C 249.568 -0.554934 -1.94748 0
M  V30 2734 C 249.896 0.90231 -1.72304 0
M  V30 2735 O 249.151 1.65767 -1.04018 0
M  V30 2736 C 249.45 -0.816855 -3.4794 0
M  V30 2737 C 249.116 -2.25448 -3.90492 0
M  V30 2738 C 247.778 -2.64752 -4.01821 0
M  V30 2739 C 250.13 -3.18977 -4.12193 0
M  V30 2740 C 247.458 -3.96727 -4.32232 0
M  V30 2741 C 249.81 -4.50523 -4.44086 0
M  V30 2742 C 248.474 -4.89673 -4.53626 0
M  V30 2743 H 247.744 -0.203065 -0.712633 0
M  V30 2744 H 250.391 -1.16136 -1.52265 0
M  V30 2745 H 248.696 -0.127677 -3.91592 0
M  V30 2746 H 250.393 -0.514238 -3.97689 0
M  V30 2747 H 246.983 -1.93952 -3.82205 0
M  V30 2748 H 251.167 -2.89817 -4.02889 0
M  V30 2749 H 246.423 -4.26754 -4.37825 0
M  V30 2750 H 250.597 -5.23005 -4.59825 0
M  V30 2751 H 248.224 -5.91969 -4.76946 0
M  V30 2752 N 249.799 1.42003 -0.683588 0
M  V30 2753 C 250.731 2.29183 0.0283068 0
M  V30 2754 C 251.744 1.4415 0.756611 0
M  V30 2755 O 252.933 1.67779 0.609306 0
M  V30 2756 C 250.033 3.21765 1.06398 0
M  V30 2757 C 249.206 4.35496 0.407723 0
M  V30 2758 C 248.265 5.08737 1.34437 0
M  V30 2759 O 247.291 5.62948 0.841318 0
M  V30 2760 N 248.493 5.15075 2.67728 0
M  V30 2761 H 251.258 2.9092 -0.720105 0
M  V30 2762 H 248.819 1.53025 -0.528682 0
M  V30 2763 H 250.811 3.6763 1.69204 0
M  V30 2764 H 249.381 2.61418 1.71404 0
M  V30 2765 H 248.601 3.92165 -0.400012 0
M  V30 2766 H 249.889 5.08776 -0.0490956 0
M  V30 2767 H 249.287 4.72457 3.11129 0
M  V30 2768 H 247.844 5.64556 3.2576 0
M  V30 2769 N 251.277 0.427512 1.51691 0
M  V30 2770 C 252.207 -0.3796 2.30394 0
M  V30 2771 C 253.188 -1.02982 1.35384 0
M  V30 2772 O 254.373 -1.03534 1.643 0
M  V30 2773 C 251.503 -1.48649 3.1388 0
M  V30 2774 C 250.457 -0.960294 4.17088 0
M  V30 2775 C 249.783 -2.16219 4.89033 0
M  V30 2776 C 251.083 -0.00153679 5.223 0
M  V30 2777 H 252.777 0.277164 2.98114 0
M  V30 2778 H 250.323 0.134739 1.43368 0
M  V30 2779 H 252.276 -2.05826 3.67714 0
M  V30 2780 H 251 -2.1714 2.43962 0
M  V30 2781 H 249.659 -0.410806 3.64291 0
M  V30 2782 H 249.307 -2.83307 4.15628 0
M  V30 2783 H 249.007 -1.81654 5.58816 0
M  V30 2784 H 250.531 -2.73968 5.45687 0
M  V30 2785 H 251.945 -0.482687 5.71264 0
M  V30 2786 H 250.342 0.256199 5.99553 0
M  V30 2787 H 251.412 0.938174 4.75738 0
M  V30 2788 N 252.755 -1.56801 0.158532 0
M  V30 2789 C 253.983 -2.00859 -0.496303 0
M  V30 2790 C 254.398 -1.03871 -1.57659 0
M  V30 2791 O 253.755 -0.0375165 -1.82461 0
M  V30 2792 C 253.806 -3.4479 -1.08638 0
M  V30 2793 O 253.527 -4.38072 -0.0492322 0
M  V30 2794 C 255.028 -4.04185 -1.8207 0
M  V30 2795 H 252.248 -0.65864 -0.128199 0
M  V30 2796 H 254.792 -2.02885 0.256506 0
M  V30 2797 H 252.947 -3.43579 -1.78975 0
M  V30 2798 H 253.361 -5.2227 -0.483102 0
M  V30 2799 H 254.835 -5.06857 -2.18633 0
M  V30 2800 H 255.312 -3.45549 -2.71095 0
M  V30 2801 H 255.918 -4.0906 -1.16405 0
M  V30 2802 N 254.233 0.115231 -1.57178 0
M  V30 2803 C 255.48 0.822351 -1.8505 0
M  V30 2804 C 255.808 1.79701 -0.744168 0
M  V30 2805 O 255.063 1.93909 0.26414 0
M  V30 2806 C 255.362 1.60324 -3.19423 0
M  V30 2807 C 255.028 0.772536 -4.44233 0
M  V30 2808 C 253.69 0.543468 -4.78121 0
M  V30 2809 C 256.042 0.193746 -5.2084 0
M  V30 2810 C 253.37 -0.274583 -5.86057 0
M  V30 2811 C 255.722 -0.611517 -6.29637 0
M  V30 2812 C 254.386 -0.850867 -6.62055 0
M  V30 2813 H 253.656 0.30092 -0.677147 0
M  V30 2814 H 256.303 0.0845802 -1.91313 0
M  V30 2815 H 254.608 2.41203 -3.08753 0
M  V30 2816 H 256.305 2.1544 -3.38211 0
M  V30 2817 H 252.895 0.96117 -4.17683 0
M  V30 2818 H 257.079 0.357926 -4.95008 0
M  V30 2819 H 252.335 -0.469206 -6.09597 0
M  V30 2820 H 256.509 -1.06697 -6.88178 0
M  V30 2821 H 254.136 -1.48657 -7.45523 0
M  V30 2822 N 255.711 1.52812 0.385517 0
M  V30 2823 C 256.644 1.72592 1.49289 0
M  V30 2824 C 257.622 0.573819 1.52138 0
M  V30 2825 O 258.806 0.80404 1.70492 0
M  V30 2826 C 255.933 1.78669 2.87741 0
M  V30 2827 C 254.979 3.00455 3.02703 0
M  V30 2828 S 255.812 4.60366 2.73538 0
M  V30 2829 C 256.968 4.69263 4.14177 0
M  V30 2830 H 257.201 2.66248 1.32285 0
M  V30 2831 H 254.734 1.43148 0.578611 0
M  V30 2832 H 256.692 1.82855 3.67524 0
M  V30 2833 H 255.353 0.861 3.02069 0
M  V30 2834 H 254.546 3.01258 4.04054 0
M  V30 2835 H 254.148 2.94278 2.30817 0
M  V30 2836 H 256.44 4.48092 5.08153 0
M  V30 2837 H 257.383 5.71276 4.18388 0
M  V30 2838 H 257.791 3.98072 4.00249 0
M  V30 2839 N 257.189 -0.644168 1.43834 0
M  V30 2840 C 258.466 -1.40188 1.36406 0
M  V30 2841 C 258.846 -2.11094 0.0163124 0
M  V30 2842 O 258.194 -2.05426 -1.00062 0
M  V30 2843 C 258.404 -2.3791 2.55343 0
M  V30 2844 C 259.752 -3.01637 2.98832 0
M  V30 2845 O 260.776 -2.48237 2.55455 0
M  V30 2846 O 259.635 -3.98477 3.74003 0
M  V30 2847 H 256.729 -0.626773 0.539523 0
M  V30 2848 H 259.275 -0.670317 1.559 0
M  V30 2849 H 258.047 -1.84525 3.4506 0
M  V30 2850 H 257.67 -3.18503 2.37995 0
M  V30 2851 N 258.668 -1.30515 -0.883378 0
M  V30 2852 C 259.631 -1.1701 -1.97082 0
M  V30 2853 C 260.631 -0.10089 -1.60483 0
M  V30 2854 O 261.821 -0.349127 -1.70666 0
M  V30 2855 C 258.953 -0.793045 -3.31547 0
M  V30 2856 H 260.146 -2.13622 -2.10489 0
M  V30 2857 H 257.699 -1.13935 -1.06998 0
M  V30 2858 H 258.434 0.172499 -3.23841 0
M  V30 2859 H 258.219 -1.56576 -3.5948 0
M  V30 2860 H 259.709 -0.722073 -4.1131 0
M  V30 2861 N 260.146 1.09593 -1.13257 0
M  V30 2862 C 261.094 2.18271 -0.803783 0
M  V30 2863 C 262.088 1.68054 0.213148 0
M  V30 2864 O 263.294 1.79862 0.0704699 0
M  V30 2865 H 259.669 0.711949 -0.242143 0
M  V30 2866 H 261.64 2.43235 -1.72856 0
M  V30 2867 C 260.389 3.46536 -0.28424 0
M  V30 2868 H 259.712 3.85545 -1.05807 0
M  V30 2869 H 261.152 4.23899 -0.0925945 0
M  V30 2870 C 259.611 3.22036 0.989684 0
M  V30 2871 O 260.141 3.44509 2.06584 0
M  V30 2872 N 258.347 2.7565 0.920086 0
M  V30 2873 H 257.894 2.57562 0.0442019 0
M  V30 2874 H 257.852 2.59635 1.77306 0
M  V30 2875 N 261.624 0.925811 1.2754 0
M  V30 2876 C 262.574 0.394488 2.24561 0
M  V30 2877 C 263.558 -0.500183 1.52928 0
M  V30 2878 O 264.75 -0.337936 1.73744 0
M  V30 2879 C 261.879 -0.353328 3.41477 0
M  V30 2880 C 260.965 0.557752 4.20416 0
M  V30 2881 N 261.356 1.67674 4.77199 0
M  V30 2882 C 259.654 0.360404 4.44541 0
M  V30 2883 C 260.355 2.24324 5.36706 0
M  V30 2884 N 259.331 1.53305 5.21535 0
M  V30 2885 H 263.133 1.2489 2.66045 0
M  V30 2886 H 260.647 0.779864 1.4245 0
M  V30 2887 H 262.644 -0.7509 4.10082 0
M  V30 2888 H 261.304 -1.20469 3.01525 0
M  V30 2889 H 262.315 2.05915 4.75204 0
M  V30 2890 H 258.992 -0.450454 4.15063 0
M  V30 2891 H 260.382 3.18521 5.91603 0
M  V30 2892 N 263.102 -1.41638 0.69111 0
M  V30 2893 C 264.332 -2.0533 0.228758 0
M  V30 2894 C 264.74 -1.52089 -1.12541 0
M  V30 2895 O 264.083 -0.662145 -1.71351 0
M  V30 2896 C 264.145 -3.59349 0.10407 0
M  V30 2897 C 263.809 -4.35362 1.38956 0
M  V30 2898 C 264.806 -4.64942 2.32648 0
M  V30 2899 C 262.491 -4.74714 1.64169 0
M  V30 2900 C 264.485 -5.32828 3.49818 0
M  V30 2901 C 262.172 -5.42338 2.81625 0
M  V30 2902 C 263.17 -5.71322 3.74273 0
M  V30 2903 O 262.858 -6.37554 4.89673 0
M  V30 2904 H 262.59 -0.667796 0.104997 0
M  V30 2905 H 265.144 -1.82477 0.942938 0
M  V30 2906 H 263.374 -3.80924 -0.665839 0
M  V30 2907 H 265.063 -4.04633 -0.320519 0
M  V30 2908 H 265.829 -4.35025 2.14425 0
M  V30 2909 H 261.708 -4.51538 0.929202 0
M  V30 2910 H 265.252 -5.55368 4.22152 0
M  V30 2911 H 261.149 -5.71673 2.99768 0
M  V30 2912 H 261.917 -6.56049 4.8943 0
M  V30 2913 N 264.58 -0.43555 -1.51462 0
M  V30 2914 C 265.826 0.123979 -2.03022 0
M  V30 2915 C 266.181 1.4054 -1.31401 0
M  V30 2916 O 265.474 1.86948 -0.419634 0
M  V30 2917 C 265.668 0.39942 -3.55161 0
M  V30 2918 C 265.497 -0.853754 -4.41521 0
M  V30 2919 C 264.267 -1.38675 -4.85898 0
M  V30 2920 C 266.465 -1.73939 -4.83994 0
M  V30 2921 N 264.447 -2.59265 -5.56466 0
M  V30 2922 C 265.818 -2.79135 -5.5361 0
M  V30 2923 C 267.873 -1.75402 -4.65981 0
M  V30 2924 C 266.576 -3.85737 -6.07124 0
M  V30 2925 C 268.602 -2.80938 -5.20411 0
M  V30 2926 C 267.964 -3.84854 -5.89972 0
M  V30 2927 H 264.063 0.00624887 -0.781975 0
M  V30 2928 H 266.647 -0.59582 -1.85359 0
M  V30 2929 H 264.818 1.08825 -3.72843 0
M  V30 2930 H 266.55 0.95015 -3.93388 0
M  V30 2931 H 263.305 -0.94094 -4.64159 0
M  V30 2932 H 263.729 -3.2041 -5.96378 0
M  V30 2933 H 268.371 -0.963926 -4.11665 0
M  V30 2934 H 266.089 -4.65586 -6.60496 0
M  V30 2935 H 269.675 -2.8301 -5.08327 0
M  V30 2936 H 268.555 -4.65176 -6.31333 0
M  V30 2937 N 266.058 1.56714 -0.166846 0
M  V30 2938 C 267.283 2.01557 0.488833 0
M  V30 2939 C 267.708 1.0463 1.56314 0
M  V30 2940 O 267.066 0.0251304 1.81283 0
M  V30 2941 C 267.114 3.4503 1.04818 0
M  V30 2942 O 266.218 3.51163 2.16236 0
M  V30 2943 H 265.559 0.653516 0.117526 0
M  V30 2944 H 268.089 2.02818 -0.269421 0
M  V30 2945 H 268.099 3.84243 1.37191 0
M  V30 2946 H 266.774 4.15077 0.261572 0
M  V30 2947 H 265.351 3.23807 1.84942 0
M  V30 2948 N 267.536 -0.106894 1.57237 0
M  V30 2949 C 268.782 -0.81373 1.85759 0
M  V30 2950 C 269.115 -1.78952 0.754315 0
M  V30 2951 O 268.39 -1.93029 -0.23879 0
M  V30 2952 C 268.673 -1.55293 3.24894 0
M  V30 2953 C 268.526 -0.595929 4.45835 0
M  V30 2954 C 269.845 -2.5063 3.61763 0
M  V30 2955 H 266.964 -0.294369 0.67566 0
M  V30 2956 H 269.606 -0.0776472 1.89841 0
M  V30 2957 H 267.756 -2.1804 3.21544 0
M  V30 2958 H 269.428 0.0236262 4.61294 0
M  V30 2959 H 267.671 0.0916191 4.33703 0
M  V30 2960 H 268.342 -1.15004 5.39887 0
M  V30 2961 H 270.818 -1.97982 3.65981 0
M  V30 2962 H 269.694 -2.99376 4.60071 0
M  V30 2963 H 269.955 -3.3385 2.89821 0
M  V30 2964 N 269.014 -1.53014 -0.377408 0
M  V30 2965 C 270.291 -1.59215 -1.13622 0
M  V30 2966 C 270.671 -0.392407 -2.07421 0
M  V30 2967 O 270.019 0.618342 -2.19975 0
M  V30 2968 C 270.229 -2.93669 -1.88573 0
M  V30 2969 C 271.577 -3.47822 -2.43526 0
M  V30 2970 O 272.601 -2.9562 -1.98715 0
M  V30 2971 O 271.46 -4.39055 -3.25412 0
M  V30 2972 H 268.554 -0.642625 -0.52054 0
M  V30 2973 H 271.1 -1.65353 -0.381625 0
M  V30 2974 H 269.872 -3.7243 -1.20048 0
M  V30 2975 H 269.495 -2.90968 -2.70968 0
M  V30 2976 N 270.492 0.636531 -1.44174 0
M  V30 2977 C 271.74 1.39343 -1.46383 0
M  V30 2978 C 272.061 1.94766 -0.0955715 0
M  V30 2979 O 271.331 1.75452 0.871395 0
M  V30 2980 H 269.911 0.517199 -0.538994 0
M  V30 2981 H 272.573 0.74957 -1.7991 0
M  V30 2982 H 271.669 2.22746 -2.18611 0
M  V30 2983 N 271.97 1.30982 0.876444 0
M  V30 2984 C 272.9 1.20668 1.99903 0
M  V30 2985 C 273.881 0.095354 1.69833 0
M  V30 2986 O 275.066 0.27885 1.92188 0
M  V30 2987 C 272.196 0.90655 3.3526 0
M  V30 2988 C 271.15 1.97675 3.79617 0
M  V30 2989 C 270.476 1.52943 5.1236 0
M  V30 2990 C 271.776 3.389 3.97422 0
M  V30 2991 H 273.47 2.14586 2.0879 0
M  V30 2992 H 271.016 1.03308 1.00317 0
M  V30 2993 H 272.969 0.821025 4.13324 0
M  V30 2994 H 271.693 -0.0682969 3.26529 0
M  V30 2995 H 270.352 2.05205 3.03787 0
M  V30 2996 H 270 0.54262 5.00065 0
M  V30 2997 H 269.7 2.24532 5.43009 0
M  V30 2998 H 271.224 1.45786 5.92941 0
M  V30 2999 H 272.638 3.34081 4.659 0
M  V30 3000 H 271.035 4.0865 4.3946 0
M  V30 3001 H 272.105 3.80163 3.01006 0
M  V30 3002 N 273.449 -1.08991 1.13837 0
M  V30 3003 C 274.379 -2.17771 0.842507 0
M  V30 3004 C 275.36 -1.6892 -0.20001 0
M  V30 3005 O 276.545 -1.94113 -0.0579731 0
M  V30 3006 C 273.675 -3.4589 0.312644 0
M  V30 3007 C 272.629 -4.08099 1.28992 0
M  V30 3008 C 271.955 -5.31098 0.619623 0
M  V30 3009 C 273.255 -4.50077 2.65005 0
M  V30 3010 H 274.949 -2.42777 1.75213 0
M  V30 3011 H 272.495 -1.16682 0.843875 0
M  V30 3012 H 274.448 -4.21297 0.0933043 0
M  V30 3013 H 273.172 -3.20419 -0.632382 0
M  V30 3014 H 271.831 -3.34717 1.49533 0
M  V30 3015 H 271.479 -5.0191 -0.33102 0
M  V30 3016 H 271.179 -5.73674 1.27167 0
M  V30 3017 H 272.703 -6.09224 0.409669 0
M  V30 3018 H 274.117 -5.16688 2.48407 0
M  V30 3019 H 272.514 -5.03553 3.26427 0
M  V30 3020 H 273.584 -3.62257 3.22332 0
M  V30 3021 N 274.927 -0.932562 -1.27047 0
M  V30 3022 C 275.875 -0.42603 -2.28665 0
M  V30 3023 C 276.869 0.49219 -1.62092 0
M  V30 3024 O 278.075 0.371355 -1.76128 0
M  V30 3025 H 274.45 -0.119213 -0.742491 0
M  V30 3026 H 276.421 -1.29579 -2.68797 0
M  V30 3027 C 275.17 0.301426 -3.46391 0
M  V30 3028 H 274.493 -0.39595 -3.97834 0
M  V30 3029 H 275.933 0.6202 -4.1944 0
M  V30 3030 C 274.392 1.51616 -3.00856 0
M  V30 3031 O 274.922 2.61476 -3.04948 0
M  V30 3032 N 273.128 1.36969 -2.56296 0
M  V30 3033 H 272.675 0.475873 -2.53166 0
M  V30 3034 H 272.633 2.18368 -2.26192 0
M  V30 3035 N 276.405 1.4127 -0.698611 0
M  V30 3036 C 277.368 2.29158 -0.044132 0
M  V30 3037 C 278.368 1.44529 0.704841 0
M  V30 3038 O 279.558 1.65643 0.539276 0
M  V30 3039 C 276.69 3.27459 0.947809 0
M  V30 3040 H 277.883 2.88529 -0.817994 0
M  V30 3041 H 275.436 1.49307 -0.46228 0
M  V30 3042 H 276.171 2.73073 1.74933 0
M  V30 3043 H 275.956 3.8991 0.41385 0
M  V30 3044 H 277.446 3.93311 1.40344 0
M  V30 3045 N 277.883 0.443576 1.51229 0
M  V30 3046 C 278.833 -0.382787 2.24764 0
M  V30 3047 C 279.817 -0.984836 1.27239 0
M  V30 3048 O 281.009 -0.901943 1.52296 0
M  V30 3049 C 278.138 -1.47989 3.09765 0
M  V30 3050 C 277.224 -0.886931 4.14722 0
M  V30 3051 N 277.615 -0.0237103 5.05794 0
M  V30 3052 C 275.913 -1.15385 4.30816 0
M  V30 3053 C 276.614 0.309971 5.80874 0
M  V30 3054 N 275.59 -0.307989 5.42727 0
M  V30 3055 H 279.392 0.282624 2.92538 0
M  V30 3056 H 276.906 0.256027 1.60369 0
M  V30 3057 H 278.903 -2.08482 3.61027 0
M  V30 3058 H 277.563 -2.14758 2.43535 0
M  V30 3059 H 278.574 0.34318 5.16762 0
M  V30 3060 H 275.251 -1.81857 3.75812 0
M  V30 3061 H 276.641 1.01279 6.64223 0
M  V30 3062 N 279.361 -1.56624 0.175154 0
M  V30 3063 C 280.777 -1.58571 -0.180966 0
M  V30 3064 C 280.977 -1.19065 -1.6256 0
M  V30 3065 O 280.033 -0.904044 -2.35761 0
M  V30 3066 C 281.346 -3.00522 0.103326 0
M  V30 3067 C 282.894 -3.12972 0.0418426 0
M  V30 3068 C 283.369 -4.57022 0.299175 0
M  V30 3069 N 284.86 -4.62541 0.247086 0
M  V30 3070 C 285.595 -5.71857 0.420318 0
M  V30 3071 N 285.091 -6.89717 0.652816 0
M  V30 3072 N 286.884 -5.60972 0.355957 0
M  V30 3073 H 279.035 -1.80589 1.11809 0
M  V30 3074 H 281.298 -0.837178 0.444788 0
M  V30 3075 H 281.004 -3.33916 1.10422 0
M  V30 3076 H 280.878 -3.72344 -0.603299 0
M  V30 3077 H 283.265 -2.79403 -0.949636 0
M  V30 3078 H 283.346 -2.43578 0.781238 0
M  V30 3079 H 282.99 -4.913 1.28788 0
M  V30 3080 H 282.92 -5.24579 -0.460876 0
M  V30 3081 H 285.411 -3.77829 0.0731895 0
M  V30 3082 H 285.724 -7.68911 0.774347 0
M  V30 3083 H 284.069 -6.91572 0.689476 0
M  V30 3084 H 287.26 -4.67773 0.174882 0
M  V30 3085 H 287.433 -6.46111 0.494388 0
M  V30 3086 N 280.839 0.0985539 -1.57292 0
M  V30 3087 C 282.255 0.45267 -1.53046 0
M  V30 3088 C 282.455 1.80713 -0.891342 0
M  V30 3089 O 281.511 2.4785 -0.482375 0
M  V30 3090 C 282.824 0.418341 -2.97776 0
M  V30 3091 C 284.372 0.500443 -3.08973 0
M  V30 3092 C 284.847 0.496297 -4.55303 0
M  V30 3093 N 286.338 0.557151 -4.59837 0
M  V30 3094 C 287.073 0.575726 -5.70502 0
M  V30 3095 N 286.569 0.550714 -6.90608 0
M  V30 3096 N 288.362 0.620277 -5.58667 0
M  V30 3097 H 280.513 -0.788673 -1.97215 0
M  V30 3098 H 282.776 -0.293188 -0.901524 0
M  V30 3099 H 282.482 -0.509659 -3.47988 0
M  V30 3100 H 282.356 1.2386 -3.56284 0
M  V30 3101 H 284.743 1.41886 -2.58751 0
M  V30 3102 H 284.824 -0.347894 -2.53423 0
M  V30 3103 H 284.468 -0.418162 -5.06176 0
M  V30 3104 H 284.398 1.3618 -5.08687 0
M  V30 3105 H 286.889 0.581816 -3.73394 0
M  V30 3106 H 287.202 0.568075 -7.70709 0
M  V30 3107 H 285.547 0.517816 -6.93068 0
M  V30 3108 H 288.738 0.637322 -4.63741 0
M  V30 3109 H 288.911 0.631283 -6.44918 0
M  V30 3110 N 282.317 1.53212 0.369288 0
M  V30 3111 C 283.265 1.80054 1.47253 0
M  V30 3112 C 284.259 0.669456 1.55611 0
M  V30 3113 O 285.465 0.852328 1.58541 0
M  V30 3114 H 281.84 0.570034 0.490475 0
M  V30 3115 H 283.811 2.72403 1.21817 0
M  V30 3116 C 282.56 2.00403 2.84137 0
M  V30 3117 H 281.883 2.86876 2.78464 0
M  V30 3118 H 283.323 2.23164 3.60519 0
M  V30 3119 C 281.782 0.782081 3.27697 0
M  V30 3120 O 282.312 -0.0310205 4.01688 0
M  V30 3121 N 280.518 0.606573 2.84199 0
M  V30 3122 H 280.065 1.26939 2.24152 0
M  V30 3123 H 280.023 -0.20962 3.137 0
M  V30 3124 N 283.795 -0.628877 1.44509 0
M  V30 3125 C 284.758 -1.72263 1.51188 0
M  V30 3126 C 285.758 -1.55907 0.39367 0
M  V30 3127 O 286.948 -1.61361 0.656377 0
M  V30 3128 C 284.08 -3.11365 1.38798 0
M  V30 3129 H 285.273 -1.67714 2.4862 0
M  V30 3130 H 282.826 -0.842737 1.31634 0
M  V30 3131 H 283.561 -3.21507 0.424693 0
M  V30 3132 H 283.346 -3.24644 2.19884 0
M  V30 3133 H 284.836 -3.91075 1.46458 0
M  V30 3134 N 285.273 -1.31445 -0.869486 0
M  V30 3135 C 286.223 -1.15731 -1.96444 0
M  V30 3136 C 287.207 -0.0681855 -1.60755 0
M  V30 3137 O 288.399 -0.293154 -1.74555 0
M  V30 3138 C 285.528 -0.867255 -3.32165 0
M  V30 3139 C 284.614 -1.99738 -3.74119 0
M  V30 3140 N 285.005 -3.24447 -3.88031 0
M  V30 3141 C 283.303 -1.89723 -4.03635 0
M  V30 3142 C 284.004 -3.98374 -4.23879 0
M  V30 3143 N 282.98 -3.26547 -4.3459 0
M  V30 3144 H 286.782 -2.10296 -2.05312 0
M  V30 3145 H 284.296 -1.23009 -1.06031 0
M  V30 3146 H 286.293 -0.735668 -4.10358 0
M  V30 3147 H 284.953 0.0701614 -3.24624 0
M  V30 3148 H 285.964 -3.59557 -3.72746 0
M  V30 3149 H 282.641 -1.03449 -4.04481 0
M  V30 3150 H 284.031 -5.05844 -4.42235 0
M  V30 3151 N 286.751 1.08385 -1.14413 0
M  V30 3152 C 287.997 1.81044 -0.913834 0
M  V30 3153 C 288.33 1.86004 0.558209 0
M  V30 3154 O 287.605 1.33606 1.4135 0
M  V30 3155 C 287.888 3.26648 -1.51569 0
M  V30 3156 C 287.741 3.29895 -3.0576 0
M  V30 3157 C 289.06 4.23629 -1.19273 0
M  V30 3158 H 286.179 0.65727 -0.333414 0
M  V30 3159 H 288.821 1.26896 -1.41412 0
M  V30 3160 H 286.971 3.72889 -1.09023 0
M  V30 3161 H 288.643 2.91977 -3.57137 0
M  V30 3162 H 286.886 2.69163 -3.40197 0
M  V30 3163 H 287.557 4.32516 -3.42977 0
M  V30 3164 H 290.033 3.85727 -1.56057 0
M  V30 3165 H 288.909 5.23822 -1.64017 0
M  V30 3166 H 289.17 4.41968 -0.108068 0
M  V30 3167 N 288.23 0.939286 1.26551 0
M  V30 3168 C 289.641 0.628782 1.75793 0
M  V30 3169 C 289.992 -0.856046 1.7654 0
M  V30 3170 O 289.117 -1.66994 1.3763 0
M  V30 3171 C 289.712 1.13465 3.19235 0
M  V30 3172 C 288.271 0.874601 3.66098 0
M  V30 3173 C 287.418 1.28667 2.45642 0
M  V30 3174 H 290.369 1.1178 1.12654 0
M  V30 3175 H 290.39 0.487609 3.77363 0
M  V30 3176 H 289.902 2.21535 3.1866 0
M  V30 3177 H 288.003 -0.191793 3.72106 0
M  V30 3178 H 288.116 1.50028 4.55004 0
M  V30 3179 H 286.48 0.705109 2.44745 0
M  V30 3180 H 287.263 2.37625 2.47769 0
M  V30 3181 N 289.708 -1.40897 0.706093 0
M  V30 3182 C 290.638 -2.33418 0.0620085 0
M  V30 3183 C 291.619 -1.52385 -0.755827 0
M  V30 3184 O 292.804 -1.80886 -0.706674 0
M  V30 3185 C 289.934 -3.36293 -0.867445 0
M  V30 3186 C 288.888 -4.27716 -0.155932 0
M  V30 3187 C 288.214 -5.2105 -1.20046 0
M  V30 3188 C 289.514 -5.12944 0.984149 0
M  V30 3189 H 291.208 -2.87527 0.83477 0
M  V30 3190 H 288.754 -1.38249 0.402875 0
M  V30 3191 H 290.707 -3.99949 -1.32735 0
M  V30 3192 H 289.431 -2.80556 -1.67199 0
M  V30 3193 H 288.09 -3.65498 0.284047 0
M  V30 3194 H 287.738 -4.61624 -1.99781 0
M  V30 3195 H 287.438 -5.83056 -0.729328 0
M  V30 3196 H 288.962 -5.87584 -1.66066 0
M  V30 3197 H 290.376 -5.70109 0.604048 0
M  V30 3198 H 288.773 -5.83945 1.38304 0
M  V30 3199 H 289.843 -4.49485 1.81911 0
M  V30 3200 N 291.186 -0.45159 -1.50991 0
M  V30 3201 C 292.432 0.102439 -2.03142 0
M  V30 3202 C 292.787 1.39138 -1.32884 0
M  V30 3203 O 292.08 1.86493 -0.439438 0
M  V30 3204 C 292.274 0.361728 -3.55565 0
M  V30 3205 C 292.103 -0.900535 -4.40591 0
M  V30 3206 C 290.873 -1.43821 -4.844 0
M  V30 3207 C 293.071 -1.79063 -4.82121 0
M  V30 3208 N 291.053 -2.65153 -5.53685 0
M  V30 3209 C 292.424 -2.84991 -5.50618 0
M  V30 3210 C 294.479 -1.80334 -4.64095 0
M  V30 3211 C 293.182 -3.92155 -6.02998 0
M  V30 3212 C 295.208 -2.86442 -5.17402 0
M  V30 3213 C 294.57 -3.9109 -5.85857 0
M  V30 3214 H 290.669 -0.00204537 -0.781997 0
M  V30 3215 H 293.253 -0.615446 -1.84717 0
M  V30 3216 H 291.424 1.04865 -3.73976 0
M  V30 3217 H 293.156 0.908372 -3.94374 0
M  V30 3218 H 289.911 -0.990117 -4.63135 0
M  V30 3219 H 290.335 -3.26717 -5.92946 0
M  V30 3220 H 294.977 -1.00753 -4.1062 0
M  V30 3221 H 292.695 -4.72565 -6.55521 0
M  V30 3222 H 296.281 -2.88386 -5.05297 0
M  V30 3223 H 295.161 -4.71845 -6.26364 0
M  V30 3224 N 292.664 1.56529 -0.183458 0
M  V30 3225 C 293.612 2.19873 0.758845 0
M  V30 3226 C 294.606 1.16638 1.22849 0
M  V30 3227 O 295.812 1.3481 1.19274 0
M  V30 3228 H 292.187 0.7045 0.263029 0
M  V30 3229 H 294.158 2.97724 0.200755 0
M  V30 3230 C 292.907 2.86314 1.9728 0
M  V30 3231 H 292.23 3.65487 1.62047 0
M  V30 3232 H 293.67 3.3409 2.61075 0
M  V30 3233 C 292.129 1.86729 2.80418 0
M  V30 3234 O 292.659 1.36031 3.77966 0
M  V30 3235 N 290.865 1.55216 2.45675 0
M  V30 3236 H 290.412 1.96636 1.66409 0
M  V30 3237 H 290.37 0.888388 3.01588 0
M  V30 3238 N 294.142 -0.090211 1.57342 0
M  V30 3239 C 295.372 -0.805055 1.90269 0
M  V30 3240 C 295.78 -1.72561 0.775842 0
M  V30 3241 O 295.123 -1.81839 -0.260843 0
M  V30 3242 C 295.185 -1.66734 3.18497 0
M  V30 3243 C 294.849 -0.918092 4.47683 0
M  V30 3244 C 295.846 -0.245674 5.19319 0
M  V30 3245 C 293.531 -0.890724 4.94339 0
M  V30 3246 C 295.525 0.444088 6.35851 0
M  V30 3247 C 293.212 -0.197179 6.10782 0
M  V30 3248 C 294.21 0.469044 6.81388 0
M  V30 3249 O 293.898 1.15146 7.95611 0
M  V30 3250 H 293.63 -0.235143 0.633785 0
M  V30 3251 H 296.184 -0.0703805 2.05279 0
M  V30 3252 H 294.414 -2.44437 2.99646 0
M  V30 3253 H 296.103 -2.25919 3.37217 0
M  V30 3254 H 296.869 -0.258246 4.84312 0
M  V30 3255 H 292.748 -1.39873 4.39268 0
M  V30 3256 H 296.292 0.964667 6.90898 0
M  V30 3257 H 292.189 -0.18247 6.45242 0
M  V30 3258 H 292.957 1.05885 8.11622 0
M  V30 3259 N 295.62 -1.53406 -0.361157 0
M  V30 3260 C 296.583 -1.79479 -1.42548 0
M  V30 3261 C 297.583 -0.665327 -1.4639 0
M  V30 3262 O 298.773 -0.933549 -1.47073 0
M  V30 3263 C 295.905 -1.92087 -2.8163 0
M  V30 3264 H 297.098 -2.74538 -1.20701 0
M  V30 3265 H 294.651 -1.4455 -0.594546 0
M  V30 3266 H 295.386 -0.991099 -3.08784 0
M  V30 3267 H 295.171 -2.74241 -2.80239 0
M  V30 3268 H 296.661 -2.13836 -3.58697 0
M  V30 3269 N 297.098 0.621204 -1.44841 0
M  V30 3270 C 298.344 1.3826 -1.48365 0
M  V30 3271 C 298.677 1.93831 -0.119624 0
M  V30 3272 O 297.952 1.74251 0.864111 0
M  V30 3273 C 298.235 2.54058 -2.55199 0
M  V30 3274 C 298.088 2.03772 -4.00995 0
M  V30 3275 C 299.407 3.56225 -2.58442 0
M  V30 3276 H 296.526 0.501374 -0.540179 0
M  V30 3277 H 299.168 0.7015 -1.76576 0
M  V30 3278 H 297.318 3.12162 -2.31274 0
M  V30 3279 H 298.99 1.50423 -4.36086 0
M  V30 3280 H 297.233 1.34876 -4.12299 0
M  V30 3281 H 297.904 2.87185 -4.71411 0
M  V30 3282 H 300.38 3.07939 -2.79844 0
M  V30 3283 H 299.256 4.34756 -3.3508 0
M  V30 3284 H 299.517 4.10949 -1.63013 0
M  V30 3285 N 298.576 1.31904 0.862503 0
M  V30 3286 C 299.506 1.22782 1.98612 0
M  V30 3287 C 300.487 0.113362 1.69722 0
M  V30 3288 O 301.672 0.299218 1.91881 0
M  V30 3289 C 298.802 0.942058 3.34279 0
M  V30 3290 C 297.756 2.0169 3.77499 0
M  V30 3291 C 297.082 1.58369 5.10709 0
M  V30 3292 C 298.382 3.43096 3.93805 0
M  V30 3293 H 300.076 2.16788 2.06502 0
M  V30 3294 H 297.622 1.04366 0.992154 0
M  V30 3295 H 299.575 0.864818 4.1243 0
M  V30 3296 H 298.299 -0.0336603 3.26583 0
M  V30 3297 H 296.958 2.08416 3.01593 0
M  V30 3298 H 296.606 0.595628 4.99461 0
M  V30 3299 H 296.306 2.30279 5.40597 0
M  V30 3300 H 297.83 1.52067 5.91361 0
M  V30 3301 H 299.244 3.39003 4.62331 0
M  V30 3302 H 297.641 4.13288 4.35101 0
M  V30 3303 H 298.711 3.83334 2.96957 0
M  V30 3304 N 300.054 -1.07777 1.14986 0
M  V30 3305 C 301.47 -1.32373 0.891596 0
M  V30 3306 C 301.67 -1.9609 -0.463788 0
M  V30 3307 O 300.726 -2.21801 -1.20667 0
M  V30 3308 C 302.039 -2.21905 2.02925 0
M  V30 3309 C 303.587 -2.35367 2.06329 0
M  V30 3310 C 304.062 -3.28245 3.19405 0
M  V30 3311 N 305.553 -3.35824 3.19024 0
M  V30 3312 C 306.288 -4.07739 4.03158 0
M  V30 3313 N 305.784 -4.82306 4.97346 0
M  V30 3314 N 307.577 -4.03635 3.91197 0
M  V30 3315 H 299.728 -0.648039 2.02273 0
M  V30 3316 H 301.991 -0.348149 0.881757 0
M  V30 3317 H 301.697 -1.82342 3.0074 0
M  V30 3318 H 301.571 -3.22407 1.95789 0
M  V30 3319 H 303.958 -2.74186 1.09116 0
M  V30 3320 H 304.039 -1.34585 2.17533 0
M  V30 3321 H 303.683 -2.90146 4.16867 0
M  V30 3322 H 303.613 -4.28971 3.05437 0
M  V30 3323 H 306.104 -2.8267 2.50811 0
M  V30 3324 H 306.417 -5.34661 5.57994 0
M  V30 3325 H 304.762 -4.81337 5.01338 0
M  V30 3326 H 307.953 -3.44491 3.16928 0
M  V30 3327 H 308.126 -4.59417 4.5699 0
M  V30 3328 N 301.532 -0.945985 -1.26051 0
M  V30 3329 C 302.78 -0.594941 -1.93145 0
M  V30 3330 C 303.101 0.86953 -1.7454 0
M  V30 3331 O 302.371 1.61838 -1.10387 0
M  V30 3332 H 300.951 -0.217044 -0.714773 0
M  V30 3333 H 303.613 -1.20235 -1.53393 0
M  V30 3334 H 302.709 -0.816835 -3.01221 0
M  V30 3335 N 303.011 1.40521 -0.713556 0
M  V30 3336 C 303.943 2.29191 -0.0203126 0
M  V30 3337 C 304.956 1.45723 0.725864 0
M  V30 3338 O 306.145 1.69033 0.573581 0
M  V30 3339 C 303.245 3.2395 0.995486 0
M  V30 3340 C 302.418 4.36262 0.315256 0
M  V30 3341 C 301.477 5.11474 1.23616 0
M  V30 3342 O 300.503 5.64606 0.721719 0
M  V30 3343 N 301.705 5.20638 2.56743 0
M  V30 3344 H 304.47 2.89327 -0.781652 0
M  V30 3345 H 302.031 1.51869 -0.561022 0
M  V30 3346 H 304.023 3.71137 1.61368 0
M  V30 3347 H 302.593 2.64995 1.6582 0
M  V30 3348 H 301.813 3.91228 -0.483106 0
M  V30 3349 H 303.101 5.08558 -0.157004 0
M  V30 3350 H 302.499 4.7895 3.01037 0
M  V30 3351 H 301.056 5.71339 3.13712 0
M  V30 3352 N 304.489 0.459591 1.5075 0
M  V30 3353 C 305.738 -0.100971 2.01447 0
M  V30 3354 C 306.051 -1.41816 1.34713 0
M  V30 3355 O 307.257 -2.06299 1.76502 0
M  V30 3356 C 305.713 -0.23047 3.59161 0
M  V30 3357 C 305.321 1.0776 4.34847 0
M  V30 3358 C 307.065 -0.743608 4.17936 0
M  V30 3359 C 304.972 0.91253 5.84317 0
M  V30 3360 H 303.902 -0.0415102 0.752856 0
M  V30 3361 H 306.553 0.592742 1.73663 0
M  V30 3362 H 304.935 -0.987703 3.83485 0
M  V30 3363 H 306.109 1.8449 4.22256 0
M  V30 3364 H 304.424 1.52097 3.87628 0
M  V30 3365 H 307.021 -0.883959 5.27343 0
M  V30 3366 H 307.364 -1.73196 3.78562 0
M  V30 3367 H 307.897 -0.04408 3.97776 0
M  V30 3368 H 304.636 1.87391 6.28144 0
M  V30 3369 H 304.156 0.185422 5.99513 0
M  V30 3370 H 305.835 0.574547 6.44444 0
M  V30 3371 N 305.967 -1.56429 0.191757 0
M  V30 3372 C 307.214 -1.97485 -0.447891 0
M  V30 3373 C 307.542 -1.07852 -1.61859 0
M  V30 3374 O 306.797 -0.116903 -1.95351 0
M  V30 3375 C 307.096 -3.44449 -0.953384 0
M  V30 3376 C 306.762 -4.50781 0.103586 0
M  V30 3377 C 305.424 -4.79584 0.394023 0
M  V30 3378 C 307.776 -5.1471 0.819946 0
M  V30 3379 C 305.104 -5.69607 1.40585 0
M  V30 3380 C 307.456 -6.05827 1.8209 0
M  V30 3381 C 306.12 -6.32987 2.11857 0
M  V30 3382 H 305.39 -0.722648 -0.163895 0
M  V30 3383 H 308.037 -1.89322 0.28802 0
M  V30 3384 H 306.342 -3.49666 -1.76751 0
M  V30 3385 H 308.039 -3.73569 -1.45765 0
M  V30 3386 H 304.629 -4.28394 -0.132951 0
M  V30 3387 H 308.813 -4.92552 0.608789 0
M  V30 3388 H 304.069 -5.88926 1.64243 0
M  V30 3389 H 308.243 -6.54424 2.38123 0
M  V30 3390 H 305.87 -7.02544 2.90407 0
M  V30 3391 N 307.445 0.0818655 -1.57387 0
M  V30 3392 C 308.694 0.781681 -1.85937 0
M  V30 3393 C 309.007 1.79246 -0.782957 0
M  V30 3394 O 310.213 2.54112 -0.955987 0
M  V30 3395 C 308.669 1.44109 -3.29789 0
M  V30 3396 C 308.277 0.469396 -4.45534 0
M  V30 3397 C 310.021 2.12386 -3.67549 0
M  V30 3398 C 307.928 1.13415 -5.80423 0
M  V30 3399 H 306.858 0.295682 -0.693605 0
M  V30 3400 H 309.509 0.0348051 -1.83467 0
M  V30 3401 H 307.891 2.23588 -3.2684 0
M  V30 3402 H 309.065 -0.294856 -4.59856 0
M  V30 3403 H 307.38 -0.108383 -4.16259 0
M  V30 3404 H 309.977 2.62878 -4.65617 0
M  V30 3405 H 310.32 2.91877 -2.96839 0
M  V30 3406 H 310.853 1.39751 -3.72444 0
M  V30 3407 H 307.592 0.379771 -6.54399 0
M  V30 3408 H 307.112 1.8695 -5.69921 0
M  V30 3409 H 308.791 1.65686 -6.25426 0
M  V30 3410 N 308.923 1.53595 0.353017 0
M  V30 3411 C 310.169 1.70638 1.09593 0
M  V30 3412 C 310.502 0.463286 1.88593 0
M  V30 3413 O 309.777 -0.539597 1.86865 0
M  V30 3414 C 310.06 2.96406 2.04489 0
M  V30 3415 C 309.913 4.30901 1.29014 0
M  V30 3416 C 311.232 3.17812 3.0444 0
M  V30 3417 H 308.351 0.620913 0.397034 0
M  V30 3418 H 310.993 1.86254 0.375446 0
M  V30 3419 H 309.143 2.83223 2.65927 0
M  V30 3420 H 310.815 4.55917 0.702638 0
M  V30 3421 H 309.058 4.29741 0.592071 0
M  V30 3422 H 309.729 5.1506 1.98537 0
M  V30 3423 H 312.205 3.30263 2.53112 0
M  V30 3424 H 311.081 4.07223 3.6805 0
M  V30 3425 H 311.342 2.33669 3.75301 0
M  V30 3426 N 310.401 -0.613514 1.45168 0
M  V30 3427 C 311.631 -1.39743 1.52169 0
M  V30 3428 C 312.039 -1.88596 0.151086 0
M  V30 3429 O 311.382 -1.6251 -0.856521 0
M  V30 3430 C 311.444 -2.64035 2.43979 0
M  V30 3431 C 311.108 -2.36861 3.90827 0
M  V30 3432 C 312.105 -1.97591 4.80889 0
M  V30 3433 C 309.79 -2.49956 4.35692 0
M  V30 3434 C 311.784 -1.71768 6.1382 0
M  V30 3435 C 309.471 -2.23747 5.68665 0
M  V30 3436 C 310.469 -1.84714 6.57548 0
M  V30 3437 O 310.157 -1.58809 7.88058 0
M  V30 3438 H 309.889 -0.434382 0.517966 0
M  V30 3439 H 312.443 -0.75587 1.90986 0
M  V30 3440 H 310.673 -3.3089 2.00122 0
M  V30 3441 H 312.362 -3.26069 2.41731 0
M  V30 3442 H 313.128 -1.87015 4.47493 0
M  V30 3443 H 309.007 -2.79305 3.66756 0
M  V30 3444 H 312.551 -1.41227 6.83155 0
M  V30 3445 H 308.448 -2.33938 6.01617 0
M  V30 3446 H 309.216 -1.7291 8.00028 0
M  V30 3447 N 311.879 -1.3236 -0.855495 0
M  V30 3448 C 313.126 -1.22872 -1.60962 0
M  V30 3449 C 313.454 0.209658 -1.93367 0
M  V30 3450 O 312.709 1.16243 -1.57436 0
M  V30 3451 C 313.008 -2.03275 -2.93963 0
M  V30 3452 C 312.674 -3.5264 -2.80991 0
M  V30 3453 C 311.336 -3.93364 -2.7716 0
M  V30 3454 C 313.688 -4.47626 -2.66983 0
M  V30 3455 C 311.016 -5.27319 -2.572 0
M  V30 3456 C 313.368 -5.81723 -2.48558 0
M  V30 3457 C 312.032 -6.2165 -2.4312 0
M  V30 3458 H 311.302 -0.44962 -0.589001 0
M  V30 3459 H 313.949 -1.63777 -0.992442 0
M  V30 3460 H 312.254 -1.55095 -3.59795 0
M  V30 3461 H 313.951 -1.93303 -3.51333 0
M  V30 3462 H 310.541 -3.20295 -2.84797 0
M  V30 3463 H 314.725 -4.17084 -2.68988 0
M  V30 3464 H 309.981 -5.57311 -2.51424 0
M  V30 3465 H 314.155 -6.5494 -2.36699 0
M  V30 3466 H 311.782 -7.25388 -2.27412 0
M  V30 3467 N 313.357 1.07166 -1.15556 0
M  V30 3468 C 314.606 1.79181 -0.926132 0
M  V30 3469 C 314.919 1.87768 0.547967 0
M  V30 3470 O 316.125 2.56323 0.895036 0
M  V30 3471 C 314.581 3.22 -1.60761 0
M  V30 3472 C 314.189 3.21607 -3.11886 0
M  V30 3473 C 315.933 3.9861 -1.4598 0
M  V30 3474 C 313.84 4.59092 -3.72812 0
M  V30 3475 H 312.77 0.67154 -0.342856 0
M  V30 3476 H 315.421 1.2027 -1.3859 0
M  V30 3477 H 313.803 3.81115 -1.07553 0
M  V30 3478 H 314.977 2.72127 -3.71865 0
M  V30 3479 H 313.292 2.58495 -3.2645 0
M  V30 3480 H 315.889 5.00225 -1.88888 0
M  V30 3481 H 316.232 4.143 -0.407541 0
M  V30 3482 H 316.765 3.45996 -1.96295 0
M  V30 3483 H 313.504 4.48606 -4.77946 0
M  V30 3484 H 313.024 5.08803 -3.17616 0
M  V30 3485 H 314.703 5.28059 -3.73848 0
M  V30 3486 N 314.835 0.952656 1.25548 0
M  V30 3487 C 315.798 0.475794 2.24207 0
M  V30 3488 C 316.798 -0.419428 1.55234 0
M  V30 3489 O 317.988 -0.216994 1.72843 0
M  V30 3490 C 315.12 -0.312814 3.39462 0
M  V30 3491 H 316.313 1.34779 2.67908 0
M  V30 3492 H 313.866 0.735739 1.37901 0
M  V30 3493 H 314.601 -1.20257 3.01179 0
M  V30 3494 H 314.386 0.329404 3.90714 0
M  V30 3495 H 315.876 -0.635986 4.12729 0
M  V30 3496 N 316.313 -1.40141 0.720998 0
M  V30 3497 C 317.561 -2.0039 0.262323 0
M  V30 3498 C 317.882 -1.57469 -1.15015 0
M  V30 3499 O 317.152 -0.816582 -1.78069 0
M  V30 3500 H 315.732 -0.741063 0.093996 0
M  V30 3501 H 318.394 -1.71398 0.927835 0
M  V30 3502 H 317.49 -3.10658 0.299671 0
M  V30 3503 N 317.792 -0.46758 -1.50504 0
M  V30 3504 C 319.038 0.0887532 -2.02606 0
M  V30 3505 C 319.371 1.39686 -1.34913 0
M  V30 3506 O 318.646 1.88644 -0.473694 0
M  V30 3507 C 318.929 0.276206 -3.59039 0
M  V30 3508 C 318.782 -1.05267 -4.37309 0
M  V30 3509 C 320.101 1.03235 -4.27821 0
M  V30 3510 H 317.22 0.0307814 -0.736357 0
M  V30 3511 H 319.862 -0.612485 -1.79857 0
M  V30 3512 H 318.012 0.8735 -3.78553 0
M  V30 3513 H 319.684 -1.68628 -4.29374 0
M  V30 3514 H 317.927 -1.65015 -4.01189 0
M  V30 3515 H 318.598 -0.875197 -5.45018 0
M  V30 3516 H 321.074 0.526111 -4.12761 0
M  V30 3517 H 319.95 1.1323 -5.37094 0
M  V30 3518 H 320.211 2.06806 -3.90748 0
M  V30 3519 N 319.27 1.56325 -0.20005 0
M  V30 3520 C 320.217 2.1932 0.718833 0
M  V30 3521 C 321.187 1.14198 1.20615 0
M  V30 3522 O 322.372 1.42469 1.26914 0
M  V30 3523 C 319.512 2.86041 1.93066 0
M  V30 3524 C 318.625 4.05702 1.48425 0
M  V30 3525 C 317.76 4.60266 2.65196 0
M  V30 3526 C 316.799 5.72273 2.17185 0
M  V30 3527 N 315.936 6.21221 3.27152 0
M  V30 3528 H 320.776 2.97486 0.17489 0
M  V30 3529 H 318.313 1.46911 0.0745794 0
M  V30 3530 H 320.271 3.22897 2.64184 0
M  V30 3531 H 318.901 2.1043 2.44783 0
M  V30 3532 H 317.953 3.74475 0.668755 0
M  V30 3533 H 319.265 4.86699 1.09204 0
M  V30 3534 H 318.419 4.99453 3.4443 0
M  V30 3535 H 317.158 3.78386 3.07693 0
M  V30 3536 H 316.163 5.3261 1.36407 0
M  V30 3537 H 317.388 6.55974 1.75713 0
M  V30 3538 H 315.334 5.42263 3.69171 0
M  V30 3539 H 315.251 6.97284 2.92116 0
M  V30 3540 H 316.519 6.65063 4.06585 0
M  V30 3541 N 320.748 -0.0735177 1.57428 0
M  V30 3542 C 321.695 -1.08756 2.0357 0
M  V30 3543 C 322.665 -1.38559 0.916 0
M  V30 3544 O 323.85 -1.49656 1.18354 0
M  V30 3545 C 320.99 -2.39657 2.48311 0
M  V30 3546 C 320.103 -2.16399 3.73892 0
M  V30 3547 C 319.238 -3.40852 4.07423 0
M  V30 3548 C 318.277 -3.1295 5.2605 0
M  V30 3549 N 317.414 -4.29729 5.55228 0
M  V30 3550 H 322.254 -0.687104 2.8997 0
M  V30 3551 H 319.791 -0.327709 1.43403 0
M  V30 3552 H 321.749 -3.16081 2.72303 0
M  V30 3553 H 320.379 -2.77508 1.64891 0
M  V30 3554 H 319.431 -1.30676 3.57251 0
M  V30 3555 H 320.743 -1.91788 4.60455 0
M  V30 3556 H 319.897 -4.25671 4.32306 0
M  V30 3557 H 318.636 -3.68537 3.19425 0
M  V30 3558 H 317.641 -2.26526 5.00965 0
M  V30 3559 H 318.866 -2.86589 6.15665 0
M  V30 3560 H 316.812 -4.57448 4.70188 0
M  V30 3561 H 316.729 -4.08385 6.36206 0
M  V30 3562 H 317.997 -5.1555 5.84661 0
M  V30 3563 N 322.226 -1.5378 -0.344866 0
M  V30 3564 C 323.156 -1.84662 -1.42906 0
M  V30 3565 C 324.137 -0.701648 -1.54955 0
M  V30 3566 O 325.322 -0.953438 -1.69184 0
M  V30 3567 C 322.452 -2.05503 -2.79974 0
M  V30 3568 C 321.406 -3.21318 -2.82734 0
M  V30 3569 C 320.732 -3.2749 -4.22675 0
M  V30 3570 C 322.032 -4.59456 -2.48389 0
M  V30 3571 H 323.726 -2.75461 -1.17311 0
M  V30 3572 H 321.272 -1.32542 -0.562896 0
M  V30 3573 H 323.225 -2.25691 -3.55867 0
M  V30 3574 H 321.949 -1.11434 -3.07002 0
M  V30 3575 H 320.608 -3.00984 -2.09294 0
M  V30 3576 H 320.256 -2.31019 -4.4681 0
M  V30 3577 H 319.956 -4.05316 -4.25433 0
M  V30 3578 H 321.48 -3.49887 -5.00412 0
M  V30 3579 H 322.894 -4.79667 -3.13995 0
M  V30 3580 H 321.291 -5.39675 -2.62432 0
M  V30 3581 H 322.361 -4.63155 -1.4358 0
M  V30 3582 N 323.704 0.605807 -1.45491 0
M  V30 3583 C 324.981 1.36522 -1.40075 0
M  V30 3584 C 325.361 2.10976 -0.0722744 0
M  V30 3585 O 324.709 2.08007 0.945808 0
M  V30 3586 C 324.919 2.31056 -2.61561 0
M  V30 3587 C 326.267 2.93608 -3.06724 0
M  V30 3588 O 327.291 2.41376 -2.61946 0
M  V30 3589 O 326.15 3.88421 -3.84437 0
M  V30 3590 H 323.244 0.612248 -0.555951 0
M  V30 3591 H 325.79 0.628747 -1.57623 0
M  V30 3592 H 324.562 1.75311 -3.49831 0
M  V30 3593 H 324.185 3.12081 -2.46356 0
M  V30 3594 N 325.182 1.32811 0.848464 0
M  V30 3595 C 326.145 1.22194 1.9391 0
M  V30 3596 C 327.145 0.143404 1.60159 0
M  V30 3597 O 328.335 0.394253 1.6968 0
M  V30 3598 C 325.467 0.88067 3.29328 0
M  V30 3599 H 326.66 2.19127 2.04752 0
M  V30 3600 H 324.213 1.16731 1.0394 0
M  V30 3601 H 324.948 -0.0865776 3.24184 0
M  V30 3602 H 324.733 1.66052 3.55203 0
M  V30 3603 H 326.223 0.830871 4.09251 0
M  V30 3604 N 326.66 -1.06551 1.16123 0
M  V30 3605 C 327.937 -1.76097 0.85142 0
M  V30 3606 C 328.317 -2.00802 -0.6513 0
M  V30 3607 O 327.665 -1.63302 -1.59827 0
M  V30 3608 C 327.875 -3.06384 1.67122 0
M  V30 3609 C 329.223 -3.80585 1.88255 0
M  V30 3610 O 330.247 -3.16218 1.63966 0
M  V30 3611 O 329.106 -4.96212 2.2899 0
M  V30 3612 H 326.2 -0.765102 0.313923 0
M  V30 3613 H 328.746 -1.12844 1.26745 0
M  V30 3614 H 327.518 -2.84071 2.69108 0
M  V30 3615 H 327.141 -3.77371 1.25206 0
M  V30 3616 N 328.138 -0.959301 -1.25041 0
M  V30 3617 C 329.384 -0.627096 -1.93492 0
M  V30 3618 C 329.739 0.827484 -1.73696 0
M  V30 3619 O 329.032 1.58651 -1.07427 0
M  V30 3620 C 329.226 -0.927136 -3.45165 0
M  V30 3621 C 329.055 -2.40933 -3.79712 0
M  V30 3622 C 327.825 -3.0677 -4.01522 0
M  V30 3623 C 330.023 -3.38894 -3.86853 0
M  V30 3624 N 328.005 -4.44815 -4.231 0
M  V30 3625 C 329.376 -4.62263 -4.13174 0
M  V30 3626 C 331.431 -3.33668 -3.69554 0
M  V30 3627 C 330.134 -5.81052 -4.23995 0
M  V30 3628 C 332.16 -4.518 -3.81616 0
M  V30 3629 C 331.522 -5.73957 -4.08354 0
M  V30 3630 H 327.621 -0.280166 -0.73009 0
M  V30 3631 H 330.205 -1.23244 -1.50729 0
M  V30 3632 H 328.376 -0.350685 -3.86814 0
M  V30 3633 H 330.108 -0.554361 -4.00885 0
M  V30 3634 H 326.863 -2.57327 -3.97593 0
M  V30 3635 H 327.287 -5.16319 -4.37885 0
M  V30 3636 H 331.929 -2.40268 -3.47895 0
M  V30 3637 H 329.647 -6.74888 -4.44468 0
M  V30 3638 H 333.233 -4.49309 -3.69612 0
M  V30 3639 H 332.113 -6.6384 -4.17475 0
M  V30 3640 N 329.616 1.39756 -0.72842 0
M  V30 3641 C 330.862 2.00942 -0.273892 0
M  V30 3642 C 331.195 1.57656 1.13394 0
M  V30 3643 O 330.47 0.802434 1.77176 0
M  V30 3644 C 330.753 3.58211 -0.368346 0
M  V30 3645 C 330.606 4.11534 -1.81548 0
M  V30 3646 C 331.925 4.39372 0.253054 0
M  V30 3647 H 329.044 0.730047 -0.100996 0
M  V30 3648 H 331.686 1.66056 -0.923337 0
M  V30 3649 H 329.836 3.88061 0.184588 0
M  V30 3650 H 331.508 3.92431 -2.42478 0
M  V30 3651 H 329.751 3.65341 -2.33898 0
M  V30 3652 H 330.422 5.20682 -1.83288 0
M  V30 3653 H 332.898 4.15527 -0.218224 0
M  V30 3654 H 331.774 5.48677 0.156585 0
M  V30 3655 H 332.035 4.21358 1.33826 0
M  V30 3656 N 331.094 0.475555 1.50254 0
M  V30 3657 C 332.004 -0.321501 2.32387 0
M  V30 3658 C 333.02 -0.991755 1.42969 0
M  V30 3659 O 334.196 -0.978747 1.76018 0
M  V30 3660 C 331.261 -1.38667 3.17762 0
M  V30 3661 C 330.322 -0.732538 4.23004 0
M  V30 3662 C 329.555 -1.74695 5.04299 0
M  V30 3663 O 329.778 -2.97399 4.86734 0
M  V30 3664 O 328.712 -1.31631 5.8733 0
M  V30 3665 H 332.538 0.350071 3.01676 0
M  V30 3666 H 330.123 0.237321 1.47503 0
M  V30 3667 H 332.005 -2.00354 3.70724 0
M  V30 3668 H 330.68 -2.04163 2.51196 0
M  V30 3669 H 329.587 -0.0765902 3.74022 0
M  V30 3670 H 330.92 -0.120452 4.92053 0
M  V30 3671 N 332.573 -1.56217 0.208337 0
M  V30 3672 C 333.821 -1.97558 -0.426076 0
M  V30 3673 C 334.142 -1.09683 -1.61229 0
M  V30 3674 O 333.412 -0.170956 -1.95153 0
M  V30 3675 H 331.992 -0.729575 -0.160405 0
M  V30 3676 H 334.654 -1.92606 0.298155 0
M  V30 3677 H 333.75 -3.02672 -0.761312 0
M  V30 3678 N 334.051 0.0651679 -1.57465 0
M  V30 3679 C 335.281 0.774683 -1.91526 0
M  V30 3680 C 335.689 1.71305 -0.803196 0
M  V30 3681 O 335.032 1.82231 0.231881 0
M  V30 3682 C 335.094 1.61645 -3.21109 0
M  V30 3683 C 334.758 0.846753 -4.49087 0
M  V30 3684 C 335.755 0.163024 -5.19644 0
M  V30 3685 C 333.44 0.811966 -4.95694 0
M  V30 3686 C 335.434 -0.54519 -6.35064 0
M  V30 3687 C 333.121 0.0999836 -6.11018 0
M  V30 3688 C 334.119 -0.577388 -6.80555 0
M  V30 3689 O 333.807 -1.27789 -7.93678 0
M  V30 3690 H 333.539 0.225031 -0.637446 0
M  V30 3691 H 336.093 0.0377134 -2.05365 0
M  V30 3692 H 334.323 2.39638 -3.03497 0
M  V30 3693 H 336.012 2.20525 -3.40769 0
M  V30 3694 H 336.778 0.181163 -4.84662 0
M  V30 3695 H 332.657 1.32867 -4.41438 0
M  V30 3696 H 336.201 -1.07446 -6.89276 0
M  V30 3697 H 332.098 0.0797945 -6.45451 0
M  V30 3698 H 332.866 -1.18784 -8.09835 0
M  V30 3699 N 335.529 1.53961 0.336706 0
M  V30 3700 C 336.754 1.75797 1.10046 0
M  V30 3701 C 337.179 0.498985 1.81361 0
M  V30 3702 O 336.537 -0.548769 1.72795 0
M  V30 3703 C 336.585 2.94257 2.08436 0
M  V30 3704 O 335.689 2.64883 3.16087 0
M  V30 3705 H 335.03 0.582936 0.317934 0
M  V30 3706 H 337.56 2.00945 0.38501 0
M  V30 3707 H 337.57 3.21237 2.51537 0
M  V30 3708 H 336.245 3.85564 1.55927 0
M  V30 3709 H 334.822 2.48812 2.77753 0
M  V30 3710 N 337.007 -0.598083 1.45811 0
M  V30 3711 C 337.94 -1.7223 1.49706 0
M  V30 3712 C 338.918 -1.58732 0.352535 0
M  V30 3713 O 340.102 -1.80162 0.554438 0
M  V30 3714 C 337.229 -3.10148 1.3611 0
M  V30 3715 C 336.275 -3.42209 2.54549 0
M  V30 3716 S 337.108 -3.35989 4.16979 0
M  V30 3717 C 338.264 -4.76471 4.05865 0
M  V30 3718 H 338.497 -1.68665 2.44826 0
M  V30 3719 H 336.03 -0.775541 1.33509 0
M  V30 3720 H 337.988 -3.8972 1.28953 0
M  V30 3721 H 336.649 -3.11219 0.424451 0
M  V30 3722 H 335.842 -4.42652 2.40988 0
M  V30 3723 H 335.444 -2.70173 2.58617 0
M  V30 3724 H 337.736 -5.665 3.71596 0
M  V30 3725 H 338.679 -4.95089 5.06253 0
M  V30 3726 H 339.087 -4.52599 3.37364 0
M  V30 3727 N 338.485 -1.33259 -0.841409 0
M  V30 3728 C 339.395 -1.25332 -1.98316 0
M  V30 3729 C 340.411 -0.164364 -1.73222 0
M  V30 3730 O 341.587 -0.387486 -1.97637 0
M  V30 3731 C 338.652 -0.990078 -3.32262 0
M  V30 3732 C 337.713 -2.16879 -3.70489 0
M  V30 3733 C 336.946 -1.91801 -4.98044 0
M  V30 3734 O 337.169 -0.867075 -5.63771 0
M  V30 3735 O 336.103 -2.78267 -5.33714 0
M  V30 3736 H 339.929 -2.21344 -2.07944 0
M  V30 3737 H 337.514 -1.1328 -0.974058 0
M  V30 3738 H 339.396 -0.860321 -4.12524 0
M  V30 3739 H 338.071 -0.0602155 -3.23644 0
M  V30 3740 H 336.978 -2.35407 -2.90748 0
M  V30 3741 H 338.311 -3.0819 -3.8377 0
M  V30 3742 N 339.963 1.05934 -1.16686 0
M  V30 3743 C 341.193 1.82226 -0.973515 0
M  V30 3744 C 341.601 1.8297 0.481532 0
M  V30 3745 O 340.944 1.25009 1.34604 0
M  V30 3746 C 341.006 3.29897 -1.42858 0
M  V30 3747 C 340.67 3.52849 -2.90425 0
M  V30 3748 C 341.667 3.45595 -3.88407 0
M  V30 3749 C 339.352 3.80053 -3.28428 0
M  V30 3750 C 341.346 3.65217 -5.22394 0
M  V30 3751 C 339.033 3.99325 -4.62583 0
M  V30 3752 C 340.031 3.91905 -5.59374 0
M  V30 3753 O 339.719 4.10647 -6.91104 0
M  V30 3754 H 339.451 0.581314 -0.345036 0
M  V30 3755 H 342.005 1.3453 -1.55212 0
M  V30 3756 H 340.235 3.78472 -0.793477 0
M  V30 3757 H 341.924 3.87692 -1.20207 0
M  V30 3758 H 342.69 3.24564 -3.60393 0
M  V30 3759 H 338.569 3.84936 -2.53664 0
M  V30 3760 H 342.113 3.59341 -5.9793 0
M  V30 3761 H 338.01 4.19846 -4.90306 0
M  V30 3762 H 338.778 4.27915 -6.97733 0
M  V30 3763 N 341.441 0.965919 1.2453 0
M  V30 3764 C 342.371 0.513476 2.27784 0
M  V30 3765 C 343.352 -0.445974 1.6415 0
M  V30 3766 O 344.537 -0.342485 1.91156 0
M  V30 3767 C 341.667 -0.198839 3.4673 0
M  V30 3768 C 340.621 0.676456 4.2262 0
M  V30 3769 C 339.947 -0.167248 5.34438 0
M  V30 3770 C 341.247 1.96017 4.84123 0
M  V30 3771 H 342.941 1.3765 2.65881 0
M  V30 3772 H 340.487 0.663321 1.27813 0
M  V30 3773 H 342.44 -0.526567 4.18097 0
M  V30 3774 H 341.164 -1.0962 3.07654 0
M  V30 3775 H 339.823 0.98743 3.53052 0
M  V30 3776 H 339.471 -1.0647 4.91603 0
M  V30 3777 H 339.171 0.415181 5.86131 0
M  V30 3778 H 340.695 -0.489688 6.08633 0
M  V30 3779 H 342.109 1.69814 5.47573 0
M  V30 3780 H 340.506 2.48918 5.4604 0
M  V30 3781 H 341.576 2.65622 4.05676 0
M  V30 3782 N 342.919 -1.39368 0.735821 0
M  V30 3783 C 344.144 -2.05319 0.293052 0
M  V30 3784 C 344.569 -1.55115 -1.064 0
M  V30 3785 O 343.927 -0.695261 -1.67439 0
M  V30 3786 C 343.975 -3.59305 0.305323 0
M  V30 3787 O 343.079 -4.06299 -0.706761 0
M  V30 3788 H 342.42 -0.650529 0.13307 0
M  V30 3789 H 344.95 -1.78386 1.00197 0
M  V30 3790 H 344.96 -4.07724 0.149997 0
M  V30 3791 H 343.635 -3.95207 1.29553 0
M  V30 3792 H 342.212 -3.69292 -0.517504 0
M  V30 3793 N 344.397 -0.483516 -1.5 0
M  V30 3794 C 345.813 -0.138404 -1.58999 0
M  V30 3795 C 346.013 1.35597 -1.4905 0
M  V30 3796 O 345.069 2.13039 -1.35539 0
M  V30 3797 C 346.382 -0.699658 -2.92447 0
M  V30 3798 C 347.93 -0.664195 -3.05872 0
M  V30 3799 C 348.405 -1.20321 -4.41913 0
M  V30 3800 N 349.896 -1.16315 -4.48358 0
M  V30 3801 C 350.631 -1.55058 -5.52037 0
M  V30 3802 N 350.127 -2.01311 -6.62907 0
M  V30 3803 N 351.92 -1.46584 -5.42651 0
M  V30 3804 H 344.071 -1.45529 -1.5471 0
M  V30 3805 H 346.334 -0.60258 -0.731848 0
M  V30 3806 H 346.04 -1.747 -3.05242 0
M  V30 3807 H 345.914 -0.150194 -3.76901 0
M  V30 3808 H 348.301 0.374272 -2.92717 0
M  V30 3809 H 348.382 -1.25061 -2.23144 0
M  V30 3810 H 348.026 -2.24037 -4.55818 0
M  V30 3811 H 347.956 -0.592896 -5.23252 0
M  V30 3812 H 350.447 -0.824058 -3.68806 0
M  V30 3813 H 350.76 -2.2899 -7.38095 0
M  V30 3814 H 349.105 -2.05273 -6.63994 0
M  V30 3815 H 352.296 -1.10281 -4.54924 0
M  V30 3816 H 352.469 -1.77103 -6.23329 0
M  V30 3817 N 345.875 1.56104 -0.216619 0
M  V30 3818 C 346.825 2.16703 0.708798 0
M  V30 3819 C 347.809 1.11392 1.16106 0
M  V30 3820 O 349.001 1.37395 1.11587 0
M  V30 3821 C 346.13 2.84666 1.91886 0
M  V30 3822 C 345.216 3.97195 1.48651 0
M  V30 3823 N 345.607 4.99959 0.766434 0
M  V30 3824 C 343.905 4.09193 1.77418 0
M  V30 3825 C 344.606 5.79126 0.546659 0
M  V30 3826 N 343.582 5.32315 1.10188 0
M  V30 3827 H 347.384 2.93516 0.150162 0
M  V30 3828 H 344.898 1.6239 -0.0176768 0
M  V30 3829 H 346.895 3.26486 2.59253 0
M  V30 3830 H 345.555 2.09347 2.48202 0
M  V30 3831 H 346.566 5.16197 0.419634 0
M  V30 3832 H 343.243 3.45021 2.35088 0
M  V30 3833 H 344.633 6.71895 -0.026103 0
M  V30 3834 N 347.353 -0.0568162 1.57498 0
M  V30 3835 C 348.599 -0.748893 1.89111 0
M  V30 3836 C 348.954 -1.74422 0.81208 0
M  V30 3837 O 348.247 -1.90731 -0.182247 0
M  V30 3838 C 348.441 -1.48359 3.25153 0
M  V30 3839 C 348.27 -0.560924 4.46188 0
M  V30 3840 C 347.04 -0.192264 5.04934 0
M  V30 3841 C 349.238 0.148824 5.14085 0
M  V30 3842 N 347.22 0.734555 6.0949 0
M  V30 3843 C 348.591 0.932286 6.12951 0
M  V30 3844 C 350.646 0.218713 4.97419 0
M  V30 3845 C 349.349 1.77917 6.96949 0
M  V30 3846 C 351.375 1.05262 5.81957 0
M  V30 3847 C 350.737 1.82409 6.80372 0
M  V30 3848 H 346.836 -0.249002 0.741298 0
M  V30 3849 H 349.42 -0.00984926 1.94698 0
M  V30 3850 H 347.591 -2.19326 3.20547 0
M  V30 3851 H 349.323 -2.12586 3.44368 0
M  V30 3852 H 346.078 -0.548421 4.70414 0
M  V30 3853 H 346.502 1.19165 6.6643 0
M  V30 3854 H 351.144 -0.363407 4.21235 0
M  V30 3855 H 348.862 2.3722 7.72497 0
M  V30 3856 H 352.448 1.10987 5.71116 0
M  V30 3857 H 351.328 2.45895 7.44651 0
M  V30 3858 N 348.832 -1.54138 -0.328536 0
M  V30 3859 C 349.762 -1.86167 -1.40939 0
M  V30 3860 C 350.743 -0.718044 -1.54202 0
M  V30 3861 O 351.928 -0.971328 -1.68163 0
M  V30 3862 C 349.058 -2.08461 -2.77779 0
M  V30 3863 C 348.012 -3.24299 -2.7931 0
M  V30 3864 C 347.338 -3.31955 -4.19178 0
M  V30 3865 C 348.638 -4.62065 -2.43502 0
M  V30 3866 H 350.332 -2.76689 -1.14383 0
M  V30 3867 H 347.878 -1.33132 -0.548806 0
M  V30 3868 H 349.831 -2.29453 -3.53454 0
M  V30 3869 H 348.555 -1.14684 -3.05802 0
M  V30 3870 H 347.214 -3.03187 -2.0609 0
M  V30 3871 H 346.862 -2.35745 -4.44335 0
M  V30 3872 H 346.562 -4.09805 -4.2111 0
M  V30 3873 H 348.086 -3.55175 -4.96672 0
M  V30 3874 H 349.5 -4.8297 -3.08889 0
M  V30 3875 H 347.897 -5.42429 -2.56693 0
M  V30 3876 H 348.967 -4.64652 -1.38659 0
M  V30 3877 N 350.31 0.590341 -1.46126 0
M  V30 3878 C 351.557 1.34882 -1.5104 0
M  V30 3879 C 351.885 1.93849 -0.159021 0
M  V30 3880 O 351.14 1.76544 0.844436 0
M  V30 3881 C 351.439 2.5032 -2.55097 0
M  V30 3882 C 351.105 2.09394 -3.99331 0
M  V30 3883 C 349.767 1.97947 -4.38601 0
M  V30 3884 C 352.119 1.77712 -4.89967 0
M  V30 3885 C 349.447 1.53065 -5.66381 0
M  V30 3886 C 351.799 1.34312 -6.18177 0
M  V30 3887 C 350.463 1.21436 -6.56361 0
M  V30 3888 H 349.733 0.493568 -0.552695 0
M  V30 3889 H 352.38 0.665539 -1.79563 0
M  V30 3890 H 350.685 3.24062 -2.20207 0
M  V30 3891 H 352.382 3.08541 -2.56132 0
M  V30 3892 H 348.972 2.19235 -3.68285 0
M  V30 3893 H 353.156 1.85445 -4.60352 0
M  V30 3894 H 348.412 1.41733 -5.94745 0
M  V30 3895 H 352.586 1.08849 -6.87841 0
M  V30 3896 H 350.213 0.864345 -7.5527 0
M  V30 3897 N 351.788 1.33704 0.83433 0
M  V30 3898 C 353.013 1.28615 1.62705 0
M  V30 3899 C 353.438 -0.139242 1.87584 0
M  V30 3900 O 352.796 -1.09734 1.4432 0
M  V30 3901 C 352.844 2.07139 2.95171 0
M  V30 3902 O 351.948 1.4331 3.86699 0
M  V30 3903 H 351.289 0.44226 0.49528 0
M  V30 3904 H 353.819 1.76335 1.03766 0
M  V30 3905 H 353.829 2.18073 3.44831 0
M  V30 3906 H 352.504 3.10779 2.76386 0
M  V30 3907 H 351.081 1.4105 3.45195 0
M  V30 3908 N 353.266 -1.05314 1.17247 0
M  V30 3909 C 354.677 -1.59753 0.96623 0
M  V30 3910 C 355.028 -1.9005 -0.487378 0
M  V30 3911 O 354.153 -1.68126 -1.36245 0
M  V30 3912 C 354.748 -2.90249 1.74759 0
M  V30 3913 C 353.307 -3.41352 1.58606 0
M  V30 3914 C 352.454 -2.15103 1.75002 0
M  V30 3915 H 355.405 -0.881406 1.31973 0
M  V30 3916 H 355.426 -3.60097 1.22925 0
M  V30 3917 H 354.938 -2.68166 2.8055 0
M  V30 3918 H 353.039 -3.68474 0.552985 0
M  V30 3919 H 353.152 -4.16019 2.37624 0
M  V30 3920 H 351.516 -2.25804 1.17833 0
M  V30 3921 H 352.299 -1.95491 2.82202 0
M  V30 3922 N 354.744 -0.972509 -1.24016 0
M  V30 3923 C 355.991 -0.637034 -1.92219 0
M  V30 3924 C 356.319 0.828418 -1.75976 0
M  V30 3925 O 355.574 1.61206 -1.10955 0
M  V30 3926 C 355.873 -0.963694 -3.44162 0
M  V30 3927 C 355.539 -2.41807 -3.80579 0
M  V30 3928 C 354.201 -2.81556 -3.9023 0
M  V30 3929 C 356.553 -3.36172 -3.98293 0
M  V30 3930 C 353.881 -4.14702 -4.15017 0
M  V30 3931 C 356.233 -4.68952 -4.24578 0
M  V30 3932 C 354.897 -5.08472 -4.32449 0
M  V30 3933 H 354.167 -0.233107 -0.703379 0
M  V30 3934 H 356.814 -1.2249 -1.47202 0
M  V30 3935 H 355.119 -0.29365 -3.90698 0
M  V30 3936 H 356.816 -0.682449 -3.9515 0
M  V30 3937 H 353.406 -2.09988 -3.73635 0
M  V30 3938 H 357.59 -3.06644 -3.90234 0
M  V30 3939 H 352.846 -4.4494 -4.19331 0
M  V30 3940 H 357.02 -5.42037 -4.37229 0
M  V30 3941 H 354.647 -6.11665 -4.51409 0
M  V30 3942 N 356.222 1.38976 -0.743202 0
M  V30 3943 C 357.169 2.30544 -0.10861 0
M  V30 3944 C 358.139 1.49642 0.720869 0
M  V30 3945 O 359.324 1.78304 0.679142 0
M  V30 3946 C 356.464 3.36018 0.786496 0
M  V30 3947 C 355.577 4.31963 -0.0564849 0
M  V30 3948 C 354.712 5.24506 0.840657 0
M  V30 3949 C 353.751 6.121 -0.00658363 0
M  V30 3950 N 352.888 6.96973 0.846943 0
M  V30 3951 H 357.728 2.8424 -0.895088 0
M  V30 3952 H 355.265 1.3995 -0.453048 0
M  V30 3953 H 357.223 3.95768 1.31999 0
M  V30 3954 H 355.853 2.83758 1.53887 0
M  V30 3955 H 354.905 3.73763 -0.707492 0
M  V30 3956 H 356.217 4.93703 -0.711229 0
M  V30 3957 H 355.371 5.89322 1.4417 0
M  V30 3958 H 354.11 4.63107 1.52916 0
M  V30 3959 H 353.115 5.46289 -0.620366 0
M  V30 3960 H 354.34 6.75565 -0.691992 0
M  V30 3961 H 352.286 6.38133 1.52059 0
M  V30 3962 H 352.203 7.5559 0.248864 0
M  V30 3963 H 353.471 7.6621 1.43328 0
M  V30 3964 N 357.7 0.491464 1.49741 0
M  V30 3965 C 358.63 -0.28154 2.31796 0
M  V30 3966 C 359.611 -0.971473 1.3963 0
M  V30 3967 O 360.796 -0.964719 1.68543 0
M  V30 3968 C 357.926 -1.35203 3.19902 0
M  V30 3969 C 356.88 -0.782529 4.20786 0
M  V30 3970 C 356.206 -1.95283 4.97764 0
M  V30 3971 C 357.506 0.21999 5.21837 0
M  V30 3972 H 359.2 0.403355 2.96671 0
M  V30 3973 H 356.746 0.195425 1.42668 0
M  V30 3974 H 358.699 -1.90045 3.76113 0
M  V30 3975 H 357.423 -2.06598 2.52953 0
M  V30 3976 H 356.082 -0.255928 3.65706 0
M  V30 3977 H 355.73 -2.65423 4.2727 0
M  V30 3978 H 355.43 -1.57789 5.66018 0
M  V30 3979 H 356.954 -2.50577 5.56816 0
M  V30 3980 H 358.368 -0.23996 5.72798 0
M  V30 3981 H 356.765 0.51026 5.97927 0
M  V30 3982 H 357.835 1.13911 4.7133 0
M  V30 3983 N 359.178 -1.55987 0.224894 0
M  V30 3984 C 360.108 -2.23426 -0.678457 0
M  V30 3985 C 361.089 -1.20709 -1.19847 0
M  V30 3986 O 362.274 -1.49304 -1.24186 0
M  V30 3987 C 359.404 -2.91676 -1.88527 0
M  V30 3988 C 358.358 -4.00893 -1.49896 0
M  V30 3989 C 357.684 -4.56455 -2.78483 0
M  V30 3990 C 358.984 -5.17769 -0.686461 0
M  V30 3991 H 360.678 -2.99175 -0.116173 0
M  V30 3992 H 358.224 -1.43897 -0.054436 0
M  V30 3993 H 360.177 -3.37547 -2.5227 0
M  V30 3994 H 358.901 -2.1338 -2.47258 0
M  V30 3995 H 357.56 -3.55758 -0.884985 0
M  V30 3996 H 357.208 -3.74886 -3.35365 0
M  V30 3997 H 356.908 -5.30169 -2.53368 0
M  V30 3998 H 358.432 -5.05047 -3.43162 0
M  V30 3999 H 359.846 -5.60001 -1.22767 0
M  V30 4000 H 358.243 -5.97735 -0.532259 0
M  V30 4001 H 359.313 -4.83932 0.306196 0
M  V30 4002 N 360.656 0.0484629 -1.57525 0
M  V30 4003 C 361.586 1.0549 -2.08313 0
M  V30 4004 C 362.567 1.38929 -0.981463 0
M  V30 4005 O 363.752 1.48151 -1.25558 0
M  V30 4006 C 360.882 2.36162 -2.54646 0
M  V30 4007 C 359.836 2.17016 -3.68901 0
M  V30 4008 C 359.162 3.53278 -4.01371 0
M  V30 4009 C 360.462 1.57219 -4.98076 0
M  V30 4010 H 362.156 0.632195 -2.92649 0
M  V30 4011 H 359.702 0.302654 -1.40784 0
M  V30 4012 H 361.655 3.06882 -2.88793 0
M  V30 4013 H 360.379 2.80456 -1.67368 0
M  V30 4014 H 359.038 1.48733 -3.35073 0
M  V30 4015 H 358.686 3.95185 -3.11188 0
M  V30 4016 H 358.386 3.41299 -4.78318 0
M  V30 4017 H 359.91 4.25391 -4.38035 0
M  V30 4018 H 361.324 2.17832 -5.30304 0
M  V30 4019 H 359.721 1.55871 -5.79503 0
M  V30 4020 H 360.791 0.535956 -4.81929 0
M  V30 4021 N 362.134 1.5431 0.320358 0
M  V30 4022 C 363.359 1.76954 1.08175 0
M  V30 4023 C 363.784 0.518193 1.80821 0
M  V30 4024 O 363.142 -0.530411 1.73368 0
M  V30 4025 C 363.19 2.96451 2.05303 0
M  V30 4026 O 362.294 2.68221 3.13259 0
M  V30 4027 H 361.635 0.586275 0.311733 0
M  V30 4028 H 364.165 2.01342 0.363676 0
M  V30 4029 H 364.175 3.23887 2.48116 0
M  V30 4030 H 362.85 3.87196 1.51829 0
M  V30 4031 H 361.427 2.51744 2.75099 0
M  V30 4032 N 363.613 -0.582584 1.46437 0
M  V30 4033 C 364.523 -1.71949 1.59595 0
M  V30 4034 C 365.539 -1.67264 0.479443 0
M  V30 4035 O 366.715 -1.87171 0.743579 0
M  V30 4036 C 363.78 -3.08452 1.58298 0
M  V30 4037 C 362.841 -3.244 2.81182 0
M  V30 4038 C 362.074 -4.54391 2.79937 0
M  V30 4039 O 362.297 -5.38287 1.8869 0
M  V30 4040 O 361.231 -4.73588 3.71481 0
M  V30 4041 H 365.057 -1.63795 2.55744 0
M  V30 4042 H 362.642 -0.749643 1.29231 0
M  V30 4043 H 364.524 -3.89732 1.60271 0
M  V30 4044 H 363.199 -3.17043 0.653094 0
M  V30 4045 H 362.106 -2.42613 2.84763 0
M  V30 4046 H 363.439 -3.20699 3.7338 0
M  V30 4047 N 365.091 -1.34144 -0.827227 0
M  V30 4048 C 366.001 -1.27428 -1.96975 0
M  V30 4049 C 367.017 -0.182728 -1.73038 0
M  V30 4050 O 368.193 -0.408426 -1.97215 0
M  V30 4051 C 365.258 -1.02526 -3.31194 0
M  V30 4052 C 364.319 -2.20796 -3.68168 0
M  V30 4053 C 363.552 -1.97073 -4.95982 0
M  V30 4054 O 363.775 -0.926822 -5.6282 0
M  V30 4055 O 362.709 -2.83912 -5.30733 0
M  V30 4056 H 366.535 -2.23537 -2.05584 0
M  V30 4057 H 364.12 -1.14307 -0.961989 0
M  V30 4058 H 366.002 -0.904026 -4.11589 0
M  V30 4059 H 364.677 -0.0945389 -3.23562 0
M  V30 4060 H 363.584 -2.38477 -2.88235 0
M  V30 4061 H 364.917 -3.12243 -3.8048 0
M  V30 4062 N 366.569 1.04691 -1.17803 0
M  V30 4063 C 367.499 2.14494 -0.92275 0
M  V30 4064 C 368.48 1.69546 0.137179 0
M  V30 4065 O 369.665 1.94195 -0.0141108 0
M  V30 4066 C 366.795 3.44491 -0.440803 0
M  V30 4067 C 365.749 4.03031 -1.4405 0
M  V30 4068 C 365.075 5.28432 -0.81631 0
M  V30 4069 C 366.375 4.39932 -2.81527 0
M  V30 4070 H 368.069 2.36107 -1.84103 0
M  V30 4071 H 365.615 1.1347 -0.886599 0
M  V30 4072 H 367.568 4.2066 -0.249602 0
M  V30 4073 H 366.292 3.22546 0.513025 0
M  V30 4074 H 364.951 3.28937 -1.61853 0
M  V30 4075 H 364.599 5.02792 0.144511 0
M  V30 4076 H 364.299 5.68559 -1.48371 0
M  V30 4077 H 365.823 6.07284 -0.635496 0
M  V30 4078 H 367.237 5.07113 -2.67412 0
M  V30 4079 H 365.634 4.9109 -3.44892 0
M  V30 4080 H 366.704 3.50045 -3.35554 0
M  V30 4081 N 368.047 0.979072 1.23499 0
M  V30 4082 C 369.275 0.665202 1.95915 0
M  V30 4083 C 369.69 -0.767571 1.72493 0
M  V30 4084 O 369.047 -1.51635 1.01554 0
M  V30 4085 C 369.098 0.944438 3.48945 0
M  V30 4086 O 368.819 2.3209 3.71572 0
M  V30 4087 C 370.32 0.646336 4.38563 0
M  V30 4088 H 367.54 0.247218 0.623798 0
M  V30 4089 H 370.084 1.31009 1.57025 0
M  V30 4090 H 368.239 0.345575 3.85856 0
M  V30 4091 H 368.653 2.40957 4.65876 0
M  V30 4092 H 370.127 0.892091 5.44744 0
M  V30 4093 H 370.604 -0.419575 4.37191 0
M  V30 4094 H 371.21 1.22562 4.07258 0
M  V30 4095 N 369.525 -1.3858 0.750561 0
M  V30 4096 C 370.75 -2.04997 0.314812 0
M  V30 4097 C 371.175 -1.56235 -1.04749 0
M  V30 4098 O 370.533 -0.712981 -1.66692 0
M  V30 4099 C 370.581 -3.58961 0.343415 0
M  V30 4100 O 369.685 -4.07025 -0.663628 0
M  V30 4101 H 369.026 -0.649081 0.139962 0
M  V30 4102 H 371.556 -1.77313 1.02084 0
M  V30 4103 H 371.566 -4.07542 0.193233 0
M  V30 4104 H 370.241 -3.93811 1.33738 0
M  V30 4105 H 368.818 -3.6982 -0.478307 0
M  V30 4106 N 371.003 -0.499398 -1.49478 0
M  V30 4107 C 371.933 0.269244 -2.31943 0
M  V30 4108 C 372.914 0.964054 -1.40143 0
M  V30 4109 O 374.099 0.955767 -1.69052 0
M  V30 4110 C 371.229 1.33504 -3.20615 0
M  V30 4111 C 370.183 0.760202 -4.21195 0
M  V30 4112 C 369.509 1.9264 -4.98792 0
M  V30 4113 C 370.809 -0.247661 -5.21712 0
M  V30 4114 H 372.503 -0.419082 -2.96452 0
M  V30 4115 H 370.049 -0.202988 -1.42562 0
M  V30 4116 H 372.002 1.88048 -3.77115 0
M  V30 4117 H 370.726 2.05253 -2.54045 0
M  V30 4118 H 369.385 0.23653 -3.65836 0
M  V30 4119 H 369.033 2.63154 -4.28671 0
M  V30 4120 H 368.733 1.54785 -5.66847 0
M  V30 4121 H 370.257 2.4762 -5.58137 0
M  V30 4122 H 371.671 0.209579 -5.72917 0
M  V30 4123 H 370.068 -0.541962 -5.97648 0
M  V30 4124 H 371.138 -1.16409 -4.7072 0
M  V30 4125 N 372.481 1.55866 -0.233164 0
M  V30 4126 C 373.411 2.23783 0.666599 0
M  V30 4127 C 374.392 1.21343 1.19205 0
M  V30 4128 O 375.577 1.4996 1.23392 0
M  V30 4129 C 372.707 2.92671 1.86978 0
M  V30 4130 C 371.661 4.01682 1.47768 0
M  V30 4131 C 370.987 4.57926 2.76058 0
M  V30 4132 C 372.287 5.18126 0.658993 0
M  V30 4133 H 373.981 2.99232 0.100306 0
M  V30 4134 H 371.527 1.43924 0.046804 0
M  V30 4135 H 373.48 3.3888 2.50476 0
M  V30 4136 H 372.204 2.14688 2.46123 0
M  V30 4137 H 370.863 3.56222 0.866106 0
M  V30 4138 H 370.511 3.76659 3.33372 0
M  V30 4139 H 370.211 5.31505 2.50552 0
M  V30 4140 H 371.735 5.06859 3.40479 0
M  V30 4141 H 373.149 5.60644 1.19795 0
M  V30 4142 H 371.546 5.98009 0.500552 0
M  V30 4143 H 372.616 4.83763 -0.331856 0
M  V30 4144 N 373.959 -0.0401083 1.57549 0
M  V30 4145 C 375.205 -0.734211 1.89043 0
M  V30 4146 C 375.538 -1.75591 0.829535 0
M  V30 4147 O 374.813 -1.93868 -0.156706 0
M  V30 4148 C 375.096 -1.41374 3.31188 0
M  V30 4149 C 374.949 -0.406299 4.47961 0
M  V30 4150 C 376.268 -2.35061 3.72068 0
M  V30 4151 H 373.387 -0.265447 0.687537 0
M  V30 4152 H 376.029 0.00294087 1.9 0
M  V30 4153 H 374.179 -2.04206 3.30503 0
M  V30 4154 H 375.851 0.219255 4.60779 0
M  V30 4155 H 374.094 0.275485 4.32924 0
M  V30 4156 H 374.765 -0.920022 5.44279 0
M  V30 4157 H 377.241 -1.82282 3.74049 0
M  V30 4158 H 376.117 -2.79593 4.72355 0
M  V30 4159 H 376.378 -3.21258 3.0372 0
M  V30 4160 N 375.437 -1.54477 -0.31217 0
M  V30 4161 C 376.683 -1.73483 -1.0503 0
M  V30 4162 C 377.016 -0.513125 -1.87298 0
M  V30 4163 O 376.291 0.489864 -1.8823 0
M  V30 4164 C 376.574 -3.01723 -1.96558 0
M  V30 4165 C 376.427 -4.3417 -1.17545 0
M  V30 4166 C 377.746 -3.25772 -2.95907 0
M  V30 4167 H 374.865 -0.631222 -0.380432 0
M  V30 4168 H 377.507 -1.87184 -0.325932 0
M  V30 4169 H 375.657 -2.90174 -2.58324 0
M  V30 4170 H 377.329 -4.5762 -0.581513 0
M  V30 4171 H 375.572 -4.31159 -0.477925 0
M  V30 4172 H 376.243 -5.20143 -1.84811 0
M  V30 4173 H 378.719 -3.36857 -2.44267 0
M  V30 4174 H 377.595 -4.16838 -3.57123 0
M  V30 4175 H 377.856 -2.43537 -3.68974 0
M  V30 4176 N 376.915 0.57481 -1.46744 0
M  V30 4177 C 377.865 1.67838 -1.54319 0
M  V30 4178 C 378.849 1.55759 -0.40346 0
M  V30 4179 O 380.041 1.6454 -0.652347 0
M  V30 4180 C 377.17 3.06624 -1.5439 0
M  V30 4181 C 376.256 3.23971 -2.73685 0
M  V30 4182 N 376.647 3.11447 -3.9854 0
M  V30 4183 C 374.945 3.5493 -2.70075 0
M  V30 4184 C 375.646 3.31011 -4.78337 0
M  V30 4185 N 374.622 3.56533 -4.10348 0
M  V30 4186 H 378.424 1.56698 -2.48642 0
M  V30 4187 H 375.938 0.779071 -1.42493 0
M  V30 4188 H 377.935 3.85839 -1.57905 0
M  V30 4189 H 376.595 3.1889 -0.611493 0
M  V30 4190 H 377.606 2.89145 -4.29669 0
M  V30 4191 H 374.283 3.73832 -1.85893 0
M  V30 4192 H 375.673 3.26445 -5.87268 0
M  V30 4193 N 378.394 1.34581 0.820102 0
M  V30 4194 C 379.64 1.28294 1.57836 0
M  V30 4195 C 379.995 -0.145099 1.91852 0
M  V30 4196 O 379.288 -1.09209 1.57429 0
M  V30 4197 C 379.482 2.10997 2.8847 0
M  V30 4198 C 379.311 3.61698 2.67216 0
M  V30 4199 C 378.081 4.3097 2.63805 0
M  V30 4200 C 380.279 4.55638 2.38534 0
M  V30 4201 N 378.261 5.67502 2.34126 0
M  V30 4202 C 379.632 5.80194 2.18574 0
M  V30 4203 C 381.687 4.44523 2.24285 0
M  V30 4204 C 380.39 6.94886 1.8581 0
M  V30 4205 C 382.416 5.5905 1.92916 0
M  V30 4206 C 381.778 6.82627 1.73782 0
M  V30 4207 H 377.877 0.524697 0.579842 0
M  V30 4208 H 380.461 1.69323 0.961139 0
M  V30 4209 H 378.632 1.7226 3.48111 0
M  V30 4210 H 380.364 1.96333 3.53886 0
M  V30 4211 H 377.119 3.83438 2.77978 0
M  V30 4212 H 377.543 6.39525 2.22118 0
M  V30 4213 H 382.185 3.49599 2.37782 0
M  V30 4214 H 379.903 7.89789 1.7105 0
M  V30 4215 H 383.489 5.52396 1.82619 0
M  V30 4216 H 382.369 7.69748 1.49861 0
M  V30 4217 N 379.872 -1.04064 1.18357 0
M  V30 4218 C 381.12 -1.76915 0.977013 0
M  V30 4219 C 381.441 -1.88624 -0.494577 0
M  V30 4220 O 380.711 -1.41125 -1.3587 0
M  V30 4221 H 379.291 -0.65535 0.358504 0
M  V30 4222 H 381.953 -1.25592 1.49039 0
M  V30 4223 H 381.049 -2.78178 1.41504 0
M  V30 4224 N 381.35 -0.985608 -1.22978 0
M  V30 4225 C 382.598 -0.656087 -1.91154 0
M  V30 4226 C 382.919 0.813561 -1.77218 0
M  V30 4227 O 382.189 1.58244 -1.1548 0
M  V30 4228 H 380.769 -0.239674 -0.707506 0
M  V30 4229 H 383.431 -1.25054 -1.49491 0
M  V30 4230 H 382.527 -0.912253 -2.9847 0
M  V30 4231 N 382.828 1.3818 -0.7579 0
M  V30 4232 C 383.758 2.33027 -0.148597 0
M  V30 4233 C 384.739 1.55085 0.69875 0
M  V30 4234 O 385.924 1.83384 0.639053 0
M  V30 4235 C 383.054 3.3928 0.742034 0
M  V30 4236 C 382.008 4.28 -0.00291946 0
M  V30 4237 C 381.334 5.25146 1.00625 0
M  V30 4238 C 382.634 5.08938 -1.17385 0
M  V30 4239 H 384.328 2.84231 -0.940909 0
M  V30 4240 H 381.874 1.36659 -0.453908 0
M  V30 4241 H 383.827 4.046 1.17799 0
M  V30 4242 H 382.551 2.86569 1.56671 0
M  V30 4243 H 381.21 3.64192 -0.419504 0
M  V30 4244 H 380.858 4.68721 1.8251 0
M  V30 4245 H 380.558 5.85361 0.512428 0
M  V30 4246 H 382.082 5.93342 1.44143 0
M  V30 4247 H 383.496 5.67474 -0.815224 0
M  V30 4248 H 381.893 5.7841 -1.59882 0
M  V30 4249 H 382.963 4.42424 -1.98468 0
M  V30 4250 N 384.306 0.507319 1.49211 0
M  V30 4251 C 385.236 -0.256939 2.32082 0
M  V30 4252 C 386.217 -0.956609 1.40652 0
M  V30 4253 O 387.402 -0.946788 1.69557 0
M  V30 4254 C 384.532 -1.31802 3.21318 0
M  V30 4255 C 383.486 -0.737855 4.21592 0
M  V30 4256 C 382.812 -1.89992 4.99807 0
M  V30 4257 C 384.112 0.275325 5.21574 0
M  V30 4258 H 385.806 0.434798 2.96226 0
M  V30 4259 H 383.352 0.210546 1.42452 0
M  V30 4260 H 385.305 -1.86045 3.78107 0
M  V30 4261 H 384.029 -2.03903 2.5513 0
M  V30 4262 H 382.688 -0.217126 3.65956 0
M  V30 4263 H 382.336 -2.60877 4.30061 0
M  V30 4264 H 382.036 -1.51777 5.6766 0
M  V30 4265 H 383.56 -2.44657 5.59442 0
M  V30 4266 H 384.974 -0.179193 5.7302 0
M  V30 4267 H 383.371 0.573649 5.97352 0
M  V30 4268 H 384.441 1.18903 4.70096 0
M  V30 4269 N 385.784 -1.5574 0.241426 0
M  V30 4270 C 386.714 -2.24133 -0.654722 0
M  V30 4271 C 387.695 -1.21974 -1.1856 0
M  V30 4272 O 388.88 -1.50612 -1.22595 0
M  V30 4273 C 386.01 -2.93659 -1.85423 0
M  V30 4274 C 384.964 -4.0246 -1.45636 0
M  V30 4275 C 384.29 -4.59383 -2.73626 0
M  V30 4276 C 385.59 -5.18468 -0.631506 0
M  V30 4277 H 387.284 -2.99281 -0.0844353 0
M  V30 4278 H 384.83 -1.43947 -0.0391707 0
M  V30 4279 H 386.783 -3.40203 -2.48676 0
M  V30 4280 H 385.507 -2.15991 -2.44981 0
M  V30 4281 H 384.166 -3.56676 -0.847202 0
M  V30 4282 H 383.814 -3.78422 -3.3137 0
M  V30 4283 H 383.514 -5.32826 -2.4773 0
M  V30 4284 H 385.038 -5.08658 -3.37786 0
M  V30 4285 H 386.452 -5.61272 -1.1682 0
M  V30 4286 H 384.849 -5.98266 -0.468831 0
M  V30 4287 H 385.919 -4.8358 0.357506 0
M  V30 4288 N 387.262 0.0317525 -1.57568 0
M  V30 4289 C 388.539 0.758366 -1.803 0
M  V30 4290 C 388.919 1.93718 -0.838845 0
M  V30 4291 O 388.267 2.28187 0.119571 0
M  V30 4292 C 388.477 1.19392 -3.27943 0
M  V30 4293 C 389.825 1.61094 -3.92854 0
M  V30 4294 O 390.849 1.28857 -3.32076 0
M  V30 4295 O 389.708 2.20918 -4.99858 0
M  V30 4296 H 386.802 0.366514 -0.741348 0
M  V30 4297 H 389.348 0.00873765 -1.69698 0
M  V30 4298 H 388.12 0.352275 -3.89711 0
M  V30 4299 H 387.743 2.00365 -3.43424 0
M  V30 4300 N 388.74 1.54641 0.303973 0
M  V30 4301 C 389.67 1.88386 1.3796 0
M  V30 4302 C 390.651 0.742485 1.5304 0
M  V30 4303 O 391.836 0.997959 1.66597 0
M  V30 4304 C 388.966 2.12854 2.74427 0
M  V30 4305 C 387.92 3.28702 2.74115 0
M  V30 4306 C 387.246 3.38582 4.13844 0
M  V30 4307 C 388.546 4.65881 2.3612 0
M  V30 4308 H 390.24 2.78474 1.09966 0
M  V30 4309 H 387.786 1.33988 0.527556 0
M  V30 4310 H 389.739 2.35047 3.49758 0
M  V30 4311 H 388.463 1.19535 3.03939 0
M  V30 4312 H 387.122 3.06428 2.0124 0
M  V30 4313 H 386.77 2.42784 4.40528 0
M  V30 4314 H 386.47 4.16453 4.14537 0
M  V30 4315 H 387.994 3.63031 4.90959 0
M  V30 4316 H 389.408 4.87823 3.01167 0
M  V30 4317 H 387.805 5.46444 2.48031 0
M  V30 4318 H 388.875 4.66799 1.3125 0
M  V30 4319 N 390.218 -0.567019 1.47046 0
M  V30 4320 C 391.443 -1.3551 1.57009 0
M  V30 4321 C 391.868 -1.86841 0.217259 0
M  V30 4322 O 391.226 -1.62435 -0.805268 0
M  V30 4323 C 391.274 -2.50777 2.5912 0
M  V30 4324 O 390.378 -3.52706 2.13711 0
M  V30 4325 H 389.719 -0.402919 0.52778 0
M  V30 4326 H 392.249 -0.686241 1.92748 0
M  V30 4327 H 392.259 -2.97481 2.79229 0
M  V30 4328 H 390.934 -2.12771 3.57353 0
M  V30 4329 H 389.511 -3.12374 2.03659 0
M  V30 4330 N 391.696 -1.35014 -0.812953 0
M  V30 4331 C 392.659 -1.27292 -1.90602 0
M  V30 4332 C 393.659 -0.185817 -1.59723 0
M  V30 4333 O 394.849 -0.439102 -1.68575 0
M  V30 4334 C 391.981 -0.967676 -3.26877 0
M  V30 4335 H 393.174 -2.24479 -1.9887 0
M  V30 4336 H 390.727 -1.19446 -1.00808 0
M  V30 4337 H 391.462 0.0005954 -3.243 0
M  V30 4338 H 391.247 -1.75412 -3.50675 0
M  V30 4339 H 392.737 -0.939085 -4.06904 0
M  V30 4340 N 393.175 1.03435 -1.18907 0
M  V30 4341 C 394.423 1.76394 -0.986382 0
M  V30 4342 C 394.744 1.88883 0.484567 0
M  V30 4343 O 394.014 1.41843 1.3512 0
M  V30 4344 H 392.594 0.65344 -0.361975 0
M  V30 4345 H 395.256 1.248 -1.49703 0
M  V30 4346 H 394.352 2.77424 -1.42978 0
M  V30 4347 N 394.653 0.992116 1.22453 0
M  V30 4348 C 395.9 0.667534 1.91181 0
M  V30 4349 C 396.228 -0.800317 1.77271 0
M  V30 4350 O 395.483 -1.59421 1.13505 0
M  V30 4351 C 395.782 1.01832 3.42586 0
M  V30 4352 C 395.448 2.47831 3.76684 0
M  V30 4353 C 394.11 2.87729 3.85701 0
M  V30 4354 C 396.462 3.42466 3.92895 0
M  V30 4355 C 393.79 4.21252 4.08367 0
M  V30 4356 C 396.142 4.75648 4.17064 0
M  V30 4357 C 394.806 5.15288 4.24305 0
M  V30 4358 H 394.076 0.244268 0.699581 0
M  V30 4359 H 396.723 1.24816 1.45235 0
M  V30 4360 H 395.028 0.355769 3.90181 0
M  V30 4361 H 396.725 0.745228 3.94014 0
M  V30 4362 H 393.315 2.15905 3.70247 0
M  V30 4363 H 397.499 3.12814 3.85307 0
M  V30 4364 H 392.755 4.51554 4.122 0
M  V30 4365 H 396.929 5.48924 4.2855 0
M  V30 4366 H 394.556 6.18769 4.41621 0
M  V30 4367 N 396.131 -1.37776 0.765217 0
M  V30 4368 C 397.061 -2.32945 0.160953 0
M  V30 4369 C 398.042 -1.55454 -0.690516 0
M  V30 4370 O 399.227 -1.83721 -0.629318 0
M  V30 4371 C 396.357 -3.39669 -0.724031 0
M  V30 4372 C 395.311 -4.27992 0.0256173 0
M  V30 4373 C 394.637 -5.25673 -0.978383 0
M  V30 4374 C 395.937 -5.08309 1.20082 0
M  V30 4375 H 397.631 -2.83728 0.955969 0
M  V30 4376 H 395.177 -1.36416 0.461149 0
M  V30 4377 H 397.13 -4.05219 -1.15652 0
M  V30 4378 H 395.854 -2.87396 -1.5515 0
M  V30 4379 H 394.513 -3.63964 0.438812 0
M  V30 4380 H 394.161 -4.69682 -1.80022 0
M  V30 4381 H 393.861 -5.85625 -0.481378 0
M  V30 4382 H 395.385 -5.94098 -1.40995 0
M  V30 4383 H 396.799 -5.67034 0.845307 0
M  V30 4384 H 395.196 -5.77554 1.62947 0
M  V30 4385 H 396.266 -4.41365 2.00811 0
M  V30 4386 N 397.609 -0.515225 -1.4894 0
M  V30 4387 C 398.539 0.244628 -2.32215 0
M  V30 4388 C 399.52 0.949136 -1.41157 0
M  V30 4389 O 400.705 0.937783 -1.70057 0
M  V30 4390 C 397.835 1.30096 -3.22013 0
M  V30 4391 C 396.789 0.715486 -4.21977 0
M  V30 4392 C 396.115 1.87339 -5.00808 0
M  V30 4393 C 397.415 -0.302982 -5.2142 0
M  V30 4394 H 399.109 -0.450501 -2.95991 0
M  V30 4395 H 396.655 -0.218098 -1.42339 0
M  V30 4396 H 398.608 1.84037 -3.79089 0
M  V30 4397 H 397.332 2.02547 -2.56207 0
M  V30 4398 H 395.991 0.197715 -3.66066 0
M  V30 4399 H 395.639 2.58592 -4.31438 0
M  V30 4400 H 395.339 1.48764 -5.68457 0
M  V30 4401 H 396.863 2.41686 -5.60732 0
M  V30 4402 H 398.277 0.148802 -5.73107 0
M  V30 4403 H 396.674 -0.60532 -5.97039 0
M  V30 4404 H 397.744 -1.21395 -4.69459 0
M  V30 4405 N 399.087 1.5561 -0.249682 0
M  V30 4406 C 400.334 1.99011 0.374287 0
M  V30 4407 C 400.662 1.13785 1.57744 0
M  V30 4408 O 399.917 0.189326 1.94782 0
M  V30 4409 C 400.216 3.4775 0.824887 0
M  V30 4410 C 399.882 4.50086 -0.270819 0
M  V30 4411 C 398.544 4.77791 -0.571746 0
M  V30 4412 C 400.896 5.11312 -1.01041 0
M  V30 4413 C 398.224 5.63997 -1.61629 0
M  V30 4414 C 400.576 5.98651 -2.0445 0
M  V30 4415 C 399.24 6.24688 -2.35204 0
M  V30 4416 H 398.51 0.728233 0.136961 0
M  V30 4417 H 401.157 1.88122 -0.358087 0
M  V30 4418 H 399.462 3.55985 1.63651 0
M  V30 4419 H 401.159 3.78721 1.31799 0
M  V30 4420 H 397.749 4.28592 -0.026136 0
M  V30 4421 H 401.933 4.89953 -0.791177 0
M  V30 4422 H 397.189 5.82425 -1.85988 0
M  V30 4423 H 401.363 6.45135 -2.62248 0
M  V30 4424 H 398.99 6.91281 -3.16282 0
M  V30 4425 N 400.565 -0.0233959 1.57583 0
M  V30 4426 C 401.812 -0.713063 1.8953 0
M  V30 4427 C 402.14 -1.75056 0.847673 0
M  V30 4428 O 401.395 -1.95119 -0.150636 0
M  V30 4429 C 401.694 -1.41428 3.28227 0
M  V30 4430 C 401.36 -0.512222 4.47981 0
M  V30 4431 C 400.022 -0.263785 4.80476 0
M  V30 4432 C 402.374 0.110248 5.21083 0
M  V30 4433 C 399.702 0.615804 5.83459 0
M  V30 4434 C 402.054 0.977573 6.25001 0
M  V30 4435 C 400.718 1.23542 6.55968 0
M  V30 4436 H 399.988 -0.260928 0.69354 0
M  V30 4437 H 402.635 0.0271047 1.91481 0
M  V30 4438 H 400.94 -2.22791 3.22291 0
M  V30 4439 H 402.637 -1.95355 3.50196 0
M  V30 4440 H 399.227 -0.716013 4.22577 0
M  V30 4441 H 403.411 -0.0687137 4.96252 0
M  V30 4442 H 398.667 0.82382 6.05824 0
M  V30 4443 H 402.841 1.46638 6.80786 0
M  V30 4444 H 400.468 1.91871 7.35588 0
M  V30 4445 N 402.043 -1.548 -0.295768 0
M  V30 4446 C 403.32 -1.65014 -1.05023 0
M  V30 4447 C 403.7 -0.501805 -2.05049 0
M  V30 4448 O 403.048 0.500869 -2.22943 0
M  V30 4449 C 403.258 -3.03252 -1.72741 0
M  V30 4450 C 404.606 -3.60242 -2.24746 0
M  V30 4451 O 405.63 -3.05737 -1.82765 0
M  V30 4452 O 404.489 -4.55687 -3.01681 0
M  V30 4453 H 401.583 -0.669314 -0.485744 0
M  V30 4454 H 404.129 -1.67144 -0.293438 0
M  V30 4455 H 402.901 -3.7827 -1.00138 0
M  V30 4456 H 402.524 -3.04922 -2.55163 0
M  V30 4457 N 403.521 0.559213 -1.47345 0
M  V30 4458 C 404.767 1.31843 -1.54095 0
M  V30 4459 C 405.1 1.93149 -0.201726 0
M  V30 4460 O 404.375 1.77759 0.789428 0
M  V30 4461 C 404.658 2.43006 -2.65744 0
M  V30 4462 C 404.511 1.86581 -4.09277 0
M  V30 4463 C 405.83 3.44943 -2.73318 0
M  V30 4464 H 402.949 0.478012 -0.560957 0
M  V30 4465 H 405.591 0.625977 -1.79392 0
M  V30 4466 H 403.741 3.02072 -2.44305 0
M  V30 4467 H 405.413 1.31792 -4.42073 0
M  V30 4468 H 403.656 1.17268 -4.17649 0
M  V30 4469 H 404.327 2.66933 -4.83168 0
M  V30 4470 H 406.803 2.95793 -2.92653 0
M  V30 4471 H 405.679 4.20153 -3.53218 0
M  V30 4472 H 405.94 4.03665 -1.80296 0
M  V30 4473 N 404.999 1.35443 0.805782 0
M  V30 4474 C 406.224 1.32037 1.59941 0
M  V30 4475 C 406.649 -0.0994215 1.87837 0
M  V30 4476 O 406.007 -1.06648 1.46615 0
M  V30 4477 C 406.055 2.13354 2.90711 0
M  V30 4478 O 405.159 1.5148 3.83572 0
M  V30 4479 H 404.5 0.452666 0.485787 0
M  V30 4480 H 407.03 1.78496 1.00002 0
M  V30 4481 H 407.04 2.25338 3.40128 0
M  V30 4482 H 405.715 3.16572 2.69732 0
M  V30 4483 H 404.292 1.4834 3.42125 0
M  V30 4484 N 406.477 -1.02803 1.19454 0
M  V30 4485 C 407.893 -1.28473 0.946937 0
M  V30 4486 C 408.093 -1.97881 -0.380202 0
M  V30 4487 O 407.149 -2.26719 -1.11151 0
M  V30 4488 C 408.462 -2.13099 2.12154 0
M  V30 4489 C 410.01 -2.26404 2.16126 0
M  V30 4490 C 410.485 -3.14402 3.33039 0
M  V30 4491 N 411.976 -3.21991 3.32981 0
M  V30 4492 C 412.711 -3.90272 4.20089 0
M  V30 4493 N 412.207 -4.60777 5.17355 0
M  V30 4494 N 414 -3.8668 4.07964 0
M  V30 4495 H 406.151 -0.561665 2.04839 0
M  V30 4496 H 408.414 -0.310438 0.89573 0
M  V30 4497 H 408.12 -1.69422 3.08203 0
M  V30 4498 H 407.994 -3.13813 2.09287 0
M  V30 4499 H 410.381 -2.69311 1.20647 0
M  V30 4500 H 410.462 -1.25237 2.23045 0
M  V30 4501 H 410.106 -2.72204 4.28798 0
M  V30 4502 H 410.036 -4.1563 3.23356 0
M  V30 4503 H 412.527 -2.71778 2.62574 0
M  V30 4504 H 412.84 -5.10513 5.80169 0
M  V30 4505 H 411.185 -4.5964 5.21302 0
M  V30 4506 H 414.376 -3.30739 3.31254 0
M  V30 4507 H 414.549 -4.39621 4.76064 0
M  V30 4508 N 407.956 -0.998596 -1.21925 0
M  V30 4509 C 409.181 -0.696015 -1.95372 0
M  V30 4510 C 409.606 0.733826 -1.73195 0
M  V30 4511 O 408.964 1.50242 -1.01474 0
M  V30 4512 C 409.012 -1.01466 -3.4603 0
M  V30 4513 O 408.116 -0.116415 -4.12236 0
M  V30 4514 H 407.457 -0.259938 -0.611006 0
M  V30 4515 H 409.987 -1.33711 -1.54863 0
M  V30 4516 H 409.997 -0.958855 -3.96573 0
M  V30 4517 H 408.672 -2.05653 -3.61497 0
M  V30 4518 H 407.249 -0.228193 -3.72201 0
M  V30 4519 N 409.434 1.37368 -0.772513 0
M  V30 4520 C 410.683 1.98918 -0.333861 0
M  V30 4521 C 410.996 1.62017 1.09589 0
M  V30 4522 O 412.202 2.16676 1.63596 0
M  V30 4523 C 410.658 3.55735 -0.545971 0
M  V30 4524 C 410.266 4.01573 -1.98603 0
M  V30 4525 C 412.01 4.24156 -0.170979 0
M  V30 4526 C 409.917 5.51102 -2.1457 0
M  V30 4527 H 408.847 0.744214 -0.121085 0
M  V30 4528 H 411.498 1.56888 -0.95175 0
M  V30 4529 H 409.88 3.95748 0.141387 0
M  V30 4530 H 411.054 3.72803 -2.7084 0
M  V30 4531 H 409.369 3.45937 -2.31769 0
M  V30 4532 H 411.966 5.34024 -0.26878 0
M  V30 4533 H 412.309 4.06917 0.878855 0
M  V30 4534 H 412.842 3.89447 -0.810914 0
M  V30 4535 H 409.581 5.73268 -3.17875 0
M  V30 4536 H 409.101 5.81554 -1.46817 0
M  V30 4537 H 410.78 6.17083 -1.94468 0
M  V30 4538 N 410.912 0.523116 1.48665 0
M  V30 4539 C 412.16 -0.0134497 2.02096 0
M  V30 4540 C 412.481 -1.35418 1.40311 0
M  V30 4541 O 411.751 -1.87543 0.566074 0
M  V30 4542 H 410.331 -0.00795915 0.746958 0
M  V30 4543 H 412.993 0.685388 1.82451 0
M  V30 4544 H 412.089 -0.126849 3.11842 0
M  V30 4545 N 412.39 -1.55475 0.257931 0
M  V30 4546 C 413.32 -2.24815 -0.630912 0
M  V30 4547 C 414.301 -1.23224 -1.17259 0
M  V30 4548 O 415.486 -1.51904 -1.20991 0
M  V30 4549 C 412.616 -2.95609 -1.82298 0
M  V30 4550 C 411.57 -4.03982 -1.41359 0
M  V30 4551 C 410.896 -4.6226 -2.68738 0
M  V30 4552 C 412.196 -5.19109 -0.57648 0
M  V30 4553 H 413.89 -2.99354 -0.0526878 0
M  V30 4554 H 411.436 -1.4398 -0.023901 0
M  V30 4555 H 413.389 -3.42822 -2.45054 0
M  V30 4556 H 412.113 -2.18577 -2.42676 0
M  V30 4557 H 410.772 -3.57555 -0.809324 0
M  V30 4558 H 410.42 -3.81915 -3.27338 0
M  V30 4559 H 410.12 -5.35424 -2.42065 0
M  V30 4560 H 411.644 -5.12212 -3.32372 0
M  V30 4561 H 413.058 -5.62479 -1.10861 0
M  V30 4562 H 411.455 -5.98729 -0.405351 0
M  V30 4563 H 412.525 -4.83174 0.408776 0
M  V30 4564 N 413.868 0.0150385 -1.57593 0
M  V30 4565 C 415.115 0.703001 -1.89906 0
M  V30 4566 C 415.443 1.74604 -0.856944 0
M  V30 4567 O 414.698 1.95197 0.140287 0
M  V30 4568 C 414.997 1.39686 -3.28972 0
M  V30 4569 C 414.663 0.488457 -4.48246 0
M  V30 4570 C 413.325 0.2383 -4.8061 0
M  V30 4571 C 415.677 -0.137881 -5.21018 0
M  V30 4572 C 413.005 -0.646738 -5.83125 0
M  V30 4573 C 415.357 -1.0107 -6.24474 0
M  V30 4574 C 414.021 -1.27019 -6.55303 0
M  V30 4575 H 413.291 0.257246 -0.694914 0
M  V30 4576 H 415.938 -0.037259 -1.91464 0
M  V30 4577 H 414.243 2.21079 -3.23468 0
M  V30 4578 H 415.94 1.93495 -3.51227 0
M  V30 4579 H 412.53 0.693593 -4.22951 0
M  V30 4580 H 416.714 0.0423953 -4.96282 0
M  V30 4581 H 411.97 -0.855937 -6.05379 0
M  V30 4582 H 416.144 -1.50247 -6.79999 0
M  V30 4583 H 413.771 -1.95769 -7.3456 0
M  V30 4584 N 415.346 1.54954 0.287554 0
M  V30 4585 C 416.593 1.74873 1.02106 0
M  V30 4586 C 416.921 0.541829 1.86801 0
M  V30 4587 O 416.176 -0.475992 1.89823 0
M  V30 4588 C 416.475 2.99833 1.94512 0
M  V30 4589 C 416.141 4.33029 1.25686 0
M  V30 4590 C 414.803 4.69233 1.06649 0
M  V30 4591 C 417.155 5.15542 0.765913 0
M  V30 4592 C 414.483 5.85518 0.372222 0
M  V30 4593 C 416.835 6.32542 0.0853101 0
M  V30 4594 C 415.499 6.67398 -0.1169 0
M  V30 4595 H 414.769 0.639906 0.373632 0
M  V30 4596 H 417.416 1.89219 0.294665 0
M  V30 4597 H 415.721 2.80325 2.73725 0
M  V30 4598 H 417.418 3.1244 2.51361 0
M  V30 4599 H 414.008 4.04564 1.41512 0
M  V30 4600 H 418.192 4.88059 0.90066 0
M  V30 4601 H 413.448 6.11057 0.204695 0
M  V30 4602 H 417.622 6.95741 -0.302936 0
M  V30 4603 H 415.249 7.57357 -0.656859 0
M  V30 4604 N 416.824 -0.551391 1.4764 0
M  V30 4605 C 418.07 -1.31024 1.54792 0
M  V30 4606 C 418.403 -1.9304 0.211967 0
M  V30 4607 O 417.678 -1.78175 -0.77999 0
M  V30 4608 C 417.961 -2.41593 2.67029 0
M  V30 4609 C 417.814 -1.84408 4.10261 0
M  V30 4610 C 419.133 -3.43488 2.75143 0
M  V30 4611 H 416.252 -0.475031 0.563485 0
M  V30 4612 H 418.894 -0.616454 1.79722 0
M  V30 4613 H 417.044 -3.00772 2.45904 0
M  V30 4614 H 418.716 -1.29445 4.42766 0
M  V30 4615 H 416.959 -1.15051 4.18265 0
M  V30 4616 H 417.63 -2.64367 4.84576 0
M  V30 4617 H 420.106 -2.94236 2.94218 0
M  V30 4618 H 418.982 -4.18274 3.55441 0
M  V30 4619 H 419.243 -4.02703 1.82435 0
M  V30 4620 N 418.302 -1.35869 -0.798587 0
M  V30 4621 C 419.527 -1.32883 -1.59238 0
M  V30 4622 C 419.952 0.0894587 -1.87887 0
M  V30 4623 O 419.31 1.05869 -1.47178 0
M  V30 4624 C 419.358 -2.14892 -2.89575 0
M  V30 4625 O 418.462 -1.53512 -3.82763 0
M  V30 4626 H 417.803 -0.455236 -0.48338 0
M  V30 4627 H 420.333 -1.79024 -0.990539 0
M  V30 4628 H 420.343 -2.27139 -3.38928 0
M  V30 4629 H 419.018 -3.17998 -2.68049 0
M  V30 4630 H 417.595 -1.50153 -3.41334 0
M  V30 4631 N 419.78 1.02168 -1.19998 0
M  V30 4632 C 421.01 1.79036 -1.031 0
M  V30 4633 C 421.418 1.84409 0.423078 0
M  V30 4634 O 420.761 1.29228 1.30559 0
M  V30 4635 C 420.823 3.25185 -1.53281 0
M  V30 4636 C 420.487 3.43431 -3.01503 0
M  V30 4637 C 421.484 3.33063 -3.99206 0
M  V30 4638 C 419.169 3.69412 -3.40353 0
M  V30 4639 C 421.163 3.48413 -5.33748 0
M  V30 4640 C 418.85 3.84406 -4.75053 0
M  V30 4641 C 419.848 3.7391 -5.71559 0
M  V30 4642 O 419.536 3.88452 -7.03818 0
M  V30 4643 H 419.268 0.570043 -0.363355 0
M  V30 4644 H 421.822 1.29524 -1.59414 0
M  V30 4645 H 420.052 3.75756 -0.913483 0
M  V30 4646 H 421.741 3.83671 -1.32481 0
M  V30 4647 H 422.507 3.12934 -3.70537 0
M  V30 4648 H 418.386 3.76671 -2.65782 0
M  V30 4649 H 421.93 3.40137 -6.09059 0
M  V30 4650 H 417.827 4.04035 -5.03415 0
M  V30 4651 H 418.595 4.055 -7.10993 0
M  V30 4652 N 421.258 1.00505 1.21394 0
M  V30 4653 C 422.505 0.687774 1.90462 0
M  V30 4654 C 422.833 -0.78147 1.7811 0
M  V30 4655 O 422.088 -1.58208 1.1519 0
M  V30 4656 C 422.387 1.0546 3.41486 0
M  V30 4657 C 422.053 2.51812 3.74034 0
M  V30 4658 C 420.715 2.91804 3.82628 0
M  V30 4659 C 423.067 3.46614 3.8924 0
M  V30 4660 C 420.395 4.2556 4.03876 0
M  V30 4661 C 422.747 4.80044 4.11995 0
M  V30 4662 C 421.411 5.19759 4.18816 0
M  V30 4663 H 420.681 0.251674 0.696951 0
M  V30 4664 H 423.328 1.26349 1.43903 0
M  V30 4665 H 421.633 0.397133 3.89782 0
M  V30 4666 H 423.33 0.786976 3.93202 0
M  V30 4667 H 419.92 2.1982 3.67936 0
M  V30 4668 H 424.104 3.16883 3.81967 0
M  V30 4669 H 419.36 4.55901 4.07387 0
M  V30 4670 H 423.534 5.53439 4.22704 0
M  V30 4671 H 421.161 6.23418 4.35033 0
M  V30 4672 N 422.737 -1.36956 0.779787 0
M  V30 4673 C 423.687 -2.27539 0.144892 0
M  V30 4674 C 424.671 -1.46493 -0.665488 0
M  V30 4675 O 425.863 -1.68968 -0.527141 0
M  V30 4676 C 422.992 -3.35512 -0.727082 0
M  V30 4677 C 422.078 -4.24001 0.0915642 0
M  V30 4678 N 422.469 -4.92757 1.14125 0
M  V30 4679 C 420.767 -4.45807 -0.131141 0
M  V30 4680 C 421.468 -5.58138 1.6388 0
M  V30 4681 N 420.444 -5.35241 0.94962 0
M  V30 4682 H 424.246 -2.78176 0.948446 0
M  V30 4683 H 421.76 -1.50169 0.618315 0
M  V30 4684 H 423.757 -3.99324 -1.19776 0
M  V30 4685 H 422.417 -2.86431 -1.52929 0
M  V30 4686 H 423.428 -4.94984 1.52353 0
M  V30 4687 H 420.105 -4.07582 -0.904621 0
M  V30 4688 H 421.495 -6.23071 2.51461 0
M  V30 4689 N 424.215 -0.530993 -1.48385 0
M  V30 4690 C 425.455 0.000718982 -2.044 0
M  V30 4691 C 425.819 1.31485 -1.39913 0
M  V30 4692 O 427.02 1.93265 -1.86821 0
M  V30 4693 C 425.291 0.119177 -3.57201 0
M  V30 4694 S 426.85 0.600806 -4.34667 0
M  V30 4695 H 423.668 -0.0125473 -0.710889 0
M  V30 4696 H 426.27 -0.711783 -1.82082 0
M  V30 4697 H 424.974 -0.842061 -4.01668 0
M  V30 4698 H 424.505 0.856026 -3.83974 0
M  V30 4699 H 426.52 1.86514 -4.59812 0
M  V30 4700 N 425.693 1.55336 -0.266172 0
M  V30 4701 C 426.626 2.18256 0.666296 0
M  V30 4702 C 427.604 1.14064 1.1588 0
M  V30 4703 O 428.788 1.42546 1.23341 0
M  V30 4704 C 425.915 2.79867 1.90768 0
M  V30 4705 C 424.961 3.97283 1.55141 0
M  V30 4706 S 425.794 5.31694 0.637313 0
M  V30 4707 C 426.95 5.96769 1.88727 0
M  V30 4708 H 427.183 2.97008 0.131647 0
M  V30 4709 H 424.716 1.54317 -0.0504869 0
M  V30 4710 H 426.674 3.15996 2.62025 0
M  V30 4711 H 425.335 2.01025 2.41346 0
M  V30 4712 H 424.528 4.3905 2.4749 0
M  V30 4713 H 424.13 3.6253 0.919113 0
M  V30 4714 H 426.422 6.15458 2.83227 0
M  V30 4715 H 427.365 6.91752 1.51276 0
M  V30 4716 H 427.773 5.26034 2.04814 0
M  V30 4717 N 427.171 -0.0066808 1.57599 0
M  V30 4718 C 428.119 -1.01851 2.09115 0
M  V30 4719 C 429.113 -1.36021 1.00969 0
M  V30 4720 O 430.319 -1.34663 1.19439 0
M  V30 4721 H 426.694 -0.346083 0.667631 0
M  V30 4722 H 428.665 -0.558394 2.93129 0
M  V30 4723 C 427.414 -2.30374 2.60429 0
M  V30 4724 H 426.737 -2.04947 3.43273 0
M  V30 4725 H 428.177 -2.99466 3.00161 0
M  V30 4726 C 426.636 -3.00893 1.51542 0
M  V30 4727 O 427.166 -3.91614 0.894484 0
M  V30 4728 N 425.372 -2.62603 1.2445 0
M  V30 4729 H 424.919 -1.88911 1.75129 0
M  V30 4730 H 424.877 -3.10101 0.518137 0
M  V30 4731 N 428.649 -1.55105 -0.279332 0
M  V30 4732 C 429.874 -1.7976 -1.03446 0
M  V30 4733 C 430.299 -0.565952 -1.79384 0
M  V30 4734 O 429.657 0.484259 -1.74713 0
M  V30 4735 C 429.705 -3.0179 -1.97371 0
M  V30 4736 O 428.809 -2.76432 -3.06038 0
M  V30 4737 H 428.15 -0.594334 -0.29608 0
M  V30 4738 H 430.68 -2.02235 -0.310165 0
M  V30 4739 H 430.69 -3.30351 -2.39441 0
M  V30 4740 H 429.365 -3.91085 -1.4151 0
M  V30 4741 H 427.942 -2.58949 -2.68328 0
M  V30 4742 N 430.127 0.543554 -1.4793 0
M  V30 4743 C 431.059 1.665 -1.57513 0
M  V30 4744 C 432.072 1.56156 -0.460333 0
M  V30 4745 O 433.261 1.62865 -0.730573 0
M  V30 4746 C 430.361 3.05063 -1.47614 0
M  V30 4747 C 429.534 3.41024 -2.739 0
M  V30 4748 C 428.593 4.58809 -2.57645 0
M  V30 4749 O 427.619 4.62707 -3.31498 0
M  V30 4750 N 428.821 5.56149 -1.66368 0
M  V30 4751 H 431.586 1.5872 -2.5422 0
M  V30 4752 H 429.147 0.730517 -1.44482 0
M  V30 4753 H 431.139 3.81712 -1.34455 0
M  V30 4754 H 429.709 3.06994 -0.589359 0
M  V30 4755 H 428.929 2.53687 -3.01723 0
M  V30 4756 H 430.217 3.61831 -3.57709 0
M  V30 4757 H 429.615 5.55767 -1.05543 0
M  V30 4758 H 428.172 6.32071 -1.59154 0
M  V30 4759 N 431.605 1.3629 0.791371 0
M  V30 4760 C 432.535 1.33137 1.91825 0
M  V30 4761 C 433.516 0.203168 1.68882 0
M  V30 4762 O 434.701 0.400509 1.90025 0
M  V30 4763 C 431.831 1.11793 3.28816 0
M  V30 4764 C 430.785 2.21417 3.66277 0
M  V30 4765 C 430.111 1.85218 5.01596 0
M  V30 4766 C 431.411 3.63489 3.75064 0
M  V30 4767 H 433.105 2.2743 1.9472 0
M  V30 4768 H 430.651 1.09479 0.935437 0
M  V30 4769 H 432.604 1.08222 4.07266 0
M  V30 4770 H 431.328 0.139501 3.26302 0
M  V30 4771 H 429.987 2.2411 2.90121 0
M  V30 4772 H 429.635 0.859544 4.95602 0
M  V30 4773 H 429.335 2.58611 5.27631 0
M  V30 4774 H 430.859 1.832 5.82469 0
M  V30 4775 H 432.273 3.63034 4.43711 0
M  V30 4776 H 430.67 4.35771 4.12582 0
M  V30 4777 H 431.74 3.98536 2.76219 0
M  V30 4778 N 433.083 -1.0153 1.20538 0
M  V30 4779 C 434.33 -1.75149 1.01633 0
M  V30 4780 C 434.658 -1.89189 -0.451399 0
M  V30 4781 O 433.913 -1.41551 -1.35136 0
M  V30 4782 C 434.212 -3.17213 1.64654 0
M  V30 4783 C 433.878 -3.23146 3.14464 0
M  V30 4784 C 432.54 -3.24472 3.55347 0
M  V30 4785 C 434.892 -3.21207 4.10458 0
M  V30 4786 C 432.22 -3.21532 4.90748 0
M  V30 4787 C 434.572 -3.19808 5.45807 0
M  V30 4788 C 433.236 -3.19439 5.86102 0
M  V30 4789 H 432.506 -0.640914 0.3719 0
M  V30 4790 H 435.153 -1.19071 1.49981 0
M  V30 4791 H 433.458 -3.76457 1.08571 0
M  V30 4792 H 435.155 -3.72871 1.4754 0
M  V30 4793 H 431.745 -3.2285 2.81897 0
M  V30 4794 H 435.929 -3.19351 3.79906 0
M  V30 4795 H 431.185 -3.19578 5.21229 0
M  V30 4796 H 435.359 -3.1726 6.19935 0
M  V30 4797 H 432.986 -3.16915 6.90991 0
M  V30 4798 N 434.561 -1.01147 -1.20859 0
M  V30 4799 C 435.786 -0.716698 -1.94623 0
M  V30 4800 C 436.211 0.715415 -1.73964 0
M  V30 4801 O 435.569 1.49157 -1.03062 0
M  V30 4802 C 435.617 -1.0513 -3.44935 0
M  V30 4803 O 434.721 -0.160131 -4.12089 0
M  V30 4804 H 434.062 -0.266404 -0.608214 0
M  V30 4805 H 436.592 -1.35346 -1.53436 0
M  V30 4806 H 436.602 -1.00086 -3.95533 0
M  V30 4807 H 435.277 -2.09475 -3.59295 0
M  V30 4808 H 433.854 -0.267657 -3.71938 0
M  V30 4809 N 436.039 1.36541 -0.78704 0
M  V30 4810 C 437.288 1.98552 -0.35494 0
M  V30 4811 C 437.601 1.63171 1.07864 0
M  V30 4812 O 438.807 2.18399 1.61289 0
M  V30 4813 C 437.263 3.55136 -0.583671 0
M  V30 4814 C 436.871 3.99444 -2.02851 0
M  V30 4815 C 438.615 4.2395 -0.215957 0
M  V30 4816 C 436.522 5.48796 -2.20403 0
M  V30 4817 H 435.452 0.742888 -0.128972 0
M  V30 4818 H 438.103 1.5587 -0.968337 0
M  V30 4819 H 436.485 3.95875 0.0994046 0
M  V30 4820 H 437.659 3.6991 -2.74779 0
M  V30 4821 H 435.974 3.43459 -2.35425 0
M  V30 4822 H 438.571 5.33709 -0.325405 0
M  V30 4823 H 438.914 4.07827 0.835646 0
M  V30 4824 H 439.447 3.88565 -0.852175 0
M  V30 4825 H 436.186 5.69864 -3.23937 0
M  V30 4826 H 435.706 5.79964 -1.52977 0
M  V30 4827 H 437.385 6.14986 -2.01002 0
M  V30 4828 N 437.518 0.538854 1.48102 0
M  V30 4829 C 438.766 0.00798599 2.02098 0
M  V30 4830 C 439.087 -1.33922 1.41739 0
M  V30 4831 O 438.357 -1.86932 0.585934 0
M  V30 4832 H 436.937 -3.62179e-05 0.747 0
M  V30 4833 H 439.599 0.7047 1.81714 0
M  V30 4834 H 438.695 -0.0937672 3.11959 0
M  V30 4835 N 438.996 -1.55193 0.274407 0
M  V30 4836 C 439.929 -2.18606 -0.654712 0
M  V30 4837 C 440.907 -1.14677 -1.15273 0
M  V30 4838 O 442.091 -1.43198 -1.22583 0
M  V30 4839 C 439.218 -2.80875 -1.89281 0
M  V30 4840 C 438.264 -3.981 -1.53032 0
M  V30 4841 S 439.097 -5.32025 -0.609107 0
M  V30 4842 C 440.253 -5.97761 -1.85559 0
M  V30 4843 H 440.486 -2.97074 -0.115894 0
M  V30 4844 H 438.019 -1.54288 0.05867 0
M  V30 4845 H 439.977 -3.17381 -2.60345 0
M  V30 4846 H 438.638 -2.02302 -2.40277 0
M  V30 4847 H 437.831 -4.40356 -2.45158 0
M  V30 4848 H 437.433 -3.63013 -0.899874 0
M  V30 4849 H 439.725 -6.16951 -2.7996 0
M  V30 4850 H 440.668 -6.92545 -1.47605 0
M  V30 4851 H 441.076 -5.27113 -2.02021 0
M  V30 4852 N 440.474 -0.00167713 -1.576 0
M  V30 4853 C 441.721 0.68282 -1.90641 0
M  V30 4854 C 442.049 1.73686 -0.875415 0
M  V30 4855 O 441.304 1.95334 0.119575 0
M  V30 4856 C 441.603 1.36189 -3.30435 0
M  V30 4857 C 441.269 0.440887 -4.48739 0
M  V30 4858 C 439.931 0.187312 -4.80835 0
M  V30 4859 C 442.283 -0.193134 -5.20842 0
M  V30 4860 C 439.611 -0.70855 -5.82406 0
M  V30 4861 C 441.963 -1.07688 -6.23367 0
M  V30 4862 C 440.627 -1.33962 -6.53919 0
M  V30 4863 H 439.897 0.249862 -0.697603 0
M  V30 4864 H 442.544 -0.0575642 -1.91413 0
M  V30 4865 H 440.849 2.17636 -3.25794 0
M  V30 4866 H 442.546 1.89759 -3.5326 0
M  V30 4867 H 439.136 0.648694 -4.23663 0
M  V30 4868 H 443.32 -0.0102445 -4.96299 0
M  V30 4869 H 438.576 -0.920097 -6.04437 0
M  V30 4870 H 442.75 -1.57451 -6.78367 0
M  V30 4871 H 440.377 -2.03549 -7.32442 0
M  V30 4872 N 441.952 1.55251 0.271103 0
M  V30 4873 C 443.177 1.80306 1.02491 0
M  V30 4874 C 443.602 0.575457 1.79081 0
M  V30 4875 O 442.96 -0.474987 1.74967 0
M  V30 4876 C 443.008 3.02832 1.95768 0
M  V30 4877 O 442.112 2.78051 3.04568 0
M  V30 4878 H 441.453 0.595896 0.292923 0
M  V30 4879 H 443.983 2.02397 0.299436 0
M  V30 4880 H 443.993 3.31616 2.37686 0
M  V30 4881 H 442.668 3.9183 1.39434 0
M  V30 4882 H 441.245 2.60369 2.66951 0
M  V30 4883 N 443.43 -0.535701 1.48216 0
M  V30 4884 C 444.66 -1.3148 1.59363 0
M  V30 4885 C 445.068 -1.8753 0.250844 0
M  V30 4886 O 444.411 -1.66821 -0.769174 0
M  V30 4887 C 444.473 -2.50731 2.57632 0
M  V30 4888 C 444.137 -2.15811 4.02833 0
M  V30 4889 C 445.134 -1.71822 4.90686 0
M  V30 4890 C 442.819 -2.26509 4.48329 0
M  V30 4891 C 444.813 -1.3899 6.22062 0
M  V30 4892 C 442.5 -1.93289 5.79726 0
M  V30 4893 C 443.498 -1.49599 6.66415 0
M  V30 4894 O 443.186 -1.16812 7.95368 0
M  V30 4895 H 442.918 -0.406315 0.540263 0
M  V30 4896 H 445.472 -0.653569 1.94725 0
M  V30 4897 H 443.702 -3.19817 2.1738 0
M  V30 4898 H 445.391 -3.12797 2.58675 0
M  V30 4899 H 446.157 -1.63031 4.56778 0
M  V30 4900 H 442.036 -2.59471 3.81045 0
M  V30 4901 H 445.58 -1.04816 6.89681 0
M  V30 4902 H 441.477 -2.01718 6.13172 0
M  V30 4903 H 442.245 -1.30259 8.08069 0
M  V30 4904 N 444.908 -1.36708 -0.784132 0
M  V30 4905 C 446.154 -1.31426 -1.54451 0
M  V30 4906 C 446.487 0.10476 -1.93917 0
M  V30 4907 O 445.762 1.05934 -1.6312 0
M  V30 4908 C 446.045 -2.24189 -2.818 0
M  V30 4909 C 445.898 -3.74813 -2.48667 0
M  V30 4910 C 447.217 -2.15626 -3.83658 0
M  V30 4911 H 444.336 -0.478739 -0.560337 0
M  V30 4912 H 446.978 -1.67305 -0.900498 0
M  V30 4913 H 445.128 -1.93722 -3.36755 0
M  V30 4914 H 446.8 -4.15823 -1.99722 0
M  V30 4915 H 445.043 -3.93989 -1.81535 0
M  V30 4916 H 445.714 -4.35138 -3.39646 0
M  V30 4917 H 448.19 -2.42456 -3.38163 0
M  V30 4918 H 447.066 -2.82694 -4.70506 0
M  V30 4919 H 447.327 -1.14522 -4.27009 0
M  V30 4920 N 446.386 1.0089 -1.21074 0
M  V30 4921 C 447.319 2.09279 -0.909806 0
M  V30 4922 C 448.297 1.61986 0.141145 0
M  V30 4923 O 449.481 1.88495 0.0130332 0
M  V30 4924 C 446.608 3.36723 -0.365374 0
M  V30 4925 C 445.654 4.02919 -1.39852 0
M  V30 4926 S 446.487 4.45835 -2.96633 0
M  V30 4927 C 447.643 5.76471 -2.43786 0
M  V30 4928 H 447.876 2.34484 -1.82769 0
M  V30 4929 H 445.409 1.14115 -1.04006 0
M  V30 4930 H 447.367 4.10459 -0.0578203 0
M  V30 4931 H 446.028 3.09577 0.531136 0
M  V30 4932 H 445.221 4.94634 -0.967117 0
M  V30 4933 H 444.823 3.35441 -1.65395 0
M  V30 4934 H 447.115 6.52027 -1.84029 0
M  V30 4935 H 448.058 6.24418 -3.33928 0
M  V30 4936 H 448.466 5.33104 -1.85636 0
M  V30 4937 N 447.864 1.01787 1.20321 0
M  V30 4938 C 448.794 0.609625 2.25401 0
M  V30 4939 C 449.775 -0.375951 1.65893 0
M  V30 4940 O 450.96 -0.261101 1.92437 0
M  V30 4941 C 448.09 -0.0515995 3.47262 0
M  V30 4942 C 447.044 0.855095 4.19371 0
M  V30 4943 C 446.37 0.0595757 5.34667 0
M  V30 4944 C 447.67 2.16374 4.75373 0
M  V30 4945 H 449.364 1.48803 2.59804 0
M  V30 4946 H 446.91 0.716934 1.24884 0
M  V30 4947 H 448.863 -0.348764 4.19954 0
M  V30 4948 H 447.587 -0.964726 3.12027 0
M  V30 4949 H 446.246 1.13628 3.48546 0
M  V30 4950 H 445.894 -0.85524 4.95676 0
M  V30 4951 H 445.594 0.663406 5.83843 0
M  V30 4952 H 447.118 -0.231105 6.10162 0
M  V30 4953 H 448.532 1.92885 5.39878 0
M  V30 4954 H 446.929 2.71853 5.34991 0
M  V30 4955 H 447.999 2.82589 3.94045 0
M  V30 4956 N 449.342 -1.36122 0.79427 0
M  V30 4957 C 450.305 -2.28309 0.201889 0
M  V30 4958 C 451.305 -1.49041 -0.603603 0
M  V30 4959 O 452.495 -1.68964 -0.423888 0
M  V30 4960 C 449.627 -3.3321 -0.719978 0
M  V30 4961 H 450.82 -2.82208 1.01481 0
M  V30 4962 H 448.373 -1.45768 0.564037 0
M  V30 4963 H 449.108 -2.84475 -1.55706 0
M  V30 4964 H 448.893 -3.91835 -0.144266 0
M  V30 4965 H 450.383 -4.02044 -1.12916 0
M  V30 4966 N 450.82 -0.546701 -1.47814 0
M  V30 4967 C 452.045 -0.021268 -2.07389 0
M  V30 4968 C 452.47 1.25822 -1.39822 0
M  V30 4969 O 451.828 1.75111 -0.46968 0
M  V30 4970 C 451.876 0.168502 -3.60206 0
M  V30 4971 O 450.98 1.23347 -3.93522 0
M  V30 4972 H 450.321 -0.0466108 -0.662362 0
M  V30 4973 H 452.851 -0.759387 -1.89985 0
M  V30 4974 H 452.861 0.385982 -4.0617 0
M  V30 4975 H 451.536 -0.766075 -4.08784 0
M  V30 4976 H 450.113 0.997319 -3.59316 0
M  V30 4977 N 452.299 1.55045 -0.282633 0
M  V30 4978 C 453.524 2.04628 0.337977 0
M  V30 4979 C 453.949 1.15937 1.48123 0
M  V30 4980 O 453.307 0.159532 1.80597 0
M  V30 4981 C 453.355 3.51854 0.78936 0
M  V30 4982 O 452.459 3.66236 1.89592 0
M  V30 4983 H 451.8 0.660434 0.0687261 0
M  V30 4984 H 454.33 2.00261 -0.419124 0
M  V30 4985 H 454.34 3.93361 1.08311 0
M  V30 4986 H 453.015 4.15873 -0.0470419 0
M  V30 4987 H 451.592 3.36633 1.60413 0
M  V30 4988 N 453.777 0.010035 1.57597 0
M  V30 4989 C 455.188 -0.531426 1.78977 0
M  V30 4990 C 455.539 -1.73375 0.918454 0
M  V30 4991 O 454.664 -2.16047 0.123635 0
M  V30 4992 C 455.259 -0.97086 3.24592 0
M  V30 4993 C 453.818 -1.45756 3.47033 0
M  V30 4994 C 452.965 -0.413384 2.74201 0
M  V30 4995 H 455.916 0.236166 1.56933 0
M  V30 4996 H 455.937 -1.83633 3.33255 0
M  V30 4997 H 455.449 -0.0955893 3.87982 0
M  V30 4998 H 453.55 -2.35339 2.88871 0
M  V30 4999 H 453.663 -1.4781 4.55729 0
M  V30 5000 H 452.027 -0.877266 2.39115 0
M  V30 5001 H 452.81 0.453092 3.40297 0
M  V30 5002 N 455.255 -1.55392 -0.262866 0
M  V30 5003 C 456.185 -1.91978 -1.32917 0
M  V30 5004 C 457.166 -0.7828 -1.51017 0
M  V30 5005 O 458.351 -1.04178 -1.63892 0
M  V30 5006 C 455.481 -2.20055 -2.68687 0
M  V30 5007 C 454.435 -3.35854 -2.65304 0
M  V30 5008 C 453.761 -3.49435 -4.04721 0
M  V30 5009 C 455.061 -4.71977 -2.23685 0
M  V30 5010 H 456.755 -2.81292 -1.02544 0
M  V30 5011 H 454.301 -1.3534 -0.491846 0
M  V30 5012 H 456.254 -2.44237 -3.43404 0
M  V30 5013 H 454.978 -1.27551 -3.00663 0
M  V30 5014 H 453.637 -3.11655 -1.93045 0
M  V30 5015 H 453.285 -2.54379 -4.33936 0
M  V30 5016 H 452.985 -4.27297 -4.0335 0
M  V30 5017 H 454.509 -3.7592 -4.81161 0
M  V30 5018 H 455.923 -4.95637 -2.88127 0
M  V30 5019 H 454.32 -5.52828 -2.33456 0
M  V30 5020 H 455.39 -4.70115 -1.18827 0
M  V30 5021 N 456.733 0.527833 -1.48498 0
M  V30 5022 C 457.98 1.28354 -1.56625 0
M  V30 5023 C 458.308 1.93 -0.241096 0
M  V30 5024 O 457.563 1.79967 0.768798 0
M  V30 5025 C 457.862 2.39275 -2.65485 0
M  V30 5026 C 457.528 1.92268 -4.07853 0
M  V30 5027 C 456.19 1.79166 -4.46602 0
M  V30 5028 C 458.542 1.56771 -4.97064 0
M  V30 5029 C 455.87 1.28905 -5.72364 0
M  V30 5030 C 458.222 1.07972 -6.23318 0
M  V30 5031 C 456.886 0.934887 -6.60921 0
M  V30 5032 H 456.156 0.469682 -0.573131 0
M  V30 5033 H 458.803 0.588781 -1.82224 0
M  V30 5034 H 457.108 3.1443 -2.33754 0
M  V30 5035 H 458.805 2.974 -2.68988 0
M  V30 5036 H 455.395 2.03417 -3.77252 0
M  V30 5037 H 459.579 1.65753 -4.67803 0
M  V30 5038 H 454.835 1.16381 -6.00221 0
M  V30 5039 H 459.009 0.795775 -6.91838 0
M  V30 5040 H 456.636 0.543231 -7.58257 0
M  V30 5041 N 458.211 1.37122 0.776871 0
M  V30 5042 C 459.451 1.33441 1.54831 0
M  V30 5043 C 459.815 -0.0818963 1.91825 0
M  V30 5044 O 461.016 -0.24338 2.67696 0
M  V30 5045 C 459.287 2.24267 2.78279 0
M  V30 5046 S 460.846 2.38389 3.68397 0
M  V30 5047 H 457.664 0.473791 0.530135 0
M  V30 5048 H 460.266 1.7282 0.913968 0
M  V30 5049 H 458.97 3.261 2.49173 0
M  V30 5050 H 458.501 1.85953 3.46677 0
M  V30 5051 H 460.516 1.59068 4.70013 0
M  V30 5052 N 459.689 -1.00246 1.21608 0
M  V30 5053 C 460.914 -1.78167 1.06167 0
M  V30 5054 C 461.339 -1.84138 -0.384035 0
M  V30 5055 O 460.697 -1.28683 -1.27712 0
M  V30 5056 C 460.745 -3.19786 1.66642 0
M  V30 5057 O 459.849 -4.02153 0.913613 0
M  V30 5058 H 459.19 -0.549 0.37349 0
M  V30 5059 H 461.72 -1.25994 1.61204 0
M  V30 5060 H 461.73 -3.70451 1.70969 0
M  V30 5061 H 460.405 -3.14754 2.7185 0
M  V30 5062 H 458.982 -3.60711 0.945635 0
M  V30 5063 N 461.167 -1.02423 -1.1978 0
M  V30 5064 C 462.578 -0.748389 -1.71044 0
M  V30 5065 C 462.929 0.732398 -1.82017 0
M  V30 5066 O 462.054 1.57116 -1.48807 0
M  V30 5067 C 462.649 -1.35187 -3.1066 0
M  V30 5068 C 461.208 -1.12472 -3.59203 0
M  V30 5069 C 460.355 -1.45283 -2.36195 0
M  V30 5070 H 463.306 -1.19275 -1.04686 0
M  V30 5071 H 463.327 -0.746408 -3.73107 0
M  V30 5072 H 462.839 -2.4296 -3.02642 0
M  V30 5073 H 460.94 -0.0649983 -3.72543 0
M  V30 5074 H 461.053 -1.81016 -4.43588 0
M  V30 5075 H 459.417 -0.872034 -2.39307 0
M  V30 5076 H 460.2 -2.54129 -2.30811 0
M  V30 5077 N 462.645 1.35699 -0.801477 0
M  V30 5078 C 463.555 2.33661 -0.209691 0
M  V30 5079 C 464.571 1.6162 0.644591 0
M  V30 5080 O 465.747 1.93529 0.557545 0
M  V30 5081 C 462.812 3.40816 0.636033 0
M  V30 5082 C 461.873 4.28639 -0.238147 0
M  V30 5083 C 461.106 5.30676 0.567307 0
M  V30 5084 O 461.329 5.41174 1.8024 0
M  V30 5085 O 460.263 6.01887 -0.0391336 0
M  V30 5086 H 464.089 2.8606 -1.01996 0
M  V30 5087 H 461.674 1.38379 -0.563164 0
M  V30 5088 H 463.556 4.06301 1.11791 0
M  V30 5089 H 462.231 2.90696 1.42399 0
M  V30 5090 H 461.138 3.66152 -0.767044 0
M  V30 5091 H 462.471 4.82143 -0.989915 0
M  V30 5092 N 464.123 0.554532 1.47522 0
M  V30 5093 C 465.369 0.0377449 2.03365 0
M  V30 5094 C 465.724 -1.29654 1.42154 0
M  V30 5095 O 465.017 -1.83022 0.566865 0
M  V30 5096 C 465.211 -0.115927 3.57212 0
M  V30 5097 C 465.04 1.20191 4.33341 0
M  V30 5098 C 463.81 1.76849 4.73342 0
M  V30 5099 C 466.008 2.11849 4.68641 0
M  V30 5100 N 463.99 3.02665 5.34104 0
M  V30 5101 C 465.361 3.22245 5.29677 0
M  V30 5102 C 467.416 2.11876 4.5057 0
M  V30 5103 C 466.119 4.32763 5.74551 0
M  V30 5104 C 468.145 3.21405 4.9644 0
M  V30 5105 C 467.507 4.30519 5.57523 0
M  V30 5106 H 463.606 0.0559107 0.779999 0
M  V30 5107 H 466.19 0.741232 1.80038 0
M  V30 5108 H 464.361 -0.788533 3.80311 0
M  V30 5109 H 466.093 -0.634538 3.99695 0
M  V30 5110 H 462.848 1.30681 4.55214 0
M  V30 5111 H 463.272 3.66788 5.69031 0
M  V30 5112 H 467.914 1.28801 4.02704 0
M  V30 5113 H 465.632 5.166 6.2141 0
M  V30 5114 H 469.218 3.22509 4.8423 0
M  V30 5115 H 468.098 5.13873 5.92371 0
M  V30 5116 N 465.601 -1.54893 0.290851 0
M  V30 5117 C 467.012 -1.85584 -0.203816 0
M  V30 5118 C 467.363 -1.21285 -1.54222 0
M  V30 5119 O 466.488 -0.506841 -2.10381 0
M  V30 5120 C 467.083 -3.367 -0.376595 0
M  V30 5121 C 465.642 -3.6746 -0.815485 0
M  V30 5122 C 464.789 -2.77178 0.0821087 0
M  V30 5123 H 467.74 -1.50208 0.512175 0
M  V30 5124 H 467.761 -3.60656 -1.21275 0
M  V30 5125 H 467.273 -3.8347 0.59767 0
M  V30 5126 H 465.374 -3.26201 -1.80066 0
M  V30 5127 H 465.487 -4.7478 -0.641905 0
M  V30 5128 H 463.851 -2.50925 -0.436895 0
M  V30 5129 H 464.634 -3.26767 1.05254 0
M  V30 5130 N 467.08 -0.0183926 -1.57589 0
M  V30 5131 C 468.496 0.337897 -1.55982 0
M  V30 5132 C 468.696 1.73604 -1.02294 0
M  V30 5133 O 467.752 2.43589 -0.664895 0
M  V30 5134 C 469.065 0.196305 -3.00059 0
M  V30 5135 C 470.613 0.269875 -3.11834 0
M  V30 5136 C 471.088 0.157197 -4.5773 0
M  V30 5137 N 472.579 0.214521 -4.62703 0
M  V30 5138 C 473.314 0.150955 -5.73201 0
M  V30 5139 N 472.81 0.0369212 -6.9279 0
M  V30 5140 N 474.603 0.204162 -5.61729 0
M  V30 5141 H 466.754 -0.93279 -1.90821 0
M  V30 5142 H 469.017 -0.359253 -0.877292 0
M  V30 5143 H 468.723 -0.766383 -3.43248 0
M  V30 5144 H 468.597 0.970908 -3.6449 0
M  V30 5145 H 470.984 1.22302 -2.68563 0
M  V30 5146 H 471.065 -0.534918 -2.50144 0
M  V30 5147 H 470.709 -0.792479 -5.01679 0
M  V30 5148 H 470.639 0.980717 -5.17387 0
M  V30 5149 H 473.13 0.303238 -3.76681 0
M  V30 5150 H 473.443 -0.00518321 -7.728 0
M  V30 5151 H 471.788 0.0022886 -6.95 0
M  V30 5152 H 474.979 0.291575 -4.67191 0
M  V30 5153 H 475.152 0.15116 -6.47824 0
M  V30 5154 N 468.558 1.5553 0.254621 0
M  V30 5155 C 469.505 1.89666 1.31512 0
M  V30 5156 C 470.475 0.750057 1.482 0
M  V30 5157 O 471.66 1.00301 1.62309 0
M  V30 5158 C 468.8 2.19009 2.667 0
M  V30 5159 C 467.913 3.46435 2.58083 0
M  V30 5160 C 467.048 3.65386 3.85573 0
M  V30 5161 C 466.087 4.8644 3.71541 0
M  V30 5162 N 465.224 5.01952 4.90906 0
M  V30 5163 H 470.064 2.80109 1.017 0
M  V30 5164 H 467.601 1.38666 0.490938 0
M  V30 5165 H 469.559 2.34025 3.45381 0
M  V30 5166 H 468.189 1.31779 2.94676 0
M  V30 5167 H 467.241 3.39792 1.71013 0
M  V30 5168 H 468.553 4.35258 2.43622 0
M  V30 5169 H 467.707 3.80319 4.72697 0
M  V30 5170 H 466.446 2.74781 4.02922 0
M  V30 5171 H 465.451 4.71491 2.82801 0
M  V30 5172 H 466.676 5.78497 3.55694 0
M  V30 5173 H 464.622 4.14283 5.08631 0
M  V30 5174 H 464.539 5.84851 4.79046 0
M  V30 5175 H 465.807 5.21289 5.7955 0
M  V30 5176 N 470.036 -0.519951 1.48776 0
M  V30 5177 C 470.966 -1.63253 1.66945 0
M  V30 5178 C 471.947 -1.62014 0.518224 0
M  V30 5179 O 473.132 -1.79053 0.751919 0
M  V30 5180 C 470.262 -3.0181 1.71836 0
M  V30 5181 C 469.216 -3.17911 2.8656 0
M  V30 5182 C 468.542 -4.5763 2.76548 0
M  V30 5183 C 469.842 -2.99729 4.27738 0
M  V30 5184 H 471.536 -1.48302 2.6009 0
M  V30 5185 H 469.082 -0.712026 1.25165 0
M  V30 5186 H 471.035 -3.79525 1.83135 0
M  V30 5187 H 469.759 -3.17806 0.752775 0
M  V30 5188 H 468.418 -2.42616 2.74833 0
M  V30 5189 H 468.066 -4.70476 1.77937 0
M  V30 5190 H 467.766 -4.69346 3.53536 0
M  V30 5191 H 469.29 -5.37431 2.89828 0
M  V30 5192 H 470.704 -3.67228 4.40246 0
M  V30 5193 H 469.101 -3.22932 5.05801 0
M  V30 5194 H 470.171 -1.96047 4.43502 0
M  V30 5195 N 471.514 -1.37532 -0.769588 0
M  V30 5196 C 472.76 -1.33057 -1.53048 0
M  V30 5197 C 473.093 0.0841865 -1.94017 0
M  V30 5198 O 472.368 1.04198 -1.64235 0
M  V30 5199 C 472.651 -2.27166 -2.79406 0
M  V30 5200 C 472.504 -3.77429 -2.44677 0
M  V30 5201 C 473.823 -2.19683 -3.81349 0
M  V30 5202 H 470.942 -0.484655 -0.555228 0
M  V30 5203 H 473.584 -1.68251 -0.882702 0
M  V30 5204 H 471.734 -1.97283 -3.34682 0
M  V30 5205 H 473.406 -4.17918 -1.953 0
M  V30 5206 H 471.649 -3.95892 -1.77346 0
M  V30 5207 H 472.32 -4.38716 -3.35011 0
M  V30 5208 H 474.796 -2.46029 -3.35573 0
M  V30 5209 H 473.672 -2.87668 -4.67481 0
M  V30 5210 H 473.933 -1.19045 -4.25771 0
M  V30 5211 N 472.992 0.995999 -1.22138 0
M  V30 5212 C 474.217 1.77601 -1.0711 0
M  V30 5213 C 474.642 1.84339 0.374264 0
M  V30 5214 O 474 1.29359 1.27028 0
M  V30 5215 C 474.048 3.18897 -1.68336 0
M  V30 5216 O 473.152 4.01663 -0.934928 0
M  V30 5217 H 472.493 0.547011 -0.376397 0
M  V30 5218 H 475.023 1.25137 -1.6187 0
M  V30 5219 H 475.033 3.69539 -1.72931 0
M  V30 5220 H 473.708 3.13308 -2.73516 0
M  V30 5221 H 472.285 3.60204 -0.964751 0
M  V30 5222 N 474.47 1.03057 1.19235 0
M  V30 5223 C 475.7 0.746613 1.92638 0
M  V30 5224 C 476.108 -0.698708 1.75826 0
M  V30 5225 O 475.451 -1.487 1.07861 0
M  V30 5226 C 475.513 1.02024 3.44719 0
M  V30 5227 C 475.177 2.45745 3.85303 0
M  V30 5228 C 476.174 3.43887 3.8992 0
M  V30 5229 C 473.859 2.8019 4.16892 0
M  V30 5230 C 475.853 4.74529 4.2556 0
M  V30 5231 C 473.54 4.1104 4.52205 0
M  V30 5232 C 474.538 5.0802 4.56513 0
M  V30 5233 O 474.226 6.36527 4.91008 0
M  V30 5234 H 473.958 0.272401 0.618687 0
M  V30 5235 H 476.512 1.37853 1.52269 0
M  V30 5236 H 474.742 0.331184 3.85279 0
M  V30 5237 H 476.431 0.725677 3.9936 0
M  V30 5238 H 477.197 3.18614 3.65664 0
M  V30 5239 H 473.076 2.05382 4.12722 0
M  V30 5240 H 476.62 5.50222 4.28838 0
M  V30 5241 H 472.517 4.36086 4.7592 0
M  V30 5242 H 473.285 6.41025 5.08949 0
M  V30 5243 N 475.948 -1.35272 0.808662 0
M  V30 5244 C 477.188 -2.00534 0.395668 0
M  V30 5245 C 477.552 -1.62755 -1.01857 0
M  V30 5246 O 478.753 -2.20752 -1.53368 0
M  V30 5247 C 477.024 -3.52732 0.575771 0
M  V30 5248 S 478.583 -4.38067 0.253507 0
M  V30 5249 H 475.401 -0.694962 0.150165 0
M  V30 5250 H 478.003 -1.64823 1.05137 0
M  V30 5251 H 476.707 -3.77714 1.60499 0
M  V30 5252 H 476.238 -3.93285 -0.0951739 0
M  V30 5253 H 478.253 -4.87252 -0.938068 0
M  V30 5254 N 477.426 -0.562348 -1.47226 0
M  V30 5255 C 478.837 -0.130325 -1.86245 0
M  V30 5256 C 479.188 1.30128 -1.46838 0
M  V30 5257 O 478.313 1.97974 -0.873805 0
M  V30 5258 C 478.908 -0.229738 -3.3802 0
M  V30 5259 C 477.467 0.14728 -3.76112 0
M  V30 5260 C 476.614 -0.574971 -2.71274 0
M  V30 5261 H 479.565 -0.771773 -1.3867 0
M  V30 5262 H 479.586 0.550316 -3.76499 0
M  V30 5263 H 479.098 -1.27178 -3.66671 0
M  V30 5264 H 477.199 1.19023 -3.53078 0
M  V30 5265 H 477.312 -0.214858 -4.78618 0
M  V30 5266 H 475.676 -0.0174756 -2.54694 0
M  V30 5267 H 476.459 -1.61827 -3.02766 0
M  V30 5268 N 478.904 1.54736 -0.299062 0
M  V30 5269 C 480.32 1.59507 0.0543849 0
M  V30 5270 C 480.52 1.31606 1.52585 0
M  V30 5271 O 479.576 1.08853 2.27832 0
M  V30 5272 C 480.889 2.98751 -0.34181 0
M  V30 5273 C 482.437 3.1165 -0.290414 0
M  V30 5274 C 482.912 4.53199 -0.661402 0
M  V30 5275 N 484.403 4.59114 -0.613863 0
M  V30 5276 C 485.138 5.66709 -0.873417 0
M  V30 5277 N 484.634 6.82349 -1.19884 0
M  V30 5278 N 486.427 5.56369 -0.800608 0
M  V30 5279 H 478.578 1.71133 -1.25806 0
M  V30 5280 H 480.841 0.799186 -0.509908 0
M  V30 5281 H 480.547 3.24085 -1.36608 0
M  V30 5282 H 480.421 3.75961 0.305508 0
M  V30 5283 H 482.808 2.86066 0.724605 0
M  V30 5284 H 482.889 2.366 -0.972327 0
M  V30 5285 H 482.533 4.79513 -1.67422 0
M  V30 5286 H 482.463 5.26583 0.0425612 0
M  V30 5287 H 484.954 3.76053 -0.3732 0
M  V30 5288 H 485.267 7.60326 -1.38291 0
M  V30 5289 H 483.612 6.83906 -1.23685 0
M  V30 5290 H 486.803 4.64904 -0.546045 0
M  V30 5291 H 486.976 6.40139 -1.00626 0
M  V30 5292 N 480.382 0.0267497 1.57577 0
M  V30 5293 C 481.798 -0.32962 1.56159 0
M  V30 5294 C 481.998 -1.73059 1.03213 0
M  V30 5295 O 481.054 -2.43233 0.677804 0
M  V30 5296 C 482.367 -0.18039 3.00158 0
M  V30 5297 C 483.915 -0.253334 3.11973 0
M  V30 5298 C 484.39 -0.132921 4.57807 0
M  V30 5299 N 485.881 -0.189979 4.6281 0
M  V30 5300 C 486.616 -0.120554 5.73273 0
M  V30 5301 N 486.112 -0.000180315 6.928 0
M  V30 5302 N 487.905 -0.174369 5.61829 0
M  V30 5303 H 480.056 0.942896 1.90324 0
M  V30 5304 H 482.319 0.3639 0.875375 0
M  V30 5305 H 482.025 0.784576 3.42837 0
M  V30 5306 H 481.899 -0.951565 3.65 0
M  V30 5307 H 484.286 -1.20876 2.69208 0
M  V30 5308 H 484.367 0.548177 2.49857 0
M  V30 5309 H 484.011 0.819073 5.01252 0
M  V30 5310 H 483.941 -0.953264 5.179 0
M  V30 5311 H 486.432 -0.283257 3.76837 0
M  V30 5312 H 486.745 0.0461666 7.72786 0
M  V30 5313 H 485.09 0.034569 6.94991 0
M  V30 5314 H 488.281 -0.266794 4.67339 0
M  V30 5315 H 488.454 -0.116802 6.47895 0
M  V30 5316 N 481.861 -1.55662 -0.24637 0
M  V30 5317 C 482.791 -1.93377 -1.30873 0
M  V30 5318 C 483.772 -0.798773 -1.50179 0
M  V30 5319 O 484.957 -1.0591 -1.62778 0
M  V30 5320 C 482.087 -2.22893 -2.66338 0
M  V30 5321 C 481.041 -3.38649 -2.61727 0
M  V30 5322 C 480.367 -3.53708 -4.00992 0
M  V30 5323 C 481.667 -4.74323 -2.18666 0
M  V30 5324 H 483.361 -2.82363 -0.995552 0
M  V30 5325 H 480.907 -1.35854 -0.477464 0
M  V30 5326 H 482.86 -2.47866 -3.40794 0
M  V30 5327 H 481.584 -1.30733 -2.99293 0
M  V30 5328 H 480.243 -3.13685 -1.89729 0
M  V30 5329 H 479.891 -2.58967 -4.31214 0
M  V30 5330 H 479.591 -4.31551 -3.98795 0
M  V30 5331 H 481.115 -3.81003 -4.77147 0
M  V30 5332 H 482.529 -4.98665 -2.82854 0
M  V30 5333 H 480.926 -5.55273 -2.27579 0
M  V30 5334 H 481.996 -4.71349 -1.13834 0
M  V30 5335 N 483.339 0.512053 -1.4905 0
M  V30 5336 C 484.271 1.63121 -1.6101 0
M  V30 5337 C 485.284 1.55145 -0.493352 0
M  V30 5338 O 486.473 1.61278 -0.764955 0
M  V30 5339 C 483.573 3.01863 -1.54052 0
M  V30 5340 C 482.746 3.35138 -2.81072 0
M  V30 5341 C 481.805 4.5324 -2.67319 0
M  V30 5342 O 480.831 4.55571 -3.41238 0
M  V30 5343 N 482.033 5.52495 -1.78127 0
M  V30 5344 H 484.798 1.53292 -2.5753 0
M  V30 5345 H 482.359 0.699706 -1.45999 0
M  V30 5346 H 484.351 3.78774 -1.42521 0
M  V30 5347 H 482.921 3.05675 -0.654345 0
M  V30 5348 H 482.141 2.4723 -3.07036 0
M  V30 5349 H 483.429 3.54162 -3.65304 0
M  V30 5350 H 482.827 5.53403 -1.17308 0
M  V30 5351 H 481.384 6.28553 -1.72525 0
M  V30 5352 N 484.817 1.37938 0.762283 0
M  V30 5353 C 485.749 1.30349 1.88525 0
M  V30 5354 C 486.762 0.217402 1.61342 0
M  V30 5355 O 487.951 0.474291 1.72084 0
M  V30 5356 C 485.051 0.994844 3.23969 0
M  V30 5357 C 484.224 2.18829 3.78725 0
M  V30 5358 C 483.283 1.84844 4.92665 0
M  V30 5359 O 482.309 2.57244 5.07754 0
M  V30 5360 N 483.511 0.798201 5.74986 0
M  V30 5361 H 486.276 2.27114 1.95549 0
M  V30 5362 H 483.837 1.31686 0.941825 0
M  V30 5363 H 485.829 0.748168 3.97724 0
M  V30 5364 H 484.399 0.115446 3.12387 0
M  V30 5365 H 483.619 2.59615 2.96637 0
M  V30 5366 H 484.907 2.98497 4.1204 0
M  V30 5367 H 484.305 0.197611 5.65355 0
M  V30 5368 H 482.862 0.611396 6.48926 0
M  V30 5369 N 486.295 -0.989507 1.22664 0
M  V30 5370 C 487.225 -2.09847 1.02404 0
M  V30 5371 C 488.206 -1.70007 -0.0561303 0
M  V30 5372 O 489.391 -1.93906 0.106748 0
M  V30 5373 C 486.521 -3.41996 0.604663 0
M  V30 5374 C 485.475 -3.95699 1.63115 0
M  V30 5375 C 484.801 -5.23936 1.0675 0
M  V30 5376 C 486.101 -4.25999 3.02196 0
M  V30 5377 H 487.795 -2.27054 1.95158 0
M  V30 5378 H 485.341 -1.09111 0.939727 0
M  V30 5379 H 487.294 -4.1899 0.45002 0
M  V30 5380 H 486.018 -3.24626 -0.35855 0
M  V30 5381 H 484.677 -3.2084 1.77362 0
M  V30 5382 H 484.325 -5.02909 0.0955422 0
M  V30 5383 H 484.025 -5.60833 1.75328 0
M  V30 5384 H 485.549 -6.0356 0.924516 0
M  V30 5385 H 486.963 -4.93777 2.91303 0
M  V30 5386 H 485.36 -4.74076 3.67929 0
M  V30 5387 H 486.43 -3.33636 3.51873 0
M  V30 5388 N 487.773 -1.03688 -1.18687 0
M  V30 5389 C 488.703 -0.645407 -2.24403 0
M  V30 5390 C 489.684 0.349511 -1.66471 0
M  V30 5391 O 490.869 0.230453 -1.92828 0
M  V30 5392 C 487.999 -0.00365337 -3.473 0
M  V30 5393 C 486.953 -0.921705 -4.17958 0
M  V30 5394 C 486.279 -0.144629 -5.34504 0
M  V30 5395 C 487.579 -2.23909 -4.71871 0
M  V30 5396 H 489.273 -1.52917 -2.57404 0
M  V30 5397 H 486.819 -0.736711 -1.23728 0
M  V30 5398 H 488.772 0.281908 -4.20456 0
M  V30 5399 H 487.496 0.914963 -3.13522 0
M  V30 5400 H 486.155 -1.19159 -3.46694 0
M  V30 5401 H 485.803 0.776274 -4.96974 0
M  V30 5402 H 485.503 -0.756206 -5.82714 0
M  V30 5403 H 487.027 0.134004 -6.10453 0
M  V30 5404 H 488.441 -2.0145 -5.36741 0
M  V30 5405 H 486.838 -2.8033 -5.30599 0
M  V30 5406 H 487.908 -2.88822 -3.895 0
M  V30 5407 N 489.251 1.34841 -0.815825 0
M  V30 5408 C 490.662 1.80937 -0.46029 0
M  V30 5409 C 491.013 1.67685 1.01863 0
M  V30 5410 O 490.138 1.21277 1.79223 0
M  V30 5411 C 490.733 3.28509 -0.828708 0
M  V30 5412 C 489.292 3.72712 -0.525644 0
M  V30 5413 C 488.439 2.56676 -1.04941 0
M  V30 5414 H 491.39 1.22688 -1.00664 0
M  V30 5415 H 491.411 3.80279 -0.129757 0
M  V30 5416 H 490.923 3.38122 -1.90513 0
M  V30 5417 H 489.024 3.68642 0.541666 0
M  V30 5418 H 489.137 4.67119 -1.06474 0
M  V30 5419 H 487.501 2.50302 -0.471286 0
M  V30 5420 H 488.284 2.69063 -2.13214 0
M  V30 5421 N 490.729 0.570148 1.46925 0
M  V30 5422 C 491.659 -0.158274 2.32963 0
M  V30 5423 C 492.64 -0.896093 1.44583 0
M  V30 5424 O 493.825 -0.874022 1.7342 0
M  V30 5425 C 490.955 -1.18055 3.26619 0
M  V30 5426 C 489.909 -0.558379 4.24342 0
M  V30 5427 C 489.235 -1.68623 5.07415 0
M  V30 5428 C 490.535 0.496295 5.19937 0
M  V30 5429 H 492.229 0.560046 2.94115 0
M  V30 5430 H 489.775 0.270775 1.41431 0
M  V30 5431 H 491.728 -1.69841 3.85658 0
M  V30 5432 H 490.452 -1.92899 2.63548 0
M  V30 5433 H 489.111 -0.0617157 3.66548 0
M  V30 5434 H 488.759 -2.42402 4.40738 0
M  V30 5435 H 488.459 -1.27564 5.73586 0
M  V30 5436 H 489.983 -2.20709 5.69315 0
M  V30 5437 H 491.397 0.0640052 5.73264 0
M  V30 5438 H 489.794 0.82649 5.94381 0
M  V30 5439 H 490.864 1.38735 4.6463 0
M  V30 5440 N 492.207 -1.54576 0.307264 0
M  V30 5441 C 493.154 -2.23751 -0.56604 0
M  V30 5442 C 494.124 -1.22235 -1.12462 0
M  V30 5443 O 495.309 -1.50873 -1.16799 0
M  V30 5444 C 492.449 -2.98661 -1.72903 0
M  V30 5445 C 491.562 -4.14963 -1.20124 0
M  V30 5446 C 490.697 -4.77441 -2.3286 0
M  V30 5447 C 489.736 -5.85875 -1.77247 0
M  V30 5448 N 488.873 -6.42282 -2.8358 0
M  V30 5449 H 493.713 -2.97984 0.0304578 0
M  V30 5450 H 491.25 -1.47076 0.0268015 0
M  V30 5451 H 493.208 -3.40329 -2.41313 0
M  V30 5452 H 491.838 -2.26793 -2.29706 0
M  V30 5453 H 490.89 -3.78193 -0.409198 0
M  V30 5454 H 492.202 -4.93066 -0.754171 0
M  V30 5455 H 491.356 -5.21993 -3.09205 0
M  V30 5456 H 490.095 -3.98684 -2.80896 0
M  V30 5457 H 489.1 -5.40741 -0.993926 0
M  V30 5458 H 490.325 -6.6652 -1.30107 0
M  V30 5459 H 488.271 -5.66406 -3.30939 0
M  V30 5460 H 488.188 -7.1575 -2.43388 0
M  V30 5461 H 489.456 -6.91492 -3.59804 0
M  V30 5462 N 493.685 -0.035106 -1.57561 0
M  V30 5463 C 494.648 0.929819 -2.09492 0
M  V30 5464 C 495.648 1.25026 -1.01119 0
M  V30 5465 O 496.838 1.18961 -1.27255 0
M  V30 5466 C 493.97 2.24457 -2.56577 0
M  V30 5467 H 495.163 0.479935 -2.96035 0
M  V30 5468 H 492.716 0.213033 -1.54841 0
M  V30 5469 H 493.451 2.74061 -1.73382 0
M  V30 5470 H 493.236 2.02508 -3.35757 0
M  V30 5471 H 494.726 2.93607 -2.96959 0
M  V30 5472 N 495.163 1.55791 0.238111 0
M  V30 5473 C 496.126 1.90239 1.27835 0
M  V30 5474 C 497.126 0.779552 1.4064 0
M  V30 5475 O 498.316 1.04747 1.3919 0
M  V30 5476 C 495.448 2.13859 2.65475 0
M  V30 5477 H 496.641 2.83262 0.985034 0
M  V30 5478 H 494.194 1.48818 0.477799 0
M  V30 5479 H 494.929 1.23334 2.99932 0
M  V30 5480 H 494.714 2.95643 2.57561 0
M  V30 5481 H 496.204 2.41664 3.40571 0
M  V30 5482 N 496.642 -0.504142 1.49319 0
M  V30 5483 C 498.053 -1.08572 1.51885 0
M  V30 5484 C 498.404 -1.93842 0.303255 0
M  V30 5485 O 497.529 -2.0828 -0.58724 0
M  V30 5486 C 498.124 -1.97574 2.75227 0
M  V30 5487 C 496.683 -2.509 2.80581 0
M  V30 5488 C 495.83 -1.28447 2.45757 0
M  V30 5489 H 498.781 -0.288194 1.56061 0
M  V30 5490 H 498.802 -2.82219 2.55211 0
M  V30 5491 H 498.314 -1.35486 3.63683 0
M  V30 5492 H 496.415 -3.16636 1.96398 0
M  V30 5493 H 496.528 -2.88268 3.82673 0
M  V30 5494 H 494.892 -1.60868 1.97468 0
M  V30 5495 H 495.675 -0.68072 3.36483 0
M  V30 5496 N 498.12 -1.38341 -0.754957 0
M  V30 5497 C 499.052 -1.31347 -1.87831 0
M  V30 5498 C 500.065 -0.225955 -1.61224 0
M  V30 5499 O 501.254 -0.48341 -1.7183 0
M  V30 5500 C 498.354 -1.01201 -3.23437 0
M  V30 5501 C 497.527 -2.20834 -3.77559 0
M  V30 5502 C 496.586 -1.87454 -4.91678 0
M  V30 5503 O 495.612 -2.59934 -5.06382 0
M  V30 5504 N 496.814 -0.828682 -5.74555 0
M  V30 5505 H 499.579 -2.28147 -1.94342 0
M  V30 5506 H 497.14 -1.32184 -0.934828 0
M  V30 5507 H 499.132 -0.769249 -3.97322 0
M  V30 5508 H 497.702 -0.132011 -3.12321 0
M  V30 5509 H 496.922 -2.61184 -2.95256 0
M  V30 5510 H 498.21 -3.00678 -4.10451 0
M  V30 5511 H 497.608 -0.227591 -5.65242 0
M  V30 5512 H 496.165 -0.645802 -6.48593 0
M  V30 5513 N 499.598 0.982988 -1.23187 0
M  V30 5514 C 501.009 1.53847 -1.05773 0
M  V30 5515 C 501.36 1.92568 0.375744 0
M  V30 5516 O 500.485 1.75783 1.26211 0
M  V30 5517 C 501.08 2.79567 -1.91384 0
M  V30 5518 C 499.639 3.31524 -1.78238 0
M  V30 5519 C 498.786 2.04534 -1.87246 0
M  V30 5520 H 501.737 0.802962 -1.36888 0
M  V30 5521 H 501.758 3.52317 -1.43711 0
M  V30 5522 H 501.27 2.51353 -2.95708 0
M  V30 5523 H 499.371 3.64623 -0.766875 0
M  V30 5524 H 499.484 4.01457 -2.61475 0
M  V30 5525 H 497.848 2.1855 -1.30797 0
M  V30 5526 H 498.631 1.78706 -2.9312 0
M  V30 5527 N 501.076 1.04316 1.18135 0
M  V30 5528 C 502.301 0.768047 1.92655 0
M  V30 5529 C 502.726 -0.66904 1.758 0
M  V30 5530 O 502.084 -1.46372 1.06981 0
M  V30 5531 C 502.132 1.14239 3.42026 0
M  V30 5532 O 501.236 0.269333 4.1152 0
M  V30 5533 H 500.577 0.282436 0.600937 0
M  V30 5534 H 503.107 1.39367 1.49793 0
M  V30 5535 H 503.117 1.10538 3.92741 0
M  V30 5536 H 501.792 2.18928 3.53615 0
M  V30 5537 H 500.369 0.366175 3.71098 0
M  V30 5538 N 502.554 -1.34406 0.822964 0
M  V30 5539 C 503.8 -1.98578 0.411666 0
M  V30 5540 C 504.133 -1.65093 -1.02264 0
M  V30 5541 O 503.408 -0.92258 -1.71227 0
M  V30 5542 C 503.691 -3.54823 0.614235 0
M  V30 5543 C 503.544 -3.9805 2.09466 0
M  V30 5544 C 504.863 -4.40071 0.050221 0
M  V30 5545 H 501.982 -0.721355 0.151047 0
M  V30 5546 H 504.624 -1.59301 1.03554 0
M  V30 5547 H 502.774 -3.88411 0.0831774 0
M  V30 5548 H 504.446 -3.74795 2.68936 0
M  V30 5549 H 502.689 -3.4836 2.5851 0
M  V30 5550 H 503.36 -5.06819 2.18721 0
M  V30 5551 H 505.836 -4.13037 0.503953 0
M  V30 5552 H 504.712 -5.48452 0.221759 0
M  V30 5553 H 504.973 -4.29576 -1.04482 0
M  V30 5554 N 504.032 -0.577932 -1.46621 0
M  V30 5555 C 505.257 -0.0652536 -2.07297 0
M  V30 5556 C 505.682 1.22828 -1.4246 0
M  V30 5557 O 505.04 1.74075 -0.506718 0
M  V30 5558 C 505.088 0.0920589 -3.60482 0
M  V30 5559 O 504.192 1.14972 -3.96049 0
M  V30 5560 H 503.533 -0.06065 -0.661224 0
M  V30 5561 H 506.063 -0.799515 -1.88332 0
M  V30 5562 H 506.073 0.299741 -4.06897 0
M  V30 5563 H 504.748 -0.852612 -4.07067 0
M  V30 5564 H 503.325 0.920879 -3.61351 0
M  V30 5565 N 505.51 1.54411 -0.315457 0
M  V30 5566 C 506.75 2.02329 0.290236 0
M  V30 5567 C 507.114 1.19878 1.49977 0
M  V30 5568 O 508.315 1.57562 2.17779 0
M  V30 5569 C 506.586 3.51912 0.623937 0
M  V30 5570 S 508.145 4.21775 1.21044 0
M  V30 5571 H 504.963 0.705499 0.0882739 0
M  V30 5572 H 507.565 1.90328 -0.446694 0
M  V30 5573 H 506.269 4.09546 -0.264624 0
M  V30 5574 H 505.8 3.67977 1.39128 0
M  V30 5575 H 507.815 4.28757 2.49764 0
M  V30 5576 N 506.988 0.0434614 1.5754 0
M  V30 5577 C 508.234 -0.632971 1.92669 0
M  V30 5578 C 508.567 -1.70947 0.921446 0
M  V30 5579 O 507.842 -1.94426 -0.0537202 0
M  V30 5580 C 508.125 -1.23619 3.38216 0
M  V30 5581 C 507.978 -0.168274 4.49485 0
M  V30 5582 C 509.297 -2.15008 3.84005 0
M  V30 5583 H 506.416 -0.228629 0.700641 0
M  V30 5584 H 509.058 0.103651 1.89717 0
M  V30 5585 H 507.208 -1.864 3.40863 0
M  V30 5586 H 508.88 0.463196 4.58969 0
M  V30 5587 H 507.123 0.504581 4.30855 0
M  V30 5588 H 507.794 -0.630218 5.48391 0
M  V30 5589 H 510.27 -1.62198 3.83185 0
M  V30 5590 H 509.146 -2.54161 4.86511 0
M  V30 5591 H 509.407 -3.04707 3.20322 0
M  V30 5592 N 508.466 -1.55915 -0.229846 0
M  V30 5593 C 509.696 -1.82352 -0.971152 0
M  V30 5594 C 510.104 -0.619231 -1.7878 0
M  V30 5595 O 509.447 0.421597 -1.78797 0
M  V30 5596 C 509.509 -3.02399 -1.9441 0
M  V30 5597 C 509.173 -4.37739 -1.31277 0
M  V30 5598 C 510.17 -5.15074 -0.706757 0
M  V30 5599 C 507.855 -4.84454 -1.32702 0
M  V30 5600 C 509.849 -6.37281 -0.123413 0
M  V30 5601 C 507.536 -6.06605 -0.739831 0
M  V30 5602 C 508.534 -6.82858 -0.139071 0
M  V30 5603 O 508.222 -8.027 0.439007 0
M  V30 5604 H 507.954 -0.61035 -0.290601 0
M  V30 5605 H 510.508 -2.03839 -0.252746 0
M  V30 5606 H 508.738 -2.76709 -2.70128 0
M  V30 5607 H 510.427 -3.15779 -2.55026 0
M  V30 5608 H 511.193 -4.80093 -0.688131 0
M  V30 5609 H 507.072 -4.25081 -1.78402 0
M  V30 5610 H 510.616 -6.96741 0.346124 0
M  V30 5611 H 506.513 -6.4106 -0.755841 0
M  V30 5612 H 507.281 -8.17824 0.332521 0
M  V30 5613 N 509.944 0.496216 -1.49584 0
M  V30 5614 C 510.891 1.59722 -1.66606 0
M  V30 5615 C 511.861 1.58158 -0.507477 0
M  V30 5616 O 513.046 1.76072 -0.735076 0
M  V30 5617 C 510.186 2.97844 -1.74308 0
M  V30 5618 C 509.299 3.09388 -3.01502 0
M  V30 5619 C 508.434 4.38271 -3.00153 0
M  V30 5620 C 507.473 4.43466 -4.21906 0
M  V30 5621 N 506.61 5.63784 -4.1844 0
M  V30 5622 H 511.45 1.44515 -2.60613 0
M  V30 5623 H 508.987 0.703048 -1.29212 0
M  V30 5624 H 510.945 3.77907 -1.76754 0
M  V30 5625 H 509.575 3.11743 -0.837619 0
M  V30 5626 H 508.627 2.22357 -3.08645 0
M  V30 5627 H 509.939 3.09085 -3.91494 0
M  V30 5628 H 509.093 5.2666 -3.01188 0
M  V30 5629 H 507.832 4.41146 -2.07947 0
M  V30 5630 H 506.837 3.53478 -4.21109 0
M  V30 5631 H 508.062 4.42303 -5.1531 0
M  V30 5632 H 506.008 5.67491 -3.29074 0
M  V30 5633 H 505.925 5.65118 -5.02173 0
M  V30 5634 H 507.193 6.54367 -4.23585 0
M  V30 5635 N 511.423 1.38739 0.74761 0
M  V30 5636 C 512.839 1.20067 1.05148 0
M  V30 5637 C 513.039 0.0534835 2.01429 0
M  V30 5638 O 512.095 -0.59886 2.45296 0
M  V30 5639 C 513.408 2.52957 1.62584 0
M  V30 5640 C 514.956 2.59692 1.74726 0
M  V30 5641 C 515.431 3.92772 2.35573 0
M  V30 5642 N 516.922 3.94343 2.42997 0
M  V30 5643 C 517.657 4.9408 2.90985 0
M  V30 5644 N 517.153 6.04214 3.38965 0
M  V30 5645 N 518.946 4.81466 2.9008 0
M  V30 5646 H 511.097 2.12121 0.108808 0
M  V30 5647 H 513.36 0.941491 0.110899 0
M  V30 5648 H 513.066 3.37389 0.993051 0
M  V30 5649 H 512.94 2.71779 2.61565 0
M  V30 5650 H 515.327 1.75651 2.3713 0
M  V30 5651 H 515.408 2.44731 0.744326 0
M  V30 5652 H 515.052 4.77238 1.738 0
M  V30 5653 H 514.982 4.05046 3.36519 0
M  V30 5654 H 517.473 3.14799 2.0907 0
M  V30 5655 H 517.786 6.76241 3.74056 0
M  V30 5656 H 516.131 6.07825 3.37007 0
M  V30 5657 H 519.322 3.94535 2.51912 0
M  V30 5658 H 519.495 5.59344 3.27166 0
M  V30 5659 N 512.901 -0.976442 1.23707 0
M  V30 5660 C 514.126 -1.75875 1.09922 0
M  V30 5661 C 514.551 -1.84911 -0.34489 0
M  V30 5662 O 513.909 -1.31363 -1.24954 0
M  V30 5663 C 513.957 -3.16179 1.73388 0
M  V30 5664 O 513.061 -4.00124 0.99871 0
M  V30 5665 H 512.402 -0.540954 0.385052 0
M  V30 5666 H 514.932 -1.22546 1.6384 0
M  V30 5667 H 514.942 -3.66741 1.78788 0
M  V30 5668 H 513.617 -3.08917 2.78466 0
M  V30 5669 H 512.194 -3.58624 1.02193 0
M  V30 5670 N 514.379 -1.04941 -1.1758 0
M  V30 5671 C 515.795 -0.770282 -1.39781 0
M  V30 5672 C 515.995 0.636417 -1.91186 0
M  V30 5673 O 515.051 1.39923 -2.10185 0
M  V30 5674 C 516.364 -1.82376 -2.3908 0
M  V30 5675 C 517.912 -1.84569 -2.52791 0
M  V30 5676 C 518.387 -2.88933 -3.55361 0
M  V30 5677 N 519.878 -2.8788 -3.62877 0
M  V30 5678 C 520.613 -3.65282 -4.41992 0
M  V30 5679 N 520.109 -4.52461 -5.24643 0
M  V30 5680 N 521.902 -3.53732 -4.36841 0
M  V30 5681 H 514.053 -1.95705 -0.825438 0
M  V30 5682 H 516.316 -0.847284 -0.425222 0
M  V30 5683 H 516.022 -2.83323 -2.08376 0
M  V30 5684 H 515.896 -1.66327 -3.38549 0
M  V30 5685 H 518.283 -0.842879 -2.82807 0
M  V30 5686 H 518.364 -2.04696 -1.53406 0
M  V30 5687 H 518.008 -3.89398 -3.26085 0
M  V30 5688 H 517.938 -2.66059 -4.54445 0
M  V30 5689 H 520.429 -2.24666 -3.03864 0
M  V30 5690 H 520.742 -5.08211 -5.82187 0
M  V30 5691 H 519.087 -4.56524 -5.24033 0
M  V30 5692 H 522.278 -2.85021 -3.71323 0
M  V30 5693 H 522.451 -4.14302 -4.98255 0
M  V30 5694 N 515.857 1.33968 -0.830081 0
M  V30 5695 C 517.105 1.97672 -0.420734 0
M  V30 5696 C 517.426 1.66111 1.02138 0
M  V30 5697 O 516.696 0.955503 1.71017 0
M  V30 5698 H 515.276 0.73125 -0.152587 0
M  V30 5699 H 517.938 1.63483 -1.0611 0
M  V30 5700 H 517.034 3.07294 -0.545588 0
M  V30 5701 N 517.335 0.585699 1.46312 0
M  V30 5702 C 518.282 -0.145835 2.30339 0
M  V30 5703 C 519.252 -0.881215 1.40797 0
M  V30 5704 O 520.437 -0.871293 1.69744 0
M  V30 5705 C 517.577 -1.15161 3.25318 0
M  V30 5706 C 516.69 -0.419367 4.2996 0
M  V30 5707 C 515.825 -1.41293 5.12064 0
M  V30 5708 C 514.864 -0.667261 6.08452 0
M  V30 5709 N 514.001 -1.60903 6.83414 0
M  V30 5710 H 518.841 0.576755 2.92365 0
M  V30 5711 H 516.378 0.296237 1.44086 0
M  V30 5712 H 518.336 -1.74763 3.78832 0
M  V30 5713 H 516.966 -1.84188 2.65094 0
M  V30 5714 H 516.018 0.291751 3.7928 0
M  V30 5715 H 517.33 0.163433 4.98532 0
M  V30 5716 H 516.484 -2.08167 5.6987 0
M  V30 5717 H 515.223 -2.02966 4.43459 0
M  V30 5718 H 514.228 0.0152356 5.49798 0
M  V30 5719 H 515.453 -0.0558817 6.79077 0
M  V30 5720 H 513.399 -2.21381 6.17516 0
M  V30 5721 H 513.316 -1.07911 7.48259 0
M  V30 5722 H 514.584 -2.26802 7.45775 0
M  V30 5723 N 518.813 -1.54241 0.323641 0
M  V30 5724 C 520.038 -2.05452 -0.283605 0
M  V30 5725 C 520.463 -1.19823 -1.44997 0
M  V30 5726 O 519.821 -0.207358 -1.8011 0
M  V30 5727 C 519.869 -3.53823 -0.695795 0
M  V30 5728 O 518.973 -3.71134 -1.79815 0
M  V30 5729 H 518.314 -0.662024 -0.0511917 0
M  V30 5730 H 520.844 -1.99079 0.472073 0
M  V30 5731 H 520.854 -3.96094 -0.978434 0
M  V30 5732 H 519.529 -4.15602 0.157287 0
M  V30 5733 H 518.106 -3.40768 -1.51431 0
M  V30 5734 N 520.291 -0.0518155 -1.57515 0
M  V30 5735 C 521.539 0.620595 -1.92336 0
M  V30 5736 C 521.86 1.71345 -0.930907 0
M  V30 5737 O 521.13 1.95885 0.0241341 0
M  V30 5738 H 519.71 0.232226 -0.709986 0
M  V30 5739 H 522.372 -0.104969 -1.94617 0
M  V30 5740 H 521.468 1.05879 -2.93592 0
M  V30 5741 N 521.769 1.56035 0.221574 0
M  V30 5742 C 522.701 1.889 1.29805 0
M  V30 5743 C 523.714 0.777269 1.43047 0
M  V30 5744 O 524.903 1.05557 1.43945 0
M  V30 5745 C 522.003 2.0825 2.67367 0
M  V30 5746 C 521.176 3.39267 2.76073 0
M  V30 5747 C 520.235 3.48049 3.94649 0
M  V30 5748 O 519.261 4.2108 3.82988 0
M  V30 5749 N 520.463 2.79191 5.08953 0
M  V30 5750 H 523.228 2.81831 1.01938 0
M  V30 5751 H 520.789 1.5658 0.411612 0
M  V30 5752 H 522.781 2.11441 3.45072 0
M  V30 5753 H 521.351 1.21944 2.87834 0
M  V30 5754 H 520.571 3.48175 1.84846 0
M  V30 5755 H 521.859 4.25575 2.7886 0
M  V30 5756 H 521.257 2.19635 5.21322 0
M  V30 5757 H 519.814 2.88043 5.84701 0
M  V30 5758 N 523.247 -0.488276 1.49845 0
M  V30 5759 C 524.194 -1.58836 1.67451 0
M  V30 5760 C 525.164 -1.57886 0.515857 0
M  V30 5761 O 526.349 -1.75679 0.744403 0
M  V30 5762 C 523.489 -2.96915 1.75885 0
M  V30 5763 C 522.602 -3.07784 3.03138 0
M  V30 5764 C 521.737 -4.36673 3.02473 0
M  V30 5765 C 520.776 -4.41222 4.24252 0
M  V30 5766 N 519.913 -5.61557 4.21424 0
M  V30 5767 H 524.753 -1.43131 2.61376 0
M  V30 5768 H 522.29 -0.696186 1.29583 0
M  V30 5769 H 524.248 -3.76965 1.78755 0
M  V30 5770 H 522.878 -3.11295 0.85414 0
M  V30 5771 H 521.93 -2.20717 3.09819 0
M  V30 5772 H 523.242 -3.07005 3.93128 0
M  V30 5773 H 522.396 -5.25055 3.03977 0
M  V30 5774 H 521.135 -4.40037 2.10283 0
M  V30 5775 H 520.14 -3.5124 4.22978 0
M  V30 5776 H 521.365 -4.39564 5.17649 0
M  V30 5777 H 519.311 -5.65738 3.32078 0
M  V30 5778 H 519.228 -5.62447 5.05163 0
M  V30 5779 H 520.496 -6.52111 4.2705 0
M  V30 5780 N 524.725 -1.39134 -0.740242 0
M  V30 5781 C 526.136 -1.32208 -1.31825 0
M  V30 5782 C 526.487 0.0159919 -1.96193 0
M  V30 5783 O 525.612 0.918111 -1.95958 0
M  V30 5784 C 526.207 -2.39436 -2.39699 0
M  V30 5785 C 524.766 -2.36048 -2.93187 0
M  V30 5786 C 523.913 -2.21599 -1.66701 0
M  V30 5787 H 526.864 -1.49298 -0.538133 0
M  V30 5788 H 526.885 -2.05922 -3.19963 0
M  V30 5789 H 526.397 -3.36811 -1.92821 0
M  V30 5790 H 524.498 -1.42295 -3.44359 0
M  V30 5791 H 524.611 -3.30704 -3.46658 0
M  V30 5792 H 522.975 -1.68681 -1.90837 0
M  V30 5793 H 523.758 -3.20936 -1.21882 0
M  V30 5794 N 526.204 0.969867 -1.24223 0
M  V30 5795 C 527.452 1.70918 -1.0785 0
M  V30 5796 C 527.773 1.91186 0.383763 0
M  V30 5797 O 527.043 1.48806 1.27411 0
M  V30 5798 H 525.623 0.633334 -0.396103 0
M  V30 5799 H 528.285 1.16689 -1.56108 0
M  V30 5800 H 527.381 2.69455 -1.57482 0
M  V30 5801 N 527.682 1.05563 1.17022 0
M  V30 5802 C 528.612 0.681026 2.23348 0
M  V30 5803 C 529.593 -0.322983 1.67005 0
M  V30 5804 O 530.778 -0.199746 1.9317 0
M  V30 5805 C 527.908 0.0589053 3.4725 0
M  V30 5806 C 526.862 0.988082 4.16438 0
M  V30 5807 C 526.188 0.229646 5.34207 0
M  V30 5808 C 527.488 2.31388 4.68249 0
M  V30 5809 H 529.182 1.56993 2.54938 0
M  V30 5810 H 526.728 0.756302 1.2254 0
M  V30 5811 H 528.681 -0.214982 4.20851 0
M  V30 5812 H 527.405 -0.864968 3.14938 0
M  V30 5813 H 526.064 1.24659 3.44754 0
M  V30 5814 H 525.712 -0.697111 4.98146 0
M  V30 5815 H 525.412 0.848815 5.81437 0
M  V30 5816 H 526.936 -0.0368694 6.10589 0
M  V30 5817 H 528.35 2.09964 5.33468 0
M  V30 5818 H 526.747 2.88736 5.26072 0
M  V30 5819 H 527.817 2.94982 3.84855 0
M  V30 5820 N 529.16 -1.33526 0.837174 0
M  V30 5821 C 530.576 -1.50727 0.524743 0
M  V30 5822 C 530.776 -1.77792 -0.948279 0
M  V30 5823 O 529.832 -1.83719 -1.73216 0
M  V30 5824 C 531.145 -2.66299 1.39661 0
M  V30 5825 C 532.693 -2.80183 1.39521 0
M  V30 5826 C 533.168 -3.98815 2.25189 0
M  V30 5827 N 534.659 -4.06047 2.2289 0
M  V30 5828 C 535.394 -4.97032 2.85915 0
M  V30 5829 N 534.89 -5.93143 3.57985 0
M  V30 5830 N 536.683 -4.90015 2.75394 0
M  V30 5831 H 528.834 -1.1422 1.79074 0
M  V30 5832 H 531.097 -0.561399 0.763894 0
M  V30 5833 H 530.803 -2.52974 2.4433 0
M  V30 5834 H 530.677 -3.61663 1.07145 0
M  V30 5835 H 533.064 -2.92942 0.356253 0
M  V30 5836 H 533.145 -1.85586 1.76044 0
M  V30 5837 H 532.789 -3.86817 3.29143 0
M  V30 5838 H 532.719 -4.92654 1.86009 0
M  V30 5839 H 535.21 -3.37262 1.70478 0
M  V30 5840 H 535.523 -6.59227 4.03286 0
M  V30 5841 H 533.868 -5.93223 3.62093 0
M  V30 5842 H 537.059 -4.13894 2.18654 0
M  V30 5843 H 537.232 -5.60724 3.24796 0
M  V30 5844 N 530.638 -0.59345 -1.46 0
M  V30 5845 C 531.588 0.154751 -2.27474 0
M  V30 5846 C 532.572 0.851849 -1.365 0
M  V30 5847 O 533.764 0.744171 -1.60596 0
M  V30 5848 C 530.893 1.16079 -3.2308 0
M  V30 5849 C 529.979 0.465256 -4.2154 0
M  V30 5850 N 530.37 -0.485197 -5.03467 0
M  V30 5851 C 528.668 0.714634 -4.40237 0
M  V30 5852 C 529.369 -0.892709 -5.74809 0
M  V30 5853 N 528.345 -0.239511 -5.43072 0
M  V30 5854 H 532.147 -0.57546 -2.88211 0
M  V30 5855 H 529.661 -0.416046 -1.5698 0
M  V30 5856 H 531.658 1.71108 -3.80168 0
M  V30 5857 H 530.318 1.89171 -2.63903 0
M  V30 5858 H 531.329 -0.861258 -5.10689 0
M  V30 5859 H 528.006 1.43131 -3.92199 0
M  V30 5860 H 529.396 -1.67581 -6.50666 0
M  V30 5861 N 532.116 1.54067 -0.331816 0
M  V30 5862 C 533.048 2.22139 0.564538 0
M  V30 5863 C 534.061 1.22408 1.07332 0
M  V30 5864 O 535.25 1.4883 0.985481 0
M  V30 5865 C 532.35 2.87876 1.78831 0
M  V30 5866 C 531.523 4.13817 1.41682 0
M  V30 5867 C 530.582 4.63072 2.49901 0
M  V30 5868 O 529.608 5.27562 2.13699 0
M  V30 5869 N 530.81 4.38001 3.80967 0
M  V30 5870 H 533.575 2.99694 -0.0183736 0
M  V30 5871 H 531.136 1.61153 -0.155396 0
M  V30 5872 H 533.128 3.17747 2.50637 0
M  V30 5873 H 531.698 2.13977 2.27887 0
M  V30 5874 H 530.918 3.9062 0.530044 0
M  V30 5875 H 532.206 4.95762 1.14443 0
M  V30 5876 H 531.604 3.864 4.13173 0
M  V30 5877 H 530.161 4.72507 4.48977 0
M  V30 5878 N 533.594 0.0601682 1.57485 0
M  V30 5879 C 534.524 -0.90889 2.15085 0
M  V30 5880 C 535.505 -1.31838 1.07484 0
M  V30 5881 O 536.69 -1.3915 1.35466 0
M  V30 5882 C 533.82 -2.18059 2.7031 0
M  V30 5883 C 532.774 -1.91088 3.82974 0
M  V30 5884 C 532.1 -3.24789 4.24754 0
M  V30 5885 C 533.4 -1.22535 5.07723 0
M  V30 5886 H 535.094 -0.429093 2.96309 0
M  V30 5887 H 532.64 -0.204952 1.42534 0
M  V30 5888 H 534.593 -2.86258 3.09248 0
M  V30 5889 H 533.317 -2.6826 1.8629 0
M  V30 5890 H 531.976 -1.25297 3.44523 0
M  V30 5891 H 531.624 -3.72809 3.37672 0
M  V30 5892 H 531.324 -3.07538 5.00694 0
M  V30 5893 H 532.848 -3.94205 4.66299 0
M  V30 5894 H 534.262 -1.80783 5.4405 0
M  V30 5895 H 532.659 -1.1558 5.88864 0
M  V30 5896 H 533.729 -0.202692 4.84476 0
M  V30 5897 N 535.072 -1.5615 -0.213296 0
M  V30 5898 C 536.32 -1.79191 -0.934612 0
M  V30 5899 C 536.641 -0.630112 -1.84539 0
M  V30 5900 O 535.911 0.35257 -1.92701 0
M  V30 5901 H 534.491 -0.660937 -0.348097 0
M  V30 5902 H 537.153 -1.93618 -0.22317 0
M  V30 5903 H 536.249 -2.71656 -1.53654 0
M  V30 5904 N 536.55 0.480323 -1.50102 0
M  V30 5905 C 537.513 1.56181 -1.6775 0
M  V30 5906 C 538.513 1.51156 -0.548503 0
M  V30 5907 O 539.703 1.5394 -0.815363 0
M  V30 5908 C 536.835 2.95823 -1.69415 0
M  V30 5909 H 538.028 1.41855 -2.6423 0
M  V30 5910 H 535.581 0.70605 -1.39444 0
M  V30 5911 H 536.316 3.15604 -0.745948 0
M  V30 5912 H 536.101 3.00878 -2.51425 0
M  V30 5913 H 537.591 3.74359 -1.85054 0
M  V30 5914 N 538.028 1.39524 0.732853 0
M  V30 5915 C 538.991 1.38189 1.82857 0
M  V30 5916 C 539.991 0.278624 1.58368 0
M  V30 5917 O 541.181 0.536639 1.65728 0
M  V30 5918 C 538.313 1.15661 3.2068 0
M  V30 5919 H 539.506 2.35692 1.85444 0
M  V30 5920 H 537.059 1.2512 0.936728 0
M  V30 5921 H 537.794 0.188482 3.23752 0
M  V30 5922 H 537.579 1.95559 3.39852 0
M  V30 5923 H 539.069 1.17472 4.00737 0
M  V30 5924 N 539.506 -0.963266 1.24736 0
M  V30 5925 C 540.753 -1.7068 1.0897 0
M  V30 5926 C 541.081 -1.90934 -0.370751 0
M  V30 5927 O 540.336 -1.47155 -1.29011 0
M  V30 5928 C 540.635 -3.09944 1.7796 0
M  V30 5929 C 540.301 -3.09518 3.27887 0
M  V30 5930 C 538.963 -3.09109 3.68789 0
M  V30 5931 C 541.315 -3.03509 4.23712 0
M  V30 5932 C 538.643 -3.00429 5.03944 0
M  V30 5933 C 540.995 -2.96371 5.5888 0
M  V30 5934 C 539.659 -2.94293 5.99123 0
M  V30 5935 H 538.929 -0.624564 0.398749 0
M  V30 5936 H 541.576 -1.12603 1.54896 0
M  V30 5937 H 539.881 -3.71513 1.2444 0
M  V30 5938 H 541.578 -3.66278 1.63222 0
M  V30 5939 H 538.168 -3.10603 2.95337 0
M  V30 5940 H 542.352 -3.0295 3.93109 0
M  V30 5941 H 537.608 -2.97183 5.34314 0
M  V30 5942 H 541.782 -2.90681 6.32833 0
M  V30 5943 H 539.409 -2.87322 7.03811 0
M  V30 5944 N 540.985 -1.06182 -1.16461 0
M  V30 5945 C 542.213 -0.798583 -1.90867 0
M  V30 5946 C 542.628 0.646921 -1.77371 0
M  V30 5947 O 541.985 1.44279 -1.11758 0
M  V30 5948 C 542.036 -1.18258 -3.4161 0
M  V30 5949 O 541.757 -2.57135 -3.54701 0
M  V30 5950 C 543.258 -0.946917 -4.33069 0
M  V30 5951 H 540.478 -0.289603 -0.605286 0
M  V30 5952 H 543.022 -1.41515 -1.47627 0
M  V30 5953 H 541.177 -0.610562 -3.82558 0
M  V30 5954 H 541.591 -2.72477 -4.4817 0
M  V30 5955 H 543.065 -1.26523 -5.37304 0
M  V30 5956 H 543.542 0.117406 -4.39043 0
M  V30 5957 H 544.148 -1.50326 -3.97847 0
M  V30 5958 N 542.463 1.3308 -0.844243 0
M  V30 5959 C 543.393 2.3161 -0.296493 0
M  V30 5960 C 544.374 1.59215 0.598707 0
M  V30 5961 O 545.559 1.87077 0.521134 0
M  V30 5962 C 542.689 3.43313 0.524762 0
M  V30 5963 C 541.643 4.27115 -0.275106 0
M  V30 5964 C 540.969 5.30483 0.670236 0
M  V30 5965 C 542.269 5.00443 -1.49514 0
M  V30 5966 H 543.963 2.77672 -1.11976 0
M  V30 5967 H 541.509 1.33496 -0.539899 0
M  V30 5968 H 543.462 4.11273 0.918298 0
M  V30 5969 H 542.186 2.95952 1.3813 0
M  V30 5970 H 540.845 3.60787 -0.650267 0
M  V30 5971 H 540.493 4.79379 1.52332 0
M  V30 5972 H 540.193 5.87435 0.139123 0
M  V30 5973 H 541.717 6.01308 1.06117 0
M  V30 5974 H 543.131 5.61141 -1.17447 0
M  V30 5975 H 541.528 5.67071 -1.96343 0
M  V30 5976 H 542.598 4.28906 -2.26202 0
M  V30 5977 N 543.941 0.601185 1.45683 0
M  V30 5978 C 544.871 -0.108824 2.33246 0
M  V30 5979 C 545.852 -0.865223 1.46451 0
M  V30 5980 O 547.037 -0.83704 1.75235 0
M  V30 5981 C 544.167 -1.11101 3.2905 0
M  V30 5982 C 543.121 -0.468244 4.25431 0
M  V30 5983 C 542.447 -1.57822 5.10878 0
M  V30 5984 C 543.747 0.606469 5.18767 0
M  V30 5985 H 545.441 0.622306 2.92861 0
M  V30 5986 H 542.987 0.300714 1.40825 0
M  V30 5987 H 544.94 -1.61622 3.89174 0
M  V30 5988 H 543.664 -1.87265 2.67581 0
M  V30 5989 H 542.323 0.0160484 3.66596 0
M  V30 5990 H 541.971 -2.32998 4.45781 0
M  V30 5991 H 541.671 -1.15369 5.76163 0
M  V30 5992 H 543.195 -2.08583 5.73869 0
M  V30 5993 H 544.609 0.185589 5.73 0
M  V30 5994 H 543.006 0.952381 5.92494 0
M  V30 5995 H 544.076 1.48559 4.61582 0
M  V30 5996 N 545.419 -1.53889 0.339982 0
M  V30 5997 C 546.649 -2.04973 -0.258738 0
M  V30 5998 C 547.057 -1.21485 -1.45045 0
M  V30 5999 O 546.4 -0.2422 -1.82096 0
M  V30 6000 C 546.462 -3.51783 -0.740853 0
M  V30 6001 C 546.126 -4.55802 0.330734 0
M  V30 6002 C 547.123 -5.06512 1.17226 0
M  V30 6003 C 544.808 -4.99966 0.483637 0
M  V30 6004 C 546.802 -5.99963 2.15227 0
M  V30 6005 C 544.489 -5.93229 1.46704 0
M  V30 6006 C 545.487 -6.43115 2.29981 0
M  V30 6007 O 545.175 -7.34545 3.26649 0
M  V30 6008 H 544.907 -0.673807 -0.0544037 0
M  V30 6009 H 547.461 -1.99492 0.489107 0
M  V30 6010 H 545.691 -3.54717 -1.53988 0
M  V30 6011 H 547.38 -3.85857 -1.25973 0
M  V30 6012 H 548.146 -4.73158 1.0652 0
M  V30 6013 H 544.025 -4.6074 -0.15471 0
M  V30 6014 H 547.569 -6.38825 2.80265 0
M  V30 6015 H 543.466 -6.25998 1.57468 0
M  V30 6016 H 544.234 -7.52468 3.22078 0
M  V30 6017 N 546.897 -0.0685191 -1.57451 0
M  V30 6018 C 547.827 0.89747 -2.15564 0
M  V30 6019 C 548.808 1.31266 -1.08181 0
M  V30 6020 O 549.993 1.38429 -1.36202 0
M  V30 6021 C 547.123 2.16623 -2.71463 0
M  V30 6022 C 546.077 1.89054 -3.83982 0
M  V30 6023 C 545.403 3.22532 -4.26471 0
M  V30 6024 C 546.703 1.1984 -5.08366 0
M  V30 6025 H 548.397 0.413373 -2.96533 0
M  V30 6026 H 545.943 0.197391 -1.42641 0
M  V30 6027 H 547.896 2.84614 -3.10761 0
M  V30 6028 H 546.62 2.67269 -1.8771 0
M  V30 6029 H 545.279 1.23469 -3.45183 0
M  V30 6030 H 544.927 3.71013 -3.39644 0
M  V30 6031 H 544.627 3.04879 -5.02317 0
M  V30 6032 H 546.151 3.91727 -4.68383 0
M  V30 6033 H 547.565 1.77896 -5.45001 0
M  V30 6034 H 545.962 1.12456 -5.89469 0
M  V30 6035 H 547.032 0.176996 -4.84577 0
M  V30 6036 N 548.375 1.56261 0.205012 0
M  V30 6037 C 549.305 1.96779 1.257 0
M  V30 6038 C 550.286 0.838309 1.48008 0
M  V30 6039 O 551.471 1.10189 1.59913 0
M  V30 6040 C 548.601 2.29876 2.60335 0
M  V30 6041 C 547.555 3.45469 2.52656 0
M  V30 6042 C 546.881 3.64215 3.91473 0
M  V30 6043 C 548.181 4.79954 2.06014 0
M  V30 6044 H 549.875 2.84904 0.920338 0
M  V30 6045 H 547.421 1.37072 0.441277 0
M  V30 6046 H 549.374 2.56814 3.34102 0
M  V30 6047 H 548.098 1.38622 2.95722 0
M  V30 6048 H 546.757 3.18605 1.81345 0
M  V30 6049 H 546.405 2.70309 4.24196 0
M  V30 6050 H 546.105 4.41973 3.87213 0
M  V30 6051 H 547.629 3.93519 4.66878 0
M  V30 6052 H 549.043 5.05989 2.69533 0
M  V30 6053 H 547.44 5.61111 2.12777 0
M  V30 6054 H 548.51 4.74201 1.01297 0
M  V30 6055 N 549.853 -0.472356 1.50355 0
M  V30 6056 C 550.763 -1.59637 1.7191 0
M  V30 6057 C 551.779 -1.63247 0.602195 0
M  V30 6058 O 552.955 -1.81139 0.880369 0
M  V30 6059 C 550.02 -2.9586 1.80742 0
M  V30 6060 C 549.081 -3.02649 3.04471 0
M  V30 6061 C 548.314 -4.32374 3.12872 0
M  V30 6062 O 548.537 -5.22807 2.28099 0
M  V30 6063 O 547.471 -4.44728 4.05587 0
M  V30 6064 H 551.297 -1.44373 2.67189 0
M  V30 6065 H 548.882 -0.651717 1.34436 0
M  V30 6066 H 550.764 -3.7677 1.88739 0
M  V30 6067 H 549.439 -3.11325 0.88647 0
M  V30 6068 H 548.346 -2.20821 3.01975 0
M  V30 6069 H 549.679 -2.92119 3.9614 0
M  V30 6070 N 551.331 -1.39911 -0.725443 0
M  V30 6071 C 552.263 -1.35301 -1.85003 0
M  V30 6072 C 553.276 -0.260102 -1.60709 0
M  V30 6073 O 554.465 -0.519749 -1.70766 0
M  V30 6074 C 551.565 -1.08039 -3.21218 0
M  V30 6075 C 550.738 -2.28793 -3.7279 0
M  V30 6076 C 549.797 -1.97841 -4.87591 0
M  V30 6077 O 548.823 -2.70616 -5.00755 0
M  V30 6078 N 550.025 -0.950367 -5.72668 0
M  V30 6079 H 552.79 -2.32218 -1.89459 0
M  V30 6080 H 550.351 -1.34137 -0.90658 0
M  V30 6081 H 552.343 -0.853354 -3.95601 0
M  V30 6082 H 550.913 -0.198229 -3.11971 0
M  V30 6083 H 550.133 -2.67388 -2.8965 0
M  V30 6084 H 551.421 -3.09317 -4.03981 0
M  V30 6085 H 550.819 -0.347436 -5.64632 0
M  V30 6086 H 549.376 -0.783232 -6.47077 0
M  V30 6087 N 552.809 0.956637 -1.25245 0
M  V30 6088 C 553.739 2.07058 -1.07931 0
M  V30 6089 C 554.72 1.70096 0.0110361 0
M  V30 6090 O 555.905 1.93555 -0.158121 0
M  V30 6091 C 553.035 3.40272 -0.695124 0
M  V30 6092 C 551.989 3.91235 -1.73549 0
M  V30 6093 C 551.315 5.20921 -1.20604 0
M  V30 6094 C 552.615 4.17837 -3.13385 0
M  V30 6095 H 554.309 2.218 -2.01109 0
M  V30 6096 H 551.855 1.06581 -0.968326 0
M  V30 6097 H 553.808 4.1765 -0.560949 0
M  V30 6098 H 552.532 3.25462 0.272355 0
M  V30 6099 H 551.191 3.16025 -1.85807 0
M  V30 6100 H 550.839 5.02479 -0.228846 0
M  V30 6101 H 550.539 5.55987 -1.90136 0
M  V30 6102 H 552.063 6.00897 -1.08421 0
M  V30 6103 H 553.477 4.8588 -3.04292 0
M  V30 6104 H 551.874 4.64154 -3.80369 0
M  V30 6105 H 552.944 3.2419 -3.60595 0
M  V30 6106 N 554.287 1.06798 1.15896 0
M  V30 6107 C 555.534 0.787767 1.86549 0
M  V30 6108 C 555.862 -0.685959 1.82002 0
M  V30 6109 O 555.117 -1.5188 1.23414 0
M  V30 6110 C 555.416 1.23414 3.35416 0
M  V30 6111 C 555.082 2.71285 3.6016 0
M  V30 6112 C 553.744 3.11676 3.66622 0
M  V30 6113 C 556.096 3.6676 3.7032 0
M  V30 6114 C 553.424 4.4637 3.8075 0
M  V30 6115 C 555.776 5.01209 3.8597 0
M  V30 6116 C 554.44 5.41229 3.90676 0
M  V30 6117 H 553.71 0.288264 0.682631 0
M  V30 6118 H 556.357 1.338 1.37003 0
M  V30 6119 H 554.662 0.60319 3.87129 0
M  V30 6120 H 556.359 0.994298 3.88477 0
M  V30 6121 H 552.949 2.39015 3.55767 0
M  V30 6122 H 557.133 3.36685 3.64633 0
M  V30 6123 H 552.389 4.76855 3.82648 0
M  V30 6124 H 556.563 5.75067 3.92773 0
M  V30 6125 H 554.19 6.45602 4.01375 0
M  V30 6126 N 555.766 -1.3263 0.851289 0
M  V30 6127 C 556.696 -2.31449 0.308771 0
M  V30 6128 C 557.677 -1.59531 -0.590255 0
M  V30 6129 O 558.862 -1.87351 -0.511205 0
M  V30 6130 C 555.992 -3.43586 -0.506548 0
M  V30 6131 C 554.946 -4.26963 0.297753 0
M  V30 6132 C 554.272 -5.30831 -0.642094 0
M  V30 6133 C 555.572 -4.99643 1.52166 0
M  V30 6134 H 557.266 -2.77074 1.13447 0
M  V30 6135 H 554.812 -1.33207 0.546971 0
M  V30 6136 H 556.765 -4.11754 -0.896474 0
M  V30 6137 H 555.489 -2.96681 -1.36558 0
M  V30 6138 H 554.148 -3.60437 0.669391 0
M  V30 6139 H 553.796 -4.8018 -1.49788 0
M  V30 6140 H 553.496 -5.87501 -0.107968 0
M  V30 6141 H 555.02 -6.01862 -1.02927 0
M  V30 6142 H 556.434 -5.6051 1.20421 0
M  V30 6143 H 554.831 -5.66022 1.99347 0
M  V30 6144 H 555.901 -4.27701 2.28474 0
M  V30 6145 N 557.244 -0.608902 -1.45362 0
M  V30 6146 C 558.655 -0.189511 -1.85736 0
M  V30 6147 C 559.006 1.2539 -1.50903 0
M  V30 6148 O 558.131 1.95094 -0.936347 0
M  V30 6149 C 558.726 -0.33716 -3.37118 0
M  V30 6150 C 557.285 0.0275487 -3.7639 0
M  V30 6151 C 556.432 -0.660983 -2.69307 0
M  V30 6152 H 559.383 -0.815499 -1.36144 0
M  V30 6153 H 559.404 0.430257 -3.7806 0
M  V30 6154 H 558.916 -1.38779 -3.62439 0
M  V30 6155 H 557.017 1.0773 -3.56686 0
M  V30 6156 H 557.13 -0.367018 -4.77692 0
M  V30 6157 H 555.494 -0.0984958 -2.54509 0
M  V30 6158 H 556.277 -1.71377 -2.97464 0
M  V30 6159 N 558.722 1.53707 -0.348139 0
M  V30 6160 C 559.952 2.05108 0.247864 0
M  V30 6161 C 560.36 1.22252 1.44399 0
M  V30 6162 O 559.703 0.251853 1.81965 0
M  V30 6163 C 559.765 3.52171 0.722187 0
M  V30 6164 C 559.429 4.5562 -0.354902 0
M  V30 6165 C 560.426 5.05883 -1.19911 0
M  V30 6166 C 558.111 4.99703 -0.510145 0
M  V30 6167 C 560.105 5.98814 -2.18406 0
M  V30 6168 C 557.792 5.92443 -1.49848 0
M  V30 6169 C 558.79 6.41887 -2.33389 0
M  V30 6170 O 558.478 7.32802 -3.3054 0
M  V30 6171 H 558.21 0.674086 0.0508296 0
M  V30 6172 H 560.764 1.99229 -0.49968 0
M  V30 6173 H 558.994 3.55529 1.52105 0
M  V30 6174 H 560.683 3.8652 1.23925 0
M  V30 6175 H 561.449 4.72586 -1.09028 0
M  V30 6176 H 557.328 4.60816 0.130274 0
M  V30 6177 H 560.872 6.3733 -2.83649 0
M  V30 6178 H 556.769 6.25155 -1.60786 0
M  V30 6179 H 557.537 7.50749 -3.26064 0
M  V30 6180 N 560.2 0.0768682 1.57412 0
M  V30 6181 C 561.425 -0.603404 1.98428 0
M  V30 6182 C 561.85 -1.62047 0.955108 0
M  V30 6183 O 561.208 -1.81129 -0.0786778 0
M  V30 6184 C 561.256 -1.24396 3.38464 0
M  V30 6185 O 560.36 -2.35982 3.3821 0
M  V30 6186 H 559.701 -0.154741 0.645718 0
M  V30 6187 H 562.231 0.152885 2.04028 0
M  V30 6188 H 562.241 -1.5896 3.7576 0
M  V30 6189 H 560.916 -0.498735 4.12899 0
M  V30 6190 H 559.493 -2.03173 3.1269 0
M  V30 6191 N 561.678 -1.56367 -0.196722 0
M  V30 6192 C 562.628 -1.9082 -1.24787 0
M  V30 6193 C 563.612 -0.773719 -1.41076 0
M  V30 6194 O 564.804 -1.03655 -1.43474 0
M  V30 6195 C 561.933 -2.24982 -2.59303 0
M  V30 6196 C 561.019 -3.44882 -2.46814 0
M  V30 6197 N 561.41 -4.62835 -2.04003 0
M  V30 6198 C 559.708 -3.48988 -2.77711 0
M  V30 6199 C 560.409 -5.44993 -2.03366 0
M  V30 6200 N 559.385 -4.85356 -2.44807 0
M  V30 6201 H 563.187 -2.79516 -0.908175 0
M  V30 6202 H 560.701 -1.57265 -0.405166 0
M  V30 6203 H 562.698 -2.47848 -3.35227 0
M  V30 6204 H 561.358 -1.37611 -2.94098 0
M  V30 6205 H 562.369 -4.87532 -1.74738 0
M  V30 6206 H 559.046 -2.72029 -3.16712 0
M  V30 6207 H 560.436 -6.49464 -1.72181 0
M  V30 6208 N 563.156 0.464375 -1.50603 0
M  V30 6209 C 564.403 1.21596 -1.61928 0
M  V30 6210 C 564.731 1.91804 -0.322737 0
M  V30 6211 O 563.986 1.83065 0.691776 0
M  V30 6212 C 564.285 2.278 -2.75394 0
M  V30 6213 C 563.951 1.74797 -4.1564 0
M  V30 6214 C 562.613 1.60063 -4.53799 0
M  V30 6215 C 564.965 1.35548 -5.03266 0
M  V30 6216 C 562.293 1.04514 -5.77316 0
M  V30 6217 C 564.645 0.814381 -6.27336 0
M  V30 6218 C 563.309 0.653726 -6.64291 0
M  V30 6219 H 562.579 0.444951 -0.592536 0
M  V30 6220 H 565.226 0.510964 -1.84557 0
M  V30 6221 H 563.531 3.04233 -2.46879 0
M  V30 6222 H 565.228 2.85723 -2.81359 0
M  V30 6223 H 561.818 1.87234 -3.8554 0
M  V30 6224 H 566.002 1.45763 -4.74412 0
M  V30 6225 H 561.258 0.908186 -6.04617 0
M  V30 6226 H 565.432 0.501626 -6.94591 0
M  V30 6227 H 563.059 0.22114 -7.59878 0
M  V30 6228 N 564.634 1.40294 0.718013 0
M  V30 6229 C 565.564 1.43118 1.84498 0
M  V30 6230 C 566.545 0.292403 1.67568 0
M  V30 6231 O 567.73 0.500675 1.87635 0
M  V30 6232 C 564.86 1.29065 3.22427 0
M  V30 6233 C 563.814 2.40521 3.54025 0
M  V30 6234 C 563.14 2.11546 4.91073 0
M  V30 6235 C 564.44 3.82859 3.55269 0
M  V30 6236 H 566.134 2.37432 1.82391 0
M  V30 6237 H 563.68 1.14283 0.87609 0
M  V30 6238 H 565.633 1.29658 4.00957 0
M  V30 6239 H 564.357 0.312271 3.25104 0
M  V30 6240 H 563.016 2.39173 2.77834 0
M  V30 6241 H 562.664 1.12104 4.90348 0
M  V30 6242 H 562.364 2.86216 5.1318 0
M  V30 6243 H 563.888 2.13817 5.71939 0
M  V30 6244 H 565.302 3.86044 4.23843 0
M  V30 6245 H 563.699 4.57029 3.88902 0
M  V30 6246 H 564.769 4.12617 2.54706 0
M  V30 6247 N 566.112 -0.949982 1.2575 0
M  V30 6248 C 567.34 -1.72972 1.13527 0
M  V30 6249 C 567.755 -1.8623 -0.310453 0
M  V30 6250 O 567.112 -1.36336 -1.2132 0
M  V30 6251 C 567.163 -3.14108 1.78936 0
M  V30 6252 O 566.884 -3.01493 3.17858 0
M  V30 6253 C 568.385 -4.08338 1.72554 0
M  V30 6254 H 565.605 -0.541864 0.395758 0
M  V30 6255 H 568.149 -1.19151 1.66202 0
M  V30 6256 H 566.304 -3.64858 1.30221 0
M  V30 6257 H 566.718 -3.90559 3.50092 0
M  V30 6258 H 568.192 -5.04963 2.22973 0
M  V30 6259 H 568.669 -4.33742 0.690251 0
M  V30 6260 H 569.275 -3.63506 2.2078 0
M  V30 6261 N 567.59 -1.07411 -1.15328 0
M  V30 6262 C 568.522 -0.652924 -2.19703 0
M  V30 6263 C 569.535 0.294869 -1.60107 0
M  V30 6264 O 570.724 0.0840932 -1.78302 0
M  V30 6265 C 567.824 0.061434 -3.38844 0
M  V30 6266 C 566.997 -0.902696 -4.27984 0
M  V30 6267 C 566.056 -0.225521 -5.25717 0
M  V30 6268 O 565.082 -0.86676 -5.62562 0
M  V30 6269 N 566.284 1.02858 -5.71315 0
M  V30 6270 H 569.049 -1.55081 -2.56457 0
M  V30 6271 H 566.61 -0.958883 -1.30449 0
M  V30 6272 H 568.602 0.525145 -4.01278 0
M  V30 6273 H 567.172 0.861269 -3.00501 0
M  V30 6274 H 566.392 -1.54551 -3.6264 0
M  V30 6275 H 567.68 -1.55636 -4.84412 0
M  V30 6276 H 567.078 1.56948 -5.43492 0
M  V30 6277 H 565.635 1.43596 -6.35786 0
M  V30 6278 N 569.068 1.32177 -0.85831 0
M  V30 6279 C 570.316 1.96735 -0.462568 0
M  V30 6280 C 570.637 1.6824 0.985911 0
M  V30 6281 O 569.907 0.991564 1.68952 0
M  V30 6282 H 568.487 0.727849 -0.168064 0
M  V30 6283 H 571.149 1.61195 -1.09554 0
M  V30 6284 H 570.245 3.06068 -0.610647 0
M  V30 6285 N 570.547 0.616602 1.45037 0
M  V30 6286 C 571.777 0.121791 2.06241 0
M  V30 6287 C 572.185 -1.20289 1.46038 0
M  V30 6288 O 571.528 -1.7456 0.572242 0
M  V30 6289 C 571.59 -0.0827345 3.59405 0
M  V30 6290 C 571.254 1.16153 4.41993 0
M  V30 6291 C 572.251 2.08183 4.76399 0
M  V30 6292 C 569.936 1.39288 4.82601 0
M  V30 6293 C 571.93 3.21668 5.5028 0
M  V30 6294 C 569.617 2.53073 5.56235 0
M  V30 6295 C 570.615 3.44091 5.89992 0
M  V30 6296 O 570.303 4.55894 6.6213 0
M  V30 6297 H 570.035 0.0701667 0.672349 0
M  V30 6298 H 572.589 0.846877 1.87129 0
M  V30 6299 H 570.819 -0.862812 3.76952 0
M  V30 6300 H 572.508 -0.530273 4.02421 0
M  V30 6301 H 573.274 1.91538 4.45576 0
M  V30 6302 H 569.153 0.693396 4.55755 0
M  V30 6303 H 572.697 3.92733 5.76547 0
M  V30 6304 H 568.594 2.69667 5.86472 0
M  V30 6305 H 569.362 4.5469 6.80587 0
M  V30 6306 N 572.025 -1.5352 0.356285 0
M  V30 6307 C 572.973 -2.26945 -0.50978 0
M  V30 6308 C 573.967 -1.29569 -1.09125 0
M  V30 6309 O 575.173 -1.47231 -1.03552 0
M  V30 6310 H 571.548 -0.729368 -0.183102 0
M  V30 6311 H 573.519 -2.98111 0.131374 0
M  V30 6312 C 572.268 -3.06466 -1.64237 0
M  V30 6313 H 571.591 -3.81233 -1.20423 0
M  V30 6314 H 573.031 -3.61035 -2.22327 0
M  V30 6315 C 571.49 -2.16737 -2.57928 0
M  V30 6316 O 572.02 -1.77195 -3.60507 0
M  V30 6317 N 570.226 -1.81558 -2.26903 0
M  V30 6318 H 569.773 -2.13913 -1.43524 0
M  V30 6319 H 569.731 -1.21806 -2.89846 0
M  V30 6320 N 573.503 -0.0852151 -1.57369 0
M  V30 6321 C 574.451 0.894856 -2.14698 0
M  V30 6322 C 575.445 1.29903 -1.08727 0
M  V30 6323 O 576.651 1.27471 -1.27088 0
M  V30 6324 H 573.026 0.306569 -0.686673 0
M  V30 6325 H 574.997 0.386542 -2.95886 0
M  V30 6326 C 573.746 2.14798 -2.73417 0
M  V30 6327 H 573.069 1.84585 -3.54638 0
M  V30 6328 H 574.509 2.81456 -3.1711 0
M  V30 6329 C 572.968 2.91546 -1.68828 0
M  V30 6330 O 573.498 3.85733 -1.12129 0
M  V30 6331 N 571.704 2.54901 -1.39549 0
M  V30 6332 H 571.251 1.7838 -1.85845 0
M  V30 6333 H 571.209 3.06553 -0.698054 0
M  V30 6334 N 574.981 1.5647 0.188427 0
M  V30 6335 C 576.227 1.82181 0.904534 0
M  V30 6336 C 576.582 0.663258 1.80606 0
M  V30 6337 O 575.875 -0.341231 1.88537 0
M  V30 6338 C 576.069 3.11596 1.7505 0
M  V30 6339 C 575.898 4.39928 0.932372 0
M  V30 6340 C 574.668 5.01554 0.61417 0
M  V30 6341 C 576.866 5.13527 0.281936 0
M  V30 6342 N 574.848 6.13499 -0.221896 0
M  V30 6343 C 576.219 6.18603 -0.416037 0
M  V30 6344 C 578.274 4.97505 0.198345 0
M  V30 6345 C 576.977 7.09394 -1.18965 0
M  V30 6346 C 579.003 5.88725 -0.561887 0
M  V30 6347 C 578.365 6.93251 -1.24828 0
M  V30 6348 H 574.464 0.717858 0.310168 0
M  V30 6349 H 577.048 1.93932 0.172757 0
M  V30 6350 H 575.219 3.01068 2.45383 0
M  V30 6351 H 576.951 3.25369 2.4066 0
M  V30 6352 H 573.706 4.64174 0.940187 0
M  V30 6353 H 574.13 6.74065 -0.629735 0
M  V30 6354 H 578.772 4.16716 0.714665 0
M  V30 6355 H 576.49 7.8964 -1.71737 0
M  V30 6356 H 580.076 5.78401 -0.628009 0
M  V30 6357 H 578.956 7.62618 -1.82712 0
M  V30 6358 N 576.459 -0.456382 1.50847 0
M  V30 6359 C 577.687 -1.23026 1.66349 0
M  V30 6360 C 578.102 -1.85473 0.352868 0
M  V30 6361 O 577.459 -1.69885 -0.666739 0
M  V30 6362 C 577.51 -2.32827 2.76539 0
M  V30 6363 O 577.231 -1.72938 4.02522 0
M  V30 6364 C 578.732 -3.23448 3.03144 0
M  V30 6365 H 575.952 -0.371527 0.558756 0
M  V30 6366 H 578.496 -0.543082 1.97157 0
M  V30 6367 H 576.651 -2.97294 2.48384 0
M  V30 6368 H 577.065 -2.45357 4.63573 0
M  V30 6369 H 578.539 -3.96669 3.83872 0
M  V30 6370 H 579.016 -3.83094 2.14793 0
M  V30 6371 H 579.622 -2.64702 3.32886 0
M  V30 6372 N 577.937 -1.40673 -0.710563 0
M  V30 6373 C 578.885 -1.41517 -1.84596 0
M  V30 6374 C 579.879 -0.295043 -1.66811 0
M  V30 6375 O 581.085 -0.466331 -1.73854 0
M  V30 6376 H 577.46 -0.442467 -0.608052 0
M  V30 6377 H 579.431 -2.37238 -1.80999 0
M  V30 6378 C 578.18 -1.29957 -3.225 0
M  V30 6379 H 577.503 -2.15429 -3.36794 0
M  V30 6380 H 578.943 -1.34608 -4.02066 0
M  V30 6381 C 577.402 -0.0103164 -3.36898 0
M  V30 6382 O 577.932 0.950707 -3.90288 0
M  V30 6383 N 576.138 0.0608409 -2.90536 0
M  V30 6384 H 575.685 -0.721943 -2.47277 0
M  V30 6385 H 575.643 0.92292 -3.00549 0
M  V30 6386 N 579.415 0.9433 -1.26252 0
M  V30 6387 C 580.663 1.68592 -1.11451 0
M  V30 6388 C 580.984 1.91957 0.343123 0
M  V30 6389 O 580.254 1.51475 1.24226 0
M  V30 6390 H 578.834 0.624789 -0.409448 0
M  V30 6391 H 581.496 1.13351 -1.58548 0
M  V30 6392 H 580.592 2.66054 -1.63162 0
M  V30 6393 N 580.893 1.08022 1.14757 0
M  V30 6394 C 581.823 0.728248 2.21853 0
M  V30 6395 C 582.804 -0.287486 1.67653 0
M  V30 6396 O 583.989 -0.158727 1.9355 0
M  V30 6397 C 581.119 0.132549 3.47047 0
M  V30 6398 C 580.073 1.07619 4.14249 0
M  V30 6399 C 579.399 0.342907 5.33599 0
M  V30 6400 C 580.699 2.41268 4.63235 0
M  V30 6401 H 582.393 1.62365 2.51551 0
M  V30 6402 H 579.939 0.782125 1.20908 0
M  V30 6403 H 581.892 -0.125665 4.21213 0
M  V30 6404 H 580.616 -0.797971 3.16702 0
M  V30 6405 H 579.275 1.31944 3.42033 0
M  V30 6406 H 578.923 -0.59129 4.99513 0
M  V30 6407 H 578.623 0.971955 5.79506 0
M  V30 6408 H 580.147 0.0926538 6.1053 0
M  V30 6409 H 581.561 2.21232 5.28894 0
M  V30 6410 H 579.958 2.9983 5.19829 0
M  V30 6411 H 581.028 3.03079 3.78512 0
M  V30 6412 N 582.371 -1.3172 0.865308 0
M  V30 6413 C 583.601 -2.00765 0.487543 0
M  V30 6414 C 584.009 -1.65145 -0.92325 0
M  V30 6415 O 583.352 -0.874294 -1.61561 0
M  V30 6416 C 583.414 -3.55122 0.559369 0
M  V30 6417 C 583.078 -4.14202 1.93095 0
M  V30 6418 C 584.075 -4.3165 2.89784 0
M  V30 6419 C 581.76 -4.50036 2.23099 0
M  V30 6420 C 583.754 -4.84114 4.14623 0
M  V30 6421 C 581.441 -5.02203 3.48189 0
M  V30 6422 C 582.439 -5.19192 4.43767 0
M  V30 6423 O 582.127 -5.70241 5.6664 0
M  V30 6424 H 581.859 -0.649066 0.188915 0
M  V30 6425 H 584.413 -1.69032 1.16694 0
M  V30 6426 H 582.643 -3.86295 -0.176926 0
M  V30 6427 H 584.332 -4.05428 0.195694 0
M  V30 6428 H 585.098 -4.04288 2.6791 0
M  V30 6429 H 580.977 -4.36091 1.49485 0
M  V30 6430 H 584.521 -4.9729 4.89233 0
M  V30 6431 H 580.418 -5.28997 3.69908 0
M  V30 6432 H 581.186 -5.88617 5.68746 0
M  V30 6433 N 583.85 -0.624285 -1.44708 0
M  V30 6434 C 585.098 -0.125802 -2.01708 0
M  V30 6435 C 585.418 1.2543 -1.49306 0
M  V30 6436 O 584.689 1.83198 -0.693924 0
M  V30 6437 H 583.269 -0.0435161 -0.745731 0
M  V30 6438 H 585.931 -0.809446 -1.77296 0
M  V30 6439 H 585.027 -0.0882734 -3.11975 0
M  V30 6440 N 585.328 1.53329 -0.364422 0
M  V30 6441 C 586.558 2.05359 0.226096 0
M  V30 6442 C 586.966 1.23777 1.43094 0
M  V30 6443 O 586.309 0.271139 1.81688 0
M  V30 6444 C 586.371 3.52918 0.684794 0
M  V30 6445 C 586.035 4.55218 -0.403206 0
M  V30 6446 C 587.032 5.04583 -1.2527 0
M  V30 6447 C 584.717 4.99134 -0.563117 0
M  V30 6448 C 586.711 5.96463 -2.24745 0
M  V30 6449 C 584.398 5.9082 -1.56124 0
M  V30 6450 C 585.396 6.39375 -2.40184 0
M  V30 6451 O 585.084 7.29255 -3.38293 0
M  V30 6452 H 584.816 0.674588 0.0436772 0
M  V30 6453 H 587.37 1.98688 -0.520782 0
M  V30 6454 H 585.6 3.57122 1.48326 0
M  V30 6455 H 587.289 3.87812 1.19818 0
M  V30 6456 H 588.055 4.71403 -1.14034 0
M  V30 6457 H 583.934 4.60928 0.0813909 0
M  V30 6458 H 587.478 6.34285 -2.90393 0
M  V30 6459 H 583.375 6.23414 -1.67407 0
M  V30 6460 H 584.143 7.47249 -3.34009 0
M  V30 6461 N 586.806 0.0935595 1.57322 0
M  V30 6462 C 588.031 -0.582324 1.99057 0
M  V30 6463 C 588.456 -1.61025 0.972242 0
M  V30 6464 O 587.814 -1.81202 -0.0594622 0
M  V30 6465 C 587.862 -1.20799 3.39765 0
M  V30 6466 O 586.966 -2.32382 3.40694 0
M  V30 6467 H 586.307 -0.147884 0.647323 0
M  V30 6468 H 588.837 0.174516 2.03854 0
M  V30 6469 H 588.847 -1.54966 3.77425 0
M  V30 6470 H 587.522 -0.454914 4.13405 0
M  V30 6471 H 586.099 -1.99845 3.14827 0
M  V30 6472 N 588.284 -1.56567 -0.180126 0
M  V30 6473 C 589.53 -1.82658 -0.894859 0
M  V30 6474 C 589.885 -0.672826 -1.80252 0
M  V30 6475 O 589.178 0.331227 -1.88715 0
M  V30 6476 C 589.372 -3.1252 -1.73395 0
M  V30 6477 C 589.201 -4.40417 -0.909028 0
M  V30 6478 C 587.971 -5.01872 -0.587562 0
M  V30 6479 C 590.169 -5.13669 -0.254698 0
M  V30 6480 N 588.151 -6.13373 0.254428 0
M  V30 6481 C 589.522 -6.18373 0.448837 0
M  V30 6482 C 591.577 -4.97603 -0.171958 0
M  V30 6483 C 590.28 -7.08753 1.22725 0
M  V30 6484 C 592.306 -5.88418 0.593101 0
M  V30 6485 C 591.668 -6.92579 1.28503 0
M  V30 6486 H 587.767 -0.719493 -0.306356 0
M  V30 6487 H 590.351 -1.94021 -0.16247 0
M  V30 6488 H 588.522 -3.02365 -2.43783 0
M  V30 6489 H 590.254 -3.2664 -2.38931 0
M  V30 6490 H 587.009 -4.64666 -0.915557 0
M  V30 6491 H 587.433 -6.73721 0.665474 0
M  V30 6492 H 592.075 -4.17089 -0.692555 0
M  V30 6493 H 589.793 -7.88718 1.75923 0
M  V30 6494 H 593.379 -5.78059 0.658674 0
M  V30 6495 H 592.259 -7.61638 1.86754 0
M  V30 6496 N 589.762 0.448376 -1.51087 0
M  V30 6497 C 591.039 1.20926 -1.53741 0
M  V30 6498 C 591.419 2.09025 -0.295222 0
M  V30 6499 O 590.767 2.16851 0.720283 0
M  V30 6500 C 590.977 2.02067 -2.84552 0
M  V30 6501 C 592.325 2.59486 -3.36084 0
M  V30 6502 O 593.349 2.12289 -2.86028 0
M  V30 6503 O 592.208 3.45539 -4.23397 0
M  V30 6504 H 589.302 0.549951 -0.617643 0
M  V30 6505 H 591.848 0.458344 -1.63393 0
M  V30 6506 H 590.62 1.37291 -3.66425 0
M  V30 6507 H 590.243 2.84246 -2.78011 0
M  V30 6508 N 591.24 1.41047 0.703093 0
M  V30 6509 C 592.173 1.36713 1.82715 0
M  V30 6510 C 593.151 0.235533 1.60885 0
M  V30 6511 O 594.335 0.421227 1.83733 0
M  V30 6512 C 591.462 1.13069 3.1927 0
M  V30 6513 C 590.508 2.28846 3.59905 0
M  V30 6514 S 591.341 3.91297 3.65578 0
M  V30 6515 C 592.497 3.69941 5.04871 0
M  V30 6516 H 592.73 2.31838 1.86114 0
M  V30 6517 H 590.263 1.27481 0.871083 0
M  V30 6518 H 592.221 1.00113 3.98105 0
M  V30 6519 H 590.882 0.195763 3.13489 0
M  V30 6520 H 590.075 2.07977 4.59088 0
M  V30 6521 H 589.677 2.3817 2.88359 0
M  V30 6522 H 591.969 3.29181 5.92154 0
M  V30 6523 H 592.912 4.68699 5.30779 0
M  V30 6524 H 593.32 3.03369 4.76054 0
M  V30 6525 N 592.718 -0.936591 1.26751 0
M  V30 6526 C 593.651 -2.03619 1.03027 0
M  V30 6527 C 594.629 -1.62534 -0.0464619 0
M  V30 6528 O 595.813 -1.88251 0.0968873 0
M  V30 6529 C 592.94 -3.3402 0.561072 0
M  V30 6530 C 591.986 -3.9408 1.63105 0
M  V30 6531 S 592.819 -4.27782 3.22122 0
M  V30 6532 C 593.975 -5.61277 2.76982 0
M  V30 6533 H 594.208 -2.23429 1.96129 0
M  V30 6534 H 591.741 -1.07857 1.10482 0
M  V30 6535 H 593.699 -4.09424 0.297031 0
M  V30 6536 H 592.36 -3.12147 -0.349741 0
M  V30 6537 H 591.553 -4.88154 1.25386 0
M  V30 6538 H 591.155 -3.25227 1.84671 0
M  V30 6539 H 593.447 -6.40189 2.21731 0
M  V30 6540 H 594.39 -6.03887 3.69766 0
M  V30 6541 H 594.798 -5.21374 2.16402 0
M  V30 6542 N 594.196 -1.08629 -1.14182 0
M  V30 6543 C 595.442 -0.818556 -1.85546 0
M  V30 6544 C 595.775 0.654076 -1.82854 0
M  V30 6545 O 595.05 1.48099 -1.26083 0
M  V30 6546 C 595.333 -1.34397 -3.3408 0
M  V30 6547 C 595.186 -2.8821 -3.45333 0
M  V30 6548 C 596.505 -0.971069 -4.29253 0
M  V30 6549 H 593.624 -0.298821 -0.673702 0
M  V30 6550 H 596.266 -1.34629 -1.34071 0
M  V30 6551 H 594.416 -0.895064 -3.78049 0
M  V30 6552 H 596.088 -3.41488 -3.10134 0
M  V30 6553 H 594.331 -3.25756 -2.86471 0
M  V30 6554 H 595.002 -3.20047 -4.49749 0
M  V30 6555 H 597.478 -1.35809 -3.93313 0
M  V30 6556 H 596.354 -1.36586 -5.31635 0
M  V30 6557 H 596.615 0.121659 -4.41933 0
M  V30 6558 N 595.674 1.31259 -0.872281 0
M  V30 6559 C 596.624 2.26 -0.301295 0
M  V30 6560 C 597.608 1.50729 0.562991 0
M  V30 6561 O 598.8 1.72198 0.40949 0
M  V30 6562 C 595.929 3.39724 0.494227 0
M  V30 6563 C 595.015 4.22363 -0.383432 0
M  V30 6564 N 595.406 4.83724 -1.47799 0
M  V30 6565 C 593.704 4.45652 -0.176278 0
M  V30 6566 C 594.405 5.45523 -2.01939 0
M  V30 6567 N 593.381 5.27428 -1.31608 0
M  V30 6568 H 597.183 2.70981 -1.13782 0
M  V30 6569 H 594.697 1.45552 -0.720294 0
M  V30 6570 H 596.694 4.06626 0.919828 0
M  V30 6571 H 595.354 2.96286 1.32834 0
M  V30 6572 H 596.365 4.83313 -1.8609 0
M  V30 6573 H 593.042 4.12845 0.621698 0
M  V30 6574 H 594.432 6.04268 -2.93786 0
M  V30 6575 N 597.152 0.631951 1.44375 0
M  V30 6576 C 598.377 0.142146 2.06912 0
M  V30 6577 C 598.802 -1.17456 1.4692 0
M  V30 6578 O 598.16 -1.72074 0.570975 0
M  V30 6579 C 598.208 0.0417952 3.60576 0
M  V30 6580 O 597.312 -1.00194 4.00044 0
M  V30 6581 H 596.653 0.0851491 0.658518 0
M  V30 6582 H 599.183 0.868863 1.85235 0
M  V30 6583 H 599.193 -0.148517 4.0773 0
M  V30 6584 H 597.868 1.0031 4.03622 0
M  V30 6585 H 596.445 -0.786131 3.64519 0
M  V30 6586 N 598.631 -1.53133 0.372548 0
M  V30 6587 C 600.047 -1.59585 0.02178 0
M  V30 6588 C 600.247 -1.38736 -1.46132 0
M  V30 6589 O 599.303 -1.19599 -2.22379 0
M  V30 6590 C 600.616 -2.9678 0.483959 0
M  V30 6591 C 602.164 -3.09909 0.438775 0
M  V30 6592 C 602.639 -4.49527 0.876876 0
M  V30 6593 N 604.13 -4.55663 0.832214 0
M  V30 6594 C 604.865 -5.61896 1.14281 0
M  V30 6595 N 604.361 -6.75852 1.52303 0
M  V30 6596 N 606.154 -5.51916 1.06515 0
M  V30 6597 H 598.305 -1.64936 1.33827 0
M  V30 6598 H 600.568 -0.773947 0.547458 0
M  V30 6599 H 600.274 -3.17198 1.51915 0
M  V30 6600 H 600.148 -3.7699 -0.125784 0
M  V30 6601 H 602.535 -2.89197 -0.587294 0
M  V30 6602 H 602.616 -2.31691 1.0841 0
M  V30 6603 H 602.26 -4.70979 1.90109 0
M  V30 6604 H 602.19 -5.26186 0.208727 0
M  V30 6605 H 604.681 -3.73844 0.552195 0
M  V30 6606 H 604.994 -7.52862 1.7441 0
M  V30 6607 H 603.339 -6.77226 1.56175 0
M  V30 6608 H 606.53 -4.6177 0.767235 0
M  V30 6609 H 606.703 -6.34609 1.31053 0
M  V30 6610 N 600.109 -0.101901 -1.5727 0
M  V30 6611 C 601.334 0.571759 -1.99363 0
M  V30 6612 C 601.759 1.60507 -0.980768 0
M  V30 6613 O 601.117 1.81231 0.0498517 0
M  V30 6614 C 601.165 1.18996 -3.404 0
M  V30 6615 O 600.269 2.30572 -3.41922 0
M  V30 6616 H 599.61 0.144449 -0.648098 0
M  V30 6617 H 602.14 -0.185325 -2.03759 0
M  V30 6618 H 602.15 1.52962 -3.78241 0
M  V30 6619 H 600.825 0.432984 -4.1364 0
M  V30 6620 H 599.402 1.98173 -3.15883 0
M  V30 6621 N 601.587 1.56661 0.17182 0
M  V30 6622 C 602.537 1.92781 1.21736 0
M  V30 6623 C 603.521 0.796065 1.39827 0
M  V30 6624 O 604.713 1.05924 1.41806 0
M  V30 6625 C 601.842 2.29079 2.55691 0
M  V30 6626 C 600.928 3.48765 2.41296 0
M  V30 6627 N 601.319 4.66022 1.96614 0
M  V30 6628 C 599.617 3.53362 2.72124 0
M  V30 6629 C 600.318 5.48159 1.94669 0
M  V30 6630 N 599.294 4.89189 2.37054 0
M  V30 6631 H 603.096 2.80926 0.863592 0
M  V30 6632 H 600.61 1.57889 0.380096 0
M  V30 6633 H 602.607 2.5315 3.31241 0
M  V30 6634 H 601.267 1.42272 2.91871 0
M  V30 6635 H 602.278 4.9025 1.66959 0
M  V30 6636 H 598.955 2.77033 3.12345 0
M  V30 6637 H 600.345 6.52121 1.61826 0
M  V30 6638 N 603.065 -0.440357 1.51323 0
M  V30 6639 C 603.997 -1.55254 1.68609 0
M  V30 6640 C 605.01 -1.52614 0.566812 0
M  V30 6641 O 606.199 -1.57445 0.841032 0
M  V30 6642 C 603.299 -2.94169 1.68279 0
M  V30 6643 C 602.472 -3.21346 2.96742 0
M  V30 6644 C 601.531 -4.3997 2.8864 0
M  V30 6645 O 600.557 -4.38771 3.62586 0
M  V30 6646 N 601.759 -5.43367 2.04285 0
M  V30 6647 H 604.524 -1.40831 2.6455 0
M  V30 6648 H 602.085 -0.629251 1.49171 0
M  V30 6649 H 604.077 -3.71543 1.60431 0
M  V30 6650 H 602.647 -3.02205 0.799441 0
M  V30 6651 H 601.867 -2.32299 3.18482 0
M  V30 6652 H 603.155 -3.3633 3.81785 0
M  V30 6653 H 602.553 -5.47176 1.43578 0
M  V30 6654 H 601.11 -6.19605 2.02318 0
M  V30 6655 N 604.543 -1.41418 -0.695603 0
M  V30 6656 C 605.493 -1.39731 -1.80165 0
M  V30 6657 C 606.477 -0.271689 -1.5859 0
M  V30 6658 O 607.669 -0.512354 -1.69422 0
M  V30 6659 C 604.798 -1.28187 -3.1847 0
M  V30 6660 C 603.884 -2.45612 -3.45739 0
M  V30 6661 N 604.275 -3.71077 -3.43708 0
M  V30 6662 C 602.573 -2.39424 -3.76288 0
M  V30 6663 C 603.274 -4.48957 -3.69882 0
M  V30 6664 N 602.25 -3.7907 -3.89624 0
M  V30 6665 H 606.052 -2.34656 -1.76957 0
M  V30 6666 H 603.566 -1.35473 -0.89559 0
M  V30 6667 H 605.563 -1.2506 -3.977 0
M  V30 6668 H 604.223 -0.342468 -3.22889 0
M  V30 6669 H 605.234 -4.03963 -3.2409 0
M  V30 6670 H 601.911 -1.53955 -3.88077 0
M  V30 6671 H 603.301 -5.57887 -3.74448 0
M  V30 6672 N 606.021 0.929856 -1.27246 0
M  V30 6673 C 607.267 1.6798 -1.13625 0
M  V30 6674 C 607.6 1.91586 0.317589 0
M  V30 6675 O 606.875 1.50467 1.23247 0
M  V30 6676 C 607.158 3.04766 -1.91806 0
M  V30 6677 C 607.011 2.88415 -3.45162 0
M  V30 6678 C 608.33 4.05063 -1.72082 0
M  V30 6679 H 605.449 0.609632 -0.414147 0
M  V30 6680 H 608.091 1.0792 -1.56376 0
M  V30 6681 H 606.241 3.56034 -1.55474 0
M  V30 6682 H 607.913 2.44282 -3.91311 0
M  V30 6683 H 606.156 2.23802 -3.71611 0
M  V30 6684 H 606.827 3.85482 -3.95105 0
M  V30 6685 H 609.303 3.62798 -2.03757 0
M  V30 6686 H 608.179 4.98765 -2.29182 0
M  V30 6687 H 608.44 4.37021 -0.668206 0
M  V30 6688 N 607.499 1.09233 1.13605 0
M  V30 6689 C 608.446 0.729921 2.18954 0
M  V30 6690 C 609.416 -0.287916 1.63586 0
M  V30 6691 O 610.601 -0.170003 1.90041 0
M  V30 6692 C 607.741 0.154489 3.44754 0
M  V30 6693 C 606.854 1.22613 4.14234 0
M  V30 6694 C 605.989 0.613657 5.27644 0
M  V30 6695 C 605.028 1.66674 5.8897 0
M  V30 6696 N 604.165 1.07545 6.93814 0
M  V30 6697 H 609.005 1.63257 2.49302 0
M  V30 6698 H 606.542 0.815693 1.22413 0
M  V30 6699 H 608.5 -0.196923 4.16735 0
M  V30 6700 H 607.13 -0.711433 3.14863 0
M  V30 6701 H 606.182 1.69485 3.40557 0
M  V30 6702 H 607.494 2.0238 4.55899 0
M  V30 6703 H 606.648 0.210976 6.06333 0
M  V30 6704 H 605.387 -0.215584 4.87223 0
M  V30 6705 H 604.392 2.07899 5.08978 0
M  V30 6706 H 605.617 2.49861 6.31464 0
M  V30 6707 H 603.563 0.267451 6.55455 0
M  V30 6708 H 603.48 1.81011 7.3401 0
M  V30 6709 H 604.748 0.698906 7.7636 0
M  V30 6710 N 608.977 -1.30795 0.87923 0
M  V30 6711 C 610.226 -1.95636 0.490875 0
M  V30 6712 C 610.539 -1.70214 -0.963674 0
M  V30 6713 O 611.745 -2.28991 -1.45861 0
M  V30 6714 C 610.201 -3.50271 0.826929 0
M  V30 6715 C 609.809 -3.84521 2.29886 0
M  V30 6716 C 611.553 -4.21456 0.507494 0
M  V30 6717 C 609.46 -5.32309 2.57685 0
M  V30 6718 H 608.39 -0.732238 0.179841 0
M  V30 6719 H 611.041 -1.48829 1.07341 0
M  V30 6720 H 609.423 -3.9562 0.173542 0
M  V30 6721 H 610.597 -3.50102 2.99609 0
M  V30 6722 H 608.912 -3.26425 2.58526 0
M  V30 6723 H 611.509 -5.30199 0.692293 0
M  V30 6724 H 611.852 -4.12614 -0.552718 0
M  V30 6725 H 612.385 -3.81772 1.11782 0
M  V30 6726 H 609.124 -5.46195 3.62424 0
M  V30 6727 H 608.644 -5.68048 1.92566 0
M  V30 6728 H 610.323 -5.99678 2.42889 0
M  V30 6729 N 610.455 -0.639598 -1.44038 0
M  V30 6730 C 611.683 -0.154811 -2.0632 0
M  V30 6731 C 612.098 1.17406 -1.47856 0
M  V30 6732 O 611.455 1.72193 -0.604638 0
M  V30 6733 C 611.506 -0.0429958 -3.61474 0
M  V30 6734 O 611.227 -1.31932 -4.17763 0
M  V30 6735 C 612.728 0.469486 -4.40807 0
M  V30 6736 H 609.948 -0.0835862 -0.665773 0
M  V30 6737 H 612.492 -0.876397 -1.84769 0
M  V30 6738 H 610.647 0.629075 -3.82258 0
M  V30 6739 H 611.061 -1.16965 -5.11292 0
M  V30 6740 H 612.535 0.496712 -5.49761 0
M  V30 6741 H 613.012 1.49819 -4.12857 0
M  V30 6742 H 613.618 -0.169624 -4.24962 0
M  V30 6743 N 611.933 1.52934 -0.380664 0
M  V30 6744 C 613.163 2.05587 0.204302 0
M  V30 6745 C 613.571 1.25288 1.41773 0
M  V30 6746 O 612.914 0.290394 1.8139 0
M  V30 6747 C 612.976 3.53624 0.647324 0
M  V30 6748 C 612.64 4.54765 -0.451465 0
M  V30 6749 C 613.637 5.03226 -1.30614 0
M  V30 6750 C 611.322 4.98508 -0.616025 0
M  V30 6751 C 613.316 5.94046 -2.31058 0
M  V30 6752 C 611.003 5.89131 -1.62381 0
M  V30 6753 C 612.001 6.36792 -2.46952 0
M  V30 6754 O 611.689 7.25626 -3.46009 0
M  V30 6755 H 611.421 0.675013 0.0365198 0
M  V30 6756 H 613.975 1.98125 -0.541827 0
M  V30 6757 H 612.205 3.58676 1.44529 0
M  V30 6758 H 613.894 3.89061 1.15698 0
M  V30 6759 H 614.66 4.70167 -1.19027 0
M  V30 6760 H 610.539 4.60989 0.0324987 0
M  V30 6761 H 614.083 6.3117 -2.97104 0
M  V30 6762 H 609.98 6.21603 -1.7401 0
M  V30 6763 H 610.748 7.43664 -3.41916 0
M  V30 6764 N 613.412 0.11024 1.57214 0
M  V30 6765 C 614.828 -0.24638 1.57687 0
M  V30 6766 C 615.028 -1.67344 1.12241 0
M  V30 6767 O 614.084 -2.39298 0.805783 0
M  V30 6768 C 615.397 -0.0210288 3.00693 0
M  V30 6769 C 616.945 -0.0876077 3.12877 0
M  V30 6770 C 617.42 0.10994 4.57868 0
M  V30 6771 N 618.911 0.0556135 4.63167 0
M  V30 6772 C 619.646 0.183495 5.73106 0
M  V30 6773 N 619.142 0.367058 6.91827 0
M  V30 6774 N 620.935 0.123689 5.61964 0
M  V30 6775 H 613.086 1.04246 1.85058 0
M  V30 6776 H 615.349 0.40979 0.854854 0
M  V30 6777 H 615.055 0.965203 3.38196 0
M  V30 6778 H 614.929 -0.756748 3.69531 0
M  V30 6779 H 617.316 -1.06436 2.75237 0
M  V30 6780 H 617.397 0.67985 2.466 0
M  V30 6781 H 617.041 1.08362 4.96206 0
M  V30 6782 H 616.971 -0.677397 5.22225 0
M  V30 6783 H 619.462 -0.0831062 3.77809 0
M  V30 6784 H 619.775 0.455739 7.71455 0
M  V30 6785 H 618.12 0.40292 6.93831 0
M  V30 6786 H 621.311 -0.0186928 4.68096 0
M  V30 6787 H 621.484 0.226797 6.47603 0
M  V30 6788 N 614.89 -1.56749 -0.16351 0
M  V30 6789 C 616.167 -1.73321 -0.906599 0
M  V30 6790 C 616.547 -0.673779 -2.00059 0
M  V30 6791 O 615.895 0.310121 -2.26386 0
M  V30 6792 C 616.105 -3.168 -1.46419 0
M  V30 6793 C 617.453 -3.77993 -1.93407 0
M  V30 6794 O 618.477 -3.20127 -1.56196 0
M  V30 6795 O 617.336 -4.79615 -2.61976 0
M  V30 6796 H 614.43 -0.708073 -0.427272 0
M  V30 6797 H 616.976 -1.69029 -0.150727 0
M  V30 6798 H 615.748 -3.85396 -0.677189 0
M  V30 6799 H 615.371 -3.2545 -2.28403 0
M  V30 6800 N 616.368 0.432326 -1.51554 0
M  V30 6801 C 617.616 1.17901 -1.64146 0
M  V30 6802 C 617.937 1.91604 -0.362367 0
M  V30 6803 O 617.207 1.85764 0.621968 0
M  V30 6804 H 615.787 0.438206 -0.604966 0
M  V30 6805 H 618.449 0.495172 -1.88505 0
M  V30 6806 H 617.545 1.90584 -2.47152 0
M  V30 6807 N 617.846 1.41785 0.688094 0
M  V30 6808 C 619.262 1.24419 0.999608 0
M  V30 6809 C 619.462 0.138868 2.01021 0
M  V30 6810 O 618.518 -0.494283 2.47615 0
M  V30 6811 C 619.831 2.59625 1.51709 0
M  V30 6812 C 621.379 2.66869 1.63554 0
M  V30 6813 C 621.854 4.0241 2.18702 0
M  V30 6814 N 623.345 4.04295 2.26053 0
M  V30 6815 C 624.08 5.05977 2.69768 0
M  V30 6816 N 623.576 6.18047 3.13033 0
M  V30 6817 N 625.369 4.93336 2.69398 0
M  V30 6818 H 617.52 2.12392 0.0187427 0
M  V30 6819 H 619.783 0.945347 0.0708673 0
M  V30 6820 H 619.489 3.41297 0.849059 0
M  V30 6821 H 619.363 2.82628 2.49803 0
M  V30 6822 H 621.75 1.8555 2.29467 0
M  V30 6823 H 621.831 2.47668 0.639857 0
M  V30 6824 H 621.475 4.8418 1.53402 0
M  V30 6825 H 621.405 4.18955 3.19037 0
M  V30 6826 H 623.896 3.23383 1.9553 0
M  V30 6827 H 624.209 6.91498 3.45038 0
M  V30 6828 H 622.554 6.21572 3.10923 0
M  V30 6829 H 625.745 4.04865 2.34952 0
M  V30 6830 H 625.918 5.72717 3.03148 0
M  V30 6831 N 619.324 -0.923095 1.27737 0
M  V30 6832 C 620.552 -1.70525 1.17171 0
M  V30 6833 C 620.967 -1.86847 -0.270881 0
M  V30 6834 O 620.324 -1.38879 -1.18401 0
M  V30 6835 C 620.375 -3.10242 1.85559 0
M  V30 6836 O 620.096 -2.94683 3.24182 0
M  V30 6837 C 621.597 -4.04586 1.81176 0
M  V30 6838 H 618.817 -0.533347 0.407163 0
M  V30 6839 H 621.361 -1.15599 1.68692 0
M  V30 6840 H 619.516 -3.62014 1.3793 0
M  V30 6841 H 619.93 -3.83045 3.58297 0
M  V30 6842 H 621.404 -5.00119 2.33633 0
M  V30 6843 H 621.881 -4.3218 0.782099 0
M  V30 6844 H 622.487 -3.58741 2.2844 0
M  V30 6845 N 620.802 -1.09834 -1.13024 0
M  V30 6846 C 622.05 -0.835297 -1.8403 0
M  V30 6847 C 622.371 0.640944 -1.84165 0
M  V30 6848 O 621.641 1.46517 -1.30037 0
M  V30 6849 H 620.221 -0.306018 -0.681441 0
M  V30 6850 H 622.883 -1.38734 -1.36891 0
M  V30 6851 H 621.979 -1.19258 -2.88416 0
M  V30 6852 N 622.28 1.30327 -0.886154 0
M  V30 6853 C 623.19 2.31854 -0.357866 0
M  V30 6854 C 624.206 1.65392 0.540502 0
M  V30 6855 O 625.382 1.96683 0.433339 0
M  V30 6856 C 622.447 3.44171 0.417999 0
M  V30 6857 C 621.508 4.26257 -0.510263 0
M  V30 6858 C 620.741 5.3321 0.228669 0
M  V30 6859 O 620.964 5.51542 1.45458 0
M  V30 6860 O 619.898 6.0042 -0.421832 0
M  V30 6861 H 623.724 2.78995 -1.19982 0
M  V30 6862 H 621.309 1.34518 -0.650028 0
M  V30 6863 H 623.191 4.12588 0.857251 0
M  V30 6864 H 621.866 2.99164 1.23623 0
M  V30 6865 H 620.773 3.60533 -0.99835 0
M  V30 6866 H 622.106 4.74871 -1.29454 0
M  V30 6867 N 623.758 0.647228 1.43697 0
M  V30 6868 C 624.688 -0.0345631 2.33474 0
M  V30 6869 C 625.669 -0.818193 1.4913 0
M  V30 6870 O 626.854 -0.780867 1.77809 0
M  V30 6871 C 623.984 -1.00576 3.32418 0
M  V30 6872 C 622.938 -0.33266 4.26705 0
M  V30 6873 C 622.264 -1.41489 5.1564 0
M  V30 6874 C 623.564 0.771204 5.16575 0
M  V30 6875 H 625.258 0.715163 2.90733 0
M  V30 6876 H 622.804 0.345364 1.39797 0
M  V30 6877 H 624.757 -1.49159 3.94119 0
M  V30 6878 H 623.481 -1.78657 2.73403 0
M  V30 6879 H 622.14 0.13267 3.6636 0
M  V30 6880 H 621.788 -2.18698 4.52968 0
M  V30 6881 H 621.488 -0.969799 5.79542 0
M  V30 6882 H 623.012 -1.9022 5.80214 0
M  V30 6883 H 624.426 0.36779 5.72119 0
M  V30 6884 H 622.823 1.1404 5.89165 0
M  V30 6885 H 623.893 1.63169 4.56622 0
M  V30 6886 N 625.236 -1.5273 0.388769 0
M  V30 6887 C 626.484 -2.01174 -0.193208 0
M  V30 6888 C 626.805 -1.27705 -1.47365 0
M  V30 6889 O 626.075 -0.396966 -1.91836 0
M  V30 6890 H 624.655 -0.743287 -0.0743871 0
M  V30 6891 H 627.317 -1.87826 0.520336 0
M  V30 6892 H 626.413 -3.09477 -0.403803 0
M  V30 6893 N 626.714 -0.118576 -1.57153 0
M  V30 6894 C 627.944 0.546466 -1.99242 0
M  V30 6895 C 628.352 1.60791 -0.997148 0
M  V30 6896 O 627.695 1.83691 0.0181745 0
M  V30 6897 C 627.757 1.23167 -3.37743 0
M  V30 6898 C 627.421 0.318226 -4.55891 0
M  V30 6899 C 628.418 -0.442988 -5.18009 0
M  V30 6900 C 626.103 0.229421 -5.01776 0
M  V30 6901 C 628.097 -1.28074 -6.244 0
M  V30 6902 C 625.784 -0.611966 -6.08028 0
M  V30 6903 C 626.782 -1.36568 -6.69207 0
M  V30 6904 O 626.47 -2.1931 -7.73407 0
M  V30 6905 H 626.202 0.149297 -0.659307 0
M  V30 6906 H 628.756 -0.201603 -2.04408 0
M  V30 6907 H 626.986 2.0268 -3.29329 0
M  V30 6908 H 628.675 1.79358 -3.64123 0
M  V30 6909 H 629.441 -0.38425 -4.83475 0
M  V30 6910 H 625.32 0.805771 -4.53903 0
M  V30 6911 H 628.864 -1.86952 -6.72082 0
M  V30 6912 H 624.761 -0.6721 -6.41991 0
M  V30 6913 H 625.529 -2.12247 -7.90502 0
M  V30 6914 N 628.193 1.56834 0.155195 0
M  V30 6915 C 629.123 2.00678 1.19376 0
M  V30 6916 C 630.104 0.884973 1.45266 0
M  V30 6917 O 631.289 1.1522 1.56326 0
M  V30 6918 C 628.419 2.38042 2.5289 0
M  V30 6919 C 627.373 3.53332 2.41538 0
M  V30 6920 C 626.699 3.76485 3.79688 0
M  V30 6921 C 627.999 4.86265 1.9064 0
M  V30 6922 H 629.693 2.87688 0.829232 0
M  V30 6923 H 627.239 1.38407 0.397445 0
M  V30 6924 H 629.192 2.67314 3.25763 0
M  V30 6925 H 627.916 1.4796 2.91162 0
M  V30 6926 H 626.575 3.24213 1.71117 0
M  V30 6927 H 626.223 2.83667 4.15382 0
M  V30 6928 H 625.923 4.54068 3.72956 0
M  V30 6929 H 627.447 4.08174 4.54122 0
M  V30 6930 H 628.861 5.14308 2.53299 0
M  V30 6931 H 627.258 5.67597 1.94818 0
M  V30 6932 H 628.328 4.77184 0.861596 0
M  V30 6933 N 629.671 -0.424282 1.51781 0
M  V30 6934 C 630.619 -1.53649 1.74628 0
M  V30 6935 C 631.613 -1.57923 0.612922 0
M  V30 6936 O 632.819 -1.61511 0.794618 0
M  V30 6937 H 629.194 -0.510706 0.551981 0
M  V30 6938 H 631.165 -1.31558 2.67834 0
M  V30 6939 C 629.914 -2.91177 1.9003 0
M  V30 6940 H 629.237 -2.88625 2.76651 0
M  V30 6941 H 630.677 -3.6833 2.10021 0
M  V30 6942 C 629.136 -3.30303 0.663435 0
M  V30 6943 O 629.666 -4.01315 -0.175812 0
M  V30 6944 N 627.872 -2.86201 0.503723 0
M  V30 6945 H 627.419 -2.28583 1.18776 0
M  V30 6946 H 627.377 -3.12741 -0.322575 0
M  V30 6947 N 631.149 -1.42148 -0.680565 0
M  V30 6948 C 632.56 -1.3768 -1.26099 0
M  V30 6949 C 632.911 -0.0672348 -1.96085 0
M  V30 6950 O 632.036 0.834172 -1.99676 0
M  V30 6951 C 632.631 -2.49387 -2.29328 0
M  V30 6952 C 631.19 -2.4827 -2.82911 0
M  V30 6953 C 630.337 -2.2847 -1.57152 0
M  V30 6954 H 633.288 -1.51446 -0.474326 0
M  V30 6955 H 633.309 -2.19307 -3.10941 0
M  V30 6956 H 632.821 -3.44686 -1.78363 0
M  V30 6957 H 630.922 -1.56773 -3.38013 0
M  V30 6958 H 631.035 -3.45109 -3.3232 0
M  V30 6959 H 629.399 -1.76623 -1.83511 0
M  V30 6960 H 630.182 -3.25816 -1.0816 0
M  V30 6961 N 632.627 0.916307 -1.28225 0
M  V30 6962 C 633.875 1.6619 -1.15002 0
M  V30 6963 C 634.196 1.92642 0.302329 0
M  V30 6964 O 633.466 1.54076 1.20985 0
M  V30 6965 H 632.046 0.615964 -0.422608 0
M  V30 6966 H 634.708 1.09963 -1.60917 0
M  V30 6967 H 633.804 2.62533 -1.68769 0
M  V30 6968 N 634.105 1.10431 1.1244 0
M  V30 6969 C 635.351 0.847972 1.84221 0
M  V30 6970 C 635.684 -0.624903 1.83871 0
M  V30 6971 O 634.959 -1.46074 1.28423 0
M  V30 6972 C 635.242 1.39695 3.319 0
M  V30 6973 C 635.095 2.93668 3.40704 0
M  V30 6974 C 636.414 1.03924 4.27654 0
M  V30 6975 H 633.533 0.309502 0.668863 0
M  V30 6976 H 636.175 1.36745 1.31912 0
M  V30 6977 H 634.325 0.955095 3.76577 0
M  V30 6978 H 635.997 3.46379 3.04662 0
M  V30 6979 H 634.24 3.30272 2.81252 0
M  V30 6980 H 634.911 3.27162 4.446 0
M  V30 6981 H 637.387 1.42049 3.91102 0
M  V30 6982 H 636.263 1.45027 5.29394 0
M  V30 6983 H 636.524 -0.051336 4.4207 0
M  V30 6984 N 635.583 -1.29855 0.893053 0
M  V30 6985 C 636.83 -1.95826 0.515585 0
M  V30 6986 C 637.158 -1.70451 -0.936842 0
M  V30 6987 O 636.413 -1.00657 -1.67829 0
M  V30 6988 C 636.712 -3.49515 0.746588 0
M  V30 6989 C 636.378 -3.94955 2.17535 0
M  V30 6990 C 635.04 -4.07073 2.56603 0
M  V30 6991 C 637.392 -4.18536 3.10607 0
M  V30 6992 C 634.72 -4.40138 3.87938 0
M  V30 6993 C 637.072 -4.53073 4.41484 0
M  V30 6994 C 635.736 -4.634 4.80434 0
M  V30 6995 H 635.006 -0.71658 0.188666 0
M  V30 6996 H 637.653 -1.54574 1.13045 0
M  V30 6997 H 635.958 -3.9177 0.0487551 0
M  V30 6998 H 637.655 -3.98644 0.434009 0
M  V30 6999 H 634.245 -3.86035 1.86212 0
M  V30 7000 H 638.429 -4.08646 2.81641 0
M  V30 7001 H 633.685 -4.46335 4.17846 0
M  V30 7002 H 637.859 -4.70269 5.13634 0
M  V30 7003 H 635.486 -4.88775 5.82239 0
M  V30 7004 N 637.061 -0.65484 -1.43351 0
M  V30 7005 C 638.289 -0.176685 -2.06144 0
M  V30 7006 C 638.704 1.15831 -1.49093 0
M  V30 7007 O 638.061 1.71542 -0.622868 0
M  V30 7008 C 638.112 -0.0813326 -3.61408 0
M  V30 7009 O 637.833 -1.36355 -4.1634 0
M  V30 7010 C 639.334 0.422706 -4.4128 0
M  V30 7011 H 636.554 -0.0906429 -0.66485 0
M  V30 7012 H 639.098 -0.895945 -1.83829 0
M  V30 7013 H 637.253 0.588496 -3.82904 0
M  V30 7014 H 637.667 -1.22381 -5.10023 0
M  V30 7015 H 639.141 0.438375 -5.50257 0
M  V30 7016 H 639.618 1.45432 -4.14423 0
M  V30 7017 H 640.224 -0.214687 -4.24758 0
M  V30 7018 N 638.539 1.52521 -0.396863 0
M  V30 7019 C 639.471 2.24333 0.469814 0
M  V30 7020 C 640.484 1.2685 1.02043 0
M  V30 7021 O 641.673 1.52876 0.92147 0
M  V30 7022 C 638.773 2.95202 1.66461 0
M  V30 7023 C 637.946 4.19454 1.24003 0
M  V30 7024 C 637.005 4.73255 2.30036 0
M  V30 7025 O 636.031 5.36151 1.91131 0
M  V30 7026 N 637.233 4.53765 3.62047 0
M  V30 7027 H 639.998 2.99347 -0.145468 0
M  V30 7028 H 637.559 1.60348 -0.223606 0
M  V30 7029 H 639.551 3.28092 2.36934 0
M  V30 7030 H 638.121 2.2345 2.18607 0
M  V30 7031 H 637.341 3.92517 0.363892 0
M  V30 7032 H 638.629 5.0017 0.933135 0
M  V30 7033 H 638.027 4.03576 3.96412 0
M  V30 7034 H 636.584 4.91124 4.28533 0
M  V30 7035 N 640.017 0.126909 1.57088 0
M  V30 7036 C 641.242 -0.53997 2.00248 0
M  V30 7037 C 641.667 -1.58927 1.00618 0
M  V30 7038 O 641.025 -1.81288 -0.0210131 0
M  V30 7039 C 641.073 -1.13565 3.4225 0
M  V30 7040 O 640.177 -2.25103 3.45547 0
M  V30 7041 H 639.518 -0.13412 0.650314 0
M  V30 7042 H 642.048 0.217718 2.03438 0
M  V30 7043 H 642.058 -1.46925 3.80627 0
M  V30 7044 H 640.733 -0.367122 4.14277 0
M  V30 7045 H 639.31 -1.93123 3.18995 0
M  V30 7046 N 641.495 -1.56914 -0.146875 0
M  V30 7047 C 642.911 -1.51582 -0.499518 0
M  V30 7048 C 643.111 -0.83535 -1.83369 0
M  V30 7049 O 642.167 -0.405932 -2.49216 0
M  V30 7050 C 643.48 -2.96349 -0.509711 0
M  V30 7051 C 645.028 -3.07288 -0.595217 0
M  V30 7052 C 645.503 -4.53562 -0.636071 0
M  V30 7053 N 646.994 -4.57906 -0.69829 0
M  V30 7054 C 647.729 -5.68462 -0.750886 0
M  V30 7055 N 647.225 -6.88588 -0.76282 0
M  V30 7056 N 649.018 -5.56496 -0.791777 0
M  V30 7057 H 641.169 -1.99547 0.727656 0
M  V30 7058 H 643.432 -0.910113 0.265327 0
M  V30 7059 H 643.138 -3.4939 0.402409 0
M  V30 7060 H 643.012 -3.52307 -1.34758 0
M  V30 7061 H 645.399 -2.54266 -1.49776 0
M  V30 7062 H 645.48 -2.54373 0.2698 0
M  V30 7063 H 645.124 -5.07222 0.262313 0
M  V30 7064 H 645.054 -5.04259 -1.51758 0
M  V30 7065 H 647.545 -3.71429 -0.696362 0
M  V30 7066 H 647.858 -7.68598 -0.804804 0
M  V30 7067 H 646.203 -6.91148 -0.730694 0
M  V30 7068 H 649.394 -4.61562 -0.779624 0
M  V30 7069 H 649.567 -6.42671 -0.829301 0
M  V30 7070 N 642.974 0.416227 -1.52004 0
M  V30 7071 C 644.39 0.754319 -1.40649 0
M  V30 7072 C 644.59 1.95059 -0.505392 0
M  V30 7073 O 643.646 2.5248 0.0315057 0
M  V30 7074 C 644.959 1.0149 -2.83055 0
M  V30 7075 C 646.507 1.11805 -2.9235 0
M  V30 7076 C 646.982 1.41144 -4.35709 0
M  V30 7077 N 648.473 1.48024 -4.38911 0
M  V30 7078 C 649.208 1.72338 -5.46889 0
M  V30 7079 N 648.704 1.94303 -6.64995 0
M  V30 7080 N 650.497 1.74294 -5.34395 0
M  V30 7081 H 642.648 -0.371324 -2.09129 0
M  V30 7082 H 644.911 -0.103811 -0.942299 0
M  V30 7083 H 644.617 0.208345 -3.51082 0
M  V30 7084 H 644.491 1.93697 -3.23668 0
M  V30 7085 H 646.878 1.91521 -2.24508 0
M  V30 7086 H 646.959 0.17451 -2.55204 0
M  V30 7087 H 646.603 0.619484 -5.04108 0
M  V30 7088 H 646.533 2.36739 -4.70385 0
M  V30 7089 H 649.024 1.32868 -3.53772 0
M  V30 7090 H 649.337 2.12286 -7.43071 0
M  V30 7091 H 647.682 1.91582 -6.68073 0
M  V30 7092 H 650.873 1.56667 -4.41104 0
M  V30 7093 H 651.046 1.92904 -6.18621 0
M  V30 7094 N 644.452 1.42507 0.673017 0
M  V30 7095 C 645.698 1.44282 1.43367 0
M  V30 7096 C 646.053 0.0588239 1.9231 0
M  V30 7097 O 645.346 -0.919288 1.68106 0
M  V30 7098 C 645.54 2.40351 2.64511 0
M  V30 7099 C 645.369 3.87955 2.27423 0
M  V30 7100 C 644.139 4.56476 2.16697 0
M  V30 7101 C 646.337 4.7833 1.88957 0
M  V30 7102 N 644.319 5.89099 1.72731 0
M  V30 7103 C 645.69 6.00073 1.55923 0
M  V30 7104 C 647.745 4.65769 1.75965 0
M  V30 7105 C 646.448 7.10652 1.112 0
M  V30 7106 C 648.474 5.76332 1.32647 0
M  V30 7107 C 647.836 6.97188 1.00538 0
M  V30 7108 H 643.935 0.583134 0.521036 0
M  V30 7109 H 646.519 1.78547 0.776481 0
M  V30 7110 H 644.69 2.08145 3.27918 0
M  V30 7111 H 646.422 2.32694 3.31113 0
M  V30 7112 H 643.177 4.10712 2.35823 0
M  V30 7113 H 643.601 6.59446 1.53166 0
M  V30 7114 H 648.243 3.72808 1.99435 0
M  V30 7115 H 645.961 8.0346 0.864768 0
M  V30 7116 H 649.547 5.68625 1.23112 0
M  V30 7117 H 648.427 7.81287 0.675283 0
M  V30 7118 N 645.93 -0.909495 1.28709 0
M  V30 7119 C 646.877 -2.01245 1.13 0
M  V30 7120 C 647.847 -1.6608 0.0259684 0
M  V30 7121 O 649.032 -1.89835 0.191687 0
M  V30 7122 C 646.172 -3.35644 0.802315 0
M  V30 7123 C 645.285 -3.83653 1.98582 0
M  V30 7124 C 644.42 -5.06582 1.59837 0
M  V30 7125 C 643.459 -5.46934 2.74827 0
M  V30 7126 N 642.596 -6.61053 2.36546 0
M  V30 7127 H 647.436 -2.14013 2.0737 0
M  V30 7128 H 644.973 -1.0482 1.03205 0
M  V30 7129 H 646.931 -4.12963 0.593057 0
M  V30 7130 H 645.561 -3.22631 -0.104457 0
M  V30 7131 H 644.613 -3.02454 2.30708 0
M  V30 7132 H 645.925 -4.09515 2.84779 0
M  V30 7133 H 645.079 -5.91457 1.35143 0
M  V30 7134 H 643.818 -4.82537 0.707753 0
M  V30 7135 H 642.823 -4.60599 3.00215 0
M  V30 7136 H 644.048 -5.72965 3.64538 0
M  V30 7137 H 641.994 -6.3863 1.49959 0
M  V30 7138 H 641.911 -6.86662 3.16277 0
M  V30 7139 H 643.179 -7.49221 2.15146 0
M  V30 7140 N 647.408 -1.11026 -1.11852 0
M  V30 7141 C 648.685 -0.768347 -1.79877 0
M  V30 7142 C 649.065 0.744261 -1.97545 0
M  V30 7143 O 648.413 1.67271 -1.55669 0
M  V30 7144 C 648.623 -1.52648 -3.13846 0
M  V30 7145 C 649.971 -1.70297 -3.88953 0
M  V30 7146 O 650.995 -1.49037 -3.23522 0
M  V30 7147 O 649.854 -2.05593 -5.06353 0
M  V30 7148 H 646.948 -0.277891 -0.778913 0
M  V30 7149 H 649.494 -1.21343 -1.18633 0
M  V30 7150 H 648.266 -2.55564 -2.96315 0
M  V30 7151 H 647.889 -1.07466 -3.82801 0
M  V30 7152 N 648.886 1.2938 -0.899927 0
M  V30 7153 C 649.836 2.25311 -0.349165 0
M  V30 7154 C 650.82 1.51889 0.530892 0
M  V30 7155 O 652.012 1.73028 0.372872 0
M  V30 7156 C 649.141 3.40696 0.422055 0
M  V30 7157 C 648.227 4.21455 -0.472935 0
M  V30 7158 N 648.618 4.8048 -1.58026 0
M  V30 7159 C 646.916 4.45177 -0.270767 0
M  V30 7160 C 647.617 5.41117 -2.13465 0
M  V30 7161 N 646.593 5.24518 -1.42766 0
M  V30 7162 H 650.395 2.68507 -1.19505 0
M  V30 7163 H 647.909 1.43992 -0.751006 0
M  V30 7164 H 649.906 4.08486 0.833369 0
M  V30 7165 H 648.566 2.99037 1.2652 0
M  V30 7166 H 649.577 4.79257 -1.96299 0
M  V30 7167 H 646.254 4.14071 0.533988 0
M  V30 7168 H 647.644 5.979 -3.06537 0
M  V30 7169 N 650.364 0.662433 1.43002 0
M  V30 7170 C 651.327 -0.0142016 2.29196 0
M  V30 7171 C 652.327 -0.741394 1.42688 0
M  V30 7172 O 653.517 -0.581257 1.64216 0
M  V30 7173 C 650.649 -1.03084 3.24941 0
M  V30 7174 H 651.842 0.7443 2.90517 0
M  V30 7175 H 649.395 0.424133 1.50435 0
M  V30 7176 H 650.13 -1.81826 2.68533 0
M  V30 7177 H 649.915 -0.512946 3.8873 0
M  V30 7178 H 651.405 -1.50308 3.89612 0
M  V30 7179 N 651.842 -1.52309 0.404946 0
M  V30 7180 C 653.119 -1.94237 -0.230544 0
M  V30 7181 C 653.499 -1.34154 -1.6299 0
M  V30 7182 O 652.847 -0.515713 -2.22604 0
M  V30 7183 C 653.057 -3.48166 -0.241106 0
M  V30 7184 C 654.405 -4.22074 -0.462488 0
M  V30 7185 O 655.429 -3.54754 -0.320644 0
M  V30 7186 O 654.288 -5.41443 -0.741708 0
M  V30 7187 H 651.382 -0.813766 -0.147358 0
M  V30 7188 H 653.928 -1.6333 0.460587 0
M  V30 7189 H 652.7 -3.84269 0.738467 0
M  V30 7190 H 652.323 -3.85422 -0.97651 0
M  V30 7191 N 653.32 -0.135238 -1.57019 0
M  V30 7192 C 654.253 0.846618 -2.11914 0
M  V30 7193 C 655.231 1.25019 -1.03966 0
M  V30 7194 O 656.415 1.34838 -1.31723 0
M  V30 7195 C 653.542 2.1352 -2.6292 0
M  V30 7196 C 652.588 1.87846 -3.82905 0
M  V30 7197 S 653.421 1.08005 -5.24495 0
M  V30 7198 C 654.577 2.38008 -5.78881 0
M  V30 7199 H 654.81 0.379752 -2.94865 0
M  V30 7200 H 652.343 0.0788387 -1.54199 0
M  V30 7201 H 654.301 2.87551 -2.92958 0
M  V30 7202 H 652.962 2.57323 -1.80121 0
M  V30 7203 H 652.155 2.83365 -4.16797 0
M  V30 7204 H 651.757 1.21929 -3.53567 0
M  V30 7205 H 654.049 3.33742 -5.89595 0
M  V30 7206 H 654.992 2.08638 -6.76665 0
M  V30 7207 H 655.4 2.48119 -5.07048 0
M  V30 7208 N 654.798 1.5699 0.138552 0
M  V30 7209 C 655.728 2.01933 1.17241 0
M  V30 7210 C 656.709 0.90033 1.44319 0
M  V30 7211 O 657.894 1.16872 1.55095 0
M  V30 7212 C 655.024 2.40711 2.50351 0
M  V30 7213 C 653.978 3.55874 2.37776 0
M  V30 7214 C 653.304 3.80491 3.75674 0
M  V30 7215 C 654.604 4.8826 1.85472 0
M  V30 7216 H 656.298 2.88551 0.798672 0
M  V30 7217 H 653.844 1.3882 0.382743 0
M  V30 7218 H 655.797 2.70754 3.22909 0
M  V30 7219 H 654.521 1.5104 2.89576 0
M  V30 7220 H 653.18 3.2601 1.67669 0
M  V30 7221 H 652.828 2.88057 4.12349 0
M  V30 7222 H 652.528 4.57998 3.68119 0
M  V30 7223 H 654.052 4.12967 4.49767 0
M  V30 7224 H 655.466 5.16965 2.4783 0
M  V30 7225 H 653.863 5.69631 1.88787 0
M  V30 7226 H 654.933 4.78071 0.810935 0
M  V30 7227 N 656.276 -0.40816 1.52223 0
M  V30 7228 C 657.223 -1.49737 1.75635 0
M  V30 7229 C 658.193 -1.5493 0.598824 0
M  V30 7230 O 659.378 -1.71487 0.83648 0
M  V30 7231 C 656.518 -2.87174 1.91376 0
M  V30 7232 C 655.631 -2.91283 3.19027 0
M  V30 7233 C 654.766 -4.20026 3.25195 0
M  V30 7234 C 653.805 -4.18113 4.47044 0
M  V30 7235 N 652.942 -5.38429 4.50598 0
M  V30 7236 H 657.782 -1.29075 2.68596 0
M  V30 7237 H 655.319 -0.626518 1.33091 0
M  V30 7238 H 657.277 -3.66959 1.98486 0
M  V30 7239 H 655.907 -3.06329 1.01795 0
M  V30 7240 H 654.959 -2.03984 3.21084 0
M  V30 7241 H 656.271 -2.85734 4.08849 0
M  V30 7242 H 655.425 -5.08204 3.31382 0
M  V30 7243 H 654.164 -4.28271 2.33313 0
M  V30 7244 H 653.169 -3.28325 4.41002 0
M  V30 7245 H 654.394 -4.11507 5.40221 0
M  V30 7246 H 652.34 -5.4734 3.616 0
M  V30 7247 H 652.257 -5.34879 5.34266 0
M  V30 7248 H 653.525 -6.28557 4.61016 0
M  V30 7249 N 657.755 -1.42862 -0.66545 0
M  V30 7250 C 658.687 -1.43026 -1.79098 0
M  V30 7251 C 659.7 -0.32803 -1.59461 0
M  V30 7252 O 660.889 -0.591709 -1.68407 0
M  V30 7253 C 657.989 -1.21566 -3.16346 0
M  V30 7254 C 657.162 -2.44399 -3.62751 0
M  V30 7255 C 656.221 -2.18344 -4.78761 0
M  V30 7256 O 655.247 -2.91611 -4.88827 0
M  V30 7257 N 656.449 -1.1924 -5.68122 0
M  V30 7258 H 659.214 -2.40045 -1.79439 0
M  V30 7259 H 656.775 -1.37861 -0.848872 0
M  V30 7260 H 658.767 -1.02037 -3.91625 0
M  V30 7261 H 657.337 -0.330368 -3.10849 0
M  V30 7262 H 656.557 -2.79433 -2.78048 0
M  V30 7263 H 657.845 -3.26173 -3.90498 0
M  V30 7264 H 657.243 -0.586603 -5.6265 0
M  V30 7265 H 655.8 -1.05698 -6.43173 0
M  V30 7266 N 659.233 0.902656 -1.29189 0
M  V30 7267 C 660.463 1.68394 -1.19695 0
M  V30 7268 C 660.871 1.87602 0.245384 0
M  V30 7269 O 660.214 1.41084 1.17648 0
M  V30 7270 C 660.276 3.09094 -1.83578 0
M  V30 7271 C 659.94 3.1313 -3.32864 0
M  V30 7272 C 660.937 2.93497 -4.29134 0
M  V30 7273 C 658.622 3.3529 -3.74013 0
M  V30 7274 C 660.616 2.95953 -5.64527 0
M  V30 7275 C 658.303 3.37377 -5.09529 0
M  V30 7276 C 659.301 3.1773 -6.04596 0
M  V30 7277 O 658.989 3.196 -7.37639 0
M  V30 7278 H 658.721 0.532815 -0.416034 0
M  V30 7279 H 661.275 1.1374 -1.71033 0
M  V30 7280 H 659.505 3.65338 -1.26747 0
M  V30 7281 H 661.194 3.69297 -1.68447 0
M  V30 7282 H 661.96 2.76192 -3.98677 0
M  V30 7283 H 657.839 3.49623 -3.00474 0
M  V30 7284 H 661.383 2.80536 -6.38706 0
M  V30 7285 H 657.28 3.54213 -5.39633 0
M  V30 7286 H 658.048 3.35887 -7.46406 0
M  V30 7287 N 660.711 1.11618 1.11262 0
M  V30 7288 C 661.674 0.779447 2.15539 0
M  V30 7289 C 662.674 -0.202081 1.59525 0
M  V30 7290 O 663.864 0.0226356 1.74185 0
M  V30 7291 C 660.996 0.15674 3.40539 0
M  V30 7292 H 662.189 1.70324 2.4684 0
M  V30 7293 H 659.742 0.918298 1.26479 0
M  V30 7294 H 660.477 -0.777186 3.1485 0
M  V30 7295 H 660.262 0.863308 3.82478 0
M  V30 7296 H 661.752 -0.062661 4.17553 0
M  V30 7297 N 662.189 -1.289 0.906776 0
M  V30 7298 C 663.417 -1.99401 0.551969 0
M  V30 7299 C 663.832 -1.67816 -0.865048 0
M  V30 7300 O 663.189 -0.927078 -1.57199 0
M  V30 7301 C 663.24 -3.53779 0.743152 0
M  V30 7302 O 662.961 -3.84248 2.1044 0
M  V30 7303 C 664.462 -4.41543 0.39424 0
M  V30 7304 H 661.682 -0.636926 0.211106 0
M  V30 7305 H 664.226 -1.64266 1.21807 0
M  V30 7306 H 662.381 -3.87201 0.124143 0
M  V30 7307 H 662.795 -4.78904 2.13895 0
M  V30 7308 H 664.269 -5.48957 0.578814 0
M  V30 7309 H 664.746 -4.34073 -0.669137 0
M  V30 7310 H 665.352 -4.13605 0.990491 0
M  V30 7311 N 663.667 -0.670007 -1.42649 0
M  V30 7312 C 664.907 -0.194106 -2.03476 0
M  V30 7313 C 665.271 1.1755 -1.51809 0
M  V30 7314 O 666.472 1.74579 -2.04391 0
M  V30 7315 C 664.743 -0.221828 -3.56711 0
M  V30 7316 S 666.302 0.183772 -4.38415 0
M  V30 7317 H 663.12 -0.0802478 -0.706457 0
M  V30 7318 H 665.722 -0.882092 -1.74469 0
M  V30 7319 H 664.426 -1.22107 -3.91814 0
M  V30 7320 H 663.957 0.486149 -3.90385 0
M  V30 7321 H 665.972 1.41839 -4.75496 0
M  V30 7322 N 665.145 1.52092 -0.413018 0
M  V30 7323 C 666.075 2.30021 0.401567 0
M  V30 7324 C 667.056 1.34395 1.04269 0
M  V30 7325 O 668.241 1.63304 1.05097 0
M  V30 7326 C 665.371 3.12447 1.51638 0
M  V30 7327 C 664.325 4.16153 1.00005 0
M  V30 7328 C 663.651 4.86948 2.20875 0
M  V30 7329 C 664.951 5.22275 0.0513757 0
M  V30 7330 H 666.645 2.98365 -0.248704 0
M  V30 7331 H 664.191 1.4349 -0.121052 0
M  V30 7332 H 666.144 3.65733 2.09326 0
M  V30 7333 H 664.868 2.41879 2.19458 0
M  V30 7334 H 663.527 3.63882 0.445549 0
M  V30 7335 H 663.175 4.12905 2.8726 0
M  V30 7336 H 662.875 5.57057 1.86978 0
M  V30 7337 H 664.399 5.43048 2.79162 0
M  V30 7338 H 665.813 5.70778 0.537176 0
M  V30 7339 H 664.21 5.9977 -0.198977 0
M  V30 7340 H 665.28 4.76611 -0.892736 0
M  V30 7341 N 666.623 0.143563 1.56945 0
M  V30 7342 C 667.848 -0.518701 2.00809 0
M  V30 7343 C 668.273 -1.5785 1.02298 0
M  V30 7344 O 667.631 -1.813 -0.0017839 0
M  V30 7345 C 667.679 -1.09929 3.43436 0
M  V30 7346 O 666.783 -2.21425 3.47915 0
M  V30 7347 H 666.124 -0.127215 0.6517 0
M  V30 7348 H 668.654 0.239283 2.03196 0
M  V30 7349 H 668.664 -1.4288 3.82164 0
M  V30 7350 H 667.339 -0.323162 4.14643 0
M  V30 7351 H 665.916 -1.89728 3.21026 0
M  V30 7352 N 668.101 -1.57061 -0.130224 0
M  V30 7353 C 669.517 -1.52103 -0.483413 0
M  V30 7354 C 669.717 -0.854752 -1.82473 0
M  V30 7355 O 668.773 -0.432342 -2.48771 0
M  V30 7356 C 670.086 -2.96872 -0.47825 0
M  V30 7357 C 671.634 -3.07902 -0.562592 0
M  V30 7358 C 672.109 -4.54211 -0.587929 0
M  V30 7359 N 673.6 -4.58621 -0.649684 0
M  V30 7360 C 674.335 -5.69227 -0.690551 0
M  V30 7361 N 673.831 -6.89358 -0.689743 0
M  V30 7362 N 675.624 -5.57304 -0.732708 0
M  V30 7363 H 667.775 -1.98764 0.748779 0
M  V30 7364 H 670.038 -0.907248 0.274965 0
M  V30 7365 H 669.744 -3.48944 0.439444 0
M  V30 7366 H 669.618 -3.53716 -1.31013 0
M  V30 7367 H 672.005 -2.5584 -1.47071 0
M  V30 7368 H 672.086 -2.54073 0.296764 0
M  V30 7369 H 671.73 -5.06915 0.316096 0
M  V30 7370 H 671.66 -5.0584 -1.46401 0
M  V30 7371 H 674.151 -3.72146 -0.656927 0
M  V30 7372 H 674.464 -7.69408 -0.723239 0
M  V30 7373 H 672.809 -6.91884 -0.657347 0
M  V30 7374 H 676 -4.62363 -0.730625 0
M  V30 7375 H 676.173 -6.43515 -0.76109 0
M  V30 7376 N 669.579 0.400081 -1.52437 0
M  V30 7377 C 670.509 1.4947 -1.7939 0
M  V30 7378 C 671.49 1.57383 -0.645329 0
M  V30 7379 O 672.675 1.72511 -0.891826 0
M  V30 7380 C 669.805 2.87201 -1.95276 0
M  V30 7381 C 668.759 2.94134 -3.10917 0
M  V30 7382 C 668.085 4.34207 -3.1204 0
M  V30 7383 C 669.385 2.64791 -4.50203 0
M  V30 7384 H 671.079 1.27165 -2.71052 0
M  V30 7385 H 668.625 0.610312 -1.30427 0
M  V30 7386 H 670.578 3.63772 -2.12715 0
M  V30 7387 H 669.302 3.10819 -1.00294 0
M  V30 7388 H 667.961 2.20009 -2.93243 0
M  V30 7389 H 667.609 4.54848 -2.14761 0
M  V30 7390 H 667.309 4.39768 -3.89715 0
M  V30 7391 H 668.833 5.127 -3.31619 0
M  V30 7392 H 670.247 3.31083 -4.68035 0
M  V30 7393 H 668.644 2.81717 -5.29864 0
M  V30 7394 H 669.714 1.60184 -4.57678 0
M  V30 7395 N 671.057 1.43213 0.657864 0
M  V30 7396 C 671.987 1.50815 1.78262 0
M  V30 7397 C 672.968 0.363211 1.66177 0
M  V30 7398 O 674.153 0.579806 1.85343 0
M  V30 7399 C 671.283 1.42625 3.16663 0
M  V30 7400 C 670.237 2.5532 3.43505 0
M  V30 7401 C 669.563 2.32184 4.81658 0
M  V30 7402 C 670.863 3.97583 3.38711 0
M  V30 7403 H 672.557 2.44954 1.72157 0
M  V30 7404 H 670.103 1.17896 0.82683 0
M  V30 7405 H 672.056 1.46548 3.95097 0
M  V30 7406 H 670.78 0.449877 3.23487 0
M  V30 7407 H 669.439 2.50742 2.6744 0
M  V30 7408 H 669.087 1.32801 4.85153 0
M  V30 7409 H 668.787 3.07724 5.00579 0
M  V30 7410 H 670.311 2.37883 5.62356 0
M  V30 7411 H 671.725 4.03673 4.07089 0
M  V30 7412 H 670.122 4.73112 3.69168 0
M  V30 7413 H 671.192 4.23049 2.36976 0
M  V30 7414 N 672.536 -0.895792 1.29666 0
M  V30 7415 C 673.947 -1.46195 1.1612 0
M  V30 7416 C 674.298 -1.94699 -0.242195 0
M  V30 7417 O 673.423 -1.8406 -1.13802 0
M  V30 7418 C 674.018 -2.65718 2.10189 0
M  V30 7419 C 672.577 -3.18458 2.00653 0
M  V30 7420 C 671.724 -1.91149 2.00891 0
M  V30 7421 H 674.675 -0.706756 1.42094 0
M  V30 7422 H 674.696 -3.4158 1.6764 0
M  V30 7423 H 674.208 -2.30386 3.12321 0
M  V30 7424 H 672.309 -3.58474 1.01623 0
M  V30 7425 H 672.422 -3.82491 2.88509 0
M  V30 7426 H 670.786 -2.09021 1.45542 0
M  V30 7427 H 671.569 -1.58089 3.04734 0
M  V30 7428 N 674.014 -1.12206 -1.10668 0
M  V30 7429 C 674.961 -0.787716 -2.16942 0
M  V30 7430 C 675.931 0.244442 -1.64291 0
M  V30 7431 O 677.116 0.119558 -1.90425 0
M  V30 7432 C 674.256 -0.24584 -3.44223 0
M  V30 7433 C 673.369 -1.33552 -4.10838 0
M  V30 7434 C 672.504 -0.753337 -5.25831 0
M  V30 7435 C 671.543 -1.82231 -5.84344 0
M  V30 7436 N 670.68 -1.25902 -6.90719 0
M  V30 7437 H 675.52 -1.69809 -2.44885 0
M  V30 7438 H 673.057 -0.847862 -1.20207 0
M  V30 7439 H 675.015 0.0863639 -4.17111 0
M  V30 7440 H 673.645 0.627702 -3.16638 0
M  V30 7441 H 672.697 -1.78454 -3.35944 0
M  V30 7442 H 674.009 -2.14396 -4.50373 0
M  V30 7443 H 673.163 -0.37166 -6.05561 0
M  V30 7444 H 671.902 0.0863297 -4.87624 0
M  V30 7445 H 670.907 -2.2132 -5.03287 0
M  V30 7446 H 672.132 -2.66515 -6.24617 0
M  V30 7447 H 670.078 -0.44114 -6.54515 0
M  V30 7448 H 669.995 -2.00408 -7.28953 0
M  V30 7449 H 671.263 -0.904498 -7.74235 0
M  V30 7450 N 675.492 1.28418 -0.913599 0
M  V30 7451 C 676.722 1.98817 -0.56172 0
M  V30 7452 C 677.13 1.68457 0.861321 0
M  V30 7453 O 676.473 0.933653 1.58204 0
M  V30 7454 C 676.535 3.52801 -0.690785 0
M  V30 7455 C 676.199 4.0675 -2.08334 0
M  V30 7456 C 677.196 4.20597 -3.05604 0
M  V30 7457 C 674.881 4.41445 -2.39648 0
M  V30 7458 C 676.875 4.68392 -4.32305 0
M  V30 7459 C 674.562 4.88934 -3.66588 0
M  V30 7460 C 675.56 5.02364 -4.6273 0
M  V30 7461 O 675.248 5.48817 -5.87414 0
M  V30 7462 H 674.98 0.641608 -0.212874 0
M  V30 7463 H 677.534 1.64584 -1.22887 0
M  V30 7464 H 675.764 3.86686 0.0334336 0
M  V30 7465 H 677.453 4.04422 -0.346031 0
M  V30 7466 H 678.219 3.94067 -2.8273 0
M  V30 7467 H 674.098 4.30242 -1.65567 0
M  V30 7468 H 677.642 4.7879 -5.07352 0
M  V30 7469 H 673.539 5.14904 -3.89287 0
M  V30 7470 H 674.307 5.67103 -5.90201 0
M  V30 7471 N 676.97 0.677563 1.42291 0
M  V30 7472 C 677.918 -0.0106755 2.32598 0
M  V30 7473 C 678.912 -0.787643 1.49975 0
M  V30 7474 O 680.118 -0.695295 1.66029 0
M  V30 7475 H 676.493 -0.0222482 0.751671 0
M  V30 7476 H 678.464 0.768312 2.88339 0
M  V30 7477 C 677.213 -0.946142 3.3458 0
M  V30 7478 H 676.536 -0.357701 3.98197 0
M  V30 7479 H 677.976 -1.39634 4.00348 0
M  V30 7480 C 676.435 -2.05383 2.67057 0
M  V30 7481 O 676.965 -3.1406 2.50458 0
M  V30 7482 N 675.171 -1.82635 2.26038 0
M  V30 7483 H 674.718 -0.942534 2.39737 0
M  V30 7484 H 674.676 -2.56937 1.81192 0
M  V30 7485 N 678.448 -1.51871 0.421078 0
M  V30 7486 C 679.694 -2.02237 -0.151014 0
M  V30 7487 C 680.027 -1.30554 -1.43768 0
M  V30 7488 O 679.302 -0.41546 -1.90011 0
M  V30 7489 C 679.585 -3.5802 -0.386482 0
M  V30 7490 C 679.438 -4.40339 0.9177 0
M  V30 7491 C 680.757 -4.24444 -1.16342 0
M  V30 7492 H 677.876 -0.735062 -0.0534102 0
M  V30 7493 H 680.518 -1.81656 0.556888 0
M  V30 7494 H 678.668 -3.75688 -0.989494 0
M  V30 7495 H 680.34 -4.34357 1.55344 0
M  V30 7496 H 678.583 -4.06073 1.526 0
M  V30 7497 H 679.254 -5.47451 0.707187 0
M  V30 7498 H 681.73 -4.10948 -0.652788 0
M  V30 7499 H 680.606 -5.33358 -1.29693 0
M  V30 7500 H 680.867 -3.84204 -2.18724 0
M  V30 7501 N 679.926 -0.151884 -1.56866 0
M  V30 7502 C 681.154 0.504813 -2.00647 0
M  V30 7503 C 681.569 1.58098 -1.03201 0
M  V30 7504 O 680.926 1.82476 -0.0297814 0
M  V30 7505 C 680.977 1.10099 -3.44326 0
M  V30 7506 O 680.698 0.0678021 -4.38048 0
M  V30 7507 C 682.199 1.83782 -4.03409 0
M  V30 7508 H 679.419 0.130989 -0.65809 0
M  V30 7509 H 681.963 -0.247903 -2.02992 0
M  V30 7510 H 680.118 1.8043 -3.42817 0
M  V30 7511 H 680.532 0.505237 -5.22061 0
M  V30 7512 H 682.006 2.2078 -5.05925 0
M  V30 7513 H 682.483 2.72557 -3.44397 0
M  V30 7514 H 683.089 1.18138 -4.08563 0
M  V30 7515 N 681.404 1.57128 0.121893 0
M  V30 7516 C 682.314 2.03425 1.16857 0
M  V30 7517 C 683.33 0.954108 1.45509 0
M  V30 7518 O 684.506 1.26541 1.56682 0
M  V30 7519 C 681.571 2.42685 2.47599 0
M  V30 7520 C 680.632 3.64767 2.2637 0
M  V30 7521 C 679.865 4.02145 3.50878 0
M  V30 7522 O 680.088 3.39897 4.58068 0
M  V30 7523 O 679.022 4.95262 3.42051 0
M  V30 7524 H 682.848 2.92825 0.80544 0
M  V30 7525 H 680.433 1.45654 0.332477 0
M  V30 7526 H 682.315 2.68684 3.24634 0
M  V30 7527 H 680.99 1.56432 2.83392 0
M  V30 7528 H 679.897 3.43922 1.47203 0
M  V30 7529 H 681.23 4.51716 1.95482 0
M  V30 7530 N 682.882 -0.391992 1.52647 0
M  V30 7531 C 684.293 -0.970064 1.5952 0
M  V30 7532 C 684.644 -1.91059 0.446207 0
M  V30 7533 O 683.769 -2.12062 -0.431125 0
M  V30 7534 C 684.364 -1.76614 2.89125 0
M  V30 7535 C 682.923 -2.29396 2.9842 0
M  V30 7536 C 682.07 -1.09864 2.54608 0
M  V30 7537 H 685.021 -0.171638 1.57769 0
M  V30 7538 H 685.042 -2.62511 2.75442 0
M  V30 7539 H 684.554 -1.08135 3.72731 0
M  V30 7540 H 682.655 -3.01196 2.19344 0
M  V30 7541 H 682.768 -2.59088 4.03002 0
M  V30 7542 H 681.132 -1.45777 2.08857 0
M  V30 7543 H 681.915 -0.429249 3.40606 0
M  V30 7544 N 684.36 -1.4356 -0.65026 0
M  V30 7545 C 685.292 -1.44918 -1.77571 0
M  V30 7546 C 686.305 -0.344925 -1.59104 0
M  V30 7547 O 687.494 -0.609537 -1.6777 0
M  V30 7548 C 684.594 -1.24914 -3.15039 0
M  V30 7549 C 683.767 -2.48232 -3.60138 0
M  V30 7550 C 682.826 -2.23409 -4.76419 0
M  V30 7551 O 681.852 -2.9678 -4.85706 0
M  V30 7552 N 683.054 -1.25259 -5.66825 0
M  V30 7553 H 685.819 -2.41935 -1.76883 0
M  V30 7554 H 683.38 -1.38754 -0.834202 0
M  V30 7555 H 685.372 -1.06185 -3.90521 0
M  V30 7556 H 683.942 -0.363319 -3.10481 0
M  V30 7557 H 683.162 -2.82366 -2.75069 0
M  V30 7558 H 684.45 -3.30296 -3.87017 0
M  V30 7559 H 683.848 -0.646246 -5.61997 0
M  V30 7560 H 682.405 -1.12513 -6.42016 0
M  V30 7561 N 685.838 0.888903 -1.30139 0
M  V30 7562 C 687.087 1.63507 -1.18103 0
M  V30 7563 C 687.4 1.93808 0.264141 0
M  V30 7564 O 688.606 2.66744 0.505966 0
M  V30 7565 C 687.062 2.94673 -2.0663 0
M  V30 7566 C 686.67 2.71926 -3.56034 0
M  V30 7567 C 688.414 3.72626 -2.03346 0
M  V30 7568 C 686.321 3.98884 -4.3663 0
M  V30 7569 H 685.251 0.613426 -0.438435 0
M  V30 7570 H 687.902 0.984427 -1.54859 0
M  V30 7571 H 686.284 3.61009 -1.62754 0
M  V30 7572 H 687.458 2.14116 -4.08033 0
M  V30 7573 H 685.773 2.07353 -3.61101 0
M  V30 7574 H 688.37 4.66775 -2.60816 0
M  V30 7575 H 688.713 4.03712 -1.016 0
M  V30 7576 H 689.246 3.13147 -2.45324 0
M  V30 7577 H 685.985 3.72959 -5.39056 0
M  V30 7578 H 685.505 4.56214 -3.89396 0
M  V30 7579 H 687.184 4.66938 -4.47859 0
M  V30 7580 N 687.317 1.12792 1.10072 0
M  V30 7581 C 688.547 0.907189 1.85617 0
M  V30 7582 C 688.955 -0.547181 1.81115 0
M  V30 7583 O 688.298 -1.39024 1.20075 0
M  V30 7584 C 688.36 1.30872 3.34832 0
M  V30 7585 C 688.024 2.77516 3.6309 0
M  V30 7586 C 689.021 3.75696 3.59373 0
M  V30 7587 C 686.706 3.14513 3.91646 0
M  V30 7588 C 688.7 5.08888 3.83812 0
M  V30 7589 C 686.387 4.47886 4.15742 0
M  V30 7590 C 687.385 5.44882 4.11816 0
M  V30 7591 O 687.073 6.7585 4.35295 0
M  V30 7592 H 686.805 0.323855 0.593375 0
M  V30 7593 H 689.359 1.50262 1.40038 0
M  V30 7594 H 687.589 0.656518 3.81086 0
M  V30 7595 H 689.278 1.06153 3.91773 0
M  V30 7596 H 690.044 3.48458 3.37345 0
M  V30 7597 H 685.923 2.39622 3.93831 0
M  V30 7598 H 689.467 5.84586 3.80663 0
M  V30 7599 H 685.364 4.74851 4.37249 0
M  V30 7600 H 686.132 6.81853 4.52791 0
M  V30 7601 N 688.795 -1.27931 0.920396 0
M  V30 7602 C 690.042 -1.94689 0.557007 0
M  V30 7603 C 690.37 -1.724 -0.900476 0
M  V30 7604 O 689.625 -1.04194 -1.65657 0
M  V30 7605 C 689.924 -3.47853 0.820558 0
M  V30 7606 C 689.59 -3.90252 2.25863 0
M  V30 7607 C 688.252 -4.01539 2.65179 0
M  V30 7608 C 690.604 -4.11853 3.19415 0
M  V30 7609 C 687.932 -4.3181 3.97187 0
M  V30 7610 C 690.284 -4.43606 4.50995 0
M  V30 7611 C 688.948 -4.53105 4.90155 0
M  V30 7612 H 688.218 -0.712416 0.203823 0
M  V30 7613 H 690.865 -1.52142 1.16298 0
M  V30 7614 H 689.17 -3.91578 0.131844 0
M  V30 7615 H 690.867 -3.97634 0.51847 0
M  V30 7616 H 687.457 -3.81999 1.94358 0
M  V30 7617 H 691.641 -4.0258 2.90246 0
M  V30 7618 H 686.897 -4.37371 4.2722 0
M  V30 7619 H 691.071 -4.59268 5.23494 0
M  V30 7620 H 688.698 -4.76315 5.92476 0
M  V30 7621 N 690.273 -0.685099 -1.4193 0
M  V30 7622 C 691.55 -0.140152 -1.95097 0
M  V30 7623 C 691.93 1.34745 -1.62502 0
M  V30 7624 O 691.278 2.08872 -0.926534 0
M  V30 7625 C 691.488 -0.420268 -3.4646 0
M  V30 7626 C 692.836 -0.342338 -4.23218 0
M  V30 7627 O 693.86 -0.354592 -3.54431 0
M  V30 7628 O 692.719 -0.293404 -5.45712 0
M  V30 7629 H 689.813 -0.00885998 -0.826953 0
M  V30 7630 H 692.359 -0.760539 -1.51703 0
M  V30 7631 H 691.131 -1.45037 -3.63428 0
M  V30 7632 H 690.754 0.231616 -3.96925 0
M  V30 7633 N 691.751 1.51645 -0.429126 0
M  V30 7634 C 693 2.01203 0.141538 0
M  V30 7635 C 693.313 1.31828 1.44502 0
M  V30 7636 O 694.519 1.7231 2.09813 0
M  V30 7637 C 692.975 3.58624 0.302786 0
M  V30 7638 C 692.583 4.3693 -0.989775 0
M  V30 7639 C 694.327 4.16353 0.827661 0
M  V30 7640 C 692.234 5.86037 -0.794619 0
M  V30 7641 H 691.164 0.751867 0.05667 0
M  V30 7642 H 693.815 1.74822 -0.557633 0
M  V30 7643 H 692.197 3.81417 1.06476 0
M  V30 7644 H 693.371 4.25887 -1.75945 0
M  V30 7645 H 691.686 3.90614 -1.44256 0
M  V30 7646 H 694.283 5.25455 0.990026 0
M  V30 7647 H 694.626 3.74995 1.80787 0
M  V30 7648 H 695.159 3.97606 0.124213 0
M  V30 7649 H 691.898 6.31792 -1.74697 0
M  V30 7650 H 691.418 5.99765 -0.0645968 0
M  V30 7651 H 693.097 6.45471 -0.444591 0
M  V30 7652 N 693.229 0.160201 1.56784 0
M  V30 7653 C 694.475 -0.481855 1.9761 0
M  V30 7654 C 694.83 -1.61605 1.04411 0
M  V30 7655 O 694.123 -1.91426 0.0816402 0
M  V30 7656 C 694.317 -1.02259 3.42459 0
M  V30 7657 C 694.146 0.0576781 4.49663 0
M  V30 7658 C 692.916 0.503585 5.02784 0
M  V30 7659 C 695.114 0.854013 5.0716 0
M  V30 7660 N 693.096 1.56532 5.93608 0
M  V30 7661 C 694.467 1.76593 5.94319 0
M  V30 7662 C 696.522 0.900333 4.89692 0
M  V30 7663 C 695.225 2.72023 6.6588 0
M  V30 7664 C 697.251 1.84252 5.61965 0
M  V30 7665 C 696.613 2.74194 6.48843 0
M  V30 7666 H 692.712 -0.144748 0.768487 0
M  V30 7667 H 695.296 0.257853 1.92985 0
M  V30 7668 H 693.467 -1.73186 3.47651 0
M  V30 7669 H 695.199 -1.63235 3.70319 0
M  V30 7670 H 691.954 0.103361 4.73487 0
M  V30 7671 H 692.378 2.09634 6.43726 0
M  V30 7672 H 697.02 0.219023 4.22232 0
M  V30 7673 H 694.738 3.41147 7.3256 0
M  V30 7674 H 698.324 1.88433 5.5044 0
M  V30 7675 H 697.204 3.45912 7.03786 0
M  V30 7676 N 694.707 -1.5719 -0.113559 0
M  V30 7677 C 695.953 -1.85412 -0.821597 0
M  V30 7678 C 696.286 -0.746722 -1.7927 0
M  V30 7679 O 695.561 0.246971 -1.92926 0
M  V30 7680 C 695.844 -3.24233 -1.56669 0
M  V30 7681 C 695.697 -4.45578 -0.614823 0
M  V30 7682 C 697.016 -3.60697 -2.52161 0
M  V30 7683 H 694.135 -0.674406 -0.29723 0
M  V30 7684 H 696.777 -1.89807 -0.085694 0
M  V30 7685 H 694.927 -3.20617 -2.19401 0
M  V30 7686 H 696.599 -4.613 0.00407137 0
M  V30 7687 H 694.842 -4.33738 0.0732332 0
M  V30 7688 H 695.513 -5.39395 -1.17292 0
M  V30 7689 H 697.989 -3.65139 -1.99532 0
M  V30 7690 H 696.865 -4.58798 -3.01323 0
M  V30 7691 H 697.126 -2.88403 -3.35076 0
M  V30 7692 N 696.185 0.383891 -1.52853 0
M  V30 7693 C 697.41 1.154 -1.7233 0
M  V30 7694 C 697.835 1.82809 -0.44298 0
M  V30 7695 O 697.193 1.71026 0.601645 0
M  V30 7696 C 697.241 2.17386 -2.87708 0
M  V30 7697 O 696.345 3.24082 -2.55038 0
M  V30 7698 H 695.686 0.335709 -0.572883 0
M  V30 7699 H 698.216 0.44662 -1.99666 0
M  V30 7700 H 698.226 2.61296 -3.1335 0
M  V30 7701 H 696.901 1.6771 -3.80587 0
M  V30 7702 H 695.478 2.85273 -2.40153 0
M  V30 7703 N 697.663 1.43903 0.642637 0
M  V30 7704 C 698.912 1.45362 1.39831 0
M  V30 7705 C 699.225 0.0856289 1.95412 0
M  V30 7706 O 700.431 -0.0222856 2.71491 0
M  V30 7707 C 698.887 2.55857 2.53111 0
M  V30 7708 C 698.495 3.98811 2.04092 0
M  V30 7709 C 700.239 2.66524 3.30402 0
M  V30 7710 C 698.146 5.00751 3.14647 0
M  V30 7711 H 697.076 0.540777 0.52543 0
M  V30 7712 H 699.727 1.69929 0.692559 0
M  V30 7713 H 698.109 2.2451 3.26207 0
M  V30 7714 H 699.283 4.3967 1.37938 0
M  V30 7715 H 697.598 3.92284 1.39651 0
M  V30 7716 H 700.195 3.39858 4.12796 0
M  V30 7717 H 700.538 1.71949 3.79129 0
M  V30 7718 H 701.071 2.97224 2.64392 0
M  V30 7719 H 697.81 5.96914 2.70876 0
M  V30 7720 H 697.33 4.64495 3.79479 0
M  V30 7721 H 699.009 5.23933 3.79609 0
M  V30 7722 N 699.141 -0.881989 1.30609 0
M  V30 7723 C 700.089 -2.00942 1.17155 0
M  V30 7724 C 701.083 -1.69198 0.0827154 0
M  V30 7725 O 702.289 -1.78342 0.243775 0
M  V30 7726 H 698.664 -0.658913 0.362406 0
M  V30 7727 H 700.635 -2.09423 2.12567 0
M  V30 7728 C 699.384 -3.36294 0.883273 0
M  V30 7729 H 698.707 -3.61233 1.7132 0
M  V30 7730 H 700.147 -4.15812 0.829255 0
M  V30 7731 C 698.606 -3.34348 -0.413851 0
M  V30 7732 O 699.136 -3.75216 -1.43444 0
M  V30 7733 N 697.342 -2.87459 -0.426082 0
M  V30 7734 H 696.889 -2.54397 0.40493 0
M  V30 7735 H 696.847 -2.8654 -1.29391 0
M  V30 7736 N 700.619 -1.13374 -1.09472 0
M  V30 7737 C 701.896 -0.806329 -1.78207 0
M  V30 7738 C 702.276 0.702191 -1.99079 0
M  V30 7739 O 701.624 1.63931 -1.59182 0
M  V30 7740 C 701.834 -1.59271 -3.10538 0
M  V30 7741 C 703.182 -1.78509 -3.85253 0
M  V30 7742 O 704.206 -1.55866 -3.20288 0
M  V30 7743 O 703.065 -2.16287 -5.01879 0
M  V30 7744 H 700.159 -0.29435 -0.772843 0
M  V30 7745 H 702.705 -1.23833 -1.16033 0
M  V30 7746 H 701.477 -2.61792 -2.90828 0
M  V30 7747 H 701.1 -1.15562 -3.80436 0
M  V30 7748 N 702.098 1.27442 -0.927168 0
M  V30 7749 C 703.514 1.46754 -0.627329 0
M  V30 7750 C 703.714 1.83902 0.823549 0
M  V30 7751 O 702.77 1.95215 1.60148 0
M  V30 7752 C 704.083 2.56045 -1.57674 0
M  V30 7753 C 705.631 2.69906 -1.58491 0
M  V30 7754 C 706.106 3.82355 -2.52128 0
M  V30 7755 N 707.597 3.89728 -2.50332 0
M  V30 7756 C 708.332 4.76155 -3.19475 0
M  V30 7757 N 707.828 5.67073 -3.97995 0
M  V30 7758 N 709.621 4.6988 -3.08496 0
M  V30 7759 H 701.772 1.01613 -1.86517 0
M  V30 7760 H 704.035 0.507443 -0.800753 0
M  V30 7761 H 703.741 2.35542 -2.61176 0
M  V30 7762 H 703.615 3.53423 -1.31804 0
M  V30 7763 H 706.002 2.89792 -0.557208 0
M  V30 7764 H 706.083 1.73018 -1.8841 0
M  V30 7765 H 705.727 3.63224 -3.55008 0
M  V30 7766 H 705.657 4.7867 -2.19505 0
M  V30 7767 H 708.148 3.24717 -1.93306 0
M  V30 7768 H 708.461 6.2988 -4.4774 0
M  V30 7769 H 706.806 5.6687 -4.02098 0
M  V30 7770 H 709.997 3.97848 -2.46646 0
M  V30 7771 H 710.17 5.37017 -3.62652 0
M  V30 7772 N 703.576 0.692616 1.41565 0
M  V30 7773 C 704.823 0.222335 2.01276 0
M  V30 7774 C 705.151 -1.17706 1.5484 0
M  V30 7775 O 704.406 -1.80795 0.749118 0
M  V30 7776 C 704.705 0.225073 3.56691 0
M  V30 7777 C 704.371 1.57158 4.22625 0
M  V30 7778 C 703.033 1.94022 4.40351 0
M  V30 7779 C 705.385 2.45758 4.59622 0
M  V30 7780 C 702.713 3.19076 4.92349 0
M  V30 7781 C 705.065 3.70141 5.13009 0
M  V30 7782 C 703.729 4.07152 5.28946 0
M  V30 7783 H 702.999 0.0813581 0.73652 0
M  V30 7784 H 705.646 0.891123 1.69503 0
M  V30 7785 H 703.951 -0.527259 3.88236 0
M  V30 7786 H 705.648 -0.156283 4.00695 0
M  V30 7787 H 702.238 1.27486 4.09201 0
M  V30 7788 H 706.422 2.18558 4.45585 0
M  V30 7789 H 701.678 3.4775 5.02872 0
M  V30 7790 H 705.852 4.38983 5.40617 0
M  V30 7791 H 703.479 5.04125 5.69001 0
M  V30 7792 N 705.054 -1.51416 0.437162 0
M  V30 7793 C 705.986 -2.255 -0.410171 0
M  V30 7794 C 706.999 -1.29511 -0.986444 0
M  V30 7795 O 708.188 -1.55266 -0.880614 0
M  V30 7796 C 705.288 -2.99511 -1.58575 0
M  V30 7797 C 704.461 -4.22595 -1.12839 0
M  V30 7798 C 703.52 -4.79187 -2.17407 0
M  V30 7799 O 702.546 -5.4103 -1.76849 0
M  V30 7800 N 703.748 -4.63204 -3.49889 0
M  V30 7801 H 706.513 -2.98856 0.224783 0
M  V30 7802 H 704.074 -1.59699 0.266041 0
M  V30 7803 H 706.066 -3.34258 -2.28152 0
M  V30 7804 H 704.636 -2.29167 -2.12606 0
M  V30 7805 H 703.856 -3.93344 -0.259695 0
M  V30 7806 H 705.144 -5.02468 -0.800196 0
M  V30 7807 H 704.542 -4.13945 -3.85573 0
M  V30 7808 H 703.099 -5.02313 -4.15361 0
M  V30 7809 N 706.532 -0.168513 -1.56696 0
M  V30 7810 C 707.464 0.794249 -2.14998 0
M  V30 7811 C 708.477 1.1957 -1.10485 0
M  V30 7812 O 709.666 1.13604 -1.37682 0
M  V30 7813 C 706.766 2.08018 -2.67547 0
M  V30 7814 C 705.939 1.84274 -3.96689 0
M  V30 7815 C 704.998 2.97059 -4.3433 0
M  V30 7816 O 704.024 2.67815 -5.02259 0
M  V30 7817 N 705.226 4.24775 -3.9566 0
M  V30 7818 H 707.991 0.295832 -2.98236 0
M  V30 7819 H 705.552 0.0143611 -1.61894 0
M  V30 7820 H 707.544 2.82559 -2.89729 0
M  V30 7821 H 706.114 2.49059 -1.88914 0
M  V30 7822 H 705.334 0.936528 -3.82914 0
M  V30 7823 H 706.622 1.65773 -4.81037 0
M  V30 7824 H 706.02 4.51395 -3.40968 0
M  V30 7825 H 704.577 4.96027 -4.22848 0
M  V30 7826 N 708.01 1.57248 0.105221 0
M  V30 7827 C 709.426 1.52853 0.459153 0
M  V30 7828 C 709.626 0.883674 1.8109 0
M  V30 7829 O 708.682 0.471864 2.48052 0
M  V30 7830 C 709.995 2.97596 0.43096 0
M  V30 7831 C 711.543 3.08758 0.513536 0
M  V30 7832 C 712.018 4.55089 0.515593 0
M  V30 7833 N 713.509 4.59597 0.576639 0
M  V30 7834 C 714.244 5.70253 0.599904 0
M  V30 7835 N 713.74 6.90368 0.579985 0
M  V30 7836 N 715.533 5.58399 0.643953 0
M  V30 7837 H 707.684 1.97547 -0.780306 0
M  V30 7838 H 709.947 0.902758 -0.289363 0
M  V30 7839 H 709.653 3.48201 -0.494903 0
M  V30 7840 H 709.527 3.55756 1.2537 0
M  V30 7841 H 711.914 2.58148 1.42982 0
M  V30 7842 H 711.995 2.53568 -0.337148 0
M  V30 7843 H 711.639 5.06348 -0.396701 0
M  V30 7844 H 711.569 5.08105 1.38335 0
M  V30 7845 H 714.06 3.73144 0.597639 0
M  V30 7846 H 714.373 7.70462 0.600741 0
M  V30 7847 H 712.718 6.92843 0.547191 0
M  V30 7848 H 715.909 4.63467 0.656975 0
M  V30 7849 H 716.082 6.44644 0.658616 0
M  V30 7850 N 709.488 -0.375779 1.53054 0
M  V30 7851 C 710.737 -1.11674 1.67964 0
M  V30 7852 C 711.05 -1.90755 0.432655 0
M  V30 7853 O 712.256 -2.67538 0.462109 0
M  V30 7854 C 710.712 -2.0344 2.96884 0
M  V30 7855 C 710.32 -1.29719 4.28809 0
M  V30 7856 C 712.064 -2.7759 3.2116 0
M  V30 7857 C 709.971 -2.20327 5.48826 0
M  V30 7858 H 708.901 -0.420597 0.625791 0
M  V30 7859 H 711.552 -0.378499 1.79554 0
M  V30 7860 H 709.934 -2.80953 2.79072 0
M  V30 7861 H 711.108 -0.573394 4.57219 0
M  V30 7862 H 709.423 -0.674735 4.10897 0
M  V30 7863 H 712.02 -3.4559 4.0801 0
M  V30 7864 H 712.363 -3.42399 2.36789 0
M  V30 7865 H 712.896 -2.07164 3.396 0
M  V30 7866 H 709.635 -1.60113 6.35645 0
M  V30 7867 H 709.155 -2.90585 5.2471 0
M  V30 7868 H 710.834 -2.80116 5.83219 0
M  V30 7869 N 710.966 -1.44241 -0.634997 0
M  V30 7870 C 712.213 -1.46821 -1.39463 0
M  V30 7871 C 712.541 -0.0993362 -1.94246 0
M  V30 7872 O 711.796 0.898325 -1.73864 0
M  V30 7873 C 712.095 -2.47279 -2.58046 0
M  V30 7874 C 711.761 -3.92703 -2.21574 0
M  V30 7875 C 710.423 -4.32306 -2.1134 0
M  V30 7876 C 712.775 -4.84271 -1.92695 0
M  V30 7877 C 710.103 -5.61407 -1.70409 0
M  V30 7878 C 712.455 -6.13755 -1.53258 0
M  V30 7879 C 711.119 -6.52316 -1.41562 0
M  V30 7880 H 710.389 -0.537256 -0.51033 0
M  V30 7881 H 713.036 -1.77431 -0.720441 0
M  V30 7882 H 711.341 -2.10138 -3.3068 0
M  V30 7883 H 713.038 -2.46523 -3.16271 0
M  V30 7884 H 709.628 -3.61369 -2.30456 0
M  V30 7885 H 713.812 -4.54432 -1.99513 0
M  V30 7886 H 709.068 -5.90105 -1.59955 0
M  V30 7887 H 713.242 -6.84168 -1.29949 0
M  V30 7888 H 710.869 -7.52255 -1.09619 0
M  V30 7889 N 712.444 0.87505 -1.31075 0
M  V30 7890 C 713.721 1.60976 -1.11113 0
M  V30 7891 C 714.101 2.08409 0.336006 0
M  V30 7892 O 713.449 1.85858 1.32924 0
M  V30 7893 C 713.659 2.77166 -2.12085 0
M  V30 7894 C 715.007 3.47254 -2.44335 0
M  V30 7895 O 716.031 2.87367 -2.10472 0
M  V30 7896 O 714.89 4.55276 -3.02301 0
M  V30 7897 H 711.984 0.707982 -0.427424 0
M  V30 7898 H 714.53 0.920957 -1.42536 0
M  V30 7899 H 713.302 2.39494 -3.09449 0
M  V30 7900 H 712.925 3.53737 -1.81538 0
M  V30 7901 N 713.922 1.13953 1.08869 0
M  V30 7902 C 715.333 0.916649 1.62648 0
M  V30 7903 C 715.684 -0.545589 1.88462 0
M  V30 7904 O 714.809 -1.41351 1.63856 0
M  V30 7905 C 715.404 1.65751 2.95486 0
M  V30 7906 C 713.963 1.48034 3.46068 0
M  V30 7907 C 713.11 1.68305 2.20383 0
M  V30 7908 H 716.061 1.292 0.921572 0
M  V30 7909 H 716.082 1.11794 3.63707 0
M  V30 7910 H 715.594 2.72171 2.76667 0
M  V30 7911 H 713.695 0.439416 3.7 0
M  V30 7912 H 713.808 2.24719 4.23129 0
M  V30 7913 H 712.172 1.10833 2.29321 0
M  V30 7914 H 712.955 2.76057 2.04077 0
M  V30 7915 N 715.4 -1.26948 0.933913 0
M  V30 7916 C 716.816 -1.46419 0.635103 0
M  V30 7917 C 717.016 -1.84336 -0.813785 0
M  V30 7918 O 716.072 -1.96061 -1.59111 0
M  V30 7919 C 717.385 -2.55206 1.5903 0
M  V30 7920 C 718.933 -2.69062 1.5992 0
M  V30 7921 C 719.408 -3.81013 2.54152 0
M  V30 7922 N 720.899 -3.88395 2.52395 0
M  V30 7923 C 721.634 -4.74454 3.21996 0
M  V30 7924 N 721.13 -5.64954 4.00997 0
M  V30 7925 N 722.923 -4.68237 3.10983 0
M  V30 7926 H 715.074 -1.00622 1.87053 0
M  V30 7927 H 717.337 -0.503189 0.803433 0
M  V30 7928 H 717.043 -2.34153 2.62422 0
M  V30 7929 H 716.917 -3.52719 1.33677 0
M  V30 7930 H 719.304 -2.89492 0.572569 0
M  V30 7931 H 719.385 -1.72016 1.89325 0
M  V30 7932 H 719.029 -3.61336 3.5693 0
M  V30 7933 H 718.959 -4.77499 2.22041 0
M  V30 7934 H 721.45 -3.23687 1.95025 0
M  V30 7935 H 721.763 -6.27496 4.51074 0
M  V30 7936 H 720.108 -5.6473 4.05099 0
M  V30 7937 H 723.299 -3.96535 2.48753 0
M  V30 7938 H 723.472 -5.35087 3.65494 0
M  V30 7939 N 716.879 -0.700114 -1.41195 0
M  V30 7940 C 718.125 -0.233351 -2.01453 0
M  V30 7941 C 718.458 1.16548 -1.55339 0
M  V30 7942 O 717.733 1.78756 -0.766575 0
M  V30 7943 C 718.016 -0.2961 -3.58881 0
M  V30 7944 C 717.869 -1.7322 -4.15108 0
M  V30 7945 C 719.188 0.341525 -4.38773 0
M  V30 7946 H 716.307 -0.0862667 -0.731934 0
M  V30 7947 H 718.949 -0.889693 -1.67882 0
M  V30 7948 H 717.099 0.262736 -3.87611 0
M  V30 7949 H 718.771 -2.34523 -3.97236 0
M  V30 7950 H 717.014 -2.2649 -3.69979 0
M  V30 7951 H 717.685 -1.7276 -5.24269 0
M  V30 7952 H 720.161 -0.134461 -4.15883 0
M  V30 7953 H 719.037 0.267098 -5.4825 0
M  V30 7954 H 719.298 1.42289 -4.18577 0
M  V30 7955 N 718.357 1.51182 -0.445186 0
M  V30 7956 C 719.634 1.9478 0.178965 0
M  V30 7957 C 720.014 1.38428 1.59376 0
M  V30 7958 O 719.362 0.574552 2.21159 0
M  V30 7959 C 719.572 3.48683 0.148711 0
M  V30 7960 C 720.92 4.23152 0.35042 0
M  V30 7961 O 721.944 3.55479 0.226474 0
M  V30 7962 O 720.803 5.4322 0.597893 0
M  V30 7963 H 717.897 0.817387 0.12573 0
M  V30 7964 H 720.443 1.62051 -0.503729 0
M  V30 7965 H 719.215 3.82176 -0.84009 0
M  V30 7966 H 718.838 3.87875 0.873979 0
M  V30 7967 N 719.835 0.176821 1.56605 0
M  V30 7968 C 721.084 -0.466833 1.96223 0
M  V30 7969 C 721.397 -1.64015 1.06576 0
M  V30 7970 O 722.603 -2.3504 1.35898 0
M  V30 7971 C 721.059 -0.881921 3.48927 0
M  V30 7972 C 720.667 0.266102 4.47209 0
M  V30 7973 C 722.411 -1.49368 3.97353 0
M  V30 7974 C 720.318 -0.168923 5.91159 0
M  V30 7975 H 719.248 -0.178178 0.732645 0
M  V30 7976 H 721.899 0.265929 1.81563 0
M  V30 7977 H 720.281 -1.67082 3.59026 0
M  V30 7978 H 721.455 1.04349 4.4883 0
M  V30 7979 H 719.77 0.788178 4.08872 0
M  V30 7980 H 722.367 -1.8313 5.02362 0
M  V30 7981 H 722.71 -2.3936 3.40606 0
M  V30 7982 H 723.243 -0.769114 3.90294 0
M  V30 7983 H 719.982 0.696351 6.51791 0
M  V30 7984 H 719.502 -0.911552 5.92833 0
M  V30 7985 H 721.181 -0.610938 6.44109 0
M  V30 7986 N 721.313 -1.57302 -0.09688 0
M  V30 7987 C 722.559 -1.86273 -0.801885 0
M  V30 7988 C 722.892 -0.765694 -1.78468 0
M  V30 7989 O 722.167 0.226495 -1.93177 0
M  V30 7990 C 722.45 -3.25876 -1.53221 0
M  V30 7991 C 722.303 -4.46205 -0.567529 0
M  V30 7992 C 723.622 -3.63352 -2.48321 0
M  V30 7993 H 720.741 -0.67752 -0.29006 0
M  V30 7994 H 723.383 -1.89887 -0.0655577 0
M  V30 7995 H 721.533 -3.22926 -2.15988 0
M  V30 7996 H 723.205 -4.6127 0.0529982 0
M  V30 7997 H 721.448 -4.33636 0.119233 0
M  V30 7998 H 722.119 -5.40608 -1.11564 0
M  V30 7999 H 724.595 -3.67234 -1.95648 0
M  V30 8000 H 723.471 -4.61968 -2.9644 0
M  V30 8001 H 723.732 -2.91941 -3.31998 0
M  V30 8002 N 722.791 0.367657 -1.53252 0
M  V30 8003 C 723.723 1.47032 -1.75824 0
M  V30 8004 C 724.736 1.49736 -0.63898 0
M  V30 8005 O 725.925 1.53253 -0.915193 0
M  V30 8006 C 723.025 2.85805 -1.82122 0
M  V30 8007 C 722.198 3.06822 -3.11736 0
M  V30 8008 C 721.257 4.25698 -3.09302 0
M  V30 8009 O 720.283 4.20972 -3.83107 0
M  V30 8010 N 721.485 5.33002 -2.29977 0
M  V30 8011 H 724.25 1.28048 -2.70968 0
M  V30 8012 H 721.811 0.557363 -1.52004 0
M  V30 8013 H 723.803 3.63465 -1.77975 0
M  V30 8014 H 722.373 2.98046 -0.942716 0
M  V30 8015 H 721.593 2.1684 -3.29202 0
M  V30 8016 H 722.881 3.17731 -3.97397 0
M  V30 8017 H 722.279 5.39703 -1.69521 0
M  V30 8018 H 720.836 6.09247 -2.3165 0
M  V30 8019 N 724.269 1.44576 0.627338 0
M  V30 8020 C 725.232 1.51372 1.72102 0
M  V30 8021 C 726.232 0.395329 1.55865 0
M  V30 8022 O 727.422 0.658094 1.61291 0
M  V30 8023 C 724.554 1.39129 3.11217 0
M  V30 8024 H 725.747 2.48798 1.6745 0
M  V30 8025 H 723.3 1.31724 0.841336 0
M  V30 8026 H 724.035 0.428114 3.21462 0
M  V30 8027 H 723.82 2.20229 3.24409 0
M  V30 8028 H 725.31 1.46874 3.90919 0
M  V30 8029 N 725.747 -0.868086 1.31537 0
M  V30 8030 C 726.71 -1.95703 1.19302 0
M  V30 8031 C 727.71 -1.60355 0.119612 0
M  V30 8032 O 728.9 -1.70247 0.36902 0
M  V30 8033 C 726.032 -3.30599 0.831684 0
M  V30 8034 H 727.225 -2.07982 2.16064 0
M  V30 8035 H 724.778 -1.05661 1.15176 0
M  V30 8036 H 725.513 -3.2402 -0.134694 0
M  V30 8037 H 725.298 -3.57629 1.60761 0
M  V30 8038 H 726.788 -4.10439 0.770026 0
M  V30 8039 N 727.225 -1.14528 -1.08264 0
M  V30 8040 C 728.471 -0.925721 -1.81113 0
M  V30 8041 C 728.826 0.54185 -1.84612 0
M  V30 8042 O 728.119 1.39628 -1.31205 0
M  V30 8043 C 728.313 -1.46226 -3.26117 0
M  V30 8044 C 728.142 -2.98047 -3.36746 0
M  V30 8045 C 726.912 -3.66508 -3.4785 0
M  V30 8046 C 729.11 -3.95903 -3.28277 0
M  V30 8047 N 727.092 -5.06227 -3.47285 0
M  V30 8048 C 728.463 -5.21883 -3.34721 0
M  V30 8049 C 730.518 -3.88002 -3.12024 0
M  V30 8050 C 729.221 -6.40886 -3.26585 0
M  V30 8051 C 731.247 -5.06553 -3.05219 0
M  V30 8052 C 730.609 -6.31403 -3.12266 0
M  V30 8053 H 726.708 -0.392294 -0.676483 0
M  V30 8054 H 729.292 -1.45567 -1.293 0
M  V30 8055 H 727.463 -0.959076 -3.76373 0
M  V30 8056 H 729.195 -1.18247 -3.8704 0
M  V30 8057 H 725.95 -3.17067 -3.51804 0
M  V30 8058 H 726.374 -5.79172 -3.50555 0
M  V30 8059 H 731.016 -2.9235 -3.05436 0
M  V30 8060 H 728.734 -7.36781 -3.31934 0
M  V30 8061 H 732.32 -5.02191 -2.93761 0
M  V30 8062 H 731.2 -7.21596 -3.07032 0
M  V30 8063 N 728.703 1.26451 -0.940633 0
M  V30 8064 C 729.928 1.98407 -0.60412 0
M  V30 8065 C 730.353 1.69584 0.81382 0
M  V30 8066 O 729.711 0.943553 1.54812 0
M  V30 8067 C 729.759 3.50387 -0.852136 0
M  V30 8068 O 728.863 4.1233 0.076013 0
M  V30 8069 H 728.204 0.622466 -0.231153 0
M  V30 8070 H 730.734 1.60932 -1.26342 0
M  V30 8071 H 730.744 4.00614 -0.772816 0
M  V30 8072 H 729.419 3.70696 -1.88566 0
M  V30 8073 H 727.996 3.7286 -0.0543187 0
M  V30 8074 N 730.181 0.707592 1.40822 0
M  V30 8075 C 731.592 0.317011 1.83989 0
M  V30 8076 C 731.943 -1.14697 1.59182 0
M  V30 8077 O 731.068 -1.8818 1.06852 0
M  V30 8078 C 731.663 0.568593 3.33995 0
M  V30 8079 C 730.222 0.231804 3.75686 0
M  V30 8080 C 729.369 0.844933 2.64114 0
M  V30 8081 H 732.32 0.907349 1.30203 0
M  V30 8082 H 732.341 -0.168798 3.80125 0
M  V30 8083 H 731.853 1.63417 3.52018 0
M  V30 8084 H 729.954 -0.82903 3.6326 0
M  V30 8085 H 730.067 0.695219 4.74029 0
M  V30 8086 H 728.431 0.273588 2.53226 0
M  V30 8087 H 729.214 1.91462 2.84951 0
M  V30 8088 N 731.66 -1.50943 0.453197 0
M  V30 8089 C 732.907 -2.02212 -0.107922 0
M  V30 8090 C 733.235 -1.33639 -1.41318 0
M  V30 8091 O 732.49 -0.445154 -1.9057 0
M  V30 8092 C 732.789 -3.55603 -0.357944 0
M  V30 8093 C 732.455 -4.42556 0.863427 0
M  V30 8094 C 731.117 -4.6604 1.19834 0
M  V30 8095 C 733.469 -4.93468 1.67747 0
M  V30 8096 C 730.797 -5.37681 2.34768 0
M  V30 8097 C 733.149 -5.6637 2.81793 0
M  V30 8098 C 731.813 -5.88113 3.1572 0
M  V30 8099 H 731.083 -0.739947 -0.0394916 0
M  V30 8100 H 733.73 -1.81738 0.60363 0
M  V30 8101 H 732.035 -3.74495 -1.15156 0
M  V30 8102 H 733.732 -3.92821 -0.805781 0
M  V30 8103 H 730.322 -4.24485 0.592478 0
M  V30 8104 H 734.506 -4.75194 1.43192 0
M  V30 8105 H 729.762 -5.52727 2.61348 0
M  V30 8106 H 733.936 -6.04806 3.45229 0
M  V30 8107 H 731.563 -6.43404 4.04889 0
M  V30 8108 N 733.138 -0.185124 -1.56509 0
M  V30 8109 C 734.07 0.771401 -2.15829 0
M  V30 8110 C 735.083 1.18392 -1.11747 0
M  V30 8111 O 736.272 1.12137 -1.38879 0
M  V30 8112 C 733.372 2.05169 -2.69739 0
M  V30 8113 C 732.545 1.80056 -3.98621 0
M  V30 8114 C 731.604 2.92435 -4.37456 0
M  V30 8115 O 730.63 2.62473 -5.05071 0
M  V30 8116 N 731.832 4.20554 -4.00143 0
M  V30 8117 H 734.597 0.264184 -2.98533 0
M  V30 8118 H 732.158 -0.00281069 -1.619 0
M  V30 8119 H 734.15 2.7947 -2.92709 0
M  V30 8120 H 732.72 2.47041 -1.91545 0
M  V30 8121 H 731.94 0.895862 -3.83885 0
M  V30 8122 H 733.228 1.60662 -4.82768 0
M  V30 8123 H 732.626 4.47753 -3.45736 0
M  V30 8124 H 731.183 4.91514 -4.28085 0
M  V30 8125 N 734.616 1.57351 0.0885366 0
M  V30 8126 C 736.032 1.53331 0.442916 0
M  V30 8127 C 736.232 0.902831 1.80142 0
M  V30 8128 O 735.288 0.498147 2.47537 0
M  V30 8129 C 736.601 2.98036 0.399372 0
M  V30 8130 C 738.149 3.09286 0.480759 0
M  V30 8131 C 738.624 4.5561 0.467296 0
M  V30 8132 N 740.115 4.60182 0.52786 0
M  V30 8133 C 740.85 5.70857 0.539388 0
M  V30 8134 N 740.346 6.90944 0.506729 0
M  V30 8135 N 742.139 5.59051 0.584691 0
M  V30 8136 H 734.29 1.96709 -0.801215 0
M  V30 8137 H 736.553 0.899639 -0.298922 0
M  V30 8138 H 736.259 3.47656 -0.531806 0
M  V30 8139 H 736.133 3.57066 1.21589 0
M  V30 8140 H 738.52 2.5965 1.40236 0
M  V30 8141 H 738.601 2.53197 -0.364023 0
M  V30 8142 H 738.245 5.05899 -0.450384 0
M  V30 8143 H 738.175 5.09544 1.32938 0
M  V30 8144 H 740.666 3.73757 0.558028 0
M  V30 8145 H 740.979 7.71055 0.518989 0
M  V30 8146 H 739.324 6.93384 0.473675 0
M  V30 8147 H 742.515 4.64138 0.607781 0
M  V30 8148 H 742.688 6.45307 0.590206 0
M  V30 8149 N 736.094 -0.359525 1.53444 0
M  V30 8150 C 737.322 -1.12198 1.73837 0
M  V30 8151 C 737.737 -1.82854 0.470107 0
M  V30 8152 O 737.094 -1.73781 -0.557349 0
M  V30 8153 C 737.145 -2.14769 2.90786 0
M  V30 8154 O 736.866 -1.46989 4.12706 0
M  V30 8155 C 738.367 -3.03514 3.231 0
M  V30 8156 H 735.587 -0.33524 0.581253 0
M  V30 8157 H 738.131 -0.416598 2.00212 0
M  V30 8158 H 736.286 -2.80896 2.66788 0
M  V30 8159 H 736.7 -2.15378 4.78239 0
M  V30 8160 H 738.174 -3.71453 4.08322 0
M  V30 8161 H 738.651 -3.68658 2.38721 0
M  V30 8162 H 739.257 -2.42996 3.49046 0
M  V30 8163 N 737.572 -1.44907 -0.619662 0
M  V30 8164 C 738.797 -1.52021 -1.41083 0
M  V30 8165 C 739.222 -0.14976 -1.87503 0
M  V30 8166 O 738.58 0.863303 -1.59426 0
M  V30 8167 C 738.628 -2.49911 -2.59955 0
M  V30 8168 O 737.732 -2.00857 -3.60181 0
M  V30 8169 H 737.073 -0.512912 -0.421684 0
M  V30 8170 H 739.603 -1.90149 -0.755282 0
M  V30 8171 H 739.613 -2.68323 -3.07354 0
M  V30 8172 H 738.288 -3.4945 -2.25516 0
M  V30 8173 H 736.865 -1.92265 -3.19513 0
M  V30 8174 N 739.05 0.861098 -1.31996 0
M  V30 8175 C 740.296 1.61707 -1.23379 0
M  V30 8176 C 740.651 1.91315 0.204026 0
M  V30 8177 O 739.944 1.53997 1.13998 0
M  V30 8178 C 740.138 2.94822 -2.02027 0
M  V30 8179 C 739.967 2.78212 -3.5331 0
M  V30 8180 C 738.737 2.76933 -4.22654 0
M  V30 8181 C 740.935 2.52432 -4.48088 0
M  V30 8182 N 738.917 2.51466 -5.60034 0
M  V30 8183 C 740.288 2.36312 -5.73198 0
M  V30 8184 C 742.343 2.37848 -4.37416 0
M  V30 8185 C 741.046 2.0709 -6.88844 0
M  V30 8186 C 743.072 2.10016 -5.52854 0
M  V30 8187 C 742.434 1.94691 -6.7696 0
M  V30 8188 H 738.533 0.595703 -0.506618 0
M  V30 8189 H 741.117 1.01275 -1.66287 0
M  V30 8190 H 739.288 3.53243 -1.61474 0
M  V30 8191 H 741.02 3.59756 -1.85358 0
M  V30 8192 H 737.775 2.89638 -3.74709 0
M  V30 8193 H 738.199 2.41679 -6.32392 0
M  V30 8194 H 742.841 2.4842 -3.42122 0
M  V30 8195 H 740.559 1.95256 -7.84156 0
M  V30 8196 H 744.145 1.99519 -5.46519 0
M  V30 8197 H 743.025 1.7346 -7.64775 0
M  V30 8198 N 740.528 1.15101 1.07655 0
M  V30 8199 C 741.774 0.925343 1.80458 0
M  V30 8200 C 742.107 -0.546354 1.86356 0
M  V30 8201 O 741.382 -1.40496 1.34503 0
M  V30 8202 C 741.665 1.53646 3.25676 0
M  V30 8203 C 741.518 3.07854 3.27942 0
M  V30 8204 C 742.837 1.21968 4.22861 0
M  V30 8205 H 739.956 0.337592 0.655134 0
M  V30 8206 H 742.598 1.42217 1.25993 0
M  V30 8207 H 740.748 1.11395 3.72187 0
M  V30 8208 H 742.42 3.58989 2.89697 0
M  V30 8209 H 740.663 3.41904 2.66991 0
M  V30 8210 H 741.334 3.45725 4.30324 0
M  V30 8211 H 743.81 1.5851 3.84726 0
M  V30 8212 H 742.686 1.67349 5.22767 0
M  V30 8213 H 742.947 0.136207 4.4189 0
M  V30 8214 N 742.006 -1.2595 0.947325 0
M  V30 8215 C 742.938 -2.25336 0.41906 0
M  V30 8216 C 743.951 -1.56135 -0.461051 0
M  V30 8217 O 745.14 -1.76438 -0.270505 0
M  V30 8218 C 742.24 -3.36334 -0.416233 0
M  V30 8219 C 741.413 -4.35088 0.449162 0
M  V30 8220 C 740.472 -5.25185 -0.326716 0
M  V30 8221 O 739.498 -5.68548 0.272374 0
M  V30 8222 N 740.7 -5.57388 -1.6217 0
M  V30 8223 H 743.465 -2.71298 1.27348 0
M  V30 8224 H 741.026 -1.39781 0.81688 0
M  V30 8225 H 743.018 -3.93564 -0.942826 0
M  V30 8226 H 741.588 -2.89819 -1.17148 0
M  V30 8227 H 740.808 -3.76841 1.15692 0
M  V30 8228 H 742.096 -4.98056 1.04008 0
M  V30 8229 H 741.494 -5.2405 -2.13046 0
M  V30 8230 H 740.051 -6.17234 -2.0944 0
M  V30 8231 N 743.484 -0.715051 -1.40445 0
M  V30 8232 C 744.895 -0.326763 -1.83818 0
M  V30 8233 C 745.246 1.13851 -1.59789 0
M  V30 8234 O 744.371 1.87611 -1.07848 0
M  V30 8235 C 744.966 -0.586297 -3.33688 0
M  V30 8236 C 743.525 -0.251724 -3.75557 0
M  V30 8237 C 742.672 -0.858928 -2.63662 0
M  V30 8238 H 745.623 -0.914241 -1.2972 0
M  V30 8239 H 745.644 0.148636 -3.8021 0
M  V30 8240 H 745.156 -1.65281 -3.51146 0
M  V30 8241 H 743.257 0.809754 -3.63695 0
M  V30 8242 H 743.37 -0.720348 -4.73654 0
M  V30 8243 H 741.734 -0.287013 -2.53078 0
M  V30 8244 H 742.517 -1.9297 -2.83932 0
M  V30 8245 N 744.962 1.50701 -0.461195 0
M  V30 8246 C 745.892 2.31182 0.328184 0
M  V30 8247 C 746.873 1.37644 0.999408 0
M  V30 8248 O 748.058 1.66565 0.99848 0
M  V30 8249 C 745.188 3.17113 1.41621 0
M  V30 8250 C 744.142 4.19124 0.867148 0
M  V30 8251 C 743.468 4.93728 2.05272 0
M  V30 8252 C 744.768 5.22174 -0.114808 0
M  V30 8253 H 746.462 2.97423 -0.343501 0
M  V30 8254 H 744.008 1.43033 -0.166641 0
M  V30 8255 H 745.961 3.72208 1.97584 0
M  V30 8256 H 744.685 2.48739 2.11652 0
M  V30 8257 H 743.344 3.65116 0.329557 0
M  V30 8258 H 742.992 4.21835 2.73978 0
M  V30 8259 H 742.692 5.62724 1.69161 0
M  V30 8260 H 744.216 5.51654 2.61744 0
M  V30 8261 H 745.63 5.72198 0.355316 0
M  V30 8262 H 744.027 5.98833 -0.389689 0
M  V30 8263 H 745.097 4.7353 -1.04391 0
M  V30 8264 N 746.441 0.193421 1.56409 0
M  V30 8265 C 747.371 -0.723334 2.22014 0
M  V30 8266 C 748.352 -1.22254 1.1827 0
M  V30 8267 O 749.537 -1.27168 1.46771 0
M  V30 8268 C 746.667 -1.94366 2.87818 0
M  V30 8269 C 745.621 -1.57943 3.97791 0
M  V30 8270 C 744.947 -2.87623 4.50752 0
M  V30 8271 C 746.247 -0.790639 5.16281 0
M  V30 8272 H 747.941 -0.176426 2.9888 0
M  V30 8273 H 745.487 -0.0834166 1.43758 0
M  V30 8274 H 747.44 -2.5902 3.32396 0
M  V30 8275 H 746.164 -2.51507 2.08355 0
M  V30 8276 H 744.823 -0.956482 3.53903 0
M  V30 8277 H 744.471 -3.4285 3.68053 0
M  V30 8278 H 744.171 -2.63998 5.24956 0
M  V30 8279 H 745.695 -3.53268 4.9803 0
M  V30 8280 H 747.109 -1.34024 5.57414 0
M  V30 8281 H 745.506 -0.65258 5.96541 0
M  V30 8282 H 746.576 0.208633 4.84451 0
M  V30 8283 N 747.919 -1.57396 -0.0801906 0
M  V30 8284 C 748.852 -1.98386 -1.12774 0
M  V30 8285 C 749.83 -0.859423 -1.38031 0
M  V30 8286 O 751.014 -1.12101 -1.51544 0
M  V30 8287 C 748.141 -2.3134 -2.47386 0
M  V30 8288 C 747.187 -3.53706 -2.38316 0
M  V30 8289 S 748.02 -5.04862 -1.78534 0
M  V30 8290 C 749.176 -5.41008 -3.1474 0
M  V30 8291 H 749.409 -2.86929 -0.778382 0
M  V30 8292 H 746.942 -1.51682 -0.28842 0
M  V30 8293 H 748.9 -2.51 -3.24822 0
M  V30 8294 H 747.561 -1.4334 -2.79486 0
M  V30 8295 H 746.754 -3.74253 -3.37566 0
M  V30 8296 H 746.356 -3.33632 -1.69014 0
M  V30 8297 H 748.648 -5.38565 -4.1104 0
M  V30 8298 H 749.591 -6.41885 -2.98981 0
M  V30 8299 H 749.999 -4.68467 -3.14958 0
M  V30 8300 N 749.397 0.351382 -1.53633 0
M  V30 8301 C 750.674 1.10903 -1.6112 0
M  V30 8302 C 751.054 2.06725 -0.427556 0
M  V30 8303 O 750.402 2.20992 0.580916 0
M  V30 8304 C 750.612 1.83561 -2.96827 0
M  V30 8305 C 751.96 2.37587 -3.51906 0
M  V30 8306 O 752.984 1.93669 -2.9895 0
M  V30 8307 O 751.843 3.17913 -4.44515 0
M  V30 8308 H 748.937 0.509558 -0.651368 0
M  V30 8309 H 751.483 0.353504 -1.65977 0
M  V30 8310 H 750.255 1.1371 -3.74414 0
M  V30 8311 H 749.878 2.6599 -2.95525 0
M  V30 8312 N 750.875 1.45233 0.611969 0
M  V30 8313 C 751.805 1.5641 1.73373 0
M  V30 8314 C 752.786 0.415896 1.64937 0
M  V30 8315 O 753.971 0.638478 1.83404 0
M  V30 8316 C 751.101 1.52627 3.11965 0
M  V30 8317 C 750.055 2.66119 3.35208 0
M  V30 8318 C 749.381 2.4739 4.74028 0
M  V30 8319 C 750.681 4.08157 3.25891 0
M  V30 8320 H 752.375 2.50307 1.64277 0
M  V30 8321 H 749.921 1.20467 0.788904 0
M  V30 8322 H 751.874 1.59043 3.90235 0
M  V30 8323 H 750.598 0.552564 3.21892 0
M  V30 8324 H 749.257 2.59123 2.59327 0
M  V30 8325 H 748.905 1.48168 4.80682 0
M  V30 8326 H 748.605 3.23494 4.90536 0
M  V30 8327 H 750.129 2.55653 5.54503 0
M  V30 8328 H 751.543 4.1642 3.9404 0
M  V30 8329 H 749.94 4.84617 3.5393 0
M  V30 8330 H 751.01 4.30374 2.23397 0
M  V30 8331 N 752.353 -0.854086 1.3245 0
M  V30 8332 C 753.578 -1.64597 1.26185 0
M  V30 8333 C 754.003 -1.87357 -0.167074 0
M  V30 8334 O 753.361 -1.42675 -1.11864 0
M  V30 8335 C 753.409 -2.98213 2.02734 0
M  V30 8336 O 752.513 -3.88784 1.37554 0
M  V30 8337 H 751.854 -0.50179 0.434859 0
M  V30 8338 H 754.384 -1.06372 1.74775 0
M  V30 8339 H 754.394 -3.4803 2.1293 0
M  V30 8340 H 753.069 -2.80969 3.06642 0
M  V30 8341 H 751.646 -3.4725 1.3591 0
M  V30 8342 N 753.831 -1.1567 -1.07043 0
M  V30 8343 C 755.242 -0.942408 -1.61169 0
M  V30 8344 C 755.593 0.515537 -1.89306 0
M  V30 8345 O 754.718 1.38726 -1.66084 0
M  V30 8346 C 755.313 -1.70431 -2.92812 0
M  V30 8347 C 753.872 -1.53521 -3.43669 0
M  V30 8348 C 753.019 -1.7179 -2.17678 0
M  V30 8349 H 755.97 -1.3065 -0.9009 0
M  V30 8350 H 755.991 -1.17566 -3.61882 0
M  V30 8351 H 755.503 -2.76538 -2.72302 0
M  V30 8352 H 753.604 -0.498224 -3.69254 0
M  V30 8353 H 753.717 -2.31422 -4.19501 0
M  V30 8354 H 752.081 -1.14468 -2.27529 0
M  V30 8355 H 752.864 -2.79269 -1.99659 0
M  V30 8356 N 755.309 1.25446 -0.953992 0
M  V30 8357 C 756.555 1.93756 -0.618888 0
M  V30 8358 C 756.91 1.73344 0.83484 0
M  V30 8359 O 756.203 1.06753 1.59105 0
M  V30 8360 C 756.397 3.45555 -0.912496 0
M  V30 8361 C 756.226 3.8073 -2.39321 0
M  V30 8362 C 754.996 4.02819 -3.05065 0
M  V30 8363 C 757.194 3.88286 -3.37251 0
M  V30 8364 N 755.176 4.24981 -4.43017 0
M  V30 8365 C 756.547 4.1513 -4.60507 0
M  V30 8366 C 758.602 3.70965 -3.32099 0
M  V30 8367 C 757.305 4.26454 -5.79249 0
M  V30 8368 C 759.331 3.83528 -4.50178 0
M  V30 8369 C 758.693 4.10783 -5.72221 0
M  V30 8370 H 754.792 0.731271 -0.277069 0
M  V30 8371 H 757.376 1.5125 -1.22604 0
M  V30 8372 H 755.547 3.86959 -0.334284 0
M  V30 8373 H 757.279 4.01117 -0.537362 0
M  V30 8374 H 754.034 3.9868 -2.55639 0
M  V30 8375 H 754.458 4.4007 -5.14459 0
M  V30 8376 H 759.1 3.4891 -2.38791 0
M  V30 8377 H 756.818 4.47325 -6.72998 0
M  V30 8378 H 760.404 3.71513 -4.47738 0
M  V30 8379 H 759.284 4.20285 -6.62065 0
M  V30 8380 N 756.787 0.722489 1.40064 0
M  V30 8381 C 758.203 0.396758 1.5459 0
M  V30 8382 C 758.403 -1.09375 1.69232 0
M  V30 8383 O 757.459 -1.87984 1.68578 0
M  V30 8384 C 758.772 1.16885 2.77053 0
M  V30 8385 C 760.32 1.15583 2.90877 0
M  V30 8386 C 760.795 1.91023 4.16262 0
M  V30 8387 N 762.286 1.88126 4.23276 0
M  V30 8388 C 763.021 2.43315 5.19216 0
M  V30 8389 N 762.517 3.07089 6.21022 0
M  V30 8390 N 764.31 2.33418 5.11344 0
M  V30 8391 H 756.461 1.68887 1.28806 0
M  V30 8392 H 758.724 0.714231 0.62336 0
M  V30 8393 H 758.43 2.22301 2.72534 0
M  V30 8394 H 758.304 0.765011 3.69361 0
M  V30 8395 H 760.691 0.10984 2.94896 0
M  V30 8396 H 760.772 1.59895 1.99668 0
M  V30 8397 H 760.416 2.95616 4.13006 0
M  V30 8398 H 760.346 1.44126 5.06493 0
M  V30 8399 H 762.837 1.41654 3.50346 0
M  V30 8400 H 763.15 3.467 6.90666 0
M  V30 8401 H 761.495 3.11175 6.21446 0
M  V30 8402 H 764.686 1.83248 4.30741 0
M  V30 8403 H 764.859 2.7673 5.85939 0
M  V30 8404 N 758.265 -1.50454 0.469181 0
M  V30 8405 C 759.228 -2.2703 -0.314643 0
M  V30 8406 C 760.228 -1.31734 -0.922111 0
M  V30 8407 O 761.418 -1.55176 -0.791588 0
M  V30 8408 C 758.55 -3.08616 -1.44806 0
M  V30 8409 H 759.743 -2.97769 0.356892 0
M  V30 8410 H 757.296 -1.54698 0.223191 0
M  V30 8411 H 758.031 -2.42369 -2.1547 0
M  V30 8412 H 757.816 -3.78647 -1.01829 0
M  V30 8413 H 759.306 -3.66536 -2.00103 0
M  V30 8414 N 759.743 -0.201713 -1.56304 0
M  V30 8415 C 760.69 0.716499 -2.19397 0
M  V30 8416 C 761.66 1.20494 -1.14326 0
M  V30 8417 O 762.845 1.26763 -1.42604 0
M  V30 8418 C 759.985 1.92762 -2.86246 0
M  V30 8419 C 759.098 1.47993 -4.0586 0
M  V30 8420 C 758.233 2.64706 -4.60547 0
M  V30 8421 C 757.272 2.16576 -5.72504 0
M  V30 8422 N 756.409 3.26491 -6.21569 0
M  V30 8423 H 761.249 0.171724 -2.97505 0
M  V30 8424 H 758.786 0.073016 -1.46919 0
M  V30 8425 H 760.744 2.6384 -3.23178 0
M  V30 8426 H 759.374 2.44559 -2.10691 0
M  V30 8427 H 758.426 0.66477 -3.74546 0
M  V30 8428 H 759.738 1.08686 -4.86815 0
M  V30 8429 H 758.892 3.43898 -4.99819 0
M  V30 8430 H 757.631 3.0729 -3.78713 0
M  V30 8431 H 756.636 1.3584 -5.32755 0
M  V30 8432 H 757.861 1.75015 -6.56161 0
M  V30 8433 H 755.807 3.68594 -5.42655 0
M  V30 8434 H 755.724 2.91374 -6.97594 0
M  V30 8435 H 756.992 4.05877 -6.65495 0
M  V30 8436 N 761.222 1.57436 0.0718424 0
M  V30 8437 C 762.152 2.06724 1.08571 0
M  V30 8438 C 763.133 0.960731 1.40371 0
M  V30 8439 O 764.318 1.23345 1.49999 0
M  V30 8440 C 761.448 2.51112 2.39916 0
M  V30 8441 C 760.402 3.65639 2.22469 0
M  V30 8442 C 759.728 3.96082 3.59198 0
M  V30 8443 C 761.028 4.95687 1.64596 0
M  V30 8444 H 762.722 2.91679 0.675569 0
M  V30 8445 H 760.268 1.40319 0.32352 0
M  V30 8446 H 762.221 2.84206 3.11135 0
M  V30 8447 H 760.945 1.63186 2.8291 0
M  V30 8448 H 759.604 3.32828 1.53691 0
M  V30 8449 H 759.252 3.05287 3.99761 0
M  V30 8450 H 758.952 4.73199 3.48362 0
M  V30 8451 H 760.476 4.31672 4.31847 0
M  V30 8452 H 761.89 5.27011 2.25681 0
M  V30 8453 H 760.287 5.77126 1.64457 0
M  V30 8454 H 761.357 4.8108 0.60744 0
M  V30 8455 N 762.7 -0.34323 1.53817 0
M  V30 8456 C 763.632 -1.44216 1.78141 0
M  V30 8457 C 764.645 -1.48701 0.662721 0
M  V30 8458 O 765.834 -1.51778 0.939458 0
M  V30 8459 C 762.934 -2.82872 1.86646 0
M  V30 8460 C 762.107 -3.01824 3.16577 0
M  V30 8461 C 761.166 -4.20723 3.16036 0
M  V30 8462 O 760.192 -4.14824 3.89756 0
M  V30 8463 N 761.394 -5.29276 2.38427 0
M  V30 8464 H 764.159 -1.23721 2.72971 0
M  V30 8465 H 761.72 -0.53311 1.52871 0
M  V30 8466 H 763.712 -3.60588 1.83735 0
M  V30 8467 H 762.282 -2.96509 0.990014 0
M  V30 8468 H 761.502 -2.11575 3.3261 0
M  V30 8469 H 762.79 -3.11369 4.02402 0
M  V30 8470 H 762.188 -5.36938 1.78085 0
M  V30 8471 H 760.745 -6.05484 2.41313 0
M  V30 8472 N 764.178 -1.45556 -0.604258 0
M  V30 8473 C 765.088 -1.57025 -1.74299 0
M  V30 8474 C 766.104 -0.45456 -1.67958 0
M  V30 8475 O 767.28 -0.715711 -1.88254 0
M  V30 8476 C 764.345 -1.53702 -3.10768 0
M  V30 8477 C 763.406 -2.76335 -3.28538 0
M  V30 8478 C 762.639 -2.73161 -4.58496 0
M  V30 8479 O 762.862 -1.80678 -5.41028 0
M  V30 8480 O 761.796 -3.64409 -4.79051 0
M  V30 8481 H 765.622 -2.53284 -1.67573 0
M  V30 8482 H 763.207 -1.28104 -0.768745 0
M  V30 8483 H 765.089 -1.54468 -3.92068 0
M  V30 8484 H 763.764 -0.605957 -3.17978 0
M  V30 8485 H 762.671 -2.8113 -2.46813 0
M  V30 8486 H 764.004 -3.68578 -3.26207 0
M  V30 8487 N 765.656 0.84705 -1.32902 0
M  V30 8488 C 766.905 1.59667 -1.23245 0
M  V30 8489 C 767.218 1.94551 0.202349 0
M  V30 8490 O 768.424 2.68218 0.420847 0
M  V30 8491 C 766.88 2.8795 -2.15901 0
M  V30 8492 C 766.488 2.60461 -3.64505 0
M  V30 8493 C 768.232 3.65968 -2.15098 0
M  V30 8494 C 766.139 3.84791 -4.49099 0
M  V30 8495 H 765.069 0.599167 -0.457728 0
M  V30 8496 H 767.72 0.934662 -1.57912 0
M  V30 8497 H 766.102 3.55648 -1.74157 0
M  V30 8498 H 767.276 2.01026 -4.14639 0
M  V30 8499 H 765.591 1.9576 -3.67515 0
M  V30 8500 H 768.188 4.58241 -2.75534 0
M  V30 8501 H 768.531 4.00275 -1.14392 0
M  V30 8502 H 769.064 3.05184 -2.55162 0
M  V30 8503 H 765.803 3.55621 -5.50649 0
M  V30 8504 H 765.323 4.43594 -4.03713 0
M  V30 8505 H 767.002 4.52454 -4.62487 0
M  V30 8506 N 767.134 1.16236 1.06428 0
M  V30 8507 C 768.081 0.86769 2.13869 0
M  V30 8508 C 769.051 -0.183298 1.65086 0
M  V30 8509 O 770.236 -0.0488002 1.90738 0
M  V30 8510 C 767.376 0.373427 3.43074 0
M  V30 8511 C 766.489 1.48708 4.05598 0
M  V30 8512 C 765.624 0.947977 5.22673 0
M  V30 8513 C 764.663 2.03793 5.77178 0
M  V30 8514 N 763.8 1.51451 6.85571 0
M  V30 8515 H 768.64 1.78781 2.38414 0
M  V30 8516 H 766.177 0.891892 1.16977 0
M  V30 8517 H 768.135 0.0685035 4.17144 0
M  V30 8518 H 766.765 -0.509752 3.1875 0
M  V30 8519 H 765.817 1.908 3.29089 0
M  V30 8520 H 767.129 2.30964 4.42105 0
M  V30 8521 H 766.283 0.596154 6.03764 0
M  V30 8522 H 765.022 0.0947081 4.87608 0
M  V30 8523 H 764.027 2.39847 4.94726 0
M  V30 8524 H 765.252 2.89514 6.14295 0
M  V30 8525 H 763.198 0.683755 6.52427 0
M  V30 8526 H 763.115 2.27325 7.21013 0
M  V30 8527 H 764.383 1.19123 7.70344 0
M  V30 8528 N 768.612 -1.24939 0.960631 0
M  V30 8529 C 769.837 -1.9742 0.635608 0
M  V30 8530 C 770.262 -1.70857 -0.786737 0
M  V30 8531 O 769.62 -0.968063 -1.53291 0
M  V30 8532 C 769.668 -3.48987 0.907771 0
M  V30 8533 O 768.772 -4.12399 -0.0104053 0
M  V30 8534 H 768.113 -0.61871 0.241027 0
M  V30 8535 H 770.643 -1.58901 1.28886 0
M  V30 8536 H 770.653 -3.99334 0.836453 0
M  V30 8537 H 769.328 -3.6765 1.94439 0
M  V30 8538 H 767.905 -3.72727 0.113631 0
M  V30 8539 N 770.09 -0.729906 -1.39679 0
M  V30 8540 C 771.315 -0.284345 -2.05442 0
M  V30 8541 C 771.74 1.07056 -1.54663 0
M  V30 8542 O 771.098 1.67732 -0.688157 0
M  V30 8543 C 771.146 -0.290089 -3.59431 0
M  V30 8544 O 770.25 0.723978 -4.05995 0
M  V30 8545 H 769.591 -0.130311 -0.651088 0
M  V30 8546 H 772.121 -0.994403 -1.78809 0
M  V30 8547 H 772.131 -0.132712 -4.07784 0
M  V30 8548 H 770.806 -1.27877 -3.95753 0
M  V30 8549 H 769.383 0.533154 -3.69069 0
M  V30 8550 N 771.568 1.50203 -0.477153 0
M  V30 8551 C 772.498 2.31517 0.303646 0
M  V30 8552 C 773.479 1.38696 0.984753 0
M  V30 8553 O 774.664 1.67615 0.980758 0
M  V30 8554 C 771.794 3.18598 1.38249 0
M  V30 8555 C 770.748 4.2002 0.822645 0
M  V30 8556 C 770.074 4.95878 2.00024 0
M  V30 8557 C 771.374 5.22023 -0.170185 0
M  V30 8558 H 773.068 2.97042 -0.375027 0
M  V30 8559 H 770.614 1.42848 -0.181802 0
M  V30 8560 H 772.567 3.74282 1.93625 0
M  V30 8561 H 771.291 2.5097 2.09002 0
M  V30 8562 H 769.95 3.65445 0.290813 0
M  V30 8563 H 769.598 4.24717 2.69489 0
M  V30 8564 H 769.298 5.64487 1.63183 0
M  V30 8565 H 770.822 5.54399 2.55878 0
M  V30 8566 H 772.236 5.72543 0.294606 0
M  V30 8567 H 770.633 5.98386 -0.453181 0
M  V30 8568 H 771.703 4.72396 -1.09408 0
M  V30 8569 N 773.046 0.209999 1.56195 0
M  V30 8570 C 774.323 -0.473214 1.89789 0
M  V30 8571 C 774.703 -1.78581 1.1257 0
M  V30 8572 O 774.051 -2.27325 0.231398 0
M  V30 8573 C 774.261 -0.677458 3.42362 0
M  V30 8574 C 775.609 -0.990114 4.12895 0
M  V30 8575 O 776.633 -0.764655 3.47896 0
M  V30 8576 O 775.492 -1.41737 5.278 0
M  V30 8577 H 772.586 -0.248622 0.788743 0
M  V30 8578 H 775.132 0.251324 1.67829 0
M  V30 8579 H 773.904 0.248878 3.90508 0
M  V30 8580 H 773.527 -1.45391 3.70064 0
M  V30 8581 N 774.524 -1.57472 -0.0634922 0
M  V30 8582 C 775.472 -2.05307 -1.09323 0
M  V30 8583 C 776.466 -0.959995 -1.39572 0
M  V30 8584 O 777.672 -1.14507 -1.38882 0
M  V30 8585 H 774.047 -0.65472 -0.369927 0
M  V30 8586 H 776.018 -2.90925 -0.663707 0
M  V30 8587 C 774.767 -2.51954 -2.39613 0
M  V30 8588 H 774.09 -3.35662 -2.1719 0
M  V30 8589 H 775.53 -2.89169 -3.10092 0
M  V30 8590 C 773.989 -1.40596 -3.06161 0
M  V30 8591 O 774.519 -0.752722 -3.94585 0
M  V30 8592 N 772.725 -1.14902 -2.66919 0
M  V30 8593 H 772.272 -1.68205 -1.95102 0
M  V30 8594 H 772.23 -0.406006 -3.11767 0
M  V30 8595 N 776.003 0.335068 -1.53997 0
M  V30 8596 C 776.953 1.4127 -1.7896 0
M  V30 8597 C 777.937 1.474 -0.64513 0
M  V30 8598 O 779.129 1.52127 -0.904785 0
M  V30 8599 C 776.258 2.78292 -2.01018 0
M  V30 8600 C 775.344 2.7652 -3.21555 0
M  V30 8601 N 775.735 2.44374 -4.42849 0
M  V30 8602 C 774.033 3.0766 -3.22895 0
M  V30 8603 C 774.734 2.51049 -5.24737 0
M  V30 8604 N 773.71 2.8702 -4.6165 0
M  V30 8605 H 777.512 1.15327 -2.70327 0
M  V30 8606 H 775.026 0.543483 -1.53036 0
M  V30 8607 H 777.023 3.55949 -2.17039 0
M  V30 8608 H 775.683 3.05175 -1.10898 0
M  V30 8609 H 776.694 2.17422 -4.70051 0
M  V30 8610 H 773.371 3.3966 -2.42771 0
M  V30 8611 H 774.761 2.29283 -6.31569 0
M  V30 8612 N 777.481 1.45874 0.596531 0
M  V30 8613 C 778.709 1.54013 1.38158 0
M  V30 8614 C 779.124 0.17648 1.87973 0
M  V30 8615 O 778.481 -0.823895 1.62844 0
M  V30 8616 C 778.532 2.53363 2.57855 0
M  V30 8617 O 778.253 3.8443 2.10108 0
M  V30 8618 C 779.754 2.71308 3.50581 0
M  V30 8619 H 776.974 0.521251 0.422538 0
M  V30 8620 H 779.518 1.9116 0.726493 0
M  V30 8621 H 777.673 2.19257 3.19382 0
M  V30 8622 H 778.087 4.38384 2.87958 0
M  V30 8623 H 779.561 3.44776 4.31084 0
M  V30 8624 H 780.038 1.77728 4.01633 0
M  V30 8625 H 780.644 3.06455 2.94899 0
M  V30 8626 N 778.959 -0.83999 1.33349 0
M  V30 8627 C 779.869 -1.98182 1.25543 0
M  V30 8628 C 780.885 -1.73204 0.166208 0
M  V30 8629 O 782.061 -1.97596 0.389589 0
M  V30 8630 C 779.126 -3.32157 0.993614 0
M  V30 8631 C 778.187 -3.70258 2.17273 0
M  V30 8632 C 777.42 -4.9784 1.92331 0
M  V30 8633 O 777.643 -5.63679 0.873074 0
M  V30 8634 O 776.577 -5.33418 2.78835 0
M  V30 8635 H 780.403 -2.07708 2.21565 0
M  V30 8636 H 777.988 -0.972852 1.13384 0
M  V30 8637 H 779.87 -4.12433 0.864711 0
M  V30 8638 H 778.545 -3.23637 0.0636596 0
M  V30 8639 H 777.452 -2.90497 2.35716 0
M  V30 8640 H 778.785 -3.83442 3.08598 0
M  V30 8641 N 780.437 -1.16799 -1.0581 0
M  V30 8642 C 781.683 -0.953935 -1.78963 0
M  V30 8643 C 782.016 0.516638 -1.87202 0
M  V30 8644 O 781.291 1.38338 -1.36721 0
M  V30 8645 C 781.574 -1.58808 -3.23191 0
M  V30 8646 C 781.427 -3.13032 -3.23003 0
M  V30 8647 C 782.746 -1.2868 -4.20867 0
M  V30 8648 H 779.865 -0.347972 -0.64968 0
M  V30 8649 H 782.507 -1.44204 -1.23715 0
M  V30 8650 H 780.657 -1.17303 -3.70368 0
M  V30 8651 H 782.329 -3.63553 -2.83949 0
M  V30 8652 H 780.572 -3.46108 -2.61518 0
M  V30 8653 H 781.243 -3.52527 -4.24769 0
M  V30 8654 H 783.719 -1.6461 -3.82155 0
M  V30 8655 H 782.595 -1.75645 -5.20038 0
M  V30 8656 H 782.856 -0.206491 -4.41618 0
M  V30 8657 N 781.915 1.24427 -0.967243 0
M  V30 8658 C 783.161 1.92772 -0.629812 0
M  V30 8659 C 783.494 1.75436 0.832827 0
M  V30 8660 O 782.769 1.10716 1.59913 0
M  V30 8661 C 783.052 3.45798 -1.00477 0
M  V30 8662 C 782.905 3.72304 -2.52407 0
M  V30 8663 C 784.224 4.36787 -0.538999 0
M  V30 8664 H 781.343 0.700099 -0.230282 0
M  V30 8665 H 783.985 1.46805 -1.20616 0
M  V30 8666 H 782.135 3.8508 -0.514336 0
M  V30 8667 H 783.807 3.42584 -3.08924 0
M  V30 8668 H 782.05 3.17472 -2.95625 0
M  V30 8669 H 782.721 4.7937 -2.73693 0
M  V30 8670 H 785.197 4.04877 -0.959874 0
M  V30 8671 H 784.073 5.4259 -0.829926 0
M  V30 8672 H 784.334 4.38527 0.560923 0
M  V30 8673 N 783.393 0.737304 1.3929 0
M  V30 8674 C 784.64 0.286257 2.00467 0
M  V30 8675 C 784.968 -1.1272 1.58507 0
M  V30 8676 O 784.223 -1.7832 0.806257 0
M  V30 8677 C 784.522 0.338438 3.55794 0
M  V30 8678 C 784.188 1.70524 4.17411 0
M  V30 8679 C 782.85 2.07934 4.33955 0
M  V30 8680 C 785.202 2.60256 4.51571 0
M  V30 8681 C 782.53 3.34578 4.81948 0
M  V30 8682 C 784.882 3.86275 5.00974 0
M  V30 8683 C 783.546 4.23774 5.15725 0
M  V30 8684 H 782.816 0.104749 0.733559 0
M  V30 8685 H 785.463 0.944598 1.66582 0
M  V30 8686 H 783.768 -0.403478 3.89717 0
M  V30 8687 H 785.465 -0.0287255 4.0099 0
M  V30 8688 H 782.055 1.40439 4.04938 0
M  V30 8689 H 786.239 2.32624 4.38406 0
M  V30 8690 H 781.495 3.63572 4.91554 0
M  V30 8691 H 785.669 4.5596 5.26378 0
M  V30 8692 H 783.296 5.21972 5.52674 0
M  V30 8693 N 784.871 -1.49948 0.485112 0
M  V30 8694 C 786.12 -2.01589 -0.066765 0
M  V30 8695 C 786.433 -1.371 -1.39509 0
M  V30 8696 O 787.639 -1.79978 -2.03274 0
M  V30 8697 C 786.095 -3.59501 -0.169476 0
M  V30 8698 C 785.703 -4.32955 1.15126 0
M  V30 8699 C 787.447 -4.19138 -0.672564 0
M  V30 8700 C 785.354 -5.82684 1.01158 0
M  V30 8701 H 784.284 -0.753453 -0.0287259 0
M  V30 8702 H 786.935 -1.72632 0.622132 0
M  V30 8703 H 785.317 -3.85106 -0.922471 0
M  V30 8704 H 786.491 -4.19064 1.9163 0
M  V30 8705 H 784.806 -3.84991 1.58654 0
M  V30 8706 H 787.403 -5.28767 -0.794325 0
M  V30 8707 H 787.746 -3.81447 -1.66745 0
M  V30 8708 H 788.279 -3.97793 0.0234415 0
M  V30 8709 H 785.018 -6.24873 1.98025 0
M  V30 8710 H 784.538 -5.99112 0.287151 0
M  V30 8711 H 786.217 -6.43376 0.683847 0
M  V30 8712 N 786.349 -0.21828 -1.56081 0
M  V30 8713 C 787.312 0.679633 -2.18892 0
M  V30 8714 C 788.312 1.12405 -1.14986 0
M  V30 8715 O 789.502 1.03339 -1.40238 0
M  V30 8716 C 786.634 1.93063 -2.80962 0
M  V30 8717 H 787.827 0.132066 -2.99609 0
M  V30 8718 H 785.38 0.0313374 -1.56269 0
M  V30 8719 H 786.115 2.52015 -2.04106 0
M  V30 8720 H 785.9 1.62046 -3.57048 0
M  V30 8721 H 787.39 2.57043 -3.29118 0
M  V30 8722 N 787.827 1.57504 0.0551401 0
M  V30 8723 C 789.104 1.79155 0.785048 0
M  V30 8724 C 789.484 0.809995 1.94942 0
M  V30 8725 O 788.832 -0.153432 2.27984 0
M  V30 8726 C 789.042 3.26134 1.24247 0
M  V30 8727 C 790.39 3.90419 1.66908 0
M  V30 8728 O 791.414 3.30126 1.33772 0
M  V30 8729 O 790.273 4.96523 2.28314 0
M  V30 8730 H 787.367 0.735825 0.377479 0
M  V30 8731 H 789.913 1.69666 0.0339285 0
M  V30 8732 H 788.685 3.89145 0.410089 0
M  V30 8733 H 788.308 3.40411 2.05441 0
M  V30 8734 N 789.305 -0.326896 1.54172 0
M  V30 8735 C 790.552 -1.06523 1.72218 0
M  V30 8736 C 790.88 -1.88119 0.494114 0
M  V30 8737 O 790.135 -1.8855 -0.524147 0
M  V30 8738 C 790.434 -2.0208 2.94785 0
M  V30 8739 C 790.1 -1.36665 4.2969 0
M  V30 8740 C 788.762 -1.18556 4.66367 0
M  V30 8741 C 791.114 -0.896868 5.13425 0
M  V30 8742 C 788.442 -0.521113 5.84381 0
M  V30 8743 C 790.794 -0.246261 6.3212 0
M  V30 8744 C 789.458 -0.052987 6.67479 0
M  V30 8745 H 788.728 -0.389796 0.63019 0
M  V30 8746 H 791.375 -0.342725 1.88408 0
M  V30 8747 H 789.68 -2.8077 2.73268 0
M  V30 8748 H 791.377 -2.59231 3.05941 0
M  V30 8749 H 787.967 -1.51762 4.00832 0
M  V30 8750 H 792.151 -1.02458 4.85609 0
M  V30 8751 H 787.407 -0.36014 6.10338 0
M  V30 8752 H 791.581 0.125775 6.96286 0
M  V30 8753 H 789.208 0.463903 7.58783 0
M  V30 8754 N 790.784 -1.46188 -0.588786 0
M  V30 8755 C 792.195 -1.45421 -1.17088 0
M  V30 8756 C 792.546 -0.191801 -1.9526 0
M  V30 8757 O 791.671 0.705497 -2.04577 0
M  V30 8758 C 792.266 -2.63467 -2.13004 0
M  V30 8759 C 790.825 -2.6576 -2.6655 0
M  V30 8760 C 789.972 -2.38002 -1.42304 0
M  V30 8761 H 792.923 -1.54156 -0.377052 0
M  V30 8762 H 792.944 -2.38638 -2.96365 0
M  V30 8763 H 792.456 -3.55331 -1.56081 0
M  V30 8764 H 790.557 -1.77952 -3.27359 0
M  V30 8765 H 790.67 -3.65545 -3.09699 0
M  V30 8766 H 789.034 -1.87936 -1.71907 0
M  V30 8767 H 789.817 -3.32035 -0.872209 0
M  V30 8768 N 792.262 0.832906 -1.33792 0
M  V30 8769 C 793.51 1.58539 -1.25338 0
M  V30 8770 C 793.831 1.94175 0.179204 0
M  V30 8771 O 793.101 1.61458 1.10941 0
M  V30 8772 H 791.681 0.58784 -0.460926 0
M  V30 8773 H 794.343 0.995064 -1.67584 0
M  V30 8774 H 793.439 2.51268 -1.85123 0
M  V30 8775 N 793.74 1.17359 1.05189 0
M  V30 8776 C 794.67 0.91365 2.14883 0
M  V30 8777 C 795.651 -0.144365 1.69486 0
M  V30 8778 O 796.836 0.00587861 1.94199 0
M  V30 8779 C 793.966 0.426196 3.44675 0
M  V30 8780 C 792.92 1.4234 4.03638 0
M  V30 8781 C 792.246 0.793902 5.28773 0
M  V30 8782 C 793.546 2.7966 4.41121 0
M  V30 8783 H 795.24 1.831 2.36885 0
M  V30 8784 H 792.786 0.881781 1.13845 0
M  V30 8785 H 794.739 0.231767 4.20762 0
M  V30 8786 H 793.463 -0.526693 3.22325 0
M  V30 8787 H 792.122 1.60457 3.2962 0
M  V30 8788 H 791.77 -0.165824 5.02727 0
M  V30 8789 H 791.47 1.45959 5.69183 0
M  V30 8790 H 792.994 0.609747 6.07548 0
M  V30 8791 H 794.408 2.6526 5.08242 0
M  V30 8792 H 792.805 3.42807 4.92548 0
M  V30 8793 H 793.875 3.34068 3.51464 0
M  V30 8794 N 795.218 -1.23913 0.973828 0
M  V30 8795 C 796.168 -2.22892 0.479933 0
M  V30 8796 C 797.152 -1.54726 -0.441434 0
M  V30 8797 O 798.344 -1.74908 -0.271358 0
M  V30 8798 C 795.473 -3.42577 -0.222702 0
M  V30 8799 C 794.559 -4.17981 0.717851 0
M  V30 8800 N 794.95 -4.7045 1.8577 0
M  V30 8801 C 793.248 -4.42841 0.529858 0
M  V30 8802 C 793.949 -5.27751 2.44651 0
M  V30 8803 N 792.925 -5.15302 1.73104 0
M  V30 8804 H 796.727 -2.61083 1.34956 0
M  V30 8805 H 794.241 -1.39368 0.83368 0
M  V30 8806 H 796.238 -4.1265 -0.593793 0
M  V30 8807 H 794.898 -3.05904 -1.0887 0
M  V30 8808 H 795.909 -4.66997 2.23908 0
M  V30 8809 H 792.586 -4.1648 -0.291664 0
M  V30 8810 H 793.976 -5.79011 3.40875 0
M  V30 8811 N 796.696 -0.74468 -1.38897 0
M  V30 8812 C 797.626 -0.126355 -2.33158 0
M  V30 8813 C 798.607 0.713517 -1.54412 0
M  V30 8814 O 799.792 0.656523 -1.82766 0
M  V30 8815 C 796.922 0.774375 -3.38557 0
M  V30 8816 C 795.876 0.0379214 -4.27983 0
M  V30 8817 C 795.202 1.05631 -5.24162 0
M  V30 8818 C 796.502 -1.12523 -5.10035 0
M  V30 8819 H 798.196 -0.913744 -2.85116 0
M  V30 8820 H 795.742 -0.440847 -1.37086 0
M  V30 8821 H 797.695 1.21655 -4.03458 0
M  V30 8822 H 796.419 1.59399 -2.85061 0
M  V30 8823 H 795.078 -0.384733 -3.64576 0
M  V30 8824 H 794.726 1.86975 -4.66958 0
M  V30 8825 H 794.426 0.568261 -5.84846 0
M  V30 8826 H 795.95 1.49799 -5.9194 0
M  V30 8827 H 797.364 -0.761037 -5.68226 0
M  V30 8828 H 795.761 -1.54355 -5.79909 0
M  V30 8829 H 796.831 -1.94237 -4.44297 0
M  V30 8830 N 798.174 1.49689 -0.493057 0
M  V30 8831 C 799.084 2.32746 0.294358 0
M  V30 8832 C 800.1 1.44117 0.975003 0
M  V30 8833 O 801.276 1.77149 0.958138 0
M  V30 8834 C 798.341 3.19358 1.34949 0
M  V30 8835 C 797.402 4.2383 0.683122 0
M  V30 8836 C 796.635 5.06303 1.68798 0
M  V30 8837 O 796.858 4.90172 2.91698 0
M  V30 8838 O 795.792 5.88826 1.24768 0
M  V30 8839 H 799.618 3.01247 -0.385254 0
M  V30 8840 H 797.203 1.47216 -0.254519 0
M  V30 8841 H 799.085 3.73037 1.96014 0
M  V30 8842 H 797.76 2.53561 2.01217 0
M  V30 8843 H 796.667 3.74086 0.0329351 0
M  V30 8844 H 798 4.9216 0.0630192 0
M  V30 8845 N 799.652 0.226554 1.55963 0
M  V30 8846 C 800.6 -0.697922 2.21882 0
M  V30 8847 C 801.594 -1.19586 1.19981 0
M  V30 8848 O 802.8 -1.15511 1.38048 0
M  V30 8849 H 799.175 -0.243501 0.711485 0
M  V30 8850 H 801.146 -0.118576 2.98164 0
M  V30 8851 C 799.895 -1.89309 2.91646 0
M  V30 8852 H 799.218 -1.51906 3.69817 0
M  V30 8853 H 800.658 -2.51762 3.41162 0
M  V30 8854 C 799.117 -2.75162 1.94391 0
M  V30 8855 O 799.647 -3.74071 1.46402 0
M  V30 8856 N 797.853 -2.41302 1.61932 0
M  V30 8857 H 797.4 -1.60923 2.01151 0
M  V30 8858 H 797.358 -2.99023 0.971219 0
M  V30 8859 N 801.13 -1.57531 -0.0467866 0
M  V30 8860 C 802.377 -1.88451 -0.74112 0
M  V30 8861 C 802.705 -0.821592 -1.76296 0
M  V30 8862 O 801.96 0.179585 -1.94874 0
M  V30 8863 C 802.259 -3.26091 -1.46285 0
M  V30 8864 C 801.925 -4.47171 -0.578669 0
M  V30 8865 C 800.587 -4.80032 -0.335083 0
M  V30 8866 C 802.939 -5.2119 0.0328809 0
M  V30 8867 C 800.267 -5.84309 0.529121 0
M  V30 8868 C 802.619 -6.26383 0.884684 0
M  V30 8869 C 801.283 -6.57729 1.1379 0
M  V30 8870 H 800.553 -0.68959 -0.271195 0
M  V30 8871 H 803.2 -1.915 -0.00132378 0
M  V30 8872 H 801.505 -3.18948 -2.27551 0
M  V30 8873 H 803.202 -3.47258 -2.00532 0
M  V30 8874 H 799.792 -4.21467 -0.778666 0
M  V30 8875 H 803.976 -4.96096 -0.142375 0
M  V30 8876 H 799.232 -6.06981 0.733794 0
M  V30 8877 H 803.406 -6.82888 1.36516 0
M  V30 8878 H 801.033 -7.38355 1.80929 0
M  V30 8879 N 802.608 0.318715 -1.54344 0
M  V30 8880 C 803.854 1.05765 -1.73037 0
M  V30 8881 C 804.187 1.87514 -0.505181 0
M  V30 8882 O 803.462 1.88021 0.497838 0
M  V30 8883 C 803.745 1.97836 -3.00887 0
M  V30 8884 C 803.598 1.19384 -4.33668 0
M  V30 8885 C 804.917 2.97285 -3.24514 0
M  V30 8886 H 802.036 0.383104 -0.629603 0
M  V30 8887 H 804.678 0.333864 -1.87044 0
M  V30 8888 H 802.828 2.59552 -2.89076 0
M  V30 8889 H 804.5 0.600906 -4.57369 0
M  V30 8890 H 802.743 0.496198 -4.30953 0
M  V30 8891 H 803.414 1.87014 -5.19355 0
M  V30 8892 H 805.89 2.45693 -3.35819 0
M  V30 8893 H 804.766 3.58887 -4.15321 0
M  V30 8894 H 805.027 3.70003 -2.41971 0
M  V30 8895 N 804.086 1.46499 0.581025 0
M  V30 8896 C 805.311 1.55708 1.37002 0
M  V30 8897 C 805.736 0.19942 1.8704 0
M  V30 8898 O 805.094 -0.820731 1.61659 0
M  V30 8899 C 805.142 2.56716 2.53238 0
M  V30 8900 O 804.246 2.10336 3.54729 0
M  V30 8901 H 803.587 0.523912 0.407937 0
M  V30 8902 H 806.117 1.92085 0.704602 0
M  V30 8903 H 806.127 2.76378 3.00132 0
M  V30 8904 H 804.802 3.55307 2.16171 0
M  V30 8905 H 803.379 2.00669 3.14303 0
M  V30 8906 N 805.565 -0.825799 1.34232 0
M  V30 8907 C 806.475 -1.9684 1.27638 0
M  V30 8908 C 807.491 -1.73018 0.184569 0
M  V30 8909 O 808.667 -1.97172 0.410525 0
M  V30 8910 C 805.732 -3.31084 1.02879 0
M  V30 8911 C 804.793 -3.67933 2.21188 0
M  V30 8912 C 804.026 -4.95772 1.976 0
M  V30 8913 O 804.249 -5.62721 0.93281 0
M  V30 8914 O 803.183 -5.30431 2.84477 0
M  V30 8915 H 807.009 -2.05346 2.23756 0
M  V30 8916 H 804.594 -0.960772 1.1441 0
M  V30 8917 H 806.476 -4.11492 0.908406 0
M  V30 8918 H 805.151 -3.23552 0.0979821 0
M  V30 8919 H 804.058 -2.87981 2.38784 0
M  V30 8920 H 805.391 -3.80147 3.12648 0
M  V30 8921 N 807.043 -1.17915 -1.04565 0
M  V30 8922 C 808.32 -0.881187 -1.74627 0
M  V30 8923 C 808.7 0.617123 -2.01878 0
M  V30 8924 O 808.048 1.57032 -1.65991 0
M  V30 8925 C 808.258 -1.72299 -3.03503 0
M  V30 8926 C 809.606 -1.94688 -3.77335 0
M  V30 8927 O 810.63 -1.6931 -3.13389 0
M  V30 8928 O 809.489 -2.37379 -4.92253 0
M  V30 8929 H 806.583 -0.326864 -0.759664 0
M  V30 8930 H 809.129 -1.28642 -1.10676 0
M  V30 8931 H 807.901 -2.73891 -2.79462 0
M  V30 8932 H 807.524 -1.31593 -3.75192 0
M  V30 8933 N 808.521 1.23394 -0.980386 0
M  V30 8934 C 809.451 2.2717 -0.540024 0
M  V30 8935 C 810.432 1.64659 0.426787 0
M  V30 8936 O 811.617 1.91543 0.320153 0
M  V30 8937 C 808.747 3.46939 0.15836 0
M  V30 8938 C 807.701 4.21802 -0.725732 0
M  V30 8939 C 807.027 5.34597 0.104866 0
M  V30 8940 C 808.327 4.81802 -2.01654 0
M  V30 8941 H 810.021 2.64257 -1.40743 0
M  V30 8942 H 807.567 1.2703 -0.678193 0
M  V30 8943 H 809.52 4.18683 0.477737 0
M  V30 8944 H 808.244 3.08912 1.06022 0
M  V30 8945 H 806.903 3.51875 -1.02857 0
M  V30 8946 H 806.551 4.92812 1.00726 0
M  V30 8947 H 806.251 5.85607 -0.483557 0
M  V30 8948 H 807.775 6.09163 0.418624 0
M  V30 8949 H 809.189 5.45554 -1.76193 0
M  V30 8950 H 807.586 5.43098 -2.55273 0
M  V30 8951 H 808.656 4.02549 -2.70338 0
M  V30 8952 N 809.999 0.752036 1.385 0
M  V30 8953 C 811.247 0.306895 1.99756 0
M  V30 8954 C 811.568 -1.11478 1.59992 0
M  V30 8955 O 810.838 -1.76206 0.856045 0
M  V30 8956 H 809.418 0.11048 0.738785 0
M  V30 8957 H 812.08 0.965785 1.69289 0
M  V30 8958 H 811.176 0.368797 3.09913 0
M  V30 8959 N 811.477 -1.49425 0.500989 0
M  V30 8960 C 812.425 -2.30771 -0.291149 0
M  V30 8961 C 813.419 -1.3938 -0.962787 0
M  V30 8962 O 814.625 -1.56431 -0.890477 0
M  V30 8963 H 811 -0.743499 -0.11275 0
M  V30 8964 H 812.971 -2.95501 0.414917 0
M  V30 8965 C 811.72 -3.20725 -1.34279 0
M  V30 8966 H 811.043 -3.90975 -0.83538 0
M  V30 8967 H 812.483 -3.80583 -1.86903 0
M  V30 8968 C 810.942 -2.40334 -2.36095 0
M  V30 8969 O 811.472 -2.10749 -3.41976 0
M  V30 8970 N 809.678 -2.02359 -2.08565 0
M  V30 8971 H 809.225 -2.26619 -1.22482 0
M  V30 8972 H 809.183 -1.48878 -2.76916 0
M  V30 8973 N 812.955 -0.234822 -1.55841 0
M  V30 8974 C 814.183 0.397745 -2.03041 0
M  V30 8975 C 814.598 1.52405 -1.11437 0
M  V30 8976 O 813.955 1.82061 -0.126466 0
M  V30 8977 C 814.006 0.916919 -3.49678 0
M  V30 8978 O 813.727 -0.164493 -4.37791 0
M  V30 8979 C 815.228 1.62139 -4.12584 0
M  V30 8980 H 812.448 0.0959214 -0.664108 0
M  V30 8981 H 814.992 -0.355156 -2.01392 0
M  V30 8982 H 813.147 1.62004 -3.519 0
M  V30 8983 H 813.561 0.227794 -5.24005 0
M  V30 8984 H 815.035 1.93651 -5.16917 0
M  V30 8985 H 815.512 2.53918 -3.58361 0
M  V30 8986 H 816.118 0.963145 -4.14251 0
M  V30 8987 N 814.433 1.57553 0.0384317 0
M  V30 8988 C 815.658 1.93485 0.746872 0
M  V30 8989 C 816.083 0.834069 1.68597 0
M  V30 8990 O 815.441 -0.210902 1.80069 0
M  V30 8991 C 815.489 3.28463 1.4881 0
M  V30 8992 O 814.593 3.20051 2.60079 0
M  V30 8993 H 813.934 0.632675 0.201539 0
M  V30 8994 H 816.464 2.046 -0.00329815 0
M  V30 8995 H 816.474 3.63132 1.86009 0
M  V30 8996 H 815.149 4.08147 0.799297 0
M  V30 8997 H 813.726 2.96998 2.25492 0
M  V30 8998 N 815.911 -0.310526 1.54511 0
M  V30 8999 C 817.16 -1.0445 1.72549 0
M  V30 9000 C 817.473 -1.88748 0.513172 0
M  V30 9001 O 818.679 -2.65338 0.575165 0
M  V30 9002 C 817.135 -1.90665 3.05246 0
M  V30 9003 C 816.743 -1.11415 4.33925 0
M  V30 9004 C 818.487 -2.63719 3.32645 0
M  V30 9005 C 816.394 -1.96852 5.57677 0
M  V30 9006 H 815.324 -0.393676 0.643067 0
M  V30 9007 H 817.975 -0.302003 1.80998 0
M  V30 9008 H 816.357 -2.68864 2.90737 0
M  V30 9009 H 817.531 -0.378956 4.59239 0
M  V30 9010 H 815.846 -0.499853 4.13389 0
M  V30 9011 H 818.443 -3.27974 4.223 0
M  V30 9012 H 818.786 -3.32047 2.51098 0
M  V30 9013 H 819.319 -1.92574 3.48081 0
M  V30 9014 H 816.058 -1.33009 6.41864 0
M  V30 9015 H 815.578 -2.68069 5.36562 0
M  V30 9016 H 817.257 -2.55127 5.94575 0
M  V30 9017 N 817.389 -1.46805 -0.573248 0
M  V30 9018 C 818.321 -1.54127 -1.6964 0
M  V30 9019 C 819.334 -0.428778 -1.57052 0
M  V30 9020 O 820.523 -0.697612 -1.64303 0
M  V30 9021 C 817.623 -1.41438 -3.07975 0
M  V30 9022 C 816.796 -2.66974 -3.46474 0
M  V30 9023 C 815.855 -2.48349 -4.63906 0
M  V30 9024 O 814.881 -3.22109 -4.69292 0
M  V30 9025 N 816.083 -1.55129 -5.59388 0
M  V30 9026 H 818.848 -2.50971 -1.6381 0
M  V30 9027 H 816.409 -1.42981 -0.759479 0
M  V30 9028 H 818.401 -1.26737 -3.84343 0
M  V30 9029 H 816.971 -0.527388 -3.08119 0
M  V30 9030 H 816.191 -2.9655 -2.59715 0
M  V30 9031 H 817.479 -3.50347 -3.68964 0
M  V30 9032 H 816.877 -0.94324 -5.57781 0
M  V30 9033 H 815.434 -1.46387 -6.35149 0
M  V30 9034 N 818.867 0.818669 -1.34668 0
M  V30 9035 C 819.797 1.94468 -1.29245 0
M  V30 9036 C 820.778 1.69257 -0.169101 0
M  V30 9037 O 821.963 1.90794 -0.362143 0
M  V30 9038 C 819.093 3.31001 -1.05145 0
M  V30 9039 C 818.047 3.70663 -2.13992 0
M  V30 9040 C 817.373 5.05226 -1.75074 0
M  V30 9041 C 818.673 3.82312 -3.55858 0
M  V30 9042 H 820.367 1.99263 -2.2346 0
M  V30 9043 H 817.913 0.957304 -1.07572 0
M  V30 9044 H 819.866 4.09364 -0.999949 0
M  V30 9045 H 818.59 3.26517 -0.0737312 0
M  V30 9046 H 817.249 2.94578 -2.18219 0
M  V30 9047 H 816.897 4.97233 -0.759518 0
M  V30 9048 H 816.597 5.32734 -2.47928 0
M  V30 9049 H 818.121 5.86042 -1.71427 0
M  V30 9050 H 819.535 4.50935 -3.5402 0
M  V30 9051 H 817.932 4.21278 -4.2737 0
M  V30 9052 H 819.002 2.84193 -3.9289 0
M  V30 9053 N 820.346 1.18468 1.03938 0
M  V30 9054 C 821.276 0.936389 2.13902 0
M  V30 9055 C 822.257 -0.126381 1.6963 0
M  V30 9056 O 823.442 0.0264757 1.94182 0
M  V30 9057 C 820.572 0.462729 3.44204 0
M  V30 9058 C 819.526 1.46613 4.02105 0
M  V30 9059 C 818.852 0.84994 5.27902 0
M  V30 9060 C 820.152 2.84323 4.3813 0
M  V30 9061 H 821.846 1.85602 2.3493 0
M  V30 9062 H 819.392 0.893806 1.12903 0
M  V30 9063 H 821.345 0.276382 4.20493 0
M  V30 9064 H 820.069 -0.492477 3.22866 0
M  V30 9065 H 818.728 1.63944 3.27899 0
M  V30 9066 H 818.376 -0.112493 5.02874 0
M  V30 9067 H 818.076 1.51988 5.67603 0
M  V30 9068 H 819.6 0.674152 6.06867 0
M  V30 9069 H 821.014 2.70636 5.054 0
M  V30 9070 H 819.411 3.48012 4.88884 0
M  V30 9071 H 820.481 3.37776 3.47901 0
M  V30 9072 N 821.824 -1.22873 0.986916 0
M  V30 9073 C 822.756 -2.23889 0.490537 0
M  V30 9074 C 823.769 -1.57523 -0.411144 0
M  V30 9075 O 824.958 -1.7721 -0.214236 0
M  V30 9076 C 822.058 -3.37488 -0.30902 0
M  V30 9077 C 821.231 -4.33438 0.587354 0
M  V30 9078 C 820.29 -5.25958 -0.159467 0
M  V30 9079 O 819.316 -5.67394 0.453115 0
M  V30 9080 N 820.518 -5.62265 -1.44355 0
M  V30 9081 H 823.283 -2.67109 1.35914 0
M  V30 9082 H 820.844 -1.37111 0.860937 0
M  V30 9083 H 822.836 -3.96365 -0.817139 0
M  V30 9084 H 821.406 -2.934 -1.07868 0
M  V30 9085 H 820.626 -3.72969 1.27622 0
M  V30 9086 H 821.914 -4.94495 1.19801 0
M  V30 9087 H 821.312 -5.30562 -1.96266 0
M  V30 9088 H 819.869 -6.23585 -1.89698 0
M  V30 9089 N 823.302 -0.75937 -1.38099 0
M  V30 9090 C 824.55 -0.317485 -1.99591 0
M  V30 9091 C 824.871 1.10628 -1.60581 0
M  V30 9092 O 824.141 1.7575 -0.865378 0
M  V30 9093 H 822.721 -0.114397 -0.738189 0
M  V30 9094 H 825.383 -0.974749 -1.68774 0
M  V30 9095 H 824.479 -0.385227 -3.09713 0
M  V30 9096 N 824.78 1.49157 -0.508906 0
M  V30 9097 C 825.69 2.33045 0.269656 0
M  V30 9098 C 826.706 1.45143 0.959662 0
M  V30 9099 O 827.882 1.78155 0.939295 0
M  V30 9100 C 824.947 3.20772 1.31554 0
M  V30 9101 C 824.008 4.24531 0.638131 0
M  V30 9102 C 823.241 5.08065 1.63418 0
M  V30 9103 O 823.464 4.93238 2.86483 0
M  V30 9104 O 822.398 5.90117 1.18516 0
M  V30 9105 H 826.224 3.00821 -0.417183 0
M  V30 9106 H 823.809 1.46938 -0.270119 0
M  V30 9107 H 825.691 3.75095 1.92047 0
M  V30 9108 H 824.366 2.55681 1.98516 0
M  V30 9109 H 823.273 3.74099 -0.00674357 0
M  V30 9110 H 824.606 4.92199 0.0108155 0
M  V30 9111 N 826.258 0.243083 1.55714 0
M  V30 9112 C 827.504 -0.383287 1.99145 0
M  V30 9113 C 827.837 -1.57868 1.13098 0
M  V30 9114 O 827.112 -1.93535 0.193509 0
M  V30 9115 C 827.395 -0.796879 3.51172 0
M  V30 9116 C 827.248 0.403642 4.47985 0
M  V30 9117 C 828.567 -1.64525 4.08191 0
M  V30 9118 H 825.686 -0.137843 0.723995 0
M  V30 9119 H 828.328 0.343631 1.86867 0
M  V30 9120 H 826.478 -1.41625 3.61766 0
M  V30 9121 H 828.15 1.04204 4.49376 0
M  V30 9122 H 826.393 1.04741 4.20965 0
M  V30 9123 H 827.064 0.0709794 5.51954 0
M  V30 9124 H 829.54 -1.12246 4.00674 0
M  V30 9125 H 828.416 -1.9035 5.14838 0
M  V30 9126 H 828.677 -2.61582 3.56409 0
M  V30 9127 N 827.736 -1.57571 -0.0300757 0
M  V30 9128 C 828.964 -1.93485 -0.732891 0
M  V30 9129 C 829.379 -0.842758 -1.68947 0
M  V30 9130 O 828.736 0.180904 -1.81601 0
M  V30 9131 C 828.787 -3.29328 -1.49082 0
M  V30 9132 O 828.508 -4.34341 -0.572639 0
M  V30 9133 C 830.009 -3.79517 -2.29088 0
M  V30 9134 H 827.229 -0.638588 -0.206026 0
M  V30 9135 H 829.773 -2.04496 0.0120966 0
M  V30 9136 H 827.928 -3.19716 -2.1877 0
M  V30 9137 H 828.342 -5.12748 -1.10406 0
M  V30 9138 H 829.816 -4.77081 -2.77665 0
M  V30 9139 H 830.293 -3.10659 -3.10464 0
M  V30 9140 H 830.899 -3.92208 -1.64477 0
M  V30 9141 N 829.214 0.302327 -1.54673 0
M  V30 9142 C 830.46 1.03924 -1.74149 0
M  V30 9143 C 830.793 1.86968 -0.525041 0
M  V30 9144 O 830.068 1.88538 0.477868 0
M  V30 9145 C 830.351 1.94633 -3.02969 0
M  V30 9146 C 830.204 1.14778 -4.34909 0
M  V30 9147 C 831.523 2.93826 -3.27649 0
M  V30 9148 H 828.642 0.376405 -0.633631 0
M  V30 9149 H 831.284 0.314007 -1.87387 0
M  V30 9150 H 829.434 2.56471 -2.91813 0
M  V30 9151 H 831.106 0.552363 -4.57981 0
M  V30 9152 H 829.349 0.450462 -4.31455 0
M  V30 9153 H 830.02 1.81495 -5.21309 0
M  V30 9154 H 832.496 2.42117 -3.38406 0
M  V30 9155 H 831.372 3.54462 -4.19104 0
M  V30 9156 H 831.633 3.67416 -2.45882 0
M  V30 9157 N 830.692 1.47107 0.565454 0
M  V30 9158 C 831.602 1.61591 1.70075 0
M  V30 9159 C 832.618 0.498931 1.66693 0
M  V30 9160 O 833.794 0.765372 1.8629 0
M  V30 9161 C 830.859 1.61887 3.06583 0
M  V30 9162 C 829.92 2.84949 3.21096 0
M  V30 9163 C 829.153 2.85221 4.51093 0
M  V30 9164 O 829.376 1.94959 5.36048 0
M  V30 9165 O 828.31 3.76982 4.69221 0
M  V30 9166 H 832.136 2.57638 1.60799 0
M  V30 9167 H 829.721 1.30097 0.73451 0
M  V30 9168 H 831.603 1.64809 3.87835 0
M  V30 9169 H 830.278 0.69005 3.16259 0
M  V30 9170 H 829.185 2.87575 2.39273 0
M  V30 9171 H 830.518 3.77098 3.1632 0
M  V30 9172 N 832.17 -0.811516 1.35101 0
M  V30 9173 C 833.1 -1.9378 1.30275 0
M  V30 9174 C 834.081 -1.69165 0.178075 0
M  V30 9175 O 835.266 -1.90599 0.372256 0
M  V30 9176 C 832.396 -3.30439 1.06899 0
M  V30 9177 C 831.35 -3.69523 2.15955 0
M  V30 9178 C 830.676 -5.0429 1.77751 0
M  V30 9179 C 831.976 -3.80419 3.57881 0
M  V30 9180 H 833.67 -1.98075 2.24514 0
M  V30 9181 H 831.216 -0.951586 1.08078 0
M  V30 9182 H 833.169 -4.08828 1.02164 0
M  V30 9183 H 831.893 -3.26473 0.0910462 0
M  V30 9184 H 830.552 -2.93416 2.19778 0
M  V30 9185 H 830.2 -4.96823 0.785876 0
M  V30 9186 H 829.9 -5.31411 2.5075 0
M  V30 9187 H 831.424 -5.85125 1.74533 0
M  V30 9188 H 832.838 -4.49051 3.56407 0
M  V30 9189 H 831.235 -4.19005 4.29598 0
M  V30 9190 H 832.305 -2.82105 3.94391 0
M  V30 9191 N 833.648 -1.19017 -1.03309 0
M  V30 9192 C 834.894 -0.991681 -1.769 0
M  V30 9193 C 835.227 0.476813 -1.88255 0
M  V30 9194 O 834.502 1.35407 -1.39625 0
M  V30 9195 C 834.785 -1.65627 -3.19749 0
M  V30 9196 C 834.638 -3.19813 -3.1629 0
M  V30 9197 C 835.957 -1.37579 -4.18043 0
M  V30 9198 H 833.076 -0.361674 -0.642153 0
M  V30 9199 H 835.718 -1.46795 -1.20628 0
M  V30 9200 H 833.868 -1.25132 -3.67796 0
M  V30 9201 H 835.54 -3.69494 -2.76174 0
M  V30 9202 H 833.783 -3.51578 -2.54117 0
M  V30 9203 H 834.454 -3.61457 -4.17196 0
M  V30 9204 H 836.93 -1.72679 -3.78578 0
M  V30 9205 H 835.806 -1.86636 -5.16196 0
M  V30 9206 H 836.067 -0.300118 -4.4108 0
M  V30 9207 N 835.127 1.22348 -0.993418 0
M  V30 9208 C 836.09 2.22522 -0.549251 0
M  V30 9209 C 837.09 1.56529 0.368164 0
M  V30 9210 O 838.28 1.73463 0.16005 0
M  V30 9211 C 835.412 3.40307 0.201037 0
M  V30 9212 H 836.605 2.63332 -1.43515 0
M  V30 9213 H 834.158 1.35407 -0.78068 0
M  V30 9214 H 834.893 3.0497 1.10289 0
M  V30 9215 H 834.678 3.8942 -0.457685 0
M  V30 9216 H 836.168 4.14597 0.499946 0
M  V30 9217 N 836.605 0.766683 1.37694 0
M  V30 9218 C 837.515 0.150158 2.34119 0
M  V30 9219 C 838.531 -0.685513 1.59927 0
M  V30 9220 O 839.707 -0.606616 1.92047 0
M  V30 9221 C 836.772 -0.722562 3.39087 0
M  V30 9222 C 835.833 0.128983 4.29106 0
M  V30 9223 C 835.066 -0.702178 5.29061 0
M  V30 9224 O 835.289 -1.93954 5.36412 0
M  V30 9225 O 834.223 -0.114056 6.01792 0
M  V30 9226 H 838.049 0.946829 2.88563 0
M  V30 9227 H 835.634 0.527765 1.39768 0
M  V30 9228 H 837.516 -1.22095 4.03325 0
M  V30 9229 H 836.191 -1.49751 2.86978 0
M  V30 9230 H 835.098 0.673612 3.67985 0
M  V30 9231 H 836.431 0.866892 4.84506 0
M  V30 9232 N 838.083 -1.48885 0.516809 0
M  V30 9233 C 839.015 -2.27357 -0.290061 0
M  V30 9234 C 840.028 -1.34558 -0.916406 0
M  V30 9235 O 841.217 -1.59715 -0.797073 0
M  V30 9236 C 838.317 -3.07496 -1.42476 0
M  V30 9237 C 837.49 -4.27982 -0.902793 0
M  V30 9238 C 836.549 -4.90038 -1.91701 0
M  V30 9239 O 835.575 -5.49643 -1.47922 0
M  V30 9240 N 836.777 -4.811 -3.24843 0
M  V30 9241 H 839.542 -2.97244 0.382884 0
M  V30 9242 H 837.103 -1.58064 0.35032 0
M  V30 9243 H 839.095 -3.45882 -2.10113 0
M  V30 9244 H 837.665 -2.40115 -2.00159 0
M  V30 9245 H 836.885 -3.94167 -0.0508272 0
M  V30 9246 H 838.173 -5.06003 -0.532723 0
M  V30 9247 H 837.571 -4.33801 -3.63088 0
M  V30 9248 H 836.128 -5.23625 -3.8815 0
M  V30 9249 N 839.561 -0.251338 -1.55583 0
M  V30 9250 C 840.508 0.646337 -2.21565 0
M  V30 9251 C 841.478 1.16796 -1.18102 0
M  V30 9252 O 842.663 1.22162 -1.46564 0
M  V30 9253 C 839.803 1.83557 -2.92234 0
M  V30 9254 C 838.916 1.35006 -4.10363 0
M  V30 9255 C 838.051 2.4992 -4.68736 0
M  V30 9256 C 837.09 1.98253 -5.79105 0
M  V30 9257 N 836.227 3.06551 -6.31642 0
M  V30 9258 H 841.067 0.0769881 -2.97901 0
M  V30 9259 H 838.604 0.026238 -1.47077 0
M  V30 9260 H 840.562 2.53425 -3.31408 0
M  V30 9261 H 839.192 2.37733 -2.18364 0
M  V30 9262 H 838.244 0.545274 -3.76472 0
M  V30 9263 H 839.556 0.931435 -4.90026 0
M  V30 9264 H 838.71 3.27823 -5.10507 0
M  V30 9265 H 837.449 2.95086 -3.88298 0
M  V30 9266 H 836.454 1.18822 -5.36807 0
M  V30 9267 H 837.679 1.54051 -6.61396 0
M  V30 9268 H 835.625 3.51143 -5.54107 0
M  V30 9269 H 835.542 2.69033 -7.06511 0
M  V30 9270 H 836.81 3.84499 -6.78071 0
M  V30 9271 N 841.039 1.57585 0.0217189 0
M  V30 9272 C 841.987 2.08134 1.03842 0
M  V30 9273 C 842.981 0.996662 1.36978 0
M  V30 9274 O 844.187 1.18149 1.35797 0
M  V30 9275 H 840.562 0.664298 0.352438 0
M  V30 9276 H 842.533 2.92583 0.58634 0
M  V30 9277 C 841.282 2.58218 2.32849 0
M  V30 9278 H 840.605 3.41302 2.08214 0
M  V30 9279 H 842.045 2.97289 3.02316 0
M  V30 9280 C 840.504 1.48664 3.02325 0
M  V30 9281 O 841.034 0.857075 3.9245 0
M  V30 9282 N 839.24 1.21938 2.63779 0
M  V30 9283 H 838.787 1.73319 1.90574 0
M  V30 9284 H 838.745 0.488523 3.10581 0
M  V30 9285 N 842.517 -0.29412 1.54831 0
M  V30 9286 C 843.449 -1.38476 1.82639 0
M  V30 9287 C 844.462 -1.46517 0.709694 0
M  V30 9288 O 845.651 -1.48712 0.987269 0
M  V30 9289 C 842.751 -2.76791 1.95551 0
M  V30 9290 C 841.924 -2.91599 3.26019 0
M  V30 9291 C 840.983 -4.10456 3.29261 0
M  V30 9292 O 840.009 -4.02214 4.02756 0
M  V30 9293 N 841.211 -5.21422 2.55145 0
M  V30 9294 H 843.976 -1.14974 2.76769 0
M  V30 9295 H 841.537 -0.484206 1.5449 0
M  V30 9296 H 843.529 -3.5456 1.95113 0
M  V30 9297 H 842.099 -2.93209 1.08384 0
M  V30 9298 H 841.319 -2.00886 3.39173 0
M  V30 9299 H 842.607 -2.98409 4.12104 0
M  V30 9300 H 842.005 -5.31 1.95078 0
M  V30 9301 H 840.562 -5.97501 2.60454 0
M  V30 9302 N 843.995 -1.47404 -0.557645 0
M  V30 9303 C 845.223 -1.57622 -1.34026 0
M  V30 9304 C 845.638 -0.226256 -1.87439 0
M  V30 9305 O 844.995 0.78043 -1.64971 0
M  V30 9306 C 845.046 -2.60111 -2.51047 0
M  V30 9307 O 844.767 -3.89866 -1.99841 0
M  V30 9308 C 846.268 -2.80508 -3.43264 0
M  V30 9309 H 843.488 -0.532271 -0.40857 0
M  V30 9310 H 846.032 -1.93019 -0.675555 0
M  V30 9311 H 844.187 -2.27648 -3.13457 0
M  V30 9312 H 844.601 -4.45864 -2.76234 0
M  V30 9313 H 846.075 -3.56084 -4.21792 0
M  V30 9314 H 846.552 -1.88314 -3.9678 0
M  V30 9315 H 847.158 -3.14166 -2.86671 0
M  V30 9316 N 845.473 0.80434 -1.35529 0
M  V30 9317 C 846.403 1.93086 -1.31301 0
M  V30 9318 C 847.384 1.69068 -0.187044 0
M  V30 9319 O 848.569 1.90399 -0.382359 0
M  V30 9320 C 845.699 3.29867 -1.0865 0
M  V30 9321 C 844.653 3.68373 -2.17911 0
M  V30 9322 C 843.979 5.0334 -1.80423 0
M  V30 9323 C 845.279 3.78516 -3.59893 0
M  V30 9324 H 846.973 1.96882 -2.25561 0
M  V30 9325 H 844.519 0.945841 -1.08581 0
M  V30 9326 H 846.472 4.08281 -1.04331 0
M  V30 9327 H 845.196 3.2642 -0.108359 0
M  V30 9328 H 843.855 2.92247 -2.21331 0
M  V30 9329 H 843.503 4.96399 -0.812213 0
M  V30 9330 H 843.203 5.30074 -2.53565 0
M  V30 9331 H 844.727 5.84191 -1.77633 0
M  V30 9332 H 846.141 4.47155 -3.58783 0
M  V30 9333 H 844.538 4.16721 -4.31814 0
M  V30 9334 H 845.608 2.8001 -3.95882 0
M  V30 9335 N 846.951 1.19563 1.02676 0
M  V30 9336 C 848.367 0.948304 1.28372 0
M  V30 9337 C 848.567 -0.378096 1.97921 0
M  V30 9338 O 847.623 -1.1091 2.26838 0
M  V30 9339 C 848.936 2.12381 2.12873 0
M  V30 9340 C 850.484 2.16366 2.26174 0
M  V30 9341 C 850.959 3.33374 3.14048 0
M  V30 9342 N 852.45 3.33323 3.21636 0
M  V30 9343 C 853.185 4.20504 3.89825 0
M  V30 9344 N 852.681 5.17845 4.60227 0
M  V30 9345 N 854.474 4.08375 3.86246 0
M  V30 9346 H 846.625 2.04899 0.559485 0
M  V30 9347 H 848.888 0.89606 0.309484 0
M  V30 9348 H 848.594 3.08383 1.69094 0
M  V30 9349 H 848.468 2.09621 3.1359 0
M  V30 9350 H 850.855 1.20933 2.69182 0
M  V30 9351 H 850.936 2.23179 1.25 0
M  V30 9352 H 850.58 4.29087 2.71747 0
M  V30 9353 H 850.51 3.23798 4.15286 0
M  V30 9354 H 853.001 2.62863 2.71498 0
M  V30 9355 H 853.314 5.80712 5.09896 0
M  V30 9356 H 851.659 5.21791 4.59085 0
M  V30 9357 H 854.85 3.31606 3.30386 0
M  V30 9358 H 855.023 4.76532 4.39114 0
M  V30 9359 N 848.429 -1.21819 0.999893 0
M  V30 9360 C 849.339 -2.27691 0.565159 0
M  V30 9361 C 850.355 -1.69587 -0.389398 0
M  V30 9362 O 851.531 -1.99786 -0.254499 0
M  V30 9363 C 848.596 -3.46537 -0.106432 0
M  V30 9364 C 847.657 -4.19932 0.891964 0
M  V30 9365 C 846.89 -5.33103 0.252327 0
M  V30 9366 O 847.113 -5.62398 -0.952103 0
M  V30 9367 O 846.047 -5.94184 0.960698 0
M  V30 9368 H 849.873 -2.67059 1.44613 0
M  V30 9369 H 847.458 -1.28119 0.768499 0
M  V30 9370 H 849.34 -4.18631 -0.482301 0
M  V30 9371 H 848.015 -3.09079 -0.961865 0
M  V30 9372 H 846.922 -3.5008 1.3189 0
M  V30 9373 H 848.255 -4.61287 1.71682 0
M  V30 9374 N 849.908 -0.773975 -1.37286 0
M  V30 9375 C 851.156 -0.338636 -1.99243 0
M  V30 9376 C 851.477 1.08919 -1.61746 0
M  V30 9377 O 850.747 1.74822 -0.88397 0
M  V30 9378 H 849.327 -0.12222 -0.736934 0
M  V30 9379 H 851.989 -0.992595 -1.67731 0
M  V30 9380 H 851.085 -0.418055 -3.09287 0
M  V30 9381 N 851.386 1.48609 -0.524698 0
M  V30 9382 C 852.296 2.33318 0.244923 0
M  V30 9383 C 853.312 1.46153 0.944214 0
M  V30 9384 O 854.488 1.79141 0.920347 0
M  V30 9385 C 851.553 3.22149 1.28144 0
M  V30 9386 C 850.614 4.25184 0.593068 0
M  V30 9387 C 849.847 5.0977 1.5802 0
M  V30 9388 O 850.07 4.96249 2.81235 0
M  V30 9389 O 849.004 5.9134 1.1225 0
M  V30 9390 H 852.83 3.00362 -0.449066 0
M  V30 9391 H 850.415 1.46643 -0.285689 0
M  V30 9392 H 852.297 3.77111 1.88057 0
M  V30 9393 H 850.972 2.57772 1.95793 0
M  V30 9394 H 849.879 3.74071 -0.0464214 0
M  V30 9395 H 851.212 4.92183 -0.0413893 0
M  V30 9396 N 852.864 0.259585 1.55447 0
M  V30 9397 C 853.811 -0.634578 2.21905 0
M  V30 9398 C 854.781 -1.16168 1.18719 0
M  V30 9399 O 855.966 -1.21383 1.4721 0
M  V30 9400 C 853.106 -1.82005 2.93203 0
M  V30 9401 C 852.219 -1.32828 4.11073 0
M  V30 9402 C 851.354 -2.47431 4.70055 0
M  V30 9403 C 850.393 -1.95179 5.80148 0
M  V30 9404 N 849.53 -3.03197 6.33258 0
M  V30 9405 H 854.37 -0.0611886 2.97937 0
M  V30 9406 H 851.907 -0.0184378 1.47088 0
M  V30 9407 H 853.865 -2.51664 3.32748 0
M  V30 9408 H 852.495 -2.36571 2.19622 0
M  V30 9409 H 851.547 -0.525301 3.76756 0
M  V30 9410 H 852.859 -0.905435 4.90513 0
M  V30 9411 H 852.013 -3.25111 5.12238 0
M  V30 9412 H 850.752 -2.93023 3.89857 0
M  V30 9413 H 849.757 -1.15974 5.37429 0
M  V30 9414 H 850.982 -1.50541 6.62204 0
M  V30 9415 H 848.928 -3.48199 5.55961 0
M  V30 9416 H 848.845 -2.65282 7.07928 0
M  V30 9417 H 850.113 -3.80898 6.80101 0
M  V30 9418 N 854.342 -1.57594 -0.0133615 0
M  V30 9419 C 855.275 -2.02991 -1.04259 0
M  V30 9420 C 856.253 -0.917193 -1.34262 0
M  V30 9421 O 857.437 -1.18428 -1.46653 0
M  V30 9422 C 854.564 -2.41624 -2.37351 0
M  V30 9423 C 853.61 -3.63495 -2.231 0
M  V30 9424 S 854.443 -5.1198 -1.5696 0
M  V30 9425 C 855.599 -5.5387 -2.91511 0
M  V30 9426 H 855.832 -2.89973 -0.655985 0
M  V30 9427 H 853.365 -1.52769 -0.223827 0
M  V30 9428 H 855.323 -2.64551 -3.13884 0
M  V30 9429 H 853.984 -1.55065 -2.73155 0
M  V30 9430 H 853.177 -3.88233 -3.21389 0
M  V30 9431 H 852.779 -3.405 -1.54711 0
M  V30 9432 H 855.071 -5.55514 -3.87828 0
M  V30 9433 H 856.014 -6.53988 -2.71488 0
M  V30 9434 H 856.422 -4.81404 -2.94806 0
M  V30 9435 N 855.82 0.285905 -1.54985 0
M  V30 9436 C 856.752 1.37505 -1.83371 0
M  V30 9437 C 857.765 1.46138 -0.717454 0
M  V30 9438 O 858.954 1.48186 -0.995142 0
M  V30 9439 C 856.054 2.7575 -1.97016 0
M  V30 9440 C 855.227 2.89866 -3.27561 0
M  V30 9441 C 854.286 4.08704 -3.31433 0
M  V30 9442 O 853.312 4.00073 -4.04883 0
M  V30 9443 N 854.514 5.20062 -2.57907 0
M  V30 9444 H 857.279 1.13505 -2.77375 0
M  V30 9445 H 854.84 0.476006 -1.54744 0
M  V30 9446 H 856.832 3.5352 -1.96991 0
M  V30 9447 H 855.402 2.9263 -1.09938 0
M  V30 9448 H 854.622 1.99085 -3.40234 0
M  V30 9449 H 855.91 2.96219 -4.13681 0
M  V30 9450 H 855.308 5.29958 -1.97891 0
M  V30 9451 H 853.865 5.96111 -2.63619 0
M  V30 9452 N 857.298 1.47698 0.54982 0
M  V30 9453 C 858.228 1.63622 1.66583 0
M  V30 9454 C 859.209 0.485477 1.63025 0
M  V30 9455 O 860.394 0.715692 1.80531 0
M  V30 9456 C 857.524 1.65721 3.05211 0
M  V30 9457 C 856.478 2.80097 3.2362 0
M  V30 9458 C 855.804 2.67272 4.63109 0
M  V30 9459 C 857.104 4.21612 3.08286 0
M  V30 9460 H 858.798 2.57049 1.53512 0
M  V30 9461 H 856.344 1.23705 0.737099 0
M  V30 9462 H 858.297 1.75451 3.83138 0
M  V30 9463 H 857.021 0.688593 3.19258 0
M  V30 9464 H 855.68 2.69889 2.48104 0
M  V30 9465 H 855.328 1.68422 4.73965 0
M  V30 9466 H 855.028 3.44008 4.76374 0
M  V30 9467 H 856.552 2.78942 5.43161 0
M  V30 9468 H 857.966 4.32758 3.76024 0
M  V30 9469 H 856.363 4.99193 3.33057 0
M  V30 9470 H 857.433 4.39462 2.04942 0
M  V30 9471 N 858.776 -0.797141 1.35954 0
M  V30 9472 C 860.187 -1.37179 1.26644 0
M  V30 9473 C 860.538 -1.9596 -0.0971046 0
M  V30 9474 O 859.663 -1.91994 -0.998355 0
M  V30 9475 C 860.258 -2.49395 2.2932 0
M  V30 9476 C 858.817 -3.02697 2.23722 0
M  V30 9477 C 857.964 -1.75721 2.14517 0
M  V30 9478 H 860.915 -0.599407 1.46945 0
M  V30 9479 H 860.936 -3.28204 1.92515 0
M  V30 9480 H 860.448 -2.06584 3.2855 0
M  V30 9481 H 858.549 -3.49948 1.27934 0
M  V30 9482 H 858.662 -3.60036 3.16087 0
M  V30 9483 H 857.026 -1.97649 1.60646 0
M  V30 9484 H 857.809 -1.35049 3.15621 0
M  V30 9485 N 860.254 -1.20106 -1.0204 0
M  V30 9486 C 861.217 -0.948261 -2.08664 0
M  V30 9487 C 862.217 0.0746753 -1.60627 0
M  V30 9488 O 863.407 -0.160981 -1.73455 0
M  V30 9489 C 860.539 -0.426854 -3.38217 0
M  V30 9490 H 861.732 -1.894 -2.32524 0
M  V30 9491 H 859.285 -1.0159 -1.18782 0
M  V30 9492 H 860.02 0.524532 -3.2003 0
M  V30 9493 H 859.805 -1.16451 -3.74408 0
M  V30 9494 H 861.295 -0.269346 -4.1673 0
M  V30 9495 N 861.732 1.21287 -1.00634 0
M  V30 9496 C 862.98 1.90013 -0.688438 0
M  V30 9497 C 863.301 1.78573 0.783365 0
M  V30 9498 O 862.571 1.1815 1.56261 0
M  V30 9499 H 861.151 0.703336 -0.251648 0
M  V30 9500 H 863.813 1.47346 -1.27574 0
M  V30 9501 H 862.909 2.96879 -0.962781 0
M  V30 9502 N 863.21 0.781244 1.36873 0
M  V30 9503 C 864.12 0.174981 2.33947 0
M  V30 9504 C 865.136 -0.668512 1.60645 0
M  V30 9505 O 866.312 -0.586213 1.9268 0
M  V30 9506 C 863.377 -0.686557 3.39834 0
M  V30 9507 C 862.438 0.174489 4.28945 0
M  V30 9508 C 861.671 -0.646024 5.29776 0
M  V30 9509 O 861.894 -1.88254 5.38439 0
M  V30 9510 O 860.828 -0.0502214 6.01879 0
M  V30 9511 H 864.654 0.977382 2.87543 0
M  V30 9512 H 862.239 0.542559 1.392 0
M  V30 9513 H 864.121 -1.1781 4.04597 0
M  V30 9514 H 862.796 -1.46699 2.8855 0
M  V30 9515 H 861.703 0.712604 3.6725 0
M  V30 9516 H 863.036 0.918232 4.83559 0
M  V30 9517 N 864.689 -1.48329 0.532571 0
M  V30 9518 C 865.919 -2.066 0.00353785 0
M  V30 9519 C 866.327 -1.38913 -1.28451 0
M  V30 9520 O 865.67 -0.471385 -1.77549 0
M  V30 9521 C 865.732 -3.58342 -0.288324 0
M  V30 9522 C 865.396 -4.47917 0.906631 0
M  V30 9523 C 866.393 -4.87534 1.80572 0
M  V30 9524 C 864.078 -4.89783 1.11436 0
M  V30 9525 C 866.072 -5.6779 2.89642 0
M  V30 9526 C 863.759 -5.69809 2.20819 0
M  V30 9527 C 864.757 -6.08721 3.09755 0
M  V30 9528 O 864.445 -6.8714 4.17246 0
M  V30 9529 H 864.177 -0.675263 0.0315661 0
M  V30 9530 H 866.731 -1.91669 0.738375 0
M  V30 9531 H 864.961 -3.71395 -1.07717 0
M  V30 9532 H 866.65 -3.98726 -0.759752 0
M  V30 9533 H 867.416 -4.5581 1.65719 0
M  V30 9534 H 863.295 -4.58977 0.431382 0
M  V30 9535 H 866.839 -5.98082 3.59087 0
M  V30 9536 H 862.736 -6.00947 2.35655 0
M  V30 9537 H 863.504 -7.05498 4.14988 0
M  V30 9538 N 866.167 -0.267825 -1.55308 0
M  V30 9539 C 867.117 0.637168 -2.18916 0
M  V30 9540 C 868.101 1.12381 -1.15149 0
M  V30 9541 O 869.293 1.0701 -1.40989 0
M  V30 9542 C 866.422 1.82423 -2.90821 0
M  V30 9543 C 865.508 1.35512 -4.01867 0
M  V30 9544 N 865.899 0.601644 -5.02209 0
M  V30 9545 C 864.197 1.63868 -4.14805 0
M  V30 9546 C 864.898 0.35596 -5.8061 0
M  V30 9547 N 863.874 0.926271 -5.3565 0
M  V30 9548 H 867.676 0.0535787 -2.93851 0
M  V30 9549 H 865.19 -0.0710577 -1.62244 0
M  V30 9550 H 867.187 2.48379 -3.34834 0
M  V30 9551 H 865.847 2.41185 -2.17394 0
M  V30 9552 H 866.858 0.249693 -5.17298 0
M  V30 9553 H 863.535 2.23618 -3.52564 0
M  V30 9554 H 864.925 -0.246994 -6.71446 0
M  V30 9555 N 867.645 1.57599 0.00500368 0
M  V30 9556 C 868.592 2.08106 0.998025 0
M  V30 9557 C 869.562 0.975374 1.34446 0
M  V30 9558 O 870.747 1.24749 1.44369 0
M  V30 9559 C 867.887 2.58496 2.28635 0
M  V30 9560 C 867 3.82947 1.99939 0
M  V30 9561 C 866.135 4.21857 3.22816 0
M  V30 9562 C 865.174 5.39159 2.89783 0
M  V30 9563 N 864.311 5.73386 4.05183 0
M  V30 9564 H 869.151 2.92684 0.560385 0
M  V30 9565 H 866.688 1.44692 0.265053 0
M  V30 9566 H 868.646 2.85787 3.03943 0
M  V30 9567 H 867.276 1.768 2.70077 0
M  V30 9568 H 866.328 3.62594 1.1502 0
M  V30 9569 H 867.64 4.68358 1.71588 0
M  V30 9570 H 866.794 4.50404 4.06474 0
M  V30 9571 H 865.533 3.35145 3.54301 0
M  V30 9572 H 864.538 5.1034 2.04532 0
M  V30 9573 H 865.763 6.27543 2.59551 0
M  V30 9574 H 863.709 4.89632 4.36574 0
M  V30 9575 H 863.626 6.53359 3.80339 0
M  V30 9576 H 864.894 6.06522 4.89644 0
M  V30 9577 N 869.123 -0.277682 1.55134 0
M  V30 9578 C 870.369 -1.0114 1.7578 0
M  V30 9579 C 870.702 -1.86109 0.554719 0
M  V30 9580 O 869.977 -1.89275 -0.447813 0
M  V30 9581 C 870.26 -1.89789 3.06027 0
M  V30 9582 C 870.113 -1.07844 4.3668 0
M  V30 9583 C 871.432 -2.88577 3.32282 0
M  V30 9584 H 868.551 -0.366277 0.639539 0
M  V30 9585 H 871.193 -0.284155 1.87863 0
M  V30 9586 H 869.343 -2.51796 2.95856 0
M  V30 9587 H 871.015 -0.479432 4.58802 0
M  V30 9588 H 869.258 -0.381764 4.32117 0
M  V30 9589 H 869.929 -1.73179 5.24131 0
M  V30 9590 H 872.405 -2.36702 3.42215 0
M  V30 9591 H 871.281 -3.47749 4.2469 0
M  V30 9592 H 871.542 -3.63458 2.51696 0
M  V30 9593 N 870.601 -1.47988 -0.541979 0
M  V30 9594 C 871.831 -1.58804 -1.32155 0
M  V30 9595 C 872.239 -0.242893 -1.87634 0
M  V30 9596 O 871.582 0.776239 -1.66494 0
M  V30 9597 C 871.644 -2.56567 -2.51821 0
M  V30 9598 C 871.308 -4.01915 -2.17517 0
M  V30 9599 C 872.305 -4.89954 -1.73901 0
M  V30 9600 C 869.99 -4.47365 -2.28408 0
M  V30 9601 C 871.984 -6.21467 -1.41625 0
M  V30 9602 C 869.671 -5.78902 -1.95745 0
M  V30 9603 C 870.669 -6.65775 -1.52423 0
M  V30 9604 O 870.357 -7.94866 -1.20183 0
M  V30 9605 H 870.089 -0.538536 -0.408601 0
M  V30 9606 H 872.643 -1.94446 -0.661818 0
M  V30 9607 H 870.873 -2.16023 -3.20735 0
M  V30 9608 H 872.562 -2.57347 -3.13891 0
M  V30 9609 H 873.328 -4.56082 -1.64966 0
M  V30 9610 H 869.207 -3.79942 -2.61084 0
M  V30 9611 H 872.751 -6.8923 -1.07738 0
M  V30 9612 H 868.648 -6.12311 -2.04316 0
M  V30 9613 H 869.416 -8.07509 -1.33683 0
M  V30 9614 N 872.079 0.78992 -1.36375 0
M  V30 9615 C 873.307 1.57873 -1.3373 0
M  V30 9616 C 873.722 1.88624 0.0815544 0
M  V30 9617 O 873.079 1.50085 1.03831 0
M  V30 9618 C 873.13 2.90003 -2.15825 0
M  V30 9619 O 872.851 2.60578 -3.5218 0
M  V30 9620 C 874.352 3.84309 -2.20955 0
M  V30 9621 H 871.572 0.489685 -0.458748 0
M  V30 9622 H 874.116 0.980436 -1.79465 0
M  V30 9623 H 872.271 3.46303 -1.73646 0
M  V30 9624 H 872.685 3.4506 -3.95011 0
M  V30 9625 H 874.159 4.74081 -2.82756 0
M  V30 9626 H 874.636 4.22121 -1.21287 0
M  V30 9627 H 875.242 3.33942 -2.63368 0
M  V30 9628 N 873.557 1.20646 1.01402 0
M  V30 9629 C 874.785 1.04389 1.78635 0
M  V30 9630 C 875.2 -0.406771 1.84366 0
M  V30 9631 O 874.557 -1.28239 1.2985 0
M  V30 9632 C 874.608 1.62378 3.22979 0
M  V30 9633 O 874.329 3.01768 3.17597 0
M  V30 9634 C 875.83 1.5111 4.1675 0
M  V30 9635 H 873.05 0.367077 0.56169 0
M  V30 9636 H 875.594 1.59789 1.27624 0
M  V30 9637 H 873.749 1.11092 3.7113 0
M  V30 9638 H 874.163 3.29331 4.08217 0
M  V30 9639 H 875.637 1.96441 5.15863 0
M  V30 9640 H 876.114 0.464011 4.36742 0
M  V30 9641 H 876.72 2.01599 3.74483 0
M  V30 9642 N 875.035 -1.20752 1.01276 0
M  V30 9643 C 876.26 -1.94547 0.718769 0
M  V30 9644 C 876.685 -1.7404 -0.713563 0
M  V30 9645 O 876.043 -1.03221 -1.49047 0
M  V30 9646 C 876.091 -3.44823 1.05497 0
M  V30 9647 O 875.195 -4.12072 0.164516 0
M  V30 9648 H 874.536 -0.607931 0.267051 0
M  V30 9649 H 877.066 -1.53292 1.35509 0
M  V30 9650 H 877.076 -3.95427 1.00507 0
M  V30 9651 H 875.751 -3.59072 2.09858 0
M  V30 9652 H 874.328 -3.71909 0.271615 0
M  V30 9653 N 876.513 -0.788492 -1.36457 0
M  V30 9654 C 877.924 -0.423742 -1.81828 0
M  V30 9655 C 878.275 1.05221 -1.65599 0
M  V30 9656 O 877.4 1.8163 -1.17641 0
M  V30 9657 C 877.995 -0.762354 -3.30112 0
M  V30 9658 C 876.554 -0.450445 -3.73695 0
M  V30 9659 C 875.701 -0.997482 -2.58738 0
M  V30 9660 H 878.652 -0.981718 -1.24692 0
M  V30 9661 H 878.673 -0.0531136 -3.80463 0
M  V30 9662 H 878.185 -1.83662 -3.41891 0
M  V30 9663 H 876.286 0.615829 -3.67476 0
M  V30 9664 H 876.399 -0.970408 -4.69169 0
M  V30 9665 H 874.763 -0.420761 -2.51201 0
M  V30 9666 H 875.546 -2.07749 -2.73304 0
M  V30 9667 N 877.991 1.48044 -0.54043 0
M  V30 9668 C 879.216 2.07396 -0.0124765 0
M  V30 9669 C 879.641 1.39288 1.26414 0
M  V30 9670 O 878.999 0.462252 1.75308 0
M  V30 9671 C 879.047 3.60131 0.18377 0
M  V30 9672 O 878.151 3.92995 1.25014 0
M  V30 9673 H 877.492 0.662554 -0.0438026 0
M  V30 9674 H 880.022 1.90306 -0.751327 0
M  V30 9675 H 880.032 4.06003 0.403197 0
M  V30 9676 H 878.707 4.09105 -0.74874 0
M  V30 9677 H 877.284 3.5889 1.01254 0
M  V30 9678 N 879.47 0.276058 1.55163 0
M  V30 9679 C 880.881 -0.221516 1.85381 0
M  V30 9680 C 881.232 -1.55372 1.19808 0
M  V30 9681 O 880.357 -2.10855 0.486742 0
M  V30 9682 C 880.952 -0.408706 3.36326 0
M  V30 9683 C 879.511 -0.850512 3.66665 0
M  V30 9684 C 878.658 0.055656 2.77244 0
M  V30 9685 H 881.609 0.497819 1.5069 0
M  V30 9686 H 881.63 -1.24711 3.59482 0
M  V30 9687 H 881.142 0.561052 3.84023 0
M  V30 9688 H 879.243 -1.83171 3.24468 0
M  V30 9689 H 879.356 -0.687181 4.74146 0
M  V30 9690 H 877.72 -0.460819 2.50497 0
M  V30 9691 H 878.503 1.02131 3.27756 0
M  V30 9692 N 880.948 -1.576 0.00335426 0
M  V30 9693 C 882.173 -1.95398 -0.695311 0
M  V30 9694 C 882.598 -0.878476 -1.66326 0
M  V30 9695 O 881.956 0.163086 -1.80565 0
M  V30 9696 C 882.004 -3.32293 -1.40049 0
M  V30 9697 O 881.108 -3.26834 -2.51502 0
M  V30 9698 H 880.449 -0.637796 -0.184694 0
M  V30 9699 H 882.979 -2.04519 0.057543 0
M  V30 9700 H 882.989 -3.67936 -1.76316 0
M  V30 9701 H 881.664 -4.10123 -0.690803 0
M  V30 9702 H 880.241 -3.02872 -2.17539 0
M  V30 9703 N 882.426 0.269451 -1.5528 0
M  V30 9704 C 883.666 1.00819 -1.77806 0
M  V30 9705 C 884.03 1.83369 -0.569198 0
M  V30 9706 O 885.231 2.60244 -0.672783 0
M  V30 9707 C 883.502 1.86447 -3.04913 0
M  V30 9708 S 885.061 2.66538 -3.48573 0
M  V30 9709 H 881.879 0.339508 -0.624704 0
M  V30 9710 H 884.481 0.278256 -1.9351 0
M  V30 9711 H 883.185 1.24733 -3.90986 0
M  V30 9712 H 882.716 2.63755 -2.91885 0
M  V30 9713 H 884.731 3.88938 -3.08126 0
M  V30 9714 N 883.904 1.48273 0.534124 0
M  V30 9715 C 885.134 1.59503 1.31311 0
M  V30 9716 C 885.542 0.25284 1.87503 0
M  V30 9717 O 884.885 -0.767399 1.66903 0
M  V30 9718 C 884.947 2.57899 2.50456 0
M  V30 9719 C 884.611 4.03063 2.15382 0
M  V30 9720 C 885.608 4.90869 1.713 0
M  V30 9721 C 883.293 4.4857 2.26032 0
M  V30 9722 C 885.287 6.22209 1.38328 0
M  V30 9723 C 882.974 5.79932 1.92672 0
M  V30 9724 C 883.972 6.66574 1.4889 0
M  V30 9725 O 883.66 7.95492 1.15966 0
M  V30 9726 H 883.392 0.540695 0.405739 0
M  V30 9727 H 885.946 1.94794 0.651497 0
M  V30 9728 H 884.176 2.1772 3.19585 0
M  V30 9729 H 885.865 2.59008 3.12522 0
M  V30 9730 H 886.631 4.56951 1.62545 0
M  V30 9731 H 882.51 3.81321 2.59066 0
M  V30 9732 H 886.054 6.89792 1.04082 0
M  V30 9733 H 881.951 6.13386 2.01066 0
M  V30 9734 H 882.719 8.08207 1.29399 0
M  V30 9735 N 885.382 -0.782676 1.36792 0
M  V30 9736 C 886.315 -1.90241 1.2603 0
M  V30 9737 C 887.293 -1.61969 0.143055 0
M  V30 9738 O 888.477 -1.85843 0.315366 0
M  V30 9739 C 885.604 -3.25218 0.946082 0
M  V30 9740 C 884.65 -3.72414 2.0787 0
M  V30 9741 S 885.483 -3.87376 3.69729 0
M  V30 9742 C 886.639 -5.25219 3.40435 0
M  V30 9743 H 886.872 -1.99079 2.20805 0
M  V30 9744 H 884.405 -0.942625 1.22286 0
M  V30 9745 H 886.363 -4.03183 0.771612 0
M  V30 9746 H 885.024 -3.14096 0.0159991 0
M  V30 9747 H 884.217 -4.7024 1.81358 0
M  V30 9748 H 883.819 -3.01519 2.21274 0
M  V30 9749 H 886.111 -6.10025 2.94746 0
M  V30 9750 H 887.054 -5.56738 4.37549 0
M  V30 9751 H 887.462 -4.92638 2.75622 0
M  V30 9752 N 886.86 -1.21182 -1.00761 0
M  V30 9753 C 888.09 -1.05182 -1.77821 0
M  V30 9754 C 888.498 0.401527 -1.8489 0
M  V30 9755 O 887.841 1.29042 -1.30743 0
M  V30 9756 C 887.903 -1.57066 -3.23374 0
M  V30 9757 C 887.567 -3.05491 -3.39889 0
M  V30 9758 C 888.564 -4.03065 -3.28381 0
M  V30 9759 C 886.249 -3.44641 -3.65415 0
M  V30 9760 C 888.243 -5.37778 -3.4216 0
M  V30 9761 C 885.93 -4.79507 -3.78836 0
M  V30 9762 C 886.928 -5.75884 -3.67214 0
M  V30 9763 O 886.616 -7.08304 -3.80212 0
M  V30 9764 H 886.348 -0.369983 -0.565763 0
M  V30 9765 H 888.902 -1.60914 -1.27655 0
M  V30 9766 H 887.132 -0.957273 -3.74664 0
M  V30 9767 H 888.821 -1.36949 -3.82099 0
M  V30 9768 H 889.587 -3.74163 -3.08588 0
M  V30 9769 H 885.466 -2.7016 -3.73544 0
M  V30 9770 H 889.01 -6.12987 -3.33005 0
M  V30 9771 H 884.907 -5.08096 -3.98132 0
M  V30 9772 H 885.675 -7.15677 -3.97175 0
M  V30 9773 N 888.338 1.20213 -1.01915 0
M  V30 9774 C 889.584 1.89928 -0.711007 0
M  V30 9775 C 889.917 1.7881 0.75767 0
M  V30 9776 O 889.192 1.17399 1.55073 0
M  V30 9777 C 889.475 3.41225 -1.15053 0
M  V30 9778 C 889.328 3.61264 -2.67971 0
M  V30 9779 C 890.647 4.34108 -0.72377 0
M  V30 9780 H 887.766 0.689702 -0.259768 0
M  V30 9781 H 890.408 1.41557 -1.26734 0
M  V30 9782 H 888.558 3.82552 -0.677199 0
M  V30 9783 H 890.23 3.29173 -3.23176 0
M  V30 9784 H 888.473 3.04647 -3.08824 0
M  V30 9785 H 889.144 4.67331 -2.93779 0
M  V30 9786 H 891.62 4.00442 -1.13073 0
M  V30 9787 H 890.496 5.38581 -1.05931 0
M  V30 9788 H 890.757 4.40512 0.374424 0
M  V30 9789 N 889.816 0.795718 1.36037 0
M  V30 9790 C 891.046 0.382597 2.03026 0
M  V30 9791 C 891.454 -1.00779 1.60126 0
M  V30 9792 O 890.797 -1.65884 0.78919 0
M  V30 9793 C 890.859 0.374145 3.57548 0
M  V30 9794 C 890.523 1.71318 4.23673 0
M  V30 9795 C 891.52 2.6697 4.4612 0
M  V30 9796 C 889.205 1.99421 4.61017 0
M  V30 9797 C 891.199 3.88916 5.04998 0
M  V30 9798 C 888.886 3.21632 5.19611 0
M  V30 9799 C 889.884 4.16198 5.41542 0
M  V30 9800 O 889.572 5.36254 5.98905 0
M  V30 9801 H 889.304 0.154944 0.658003 0
M  V30 9802 H 891.858 1.07756 1.74865 0
M  V30 9803 H 890.088 -0.377349 3.84854 0
M  V30 9804 H 891.777 -0.01517 4.05897 0
M  V30 9805 H 892.543 2.46548 4.17659 0
M  V30 9806 H 888.422 1.2663 4.43267 0
M  V30 9807 H 891.966 4.6274 5.22032 0
M  V30 9808 H 887.863 3.4193 5.47498 0
M  V30 9809 H 888.631 5.37403 6.17366 0
M  V30 9810 N 891.294 -1.47756 0.548274 0
M  V30 9811 C 892.54 -2.02789 0.0209265 0
M  V30 9812 C 892.873 -1.42268 -1.32187 0
M  V30 9813 O 892.148 -0.575001 -1.85806 0
M  V30 9814 C 892.431 -3.60007 -0.0816674 0
M  V30 9815 C 892.284 -4.30977 1.28759 0
M  V30 9816 C 893.603 -4.32777 -0.799515 0
M  V30 9817 H 890.722 -0.736944 0.00907884 0
M  V30 9818 H 893.364 -1.76282 0.708839 0
M  V30 9819 H 891.514 -3.82722 -0.667537 0
M  V30 9820 H 893.186 -4.19629 1.91597 0
M  V30 9821 H 891.429 -3.9168 1.86466 0
M  V30 9822 H 892.1 -5.39488 1.16861 0
M  V30 9823 H 894.576 -4.15001 -0.30216 0
M  V30 9824 H 893.452 -5.42431 -0.840239 0
M  V30 9825 H 893.713 -4.01358 -1.85375 0
M  V30 9826 N 892.772 -0.284283 -1.55015 0
M  V30 9827 C 893.72 0.615091 -2.2432 0
M  V30 9828 C 894.714 1.15051 -1.24337 0
M  V30 9829 O 895.92 1.10308 -1.4224 0
M  V30 9830 H 892.295 0.216927 -0.720033 0
M  V30 9831 H 894.266 0.00783216 -2.98399 0
M  V30 9832 C 893.015 1.78355 -2.98471 0
M  V30 9833 H 892.338 1.38076 -3.752 0
M  V30 9834 H 893.778 2.38927 -3.50271 0
M  V30 9835 C 892.237 2.67757 -2.04469 0
M  V30 9836 O 892.767 3.6838 -1.60185 0
M  V30 9837 N 890.973 2.35125 -1.70776 0
M  V30 9838 H 890.52 1.53346 -2.06985 0
M  V30 9839 H 890.478 2.95212 -1.08153 0
M  V30 9840 N 894.251 1.57596 -0.0117121 0
M  V30 9841 C 895.479 1.9536 0.681334 0
M  V30 9842 C 895.894 0.887255 1.66653 0
M  V30 9843 O 895.251 -0.132692 1.82017 0
M  V30 9844 C 895.302 3.33165 1.40298 0
M  V30 9845 O 895.023 4.35707 0.45728 0
M  V30 9846 C 896.524 3.85458 2.18946 0
M  V30 9847 H 893.744 0.643826 0.189023 0
M  V30 9848 H 896.288 2.04392 -0.066311 0
M  V30 9849 H 894.443 3.25404 2.10216 0
M  V30 9850 H 894.857 5.15495 0.96773 0
M  V30 9851 H 896.331 4.84275 2.64918 0
M  V30 9852 H 896.808 3.18781 3.02118 0
M  V30 9853 H 897.414 3.96431 1.5402 0
M  V30 9854 N 895.729 -0.261212 1.5542 0
M  V30 9855 C 896.957 -1.00916 1.8062 0
M  V30 9856 C 897.372 -1.79494 0.585444 0
M  V30 9857 O 896.729 -1.76974 -0.445702 0
M  V30 9858 C 896.78 -1.95841 3.03856 0
M  V30 9859 O 896.501 -1.20445 4.21218 0
M  V30 9860 C 898.002 -2.82352 3.41749 0
M  V30 9861 H 895.222 -0.297596 0.601397 0
M  V30 9862 H 897.766 -0.288427 2.02456 0
M  V30 9863 H 895.921 -2.63361 2.84112 0
M  V30 9864 H 896.335 -1.84528 4.90968 0
M  V30 9865 H 897.809 -3.44733 4.31118 0
M  V30 9866 H 898.286 -3.5273 2.61683 0
M  V30 9867 H 898.892 -2.20306 3.63793 0
M  V30 9868 N 897.207 -1.48554 -0.526253 0
M  V30 9869 C 898.117 -1.66044 -1.65731 0
M  V30 9870 C 899.133 -0.542951 -1.65312 0
M  V30 9871 O 900.309 -0.814495 -1.84195 0
M  V30 9872 C 897.374 -1.69959 -3.02184 0
M  V30 9873 C 896.435 -2.93362 -3.13428 0
M  V30 9874 C 895.668 -2.97081 -4.43372 0
M  V30 9875 O 895.891 -2.09103 -5.3069 0
M  V30 9876 O 894.825 -3.8929 -4.59061 0
M  V30 9877 H 898.651 -2.61811 -1.53912 0
M  V30 9878 H 896.236 -1.31999 -0.699759 0
M  V30 9879 H 898.118 -1.75033 -3.83329 0
M  V30 9880 H 896.793 -0.773658 -3.14319 0
M  V30 9881 H 895.7 -2.93818 -2.31564 0
M  V30 9882 H 897.033 -3.85352 -3.06211 0
M  V30 9883 N 898.685 0.775411 -1.37205 0
M  V30 9884 C 899.615 1.90258 -1.35367 0
M  V30 9885 C 900.596 1.68634 -0.222864 0
M  V30 9886 O 901.781 1.89545 -0.422659 0
M  V30 9887 C 898.911 3.27488 -1.15623 0
M  V30 9888 C 897.865 3.63668 -2.25676 0
M  V30 9889 C 897.191 4.994 -1.91059 0
M  V30 9890 C 898.491 3.70797 -3.67841 0
M  V30 9891 H 900.185 1.92053 -2.29687 0
M  V30 9892 H 897.731 0.922597 -1.10563 0
M  V30 9893 H 899.684 4.05976 -1.12968 0
M  V30 9894 H 898.408 3.26117 -0.177573 0
M  V30 9895 H 897.067 2.87486 -2.2748 0
M  V30 9896 H 896.715 4.94565 -0.917324 0
M  V30 9897 H 896.415 5.24576 -2.64751 0
M  V30 9898 H 897.939 5.80291 -1.89985 0
M  V30 9899 H 899.353 4.39444 -3.68187 0
M  V30 9900 H 897.75 4.07468 -4.40556 0
M  V30 9901 H 898.82 2.71549 -4.01732 0
M  V30 9902 N 900.163 1.21714 1.00117 0
M  V30 9903 C 901.126 0.981338 2.07129 0
M  V30 9904 C 902.126 -0.0491116 1.60725 0
M  V30 9905 O 903.316 0.188555 1.73177 0
M  V30 9906 C 900.448 0.480608 3.37495 0
M  V30 9907 H 901.641 1.93075 2.29482 0
M  V30 9908 H 899.194 1.03467 1.17151 0
M  V30 9909 H 899.929 -0.473552 3.20824 0
M  V30 9910 H 899.714 1.22393 3.72508 0
M  V30 9911 H 901.204 0.33561 4.16249 0
M  V30 9912 N 901.641 -1.19671 1.02551 0
M  V30 9913 C 902.571 -2.25009 0.623965 0
M  V30 9914 C 903.552 -1.66129 -0.36538 0
M  V30 9915 O 904.737 -1.92599 -0.248842 0
M  V30 9916 C 901.867 -3.47287 -0.0294869 0
M  V30 9917 C 900.821 -4.18818 0.881781 0
M  V30 9918 C 900.147 -5.34618 0.0936189 0
M  V30 9919 C 901.447 -4.73986 2.19396 0
M  V30 9920 H 903.141 -2.58851 1.50454 0
M  V30 9921 H 900.687 -1.24425 0.724872 0
M  V30 9922 H 902.64 -4.20168 -0.322016 0
M  V30 9923 H 901.364 -3.12635 -0.944838 0
M  V30 9924 H 900.023 -3.47815 1.15845 0
M  V30 9925 H 899.671 -4.9621 -0.823661 0
M  V30 9926 H 899.371 -5.83409 0.700568 0
M  V30 9927 H 900.895 -6.10297 -0.192249 0
M  V30 9928 H 902.309 -5.38639 1.96319 0
M  V30 9929 H 900.706 -5.3325 2.75254 0
M  V30 9930 H 901.776 -3.92238 2.85092 0
M  V30 9931 N 903.119 -0.802921 -1.35613 0
M  V30 9932 C 904.029 -0.212177 -2.33639 0
M  V30 9933 C 905.045 0.642871 -1.61689 0
M  V30 9934 O 906.221 0.555485 -1.93588 0
M  V30 9935 C 903.286 0.632406 -3.40883 0
M  V30 9936 C 902.347 -0.242708 -4.28613 0
M  V30 9937 C 901.58 0.56166 -5.30736 0
M  V30 9938 O 901.803 1.79664 -5.41366 0
M  V30 9939 O 900.737 -0.0455387 -6.01883 0
M  V30 9940 H 904.563 -1.023 -2.85952 0
M  V30 9941 H 902.148 -0.564636 -1.38319 0
M  V30 9942 H 904.03 1.11358 -4.0642 0
M  V30 9943 H 902.705 1.42089 -2.90848 0
M  V30 9944 H 901.612 -0.77094 -3.6607 0
M  V30 9945 H 902.945 -0.995046 -4.82037 0
M  V30 9946 N 904.597 1.47463 -0.556102 0
M  V30 9947 C 905.529 2.28046 0.22968 0
M  V30 9948 C 906.542 1.3694 0.880409 0
M  V30 9949 O 907.731 1.61773 0.754447 0
M  V30 9950 C 904.831 3.11165 1.34273 0
M  V30 9951 C 904.004 4.30225 0.789004 0
M  V30 9952 C 903.063 4.94948 1.78641 0
M  V30 9953 O 902.089 5.53372 1.33297 0
M  V30 9954 N 903.291 4.89543 3.11974 0
M  V30 9955 H 906.056 2.96125 -0.461558 0
M  V30 9956 H 903.617 1.5708 -0.392105 0
M  V30 9957 H 905.609 3.51331 2.00869 0
M  V30 9958 H 904.179 2.45337 1.93722 0
M  V30 9959 H 903.399 3.94163 -0.0536971 0
M  V30 9960 H 904.687 5.07238 0.398378 0
M  V30 9961 H 904.085 4.43275 3.51459 0
M  V30 9962 H 902.642 5.33732 3.74131 0
M  V30 9963 N 906.075 0.2925 1.54862 0
M  V30 9964 C 907.352 -0.371946 1.92031 0
M  V30 9965 C 907.732 -1.72363 1.21878 0
M  V30 9966 O 907.08 -2.25779 0.351573 0
M  V30 9967 C 907.29 -0.495027 3.45471 0
M  V30 9968 C 908.638 -0.769855 4.17562 0
M  V30 9969 O 909.662 -0.579168 3.5146 0
M  V30 9970 O 908.521 -1.13561 5.34571 0
M  V30 9971 H 905.615 -0.206463 0.800813 0
M  V30 9972 H 908.161 0.339933 1.6626 0
M  V30 9973 H 906.933 0.455528 3.88639 0
M  V30 9974 H 906.556 -1.2557 3.7725 0
M  V30 9975 N 907.553 -1.57587 0.0200696 0
M  V30 9976 C 908.483 -2.12702 -0.963333 0
M  V30 9977 C 909.464 -1.04094 -1.34531 0
M  V30 9978 O 910.649 -1.31881 -1.42552 0
M  V30 9979 C 907.779 -2.64673 -2.24868 0
M  V30 9980 C 906.733 -3.77987 -2.00772 0
M  V30 9981 C 906.059 -4.16351 -3.35494 0
M  V30 9982 C 907.359 -5.0444 -1.35416 0
M  V30 9983 H 909.053 -2.95121 -0.504363 0
M  V30 9984 H 906.599 -1.41966 -0.24116 0
M  V30 9985 H 908.552 -3.01862 -2.94036 0
M  V30 9986 H 907.276 -1.79403 -2.72914 0
M  V30 9987 H 905.935 -3.41223 -1.34025 0
M  V30 9988 H 905.583 -3.28075 -3.81282 0
M  V30 9989 H 905.283 -4.92705 -3.20181 0
M  V30 9990 H 906.807 -4.56115 -4.05945 0
M  V30 9991 H 908.221 -5.39273 -1.94571 0
M  V30 9992 H 906.618 -5.85732 -1.30529 0
M  V30 9993 H 907.688 -4.83803 -0.325923 0
M  V30 9994 N 909.032 0.252966 -1.55557 0
M  V30 9995 C 909.995 1.29645 -1.8901 0
M  V30 9996 C 910.995 1.41378 -0.766096 0
M  V30 9997 O 912.185 1.40183 -1.03414 0
M  V30 9998 C 909.317 2.67504 -2.11316 0
M  V30 9999 H 910.51 1.01202 -2.82309 0
M  V30 10000 H 908.063 0.491977 -1.48355 0
M  V30 10001 H 908.798 3.01095 -1.20466 0
M  V30 10002 H 908.583 2.6037 -2.93172 0
M  V30 10003 H 910.073 3.42861 -2.38403 0
M  V30 10004 N 910.51 1.48831 0.518367 0
M  V30 10005 C 911.74 1.60886 1.29612 0
M  V30 10006 C 912.148 0.272713 1.87224 0
M  V30 10007 O 911.491 -0.749653 1.67708 0
M  V30 10008 C 911.553 2.60541 2.47707 0
M  V30 10009 C 911.217 4.05324 2.11095 0
M  V30 10010 C 912.214 4.92658 1.66084 0
M  V30 10011 C 909.899 4.50942 2.21262 0
M  V30 10012 C 911.893 6.23641 1.3172 0
M  V30 10013 C 909.58 5.81943 1.8651 0
M  V30 10014 C 910.578 6.68116 1.41812 0
M  V30 10015 O 910.266 7.96677 1.07522 0
M  V30 10016 H 909.998 0.544968 0.399982 0
M  V30 10017 H 912.552 1.95474 0.630799 0
M  V30 10018 H 910.782 2.21098 3.17258 0
M  V30 10019 H 912.471 2.62308 3.09757 0
M  V30 10020 H 913.237 4.58649 1.5769 0
M  V30 10021 H 909.116 3.84048 2.55007 0
M  V30 10022 H 912.66 6.90857 0.967598 0
M  V30 10023 H 908.557 6.15484 1.94549 0
M  V30 10024 H 909.325 8.09534 1.2082 0
M  V30 10025 N 911.988 -0.768124 1.37614 0
M  V30 10026 C 912.918 -1.89537 1.36374 0
M  V30 10027 C 913.899 -1.68513 0.231803 0
M  V30 10028 O 915.084 -1.89318 0.432705 0
M  V30 10029 C 912.214 -3.26871 1.17358 0
M  V30 10030 C 911.168 -3.62466 2.27602 0
M  V30 10031 C 910.494 -4.9838 1.93705 0
M  V30 10032 C 911.794 -3.68841 3.69802 0
M  V30 10033 H 913.488 -1.90832 2.30702 0
M  V30 10034 H 911.034 -0.91672 1.11051 0
M  V30 10035 H 912.987 -4.05371 1.15119 0
M  V30 10036 H 911.711 -3.26018 0.194865 0
M  V30 10037 H 910.37 -2.86276 2.29002 0
M  V30 10038 H 910.018 -4.94071 0.943539 0
M  V30 10039 H 909.718 -5.23165 2.6753 0
M  V30 10040 H 911.242 -5.79276 1.93059 0
M  V30 10041 H 912.656 -4.37485 3.70513 0
M  V30 10042 H 911.053 -4.05126 4.42711 0
M  V30 10043 H 912.123 -2.69415 4.03167 0
M  V30 10044 N 913.466 -1.22244 -0.994698 0
M  V30 10045 C 914.398 -0.948706 -2.08644 0
M  V30 10046 C 915.411 0.0720049 -1.62641 0
M  V30 10047 O 916.6 -0.161778 -1.77765 0
M  V30 10048 C 913.7 -0.404885 -3.36473 0
M  V30 10049 C 912.873 -1.48239 -4.11514 0
M  V30 10050 C 911.932 -0.94597 -5.17627 0
M  V30 10051 O 910.958 -1.63177 -5.45309 0
M  V30 10052 N 912.16 0.23355 -5.8003 0
M  V30 10053 H 914.925 -1.88858 -2.32707 0
M  V30 10054 H 912.486 -1.12908 -1.16032 0
M  V30 10055 H 914.478 -0.0313903 -4.04688 0
M  V30 10056 H 913.048 0.440061 -3.09487 0
M  V30 10057 H 912.268 -2.02928 -3.37955 0
M  V30 10058 H 913.556 -2.20741 -4.58422 0
M  V30 10059 H 912.954 0.80756 -5.59906 0
M  V30 10060 H 911.511 0.54845 -6.49488 0
M  V30 10061 N 914.944 1.19125 -1.03184 0
M  V30 10062 C 915.854 2.26112 -0.625329 0
M  V30 10063 C 916.87 1.7056 0.344298 0
M  V30 10064 O 918.046 2.0039 0.20144 0
M  V30 10065 C 915.111 3.46697 0.0145169 0
M  V30 10066 C 914.172 4.17419 -1.00299 0
M  V30 10067 C 913.405 5.32247 -0.393581 0
M  V30 10068 O 913.628 5.64724 0.802659 0
M  V30 10069 O 912.562 5.91428 -1.1179 0
M  V30 10070 H 916.388 2.63131 -1.51643 0
M  V30 10071 H 913.973 1.26036 -0.802197 0
M  V30 10072 H 915.855 4.19762 0.371139 0
M  V30 10073 H 914.53 3.11521 0.879581 0
M  V30 10074 H 913.437 3.4646 -1.41125 0
M  V30 10075 H 914.77 4.56573 -1.83852 0
M  V30 10076 N 916.422 0.810101 1.35185 0
M  V30 10077 C 917.352 0.237453 2.32289 0
M  V30 10078 C 918.333 -0.639032 1.5764 0
M  V30 10079 O 919.518 -0.568575 1.8569 0
M  V30 10080 C 916.648 -0.611964 3.41866 0
M  V30 10081 C 915.602 0.166318 4.27677 0
M  V30 10082 C 914.928 -0.805024 5.28605 0
M  V30 10083 C 916.228 1.36729 5.04086 0
M  V30 10084 H 917.922 1.04874 2.80432 0
M  V30 10085 H 915.468 0.505751 1.34826 0
M  V30 10086 H 917.421 -1.02267 4.08802 0
M  V30 10087 H 916.145 -1.45617 2.92341 0
M  V30 10088 H 914.804 0.558238 3.62325 0
M  V30 10089 H 914.452 -1.64483 4.75347 0
M  V30 10090 H 914.152 -0.288577 5.86891 0
M  V30 10091 H 915.676 -1.21386 5.98413 0
M  V30 10092 H 917.09 1.03128 5.63948 0
M  V30 10093 H 915.487 1.81848 5.71884 0
M  V30 10094 H 916.557 2.15214 4.34524 0
M  V30 10095 N 917.9 -1.47166 0.563914 0
M  V30 10096 C 918.847 -2.30097 -0.180013 0
M  V30 10097 C 919.817 -1.39473 -0.902019 0
M  V30 10098 O 921.002 -1.68432 -0.896396 0
M  V30 10099 C 918.142 -3.23573 -1.19978 0
M  V30 10100 C 917.255 -4.2929 -0.483149 0
M  V30 10101 C 916.39 -5.0991 -1.48879 0
M  V30 10102 C 915.429 -6.07395 -0.757513 0
M  V30 10103 N 914.566 -6.8095 -1.71031 0
M  V30 10104 H 919.406 -2.93189 0.53329 0
M  V30 10105 H 916.943 -1.4451 0.274814 0
M  V30 10106 H 918.901 -3.76196 -1.80368 0
M  V30 10107 H 917.531 -2.6233 -1.88103 0
M  V30 10108 H 916.583 -3.79671 0.235414 0
M  V30 10109 H 917.895 -4.9872 0.0894075 0
M  V30 10110 H 917.049 -5.66717 -2.16603 0
M  V30 10111 H 915.788 -4.40397 -2.09527 0
M  V30 10112 H 914.793 -5.4976 -0.0663841 0
M  V30 10113 H 916.018 -6.78919 -0.156685 0
M  V30 10114 H 913.964 -6.14162 -2.30524 0
M  V30 10115 H 913.881 -7.46574 -1.19007 0
M  V30 10116 H 915.149 -7.42326 -2.37849 0
M  V30 10117 N 919.378 -0.300708 -1.54705 0
M  V30 10118 C 920.288 0.584996 -2.27189 0
M  V30 10119 C 921.304 1.14866 -1.30697 0
M  V30 10120 O 922.48 1.17351 -1.63679 0
M  V30 10121 C 919.545 1.74076 -2.99831 0
M  V30 10122 C 918.606 1.2112 -4.1186 0
M  V30 10123 C 917.839 2.31188 -4.81028 0
M  V30 10124 O 918.062 3.5108 -4.49554 0
M  V30 10125 O 916.996 1.97897 -5.68437 0
M  V30 10126 H 920.822 -0.00298177 -3.037 0
M  V30 10127 H 918.407 -0.0671802 -1.49249 0
M  V30 10128 H 920.289 2.41413 -3.45395 0
M  V30 10129 H 918.964 2.31535 -2.26215 0
M  V30 10130 H 917.871 0.50357 -3.70695 0
M  V30 10131 H 919.204 0.682046 -4.87452 0
M  V30 10132 N 920.856 1.57574 -0.0284266 0
M  V30 10133 C 921.803 2.10176 0.953658 0
M  V30 10134 C 922.773 1.00367 1.32347 0
M  V30 10135 O 923.958 1.27783 1.4169 0
M  V30 10136 C 921.098 2.63287 2.231 0
M  V30 10137 C 920.211 3.87102 1.91771 0
M  V30 10138 C 919.346 4.28609 3.13795 0
M  V30 10139 C 918.385 5.45184 2.78282 0
M  V30 10140 N 917.522 5.81851 3.92929 0
M  V30 10141 H 922.362 2.93806 0.498176 0
M  V30 10142 H 919.899 1.45222 0.234302 0
M  V30 10143 H 921.857 2.9217 2.97813 0
M  V30 10144 H 920.487 1.82489 2.66266 0
M  V30 10145 H 919.539 3.64952 1.07303 0
M  V30 10146 H 920.851 4.71892 1.61615 0
M  V30 10147 H 920.005 4.58925 3.96829 0
M  V30 10148 H 918.744 3.42585 3.47112 0
M  V30 10149 H 917.749 5.14563 1.93661 0
M  V30 10150 H 918.974 6.32907 2.46182 0
M  V30 10151 H 916.92 4.98782 4.2609 0
M  V30 10152 H 916.837 6.6128 3.66395 0
M  V30 10153 H 918.105 6.16772 4.76669 0
M  V30 10154 N 922.334 -0.244713 1.55689 0
M  V30 10155 C 923.58 -0.973886 1.77886 0
M  V30 10156 C 923.913 -1.8489 0.594071 0
M  V30 10157 O 923.188 -1.90182 -0.407564 0
M  V30 10158 C 923.471 -1.83255 3.09983 0
M  V30 10159 C 923.324 -0.985571 4.3887 0
M  V30 10160 C 924.643 -2.81464 3.38329 0
M  V30 10161 H 921.762 -0.352629 0.647165 0
M  V30 10162 H 924.404 -0.244243 1.88424 0
M  V30 10163 H 922.554 -2.45464 3.01131 0
M  V30 10164 H 924.226 -0.382005 4.59716 0
M  V30 10165 H 922.469 -0.29002 4.32829 0
M  V30 10166 H 923.14 -1.62022 5.27686 0
M  V30 10167 H 925.616 -2.2939 3.47159 0
M  V30 10168 H 924.492 -3.38663 4.31971 0
M  V30 10169 H 924.753 -3.58037 2.59349 0
M  V30 10170 N 923.813 -1.49104 -0.510467 0
M  V30 10171 C 924.723 -1.67792 -1.6396 0
M  V30 10172 C 925.739 -0.560454 -1.64727 0
M  V30 10173 O 926.915 -0.833985 -1.83321 0
M  V30 10174 C 923.98 -1.73154 -3.00364 0
M  V30 10175 C 923.041 -2.9667 -3.10299 0
M  V30 10176 C 922.274 -3.01767 -4.40196 0
M  V30 10177 O 922.497 -2.1472 -5.28443 0
M  V30 10178 O 921.431 -3.94137 -4.54906 0
M  V30 10179 H 925.257 -2.63428 -1.51126 0
M  V30 10180 H 922.842 -1.32734 -0.685719 0
M  V30 10181 H 924.724 -1.79089 -3.81451 0
M  V30 10182 H 923.399 -0.806952 -3.1348 0
M  V30 10183 H 922.306 -2.96257 -2.28435 0
M  V30 10184 H 923.639 -3.88578 -3.02106 0
M  V30 10185 N 925.291 0.760815 -1.38019 0
M  V30 10186 C 926.239 1.89578 -1.34771 0
M  V30 10187 C 927.233 1.67766 -0.234714 0
M  V30 10188 O 928.439 1.75423 -0.403352 0
M  V30 10189 H 924.814 0.623608 -0.420258 0
M  V30 10190 H 926.785 1.89434 -2.30558 0
M  V30 10191 C 925.534 3.26976 -1.18246 0
M  V30 10192 H 924.857 3.44342 -2.03147 0
M  V30 10193 H 926.297 4.06657 -1.20026 0
M  V30 10194 C 924.756 3.36717 0.111145 0
M  V30 10195 O 925.286 3.86607 1.09079 0
M  V30 10196 N 923.492 2.90128 0.165542 0
M  V30 10197 H 923.039 2.49719 -0.632328 0
M  V30 10198 H 922.997 2.97026 1.03067 0
M  V30 10199 N 926.769 1.22769 0.988202 0
M  V30 10200 C 928.017 1.05301 1.725 0
M  V30 10201 C 928.338 -0.412103 1.90596 0
M  V30 10202 O 927.608 -1.29606 1.46898 0
M  V30 10203 H 926.188 0.386658 0.639144 0
M  V30 10204 H 928.85 1.54359 1.18993 0
M  V30 10205 H 927.946 1.53465 2.71763 0
M  V30 10206 N 928.247 -1.18576 1.03814 0
M  V30 10207 C 929.472 -1.92978 0.759873 0
M  V30 10208 C 929.897 -1.75514 -0.676486 0
M  V30 10209 O 929.255 -1.06359 -1.46824 0
M  V30 10210 C 929.303 -3.42507 1.12788 0
M  V30 10211 O 928.407 -4.1163 0.251886 0
M  V30 10212 H 927.748 -0.602129 0.279886 0
M  V30 10213 H 930.278 -1.50383 1.3873 0
M  V30 10214 H 930.288 -3.93206 1.08872 0
M  V30 10215 H 928.963 -3.5454 2.17427 0
M  V30 10216 H 927.54 -3.7125 0.350441 0
M  V30 10217 N 929.725 -0.817259 -1.34754 0
M  V30 10218 C 930.635 -0.236946 -2.334 0
M  V30 10219 C 931.651 0.625685 -1.62361 0
M  V30 10220 O 932.827 0.534921 -1.94166 0
M  V30 10221 C 929.892 0.596215 -3.41535 0
M  V30 10222 C 928.953 -0.288154 -4.28332 0
M  V30 10223 C 928.186 0.505337 -5.31302 0
M  V30 10224 O 928.409 1.73912 -5.43241 0
M  V30 10225 O 927.343 -0.109374 -6.01801 0
M  V30 10226 H 931.169 -1.05327 -2.84851 0
M  V30 10227 H 928.754 -0.579275 -1.37713 0
M  V30 10228 H 930.636 1.07041 -4.07578 0
M  V30 10229 H 929.311 1.38997 -2.92338 0
M  V30 10230 H 928.218 -0.809724 -3.65232 0
M  V30 10231 H 929.551 -1.04612 -4.80955 0
M  V30 10232 N 931.203 1.46865 -0.571711 0
M  V30 10233 C 932.431 2.06818 -0.0583975 0
M  V30 10234 C 932.846 1.42218 1.24175 0
M  V30 10235 O 932.203 0.523655 1.74826 0
M  V30 10236 C 932.254 3.61281 0.125673 0
M  V30 10237 O 931.975 4.23462 -1.123 0
M  V30 10238 C 933.476 4.38137 0.674604 0
M  V30 10239 H 930.696 0.668948 -0.052438 0
M  V30 10240 H 933.24 1.88656 -0.789251 0
M  V30 10241 H 931.395 3.78908 0.806707 0
M  V30 10242 H 931.809 5.16192 -0.929869 0
M  V30 10243 H 933.283 5.46845 0.752626 0
M  V30 10244 H 933.76 4.05419 1.68915 0
M  V30 10245 H 934.366 4.2529 0.0287979 0
M  V30 10246 N 932.681 0.308908 1.54543 0
M  V30 10247 C 933.929 -0.297447 1.99899 0
M  V30 10248 C 934.25 -1.53799 1.19878 0
M  V30 10249 O 933.52 -1.93639 0.29678 0
M  V30 10250 H 932.1 -0.112897 0.738419 0
M  V30 10251 H 934.762 0.422067 1.90275 0
M  V30 10252 H 933.858 -0.564016 3.06961 0
M  V30 10253 N 934.159 -1.57557 0.0367827 0
M  V30 10254 C 935.57 -1.79853 -0.500971 0
M  V30 10255 C 935.921 -0.947749 -1.71791 0
M  V30 10256 O 935.046 -0.160287 -2.15806 0
M  V30 10257 C 935.641 -3.26193 -0.915626 0
M  V30 10258 C 934.2 -3.49457 -1.39845 0
M  V30 10259 C 933.347 -2.74864 -0.366784 0
M  V30 10260 H 936.298 -1.56509 0.262768 0
M  V30 10261 H 936.319 -3.36324 -1.7795 0
M  V30 10262 H 935.831 -3.88089 -0.0297227 0
M  V30 10263 H 933.932 -2.92823 -2.30402 0
M  V30 10264 H 934.045 -4.58172 -1.40054 0
M  V30 10265 H 932.409 -2.4057 -0.836554 0
M  V30 10266 H 933.192 -3.39479 0.510785 0
M  V30 10267 N 935.637 0.236453 -1.55816 0
M  V30 10268 C 936.567 1.29639 -1.94206 0
M  V30 10269 C 937.548 1.49667 -0.808319 0
M  V30 10270 O 938.733 1.621 -1.06945 0
M  V30 10271 C 935.863 2.64914 -2.24584 0
M  V30 10272 C 934.817 2.59565 -3.40308 0
M  V30 10273 C 934.143 3.98732 -3.56254 0
M  V30 10274 C 935.443 2.15642 -4.75706 0
M  V30 10275 H 937.137 0.977552 -2.82992 0
M  V30 10276 H 934.683 0.468804 -1.36155 0
M  V30 10277 H 936.636 3.39209 -2.50031 0
M  V30 10278 H 935.36 2.98455 -1.32636 0
M  V30 10279 H 934.019 1.87728 -3.14887 0
M  V30 10280 H 933.667 4.29556 -2.61707 0
M  V30 10281 H 933.367 3.96039 -4.34082 0
M  V30 10282 H 934.891 4.74711 -3.84033 0
M  V30 10283 H 936.305 2.79673 -5.00456 0
M  V30 10284 H 934.702 2.24039 -5.56711 0
M  V30 10285 H 935.772 1.10831 -4.72064 0
M  V30 10286 N 937.115 1.49373 0.502552 0
M  V30 10287 C 938.526 1.52 1.0841 0
M  V30 10288 C 938.877 0.305317 1.9381 0
M  V30 10289 O 938.002 -0.585023 2.08342 0
M  V30 10290 C 938.597 2.75437 1.97281 0
M  V30 10291 C 937.156 2.80848 2.50602 0
M  V30 10292 C 936.303 2.45894 1.28186 0
M  V30 10293 H 939.254 1.56092 0.286533 0
M  V30 10294 H 939.275 2.55511 2.81947 0
M  V30 10295 H 938.787 3.63827 1.35098 0
M  V30 10296 H 936.888 1.96735 3.16427 0
M  V30 10297 H 937.001 3.82979 2.8786 0
M  V30 10298 H 935.365 1.97639 1.60657 0
M  V30 10299 H 936.148 3.36556 0.677139 0
M  V30 10300 N 938.594 -0.753485 1.38421 0
M  V30 10301 C 940.005 -1.33081 1.30944 0
M  V30 10302 C 940.356 -1.96169 -0.0347124 0
M  V30 10303 O 939.481 -1.95073 -0.936768 0
M  V30 10304 C 940.076 -2.41973 2.37138 0
M  V30 10305 C 938.635 -2.95426 2.33239 0
M  V30 10306 C 937.782 -1.68808 2.19998 0
M  V30 10307 H 940.733 -0.552354 1.48777 0
M  V30 10308 H 940.754 -3.21913 2.02859 0
M  V30 10309 H 940.266 -1.96027 3.34956 0
M  V30 10310 H 938.367 -3.45701 1.39003 0
M  V30 10311 H 938.48 -3.49798 3.27381 0
M  V30 10312 H 936.844 -1.92438 1.66852 0
M  V30 10313 H 937.627 -1.24939 3.19758 0
M  V30 10314 N 940.072 -1.23292 -0.981677 0
M  V30 10315 C 940.982 -1.02964 -2.10798 0
M  V30 10316 C 941.998 0.0254674 -1.73981 0
M  V30 10317 O 943.174 -0.169706 -2.00684 0
M  V30 10318 C 940.239 -0.621934 -3.41076 0
M  V30 10319 C 939.3 -1.75194 -3.91926 0
M  V30 10320 C 938.533 -1.36359 -5.15986 0
M  V30 10321 O 938.756 -0.247265 -5.69864 0
M  V30 10322 O 937.69 -2.18421 -5.60871 0
M  V30 10323 H 941.516 -1.97354 -2.30836 0
M  V30 10324 H 939.101 -1.01986 -1.09175 0
M  V30 10325 H 940.983 -0.405446 -4.19445 0
M  V30 10326 H 939.658 0.29299 -3.22371 0
M  V30 10327 H 938.565 -2.02305 -3.1468 0
M  V30 10328 H 939.898 -2.64513 -4.15083 0
M  V30 10329 N 941.55 1.18024 -1.04442 0
M  V30 10330 C 942.48 2.23988 -0.659683 0
M  V30 10331 C 943.461 1.6669 0.338904 0
M  V30 10332 O 944.646 1.92971 0.21817 0
M  V30 10333 C 941.776 3.4729 -0.0257672 0
M  V30 10334 C 940.73 4.17362 -0.948299 0
M  V30 10335 C 940.056 5.34401 -0.17866 0
M  V30 10336 C 941.356 4.70435 -2.26909 0
M  V30 10337 H 943.05 2.56425 -1.54553 0
M  V30 10338 H 940.596 1.23256 -0.744575 0
M  V30 10339 H 942.549 4.20627 0.255131 0
M  V30 10340 H 941.273 3.14098 0.894981 0
M  V30 10341 H 939.932 3.45928 -1.21364 0
M  V30 10342 H 939.58 4.97458 0.744614 0
M  V30 10343 H 939.28 5.8222 -0.793294 0
M  V30 10344 H 940.804 6.10526 0.0951315 0
M  V30 10345 H 942.218 5.35447 -2.04864 0
M  V30 10346 H 940.615 5.28803 -2.83703 0
M  V30 10347 H 941.685 3.87653 -2.91296 0
M  V30 10348 N 943.028 0.824394 1.34319 0
M  V30 10349 C 943.96 0.204805 2.28283 0
M  V30 10350 C 944.973 -0.606162 1.51094 0
M  V30 10351 O 946.162 -0.435602 1.73103 0
M  V30 10352 C 943.262 -0.73139 3.30914 0
M  V30 10353 C 942.435 0.0370723 4.37384 0
M  V30 10354 C 941.494 -0.820272 5.19767 0
M  V30 10355 O 940.52 -0.264721 5.68584 0
M  V30 10356 N 941.722 -2.13984 5.39621 0
M  V30 10357 H 944.487 1.0121 2.82093 0
M  V30 10358 H 942.048 0.681494 1.46858 0
M  V30 10359 H 944.04 -1.30958 3.82926 0
M  V30 10360 H 942.61 -1.43943 2.77487 0
M  V30 10361 H 941.83 0.796578 3.86068 0
M  V30 10362 H 943.118 0.566014 5.05642 0
M  V30 10363 H 942.516 -2.61492 5.01636 0
M  V30 10364 H 941.073 -2.66685 5.94746 0
M  V30 10365 N 944.506 -1.46559 0.579492 0
M  V30 10366 C 945.917 -1.8608 0.152052 0
M  V30 10367 C 946.268 -1.48346 -1.28405 0
M  V30 10368 O 945.393 -0.89685 -1.9694 0
M  V30 10369 C 945.988 -3.37729 0.269171 0
M  V30 10370 C 944.547 -3.76258 -0.103376 0
M  V30 10371 C 943.694 -2.70584 0.60659 0
M  V30 10372 H 946.645 -1.3776 0.787904 0
M  V30 10373 H 946.666 -3.77116 -0.506339 0
M  V30 10374 H 946.178 -3.65162 1.31448 0
M  V30 10375 H 944.279 -3.54443 -1.14895 0
M  V30 10376 H 944.392 -4.78335 0.270701 0
M  V30 10377 H 942.756 -2.54656 0.0471984 0
M  V30 10378 H 943.539 -3.00856 1.65349 0
M  V30 10379 N 945.984 -0.3171 -1.54377 0
M  V30 10380 C 946.914 0.544623 -2.2706 0
M  V30 10381 C 947.895 1.12469 -1.27611 0
M  V30 10382 O 949.08 1.15103 -1.56413 0
M  V30 10383 C 946.21 1.70879 -3.02353 0
M  V30 10384 C 945.164 1.25833 -4.09084 0
M  V30 10385 C 944.49 2.50894 -4.72182 0
M  V30 10386 C 945.79 0.377876 -5.20931 0
M  V30 10387 H 947.484 -0.0616372 -2.99337 0
M  V30 10388 H 945.03 -0.0310848 -1.43966 0
M  V30 10389 H 946.983 2.31787 -3.51927 0
M  V30 10390 H 945.707 2.34155 -2.27682 0
M  V30 10391 H 944.366 0.672228 -3.60384 0
M  V30 10392 H 944.014 3.12518 -3.94134 0
M  V30 10393 H 943.714 2.21447 -5.44275 0
M  V30 10394 H 945.238 3.12575 -5.24528 0
M  V30 10395 H 946.652 0.893056 -5.66302 0
M  V30 10396 H 945.049 0.176474 -5.9984 0
M  V30 10397 H 946.119 -0.592943 -4.81261 0
M  V30 10398 N 947.462 1.57535 -0.0451378 0
M  V30 10399 C 948.392 2.14208 0.929372 0
M  V30 10400 C 949.373 1.06221 1.32858 0
M  V30 10401 O 950.558 1.34132 1.40436 0
M  V30 10402 C 947.688 2.68217 2.20629 0
M  V30 10403 C 946.642 3.81134 1.94734 0
M  V30 10404 C 945.968 4.21636 3.28828 0
M  V30 10405 C 947.268 5.06531 1.27374 0
M  V30 10406 H 948.962 2.95886 0.457348 0
M  V30 10407 H 946.508 1.42332 0.218544 0
M  V30 10408 H 948.461 3.06502 2.89196 0
M  V30 10409 H 947.185 1.83722 2.70026 0
M  V30 10410 H 945.844 3.43312 1.28579 0
M  V30 10411 H 945.492 3.34099 3.76014 0
M  V30 10412 H 945.192 4.97736 3.12302 0
M  V30 10413 H 946.716 4.62516 3.98637 0
M  V30 10414 H 948.13 5.423 1.85967 0
M  V30 10415 H 946.527 5.87735 1.21194 0
M  V30 10416 H 947.597 4.84261 0.248913 0
M  V30 10417 N 948.94 -0.228186 1.55939 0
M  V30 10418 C 949.85 -1.30386 1.9503 0
M  V30 10419 C 950.866 -1.51645 0.853218 0
M  V30 10420 O 952.042 -1.64904 1.15623 0
M  V30 10421 C 949.107 -2.63489 2.25332 0
M  V30 10422 C 948.168 -2.5059 3.48573 0
M  V30 10423 C 947.401 -3.77345 3.7742 0
M  V30 10424 O 947.624 -4.80067 3.08045 0
M  V30 10425 O 946.558 -3.74855 4.70922 0
M  V30 10426 H 950.384 -1.0022 2.86687 0
M  V30 10427 H 947.969 -0.430503 1.43063 0
M  V30 10428 H 949.851 -3.4211 2.46046 0
M  V30 10429 H 948.526 -2.93349 1.3685 0
M  V30 10430 H 947.433 -1.70191 3.33145 0
M  V30 10431 H 948.766 -2.2567 4.37417 0
M  V30 10432 N 950.418 -1.49637 -0.494624 0
M  V30 10433 C 951.666 -1.5913 -1.24587 0
M  V30 10434 C 951.987 -0.282828 -1.92938 0
M  V30 10435 O 951.257 0.69825 -1.83034 0
M  V30 10436 H 949.837 -0.586329 -0.462847 0
M  V30 10437 H 952.499 -1.86296 -0.572696 0
M  V30 10438 H 951.595 -2.3906 -2.00641 0
M  V30 10439 N 951.896 0.746133 -1.38819 0
M  V30 10440 C 952.806 1.89063 -1.38897 0
M  V30 10441 C 953.822 1.71648 -0.28513 0
M  V30 10442 O 954.998 1.94443 -0.524783 0
M  V30 10443 C 952.063 3.24523 -1.22007 0
M  V30 10444 C 951.124 3.54411 -2.42263 0
M  V30 10445 C 950.357 4.83408 -2.26169 0
M  V30 10446 O 950.58 5.56325 -1.25931 0
M  V30 10447 O 949.514 5.12943 -3.14918 0
M  V30 10448 H 953.34 1.91951 -2.35347 0
M  V30 10449 H 950.925 0.892433 -1.19816 0
M  V30 10450 H 952.807 4.05496 -1.14677 0
M  V30 10451 H 951.482 3.2243 -0.286455 0
M  V30 10452 H 950.389 2.73569 -2.55168 0
M  V30 10453 H 951.722 3.61273 -3.3428 0
M  V30 10454 N 953.375 1.23811 0.975125 0
M  V30 10455 C 954.621 1.07495 1.71967 0
M  V30 10456 C 954.954 -0.386451 1.90316 0
M  V30 10457 O 954.229 -1.28591 1.45927 0
M  V30 10458 C 954.512 1.80694 3.11483 0
M  V30 10459 C 954.365 3.3454 3.00671 0
M  V30 10460 C 955.684 1.57367 4.11003 0
M  V30 10461 H 952.803 0.3919 0.624166 0
M  V30 10462 H 955.445 1.52383 1.13487 0
M  V30 10463 H 953.595 1.42538 3.61407 0
M  V30 10464 H 955.267 3.8225 2.5823 0
M  V30 10465 H 953.51 3.63301 2.37054 0
M  V30 10466 H 954.181 3.80951 3.99475 0
M  V30 10467 H 956.657 1.90545 3.69908 0
M  V30 10468 H 955.533 2.11052 5.06703 0
M  V30 10469 H 955.794 0.510221 4.39146 0
M  V30 10470 N 954.853 -1.17469 1.05066 0
M  V30 10471 C 955.8 -2.21443 0.650512 0
M  V30 10472 C 956.77 -1.62441 -0.346702 0
M  V30 10473 O 957.955 -1.89305 -0.238404 0
M  V30 10474 C 955.095 -3.45087 0.0301014 0
M  V30 10475 C 954.208 -4.18385 1.07599 0
M  V30 10476 C 953.343 -5.29513 0.423038 0
M  V30 10477 C 952.382 -5.94596 1.45333 0
M  V30 10478 N 951.519 -6.97241 0.824623 0
M  V30 10479 H 956.359 -2.55025 1.54163 0
M  V30 10480 H 953.896 -1.25274 0.771032 0
M  V30 10481 H 955.854 -4.15754 -0.347032 0
M  V30 10482 H 954.484 -3.12093 -0.824481 0
M  V30 10483 H 953.536 -3.46446 1.57097 0
M  V30 10484 H 954.848 -4.62899 1.85813 0
M  V30 10485 H 954.002 -6.067 -0.00774975 0
M  V30 10486 H 952.741 -4.86129 -0.391092 0
M  V30 10487 H 951.746 -5.16142 1.89415 0
M  V30 10488 H 952.971 -6.40061 2.26934 0
M  V30 10489 H 950.917 -6.55993 0.0309804 0
M  V30 10490 H 950.834 -7.40059 1.54432 0
M  V30 10491 H 952.102 -7.78375 0.418567 0
M  V30 10492 N 956.331 -0.831506 -1.3388 0
M  V30 10493 C 957.579 -0.422837 -1.97627 0
M  V30 10494 C 957.9 1.01961 -1.6622 0
M  V30 10495 O 957.17 1.70916 -0.957323 0
M  V30 10496 H 955.75 -0.153365 -0.731087 0
M  V30 10497 H 958.412 -1.06284 -1.6337 0
M  V30 10498 H 957.508 -0.548858 -3.07236 0
M  V30 10499 N 957.809 1.4625 -0.587256 0
M  V30 10500 C 959.057 2.01963 -0.0744273 0
M  V30 10501 C 959.378 1.46065 1.29189 0
M  V30 10502 O 958.648 0.647077 1.84905 0
M  V30 10503 H 957.228 0.746597 -0.0245236 0
M  V30 10504 H 959.89 1.79299 -0.764063 0
M  V30 10505 H 958.986 3.12099 -0.00884894 0
M  V30 10506 N 959.287 0.325282 1.54207 0
M  V30 10507 C 960.698 -0.162426 1.85992 0
M  V30 10508 C 961.049 -1.51482 1.2469 0
M  V30 10509 O 960.174 -2.092 0.553578 0
M  V30 10510 C 960.769 -0.3015 3.37456 0
M  V30 10511 C 959.328 -0.73343 3.69185 0
M  V30 10512 C 958.475 0.143831 2.76927 0
M  V30 10513 H 961.426 0.545508 1.4903 0
M  V30 10514 H 961.447 -1.13212 3.63268 0
M  V30 10515 H 960.959 0.682942 3.82044 0
M  V30 10516 H 959.06 -1.72755 3.30131 0
M  V30 10517 H 959.173 -0.535987 4.76092 0
M  V30 10518 H 957.537 -0.380892 2.51836 0
M  V30 10519 H 958.32 1.12507 3.24341 0
M  V30 10520 N 960.765 -1.57509 0.0534917 0
M  V30 10521 C 961.675 -2.15152 -0.935249 0
M  V30 10522 C 962.691 -1.10991 -1.34003 0
M  V30 10523 O 963.867 -1.43171 -1.41648 0
M  V30 10524 C 960.932 -2.68699 -2.19093 0
M  V30 10525 C 959.993 -3.87666 -1.84428 0
M  V30 10526 C 959.226 -4.3865 -3.0401 0
M  V30 10527 O 959.449 -3.887 -4.17455 0
M  V30 10528 O 958.383 -5.30209 -2.84889 0
M  V30 10529 H 962.209 -2.99962 -0.475009 0
M  V30 10530 H 959.794 -1.48446 -0.16854 0
M  V30 10531 H 961.676 -3.03098 -2.92762 0
M  V30 10532 H 960.351 -1.86958 -2.6425 0
M  V30 10533 H 959.258 -3.58151 -1.08068 0
M  V30 10534 H 960.591 -4.70643 -1.44068 0
M  V30 10535 N 962.243 0.219913 -1.56058 0
M  V30 10536 C 963.654 0.786766 -1.69313 0
M  V30 10537 C 964.005 1.84916 -0.655782 0
M  V30 10538 O 963.13 2.1554 0.192772 0
M  V30 10539 C 963.725 1.43387 -3.06962 0
M  V30 10540 C 962.284 1.94809 -3.22066 0
M  V30 10541 C 961.431 0.808863 -2.65241 0
M  V30 10542 H 964.382 -0.00476777 -1.58699 0
M  V30 10543 H 964.403 2.30272 -3.02911 0
M  V30 10544 H 963.915 0.660405 -3.8244 0
M  V30 10545 H 962.016 2.74952 -2.5146 0
M  V30 10546 H 962.129 2.12694 -4.293 0
M  V30 10547 H 960.493 1.21661 -2.23765 0
M  V30 10548 H 961.276 0.0480458 -3.43266 0
M  V30 10549 N 963.721 1.49897 0.486681 0
M  V30 10550 C 964.949 1.63837 1.26353 0
M  V30 10551 C 965.364 0.315428 1.86146 0
M  V30 10552 O 964.721 -0.700831 1.68507 0
M  V30 10553 C 964.772 2.71792 2.38351 0
M  V30 10554 O 964.493 3.98956 1.81013 0
M  V30 10555 C 965.994 2.96566 3.2949 0
M  V30 10556 H 963.214 0.551158 0.382709 0
M  V30 10557 H 965.758 1.96023 0.582694 0
M  V30 10558 H 963.913 2.42344 3.02238 0
M  V30 10559 H 964.327 4.58536 2.54647 0
M  V30 10560 H 965.801 3.75803 4.04322 0
M  V30 10561 H 966.278 2.07031 3.87343 0
M  V30 10562 H 966.884 3.27485 2.71355 0
M  V30 10563 N 965.199 -0.738761 1.39212 0
M  V30 10564 C 966.61 -1.31684 1.32348 0
M  V30 10565 C 966.961 -1.96195 -0.0139041 0
M  V30 10566 O 966.086 -1.96056 -0.916025 0
M  V30 10567 C 966.681 -2.39444 2.39691 0
M  V30 10568 C 965.24 -2.92935 2.36359 0
M  V30 10569 C 964.387 -1.66465 2.21776 0
M  V30 10570 H 967.338 -0.536543 1.49355 0
M  V30 10571 H 967.359 -3.19744 2.06262 0
M  V30 10572 H 966.871 -1.92463 3.37016 0
M  V30 10573 H 964.972 -3.44207 1.42662 0
M  V30 10574 H 965.085 -3.46306 3.31073 0
M  V30 10575 H 963.449 -1.90657 1.68884 0
M  V30 10576 H 964.232 -1.21541 3.21065 0
M  V30 10577 N 966.677 -1.24326 -0.968545 0
M  V30 10578 C 967.607 -1.05951 -2.08079 0
M  V30 10579 C 968.588 0.0272666 -1.70078 0
M  V30 10580 O 969.773 -0.139644 -1.93697 0
M  V30 10581 C 966.903 -0.662623 -3.4092 0
M  V30 10582 C 965.857 -1.69807 -3.92873 0
M  V30 10583 C 965.183 -1.15628 -5.22048 0
M  V30 10584 C 966.483 -3.09383 -4.20808 0
M  V30 10585 H 968.177 -1.98984 -2.23709 0
M  V30 10586 H 965.723 -0.958112 -1.075 0
M  V30 10587 H 967.676 -0.521071 -4.18166 0
M  V30 10588 H 966.4 0.303399 -3.25188 0
M  V30 10589 H 965.059 -1.82783 -3.17783 0
M  V30 10590 H 964.707 -0.180888 -5.02675 0
M  V30 10591 H 964.407 -1.84822 -5.57776 0
M  V30 10592 H 965.931 -1.02683 -6.01904 0
M  V30 10593 H 967.345 -2.99642 -4.88761 0
M  V30 10594 H 965.742 -3.75923 -4.67763 0
M  V30 10595 H 966.812 -3.57486 -3.27616 0
M  V30 10596 N 968.156 1.1691 -1.05688 0
M  V30 10597 C 969.402 1.8757 -0.771071 0
M  V30 10598 C 969.735 1.8113 0.700399 0
M  V30 10599 O 969.01 1.22273 1.5126 0
M  V30 10600 C 969.293 3.37392 -1.25851 0
M  V30 10601 C 969.146 3.52556 -2.79329 0
M  V30 10602 C 970.465 4.31585 -0.861512 0
M  V30 10603 H 967.584 0.681089 -0.281579 0
M  V30 10604 H 970.226 1.37453 -1.31174 0
M  V30 10605 H 968.376 3.80204 -0.798563 0
M  V30 10606 H 970.048 3.18725 -3.33485 0
M  V30 10607 H 968.291 2.94668 -3.1836 0
M  V30 10608 H 968.962 4.57748 -3.08498 0
M  V30 10609 H 971.438 3.96642 -1.25756 0
M  V30 10610 H 970.314 5.34939 -1.23012 0
M  V30 10611 H 970.575 4.4148 0.234089 0
M  V30 10612 N 969.634 0.838594 1.33437 0
M  V30 10613 C 970.566 0.229006 2.28053 0
M  V30 10614 C 971.579 -0.590103 1.51729 0
M  V30 10615 O 972.768 -0.417218 1.73556 0
M  V30 10616 C 969.868 -0.696251 3.31671 0
M  V30 10617 C 969.041 0.0834606 4.3732 0
M  V30 10618 C 968.1 -0.765097 5.20608 0
M  V30 10619 O 967.126 -0.2044 5.68833 0
M  V30 10620 N 968.328 -2.08249 5.4186 0
M  V30 10621 H 971.093 1.04196 2.81004 0
M  V30 10622 H 968.654 0.697031 1.46127 0
M  V30 10623 H 970.646 -1.26889 3.84293 0
M  V30 10624 H 969.216 -1.40992 2.78998 0
M  V30 10625 H 968.436 0.837481 3.85201 0
M  V30 10626 H 969.724 0.619613 5.05013 0
M  V30 10627 H 969.122 -2.56156 5.04381 0
M  V30 10628 H 967.679 -2.60362 5.97541 0
M  V30 10629 N 971.112 -1.45937 0.595003 0
M  V30 10630 C 972.34 -2.06698 0.091293 0
M  V30 10631 C 972.755 -1.44176 -1.21897 0
M  V30 10632 O 972.112 -0.551402 -1.73971 0
M  V30 10633 C 972.163 -3.61436 -0.0681801 0
M  V30 10634 O 971.884 -4.21622 1.19023 0
M  V30 10635 C 973.385 -4.39155 -0.604814 0
M  V30 10636 H 970.605 -0.668029 0.0630737 0
M  V30 10637 H 973.149 -1.87376 0.819165 0
M  V30 10638 H 971.304 -3.80143 -0.746324 0
M  V30 10639 H 971.718 -5.14647 1.01187 0
M  V30 10640 H 973.192 -5.47973 -0.665532 0
M  V30 10641 H 973.669 -4.08055 -1.62444 0
M  V30 10642 H 974.275 -4.25282 0.0388658 0
M  V30 10643 N 972.59 -0.333456 -1.54032 0
M  V30 10644 C 973.837 0.266133 -2.00744 0
M  V30 10645 C 974.165 1.51361 -1.22148 0
M  V30 10646 O 973.42 1.93473 -0.294368 0
M  V30 10647 C 973.719 0.63565 -3.51702 0
M  V30 10648 C 973.385 -0.513786 -4.47963 0
M  V30 10649 C 972.047 -0.829253 -4.74001 0
M  V30 10650 C 974.399 -1.2854 -5.05101 0
M  V30 10651 C 971.727 -1.91888 -5.54433 0
M  V30 10652 C 974.079 -2.3652 -5.86721 0
M  V30 10653 C 972.743 -2.68637 -6.11057 0
M  V30 10654 H 972.013 0.097385 -0.734573 0
M  V30 10655 H 974.66 -0.459282 -1.85911 0
M  V30 10656 H 972.965 1.44163 -3.64313 0
M  V30 10657 H 974.662 1.11129 -3.85294 0
M  V30 10658 H 971.252 -0.25784 -4.27824 0
M  V30 10659 H 975.436 -1.05494 -4.84958 0
M  V30 10660 H 970.692 -2.17208 -5.71516 0
M  V30 10661 H 974.866 -2.96747 -6.30011 0
M  V30 10662 H 972.493 -3.53197 -6.73169 0
M  V30 10663 N 974.068 1.57479 -0.061844 0
M  V30 10664 C 974.998 2.15181 0.9066 0
M  V30 10665 C 975.979 1.07624 1.31724 0
M  V30 10666 O 977.164 1.35614 1.39006 0
M  V30 10667 C 974.294 2.70542 2.17771 0
M  V30 10668 C 973.248 3.83178 1.9068 0
M  V30 10669 C 972.574 4.25099 3.24337 0
M  V30 10670 C 973.874 5.07853 1.21994 0
M  V30 10671 H 975.568 2.96355 0.42594 0
M  V30 10672 H 973.114 1.42556 0.203435 0
M  V30 10673 H 975.067 3.09552 2.85929 0
M  V30 10674 H 973.791 1.86575 2.68062 0
M  V30 10675 H 972.45 3.44656 1.24931 0
M  V30 10676 H 972.098 3.38069 3.72449 0
M  V30 10677 H 971.798 5.01021 3.07005 0
M  V30 10678 H 973.322 4.66718 3.93709 0
M  V30 10679 H 974.736 5.44242 1.80204 0
M  V30 10680 H 973.133 5.88987 1.14954 0
M  V30 10681 H 974.203 4.84497 0.197536 0
M  V30 10682 N 975.546 -0.211634 1.56173 0
M  V30 10683 C 976.962 -0.56177 1.49386 0
M  V30 10684 C 977.162 -1.86666 0.758813 0
M  V30 10685 O 976.218 -2.50681 0.302534 0
M  V30 10686 C 977.531 -0.631815 2.93987 0
M  V30 10687 C 979.079 -0.721773 3.04564 0
M  V30 10688 C 979.554 -0.823075 4.50544 0
M  V30 10689 N 981.045 -0.887038 4.54627 0
M  V30 10690 C 981.78 -0.985304 5.64871 0
M  V30 10691 N 981.276 -1.0469 6.84844 0
M  V30 10692 N 983.069 -1.02121 5.52746 0
M  V30 10693 H 975.22 0.64452 2.02385 0
M  V30 10694 H 977.483 0.227466 0.920306 0
M  V30 10695 H 977.189 0.257592 3.50755 0
M  V30 10696 H 977.063 -1.4921 3.46433 0
M  V30 10697 H 979.45 -1.60162 2.47855 0
M  V30 10698 H 979.531 0.164385 2.55271 0
M  V30 10699 H 979.175 0.0523511 5.07873 0
M  V30 10700 H 979.105 -1.72479 4.97552 0
M  V30 10701 H 981.596 -0.849352 3.68231 0
M  V30 10702 H 981.909 -1.12193 7.64613 0
M  V30 10703 H 980.254 -1.01586 6.87536 0
M  V30 10704 H 983.445 -0.969814 4.57943 0
M  V30 10705 H 983.618 -1.09434 6.38693 0
M  V30 10706 N 977.024 -1.50153 -0.478725 0
M  V30 10707 C 978.44 -1.3741 -0.811833 0
M  V30 10708 C 978.64 -0.424303 -1.96982 0
M  V30 10709 O 977.696 0.13588 -2.52134 0
M  V30 10710 C 979.009 -2.78616 -1.13108 0
M  V30 10711 C 980.557 -2.87477 -1.23798 0
M  V30 10712 C 981.032 -4.295 -1.5904 0
M  V30 10713 N 982.523 -4.32415 -1.66047 0
M  V30 10714 C 983.258 -5.39295 -1.94805 0
M  V30 10715 N 982.754 -6.56392 -2.21635 0
M  V30 10716 N 984.547 -5.26731 -1.96243 0
M  V30 10717 H 976.698 -2.10486 0.284531 0
M  V30 10718 H 978.961 -0.945786 0.0647585 0
M  V30 10719 H 978.667 -3.49921 -0.35334 0
M  V30 10720 H 978.541 -3.15382 -2.06915 0
M  V30 10721 H 980.928 -2.16396 -2.00641 0
M  V30 10722 H 981.009 -2.54264 -0.279888 0
M  V30 10723 H 980.653 -5.01115 -0.827404 0
M  V30 10724 H 980.583 -4.60194 -2.55987 0
M  V30 10725 H 983.074 -3.47975 -1.47383 0
M  V30 10726 H 983.387 -7.33658 -2.4283 0
M  V30 10727 H 981.732 -6.59579 -2.19043 0
M  V30 10728 H 984.923 -4.34249 -1.74773 0
M  V30 10729 H 985.096 -6.10115 -2.1832 0
M  V30 10730 N 978.502 0.731368 -1.39602 0
M  V30 10731 C 979.434 1.85575 -1.34516 0
M  V30 10732 C 980.447 1.60818 -0.253287 0
M  V30 10733 O 981.636 1.70984 -0.512505 0
M  V30 10734 C 978.736 3.21673 -1.06676 0
M  V30 10735 C 977.909 3.73757 -2.27211 0
M  V30 10736 C 976.968 4.88426 -1.95773 0
M  V30 10737 O 975.994 5.01898 -2.68491 0
M  V30 10738 N 977.196 5.73065 -0.926083 0
M  V30 10739 H 979.961 1.90442 -2.31413 0
M  V30 10740 H 977.522 0.912258 -1.33752 0
M  V30 10741 H 979.514 3.95959 -0.836577 0
M  V30 10742 H 978.084 3.12052 -0.185003 0
M  V30 10743 H 977.304 2.90781 -2.66158 0
M  V30 10744 H 978.592 4.05289 -3.07601 0
M  V30 10745 H 977.99 5.64774 -0.323497 0
M  V30 10746 H 976.547 6.47403 -0.755795 0
M  V30 10747 N 979.98 1.24838 0.961938 0
M  V30 10748 C 980.912 1.00369 2.06055 0
M  V30 10749 C 981.925 -0.0288583 1.62774 0
M  V30 10750 O 983.114 0.208853 1.77274 0
M  V30 10751 C 980.214 0.493953 3.35281 0
M  V30 10752 C 979.387 1.59097 4.07439 0
M  V30 10753 C 978.446 1.08288 5.14937 0
M  V30 10754 O 977.472 1.77577 5.40791 0
M  V30 10755 N 978.674 -0.0796836 5.80445 0
M  V30 10756 H 981.439 1.94962 2.27618 0
M  V30 10757 H 979 1.15945 1.12997 0
M  V30 10758 H 980.992 0.138675 4.04462 0
M  V30 10759 H 979.562 -0.357851 3.10545 0
M  V30 10760 H 978.782 2.11817 3.32456 0
M  V30 10761 H 980.07 2.32817 4.52409 0
M  V30 10762 H 979.468 -0.658827 5.6185 0
M  V30 10763 H 978.025 -0.376057 6.50714 0
M  V30 10764 N 981.458 -1.16348 1.06306 0
M  V30 10765 C 982.874 -1.38873 0.786543 0
M  V30 10766 C 983.074 -1.91915 -0.614061 0
M  V30 10767 O 982.13 -2.11804 -1.3746 0
M  V30 10768 C 983.443 -2.36936 1.85154 0
M  V30 10769 C 984.991 -2.5062 1.87506 0
M  V30 10770 C 985.466 -3.51965 2.9306 0
M  V30 10771 N 986.957 -3.59492 2.92095 0
M  V30 10772 C 987.692 -4.37699 3.70415 0
M  V30 10773 N 987.188 -5.19327 4.58553 0
M  V30 10774 N 988.981 -4.32683 3.58806 0
M  V30 10775 H 981.132 -0.802542 1.96655 0
M  V30 10776 H 983.395 -0.415304 0.852189 0
M  V30 10777 H 983.101 -2.05056 2.85736 0
M  V30 10778 H 982.975 -3.36585 1.70267 0
M  V30 10779 H 985.362 -2.81804 0.875827 0
M  V30 10780 H 985.443 -1.51006 2.06472 0
M  V30 10781 H 985.087 -3.21518 3.93177 0
M  V30 10782 H 985.017 -4.51309 2.71344 0
M  V30 10783 H 987.508 -3.01222 2.28197 0
M  V30 10784 H 987.821 -5.76216 5.1497 0
M  V30 10785 H 986.166 -5.1867 4.62608 0
M  V30 10786 H 989.357 -3.67971 2.89335 0
M  V30 10787 H 989.53 -4.93386 4.20088 0
M  V30 10788 N 982.937 -0.845659 -1.3299 0
M  V30 10789 C 983.867 -0.298957 -2.31578 0
M  V30 10790 C 984.848 0.597012 -1.59279 0
M  V30 10791 O 986.033 0.519142 -1.87132 0
M  V30 10792 C 983.163 0.521109 -3.43368 0
M  V30 10793 C 982.117 -0.279651 -4.27085 0
M  V30 10794 C 981.443 0.664591 -5.30554 0
M  V30 10795 C 982.743 -1.50046 -5.00283 0
M  V30 10796 H 984.437 -1.12272 -2.77552 0
M  V30 10797 H 981.983 -0.54132 -1.33438 0
M  V30 10798 H 983.936 0.913921 -4.1137 0
M  V30 10799 H 982.66 1.37815 -2.96099 0
M  V30 10800 H 981.319 -0.654106 -3.60717 0
M  V30 10801 H 980.967 1.51822 -4.79541 0
M  V30 10802 H 980.667 0.132871 -5.8745 0
M  V30 10803 H 982.191 1.05477 -6.01421 0
M  V30 10804 H 983.605 -1.18044 -5.61016 0
M  V30 10805 H 982.002 -1.96946 -5.66862 0
M  V30 10806 H 983.072 -2.26659 -4.28665 0
M  V30 10807 N 984.415 1.45619 -0.602734 0
M  V30 10808 C 985.347 2.28662 0.157012 0
M  V30 10809 C 986.36 1.39672 0.836396 0
M  V30 10810 O 987.549 1.64091 0.702599 0
M  V30 10811 C 984.649 3.1528 1.24306 0
M  V30 10812 C 983.822 4.32517 0.651731 0
M  V30 10813 C 982.881 5.00381 1.62804 0
M  V30 10814 O 981.907 5.57333 1.15624 0
M  V30 10815 N 983.109 4.99221 2.96241 0
M  V30 10816 H 985.874 2.94506 -0.555535 0
M  V30 10817 H 983.435 1.55753 -0.441881 0
M  V30 10818 H 985.427 3.57544 1.8959 0
M  V30 10819 H 983.997 2.51376 1.85819 0
M  V30 10820 H 983.217 3.93793 -0.17907 0
M  V30 10821 H 984.505 5.08249 0.236802 0
M  V30 10822 H 983.903 4.54232 3.37179 0
M  V30 10823 H 982.46 5.45364 3.56961 0
M  V30 10824 N 985.893 0.34162 1.53853 0
M  V30 10825 C 986.803 -0.524555 2.2866 0
M  V30 10826 C 987.819 -1.1136 1.33697 0
M  V30 10827 O 988.995 -1.1297 1.66732 0
M  V30 10828 C 986.06 -1.66065 3.04341 0
M  V30 10829 C 985.121 -1.10158 4.14926 0
M  V30 10830 C 984.354 -2.18353 4.86988 0
M  V30 10831 O 984.577 -3.39038 4.58704 0
M  V30 10832 O 983.511 -1.82756 5.73484 0
M  V30 10833 H 987.337 0.0835014 3.03585 0
M  V30 10834 H 984.922 0.106727 1.49018 0
M  V30 10835 H 986.804 -2.3217 3.51674 0
M  V30 10836 H 985.479 -2.25456 2.32275 0
M  V30 10837 H 984.386 -0.405109 3.719 0
M  V30 10838 H 985.719 -0.552567 4.89088 0
M  V30 10839 N 987.371 -1.57444 0.0701946 0
M  V30 10840 C 988.62 -1.92605 -0.598849 0
M  V30 10841 C 988.933 -0.952058 -1.70866 0
M  V30 10842 O 990.139 -1.19643 -2.43716 0
M  V30 10843 C 988.595 -3.42142 -1.11655 0
M  V30 10844 C 988.203 -4.47984 -0.0378355 0
M  V30 10845 C 989.947 -3.86307 -1.75975 0
M  V30 10846 C 987.854 -5.88652 -0.569495 0
M  V30 10847 H 986.784 -0.718873 -0.22746 0
M  V30 10848 H 989.435 -1.82948 0.14217 0
M  V30 10849 H 987.817 -3.46866 -1.91049 0
M  V30 10850 H 988.991 -4.54874 0.736661 0
M  V30 10851 H 987.306 -4.13277 0.50904 0
M  V30 10852 H 989.903 -4.88784 -2.16782 0
M  V30 10853 H 990.246 -3.23587 -2.61911 0
M  V30 10854 H 990.779 -3.84179 -1.03206 0
M  V30 10855 H 987.518 -6.55013 0.252662 0
M  V30 10856 H 987.038 -5.85285 -1.31155 0
M  V30 10857 H 988.717 -6.38482 -1.04641 0
M  V30 10858 N 988.849 0.203349 -1.56283 0
M  V30 10859 C 989.759 1.27266 -1.9708 0
M  V30 10860 C 990.775 1.50268 -0.877236 0
M  V30 10861 O 991.951 1.63044 -1.18231 0
M  V30 10862 C 989.016 2.59871 -2.29495 0
M  V30 10863 C 988.077 2.45012 -3.52516 0
M  V30 10864 C 987.31 3.71293 -3.83376 0
M  V30 10865 O 987.533 4.75106 -3.15643 0
M  V30 10866 O 986.467 3.67316 -4.76826 0
M  V30 10867 H 990.293 0.956461 -2.88246 0
M  V30 10868 H 987.878 0.407688 -1.4373 0
M  V30 10869 H 989.76 3.38152 -2.51458 0
M  V30 10870 H 988.435 2.91135 -1.415 0
M  V30 10871 H 987.342 1.6487 -3.35811 0
M  V30 10872 H 988.675 2.18683 -4.40952 0
M  V30 10873 N 990.327 1.50405 0.470755 0
M  V30 10874 C 991.743 1.37838 0.804534 0
M  V30 10875 C 991.943 0.434743 1.96754 0
M  V30 10876 O 990.999 -0.122507 2.52203 0
M  V30 10877 C 992.312 2.79212 1.11629 0
M  V30 10878 C 993.86 2.88129 1.22272 0
M  V30 10879 C 994.335 4.30337 1.5676 0
M  V30 10880 N 995.826 4.3329 1.63751 0
M  V30 10881 C 996.561 5.4032 1.91942 0
M  V30 10882 N 996.057 6.57558 2.18151 0
M  V30 10883 N 997.85 5.27764 1.93446 0
M  V30 10884 H 990.001 2.10332 -0.295689 0
M  V30 10885 H 992.264 0.945429 -0.0697733 0
M  V30 10886 H 991.97 3.50103 0.334778 0
M  V30 10887 H 991.844 3.16475 2.0524 0
M  V30 10888 H 994.231 2.17457 1.9949 0
M  V30 10889 H 994.312 2.54409 0.2664 0
M  V30 10890 H 993.956 5.01547 0.800817 0
M  V30 10891 H 993.886 4.61545 2.53543 0
M  V30 10892 H 996.377 3.48752 1.45535 0
M  V30 10893 H 996.69 7.34935 2.38936 0
M  V30 10894 H 995.035 6.60732 2.15542 0
M  V30 10895 H 998.226 4.35169 1.72468 0
M  V30 10896 H 998.399 6.11264 2.15081 0
M  V30 10897 N 991.805 -0.723954 1.39988 0
M  V30 10898 C 993.221 -1.03095 1.21834 0
M  V30 10899 C 993.421 -2.01309 0.0876647 0
M  V30 10900 O 992.477 -2.46277 -0.55714 0
M  V30 10901 C 993.79 -1.58267 2.5568 0
M  V30 10902 C 995.338 -1.70293 2.6262 0
M  V30 10903 C 995.813 -2.28872 3.96713 0
M  V30 10904 N 997.304 -2.36269 3.98411 0
M  V30 10905 C 998.039 -2.82557 4.98948 0
M  V30 10906 N 997.535 -3.28661 6.0988 0
M  V30 10907 N 999.328 -2.81866 4.86321 0
M  V30 10908 H 991.479 -0.0727891 2.12275 0
M  V30 10909 H 993.742 -0.0949029 0.943238 0
M  V30 10910 H 993.448 -0.935642 3.39026 0
M  V30 10911 H 993.322 -2.56914 2.76179 0
M  V30 10912 H 995.709 -2.34115 1.7965 0
M  V30 10913 H 995.79 -0.70268 2.45959 0
M  V30 10914 H 995.434 -1.65675 4.80119 0
M  V30 10915 H 995.364 -3.29595 4.107 0
M  V30 10916 H 997.855 -2.03697 3.18302 0
M  V30 10917 H 998.168 -3.62524 6.82493 0
M  V30 10918 H 996.513 -3.26641 6.13458 0
M  V30 10919 H 999.704 -2.45179 3.98754 0
M  V30 10920 H 999.877 -3.17626 5.64817 0
M  V30 10921 N 993.283 -1.25346 -0.955304 0
M  V30 10922 C 994.699 -1.02154 -1.22625 0
M  V30 10923 C 994.899 0.26206 -1.99789 0
M  V30 10924 O 993.955 0.974958 -2.32918 0
M  V30 10925 C 995.268 -2.2443 -2.00129 0
M  V30 10926 C 996.816 -2.29185 -2.13174 0
M  V30 10927 C 997.291 -3.51117 -2.94077 0
M  V30 10928 N 998.782 -3.51509 -3.01655 0
M  V30 10929 C 999.517 -4.42517 -3.64645 0
M  V30 10930 N 999.013 -5.43796 -4.29252 0
M  V30 10931 N 1000.81 -4.302 -3.61779 0
M  V30 10932 H 992.957 -2.07812 -0.439071 0
M  V30 10933 H 995.22 -0.91258 -0.256715 0
M  V30 10934 H 994.926 -3.17717 -1.50827 0
M  V30 10935 H 994.8 -2.27548 -3.00835 0
M  V30 10936 H 997.187 -1.36422 -2.61674 0
M  V30 10937 H 997.268 -2.30087 -1.11775 0
M  V30 10938 H 996.912 -4.44201 -2.46268 0
M  V30 10939 H 996.842 -3.4746 -3.95701 0
M  V30 10940 H 999.333 -2.78245 -2.55711 0
M  V30 10941 H 999.646 -6.09453 -4.75171 0
M  V30 10942 H 997.991 -5.4767 -4.27882 0
M  V30 10943 H 1001.18 -3.50304 -3.10491 0
M  V30 10944 H 1001.36 -5.01323 -4.10584 0
M  V30 10945 N 994.761 1.15782 -1.06922 0
M  V30 10946 C 995.709 2.22441 -0.679893 0
M  V30 10947 C 996.703 1.66591 0.307221 0
M  V30 10948 O 997.909 1.79182 0.171402 0
M  V30 10949 H 994.284 0.724427 -0.201765 0
M  V30 10950 H 996.255 2.52562 -1.58918 0
M  V30 10951 C 995.004 3.47586 -0.0891142 0
M  V30 10952 H 994.327 3.9088 -0.839805 0
M  V30 10953 H 995.767 4.2375 0.14569 0
M  V30 10954 C 994.226 3.15967 1.16903 0
M  V30 10955 O 994.756 3.32359 2.25611 0
M  V30 10956 N 992.962 2.70046 1.07349 0
M  V30 10957 H 992.509 2.56907 0.188825 0
M  V30 10958 H 992.467 2.49264 1.91611 0
M  V30 10959 N 996.239 0.8527 1.3254 0
M  V30 10960 C 997.467 0.469044 2.01513 0
M  V30 10961 C 997.882 -0.933701 1.64096 0
M  V30 10962 O 997.239 -1.60898 0.861283 0
M  V30 10963 C 997.29 0.596228 3.56549 0
M  V30 10964 O 997.011 1.94371 3.92621 0
M  V30 10965 C 998.512 0.211324 4.42796 0
M  V30 10966 H 995.732 0.184589 0.645111 0
M  V30 10967 H 998.276 1.1491 1.69163 0
M  V30 10968 H 996.431 -0.0360712 3.87383 0
M  V30 10969 H 996.845 1.93909 4.87339 0
M  V30 10970 H 998.319 0.351324 5.50881 0
M  V30 10971 H 998.796 -0.848055 4.30935 0
M  V30 10972 H 999.402 0.818617 4.17347 0
M  V30 10973 N 997.718 -1.45297 0.610449 0
M  V30 10974 C 999.129 -1.85715 0.191488 0
M  V30 10975 C 999.48 -1.51036 -1.25229 0
M  V30 10976 O 998.605 -0.938422 -1.94994 0
M  V30 10977 C 999.2 -3.37082 0.340747 0
M  V30 10978 C 997.759 -3.76393 -0.0235433 0
M  V30 10979 C 996.906 -2.69237 0.663849 0
M  V30 10980 H 999.857 -1.36058 0.816948 0
M  V30 10981 H 999.878 -3.78105 -0.426233 0
M  V30 10982 H 999.39 -3.62291 1.39164 0
M  V30 10983 H 997.491 -3.56801 -1.07351 0
M  V30 10984 H 997.604 -4.77653 0.372102 0
M  V30 10985 H 995.968 -2.54499 0.101204 0
M  V30 10986 H 996.751 -2.97281 1.71694 0
M  V30 10987 N 999.196 -0.349774 -1.5367 0
M  V30 10988 C 1000.44 0.244827 -2.01015 0
M  V30 10989 C 1000.77 1.50057 -1.23746 0
M  V30 10990 O 1000.03 1.9315 -0.314872 0
M  V30 10991 C 1000.32 0.598311 -3.52356 0
M  V30 10992 C 999.991 -0.56127 -4.47393 0
M  V30 10993 C 998.653 -0.879481 -4.73095 0
M  V30 10994 C 1001 -1.3389 -5.03709 0
M  V30 10995 C 998.333 -1.97758 -5.52366 0
M  V30 10996 C 1000.68 -2.4273 -5.84179 0
M  V30 10997 C 999.349 -2.75103 -6.08173 0
M  V30 10998 H 998.619 0.0895884 -0.735564 0
M  V30 10999 H 1001.27 -0.478975 -1.85413 0
M  V30 11000 H 999.571 1.40291 -3.65822 0
M  V30 11001 H 1001.27 1.07036 -3.86451 0
M  V30 11002 H 997.858 -0.303201 -4.27526 0
M  V30 11003 H 1002.04 -1.10632 -4.83812 0
M  V30 11004 H 997.298 -2.23257 -5.6918 0
M  V30 11005 H 1001.47 -3.03412 -6.26828 0
M  V30 11006 H 999.099 -3.60317 -6.69385 0
M  V30 11007 N 1000.67 1.57404 -0.0785433 0
M  V30 11008 C 1001.62 2.09632 0.896565 0
M  V30 11009 C 1002.61 1.00754 1.25449 0
M  V30 11010 O 1003.8 1.27053 1.23234 0
M  V30 11011 C 1000.93 2.66694 2.16169 0
M  V30 11012 C 1000.01 3.82588 1.82994 0
M  V30 11013 N 1000.41 4.91286 1.203 0
M  V30 11014 C 998.704 3.92011 2.12704 0
M  V30 11015 C 999.405 5.72077 1.05367 0
M  V30 11016 N 998.381 5.20567 1.56559 0
M  V30 11017 H 1002.18 2.9106 0.407621 0
M  V30 11018 H 999.697 1.61917 0.125155 0
M  V30 11019 H 1001.69 3.0243 2.86952 0
M  V30 11020 H 1000.35 1.86716 2.65645 0
M  V30 11021 H 1001.36 5.10509 0.871817 0
M  V30 11022 H 998.042 3.23018 2.6451 0
M  V30 11023 H 999.432 6.69523 0.564685 0
M  V30 11024 N 1002.15 -0.195058 1.56388 0
M  V30 11025 C 1003.06 -1.26219 1.97752 0
M  V30 11026 C 1004.08 -1.49801 0.885192 0
M  V30 11027 O 1005.25 -1.62415 1.19094 0
M  V30 11028 C 1002.32 -2.5865 2.3087 0
M  V30 11029 C 1001.38 -2.4314 3.5381 0
M  V30 11030 C 1000.61 -3.69255 3.85339 0
M  V30 11031 O 1000.84 -4.73425 3.18159 0
M  V30 11032 O 999.77 -3.64782 4.78767 0
M  V30 11033 H 1003.6 -0.941161 2.88749 0
M  V30 11034 H 1001.18 -0.40006 1.43944 0
M  V30 11035 H 1003.06 -3.36814 2.53247 0
M  V30 11036 H 1001.74 -2.9038 1.43042 0
M  V30 11037 H 1000.64 -1.63086 3.3668 0
M  V30 11038 H 1001.98 -2.16341 4.42105 0
M  V30 11039 N 1003.63 -1.50653 -0.462772 0
M  V30 11040 C 1005.05 -1.38263 -0.797213 0
M  V30 11041 C 1005.25 -0.445172 -1.96521 0
M  V30 11042 O 1004.3 0.10913 -2.52264 0
M  V30 11043 C 1005.61 -2.798 -1.10146 0
M  V30 11044 C 1007.16 -2.88774 -1.20742 0
M  V30 11045 C 1007.64 -4.31163 -1.54476 0
M  V30 11046 N 1009.13 -4.34152 -1.61451 0
M  V30 11047 C 1009.86 -5.4133 -1.89074 0
M  V30 11048 N 1009.36 -6.58705 -2.1466 0
M  V30 11049 N 1011.15 -5.28783 -1.90645 0
M  V30 11050 H 1003.3 -2.10172 0.30684 0
M  V30 11051 H 1005.57 -0.945046 0.0747862 0
M  V30 11052 H 1005.27 -3.50276 -0.316207 0
M  V30 11053 H 1005.15 -3.17559 -2.03559 0
M  V30 11054 H 1007.53 -2.18512 -1.98334 0
M  V30 11055 H 1007.61 -2.54547 -0.252904 0
M  V30 11056 H 1007.26 -5.01965 -0.774207 0
M  V30 11057 H 1007.19 -4.62883 -2.51092 0
M  V30 11058 H 1009.68 -3.49519 -1.43684 0
M  V30 11059 H 1009.99 -7.36192 -2.35035 0
M  V30 11060 H 1008.34 -6.61866 -2.12035 0
M  V30 11061 H 1011.53 -4.36078 -1.70158 0
M  V30 11062 H 1011.7 -6.12396 -2.11836 0
M  V30 11063 N 1005.11 0.71652 -1.4037 0
M  V30 11064 C 1006.36 1.47638 -1.38597 0
M  V30 11065 C 1006.68 1.94496 0.0120141 0
M  V30 11066 O 1005.94 1.68437 0.996373 0
M  V30 11067 C 1006.24 2.71777 -2.32103 0
M  V30 11068 C 1005.9 2.43689 -3.79376 0
M  V30 11069 C 1004.57 2.35739 -4.195 0
M  V30 11070 C 1006.92 2.20099 -4.72447 0
M  V30 11071 C 1004.25 2.02265 -5.50732 0
M  V30 11072 C 1006.6 1.88138 -6.03976 0
M  V30 11073 C 1005.26 1.78669 -6.43143 0
M  V30 11074 H 1004.53 0.540246 -0.507163 0
M  V30 11075 H 1007.18 0.820822 -1.73017 0
M  V30 11076 H 1005.48 3.42166 -1.90865 0
M  V30 11077 H 1007.18 3.29864 -2.28015 0
M  V30 11078 H 1003.77 2.50763 -3.47585 0
M  V30 11079 H 1007.95 2.25198 -4.42266 0
M  V30 11080 H 1003.21 1.93471 -5.79982 0
M  V30 11081 H 1007.38 1.68898 -6.75608 0
M  V30 11082 H 1005.01 1.52498 -7.44747 0
M  V30 11083 N 1006.59 1.25851 0.948643 0
M  V30 11084 C 1007.83 1.10954 1.69397 0
M  V30 11085 C 1008.16 -0.348443 1.91353 0
M  V30 11086 O 1007.42 -1.27285 1.48651 0
M  V30 11087 C 1007.72 1.81565 3.07846 0
M  V30 11088 C 1007.38 3.31477 3.0567 0
M  V30 11089 C 1006.04 3.72371 3.04784 0
M  V30 11090 C 1008.4 4.27225 2.98543 0
M  V30 11091 C 1005.72 5.07416 2.94527 0
M  V30 11092 C 1008.08 5.62301 2.89828 0
M  V30 11093 C 1006.74 6.02516 2.87281 0
M  V30 11094 H 1006.01 0.406011 0.619868 0
M  V30 11095 H 1008.66 1.562 1.10787 0
M  V30 11096 H 1006.96 1.28767 3.70035 0
M  V30 11097 H 1008.66 1.67486 3.64348 0
M  V30 11098 H 1005.25 2.98941 3.07135 0
M  V30 11099 H 1009.43 3.96618 2.98342 0
M  V30 11100 H 1004.69 5.37746 2.90928 0
M  V30 11101 H 1008.86 6.36182 2.83276 0
M  V30 11102 H 1006.49 7.07116 2.79089 0
M  V30 11103 N 1008.06 -1.15214 1.07534 0
M  V30 11104 C 1009.48 -1.38031 0.801228 0
M  V30 11105 C 1009.68 -1.92556 -0.593672 0
M  V30 11106 O 1008.74 -2.1325 -1.35206 0
M  V30 11107 C 1010.05 -2.34958 1.87657 0
M  V30 11108 C 1011.6 -2.48617 1.90154 0
M  V30 11109 C 1012.07 -3.48837 2.96777 0
M  V30 11110 N 1013.56 -3.56374 2.95892 0
M  V30 11111 C 1014.3 -4.33746 3.75036 0
M  V30 11112 N 1013.79 -5.14435 4.64036 0
M  V30 11113 N 1015.59 -4.28853 3.63375 0
M  V30 11114 H 1007.74 -0.781639 1.97495 0
M  V30 11115 H 1010 -0.406243 0.856546 0
M  V30 11116 H 1009.71 -2.02013 2.87895 0
M  V30 11117 H 1009.58 -3.3476 1.73827 0
M  V30 11118 H 1011.97 -2.80859 0.905666 0
M  V30 11119 H 1012.05 -1.48808 2.08062 0
M  V30 11120 H 1011.69 -3.1733 3.96565 0
M  V30 11121 H 1011.62 -4.48406 2.76116 0
M  V30 11122 H 1014.11 -2.98784 2.31379 0
M  V30 11123 H 1014.43 -5.70722 5.21053 0
M  V30 11124 H 1012.77 -5.13734 4.68084 0
M  V30 11125 H 1015.96 -3.64882 2.93221 0
M  V30 11126 H 1016.14 -4.88903 4.25298 0
M  V30 11127 N 1009.54 -0.859717 -1.32086 0
M  V30 11128 C 1010.79 -0.465581 -1.97075 0
M  V30 11129 C 1011.12 0.979917 -1.68012 0
M  V30 11130 O 1010.37 1.70337 -0.96353 0
M  V30 11131 C 1010.67 -0.657397 -3.51302 0
M  V30 11132 C 1010.34 -2.07413 -4.00363 0
M  V30 11133 C 1009 -2.4616 -4.13472 0
M  V30 11134 C 1011.35 -2.99855 -4.26305 0
M  V30 11135 C 1008.68 -3.76611 -4.49868 0
M  V30 11136 C 1011.03 -4.2981 -4.64161 0
M  V30 11137 C 1009.7 -4.68485 -4.75476 0
M  V30 11138 H 1008.97 -0.170368 -0.721149 0
M  V30 11139 H 1011.61 -1.09074 -1.57401 0
M  V30 11140 H 1009.92 0.0509638 -3.91767 0
M  V30 11141 H 1011.61 -0.332416 -3.9962 0
M  V30 11142 H 1008.2 -1.76327 -3.90649 0
M  V30 11143 H 1012.39 -2.7115 -4.15682 0
M  V30 11144 H 1007.64 -4.06352 -4.56824 0
M  V30 11145 H 1011.82 -5.015 -4.83188 0
M  V30 11146 H 1009.45 -5.69612 -5.03435 0
M  V30 11147 N 1011.02 1.44971 -0.618145 0
M  V30 11148 C 1011.95 2.33357 0.0815955 0
M  V30 11149 C 1012.93 1.47451 0.848072 0
M  V30 11150 O 1014.12 1.762 0.816532 0
M  V30 11151 C 1011.25 3.30324 1.07253 0
M  V30 11152 C 1010.2 4.25948 0.418563 0
M  V30 11153 C 1009.53 5.12685 1.51849 0
M  V30 11154 C 1010.83 5.18024 -0.66697 0
M  V30 11155 H 1012.52 2.92115 -0.656442 0
M  V30 11156 H 1010.07 1.40465 -0.317129 0
M  V30 11157 H 1012.02 3.91033 1.57069 0
M  V30 11158 H 1010.74 2.69748 1.8413 0
M  V30 11159 H 1009.4 3.66553 -0.0588308 0
M  V30 11160 H 1009.05 4.4847 2.2778 0
M  V30 11161 H 1008.75 5.7747 1.08637 0
M  V30 11162 H 1010.27 5.76264 2.01871 0
M  V30 11163 H 1011.69 5.72744 -0.252448 0
M  V30 11164 H 1010.09 5.91343 -1.02146 0
M  V30 11165 H 1011.16 4.59817 -1.53936 0
M  V30 11166 N 1012.5 0.357919 1.53482 0
M  V30 11167 C 1013.43 -0.484231 2.28424 0
M  V30 11168 C 1014.41 -1.09046 1.30548 0
M  V30 11169 O 1015.59 -1.10916 1.59409 0
M  V30 11170 C 1012.72 -1.62803 3.06778 0
M  V30 11171 C 1011.68 -1.14943 4.12277 0
M  V30 11172 C 1011 -2.38287 4.78669 0
M  V30 11173 C 1012.3 -0.239627 5.2175 0
M  V30 11174 H 1014 0.140979 2.99068 0
M  V30 11175 H 1011.54 0.069244 1.43833 0
M  V30 11176 H 1013.5 -2.22374 3.57949 0
M  V30 11177 H 1012.22 -2.28036 2.3381 0
M  V30 11178 H 1010.88 -0.576442 3.6204 0
M  V30 11179 H 1010.53 -3.01959 4.02281 0
M  V30 11180 H 1010.23 -2.06939 5.49955 0
M  V30 11181 H 1011.75 -2.98558 5.32631 0
M  V30 11182 H 1013.17 -0.742597 5.6847 0
M  V30 11183 H 1011.56 -0.0173747 6.00097 0
M  V30 11184 H 1012.63 0.720333 4.7952 0
M  V30 11185 N 1013.98 -1.5736 0.0868897 0
M  V30 11186 C 1015.39 -1.57304 -0.269762 0
M  V30 11187 C 1015.59 -1.09745 -1.68992 0
M  V30 11188 O 1014.65 -0.77017 -2.40468 0
M  V30 11189 C 1015.96 -3.00628 -0.0656646 0
M  V30 11190 C 1017.51 -3.12713 -0.134045 0
M  V30 11191 C 1017.98 -4.57981 0.0419569 0
M  V30 11192 N 1019.48 -4.63198 -0.0131501 0
M  V30 11193 C 1020.21 -5.73316 0.0983964 0
M  V30 11194 N 1019.71 -6.92296 0.264315 0
M  V30 11195 N 1021.5 -5.62086 0.0402517 0
M  V30 11196 H 1013.65 -1.86585 1.01487 0
M  V30 11197 H 1015.91 -0.860843 0.397055 0
M  V30 11198 H 1015.62 -3.39592 0.914891 0
M  V30 11199 H 1015.49 -3.68367 -0.811522 0
M  V30 11200 H 1017.88 -2.73627 -1.1051 0
M  V30 11201 H 1017.96 -2.47582 0.643167 0
M  V30 11202 H 1017.61 -4.9776 1.00984 0
M  V30 11203 H 1017.54 -5.21162 -0.754847 0
M  V30 11204 H 1020.03 -3.77644 -0.139183 0
M  V30 11205 H 1020.34 -7.72047 0.341165 0
M  V30 11206 H 1018.68 -6.94353 0.299876 0
M  V30 11207 H 1021.88 -4.68017 -0.0881801 0
M  V30 11208 H 1022.05 -6.47868 0.130635 0
M  V30 11209 N 1015.45 0.186762 -1.56489 0
M  V30 11210 C 1016.4 1.23141 -1.95205 0
M  V30 11211 C 1017.37 1.44799 -0.81378 0
M  V30 11212 O 1018.56 1.57795 -1.07263 0
M  V30 11213 C 1015.7 2.56926 -2.30397 0
M  V30 11214 C 1014.81 2.42777 -3.57328 0
M  V30 11215 C 1013.94 3.69323 -3.81804 0
M  V30 11216 C 1012.98 3.50041 -5.02133 0
M  V30 11217 N 1012.12 4.68619 -5.2282 0
M  V30 11218 H 1016.96 0.894256 -2.84266 0
M  V30 11219 H 1014.5 0.430187 -1.40669 0
M  V30 11220 H 1016.46 3.3488 -2.4882 0
M  V30 11221 H 1015.09 2.88668 -1.44466 0
M  V30 11222 H 1014.14 1.56078 -3.46906 0
M  V30 11223 H 1015.45 2.24468 -4.45439 0
M  V30 11224 H 1014.6 4.55715 -4.00511 0
M  V30 11225 H 1013.34 3.90595 -2.92039 0
M  V30 11226 H 1012.35 2.62034 -4.8334 0
M  V30 11227 H 1013.57 3.30206 -5.93414 0
M  V30 11228 H 1011.52 4.90139 -4.36005 0
M  V30 11229 H 1011.44 4.53165 -6.05126 0
M  V30 11230 H 1012.7 5.56338 -5.45993 0
M  V30 11231 N 1016.93 1.50896 0.454776 0
M  V30 11232 C 1017.86 1.73885 1.5584 0
M  V30 11233 C 1018.84 0.588172 1.59607 0
M  V30 11234 O 1020.03 0.829054 1.75614 0
M  V30 11235 C 1017.16 1.84796 2.94054 0
M  V30 11236 C 1016.11 3.00111 3.05152 0
M  V30 11237 C 1015.44 2.96183 4.45174 0
M  V30 11238 C 1016.74 4.40365 2.80849 0
M  V30 11239 H 1018.43 2.66292 1.36854 0
M  V30 11240 H 1015.98 1.28142 0.656936 0
M  V30 11241 H 1017.93 1.99462 3.71204 0
M  V30 11242 H 1016.66 0.890235 3.14233 0
M  V30 11243 H 1015.31 2.85121 2.30438 0
M  V30 11244 H 1014.96 1.98224 4.62295 0
M  V30 11245 H 1014.66 3.73608 4.53532 0
M  V30 11246 H 1016.19 3.1292 5.24322 0
M  V30 11247 H 1017.6 4.55795 3.47741 0
M  V30 11248 H 1016 5.19363 3.00636 0
M  V30 11249 H 1017.07 4.51606 1.76579 0
M  V30 11250 N 1018.41 -0.709066 1.40748 0
M  V30 11251 C 1019.64 -1.49591 1.425 0
M  V30 11252 C 1020.05 -1.89184 0.0248343 0
M  V30 11253 O 1019.39 -1.56429 -0.963109 0
M  V30 11254 C 1019.45 -2.79735 2.25807 0
M  V30 11255 C 1019.12 -2.62426 3.74141 0
M  V30 11256 C 1020.11 -2.29256 4.66624 0
M  V30 11257 C 1017.8 -2.78487 4.18032 0
M  V30 11258 C 1019.79 -2.12366 6.00982 0
M  V30 11259 C 1017.48 -2.61215 5.52458 0
M  V30 11260 C 1018.48 -2.28203 6.43749 0
M  V30 11261 O 1018.17 -2.11069 7.75697 0
M  V30 11262 H 1017.9 -0.467994 0.487809 0
M  V30 11263 H 1020.45 -0.881694 1.85514 0
M  V30 11264 H 1018.68 -3.43513 1.77584 0
M  V30 11265 H 1020.37 -3.41481 2.19421 0
M  V30 11266 H 1021.14 -2.16474 4.34009 0
M  V30 11267 H 1017.02 -3.03168 3.4729 0
M  V30 11268 H 1020.56 -1.86522 6.72202 0
M  V30 11269 H 1016.46 -2.73582 5.84656 0
M  V30 11270 H 1017.23 -2.25938 7.86698 0
M  V30 11271 N 1019.89 -1.26353 -0.941956 0
M  V30 11272 C 1021.14 -1.12017 -1.69056 0
M  V30 11273 C 1021.47 0.335856 -1.91274 0
M  V30 11274 O 1020.74 1.24677 -1.49285 0
M  V30 11275 C 1021.03 -1.88889 -3.06583 0
M  V30 11276 C 1020.88 -3.42394 -2.91696 0
M  V30 11277 C 1022.2 -1.68209 -4.06686 0
M  V30 11278 H 1019.32 -0.408311 -0.613556 0
M  V30 11279 H 1021.96 -1.55339 -1.09407 0
M  V30 11280 H 1020.11 -1.5207 -3.57501 0
M  V30 11281 H 1021.78 -3.88962 -2.48005 0
M  V30 11282 H 1020.02 -3.69459 -2.27338 0
M  V30 11283 H 1020.7 -3.91408 -3.89235 0
M  V30 11284 H 1023.17 -2.00286 -3.64726 0
M  V30 11285 H 1022.05 -2.24412 -5.00929 0
M  V30 11286 H 1022.31 -0.626474 -4.37639 0
M  V30 11287 N 1021.37 1.14642 -1.08144 0
M  V30 11288 C 1022.61 1.85617 -0.809484 0
M  V30 11289 C 1022.94 1.8279 0.664672 0
M  V30 11290 O 1022.2 1.25178 1.50429 0
M  V30 11291 C 1022.5 3.33953 -1.2732 0
M  V30 11292 C 1022.16 3.56969 -2.7547 0
M  V30 11293 C 1020.82 3.6296 -3.15933 0
M  V30 11294 C 1023.18 3.66014 -3.71057 0
M  V30 11295 C 1020.5 3.75515 -4.50783 0
M  V30 11296 C 1022.86 3.80094 -5.05679 0
M  V30 11297 C 1021.52 3.84333 -5.45751 0
M  V30 11298 H 1020.79 0.67922 -0.296211 0
M  V30 11299 H 1023.44 1.35433 -1.35389 0
M  V30 11300 H 1021.74 3.86399 -0.648329 0
M  V30 11301 H 1023.44 3.87291 -1.03957 0
M  V30 11302 H 1020.03 3.52953 -2.4315 0
M  V30 11303 H 1024.21 3.60679 -3.40917 0
M  V30 11304 H 1019.47 3.77057 -4.81288 0
M  V30 11305 H 1023.64 3.86035 -5.79612 0
M  V30 11306 H 1021.27 3.93814 -6.50242 0
M  V30 11307 N 1022.85 0.866709 1.31628 0
M  V30 11308 C 1024.26 0.558188 1.49521 0
M  V30 11309 C 1024.46 -0.90844 1.7986 0
M  V30 11310 O 1023.52 -1.6908 1.87531 0
M  V30 11311 C 1024.83 1.45559 2.63122 0
M  V30 11312 C 1026.38 1.45728 2.77006 0
M  V30 11313 C 1026.85 2.34017 3.937 0
M  V30 11314 N 1028.34 2.31879 4.00982 0
M  V30 11315 C 1029.08 2.96915 4.90539 0
M  V30 11316 N 1028.58 3.71109 5.85021 0
M  V30 11317 N 1030.37 2.86241 4.83759 0
M  V30 11318 H 1022.52 1.81574 1.10203 0
M  V30 11319 H 1024.78 0.77621 0.544244 0
M  V30 11320 H 1024.49 2.49904 2.47469 0
M  V30 11321 H 1024.36 1.15174 3.59186 0
M  V30 11322 H 1026.75 0.421419 2.92075 0
M  V30 11323 H 1026.83 1.80134 1.81619 0
M  V30 11324 H 1026.47 3.37678 3.79389 0
M  V30 11325 H 1026.4 1.96937 4.88388 0
M  V30 11326 H 1028.9 1.77948 3.33381 0
M  V30 11327 H 1029.21 4.1787 6.5008 0
M  V30 11328 H 1027.55 3.75217 5.8501 0
M  V30 11329 H 1030.74 2.27819 4.08921 0
M  V30 11330 H 1030.92 3.37206 5.5335 0
M  V30 11331 N 1024.32 -1.44642 0.625825 0
M  V30 11332 C 1025.74 -1.56925 0.290992 0
M  V30 11333 C 1025.94 -1.61424 -1.20601 0
M  V30 11334 O 1025 -1.55439 -1.98985 0
M  V30 11335 C 1026.31 -2.84343 0.978242 0
M  V30 11336 C 1027.86 -2.98047 0.955882 0
M  V30 11337 C 1028.33 -4.2826 1.62349 0
M  V30 11338 N 1029.82 -4.35062 1.58983 0
M  V30 11339 C 1030.56 -5.34524 2.07538 0
M  V30 11340 N 1030.05 -6.4042 2.6426 0
M  V30 11341 N 1031.85 -5.25998 1.98198 0
M  V30 11342 H 1024 -1.39965 1.59761 0
M  V30 11343 H 1026.26 -0.670368 0.670306 0
M  V30 11344 H 1025.97 -2.86985 2.03304 0
M  V30 11345 H 1025.84 -3.73699 0.512726 0
M  V30 11346 H 1028.23 -2.94961 -0.0904292 0
M  V30 11347 H 1028.31 -2.10053 1.45984 0
M  V30 11348 H 1027.95 -4.32105 2.66923 0
M  V30 11349 H 1027.88 -5.15102 1.09441 0
M  V30 11350 H 1030.37 -3.59147 1.17565 0
M  V30 11351 H 1030.69 -7.1259 2.99056 0
M  V30 11352 H 1029.03 -6.41121 2.68308 0
M  V30 11353 H 1032.22 -4.42178 1.5361 0
M  V30 11354 H 1032.4 -6.03359 2.3635 0
M  V30 11355 N 1025.8 -0.366053 -1.5329 0
M  V30 11356 C 1027.03 0.226839 -2.06156 0
M  V30 11357 C 1027.45 1.41637 -1.23776 0
M  V30 11358 O 1026.81 1.7947 -0.256948 0
M  V30 11359 C 1026.86 0.597956 -3.55608 0
M  V30 11360 O 1025.96 1.69512 -3.75951 0
M  V30 11361 H 1025.3 0.0329156 -0.663184 0
M  V30 11362 H 1027.83 -0.526793 -1.97702 0
M  V30 11363 H 1027.84 0.868831 -3.98642 0
M  V30 11364 H 1026.52 -0.271838 -4.15011 0
M  V30 11365 H 1025.09 1.41976 -3.44815 0
M  V30 11366 N 1027.28 1.57312 -0.0952337 0
M  V30 11367 C 1028.53 1.94358 0.568442 0
M  V30 11368 C 1028.85 0.97698 1.68182 0
M  V30 11369 O 1028.11 -0.00340398 1.957 0
M  V30 11370 C 1028.41 3.37937 1.16332 0
M  V30 11371 C 1028.07 4.50565 0.173715 0
M  V30 11372 C 1026.74 4.81099 -0.0984673 0
M  V30 11373 C 1029.09 5.18777 -0.501992 0
M  V30 11374 C 1026.42 5.77172 -1.05305 0
M  V30 11375 C 1028.77 6.15874 -1.44505 0
M  V30 11376 C 1027.43 6.44813 -1.72546 0
M  V30 11377 H 1026.7 0.711206 0.208007 0
M  V30 11378 H 1029.35 1.90734 -0.171096 0
M  V30 11379 H 1027.65 3.3814 1.97911 0
M  V30 11380 H 1029.35 3.63902 1.68453 0
M  V30 11381 H 1025.94 4.26766 0.396042 0
M  V30 11382 H 1030.13 4.95363 -0.304855 0
M  V30 11383 H 1025.38 5.97909 -1.2773 0
M  V30 11384 H 1029.56 6.67824 -1.97444 0
M  V30 11385 H 1027.18 7.19067 -2.46671 0
M  V30 11386 N 1028.76 -0.17846 1.56586 0
M  V30 11387 C 1029.69 -1.22342 1.98884 0
M  V30 11388 C 1030.67 -1.46564 0.86331 0
M  V30 11389 O 1031.85 -1.58019 1.12887 0
M  V30 11390 C 1028.98 -2.56396 2.34261 0
M  V30 11391 C 1027.94 -2.46756 3.49708 0
M  V30 11392 C 1027.26 -3.85235 3.70807 0
M  V30 11393 C 1028.56 -1.97838 4.83381 0
M  V30 11394 H 1030.26 -0.871848 2.86425 0
M  V30 11395 H 1027.8 -0.417948 1.37801 0
M  V30 11396 H 1029.76 -3.29695 2.62448 0
M  V30 11397 H 1028.48 -2.93327 1.43621 0
M  V30 11398 H 1027.14 -1.75912 3.21637 0
M  V30 11399 H 1026.79 -4.19547 2.7747 0
M  V30 11400 H 1026.49 -3.79655 4.48481 0
M  V30 11401 H 1028.01 -4.60131 4.01387 0
M  V30 11402 H 1029.43 -2.60906 5.10491 0
M  V30 11403 H 1027.82 -2.03223 5.64642 0
M  V30 11404 H 1028.89 -0.932339 4.75852 0
M  V30 11405 N 1030.24 -1.51135 -0.446768 0
M  V30 11406 C 1031.17 -1.66438 -1.56121 0
M  V30 11407 C 1032.15 -0.512061 -1.54327 0
M  V30 11408 O 1033.33 -0.734702 -1.73593 0
M  V30 11409 C 1030.46 -1.66932 -2.94706 0
M  V30 11410 C 1029.5 -2.88016 -3.14562 0
M  V30 11411 S 1030.34 -4.48973 -2.91863 0
M  V30 11412 C 1031.49 -4.52196 -4.32746 0
M  V30 11413 H 1031.73 -2.60702 -1.42904 0
M  V30 11414 H 1029.26 -1.40701 -0.635812 0
M  V30 11415 H 1031.22 -1.679 -3.74593 0
M  V30 11416 H 1029.88 -0.738607 -3.05292 0
M  V30 11417 H 1029.07 -2.84735 -4.15863 0
M  V30 11418 H 1028.67 -2.8474 -2.42485 0
M  V30 11419 H 1030.96 -4.27256 -5.25793 0
M  V30 11420 H 1031.91 -5.53957 -4.41064 0
M  V30 11421 H 1032.32 -3.81624 -4.15961 0
M  V30 11422 N 1031.71 0.701592 -1.41122 0
M  V30 11423 C 1032.94 1.49049 -1.43499 0
M  V30 11424 C 1033.36 1.88761 -0.0385684 0
M  V30 11425 O 1032.71 1.56384 0.940755 0
M  V30 11426 C 1032.76 2.7569 -2.33832 0
M  V30 11427 O 1032.49 2.37653 -3.68039 0
M  V30 11428 C 1033.99 3.69479 -2.44949 0
M  V30 11429 H 1031.21 0.459519 -0.488961 0
M  V30 11430 H 1033.75 0.864318 -1.85337 0
M  V30 11431 H 1031.91 3.34559 -1.95318 0
M  V30 11432 H 1032.32 3.19241 -4.16156 0
M  V30 11433 H 1033.79 4.55139 -3.12334 0
M  V30 11434 H 1034.27 4.13553 -1.47887 0
M  V30 11435 H 1034.88 3.16517 -2.84072 0
M  V30 11436 N 1033.19 1.2685 0.935242 0
M  V30 11437 C 1034.43 1.13972 1.69675 0
M  V30 11438 C 1034.8 -0.310655 1.8947 0
M  V30 11439 O 1036 -0.561692 2.62866 0
M  V30 11440 C 1034.27 1.89387 3.03096 0
M  V30 11441 S 1035.83 1.92633 3.94256 0
M  V30 11442 H 1032.64 0.407009 0.582979 0
M  V30 11443 H 1035.25 1.60653 1.11404 0
M  V30 11444 H 1033.95 2.9397 2.86374 0
M  V30 11445 H 1033.48 1.43171 3.66423 0
M  V30 11446 H 1035.5 1.01732 4.85659 0
M  V30 11447 N 1034.67 -1.14067 1.0875 0
M  V30 11448 C 1035.92 -1.84535 0.814235 0
M  V30 11449 C 1036.23 -1.84044 -0.662355 0
M  V30 11450 O 1037.44 -2.50336 -1.05091 0
M  V30 11451 C 1035.89 -3.31273 1.40663 0
M  V30 11452 C 1035.5 -3.40171 2.91526 0
M  V30 11453 C 1037.25 -4.0683 1.21201 0
M  V30 11454 C 1035.15 -4.81141 3.43885 0
M  V30 11455 H 1034.08 -0.691346 0.300926 0
M  V30 11456 H 1036.73 -1.28562 1.30935 0
M  V30 11457 H 1035.12 -3.87005 0.839215 0
M  V30 11458 H 1036.29 -2.94471 3.54434 0
M  V30 11459 H 1034.61 -2.78073 3.09942 0
M  V30 11460 H 1037.2 -5.10891 1.57781 0
M  V30 11461 H 1037.55 -4.16022 0.152092 0
M  V30 11462 H 1038.08 -3.57408 1.74655 0
M  V30 11463 H 1034.82 -4.77138 4.49466 0
M  V30 11464 H 1034.34 -5.27365 2.85738 0
M  V30 11465 H 1036.02 -5.50042 3.40681 0
M  V30 11466 N 1036.15 -0.873678 -1.31166 0
M  V30 11467 C 1037.37 -0.500242 -2.01277 0
M  V30 11468 C 1037.8 0.900811 -1.65127 0
M  V30 11469 O 1037.16 1.59504 -0.861862 0
M  V30 11470 C 1037.2 -0.668976 -3.5434 0
M  V30 11471 O 1036.31 0.290096 -4.11378 0
M  V30 11472 H 1035.65 -0.198507 -0.633633 0
M  V30 11473 H 1038.18 -1.17811 -1.67277 0
M  V30 11474 H 1038.19 -0.563673 -4.04088 0
M  V30 11475 H 1036.86 -1.69055 -3.79991 0
M  V30 11476 H 1035.44 0.139437 -3.72639 0
M  V30 11477 N 1037.63 1.44308 -0.633487 0
M  V30 11478 C 1038.56 2.33431 0.0568402 0
M  V30 11479 C 1039.54 1.48342 0.832386 0
M  V30 11480 O 1040.72 1.77056 0.797798 0
M  V30 11481 C 1037.85 3.31443 1.03743 0
M  V30 11482 C 1036.81 4.26368 0.373362 0
M  V30 11483 C 1036.13 5.14267 1.46403 0
M  V30 11484 C 1037.43 5.17287 -0.721876 0
M  V30 11485 H 1039.13 2.91402 -0.687388 0
M  V30 11486 H 1036.67 1.4012 -0.332009 0
M  V30 11487 H 1038.63 3.92677 1.52913 0
M  V30 11488 H 1037.35 2.71686 1.81258 0
M  V30 11489 H 1036.01 3.6647 -0.0977053 0
M  V30 11490 H 1035.66 4.50861 2.23011 0
M  V30 11491 H 1035.36 5.7859 1.02506 0
M  V30 11492 H 1036.88 5.78373 1.95748 0
M  V30 11493 H 1038.29 5.72444 -0.313181 0
M  V30 11494 H 1036.69 5.90226 -1.08413 0
M  V30 11495 H 1037.76 4.58159 -1.58804 0
M  V30 11496 N 1039.1 0.374177 1.53094 0
M  V30 11497 C 1040.52 0.0234783 1.59583 0
M  V30 11498 C 1040.72 -1.45984 1.38892 0
M  V30 11499 O 1039.78 -2.22251 1.19836 0
M  V30 11500 C 1041.09 0.487117 2.96728 0
M  V30 11501 C 1042.64 0.442073 3.09862 0
M  V30 11502 C 1043.11 0.881659 4.49434 0
M  V30 11503 N 1044.6 0.837062 4.55574 0
M  V30 11504 C 1045.34 1.14878 5.61774 0
M  V30 11505 N 1044.83 1.53022 6.75689 0
M  V30 11506 N 1046.63 1.07102 5.51802 0
M  V30 11507 H 1038.78 1.34003 1.64794 0
M  V30 11508 H 1041.04 0.548281 0.773364 0
M  V30 11509 H 1040.75 1.52252 3.17037 0
M  V30 11510 H 1040.62 -0.121772 3.77003 0
M  V30 11511 H 1043.01 -0.584216 2.89259 0
M  V30 11512 H 1043.09 1.08657 2.31576 0
M  V30 11513 H 1042.73 1.90611 4.70776 0
M  V30 11514 H 1042.66 0.214326 5.26164 0
M  V30 11515 H 1045.15 0.556173 3.73785 0
M  V30 11516 H 1045.47 1.75211 7.52676 0
M  V30 11517 H 1043.81 1.56895 6.77059 0
M  V30 11518 H 1047 0.772149 4.61688 0
M  V30 11519 H 1047.18 1.31728 6.3447 0
M  V30 11520 N 1040.58 -1.57259 0.103575 0
M  V30 11521 C 1041.53 -2.15727 -0.869739 0
M  V30 11522 C 1042.52 -1.10236 -1.28625 0
M  V30 11523 O 1043.73 -1.28567 -1.25979 0
M  V30 11524 H 1040.11 -0.690204 -0.298535 0
M  V30 11525 H 1042.08 -2.96317 -0.351984 0
M  V30 11526 C 1040.83 -2.75905 -2.11593 0
M  V30 11527 H 1040.15 -3.56768 -1.80434 0
M  V30 11528 H 1041.59 -3.20373 -2.77736 0
M  V30 11529 C 1040.05 -1.72218 -2.89556 0
M  V30 11530 O 1040.58 -1.16623 -3.84398 0
M  V30 11531 N 1038.78 -1.42514 -2.53255 0
M  V30 11532 H 1038.33 -1.87914 -1.76198 0
M  V30 11533 H 1038.29 -0.733782 -3.05717 0
M  V30 11534 N 1042.06 0.170153 -1.56679 0
M  V30 11535 C 1042.99 1.21285 -1.9953 0
M  V30 11536 C 1043.97 1.46104 -0.871071 0
M  V30 11537 O 1045.16 1.57419 -1.13724 0
M  V30 11538 C 1042.29 2.5515 -2.35618 0
M  V30 11539 C 1041.24 2.44898 -3.51011 0
M  V30 11540 C 1040.57 3.83263 -3.72845 0
M  V30 11541 C 1041.87 1.95271 -4.84424 0
M  V30 11542 H 1043.56 0.856646 -2.86883 0
M  V30 11543 H 1041.11 0.410634 -1.38021 0
M  V30 11544 H 1043.06 3.28299 -2.64193 0
M  V30 11545 H 1041.78 2.92561 -1.45175 0
M  V30 11546 H 1040.44 1.74203 -3.22566 0
M  V30 11547 H 1040.09 4.18069 -2.79691 0
M  V30 11548 H 1039.79 3.77272 -4.50488 0
M  V30 11549 H 1041.31 4.57996 -4.03822 0
M  V30 11550 H 1042.73 2.58195 -5.11867 0
M  V30 11551 H 1041.13 2.00225 -5.65712 0
M  V30 11552 H 1042.2 0.90709 -4.7634 0
M  V30 11553 N 1043.54 1.5137 0.438746 0
M  V30 11554 C 1044.79 1.63202 1.18524 0
M  V30 11555 C 1045.1 0.353408 1.92381 0
M  V30 11556 O 1046.31 0.351086 2.6922 0
M  V30 11557 C 1044.76 2.88218 2.15542 0
M  V30 11558 C 1044.37 4.23078 1.47339 0
M  V30 11559 C 1046.11 3.09407 2.90633 0
M  V30 11560 C 1044.02 5.39246 2.42833 0
M  V30 11561 H 1042.95 0.607864 0.446114 0
M  V30 11562 H 1045.6 1.77835 0.452421 0
M  V30 11563 H 1043.98 2.67216 2.92253 0
M  V30 11564 H 1045.16 4.54457 0.761964 0
M  V30 11565 H 1043.47 4.07755 0.844065 0
M  V30 11566 H 1046.07 3.9337 3.62165 0
M  V30 11567 H 1046.41 2.22428 3.51897 0
M  V30 11568 H 1046.95 3.30743 2.21029 0
M  V30 11569 H 1043.69 6.2848 1.8626 0
M  V30 11570 H 1043.21 5.12245 3.12034 0
M  V30 11571 H 1044.88 5.71137 3.03992 0
M  V30 11572 N 1045.02 -0.694098 1.41492 0
M  V30 11573 C 1045.95 -1.82042 1.46229 0
M  V30 11574 C 1046.93 -1.67047 0.320803 0
M  V30 11575 O 1048.11 -1.86758 0.53245 0
M  V30 11576 C 1045.24 -3.2019 1.34519 0
M  V30 11577 C 1044.2 -3.49892 2.46495 0
M  V30 11578 C 1043.52 -4.87411 2.1985 0
M  V30 11579 C 1044.82 -3.4872 3.88834 0
M  V30 11580 H 1046.52 -1.78335 2.40493 0
M  V30 11581 H 1044.06 -0.856566 1.15754 0
M  V30 11582 H 1046.02 -3.98699 1.36445 0
M  V30 11583 H 1044.74 -3.24527 0.367406 0
M  V30 11584 H 1043.4 -2.73734 2.43854 0
M  V30 11585 H 1043.05 -4.88375 1.20411 0
M  V30 11586 H 1042.75 -5.08248 2.94885 0
M  V30 11587 H 1044.27 -5.68228 2.23494 0
M  V30 11588 H 1045.68 -4.1723 3.93182 0
M  V30 11589 H 1044.08 -3.81089 4.63564 0
M  V30 11590 H 1045.15 -2.47665 4.16881 0
M  V30 11591 N 1046.49 -1.27344 -0.928501 0
M  V30 11592 C 1047.74 -1.13411 -1.67279 0
M  V30 11593 C 1048.06 0.320698 -1.92345 0
M  V30 11594 O 1047.33 1.2245 -1.52915 0
M  V30 11595 H 1045.91 -0.416712 -0.619968 0
M  V30 11596 H 1048.58 -1.5986 -1.11493 0
M  V30 11597 H 1047.67 -1.66256 -2.64131 0
M  V30 11598 N 1047.97 1.13488 -1.09353 0
M  V30 11599 C 1049.39 1.36739 -0.823086 0
M  V30 11600 C 1049.59 1.93476 0.562963 0
M  V30 11601 O 1048.64 2.15374 1.31796 0
M  V30 11602 C 1049.96 2.31943 -1.91371 0
M  V30 11603 C 1051.51 2.4556 -1.94085 0
M  V30 11604 C 1051.98 3.44072 -3.02289 0
M  V30 11605 N 1053.47 3.51622 -3.01524 0
M  V30 11606 C 1054.21 4.27724 -3.8189 0
M  V30 11607 N 1053.7 5.06987 -4.72161 0
M  V30 11608 N 1055.5 4.23018 -3.70152 0
M  V30 11609 H 1047.65 0.75012 -1.98713 0
M  V30 11610 H 1049.91 0.392564 -0.862901 0
M  V30 11611 H 1049.62 1.97408 -2.91072 0
M  V30 11612 H 1049.49 3.31952 -1.79131 0
M  V30 11613 H 1051.88 2.79382 -0.950234 0
M  V30 11614 H 1051.96 1.45479 -2.10403 0
M  V30 11615 H 1051.6 3.10981 -4.01564 0
M  V30 11616 H 1051.53 4.43956 -2.83214 0
M  V30 11617 H 1054.02 2.95066 -2.36103 0
M  V30 11618 H 1054.34 5.6236 -5.30067 0
M  V30 11619 H 1052.68 5.06222 -4.76197 0
M  V30 11620 H 1055.87 3.60171 -2.98989 0
M  V30 11621 H 1056.04 4.82075 -4.33022 0
M  V30 11622 N 1049.45 0.880621 1.30701 0
M  V30 11623 C 1050.86 0.547993 1.78477 0
M  V30 11624 C 1051.21 -0.935633 1.72454 0
M  V30 11625 O 1050.34 -1.73094 1.29874 0
M  V30 11626 C 1050.93 0.98795 3.24076 0
M  V30 11627 C 1049.49 0.706805 3.69704 0
M  V30 11628 C 1048.64 1.17335 2.51252 0
M  V30 11629 H 1051.59 1.06528 1.17633 0
M  V30 11630 H 1051.61 0.31508 3.79193 0
M  V30 11631 H 1051.12 2.06778 3.28427 0
M  V30 11632 H 1049.22 -0.36122 3.70845 0
M  V30 11633 H 1049.34 1.2913 4.6137 0
M  V30 11634 H 1047.7 0.592808 2.47705 0
M  V30 11635 H 1048.48 2.26083 2.58343 0
M  V30 11636 N 1050.93 -1.4397 0.641131 0
M  V30 11637 C 1052.15 -2.06818 0.155318 0
M  V30 11638 C 1052.58 -1.47665 -1.16519 0
M  V30 11639 O 1051.94 -0.58192 -1.71707 0
M  V30 11640 C 1051.99 -3.60542 0.0647537 0
M  V30 11641 O 1051.09 -4.00674 -0.976447 0
M  V30 11642 H 1050.43 -0.657962 0.0893404 0
M  V30 11643 H 1052.96 -1.84678 0.88064 0
M  V30 11644 H 1052.97 -4.07816 -0.122552 0
M  V30 11645 H 1051.65 -4.02975 1.02878 0
M  V30 11646 H 1050.22 -3.65013 -0.762905 0
M  V30 11647 N 1052.41 -0.382291 -1.52893 0
M  V30 11648 C 1053.34 0.447829 -2.29165 0
M  V30 11649 C 1054.32 1.06956 -1.32267 0
M  V30 11650 O 1055.5 1.08365 -1.61154 0
M  V30 11651 C 1052.63 1.57902 -3.09329 0
M  V30 11652 C 1051.59 1.08369 -4.14053 0
M  V30 11653 C 1050.91 2.30641 -4.82399 0
M  V30 11654 C 1052.21 0.156591 -5.22065 0
M  V30 11655 H 1053.91 -0.188541 -2.98806 0
M  V30 11656 H 1051.45 -0.0921179 -1.43705 0
M  V30 11657 H 1053.41 2.16652 -3.61442 0
M  V30 11658 H 1052.13 2.24287 -2.37409 0
M  V30 11659 H 1050.79 0.518772 -3.62911 0
M  V30 11660 H 1050.44 2.9552 -4.07034 0
M  V30 11661 H 1050.14 1.98163 -5.53177 0
M  V30 11662 H 1051.66 2.90047 -5.37313 0
M  V30 11663 H 1053.08 0.652065 -5.6958 0
M  V30 11664 H 1051.47 -0.0780978 -6.00049 0
M  V30 11665 H 1052.54 -0.796529 -4.78313 0
M  V30 11666 N 1053.89 1.57202 -0.111913 0
M  V30 11667 C 1054.8 2.18475 0.854753 0
M  V30 11668 C 1055.81 1.15888 1.29792 0
M  V30 11669 O 1056.99 1.48329 1.36237 0
M  V30 11670 C 1054.05 2.76645 2.0897 0
M  V30 11671 C 1053.11 3.94244 1.69913 0
M  V30 11672 C 1052.35 4.49631 2.8752 0
M  V30 11673 O 1052.57 4.03926 4.02741 0
M  V30 11674 O 1051.5 5.40417 2.65015 0
M  V30 11675 H 1055.33 3.01519 0.363352 0
M  V30 11676 H 1052.91 1.4897 0.113329 0
M  V30 11677 H 1054.8 3.13755 2.81311 0
M  V30 11678 H 1053.47 1.96637 2.5713 0
M  V30 11679 H 1052.38 3.61915 0.947013 0
M  V30 11680 H 1053.71 4.75666 1.26501 0
M  V30 11681 N 1055.36 -0.161842 1.56767 0
M  V30 11682 C 1056.3 -1.22499 1.93718 0
M  V30 11683 C 1057.31 -1.39975 0.831314 0
M  V30 11684 O 1058.5 -1.3981 1.10975 0
M  V30 11685 C 1055.6 -2.59222 2.18306 0
M  V30 11686 C 1054.77 -2.6292 3.4956 0
M  V30 11687 C 1053.83 -3.81074 3.62863 0
M  V30 11688 O 1052.86 -3.66633 4.35395 0
M  V30 11689 N 1054.06 -4.97923 2.98418 0
M  V30 11690 H 1056.82 -0.911043 2.85517 0
M  V30 11691 H 1054.38 -0.351533 1.58038 0
M  V30 11692 H 1056.38 -3.36749 2.24461 0
M  V30 11693 H 1054.95 -2.82969 1.32844 0
M  V30 11694 H 1054.17 -1.71418 3.54978 0
M  V30 11695 H 1055.45 -2.62409 4.35911 0
M  V30 11696 H 1054.85 -5.12557 2.39378 0
M  V30 11697 H 1053.41 -5.73277 3.10155 0
M  V30 11698 N 1056.84 -1.516 -0.430713 0
M  V30 11699 C 1057.77 -1.76342 -1.53054 0
M  V30 11700 C 1058.75 -0.61349 -1.58652 0
M  V30 11701 O 1059.94 -0.856888 -1.74273 0
M  V30 11702 C 1057.07 -1.8945 -2.91077 0
M  V30 11703 C 1056.02 -3.04928 -3.00339 0
M  V30 11704 C 1055.35 -3.03228 -4.40405 0
M  V30 11705 C 1056.65 -4.44777 -2.73808 0
M  V30 11706 H 1058.34 -2.68435 -1.326 0
M  V30 11707 H 1055.89 -1.29171 -0.636466 0
M  V30 11708 H 1057.84 -2.05343 -3.67984 0
M  V30 11709 H 1056.56 -0.940114 -3.12777 0
M  V30 11710 H 1055.22 -2.88751 -2.25872 0
M  V30 11711 H 1054.87 -2.05553 -4.59083 0
M  V30 11712 H 1054.57 -3.80776 -4.47531 0
M  V30 11713 H 1056.1 -3.21222 -5.19277 0
M  V30 11714 H 1057.51 -4.6127 -3.40445 0
M  V30 11715 H 1055.91 -5.2408 -2.92335 0
M  V30 11716 H 1056.98 -4.54358 -1.69372 0
M  V30 11717 N 1058.32 0.686584 -1.41858 0
M  V30 11718 C 1059.28 1.78214 -1.44126 0
M  V30 11719 C 1060.28 1.57366 -0.330541 0
M  V30 11720 O 1061.47 1.63874 -0.590837 0
M  V30 11721 C 1058.6 3.16704 -1.26142 0
M  V30 11722 H 1059.8 1.77594 -2.41661 0
M  V30 11723 H 1057.35 0.895085 -1.28132 0
M  V30 11724 H 1058.09 3.22957 -0.294823 0
M  V30 11725 H 1057.87 3.33238 -2.06627 0
M  V30 11726 H 1059.36 3.96658 -1.30584 0
M  V30 11727 N 1059.8 1.27835 0.921735 0
M  V30 11728 C 1060.73 1.06874 2.02758 0
M  V30 11729 C 1061.74 0.0229418 1.62784 0
M  V30 11730 O 1062.93 0.265145 1.7652 0
M  V30 11731 C 1060.03 0.60037 3.3354 0
M  V30 11732 C 1059.2 1.71979 4.02172 0
M  V30 11733 C 1058.26 1.24615 5.11231 0
M  V30 11734 O 1057.29 1.94692 5.34868 0
M  V30 11735 N 1058.49 0.105021 5.80405 0
M  V30 11736 H 1061.26 2.02105 2.213 0
M  V30 11737 H 1058.82 1.19481 1.09251 0
M  V30 11738 H 1060.81 0.267281 4.03816 0
M  V30 11739 H 1059.38 -0.258872 3.11526 0
M  V30 11740 H 1058.6 2.22287 3.25549 0
M  V30 11741 H 1059.89 2.47092 4.44773 0
M  V30 11742 H 1059.29 -0.479745 5.63662 0
M  V30 11743 H 1057.84 -0.168846 6.51581 0
M  V30 11744 N 1061.28 -1.12907 1.09954 0
M  V30 11745 C 1062.19 -2.22082 0.756095 0
M  V30 11746 C 1063.2 -1.72277 -0.244272 0
M  V30 11747 O 1064.38 -2.01224 -0.0842637 0
M  V30 11748 C 1061.44 -3.46192 0.187642 0
M  V30 11749 C 1060.5 -4.10861 1.24465 0
M  V30 11750 C 1059.74 -5.29047 0.703227 0
M  V30 11751 O 1059.96 -5.68443 -0.472043 0
M  V30 11752 O 1058.89 -5.83904 1.46082 0
M  V30 11753 H 1062.72 -2.53842 1.66727 0
M  V30 11754 H 1060.3 -1.21145 0.874316 0
M  V30 11755 H 1062.19 -4.21212 -0.125774 0
M  V30 11756 H 1060.86 -3.16119 -0.696459 0
M  V30 11757 H 1059.77 -3.37643 1.61085 0
M  V30 11758 H 1061.1 -4.45078 2.10159 0
M  V30 11759 N 1062.75 -0.88754 -1.30232 0
M  V30 11760 C 1064 -0.508031 -1.96334 0
M  V30 11761 C 1064.33 0.940905 -1.69884 0
M  V30 11762 O 1063.61 1.66523 -1.005 0
M  V30 11763 C 1063.89 -0.786566 -3.51405 0
M  V30 11764 C 1063.74 -2.28632 -3.8736 0
M  V30 11765 C 1065.06 -0.264803 -4.39303 0
M  V30 11766 H 1062.18 -0.186051 -0.71313 0
M  V30 11767 H 1064.82 -1.112 -1.5406 0
M  V30 11768 H 1062.97 -0.272523 -3.87543 0
M  V30 11769 H 1064.65 -2.86896 -3.61231 0
M  V30 11770 H 1062.89 -2.75194 -3.35337 0
M  V30 11771 H 1063.56 -2.43181 -4.95547 0
M  V30 11772 H 1066.04 -0.704809 -4.10087 0
M  V30 11773 H 1064.91 -0.488998 -5.46717 0
M  V30 11774 H 1065.17 0.834055 -4.34161 0
M  V30 11775 N 1064.23 1.43628 -0.648757 0
M  V30 11776 C 1065.46 2.06217 -0.167945 0
M  V30 11777 C 1065.88 1.486 1.16462 0
M  V30 11778 O 1065.23 0.61559 1.71804 0
M  V30 11779 C 1065.28 3.6144 -0.0660114 0
M  V30 11780 O 1065 4.16914 -1.34589 0
M  V30 11781 C 1066.51 4.41097 0.441408 0
M  V30 11782 H 1063.73 0.665228 -0.0878237 0
M  V30 11783 H 1066.27 1.84207 -0.888144 0
M  V30 11784 H 1064.42 3.82651 0.604722 0
M  V30 11785 H 1064.84 5.10537 -1.20218 0
M  V30 11786 H 1066.31 5.50066 0.461697 0
M  V30 11787 H 1066.79 4.13803 1.47187 0
M  V30 11788 H 1067.4 4.24845 -0.19668 0
M  V30 11789 N 1065.71 0.390394 1.52688 0
M  V30 11790 C 1066.94 -0.191207 2.05713 0
M  V30 11791 C 1067.35 -1.40973 1.26188 0
M  V30 11792 O 1066.69 -1.81202 0.301938 0
M  V30 11793 C 1066.75 -0.624794 3.54029 0
M  V30 11794 C 1066.42 0.480413 4.54468 0
M  V30 11795 C 1067.41 1.33816 5.02384 0
M  V30 11796 C 1065.1 0.647754 4.98106 0
M  V30 11797 C 1067.09 2.34836 5.92563 0
M  V30 11798 C 1064.78 1.66129 5.88085 0
M  V30 11799 C 1065.78 2.51001 6.35206 0
M  V30 11800 O 1065.47 3.50622 7.23408 0
M  V30 11801 H 1065.2 -0.032221 0.675232 0
M  V30 11802 H 1067.75 0.554431 1.97776 0
M  V30 11803 H 1065.98 -1.42243 3.59589 0
M  V30 11804 H 1067.67 -1.13219 3.8979 0
M  V30 11805 H 1068.44 1.22019 4.694 0
M  V30 11806 H 1064.32 -0.00314511 4.61 0
M  V30 11807 H 1067.86 3.01117 6.29265 0
M  V30 11808 H 1063.76 1.77964 6.20483 0
M  V30 11809 H 1064.53 3.46644 7.41472 0
M  V30 11810 N 1067.19 -1.57141 0.120249 0
M  V30 11811 C 1068.15 -2.14213 -0.815185 0
M  V30 11812 C 1069.15 -1.07731 -1.19376 0
M  V30 11813 O 1070.34 -1.33502 -1.11906 0
M  V30 11814 C 1067.47 -2.68339 -2.10255 0
M  V30 11815 H 1068.67 -2.98197 -0.319166 0
M  V30 11816 H 1066.22 -1.55767 -0.128997 0
M  V30 11817 H 1066.95 -1.87946 -2.64285 0
M  V30 11818 H 1066.74 -3.46216 -1.84057 0
M  V30 11819 H 1068.23 -3.124 -2.77121 0
M  V30 11820 N 1068.67 0.153526 -1.5685 0
M  V30 11821 C 1069.61 1.20896 -1.98713 0
M  V30 11822 C 1070.61 1.44839 -0.878529 0
M  V30 11823 O 1071.81 1.45208 -1.0637 0
M  V30 11824 H 1068.19 0.406797 -0.632472 0
M  V30 11825 H 1070.16 0.829145 -2.86649 0
M  V30 11826 C 1068.91 2.53642 -2.37825 0
M  V30 11827 H 1068.23 2.36047 -3.22679 0
M  V30 11828 H 1069.67 3.26136 -2.70946 0
M  V30 11829 C 1068.13 3.13706 -1.22841 0
M  V30 11830 O 1068.66 3.98246 -0.525626 0
M  V30 11831 N 1066.87 2.73059 -0.99435 0
M  V30 11832 H 1066.41 2.0441 -1.56761 0
M  V30 11833 H 1066.37 3.1358 -0.226883 0
M  V30 11834 N 1070.14 1.51827 0.422667 0
M  V30 11835 C 1071.07 1.77152 1.52117 0
M  V30 11836 C 1072.06 0.621895 1.58324 0
M  V30 11837 O 1073.24 0.866118 1.73816 0
M  V30 11838 C 1070.37 1.90991 2.90068 0
M  V30 11839 C 1069.32 3.06516 2.98717 0
M  V30 11840 C 1068.65 3.05559 4.38791 0
M  V30 11841 C 1069.95 4.46223 2.71445 0
M  V30 11842 H 1071.64 2.69135 1.31175 0
M  V30 11843 H 1069.19 1.29507 0.629607 0
M  V30 11844 H 1071.14 2.07291 3.6689 0
M  V30 11845 H 1069.87 0.956688 3.12274 0
M  V30 11846 H 1068.53 2.89945 2.24338 0
M  V30 11847 H 1068.17 2.07985 4.57986 0
M  V30 11848 H 1067.87 3.83144 4.45505 0
M  V30 11849 H 1069.4 3.23971 5.17566 0
M  V30 11850 H 1070.81 4.63069 3.37994 0
M  V30 11851 H 1069.21 5.25623 2.89552 0
M  V30 11852 H 1070.28 4.5525 1.6696 0
M  V30 11853 N 1071.62 -0.679052 1.4222 0
M  V30 11854 C 1073.04 -0.991665 1.25053 0
M  V30 11855 C 1073.24 -2.00928 0.151665 0
M  V30 11856 O 1072.29 -2.47925 -0.478507 0
M  V30 11857 C 1073.61 -1.50053 2.60585 0
M  V30 11858 C 1075.16 -1.61852 2.67905 0
M  V30 11859 C 1075.63 -2.16135 4.03794 0
M  V30 11860 N 1077.12 -2.23474 4.05726 0
M  V30 11861 C 1077.86 -2.66541 5.07685 0
M  V30 11862 N 1077.35 -3.09092 6.20028 0
M  V30 11863 N 1079.15 -2.66252 4.95042 0
M  V30 11864 H 1071.3 -0.00521851 2.12399 0
M  V30 11865 H 1073.56 -0.0648465 0.94578 0
M  V30 11866 H 1073.27 -0.82731 3.41831 0
M  V30 11867 H 1073.14 -2.47998 2.84213 0
M  V30 11868 H 1075.53 -2.28281 1.87008 0
M  V30 11869 H 1075.61 -0.624074 2.4807 0
M  V30 11870 H 1075.25 -1.50316 4.85147 0
M  V30 11871 H 1075.18 -3.16363 4.20978 0
M  V30 11872 H 1077.67 -1.93467 3.24621 0
M  V30 11873 H 1077.99 -3.40627 6.93681 0
M  V30 11874 H 1076.33 -3.06959 6.23539 0
M  V30 11875 H 1079.52 -2.32369 4.06352 0
M  V30 11876 H 1079.69 -2.99496 5.74636 0
M  V30 11877 N 1073.1 -1.28322 -0.914942 0
M  V30 11878 C 1074.51 -1.13937 -1.47903 0
M  V30 11879 C 1074.86 0.271072 -1.94318 0
M  V30 11880 O 1073.99 1.16522 -1.8235 0
M  V30 11881 C 1074.58 -2.06221 -2.68809 0
M  V30 11882 C 1073.14 -1.95903 -3.21402 0
M  V30 11883 C 1072.29 -1.98031 -1.94111 0
M  V30 11884 H 1075.24 -1.41029 -0.727772 0
M  V30 11885 H 1075.26 -1.6255 -3.44031 0
M  V30 11886 H 1074.77 -3.08866 -2.34997 0
M  V30 11887 H 1072.87 -0.962907 -3.59943 0
M  V30 11888 H 1072.99 -2.82799 -3.86732 0
M  V30 11889 H 1071.35 -1.42423 -2.11158 0
M  V30 11890 H 1072.13 -3.02354 -1.62595 0
M  V30 11891 N 1074.58 1.12322 -1.10551 0
M  V30 11892 C 1075.83 1.83858 -0.848674 0
M  V30 11893 C 1076.15 1.84159 0.62575 0
M  V30 11894 O 1075.41 1.28341 1.4774 0
M  V30 11895 C 1075.71 3.31177 -1.34375 0
M  V30 11896 C 1075.37 3.51046 -2.8298 0
M  V30 11897 C 1074.04 3.56177 -3.23561 0
M  V30 11898 C 1076.39 3.58061 -3.78737 0
M  V30 11899 C 1073.72 3.65868 -4.58647 0
M  V30 11900 C 1076.07 3.69283 -5.13627 0
M  V30 11901 C 1074.73 3.7267 -5.53781 0
M  V30 11902 H 1074 0.672784 -0.310552 0
M  V30 11903 H 1076.65 1.3253 -1.38232 0
M  V30 11904 H 1074.95 3.84937 -0.730144 0
M  V30 11905 H 1076.65 3.84998 -1.12148 0
M  V30 11906 H 1073.24 3.47716 -2.50582 0
M  V30 11907 H 1077.42 3.53366 -3.48491 0
M  V30 11908 H 1072.68 3.66763 -4.89178 0
M  V30 11909 H 1076.85 3.73654 -5.8767 0
M  V30 11910 H 1074.48 3.79932 -6.58449 0
M  V30 11911 N 1076.06 0.894434 1.2976 0
M  V30 11912 C 1076.97 0.372622 2.31622 0
M  V30 11913 C 1077.98 -0.52996 1.65733 0
M  V30 11914 O 1079.16 -0.420807 1.96955 0
M  V30 11915 C 1076.22 -0.396076 3.4443 0
M  V30 11916 C 1075.28 0.537394 4.25923 0
M  V30 11917 C 1074.52 -0.194713 5.33345 0
M  V30 11918 O 1074.74 -1.41943 5.52457 0
M  V30 11919 O 1073.67 0.460055 6.00139 0
M  V30 11920 H 1077.5 1.21756 2.78225 0
M  V30 11921 H 1075.09 0.65858 1.34101 0
M  V30 11922 H 1076.97 -0.830962 4.13126 0
M  V30 11923 H 1075.64 -1.21716 2.99945 0
M  V30 11924 H 1074.55 1.02129 3.5989 0
M  V30 11925 H 1075.88 1.32475 4.74037 0
M  V30 11926 N 1077.53 -1.43282 0.656365 0
M  V30 11927 C 1078.5 -2.29188 -0.0239173 0
M  V30 11928 C 1079.5 -1.42373 -0.747436 0
M  V30 11929 O 1080.69 -1.63969 -0.588213 0
M  V30 11930 C 1077.82 -3.24501 -1.0446 0
M  V30 11931 H 1079.01 -2.9083 0.731978 0
M  V30 11932 H 1076.57 -1.50614 0.417752 0
M  V30 11933 H 1077.3 -2.6776 -1.82962 0
M  V30 11934 H 1077.09 -3.88509 -0.52942 0
M  V30 11935 H 1078.58 -3.88971 -1.51958 0
M  V30 11936 N 1079.01 -0.398486 -1.52479 0
M  V30 11937 C 1080.26 0.181019 -2.0199 0
M  V30 11938 C 1080.59 1.45691 -1.28405 0
M  V30 11939 O 1079.87 1.90607 -0.387207 0
M  V30 11940 C 1080.15 0.439587 -3.57407 0
M  V30 11941 C 1080 -0.85223 -4.41653 0
M  V30 11942 C 1081.32 1.2263 -4.2267 0
M  V30 11943 H 1078.44 0.0643164 -0.734188 0
M  V30 11944 H 1081.08 -0.52986 -1.82462 0
M  V30 11945 H 1079.23 1.04516 -3.74177 0
M  V30 11946 H 1080.91 -1.48879 -4.36615 0
M  V30 11947 H 1079.15 -1.46555 -4.08294 0
M  V30 11948 H 1079.82 -0.625839 -5.48441 0
M  V30 11949 H 1082.3 0.713722 -4.09933 0
M  V30 11950 H 1081.17 1.37596 -5.31374 0
M  V30 11951 H 1081.43 2.24403 -3.80914 0
M  V30 11952 N 1080.49 1.57075 -0.12858 0
M  V30 11953 C 1081.74 1.95134 0.526046 0
M  V30 11954 C 1082.06 1.01337 1.66601 0
M  V30 11955 O 1081.33 0.0714361 1.9577 0
M  V30 11956 H 1079.91 0.720468 0.19732 0
M  V30 11957 H 1082.57 1.93874 -0.199767 0
M  V30 11958 H 1081.67 2.98406 0.914332 0
M  V30 11959 N 1081.97 -0.145205 1.5693 0
M  V30 11960 C 1082.88 -1.19864 2.01667 0
M  V30 11961 C 1083.9 -1.46909 0.932402 0
M  V30 11962 O 1085.07 -1.58543 1.24201 0
M  V30 11963 C 1082.14 -2.51174 2.38982 0
M  V30 11964 C 1081.2 -2.3176 3.61366 0
M  V30 11965 C 1080.43 -3.56809 3.96892 0
M  V30 11966 O 1080.65 -4.63063 3.33059 0
M  V30 11967 O 1079.59 -3.49366 4.9013 0
M  V30 11968 H 1083.41 -0.848821 2.91597 0
M  V30 11969 H 1081 -0.354063 1.45144 0
M  V30 11970 H 1082.88 -3.28587 2.63835 0
M  V30 11971 H 1081.56 -2.85683 1.52207 0
M  V30 11972 H 1080.46 -1.52293 3.41698 0
M  V30 11973 H 1081.8 -2.02167 4.48764 0
M  V30 11974 N 1083.45 -1.52049 -0.414609 0
M  V30 11975 C 1084.38 -1.77956 -1.51175 0
M  V30 11976 C 1085.36 -0.630282 -1.57992 0
M  V30 11977 O 1086.54 -0.875324 -1.73354 0
M  V30 11978 C 1083.67 -1.92527 -2.89051 0
M  V30 11979 C 1082.63 -3.08096 -2.97087 0
M  V30 11980 C 1081.95 -3.07882 -4.37164 0
M  V30 11981 C 1083.25 -4.47656 -2.69075 0
M  V30 11982 H 1084.95 -2.69827 -1.29746 0
M  V30 11983 H 1082.49 -1.29839 -0.62273 0
M  V30 11984 H 1084.45 -2.09234 -3.65786 0
M  V30 11985 H 1083.17 -0.973235 -3.11762 0
M  V30 11986 H 1081.83 -2.91131 -2.22797 0
M  V30 11987 H 1081.48 -2.10411 -4.56877 0
M  V30 11988 H 1081.18 -3.85501 -4.43467 0
M  V30 11989 H 1082.7 -3.26712 -5.15841 0
M  V30 11990 H 1084.12 -4.64855 -3.35534 0
M  V30 11991 H 1082.51 -5.27151 -2.8676 0
M  V30 11992 H 1083.58 -4.56129 -1.64544 0
M  V30 11993 N 1084.93 0.6715 -1.42579 0
M  V30 11994 C 1085.87 1.80623 -1.46554 0
M  V30 11995 C 1086.87 1.65934 -0.340932 0
M  V30 11996 O 1088.07 1.72502 -0.514098 0
M  V30 11997 H 1084.45 0.595619 -0.459067 0
M  V30 11998 H 1086.42 1.74388 -2.42139 0
M  V30 11999 C 1085.17 3.18794 -1.38801 0
M  V30 12000 H 1084.49 3.30725 -2.24635 0
M  V30 12001 H 1085.93 3.98201 -1.45645 0
M  V30 12002 C 1084.39 3.36742 -0.103219 0
M  V30 12003 O 1084.92 3.92761 0.842715 0
M  V30 12004 N 1083.13 2.90594 -0.0193034 0
M  V30 12005 H 1082.67 2.45192 -0.78986 0
M  V30 12006 H 1082.63 3.0298 0.839686 0
M  V30 12007 N 1086.4 1.28806 0.908124 0
M  V30 12008 C 1087.81 1.14719 1.47297 0
M  V30 12009 C 1088.17 -0.260763 1.94459 0
M  V30 12010 O 1087.29 -1.15553 1.82966 0
M  V30 12011 C 1087.89 2.07643 2.67712 0
M  V30 12012 C 1086.44 1.97605 3.20358 0
M  V30 12013 C 1085.59 1.99058 1.93058 0
M  V30 12014 H 1088.54 1.41413 0.720283 0
M  V30 12015 H 1088.56 1.64372 3.43165 0
M  V30 12016 H 1088.08 3.10108 2.33355 0
M  V30 12017 H 1086.18 0.981982 3.59427 0
M  V30 12018 H 1086.29 2.84846 3.85226 0
M  V30 12019 H 1084.65 1.43541 2.104 0
M  V30 12020 H 1085.44 3.03212 1.60989 0
M  V30 12021 N 1087.88 -1.11734 1.11145 0
M  V30 12022 C 1089.11 -1.87755 0.881062 0
M  V30 12023 C 1089.53 -1.79461 -0.563496 0
M  V30 12024 O 1088.89 -1.15481 -1.39763 0
M  V30 12025 C 1088.94 -3.34641 1.34342 0
M  V30 12026 O 1088.04 -4.09195 0.513157 0
M  V30 12027 H 1087.38 -0.583111 0.317613 0
M  V30 12028 H 1089.91 -1.41256 1.48013 0
M  V30 12029 H 1089.92 -3.85486 1.33658 0
M  V30 12030 H 1088.6 -3.39994 2.39534 0
M  V30 12031 H 1087.17 -3.68269 0.585833 0
M  V30 12032 N 1089.36 -0.901303 -1.29284 0
M  V30 12033 C 1090.31 -0.370142 -2.29636 0
M  V30 12034 C 1091.3 0.53157 -1.60844 0
M  V30 12035 O 1092.51 0.414194 -1.7517 0
M  V30 12036 H 1088.88 -0.101072 -0.745177 0
M  V30 12037 H 1090.85 -1.22985 -2.71877 0
M  V30 12038 C 1089.6 0.385806 -3.45553 0
M  V30 12039 H 1088.93 -0.298818 -3.98682 0
M  V30 12040 H 1090.37 0.722299 -4.17802 0
M  V30 12041 C 1088.82 1.58907 -2.97069 0
M  V30 12042 O 1089.35 2.68835 -2.98481 0
M  V30 12043 N 1087.56 1.43178 -2.5288 0
M  V30 12044 H 1087.11 0.537467 -2.51931 0
M  V30 12045 H 1087.07 2.23819 -2.208 0
M  V30 12046 N 1090.84 1.42931 -0.663954 0
M  V30 12047 C 1092.07 2.06028 -0.189808 0
M  V30 12048 C 1092.48 1.49827 1.14879 0
M  V30 12049 O 1091.84 0.633778 1.71142 0
M  V30 12050 C 1091.89 3.61349 -0.104343 0
M  V30 12051 O 1091.61 4.15463 -1.39004 0
M  V30 12052 C 1093.11 4.4154 0.394599 0
M  V30 12053 H 1090.33 0.664259 -0.0948744 0
M  V30 12054 H 1092.87 1.83255 -0.907632 0
M  V30 12055 H 1091.03 3.83271 0.564103 0
M  V30 12056 H 1091.44 5.09233 -1.25626 0
M  V30 12057 H 1092.92 5.50525 0.403329 0
M  V30 12058 H 1093.39 4.1534 1.4279 0
M  V30 12059 H 1094 4.24612 -0.241729 0
M  V30 12060 N 1092.32 0.406567 1.52266 0
M  V30 12061 C 1093.59 -0.228477 1.94261 0
M  V30 12062 C 1093.97 -1.62848 1.34328 0
M  V30 12063 O 1093.32 -2.22549 0.518082 0
M  V30 12064 C 1093.53 -0.237401 3.48192 0
M  V30 12065 C 1094.88 -0.457997 4.22123 0
M  V30 12066 O 1095.9 -0.316868 3.54788 0
M  V30 12067 O 1094.76 -0.735946 5.41522 0
M  V30 12068 H 1091.86 -0.146492 0.813922 0
M  V30 12069 H 1094.4 0.462325 1.63281 0
M  V30 12070 H 1093.17 0.742556 3.8419 0
M  V30 12071 H 1092.8 -0.972408 3.85526 0
M  V30 12072 N 1093.79 -1.57004 0.136909 0
M  V30 12073 C 1095.02 -2.00587 -0.527209 0
M  V30 12074 C 1095.44 -1.01628 -1.58283 0
M  V30 12075 O 1094.8 0.00946934 -1.81298 0
M  V30 12076 C 1094.85 -3.42967 -1.11384 0
M  V30 12077 O 1093.95 -3.46973 -2.22898 0
M  V30 12078 H 1093.3 -0.651155 -0.129976 0
M  V30 12079 H 1095.83 -2.03296 0.230667 0
M  V30 12080 H 1095.84 -3.81555 -1.44499 0
M  V30 12081 H 1094.51 -4.14502 -0.340736 0
M  V30 12082 H 1093.09 -3.20219 -1.91087 0
M  V30 12083 N 1095.27 0.136881 -1.57004 0
M  V30 12084 C 1096.5 0.866405 -1.88436 0
M  V30 12085 C 1096.92 1.73483 -0.727006 0
M  V30 12086 O 1096.28 1.78398 0.323094 0
M  V30 12087 C 1096.33 1.69059 -3.18514 0
M  V30 12088 O 1095.43 2.79584 -3.03161 0
M  V30 12089 H 1094.77 0.240709 -0.618834 0
M  V30 12090 H 1097.3 0.124653 -2.0422 0
M  V30 12091 H 1097.31 2.08353 -3.50789 0
M  V30 12092 H 1095.99 1.05296 -4.0235 0
M  V30 12093 H 1094.57 2.43623 -2.82315 0
M  V30 12094 N 1096.75 1.52266 0.40654 0
M  V30 12095 C 1097.7 1.72175 1.49465 0
M  V30 12096 C 1098.68 0.575668 1.50249 0
M  V30 12097 O 1099.88 0.832835 1.56182 0
M  V30 12098 C 1097.01 1.87818 2.87366 0
M  V30 12099 C 1096.09 3.08305 2.91219 0
M  V30 12100 N 1096.48 4.30967 2.64766 0
M  V30 12101 C 1094.78 3.08192 3.22388 0
M  V30 12102 C 1095.48 5.12455 2.75254 0
M  V30 12103 N 1094.46 4.47758 3.08242 0
M  V30 12104 H 1098.26 2.64653 1.27812 0
M  V30 12105 H 1095.77 1.50334 0.61428 0
M  V30 12106 H 1097.77 2.00198 3.65686 0
M  V30 12107 H 1096.43 0.965414 3.10016 0
M  V30 12108 H 1097.44 4.59397 2.39113 0
M  V30 12109 H 1094.12 2.26662 3.50615 0
M  V30 12110 H 1095.51 6.20186 2.58495 0
M  V30 12111 N 1098.23 -0.663929 1.42933 0
M  V30 12112 C 1099.45 -1.45691 1.47611 0
M  V30 12113 C 1099.88 -1.87875 0.0920305 0
M  V30 12114 O 1099.24 -1.56696 -0.91192 0
M  V30 12115 C 1099.28 -2.67517 2.41799 0
M  V30 12116 O 1098.39 -3.66187 1.89686 0
M  V30 12117 H 1097.73 -0.437257 0.499702 0
M  V30 12118 H 1100.26 -0.813397 1.87737 0
M  V30 12119 H 1100.27 -3.1546 2.58745 0
M  V30 12120 H 1098.94 -2.36155 3.4235 0
M  V30 12121 H 1097.52 -3.25274 1.82349 0
M  V30 12122 N 1099.71 -1.29285 -0.901281 0
M  V30 12123 C 1100.65 -1.14159 -2.02659 0
M  V30 12124 C 1101.65 -0.0575887 -1.69302 0
M  V30 12125 O 1102.85 -0.217273 -1.78684 0
M  V30 12126 H 1099.23 -0.352584 -0.66422 0
M  V30 12127 H 1101.2 -2.09434 -2.12555 0
M  V30 12128 C 1099.95 -0.833253 -3.37568 0
M  V30 12129 H 1099.27 -1.65939 -3.63737 0
M  V30 12130 H 1100.71 -0.767436 -4.16997 0
M  V30 12131 C 1099.17 0.46344 -3.33697 0
M  V30 12132 O 1099.7 1.48998 -3.73045 0
M  V30 12133 N 1097.91 0.468709 -2.86795 0
M  V30 12134 H 1097.45 -0.36712 -2.54971 0
M  V30 12135 H 1097.41 1.3363 -2.84588 0
M  V30 12136 N 1101.18 1.11143 -1.11736 0
M  V30 12137 C 1102.6 1.64462 -0.883693 0
M  V30 12138 C 1102.95 1.87324 0.583448 0
M  V30 12139 O 1102.07 1.60975 1.44623 0
M  V30 12140 C 1102.67 2.98765 -1.59764 0
M  V30 12141 C 1101.23 3.4898 -1.41032 0
M  V30 12142 C 1100.37 2.23729 -1.63831 0
M  V30 12143 H 1103.32 0.947415 -1.27317 0
M  V30 12144 H 1103.34 3.65885 -1.04443 0
M  V30 12145 H 1102.86 2.82094 -2.66542 0
M  V30 12146 H 1100.96 3.7081 -0.364781 0
M  V30 12147 H 1101.07 4.27571 -2.16148 0
M  V30 12148 H 1099.43 2.31507 -1.06191 0
M  V30 12149 H 1100.22 2.09597 -2.7189 0
M  V30 12150 N 1102.66 0.908147 1.28804 0
M  V30 12151 C 1104.07 0.585727 1.77274 0
M  V30 12152 C 1104.42 -0.898842 1.744 0
M  V30 12153 O 1103.55 -1.70301 1.33516 0
M  V30 12154 C 1104.14 1.05647 3.21907 0
M  V30 12155 C 1102.7 0.785066 3.68122 0
M  V30 12156 C 1101.85 1.22638 2.48707 0
M  V30 12157 H 1104.8 1.09 1.15346 0
M  V30 12158 H 1104.82 0.395442 3.7844 0
M  V30 12159 H 1104.33 2.13698 3.23967 0
M  V30 12160 H 1102.44 -0.282477 3.71528 0
M  V30 12161 H 1102.55 1.38888 4.58527 0
M  V30 12162 H 1100.91 0.645217 2.46392 0
M  V30 12163 H 1101.7 2.31512 2.5349 0
M  V30 12164 N 1104.14 -1.42577 0.671525 0
M  V30 12165 C 1105.05 -2.34598 -0.00898225 0
M  V30 12166 C 1106.07 -1.54909 -0.792407 0
M  V30 12167 O 1107.24 -1.87491 -0.735477 0
M  V30 12168 C 1104.31 -3.33405 -0.950888 0
M  V30 12169 C 1103.37 -4.28993 -0.16236 0
M  V30 12170 C 1102.6 -5.2308 -1.0594 0
M  V30 12171 O 1102.82 -5.22022 -2.2989 0
M  V30 12172 O 1101.76 -5.99632 -0.521966 0
M  V30 12173 H 1105.58 -2.94321 0.748927 0
M  V30 12174 H 1103.17 -1.43025 0.43175 0
M  V30 12175 H 1105.05 -3.94115 -1.49169 0
M  V30 12176 H 1103.73 -2.7616 -1.68871 0
M  V30 12177 H 1102.63 -3.71707 0.42247 0
M  V30 12178 H 1103.97 -4.8927 0.536274 0
M  V30 12179 N 1105.62 -0.414636 -1.52048 0
M  V30 12180 C 1106.84 0.161137 -2.06773 0
M  V30 12181 C 1107.27 1.37628 -1.2822 0
M  V30 12182 O 1106.63 1.78562 -0.313915 0
M  V30 12183 C 1106.67 0.48452 -3.5733 0
M  V30 12184 O 1105.78 1.57466 -3.81154 0
M  V30 12185 H 1105.12 0.0118003 -0.663895 0
M  V30 12186 H 1107.65 -0.589424 -1.95926 0
M  V30 12187 H 1107.66 0.741567 -4.01204 0
M  V30 12188 H 1106.33 -0.403733 -4.13936 0
M  V30 12189 H 1104.91 1.30935 -3.49157 0
M  V30 12190 N 1107.1 1.56929 -0.145233 0
M  V30 12191 C 1108.04 2.17958 0.812237 0
M  V30 12192 C 1109.04 1.13608 1.25657 0
M  V30 12193 O 1110.24 1.31861 1.22526 0
M  V30 12194 H 1106.62 0.697876 0.28013 0
M  V30 12195 H 1108.59 2.97146 0.273297 0
M  V30 12196 C 1107.34 2.81418 2.04203 0
M  V30 12197 H 1106.66 3.61427 1.70911 0
M  V30 12198 H 1108.1 3.27624 2.69144 0
M  V30 12199 C 1106.56 1.79835 2.84888 0
M  V30 12200 O 1107.09 1.26773 3.81171 0
M  V30 12201 N 1105.3 1.49179 2.49387 0
M  V30 12202 H 1104.84 1.9252 1.71154 0
M  V30 12203 H 1104.8 0.81458 3.03664 0
M  V30 12204 N 1108.58 -0.128553 1.57075 0
M  V30 12205 C 1109.99 -0.686713 1.73612 0
M  V30 12206 C 1110.34 -1.80778 0.762478 0
M  V30 12207 O 1109.46 -2.16297 -0.0667779 0
M  V30 12208 C 1110.06 -1.25246 3.148 0
M  V30 12209 C 1108.62 -1.757 3.32876 0
M  V30 12210 C 1107.76 -0.652844 2.69506 0
M  V30 12211 H 1110.71 0.0972859 1.58402 0
M  V30 12212 H 1110.74 -2.1222 3.15821 0
M  V30 12213 H 1110.25 -0.436308 3.8564 0
M  V30 12214 H 1108.35 -2.59824 2.67063 0
M  V30 12215 H 1108.46 -1.87302 4.4097 0
M  V30 12216 H 1106.83 -1.08408 2.30477 0
M  V30 12217 H 1107.61 0.15217 3.42963 0
M  V30 12218 N 1110.05 -1.5248 -0.398459 0
M  V30 12219 C 1111.33 -1.57634 -1.15805 0
M  V30 12220 C 1111.71 -0.363785 -2.07942 0
M  V30 12221 O 1111.06 0.648598 -2.19101 0
M  V30 12222 C 1111.27 -2.91042 -1.92602 0
M  V30 12223 C 1112.62 -3.44433 -2.48296 0
M  V30 12224 O 1113.64 -2.92853 -2.0277 0
M  V30 12225 O 1112.5 -4.34529 -3.31432 0
M  V30 12226 H 1109.59 -0.63539 -0.529347 0
M  V30 12227 H 1112.14 -1.64812 -0.404376 0
M  V30 12228 H 1110.91 -3.7074 -1.25169 0
M  V30 12229 H 1110.53 -2.87206 -2.74952 0
M  V30 12230 N 1111.53 0.65634 -1.43283 0
M  V30 12231 C 1112.94 1.23744 -1.39801 0
M  V30 12232 C 1113.29 1.95942 -0.100507 0
M  V30 12233 O 1112.42 2.01063 0.800161 0
M  V30 12234 C 1113.01 2.25062 -2.53244 0
M  V30 12235 C 1111.57 2.78657 -2.53036 0
M  V30 12236 C 1110.72 1.53251 -2.31105 0
M  V30 12237 H 1113.67 0.448553 -1.52229 0
M  V30 12238 H 1113.69 3.07174 -2.24553 0
M  V30 12239 H 1113.2 1.72487 -3.47664 0
M  V30 12240 H 1111.3 3.35304 -1.62487 0
M  V30 12241 H 1111.42 3.26414 -3.507 0
M  V30 12242 H 1109.78 1.80487 -1.79713 0
M  V30 12243 H 1110.56 1.02615 -3.27605 0
M  V30 12244 N 1113.01 1.29761 0.894412 0
M  V30 12245 C 1114.26 1.18214 1.64782 0
M  V30 12246 C 1114.59 -0.264635 1.92388 0
M  V30 12247 O 1113.86 -1.19051 1.53809 0
M  V30 12248 C 1114.15 2.00138 2.99361 0
M  V30 12249 C 1114 3.52984 2.78787 0
M  V30 12250 C 1115.32 1.83187 4.00163 0
M  V30 12251 H 1112.44 0.430802 0.597979 0
M  V30 12252 H 1115.08 1.59292 1.03566 0
M  V30 12253 H 1113.23 1.65233 3.51611 0
M  V30 12254 H 1114.9 3.97898 2.33398 0
M  V30 12255 H 1113.14 3.77642 2.13469 0
M  V30 12256 H 1113.82 4.05585 3.7444 0
M  V30 12257 H 1116.29 2.13684 3.57041 0
M  V30 12258 H 1115.17 2.42849 4.92255 0
M  V30 12259 H 1115.43 0.788469 4.35012 0
M  V30 12260 N 1114.49 -1.10549 1.12324 0
M  V30 12261 C 1115.44 -2.14997 0.758979 0
M  V30 12262 C 1116.42 -1.59078 -0.241461 0
M  V30 12263 O 1117.61 -1.76937 -0.0471439 0
M  V30 12264 C 1114.74 -3.42633 0.21395 0
M  V30 12265 C 1113.83 -4.05487 1.24261 0
M  V30 12266 N 1114.22 -4.43064 2.43984 0
M  V30 12267 C 1112.52 -4.32534 1.08769 0
M  V30 12268 C 1113.22 -4.92427 3.09662 0
M  V30 12269 N 1112.19 -4.89161 2.37114 0
M  V30 12270 H 1116 -2.4184 1.67005 0
M  V30 12271 H 1113.51 -1.27659 1.00384 0
M  V30 12272 H 1115.51 -4.16849 -0.0651928 0
M  V30 12273 H 1114.17 -3.17249 -0.691591 0
M  V30 12274 H 1115.18 -4.34797 2.81375 0
M  V30 12275 H 1111.86 -4.16813 0.239354 0
M  V30 12276 H 1113.25 -5.31059 4.11614 0
M  V30 12277 N 1115.97 -0.914965 -1.28321 0
M  V30 12278 C 1117.19 -0.564023 -1.99583 0
M  V30 12279 C 1117.62 0.847821 -1.6791 0
M  V30 12280 O 1116.97 1.56682 -0.912171 0
M  V30 12281 C 1117.02 -0.781368 -3.52033 0
M  V30 12282 O 1116.13 0.159072 -4.12093 0
M  V30 12283 H 1115.47 -0.218565 -0.626997 0
M  V30 12284 H 1118 -1.23074 -1.63444 0
M  V30 12285 H 1118.01 -0.691946 -4.0209 0
M  V30 12286 H 1116.68 -1.81059 -3.7442 0
M  V30 12287 H 1115.26 0.0208145 -3.72894 0
M  V30 12288 N 1117.44 1.42219 -0.679077 0
M  V30 12289 C 1118.35 2.346 -0.00345919 0
M  V30 12290 C 1119.37 1.55327 0.784181 0
M  V30 12291 O 1120.55 1.87878 0.725524 0
M  V30 12292 C 1117.61 3.33905 0.933194 0
M  V30 12293 C 1116.67 4.29073 0.139607 0
M  V30 12294 C 1115.9 5.23634 1.03165 0
M  V30 12295 O 1116.13 5.23234 2.27119 0
M  V30 12296 O 1115.06 5.99901 0.490159 0
M  V30 12297 H 1118.89 2.9392 -0.764525 0
M  V30 12298 H 1116.47 1.42794 -0.439329 0
M  V30 12299 H 1118.35 3.949 1.47077 0
M  V30 12300 H 1117.03 2.77052 1.67404 0
M  V30 12301 H 1115.94 3.71478 -0.442177 0
M  V30 12302 H 1117.27 4.88979 -0.562214 0
M  V30 12303 N 1118.92 0.422693 1.51826 0
M  V30 12304 C 1120.17 -0.148641 2.01954 0
M  V30 12305 C 1120.5 -1.43982 1.30765 0
M  V30 12306 O 1119.75 -1.91428 0.406668 0
M  V30 12307 C 1120.05 -0.429516 3.5481 0
M  V30 12308 C 1119.72 0.774088 4.44206 0
M  V30 12309 C 1118.38 1.1042 4.6836 0
M  V30 12310 C 1120.73 1.5777 4.96747 0
M  V30 12311 C 1118.06 2.23887 5.42302 0
M  V30 12312 C 1120.41 2.70325 5.71933 0
M  V30 12313 C 1119.07 3.03807 5.94355 0
M  V30 12314 H 1118.34 -0.0543917 0.739001 0
M  V30 12315 H 1120.99 0.566892 1.82917 0
M  V30 12316 H 1119.3 -1.22678 3.72099 0
M  V30 12317 H 1120.99 -0.884761 3.91118 0
M  V30 12318 H 1117.58 0.506834 4.25593 0
M  V30 12319 H 1121.77 1.33589 4.77983 0
M  V30 12320 H 1117.02 2.50159 5.5788 0
M  V30 12321 H 1121.2 3.32974 6.11638 0
M  V30 12322 H 1118.82 3.91844 6.51431 0
M  V30 12323 O 1120.44 -1.58794 0.294418 0
M  V30 12324 H 1121.13 -1.91787 -0.271585 0
M  V30 END ATOM
M  V30 BEGIN BOND
M  V30 END BOND
M  V30 END CTAB
M  END
$$$$
