drugbank_target|P42790 Pseudomonalisin (DB03660; DB03750; DB03978)
 OpenBabel12092120023D

  0  0  0     0  0            999 V3000
M  V30 BEGIN CTAB
M  V30 COUNTS 8487 8579 0 0 0
M  V30 BEGIN ATOM
M  V30 1 H -0.908 1.98254 -0.117106 0
M  V30 2 N 0 1.576 0 0
M  V30 3 C 0.933 2.03868 1.02534 0
M  V30 4 C 1.911 0.928543 1.3348 0
M  V30 5 O 3.095 1.19667 1.45644 0
M  V30 6 C 0.222 2.43627 2.35294 0
M  V30 7 C -0.732 3.65373 2.2001 0
M  V30 8 S 0.101 5.13292 1.52614 0
M  V30 9 C 1.257 5.56322 2.86805 0
M  V30 10 H 1.49 2.90518 0.631377 0
M  V30 11 H -0.977 1.52953 0.210867 0
M  V30 12 H 0.981 2.67203 3.11629 0
M  V30 13 H -0.358 1.57376 2.7183 0
M  V30 14 H -1.165 3.90944 3.18086 0
M  V30 15 H -1.563 3.418 1.51819 0
M  V30 16 H 0.729 5.58782 3.83104 0
M  V30 17 H 1.672 6.56266 2.65933 0
M  V30 18 H 2.08 4.83886 2.90714 0
M  V30 19 N 1.4781 -0.272755 1.55222 0
M  V30 20 C 2.4251 -1.33716 1.88119 0
M  V30 21 C 3.3951 -1.49066 0.73271 0
M  V30 22 O 4.5801 -1.63469 0.984002 0
M  V30 23 C 1.7201 -2.69238 2.15882 0
M  V30 24 C 0.8331 -2.62108 3.43399 0
M  V30 25 C -0.0319 -3.89811 3.60861 0
M  V30 26 C -0.9929 -3.77193 4.8207 0
M  V30 27 N -1.8559 -4.9673 4.96189 0
M  V30 28 H 2.9841 -1.04962 2.78903 0
M  V30 29 H 0.5211 -0.507088 1.38083 0
M  V30 30 H 2.4791 -3.48089 2.29978 0
M  V30 31 H 1.1091 -2.96194 1.28331 0
M  V30 32 H 0.1611 -1.74967 3.37773 0
M  V30 33 H 1.4731 -2.48685 4.32386 0
M  V30 34 H 0.6271 -4.77103 3.74777 0
M  V30 35 H -0.6339 -4.06102 2.7006 0
M  V30 36 H -1.6289 -2.88284 4.68159 0
M  V30 37 H -0.4039 -3.62421 5.74307 0
M  V30 38 H -2.4579 -5.13431 4.08319 0
M  V30 39 H -2.5409 -4.85839 5.79221 0
M  V30 40 H -1.2729 -5.85594 5.1449 0
M  V30 41 N 2.9562 -1.48159 -0.537278 0
M  V30 42 C 4.1812 -1.59707 -1.32319 0
M  V30 43 C 4.6062 -0.254859 -1.86365 0
M  V30 44 O 3.9642 0.772378 -1.64024 0
M  V30 45 C 4.0122 -2.6412 -2.45505 0
M  V30 46 O 3.1162 -2.20774 -3.48328 0
M  V30 47 H 2.4572 -0.535791 -0.392204 0
M  V30 48 H 4.9872 -1.94092 -0.647268 0
M  V30 49 H 4.9972 -2.85166 -2.91795 0
M  V30 50 H 3.6722 -3.61567 -2.05528 0
M  V30 51 H 2.2492 -2.09911 -3.08207 0
M  V30 52 N 4.4343 0.785586 -1.36625 0
M  V30 53 C 5.6593 1.57963 -1.34397 0
M  V30 54 C 6.0843 1.87964 0.071526 0
M  V30 55 O 5.4423 1.48182 1.0446 0
M  V30 56 C 5.4903 2.87511 -2.17646 0
M  V30 57 O 4.5943 3.81281 -1.57158 0
M  V30 58 H 3.9353 0.479014 -0.459828 0
M  V30 59 H 6.4653 0.973411 -1.79961 0
M  V30 60 H 6.4753 3.36745 -2.30362 0
M  V30 61 H 5.1503 2.65002 -3.20541 0
M  V30 62 H 3.7273 3.39885 -1.53403 0
M  V30 63 N 5.9124 1.20967 1.01018 0
M  V30 64 C 6.8754 0.965918 2.07853 0
M  V30 65 C 7.8754 -0.0610545 1.60684 0
M  V30 66 O 9.0654 0.175681 1.73312 0
M  V30 67 C 6.1974 0.455513 3.37843 0
M  V30 68 H 7.3904 1.91365 2.3091 0
M  V30 69 H 4.9434 1.02594 1.17916 0
M  V30 70 H 5.6784 -0.497381 3.20463 0
M  V30 71 H 5.4634 1.19622 3.73407 0
M  V30 72 H 6.9534 0.304667 4.16487 0
M  V30 73 N 7.3905 -1.2043 1.01659 0
M  V30 74 C 8.3535 -2.21433 0.591616 0
M  V30 75 C 9.3535 -1.57203 -0.338226 0
M  V30 76 O 10.5435 -1.73737 -0.126918 0
M  V30 77 C 7.6755 -3.40628 -0.136058 0
M  V30 78 H 8.8685 -2.60545 1.48514 0
M  V30 79 H 6.4215 -1.33893 0.806379 0
M  V30 80 H 7.1565 -3.07019 -1.04449 0
M  V30 81 H 6.9415 -3.88475 0.531917 0
M  V30 82 H 8.4315 -4.15475 -0.420735 0
M  V30 83 N 8.8686 -0.792821 -1.36206 0
M  V30 84 C 9.8156 -0.191653 -2.30003 0
M  V30 85 C 10.7856 0.666453 -1.52143 0
M  V30 86 O 11.9706 0.61442 -1.80636 0
M  V30 87 C 9.1106 0.664848 -3.38635 0
M  V30 88 C 8.2236 -0.212175 -4.31479 0
M  V30 89 C 7.3586 0.651022 -5.27196 0
M  V30 90 C 6.3976 -0.227247 -6.11678 0
M  V30 91 N 5.5346 0.595127 -6.99573 0
M  V30 92 H 10.3746 -0.996978 -2.80828 0
M  V30 93 H 7.9116 -0.503206 -1.38225 0
M  V30 94 H 9.8696 1.17645 -4.00269 0
M  V30 95 H 8.4996 1.43557 -2.89122 0
M  V30 96 H 7.5516 -0.841777 -3.70969 0
M  V30 97 H 8.8636 -0.888751 -4.90818 0
M  V30 98 H 8.0176 1.2283 -5.94136 0
M  V30 99 H 6.7566 1.36121 -4.68319 0
M  V30 100 H 5.7616 -0.816904 -5.43697 0
M  V30 101 H 6.9866 -0.93509 -6.72631 0
M  V30 102 H 4.9326 1.28955 -6.432 0
M  V30 103 H 4.8496 -0.0236952 -7.55996 0
M  V30 104 H 6.1176 1.15613 -7.70879 0
M  V30 105 N 10.3467 1.47872 -0.545128 0
M  V30 106 C 11.2787 2.27869 0.246621 0
M  V30 107 C 12.2917 1.36282 0.890561 0
M  V30 108 O 13.4807 1.61207 0.766449 0
M  V30 109 C 10.5807 3.10159 1.36582 0
M  V30 110 C 9.7537 4.29627 0.820954 0
M  V30 111 C 8.8127 4.93607 1.82314 0
M  V30 112 O 7.8387 5.52366 1.37406 0
M  V30 113 N 9.0407 4.87211 3.15603 0
M  V30 114 H 11.8057 2.96459 -0.439539 0
M  V30 115 H 9.3667 1.57367 -0.380421 0
M  V30 116 H 11.3587 3.49829 2.03474 0
M  V30 117 H 9.9287 2.43891 1.9554 0
M  V30 118 H 9.1487 3.94192 -0.0244032 0
M  V30 119 H 10.4367 5.06928 0.436063 0
M  V30 120 H 9.8347 4.40651 3.54744 0
M  V30 121 H 8.3917 5.30937 3.78087 0
M  V30 122 N 11.8248 0.280983 1.55075 0
M  V30 123 C 13.0528 -0.337293 2.04132 0
M  V30 124 C 13.4678 -1.4903 1.15912 0
M  V30 125 O 12.8248 -1.81606 0.180459 0
M  V30 126 C 12.8758 -0.812706 3.52246 0
M  V30 127 O 12.5968 0.294387 4.3711 0
M  V30 128 C 14.0978 -1.4982 4.17216 0
M  V30 129 H 11.3178 -0.0761638 0.666663 0
M  V30 130 H 13.8618 0.414787 2.00249 0
M  V30 131 H 12.0168 -1.51486 3.56554 0
M  V30 132 H 12.4308 -0.0721325 5.2445 0
M  V30 133 H 13.9048 -1.7822 5.22438 0
M  V30 134 H 14.3818 -2.43168 3.65741 0
M  V30 135 H 14.9878 -0.839742 4.16927 0
M  V30 136 N 13.3029 -1.57598 0.00835791 0
M  V30 137 C 14.5489 -1.91211 -0.675732 0
M  V30 138 C 14.8819 -0.883139 -1.72958 0
M  V30 139 O 14.1569 0.097016 -1.94258 0
M  V30 140 C 14.4399 -3.35379 -1.31123 0
M  V30 141 C 14.2929 -4.48999 -0.268356 0
M  V30 142 C 15.6119 -3.7912 -2.23508 0
M  V30 143 H 12.7309 -0.695374 -0.244179 0
M  V30 144 H 15.3729 -1.89901 0.0613655 0
M  V30 145 H 13.5229 -3.36626 -1.93946 0
M  V30 146 H 15.1949 -4.59887 0.360844 0
M  V30 147 H 13.4379 -4.31873 0.408482 0
M  V30 148 H 14.1089 -5.46851 -0.752218 0
M  V30 149 H 16.5849 -3.79477 -1.70693 0
M  V30 150 H 15.4609 -4.80729 -2.64936 0
M  V30 151 H 15.7219 -3.13455 -3.11766 0
M  V30 152 N 14.781 0.264519 -1.55364 0
M  V30 153 C 15.711 1.33121 -1.91836 0
M  V30 154 C 16.692 1.51101 -0.781192 0
M  V30 155 O 17.877 1.64003 -1.04003 0
M  V30 156 C 15.007 2.68921 -2.19769 0
M  V30 157 C 13.961 2.65661 -3.35571 0
M  V30 158 C 13.287 4.05093 -3.49004 0
M  V30 159 C 14.587 2.24187 -4.71739 0
M  V30 160 H 16.281 1.02844 -2.81182 0
M  V30 161 H 13.827 0.493286 -1.35287 0
M  V30 162 H 15.78 3.43663 -2.43872 0
M  V30 163 H 14.504 3.00799 -1.27231 0
M  V30 164 H 13.163 1.93377 -3.1145 0
M  V30 165 H 12.811 4.34206 -2.53917 0
M  V30 166 H 12.511 4.03804 -4.26868 0
M  V30 167 H 14.035 4.81561 -3.75408 0
M  V30 168 H 15.449 2.88654 -4.9533 0
M  V30 169 H 13.846 2.34044 -5.52579 0
M  V30 170 H 14.916 1.19327 -4.69988 0
M  V30 171 N 16.2591 1.48442 0.529413 0
M  V30 172 C 17.4991 1.58086 1.29569 0
M  V30 173 C 17.8631 0.249302 1.90375 0
M  V30 174 O 19.0641 0.220738 2.67892 0
M  V30 175 C 17.3351 2.68793 2.35552 0
M  V30 176 S 18.8941 2.98207 3.21898 0
M  V30 177 H 15.7121 0.557922 0.440732 0
M  V30 178 H 18.3141 1.85966 0.603059 0
M  V30 179 H 17.0181 3.64102 1.89363 0
M  V30 180 H 16.5491 2.42817 3.09522 0
M  V30 181 H 18.5641 2.37548 4.35644 0
M  V30 182 N 17.7372 -0.778329 1.37039 0
M  V30 183 C 18.6672 -1.90546 1.34962 0
M  V30 184 C 19.6482 -1.68681 0.219274 0
M  V30 185 O 20.8332 -1.89634 0.418624 0
M  V30 186 C 17.9632 -3.27734 1.14925 0
M  V30 187 C 16.9172 -3.64147 2.24902 0
M  V30 188 C 16.2432 -4.99806 1.89996 0
M  V30 189 C 17.5432 -3.71579 3.67051 0
M  V30 190 H 19.2372 -1.92541 2.29277 0
M  V30 191 H 16.7832 -0.924948 1.10366 0
M  V30 192 H 18.7362 -4.06215 1.12104 0
M  V30 193 H 17.4602 -3.26154 0.170631 0
M  V30 194 H 16.1192 -2.8797 2.26868 0
M  V30 195 H 15.7672 -4.94759 0.906796 0
M  V30 196 H 15.4672 -5.25139 2.63634 0
M  V30 197 H 16.9912 -5.80694 1.88749 0
M  V30 198 H 18.4052 -4.40227 3.67251 0
M  V30 199 H 16.8022 -4.08405 4.39688 0
M  V30 200 H 17.8722 -2.72404 4.01154 0
M  V30 201 N 19.2153 -1.21501 -1.00376 0
M  V30 202 C 20.1633 -0.972442 -2.11297 0
M  V30 203 C 21.1573 0.080731 -1.69208 0
M  V30 204 O 22.3633 -0.0707666 -1.79861 0
M  V30 205 H 18.7383 -0.297218 -0.690772 0
M  V30 206 H 20.7093 -1.91394 -2.28934 0
M  V30 207 C 19.4583 -0.555065 -3.43241 0
M  V30 208 H 18.7813 -1.35709 -3.76062 0
M  V30 209 H 20.2213 -0.424664 -4.21868 0
M  V30 210 C 18.6803 0.734147 -3.28804 0
M  V30 211 O 19.2103 1.78937 -3.59645 0
M  V30 212 N 17.4163 0.701133 -2.82015 0
M  V30 213 H 16.9633 -0.157874 -2.57116 0
M  V30 214 H 16.9213 1.56403 -2.72737 0
M  V30 215 N 20.6934 1.19889 -1.02296 0
M  V30 216 C 22.1094 1.41462 -0.738954 0
M  V30 217 C 22.3094 1.89721 0.678846 0
M  V30 218 O 21.3654 2.07016 1.4457 0
M  V30 219 C 22.6784 2.43083 -1.77005 0
M  V30 220 C 24.2264 2.5684 -1.78892 0
M  V30 221 C 24.7014 3.61709 -2.80945 0
M  V30 222 N 26.1924 3.69199 -2.79725 0
M  V30 223 C 26.9274 4.50019 -3.55345 0
M  V30 224 N 26.4234 5.34592 -4.40662 0
M  V30 225 N 28.2164 4.44612 -3.43914 0
M  V30 226 H 20.3674 0.868827 -1.93817 0
M  V30 227 H 22.6304 0.44399 -0.837602 0
M  V30 228 H 22.3364 2.14636 -2.78612 0
M  V30 229 H 22.2104 3.4217 -1.58744 0
M  V30 230 H 24.5974 2.84614 -0.779674 0
M  V30 231 H 24.6784 1.57927 -2.01228 0
M  V30 232 H 24.3224 3.34678 -3.82038 0
M  V30 233 H 24.2524 4.60259 -2.5587 0
M  V30 234 H 26.7434 3.08794 -2.17842 0
M  V30 235 H 27.0564 5.93363 -4.95116 0
M  V30 236 H 25.4014 5.34073 -4.44737 0
M  V30 237 H 28.5924 3.7758 -2.76679 0
M  V30 238 H 28.7654 5.0736 -4.031 0
M  V30 239 N 22.1715 0.800033 1.35784 0
M  V30 240 C 23.4015 0.389041 2.02904 0
M  V30 241 C 23.8095 -1.0027 1.60445 0
M  V30 242 O 23.1525 -1.65633 0.794453 0
M  V30 243 C 23.2145 0.385495 3.57427 0
M  V30 244 C 22.8785 1.72662 4.23127 0
M  V30 245 C 23.8755 2.68385 4.4527 0
M  V30 246 C 21.5605 2.00883 4.60381 0
M  V30 247 C 23.5545 3.90517 5.03761 0
M  V30 248 C 21.2415 3.2328 5.18588 0
M  V30 249 C 22.2395 4.17915 5.40218 0
M  V30 250 O 21.9275 5.38153 5.97199 0
M  V30 251 H 21.6595 0.157032 0.657508 0
M  V30 252 H 24.2135 1.08311 1.74522 0
M  V30 253 H 22.4435 -0.365128 3.84972 0
M  V30 254 H 24.1325 -0.00228296 4.059 0
M  V30 255 H 24.8985 2.47872 4.16874 0
M  V30 256 H 20.7775 1.28037 4.42863 0
M  V30 257 H 24.3215 4.64395 5.2056 0
M  V30 258 H 20.2185 3.43667 5.4641 0
M  V30 259 H 20.9865 5.3936 6.15656 0
M  V30 260 N 23.6496 -1.47581 0.552962 0
M  V30 261 C 24.6126 -2.28439 -0.186605 0
M  V30 262 C 25.6126 -1.36706 -0.84665 0
M  V30 263 O 26.8026 -1.59378 -0.703164 0
M  V30 264 C 23.9346 -3.16264 -1.2724 0
M  V30 265 H 25.1276 -2.95294 0.523609 0
M  V30 266 H 22.6806 -1.532 0.309745 0
M  V30 267 H 23.4156 -2.54091 -2.01514 0
M  V30 268 H 23.2006 -3.83769 -0.803968 0
M  V30 269 H 24.6906 -3.77198 -1.79196 0
M  V30 270 N 25.1277 -0.289203 -1.54924 0
M  V30 271 C 26.3737 0.323998 -2.00195 0
M  V30 272 C 26.7067 1.54441 -1.17735 0
M  V30 273 O 25.9817 1.92875 -0.250878 0
M  V30 274 C 26.2647 0.692276 -3.53383 0
M  V30 275 C 26.1177 -0.536457 -4.46589 0
M  V30 276 C 27.4367 1.52335 -4.12895 0
M  V30 277 H 24.5557 0.116289 -0.727768 0
M  V30 278 H 27.1977 -0.398954 -1.85764 0
M  V30 279 H 25.3477 1.30822 -3.65811 0
M  V30 280 H 27.0197 -1.17499 -4.46085 0
M  V30 281 H 25.2627 -1.17192 -4.1767 0
M  V30 282 H 25.9337 -0.234806 -5.515 0
M  V30 283 H 28.4097 1.00302 -4.0383 0
M  V30 284 H 27.2857 1.74982 -5.20262 0
M  V30 285 H 27.5467 2.50886 -3.64018 0
M  V30 286 N 26.6058 1.57591 -0.0167156 0
M  V30 287 C 27.8518 1.91567 0.665582 0
M  V30 288 C 28.1848 0.892298 1.72487 0
M  V30 289 O 27.4598 -0.0867127 1.94307 0
M  V30 290 C 27.7428 3.36069 1.29342 0
M  V30 291 C 27.5958 4.49135 0.244541 0
M  V30 292 C 28.9148 3.803 2.21495 0
M  V30 293 H 26.0338 0.69666 0.240488 0
M  V30 294 H 28.6758 1.89866 -0.0714356 0
M  V30 295 H 26.8258 3.3765 1.92158 0
M  V30 296 H 28.4978 4.59689 -0.385228 0
M  V30 297 H 26.7408 4.3165 -0.431379 0
M  V30 298 H 27.4118 5.47242 0.723207 0
M  V30 299 H 29.8878 3.80377 1.68678 0
M  V30 300 H 28.7638 4.82127 2.62382 0
M  V30 301 H 29.0248 3.15104 3.101 0
M  V30 302 N 28.0839 -0.256276 1.55502 0
M  V30 303 C 29.0469 -1.30047 1.88734 0
M  V30 304 C 30.0469 -1.4154 0.763086 0
M  V30 305 O 31.2369 -1.40403 1.03115 0
M  V30 306 C 28.3689 -2.67953 2.10747 0
M  V30 307 H 29.5619 -1.01802 2.82093 0
M  V30 308 H 27.1149 -0.495134 1.4825 0
M  V30 309 H 27.8499 -3.01351 1.19825 0
M  V30 310 H 27.6349 -2.60993 2.92617 0
M  V30 311 H 29.1249 -3.43368 2.37673 0
M  V30 312 N 29.562 -1.4872 -0.521534 0
M  V30 313 C 30.492 -1.66771 -1.63431 0
M  V30 314 C 31.473 -0.516499 -1.62069 0
M  V30 315 O 32.658 -0.750013 -1.79132 0
M  V30 316 C 29.788 -1.71515 -3.01993 0
M  V30 317 C 28.742 -2.86222 -3.18216 0
M  V30 318 C 28.068 -2.76061 -4.57924 0
M  V30 319 C 29.368 -4.27419 -3.00184 0
M  V30 320 H 31.062 -2.59932 -1.48579 0
M  V30 321 H 28.608 -1.25089 -0.713358 0
M  V30 322 H 30.561 -1.82731 -3.7972 0
M  V30 323 H 29.285 -0.749393 -3.17886 0
M  V30 324 H 27.944 -2.74575 -2.42908 0
M  V30 325 H 27.592 -1.77437 -4.70665 0
M  V30 326 H 27.292 -3.53037 -4.69722 0
M  V30 327 H 28.816 -2.89256 -5.37739 0
M  V30 328 H 30.23 -4.39855 -3.67697 0
M  V30 329 H 28.627 -5.05458 -3.2347 0
M  V30 330 H 29.697 -4.43293 -1.96518 0
M  V30 331 N 31.0401 0.771051 -1.3745 0
M  V30 332 C 32.4511 1.34737 -1.29239 0
M  V30 333 C 32.8021 1.96109 0.0596908 0
M  V30 334 O 31.9271 1.93865 0.961534 0
M  V30 335 C 32.5221 2.44973 -2.34037 0
M  V30 336 C 31.0811 2.98372 -2.29458 0
M  V30 337 C 30.2281 1.71595 -2.17831 0
M  V30 338 H 33.1791 0.571256 -1.48062 0
M  V30 339 H 33.2001 3.24471 -1.98744 0
M  V30 340 H 32.7121 2.00276 -3.32432 0
M  V30 341 H 30.8131 3.47443 -1.34589 0
M  V30 342 H 30.9261 3.53939 -3.229 0
M  V30 343 H 29.2901 1.94547 -1.64388 0
M  V30 344 H 30.0731 1.29001 -3.18141 0
M  V30 345 N 32.5182 1.22032 0.997298 0
M  V30 346 C 33.4482 1.01065 2.10495 0
M  V30 347 C 34.4292 -0.0669542 1.69968 0
M  V30 348 O 35.6142 0.0943987 1.9397 0
M  V30 349 C 32.7442 0.582874 3.42374 0
M  V30 350 C 31.6982 1.60592 3.96729 0
M  V30 351 C 31.0242 1.03412 5.24605 0
M  V30 352 C 32.3242 2.99478 4.27914 0
M  V30 353 H 34.0182 1.93708 2.28292 0
M  V30 354 H 31.5642 0.932761 1.09707 0
M  V30 355 H 33.5172 0.423332 4.19268 0
M  V30 356 H 32.2412 -0.379213 3.24391 0
M  V30 357 H 30.9002 1.75316 3.21963 0
M  V30 358 H 30.5482 0.063518 5.0296 0
M  V30 359 H 30.2482 1.71754 5.61938 0
M  V30 360 H 31.7722 0.886066 6.04137 0
M  V30 361 H 33.1862 2.88153 4.95622 0
M  V30 362 H 31.5832 3.64903 4.76409 0
M  V30 363 H 32.6532 3.49742 3.3587 0
M  V30 364 N 33.9963 -1.19345 1.0293 0
M  V30 365 C 34.9593 -2.20793 0.615069 0
M  V30 366 C 35.9593 -1.57553 -0.321533 0
M  V30 367 O 37.1493 -1.73862 -0.108483 0
M  V30 368 C 34.2813 -3.40754 -0.0999222 0
M  V30 369 H 35.4743 -2.58955 1.51269 0
M  V30 370 H 33.0273 -1.3303 0.820534 0
M  V30 371 H 33.7623 -3.0811 -1.01187 0
M  V30 372 H 33.5473 -3.87889 0.57309 0
M  V30 373 H 35.0373 -4.15898 -0.376645 0
M  V30 374 N 35.4744 -0.807222 -1.35358 0
M  V30 375 C 36.7234 -0.384376 -1.98004 0
M  V30 376 C 37.0364 1.0543 -1.64754 0
M  V30 377 O 38.2424 1.58029 -2.20769 0
M  V30 378 C 36.6984 -0.636326 -3.5423 0
M  V30 379 C 36.3064 -2.08759 -3.96388 0
M  V30 380 C 38.0504 -0.278869 -4.23583 0
M  V30 381 C 35.9574 -2.28525 -5.45463 0
M  V30 382 H 34.8874 -0.139986 -0.740891 0
M  V30 383 H 37.5384 -0.991369 -1.54415 0
M  V30 384 H 35.9204 0.0406256 -3.95979 0
M  V30 385 H 37.0944 -2.8024 -3.6579 0
M  V30 386 H 35.4094 -2.40497 -3.39926 0
M  V30 387 H 38.0064 -0.404599 -5.33167 0
M  V30 388 H 38.3494 0.775012 -4.09022 0
M  V30 389 H 38.8824 -0.909764 -3.87257 0
M  V30 390 H 35.6214 -3.32361 -5.64992 0
M  V30 391 H 35.1414 -1.61569 -5.77629 0
M  V30 392 H 36.8204 -2.10109 -6.11934 0
M  V30 393 N 36.9525 1.47285 -0.560781 0
M  V30 394 C 37.9155 2.28535 0.174488 0
M  V30 395 C 38.9155 1.37153 0.839388 0
M  V30 396 O 40.1055 1.59748 0.694702 0
M  V30 397 C 37.2375 3.16934 1.25561 0
M  V30 398 H 38.4305 2.95012 -0.539262 0
M  V30 399 H 35.9835 1.53034 -0.317865 0
M  V30 400 H 36.7185 2.55157 2.00164 0
M  V30 401 H 36.5035 3.8419 0.783604 0
M  V30 402 H 37.9935 3.78143 1.77193 0
M  V30 403 N 38.4306 0.297415 1.54768 0
M  V30 404 C 39.6556 -0.318435 2.04941 0
M  V30 405 C 40.0806 -1.4701 1.17345 0
M  V30 406 O 39.4386 -1.80436 0.176758 0
M  V30 407 C 39.4866 -0.755749 3.52592 0
M  V30 408 O 38.5906 -1.86088 3.68028 0
M  V30 409 H 37.9316 -0.062421 0.661059 0
M  V30 410 H 40.4616 0.438215 1.99852 0
M  V30 411 H 40.4716 -1.04552 3.94376 0
M  V30 412 H 39.1466 0.0867233 4.1581 0
M  V30 413 H 37.7236 -1.57193 3.38149 0
M  V30 414 N 39.9087 -1.5758 0.0250728 0
M  V30 415 C 41.1557 -1.91633 -0.654444 0
M  V30 416 C 41.4837 -0.901103 -1.72367 0
M  V30 417 O 40.7387 0.0905647 -1.9549 0
M  V30 418 C 41.0377 -3.32421 -1.31268 0
M  V30 419 C 40.7037 -4.49344 -0.374223 0
M  V30 420 C 39.3657 -4.8106 -0.115911 0
M  V30 421 C 41.7177 -5.20498 0.270432 0
M  V30 422 C 39.0457 -5.8129 0.79493 0
M  V30 423 C 41.3977 -6.21699 1.1693 0
M  V30 424 C 40.0617 -6.51859 1.43655 0
M  V30 425 H 39.3317 -0.701236 -0.239478 0
M  V30 426 H 41.9787 -1.91307 0.0859734 0
M  V30 427 H 40.2837 -3.28989 -2.12775 0
M  V30 428 H 41.9807 -3.56038 -1.84494 0
M  V30 429 H 38.5707 -4.24579 -0.58573 0
M  V30 430 H 42.7547 -4.96229 0.0839194 0
M  V30 431 H 38.0107 -6.03005 1.00973 0
M  V30 432 H 42.1847 -6.75955 1.67504 0
M  V30 433 H 39.8117 -7.2934 2.144 0
M  V30 434 N 41.3868 0.248026 -1.55636 0
M  V30 435 C 42.3498 1.29044 -1.89421 0
M  V30 436 C 43.3498 1.41134 -0.770581 0
M  V30 437 O 44.5398 1.39854 -1.03858 0
M  V30 438 C 41.6718 2.66831 -2.12165 0
M  V30 439 H 42.8648 1.00305 -2.82629 0
M  V30 440 H 40.4178 0.487265 -1.48511 0
M  V30 441 H 41.1528 3.00711 -1.21422 0
M  V30 442 H 40.9378 2.59438 -2.93997 0
M  V30 443 H 42.4278 3.42103 -2.3949 0
M  V30 444 N 42.8649 1.48995 0.513639 0
M  V30 445 C 43.8279 1.64229 1.59879 0
M  V30 446 C 44.8279 0.514696 1.5234 0
M  V30 447 O 46.0179 0.78087 1.55718 0
M  V30 448 C 43.1499 1.62783 2.99524 0
M  V30 449 H 44.3429 2.61004 1.47705 0
M  V30 450 H 41.8959 1.37837 0.736936 0
M  V30 451 H 42.6309 0.675461 3.17188 0
M  V30 452 H 42.4159 2.4466 3.06404 0
M  V30 453 H 43.9059 1.76669 3.78388 0
M  V30 454 N 44.343 -0.763751 1.37857 0
M  V30 455 C 45.59 -1.52257 1.33506 0
M  V30 456 C 45.918 -1.94343 -0.078022 0
M  V30 457 O 45.173 -1.64958 -1.05297 0
M  V30 458 C 45.472 -2.79499 2.22745 0
M  V30 459 C 45.138 -2.56426 3.70886 0
M  V30 460 C 43.8 -2.49842 4.11257 0
M  V30 461 C 46.152 -2.36008 4.64704 0
M  V30 462 C 43.48 -2.20841 5.43549 0
M  V30 463 C 45.832 -2.0853 5.97242 0
M  V30 464 C 44.496 -2.00396 6.36709 0
M  V30 465 H 43.766 -0.557149 0.488534 0
M  V30 466 H 46.413 -0.879073 1.70131 0
M  V30 467 H 44.718 -3.48447 1.79142 0
M  V30 468 H 46.415 -3.37413 2.16688 0
M  V30 469 H 43.005 -2.62416 3.38874 0
M  V30 470 H 47.189 -2.40079 4.34368 0
M  V30 471 H 42.445 -2.13045 5.73081 0
M  V30 472 H 46.619 -1.91732 6.69486 0
M  V30 473 H 44.246 -1.77688 7.39142 0
M  V30 474 N 45.8211 -1.22559 -0.990812 0
M  V30 475 C 47.0691 -1.04933 -1.72724 0
M  V30 476 C 47.3901 0.416158 -1.90508 0
M  V30 477 O 46.6601 1.29918 -1.46622 0
M  V30 478 H 45.2401 -0.385296 -0.639965 0
M  V30 479 H 47.9021 -1.54105 -1.19322 0
M  V30 480 H 46.9981 -1.52886 -2.72089 0
M  V30 481 N 47.2992 1.18797 -1.03562 0
M  V30 482 C 48.2622 2.20464 -0.626769 0
M  V30 483 C 49.2622 1.57721 0.313173 0
M  V30 484 O 50.4522 1.73917 0.0992615 0
M  V30 485 C 47.5842 3.40802 0.0818498 0
M  V30 486 H 48.7772 2.58149 -1.5264 0
M  V30 487 H 46.3302 1.32593 -0.827578 0
M  V30 488 H 47.0652 3.08642 0.995518 0
M  V30 489 H 46.8502 3.8758 -0.593652 0
M  V30 490 H 48.3402 4.16092 0.354584 0
M  V30 491 N 48.7773 0.814389 1.34928 0
M  V30 492 C 50.0023 0.410097 2.03305 0
M  V30 493 C 50.4273 -0.973464 1.60951 0
M  V30 494 O 49.7853 -1.63185 0.789964 0
M  V30 495 C 49.8333 0.51049 3.56968 0
M  V30 496 O 48.9373 -0.473035 4.09678 0
M  V30 497 H 48.2783 0.170088 0.641846 0
M  V30 498 H 50.8083 1.10244 1.72358 0
M  V30 499 H 50.8183 0.383135 4.06197 0
M  V30 500 H 49.4933 1.51963 3.87144 0
M  V30 501 H 48.0703 -0.305272 3.71648 0
M  V30 502 N 50.2554 -1.46986 0.568584 0
M  V30 503 C 51.6664 -1.86188 0.138219 0
M  V30 504 C 52.0174 -1.47388 -1.29504 0
M  V30 505 O 51.1424 -0.88219 -1.97602 0
M  V30 506 C 51.7374 -3.3792 0.244065 0
M  V30 507 C 50.2964 -3.76171 -0.131335 0
M  V30 508 C 49.4434 -2.71027 0.586465 0
M  V30 509 H 52.3944 -1.38342 0.777645 0
M  V30 510 H 52.4154 -3.76729 -0.534351 0
M  V30 511 H 51.9274 -3.66128 1.28731 0
M  V30 512 H 50.0284 -3.5358 -1.17526 0
M  V30 513 H 50.1414 -4.78523 0.235146 0
M  V30 514 H 48.5054 -2.54684 0.0282722 0
M  V30 515 H 49.2884 -3.02077 1.63109 0
M  V30 516 N 51.7335 -0.305618 -1.54608 0
M  V30 517 C 52.6965 0.555591 -2.22364 0
M  V30 518 C 53.6965 1.05768 -1.21119 0
M  V30 519 O 54.8865 0.952972 -1.45822 0
M  V30 520 C 52.0185 1.76974 -2.91364 0
M  V30 521 H 53.2115 -0.0364572 -2.99878 0
M  V30 522 H 50.7645 -0.0565007 -1.56198 0
M  V30 523 H 51.4995 2.40151 -2.17941 0
M  V30 524 H 51.2845 1.41732 -3.65588 0
M  V30 525 H 52.7745 2.38148 -3.43038 0
M  V30 526 N 53.2116 1.57565 -0.0334293 0
M  V30 527 C 54.4366 1.96689 0.657895 0
M  V30 528 C 54.8616 0.910057 1.64619 0
M  V30 529 O 54.2196 -0.128598 1.80843 0
M  V30 530 C 54.2676 3.34905 1.33683 0
M  V30 531 O 53.3716 3.31574 2.45219 0
M  V30 532 H 52.7126 0.641205 0.172489 0
M  V30 533 H 55.2426 2.04372 -0.0965621 0
M  V30 534 H 55.2526 3.71234 1.69262 0
M  V30 535 H 53.9276 4.11366 0.612411 0
M  V30 536 H 52.5046 3.06968 2.11719 0
M  V30 537 N 54.6897 -0.239769 1.55765 0
M  V30 538 C 55.9177 -0.98417 1.81994 0
M  V30 539 C 56.3327 -1.7867 0.610124 0
M  V30 540 O 55.6897 -1.77571 -0.421271 0
M  V30 541 C 55.7407 -1.91635 3.06526 0
M  V30 542 O 55.4617 -1.14629 4.22838 0
M  V30 543 C 56.9627 -2.77616 3.45607 0
M  V30 544 H 54.1827 -0.28928 0.605441 0
M  V30 545 H 56.7267 -0.260499 2.02834 0
M  V30 546 H 54.8817 -2.5942 2.87715 0
M  V30 547 H 55.2957 -1.77745 4.93464 0
M  V30 548 H 56.7697 -3.38759 4.35828 0
M  V30 549 H 57.2467 -3.4909 2.6652 0
M  V30 550 H 57.8527 -2.15271 3.66795 0
M  V30 551 N 56.1678 -1.49265 -0.50573 0
M  V30 552 C 57.0978 -1.68495 -1.61653 0
M  V30 553 C 58.0788 -0.53366 -1.61512 0
M  V30 554 O 59.2638 -0.76897 -1.78327 0
M  V30 555 C 56.3938 -1.74709 -3.00157 0
M  V30 556 C 55.3478 -2.89581 -3.15162 0
M  V30 557 C 54.6738 -2.80903 -4.5497 0
M  V30 558 C 55.9738 -4.30578 -2.95634 0
M  V30 559 H 57.6678 -2.61493 -1.45814 0
M  V30 560 H 55.2138 -1.25838 -0.70005 0
M  V30 561 H 57.1668 -1.86748 -3.77761 0
M  V30 562 H 55.8908 -0.783067 -3.17074 0
M  V30 563 H 54.5498 -2.77136 -2.39982 0
M  V30 564 H 54.1978 -1.82419 -4.68756 0
M  V30 565 H 53.8978 -3.57999 -4.65951 0
M  V30 566 H 55.4218 -2.94944 -5.34641 0
M  V30 567 H 56.8358 -4.4373 -3.63011 0
M  V30 568 H 55.2328 -5.0886 -3.18091 0
M  V30 569 H 56.3028 -4.45352 -1.91806 0
M  V30 570 N 57.6459 0.756429 -1.3826 0
M  V30 571 C 58.8919 1.5168 -1.35517 0
M  V30 572 C 59.2469 1.9232 0.0554451 0
M  V30 573 O 58.5399 1.62352 1.01746 0
M  V30 574 C 58.7339 2.78313 -2.24224 0
M  V30 575 C 58.5629 2.50053 -3.7377 0
M  V30 576 C 57.3329 2.43414 -4.42807 0
M  V30 577 C 59.5309 2.1702 -4.66269 0
M  V30 578 N 57.5129 2.07398 -5.77805 0
M  V30 579 C 58.8839 1.91271 -5.89759 0
M  V30 580 C 60.9389 2.03305 -4.54501 0
M  V30 581 C 59.6419 1.53192 -7.02798 0
M  V30 582 C 61.6679 1.66627 -5.67441 0
M  V30 583 C 61.0299 1.4175 -6.8999 0
M  V30 584 H 57.1289 0.554735 -0.551174 0
M  V30 585 H 59.7129 0.881106 -1.73622 0
M  V30 586 H 57.8839 3.39696 -1.88311 0
M  V30 587 H 59.6159 3.44343 -2.12627 0
M  V30 588 H 56.3709 2.59789 -3.95988 0
M  V30 589 H 56.7949 1.92044 -6.4919 0
M  V30 590 H 61.4369 2.21215 -3.60311 0
M  V30 591 H 59.1549 1.34022 -7.96909 0
M  V30 592 H 62.7409 1.56652 -5.60314 0
M  V30 593 H 61.6209 1.1379 -7.759 0
M  V30 594 N 59.124 1.23083 0.984299 0
M  V30 595 C 60.087 1.00979 2.05757 0
M  V30 596 C 61.087 -0.0269573 1.60777 0
M  V30 597 O 62.277 0.212403 1.729 0
M  V30 598 C 59.409 0.527072 3.36801 0
M  V30 599 H 60.602 1.9622 2.26799 0
M  V30 600 H 58.155 1.05072 1.15714 0
M  V30 601 H 58.89 -0.429294 3.21446 0
M  V30 602 H 58.675 1.27515 3.70786 0
M  V30 603 H 60.165 0.392942 4.15747 0
M  V30 604 N 60.6021 -1.18246 1.0419 0
M  V30 605 C 62.0131 -1.69914 0.773698 0
M  V30 606 C 62.3641 -1.83085 -0.705297 0
M  V30 607 O 61.4891 -1.51123 -1.5489 0
M  V30 608 C 62.0841 -3.08619 1.39784 0
M  V30 609 C 60.6431 -3.57494 1.17792 0
M  V30 610 C 59.7901 -2.34013 1.48773 0
M  V30 611 H 62.7411 -1.02904 1.20816 0
M  V30 612 H 62.7621 -3.71958 0.801714 0
M  V30 613 H 62.2741 -2.99001 2.47426 0
M  V30 614 H 60.3751 -3.72406 0.120295 0
M  V30 615 H 60.4881 -4.40852 1.87581 0
M  V30 616 H 58.8521 -2.37986 0.907463 0
M  V30 617 H 59.6351 -2.27013 2.57527 0
M  V30 618 N 62.0802 -0.821533 -1.34494 0
M  V30 619 C 63.3082 -0.421884 -2.02553 0
M  V30 620 C 63.7232 0.971745 -1.61872 0
M  V30 621 O 63.0802 1.62864 -0.823496 0
M  V30 622 C 63.1312 -0.51285 -3.57844 0
M  V30 623 O 62.8522 -1.85155 -3.97051 0
M  V30 624 C 64.3532 -0.107921 -4.43169 0
M  V30 625 H 61.5732 -0.169482 -0.649243 0
M  V30 626 H 64.1172 -1.1093 -1.71798 0
M  V30 627 H 62.2722 0.126474 -3.87193 0
M  V30 628 H 62.6862 -1.82482 -4.91732 0
M  V30 629 H 64.1602 -0.222657 -5.51551 0
M  V30 630 H 64.6372 0.948401 -4.28838 0
M  V30 631 H 65.2432 -0.720989 -4.19144 0
M  V30 632 N 63.5583 1.46682 -0.576371 0
M  V30 633 C 64.8353 1.95599 0.00703437 0
M  V30 634 C 65.2153 1.51904 1.46589 0
M  V30 635 O 64.5633 0.766755 2.15251 0
M  V30 636 C 64.7733 3.4864 -0.158404 0
M  V30 637 C 66.1213 4.24594 -0.0229439 0
M  V30 638 O 67.1453 3.56094 -0.0869173 0
M  V30 639 O 66.0043 5.46373 0.118015 0
M  V30 640 H 63.0983 0.825275 0.053384 0
M  V30 641 H 65.6443 1.56996 -0.644244 0
M  V30 642 H 64.4163 3.7331 -1.17282 0
M  V30 643 H 64.0393 3.94057 0.5296 0
M  V30 644 N 65.0364 0.313813 1.54444 0
M  V30 645 C 66.2644 -0.293918 2.04802 0
M  V30 646 C 66.6794 -1.46537 1.19047 0
M  V30 647 O 66.0364 -1.81182 0.218939 0
M  V30 648 C 66.0874 -0.737806 3.53891 0
M  V30 649 O 65.8084 0.387038 4.36387 0
M  V30 650 C 67.3094 -1.40936 4.203 0
M  V30 651 H 64.5294 -0.0620057 0.668129 0
M  V30 652 H 67.0734 0.457169 1.99324 0
M  V30 653 H 65.2284 -1.43889 3.59687 0
M  V30 654 H 65.6424 0.0391274 5.24485 0
M  V30 655 H 67.1164 -1.67099 5.26101 0
M  V30 656 H 67.5934 -2.35355 3.70816 0
M  V30 657 H 68.1994 -0.751117 4.18615 0
M  V30 658 N 66.5145 -1.57545 0.0417849 0
M  V30 659 C 67.4615 -2.10977 -0.935805 0
M  V30 660 C 68.4315 -1.01486 -1.31491 0
M  V30 661 O 69.6165 -1.2898 -1.40602 0
M  V30 662 C 66.7565 -2.65169 -2.2086 0
M  V30 663 C 65.8695 -3.88714 -1.88482 0
M  V30 664 C 65.0045 -4.31254 -3.1015 0
M  V30 665 C 64.0435 -5.47524 -2.7365 0
M  V30 666 N 63.1805 -5.85162 -3.87982 0
M  V30 667 H 68.0205 -2.94218 -0.473249 0
M  V30 668 H 65.5575 -1.45415 -0.221981 0
M  V30 669 H 67.5155 -2.94685 -2.95325 0
M  V30 670 H 66.1455 -1.8474 -2.64709 0
M  V30 671 H 65.1975 -3.65849 -1.04205 0
M  V30 672 H 66.5095 -4.73245 -1.57608 0
M  V30 673 H 65.6635 -4.62273 -3.92923 0
M  V30 674 H 64.4025 -3.45516 -3.44195 0
M  V30 675 H 63.4075 -5.16187 -1.89291 0
M  V30 676 H 64.6325 -6.34971 -2.40807 0
M  V30 677 H 62.5785 -5.02377 -4.21846 0
M  V30 678 H 62.4955 -6.64362 -3.60775 0
M  V30 679 H 63.7635 -6.20791 -4.71422 0
M  V30 680 N 67.9926 0.231505 -1.5589 0
M  V30 681 C 68.9556 1.27028 -1.90779 0
M  V30 682 C 69.9556 1.40308 -0.785507 0
M  V30 683 O 71.1456 1.38744 -1.05336 0
M  V30 684 C 68.2776 2.64566 -2.14983 0
M  V30 685 H 69.4706 0.973017 -2.83677 0
M  V30 686 H 67.0236 0.471486 -1.49019 0
M  V30 687 H 67.7586 2.99406 -1.24604 0
M  V30 688 H 67.5436 2.56305 -2.96732 0
M  V30 689 H 69.0336 3.39543 -2.43105 0
M  V30 690 N 69.4707 1.49531 0.497807 0
M  V30 691 C 70.7177 1.59179 1.25173 0
M  V30 692 C 71.0457 0.279932 1.92475 0
M  V30 693 O 70.3007 -0.732383 1.81479 0
M  V30 694 C 70.5997 2.70252 2.33878 0
M  V30 695 C 70.2657 4.11644 1.84012 0
M  V30 696 C 68.9277 4.50121 1.70132 0
M  V30 697 C 71.2797 5.00121 1.46725 0
M  V30 698 C 68.6077 5.74845 1.17348 0
M  V30 699 C 70.9597 6.25366 0.95392 0
M  V30 700 C 69.6237 6.6267 0.801538 0
M  V30 701 H 68.8937 0.582478 0.45804 0
M  V30 702 H 71.5407 1.83373 0.551948 0
M  V30 703 H 69.8457 2.40041 3.09657 0
M  V30 704 H 71.5427 2.74925 2.9192 0
M  V30 705 H 68.1327 3.81274 1.95775 0
M  V30 706 H 72.3167 4.71048 1.56294 0
M  V30 707 H 67.5727 6.02444 1.04264 0
M  V30 708 H 71.7467 6.93301 0.656225 0
M  V30 709 H 69.3737 7.59197 0.390351 0
M  V30 710 N 70.9488 -0.749086 1.3866 0
M  V30 711 C 72.1948 -1.51056 1.35314 0
M  V30 712 C 72.5278 -1.94121 -0.0553751 0
M  V30 713 O 71.8028 -1.65763 -1.01749 0
M  V30 714 C 72.0858 -2.76003 2.31288 0
M  V30 715 C 71.9388 -2.39047 3.8102 0
M  V30 716 C 73.2578 -3.78046 2.2532 0
M  V30 717 H 70.3768 -0.547972 0.492844 0
M  V30 718 H 73.0188 -0.857628 1.69543 0
M  V30 719 H 71.1688 -3.31716 2.02229 0
M  V30 720 H 72.8408 -1.89074 4.20771 0
M  V30 721 H 71.0838 -1.71449 3.98482 0
M  V30 722 H 71.7548 -3.28462 4.4364 0
M  V30 723 H 74.2308 -3.31884 2.50983 0
M  V30 724 H 73.1068 -4.63159 2.94576 0
M  V30 725 H 73.3678 -4.23957 1.25352 0
M  V30 726 N 72.4269 -1.23603 -0.977757 0
M  V30 727 C 73.6549 -1.09646 -1.75458 0
M  V30 728 C 74.0699 0.351859 -1.85492 0
M  V30 729 O 73.4269 1.24327 -1.336 0
M  V30 730 C 73.4779 -1.71895 -3.18016 0
M  V30 731 O 73.1989 -3.11063 -3.08498 0
M  V30 732 C 74.6999 -1.63415 -4.12081 0
M  V30 733 H 71.9199 -0.38359 -0.550545 0
M  V30 734 H 74.4639 -1.63507 -1.22824 0
M  V30 735 H 72.6189 -1.22061 -3.67668 0
M  V30 736 H 73.0329 -3.41305 -3.9826 0
M  V30 737 H 74.5069 -2.11669 -5.09804 0
M  V30 738 H 74.9839 -0.593462 -4.35172 0
M  V30 739 H 75.5899 -2.12628 -3.68334 0
M  V30 740 N 73.905 1.17692 -1.04816 0
M  V30 741 C 75.316 1.69501 -0.782698 0
M  V30 742 C 75.667 1.83456 0.695577 0
M  V30 743 O 74.792 1.51942 1.54086 0
M  V30 744 C 75.387 3.07874 -1.41419 0
M  V30 745 C 73.946 3.56864 -1.19686 0
M  V30 746 C 73.093 2.3322 -1.50012 0
M  V30 747 H 76.044 1.02262 -1.2136 0
M  V30 748 H 76.065 3.71528 -0.821428 0
M  V30 749 H 75.577 2.97685 -2.49009 0
M  V30 750 H 73.678 3.72337 -0.140043 0
M  V30 751 H 73.791 4.39851 -1.89916 0
M  V30 752 H 72.155 2.37501 -0.920071 0
M  V30 753 H 72.938 2.25644 -2.58727 0
M  V30 754 N 75.3831 0.828654 1.34056 0
M  V30 755 C 76.3461 0.259927 2.27721 0
M  V30 756 C 77.3461 -0.565478 1.50529 0
M  V30 757 O 78.5361 -0.38075 1.69988 0
M  V30 758 C 75.6681 -0.634944 3.34935 0
M  V30 759 H 76.8611 1.0863 2.79534 0
M  V30 760 H 74.4141 0.600951 1.44285 0
M  V30 761 H 75.1491 -1.48416 2.88346 0
M  V30 762 H 74.9341 -0.0444999 3.92075 0
M  V30 763 H 76.4241 -1.02648 4.04788 0
M  V30 764 N 76.8612 -1.46375 0.584142 0
M  V30 765 C 77.7932 -2.28443 -0.186119 0
M  V30 766 C 78.8062 -1.38596 -0.854115 0
M  V30 767 O 79.9952 -1.63183 -0.723438 0
M  V30 768 C 77.0952 -3.13671 -1.28311 0
M  V30 769 C 76.2682 -4.31652 -0.706758 0
M  V30 770 C 75.3272 -4.98267 -1.69163 0
M  V30 771 O 74.3532 -5.55815 -1.22712 0
M  V30 772 N 75.5552 -4.95408 -3.02575 0
M  V30 773 H 78.3202 -2.9519 0.517986 0
M  V30 774 H 75.8812 -1.56303 0.42201 0
M  V30 775 H 77.8732 -3.55101 -1.94128 0
M  V30 776 H 76.4432 -2.48989 -1.89005 0
M  V30 777 H 75.6632 -3.93989 0.128908 0
M  V30 778 H 76.9512 -5.07906 -0.301506 0
M  V30 779 H 76.3492 -4.49902 -3.42936 0
M  V30 780 H 74.9062 -5.40774 -3.63877 0
M  V30 781 N 78.3393 -0.321999 -1.54275 0
M  V30 782 C 79.5853 0.281461 -2.00837 0
M  V30 783 C 79.9183 1.51909 -1.20985 0
M  V30 784 O 79.1933 1.923 -0.291733 0
M  V30 785 C 79.4763 0.617162 -3.54772 0
M  V30 786 C 79.3293 -0.631064 -4.45351 0
M  V30 787 C 80.6483 1.43542 -4.16033 0
M  V30 788 H 77.7673 0.100826 -0.730071 0
M  V30 789 H 80.4093 -0.438268 -1.84876 0
M  V30 790 H 78.5593 1.23034 -3.68504 0
M  V30 791 H 80.2313 -1.26934 -4.43492 0
M  V30 792 H 78.4743 -1.26025 -4.15091 0
M  V30 793 H 79.1453 -0.351735 -5.50878 0
M  V30 794 H 81.6213 0.917134 -4.05867 0
M  V30 795 H 80.4973 1.63907 -5.23856 0
M  V30 796 H 80.7583 2.43108 -3.69257 0
M  V30 797 N 79.8174 1.5752 -0.0501392 0
M  V30 798 C 80.7274 2.14952 0.939827 0
M  V30 799 C 81.7434 1.10706 1.34239 0
M  V30 800 O 82.9194 1.42869 1.41952 0
M  V30 801 C 79.9844 2.68232 2.19665 0
M  V30 802 C 79.0454 3.87272 1.85253 0
M  V30 803 C 78.2784 4.38002 3.04943 0
M  V30 804 O 78.5014 3.87811 4.18281 0
M  V30 805 O 77.4354 5.29602 2.86017 0
M  V30 806 H 81.2614 2.9986 0.481392 0
M  V30 807 H 78.8464 1.4841 0.171699 0
M  V30 808 H 80.7284 3.02475 2.93406 0
M  V30 809 H 79.4034 1.86395 2.64648 0
M  V30 810 H 78.3104 3.5792 1.0883 0
M  V30 811 H 79.6434 4.70336 1.4507 0
M  V30 812 N 81.2955 -0.223234 1.56011 0
M  V30 813 C 82.2585 -1.26014 1.9145 0
M  V30 814 C 83.2585 -1.3989 0.792937 0
M  V30 815 O 84.4485 -1.38184 1.0607 0
M  V30 816 C 81.5805 -2.63422 2.16383 0
M  V30 817 H 82.7735 -0.95796 2.84189 0
M  V30 818 H 80.3265 -0.463576 1.49267 0
M  V30 819 H 81.0615 -2.98741 1.2619 0
M  V30 820 H 80.8465 -2.54728 2.98088 0
M  V30 821 H 82.3365 -3.38249 2.44903 0
M  V30 822 N 82.7736 -1.49793 -0.48987 0
M  V30 823 C 84.1896 -1.36803 -0.822022 0
M  V30 824 C 84.3896 -0.409652 -1.97292 0
M  V30 825 O 83.4456 0.154614 -2.52026 0
M  V30 826 C 84.7586 -2.77768 -1.15175 0
M  V30 827 C 86.3066 -2.86549 -1.25931 0
M  V30 828 C 86.7816 -4.28306 -1.62228 0
M  V30 829 N 88.2726 -4.31169 -1.69256 0
M  V30 830 C 89.0076 -5.37832 -1.98807 0
M  V30 831 N 88.5036 -6.54726 -2.26507 0
M  V30 832 N 90.2966 -5.25258 -2.00152 0
M  V30 833 H 82.4476 -2.10691 0.268881 0
M  V30 834 H 84.7106 -0.946241 0.057728 0
M  V30 835 H 84.4166 -3.49648 -0.379335 0
M  V30 836 H 84.2906 -3.13836 -2.09253 0
M  V30 837 H 86.6776 -2.14899 -2.02243 0
M  V30 838 H 86.7586 -2.54049 -0.298776 0
M  V30 839 H 86.4026 -5.00486 -0.864622 0
M  V30 840 H 86.3326 -4.58279 -2.594 0
M  V30 841 H 88.8236 -3.4687 -1.49965 0
M  V30 842 H 89.1366 -7.31833 -2.48276 0
M  V30 843 H 87.4816 -6.57933 -2.23939 0
M  V30 844 H 90.6726 -4.32938 -1.77996 0
M  V30 845 H 90.8456 -6.08476 -2.22848 0
M  V30 846 N 84.2517 0.741722 -1.39055 0
M  V30 847 C 85.4767 1.53607 -1.39354 0
M  V30 848 C 85.9017 1.88096 0.0116905 0
M  V30 849 O 85.2597 1.5143 0.996924 0
M  V30 850 C 85.3077 2.80441 -2.26682 0
M  V30 851 O 84.4117 3.76088 -1.69208 0
M  V30 852 H 83.7527 0.464142 -0.474835 0
M  V30 853 H 86.2827 0.915665 -1.82967 0
M  V30 854 H 86.2927 3.29246 -2.40959 0
M  V30 855 H 84.9677 2.5467 -3.2881 0
M  V30 856 H 83.5447 3.34833 -1.64138 0
M  V30 857 N 85.7298 1.2412 0.971189 0
M  V30 858 C 86.6928 1.03156 2.04674 0
M  V30 859 C 87.6928 -0.00990322 1.60797 0
M  V30 860 O 88.8828 0.230729 1.72665 0
M  V30 861 C 86.0148 0.562765 3.36223 0
M  V30 862 H 87.2078 1.98614 2.24705 0
M  V30 863 H 84.7608 1.06293 1.14593 0
M  V30 864 H 85.4958 -0.395176 3.21883 0
M  V30 865 H 85.2808 1.31441 3.69413 0
M  V30 866 H 86.7708 0.437015 4.15307 0
M  V30 867 N 87.2079 -1.17134 1.05439 0
M  V30 868 C 88.1709 -2.19439 0.661764 0
M  V30 869 C 89.1709 -1.58199 -0.288042 0
M  V30 870 O 90.3609 -1.74053 -0.0715803 0
M  V30 871 C 87.4929 -3.40889 -0.0276209 0
M  V30 872 H 88.6859 -2.55688 1.56728 0
M  V30 873 H 86.2389 -1.31259 0.848567 0
M  V30 874 H 86.9739 -3.10187 -0.94629 0
M  V30 875 H 86.7589 -3.86586 0.655238 0
M  V30 876 H 88.2489 -4.16603 -0.288342 0
M  V30 877 N 88.686 -0.835752 -1.33615 0
M  V30 878 C 90.097 -0.487099 -1.80234 0
M  V30 879 C 90.448 0.993627 -1.69179 0
M  V30 880 O 89.573 1.77403 -1.23924 0
M  V30 881 C 90.168 -0.877385 -3.27242 0
M  V30 882 C 88.727 -0.580915 -3.7189 0
M  V30 883 C 87.874 -1.0874 -2.5509 0
M  V30 884 H 90.825 -1.02474 -1.2118 0
M  V30 885 H 90.846 -0.186195 -3.80044 0
M  V30 886 H 90.358 -1.95512 -3.35256 0
M  V30 887 H 88.459 0.486881 -3.69405 0
M  V30 888 H 88.572 -1.13396 -4.65487 0
M  V30 889 H 86.936 -0.508392 -2.49575 0
M  V30 890 H 87.719 -2.17184 -2.65868 0
M  V30 891 N 90.1641 1.46063 -0.591896 0
M  V30 892 C 91.0941 2.33172 0.123673 0
M  V30 893 C 92.0751 1.45897 0.87453 0
M  V30 894 O 93.2601 1.74698 0.848181 0
M  V30 895 C 90.3901 3.28336 1.13194 0
M  V30 896 C 89.3441 4.25124 0.495324 0
M  V30 897 C 88.6701 5.09863 1.61071 0
M  V30 898 C 89.9701 5.19143 -0.573425 0
M  V30 899 H 91.6641 2.93252 -0.603646 0
M  V30 900 H 89.2101 1.41014 -0.291741 0
M  V30 901 H 91.1631 3.88137 1.64097 0
M  V30 902 H 89.8871 2.66383 1.88965 0
M  V30 903 H 88.5461 3.66599 0.00729452 0
M  V30 904 H 88.1941 4.44288 2.35832 0
M  V30 905 H 87.8941 5.75417 1.19035 0
M  V30 906 H 89.4181 5.72529 2.12233 0
M  V30 907 H 90.8321 5.73106 -0.1491 0
M  V30 908 H 89.2291 5.93089 -0.914636 0
M  V30 909 H 90.2991 4.62519 -1.45617 0
M  V30 910 N 91.6422 0.330177 1.54103 0
M  V30 911 C 92.5722 -0.525353 2.27513 0
M  V30 912 C 93.5532 -1.11383 1.2856 0
M  V30 913 O 94.7382 -1.13773 1.57383 0
M  V30 914 C 91.8682 -1.6831 3.03791 0
M  V30 915 C 90.8222 -1.2236 4.10137 0
M  V30 916 C 90.1482 -2.46882 4.74293 0
M  V30 917 C 91.4482 -0.333697 5.21233 0
M  V30 918 H 93.1422 0.087013 2.99274 0
M  V30 919 H 90.6882 0.0432893 1.43935 0
M  V30 920 H 92.6412 -2.28795 3.5388 0
M  V30 921 H 91.3652 -2.32216 2.29659 0
M  V30 922 H 90.0242 -0.64165 3.60941 0
M  V30 923 H 89.6722 -3.09165 3.96769 0
M  V30 924 H 89.3722 -2.16825 5.46133 0
M  V30 925 H 90.8962 -3.08117 5.27159 0
M  V30 926 H 92.3102 -0.845013 5.67038 0
M  V30 927 H 90.7072 -0.125612 5.99969 0
M  V30 928 H 91.7772 0.633724 4.80741 0
M  V30 929 N 93.1203 -1.57491 0.0584922 0
M  V30 930 C 94.0303 -2.15448 -0.928414 0
M  V30 931 C 95.0463 -1.11416 -1.3365 0
M  V30 932 O 96.2223 -1.4362 -1.41193 0
M  V30 933 C 93.2873 -2.69393 -2.18239 0
M  V30 934 C 92.3483 -3.88249 -1.83196 0
M  V30 935 C 91.5813 -4.39613 -3.02616 0
M  V30 936 O 91.8043 -3.90023 -4.16219 0
M  V30 937 O 90.7383 -5.31111 -2.83204 0
M  V30 938 H 94.5643 -3.00112 -0.465483 0
M  V30 939 H 92.1493 -1.48499 -0.163826 0
M  V30 940 H 94.0313 -3.04026 -2.91798 0
M  V30 941 H 92.7063 -1.87796 -2.63656 0
M  V30 942 H 91.6133 -3.58492 -1.06931 0
M  V30 943 H 92.9463 -4.71098 -1.42573 0
M  V30 944 N 94.5984 0.214957 -1.56127 0
M  V30 945 C 95.5284 1.2695 -1.95974 0
M  V30 946 C 96.5094 1.48539 -0.828868 0
M  V30 947 O 97.6944 1.60611 -1.09168 0
M  V30 948 C 94.8244 2.61794 -2.28214 0
M  V30 949 C 93.7784 2.54851 -3.43853 0
M  V30 950 C 93.1044 3.93785 -3.61715 0
M  V30 951 C 94.4044 2.09065 -4.78632 0
M  V30 952 H 96.0984 0.93846 -2.84312 0
M  V30 953 H 93.6444 0.449996 -1.36788 0
M  V30 954 H 95.5974 3.35731 -2.54682 0
M  V30 955 H 94.3214 2.96599 -1.36736 0
M  V30 956 H 92.9804 1.8337 -3.17444 0
M  V30 957 H 92.6284 4.25908 -2.67602 0
M  V30 958 H 92.3284 3.90019 -4.39498 0
M  V30 959 H 93.8524 4.69374 -3.90539 0
M  V30 960 H 95.2664 2.7275 -5.04262 0
M  V30 961 H 93.6634 2.16346 -5.59745 0
M  V30 962 H 94.7334 1.04315 -4.73547 0
M  V30 963 N 96.0765 1.50051 0.48192 0
M  V30 964 C 97.0395 1.67584 1.5636 0
M  V30 965 C 98.0395 0.546894 1.51214 0
M  V30 966 O 99.2295 0.813725 1.54026 0
M  V30 967 C 96.3615 1.691 2.96003 0
M  V30 968 H 97.5545 2.64078 1.42136 0
M  V30 969 H 95.1075 1.39369 0.707533 0
M  V30 970 H 95.8425 0.742589 3.15684 0
M  V30 971 H 95.6275 2.51105 3.01146 0
M  V30 972 H 97.1175 1.84656 3.74556 0
M  V30 973 N 97.5546 -0.734337 1.39446 0
M  V30 974 C 98.5176 -1.83004 1.37994 0
M  V30 975 C 99.5176 -1.58397 0.276938 0
M  V30 976 O 100.708 -1.65785 0.534875 0
M  V30 977 C 97.8396 -3.20802 1.1532 0
M  V30 978 H 99.0326 -1.85694 2.35494 0
M  V30 979 H 96.5856 -0.938059 1.25021 0
M  V30 980 H 97.3206 -3.23772 0.185036 0
M  V30 981 H 97.1056 -3.4006 1.95197 0
M  V30 982 H 98.5956 -4.00862 1.17046 0
M  V30 983 N 99.0327 -1.24633 -0.964593 0
M  V30 984 C 100.281 -1.08573 -1.70459 0
M  V30 985 C 100.602 0.375655 -1.91347 0
M  V30 986 O 99.8717 1.26779 -1.49345 0
M  V30 987 H 98.4517 -0.398784 -0.631649 0
M  V30 988 H 101.114 -1.56601 -1.16026 0
M  V30 989 H 100.21 -1.58623 -2.68785 0
M  V30 990 N 100.511 1.16574 -1.06058 0
M  V30 991 C 101.421 2.2452 -0.680282 0
M  V30 992 C 102.437 1.71348 0.302604 0
M  V30 993 O 103.613 2.00822 0.152513 0
M  V30 994 C 100.678 3.46629 -0.0700315 0
M  V30 995 C 99.7388 4.14849 -1.10448 0
M  V30 996 C 98.9718 5.31129 -0.523256 0
M  V30 997 O 99.1948 5.66514 0.664709 0
M  V30 998 O 98.1288 5.88526 -1.26179 0
M  V30 999 H 101.955 2.59355 -1.58015 0
M  V30 1000 H 99.5398 1.24043 -0.832694 0
M  V30 1001 H 101.422 4.20543 0.268667 0
M  V30 1002 H 100.097 3.13573 0.803353 0
M  V30 1003 H 99.0038 3.42916 -1.49532 0
M  V30 1004 H 100.337 4.51954 -1.94931 0
M  V30 1005 N 101.989 0.842826 1.3317 0
M  V30 1006 C 103.217 0.454055 2.01856 0
M  V30 1007 C 103.632 -0.94587 1.63397 0
M  V30 1008 O 102.989 -1.61534 0.849302 0
M  V30 1009 C 103.04 0.569715 3.56982 0
M  V30 1010 O 102.761 1.91448 3.94055 0
M  V30 1011 C 104.262 0.178412 4.42941 0
M  V30 1012 H 101.482 0.17979 0.646465 0
M  V30 1013 H 104.026 1.1365 1.70012 0
M  V30 1014 H 102.181 -0.0648587 3.87346 0
M  V30 1015 H 102.595 1.90282 4.88767 0
M  V30 1016 H 104.069 0.310376 5.51127 0
M  V30 1017 H 104.546 -0.880056 4.30293 0
M  V30 1018 H 105.152 0.787579 4.17944 0
M  V30 1019 N 103.467 -1.45747 0.599634 0
M  V30 1020 C 104.43 -2.28917 -0.113835 0
M  V30 1021 C 105.43 -1.3933 -0.802729 0
M  V30 1022 O 106.62 -1.61534 -0.652103 0
M  V30 1023 C 103.752 -3.20152 -1.17114 0
M  V30 1024 H 104.945 -2.93478 0.617289 0
M  V30 1025 H 102.498 -1.52137 0.358327 0
M  V30 1026 H 103.233 -2.60374 -1.93329 0
M  V30 1027 H 103.018 -3.86133 -0.681468 0
M  V30 1028 H 104.508 -3.82708 -1.67105 0
M  V30 1029 N 104.945 -0.338344 -1.53925 0
M  V30 1030 C 105.895 0.536712 -2.21593 0
M  V30 1031 C 106.879 1.07015 -1.20153 0
M  V30 1032 O 108.071 1.00471 -1.45721 0
M  V30 1033 C 105.2 1.68977 -2.98834 0
M  V30 1034 C 104.286 1.17052 -4.07627 0
M  V30 1035 N 104.677 0.372085 -5.0443 0
M  V30 1036 C 102.975 1.44789 -4.21844 0
M  V30 1037 C 103.676 0.0909171 -5.81629 0
M  V30 1038 N 102.652 0.681131 -5.39316 0
M  V30 1039 H 106.454 -0.0804298 -2.9379 0
M  V30 1040 H 103.968 -0.144943 -1.61752 0
M  V30 1041 H 105.965 2.32857 -3.45808 0
M  V30 1042 H 104.625 2.31024 -2.28162 0
M  V30 1043 H 105.636 0.0136217 -5.17898 0
M  V30 1044 H 102.313 2.07313 -3.62391 0
M  V30 1045 H 103.703 -0.552817 -6.69622 0
M  V30 1046 N 106.423 1.57458 -0.0668435 0
M  V30 1047 C 107.672 1.92477 0.602947 0
M  V30 1048 C 107.985 0.948419 1.71068 0
M  V30 1049 O 109.191 1.19124 2.43971 0
M  V30 1050 C 107.647 3.41903 1.12383 0
M  V30 1051 C 107.255 4.47975 0.04737 0
M  V30 1052 C 108.999 3.85931 1.76797 0
M  V30 1053 C 106.906 5.88529 0.582022 0
M  V30 1054 H 105.836 0.718387 0.22899 0
M  V30 1055 H 108.487 1.82978 -0.138276 0
M  V30 1056 H 106.869 3.46459 1.91787 0
M  V30 1057 H 108.043 4.55029 -0.726978 0
M  V30 1058 H 106.358 4.13384 -0.500243 0
M  V30 1059 H 108.955 4.88322 2.17821 0
M  V30 1060 H 109.298 3.23029 2.62599 0
M  V30 1061 H 109.831 3.83958 1.04024 0
M  V30 1062 H 106.57 6.55065 -0.238721 0
M  V30 1063 H 106.09 5.85004 1.324 0
M  V30 1064 H 107.769 6.38258 1.05999 0
M  V30 1065 N 107.901 -0.206675 1.56239 0
M  V30 1066 C 109.147 -0.930218 1.80208 0
M  V30 1067 C 109.48 -1.83387 0.638981 0
M  V30 1068 O 108.755 -1.91119 -0.361066 0
M  V30 1069 C 109.038 -1.75641 3.1436 0
M  V30 1070 C 108.891 -0.878257 4.41142 0
M  V30 1071 C 110.21 -2.73129 3.45092 0
M  V30 1072 H 107.329 -0.336742 0.655571 0
M  V30 1073 H 109.971 -0.198222 1.88963 0
M  V30 1074 H 108.121 -2.38048 3.07027 0
M  V30 1075 H 109.793 -0.269787 4.6051 0
M  V30 1076 H 108.036 -0.184385 4.33408 0
M  V30 1077 H 108.707 -1.49106 5.3148 0
M  V30 1078 H 111.183 -2.20856 3.52649 0
M  V30 1079 H 110.059 -3.28028 4.40101 0
M  V30 1080 H 110.32 -3.51606 2.68003 0
M  V30 1081 N 109.379 -1.50304 -0.473955 0
M  V30 1082 C 110.625 -1.61389 -1.22806 0
M  V30 1083 C 110.958 -0.311955 -1.91678 0
M  V30 1084 O 110.233 0.686384 -1.81986 0
M  V30 1085 C 110.516 -2.79219 -2.27396 0
M  V30 1086 C 110.369 -4.19286 -1.62848 0
M  V30 1087 C 111.688 -2.92614 -3.28732 0
M  V30 1088 H 108.807 -0.587399 -0.445119 0
M  V30 1089 H 111.449 -1.82681 -0.522265 0
M  V30 1090 H 109.599 -2.61195 -2.87592 0
M  V30 1091 H 111.271 -4.48892 -1.06271 0
M  V30 1092 H 109.514 -4.23677 -0.931693 0
M  V30 1093 H 110.185 -4.97655 -2.38838 0
M  V30 1094 H 112.661 -3.09105 -2.78556 0
M  V30 1095 H 111.537 -3.76688 -3.99246 0
M  V30 1096 H 111.798 -2.03107 -3.92683 0
M  V30 1097 N 110.857 0.726932 -1.39834 0
M  V30 1098 C 112.082 1.52121 -1.40976 0
M  V30 1099 C 112.507 1.88098 -0.00826029 0
M  V30 1100 O 111.865 1.52479 0.980807 0
M  V30 1101 C 111.913 2.78021 -2.29644 0
M  V30 1102 O 111.017 3.74272 -1.73188 0
M  V30 1103 H 110.358 0.45908 -0.479731 0
M  V30 1104 H 112.888 0.896207 -1.83927 0
M  V30 1105 H 112.898 3.26671 -2.44438 0
M  V30 1106 H 111.573 2.51169 -3.31492 0
M  V30 1107 H 110.15 3.33073 -1.6768 0
M  V30 1108 N 112.336 1.25143 0.95797 0
M  V30 1109 C 113.266 1.07711 2.07173 0
M  V30 1110 C 114.247 -0.0128462 1.70095 0
M  V30 1111 O 115.432 0.156061 1.93572 0
M  V30 1112 C 112.562 0.691503 3.40346 0
M  V30 1113 C 111.516 1.73132 3.9142 0
M  V30 1114 C 110.842 1.20049 5.21049 0
M  V30 1115 C 112.142 3.1294 4.1817 0
M  V30 1116 H 113.836 2.00873 2.22014 0
M  V30 1117 H 111.382 0.967191 1.06684 0
M  V30 1118 H 113.335 0.556505 4.17709 0
M  V30 1119 H 112.059 -0.275819 3.25433 0
M  V30 1120 H 110.718 1.8547 3.16222 0
M  V30 1121 H 110.366 0.223499 5.02503 0
M  V30 1122 H 110.066 1.89545 5.56189 0
M  V30 1123 H 111.59 1.07782 6.01012 0
M  V30 1124 H 113.004 3.03775 4.86203 0
M  V30 1125 H 111.401 3.79875 4.64559 0
M  V30 1126 H 112.471 3.6025 3.24573 0
M  V30 1127 N 113.814 -1.1601 1.06675 0
M  V30 1128 C 114.761 -2.20525 0.680967 0
M  V30 1129 C 115.731 -1.62904 -0.324283 0
M  V30 1130 O 116.916 -1.89615 -0.212294 0
M  V30 1131 C 114.056 -3.45013 0.0776551 0
M  V30 1132 C 113.169 -4.16863 1.13355 0
M  V30 1133 C 112.304 -5.2888 0.49597 0
M  V30 1134 C 111.343 -5.92537 1.53513 0
M  V30 1135 N 110.48 -6.96038 0.920631 0
M  V30 1136 H 115.32 -2.52876 1.57663 0
M  V30 1137 H 112.857 -1.24199 0.788223 0
M  V30 1138 H 114.815 -4.16193 -0.289704 0
M  V30 1139 H 113.445 -3.132 -0.781393 0
M  V30 1140 H 112.497 -3.44248 1.61857 0
M  V30 1141 H 113.809 -4.60294 1.92174 0
M  V30 1142 H 112.963 -6.06653 0.0758604 0
M  V30 1143 H 111.702 -4.86622 -0.324062 0
M  V30 1144 H 110.707 -5.13482 1.9651 0
M  V30 1145 H 111.932 -6.36873 2.35733 0
M  V30 1146 H 109.878 -6.55888 0.12138 0
M  V30 1147 H 109.795 -7.3786 1.64616 0
M  V30 1148 H 111.063 -7.77725 0.525795 0
M  V30 1149 N 115.292 -0.849877 -1.32721 0
M  V30 1150 C 116.222 -0.306308 -2.31482 0
M  V30 1151 C 117.203 0.591952 -1.59468 0
M  V30 1152 O 118.388 0.513199 -1.87296 0
M  V30 1153 C 115.518 0.510204 -3.43532 0
M  V30 1154 C 114.472 -0.293209 -4.26994 0
M  V30 1155 C 113.798 0.647743 -5.30762 0
M  V30 1156 C 115.098 -1.51634 -4.99804 0
M  V30 1157 H 116.792 -1.13153 -2.77195 0
M  V30 1158 H 114.338 -0.545553 -1.33266 0
M  V30 1159 H 116.291 0.900856 -4.11658 0
M  V30 1160 H 115.015 1.36874 -2.96535 0
M  V30 1161 H 113.674 -0.665555 -3.60508 0
M  V30 1162 H 113.322 1.50299 -4.8002 0
M  V30 1163 H 113.022 0.11422 -5.87489 0
M  V30 1164 H 114.546 1.03567 -6.01753 0
M  V30 1165 H 115.96 -1.19824 -5.60638 0
M  V30 1166 H 114.357 -1.98745 -5.66234 0
M  V30 1167 H 115.427 -2.28018 -4.27943 0
M  V30 1168 N 116.77 1.45427 -0.607355 0
M  V30 1169 C 118.186 1.57283 -0.270985 0
M  V30 1170 C 118.386 1.59875 1.22647 0
M  V30 1171 O 117.442 1.52893 2.00948 0
M  V30 1172 C 118.755 2.85566 -0.941952 0
M  V30 1173 C 120.303 2.9924 -0.917849 0
M  V30 1174 C 120.778 4.30293 -1.56882 0
M  V30 1175 N 122.269 4.37051 -1.5343 0
M  V30 1176 C 123.004 5.37123 -2.00715 0
M  V30 1177 N 122.5 6.43734 -2.56084 0
M  V30 1178 N 124.293 5.28479 -1.91484 0
M  V30 1179 H 116.444 1.41988 -1.57966 0
M  V30 1180 H 118.707 0.67885 -0.661715 0
M  V30 1181 H 118.413 2.8955 -1.99633 0
M  V30 1182 H 118.287 3.74322 -0.465096 0
M  V30 1183 H 120.674 2.94822 0.127984 0
M  V30 1184 H 120.755 2.11895 -1.43297 0
M  V30 1185 H 120.399 4.35469 -2.61398 0
M  V30 1186 H 120.329 5.16454 -1.02873 0
M  V30 1187 H 122.82 3.60615 -1.12982 0
M  V30 1188 H 123.133 7.16341 -2.89958 0
M  V30 1189 H 121.478 6.44485 -2.60122 0
M  V30 1190 H 124.669 4.44098 -1.47967 0
M  V30 1191 H 124.842 6.0632 -2.28648 0
M  V30 1192 N 118.248 0.346503 1.53744 0
M  V30 1193 C 119.525 -0.304532 1.93215 0
M  V30 1194 C 119.905 -1.67993 1.27834 0
M  V30 1195 O 119.253 -2.24411 0.430352 0
M  V30 1196 C 119.463 -0.373852 3.46992 0
M  V30 1197 C 120.811 -0.62329 4.2 0
M  V30 1198 O 121.835 -0.455847 3.53271 0
M  V30 1199 O 120.694 -0.947879 5.38217 0
M  V30 1200 H 117.788 -0.178318 0.807547 0
M  V30 1201 H 120.334 0.397895 1.64969 0
M  V30 1202 H 119.106 0.591224 3.86808 0
M  V30 1203 H 118.729 -1.12294 3.81413 0
M  V30 1204 N 119.726 -1.57421 0.075193 0
M  V30 1205 C 120.636 -2.1642 -0.905511 0
M  V30 1206 C 121.652 -1.12828 -1.32461 0
M  V30 1207 O 122.828 -1.45109 -1.39661 0
M  V30 1208 C 119.893 -2.71693 -2.15369 0
M  V30 1209 C 118.954 -3.90171 -1.79068 0
M  V30 1210 C 118.187 -4.42798 -2.97936 0
M  V30 1211 O 118.41 -3.94416 -4.12058 0
M  V30 1212 O 117.344 -5.34085 -2.77555 0
M  V30 1213 H 121.17 -3.00588 -0.433626 0
M  V30 1214 H 118.755 -1.48664 -0.148067 0
M  V30 1215 H 120.637 -3.07104 -2.88557 0
M  V30 1216 H 119.312 -1.90582 -2.61649 0
M  V30 1217 H 118.219 -3.59606 -1.03122 0
M  V30 1218 H 119.552 -4.72584 -1.37569 0
M  V30 1219 N 121.204 0.198386 -1.56346 0
M  V30 1220 C 122.167 1.22952 -1.93431 0
M  V30 1221 C 123.167 1.38611 -0.815092 0
M  V30 1222 O 124.357 1.36479 -1.08255 0
M  V30 1223 C 121.489 2.59946 -2.20546 0
M  V30 1224 H 122.682 0.912626 -2.85677 0
M  V30 1225 H 120.235 0.43977 -1.49986 0
M  V30 1226 H 120.97 2.96696 -1.30927 0
M  V30 1227 H 120.755 2.49953 -3.02102 0
M  V30 1228 H 122.245 3.3431 -2.50253 0
M  V30 1229 N 122.682 1.50554 0.465978 0
M  V30 1230 C 123.614 1.65949 1.58093 0
M  V30 1231 C 124.627 0.540827 1.53554 0
M  V30 1232 O 125.816 0.814187 1.5885 0
M  V30 1233 C 122.916 1.63261 2.96983 0
M  V30 1234 C 122.089 2.91245 3.26336 0
M  V30 1235 C 121.148 2.8113 4.44806 0
M  V30 1236 O 120.174 3.55086 4.44862 0
M  V30 1237 N 121.376 1.95032 5.46756 0
M  V30 1238 H 124.141 2.62122 1.45301 0
M  V30 1239 H 121.702 1.48082 0.65448 0
M  V30 1240 H 123.694 1.54101 3.74212 0
M  V30 1241 H 122.264 0.748032 3.03518 0
M  V30 1242 H 121.484 3.14493 2.37672 0
M  V30 1243 H 122.772 3.76022 3.42761 0
M  V30 1244 H 122.17 1.3427 5.49534 0
M  V30 1245 H 120.727 1.91772 6.2295 0
M  V30 1246 N 124.16 -0.719506 1.40217 0
M  V30 1247 C 125.09 -1.8465 1.42922 0
M  V30 1248 C 126.071 -1.67599 0.29062 0
M  V30 1249 O 127.256 -1.87688 0.498677 0
M  V30 1250 C 124.386 -3.22565 1.28722 0
M  V30 1251 C 123.34 -3.54281 2.40144 0
M  V30 1252 C 122.666 -4.91298 2.11023 0
M  V30 1253 C 123.966 -3.55676 3.82481 0
M  V30 1254 H 125.66 -1.82644 2.37237 0
M  V30 1255 H 123.206 -0.877305 1.1419 0
M  V30 1256 H 125.159 -4.01095 1.29232 0
M  V30 1257 H 123.883 -3.25137 0.308811 0
M  V30 1258 H 122.542 -2.78088 2.38877 0
M  V30 1259 H 122.19 -4.90468 1.11582 0
M  V30 1260 H 121.89 -5.13485 2.8567 0
M  V30 1261 H 123.414 -5.72166 2.13209 0
M  V30 1262 H 124.828 -4.24254 3.85592 0
M  V30 1263 H 123.225 -3.89388 4.56614 0
M  V30 1264 H 124.295 -2.55144 4.12346 0
M  V30 1265 N 125.638 -1.25649 -0.95132 0
M  V30 1266 C 126.585 -1.06323 -2.04851 0
M  V30 1267 C 127.555 0.0286491 -1.66075 0
M  V30 1268 O 128.74 -0.12917 -1.90362 0
M  V30 1269 C 125.88 -0.691529 -3.381 0
M  V30 1270 C 124.993 -1.85861 -3.89974 0
M  V30 1271 C 124.128 -1.43096 -5.11563 0
M  V30 1272 C 123.167 -2.56696 -5.55674 0
M  V30 1273 N 122.304 -2.14684 -6.68472 0
M  V30 1274 H 127.144 -2.00222 -2.20715 0
M  V30 1275 H 124.681 -0.997027 -1.08156 0
M  V30 1276 H 126.639 -0.456963 -4.1469 0
M  V30 1277 H 125.269 0.210474 -3.22113 0
M  V30 1278 H 124.321 -2.20639 -3.09875 0
M  V30 1279 H 125.633 -2.71161 -4.18657 0
M  V30 1280 H 124.787 -1.15624 -5.9558 0
M  V30 1281 H 123.526 -0.548722 -4.84603 0
M  V30 1282 H 122.531 -2.84909 -4.7022 0
M  V30 1283 H 123.756 -3.45503 -5.8464 0
M  V30 1284 H 121.702 -1.28881 -6.43215 0
M  V30 1285 H 121.619 -2.9353 -6.96689 0
M  V30 1286 H 122.887 -1.90397 -7.5589 0
M  V30 1287 N 127.117 1.15442 -1.07289 0
M  V30 1288 C 128.049 2.19773 -0.650585 0
M  V30 1289 C 129.062 1.60076 0.296572 0
M  V30 1290 O 130.251 1.78293 0.0859905 0
M  V30 1291 C 127.351 3.38838 0.0650398 0
M  V30 1292 C 126.524 4.2808 -0.898141 0
M  V30 1293 C 125.583 5.2574 -0.219926 0
M  V30 1294 O 124.609 5.62654 -0.860773 0
M  V30 1295 N 125.811 5.71205 1.03466 0
M  V30 1296 H 128.576 2.56622 -1.54808 0
M  V30 1297 H 126.137 1.30551 -0.957494 0
M  V30 1298 H 128.129 4.01222 0.529415 0
M  V30 1299 H 126.699 3.00409 0.864466 0
M  V30 1300 H 125.919 3.62804 -1.54165 0
M  V30 1301 H 127.207 4.84577 -1.5512 0
M  V30 1302 H 126.605 5.43325 1.57526 0
M  V30 1303 H 125.162 6.35633 1.44272 0
M  V30 1304 N 128.595 0.856903 1.32268 0
M  V30 1305 C 129.525 0.31858 2.31316 0
M  V30 1306 C 130.506 -0.583487 1.59779 0
M  V30 1307 O 131.691 -0.503259 1.87566 0
M  V30 1308 C 128.821 -0.491979 3.43798 0
M  V30 1309 C 127.775 0.315849 4.26833 0
M  V30 1310 C 127.101 -0.619586 5.31098 0
M  V30 1311 C 128.401 1.54282 4.98993 0
M  V30 1312 H 130.095 1.14621 2.76591 0
M  V30 1313 H 127.641 0.552613 1.32974 0
M  V30 1314 H 129.594 -0.879012 4.1213 0
M  V30 1315 H 128.318 -1.35299 2.97257 0
M  V30 1316 H 126.977 0.684664 3.6015 0
M  V30 1317 H 126.625 -1.47751 4.8081 0
M  V30 1318 H 126.325 -0.0830621 5.87541 0
M  V30 1319 H 127.849 -1.00375 6.02293 0
M  V30 1320 H 129.263 1.22796 5.59995 0
M  V30 1321 H 127.66 2.01745 5.65172 0
M  V30 1322 H 128.73 2.30285 4.26728 0
M  V30 1323 N 130.073 -1.45103 0.615059 0
M  V30 1324 C 131.036 -2.29025 -0.0895485 0
M  V30 1325 C 132.036 -1.40174 -0.787906 0
M  V30 1326 O 133.226 -1.62217 -0.634933 0
M  V30 1327 C 130.358 -3.21376 -1.13711 0
M  V30 1328 H 131.551 -2.92807 0.648382 0
M  V30 1329 H 129.104 -1.51749 0.374444 0
M  V30 1330 H 129.839 -2.6241 -1.90556 0
M  V30 1331 H 129.624 -3.86834 -0.640475 0
M  V30 1332 H 131.114 -3.84459 -1.63036 0
M  V30 1333 N 131.551 -0.354651 -1.53558 0
M  V30 1334 C 132.483 0.5315 -2.22952 0
M  V30 1335 C 133.496 1.05503 -1.23988 0
M  V30 1336 O 134.685 0.963279 -1.50277 0
M  V30 1337 C 131.785 1.74538 -2.90499 0
M  V30 1338 C 130.958 1.35524 -4.15875 0
M  V30 1339 C 130.017 2.42999 -4.66731 0
M  V30 1340 O 129.043 2.05844 -5.30676 0
M  V30 1341 N 130.245 3.74423 -4.43608 0
M  V30 1342 H 133.01 -0.0628615 -2.99634 0
M  V30 1343 H 130.571 -0.179302 -1.60904 0
M  V30 1344 H 132.563 2.45892 -3.21433 0
M  V30 1345 H 131.133 2.24686 -2.17336 0
M  V30 1346 H 130.353 0.471998 -3.91364 0
M  V30 1347 H 131.641 1.07071 -4.97406 0
M  V30 1348 H 131.039 4.07391 -3.92491 0
M  V30 1349 H 129.596 4.41913 -4.7912 0
M  V30 1350 N 133.029 1.57378 -0.0835403 0
M  V30 1351 C 133.992 2.12252 0.864959 0
M  V30 1352 C 134.992 1.04916 1.21858 0
M  V30 1353 O 136.182 1.30853 1.14991 0
M  V30 1354 C 133.314 2.63358 2.16461 0
M  V30 1355 H 134.507 2.97371 0.388676 0
M  V30 1356 H 132.06 1.55423 0.165317 0
M  V30 1357 H 132.795 1.81727 2.686 0
M  V30 1358 H 132.58 3.41826 1.92087 0
M  V30 1359 H 134.07 3.05847 2.84337 0
M  V30 1360 N 134.507 -0.190092 1.56449 0
M  V30 1361 C 135.753 -0.911052 1.81184 0
M  V30 1362 C 136.086 -1.82699 0.658396 0
M  V30 1363 O 135.361 -1.91491 -0.340775 0
M  V30 1364 C 135.644 -1.72297 3.16205 0
M  V30 1365 C 135.497 -0.831419 4.42049 0
M  V30 1366 C 136.816 -2.69454 3.47969 0
M  V30 1367 H 133.935 -0.32977 0.659106 0
M  V30 1368 H 136.577 -0.178169 1.89163 0
M  V30 1369 H 134.727 -2.34778 3.09534 0
M  V30 1370 H 136.399 -0.220929 4.60771 0
M  V30 1371 H 134.642 -0.138406 4.33579 0
M  V30 1372 H 135.313 -1.43461 5.33032 0
M  V30 1373 H 137.789 -2.17104 3.54972 0
M  V30 1374 H 136.665 -3.23342 4.43555 0
M  V30 1375 H 136.926 -3.48744 2.71717 0
M  V30 1376 N 135.985 -1.50799 -0.457987 0
M  V30 1377 C 136.933 -1.71162 -1.575 0
M  V30 1378 C 137.927 -0.577592 -1.59249 0
M  V30 1379 O 139.133 -0.758443 -1.63241 0
M  V30 1380 H 135.508 -0.540468 -0.522875 0
M  V30 1381 H 137.479 -2.64837 -1.37492 0
M  V30 1382 C 136.228 -1.83496 -2.95338 0
M  V30 1383 H 135.551 -2.70153 -2.94716 0
M  V30 1384 H 136.991 -2.01765 -3.72917 0
M  V30 1385 C 135.45 -0.589694 -3.31699 0
M  V30 1386 O 135.98 0.265163 -4.00824 0
M  V30 1387 N 134.186 -0.439845 -2.87252 0
M  V30 1388 H 133.733 -1.13655 -2.31172 0
M  V30 1389 H 133.691 0.392159 -3.11945 0
M  V30 1390 N 137.463 0.71206 -1.40597 0
M  V30 1391 C 138.395 1.83704 -1.37061 0
M  V30 1392 C 139.408 1.60453 -0.275426 0
M  V30 1393 O 140.597 1.70262 -0.53602 0
M  V30 1394 C 137.697 3.20172 -1.11099 0
M  V30 1395 C 136.87 3.7059 -2.3234 0
M  V30 1396 C 135.929 4.85681 -2.02485 0
M  V30 1397 O 134.955 4.9815 -2.75382 0
M  V30 1398 N 136.157 5.71735 -1.00497 0
M  V30 1399 H 138.922 1.87235 -2.34016 0
M  V30 1400 H 136.483 0.893739 -1.34996 0
M  V30 1401 H 138.475 3.94768 -0.891064 0
M  V30 1402 H 137.045 3.11767 -0.227989 0
M  V30 1403 H 136.265 2.87085 -2.7014 0
M  V30 1404 H 137.553 4.01011 -3.13157 0
M  V30 1405 H 136.951 5.64275 -0.401298 0
M  V30 1406 H 135.508 6.463 -0.844942 0
M  V30 1407 N 138.941 1.26152 0.944643 0
M  V30 1408 C 140.352 1.10454 1.50522 0
M  V30 1409 C 140.703 -0.31635 1.93633 0
M  V30 1410 O 139.828 -1.20746 1.79581 0
M  V30 1411 C 140.423 1.99891 2.73549 0
M  V30 1412 C 138.982 1.88348 3.25886 0
M  V30 1413 C 138.129 1.93447 1.9868 0
M  V30 1414 H 141.08 1.39292 0.760489 0
M  V30 1415 H 141.101 1.54477 3.47732 0
M  V30 1416 H 140.613 3.03297 2.42141 0
M  V30 1417 H 138.714 0.878636 3.62092 0
M  V30 1418 H 138.827 2.73696 3.93227 0
M  V30 1419 H 137.191 1.37456 2.14425 0
M  V30 1420 H 137.974 2.98476 1.69607 0
M  V30 1421 N 140.419 -1.14872 1.07899 0
M  V30 1422 C 141.667 -1.85422 0.803941 0
M  V30 1423 C 141.988 -1.83051 -0.67211 0
M  V30 1424 O 141.258 -1.27532 -1.48703 0
M  V30 1425 H 139.838 -0.686537 0.294408 0
M  V30 1426 H 142.5 -1.39226 1.3639 0
M  V30 1427 H 141.596 -2.90399 1.14346 0
M  V30 1428 N 141.898 -0.863906 -1.31812 0
M  V30 1429 C 142.846 -0.30422 -2.30602 0
M  V30 1430 C 143.84 0.577419 -1.59255 0
M  V30 1431 O 145.046 0.464194 -1.73912 0
M  V30 1432 H 141.421 -0.0796877 -0.747766 0
M  V30 1433 H 143.392 -1.15148 -2.75288 0
M  V30 1434 C 142.141 0.484617 -3.44306 0
M  V30 1435 H 141.464 -0.18451 -3.99374 0
M  V30 1436 H 142.904 0.841664 -4.15562 0
M  V30 1437 C 141.363 1.6735 -2.92396 0
M  V30 1438 O 141.893 2.77273 -2.90659 0
M  V30 1439 N 140.099 1.50362 -2.48676 0
M  V30 1440 H 139.646 0.609402 -2.50288 0
M  V30 1441 H 139.604 2.30051 -2.14299 0
M  V30 1442 N 143.376 1.44774 -0.622745 0
M  V30 1443 C 144.339 2.29069 0.0774015 0
M  V30 1444 C 145.339 1.4059 0.780461 0
M  V30 1445 O 146.529 1.62551 0.626322 0
M  V30 1446 C 143.661 3.21974 1.12006 0
M  V30 1447 H 144.854 2.92459 -0.663901 0
M  V30 1448 H 142.407 1.51548 -0.382486 0
M  V30 1449 H 143.142 2.63417 1.89162 0
M  V30 1450 H 142.927 3.87168 0.619951 0
M  V30 1451 H 144.417 3.85318 1.60995 0
M  V30 1452 N 144.854 0.36279 1.53368 0
M  V30 1453 C 145.786 -0.519668 2.23231 0
M  V30 1454 C 146.799 -1.04844 1.24546 0
M  V30 1455 O 147.988 -0.955296 1.50786 0
M  V30 1456 C 145.088 -1.72995 2.9142 0
M  V30 1457 C 144.261 -1.33316 4.16588 0
M  V30 1458 C 143.32 -2.40521 4.68013 0
M  V30 1459 O 142.346 -2.03027 5.3176 0
M  V30 1460 N 143.548 -3.72065 4.45587 0
M  V30 1461 H 146.313 0.078751 2.99597 0
M  V30 1462 H 143.874 0.187833 1.60807 0
M  V30 1463 H 145.866 -2.44184 3.22733 0
M  V30 1464 H 144.436 -2.2353 2.18525 0
M  V30 1465 H 143.656 -0.451236 3.91609 0
M  V30 1466 H 144.944 -1.04432 4.97967 0
M  V30 1467 H 144.342 -4.05304 3.94646 0
M  V30 1468 H 142.899 -4.39366 4.81457 0
M  V30 1469 N 146.332 -1.57332 0.0918853 0
M  V30 1470 C 147.579 -1.94236 -0.572577 0
M  V30 1471 C 147.907 -0.973398 -1.6839 0
M  V30 1472 O 147.162 0.00756912 -1.95699 0
M  V30 1473 C 147.461 -3.37689 -1.17051 0
M  V30 1474 C 147.127 -4.50527 -0.183304 0
M  V30 1475 C 145.789 -4.81119 0.0882276 0
M  V30 1476 C 148.141 -5.18883 0.49095 0
M  V30 1477 C 145.469 -5.77395 1.04076 0
M  V30 1478 C 147.821 -6.1618 1.43193 0
M  V30 1479 C 146.485 -6.45179 1.71173 0
M  V30 1480 H 145.755 -0.710762 -0.209521 0
M  V30 1481 H 148.402 -1.9077 0.167036 0
M  V30 1482 H 146.707 -3.37718 -1.9863 0
M  V30 1483 H 148.404 -3.63543 -1.69227 0
M  V30 1484 H 144.994 -4.26681 -0.405124 0
M  V30 1485 H 149.178 -4.95427 0.294312 0
M  V30 1486 H 144.434 -5.98179 1.26457 0
M  V30 1487 H 148.608 -6.68243 1.96023 0
M  V30 1488 H 146.235 -7.1959 2.4514 0
M  V30 1489 N 147.81 0.181792 -1.56548 0
M  V30 1490 C 149.058 0.89832 -1.81038 0
M  V30 1491 C 149.379 1.83232 -0.667164 0
M  V30 1492 O 148.649 1.93372 0.313673 0
M  V30 1493 H 147.229 0.33471 -0.667816 0
M  V30 1494 H 149.891 0.184116 -1.94028 0
M  V30 1495 H 148.987 1.4815 -2.74696 0
M  V30 1496 N 149.288 1.51039 0.449983 0
M  V30 1497 C 150.235 1.71439 1.54523 0
M  V30 1498 C 151.205 0.555871 1.56522 0
M  V30 1499 O 152.39 0.788871 1.73728 0
M  V30 1500 C 149.53 1.83384 2.92343 0
M  V30 1501 C 148.643 3.10873 2.9997 0
M  V30 1502 C 147.778 3.13488 4.28834 0
M  V30 1503 C 146.817 4.35343 4.30282 0
M  V30 1504 N 145.954 4.35579 5.5065 0
M  V30 1505 H 150.794 2.64934 1.36433 0
M  V30 1506 H 148.331 1.31312 0.662982 0
M  V30 1507 H 150.289 1.88291 3.72293 0
M  V30 1508 H 148.919 0.933086 3.0902 0
M  V30 1509 H 147.971 3.15336 2.12761 0
M  V30 1510 H 149.283 4.00814 2.96901 0
M  V30 1511 H 148.437 3.17241 5.17149 0
M  V30 1512 H 147.176 2.21414 4.34543 0
M  V30 1513 H 146.181 4.3178 3.40362 0
M  V30 1514 H 147.406 5.28668 4.26248 0
M  V30 1515 H 145.352 3.46369 5.57104 0
M  V30 1516 H 145.269 5.19313 5.49409 0
M  V30 1517 H 146.537 4.43507 6.41032 0
M  V30 1518 N 150.766 -0.704594 1.40972 0
M  V30 1519 C 152.013 -1.46458 1.39844 0
M  V30 1520 C 152.341 -1.94499 0.00447594 0
M  V30 1521 O 151.596 -1.69275 -0.982057 0
M  V30 1522 C 151.895 -2.698 2.34399 0
M  V30 1523 C 151.561 -2.40464 3.81429 0
M  V30 1524 C 150.223 -2.32174 4.21484 0
M  V30 1525 C 152.575 -2.16086 4.74296 0
M  V30 1526 C 149.903 -1.97589 5.52427 0
M  V30 1527 C 152.255 -1.83011 6.05549 0
M  V30 1528 C 150.919 -1.7321 6.44635 0
M  V30 1529 H 150.189 -0.535927 0.511725 0
M  V30 1530 H 152.836 -0.806124 1.73706 0
M  V30 1531 H 151.141 -3.40536 1.93759 0
M  V30 1532 H 152.838 -3.27919 2.30804 0
M  V30 1533 H 149.428 -2.47808 3.49699 0
M  V30 1534 H 153.612 -2.2144 4.4416 0
M  V30 1535 H 148.868 -1.88547 5.81601 0
M  V30 1536 H 153.042 -1.63164 6.77016 0
M  V30 1537 H 150.669 -1.46179 7.46013 0
M  V30 1538 N 152.244 -1.26651 -0.937939 0
M  V30 1539 C 153.174 -1.10993 -2.05433 0
M  V30 1540 C 154.155 -0.0142161 -1.70094 0
M  V30 1541 O 155.34 -0.186837 -1.93299 0
M  V30 1542 C 152.47 -0.745561 -3.39203 0
M  V30 1543 C 151.424 -1.79337 -3.88616 0
M  V30 1544 C 150.75 -1.28324 -5.19073 0
M  V30 1545 C 152.05 -3.19553 -4.13138 0
M  V30 1546 H 153.744 -2.0438 -2.1879 0
M  V30 1547 H 151.29 -0.984041 -1.05131 0
M  V30 1548 H 153.243 -0.622888 -4.16771 0
M  V30 1549 H 151.967 0.22401 -3.25831 0
M  V30 1550 H 150.626 -1.90477 -3.13231 0
M  V30 1551 H 150.274 -0.303414 -5.02084 0
M  V30 1552 H 149.974 -1.98369 -5.53103 0
M  V30 1553 H 151.498 -1.1733 -5.99221 0
M  V30 1554 H 152.912 -3.11471 -4.81309 0
M  V30 1555 H 151.309 -3.87218 -4.58457 0
M  V30 1556 H 152.379 -3.65368 -3.18801 0
M  V30 1557 N 153.722 1.14298 -1.08507 0
M  V30 1558 C 154.669 2.19414 -0.715965 0
M  V30 1559 C 155.639 1.63399 0.298326 0
M  V30 1560 O 156.824 1.89929 0.182101 0
M  V30 1561 C 153.964 3.44845 -0.132534 0
M  V30 1562 C 153.077 4.15007 -1.19973 0
M  V30 1563 C 152.212 5.28024 -0.580048 0
M  V30 1564 C 151.251 5.9002 -1.62921 0
M  V30 1565 N 150.388 6.94485 -1.03125 0
M  V30 1566 H 155.228 2.50336 -1.61666 0
M  V30 1567 H 152.765 1.2293 -0.807882 0
M  V30 1568 H 154.723 4.16601 0.223454 0
M  V30 1569 H 153.353 3.14403 0.731467 0
M  V30 1570 H 152.405 3.41629 -1.67313 0
M  V30 1571 H 153.717 4.57178 -1.99473 0
M  V30 1572 H 152.871 6.06455 -0.172364 0
M  V30 1573 H 151.61 4.87076 0.246603 0
M  V30 1574 H 150.615 5.10291 -2.04654 0
M  V30 1575 H 151.84 6.33042 -2.45835 0
M  V30 1576 H 149.786 6.55612 -0.225711 0
M  V30 1577 H 149.703 7.35148 -1.76334 0
M  V30 1578 H 150.971 7.7679 -0.649458 0
M  V30 1579 N 155.201 0.870884 1.31352 0
M  V30 1580 C 156.617 0.562932 1.49343 0
M  V30 1581 C 156.817 -0.902725 1.80148 0
M  V30 1582 O 155.873 -1.68484 1.88067 0
M  V30 1583 C 157.186 1.46393 2.62659 0
M  V30 1584 C 158.734 1.46607 2.76542 0
M  V30 1585 C 159.209 2.35266 3.92955 0
M  V30 1586 N 160.7 2.33151 4.00243 0
M  V30 1587 C 161.435 2.98471 4.89594 0
M  V30 1588 N 160.931 3.72964 5.8384 0
M  V30 1589 N 162.724 2.87775 4.82848 0
M  V30 1590 H 154.875 1.81923 1.09626 0
M  V30 1591 H 157.138 0.777934 0.541777 0
M  V30 1592 H 156.844 2.50689 2.46674 0
M  V30 1593 H 156.718 1.16314 3.58819 0
M  V30 1594 H 159.105 0.43069 2.9194 0
M  V30 1595 H 159.186 1.8071 1.81046 0
M  V30 1596 H 158.83 3.38881 3.78315 0
M  V30 1597 H 158.76 1.98487 4.87761 0
M  V30 1598 H 161.251 1.79006 3.32814 0
M  V30 1599 H 161.564 4.19932 6.4875 0
M  V30 1600 H 159.909 3.77073 5.83816 0
M  V30 1601 H 163.1 2.29116 4.08195 0
M  V30 1602 H 163.273 3.38961 5.52277 0
M  V30 1603 N 156.679 -1.44442 0.630414 0
M  V30 1604 C 158.095 -1.56832 0.295973 0
M  V30 1605 C 158.295 -1.61806 -1.20088 0
M  V30 1606 O 157.351 -1.5607 -1.9849 0
M  V30 1607 C 158.664 -2.84031 0.987264 0
M  V30 1608 C 160.212 -2.97742 0.96534 0
M  V30 1609 C 160.687 -4.27743 1.63708 0
M  V30 1610 N 162.178 -4.34555 1.60364 0
M  V30 1611 C 162.913 -5.33862 2.09234 0
M  V30 1612 N 162.409 -6.39578 2.66292 0
M  V30 1613 N 164.202 -5.25366 1.99867 0
M  V30 1614 H 156.353 -1.39457 1.60205 0
M  V30 1615 H 158.616 -0.668237 0.672431 0
M  V30 1616 H 158.322 -2.86338 2.04215 0
M  V30 1617 H 158.196 -3.73534 0.524588 0
M  V30 1618 H 160.583 -2.94989 -0.0810639 0
M  V30 1619 H 160.664 -2.09589 1.4665 0
M  V30 1620 H 160.308 -4.31255 2.68293 0
M  V30 1621 H 160.238 -5.14752 1.11076 0
M  V30 1622 H 162.729 -3.58772 1.18705 0
M  V30 1623 H 163.042 -7.11637 3.01317 0
M  V30 1624 H 161.387 -6.40265 2.70343 0
M  V30 1625 H 164.578 -4.41688 1.55013 0
M  V30 1626 H 164.751 -6.02606 2.38265 0
M  V30 1627 N 158.157 -0.370918 -1.53173 0
M  V30 1628 C 159.089 0.507823 -2.23503 0
M  V30 1629 C 160.102 1.04182 -1.251 0
M  V30 1630 O 161.291 0.947286 -1.5129 0
M  V30 1631 C 158.391 1.71447 -2.92334 0
M  V30 1632 C 157.564 1.31105 -4.17289 0
M  V30 1633 C 156.623 2.38035 -4.69282 0
M  V30 1634 O 155.649 2.00204 -5.32829 0
M  V30 1635 N 156.851 3.69697 -4.47554 0
M  V30 1636 H 159.616 -0.0946382 -2.99551 0
M  V30 1637 H 157.177 -0.196358 -1.60705 0
M  V30 1638 H 159.169 2.42469 -3.24023 0
M  V30 1639 H 157.739 2.22368 -2.19707 0
M  V30 1640 H 156.959 0.430462 -3.91843 0
M  V30 1641 H 158.247 1.0179 -4.98514 0
M  V30 1642 H 157.645 4.03205 -3.9679 0
M  V30 1643 H 156.202 4.36807 -4.8378 0
M  V30 1644 N 159.635 1.57281 -0.100228 0
M  V30 1645 C 160.882 1.94537 0.562268 0
M  V30 1646 C 161.21 0.982315 1.67871 0
M  V30 1647 O 160.465 0.00280936 1.957 0
M  V30 1648 C 160.764 3.38305 1.15259 0
M  V30 1649 C 160.43 4.50618 0.159409 0
M  V30 1650 C 159.092 4.81066 -0.113741 0
M  V30 1651 C 161.444 5.18615 -0.518461 0
M  V30 1652 C 158.772 5.76835 -1.07137 0
M  V30 1653 C 161.124 6.15412 -1.46459 0
M  V30 1654 C 159.788 6.44262 -1.74592 0
M  V30 1655 H 159.058 0.711863 0.205748 0
M  V30 1656 H 161.705 1.90679 -0.17715 0
M  V30 1657 H 160.01 3.38766 1.96836 0
M  V30 1658 H 161.707 3.64435 1.67297 0
M  V30 1659 H 158.297 4.2689 0.382491 0
M  V30 1660 H 162.481 4.95264 -0.320581 0
M  V30 1661 H 157.737 5.975 -1.29628 0
M  V30 1662 H 161.911 6.67194 -1.99564 0
M  V30 1663 H 159.538 7.1828 -2.48953 0
M  V30 1664 N 161.113 -0.173488 1.56642 0
M  V30 1665 C 162.043 -1.2171 1.99271 0
M  V30 1666 C 163.024 -1.46289 0.867959 0
M  V30 1667 O 164.209 -1.5766 1.13388 0
M  V30 1668 C 161.339 -2.55651 2.35074 0
M  V30 1669 C 160.293 -2.45645 3.50489 0
M  V30 1670 C 159.619 -3.84056 3.72028 0
M  V30 1671 C 160.919 -1.96302 4.84007 0
M  V30 1672 H 162.613 -0.86275 2.867 0
M  V30 1673 H 160.159 -0.413571 1.37933 0
M  V30 1674 H 162.112 -3.2886 2.63494 0
M  V30 1675 H 160.836 -2.92869 1.44552 0
M  V30 1676 H 159.495 -1.7489 3.22194 0
M  V30 1677 H 159.143 -4.18664 2.788 0
M  V30 1678 H 158.843 -3.7823 4.49684 0
M  V30 1679 H 160.367 -4.58854 4.02846 0
M  V30 1680 H 161.781 -2.59284 5.11317 0
M  V30 1681 H 160.178 -2.01429 5.65284 0
M  V30 1682 H 161.248 -0.917226 4.76146 0
M  V30 1683 N 162.591 -1.51276 -0.441967 0
M  V30 1684 C 163.816 -1.67799 -1.21895 0
M  V30 1685 C 164.241 -0.372864 -1.84367 0
M  V30 1686 O 163.599 0.666501 -1.68604 0
M  V30 1687 C 163.647 -2.79199 -2.28211 0
M  V30 1688 O 162.751 -2.42479 -3.33583 0
M  V30 1689 H 162.092 -0.559649 -0.357336 0
M  V30 1690 H 164.622 -1.97815 -0.522522 0
M  V30 1691 H 164.632 -3.03146 -2.73069 0
M  V30 1692 H 163.307 -3.73906 -1.82118 0
M  V30 1693 H 161.884 -2.29087 -2.94234 0
M  V30 1694 N 164.069 0.697108 -1.41344 0
M  V30 1695 C 165.001 1.8224 -1.39001 0
M  V30 1696 C 166.014 1.60152 -0.292428 0
M  V30 1697 O 167.203 1.69684 -0.554048 0
M  V30 1698 C 164.303 3.18976 -1.14489 0
M  V30 1699 C 163.476 3.68105 -2.36258 0
M  V30 1700 C 162.535 4.83506 -2.07625 0
M  V30 1701 O 161.561 4.95201 -2.8065 0
M  V30 1702 N 162.763 5.70637 -1.06555 0
M  V30 1703 H 165.528 1.84742 -2.35988 0
M  V30 1704 H 163.089 0.87937 -1.35936 0
M  V30 1705 H 165.081 3.93801 -0.932885 0
M  V30 1706 H 163.651 3.11508 -0.261043 0
M  V30 1707 H 162.871 2.84204 -2.7317 0
M  V30 1708 H 164.159 3.97667 -3.17393 0
M  V30 1709 H 163.557 5.63817 -0.461125 0
M  V30 1710 H 162.114 6.45368 -0.913444 0
M  V30 1711 N 165.547 1.27147 0.931209 0
M  V30 1712 C 166.794 1.13278 1.67852 0
M  V30 1713 C 167.122 -0.32204 1.91815 0
M  V30 1714 O 166.377 -1.25224 1.50391 0
M  V30 1715 C 166.676 1.8579 3.05314 0
M  V30 1716 C 166.342 3.35657 3.01073 0
M  V30 1717 C 165.004 3.76536 2.99623 0
M  V30 1718 C 167.356 4.31299 2.92627 0
M  V30 1719 C 164.684 5.11426 2.87506 0
M  V30 1720 C 167.036 5.66242 2.82051 0
M  V30 1721 C 165.7 6.06418 2.7895 0
M  V30 1722 H 164.97 0.414515 0.614214 0
M  V30 1723 H 167.617 1.57712 1.08624 0
M  V30 1724 H 165.922 1.33854 3.68226 0
M  V30 1725 H 167.619 1.72491 3.62005 0
M  V30 1726 H 164.209 3.03146 3.02986 0
M  V30 1727 H 168.393 4.00692 2.92848 0
M  V30 1728 H 163.649 5.41705 2.83489 0
M  V30 1729 H 167.823 6.40026 2.74481 0
M  V30 1730 H 165.45 7.10895 2.69318 0
M  V30 1731 N 167.025 -1.13721 1.09112 0
M  V30 1732 C 167.988 -2.17222 0.731241 0
M  V30 1733 C 168.988 -1.59035 -0.237566 0
M  V30 1734 O 170.178 -1.74192 -0.0161704 0
M  V30 1735 C 167.31 -3.40804 0.0808443 0
M  V30 1736 H 168.503 -2.50573 1.64783 0
M  V30 1737 H 166.056 -1.28493 0.889897 0
M  V30 1738 H 166.791 -3.1304 -0.847127 0
M  V30 1739 H 166.576 -3.84306 0.777896 0
M  V30 1740 H 168.066 -4.1731 -0.155657 0
M  V30 1741 N 168.503 -0.877838 -1.30888 0
M  V30 1742 C 169.914 -0.544193 -1.78593 0
M  V30 1743 C 170.265 0.939301 -1.72254 0
M  V30 1744 O 169.39 1.7337 -1.29505 0
M  V30 1745 C 169.985 -0.98105 -3.24285 0
M  V30 1746 C 168.544 -0.698935 -3.69854 0
M  V30 1747 C 167.691 -1.168 -2.51502 0
M  V30 1748 H 170.642 -1.06278 -1.17859 0
M  V30 1749 H 170.663 -0.307009 -3.79259 0
M  V30 1750 H 170.175 -2.06079 -3.28866 0
M  V30 1751 H 168.276 0.369112 -3.70767 0
M  V30 1752 H 168.389 -1.28148 -4.61644 0
M  V30 1753 H 166.753 -0.587535 -2.47831 0
M  V30 1754 H 167.536 -2.25533 -2.58824 0
M  V30 1755 N 169.982 1.44106 -0.638065 0
M  V30 1756 C 171.21 2.06336 -0.152615 0
M  V30 1757 C 171.625 1.47731 1.17563 0
M  V30 1758 O 170.982 0.602806 1.72257 0
M  V30 1759 C 171.033 3.61479 -0.0391491 0
M  V30 1760 O 170.754 4.17903 -1.31487 0
M  V30 1761 C 172.255 4.40757 0.474176 0
M  V30 1762 H 169.475 0.665862 -0.0828776 0
M  V30 1763 H 172.019 1.84862 -0.87443 0
M  V30 1764 H 170.174 3.82191 0.633142 0
M  V30 1765 H 170.588 5.11416 -1.16421 0
M  V30 1766 H 172.062 5.49707 0.502562 0
M  V30 1767 H 172.539 4.12697 1.50258 0
M  V30 1768 H 173.145 4.24979 -0.165102 0
M  V30 1769 N 171.46 0.379036 1.52974 0
M  V30 1770 C 172.37 -0.468639 2.29872 0
M  V30 1771 C 173.386 -1.08067 1.36373 0
M  V30 1772 O 174.562 -1.08871 1.69438 0
M  V30 1773 C 171.627 -1.58594 3.083 0
M  V30 1774 C 170.688 -1.00007 4.17489 0
M  V30 1775 C 169.921 -2.06413 4.92168 0
M  V30 1776 O 170.144 -3.27751 4.66835 0
M  V30 1777 O 169.078 -1.68717 5.7777 0
M  V30 1778 H 172.904 0.157508 3.03291 0
M  V30 1779 H 170.489 0.143035 1.48714 0
M  V30 1780 H 172.371 -2.23525 3.57232 0
M  V30 1781 H 171.046 -2.19724 2.37703 0
M  V30 1782 H 169.953 -0.314299 3.72777 0
M  V30 1783 H 171.286 -0.433135 4.90291 0
M  V30 1784 N 172.938 -1.57226 0.108567 0
M  V30 1785 C 173.901 -2.13602 -0.831082 0
M  V30 1786 C 174.901 -1.06841 -1.20173 0
M  V30 1787 O 176.091 -1.32666 -1.12895 0
M  V30 1788 C 173.223 -2.66769 -2.12243 0
M  V30 1789 H 174.416 -2.97951 -0.341317 0
M  V30 1790 H 171.969 -1.55667 -0.14057 0
M  V30 1791 H 172.704 -1.85977 -2.65675 0
M  V30 1792 H 172.489 -3.44839 -1.86625 0
M  V30 1793 H 173.979 -3.10332 -2.79435 0
M  V30 1794 N 174.416 0.165178 -1.56732 0
M  V30 1795 C 175.348 1.22911 -1.93457 0
M  V30 1796 C 176.361 1.40152 -0.828333 0
M  V30 1797 O 177.55 1.40046 -1.10677 0
M  V30 1798 C 174.65 2.59686 -2.17753 0
M  V30 1799 C 173.823 2.63663 -3.48999 0
M  V30 1800 C 172.882 3.81845 -3.62051 0
M  V30 1801 O 171.908 3.67559 -4.34613 0
M  V30 1802 N 173.11 4.98557 -2.97357 0
M  V30 1803 H 175.875 0.917118 -2.85323 0
M  V30 1804 H 173.436 0.354895 -1.57962 0
M  V30 1805 H 175.428 3.37225 -2.23743 0
M  V30 1806 H 173.998 2.83251 -1.32242 0
M  V30 1807 H 173.218 1.72173 -3.54612 0
M  V30 1808 H 174.506 2.63336 -4.35352 0
M  V30 1809 H 173.904 5.13065 -2.38287 0
M  V30 1810 H 172.461 5.73936 -3.08934 0
M  V30 1811 N 175.894 1.51508 0.433938 0
M  V30 1812 C 177.14 1.64588 1.18484 0
M  V30 1813 C 177.473 0.362666 1.90784 0
M  V30 1814 O 176.748 -0.637892 1.83742 0
M  V30 1815 C 177.031 2.85149 2.19913 0
M  V30 1816 C 176.884 4.23456 1.51674 0
M  V30 1817 C 178.203 3.01227 3.20858 0
M  V30 1818 H 175.322 0.598994 0.429389 0
M  V30 1819 H 177.964 1.84002 0.473647 0
M  V30 1820 H 176.114 2.68729 2.80566 0
M  V30 1821 H 177.786 4.51552 0.943322 0
M  V30 1822 H 176.029 4.25998 0.819035 0
M  V30 1823 H 176.7 5.03812 2.2556 0
M  V30 1824 H 179.176 3.16382 2.70263 0
M  V30 1825 H 178.052 3.87141 3.89118 0
M  V30 1826 H 178.313 2.13447 3.8716 0
M  V30 1827 N 177.372 -0.689602 1.41712 0
M  V30 1828 C 178.304 -1.815 1.39966 0
M  V30 1829 C 179.317 -1.59995 0.300917 0
M  V30 1830 O 180.506 -1.69387 0.563039 0
M  V30 1831 C 177.606 -3.18364 1.16179 0
M  V30 1832 C 176.779 -3.66847 2.38206 0
M  V30 1833 C 175.838 -4.82398 2.10186 0
M  V30 1834 O 174.864 -4.93706 2.83272 0
M  V30 1835 N 176.066 -5.70064 1.0958 0
M  V30 1836 H 178.831 -1.83488 2.36965 0
M  V30 1837 H 176.392 -0.872149 1.36401 0
M  V30 1838 H 178.384 -3.93301 0.953756 0
M  V30 1839 H 176.954 -3.11365 0.27756 0
M  V30 1840 H 176.174 -2.82751 2.74673 0
M  V30 1841 H 177.462 -3.95978 3.19498 0
M  V30 1842 H 176.86 -5.63565 0.491019 0
M  V30 1843 H 175.417 -6.44874 0.947656 0
M  V30 1844 N 178.85 -1.27639 -0.924453 0
M  V30 1845 C 179.813 -1.10681 -2.00705 0
M  V30 1846 C 180.813 -0.0497823 -1.60723 0
M  V30 1847 O 182.003 -0.294654 -1.7169 0
M  V30 1848 C 179.135 -0.687164 -3.33902 0
M  V30 1849 H 180.328 -2.06817 -2.17179 0
M  V30 1850 H 177.881 -1.10473 -1.10569 0
M  V30 1851 H 178.616 0.275439 -3.23128 0
M  V30 1852 H 178.401 -1.45061 -3.6428 0
M  V30 1853 H 179.891 -0.590853 -4.13399 0
M  V30 1854 N 180.328 1.1314 -1.09713 0
M  V30 1855 C 181.574 1.84757 -0.836224 0
M  V30 1856 C 181.907 1.8347 0.636598 0
M  V30 1857 O 181.182 1.27491 1.46889 0
M  V30 1858 C 181.465 3.32782 -1.37578 0
M  V30 1859 C 181.318 3.42567 -2.91493 0
M  V30 1860 C 182.637 4.28307 -1.01198 0
M  V30 1861 H 179.756 0.67082 -0.305236 0
M  V30 1862 H 182.398 1.3278 -1.35903 0
M  V30 1863 H 180.548 3.77177 -0.931097 0
M  V30 1864 H 182.22 3.06862 -3.44432 0
M  V30 1865 H 180.463 2.83349 -3.28475 0
M  V30 1866 H 181.134 4.46674 -3.24324 0
M  V30 1867 H 183.61 3.91999 -1.39556 0
M  V30 1868 H 182.486 5.30307 -1.41653 0
M  V30 1869 H 182.747 4.42029 0.0794833 0
M  V30 1870 N 181.806 0.884767 1.30421 0
M  V30 1871 C 183.052 0.503851 1.96441 0
M  V30 1872 C 183.385 -0.944518 1.69684 0
M  V30 1873 O 182.66 -1.66737 1.00145 0
M  V30 1874 C 182.943 0.779085 3.51571 0
M  V30 1875 C 182.796 2.27807 3.87846 0
M  V30 1876 C 184.115 0.255452 4.39358 0
M  V30 1877 H 181.234 0.184533 0.713524 0
M  V30 1878 H 183.876 1.10872 1.54297 0
M  V30 1879 H 182.026 0.264274 3.876 0
M  V30 1880 H 183.698 2.86127 3.61841 0
M  V30 1881 H 181.941 2.74479 3.35922 0
M  V30 1882 H 182.612 2.42125 4.96064 0
M  V30 1883 H 185.088 0.696079 4.10236 0
M  V30 1884 H 183.964 0.477361 5.4682 0
M  V30 1885 H 184.225 -0.843293 4.33983 0
M  V30 1886 N 183.284 -1.43765 0.645699 0
M  V30 1887 C 184.247 -2.29163 -0.0409488 0
M  V30 1888 C 185.247 -1.41813 -0.757996 0
M  V30 1889 O 186.437 -1.63527 -0.600382 0
M  V30 1890 C 183.569 -3.23716 -1.06869 0
M  V30 1891 H 184.762 -2.91366 0.710345 0
M  V30 1892 H 182.315 -1.5092 0.406547 0
M  V30 1893 H 183.05 -2.66393 -1.84947 0
M  V30 1894 H 182.835 -3.88105 -0.558277 0
M  V30 1895 H 184.325 -3.87831 -1.54845 0
M  V30 1896 N 184.763 -0.387143 -1.52771 0
M  V30 1897 C 185.713 0.465942 -2.23188 0
M  V30 1898 C 186.697 1.03138 -1.23496 0
M  V30 1899 O 187.889 0.957845 -1.48843 0
M  V30 1900 C 185.018 1.59384 -3.04059 0
M  V30 1901 C 184.104 1.04024 -4.11144 0
M  V30 1902 N 184.495 0.211416 -5.05358 0
M  V30 1903 C 182.793 1.31295 -4.26237 0
M  V30 1904 C 183.494 -0.0941698 -5.81624 0
M  V30 1905 N 182.47 0.509207 -5.4121 0
M  V30 1906 H 186.272 -0.173856 -2.93385 0
M  V30 1907 H 183.786 -0.19633 -1.61209 0
M  V30 1908 H 185.783 2.21738 -3.53041 0
M  V30 1909 H 184.443 2.23648 -2.35397 0
M  V30 1910 H 185.454 -0.151151 -5.17679 0
M  V30 1911 H 182.131 1.95679 -3.68803 0
M  V30 1912 H 183.521 -0.765572 -6.67524 0
M  V30 1913 N 186.241 1.57166 -0.116904 0
M  V30 1914 C 187.171 2.18222 0.830759 0
M  V30 1915 C 188.152 1.12167 1.27877 0
M  V30 1916 O 189.337 1.40394 1.34176 0
M  V30 1917 C 186.467 2.77996 2.08172 0
M  V30 1918 C 185.421 3.89614 1.77157 0
M  V30 1919 C 184.747 4.36187 3.09265 0
M  V30 1920 C 186.047 5.1181 1.04151 0
M  V30 1921 H 187.741 2.97664 0.321992 0
M  V30 1922 H 185.287 1.4318 0.153434 0
M  V30 1923 H 187.24 3.19366 2.74924 0
M  V30 1924 H 185.964 1.9584 2.6137 0
M  V30 1925 H 184.623 3.48816 1.12796 0
M  V30 1926 H 184.271 3.50893 3.60393 0
M  V30 1927 H 183.971 5.11455 2.89288 0
M  V30 1928 H 185.495 4.80207 3.77139 0
M  V30 1929 H 186.909 5.50214 1.61052 0
M  V30 1930 H 185.306 5.92648 0.942762 0
M  V30 1931 H 186.376 4.84892 0.0279022 0
M  V30 1932 N 187.719 -0.156864 1.56817 0
M  V30 1933 C 189.135 -0.50916 1.5126 0
M  V30 1934 C 189.335 -1.83897 0.823658 0
M  V30 1935 O 188.391 -2.49469 0.390055 0
M  V30 1936 C 189.704 -0.52857 2.96018 0
M  V30 1937 C 191.252 -0.614771 3.06903 0
M  V30 1938 C 191.727 -0.664938 4.53147 0
M  V30 1939 N 193.218 -0.727433 4.57452 0
M  V30 1940 C 193.953 -0.787067 5.67973 0
M  V30 1941 N 193.449 -0.806649 6.88088 0
M  V30 1942 N 195.242 -0.827195 5.5598 0
M  V30 1943 H 187.393 0.714935 2.00006 0
M  V30 1944 H 189.656 0.259526 0.911784 0
M  V30 1945 H 189.362 0.380154 3.49639 0
M  V30 1946 H 189.236 -1.36998 3.51442 0
M  V30 1947 H 191.623 -1.51392 2.53307 0
M  V30 1948 H 191.704 0.253597 2.5454 0
M  V30 1949 H 191.348 0.230011 5.07379 0
M  V30 1950 H 191.278 -1.54966 5.03282 0
M  V30 1951 H 193.769 -0.719998 3.70978 0
M  V30 1952 H 194.082 -0.853727 7.6807 0
M  V30 1953 H 192.427 -0.774687 6.90669 0
M  V30 1954 H 195.618 -0.808998 4.61056 0
M  V30 1955 H 195.791 -0.870206 6.4213 0
M  V30 1956 N 189.197 -1.51736 -0.425897 0
M  V30 1957 C 190.144 -1.73875 -1.51776 0
M  V30 1958 C 191.114 -0.580702 -1.55618 0
M  V30 1959 O 192.299 -0.81641 -1.72451 0
M  V30 1960 C 189.439 -1.88012 -2.89388 0
M  V30 1961 C 188.552 -3.15606 -2.94986 0
M  V30 1962 C 187.687 -3.20271 -4.23793 0
M  V30 1963 C 186.726 -4.42134 -4.23302 0
M  V30 1964 N 185.863 -4.44284 -5.43651 0
M  V30 1965 H 190.703 -2.67071 -1.32201 0
M  V30 1966 H 188.24 -1.32351 -0.642008 0
M  V30 1967 H 190.198 -1.9419 -3.69251 0
M  V30 1968 H 188.828 -0.98213 -3.07496 0
M  V30 1969 H 187.88 -3.18681 -2.07717 0
M  V30 1970 H 189.192 -4.05486 -2.90486 0
M  V30 1971 H 188.346 -3.25428 -5.12036 0
M  V30 1972 H 187.085 -2.28299 -4.30965 0
M  V30 1973 H 186.09 -4.3714 -3.3345 0
M  V30 1974 H 187.315 -5.35382 -4.17783 0
M  V30 1975 H 185.261 -3.55188 -5.51523 0
M  V30 1976 H 185.178 -5.27988 -5.41078 0
M  V30 1977 H 186.446 -4.53649 -6.33895 0
M  V30 1978 N 190.675 0.682077 -1.42076 0
M  V30 1979 C 191.623 1.81707 -1.45208 0
M  V30 1980 C 192.617 1.66183 -0.328591 0
M  V30 1981 O 193.823 1.7288 -0.501264 0
M  V30 1982 H 190.198 0.599014 -0.454628 0
M  V30 1983 H 192.169 1.76183 -2.40836 0
M  V30 1984 C 190.918 3.19816 -1.36428 0
M  V30 1985 H 190.241 3.32385 -2.22171 0
M  V30 1986 H 191.681 3.99272 -1.42681 0
M  V30 1987 C 190.14 3.36809 -0.078191 0
M  V30 1988 O 190.67 3.92124 0.87188 0
M  V30 1989 N 188.876 2.906 0.00229266 0
M  V30 1990 H 188.423 2.45772 -0.771616 0
M  V30 1991 H 188.381 3.02347 0.862179 0
M  V30 1992 N 192.153 1.28127 0.917671 0
M  V30 1993 C 193.401 1.14825 1.66312 0
M  V30 1994 C 193.722 -0.304379 1.9261 0
M  V30 1995 O 192.992 -1.21149 1.53947 0
M  V30 1996 H 191.572 0.421953 0.616413 0
M  V30 1997 H 194.234 1.608 1.10134 0
M  V30 1998 H 193.33 1.68489 2.62712 0
M  V30 1999 N 193.631 -1.12557 1.10312 0
M  V30 2000 C 194.878 -1.84038 0.844759 0
M  V30 2001 C 195.206 -1.84026 -0.629668 0
M  V30 2002 O 194.461 -1.28026 -1.48013 0
M  V30 2003 C 194.76 -3.31462 1.33669 0
M  V30 2004 C 194.426 -3.51647 2.82232 0
M  V30 2005 C 193.088 -3.56864 3.22802 0
M  V30 2006 C 195.44 -3.58867 3.77974 0
M  V30 2007 C 192.768 -3.66844 4.57867 0
M  V30 2008 C 195.12 -3.70375 5.1284 0
M  V30 2009 C 193.784 -3.73848 5.52986 0
M  V30 2010 H 193.054 -0.673444 0.309119 0
M  V30 2011 H 195.701 -1.32824 1.37949 0
M  V30 2012 H 194.006 -3.85091 0.721949 0
M  V30 2013 H 195.703 -3.85236 1.11329 0
M  V30 2014 H 192.293 -3.48249 2.49842 0
M  V30 2015 H 196.477 -3.54107 3.47738 0
M  V30 2016 H 191.733 -3.67804 4.88396 0
M  V30 2017 H 195.907 -3.74904 5.86873 0
M  V30 2018 H 193.534 -3.81333 6.57639 0
M  V30 2019 N 195.109 -0.891671 -1.2995 0
M  V30 2020 C 196.355 -0.514261 -1.96171 0
M  V30 2021 C 196.688 0.935506 -1.70182 0
M  V30 2022 O 195.963 1.66204 -1.01028 0
M  V30 2023 C 196.246 -0.797719 -3.51153 0
M  V30 2024 C 196.099 -2.2986 -3.86632 0
M  V30 2025 C 197.418 -0.278749 -4.39216 0
M  V30 2026 H 194.537 -0.188314 -0.712535 0
M  V30 2027 H 197.179 -1.11689 -1.53706 0
M  V30 2028 H 195.329 -0.284826 -3.87455 0
M  V30 2029 H 197.001 -2.88042 -3.60319 0
M  V30 2030 H 195.244 -2.76257 -3.34462 0
M  V30 2031 H 195.915 -2.44753 -4.94773 0
M  V30 2032 H 198.391 -0.717825 -4.09862 0
M  V30 2033 H 197.267 -0.506353 -5.46559 0
M  V30 2034 H 197.528 0.820266 -4.34424 0
M  V30 2035 N 196.587 1.43421 -0.653314 0
M  V30 2036 C 197.535 2.32546 0.0501531 0
M  V30 2037 C 198.529 1.48617 0.812985 0
M  V30 2038 O 199.735 1.64825 0.723375 0
M  V30 2039 H 196.11 0.751185 0.0350032 0
M  V30 2040 H 198.081 2.89602 -0.719261 0
M  V30 2041 C 196.83 3.32925 1.00279 0
M  V30 2042 H 196.153 3.97532 0.425236 0
M  V30 2043 H 197.593 3.9792 1.46409 0
M  V30 2044 C 196.052 2.63532 2.09886 0
M  V30 2045 O 196.582 2.45092 3.18265 0
M  V30 2046 N 194.788 2.22905 1.86445 0
M  V30 2047 H 194.335 2.38103 0.98309 0
M  V30 2048 H 194.293 1.76805 2.59976 0
M  V30 2049 N 198.065 0.39524 1.52563 0
M  V30 2050 C 199.314 -0.186321 2.00838 0
M  V30 2051 C 199.627 -1.47402 1.28577 0
M  V30 2052 O 200.833 -2.13599 1.67593 0
M  V30 2053 C 199.289 -0.382595 3.57861 0
M  V30 2054 C 198.897 0.892202 4.39026 0
M  V30 2055 C 200.641 -0.9202 4.14406 0
M  V30 2056 C 198.548 0.66388 5.87662 0
M  V30 2057 H 197.478 -0.0734041 0.750418 0
M  V30 2058 H 200.129 0.518552 1.76021 0
M  V30 2059 H 198.511 -1.14946 3.7895 0
M  V30 2060 H 199.685 1.66414 4.29701 0
M  V30 2061 H 198 1.35519 3.9373 0
M  V30 2062 H 200.597 -1.10683 5.23119 0
M  V30 2063 H 200.94 -1.89096 3.70875 0
M  V30 2064 H 201.473 -0.212751 3.97231 0
M  V30 2065 H 198.212 1.6058 6.35527 0
M  V30 2066 H 197.732 -0.0690193 5.9976 0
M  V30 2067 H 199.411 0.300699 6.46301 0
M  V30 2068 N 199.544 -1.57102 0.125237 0
M  V30 2069 C 200.494 -2.12202 -0.833936 0
M  V30 2070 C 201.478 -1.04433 -1.22403 0
M  V30 2071 O 202.67 -1.30655 -1.19408 0
M  V30 2072 C 199.799 -2.72994 -2.08157 0
M  V30 2073 C 198.885 -3.87852 -1.71556 0
M  V30 2074 N 199.276 -4.9464 -1.05662 0
M  V30 2075 C 197.574 -3.98153 -2.00973 0
M  V30 2076 C 198.275 -5.74953 -0.883376 0
M  V30 2077 N 197.251 -5.24985 -1.41036 0
M  V30 2078 H 201.053 -2.92141 -0.321035 0
M  V30 2079 H 198.567 -1.62217 -0.0770315 0
M  V30 2080 H 200.564 -3.10816 -2.77847 0
M  V30 2081 H 199.224 -1.9452 -2.59985 0
M  V30 2082 H 200.235 -5.12872 -0.719878 0
M  V30 2083 H 196.912 -3.30728 -2.54804 0
M  V30 2084 H 198.302 -6.70904 -0.365675 0
M  V30 2085 N 201.022 0.148545 -1.56898 0
M  V30 2086 C 202.268 0.862694 -1.83536 0
M  V30 2087 C 202.601 1.80889 -0.706604 0
M  V30 2088 O 201.876 1.92328 0.289885 0
M  V30 2089 C 202.159 1.63853 -3.20662 0
M  V30 2090 C 202.012 0.713925 -4.44098 0
M  V30 2091 C 203.331 2.60133 -3.54991 0
M  V30 2092 H 200.45 0.312179 -0.667618 0
M  V30 2093 H 203.092 0.127953 -1.89569 0
M  V30 2094 H 201.242 2.26489 -3.1565 0
M  V30 2095 H 202.914 0.098686 -4.61194 0
M  V30 2096 H 201.157 0.0234019 -4.33794 0
M  V30 2097 H 201.828 1.29278 -5.36648 0
M  V30 2098 H 204.304 2.07616 -3.60603 0
M  V30 2099 H 203.18 3.11468 -4.51972 0
M  V30 2100 H 203.441 3.41417 -2.80868 0
M  V30 2101 N 202.5 1.5196 0.417844 0
M  V30 2102 C 203.746 1.65836 1.16732 0
M  V30 2103 C 204.079 0.382881 1.90388 0
M  V30 2104 O 203.354 -0.618368 1.84408 0
M  V30 2105 C 203.637 2.87466 2.16876 0
M  V30 2106 C 203.49 4.25041 1.47174 0
M  V30 2107 C 204.809 3.04613 3.17646 0
M  V30 2108 H 201.928 0.603515 0.423011 0
M  V30 2109 H 204.57 1.84494 0.454105 0
M  V30 2110 H 202.72 2.71689 2.777 0
M  V30 2111 H 204.392 4.52527 0.895376 0
M  V30 2112 H 202.635 4.26843 0.773806 0
M  V30 2113 H 203.306 5.06176 2.20204 0
M  V30 2114 H 205.782 3.1923 2.66892 0
M  V30 2115 H 204.658 3.91247 3.8499 0
M  V30 2116 H 204.919 2.17541 3.84874 0
M  V30 2117 N 203.978 -0.674533 1.42435 0
M  V30 2118 C 205.389 -1.25514 1.38214 0
M  V30 2119 C 205.74 -1.96055 0.0755464 0
M  V30 2120 O 204.865 -2.00028 -0.8257 0
M  V30 2121 C 205.46 -2.28269 2.50357 0
M  V30 2122 C 204.019 -2.81856 2.49467 0
M  V30 2123 C 203.166 -1.56182 2.29134 0
M  V30 2124 H 206.117 -0.467902 1.51646 0
M  V30 2125 H 206.138 -3.10009 2.20624 0
M  V30 2126 H 205.65 -1.769 3.45439 0
M  V30 2127 H 203.751 -3.37346 1.58204 0
M  V30 2128 H 203.864 -3.30854 3.46515 0
M  V30 2129 H 202.228 -1.82761 1.774 0
M  V30 2130 H 203.011 -1.06778 3.26272 0
M  V30 2131 N 205.456 -1.28612 -0.910864 0
M  V30 2132 C 206.404 -1.1265 -2.03501 0
M  V30 2133 C 207.398 -0.0450054 -1.6934 0
M  V30 2134 O 208.604 -0.203988 -1.7884 0
M  V30 2135 H 204.979 -0.347639 -0.666822 0
M  V30 2136 H 206.95 -2.07849 -2.14106 0
M  V30 2137 C 205.699 -0.808143 -3.38178 0
M  V30 2138 H 205.022 -1.63231 -3.6496 0
M  V30 2139 H 206.462 -0.736426 -4.17556 0
M  V30 2140 C 204.921 0.488226 -3.33344 0
M  V30 2141 O 205.451 1.51766 -3.71927 0
M  V30 2142 N 203.657 0.490009 -2.86439 0
M  V30 2143 H 203.204 -0.348161 -2.55236 0
M  V30 2144 H 203.162 1.35741 -2.83587 0
M  V30 2145 N 206.934 1.1197 -1.10907 0
M  V30 2146 C 208.35 1.35591 -0.841852 0
M  V30 2147 C 208.55 1.94233 0.536246 0
M  V30 2148 O 207.606 2.1717 1.28816 0
M  V30 2149 C 208.919 2.29284 -1.94549 0
M  V30 2150 C 210.467 2.42862 -1.97451 0
M  V30 2151 C 210.942 3.39873 -3.07002 0
M  V30 2152 N 212.433 3.47433 -3.06341 0
M  V30 2153 C 213.168 4.22421 -3.87748 0
M  V30 2154 N 212.664 5.00432 -4.79103 0
M  V30 2155 N 214.457 4.17876 -3.75946 0
M  V30 2156 H 206.608 0.722664 -1.99728 0
M  V30 2157 H 208.871 0.380635 -0.868229 0
M  V30 2158 H 208.577 1.93378 -2.93765 0
M  V30 2159 H 208.451 3.29452 -1.83688 0
M  V30 2160 H 210.838 2.78046 -0.988645 0
M  V30 2161 H 210.919 1.42566 -2.12388 0
M  V30 2162 H 210.563 3.05417 -4.05811 0
M  V30 2163 H 210.493 4.40011 -2.89306 0
M  V30 2164 H 212.984 2.91784 -2.40147 0
M  V30 2165 H 213.297 5.55002 -5.37766 0
M  V30 2166 H 211.642 4.99612 -4.83128 0
M  V30 2167 H 214.833 3.56016 -3.03924 0
M  V30 2168 H 215.006 4.76061 -4.39624 0
M  V30 2169 N 208.412 0.89855 1.29475 0
M  V30 2170 C 209.342 0.39201 2.30186 0
M  V30 2171 C 210.323 -0.532359 1.61555 0
M  V30 2172 O 211.508 -0.443331 1.89072 0
M  V30 2173 C 208.638 -0.382353 3.45189 0
M  V30 2174 C 207.592 0.451483 4.25612 0
M  V30 2175 C 206.918 -0.450307 5.328 0
M  V30 2176 C 208.218 1.70079 4.93832 0
M  V30 2177 H 209.912 1.23362 2.72804 0
M  V30 2178 H 207.458 0.594638 1.31149 0
M  V30 2179 H 209.411 -0.747451 4.14718 0
M  V30 2180 H 208.135 -1.25774 3.01411 0
M  V30 2181 H 206.794 0.798897 3.57789 0
M  V30 2182 H 206.442 -1.32379 4.85268 0
M  V30 2183 H 206.142 0.103902 5.87508 0
M  V30 2184 H 207.666 -0.811623 6.05182 0
M  V30 2185 H 209.08 1.40549 5.55805 0
M  V30 2186 H 207.477 2.19623 5.58467 0
M  V30 2187 H 208.547 2.43744 4.19186 0
M  V30 2188 N 209.89 -1.43072 0.660911 0
M  V30 2189 C 210.82 -2.33497 -0.0122829 0
M  V30 2190 C 211.801 -1.49903 -0.803925 0
M  V30 2191 O 212.986 -1.78546 -0.763864 0
M  V30 2192 C 210.116 -3.33363 -0.973994 0
M  V30 2193 C 209.07 -4.27003 -0.291928 0
M  V30 2194 C 208.396 -5.16967 -1.36562 0
M  V30 2195 C 209.696 -5.15816 0.820462 0
M  V30 2196 H 211.39 -2.90038 0.742873 0
M  V30 2197 H 208.936 -1.39461 0.358688 0
M  V30 2198 H 210.889 -3.95524 -1.45392 0
M  V30 2199 H 209.613 -2.75095 -1.7604 0
M  V30 2200 H 208.272 -3.66217 0.167623 0
M  V30 2201 H 207.92 -4.55034 -2.14366 0
M  V30 2202 H 207.62 -5.80441 -0.914454 0
M  V30 2203 H 209.144 -5.82003 -1.84675 0
M  V30 2204 H 210.558 -5.71742 0.422366 0
M  V30 2205 H 208.955 -5.8805 1.19656 0
M  V30 2206 H 210.025 -4.55045 1.67518 0
M  V30 2207 N 211.368 -0.403325 -1.52352 0
M  V30 2208 C 212.617 0.175668 -2.00934 0
M  V30 2209 C 212.93 1.46718 -1.29356 0
M  V30 2210 O 214.136 2.12708 -1.68724 0
M  V30 2211 C 212.592 0.363612 -3.58058 0
M  V30 2212 C 212.2 -0.915472 -4.38547 0
M  V30 2213 C 213.944 0.89821 -4.14888 0
M  V30 2214 C 211.851 -0.695035 -5.87302 0
M  V30 2215 H 210.781 0.0694234 -0.750797 0
M  V30 2216 H 213.432 -0.527879 -1.75743 0
M  V30 2217 H 211.814 1.12935 -3.79555 0
M  V30 2218 H 212.988 -1.68691 -4.28812 0
M  V30 2219 H 211.303 -1.37606 -3.93006 0
M  V30 2220 H 213.9 1.07907 -5.23699 0
M  V30 2221 H 214.243 1.87126 -3.71873 0
M  V30 2222 H 214.776 0.191681 -3.97338 0
M  V30 2223 H 211.515 -1.63948 -6.34666 0
M  V30 2224 H 211.035 0.0372116 -5.99788 0
M  V30 2225 H 212.714 -0.33497 -6.46132 0
M  V30 2226 N 212.846 1.57033 -0.133567 0
M  V30 2227 C 214.071 2.00475 0.531477 0
M  V30 2228 C 214.496 1.01291 1.58499 0
M  V30 2229 O 213.854 -0.0133279 1.81295 0
M  V30 2230 C 213.902 3.42729 1.12113 0
M  V30 2231 O 213.006 3.46498 2.23636 0
M  V30 2232 H 212.347 0.650876 0.131362 0
M  V30 2233 H 214.877 2.03344 -0.22634 0
M  V30 2234 H 214.887 3.81246 1.4531 0
M  V30 2235 H 213.562 4.14428 0.349557 0
M  V30 2236 H 212.139 3.19811 1.91769 0
M  V30 2237 N 214.325 -0.140222 1.56975 0
M  V30 2238 C 215.288 -1.15689 1.97861 0
M  V30 2239 C 216.288 -1.3549 0.865974 0
M  V30 2240 O 217.478 -1.32367 1.13246 0
M  V30 2241 C 214.61 -2.51582 2.30042 0
M  V30 2242 H 215.803 -0.805971 2.88867 0
M  V30 2243 H 213.356 -0.383801 1.51515 0
M  V30 2244 H 214.091 -2.91632 1.41849 0
M  V30 2245 H 213.876 -2.38569 3.11171 0
M  V30 2246 H 215.366 -3.24792 2.62488 0
M  V30 2247 N 215.803 -1.52179 -0.40978 0
M  V30 2248 C 217.08 -1.56769 -1.16974 0
M  V30 2249 C 217.46 -0.348322 -2.08206 0
M  V30 2250 O 216.808 0.664862 -2.18613 0
M  V30 2251 C 217.018 -2.89603 -1.9476 0
M  V30 2252 C 218.366 -3.42579 -2.50849 0
M  V30 2253 O 219.39 -2.91338 -2.04941 0
M  V30 2254 O 218.249 -4.32054 -3.34652 0
M  V30 2255 H 215.343 -0.631439 -0.534054 0
M  V30 2256 H 217.889 -1.64507 -0.416613 0
M  V30 2257 H 216.661 -3.698 -1.27921 0
M  V30 2258 H 216.284 -2.85155 -2.77079 0
M  V30 2259 N 217.281 0.66697 -1.42791 0
M  V30 2260 C 218.529 1.42417 -1.43394 0
M  V30 2261 C 218.85 1.94925 -0.0542373 0
M  V30 2262 O 218.12 1.73564 0.908415 0
M  V30 2263 H 216.7 0.528515 -0.527902 0
M  V30 2264 H 219.362 0.787562 -1.78279 0
M  V30 2265 H 218.458 2.27333 -2.13837 0
M  V30 2266 N 218.759 1.29093 0.90403 0
M  V30 2267 C 219.984 1.19809 1.69294 0
M  V30 2268 C 220.409 -0.238481 1.86582 0
M  V30 2269 O 219.767 -1.1723 1.383 0
M  V30 2270 C 219.815 1.91202 3.05736 0
M  V30 2271 O 218.919 1.22611 3.93752 0
M  V30 2272 H 218.26 0.415385 0.518027 0
M  V30 2273 H 220.79 1.70586 1.12967 0
M  V30 2274 H 220.8 1.99487 3.55906 0
M  V30 2275 H 219.475 2.95692 2.92471 0
M  V30 2276 H 218.052 1.22554 3.52186 0
M  V30 2277 N 220.237 -1.11381 1.11499 0
M  V30 2278 C 221.2 -2.15622 0.777153 0
M  V30 2279 C 222.2 -1.59504 -0.203779 0
M  V30 2280 O 223.39 -1.74188 0.020782 0
M  V30 2281 C 220.522 -3.40556 0.153116 0
M  V30 2282 H 221.715 -2.47021 1.70061 0
M  V30 2283 H 219.268 -1.26577 0.916952 0
M  V30 2284 H 220.003 -3.14767 -0.780536 0
M  V30 2285 H 219.788 -3.8257 0.859238 0
M  V30 2286 H 221.278 -4.17546 -0.0671044 0
M  V30 2287 N 221.715 -0.905404 -1.28997 0
M  V30 2288 C 222.963 -0.533192 -1.9494 0
M  V30 2289 C 223.284 0.924618 -1.71685 0
M  V30 2290 O 222.554 1.65268 -1.05183 0
M  V30 2291 H 221.134 -0.194194 -0.721317 0
M  V30 2292 H 223.796 -1.15294 -1.57141 0
M  V30 2293 H 222.892 -0.72059 -3.03667 0
M  V30 2294 N 223.193 1.4272 -0.668489 0
M  V30 2295 C 224.156 2.292 0.00448567 0
M  V30 2296 C 225.156 1.43001 0.735339 0
M  V30 2297 O 226.346 1.64461 0.57429 0
M  V30 2298 C 223.478 3.25375 1.01705 0
M  V30 2299 H 224.671 2.90199 -0.756608 0
M  V30 2300 H 222.224 1.50254 -0.430506 0
M  V30 2301 H 222.959 2.69301 1.80686 0
M  V30 2302 H 222.744 3.88944 0.496463 0
M  V30 2303 H 224.234 3.90245 1.48655 0
M  V30 2304 N 224.671 0.411399 1.52136 0
M  V30 2305 C 225.917 -0.163888 2.02137 0
M  V30 2306 C 226.25 -1.44597 1.29636 0
M  V30 2307 O 225.525 -1.90272 0.403353 0
M  V30 2308 C 225.808 -0.40927 3.57767 0
M  V30 2309 C 225.661 0.889643 4.40914 0
M  V30 2310 C 226.98 -1.19042 4.23694 0
M  V30 2311 H 224.099 -0.0580896 0.734707 0
M  V30 2312 H 226.741 0.54531 1.82007 0
M  V30 2313 H 224.891 -1.0134 3.7505 0
M  V30 2314 H 226.563 1.52575 4.35337 0
M  V30 2315 H 224.806 1.50011 4.07037 0
M  V30 2316 H 225.477 0.672314 5.4789 0
M  V30 2317 H 227.953 -0.678942 4.10524 0
M  V30 2318 H 226.829 -1.33086 5.32522 0
M  V30 2319 H 227.09 -2.21166 3.82803 0
M  V30 2320 N 226.149 -1.5696 0.141893 0
M  V30 2321 C 227.096 -2.16501 -0.799737 0
M  V30 2322 C 228.066 -1.09643 -1.24771 0
M  V30 2323 O 229.251 -1.3766 -1.32115 0
M  V30 2324 C 226.391 -2.78679 -2.03549 0
M  V30 2325 C 225.504 -3.99914 -1.6338 0
M  V30 2326 C 224.639 -4.50106 -2.82096 0
M  V30 2327 C 223.678 -5.63819 -2.38275 0
M  V30 2328 N 222.815 -6.08651 -3.49983 0
M  V30 2329 H 227.655 -2.96632 -0.285179 0
M  V30 2330 H 225.192 -1.46533 -0.129053 0
M  V30 2331 H 227.15 -3.1287 -2.75986 0
M  V30 2332 H 225.78 -2.012 -2.52425 0
M  V30 2333 H 224.832 -3.71735 -0.807279 0
M  V30 2334 H 226.144 -4.82311 -1.27192 0
M  V30 2335 H 225.298 -4.86325 -3.62729 0
M  V30 2336 H 224.037 -3.66706 -3.21525 0
M  V30 2337 H 223.042 -5.2718 -1.56081 0
M  V30 2338 H 224.267 -6.49 -1.99938 0
M  V30 2339 H 222.213 -5.28188 -3.89042 0
M  V30 2340 H 222.13 -6.85961 -3.17794 0
M  V30 2341 H 223.398 -6.49515 -4.30988 0
M  V30 2342 N 227.627 0.131896 -1.57047 0
M  V30 2343 C 228.59 1.14638 -1.98471 0
M  V30 2344 C 229.59 1.35029 -0.873148 0
M  V30 2345 O 230.78 1.31764 -1.13946 0
M  V30 2346 C 227.912 2.50358 -2.31373 0
M  V30 2347 H 229.105 0.79064 -2.8929 0
M  V30 2348 H 226.658 0.375761 -1.51716 0
M  V30 2349 H 227.393 2.90876 -1.43393 0
M  V30 2350 H 227.178 2.36915 -3.12432 0
M  V30 2351 H 228.668 3.23395 -2.64207 0
M  V30 2352 N 229.106 1.52395 0.401703 0
M  V30 2353 C 230.069 1.75636 1.47257 0
M  V30 2354 C 231.069 0.62628 1.48103 0
M  V30 2355 O 232.259 0.894227 1.49497 0
M  V30 2356 C 229.391 1.84553 2.86624 0
M  V30 2357 H 230.584 2.71241 1.27938 0
M  V30 2358 H 228.137 1.42923 0.632662 0
M  V30 2359 H 228.872 0.908882 3.11303 0
M  V30 2360 H 228.657 2.66715 2.87412 0
M  V30 2361 H 230.147 2.04251 3.64241 0
M  V30 2362 N 230.584 -0.659388 1.43143 0
M  V30 2363 C 231.831 -1.41935 1.44433 0
M  V30 2364 C 232.159 -1.94387 0.0663522 0
M  V30 2365 O 231.414 -1.72314 -0.927706 0
M  V30 2366 C 231.713 -2.62206 2.42864 0
M  V30 2367 C 231.379 -2.28208 3.88886 0
M  V30 2368 C 230.041 -2.18647 4.28657 0
M  V30 2369 C 232.393 -2.00887 4.8093 0
M  V30 2370 C 229.721 -1.79914 5.58433 0
M  V30 2371 C 232.073 -1.63653 6.11065 0
M  V30 2372 C 230.737 -1.52614 6.49819 0
M  V30 2373 H 230.007 -0.519376 0.528517 0
M  V30 2374 H 232.654 -0.750453 1.76183 0
M  V30 2375 H 230.959 -3.34199 2.04495 0
M  V30 2376 H 232.656 -3.2041 2.41119 0
M  V30 2377 H 229.246 -2.36557 3.57406 0
M  V30 2378 H 233.43 -2.07198 4.5098 0
M  V30 2379 H 228.686 -1.69948 5.87305 0
M  V30 2380 H 232.86 -1.41543 6.81864 0
M  V30 2381 H 230.487 -1.22371 7.50286 0
M  V30 2382 N 232.062 -1.29571 -0.897171 0
M  V30 2383 C 233.01 -1.14802 -2.02295 0
M  V30 2384 C 234.004 -0.0629637 -1.69283 0
M  V30 2385 O 235.21 -0.222945 -1.78614 0
M  V30 2386 H 231.585 -0.354692 -0.663097 0
M  V30 2387 H 233.556 -2.10108 -2.11889 0
M  V30 2388 C 232.305 -0.843966 -3.37302 0
M  V30 2389 H 231.628 -1.67093 -3.63208 0
M  V30 2390 H 233.068 -0.780672 -4.16751 0
M  V30 2391 C 231.527 0.452843 -3.33843 0
M  V30 2392 O 232.057 1.47813 -3.73516 0
M  V30 2393 N 230.263 0.459601 -2.86943 0
M  V30 2394 H 229.81 -0.375213 -2.54853 0
M  V30 2395 H 229.768 1.32726 -2.85011 0
M  V30 2396 N 233.54 1.10788 -1.12088 0
M  V30 2397 C 234.768 1.86461 -0.896651 0
M  V30 2398 C 235.183 1.80492 0.553912 0
M  V30 2399 O 234.54 1.19102 1.38278 0
M  V30 2400 C 234.591 3.35006 -1.35843 0
M  V30 2401 O 234.312 3.40866 -2.75213 0
M  V30 2402 C 235.813 4.27565 -1.1706 0
M  V30 2403 H 233.033 0.589425 -0.320654 0
M  V30 2404 H 235.577 1.40076 -1.48993 0
M  V30 2405 H 233.732 3.7887 -0.808458 0
M  V30 2406 H 234.146 4.33411 -2.9539 0
M  V30 2407 H 235.62 5.30007 -1.54263 0
M  V30 2408 H 236.097 4.3906 -0.110814 0
M  V30 2409 H 236.703 3.89501 -1.70789 0
M  V30 2410 N 235.018 0.912232 1.28515 0
M  V30 2411 C 236.429 0.591352 1.77087 0
M  V30 2412 C 236.78 -0.8933 1.74684 0
M  V30 2413 O 235.905 -1.69876 1.34056 0
M  V30 2414 C 236.5 1.06668 3.2157 0
M  V30 2415 C 235.059 0.79675 3.67871 0
M  V30 2416 C 234.206 1.23427 2.48316 0
M  V30 2417 H 237.157 1.09365 1.15 0
M  V30 2418 H 237.178 0.407455 3.78312 0
M  V30 2419 H 236.69 2.14726 3.23287 0
M  V30 2420 H 234.791 -0.270679 3.71616 0
M  V30 2421 H 234.904 1.40343 4.58084 0
M  V30 2422 H 233.268 0.653036 2.46186 0
M  V30 2423 H 234.051 2.32316 2.52753 0
M  V30 2424 N 236.496 -1.42363 0.676048 0
M  V30 2425 C 237.426 -2.33497 0.0124832 0
M  V30 2426 C 238.407 -1.50748 -0.787981 0
M  V30 2427 O 239.592 -1.79346 -0.744884 0
M  V30 2428 C 236.722 -3.34377 -0.938582 0
M  V30 2429 C 235.676 -4.27289 -0.246622 0
M  V30 2430 C 235.002 -5.18386 -1.31071 0
M  V30 2431 C 236.302 -5.14916 0.875125 0
M  V30 2432 H 237.996 -2.89233 0.773593 0
M  V30 2433 H 235.542 -1.39073 0.37346 0
M  V30 2434 H 237.495 -3.97044 -1.41188 0
M  V30 2435 H 236.219 -2.76947 -1.73113 0
M  V30 2436 H 234.878 -3.66018 0.206456 0
M  V30 2437 H 234.526 -4.57282 -2.09528 0
M  V30 2438 H 234.226 -5.81378 -0.852839 0
M  V30 2439 H 235.75 -5.83929 -1.78492 0
M  V30 2440 H 237.164 -5.71262 0.482983 0
M  V30 2441 H 235.561 -5.86747 1.25887 0
M  V30 2442 H 236.631 -4.53242 1.72335 0
M  V30 2443 N 237.974 -0.419461 -1.51915 0
M  V30 2444 C 239.22 0.153166 -2.02221 0
M  V30 2445 C 239.553 1.43907 -1.30401 0
M  V30 2446 O 238.828 1.90055 -0.413438 0
M  V30 2447 C 239.111 0.390291 -3.57979 0
M  V30 2448 C 238.964 -0.913014 -4.40436 0
M  V30 2449 C 240.283 1.16794 -4.2432 0
M  V30 2450 H 237.402 0.0541924 -0.735005 0
M  V30 2451 H 240.044 -0.554955 -1.81715 0
M  V30 2452 H 238.194 0.993491 -3.75582 0
M  V30 2453 H 239.866 -1.54882 -4.34522 0
M  V30 2454 H 238.109 -1.52168 -4.06236 0
M  V30 2455 H 238.78 -0.701361 -5.47526 0
M  V30 2456 H 241.256 0.657161 -4.10878 0
M  V30 2457 H 240.132 1.3026 -5.3322 0
M  V30 2458 H 240.393 2.19132 -3.83971 0
M  V30 2459 N 239.452 1.56882 -0.150215 0
M  V30 2460 C 240.868 1.58263 0.20617 0
M  V30 2461 C 241.068 1.16464 1.64434 0
M  V30 2462 O 240.124 0.866422 2.3717 0
M  V30 2463 C 241.437 3.00649 -0.0555025 0
M  V30 2464 C 242.985 3.12999 0.00795388 0
M  V30 2465 C 243.46 4.5744 -0.226429 0
M  V30 2466 N 244.951 4.62875 -0.173469 0
M  V30 2467 C 245.686 5.72454 -0.329288 0
M  V30 2468 N 245.182 6.90669 -0.543005 0
M  V30 2469 N 246.975 5.61467 -0.266666 0
M  V30 2470 H 239.126 1.82345 -1.08922 0
M  V30 2471 H 241.389 0.844149 -0.431413 0
M  V30 2472 H 241.095 3.3563 -1.05096 0
M  V30 2473 H 240.969 3.71337 0.66246 0
M  V30 2474 H 243.356 2.77857 0.993966 0
M  V30 2475 H 243.437 2.4479 -0.742388 0
M  V30 2476 H 243.081 4.93287 -1.20956 0
M  V30 2477 H 243.011 5.2378 0.544274 0
M  V30 2478 H 245.502 3.77898 -0.0130709 0
M  V30 2479 H 245.815 7.70045 -0.651922 0
M  V30 2480 H 244.16 6.92581 -0.579366 0
M  V30 2481 H 247.351 4.67992 -0.100441 0
M  V30 2482 H 247.524 6.46816 -0.391535 0
M  V30 2483 N 240.93 -0.123565 1.57115 0
M  V30 2484 C 242.16 -0.845233 1.88519 0
M  V30 2485 C 242.568 -1.74168 0.739064 0
M  V30 2486 O 241.911 -1.81244 -0.299355 0
M  V30 2487 C 241.973 -1.73452 3.14888 0
M  V30 2488 C 241.637 -1.01285 4.45635 0
M  V30 2489 C 242.634 -0.355774 5.18681 0
M  V30 2490 C 240.319 -0.99538 4.92339 0
M  V30 2491 C 242.313 0.309114 6.3665 0
M  V30 2492 C 240 -0.32669 6.10226 0
M  V30 2493 C 240.998 0.324406 6.82229 0
M  V30 2494 O 240.686 0.982437 7.97874 0
M  V30 2495 H 240.418 -0.248534 0.628655 0
M  V30 2496 H 242.972 -0.113907 2.05084 0
M  V30 2497 H 241.202 -2.50737 2.94394 0
M  V30 2498 H 242.891 -2.33021 3.32349 0
M  V30 2499 H 243.657 -0.360918 4.83655 0
M  V30 2500 H 239.536 -1.49159 4.36202 0
M  V30 2501 H 243.08 0.8179 6.92789 0
M  V30 2502 H 238.977 -0.319294 6.4471 0
M  V30 2503 H 239.745 0.886454 8.13686 0
M  V30 2504 N 242.408 -1.52605 -0.393616 0
M  V30 2505 C 243.34 -1.73303 -1.49995 0
M  V30 2506 C 244.353 -0.613473 -1.50799 0
M  V30 2507 O 245.542 -0.889049 -1.54784 0
M  V30 2508 C 242.642 -1.77245 -2.88855 0
M  V30 2509 C 241.815 -3.06483 -3.12069 0
M  V30 2510 C 240.874 -3.02033 -4.30886 0
M  V30 2511 O 239.9 -3.75907 -4.27414 0
M  V30 2512 N 241.102 -2.20897 -5.36828 0
M  V30 2513 H 243.867 -2.68756 -1.32629 0
M  V30 2514 H 241.428 -1.51036 -0.583083 0
M  V30 2515 H 243.42 -1.7178 -3.66434 0
M  V30 2516 H 241.99 -0.891993 -2.99603 0
M  V30 2517 H 241.21 -3.25474 -2.22396 0
M  V30 2518 H 242.498 -3.91947 -3.2443 0
M  V30 2519 H 241.896 -1.60336 -5.42502 0
M  V30 2520 H 240.453 -2.21275 -6.13091 0
M  V30 2521 N 243.887 0.651787 -1.4349 0
M  V30 2522 C 244.817 1.77621 -1.51569 0
M  V30 2523 C 245.798 1.66022 -0.370253 0
M  V30 2524 O 246.983 1.85095 -0.587658 0
M  V30 2525 C 244.113 3.16056 -1.43966 0
M  V30 2526 C 243.067 3.4242 -2.56774 0
M  V30 2527 C 242.393 4.8067 -2.34223 0
M  V30 2528 C 243.693 3.37023 -3.99015 0
M  V30 2529 H 245.387 1.71117 -2.45681 0
M  V30 2530 H 242.933 0.821825 -1.18246 0
M  V30 2531 H 244.886 3.94472 -1.48221 0
M  V30 2532 H 243.61 3.23293 -0.463586 0
M  V30 2533 H 242.269 2.66375 -2.51873 0
M  V30 2534 H 241.917 4.84585 -1.34856 0
M  V30 2535 H 241.617 4.9927 -3.09844 0
M  V30 2536 H 243.141 5.61342 -2.40265 0
M  V30 2537 H 244.555 4.05374 -4.05395 0
M  V30 2538 H 242.952 3.67159 -4.74673 0
M  V30 2539 H 244.022 2.3518 -4.2405 0
M  V30 2540 N 245.365 1.30045 0.890287 0
M  V30 2541 C 246.313 1.15873 2.01683 0
M  V30 2542 C 247.307 0.0719403 1.69247 0
M  V30 2543 O 248.513 0.232414 1.78493 0
M  V30 2544 H 244.888 0.358203 0.661207 0
M  V30 2545 H 246.859 2.11229 2.10772 0
M  V30 2546 C 245.608 0.861842 3.36849 0
M  V30 2547 H 244.931 1.69016 3.62317 0
M  V30 2548 H 246.371 0.802762 4.16331 0
M  V30 2549 C 244.83 -0.435132 3.34078 0
M  V30 2550 O 245.36 -1.4583 3.74295 0
M  V30 2551 N 243.566 -0.444377 2.87182 0
M  V30 2552 H 243.113 0.388723 2.5465 0
M  V30 2553 H 243.071 -1.31213 2.85711 0
M  V30 2554 N 246.843 -1.10192 1.12674 0
M  V30 2555 C 248.091 -1.81845 0.881861 0
M  V30 2556 C 248.412 -1.85737 -0.593867 0
M  V30 2557 O 247.682 -1.33724 -1.4316 0
M  V30 2558 H 246.262 -0.673432 0.323261 0
M  V30 2559 H 248.924 -1.33316 1.42172 0
M  V30 2560 H 248.02 -2.85288 1.2656 0
M  V30 2561 N 248.321 -0.919034 -1.28029 0
M  V30 2562 C 249.268 -0.410005 -2.27129 0
M  V30 2563 C 250.238 0.518405 -1.57803 0
M  V30 2564 O 251.423 0.439451 -1.8567 0
M  V30 2565 C 248.563 0.339054 -3.4343 0
M  V30 2566 C 247.676 -0.622468 -4.27492 0
M  V30 2567 C 246.811 0.145567 -5.31001 0
M  V30 2568 C 245.85 -0.809226 -6.06727 0
M  V30 2569 N 244.987 -0.0743728 -7.02061 0
M  V30 2570 H 249.827 -1.26011 -2.70047 0
M  V30 2571 H 247.364 -0.632663 -1.328 0
M  V30 2572 H 249.322 0.789586 -4.0966 0
M  V30 2573 H 247.952 1.15346 -3.01488 0
M  V30 2574 H 247.004 -1.19153 -3.61257 0
M  V30 2575 H 248.316 -1.35252 -4.80113 0
M  V30 2576 H 247.47 0.656417 -6.03139 0
M  V30 2577 H 246.209 0.908643 -4.79161 0
M  V30 2578 H 245.214 -1.3314 -5.33436 0
M  V30 2579 H 246.439 -1.57194 -6.60656 0
M  V30 2580 H 244.385 0.670616 -6.52563 0
M  V30 2581 H 244.302 -0.744157 -7.52329 0
M  V30 2582 H 245.57 0.416109 -7.78389 0
M  V30 2583 N 249.799 1.42003 -0.683588 0
M  V30 2584 C 250.762 2.29191 -0.0198243 0
M  V30 2585 C 251.762 1.43773 0.72013 0
M  V30 2586 O 252.952 1.65061 0.556815 0
M  V30 2587 C 250.084 3.26435 0.982487 0
M  V30 2588 H 251.277 2.8938 -0.787345 0
M  V30 2589 H 248.83 1.49789 -0.446418 0
M  V30 2590 H 249.565 2.71203 1.77819 0
M  V30 2591 H 249.35 3.89449 0.455182 0
M  V30 2592 H 250.84 3.918 1.44508 0
M  V30 2593 N 251.277 0.427512 1.51691 0
M  V30 2594 C 252.525 -0.141948 2.01601 0
M  V30 2595 C 252.846 -1.44067 1.31414 0
M  V30 2596 O 252.116 -1.90763 0.445658 0
M  V30 2597 H 250.696 -0.0554468 0.744939 0
M  V30 2598 H 253.358 0.567968 1.86441 0
M  V30 2599 H 252.454 -0.324913 3.10404 0
M  V30 2600 N 252.755 -1.56801 0.158532 0
M  V30 2601 C 253.985 -2.00568 -0.495583 0
M  V30 2602 C 254.393 -1.03774 -1.58201 0
M  V30 2603 O 253.736 -0.0285797 -1.83678 0
M  V30 2604 C 253.798 -3.40768 -1.14532 0
M  V30 2605 C 253.462 -4.56553 -0.202101 0
M  V30 2606 C 254.459 -5.16714 0.574675 0
M  V30 2607 C 252.144 -5.02197 -0.101648 0
M  V30 2608 C 254.138 -6.20939 1.43924 0
M  V30 2609 C 251.825 -6.06274 0.766508 0
M  V30 2610 C 252.823 -6.65515 1.53555 0
M  V30 2611 O 252.511 -7.67575 2.38922 0
M  V30 2612 H 252.243 -0.662893 -0.13247 0
M  V30 2613 H 254.797 -2.03829 0.253559 0
M  V30 2614 H 253.027 -3.34381 -1.94233 0
M  V30 2615 H 254.716 -3.6857 -1.70033 0
M  V30 2616 H 255.482 -4.82341 0.507167 0
M  V30 2617 H 251.361 -4.55807 -0.689994 0
M  V30 2618 H 254.905 -6.67107 2.03996 0
M  V30 2619 H 250.802 -6.40073 0.835266 0
M  V30 2620 H 251.57 -7.84844 2.32296 0
M  V30 2621 N 254.233 0.115231 -1.57178 0
M  V30 2622 C 255.196 1.12526 -1.99676 0
M  V30 2623 C 256.196 1.34095 -0.88742 0
M  V30 2624 O 257.386 1.30548 -1.15337 0
M  V30 2625 C 254.518 2.4789 -2.34015 0
M  V30 2626 H 255.711 0.759912 -2.90113 0
M  V30 2627 H 253.264 0.359648 -1.52106 0
M  V30 2628 H 253.999 2.89339 -1.4647 0
M  V30 2629 H 253.784 2.33588 -3.14927 0
M  V30 2630 H 255.274 3.20575 -2.67622 0
M  V30 2631 N 255.711 1.52812 0.385517 0
M  V30 2632 C 256.659 1.78482 1.49155 0
M  V30 2633 C 257.653 0.652914 1.56312 0
M  V30 2634 O 258.859 0.835464 1.59436 0
M  V30 2635 H 255.234 0.5648 0.496493 0
M  V30 2636 H 257.205 2.71095 1.24699 0
M  V30 2637 C 255.954 1.97378 2.86247 0
M  V30 2638 H 255.277 2.83907 2.81491 0
M  V30 2639 H 256.717 2.19327 3.62866 0
M  V30 2640 C 255.176 0.74728 3.28508 0
M  V30 2641 O 255.706 -0.0736232 4.01633 0
M  V30 2642 N 253.912 0.576396 2.84826 0
M  V30 2643 H 253.459 1.24555 2.25486 0
M  V30 2644 H 253.417 -0.24288 3.1346 0
M  V30 2645 N 257.189 -0.644168 1.43834 0
M  V30 2646 C 258.417 -1.43147 1.49387 0
M  V30 2647 C 258.832 -1.88452 0.114583 0
M  V30 2648 O 258.189 -1.60047 -0.876989 0
M  V30 2649 C 258.24 -2.66046 2.44748 0
M  V30 2650 O 257.961 -2.22633 3.77314 0
M  V30 2651 C 259.462 -3.59311 2.59635 0
M  V30 2652 H 256.682 -0.439447 0.507077 0
M  V30 2653 H 259.226 -0.78895 1.88669 0
M  V30 2654 H 257.381 -3.26418 2.08638 0
M  V30 2655 H 257.795 -3.02216 4.28679 0
M  V30 2656 H 259.269 -4.42187 3.30416 0
M  V30 2657 H 259.746 -4.07259 1.64427 0
M  V30 2658 H 260.352 -3.04816 2.96593 0
M  V30 2659 N 258.668 -1.30515 -0.883378 0
M  V30 2660 C 259.631 -1.1701 -1.97082 0
M  V30 2661 C 260.631 -0.10089 -1.60483 0
M  V30 2662 O 261.821 -0.349127 -1.70666 0
M  V30 2663 C 258.953 -0.793045 -3.31547 0
M  V30 2664 H 260.146 -2.13622 -2.10489 0
M  V30 2665 H 257.699 -1.13935 -1.06998 0
M  V30 2666 H 258.434 0.172499 -3.23841 0
M  V30 2667 H 258.219 -1.56576 -3.5948 0
M  V30 2668 H 259.709 -0.722073 -4.1131 0
M  V30 2669 N 260.146 1.09593 -1.13257 0
M  V30 2670 C 261.557 1.63229 -0.906274 0
M  V30 2671 C 261.908 1.8811 0.557578 0
M  V30 2672 O 261.033 1.62953 1.42391 0
M  V30 2673 C 261.628 2.96535 -1.63867 0
M  V30 2674 C 260.187 3.47003 -1.45828 0
M  V30 2675 C 259.334 2.2145 -1.66898 0
M  V30 2676 H 262.285 0.92978 -1.28611 0
M  V30 2677 H 262.306 3.64411 -1.09476 0
M  V30 2678 H 261.818 2.78394 -2.70404 0
M  V30 2679 H 259.919 3.70272 -0.415848 0
M  V30 2680 H 260.032 4.24551 -2.2202 0
M  V30 2681 H 258.396 2.30022 -1.09371 0
M  V30 2682 H 259.179 2.0583 -2.74752 0
M  V30 2683 N 261.624 0.925811 1.2754 0
M  V30 2684 C 262.587 0.428129 2.25166 0
M  V30 2685 C 263.587 -0.452261 1.54309 0
M  V30 2686 O 264.777 -0.253608 1.72344 0
M  V30 2687 C 261.909 -0.384749 3.38722 0
M  V30 2688 H 263.102 1.29066 2.70706 0
M  V30 2689 H 260.655 0.706323 1.3943 0
M  V30 2690 H 261.39 -1.26618 2.98561 0
M  V30 2691 H 261.175 0.246454 3.91325 0
M  V30 2692 H 262.665 -0.723389 4.11287 0
M  V30 2693 N 263.102 -1.41638 0.69111 0
M  V30 2694 C 264.034 -2.29194 -0.0161523 0
M  V30 2695 C 265.047 -1.44549 -0.748955 0
M  V30 2696 O 266.236 -1.681 -0.6004 0
M  V30 2697 C 263.336 -3.22325 -1.0469 0
M  V30 2698 C 262.509 -4.35706 -0.384621 0
M  V30 2699 C 261.568 -5.09443 -1.31737 0
M  V30 2700 O 260.594 -5.63386 -0.811451 0
M  V30 2701 N 261.796 -5.16487 -2.64993 0
M  V30 2702 H 264.561 -2.90534 0.735523 0
M  V30 2703 H 262.122 -1.52742 0.53679 0
M  V30 2704 H 264.114 -3.68522 -1.67252 0
M  V30 2705 H 262.684 -2.62323 -1.70015 0
M  V30 2706 H 261.904 -3.91948 0.420804 0
M  V30 2707 H 263.192 -5.08743 0.0760765 0
M  V30 2708 H 262.59 -4.741 -3.08619 0
M  V30 2709 H 261.147 -5.66276 -3.22761 0
M  V30 2710 N 264.58 -0.43555 -1.51462 0
M  V30 2711 C 265.826 0.131709 -2.02372 0
M  V30 2712 C 266.159 1.42516 -1.3192 0
M  V30 2713 O 265.434 1.89606 -0.433573 0
M  V30 2714 C 265.717 0.352301 -3.58373 0
M  V30 2715 C 265.57 -0.959676 -4.39443 0
M  V30 2716 C 266.889 1.12286 -4.25535 0
M  V30 2717 H 264.008 0.0463936 -0.735538 0
M  V30 2718 H 266.65 -0.574197 -1.81116 0
M  V30 2719 H 264.8 0.9536 -3.76615 0
M  V30 2720 H 266.472 -1.59482 -4.32855 0
M  V30 2721 H 264.715 -1.56468 -4.04599 0
M  V30 2722 H 265.386 -0.759394 -5.46752 0
M  V30 2723 H 267.862 0.613545 -4.11552 0
M  V30 2724 H 266.738 1.24598 -5.34571 0
M  V30 2725 H 266.999 2.15048 -3.86273 0
M  V30 2726 N 266.058 1.56714 -0.166846 0
M  V30 2727 C 267.469 1.83378 0.350646 0
M  V30 2728 C 267.82 1.08646 1.63372 0
M  V30 2729 O 266.945 0.338058 2.13743 0
M  V30 2730 C 267.54 3.32643 0.642963 0
M  V30 2731 C 266.099 3.59818 1.10491 0
M  V30 2732 C 265.246 2.76954 0.138411 0
M  V30 2733 H 268.197 1.53803 -0.391193 0
M  V30 2734 H 268.218 3.49878 1.49551 0
M  V30 2735 H 267.73 3.87007 -0.291055 0
M  V30 2736 H 265.831 3.1086 2.05418 0
M  V30 2737 H 265.944 4.68178 1.01716 0
M  V30 2738 H 264.308 2.4666 0.634911 0
M  V30 2739 H 265.091 3.34097 -0.789549 0
M  V30 2740 N 267.536 -0.106894 1.57237 0
M  V30 2741 C 268.468 -1.15646 1.97885 0
M  V30 2742 C 269.481 -1.36981 0.879779 0
M  V30 2743 O 270.67 -1.35841 1.15799 0
M  V30 2744 C 267.77 -2.51425 2.27241 0
M  V30 2745 C 266.943 -2.50529 3.58545 0
M  V30 2746 C 266.002 -3.68145 3.75973 0
M  V30 2747 O 265.028 -3.51176 4.47956 0
M  V30 2748 N 266.23 -4.87177 3.15656 0
M  V30 2749 H 268.995 -0.81059 2.8853 0
M  V30 2750 H 266.556 -0.296024 1.59171 0
M  V30 2751 H 268.548 -3.28689 2.36105 0
M  V30 2752 H 267.118 -2.78147 1.42663 0
M  V30 2753 H 266.338 -1.58894 3.60758 0
M  V30 2754 H 267.626 -2.46997 4.44826 0
M  V30 2755 H 267.024 -5.03868 2.57165 0
M  V30 2756 H 265.581 -5.62075 3.30023 0
M  V30 2757 N 269.014 -1.53014 -0.377408 0
M  V30 2758 C 270.291 -1.59215 -1.13622 0
M  V30 2759 C 270.671 -0.392407 -2.07421 0
M  V30 2760 O 270.019 0.618342 -2.19975 0
M  V30 2761 C 270.229 -2.93669 -1.88573 0
M  V30 2762 C 271.577 -3.47822 -2.43526 0
M  V30 2763 O 272.601 -2.9562 -1.98715 0
M  V30 2764 O 271.46 -4.39055 -3.25412 0
M  V30 2765 H 268.554 -0.642625 -0.52054 0
M  V30 2766 H 271.1 -1.65353 -0.381625 0
M  V30 2767 H 269.872 -3.7243 -1.20048 0
M  V30 2768 H 269.495 -2.90968 -2.70968 0
M  V30 2769 N 270.492 0.636531 -1.44174 0
M  V30 2770 C 271.422 1.76003 -1.53444 0
M  V30 2771 C 272.403 1.65619 -0.387841 0
M  V30 2772 O 273.588 1.84461 -0.607257 0
M  V30 2773 C 270.718 3.14511 -1.4731 0
M  V30 2774 C 269.672 3.39677 -2.60391 0
M  V30 2775 C 268.998 4.78159 -2.39308 0
M  V30 2776 C 270.298 3.32772 -4.02567 0
M  V30 2777 H 271.992 1.68501 -2.47483 0
M  V30 2778 H 269.538 0.809237 -1.19111 0
M  V30 2779 H 271.491 3.92878 -1.52397 0
M  V30 2780 H 270.215 3.22783 -0.49785 0
M  V30 2781 H 268.874 2.63688 -2.54684 0
M  V30 2782 H 268.522 4.83128 -1.39988 0
M  V30 2783 H 268.222 4.95956 -3.15122 0
M  V30 2784 H 269.746 5.58762 -2.46205 0
M  V30 2785 H 271.16 4.01051 -4.09672 0
M  V30 2786 H 269.557 3.62104 -4.7854 0
M  V30 2787 H 270.627 2.30669 -4.2652 0
M  V30 2788 N 271.97 1.30982 0.876444 0
M  V30 2789 C 273.218 1.20058 1.62575 0
M  V30 2790 C 273.539 -0.242947 1.93481 0
M  V30 2791 O 272.809 -1.1619 1.57724 0
M  V30 2792 H 271.389 0.44135 0.602677 0
M  V30 2793 H 274.051 1.64222 1.04962 0
M  V30 2794 H 273.147 1.76762 2.57219 0
M  V30 2795 N 273.449 -1.08991 1.13837 0
M  V30 2796 C 274.359 -2.19301 0.833333 0
M  V30 2797 C 275.375 -1.73026 -0.183847 0
M  V30 2798 O 276.551 -2.01395 -0.0138092 0
M  V30 2799 C 273.616 -3.45323 0.308651 0
M  V30 2800 C 272.677 -4.06255 1.38764 0
M  V30 2801 C 271.91 -5.26262 0.887896 0
M  V30 2802 O 272.133 -5.69747 -0.27287 0
M  V30 2803 O 271.067 -5.78435 1.66421 0
M  V30 2804 H 274.893 -2.47854 1.75506 0
M  V30 2805 H 272.478 -1.18012 0.916166 0
M  V30 2806 H 274.36 -4.21394 0.0216739 0
M  V30 2807 H 273.035 -3.18362 -0.585431 0
M  V30 2808 H 271.942 -3.318 1.72799 0
M  V30 2809 H 273.275 -4.37452 2.25602 0
M  V30 2810 N 274.927 -0.932562 -1.27047 0
M  V30 2811 C 276.176 -0.571351 -1.93439 0
M  V30 2812 C 276.489 0.892467 -1.74053 0
M  V30 2813 O 277.695 1.36267 -2.34826 0
M  V30 2814 C 276.151 -0.97106 -3.46552 0
M  V30 2815 C 275.759 -2.4559 -3.74686 0
M  V30 2816 C 277.503 -0.681333 -4.18997 0
M  V30 2817 C 275.41 -2.79475 -5.21198 0
M  V30 2818 H 274.34 -0.209966 -0.724176 0
M  V30 2819 H 276.991 -1.13403 -1.44263 0
M  V30 2820 H 275.373 -0.336983 -3.94564 0
M  V30 2821 H 276.547 -3.13829 -3.37414 0
M  V30 2822 H 274.862 -2.71802 -3.15456 0
M  V30 2823 H 277.459 -0.910939 -5.26883 0
M  V30 2824 H 277.802 0.381628 -4.14547 0
M  V30 2825 H 278.335 -1.27473 -3.76823 0
M  V30 2826 H 275.074 -3.847 -5.30741 0
M  V30 2827 H 274.594 -2.1589 -5.596 0
M  V30 2828 H 276.273 -2.67478 -5.89122 0
M  V30 2829 N 276.405 1.4127 -0.698611 0
M  V30 2830 C 277.651 2.01478 -0.231207 0
M  V30 2831 C 277.984 1.55215 1.16713 0
M  V30 2832 O 277.259 0.764672 1.78838 0
M  V30 2833 C 277.542 3.58912 -0.292281 0
M  V30 2834 C 277.395 4.15293 -1.72778 0
M  V30 2835 C 278.714 4.38736 0.346194 0
M  V30 2836 H 275.833 0.732025 -0.0854878 0
M  V30 2837 H 278.475 1.67977 -0.887906 0
M  V30 2838 H 276.625 3.87582 0.26686 0
M  V30 2839 H 278.297 3.97486 -2.341 0
M  V30 2840 H 276.54 3.7022 -2.26096 0
M  V30 2841 H 277.211 5.24452 -1.72202 0
M  V30 2842 H 279.687 4.15897 -0.130035 0
M  V30 2843 H 278.563 5.48221 0.272932 0
M  V30 2844 H 278.824 4.18425 1.42734 0
M  V30 2845 N 277.883 0.443576 1.51229 0
M  V30 2846 C 279.131 -0.120557 2.0174 0
M  V30 2847 C 279.452 -1.42665 1.32935 0
M  V30 2848 O 278.722 -1.9028 0.465866 0
M  V30 2849 H 277.302 -0.0475426 0.745486 0
M  V30 2850 H 279.964 0.587711 1.85828 0
M  V30 2851 H 279.06 -0.291972 3.10731 0
M  V30 2852 N 279.361 -1.56624 0.175154 0
M  V30 2853 C 280.586 -2.01813 -0.478137 0
M  V30 2854 C 281.011 -1.05457 -1.55757 0
M  V30 2855 O 280.369 -0.0347439 -1.81267 0
M  V30 2856 C 280.417 -3.45581 -1.02987 0
M  V30 2857 O 279.521 -3.52305 -2.14371 0
M  V30 2858 H 278.862 -0.65413 -0.114059 0
M  V30 2859 H 281.392 -2.02673 0.280173 0
M  V30 2860 H 281.402 -3.84965 -1.35151 0
M  V30 2861 H 280.077 -4.1521 -0.239556 0
M  V30 2862 H 278.654 -3.24783 -1.83222 0
M  V30 2863 N 280.839 0.0985539 -1.57292 0
M  V30 2864 C 282.085 0.803867 -1.86188 0
M  V30 2865 C 282.418 1.78549 -0.763794 0
M  V30 2866 O 281.693 1.93153 0.22855 0
M  V30 2867 C 281.976 1.53568 -3.25713 0
M  V30 2868 C 281.829 0.572277 -4.46145 0
M  V30 2869 C 283.148 2.48708 -3.63087 0
M  V30 2870 H 280.267 0.290781 -0.677211 0
M  V30 2871 H 282.909 0.0675783 -1.8988 0
M  V30 2872 H 281.059 2.16332 -3.22696 0
M  V30 2873 H 282.731 -0.0480894 -4.61275 0
M  V30 2874 H 280.974 -0.114618 -4.33649 0
M  V30 2875 H 281.645 1.12139 -5.40489 0
M  V30 2876 H 284.121 1.96039 -3.67026 0
M  V30 2877 H 282.997 2.96932 -4.61652 0
M  V30 2878 H 283.258 3.32309 -2.91588 0
M  V30 2879 N 282.317 1.53212 0.369288 0
M  V30 2880 C 283.247 1.82365 1.45826 0
M  V30 2881 C 284.228 0.676907 1.56051 0
M  V30 2882 O 285.413 0.926401 1.70679 0
M  V30 2883 C 282.543 2.01023 2.83208 0
M  V30 2884 C 281.497 3.1678 2.8781 0
M  V30 2885 C 280.823 3.20724 4.27832 0
M  V30 2886 C 282.123 4.55447 2.55667 0
M  V30 2887 H 283.817 2.73559 1.21678 0
M  V30 2888 H 281.363 1.3163 0.583911 0
M  V30 2889 H 283.316 2.20001 3.59413 0
M  V30 2890 H 282.04 1.06536 3.08736 0
M  V30 2891 H 280.699 2.97616 2.14056 0
M  V30 2892 H 280.347 2.23882 4.50429 0
M  V30 2893 H 280.047 3.98496 4.31827 0
M  V30 2894 H 281.571 3.41881 5.05915 0
M  V30 2895 H 282.985 4.74611 3.21586 0
M  V30 2896 H 281.382 5.35432 2.70984 0
M  V30 2897 H 282.452 4.60812 1.5093 0
M  V30 2898 N 283.795 -0.628877 1.44509 0
M  V30 2899 C 285.043 -1.38565 1.4712 0
M  V30 2900 C 285.364 -1.94712 0.105899 0
M  V30 2901 O 284.634 -1.75912 -0.862079 0
M  V30 2902 H 283.214 -0.514333 0.541729 0
M  V30 2903 H 285.876 -0.740018 1.80305 0
M  V30 2904 H 284.972 -2.21583 2.19789 0
M  V30 2905 N 285.273 -1.31445 -0.869486 0
M  V30 2906 C 286.203 -1.21727 -1.99261 0
M  V30 2907 C 287.184 -0.104359 -1.6978 0
M  V30 2908 O 288.369 -0.289038 -1.92037 0
M  V30 2909 C 285.499 -0.924317 -3.34774 0
M  V30 2910 C 284.453 -1.99685 -3.78563 0
M  V30 2911 C 283.779 -1.55658 -5.11541 0
M  V30 2912 C 285.079 -3.41003 -3.95619 0
M  V30 2913 H 286.773 -2.1569 -2.07649 0
M  V30 2914 H 284.319 -1.03839 -0.997675 0
M  V30 2915 H 286.272 -0.842934 -4.12883 0
M  V30 2916 H 284.996 0.0509793 -3.2656 0
M  V30 2917 H 283.655 -2.06813 -3.02694 0
M  V30 2918 H 283.303 -0.569132 -4.9977 0
M  V30 2919 H 283.003 -2.27409 -5.41811 0
M  V30 2920 H 284.527 -1.48928 -5.92159 0
M  V30 2921 H 285.941 -3.36547 -4.64122 0
M  V30 2922 H 284.338 -4.10975 -4.37286 0
M  V30 2923 H 285.408 -3.81754 -2.98985 0
M  V30 2924 N 286.751 1.08385 -1.14413 0
M  V30 2925 C 287.683 2.1519 -0.789036 0
M  V30 2926 C 288.696 1.61638 0.19417 0
M  V30 2927 O 289.885 1.78479 -0.0275711 0
M  V30 2928 C 286.985 3.38565 -0.15058 0
M  V30 2929 C 286.158 4.21501 -1.16857 0
M  V30 2930 C 285.217 5.23277 -0.553832 0
M  V30 2931 O 284.243 5.56041 -1.21686 0
M  V30 2932 N 285.445 5.76629 0.669296 0
M  V30 2933 H 288.21 2.46257 -1.70814 0
M  V30 2934 H 285.771 1.24198 -1.03858 0
M  V30 2935 H 287.763 4.03777 0.273181 0
M  V30 2936 H 286.333 3.05299 0.671667 0
M  V30 2937 H 285.553 3.52265 -1.76926 0
M  V30 2938 H 286.841 4.73731 -1.85624 0
M  V30 2939 H 286.239 5.52243 1.22654 0
M  V30 2940 H 284.796 6.43521 1.03556 0
M  V30 2941 N 288.23 0.939286 1.26551 0
M  V30 2942 C 289.178 0.43815 2.28436 0
M  V30 2943 C 290.172 -0.483587 1.62351 0
M  V30 2944 O 291.378 -0.362009 1.76322 0
M  V30 2945 H 287.753 0.123149 0.741848 0
M  V30 2946 H 289.724 1.31002 2.68106 0
M  V30 2947 C 288.473 -0.283052 3.46546 0
M  V30 2948 H 287.796 0.417043 3.97619 0
M  V30 2949 H 289.236 -0.597948 4.19763 0
M  V30 2950 C 287.695 -1.50018 3.01656 0
M  V30 2951 O 288.225 -2.59855 3.0633 0
M  V30 2952 N 286.431 -1.35608 2.57019 0
M  V30 2953 H 285.978 -0.46244 2.53415 0
M  V30 2954 H 285.936 -2.17165 2.27347 0
M  V30 2955 N 289.708 -1.40897 0.706093 0
M  V30 2956 C 290.954 -2.01352 0.241889 0
M  V30 2957 C 291.287 -1.55832 -1.15888 0
M  V30 2958 O 290.562 -0.774145 -1.7843 0
M  V30 2959 C 290.845 -3.58752 0.311311 0
M  V30 2960 C 290.698 -4.1437 1.74978 0
M  V30 2961 C 292.017 -4.38914 -0.322922 0
M  V30 2962 H 289.136 -0.731562 0.0893687 0
M  V30 2963 H 291.778 -1.67504 0.896802 0
M  V30 2964 H 289.928 -3.87718 -0.246302 0
M  V30 2965 H 291.6 -3.96239 2.36205 0
M  V30 2966 H 289.843 -3.69016 2.28057 0
M  V30 2967 H 290.514 -5.23532 1.74981 0
M  V30 2968 H 292.99 -4.15822 0.152089 0
M  V30 2969 H 291.866 -5.48358 -0.243855 0
M  V30 2970 H 292.127 -4.19176 -1.40513 0
M  V30 2971 N 291.186 -0.45159 -1.50991 0
M  V30 2972 C 292.414 0.108334 -2.06616 0
M  V30 2973 C 292.829 1.35224 -1.31757 0
M  V30 2974 O 292.186 1.78475 -0.381174 0
M  V30 2975 C 292.237 0.41619 -3.59096 0
M  V30 2976 O 291.958 -0.778361 -4.3113 0
M  V30 2977 C 293.459 1.02523 -4.31282 0
M  V30 2978 H 290.679 0.00159995 -0.670998 0
M  V30 2979 H 293.223 -0.634771 -1.94399 0
M  V30 2980 H 291.378 1.10921 -3.71181 0
M  V30 2981 H 291.792 -0.511181 -5.22003 0
M  V30 2982 H 293.266 1.19053 -5.39009 0
M  V30 2983 H 293.743 2.01013 -3.905 0
M  V30 2984 H 294.349 0.371173 -4.23677 0
M  V30 2985 N 292.664 1.56529 -0.183458 0
M  V30 2986 C 294.08 1.58664 0.172554 0
M  V30 2987 C 294.28 1.19925 1.61926 0
M  V30 2988 O 293.336 0.916534 2.35278 0
M  V30 2989 C 294.649 3.00463 -0.119262 0
M  V30 2990 C 296.197 3.12945 -0.0584396 0
M  V30 2991 C 296.672 4.56857 -0.323408 0
M  V30 2992 N 298.163 4.62403 -0.271612 0
M  V30 2993 C 298.898 5.71626 -0.450639 0
M  V30 2994 N 298.394 6.89362 -0.689384 0
M  V30 2995 N 300.187 5.60775 -0.385701 0
M  V30 2996 H 292.338 1.79994 -1.12765 0
M  V30 2997 H 294.601 0.834808 -0.449222 0
M  V30 2998 H 294.307 3.33326 -1.12192 0
M  V30 2999 H 294.181 3.72659 0.583544 0
M  V30 3000 H 296.568 2.79902 0.934805 0
M  V30 3001 H 296.649 2.4316 -0.794144 0
M  V30 3002 H 296.293 4.9061 -1.31392 0
M  V30 3003 H 296.223 5.24816 0.43305 0
M  V30 3004 H 298.714 3.77785 -0.0932256 0
M  V30 3005 H 299.027 7.68489 -0.815113 0
M  V30 3006 H 297.372 6.91196 -0.726142 0
M  V30 3007 H 300.563 4.67674 -0.199687 0
M  V30 3008 H 300.736 6.4584 -0.528646 0
M  V30 3009 N 294.142 -0.090211 1.57342 0
M  V30 3010 C 295.105 -1.09335 2.01441 0
M  V30 3011 C 296.105 -1.32666 0.908641 0
M  V30 3012 O 297.295 -1.28697 1.174 0
M  V30 3013 C 294.427 -2.44136 2.3793 0
M  V30 3014 H 295.62 -0.713662 2.91285 0
M  V30 3015 H 293.173 -0.335404 1.52659 0
M  V30 3016 H 293.908 -2.86972 1.51055 0
M  V30 3017 H 293.693 -2.28548 3.18603 0
M  V30 3018 H 295.183 -3.16277 2.72688 0
M  V30 3019 N 295.62 -1.53406 -0.361157 0
M  V30 3020 C 296.57 -1.76536 -1.44287 0
M  V30 3021 C 297.554 -0.620019 -1.48474 0
M  V30 3022 O 298.746 -0.878834 -1.53641 0
M  V30 3023 C 295.875 -1.96266 -2.81664 0
M  V30 3024 C 294.961 -3.16815 -2.81938 0
M  V30 3025 N 295.352 -4.38637 -2.51855 0
M  V30 3026 C 293.65 -3.17627 -3.13096 0
M  V30 3027 C 294.351 -5.20401 -2.59919 0
M  V30 3028 N 293.327 -4.56712 -2.94814 0
M  V30 3029 H 297.129 -2.68331 -1.19899 0
M  V30 3030 H 294.643 -1.52091 -0.56938 0
M  V30 3031 H 296.64 -2.10966 -3.59582 0
M  V30 3032 H 295.3 -1.05702 -3.07013 0
M  V30 3033 H 296.311 -4.66293 -2.25369 0
M  V30 3034 H 292.988 -2.36971 -3.43731 0
M  V30 3035 H 294.378 -6.27586 -2.39969 0
M  V30 3036 N 297.098 0.621204 -1.44841 0
M  V30 3037 C 298.509 1.20298 -1.42777 0
M  V30 3038 C 298.86 1.95639 -0.148259 0
M  V30 3039 O 297.985 2.02955 0.750892 0
M  V30 3040 C 298.58 2.1882 -2.58657 0
M  V30 3041 C 297.139 2.72403 -2.59756 0
M  V30 3042 C 296.286 1.4757 -2.34773 0
M  V30 3043 H 299.237 0.411297 -1.53278 0
M  V30 3044 H 299.258 3.01607 -2.31977 0
M  V30 3045 H 298.77 1.63957 -3.51766 0
M  V30 3046 H 296.871 3.31242 -1.70615 0
M  V30 3047 H 296.984 3.17765 -3.58556 0
M  V30 3048 H 295.348 1.76051 -1.8406 0
M  V30 3049 H 296.131 0.945954 -3.3001 0
M  V30 3050 N 298.576 1.31904 0.862503 0
M  V30 3051 C 299.509 1.14514 1.97388 0
M  V30 3052 C 300.487 0.0466493 1.62533 0
M  V30 3053 O 301.671 0.204484 1.87388 0
M  V30 3054 C 298.798 0.751347 3.30261 0
M  V30 3055 C 297.844 1.85395 3.84098 0
M  V30 3056 S 298.677 3.46081 4.08642 0
M  V30 3057 C 299.833 3.08655 5.44502 0
M  V30 3058 H 300.066 2.08597 2.11836 0
M  V30 3059 H 297.599 1.16475 1.01356 0
M  V30 3060 H 299.557 0.530901 4.07052 0
M  V30 3061 H 298.218 -0.170493 3.13637 0
M  V30 3062 H 297.411 1.53122 4.80177 0
M  V30 3063 H 297.013 2.02984 3.14123 0
M  V30 3064 H 299.305 2.58012 6.26447 0
M  V30 3065 H 300.248 4.03726 5.81731 0
M  V30 3066 H 300.656 2.45891 5.08132 0
M  V30 3067 N 300.054 -1.07777 1.14986 0
M  V30 3068 C 300.984 -2.16865 0.865557 0
M  V30 3069 C 301.965 -1.69123 -0.182083 0
M  V30 3070 O 303.15 -1.94164 -0.0373815 0
M  V30 3071 C 300.28 -3.45539 0.349313 0
M  V30 3072 C 299.234 -4.06708 1.33313 0
M  V30 3073 C 298.56 -5.30411 0.675918 0
M  V30 3074 C 299.86 -4.47241 2.69764 0
M  V30 3075 H 301.554 -2.40905 1.77778 0
M  V30 3076 H 299.1 -1.15781 0.856203 0
M  V30 3077 H 301.053 -4.21174 0.137983 0
M  V30 3078 H 299.777 -3.21072 -0.598362 0
M  V30 3079 H 298.436 -3.33112 1.53075 0
M  V30 3080 H 298.084 -5.02232 -0.277767 0
M  V30 3081 H 297.784 -5.72293 1.33244 0
M  V30 3082 H 299.308 -6.08755 0.474262 0
M  V30 3083 H 300.722 -5.14025 2.53873 0
M  V30 3084 H 299.119 -5.00062 3.3175 0
M  V30 3085 H 300.189 -3.58818 3.26156 0
M  V30 3086 N 301.532 -0.945985 -1.26051 0
M  V30 3087 C 302.479 -0.45809 -2.26208 0
M  V30 3088 C 303.449 0.484816 -1.58867 0
M  V30 3089 O 304.634 0.399969 -1.86561 0
M  V30 3090 C 301.774 0.266131 -3.44072 0
M  V30 3091 C 300.887 -0.713005 -4.26075 0
M  V30 3092 C 300.022 0.0329013 -5.3119 0
M  V30 3093 C 299.061 -0.93774 -6.04874 0
M  V30 3094 N 298.198 -0.223274 -7.01745 0
M  V30 3095 H 303.038 -1.3171 -2.67313 0
M  V30 3096 H 300.575 -0.66069 -1.31428 0
M  V30 3097 H 302.533 0.702514 -4.11243 0
M  V30 3098 H 301.163 1.08925 -3.03867 0
M  V30 3099 H 300.215 -1.26789 -3.58648 0
M  V30 3100 H 301.527 -1.45406 -4.77136 0
M  V30 3101 H 300.681 0.528335 -6.04395 0
M  V30 3102 H 299.42 0.806801 -4.8098 0
M  V30 3103 H 298.425 -1.44425 -5.30492 0
M  V30 3104 H 299.65 -1.71172 -6.57173 0
M  V30 3105 H 297.596 0.532046 -6.53839 0
M  V30 3106 H 297.513 -0.90357 -7.50581 0
M  V30 3107 H 298.781 0.250907 -7.79096 0
M  V30 3108 N 303.011 1.40521 -0.713556 0
M  V30 3109 C 304.257 2.01221 -0.252564 0
M  V30 3110 C 304.59 1.56444 1.1506 0
M  V30 3111 O 303.865 0.783597 1.78017 0
M  V30 3112 C 304.148 3.58582 -0.330332 0
M  V30 3113 C 304.001 4.13437 -1.77173 0
M  V30 3114 C 305.32 4.39079 0.299641 0
M  V30 3115 H 302.439 0.731077 -0.0932471 0
M  V30 3116 H 305.081 1.67026 -0.905673 0
M  V30 3117 H 303.231 3.87844 0.225737 0
M  V30 3118 H 304.903 3.9498 -2.38303 0
M  V30 3119 H 303.146 3.67801 -2.3001 0
M  V30 3120 H 303.817 5.22597 -1.77755 0
M  V30 3121 H 306.293 4.15735 -0.174139 0
M  V30 3122 H 305.169 5.4848 0.214771 0
M  V30 3123 H 305.43 4.19915 1.38288 0
M  V30 3124 N 304.489 0.459591 1.5075 0
M  V30 3125 C 305.737 -0.0991532 2.01857 0
M  V30 3126 C 306.058 -1.41247 1.34441 0
M  V30 3127 O 305.328 -1.89775 0.486022 0
M  V30 3128 H 303.908 -0.039633 0.745948 0
M  V30 3129 H 306.57 0.607387 1.85194 0
M  V30 3130 H 305.666 -0.258998 3.11023 0
M  V30 3131 N 305.967 -1.56429 0.191757 0
M  V30 3132 C 306.877 -2.22541 -0.742481 0
M  V30 3133 C 307.893 -1.22342 -1.23727 0
M  V30 3134 O 309.069 -1.55069 -1.28513 0
M  V30 3135 C 306.134 -2.8692 -1.94623 0
M  V30 3136 C 305.195 -4.02378 -1.49633 0
M  V30 3137 C 304.428 -4.63678 -2.6427 0
M  V30 3138 O 304.651 -4.23895 -3.81666 0
M  V30 3139 O 303.585 -5.53202 -2.37174 0
M  V30 3140 H 307.411 -3.02977 -0.209462 0
M  V30 3141 H 304.996 -1.49353 -0.0373832 0
M  V30 3142 H 306.878 -3.27663 -2.64982 0
M  V30 3143 H 305.553 -2.09466 -2.46791 0
M  V30 3144 H 304.46 -3.66265 -0.761636 0
M  V30 3145 H 305.793 -4.81487 -1.02134 0
M  V30 3146 N 307.445 0.0818655 -1.57387 0
M  V30 3147 C 308.861 0.436412 -1.53517 0
M  V30 3148 C 309.061 1.79758 -0.910459 0
M  V30 3149 O 308.117 2.47324 -0.508636 0
M  V30 3150 C 309.43 0.386734 -2.98203 0
M  V30 3151 C 310.978 0.467644 -3.09487 0
M  V30 3152 C 311.453 0.447978 -4.55804 0
M  V30 3153 N 312.944 0.508348 -4.60402 0
M  V30 3154 C 313.679 0.515184 -5.71081 0
M  V30 3155 N 313.175 0.477435 -6.91153 0
M  V30 3156 N 314.968 0.560988 -5.59294 0
M  V30 3157 H 307.119 -0.809546 -1.96367 0
M  V30 3158 H 309.382 -0.302733 -0.898363 0
M  V30 3159 H 309.088 -0.546539 -3.47427 0
M  V30 3160 H 308.962 1.20075 -3.57578 0
M  V30 3161 H 311.349 1.39134 -2.60242 0
M  V30 3162 H 311.43 -0.374753 -2.5304 0
M  V30 3163 H 311.074 -0.471826 -5.05704 0
M  V30 3164 H 311.004 1.30777 -5.10103 0
M  V30 3165 H 313.495 0.54218 -3.7399 0
M  V30 3166 H 313.808 0.486299 -7.71268 0
M  V30 3167 H 312.153 0.444278 -6.93579 0
M  V30 3168 H 315.344 0.5881 -4.64391 0
M  V30 3169 H 315.517 0.562846 -6.45551 0
M  V30 3170 N 308.923 1.53595 0.353017 0
M  V30 3171 C 310.148 1.7462 1.11904 0
M  V30 3172 C 310.573 0.479721 1.8188 0
M  V30 3173 O 309.931 -0.567066 1.72204 0
M  V30 3174 C 309.979 2.92029 2.11545 0
M  V30 3175 O 309.083 2.61516 3.18878 0
M  V30 3176 H 308.424 0.579531 0.324099 0
M  V30 3177 H 310.954 2.00525 0.406301 0
M  V30 3178 H 310.964 3.18551 2.5493 0
M  V30 3179 H 309.639 3.83888 1.60008 0
M  V30 3180 H 308.216 2.45852 2.80377 0
M  V30 3181 N 310.401 -0.613514 1.45168 0
M  V30 3182 C 311.364 -1.7065 1.53007 0
M  V30 3183 C 312.364 -1.5548 0.410184 0
M  V30 3184 O 313.554 -1.60656 0.673455 0
M  V30 3185 C 310.686 -3.09875 1.42093 0
M  V30 3186 H 311.879 -1.65068 2.50385 0
M  V30 3187 H 309.432 -0.828728 1.32521 0
M  V30 3188 H 310.167 -3.21039 0.458769 0
M  V30 3189 H 309.952 -3.22293 2.23315 0
M  V30 3190 H 311.442 -3.895 1.50598 0
M  V30 3191 N 311.879 -1.3236 -0.855495 0
M  V30 3192 C 312.842 -1.21164 -1.94556 0
M  V30 3193 C 313.842 -0.134908 -1.60233 0
M  V30 3194 O 315.032 -0.385249 -1.69887 0
M  V30 3195 C 312.164 -0.863192 -3.29791 0
M  V30 3196 H 313.357 -2.18038 -2.05911 0
M  V30 3197 H 310.91 -1.16179 -1.04557 0
M  V30 3198 H 311.645 0.103769 -3.24134 0
M  V30 3199 H 311.43 -1.64166 -3.56078 0
M  V30 3200 H 312.92 -0.809156 -4.09686 0
M  V30 3201 N 313.357 1.07166 -1.15556 0
M  V30 3202 C 314.304 2.14417 -0.854055 0
M  V30 3203 C 315.274 1.64965 0.193806 0
M  V30 3204 O 316.459 1.90703 0.0609443 0
M  V30 3205 C 313.599 3.43304 -0.351574 0
M  V30 3206 C 312.712 4.06537 -1.46123 0
M  V30 3207 C 311.847 5.23266 -0.914677 0
M  V30 3208 C 310.886 5.78464 -2.00114 0
M  V30 3209 N 310.023 6.86521 -1.47083 0
M  V30 3210 H 314.863 2.39548 -1.77259 0
M  V30 3211 H 312.4 1.17543 -0.884425 0
M  V30 3212 H 314.358 4.17179 -0.0419409 0
M  V30 3213 H 312.988 3.18419 0.530037 0
M  V30 3214 H 312.04 3.30297 -1.88701 0
M  V30 3215 H 313.352 4.43567 -2.28144 0
M  V30 3216 H 312.506 6.04131 -0.557698 0
M  V30 3217 H 311.245 4.87658 -0.0636583 0
M  V30 3218 H 310.25 4.96243 -2.36692 0
M  V30 3219 H 311.475 6.16126 -2.85597 0
M  V30 3220 H 309.421 6.52849 -0.642198 0
M  V30 3221 H 309.338 7.22446 -2.22729 0
M  V30 3222 H 310.606 7.71087 -1.14215 0
M  V30 3223 N 314.835 0.952656 1.25548 0
M  V30 3224 C 316.063 0.623496 1.97282 0
M  V30 3225 C 316.478 -0.803987 1.70826 0
M  V30 3226 O 315.835 -1.53755 0.983147 0
M  V30 3227 C 315.886 0.870209 3.5087 0
M  V30 3228 O 315.607 2.24156 3.76412 0
M  V30 3229 C 317.108 0.553164 4.39835 0
M  V30 3230 H 314.328 0.233931 0.628902 0
M  V30 3231 H 316.872 1.27649 1.59768 0
M  V30 3232 H 315.027 0.263652 3.86502 0
M  V30 3233 H 315.441 2.31021 4.70882 0
M  V30 3234 H 316.915 0.776342 5.46513 0
M  V30 3235 H 317.392 -0.512215 4.36203 0
M  V30 3236 H 317.998 1.13896 4.09766 0
M  V30 3237 N 316.313 -1.40141 0.720998 0
M  V30 3238 C 317.243 -2.33339 0.0867621 0
M  V30 3239 C 318.224 -1.53178 -0.739622 0
M  V30 3240 O 319.409 -1.81625 -0.687449 0
M  V30 3241 C 316.539 -3.37194 -0.831728 0
M  V30 3242 C 315.493 -4.27857 -0.110558 0
M  V30 3243 C 314.819 -5.22294 -1.14513 0
M  V30 3244 C 316.119 -5.11872 1.0385 0
M  V30 3245 H 317.813 -2.86626 0.865219 0
M  V30 3246 H 315.359 -1.37814 0.417516 0
M  V30 3247 H 317.312 -4.01335 -1.28485 0
M  V30 3248 H 316.036 -2.82314 -1.64214 0
M  V30 3249 H 314.695 -3.65176 0.322797 0
M  V30 3250 H 314.343 -4.63717 -1.94874 0
M  V30 3251 H 314.043 -5.83797 -0.667446 0
M  V30 3252 H 315.567 -5.89312 -1.59824 0
M  V30 3253 H 316.981 -5.69436 0.664482 0
M  V30 3254 H 315.378 -5.82445 1.4449 0
M  V30 3255 H 316.448 -4.4753 1.86668 0
M  V30 3256 N 317.792 -0.46758 -1.50504 0
M  V30 3257 C 318.755 0.317059 -2.26996 0
M  V30 3258 C 319.755 0.923513 -1.31635 0
M  V30 3259 O 320.945 0.793239 -1.55091 0
M  V30 3260 C 318.077 1.45134 -3.08462 0
M  V30 3261 H 319.27 -0.353723 -2.97807 0
M  V30 3262 H 316.823 -0.221545 -1.54722 0
M  V30 3263 H 317.558 2.15728 -2.4214 0
M  V30 3264 H 317.343 1.02232 -3.78538 0
M  V30 3265 H 318.833 2.00493 -3.66323 0
M  V30 3266 N 319.27 1.56325 -0.20005 0
M  V30 3267 C 320.233 2.18084 0.705132 0
M  V30 3268 C 321.233 1.13666 1.1374 0
M  V30 3269 O 322.423 1.39023 1.04968 0
M  V30 3270 C 319.555 2.78689 1.96329 0
M  V30 3271 H 320.748 2.99435 0.167023 0
M  V30 3272 H 318.301 1.56221 0.0495725 0
M  V30 3273 H 319.036 2.0115 2.5438 0
M  V30 3274 H 318.821 3.55133 1.66202 0
M  V30 3275 H 320.311 3.26096 2.60866 0
M  V30 3276 N 320.748 -0.0735177 1.57428 0
M  V30 3277 C 321.996 -0.771472 1.86796 0
M  V30 3278 C 322.317 -1.78201 0.791804 0
M  V30 3279 O 321.587 -1.95074 -0.179718 0
M  V30 3280 H 320.167 -0.28791 0.689287 0
M  V30 3281 H 322.829 -0.0500161 1.94836 0
M  V30 3282 H 321.925 -1.28874 2.8425 0
M  V30 3283 N 322.226 -1.5378 -0.344866 0
M  V30 3284 C 323.454 -1.74899 -1.10534 0
M  V30 3285 C 323.869 -0.487534 -1.82397 0
M  V30 3286 O 323.226 0.540741 -1.74305 0
M  V30 3287 C 323.277 -2.92822 -2.11984 0
M  V30 3288 O 322.998 -4.14089 -1.43044 0
M  V30 3289 C 324.499 -3.25982 -3.00417 0
M  V30 3290 H 321.719 -0.584426 -0.329678 0
M  V30 3291 H 324.263 -2.006 -0.397474 0
M  V30 3292 H 322.418 -2.69457 -2.78338 0
M  V30 3293 H 322.832 -4.80272 -2.10805 0
M  V30 3294 H 324.306 -4.11848 -3.67539 0
M  V30 3295 H 324.783 -2.42228 -3.66363 0
M  V30 3296 H 325.389 -3.51349 -2.39654 0
M  V30 3297 N 323.704 0.605807 -1.45491 0
M  V30 3298 C 324.667 1.69836 -1.5391 0
M  V30 3299 C 325.667 1.55261 -0.418424 0
M  V30 3300 O 326.857 1.60296 -0.681965 0
M  V30 3301 C 323.989 3.09117 -1.43734 0
M  V30 3302 H 325.182 1.63738 -2.51257 0
M  V30 3303 H 322.735 0.821689 -1.32959 0
M  V30 3304 H 323.47 3.20791 -0.475788 0
M  V30 3305 H 323.255 3.21104 -2.25021 0
M  V30 3306 H 324.745 3.88696 -1.52661 0
M  V30 3307 N 325.182 1.32811 0.848464 0
M  V30 3308 C 326.129 1.22265 1.95755 0
M  V30 3309 C 327.099 0.103413 1.65778 0
M  V30 3310 O 328.284 0.280033 1.88734 0
M  V30 3311 C 325.424 0.958014 3.31536 0
M  V30 3312 C 324.537 2.16262 3.73971 0
M  V30 3313 C 323.672 1.83295 4.98575 0
M  V30 3314 C 322.711 3.00041 5.33518 0
M  V30 3315 N 321.848 2.67125 6.49299 0
M  V30 3316 H 326.688 2.17128 2.04107 0
M  V30 3317 H 324.225 1.07982 0.998913 0
M  V30 3318 H 326.183 0.785052 4.09747 0
M  V30 3319 H 324.813 0.046159 3.22767 0
M  V30 3320 H 323.865 2.44565 2.91362 0
M  V30 3321 H 325.177 3.03572 3.95785 0
M  V30 3322 H 324.331 1.62586 5.84509 0
M  V30 3323 H 323.07 0.932078 4.7871 0
M  V30 3324 H 322.075 3.21374 4.46093 0
M  V30 3325 H 323.3 3.90869 5.55336 0
M  V30 3326 H 321.246 1.79586 6.3094 0
M  V30 3327 H 321.163 3.47965 6.71161 0
M  V30 3328 H 322.431 2.49861 7.3837 0
M  V30 3329 N 326.66 -1.06551 1.16123 0
M  V30 3330 C 327.908 -1.78947 0.939267 0
M  V30 3331 C 328.229 -1.87532 -0.534476 0
M  V30 3332 O 327.499 -1.38211 -1.38833 0
M  V30 3333 H 326.079 -0.662807 0.344523 0
M  V30 3334 H 328.741 -1.28725 1.46342 0
M  V30 3335 H 327.837 -2.81117 1.35572 0
M  V30 3336 N 328.138 -0.959301 -1.25041 0
M  V30 3337 C 329.088 -0.453888 -2.23436 0
M  V30 3338 C 330.072 0.459461 -1.542 0
M  V30 3339 O 331.264 0.291752 -1.74579 0
M  V30 3340 C 328.393 0.262667 -3.42294 0
M  V30 3341 C 327.479 -0.669022 -4.1879 0
M  V30 3342 N 327.87 -1.80267 -4.72586 0
M  V30 3343 C 326.168 -0.47814 -4.4343 0
M  V30 3344 C 326.869 -2.38475 -5.3057 0
M  V30 3345 N 325.845 -1.67078 -5.17287 0
M  V30 3346 H 329.647 -1.319 -2.6264 0
M  V30 3347 H 327.161 -0.817358 -1.40332 0
M  V30 3348 H 329.158 0.641911 -4.11929 0
M  V30 3349 H 327.818 1.12432 -3.04613 0
M  V30 3350 H 328.829 -2.18442 -4.69578 0
M  V30 3351 H 325.506 0.340249 -4.16111 0
M  V30 3352 H 326.896 -3.34094 -5.8295 0
M  V30 3353 N 329.616 1.39756 -0.72842 0
M  V30 3354 C 330.564 2.32485 -0.0731849 0
M  V30 3355 C 331.558 1.52717 0.733063 0
M  V30 3356 O 332.764 1.68428 0.634988 0
M  V30 3357 H 329.139 0.751984 -0.00486469 0
M  V30 3358 H 331.11 2.85382 -0.871761 0
M  V30 3359 C 329.859 3.37773 0.824908 0
M  V30 3360 H 329.182 3.99227 0.213915 0
M  V30 3361 H 330.622 4.05121 1.25111 0
M  V30 3362 C 329.081 2.74287 1.95622 0
M  V30 3363 O 329.611 2.61618 3.04826 0
M  V30 3364 N 327.817 2.32475 1.74367 0
M  V30 3365 H 327.364 2.4298 0.855494 0
M  V30 3366 H 327.322 1.90337 2.50238 0
M  V30 3367 N 331.094 0.475555 1.50254 0
M  V30 3368 C 332.505 0.0215174 1.86688 0
M  V30 3369 C 332.856 -1.38467 1.39001 0
M  V30 3370 O 331.981 -2.02732 0.756894 0
M  V30 3371 C 332.576 0.0322715 3.38785 0
M  V30 3372 C 331.135 -0.366314 3.74613 0
M  V30 3373 C 330.282 0.415832 2.74164 0
M  V30 3374 H 333.233 0.689612 1.42934 0
M  V30 3375 H 333.254 -0.76889 3.7265 0
M  V30 3376 H 332.766 1.05584 3.73462 0
M  V30 3377 H 330.867 -1.39406 3.45538 0
M  V30 3378 H 330.98 -0.064555 4.79057 0
M  V30 3379 H 329.344 -0.131048 2.54363 0
M  V30 3380 H 330.127 1.43899 3.11686 0
M  V30 3381 N 332.573 -1.56217 0.208337 0
M  V30 3382 C 333.801 -2.02337 -0.43215 0
M  V30 3383 C 334.216 -1.08834 -1.54275 0
M  V30 3384 O 333.573 -0.0955462 -1.8225 0
M  V30 3385 C 333.624 -3.48072 -0.976138 0
M  V30 3386 O 333.345 -4.38007 0.0901621 0
M  V30 3387 C 334.846 -4.09773 -1.69119 0
M  V30 3388 H 332.066 -0.662385 -0.10718 0
M  V30 3389 H 334.61 -2.01966 0.320923 0
M  V30 3390 H 332.765 -3.49099 -1.67954 0
M  V30 3391 H 333.179 -5.23543 -0.316701 0
M  V30 3392 H 334.653 -5.13556 -2.02397 0
M  V30 3393 H 335.13 -3.53999 -2.59964 0
M  V30 3394 H 335.736 -4.12556 -1.03332 0
M  V30 3395 N 334.051 0.0651679 -1.57465 0
M  V30 3396 C 334.961 1.09448 -2.07505 0
M  V30 3397 C 335.977 1.41974 -1.00595 0
M  V30 3398 O 337.153 1.52018 -1.32107 0
M  V30 3399 C 334.218 2.38689 -2.51453 0
M  V30 3400 C 333.279 2.13073 -3.72691 0
M  V30 3401 C 332.512 3.36152 -4.14533 0
M  V30 3402 O 332.735 4.45517 -3.56189 0
M  V30 3403 O 331.669 3.23974 -5.07272 0
M  V30 3404 H 335.495 0.69935 -2.95538 0
M  V30 3405 H 333.08 0.279752 -1.46757 0
M  V30 3406 H 334.962 3.14736 -2.80212 0
M  V30 3407 H 333.637 2.77568 -1.66546 0
M  V30 3408 H 332.544 1.34709 -3.49005 0
M  V30 3409 H 333.877 1.79071 -4.5847 0
M  V30 3410 N 335.529 1.53961 0.336706 0
M  V30 3411 C 336.776 1.71536 1.07618 0
M  V30 3412 C 337.104 0.482125 1.8843 0
M  V30 3413 O 336.359 -0.536142 1.88213 0
M  V30 3414 C 336.658 2.93493 2.03953 0
M  V30 3415 C 336.324 4.28811 1.39399 0
M  V30 3416 C 334.986 4.65602 1.21523 0
M  V30 3417 C 337.338 5.12844 0.929541 0
M  V30 3418 C 334.666 5.84037 0.558312 0
M  V30 3419 C 337.018 6.31951 0.286505 0
M  V30 3420 C 335.682 6.67432 0.0954869 0
M  V30 3421 H 334.952 0.627696 0.393801 0
M  V30 3422 H 337.599 1.88186 0.354715 0
M  V30 3423 H 335.904 2.71475 2.82504 0
M  V30 3424 H 337.601 3.04285 2.61174 0
M  V30 3425 H 334.191 3.99858 1.54311 0
M  V30 3426 H 338.375 4.84947 1.05548 0
M  V30 3427 H 333.631 6.10097 0.398995 0
M  V30 3428 H 337.805 6.96352 -0.0814376 0
M  V30 3429 H 335.432 7.59063 -0.415579 0
M  V30 3430 N 337.007 -0.598083 1.45811 0
M  V30 3431 C 338.418 -1.18011 1.44673 0
M  V30 3432 C 338.769 -1.95378 0.179364 0
M  V30 3433 O 337.894 -2.04124 -0.718509 0
M  V30 3434 C 338.489 -2.14677 2.62105 0
M  V30 3435 C 337.048 -2.68236 2.64057 0
M  V30 3436 C 336.195 -1.43816 2.37091 0
M  V30 3437 H 339.146 -0.38686 1.53913 0
M  V30 3438 H 339.167 -2.97878 2.36746 0
M  V30 3439 H 338.679 -1.5834 3.5433 0
M  V30 3440 H 336.78 -3.28486 1.75864 0
M  V30 3441 H 336.893 -3.12021 3.63566 0
M  V30 3442 H 335.257 -1.731 1.86838 0
M  V30 3443 H 336.04 -0.893333 3.31473 0
M  V30 3444 N 338.485 -1.33259 -0.841409 0
M  V30 3445 C 339.713 -1.27605 -1.62864 0
M  V30 3446 C 340.128 0.153507 -1.88175 0
M  V30 3447 O 339.485 1.09485 -1.46011 0
M  V30 3448 C 339.536 -2.04596 -2.98031 0
M  V30 3449 O 339.257 -3.41975 -2.73834 0
M  V30 3450 C 340.758 -2.06122 -3.92465 0
M  V30 3451 H 337.978 -0.439718 -0.506842 0
M  V30 3452 H 340.522 -1.75591 -1.04824 0
M  V30 3453 H 338.677 -1.60299 -3.5268 0
M  V30 3454 H 339.091 -3.81549 -3.59889 0
M  V30 3455 H 340.565 -2.64451 -4.84531 0
M  V30 3456 H 341.042 -1.05083 -4.26444 0
M  V30 3457 H 341.648 -2.50427 -3.43753 0
M  V30 3458 N 339.963 1.05934 -1.16686 0
M  V30 3459 C 341.212 1.78188 -0.945085 0
M  V30 3460 C 341.525 1.88338 0.528021 0
M  V30 3461 O 342.731 2.57258 0.867799 0
M  V30 3462 C 341.187 3.20277 -1.64167 0
M  V30 3463 C 340.795 3.18281 -3.15279 0
M  V30 3464 C 342.539 3.97039 -1.502 0
M  V30 3465 C 340.446 4.55112 -3.7766 0
M  V30 3466 H 339.376 0.667866 -0.349959 0
M  V30 3467 H 342.027 1.18794 -1.39858 0
M  V30 3468 H 340.409 3.79952 -1.11589 0
M  V30 3469 H 341.583 2.68167 -3.74731 0
M  V30 3470 H 339.898 2.55018 -3.29173 0
M  V30 3471 H 342.495 4.98194 -1.94183 0
M  V30 3472 H 342.838 4.13845 -0.451461 0
M  V30 3473 H 343.371 3.43894 -1.99954 0
M  V30 3474 H 340.11 4.43512 -4.82677 0
M  V30 3475 H 339.63 5.05406 -3.22994 0
M  V30 3476 H 341.309 5.24064 -3.79428 0
M  V30 3477 N 341.441 0.965919 1.2453 0
M  V30 3478 C 342.671 0.643451 1.96324 0
M  V30 3479 C 343.079 -0.790927 1.71875 0
M  V30 3480 O 342.422 -1.54208 0.998273 0
M  V30 3481 C 342.484 0.836078 3.49643 0
M  V30 3482 C 342.148 2.24975 3.97788 0
M  V30 3483 C 343.145 3.22735 4.07601 0
M  V30 3484 C 340.83 2.57697 4.31158 0
M  V30 3485 C 342.824 4.51303 4.50116 0
M  V30 3486 C 340.511 3.86492 4.73357 0
M  V30 3487 C 341.509 4.83107 4.828 0
M  V30 3488 O 341.197 6.09605 5.24058 0
M  V30 3489 H 340.929 0.239223 0.632257 0
M  V30 3490 H 343.483 1.29587 1.59362 0
M  V30 3491 H 341.713 0.12649 3.86493 0
M  V30 3492 H 343.402 0.512965 4.02646 0
M  V30 3493 H 344.168 2.98783 3.82039 0
M  V30 3494 H 340.047 1.83216 4.23028 0
M  V30 3495 H 343.591 5.26716 4.57401 0
M  V30 3496 H 339.488 4.10245 4.98366 0
M  V30 3497 H 340.256 6.13146 5.42213 0
M  V30 3498 N 342.919 -1.39368 0.735821 0
M  V30 3499 C 344.196 -1.94465 0.210395 0
M  V30 3500 C 344.576 -1.67254 -1.28799 0
M  V30 3501 O 343.924 -1.00123 -2.05396 0
M  V30 3502 C 344.134 -3.4472 0.544897 0
M  V30 3503 C 345.482 -4.21708 0.494689 0
M  V30 3504 O 346.506 -3.52922 0.482136 0
M  V30 3505 O 345.365 -5.44299 0.489947 0
M  V30 3506 H 342.459 -0.826096 0.0386666 0
M  V30 3507 H 345.005 -1.48863 0.814735 0
M  V30 3508 H 343.777 -3.57963 1.58045 0
M  V30 3509 H 343.4 -3.97502 -0.08837 0
M  V30 3510 N 344.397 -0.483516 -1.5 0
M  V30 3511 C 345.36 0.292965 -2.2732 0
M  V30 3512 C 346.36 0.909499 -1.32608 0
M  V30 3513 O 347.55 0.776745 -1.55924 0
M  V30 3514 C 344.682 1.41854 -3.09984 0
M  V30 3515 H 345.875 -0.385289 -2.97415 0
M  V30 3516 H 343.428 -0.237942 -1.54478 0
M  V30 3517 H 344.163 2.13148 -2.44414 0
M  V30 3518 H 343.948 0.982114 -3.79601 0
M  V30 3519 H 345.438 1.96597 -3.68429 0
M  V30 3520 N 345.875 1.56104 -0.216619 0
M  V30 3521 C 347.1 2.0301 0.424462 0
M  V30 3522 C 347.525 1.0955 1.52907 0
M  V30 3523 O 346.883 0.0827914 1.81111 0
M  V30 3524 C 346.931 3.4819 0.937883 0
M  V30 3525 O 346.035 3.57865 2.04955 0
M  V30 3526 H 345.376 0.656925 0.0966755 0
M  V30 3527 H 347.906 2.01859 -0.33381 0
M  V30 3528 H 347.916 3.88413 1.24897 0
M  V30 3529 H 346.591 4.15699 0.129387 0
M  V30 3530 H 345.168 3.29527 1.74546 0
M  V30 3531 N 347.353 -0.0568162 1.57498 0
M  V30 3532 C 348.578 -0.769402 1.92601 0
M  V30 3533 C 349.003 -1.69559 0.814336 0
M  V30 3534 O 348.361 -1.79811 -0.231903 0
M  V30 3535 C 348.409 -1.52634 3.26704 0
M  V30 3536 O 347.513 -2.63797 3.16994 0
M  V30 3537 H 346.854 -0.208909 0.63028 0
M  V30 3538 H 349.384 -0.0205798 2.0459 0
M  V30 3539 H 349.394 -1.90234 3.60936 0
M  V30 3540 H 348.069 -0.846875 4.07186 0
M  V30 3541 H 346.646 -2.28943 2.94346 0
M  V30 3542 N 348.832 -1.54138 -0.328536 0
M  V30 3543 C 349.795 -1.82462 -1.38709 0
M  V30 3544 C 350.795 -0.696229 -1.44946 0
M  V30 3545 O 351.985 -0.964535 -1.4506 0
M  V30 3546 C 349.117 -1.98018 -2.77492 0
M  V30 3547 H 350.31 -2.77037 -1.14851 0
M  V30 3548 H 347.863 -1.45779 -0.563751 0
M  V30 3549 H 348.598 -1.05637 -3.06613 0
M  V30 3550 H 348.383 -2.80124 -2.74359 0
M  V30 3551 H 349.873 -2.21396 -3.54081 0
M  V30 3552 N 350.31 0.590341 -1.46126 0
M  V30 3553 C 351.721 1.17243 -1.45296 0
M  V30 3554 C 352.072 1.95281 -0.189723 0
M  V30 3555 O 351.197 2.04502 0.707674 0
M  V30 3556 C 351.792 2.13284 -2.6324 0
M  V30 3557 C 350.351 2.66832 -2.65476 0
M  V30 3558 C 349.498 1.42557 -2.3785 0
M  V30 3559 H 352.449 0.378692 -1.54116 0
M  V30 3560 H 352.47 2.96619 -2.38323 0
M  V30 3561 H 351.982 1.56459 -3.55165 0
M  V30 3562 H 350.083 3.27548 -1.77603 0
M  V30 3563 H 350.196 3.10088 -3.65215 0
M  V30 3564 H 348.56 1.72107 -1.87753 0
M  V30 3565 H 349.343 0.875741 -3.31942 0
M  V30 3566 N 351.788 1.33704 0.83433 0
M  V30 3567 C 353.016 1.28467 1.62185 0
M  V30 3568 C 353.431 -0.143526 1.88254 0
M  V30 3569 O 352.788 -1.08709 1.4659 0
M  V30 3570 C 352.839 2.06174 2.96942 0
M  V30 3571 O 352.56 3.43422 2.72016 0
M  V30 3572 C 354.061 2.08201 3.91366 0
M  V30 3573 H 351.281 0.4424 0.504503 0
M  V30 3574 H 353.825 1.76145 1.03891 0
M  V30 3575 H 351.98 1.62167 3.51825 0
M  V30 3576 H 352.394 3.83453 3.57861 0
M  V30 3577 H 353.868 2.67017 4.83121 0
M  V30 3578 H 354.345 1.07343 4.2588 0
M  V30 3579 H 354.951 2.52246 3.42421 0
M  V30 3580 N 353.266 -1.05314 1.17247 0
M  V30 3581 C 354.229 -2.112 0.890357 0
M  V30 3582 C 355.229 -1.60359 -0.118943 0
M  V30 3583 O 356.419 -1.73833 0.113086 0
M  V30 3584 C 353.551 -3.39266 0.333422 0
M  V30 3585 H 354.744 -2.37659 1.82916 0
M  V30 3586 H 352.297 -1.21538 0.982758 0
M  V30 3587 H 353.032 -3.18462 -0.612587 0
M  V30 3588 H 352.817 -3.77477 1.06082 0
M  V30 3589 H 354.307 -4.17315 0.154322 0
M  V30 3590 N 354.744 -0.972509 -1.24016 0
M  V30 3591 C 355.707 -0.511403 -2.23422 0
M  V30 3592 C 356.707 0.394679 -1.55881 0
M  V30 3593 O 357.897 0.189469 -1.73167 0
M  V30 3594 C 355.029 0.258769 -3.39916 0
M  V30 3595 H 356.222 -1.39024 -2.6573 0
M  V30 3596 H 353.775 -0.757585 -1.36713 0
M  V30 3597 H 354.51 1.1545 -3.03054 0
M  V30 3598 H 354.295 -0.391522 -3.9014 0
M  V30 3599 H 355.785 0.570244 -4.13688 0
M  V30 3600 N 356.222 1.38976 -0.743202 0
M  V30 3601 C 357.17 2.32394 -0.0978389 0
M  V30 3602 C 358.164 1.53486 0.716824 0
M  V30 3603 O 359.37 1.69092 0.617088 0
M  V30 3604 H 355.745 0.75189 -0.0128402 0
M  V30 3605 H 357.716 2.84441 -0.901981 0
M  V30 3606 C 356.465 3.38629 0.789036 0
M  V30 3607 H 355.788 3.99432 0.171559 0
M  V30 3608 H 357.228 4.06426 1.20807 0
M  V30 3609 C 355.687 2.76347 1.92702 0
M  V30 3610 O 356.217 2.64836 3.02034 0
M  V30 3611 N 354.423 2.34311 1.71891 0
M  V30 3612 H 353.97 2.43873 0.829675 0
M  V30 3613 H 353.928 1.9298 2.48205 0
M  V30 3614 N 357.7 0.491464 1.49741 0
M  V30 3615 C 358.928 -0.0535151 2.06831 0
M  V30 3616 C 359.343 -1.31683 1.35296 0
M  V30 3617 O 358.7 -1.77402 0.42836 0
M  V30 3618 C 358.751 -0.320835 3.60073 0
M  V30 3619 O 358.472 0.892394 4.28915 0
M  V30 3620 C 359.973 -0.910519 4.33848 0
M  V30 3621 H 357.193 0.0161909 0.670805 0
M  V30 3622 H 359.737 0.68609 1.92647 0
M  V30 3623 H 357.892 -1.0104 3.73991 0
M  V30 3624 H 358.306 0.649401 5.20464 0
M  V30 3625 H 359.78 -1.04721 5.41976 0
M  V30 3626 H 360.257 -1.90589 3.95692 0
M  V30 3627 H 360.863 -0.258712 4.24512 0
M  V30 3628 N 359.178 -1.55987 0.224894 0
M  V30 3629 C 360.406 -2.02784 -0.410665 0
M  V30 3630 C 360.821 -1.10464 -1.53112 0
M  V30 3631 O 360.178 -0.114871 -1.82138 0
M  V30 3632 C 360.229 -3.49087 -0.939165 0
M  V30 3633 O 359.95 -4.37887 0.136614 0
M  V30 3634 C 361.451 -4.11543 -1.64763 0
M  V30 3635 H 358.671 -0.663484 -0.100148 0
M  V30 3636 H 361.215 -2.01614 0.342326 0
M  V30 3637 H 359.37 -3.50861 -1.64242 0
M  V30 3638 H 359.784 -5.23849 -0.261155 0
M  V30 3639 H 361.258 -5.15673 -1.96939 0
M  V30 3640 H 361.735 -3.56736 -2.56195 0
M  V30 3641 H 362.341 -4.13629 -0.989503 0
M  V30 3642 N 360.656 0.0484629 -1.57525 0
M  V30 3643 C 361.902 0.744226 -1.88651 0
M  V30 3644 C 362.235 1.76029 -0.820212 0
M  V30 3645 O 361.51 1.93782 0.166985 0
M  V30 3646 C 361.793 1.43128 -3.30434 0
M  V30 3647 C 361.646 0.43005 -4.47739 0
M  V30 3648 C 362.965 2.37031 -3.70816 0
M  V30 3649 H 360.084 0.269089 -0.68612 0
M  V30 3650 H 362.726 0.00713532 -1.89999 0
M  V30 3651 H 360.876 2.05956 -3.29415 0
M  V30 3652 H 362.548 -0.194816 -4.60888 0
M  V30 3653 H 360.791 -0.252522 -4.33064 0
M  V30 3654 H 361.462 0.948874 -5.43783 0
M  V30 3655 H 363.938 1.84263 -3.73077 0
M  V30 3656 H 362.814 2.82094 -4.70865 0
M  V30 3657 H 363.075 3.22864 -3.02012 0
M  V30 3658 N 362.134 1.5431 0.320358 0
M  V30 3659 C 363.382 1.72327 1.05583 0
M  V30 3660 C 363.703 0.50149 1.88441 0
M  V30 3661 O 362.973 -0.48448 1.89815 0
M  V30 3662 H 361.553 0.635387 0.3928 0
M  V30 3663 H 364.215 1.91621 0.356019 0
M  V30 3664 H 363.311 2.60426 1.72003 0
M  V30 3665 N 363.613 -0.582584 1.46437 0
M  V30 3666 C 364.862 -1.337 1.5102 0
M  V30 3667 C 365.175 -1.94891 0.166359 0
M  V30 3668 O 366.381 -2.71351 0.0899954 0
M  V30 3669 C 364.837 -2.42315 2.66104 0
M  V30 3670 C 364.445 -1.87427 4.06909 0
M  V30 3671 C 366.189 -3.19099 2.79958 0
M  V30 3672 C 364.096 -2.93672 5.13333 0
M  V30 3673 H 363.026 -0.502619 0.562041 0
M  V30 3674 H 365.677 -0.621701 1.72647 0
M  V30 3675 H 364.059 -3.16645 2.37807 0
M  V30 3676 H 365.233 -1.19639 4.44998 0
M  V30 3677 H 363.548 -1.2331 3.97723 0
M  V30 3678 H 366.145 -3.9839 3.56636 0
M  V30 3679 H 366.488 -3.71695 1.87479 0
M  V30 3680 H 367.021 -2.51875 3.07902 0
M  V30 3681 H 363.76 -2.45962 6.07604 0
M  V30 3682 H 363.28 -3.59948 4.79789 0
M  V30 3683 H 364.959 -3.5762 5.39182 0
M  V30 3684 N 365.091 -1.34144 -0.827227 0
M  V30 3685 C 366.34 -1.25602 -1.5782 0
M  V30 3686 C 366.653 0.173445 -1.94829 0
M  V30 3687 O 367.859 0.380984 -2.68814 0
M  V30 3688 C 366.315 -2.20151 -2.84713 0
M  V30 3689 C 365.923 -3.68331 -2.55021 0
M  V30 3690 C 367.667 -2.20508 -3.62735 0
M  V30 3691 C 365.574 -4.54762 -3.78082 0
M  V30 3692 H 364.504 -0.466573 -0.592306 0
M  V30 3693 H 367.155 -1.59283 -0.911116 0
M  V30 3694 H 365.537 -1.79417 -3.53023 0
M  V30 3695 H 366.711 -4.17577 -1.94849 0
M  V30 3696 H 365.026 -3.7038 -1.90283 0
M  V30 3697 H 367.623 -2.82306 -4.54101 0
M  V30 3698 H 367.966 -1.20322 -3.98533 0
M  V30 3699 H 368.499 -2.59664 -3.01362 0
M  V30 3700 H 365.238 -5.55867 -3.47407 0
M  V30 3701 H 364.758 -4.10254 -4.37552 0
M  V30 3702 H 366.437 -4.69153 -4.45538 0
M  V30 3703 N 366.569 1.04691 -1.17803 0
M  V30 3704 C 367.797 1.81446 -0.99423 0
M  V30 3705 C 368.212 1.83174 0.457459 0
M  V30 3706 O 367.569 1.26265 1.31771 0
M  V30 3707 C 367.62 3.27334 -1.5341 0
M  V30 3708 O 367.341 3.25798 -2.92895 0
M  V30 3709 C 368.842 4.20759 -1.39559 0
M  V30 3710 H 366.062 0.571599 -0.351447 0
M  V30 3711 H 368.606 1.31982 -1.56208 0
M  V30 3712 H 366.761 3.74052 -1.00815 0
M  V30 3713 H 367.175 4.17144 -3.17949 0
M  V30 3714 H 368.649 5.21084 -1.82141 0
M  V30 3715 H 369.126 4.37856 -0.343394 0
M  V30 3716 H 369.732 3.79901 -1.91195 0
M  V30 3717 N 368.047 0.979072 1.23499 0
M  V30 3718 C 369.296 0.642751 1.91185 0
M  V30 3719 C 369.609 -0.827253 1.77245 0
M  V30 3720 O 370.815 -1.27458 2.39722 0
M  V30 3721 C 369.271 1.09901 3.42709 0
M  V30 3722 C 368.879 2.59327 3.65313 0
M  V30 3723 C 370.623 0.836371 4.16179 0
M  V30 3724 C 368.53 2.98627 5.10467 0
M  V30 3725 H 367.46 0.236698 0.715884 0
M  V30 3726 H 370.111 1.1868 1.39955 0
M  V30 3727 H 368.493 0.48319 3.93041 0
M  V30 3728 H 369.667 3.26136 3.25533 0
M  V30 3729 H 367.982 2.83323 3.05151 0
M  V30 3730 H 370.579 1.10586 5.23139 0
M  V30 3731 H 370.922 -0.227509 4.15678 0
M  V30 3732 H 371.455 1.41371 3.71832 0
M  V30 3733 H 368.194 4.04133 5.16098 0
M  V30 3734 H 367.714 2.3651 5.51201 0
M  V30 3735 H 369.393 2.89159 5.78788 0
M  V30 3736 N 369.525 -1.3858 0.750561 0
M  V30 3737 C 370.773 -1.99789 0.30477 0
M  V30 3738 C 371.094 -1.59874 -1.11649 0
M  V30 3739 O 370.364 -0.85417 -1.76297 0
M  V30 3740 H 368.944 -0.738902 0.109694 0
M  V30 3741 H 371.606 -1.69391 0.963983 0
M  V30 3742 H 370.702 -3.09952 0.365499 0
M  V30 3743 N 371.003 -0.499398 -1.49478 0
M  V30 3744 C 372.251 0.0455996 -2.02049 0
M  V30 3745 C 372.572 1.37633 -1.38138 0
M  V30 3746 O 371.842 1.8842 -0.536166 0
M  V30 3747 H 370.422 0.0198416 -0.746736 0
M  V30 3748 H 373.084 -0.656274 -1.83519 0
M  V30 3749 H 372.18 0.176445 -3.11601 0
M  V30 3750 N 372.481 1.55866 -0.233164 0
M  V30 3751 C 373.727 1.98897 0.395959 0
M  V30 3752 C 374.06 1.12091 1.58585 0
M  V30 3753 O 373.335 0.181182 1.93654 0
M  V30 3754 C 373.618 3.50658 0.819224 0
M  V30 3755 C 373.471 4.48233 -0.375109 0
M  V30 3756 C 374.79 4.07135 1.67121 0
M  V30 3757 H 371.909 0.723102 0.142451 0
M  V30 3758 H 374.551 1.87082 -0.331725 0
M  V30 3759 H 372.701 3.60857 1.43925 0
M  V30 3760 H 374.373 4.50031 -1.01341 0
M  V30 3761 H 372.616 4.21624 -1.02058 0
M  V30 3762 H 373.287 5.51988 -0.0358328 0
M  V30 3763 H 375.763 3.99952 1.14795 0
M  V30 3764 H 374.639 5.13615 1.93625 0
M  V30 3765 H 374.9 3.54736 2.63846 0
M  V30 3766 N 373.959 -0.0401083 1.57549 0
M  V30 3767 C 375.184 -0.748931 1.93406 0
M  V30 3768 C 375.609 -1.68686 0.832274 0
M  V30 3769 O 374.967 -1.80047 -0.212818 0
M  V30 3770 C 375.015 -1.4916 3.28304 0
M  V30 3771 O 374.119 -2.6042 3.19774 0
M  V30 3772 H 373.46 -0.202212 0.63246 0
M  V30 3773 H 375.99 0.00112086 2.046 0
M  V30 3774 H 376 -1.86395 3.62934 0
M  V30 3775 H 374.675 -0.80364 4.08062 0
M  V30 3776 H 373.252 -2.25808 2.96758 0
M  V30 3777 N 375.437 -1.54477 -0.31217 0
M  V30 3778 C 376.369 -1.81011 -1.40598 0
M  V30 3779 C 377.382 -0.692546 -1.47335 0
M  V30 3780 O 378.571 -0.969847 -1.49854 0
M  V30 3781 C 375.671 -1.92307 -2.79054 0
M  V30 3782 C 374.844 -3.22594 -2.95384 0
M  V30 3783 C 373.903 -3.24448 -4.1427 0
M  V30 3784 O 372.929 -3.98035 -4.06887 0
M  V30 3785 N 374.131 -2.49042 -5.24365 0
M  V30 3786 H 376.896 -2.75408 -1.18196 0
M  V30 3787 H 374.457 -1.53914 -0.502202 0
M  V30 3788 H 376.449 -1.90962 -3.56813 0
M  V30 3789 H 375.019 -1.04955 -2.94454 0
M  V30 3790 H 374.239 -3.36806 -2.04831 0
M  V30 3791 H 375.527 -4.08593 -3.03198 0
M  V30 3792 H 374.925 -1.88867 -5.33241 0
M  V30 3793 H 373.482 -2.53463 -6.005 0
M  V30 3794 N 376.915 0.57481 -1.46744 0
M  V30 3795 C 378.143 1.35856 -1.56047 0
M  V30 3796 C 378.558 1.87691 -0.204365 0
M  V30 3797 O 377.915 1.64049 0.79963 0
M  V30 3798 C 377.966 2.54066 -2.57163 0
M  V30 3799 O 377.687 2.04377 -3.87507 0
M  V30 3800 C 379.188 3.46514 -2.76483 0
M  V30 3801 H 376.408 0.414754 -0.527466 0
M  V30 3802 H 378.952 0.698035 -1.92218 0
M  V30 3803 H 377.107 3.16092 -2.23974 0
M  V30 3804 H 377.521 2.81419 -4.4261 0
M  V30 3805 H 378.995 4.25919 -3.51137 0
M  V30 3806 H 379.472 3.98951 -1.83671 0
M  V30 3807 H 380.078 2.90318 -3.10799 0
M  V30 3808 N 378.394 1.34581 0.820102 0
M  V30 3809 C 379.324 1.29038 1.94606 0
M  V30 3810 C 380.305 0.1673 1.69275 0
M  V30 3811 O 381.49 0.360112 1.90832 0
M  V30 3812 C 378.62 1.04793 3.31113 0
M  V30 3813 C 377.574 2.13597 3.70891 0
M  V30 3814 C 376.9 1.74537 5.05412 0
M  V30 3815 C 378.2 3.55451 3.8269 0
M  V30 3816 H 379.894 2.23248 1.99501 0
M  V30 3817 H 377.44 1.0747 0.958449 0
M  V30 3818 H 379.393 0.995592 4.0947 0
M  V30 3819 H 378.117 0.0702565 3.26524 0
M  V30 3820 H 376.776 2.17905 2.9481 0
M  V30 3821 H 376.424 0.754226 4.97313 0
M  V30 3822 H 376.124 2.47361 5.32997 0
M  V30 3823 H 377.648 1.70803 5.86224 0
M  V30 3824 H 379.062 3.5354 4.51312 0
M  V30 3825 H 377.459 4.26922 4.21732 0
M  V30 3826 H 378.529 3.92587 2.84611 0
M  V30 3827 N 379.872 -1.04064 1.18357 0
M  V30 3828 C 380.804 -2.12114 0.868358 0
M  V30 3829 C 381.817 -1.62247 -0.134045 0
M  V30 3830 O 383.006 -1.78253 0.0937933 0
M  V30 3831 C 380.106 -3.37773 0.276132 0
M  V30 3832 C 379.279 -4.16874 1.3242 0
M  V30 3833 C 378.338 -5.20861 0.747662 0
M  V30 3834 O 377.364 -5.51141 1.42239 0
M  V30 3835 N 378.566 -5.78715 -0.454823 0
M  V30 3836 H 381.331 -2.39748 1.79836 0
M  V30 3837 H 378.892 -1.20258 1.08396 0
M  V30 3838 H 380.884 -4.04513 -0.123133 0
M  V30 3839 H 379.454 -3.07581 -0.557895 0
M  V30 3840 H 378.674 -3.45456 1.89878 0
M  V30 3841 H 379.962 -4.66516 2.03078 0
M  V30 3842 H 379.36 -5.56415 -1.02073 0
M  V30 3843 H 377.917 -6.46921 -0.79601 0
M  V30 3844 N 381.35 -0.985608 -1.22978 0
M  V30 3845 C 382.627 -0.573599 -1.87001 0
M  V30 3846 C 383.007 0.949213 -1.88555 0
M  V30 3847 O 382.355 1.82811 -1.37086 0
M  V30 3848 C 382.565 -1.18564 -3.28243 0
M  V30 3849 C 383.913 -1.28163 -4.04796 0
M  V30 3850 O 384.937 -1.13949 -3.37482 0
M  V30 3851 O 383.796 -1.50832 -5.25273 0
M  V30 3852 H 380.89 -0.193868 -0.803955 0
M  V30 3853 H 383.436 -1.08102 -1.30813 0
M  V30 3854 H 382.208 -2.22758 -3.21706 0
M  V30 3855 H 381.831 -0.663363 -3.92027 0
M  V30 3856 N 382.828 1.3818 -0.7579 0
M  V30 3857 C 383.758 2.33027 -0.148597 0
M  V30 3858 C 384.739 1.55085 0.69875 0
M  V30 3859 O 385.924 1.83384 0.639053 0
M  V30 3860 C 383.054 3.3928 0.742034 0
M  V30 3861 C 382.008 4.28 -0.00291946 0
M  V30 3862 C 381.334 5.25146 1.00625 0
M  V30 3863 C 382.634 5.08938 -1.17385 0
M  V30 3864 H 384.328 2.84231 -0.940909 0
M  V30 3865 H 381.874 1.36659 -0.453908 0
M  V30 3866 H 383.827 4.046 1.17799 0
M  V30 3867 H 382.551 2.86569 1.56671 0
M  V30 3868 H 381.21 3.64192 -0.419504 0
M  V30 3869 H 380.858 4.68721 1.8251 0
M  V30 3870 H 380.558 5.85361 0.512428 0
M  V30 3871 H 382.082 5.93342 1.44143 0
M  V30 3872 H 383.496 5.67474 -0.815224 0
M  V30 3873 H 381.893 5.7841 -1.59882 0
M  V30 3874 H 382.963 4.42424 -1.98468 0
M  V30 3875 N 384.306 0.507319 1.49211 0
M  V30 3876 C 385.238 -0.304532 2.27168 0
M  V30 3877 C 386.251 -0.924956 1.33972 0
M  V30 3878 O 387.44 -0.807227 1.59205 0
M  V30 3879 C 384.54 -1.44431 3.06583 0
M  V30 3880 C 383.713 -0.930026 4.27398 0
M  V30 3881 C 382.772 -1.94817 4.88807 0
M  V30 3882 O 381.798 -1.51418 5.4869 0
M  V30 3883 N 383 -3.279 4.79022 0
M  V30 3884 H 385.765 0.36395 2.97482 0
M  V30 3885 H 383.326 0.340249 1.58284 0
M  V30 3886 H 385.318 -2.12311 3.44537 0
M  V30 3887 H 383.888 -2.01684 2.38835 0
M  V30 3888 H 383.108 -0.0759244 3.94127 0
M  V30 3889 H 384.396 -0.564932 5.05654 0
M  V30 3890 H 383.794 -3.65843 4.3148 0
M  V30 3891 H 382.351 -3.91476 5.21142 0
M  V30 3892 N 385.784 -1.5574 0.241426 0
M  V30 3893 C 386.716 -2.18469 -0.693091 0
M  V30 3894 C 387.729 -1.15942 -1.14286 0
M  V30 3895 O 388.918 -1.42832 -1.07058 0
M  V30 3896 C 386.018 -2.7696 -1.95311 0
M  V30 3897 C 385.191 -4.04853 -1.65568 0
M  V30 3898 C 384.25 -4.47715 -2.76474 0
M  V30 3899 O 383.276 -5.14205 -2.44094 0
M  V30 3900 N 384.478 -4.15044 -4.05855 0
M  V30 3901 H 387.243 -2.99292 -0.156388 0
M  V30 3902 H 384.804 -1.61784 0.0611752 0
M  V30 3903 H 386.796 -3.02594 -2.68736 0
M  V30 3904 H 385.366 -2.00326 -2.39975 0
M  V30 3905 H 384.586 -3.86865 -0.756886 0
M  V30 3906 H 385.874 -4.88246 -1.43153 0
M  V30 3907 H 385.272 -3.61654 -4.34998 0
M  V30 3908 H 383.829 -4.45526 -4.75762 0
M  V30 3909 N 387.262 0.0317525 -1.57568 0
M  V30 3910 C 388.509 0.723104 -1.89149 0
M  V30 3911 C 388.837 1.75504 -0.838377 0
M  V30 3912 O 388.092 1.95037 0.160982 0
M  V30 3913 C 388.391 1.43167 -3.27472 0
M  V30 3914 C 388.057 0.535972 -4.47703 0
M  V30 3915 C 386.719 0.289262 -4.8033 0
M  V30 3916 C 389.071 -0.0826125 -5.21135 0
M  V30 3917 C 386.399 -0.584853 -5.83778 0
M  V30 3918 C 388.751 -0.944414 -6.25511 0
M  V30 3919 C 387.415 -1.20061 -6.56614 0
M  V30 3920 H 386.685 0.264602 -0.692146 0
M  V30 3921 H 389.332 -0.0169496 -1.91492 0
M  V30 3922 H 387.637 2.24497 -3.21105 0
M  V30 3923 H 389.334 1.97209 -3.49155 0
M  V30 3924 H 385.924 0.738414 -4.22191 0
M  V30 3925 H 390.108 0.0950302 -4.96209 0
M  V30 3926 H 385.364 -0.79168 -6.06253 0
M  V30 3927 H 389.538 -1.43026 -6.81554 0
M  V30 3928 H 387.165 -1.87967 -7.36595 0
M  V30 3929 N 388.74 1.54641 0.303973 0
M  V30 3930 C 389.968 1.77768 1.05858 0
M  V30 3931 C 390.383 0.535722 1.8104 0
M  V30 3932 O 389.74 -0.494337 1.75677 0
M  V30 3933 C 389.791 2.9834 2.04146 0
M  V30 3934 O 389.512 4.17736 1.32015 0
M  V30 3935 C 391.013 3.33832 2.91669 0
M  V30 3936 H 388.233 0.592961 0.314067 0
M  V30 3937 H 390.777 2.01583 0.344149 0
M  V30 3938 H 388.932 2.76742 2.71096 0
M  V30 3939 H 389.346 4.85693 1.97998 0
M  V30 3940 H 390.82 4.21448 3.56491 0
M  V30 3941 H 391.297 2.51857 3.59812 0
M  V30 3942 H 391.903 3.57579 2.30254 0
M  V30 3943 N 390.218 -0.567019 1.47046 0
M  V30 3944 C 391.443 -1.3551 1.57009 0
M  V30 3945 C 391.868 -1.86841 0.217259 0
M  V30 3946 O 391.226 -1.62435 -0.805268 0
M  V30 3947 C 391.274 -2.50777 2.5912 0
M  V30 3948 O 390.378 -3.52706 2.13711 0
M  V30 3949 H 389.719 -0.402919 0.52778 0
M  V30 3950 H 392.249 -0.686241 1.92748 0
M  V30 3951 H 392.259 -2.97481 2.79229 0
M  V30 3952 H 390.934 -2.12771 3.57353 0
M  V30 3953 H 389.511 -3.12374 2.03659 0
M  V30 3954 N 391.696 -1.35014 -0.812953 0
M  V30 3955 C 392.659 -1.27292 -1.90602 0
M  V30 3956 C 393.659 -0.185817 -1.59723 0
M  V30 3957 O 394.849 -0.439102 -1.68575 0
M  V30 3958 C 391.981 -0.967676 -3.26877 0
M  V30 3959 H 393.174 -2.24479 -1.9887 0
M  V30 3960 H 390.727 -1.19446 -1.00808 0
M  V30 3961 H 391.462 0.0005954 -3.243 0
M  V30 3962 H 391.247 -1.75412 -3.50675 0
M  V30 3963 H 392.737 -0.939085 -4.06904 0
M  V30 3964 N 393.175 1.03435 -1.18907 0
M  V30 3965 C 394.123 2.13703 -0.918353 0
M  V30 3966 C 395.117 1.68947 0.123767 0
M  V30 3967 O 396.323 1.79983 -0.0249701 0
M  V30 3968 H 392.698 0.698112 -0.279542 0
M  V30 3969 H 394.669 2.33731 -1.85506 0
M  V30 3970 C 393.418 3.44542 -0.467532 0
M  V30 3971 H 392.741 3.79394 -1.26095 0
M  V30 3972 H 394.181 4.22812 -0.317164 0
M  V30 3973 C 392.64 3.26829 0.817588 0
M  V30 3974 O 393.17 3.54975 1.88031 0
M  V30 3975 N 391.376 2.80139 0.772677 0
M  V30 3976 H 390.923 2.57434 -0.0923883 0
M  V30 3977 H 390.881 2.68668 1.63294 0
M  V30 3978 N 394.653 0.992116 1.22453 0
M  V30 3979 C 395.901 0.666215 1.90804 0
M  V30 3980 C 396.222 -0.804152 1.77647 0
M  V30 3981 O 395.492 -1.57629 1.16318 0
M  V30 3982 H 394.072 0.243423 0.706225 0
M  V30 3983 H 396.734 1.25845 1.48825 0
M  V30 3984 H 395.83 0.928069 2.97982 0
M  V30 3985 N 396.131 -1.37776 0.765217 0
M  V30 3986 C 397.061 -2.32945 0.160953 0
M  V30 3987 C 398.042 -1.55454 -0.690516 0
M  V30 3988 O 399.227 -1.83721 -0.629318 0
M  V30 3989 C 396.357 -3.39669 -0.724031 0
M  V30 3990 C 395.311 -4.27992 0.0256173 0
M  V30 3991 C 394.637 -5.25673 -0.978383 0
M  V30 3992 C 395.937 -5.08309 1.20082 0
M  V30 3993 H 397.631 -2.83728 0.955969 0
M  V30 3994 H 395.177 -1.36416 0.461149 0
M  V30 3995 H 397.13 -4.05219 -1.15652 0
M  V30 3996 H 395.854 -2.87396 -1.5515 0
M  V30 3997 H 394.513 -3.63964 0.438812 0
M  V30 3998 H 394.161 -4.69682 -1.80022 0
M  V30 3999 H 393.861 -5.85625 -0.481378 0
M  V30 4000 H 395.385 -5.94098 -1.40995 0
M  V30 4001 H 396.799 -5.67034 0.845307 0
M  V30 4002 H 395.196 -5.77554 1.62947 0
M  V30 4003 H 396.266 -4.41365 2.00811 0
M  V30 4004 N 397.609 -0.515225 -1.4894 0
M  V30 4005 C 398.572 0.244681 -2.2789 0
M  V30 4006 C 399.572 0.881166 -1.34507 0
M  V30 4007 O 400.762 0.743497 -1.57537 0
M  V30 4008 C 397.894 1.35247 -3.12923 0
M  V30 4009 H 399.087 -0.448289 -2.96531 0
M  V30 4010 H 396.64 -0.270656 -1.53939 0
M  V30 4011 H 397.375 2.07916 -2.48881 0
M  V30 4012 H 397.16 0.901374 -3.81599 0
M  V30 4013 H 398.65 1.88737 -3.72516 0
M  V30 4014 N 399.087 1.5561 -0.249682 0
M  V30 4015 C 400.312 2.03865 0.381305 0
M  V30 4016 C 400.737 1.12769 1.50548 0
M  V30 4017 O 400.095 0.121189 1.80895 0
M  V30 4018 C 400.143 3.50101 0.863816 0
M  V30 4019 O 399.247 3.62132 1.97318 0
M  V30 4020 H 398.588 0.658827 0.0827194 0
M  V30 4021 H 401.118 2.01105 -0.376552 0
M  V30 4022 H 401.128 3.90975 1.1663 0
M  V30 4023 H 399.803 4.1588 0.0411816 0
M  V30 4024 H 398.38 3.33155 1.67517 0
M  V30 4025 N 400.565 -0.0233959 1.57583 0
M  V30 4026 C 401.811 -0.714119 1.89811 0
M  V30 4027 C 402.144 -1.74702 0.848113 0
M  V30 4028 O 401.419 -1.94023 -0.136135 0
M  V30 4029 C 401.702 -1.37853 3.32669 0
M  V30 4030 C 401.555 -0.358764 4.48367 0
M  V30 4031 C 402.874 -2.31101 3.7454 0
M  V30 4032 H 399.993 -0.25814 0.690314 0
M  V30 4033 H 402.635 0.0230927 1.89986 0
M  V30 4034 H 400.785 -2.00689 3.3265 0
M  V30 4035 H 402.457 0.268115 4.6052 0
M  V30 4036 H 400.7 0.321387 4.32608 0
M  V30 4037 H 401.371 -0.862242 5.45224 0
M  V30 4038 H 403.847 -1.78304 3.75961 0
M  V30 4039 H 402.723 -2.74567 4.75294 0
M  V30 4040 H 402.984 -3.18018 3.0711 0
M  V30 4041 N 402.043 -1.548 -0.295768 0
M  V30 4042 C 402.991 -1.86874 -1.38495 0
M  V30 4043 C 403.985 -0.742938 -1.52239 0
M  V30 4044 O 405.191 -0.926999 -1.54294 0
M  V30 4045 H 401.566 -0.592786 -0.462719 0
M  V30 4046 H 403.537 -2.77904 -1.08682 0
M  V30 4047 C 402.286 -2.13732 -2.74252 0
M  V30 4048 H 401.609 -2.99835 -2.64459 0
M  V30 4049 H 403.049 -2.4011 -3.49461 0
M  V30 4050 C 401.508 -0.937539 -3.23592 0
M  V30 4051 O 402.038 -0.160665 -4.01379 0
M  V30 4052 N 400.244 -0.741478 -2.80981 0
M  V30 4053 H 399.791 -1.37489 -2.1784 0
M  V30 4054 H 399.749 0.0597103 -3.14343 0
M  V30 4055 N 403.521 0.559213 -1.47345 0
M  V30 4056 C 404.749 1.34194 -1.57479 0
M  V30 4057 C 405.164 1.87463 -0.224261 0
M  V30 4058 O 404.521 1.64888 0.782185 0
M  V30 4059 C 404.572 2.51324 -2.59843 0
M  V30 4060 O 404.293 2.00256 -3.89653 0
M  V30 4061 C 405.794 3.43563 -2.80142 0
M  V30 4062 H 403.014 0.409136 -0.531835 0
M  V30 4063 H 405.558 0.677609 -1.92947 0
M  V30 4064 H 403.713 3.13699 -2.27314 0
M  V30 4065 H 404.127 2.76708 -4.4557 0
M  V30 4066 H 405.601 4.2217 -3.55635 0
M  V30 4067 H 406.078 3.9698 -1.87892 0
M  V30 4068 H 406.684 2.87005 -3.1386 0
M  V30 4069 N 404.999 1.35443 0.805782 0
M  V30 4070 C 405.931 1.24285 1.92577 0
M  V30 4071 C 406.944 0.165962 1.61952 0
M  V30 4072 O 408.133 0.419303 1.73505 0
M  V30 4073 C 405.233 0.891272 3.2697 0
M  V30 4074 C 404.406 2.06669 3.85495 0
M  V30 4075 C 403.465 1.69077 4.98297 0
M  V30 4076 O 402.491 2.4096 5.15681 0
M  V30 4077 N 403.693 0.614869 5.77234 0
M  V30 4078 H 406.458 2.20777 2.02676 0
M  V30 4079 H 404.019 1.28623 0.983243 0
M  V30 4080 H 406.011 0.621256 3.99903 0
M  V30 4081 H 404.581 0.016004 3.12596 0
M  V30 4082 H 403.801 2.50046 3.04747 0
M  V30 4083 H 405.089 2.85237 4.21328 0
M  V30 4084 H 404.487 0.017648 5.65697 0
M  V30 4085 H 403.044 0.404636 6.50543 0
M  V30 4086 N 406.477 -1.02803 1.19454 0
M  V30 4087 C 407.705 -1.79841 1.02297 0
M  V30 4088 C 408.12 -1.83879 -0.428259 0
M  V30 4089 O 407.477 -1.28345 -1.29745 0
M  V30 4090 C 407.528 -3.24852 1.58598 0
M  V30 4091 O 407.249 -3.21097 2.98041 0
M  V30 4092 C 408.75 -4.18485 1.46236 0
M  V30 4093 H 405.97 -0.565936 0.360496 0
M  V30 4094 H 408.514 -1.2948 1.58288 0
M  V30 4095 H 406.669 -3.72401 1.06753 0
M  V30 4096 H 407.083 -4.12033 3.24545 0
M  V30 4097 H 408.557 -5.18121 1.90407 0
M  V30 4098 H 409.034 -4.37254 0.41301 0
M  V30 4099 H 409.64 -3.76811 1.97215 0
M  V30 4100 N 407.956 -0.998596 -1.21925 0
M  V30 4101 C 409.205 -0.673085 -1.90138 0
M  V30 4102 C 409.518 0.79895 -1.78539 0
M  V30 4103 O 410.724 1.23628 -2.4172 0
M  V30 4104 C 409.18 -1.15339 -3.40918 0
M  V30 4105 C 408.788 -2.65106 -3.61141 0
M  V30 4106 C 410.532 -0.902476 -4.14796 0
M  V30 4107 C 408.439 -3.0671 -5.05651 0
M  V30 4108 H 407.369 -0.248057 -0.712028 0
M  V30 4109 H 410.02 -1.20891 -1.38049 0
M  V30 4110 H 408.402 -0.545658 -3.92223 0
M  V30 4111 H 409.576 -3.31274 -3.20304 0
M  V30 4112 H 407.891 -2.88142 -3.00605 0
M  V30 4113 H 410.488 -1.18895 -5.21314 0
M  V30 4114 H 410.831 0.161349 -4.15987 0
M  V30 4115 H 411.364 -1.47269 -3.69536 0
M  V30 4116 H 408.103 -4.12292 -5.09603 0
M  V30 4117 H 407.623 -2.45249 -5.47369 0
M  V30 4118 H 409.302 -2.9833 -5.74115 0
M  V30 4119 N 409.434 1.37368 -0.772513 0
M  V30 4120 C 410.366 2.28899 -0.117502 0
M  V30 4121 C 411.379 1.4867 0.663405 0
M  V30 4122 O 412.568 1.71314 0.501372 0
M  V30 4123 C 409.668 3.2788 0.857192 0
M  V30 4124 C 408.841 4.37207 0.129938 0
M  V30 4125 C 407.9 5.16257 1.01811 0
M  V30 4126 O 406.926 5.67159 0.481601 0
M  V30 4127 N 408.128 5.31058 2.3443 0
M  V30 4128 H 410.893 2.85752 -0.903662 0
M  V30 4129 H 408.454 1.49353 -0.62493 0
M  V30 4130 H 410.446 3.77647 1.45482 0
M  V30 4131 H 409.016 2.7179 1.54432 0
M  V30 4132 H 408.236 3.88827 -0.648605 0
M  V30 4133 H 409.524 5.07434 -0.372559 0
M  V30 4134 H 408.922 4.91287 2.80452 0
M  V30 4135 H 407.479 5.84131 2.89197 0
M  V30 4136 N 410.912 0.523116 1.48665 0
M  V30 4137 C 412.14 -0.0096312 2.06898 0
M  V30 4138 C 412.555 -1.28784 1.38059 0
M  V30 4139 O 411.912 -1.76453 0.465893 0
M  V30 4140 C 411.963 -0.244386 3.60673 0
M  V30 4141 O 411.684 0.983172 4.26925 0
M  V30 4142 C 413.185 -0.818289 4.35682 0
M  V30 4143 H 410.405 0.0304161 0.67031 0
M  V30 4144 H 412.949 0.726799 1.91149 0
M  V30 4145 H 411.104 -0.930847 3.76051 0
M  V30 4146 H 411.518 0.759653 5.1897 0
M  V30 4147 H 412.992 -0.93201 5.44075 0
M  V30 4148 H 413.469 -1.82153 3.99646 0
M  V30 4149 H 414.075 -0.168609 4.24966 0
M  V30 4150 N 412.39 -1.55475 0.257931 0
M  V30 4151 C 413.638 -1.98813 -0.363009 0
M  V30 4152 C 413.959 -1.14757 -1.57657 0
M  V30 4153 O 413.229 -0.232956 -1.9451 0
M  V30 4154 H 411.809 -0.734308 -0.137113 0
M  V30 4155 H 414.471 -1.9156 0.359281 0
M  V30 4156 H 413.567 -3.04941 -0.664634 0
M  V30 4157 N 413.868 0.0150385 -1.57593 0
M  V30 4158 C 415.093 0.718067 -1.94573 0
M  V30 4159 C 415.518 1.6734 -0.859005 0
M  V30 4160 O 414.876 1.80362 0.184147 0
M  V30 4161 C 414.924 1.43918 -3.30636 0
M  V30 4162 O 414.028 2.55299 -3.23876 0
M  V30 4163 H 413.369 0.192125 -0.635597 0
M  V30 4164 H 415.899 -0.0336708 -2.04572 0
M  V30 4165 H 415.909 1.80598 -3.65853 0
M  V30 4166 H 414.584 0.738619 -4.09289 0
M  V30 4167 H 413.161 2.21058 -3.00312 0
M  V30 4168 N 415.346 1.54954 0.287554 0
M  V30 4169 C 416.571 1.79209 1.04397 0
M  V30 4170 C 416.996 0.556431 1.79682 0
M  V30 4171 O 416.354 -0.493518 1.74454 0
M  V30 4172 C 416.402 3.00739 1.98969 0
M  V30 4173 O 415.506 2.74805 3.075 0
M  V30 4174 H 414.847 0.592755 0.299227 0
M  V30 4175 H 417.377 2.02068 0.320886 0
M  V30 4176 H 417.387 3.29077 2.4119 0
M  V30 4177 H 416.062 3.90329 1.43582 0
M  V30 4178 H 414.639 2.57523 2.69697 0
M  V30 4179 N 416.824 -0.551391 1.4764 0
M  V30 4180 C 417.772 -1.67896 1.60978 0
M  V30 4181 C 418.766 -1.62549 0.476877 0
M  V30 4182 O 419.972 -1.67664 0.654878 0
M  V30 4183 H 416.347 -0.555649 0.506713 0
M  V30 4184 H 418.318 -1.53784 2.55721 0
M  V30 4185 C 417.067 -3.06234 1.64669 0
M  V30 4186 H 416.39 -3.11033 2.51194 0
M  V30 4187 H 417.83 -3.84804 1.7805 0
M  V30 4188 C 416.289 -3.34737 0.381115 0
M  V30 4189 O 416.819 -3.98381 -0.515297 0
M  V30 4190 N 415.025 -2.8944 0.259354 0
M  V30 4191 H 414.572 -2.37827 0.98976 0
M  V30 4192 H 414.53 -3.08882 -0.586464 0
M  V30 4193 N 418.302 -1.35869 -0.798587 0
M  V30 4194 C 419.55 -1.29332 -1.55298 0
M  V30 4195 C 419.871 0.129729 -1.94568 0
M  V30 4196 O 419.141 1.06796 -1.6423 0
M  V30 4197 H 417.721 -0.475737 -0.57592 0
M  V30 4198 H 420.383 -1.70062 -0.952093 0
M  V30 4199 H 419.479 -1.91458 -2.46476 0
M  V30 4200 N 419.78 1.02168 -1.19998 0
M  V30 4201 C 421.057 1.72816 -0.916191 0
M  V30 4202 C 421.437 2.03081 0.576325 0
M  V30 4203 O 420.785 1.69122 1.53656 0
M  V30 4204 C 420.995 2.9997 -1.78378 0
M  V30 4205 C 422.343 3.73336 -2.02251 0
M  V30 4206 O 423.367 3.09914 -1.75589 0
M  V30 4207 O 422.226 4.87371 -2.47249 0
M  V30 4208 H 419.32 0.752924 -0.342103 0
M  V30 4209 H 421.866 1.08062 -1.30846 0
M  V30 4210 H 420.638 2.73888 -2.79466 0
M  V30 4211 H 420.261 3.72464 -1.39126 0
M  V30 4212 N 421.258 1.00505 1.21394 0
M  V30 4213 C 422.488 0.705584 1.94178 0
M  V30 4214 C 422.896 -0.735846 1.74304 0
M  V30 4215 O 422.239 -1.50954 1.04683 0
M  V30 4216 C 422.301 0.94689 3.46806 0
M  V30 4217 C 421.965 2.37517 3.90429 0
M  V30 4218 C 422.962 3.35539 3.97127 0
M  V30 4219 C 420.647 2.71284 4.22742 0
M  V30 4220 C 422.641 4.65395 4.3553 0
M  V30 4221 C 420.328 4.01356 4.60822 0
M  V30 4222 C 421.326 4.98223 4.67186 0
M  V30 4223 O 421.014 6.25969 5.04399 0
M  V30 4224 H 420.746 0.259216 0.624326 0
M  V30 4225 H 423.3 1.34592 1.55159 0
M  V30 4226 H 421.53 0.249386 3.85895 0
M  V30 4227 H 423.219 0.640804 4.0081 0
M  V30 4228 H 423.985 3.10786 3.7234 0
M  V30 4229 H 419.864 1.96581 4.16985 0
M  V30 4230 H 423.408 5.41002 4.40412 0
M  V30 4231 H 419.305 4.25893 4.85063 0
M  V30 4232 H 420.073 6.30085 5.22431 0
M  V30 4233 N 422.737 -1.36956 0.779787 0
M  V30 4234 C 423.962 -2.04283 0.358224 0
M  V30 4235 C 424.387 -1.58422 -1.01411 0
M  V30 4236 O 423.745 -0.748179 -1.65142 0
M  V30 4237 C 423.793 -3.58152 0.419479 0
M  V30 4238 O 422.897 -4.08342 -0.577142 0
M  V30 4239 H 422.238 -0.645967 0.153698 0
M  V30 4240 H 424.768 -1.75108 1.05822 0
M  V30 4241 H 424.778 -4.07041 0.279636 0
M  V30 4242 H 423.453 -3.90886 1.42061 0
M  V30 4243 H 422.03 -3.70751 -0.399755 0
M  V30 4244 N 424.215 -0.530993 -1.48385 0
M  V30 4245 C 425.492 0.0671788 -1.95485 0
M  V30 4246 C 425.872 1.51191 -1.47324 0
M  V30 4247 O 425.22 2.17507 -0.700202 0
M  V30 4248 C 425.43 -0.0511206 -3.48963 0
M  V30 4249 C 426.778 0.107632 -4.24464 0
M  V30 4250 O 427.802 0.0226248 -3.56193 0
M  V30 4251 O 426.661 0.285972 -5.45751 0
M  V30 4252 H 423.755 0.0787365 -0.823243 0
M  V30 4253 H 426.301 -0.595662 -1.58902 0
M  V30 4254 H 425.073 -1.05747 -3.7674 0
M  V30 4255 H 424.696 0.650525 -3.92242 0
M  V30 4256 N 425.693 1.55336 -0.266172 0
M  V30 4257 C 426.97 1.91372 0.404486 0
M  V30 4258 C 427.35 1.18935 1.74407 0
M  V30 4259 O 426.698 0.3132 2.26343 0
M  V30 4260 C 426.908 3.44581 0.553593 0
M  V30 4261 C 428.256 4.16196 0.840618 0
M  V30 4262 O 429.28 3.50426 0.638739 0
M  V30 4263 O 428.139 5.32567 1.22618 0
M  V30 4264 H 425.233 0.797194 0.220025 0
M  V30 4265 H 427.779 1.66813 -0.311664 0
M  V30 4266 H 426.551 3.89357 -0.389498 0
M  V30 4267 H 426.174 3.75065 1.31955 0
M  V30 4268 N 427.171 -0.0066808 1.57599 0
M  V30 4269 C 428.103 -1.02827 2.04839 0
M  V30 4270 C 429.116 -1.31108 0.965113 0
M  V30 4271 O 430.305 -1.28202 1.24203 0
M  V30 4272 C 427.405 -2.36464 2.42771 0
M  V30 4273 C 426.578 -2.27219 3.73751 0
M  V30 4274 C 425.637 -3.43489 3.98625 0
M  V30 4275 O 424.663 -3.21976 4.69382 0
M  V30 4276 N 425.865 -4.66116 3.46 0
M  V30 4277 H 428.63 -0.625455 2.93101 0
M  V30 4278 H 426.191 -0.194198 1.60731 0
M  V30 4279 H 428.183 -3.13008 2.56531 0
M  V30 4280 H 426.753 -2.68512 1.60063 0
M  V30 4281 H 425.973 -1.35629 3.70133 0
M  V30 4282 H 427.261 -2.18208 4.59633 0
M  V30 4283 H 426.659 -4.86493 2.88688 0
M  V30 4284 H 425.216 -5.39949 3.65101 0
M  V30 4285 N 428.649 -1.55105 -0.279332 0
M  V30 4286 C 429.581 -1.83952 -1.36727 0
M  V30 4287 C 430.594 -0.723642 -1.45833 0
M  V30 4288 O 431.783 -1.00141 -1.47763 0
M  V30 4289 C 428.883 -1.98183 -2.74912 0
M  V30 4290 C 428.056 -3.28787 -2.88475 0
M  V30 4291 C 427.115 -3.33162 -4.07295 0
M  V30 4292 O 426.141 -4.06576 -3.98353 0
M  V30 4293 N 427.343 -2.60109 -5.18964 0
M  V30 4294 H 430.108 -2.77853 -1.12328 0
M  V30 4295 H 427.669 -1.54945 -0.469442 0
M  V30 4296 H 429.661 -1.98488 -3.52682 0
M  V30 4297 H 428.231 -1.11177 -2.92162 0
M  V30 4298 H 427.451 -3.41075 -1.97641 0
M  V30 4299 H 428.739 -4.14933 -2.94463 0
M  V30 4300 H 428.137 -2.00136 -5.29115 0
M  V30 4301 H 426.694 -2.66143 -5.94988 0
M  V30 4302 N 430.127 0.543554 -1.4793 0
M  V30 4303 C 431.375 1.29752 -1.54948 0
M  V30 4304 C 431.696 1.93764 -0.219242 0
M  V30 4305 O 430.966 1.80639 0.75805 0
M  V30 4306 H 429.546 0.481874 -0.570795 0
M  V30 4307 H 432.208 0.633636 -1.84312 0
M  V30 4308 H 431.304 2.08392 -2.32334 0
M  V30 4309 N 431.605 1.3629 0.791371 0
M  V30 4310 C 432.537 1.26321 1.91248 0
M  V30 4311 C 433.55 0.18313 1.61767 0
M  V30 4312 O 434.739 0.437682 1.73051 0
M  V30 4313 C 431.839 0.925901 3.26007 0
M  V30 4314 C 431.012 2.10746 3.83281 0
M  V30 4315 C 430.071 1.74352 4.96475 0
M  V30 4316 O 429.097 2.46416 5.13096 0
M  V30 4317 N 430.299 0.676058 5.7655 0
M  V30 4318 H 433.064 2.22915 2.00323 0
M  V30 4319 H 430.625 1.29659 0.969546 0
M  V30 4320 H 432.617 0.663636 3.99222 0
M  V30 4321 H 431.187 0.0491581 3.12561 0
M  V30 4322 H 430.407 2.53264 3.02077 0
M  V30 4323 H 431.695 2.8969 4.18279 0
M  V30 4324 H 431.093 0.0776467 5.65647 0
M  V30 4325 H 429.65 0.473612 6.50077 0
M  V30 4326 N 433.083 -1.0153 1.20538 0
M  V30 4327 C 434.331 -1.74803 1.01432 0
M  V30 4328 C 434.652 -1.8963 -0.454456 0
M  V30 4329 O 433.922 -1.43975 -1.32846 0
M  V30 4330 H 432.502 -0.647598 0.372324 0
M  V30 4331 H 435.164 -1.22402 1.5167 0
M  V30 4332 H 434.26 -2.75114 1.47373 0
M  V30 4333 N 434.561 -1.01147 -1.20859 0
M  V30 4334 C 435.471 -0.58686 -2.27141 0
M  V30 4335 C 436.487 0.373198 -1.69951 0
M  V30 4336 O 437.663 0.235423 -2.00019 0
M  V30 4337 C 434.728 0.0733602 -3.46622 0
M  V30 4338 C 433.789 -0.931995 -4.19061 0
M  V30 4339 C 433.022 -0.303186 -5.32838 0
M  V30 4340 O 433.245 0.898395 -5.63281 0
M  V30 4341 O 432.179 -1.01735 -5.9324 0
M  V30 4342 H 436.005 -1.47155 -2.65667 0
M  V30 4343 H 433.59 -0.780689 -1.2738 0
M  V30 4344 H 435.472 0.442333 -4.19072 0
M  V30 4345 H 434.147 0.932329 -3.09983 0
M  V30 4346 H 433.054 -1.35224 -3.48805 0
M  V30 4347 H 434.387 -1.76076 -4.59628 0
M  V30 4348 N 436.039 1.36541 -0.78704 0
M  V30 4349 C 437.285 2.00044 -0.367938 0
M  V30 4350 C 437.64 1.61345 1.04812 0
M  V30 4351 O 436.933 0.856936 1.71368 0
M  V30 4352 C 437.127 3.54343 -0.466485 0
M  V30 4353 C 436.956 4.08029 -1.89058 0
M  V30 4354 C 435.726 4.38284 -2.51466 0
M  V30 4355 C 437.924 4.27954 -2.85236 0
M  V30 4356 N 435.906 4.77778 -3.85488 0
M  V30 4357 C 437.277 4.70227 -4.04088 0
M  V30 4358 C 439.332 4.10119 -2.82324 0
M  V30 4359 C 438.035 4.96532 -5.20432 0
M  V30 4360 C 440.061 4.37569 -3.97854 0
M  V30 4361 C 439.423 4.80095 -5.15449 0
M  V30 4362 H 435.522 0.760525 -0.182004 0
M  V30 4363 H 438.106 1.65589 -1.02413 0
M  V30 4364 H 436.277 3.88072 0.159606 0
M  V30 4365 H 438.009 4.04693 -0.0238577 0
M  V30 4366 H 434.764 4.27905 -2.02965 0
M  V30 4367 H 435.188 5.01813 -4.54437 0
M  V30 4368 H 439.83 3.76399 -1.92571 0
M  V30 4369 H 437.548 5.29134 -6.10773 0
M  V30 4370 H 441.134 4.25341 -3.96958 0
M  V30 4371 H 440.014 5.00925 -6.0336 0
M  V30 4372 N 437.518 0.538854 1.48102 0
M  V30 4373 C 438.795 -0.0568108 1.95517 0
M  V30 4374 C 439.175 -1.50408 1.48124 0
M  V30 4375 O 438.523 -2.17133 0.711727 0
M  V30 4376 C 438.733 0.0696262 3.48931 0
M  V30 4377 C 440.081 -0.0851202 4.24515 0
M  V30 4378 O 441.105 -0.0037347 3.562 0
M  V30 4379 O 439.964 -0.257025 5.45895 0
M  V30 4380 H 437.058 -0.0743695 0.823649 0
M  V30 4381 H 439.604 0.604081 1.58584 0
M  V30 4382 H 438.376 1.07744 3.76174 0
M  V30 4383 H 437.999 -0.629714 3.92582 0
M  V30 4384 N 438.996 -1.55193 0.274407 0
M  V30 4385 C 439.926 -2.25471 -0.607032 0
M  V30 4386 C 440.907 -1.24461 -1.15946 0
M  V30 4387 O 442.092 -1.53179 -1.19373 0
M  V30 4388 C 439.222 -2.97526 -1.79153 0
M  V30 4389 C 438.176 -4.05459 -1.37067 0
M  V30 4390 C 437.502 -4.65084 -2.6382 0
M  V30 4391 C 438.802 -5.19691 -0.521389 0
M  V30 4392 H 440.496 -2.99393 -0.0209343 0
M  V30 4393 H 438.042 -1.43997 -0.00862866 0
M  V30 4394 H 439.995 -3.45402 -2.41404 0
M  V30 4395 H 438.719 -2.21138 -2.40344 0
M  V30 4396 H 437.378 -3.58393 -0.771355 0
M  V30 4397 H 437.026 -3.85365 -3.23268 0
M  V30 4398 H 436.726 -5.37961 -2.36372 0
M  V30 4399 H 438.25 -5.15708 -3.26921 0
M  V30 4400 H 439.664 -5.63623 -1.04889 0
M  V30 4401 H 438.061 -5.99126 -0.341825 0
M  V30 4402 H 439.131 -4.82713 0.46 0
M  V30 4403 N 440.474 -0.00167713 -1.576 0
M  V30 4404 C 441.751 0.719951 -1.81868 0
M  V30 4405 C 442.131 1.91895 -0.879747 0
M  V30 4406 O 441.479 2.28389 0.0711423 0
M  V30 4407 C 441.689 1.12409 -3.30402 0
M  V30 4408 C 443.037 1.52724 -3.96182 0
M  V30 4409 O 444.061 1.21784 -3.34734 0
M  V30 4410 O 442.92 2.10265 -5.04431 0
M  V30 4411 H 440.014 0.350707 -0.748955 0
M  V30 4412 H 442.56 -0.0272597 -1.69678 0
M  V30 4413 H 441.332 0.269532 -3.90371 0
M  V30 4414 H 440.955 1.93035 -3.47596 0
M  V30 4415 N 441.952 1.55251 0.271103 0
M  V30 4416 C 443.177 1.80306 1.02491 0
M  V30 4417 C 443.602 0.575457 1.79081 0
M  V30 4418 O 442.96 -0.474987 1.74967 0
M  V30 4419 C 443.008 3.02832 1.95768 0
M  V30 4420 O 442.112 2.78051 3.04568 0
M  V30 4421 H 441.453 0.595896 0.292923 0
M  V30 4422 H 443.983 2.02397 0.299436 0
M  V30 4423 H 443.993 3.31616 2.37686 0
M  V30 4424 H 442.668 3.9183 1.39434 0
M  V30 4425 H 441.245 2.60369 2.66951 0
M  V30 4426 N 443.43 -0.535701 1.48216 0
M  V30 4427 C 444.362 -1.65662 1.58394 0
M  V30 4428 C 445.375 -1.5591 0.468607 0
M  V30 4429 O 446.564 -1.62475 0.7392 0
M  V30 4430 C 443.664 -3.04276 1.4923 0
M  V30 4431 C 442.837 -3.39567 2.75705 0
M  V30 4432 C 441.896 -4.57436 2.60075 0
M  V30 4433 O 440.922 -4.60942 3.33948 0
M  V30 4434 N 442.124 -5.55259 1.69315 0
M  V30 4435 H 444.889 -1.5737 2.55058 0
M  V30 4436 H 442.45 -0.722845 1.44867 0
M  V30 4437 H 444.442 -3.80994 1.36477 0
M  V30 4438 H 443.012 -3.06677 0.605632 0
M  V30 4439 H 442.232 -2.52083 3.03064 0
M  V30 4440 H 443.52 -3.59929 3.59623 0
M  V30 4441 H 442.918 -5.552 1.08489 0
M  V30 4442 H 441.475 -6.31218 1.62504 0
M  V30 4443 N 444.908 -1.36708 -0.784132 0
M  V30 4444 C 446.133 -1.34565 -1.5782 0
M  V30 4445 C 446.558 0.0695257 -1.87971 0
M  V30 4446 O 445.916 1.04302 -1.48293 0
M  V30 4447 C 445.964 -2.17952 -2.87279 0
M  V30 4448 O 445.068 -1.57563 -3.81114 0
M  V30 4449 H 444.409 -0.460337 -0.478524 0
M  V30 4450 H 446.939 -1.80064 -0.971495 0
M  V30 4451 H 446.949 -2.30721 -3.365 0
M  V30 4452 H 445.624 -3.20823 -2.64661 0
M  V30 4453 H 444.201 -1.53764 -3.39722 0
M  V30 4454 N 446.386 1.0089 -1.21074 0
M  V30 4455 C 447.635 1.74019 -1.01981 0
M  V30 4456 C 447.948 1.90408 0.447665 0
M  V30 4457 O 449.154 2.60707 0.757906 0
M  V30 4458 C 447.61 3.13026 -1.77603 0
M  V30 4459 C 447.218 3.04623 -3.28495 0
M  V30 4460 C 448.962 3.90312 -1.66904 0
M  V30 4461 C 446.869 4.38685 -3.96623 0
M  V30 4462 H 445.799 0.652422 -0.377971 0
M  V30 4463 H 448.45 1.12755 -1.44771 0
M  V30 4464 H 446.832 3.74878 -1.27604 0
M  V30 4465 H 448.006 2.52032 -3.85767 0
M  V30 4466 H 446.321 2.40827 -3.39693 0
M  V30 4467 H 448.918 4.8951 -2.15138 0
M  V30 4468 H 449.261 4.11558 -0.62658 0
M  V30 4469 H 449.794 3.35104 -2.14359 0
M  V30 4470 H 446.533 4.22641 -5.01054 0
M  V30 4471 H 446.053 4.91252 -3.4414 0
M  V30 4472 H 447.732 5.075 -4.01314 0
M  V30 4473 N 447.864 1.01787 1.20321 0
M  V30 4474 C 449.11 0.708985 1.90003 0
M  V30 4475 C 449.443 -0.759572 1.78729 0
M  V30 4476 O 448.718 -1.55198 1.17234 0
M  V30 4477 C 449.001 1.1469 3.41348 0
M  V30 4478 C 448.854 2.67586 3.61549 0
M  V30 4479 C 450.173 0.71915 4.34185 0
M  V30 4480 H 447.292 0.259034 0.689978 0
M  V30 4481 H 449.934 1.26584 1.41692 0
M  V30 4482 H 448.084 0.673128 3.82624 0
M  V30 4483 H 449.756 3.22826 3.29517 0
M  V30 4484 H 447.999 3.085 3.04976 0
M  V30 4485 H 448.67 2.93281 4.67643 0
M  V30 4486 H 451.146 1.12647 4.00562 0
M  V30 4487 H 450.022 1.05358 5.38694 0
M  V30 4488 H 450.283 -0.379111 4.40472 0
M  V30 4489 N 449.342 -1.36122 0.79427 0
M  V30 4490 C 450.59 -1.98718 0.368177 0
M  V30 4491 C 450.911 -1.63345 -1.06506 0
M  V30 4492 O 450.181 -0.909825 -1.73491 0
M  V30 4493 H 448.761 -0.735038 0.133146 0
M  V30 4494 H 451.423 -1.66239 1.01739 0
M  V30 4495 H 450.519 -3.08633 0.463923 0
M  V30 4496 N 450.82 -0.546701 -1.47814 0
M  V30 4497 C 452.045 -0.021268 -2.07389 0
M  V30 4498 C 452.47 1.25822 -1.39822 0
M  V30 4499 O 451.828 1.75111 -0.46968 0
M  V30 4500 C 451.876 0.168502 -3.60206 0
M  V30 4501 O 450.98 1.23347 -3.93522 0
M  V30 4502 H 450.321 -0.0466108 -0.662362 0
M  V30 4503 H 452.851 -0.759387 -1.89985 0
M  V30 4504 H 452.861 0.385982 -4.0617 0
M  V30 4505 H 451.536 -0.766075 -4.08784 0
M  V30 4506 H 450.113 0.997319 -3.59316 0
M  V30 4507 N 452.299 1.55045 -0.282633 0
M  V30 4508 C 453.262 2.21515 0.588539 0
M  V30 4509 C 454.262 1.19535 1.07554 0
M  V30 4510 O 455.452 1.44391 0.974514 0
M  V30 4511 C 452.584 2.88704 1.8128 0
M  V30 4512 H 453.777 2.99899 0.00806397 0
M  V30 4513 H 451.33 1.56265 -0.0333067 0
M  V30 4514 H 452.065 2.14352 2.43359 0
M  V30 4515 H 451.85 3.63443 1.47144 0
M  V30 4516 H 453.34 3.39465 2.43214 0
M  V30 4517 N 453.777 0.010035 1.57597 0
M  V30 4518 C 455.025 -0.671371 1.90623 0
M  V30 4519 C 455.346 -1.73753 0.885151 0
M  V30 4520 O 454.616 -1.95752 -0.0760611 0
M  V30 4521 H 453.196 -0.250968 0.703579 0
M  V30 4522 H 455.858 0.0533325 1.94827 0
M  V30 4523 H 454.954 -1.13626 2.90681 0
M  V30 4524 N 455.255 -1.55392 -0.262866 0
M  V30 4525 C 456.503 -1.76127 -0.991147 0
M  V30 4526 C 456.824 -0.571083 -1.8645 0
M  V30 4527 O 456.094 0.413698 -1.91482 0
M  V30 4528 H 454.674 -0.649528 -0.368948 0
M  V30 4529 H 457.336 -1.9281 -0.284655 0
M  V30 4530 H 456.432 -2.6663 -1.62219 0
M  V30 4531 N 456.733 0.527833 -1.48498 0
M  V30 4532 C 457.696 1.61439 -1.62696 0
M  V30 4533 C 458.696 1.52824 -0.500136 0
M  V30 4534 O 459.886 1.56456 -0.765976 0
M  V30 4535 C 457.018 3.01063 -1.59918 0
M  V30 4536 H 458.211 1.50189 -2.59583 0
M  V30 4537 H 455.764 0.750055 -1.37127 0
M  V30 4538 H 456.499 3.17818 -0.645163 0
M  V30 4539 H 456.284 3.08725 -2.41726 0
M  V30 4540 H 457.774 3.80057 -1.73051 0
M  V30 4541 N 458.211 1.37122 0.776871 0
M  V30 4542 C 459.457 1.32243 1.53752 0
M  V30 4543 C 459.79 -0.0944745 1.9397 0
M  V30 4544 O 459.065 -1.05068 1.6368 0
M  V30 4545 C 459.348 2.25681 2.80607 0
M  V30 4546 C 459.201 3.76127 2.46676 0
M  V30 4547 C 460.52 2.17657 3.82509 0
M  V30 4548 H 457.639 0.481704 0.557791 0
M  V30 4549 H 460.281 1.6778 0.891612 0
M  V30 4550 H 458.431 1.95505 3.35723 0
M  V30 4551 H 460.103 4.16877 1.97513 0
M  V30 4552 H 458.346 3.94946 1.79443 0
M  V30 4553 H 459.017 4.36933 3.37333 0
M  V30 4554 H 461.493 2.44245 3.36873 0
M  V30 4555 H 460.369 2.85185 4.69 0
M  V30 4556 H 460.63 1.16785 4.26396 0
M  V30 4557 N 459.689 -1.00246 1.21608 0
M  V30 4558 C 460.621 -2.09244 0.935401 0
M  V30 4559 C 461.634 -1.62592 -0.0823594 0
M  V30 4560 O 462.823 -1.77865 0.150456 0
M  V30 4561 C 459.923 -3.36724 0.383453 0
M  V30 4562 C 459.096 -4.1245 1.45615 0
M  V30 4563 C 458.155 -5.18219 0.912991 0
M  V30 4564 O 457.181 -5.46337 1.59701 0
M  V30 4565 N 458.383 -5.7987 -0.270478 0
M  V30 4566 H 461.148 -2.33905 1.87373 0
M  V30 4567 H 458.709 -1.16748 1.12167 0
M  V30 4568 H 460.701 -4.047 0.00562157 0
M  V30 4569 H 459.271 -3.09201 -0.459758 0
M  V30 4570 H 458.491 -3.39241 2.00772 0
M  V30 4571 H 459.779 -4.59819 2.17817 0
M  V30 4572 H 459.177 -5.59381 -0.843195 0
M  V30 4573 H 457.734 -6.49126 -0.589794 0
M  V30 4574 N 461.167 -1.02423 -1.1978 0
M  V30 4575 C 462.099 -0.559152 -2.22275 0
M  V30 4576 C 463.112 0.36251 -1.58713 0
M  V30 4577 O 464.301 0.159641 -1.77785 0
M  V30 4578 C 461.401 0.205094 -3.38279 0
M  V30 4579 C 460.574 -0.720361 -4.31427 0
M  V30 4580 C 459.633 -0.00234368 -5.262 0
M  V30 4581 O 458.659 -0.627378 -5.65732 0
M  V30 4582 N 459.861 1.26996 -5.66438 0
M  V30 4583 H 462.626 -1.44064 -2.62804 0
M  V30 4584 H 460.187 -0.902692 -1.34399 0
M  V30 4585 H 462.179 0.694868 -3.9869 0
M  V30 4586 H 460.749 0.987947 -2.96578 0
M  V30 4587 H 459.969 -1.39031 -3.68869 0
M  V30 4588 H 461.257 -1.3495 -4.90577 0
M  V30 4589 H 460.655 1.79858 -5.36347 0
M  V30 4590 H 459.212 1.70432 -6.29123 0
M  V30 4591 N 462.645 1.35699 -0.801477 0
M  V30 4592 C 463.575 2.32436 -0.222658 0
M  V30 4593 C 464.556 1.5723 0.649057 0
M  V30 4594 O 465.741 1.85324 0.580387 0
M  V30 4595 C 462.871 3.41469 0.633719 0
M  V30 4596 C 461.825 4.27774 -0.139083 0
M  V30 4597 C 461.151 5.28082 0.838666 0
M  V30 4598 C 462.451 5.04946 -1.33517 0
M  V30 4599 H 464.145 2.81094 -1.03086 0
M  V30 4600 H 461.691 1.35146 -0.497155 0
M  V30 4601 H 463.644 4.08143 1.04868 0
M  V30 4602 H 462.368 2.91408 1.47475 0
M  V30 4603 H 461.027 3.62673 -0.535156 0
M  V30 4604 H 460.675 4.7429 1.67506 0
M  V30 4605 H 460.375 5.86695 0.32594 0
M  V30 4606 H 461.899 5.97628 1.25194 0
M  V30 4607 H 463.313 5.64593 -0.995349 0
M  V30 4608 H 461.71 5.7303 -1.78202 0
M  V30 4609 H 462.78 4.35886 -2.12442 0
M  V30 4610 N 464.123 0.554532 1.47522 0
M  V30 4611 C 465.053 -0.182974 2.32782 0
M  V30 4612 C 466.034 -0.911377 1.43624 0
M  V30 4613 O 467.219 -0.892366 1.72483 0
M  V30 4614 C 464.349 -1.21513 3.25349 0
M  V30 4615 C 463.303 -0.603355 4.23726 0
M  V30 4616 C 462.629 -1.73995 5.05598 0
M  V30 4617 C 463.929 0.441121 5.20434 0
M  V30 4618 H 465.623 0.52882 2.94693 0
M  V30 4619 H 463.169 0.255759 1.41711 0
M  V30 4620 H 465.122 -1.73922 3.83835 0
M  V30 4621 H 463.846 -1.95683 2.61487 0
M  V30 4622 H 462.505 -0.10059 3.66462 0
M  V30 4623 H 462.153 -2.47063 4.38143 0
M  V30 4624 H 461.853 -1.3364 5.72201 0
M  V30 4625 H 463.377 -2.26735 5.66942 0
M  V30 4626 H 464.791 0.00319931 5.733 0
M  V30 4627 H 463.188 0.763402 5.95224 0
M  V30 4628 H 464.258 1.33799 4.66075 0
M  V30 4629 N 465.601 -1.54893 0.290851 0
M  V30 4630 C 466.848 -1.99933 -0.321391 0
M  V30 4631 C 467.176 -1.17927 -1.54672 0
M  V30 4632 O 466.431 -0.240902 -1.94212 0
M  V30 4633 C 466.73 -3.49815 -0.732397 0
M  V30 4634 C 466.396 -4.4921 0.390056 0
M  V30 4635 C 465.058 -4.76107 0.698223 0
M  V30 4636 C 467.41 -5.08453 1.14562 0
M  V30 4637 C 464.738 -5.59514 1.76526 0
M  V30 4638 C 467.09 -5.9302 2.2025 0
M  V30 4639 C 465.754 -6.18232 2.51684 0
M  V30 4640 H 465.024 -0.731608 -0.117605 0
M  V30 4641 H 467.671 -1.87107 0.407839 0
M  V30 4642 H 465.976 -3.60199 -1.54155 0
M  V30 4643 H 467.673 -3.82083 -1.21712 0
M  V30 4644 H 464.263 -4.28372 0.13976 0
M  V30 4645 H 468.447 -4.87683 0.920801 0
M  V30 4646 H 463.703 -5.77289 2.01364 0
M  V30 4647 H 467.877 -6.37955 2.7926 0
M  V30 4648 H 465.504 -6.82653 3.34499 0
M  V30 4649 N 467.08 -0.0183926 -1.57589 0
M  V30 4650 C 468.31 0.67207 -1.95363 0
M  V30 4651 C 468.718 1.66807 -0.892872 0
M  V30 4652 O 468.061 1.83204 0.134958 0
M  V30 4653 C 468.123 1.44397 -3.29226 0
M  V30 4654 C 467.787 0.607511 -4.52944 0
M  V30 4655 C 468.784 -0.112657 -5.19778 0
M  V30 4656 C 466.469 0.548068 -4.99301 0
M  V30 4657 C 468.463 -0.881057 -6.31281 0
M  V30 4658 C 466.15 -0.224044 -6.10689 0
M  V30 4659 C 467.148 -0.937323 -6.76538 0
M  V30 4660 O 466.836 -1.6968 -7.85789 0
M  V30 4661 H 466.568 0.190925 -0.648478 0
M  V30 4662 H 469.122 -0.0711994 -2.05277 0
M  V30 4663 H 467.352 2.23214 -3.15773 0
M  V30 4664 H 469.041 2.02152 -3.51979 0
M  V30 4665 H 469.807 -0.0759998 -4.8494 0
M  V30 4666 H 465.686 1.09281 -4.4786 0
M  V30 4667 H 469.23 -1.43832 -6.82611 0
M  V30 4668 H 465.127 -0.262457 -6.44966 0
M  V30 4669 H 465.895 -1.61544 -8.024 0
M  V30 4670 N 468.558 1.5553 0.254621 0
M  V30 4671 C 469.491 1.84624 1.34124 0
M  V30 4672 C 470.469 0.700693 1.46728 0
M  V30 4673 O 471.653 0.94564 1.63064 0
M  V30 4674 C 468.78 2.02412 2.71564 0
M  V30 4675 C 467.826 3.25028 2.7615 0
M  V30 4676 S 468.659 4.81893 2.33538 0
M  V30 4677 C 469.815 5.02677 3.72917 0
M  V30 4678 H 470.048 2.76501 1.09245 0
M  V30 4679 H 467.581 1.47537 0.455211 0
M  V30 4680 H 469.539 2.13345 3.50705 0
M  V30 4681 H 468.2 1.11391 2.93685 0
M  V30 4682 H 467.393 3.34418 3.77069 0
M  V30 4683 H 466.995 3.12781 2.05046 0
M  V30 4684 H 469.287 4.89546 4.68349 0
M  V30 4685 H 470.23 6.0468 3.68467 0
M  V30 4686 H 470.638 4.30561 3.65072 0
M  V30 4687 N 470.036 -0.519951 1.48776 0
M  V30 4688 C 470.999 -1.60574 1.6355 0
M  V30 4689 C 471.999 -1.52557 0.508234 0
M  V30 4690 O 473.189 -1.56047 0.774262 0
M  V30 4691 C 470.321 -3.00211 1.61512 0
M  V30 4692 H 471.514 -1.4881 2.60376 0
M  V30 4693 H 469.067 -0.742772 1.37523 0
M  V30 4694 H 469.802 -3.17471 0.662009 0
M  V30 4695 H 469.587 -3.07439 2.43359 0
M  V30 4696 H 471.077 -3.79134 1.75064 0
M  V30 4697 N 471.514 -1.37532 -0.769588 0
M  V30 4698 C 472.791 -1.23392 -1.51768 0
M  V30 4699 C 473.171 0.17157 -2.10402 0
M  V30 4700 O 472.519 1.17943 -1.95708 0
M  V30 4701 C 472.729 -2.33163 -2.59685 0
M  V30 4702 C 474.077 -2.70809 -3.27028 0
M  V30 4703 O 475.101 -2.32355 -2.69981 0
M  V30 4704 O 473.96 -3.37066 -4.30173 0
M  V30 4705 H 471.054 -0.481617 -0.67229 0
M  V30 4706 H 473.6 -1.49318 -0.806368 0
M  V30 4707 H 472.372 -3.27273 -2.14494 0
M  V30 4708 H 471.995 -2.08713 -3.38415 0
M  V30 4709 N 472.992 0.995999 -1.22138 0
M  V30 4710 C 473.924 2.08745 -0.946485 0
M  V30 4711 C 474.937 1.62633 0.0737356 0
M  V30 4712 O 476.126 1.77782 -0.159886 0
M  V30 4713 C 473.226 3.36516 -0.401305 0
M  V30 4714 C 472.399 4.11672 -1.47801 0
M  V30 4715 C 471.458 5.17728 -0.940461 0
M  V30 4716 O 470.484 5.45482 -1.62596 0
M  V30 4717 N 471.686 5.80005 0.239723 0
M  V30 4718 H 474.451 2.32908 -1.88611 0
M  V30 4719 H 472.012 1.16152 -1.12785 0
M  V30 4720 H 474.004 4.04691 -0.0270837 0
M  V30 4721 H 472.574 3.0944 0.443354 0
M  V30 4722 H 471.794 3.38171 -2.02568 0
M  V30 4723 H 473.082 4.58657 -2.20253 0
M  V30 4724 H 472.48 5.5982 0.813518 0
M  V30 4725 H 471.037 6.4943 0.555361 0
M  V30 4726 N 474.47 1.03057 1.19235 0
M  V30 4727 C 475.695 0.74757 1.93458 0
M  V30 4728 C 476.12 -0.687648 1.7508 0
M  V30 4729 O 475.478 -1.47499 1.05422 0
M  V30 4730 C 475.526 1.10604 3.43219 0
M  V30 4731 O 474.63 0.225671 4.11782 0
M  V30 4732 H 473.971 0.276047 0.603899 0
M  V30 4733 H 476.501 1.3777 1.51263 0
M  V30 4734 H 476.511 1.06366 3.93891 0
M  V30 4735 H 475.186 2.15165 3.55917 0
M  V30 4736 H 473.763 0.326795 3.71465 0
M  V30 4737 N 475.948 -1.35272 0.808662 0
M  V30 4738 C 476.911 -2.28082 0.226093 0
M  V30 4739 C 477.911 -1.49673 -0.587762 0
M  V30 4740 O 479.101 -1.69404 -0.405943 0
M  V30 4741 C 476.233 -3.33955 -0.684596 0
M  V30 4742 H 477.426 -2.81116 1.04469 0
M  V30 4743 H 474.979 -1.45162 0.579466 0
M  V30 4744 H 475.714 -2.86111 -1.5268 0
M  V30 4745 H 475.499 -3.91965 -0.102699 0
M  V30 4746 H 476.989 -4.03219 -1.08646 0
M  V30 4747 N 477.426 -0.562348 -1.47226 0
M  V30 4748 C 478.651 -0.0432632 -2.07355 0
M  V30 4749 C 479.076 1.24332 -1.41149 0
M  V30 4750 O 478.434 1.74603 -0.488226 0
M  V30 4751 C 478.482 0.130288 -3.60365 0
M  V30 4752 O 477.586 1.19166 -3.94808 0
M  V30 4753 H 476.927 -0.0536334 -0.66183 0
M  V30 4754 H 479.457 -0.779495 -1.89169 0
M  V30 4755 H 479.467 0.342881 -4.06557 0
M  V30 4756 H 478.142 -0.809389 -4.07948 0
M  V30 4757 H 476.719 0.959153 -3.60354 0
M  V30 4758 N 478.904 1.54736 -0.299062 0
M  V30 4759 C 480.152 1.99706 0.31017 0
M  V30 4760 C 480.473 1.18896 1.54559 0
M  V30 4761 O 479.743 0.284445 1.93824 0
M  V30 4762 H 478.323 0.737686 0.117596 0
M  V30 4763 H 480.985 1.9054 -0.409943 0
M  V30 4764 H 480.081 3.06596 0.58355 0
M  V30 4765 N 480.382 0.0267497 1.57577 0
M  V30 4766 C 481.33 -0.973923 2.11229 0
M  V30 4767 C 482.324 -1.33849 1.03831 0
M  V30 4768 O 483.53 -1.321 1.22269 0
M  V30 4769 H 479.905 -0.331844 0.674821 0
M  V30 4770 H 481.876 -0.496092 2.94247 0
M  V30 4771 C 480.625 -2.24798 2.65257 0
M  V30 4772 H 479.948 -1.9762 3.47543 0
M  V30 4773 H 481.388 -2.93031 3.06445 0
M  V30 4774 C 479.847 -2.97611 1.57891 0
M  V30 4775 O 480.377 -3.89629 0.97735 0
M  V30 4776 N 478.583 -2.59905 1.29992 0
M  V30 4777 H 478.13 -1.85154 1.79097 0
M  V30 4778 H 478.088 -3.08932 0.583798 0
M  V30 4779 N 481.861 -1.55662 -0.24637 0
M  V30 4780 C 483.089 -1.81575 -0.991876 0
M  V30 4781 C 483.504 -0.602545 -1.78927 0
M  V30 4782 O 482.861 0.428795 -1.77391 0
M  V30 4783 C 482.912 -3.05711 -1.92933 0
M  V30 4784 O 482.633 -4.22348 -1.1642 0
M  V30 4785 C 484.134 -3.44428 -2.79078 0
M  V30 4786 H 481.354 -0.604209 -0.291844 0
M  V30 4787 H 483.898 -2.02722 -0.269095 0
M  V30 4788 H 482.053 -2.86612 -2.60638 0
M  V30 4789 H 482.467 -4.92706 -1.79835 0
M  V30 4790 H 483.941 -4.34388 -3.40603 0
M  V30 4791 H 484.418 -2.65037 -3.50217 0
M  V30 4792 H 485.024 -3.65879 -2.16824 0
M  V30 4793 N 483.339 0.512053 -1.4905 0
M  V30 4794 C 484.587 1.26436 -1.57665 0
M  V30 4795 C 484.908 1.93255 -0.260293 0
M  V30 4796 O 484.178 1.82206 0.719564 0
M  V30 4797 H 482.758 0.469658 -0.580888 0
M  V30 4798 H 485.42 0.594398 -1.85615 0
M  V30 4799 H 484.516 2.03417 -2.36702 0
M  V30 4800 N 484.817 1.37938 0.762283 0
M  V30 4801 C 485.747 1.37176 1.88958 0
M  V30 4802 C 486.728 0.238945 1.68413 0
M  V30 4803 O 487.913 0.440726 1.89133 0
M  V30 4804 C 485.043 1.18742 3.2637 0
M  V30 4805 C 483.997 2.29136 3.61498 0
M  V30 4806 C 483.323 1.95816 4.97554 0
M  V30 4807 C 484.623 3.71363 3.6727 0
M  V30 4808 H 486.317 2.31509 1.89853 0
M  V30 4809 H 483.863 1.11438 0.912005 0
M  V30 4810 H 485.816 1.16837 4.04879 0
M  V30 4811 H 484.54 0.208683 3.25933 0
M  V30 4812 H 483.199 2.30213 2.85303 0
M  V30 4813 H 482.847 0.964475 4.93667 0
M  V30 4814 H 482.547 2.69745 5.22026 0
M  V30 4815 H 484.071 1.95513 5.78452 0
M  V30 4816 H 485.485 3.72364 4.35911 0
M  V30 4817 H 483.882 4.44425 4.03245 0
M  V30 4818 H 484.952 4.04305 2.67704 0
M  V30 4819 N 486.295 -0.989507 1.22664 0
M  V30 4820 C 487.523 -1.76496 1.07967 0
M  V30 4821 C 487.938 -1.85148 -0.369543 0
M  V30 4822 O 487.295 -1.32408 -1.25596 0
M  V30 4823 C 487.346 -3.19642 1.68853 0
M  V30 4824 O 487.067 -3.11453 3.08105 0
M  V30 4825 C 488.568 -4.13621 1.59475 0
M  V30 4826 H 485.788 -0.55418 0.378319 0
M  V30 4827 H 488.332 -1.24378 1.62328 0
M  V30 4828 H 486.487 -3.68816 1.18547 0
M  V30 4829 H 486.901 -4.01499 3.37489 0
M  V30 4830 H 488.375 -5.11801 2.06795 0
M  V30 4831 H 488.852 -4.35718 0.55191 0
M  V30 4832 H 489.458 -3.70346 2.09103 0
M  V30 4833 N 487.773 -1.03688 -1.18687 0
M  V30 4834 C 488.705 -0.582696 -2.21669 0
M  V30 4835 C 489.718 0.345656 -1.59088 0
M  V30 4836 O 490.907 0.140776 -1.77944 0
M  V30 4837 C 488.007 0.169204 -3.38477 0
M  V30 4838 C 487.18 -0.766079 -4.30639 0
M  V30 4839 C 486.239 -0.0581541 -5.26168 0
M  V30 4840 O 485.265 -0.687346 -5.65035 0
M  V30 4841 N 486.467 1.20981 -5.67753 0
M  V30 4842 H 489.232 -1.46843 -2.61261 0
M  V30 4843 H 486.793 -0.916896 -1.33434 0
M  V30 4844 H 488.785 0.652543 -3.99405 0
M  V30 4845 H 487.355 0.956435 -2.97609 0
M  V30 4846 H 486.575 -1.42935 -3.67373 0
M  V30 4847 H 487.863 -1.40146 -4.89118 0
M  V30 4848 H 487.261 1.74159 -5.38224 0
M  V30 4849 H 485.818 1.6375 -6.30896 0
M  V30 4850 N 489.251 1.34841 -0.815825 0
M  V30 4851 C 490.214 2.27959 -0.238185 0
M  V30 4852 C 491.214 1.49983 0.579816 0
M  V30 4853 O 492.404 1.69617 0.396953 0
M  V30 4854 C 489.536 3.34314 0.666876 0
M  V30 4855 H 490.729 2.80558 -1.05958 0
M  V30 4856 H 488.282 1.44852 -0.587156 0
M  V30 4857 H 489.017 2.86916 1.5116 0
M  V30 4858 H 488.802 3.92014 0.0819106 0
M  V30 4859 H 490.292 4.0379 1.06506 0
M  V30 4860 N 490.729 0.570148 1.46925 0
M  V30 4861 C 491.976 0.0509529 2.02436 0
M  V30 4862 C 492.304 -1.30405 1.44308 0
M  V30 4863 O 491.559 -1.86493 0.593198 0
M  V30 4864 C 491.858 -0.0780336 3.57315 0
M  V30 4865 C 491.524 1.20775 4.34424 0
M  V30 4866 C 490.186 1.56004 4.5521 0
M  V30 4867 C 492.538 2.0592 4.78797 0
M  V30 4868 C 489.866 2.76201 5.17619 0
M  V30 4869 C 492.218 3.25332 5.42533 0
M  V30 4870 C 490.882 3.60859 5.61549 0
M  V30 4871 H 490.152 0.018645 0.740765 0
M  V30 4872 H 492.799 0.744262 1.76445 0
M  V30 4873 H 491.104 -0.854394 3.82371 0
M  V30 4874 H 492.801 -0.495312 3.97929 0
M  V30 4875 H 489.391 0.923469 4.18533 0
M  V30 4876 H 493.575 1.80008 4.62505 0
M  V30 4877 H 488.831 3.0388 5.30535 0
M  V30 4878 H 493.005 3.91586 5.75876 0
M  V30 4879 H 490.632 4.54088 6.09678 0
M  V30 4880 N 492.207 -1.54576 0.307264 0
M  V30 4881 C 493.155 -2.25208 -0.581723 0
M  V30 4882 C 494.149 -1.26031 -1.13192 0
M  V30 4883 O 495.355 -1.43862 -1.08184 0
M  V30 4884 H 491.73 -0.723173 -0.206214 0
M  V30 4885 H 493.701 -2.98378 0.0364663 0
M  V30 4886 C 492.45 -3.01086 -1.73904 0
M  V30 4887 H 491.773 -3.77208 -1.32491 0
M  V30 4888 H 493.213 -3.5378 -2.33701 0
M  V30 4889 C 491.672 -2.08422 -2.64692 0
M  V30 4890 O 492.202 -1.65636 -3.65961 0
M  V30 4891 N 490.408 -1.74247 -2.32564 0
M  V30 4892 H 489.955 -2.09238 -1.50257 0
M  V30 4893 H 489.913 -1.12524 -2.93574 0
M  V30 4894 N 493.685 -0.035106 -1.57561 0
M  V30 4895 C 494.617 0.973604 -2.07494 0
M  V30 4896 C 495.63 1.28504 -0.999534 0
M  V30 4897 O 496.819 1.24864 -1.27559 0
M  V30 4898 C 493.919 2.29945 -2.48955 0
M  V30 4899 C 493.092 2.1723 -3.79644 0
M  V30 4900 C 492.151 3.328 -4.07592 0
M  V30 4901 O 491.177 3.09418 -4.77754 0
M  V30 4902 N 492.379 4.56779 -3.58236 0
M  V30 4903 H 495.144 0.547525 -2.94656 0
M  V30 4904 H 492.705 0.151515 -1.61189 0
M  V30 4905 H 494.697 3.06097 -2.64739 0
M  V30 4906 H 493.267 2.64173 -1.67126 0
M  V30 4907 H 492.487 1.25768 -3.73599 0
M  V30 4908 H 493.775 2.05945 -4.65257 0
M  V30 4909 H 493.173 4.78668 -3.01485 0
M  V30 4910 H 491.73 5.30079 -3.79288 0
M  V30 4911 N 495.163 1.55791 0.238111 0
M  V30 4912 C 496.126 1.90239 1.27835 0
M  V30 4913 C 497.126 0.779552 1.4064 0
M  V30 4914 O 498.316 1.04747 1.3919 0
M  V30 4915 C 495.448 2.13859 2.65475 0
M  V30 4916 H 496.641 2.83262 0.985034 0
M  V30 4917 H 494.194 1.48818 0.477799 0
M  V30 4918 H 494.929 1.23334 2.99932 0
M  V30 4919 H 494.714 2.95643 2.57561 0
M  V30 4920 H 496.204 2.41664 3.40571 0
M  V30 4921 N 496.642 -0.504142 1.49319 0
M  V30 4922 C 497.888 -1.26033 1.58882 0
M  V30 4923 C 498.221 -1.92268 0.273274 0
M  V30 4924 O 497.496 -1.80567 -0.72291 0
M  V30 4925 C 497.779 -2.32976 2.7458 0
M  V30 4926 C 497.632 -1.71263 4.1592 0
M  V30 4927 C 498.951 -3.34561 2.85932 0
M  V30 4928 H 496.07 -0.456863 0.578312 0
M  V30 4929 H 498.712 -0.558965 1.81592 0
M  V30 4930 H 496.862 -2.92796 2.55348 0
M  V30 4931 H 498.534 -1.15294 4.4666 0
M  V30 4932 H 496.777 -1.01686 4.21714 0
M  V30 4933 H 497.448 -2.48816 4.92742 0
M  V30 4934 H 499.924 -2.84727 3.0343 0
M  V30 4935 H 498.8 -4.06754 3.68568 0
M  V30 4936 H 499.061 -3.96695 1.95154 0
M  V30 4937 N 498.12 -1.38341 -0.754957 0
M  V30 4938 C 499.345 -1.37882 -1.5493 0
M  V30 4939 C 499.77 0.0296385 -1.88077 0
M  V30 4940 O 499.128 1.01133 -1.50472 0
M  V30 4941 C 499.176 -2.23996 -2.82592 0
M  V30 4942 O 498.28 -1.65612 -3.77686 0
M  V30 4943 H 497.621 -0.470384 -0.468652 0
M  V30 4944 H 500.151 -1.82084 -0.933082 0
M  V30 4945 H 500.161 -2.37806 -3.3153 0
M  V30 4946 H 498.836 -3.26365 -2.57796 0
M  V30 4947 H 497.413 -1.60936 -3.36384 0
M  V30 4948 N 499.598 0.982988 -1.23187 0
M  V30 4949 C 500.875 1.69814 -0.970707 0
M  V30 4950 C 501.255 2.04811 0.511424 0
M  V30 4951 O 500.603 1.73924 1.48198 0
M  V30 4952 C 500.813 2.94143 -1.87831 0
M  V30 4953 C 502.161 3.66712 -2.14026 0
M  V30 4954 O 503.185 3.04171 -1.8536 0
M  V30 4955 O 502.044 4.79258 -2.62629 0
M  V30 4956 H 499.138 0.741659 -0.365884 0
M  V30 4957 H 501.684 1.03844 -1.34218 0
M  V30 4958 H 500.456 2.64858 -2.88038 0
M  V30 4959 H 500.079 3.6785 -1.50905 0
M  V30 4960 N 501.076 1.04316 1.18135 0
M  V30 4961 C 502.024 0.630175 2.23901 0
M  V30 4962 C 503.018 -0.344254 1.65865 0
M  V30 4963 O 504.224 -0.211273 1.78756 0
M  V30 4964 H 500.599 0.185578 0.728742 0
M  V30 4965 H 502.57 1.53253 2.56039 0
M  V30 4966 C 501.319 0.011666 3.47698 0
M  V30 4967 H 500.642 0.752526 3.92654 0
M  V30 4968 H 502.082 -0.240046 4.2332 0
M  V30 4969 C 500.541 -1.23913 3.13285 0
M  V30 4970 O 501.071 -2.32959 3.27251 0
M  V30 4971 N 499.277 -1.13338 2.67587 0
M  V30 4972 H 498.824 -0.246006 2.56423 0
M  V30 4973 H 498.782 -1.97116 2.44934 0
M  V30 4974 N 502.554 -1.34406 0.822964 0
M  V30 4975 C 503.8 -1.98578 0.411666 0
M  V30 4976 C 504.133 -1.65093 -1.02264 0
M  V30 4977 O 503.408 -0.92258 -1.71227 0
M  V30 4978 C 503.691 -3.54823 0.614235 0
M  V30 4979 C 503.544 -3.9805 2.09466 0
M  V30 4980 C 504.863 -4.40071 0.050221 0
M  V30 4981 H 501.982 -0.721355 0.151047 0
M  V30 4982 H 504.624 -1.59301 1.03554 0
M  V30 4983 H 502.774 -3.88411 0.0831774 0
M  V30 4984 H 504.446 -3.74795 2.68936 0
M  V30 4985 H 502.689 -3.4836 2.5851 0
M  V30 4986 H 503.36 -5.06819 2.18721 0
M  V30 4987 H 505.836 -4.13037 0.503953 0
M  V30 4988 H 504.712 -5.48452 0.221759 0
M  V30 4989 H 504.973 -4.29576 -1.04482 0
M  V30 4990 N 504.032 -0.577932 -1.46621 0
M  V30 4991 C 504.995 0.147805 -2.28723 0
M  V30 4992 C 505.995 0.823325 -1.38123 0
M  V30 4993 O 507.185 0.676011 -1.60548 0
M  V30 4994 C 504.317 1.21853 -3.18378 0
M  V30 4995 H 505.51 -0.573654 -2.94362 0
M  V30 4996 H 503.063 -0.335703 -1.52652 0
M  V30 4997 H 503.798 1.97173 -2.57475 0
M  V30 4998 H 503.583 0.738714 -3.85078 0
M  V30 4999 H 505.073 1.72768 -3.80186 0
M  V30 5000 N 505.51 1.54411 -0.315457 0
M  V30 5001 C 506.457 2.24048 0.554166 0
M  V30 5002 C 507.427 1.2283 1.11812 0
M  V30 5003 O 508.612 1.51491 1.15997 0
M  V30 5004 C 505.752 2.99574 1.71316 0
M  V30 5005 C 504.865 4.15594 1.17922 0
M  V30 5006 C 504 4.78669 2.30324 0
M  V30 5007 C 503.039 5.86807 1.74137 0
M  V30 5008 N 502.176 6.43777 2.8017 0
M  V30 5009 H 507.016 2.97964 -0.0462602 0
M  V30 5010 H 504.553 1.47059 -0.0346009 0
M  V30 5011 H 506.511 3.41604 2.39505 0
M  V30 5012 H 505.141 2.28008 2.285 0
M  V30 5013 H 504.193 3.78404 0.389136 0
M  V30 5014 H 505.505 4.93459 0.728012 0
M  V30 5015 H 504.659 5.23626 3.06433 0
M  V30 5016 H 503.398 4.00168 2.78778 0
M  V30 5017 H 502.403 5.41261 0.965236 0
M  V30 5018 H 503.628 6.67201 1.2657 0
M  V30 5019 H 501.574 5.68153 3.2793 0
M  V30 5020 H 501.491 7.17031 2.39588 0
M  V30 5021 H 502.759 6.9339 3.56132 0
M  V30 5022 N 506.988 0.0434614 1.5754 0
M  V30 5023 C 508.234 -0.632971 1.92669 0
M  V30 5024 C 508.567 -1.70947 0.921446 0
M  V30 5025 O 507.842 -1.94426 -0.0537202 0
M  V30 5026 C 508.125 -1.23619 3.38216 0
M  V30 5027 C 507.978 -0.168274 4.49485 0
M  V30 5028 C 509.297 -2.15008 3.84005 0
M  V30 5029 H 506.416 -0.228629 0.700641 0
M  V30 5030 H 509.058 0.103651 1.89717 0
M  V30 5031 H 507.208 -1.864 3.40863 0
M  V30 5032 H 508.88 0.463196 4.58969 0
M  V30 5033 H 507.123 0.504581 4.30855 0
M  V30 5034 H 507.794 -0.630218 5.48391 0
M  V30 5035 H 510.27 -1.62198 3.83185 0
M  V30 5036 H 509.146 -2.54161 4.86511 0
M  V30 5037 H 509.407 -3.04707 3.20322 0
M  V30 5038 N 508.466 -1.55915 -0.229846 0
M  V30 5039 C 509.715 -1.77742 -0.953455 0
M  V30 5040 C 510.028 -0.610524 -1.85828 0
M  V30 5041 O 511.234 -0.712219 -2.61992 0
M  V30 5042 C 509.69 -3.14738 -1.74551 0
M  V30 5043 C 509.298 -4.39126 -0.887242 0
M  V30 5044 C 511.042 -3.45895 -2.46084 0
M  V30 5045 C 508.949 -5.67149 -1.67617 0
M  V30 5046 H 507.879 -0.662648 -0.359741 0
M  V30 5047 H 510.53 -1.82322 -0.207576 0
M  V30 5048 H 508.912 -3.04311 -2.53399 0
M  V30 5049 H 510.086 -4.60588 -0.139892 0
M  V30 5050 H 508.401 -4.15427 -0.284443 0
M  V30 5051 H 510.998 -4.38767 -3.05594 0
M  V30 5052 H 511.341 -2.68007 -3.18556 0
M  V30 5053 H 511.874 -3.57614 -1.74233 0
M  V30 5054 H 508.613 -6.47906 -0.994881 0
M  V30 5055 H 508.133 -5.49763 -2.39836 0
M  V30 5056 H 509.812 -6.07025 -2.23898 0
M  V30 5057 N 509.944 0.496216 -1.49584 0
M  V30 5058 C 510.892 1.61805 -1.67098 0
M  V30 5059 C 511.886 1.60667 -0.536877 0
M  V30 5060 O 513.092 1.65118 -0.716654 0
M  V30 5061 H 509.467 0.53646 -0.526986 0
M  V30 5062 H 511.438 1.44187 -2.61252 0
M  V30 5063 C 510.187 2.99912 -1.75921 0
M  V30 5064 H 509.51 3.01496 -2.62565 0
M  V30 5065 H 510.95 3.77931 -1.92209 0
M  V30 5066 C 509.409 3.33092 -0.505088 0
M  V30 5067 O 509.939 4.00019 0.367085 0
M  V30 5068 N 508.145 2.88278 -0.366599 0
M  V30 5069 H 507.692 2.33989 -1.07735 0
M  V30 5070 H 507.65 3.10846 0.47142 0
M  V30 5071 N 511.423 1.38739 0.74761 0
M  V30 5072 C 512.669 1.35475 1.50912 0
M  V30 5073 C 513.002 -0.0533093 1.94127 0
M  V30 5074 O 512.277 -1.01572 1.65871 0
M  V30 5075 C 512.56 2.31582 2.75757 0
M  V30 5076 C 512.413 3.81274 2.38642 0
M  V30 5077 C 513.732 2.25722 3.77806 0
M  V30 5078 H 510.851 0.493427 0.547447 0
M  V30 5079 H 513.493 1.69634 0.855823 0
M  V30 5080 H 511.643 2.02582 3.31501 0
M  V30 5081 H 513.315 4.20972 1.88626 0
M  V30 5082 H 511.558 3.98664 1.71025 0
M  V30 5083 H 512.229 4.4399 3.27989 0
M  V30 5084 H 514.705 2.51336 3.31616 0
M  V30 5085 H 513.581 2.95069 4.62845 0
M  V30 5086 H 513.842 1.25803 4.23823 0
M  V30 5087 N 512.901 -0.976442 1.23707 0
M  V30 5088 C 514.126 -1.75875 1.09922 0
M  V30 5089 C 514.551 -1.84911 -0.34489 0
M  V30 5090 O 513.909 -1.31363 -1.24954 0
M  V30 5091 C 513.957 -3.16179 1.73388 0
M  V30 5092 O 513.061 -4.00124 0.99871 0
M  V30 5093 H 512.402 -0.540954 0.385052 0
M  V30 5094 H 514.932 -1.22546 1.6384 0
M  V30 5095 H 514.942 -3.66741 1.78788 0
M  V30 5096 H 513.617 -3.08917 2.78466 0
M  V30 5097 H 512.194 -3.58624 1.02193 0
M  V30 5098 N 514.379 -1.04941 -1.1758 0
M  V30 5099 C 515.309 -0.669172 -2.23706 0
M  V30 5100 C 516.29 0.331835 -1.66832 0
M  V30 5101 O 517.475 0.209988 -1.93061 0
M  V30 5102 C 514.605 -0.0404889 -3.47276 0
M  V30 5103 C 513.559 -0.965983 -4.16957 0
M  V30 5104 C 512.885 -0.201312 -5.34321 0
M  V30 5105 C 514.185 -2.28902 -4.69469 0
M  V30 5106 H 515.879 -1.55639 -2.55767 0
M  V30 5107 H 513.425 -0.749793 -1.22939 0
M  V30 5108 H 515.378 0.237298 -4.20731 0
M  V30 5109 H 514.102 0.881658 -3.14475 0
M  V30 5110 H 512.761 -1.22829 -3.45411 0
M  V30 5111 H 512.409 0.723519 -4.97769 0
M  V30 5112 H 512.109 -0.817968 -5.81879 0
M  V30 5113 H 513.633 0.0692499 -6.10561 0
M  V30 5114 H 515.047 -2.07132 -5.34574 0
M  V30 5115 H 513.444 -2.85942 -5.27596 0
M  V30 5116 H 514.514 -2.92937 -3.86414 0
M  V30 5117 N 515.857 1.33968 -0.830081 0
M  V30 5118 C 517.105 1.97672 -0.420734 0
M  V30 5119 C 517.426 1.66111 1.02138 0
M  V30 5120 O 516.696 0.955503 1.71017 0
M  V30 5121 H 515.276 0.73125 -0.152587 0
M  V30 5122 H 517.938 1.63483 -1.0611 0
M  V30 5123 H 517.034 3.07294 -0.545588 0
M  V30 5124 N 517.335 0.585699 1.46312 0
M  V30 5125 C 518.581 0.0808731 2.03239 0
M  V30 5126 C 518.936 -1.26609 1.44872 0
M  V30 5127 O 518.229 -1.81779 0.60556 0
M  V30 5128 C 518.423 -0.0401312 3.57377 0
M  V30 5129 C 518.252 1.29356 4.30694 0
M  V30 5130 C 517.022 1.86849 4.69484 0
M  V30 5131 C 519.22 2.21742 4.64042 0
M  V30 5132 N 517.202 3.13926 5.27564 0
M  V30 5133 C 518.573 3.33408 5.22723 0
M  V30 5134 C 520.628 2.21386 4.45974 0
M  V30 5135 C 519.331 4.44852 5.65242 0
M  V30 5136 C 521.357 3.31862 4.89511 0
M  V30 5137 C 520.719 4.42248 5.48266 0
M  V30 5138 H 516.818 0.072443 0.778637 0
M  V30 5139 H 519.402 0.779254 1.78426 0
M  V30 5140 H 517.573 -0.707686 3.81898 0
M  V30 5141 H 519.305 -0.549615 4.00951 0
M  V30 5142 H 516.06 1.40307 4.52339 0
M  V30 5143 H 516.484 3.78775 5.61122 0
M  V30 5144 H 521.126 1.37314 3.99881 0
M  V30 5145 H 518.844 5.29665 6.10312 0
M  V30 5146 H 522.43 3.32708 4.7728 0
M  V30 5147 H 521.31 5.26323 5.81338 0
M  V30 5148 N 518.813 -1.54241 0.323641 0
M  V30 5149 C 520.053 -2.0248 -0.279502 0
M  V30 5150 C 520.417 -1.20672 -1.49339 0
M  V30 5151 O 521.618 -1.58715 -2.1694 0
M  V30 5152 C 519.889 -3.52238 -0.605266 0
M  V30 5153 S 521.448 -4.22411 -1.18805 0
M  V30 5154 H 518.266 -0.705957 -0.0845313 0
M  V30 5155 H 520.868 -1.90089 0.456781 0
M  V30 5156 H 519.572 -4.094 0.286339 0
M  V30 5157 H 519.103 -3.6871 -1.37174 0
M  V30 5158 H 521.118 -4.30075 -2.47487 0
M  V30 5159 N 520.291 -0.0518155 -1.57515 0
M  V30 5160 C 521.201 0.937539 -2.15052 0
M  V30 5161 C 522.217 1.34121 -1.10849 0
M  V30 5162 O 523.393 1.418 -1.4302 0
M  V30 5163 C 520.458 2.19379 -2.68466 0
M  V30 5164 C 519.519 1.84841 -3.87469 0
M  V30 5165 C 518.752 3.04477 -4.38326 0
M  V30 5166 O 518.975 4.17868 -3.88256 0
M  V30 5167 O 517.909 2.85453 -5.29906 0
M  V30 5168 H 521.735 0.478201 -2.99912 0
M  V30 5169 H 519.32 0.17012 -1.48428 0
M  V30 5170 H 521.202 2.93084 -3.02787 0
M  V30 5171 H 519.877 2.64449 -1.86677 0
M  V30 5172 H 518.784 1.08449 -3.58036 0
M  V30 5173 H 520.117 1.44569 -4.7049 0
M  V30 5174 N 521.769 1.56035 0.221574 0
M  V30 5175 C 522.732 1.91584 1.2581 0
M  V30 5176 C 523.732 0.794425 1.39805 0
M  V30 5177 O 524.922 1.06217 1.38071 0
M  V30 5178 C 522.054 2.16663 2.63192 0
M  V30 5179 H 523.247 2.8429 0.954935 0
M  V30 5180 H 520.8 1.49316 0.461988 0
M  V30 5181 H 521.535 1.26508 2.98607 0
M  V30 5182 H 521.32 2.98358 2.5441 0
M  V30 5183 H 522.81 2.45262 3.37988 0
M  V30 5184 N 523.247 -0.488276 1.49845 0
M  V30 5185 C 524.524 -1.24959 1.50481 0
M  V30 5186 C 524.904 -2.09735 0.239698 0
M  V30 5187 O 524.252 -2.14865 -0.777524 0
M  V30 5188 C 524.462 -2.0954 2.79095 0
M  V30 5189 C 525.81 -2.68305 3.29086 0
M  V30 5190 O 526.834 -2.19797 2.80299 0
M  V30 5191 O 525.693 -3.56643 4.14087 0
M  V30 5192 H 522.787 -0.566133 0.602845 0
M  V30 5193 H 525.333 -0.501504 1.6212 0
M  V30 5194 H 524.105 -1.46958 3.62656 0
M  V30 5195 H 523.728 -2.91517 2.70377 0
M  V30 5196 N 524.725 -1.39134 -0.740242 0
M  V30 5197 C 525.688 -1.37217 -1.83587 0
M  V30 5198 C 526.688 -0.270221 -1.58513 0
M  V30 5199 O 527.878 -0.527843 -1.6601 0
M  V30 5200 C 525.01 -1.13959 -3.21288 0
M  V30 5201 H 526.203 -2.34705 -1.86691 0
M  V30 5202 H 523.756 -1.24622 -0.94335 0
M  V30 5203 H 524.491 -0.17131 -3.23847 0
M  V30 5204 H 524.276 -1.93754 -3.40884 0
M  V30 5205 H 525.766 -1.15346 -4.01354 0
M  V30 5206 N 526.204 0.969867 -1.24223 0
M  V30 5207 C 527.152 2.08535 -1.03034 0
M  V30 5208 C 528.146 1.69366 0.0340379 0
M  V30 5209 O 529.352 1.79597 -0.12034 0
M  V30 5210 H 525.727 0.682313 -0.316154 0
M  V30 5211 H 527.698 2.23569 -1.97635 0
M  V30 5212 C 526.447 3.4158 -0.649509 0
M  V30 5213 H 525.77 3.72177 -1.46028 0
M  V30 5214 H 527.21 4.20536 -0.540841 0
M  V30 5215 C 525.669 3.30703 0.643194 0
M  V30 5216 O 526.199 3.64443 1.68951 0
M  V30 5217 N 524.405 2.83841 0.623095 0
M  V30 5218 H 523.952 2.56583 -0.228719 0
M  V30 5219 H 523.91 2.76946 1.48823 0
M  V30 5220 N 527.682 1.05563 1.17022 0
M  V30 5221 C 528.645 0.664098 2.19368 0
M  V30 5222 C 529.645 -0.286358 1.5823 0
M  V30 5223 O 530.835 -0.069728 1.7406 0
M  V30 5224 C 527.967 -0.0239932 3.40892 0
M  V30 5225 H 529.16 1.57 2.55521 0
M  V30 5226 H 526.713 0.849964 1.31169 0
M  V30 5227 H 527.448 -0.942988 3.10287 0
M  V30 5228 H 527.233 0.659351 3.86516 0
M  V30 5229 H 528.723 -0.283909 4.16634 0
M  V30 5230 N 529.16 -1.33526 0.837174 0
M  V30 5231 C 530.437 -1.92369 0.354065 0
M  V30 5232 C 530.817 -1.76348 -1.16038 0
M  V30 5233 O 530.165 -1.15083 -1.97403 0
M  V30 5234 C 530.375 -3.39728 0.799101 0
M  V30 5235 C 531.723 -4.16877 0.806139 0
M  V30 5236 O 532.747 -3.48373 0.742597 0
M  V30 5237 O 531.606 -5.39166 0.892345 0
M  V30 5238 H 528.7 -0.820952 0.0998378 0
M  V30 5239 H 531.246 -1.42409 0.922913 0
M  V30 5240 H 530.018 -3.45254 1.84162 0
M  V30 5241 H 529.641 -3.97062 0.206731 0
M  V30 5242 N 530.638 -0.59345 -1.46 0
M  V30 5243 C 531.886 -0.082988 -2.0193 0
M  V30 5244 C 532.207 1.28569 -1.46612 0
M  V30 5245 O 531.477 1.84629 -0.654909 0
M  V30 5246 H 530.057 -0.0276882 -0.746487 0
M  V30 5247 H 532.719 -0.771657 -1.78973 0
M  V30 5248 H 531.815 -0.022079 -3.12092 0
M  V30 5249 N 532.116 1.54067 -0.331816 0
M  V30 5250 C 533.344 2.05131 0.269996 0
M  V30 5251 C 533.759 1.20749 1.45138 0
M  V30 5252 O 533.116 0.240069 1.80914 0
M  V30 5253 C 533.167 3.54728 0.696456 0
M  V30 5254 O 532.888 4.35906 -0.43794 0
M  V30 5255 C 534.389 4.21916 1.36021 0
M  V30 5256 H 531.609 0.668807 0.0542042 0
M  V30 5257 H 534.153 1.98777 -0.4804 0
M  V30 5258 H 532.308 3.61342 1.39681 0
M  V30 5259 H 532.722 5.24404 -0.100334 0
M  V30 5260 H 534.196 5.28015 1.60947 0
M  V30 5261 H 534.673 3.73538 2.31011 0
M  V30 5262 H 535.279 4.19463 0.702212 0
M  V30 5263 N 533.594 0.0601682 1.57485 0
M  V30 5264 C 534.524 -0.90889 2.15085 0
M  V30 5265 C 535.505 -1.31838 1.07484 0
M  V30 5266 O 536.69 -1.3915 1.35466 0
M  V30 5267 C 533.82 -2.18059 2.7031 0
M  V30 5268 C 532.774 -1.91088 3.82974 0
M  V30 5269 C 532.1 -3.24789 4.24754 0
M  V30 5270 C 533.4 -1.22535 5.07723 0
M  V30 5271 H 535.094 -0.429093 2.96309 0
M  V30 5272 H 532.64 -0.204952 1.42534 0
M  V30 5273 H 534.593 -2.86258 3.09248 0
M  V30 5274 H 533.317 -2.6826 1.8629 0
M  V30 5275 H 531.976 -1.25297 3.44523 0
M  V30 5276 H 531.624 -3.72809 3.37672 0
M  V30 5277 H 531.324 -3.07538 5.00694 0
M  V30 5278 H 532.848 -3.94205 4.66299 0
M  V30 5279 H 534.262 -1.80783 5.4405 0
M  V30 5280 H 532.659 -1.1558 5.88864 0
M  V30 5281 H 533.729 -0.202692 4.84476 0
M  V30 5282 N 535.072 -1.5615 -0.213296 0
M  V30 5283 C 536.004 -1.89586 -1.28802 0
M  V30 5284 C 537.017 -0.784844 -1.42633 0
M  V30 5285 O 538.206 -1.06319 -1.43383 0
M  V30 5286 C 535.306 -2.09665 -2.66259 0
M  V30 5287 C 534.479 -3.40726 -2.7427 0
M  V30 5288 C 533.538 -3.50137 -3.92798 0
M  V30 5289 O 532.564 -4.23105 -3.8075 0
M  V30 5290 N 533.766 -2.81886 -5.07465 0
M  V30 5291 H 536.531 -2.82368 -1.00442 0
M  V30 5292 H 534.092 -1.56796 -0.403302 0
M  V30 5293 H 536.084 -2.13268 -3.43946 0
M  V30 5294 H 534.654 -1.23469 -2.87183 0
M  V30 5295 H 533.874 -3.4915 -1.82997 0
M  V30 5296 H 535.162 -4.27048 -2.76599 0
M  V30 5297 H 534.56 -2.22397 -5.2015 0
M  V30 5298 H 533.117 -2.91139 -5.83165 0
M  V30 5299 N 536.55 0.480323 -1.50102 0
M  V30 5300 C 537.513 1.56181 -1.6775 0
M  V30 5301 C 538.513 1.51156 -0.548503 0
M  V30 5302 O 539.703 1.5394 -0.815363 0
M  V30 5303 C 536.835 2.95823 -1.69415 0
M  V30 5304 H 538.028 1.41855 -2.6423 0
M  V30 5305 H 535.581 0.70605 -1.39444 0
M  V30 5306 H 536.316 3.15604 -0.745948 0
M  V30 5307 H 536.101 3.00878 -2.51425 0
M  V30 5308 H 537.591 3.74359 -1.85054 0
M  V30 5309 N 538.028 1.39524 0.732853 0
M  V30 5310 C 538.938 1.40695 1.87729 0
M  V30 5311 C 539.954 0.301496 1.71368 0
M  V30 5312 O 541.13 0.543313 1.93933 0
M  V30 5313 C 538.195 1.25098 3.23344 0
M  V30 5314 C 537.256 2.45634 3.52083 0
M  V30 5315 C 536.489 2.30772 4.81228 0
M  V30 5316 O 536.712 1.31233 5.55098 0
M  V30 5317 O 535.646 3.19799 5.09914 0
M  V30 5318 H 539.472 2.37168 1.89697 0
M  V30 5319 H 537.057 1.20663 0.880959 0
M  V30 5320 H 538.939 1.18541 4.04383 0
M  V30 5321 H 537.614 0.317209 3.22142 0
M  V30 5322 H 536.521 2.57767 2.71122 0
M  V30 5323 H 537.854 3.37712 3.58066 0
M  V30 5324 N 539.506 -0.963266 1.24736 0
M  V30 5325 C 540.783 -1.68248 0.9976 0
M  V30 5326 C 541.163 -2.05599 -0.478776 0
M  V30 5327 O 540.511 -1.7626 -1.45412 0
M  V30 5328 C 540.721 -2.91118 1.92487 0
M  V30 5329 C 542.069 -3.63261 2.19833 0
M  V30 5330 O 543.093 -3.01184 1.90176 0
M  V30 5331 O 541.952 -4.75019 2.7022 0
M  V30 5332 H 539.046 -0.735744 0.377637 0
M  V30 5333 H 541.592 -1.01696 1.35853 0
M  V30 5334 H 540.364 -2.60242 2.92215 0
M  V30 5335 H 539.987 -3.65402 1.56738 0
M  V30 5336 N 540.985 -1.06182 -1.16461 0
M  V30 5337 C 542.401 -0.785065 -1.38956 0
M  V30 5338 C 542.601 0.616103 -1.9185 0
M  V30 5339 O 541.657 1.37686 -2.11657 0
M  V30 5340 C 542.97 -1.84902 -2.37132 0
M  V30 5341 C 544.518 -1.8724 -2.50819 0
M  V30 5342 C 544.993 -2.92686 -3.52277 0
M  V30 5343 N 546.484 -2.91712 -3.59803 0
M  V30 5344 C 547.219 -3.69949 -4.38093 0
M  V30 5345 N 546.715 -4.58 -5.19815 0
M  V30 5346 N 548.508 -3.58346 -4.33064 0
M  V30 5347 H 540.659 -1.96569 -0.804634 0
M  V30 5348 H 542.922 -0.851747 -0.416211 0
M  V30 5349 H 542.628 -2.85518 -2.0536 0
M  V30 5350 H 542.502 -1.69908 -3.36766 0
M  V30 5351 H 544.889 -0.872827 -2.81897 0
M  V30 5352 H 544.97 -2.06311 -1.51226 0
M  V30 5353 H 544.614 -3.92835 -3.21937 0
M  V30 5354 H 544.544 -2.70864 -4.51598 0
M  V30 5355 H 547.035 -2.27876 -3.01464 0
M  V30 5356 H 547.348 -5.14357 -5.76764 0
M  V30 5357 H 545.693 -4.62056 -5.19162 0
M  V30 5358 H 548.884 -2.88943 -3.68279 0
M  V30 5359 H 549.057 -4.19563 -4.93833 0
M  V30 5360 N 542.463 1.3308 -0.844243 0
M  V30 5361 C 543.712 1.96868 -0.438833 0
M  V30 5362 C 544.025 1.67599 1.00846 0
M  V30 5363 O 545.231 2.25043 1.51881 0
M  V30 5364 C 543.687 3.5234 -0.73377 0
M  V30 5365 C 543.295 3.90481 -2.1961 0
M  V30 5366 C 545.039 4.22653 -0.395574 0
M  V30 5367 C 542.946 5.38954 -2.43481 0
M  V30 5368 H 541.876 0.736749 -0.160364 0
M  V30 5369 H 544.527 1.51623 -1.03358 0
M  V30 5370 H 542.909 3.95941 -0.068589 0
M  V30 5371 H 544.083 3.57922 -2.90221 0
M  V30 5372 H 542.398 3.33165 -2.4978 0
M  V30 5373 H 544.995 5.31848 -0.551477 0
M  V30 5374 H 545.338 4.11004 0.661921 0
M  V30 5375 H 545.871 3.84601 -1.01621 0
M  V30 5376 H 542.61 5.55612 -3.47816 0
M  V30 5377 H 542.13 5.72954 -1.77437 0
M  V30 5378 H 543.809 6.05907 -2.26905 0
M  V30 5379 N 543.941 0.601185 1.45683 0
M  V30 5380 C 545.188 0.0938811 2.02282 0
M  V30 5381 C 545.516 -1.27315 1.47041 0
M  V30 5382 O 544.771 -1.85193 0.632623 0
M  V30 5383 C 545.07 -0.00222425 3.574 0
M  V30 5384 C 544.736 1.29963 4.31764 0
M  V30 5385 C 543.398 1.65625 4.51798 0
M  V30 5386 C 545.75 2.1603 4.74321 0
M  V30 5387 C 543.078 2.87119 5.11644 0
M  V30 5388 C 545.43 3.36766 5.3551 0
M  V30 5389 C 544.094 3.72689 5.53768 0
M  V30 5390 H 543.364 0.0343535 0.740203 0
M  V30 5391 H 546.011 0.781522 1.74827 0
M  V30 5392 H 544.316 -0.773096 3.84097 0
M  V30 5393 H 546.013 -0.410794 3.9889 0
M  V30 5394 H 542.603 1.01204 4.1648 0
M  V30 5395 H 546.787 1.89778 4.58582 0
M  V30 5396 H 542.043 3.15065 5.2397 0
M  V30 5397 H 546.217 4.03713 5.67441 0
M  V30 5398 H 543.844 4.66918 5.99909 0
M  V30 5399 N 545.419 -1.53889 0.339982 0
M  V30 5400 C 546.382 -2.23547 -0.50592 0
M  V30 5401 C 547.382 -1.23445 -1.03044 0
M  V30 5402 O 548.572 -1.47909 -0.920253 0
M  V30 5403 C 545.704 -2.95234 -1.7044 0
M  V30 5404 H 546.897 -2.99722 0.103247 0
M  V30 5405 H 544.45 -1.56033 0.0912804 0
M  V30 5406 H 545.185 -2.23236 -2.35236 0
M  V30 5407 H 544.97 -3.68654 -1.33553 0
M  V30 5408 H 546.46 -3.48258 -2.30447 0
M  V30 5409 N 546.897 -0.0685191 -1.57451 0
M  V30 5410 C 548.125 0.610462 -1.97689 0
M  V30 5411 C 548.54 1.63346 -0.946758 0
M  V30 5412 O 547.897 1.82377 0.0669868 0
M  V30 5413 C 547.948 1.28196 -3.38006 0
M  V30 5414 O 547.669 0.299906 -4.37072 0
M  V30 5415 C 549.17 2.04907 -3.931 0
M  V30 5416 H 546.39 0.165689 -0.650222 0
M  V30 5417 H 548.934 -0.139953 -2.04021 0
M  V30 5418 H 547.089 1.98348 -3.32771 0
M  V30 5419 H 547.503 0.78126 -5.18649 0
M  V30 5420 H 548.977 2.47287 -4.93511 0
M  V30 5421 H 549.454 2.9043 -3.29465 0
M  V30 5422 H 550.06 1.39629 -4.01726 0
M  V30 5423 N 548.375 1.56261 0.205012 0
M  V30 5424 C 549.338 1.92908 1.23771 0
M  V30 5425 C 550.338 0.809208 1.38955 0
M  V30 5426 O 551.528 1.07676 1.36936 0
M  V30 5427 C 548.66 2.19442 2.60879 0
M  V30 5428 H 549.853 2.85287 0.924728 0
M  V30 5429 H 547.406 1.49798 0.446125 0
M  V30 5430 H 548.141 1.29668 2.97248 0
M  V30 5431 H 547.926 3.0104 2.51232 0
M  V30 5432 H 549.416 2.48833 3.35368 0
M  V30 5433 N 549.853 -0.472356 1.50355 0
M  V30 5434 C 550.816 -1.5529 1.68576 0
M  V30 5435 C 551.816 -1.50863 0.556511 0
M  V30 5436 O 553.006 -1.53505 0.823516 0
M  V30 5437 C 550.138 -2.94921 1.70981 0
M  V30 5438 H 551.331 -1.40451 2.64978 0
M  V30 5439 H 548.884 -0.698645 1.39816 0
M  V30 5440 H 549.619 -3.15204 0.762675 0
M  V30 5441 H 549.404 -2.99541 2.53017 0
M  V30 5442 H 550.894 -3.73372 1.87037 0
M  V30 5443 N 551.331 -1.39911 -0.725443 0
M  V30 5444 C 552.294 -1.39156 -1.82121 0
M  V30 5445 C 553.294 -0.287018 -1.58218 0
M  V30 5446 O 554.484 -0.545421 -1.65441 0
M  V30 5447 C 551.616 -1.1736 -3.20062 0
M  V30 5448 H 552.809 -2.36672 -1.84191 0
M  V30 5449 H 550.362 -1.25615 -0.930079 0
M  V30 5450 H 551.097 -0.205648 -3.23647 0
M  V30 5451 H 550.882 -1.97358 -3.3881 0
M  V30 5452 H 552.372 -1.19596 -4.00108 0
M  V30 5453 N 552.809 0.956637 -1.25245 0
M  V30 5454 C 553.741 2.05628 -1.01242 0
M  V30 5455 C 554.754 1.62785 0.0219579 0
M  V30 5456 O 555.943 1.77184 -0.216365 0
M  V30 5457 C 553.043 3.35069 -0.508161 0
M  V30 5458 C 552.216 4.06761 -1.60823 0
M  V30 5459 C 551.275 5.14473 -1.1047 0
M  V30 5460 O 550.301 5.40033 -1.79868 0
M  V30 5461 N 551.503 5.80474 0.0550773 0
M  V30 5462 H 554.268 2.2679 -1.95925 0
M  V30 5463 H 551.829 1.12505 -1.16423 0
M  V30 5464 H 553.821 4.044 -0.155819 0
M  V30 5465 H 552.391 3.10694 0.344683 0
M  V30 5466 H 551.611 3.31555 -2.13224 0
M  V30 5467 H 552.899 4.51418 -2.34733 0
M  V30 5468 H 552.297 5.62125 0.635004 0
M  V30 5469 H 550.854 6.50868 0.348469 0
M  V30 5470 N 554.287 1.06798 1.15896 0
M  V30 5471 C 555.535 0.786211 1.8618 0
M  V30 5472 C 555.856 -0.689547 1.82401 0
M  V30 5473 O 555.126 -1.49913 1.26107 0
M  V30 5474 H 553.706 0.287843 0.689315 0
M  V30 5475 H 556.368 1.35055 1.40521 0
M  V30 5476 H 555.464 1.1157 2.91477 0
M  V30 5477 N 555.766 -1.3263 0.851289 0
M  V30 5478 C 556.698 -2.27824 0.250757 0
M  V30 5479 C 557.711 -1.52285 -0.575598 0
M  V30 5480 O 558.9 -1.73946 -0.400638 0
M  V30 5481 C 556 -3.3232 -0.664571 0
M  V30 5482 C 555.173 -4.37221 0.125187 0
M  V30 5483 C 554.232 -5.21314 -0.715385 0
M  V30 5484 O 553.258 -5.69002 -0.150111 0
M  V30 5485 N 554.46 -5.43823 -2.03069 0
M  V30 5486 H 557.225 -2.79997 1.06873 0
M  V30 5487 H 554.786 -1.45455 0.710943 0
M  V30 5488 H 556.778 -3.85486 -1.23216 0
M  V30 5489 H 555.348 -2.80331 -1.38323 0
M  V30 5490 H 554.568 -3.84384 0.874199 0
M  V30 5491 H 555.856 -5.04399 0.667774 0
M  V30 5492 H 555.254 -5.06803 -2.51332 0
M  V30 5493 H 553.811 -5.99998 -2.54648 0
M  V30 5494 N 557.244 -0.608902 -1.45362 0
M  V30 5495 C 558.472 -0.111013 -2.06602 0
M  V30 5496 C 558.887 1.20516 -1.45332 0
M  V30 5497 O 558.244 1.73437 -0.567978 0
M  V30 5498 C 558.295 0.033688 -3.61484 0
M  V30 5499 O 558.016 -1.23041 -4.20467 0
M  V30 5500 C 559.517 0.562882 -4.39712 0
M  V30 5501 H 556.737 -0.0694453 -0.667397 0
M  V30 5502 H 559.281 -0.837008 -1.86586 0
M  V30 5503 H 557.436 0.710016 -3.80838 0
M  V30 5504 H 557.85 -1.06094 -5.13658 0
M  V30 5505 H 559.324 0.613213 -5.48583 0
M  V30 5506 H 559.801 1.58543 -4.09586 0
M  V30 5507 H 560.407 -0.0794454 -4.25226 0
M  V30 5508 N 558.722 1.53707 -0.348139 0
M  V30 5509 C 559.969 2.00988 0.246966 0
M  V30 5510 C 560.297 1.23586 1.50189 0
M  V30 5511 O 559.552 0.312817 1.93184 0
M  V30 5512 C 559.851 3.52292 0.602061 0
M  V30 5513 C 559.517 4.47453 -0.556509 0
M  V30 5514 C 558.179 4.73188 -0.874446 0
M  V30 5515 C 560.531 5.03851 -1.33354 0
M  V30 5516 C 557.859 5.52577 -1.9717 0
M  V30 5517 C 560.211 5.84437 -2.42108 0
M  V30 5518 C 558.875 6.08465 -2.74456 0
M  V30 5519 H 558.145 0.735469 0.0903712 0
M  V30 5520 H 560.792 1.85464 -0.477001 0
M  V30 5521 H 559.097 3.65672 1.40681 0
M  V30 5522 H 560.794 3.86337 1.07447 0
M  V30 5523 H 557.384 4.27558 -0.298652 0
M  V30 5524 H 561.568 4.8393 -1.10117 0
M  V30 5525 H 556.824 5.69418 -2.22651 0
M  V30 5526 H 560.998 6.27151 -3.02745 0
M  V30 5527 H 558.625 6.69768 -3.59604 0
M  V30 5528 N 560.2 0.0768682 1.57412 0
M  V30 5529 C 561.425 -0.603404 1.98428 0
M  V30 5530 C 561.85 -1.62047 0.955108 0
M  V30 5531 O 561.208 -1.81129 -0.0786778 0
M  V30 5532 C 561.256 -1.24396 3.38464 0
M  V30 5533 O 560.36 -2.35982 3.3821 0
M  V30 5534 H 559.701 -0.154741 0.645718 0
M  V30 5535 H 562.231 0.152885 2.04028 0
M  V30 5536 H 562.241 -1.5896 3.7576 0
M  V30 5537 H 560.916 -0.498735 4.12899 0
M  V30 5538 H 559.493 -2.03173 3.1269 0
M  V30 5539 N 561.678 -1.56367 -0.196722 0
M  V30 5540 C 562.924 -1.80796 -0.918725 0
M  V30 5541 C 563.257 -0.650645 -1.82976 0
M  V30 5542 O 562.532 0.348889 -1.91345 0
M  V30 5543 C 562.815 -3.15472 -1.73636 0
M  V30 5544 C 562.668 -4.41693 -0.85015 0
M  V30 5545 C 563.987 -3.46824 -2.70927 0
M  V30 5546 H 561.106 -0.657702 -0.332561 0
M  V30 5547 H 563.748 -1.89086 -0.186186 0
M  V30 5548 H 561.898 -3.08536 -2.36088 0
M  V30 5549 H 563.57 -4.60673 -0.240459 0
M  V30 5550 H 561.813 -4.33517 -0.156785 0
M  V30 5551 H 562.484 -5.32419 -1.45719 0
M  V30 5552 H 564.96 -3.54049 -2.18607 0
M  V30 5553 H 563.836 -4.4218 -3.25219 0
M  V30 5554 H 564.097 -2.70236 -3.49893 0
M  V30 5555 N 563.156 0.464375 -1.50603 0
M  V30 5556 C 564.381 1.24372 -1.65971 0
M  V30 5557 C 564.806 1.84901 -0.345453 0
M  V30 5558 O 564.164 1.67596 0.691457 0
M  V30 5559 C 564.212 2.32331 -2.7578 0
M  V30 5560 O 563.316 3.37146 -2.375 0
M  V30 5561 H 562.657 0.365604 -0.554283 0
M  V30 5562 H 565.187 0.55183 -1.97018 0
M  V30 5563 H 565.197 2.77539 -2.99059 0
M  V30 5564 H 563.872 1.87648 -3.71162 0
M  V30 5565 H 562.449 2.97602 -2.24694 0
M  V30 5566 N 564.634 1.40294 0.718013 0
M  V30 5567 C 565.859 1.41941 1.5122 0
M  V30 5568 C 566.284 0.0202371 1.88089 0
M  V30 5569 O 565.642 -0.971078 1.53101 0
M  V30 5570 C 565.69 2.3141 2.76554 0
M  V30 5571 O 564.794 1.75567 3.73162 0
M  V30 5572 H 564.135 0.482644 0.456016 0
M  V30 5573 H 566.665 1.84494 0.884478 0
M  V30 5574 H 566.675 2.46513 3.25108 0
M  V30 5575 H 565.35 3.33085 2.49053 0
M  V30 5576 H 563.927 1.69798 3.31999 0
M  V30 5577 N 566.112 -0.949982 1.2575 0
M  V30 5578 C 567.36 -1.6918 1.10555 0
M  V30 5579 C 567.681 -1.91773 -0.353298 0
M  V30 5580 O 566.951 -1.50814 -1.25027 0
M  V30 5581 H 565.531 -0.626952 0.406129 0
M  V30 5582 H 568.193 -1.1419 1.57945 0
M  V30 5583 H 567.289 -2.66915 1.61749 0
M  V30 5584 N 567.59 -1.07411 -1.15328 0
M  V30 5585 C 568.867 -0.710732 -1.82231 0
M  V30 5586 C 569.247 0.806732 -1.95077 0
M  V30 5587 O 568.595 1.72139 -1.50268 0
M  V30 5588 C 568.805 -1.42586 -3.18544 0
M  V30 5589 C 570.153 -1.57836 -3.94174 0
M  V30 5590 O 571.177 -1.38669 -3.281 0
M  V30 5591 O 570.036 -1.8938 -5.12638 0
M  V30 5592 H 567.13 -0.25297 -0.78736 0
M  V30 5593 H 569.676 -1.17508 -1.22434 0
M  V30 5594 H 568.448 -2.46008 -3.04296 0
M  V30 5595 H 568.071 -0.952332 -3.86026 0
M  V30 5596 N 569.068 1.32177 -0.85831 0
M  V30 5597 C 569.978 2.32561 -0.308606 0
M  V30 5598 C 570.994 1.64209 0.575462 0
M  V30 5599 O 572.17 1.95719 0.474961 0
M  V30 5600 C 569.235 3.43207 0.490909 0
M  V30 5601 C 568.296 4.27243 -0.419733 0
M  V30 5602 C 567.529 5.32605 0.341719 0
M  V30 5603 O 567.752 5.48332 1.57125 0
M  V30 5604 O 566.686 6.0118 -0.294379 0
M  V30 5605 H 570.512 2.81477 -1.14037 0
M  V30 5606 H 568.097 1.35866 -0.621349 0
M  V30 5607 H 569.979 4.10677 0.944574 0
M  V30 5608 H 568.654 2.96474 1.29941 0
M  V30 5609 H 567.561 3.62569 -0.921652 0
M  V30 5610 H 568.894 4.7751 -1.19352 0
M  V30 5611 N 570.547 0.616602 1.45037 0
M  V30 5612 C 571.795 0.115103 2.01772 0
M  V30 5613 C 572.116 -1.2622 1.48639 0
M  V30 5614 O 571.386 -1.83563 0.684199 0
M  V30 5615 H 569.966 0.0395607 0.745952 0
M  V30 5616 H 572.628 0.800032 1.77723 0
M  V30 5617 H 571.724 0.0717274 3.12018 0
M  V30 5618 N 572.025 -1.5352 0.356285 0
M  V30 5619 C 573.271 -2.01414 -0.236653 0
M  V30 5620 C 573.604 -1.24339 -1.49176 0
M  V30 5621 O 572.879 -0.334496 -1.91602 0
M  V30 5622 C 573.162 -3.56059 -0.537982 0
M  V30 5623 C 573.015 -4.43835 0.730112 0
M  V30 5624 C 574.334 -4.19127 -1.34239 0
M  V30 5625 H 571.453 -0.732135 -0.0845386 0
M  V30 5626 H 574.095 -1.83854 0.479341 0
M  V30 5627 H 572.245 -3.71153 -1.14795 0
M  V30 5628 H 573.917 -4.40555 1.36782 0
M  V30 5629 H 572.16 -4.1218 1.3524 0
M  V30 5630 H 572.831 -5.49958 0.474358 0
M  V30 5631 H 575.307 -4.07809 -0.826498 0
M  V30 5632 H 574.183 -5.27378 -1.52198 0
M  V30 5633 H 574.444 -3.74581 -2.34822 0
M  V30 5634 N 573.503 -0.0852151 -1.57369 0
M  V30 5635 C 574.733 0.588605 -1.98038 0
M  V30 5636 C 575.141 1.62869 -0.962817 0
M  V30 5637 O 574.484 1.83611 0.057134 0
M  V30 5638 C 574.546 1.30303 -3.35054 0
M  V30 5639 C 574.21 0.414855 -4.55113 0
M  V30 5640 C 575.207 -0.333011 -5.18832 0
M  V30 5641 C 572.892 0.335804 -5.01176 0
M  V30 5642 C 574.886 -1.14801 -6.26976 0
M  V30 5643 C 572.573 -0.482857 -6.09189 0
M  V30 5644 C 573.571 -1.22342 -6.71953 0
M  V30 5645 O 573.259 -2.02855 -7.77885 0
M  V30 5646 H 572.991 0.163249 -0.655992 0
M  V30 5647 H 575.545 -0.1582 -2.0479 0
M  V30 5648 H 573.775 2.0962 -3.24956 0
M  V30 5649 H 575.464 1.87041 -3.60237 0
M  V30 5650 H 576.23 -0.281611 -4.84182 0
M  V30 5651 H 572.109 0.901869 -4.52092 0
M  V30 5652 H 575.653 -1.72654 -6.75897 0
M  V30 5653 H 571.55 -0.535773 -6.43273 0
M  V30 5654 H 572.318 -1.95432 -7.94826 0
M  V30 5655 N 574.981 1.5647 0.188427 0
M  V30 5656 C 575.891 1.98285 1.2538 0
M  V30 5657 C 576.907 0.891535 1.49424 0
M  V30 5658 O 578.083 1.19782 1.61908 0
M  V30 5659 C 575.148 2.31965 2.57669 0
M  V30 5660 C 574.209 3.54838 2.41638 0
M  V30 5661 C 573.442 3.86901 3.67618 0
M  V30 5662 O 573.665 3.20163 4.72072 0
M  V30 5663 O 572.599 4.80309 3.62749 0
M  V30 5664 H 576.425 2.89145 0.928912 0
M  V30 5665 H 574.01 1.44112 0.393955 0
M  V30 5666 H 575.892 2.54673 3.35737 0
M  V30 5667 H 574.567 1.44271 2.89771 0
M  V30 5668 H 573.474 3.37369 1.61658 0
M  V30 5669 H 574.807 4.43019 2.14465 0
M  V30 5670 N 576.459 -0.456382 1.50847 0
M  V30 5671 C 577.699 -1.21704 1.64218 0
M  V30 5672 C 578.063 -1.88932 0.341859 0
M  V30 5673 O 579.264 -2.66497 0.351137 0
M  V30 5674 C 577.535 -2.22162 2.79962 0
M  V30 5675 S 579.094 -3.0697 3.13552 0
M  V30 5676 H 575.912 -0.412995 0.578754 0
M  V30 5677 H 578.514 -0.511637 1.88686 0
M  V30 5678 H 577.218 -1.71379 3.72904 0
M  V30 5679 H 576.749 -2.9731 2.57624 0
M  V30 5680 H 578.764 -4.23539 2.58513 0
M  V30 5681 N 577.937 -1.40673 -0.710563 0
M  V30 5682 C 578.885 -1.41517 -1.84596 0
M  V30 5683 C 579.879 -0.295043 -1.66811 0
M  V30 5684 O 581.085 -0.466331 -1.73854 0
M  V30 5685 H 577.46 -0.442467 -0.608052 0
M  V30 5686 H 579.431 -2.37238 -1.80999 0
M  V30 5687 C 578.18 -1.29957 -3.225 0
M  V30 5688 H 577.503 -2.15429 -3.36794 0
M  V30 5689 H 578.943 -1.34608 -4.02066 0
M  V30 5690 C 577.402 -0.0103164 -3.36898 0
M  V30 5691 O 577.932 0.950707 -3.90288 0
M  V30 5692 N 576.138 0.0608409 -2.90536 0
M  V30 5693 H 575.685 -0.721943 -2.47277 0
M  V30 5694 H 575.643 0.92292 -3.00549 0
M  V30 5695 N 579.415 0.9433 -1.26252 0
M  V30 5696 C 580.363 2.06302 -1.07434 0
M  V30 5697 C 581.357 1.694 -0.00189471 0
M  V30 5698 O 582.563 1.79302 -0.158408 0
M  V30 5699 H 578.938 0.675453 -0.330556 0
M  V30 5700 H 580.909 2.19326 -2.02333 0
M  V30 5701 C 579.658 3.40125 -0.721817 0
M  V30 5702 H 578.981 3.68996 -1.5389 0
M  V30 5703 H 580.421 4.19295 -0.629922 0
M  V30 5704 C 578.88 3.31993 0.572902 0
M  V30 5705 O 579.41 3.67945 1.61182 0
M  V30 5706 N 577.616 2.85099 0.562748 0
M  V30 5707 H 577.163 2.5604 -0.283092 0
M  V30 5708 H 577.121 2.80041 1.42915 0
M  V30 5709 N 580.893 1.08022 1.14757 0
M  V30 5710 C 582.309 0.807072 1.3769 0
M  V30 5711 C 582.509 -0.585504 1.92806 0
M  V30 5712 O 581.565 -1.34301 2.13821 0
M  V30 5713 C 582.878 1.88651 2.34161 0
M  V30 5714 C 584.426 1.91206 2.47809 0
M  V30 5715 C 584.901 2.98253 3.47576 0
M  V30 5716 N 586.392 2.974 3.55117 0
M  V30 5717 C 587.127 3.76872 4.32152 0
M  V30 5718 N 586.623 4.66212 5.12463 0
M  V30 5719 N 588.416 3.6519 4.27309 0
M  V30 5720 H 580.567 1.97824 0.77326 0
M  V30 5721 H 582.83 0.85826 0.402608 0
M  V30 5722 H 582.536 2.88749 2.00791 0
M  V30 5723 H 582.41 1.75244 3.3402 0
M  V30 5724 H 584.797 0.917564 2.80472 0
M  V30 5725 H 584.878 2.08691 1.47925 0
M  V30 5726 H 584.522 3.97907 3.15646 0
M  V30 5727 H 584.452 2.78014 4.47231 0
M  V30 5728 H 586.943 2.32643 2.97801 0
M  V30 5729 H 587.256 5.23468 5.68508 0
M  V30 5730 H 585.601 4.70257 5.11745 0
M  V30 5731 H 588.792 2.94765 3.63636 0
M  V30 5732 H 588.965 4.27366 4.87095 0
M  V30 5733 N 582.371 -1.3172 0.865308 0
M  V30 5734 C 583.619 -1.96487 0.472995 0
M  V30 5735 C 583.94 -1.68761 -0.976975 0
M  V30 5736 O 583.21 -1.00051 -1.68424 0
M  V30 5737 H 581.79 -0.726947 0.171922 0
M  V30 5738 H 584.452 -1.60612 1.10407 0
M  V30 5739 H 583.548 -3.0574 0.62687 0
M  V30 5740 N 583.85 -0.624285 -1.44708 0
M  V30 5741 C 585.08 -0.132726 -2.06173 0
M  V30 5742 C 585.488 1.19513 -1.46674 0
M  V30 5743 O 584.831 1.74254 -0.581491 0
M  V30 5744 C 584.893 0.0636732 -3.59444 0
M  V30 5745 C 584.557 -1.18496 -4.4137 0
M  V30 5746 C 585.553 -2.10706 -4.75288 0
M  V30 5747 C 583.239 -1.41846 -4.81856 0
M  V30 5748 C 585.233 -3.24582 -5.48567 0
M  V30 5749 C 582.92 -2.5602 -5.54885 0
M  V30 5750 C 583.918 -3.47215 -5.88159 0
M  V30 5751 O 583.606 -4.59399 -6.59703 0
M  V30 5752 H 583.338 -0.0737313 -0.671967 0
M  V30 5753 H 585.892 -0.856789 -1.86677 0
M  V30 5754 H 584.122 0.842809 -3.77404 0
M  V30 5755 H 585.811 0.508924 -4.02697 0
M  V30 5756 H 586.577 -1.93898 -4.44554 0
M  V30 5757 H 582.456 -0.717556 -4.55381 0
M  V30 5758 H 586 -3.95785 -5.74456 0
M  V30 5759 H 581.897 -2.72774 -5.85034 0
M  V30 5760 H 582.665 -4.58293 -6.78166 0
M  V30 5761 N 585.328 1.53329 -0.364422 0
M  V30 5762 C 586.739 1.86345 0.115039 0
M  V30 5763 C 587.09 1.28505 1.4826 0
M  V30 5764 O 586.215 0.606639 2.07723 0
M  V30 5765 C 586.81 3.38114 0.215522 0
M  V30 5766 C 585.369 3.70932 0.639237 0
M  V30 5767 C 584.516 2.76471 -0.214261 0
M  V30 5768 H 587.467 1.47593 -0.583258 0
M  V30 5769 H 587.488 3.66031 1.0393 0
M  V30 5770 H 587 3.80182 -0.779948 0
M  V30 5771 H 585.101 3.3442 1.64298 0
M  V30 5772 H 585.214 4.77302 0.41465 0
M  V30 5773 H 583.578 2.52724 0.316678 0
M  V30 5774 H 584.361 3.21373 -1.20725 0
M  V30 5775 N 586.806 0.0935595 1.57322 0
M  V30 5776 C 588.083 -0.612692 1.85756 0
M  V30 5777 C 588.463 -1.86439 0.99013 0
M  V30 5778 O 587.811 -2.28416 0.0621362 0
M  V30 5779 C 588.021 -0.929547 3.36393 0
M  V30 5780 C 589.369 -1.29366 4.04413 0
M  V30 5781 O 590.393 -1.02061 3.41265 0
M  V30 5782 O 589.252 -1.80498 5.15832 0
M  V30 5783 H 586.346 -0.306444 0.768128 0
M  V30 5784 H 588.892 0.126141 1.69231 0
M  V30 5785 H 587.664 -0.0414766 3.91278 0
M  V30 5786 H 587.287 -1.72441 3.5826 0
M  V30 5787 N 588.284 -1.56567 -0.180126 0
M  V30 5788 C 589.532 -1.81133 -0.896392 0
M  V30 5789 C 589.853 -0.669114 -1.83161 0
M  V30 5790 O 589.123 0.311616 -1.93406 0
M  V30 5791 H 587.703 -0.668172 -0.333999 0
M  V30 5792 H 590.365 -1.94048 -0.182051 0
M  V30 5793 H 589.461 -2.74854 -1.47857 0
M  V30 5794 N 589.762 0.448376 -1.51087 0
M  V30 5795 C 590.987 1.22605 -1.6728 0
M  V30 5796 C 591.412 1.84524 -0.365045 0
M  V30 5797 O 590.77 1.6832 0.673642 0
M  V30 5798 C 590.818 2.29393 -2.78229 0
M  V30 5799 O 589.922 3.34608 -2.41063 0
M  V30 5800 H 589.263 0.359705 -0.558129 0
M  V30 5801 H 591.793 0.530903 -1.97592 0
M  V30 5802 H 591.803 2.74352 -3.01986 0
M  V30 5803 H 590.478 1.83701 -3.73131 0
M  V30 5804 H 589.055 2.95202 -2.27838 0
M  V30 5805 N 591.24 1.41047 0.703093 0
M  V30 5806 C 592.468 1.4334 1.49202 0
M  V30 5807 C 592.883 0.0365596 1.88765 0
M  V30 5808 O 592.24 -0.942419 1.56284 0
M  V30 5809 C 592.291 2.33538 2.75939 0
M  V30 5810 O 592.012 3.67786 2.38045 0
M  V30 5811 C 593.513 2.44555 3.6974 0
M  V30 5812 H 590.733 0.488472 0.460039 0
M  V30 5813 H 593.277 1.85245 0.86629 0
M  V30 5814 H 591.432 1.94962 3.34766 0
M  V30 5815 H 591.846 4.15816 3.19683 0
M  V30 5816 H 593.32 3.11849 4.55471 0
M  V30 5817 H 593.797 1.47447 4.1371 0
M  V30 5818 H 594.403 2.83735 3.16819 0
M  V30 5819 N 592.718 -0.936591 1.26751 0
M  V30 5820 C 593.948 -1.71509 1.15188 0
M  V30 5821 C 594.356 -1.86885 -0.295037 0
M  V30 5822 O 593.699 -1.37915 -1.21347 0
M  V30 5823 C 593.761 -3.13853 1.75318 0
M  V30 5824 C 593.425 -3.21845 3.24445 0
M  V30 5825 C 594.422 -3.04771 4.21201 0
M  V30 5826 C 592.107 -3.45088 3.64992 0
M  V30 5827 C 594.101 -3.10816 5.56482 0
M  V30 5828 C 591.788 -3.50767 5.00405 0
M  V30 5829 C 592.786 -3.33648 5.9596 0
M  V30 5830 O 592.474 -3.39045 7.28906 0
M  V30 5831 H 592.206 -0.543658 0.401761 0
M  V30 5832 H 594.76 -1.18234 1.67958 0
M  V30 5833 H 592.99 -3.6857 1.17016 0
M  V30 5834 H 594.679 -3.73634 1.58596 0
M  V30 5835 H 595.445 -2.86665 3.91214 0
M  V30 5836 H 591.324 -3.57467 2.91098 0
M  V30 5837 H 594.868 -2.97372 6.31043 0
M  V30 5838 H 590.765 -3.68396 5.30052 0
M  V30 5839 H 591.533 -3.55558 7.37238 0
M  V30 5840 N 594.196 -1.08629 -1.14182 0
M  V30 5841 C 595.421 -0.83902 -1.89671 0
M  V30 5842 C 595.846 0.603332 -1.78161 0
M  V30 5843 O 595.204 1.42301 -1.12339 0
M  V30 5844 C 595.252 -1.26854 -3.37551 0
M  V30 5845 O 594.356 -0.42188 -4.10236 0
M  V30 5846 H 593.697 -0.304545 -0.590041 0
M  V30 5847 H 596.227 -1.4483 -1.44518 0
M  V30 5848 H 596.237 -1.25038 -3.88368 0
M  V30 5849 H 594.912 -2.31901 -3.45246 0
M  V30 5850 H 593.489 -0.503654 -3.69483 0
M  V30 5851 N 595.674 1.31259 -0.872281 0
M  V30 5852 C 596.92 1.96913 -0.485083 0
M  V30 5853 C 597.253 1.68774 0.960667 0
M  V30 5854 O 596.528 0.985495 1.67685 0
M  V30 5855 C 596.811 3.52299 -0.745502 0
M  V30 5856 C 596.664 3.90002 -2.24095 0
M  V30 5857 C 597.983 4.39582 -0.213516 0
M  V30 5858 H 595.102 0.715252 -0.177716 0
M  V30 5859 H 597.744 1.55347 -1.09395 0
M  V30 5860 H 595.894 3.87835 -0.227276 0
M  V30 5861 H 597.566 3.64555 -2.82661 0
M  V30 5862 H 595.809 3.38526 -2.71261 0
M  V30 5863 H 596.48 4.98352 -2.37381 0
M  V30 5864 H 598.956 4.10882 -0.656902 0
M  V30 5865 H 597.832 5.47251 -0.42516 0
M  V30 5866 H 598.093 4.33158 0.884666 0
M  V30 5867 N 597.152 0.631951 1.44375 0
M  V30 5868 C 598.377 0.142146 2.06912 0
M  V30 5869 C 598.802 -1.17456 1.4692 0
M  V30 5870 O 598.16 -1.72074 0.570975 0
M  V30 5871 C 598.208 0.0417952 3.60576 0
M  V30 5872 O 597.312 -1.00194 4.00044 0
M  V30 5873 H 596.653 0.0851491 0.658518 0
M  V30 5874 H 599.183 0.868863 1.85235 0
M  V30 5875 H 599.193 -0.148517 4.0773 0
M  V30 5876 H 597.868 1.0031 4.03622 0
M  V30 5877 H 596.445 -0.786131 3.64519 0
M  V30 5878 N 598.631 -1.53133 0.372548 0
M  V30 5879 C 599.877 -2.02336 -0.207823 0
M  V30 5880 C 600.232 -1.25477 -1.45853 0
M  V30 5881 O 599.525 -0.341971 -1.88524 0
M  V30 5882 C 599.719 -3.53206 -0.545938 0
M  V30 5883 C 599.548 -4.44674 0.670454 0
M  V30 5884 C 598.318 -4.91217 1.18465 0
M  V30 5885 C 600.516 -4.90772 1.53777 0
M  V30 5886 N 598.498 -5.66711 2.36034 0
M  V30 5887 C 599.869 -5.64678 2.56004 0
M  V30 5888 C 601.924 -4.72836 1.55983 0
M  V30 5889 C 600.627 -6.22555 3.60303 0
M  V30 5890 C 602.653 -5.31583 2.59179 0
M  V30 5891 C 602.015 -6.05381 3.6013 0
M  V30 5892 H 598.114 -0.781048 -0.0385783 0
M  V30 5893 H 600.698 -1.87665 0.518664 0
M  V30 5894 H 598.869 -3.68024 -1.24149 0
M  V30 5895 H 600.601 -3.89123 -1.112 0
M  V30 5896 H 597.356 -4.67652 0.748205 0
M  V30 5897 H 597.78 -6.09117 2.95475 0
M  V30 5898 H 602.422 -4.15299 0.792877 0
M  V30 5899 H 600.14 -6.79183 4.37876 0
M  V30 5900 H 603.726 -5.19595 2.61749 0
M  V30 5901 H 602.606 -6.50028 4.38672 0
M  V30 5902 N 600.109 -0.101901 -1.5727 0
M  V30 5903 C 601.52 0.426173 -1.81771 0
M  V30 5904 C 601.871 1.67725 -1.01797 0
M  V30 5905 O 600.996 2.14958 -0.249386 0
M  V30 5906 C 601.591 0.779962 -3.297 0
M  V30 5907 C 600.15 1.25275 -3.54941 0
M  V30 5908 C 599.297 0.252814 -2.76145 0
M  V30 5909 H 602.248 -0.32726 -1.55289 0
M  V30 5910 H 602.269 1.63891 -3.43395 0
M  V30 5911 H 601.781 -0.130778 -3.8788 0
M  V30 5912 H 599.882 2.18097 -3.021 0
M  V30 5913 H 599.995 1.20988 -4.63572 0
M  V30 5914 H 598.359 0.736362 -2.43823 0
M  V30 5915 H 599.142 -0.650724 -3.37076 0
M  V30 5916 N 601.587 1.56661 0.17182 0
M  V30 5917 C 602.55 1.9549 1.19651 0
M  V30 5918 C 603.55 0.838501 1.37207 0
M  V30 5919 O 604.74 1.10556 1.34622 0
M  V30 5920 C 601.872 2.24927 2.56166 0
M  V30 5921 H 603.065 2.87184 0.864007 0
M  V30 5922 H 600.618 1.50711 0.41425 0
M  V30 5923 H 601.353 1.35944 2.94431 0
M  V30 5924 H 601.138 3.06301 2.4479 0
M  V30 5925 H 602.628 2.55891 3.30014 0
M  V30 5926 N 603.065 -0.440357 1.51323 0
M  V30 5927 C 604.29 -1.21716 1.67928 0
M  V30 5928 C 604.715 -1.84328 0.374826 0
M  V30 5929 O 604.073 -1.68675 -0.664706 0
M  V30 5930 C 604.121 -2.27914 2.79442 0
M  V30 5931 O 603.225 -3.33325 2.42834 0
M  V30 5932 H 602.566 -0.35674 0.560029 0
M  V30 5933 H 605.096 -0.520417 1.97871 0
M  V30 5934 H 605.106 -2.72746 3.03436 0
M  V30 5935 H 603.781 -1.8172 3.741 0
M  V30 5936 H 602.358 -2.9399 2.294 0
M  V30 5937 N 604.543 -1.41418 -0.695603 0
M  V30 5938 C 605.768 -1.44329 -1.48942 0
M  V30 5939 C 606.193 -0.0501579 -1.88033 0
M  V30 5940 O 605.551 0.946598 -1.54626 0
M  V30 5941 C 605.599 -2.3578 -2.72837 0
M  V30 5942 O 604.703 -1.81482 -3.70322 0
M  V30 5943 H 604.044 -0.489838 -0.44828 0
M  V30 5944 H 606.574 -1.85878 -0.855014 0
M  V30 5945 H 606.584 -2.51654 -3.21145 0
M  V30 5946 H 605.259 -3.37005 -2.43722 0
M  V30 5947 H 603.836 -1.75058 -3.29255 0
M  V30 5948 N 606.021 0.929856 -1.27246 0
M  V30 5949 C 607.432 1.49223 -1.12203 0
M  V30 5950 C 607.783 1.93989 0.293731 0
M  V30 5951 O 606.908 1.80978 1.18642 0
M  V30 5952 C 607.503 2.71198 -2.0307 0
M  V30 5953 C 606.062 3.23666 -1.92139 0
M  V30 5954 C 605.209 1.96409 -1.95752 0
M  V30 5955 H 608.16 0.744181 -1.4017 0
M  V30 5956 H 608.181 3.45905 -1.58524 0
M  V30 5957 H 607.693 2.38585 -3.06102 0
M  V30 5958 H 605.794 3.61042 -0.920834 0
M  V30 5959 H 605.907 3.90006 -2.78267 0
M  V30 5960 H 604.271 2.12806 -1.39949 0
M  V30 5961 H 605.054 1.66113 -3.00436 0
M  V30 5962 N 607.499 1.09233 1.13605 0
M  V30 5963 C 608.447 0.724572 2.21027 0
M  V30 5964 C 609.441 -0.273595 1.67176 0
M  V30 5965 O 610.647 -0.135266 1.79491 0
M  V30 5966 H 607.022 0.216319 0.720215 0
M  V30 5967 H 608.993 1.63975 2.49309 0
M  V30 5968 C 607.742 0.159126 3.47336 0
M  V30 5969 H 607.065 0.918387 3.89109 0
M  V30 5970 H 608.505 -0.0602851 4.23957 0
M  V30 5971 C 606.964 -1.10514 3.18258 0
M  V30 5972 O 607.494 -2.18869 3.36837 0
M  V30 5973 N 605.7 -1.01886 2.72154 0
M  V30 5974 H 605.247 -0.137027 2.57235 0
M  V30 5975 H 605.205 -1.8655 2.53074 0
M  V30 5976 N 608.977 -1.30795 0.87923 0
M  V30 5977 C 610.223 -1.96653 0.495519 0
M  V30 5978 C 610.556 -1.69282 -0.951703 0
M  V30 5979 O 609.831 -0.994374 -1.6716 0
M  V30 5980 C 610.114 -3.51898 0.764174 0
M  V30 5981 C 609.967 -3.88808 2.2616 0
M  V30 5982 C 611.286 -4.39462 0.236825 0
M  V30 5983 H 608.405 -0.7143 0.181507 0
M  V30 5984 H 611.047 -1.54765 1.10217 0
M  V30 5985 H 609.197 -3.87709 0.247841 0
M  V30 5986 H 610.869 -3.63051 2.8459 0
M  V30 5987 H 609.112 -3.37082 2.73053 0
M  V30 5988 H 609.783 -4.97086 2.4002 0
M  V30 5989 H 612.259 -4.10528 0.678683 0
M  V30 5990 H 611.135 -5.47018 0.454176 0
M  V30 5991 H 611.396 -4.33621 -0.861683 0
M  V30 5992 N 610.455 -0.639598 -1.44038 0
M  V30 5993 C 611.704 -0.144885 -2.01179 0
M  V30 5994 C 612.017 1.24372 -1.50967 0
M  V30 5995 O 613.223 1.83291 -2.00292 0
M  V30 5996 C 611.679 -0.208244 -3.59297 0
M  V30 5997 C 611.287 -1.59869 -4.18504 0
M  V30 5998 C 613.031 0.229568 -4.23879 0
M  V30 5999 C 610.938 -1.61671 -5.68873 0
M  V30 6000 H 609.868 -0.0504005 -0.752314 0
M  V30 6001 H 612.519 -0.799639 -1.65161 0
M  V30 6002 H 610.901 0.513767 -3.92653 0
M  V30 6003 H 612.075 -2.34496 -3.96671 0
M  V30 6004 H 610.39 -1.98131 -3.66242 0
M  V30 6005 H 612.987 0.235758 -5.3418 0
M  V30 6006 H 613.33 1.25848 -3.96822 0
M  V30 6007 H 613.863 -0.440233 -3.95357 0
M  V30 6008 H 610.602 -2.62427 -6.00677 0
M  V30 6009 H 610.122 -0.913489 -5.92803 0
M  V30 6010 H 611.801 -1.35439 -6.32665 0
M  V30 6011 N 611.933 1.52934 -0.380664 0
M  V30 6012 C 612.896 2.24809 0.446473 0
M  V30 6013 C 613.896 1.26133 0.997347 0
M  V30 6014 O 615.086 1.50297 0.880714 0
M  V30 6015 C 612.218 2.99649 1.62553 0
M  V30 6016 H 613.411 2.99343 -0.182677 0
M  V30 6017 H 610.964 1.55736 -0.132618 0
M  V30 6018 H 611.699 2.29395 2.29235 0
M  V30 6019 H 611.484 3.72066 1.23732 0
M  V30 6020 H 612.974 3.54246 2.21133 0
M  V30 6021 N 613.412 0.11024 1.57214 0
M  V30 6022 C 614.658 -0.550684 1.9518 0
M  V30 6023 C 614.991 -1.66885 0.993122 0
M  V30 6024 O 614.266 -1.94479 0.0287907 0
M  V30 6025 C 614.549 -1.09163 3.43155 0
M  V30 6026 C 614.402 0.0225198 4.49794 0
M  V30 6027 C 615.721 -1.98527 3.92778 0
M  V30 6028 H 612.84 -0.198706 0.709708 0
M  V30 6029 H 615.482 0.184024 1.89107 0
M  V30 6030 H 613.632 -1.71775 3.48462 0
M  V30 6031 H 615.304 0.657443 4.56591 0
M  V30 6032 H 613.547 0.686868 4.28328 0
M  V30 6033 H 614.218 -0.39706 5.5057 0
M  V30 6034 H 616.694 -1.458 3.8972 0
M  V30 6035 H 615.57 -2.33298 4.96853 0
M  V30 6036 H 615.831 -2.90846 3.32958 0
M  V30 6037 N 614.89 -1.56749 -0.16351 0
M  V30 6038 C 616.138 -1.82074 -0.87713 0
M  V30 6039 C 616.459 -0.688503 -1.82441 0
M  V30 6040 O 615.729 0.291085 -1.93725 0
M  V30 6041 H 614.309 -0.671677 -0.326893 0
M  V30 6042 H 616.971 -1.9423 -0.161459 0
M  V30 6043 H 616.067 -2.76407 -1.44934 0
M  V30 6044 N 616.368 0.432326 -1.51554 0
M  V30 6045 C 617.616 1.17901 -1.64146 0
M  V30 6046 C 617.937 1.91604 -0.362367 0
M  V30 6047 O 617.207 1.85764 0.621968 0
M  V30 6048 H 615.787 0.438206 -0.604966 0
M  V30 6049 H 618.449 0.495172 -1.88505 0
M  V30 6050 H 617.545 1.90584 -2.47152 0
M  V30 6051 N 617.846 1.41785 0.688094 0
M  V30 6052 C 619.074 1.44915 1.47673 0
M  V30 6053 C 619.489 0.0565786 1.88715 0
M  V30 6054 O 618.846 -0.92579 1.57275 0
M  V30 6055 C 618.897 2.36452 2.73446 0
M  V30 6056 O 618.618 3.7029 2.34131 0
M  V30 6057 C 620.119 2.48463 3.67125 0
M  V30 6058 H 617.339 0.493324 0.454832 0
M  V30 6059 H 619.883 1.86153 0.846594 0
M  V30 6060 H 618.038 1.98502 3.3268 0
M  V30 6061 H 618.452 4.19183 3.15255 0
M  V30 6062 H 619.926 3.16662 4.52138 0
M  V30 6063 H 620.403 1.51826 4.12123 0
M  V30 6064 H 621.009 2.8708 3.13792 0
M  V30 6065 N 619.324 -0.923095 1.27737 0
M  V30 6066 C 620.552 -1.70525 1.17171 0
M  V30 6067 C 620.967 -1.86847 -0.270881 0
M  V30 6068 O 620.324 -1.38879 -1.18401 0
M  V30 6069 C 620.375 -3.10242 1.85559 0
M  V30 6070 O 620.096 -2.94683 3.24182 0
M  V30 6071 C 621.597 -4.04586 1.81176 0
M  V30 6072 H 618.817 -0.533347 0.407163 0
M  V30 6073 H 621.361 -1.15599 1.68692 0
M  V30 6074 H 619.516 -3.62014 1.3793 0
M  V30 6075 H 619.93 -3.83045 3.58297 0
M  V30 6076 H 621.404 -5.00119 2.33633 0
M  V30 6077 H 621.881 -4.3218 0.782099 0
M  V30 6078 H 622.487 -3.58741 2.2844 0
M  V30 6079 N 620.802 -1.09834 -1.13024 0
M  V30 6080 C 621.732 -0.763451 -2.20666 0
M  V30 6081 C 622.713 0.260778 -1.68089 0
M  V30 6082 O 623.898 0.127915 -1.93778 0
M  V30 6083 C 621.028 -0.187744 -3.46792 0
M  V30 6084 C 619.982 -1.14196 -4.12484 0
M  V30 6085 C 619.308 -0.427755 -5.32986 0
M  V30 6086 C 620.608 -2.48607 -4.59338 0
M  V30 6087 H 622.302 -1.66347 -2.48936 0
M  V30 6088 H 619.848 -0.801261 -1.19649 0
M  V30 6089 H 621.801 0.0586375 -4.21359 0
M  V30 6090 H 620.525 0.747485 -3.17931 0
M  V30 6091 H 619.184 -1.37369 -3.3989 0
M  V30 6092 H 618.832 0.511747 -5.0039 0
M  V30 6093 H 618.532 -1.06403 -5.77886 0
M  V30 6094 H 620.056 -0.189772 -6.10305 0
M  V30 6095 H 621.47 -2.29618 -5.25308 0
M  V30 6096 H 619.867 -3.08062 -5.14993 0
M  V30 6097 H 620.937 -3.09062 -3.73642 0
M  V30 6098 N 622.28 1.30327 -0.886154 0
M  V30 6099 C 623.51 1.99964 -0.519421 0
M  V30 6100 C 623.918 1.66593 0.89686 0
M  V30 6101 O 623.261 0.899886 1.60149 0
M  V30 6102 C 623.323 3.54187 -0.615795 0
M  V30 6103 C 622.987 4.11078 -1.9966 0
M  V30 6104 C 623.984 4.26985 -2.96614 0
M  V30 6105 C 621.669 4.46429 -2.30231 0
M  V30 6106 C 623.663 4.77456 -4.22273 0
M  V30 6107 C 621.35 4.966 -3.56135 0
M  V30 6108 C 622.348 5.12066 -4.5197 0
M  V30 6109 O 622.036 5.61154 -5.7564 0
M  V30 6110 H 621.768 0.645979 -0.199217 0
M  V30 6111 H 624.322 1.67154 -1.19368 0
M  V30 6112 H 622.552 3.86528 0.115448 0
M  V30 6113 H 624.241 4.05065 -0.26017 0
M  V30 6114 H 625.007 3.99975 -2.74308 0
M  V30 6115 H 620.886 4.33658 -1.56404 0
M  V30 6116 H 624.43 4.89444 -4.97082 0
M  V30 6117 H 620.327 5.23045 -3.78277 0
M  V30 6118 H 621.095 5.79494 -5.78039 0
M  V30 6119 N 623.758 0.647228 1.43697 0
M  V30 6120 C 624.986 0.16575 2.06235 0
M  V30 6121 C 625.401 -1.1662 1.48476 0
M  V30 6122 O 624.758 -1.7187 0.613762 0
M  V30 6123 C 624.809 0.0621651 3.61447 0
M  V30 6124 O 624.53 1.34146 4.17057 0
M  V30 6125 C 626.031 -0.446102 4.4105 0
M  V30 6126 H 623.251 0.0871158 0.665321 0
M  V30 6127 H 625.795 0.886183 1.84301 0
M  V30 6128 H 623.95 -0.608794 3.82587 0
M  V30 6129 H 624.364 1.19675 5.10664 0
M  V30 6130 H 625.838 -0.46755 5.50016 0
M  V30 6131 H 626.315 -1.47627 4.13646 0
M  V30 6132 H 626.921 0.192159 4.24866 0
M  V30 6133 N 625.236 -1.5273 0.388769 0
M  V30 6134 C 626.464 -2.05992 -0.193677 0
M  V30 6135 C 626.879 -1.26053 -1.40557 0
M  V30 6136 O 626.236 -0.307049 -1.79898 0
M  V30 6137 C 626.287 -3.57068 -0.564321 0
M  V30 6138 O 626.008 -4.3398 0.599422 0
M  V30 6139 C 627.509 -4.26674 -1.20269 0
M  V30 6140 H 624.729 -0.670358 -0.0293445 0
M  V30 6141 H 627.273 -1.96857 0.553844 0
M  V30 6142 H 625.428 -3.66277 -1.26174 0
M  V30 6143 H 625.842 -5.2367 0.294895 0
M  V30 6144 H 627.316 -5.33625 -1.4124 0
M  V30 6145 H 627.793 -3.81854 -2.16989 0
M  V30 6146 H 628.399 -4.2178 -0.546047 0
M  V30 6147 N 626.714 -0.118576 -1.57153 0
M  V30 6148 C 627.939 0.550582 -1.99958 0
M  V30 6149 C 628.364 1.59458 -0.997736 0
M  V30 6150 O 627.722 1.81274 0.0306269 0
M  V30 6151 C 627.77 1.15379 -3.41643 0
M  V30 6152 O 626.874 2.26932 -3.44348 0
M  V30 6153 H 626.215 0.137567 -0.649593 0
M  V30 6154 H 628.745 -0.206926 -2.03551 0
M  V30 6155 H 628.755 1.48942 -3.79843 0
M  V30 6156 H 627.43 0.389087 -4.14076 0
M  V30 6157 H 626.007 1.94812 -3.17967 0
M  V30 6158 N 628.193 1.56834 0.155195 0
M  V30 6159 C 629.156 1.96748 1.17571 0
M  V30 6160 C 630.156 0.853006 1.3631 0
M  V30 6161 O 631.346 1.11978 1.33441 0
M  V30 6162 C 628.478 2.27631 2.53765 0
M  V30 6163 H 629.671 2.88085 0.833498 0
M  V30 6164 H 627.224 1.51141 0.398242 0
M  V30 6165 H 627.959 1.39059 2.92973 0
M  V30 6166 H 627.744 3.0888 2.41527 0
M  V30 6167 H 629.234 2.59377 3.27282 0
M  V30 6168 N 629.671 -0.424282 1.51781 0
M  V30 6169 C 630.919 -1.17028 1.64769 0
M  V30 6170 C 631.24 -1.91409 0.372523 0
M  V30 6171 O 630.51 -1.86091 -0.612108 0
M  V30 6172 H 629.09 -0.434992 0.607282 0
M  V30 6173 H 631.752 -0.485169 1.88765 0
M  V30 6174 H 630.848 -1.8927 2.4816 0
M  V30 6175 N 631.149 -1.42148 -0.680565 0
M  V30 6176 C 632.112 -1.4488 -1.77602 0
M  V30 6177 C 633.112 -0.337209 -1.57224 0
M  V30 6178 O 634.302 -0.597778 -1.63622 0
M  V30 6179 C 631.434 -1.27483 -3.16166 0
M  V30 6180 H 632.627 -2.42412 -1.76568 0
M  V30 6181 H 630.18 -1.28511 -0.889645 0
M  V30 6182 H 630.915 -0.30851 -3.22829 0
M  V30 6183 H 630.7 -2.08037 -3.3236 0
M  V30 6184 H 632.19 -1.32265 -3.96101 0
M  V30 6185 N 632.627 0.916307 -1.28225 0
M  V30 6186 C 633.857 1.69654 -1.17902 0
M  V30 6187 C 634.265 1.87331 0.265268 0
M  V30 6188 O 633.608 1.39828 1.19137 0
M  V30 6189 C 633.67 3.11024 -1.80289 0
M  V30 6190 C 633.334 3.16643 -3.29525 0
M  V30 6191 C 634.331 2.98032 -4.25997 0
M  V30 6192 C 632.016 3.39238 -3.70436 0
M  V30 6193 C 634.01 3.01924 -5.61356 0
M  V30 6194 C 631.697 3.42762 -5.05922 0
M  V30 6195 C 632.695 3.24125 -6.01192 0
M  V30 6196 O 632.383 3.27406 -7.34208 0
M  V30 6197 H 632.115 0.537197 -0.41036 0
M  V30 6198 H 634.669 1.15547 -1.69817 0
M  V30 6199 H 632.899 3.66662 -1.22865 0
M  V30 6200 H 634.588 3.71063 -1.6452 0
M  V30 6201 H 635.354 2.80405 -3.95725 0
M  V30 6202 H 631.233 3.52791 -2.96749 0
M  V30 6203 H 634.777 2.87295 -6.35694 0
M  V30 6204 H 630.674 3.59916 -5.35846 0
M  V30 6205 H 631.442 3.43784 -7.42802 0
M  V30 6206 N 634.105 1.10431 1.1244 0
M  V30 6207 C 635.33 0.869089 1.88313 0
M  V30 6208 C 635.755 -0.574912 1.79099 0
M  V30 6209 O 635.113 -1.40496 1.14589 0
M  V30 6210 C 635.161 1.32208 3.3549 0
M  V30 6211 O 634.265 0.487092 4.09513 0
M  V30 6212 H 633.606 0.313894 0.585121 0
M  V30 6213 H 636.136 1.47111 1.42195 0
M  V30 6214 H 636.146 1.31201 3.86329 0
M  V30 6215 H 634.821 2.37364 3.41513 0
M  V30 6216 H 633.398 0.562372 3.68635 0
M  V30 6217 N 635.583 -1.29855 0.893053 0
M  V30 6218 C 636.531 -2.29867 0.355512 0
M  V30 6219 C 637.525 -1.60502 -0.541801 0
M  V30 6220 O 638.731 -1.74902 -0.425339 0
M  V30 6221 H 635.106 -0.745805 0.0963247 0
M  V30 6222 H 637.077 -2.72655 1.21252 0
M  V30 6223 C 635.826 -3.453 -0.407801 0
M  V30 6224 H 635.149 -3.98864 0.273426 0
M  V30 6225 H 636.589 -4.17334 -0.748887 0
M  V30 6226 C 635.048 -2.96051 -1.60795 0
M  V30 6227 O 635.578 -2.96763 -2.7073 0
M  V30 6228 N 633.784 -2.51963 -1.44786 0
M  V30 6229 H 633.331 -2.51583 -0.553498 0
M  V30 6230 H 633.289 -2.1937 -2.2522 0
M  V30 6231 N 637.061 -0.65484 -1.43351 0
M  V30 6232 C 637.971 0.0363603 -2.34572 0
M  V30 6233 C 638.987 0.810432 -1.53974 0
M  V30 6234 O 640.163 0.757308 -1.86619 0
M  V30 6235 C 637.228 0.989733 -3.32273 0
M  V30 6236 C 636.289 0.212414 -4.28774 0
M  V30 6237 C 635.522 1.12038 -5.21808 0
M  V30 6238 O 635.745 2.35967 -5.19303 0
M  V30 6239 O 634.679 0.59191 -5.98982 0
M  V30 6240 H 638.505 -0.714527 -2.95175 0
M  V30 6241 H 636.09 -0.415029 -1.4352 0
M  V30 6242 H 637.972 1.53759 -3.92347 0
M  V30 6243 H 636.647 1.72082 -2.74171 0
M  V30 6244 H 635.554 -0.379062 -3.72175 0
M  V30 6245 H 636.887 -0.479138 -4.89862 0
M  V30 6246 N 638.539 1.52521 -0.396863 0
M  V30 6247 C 639.767 2.06091 0.18275 0
M  V30 6248 C 640.182 1.26796 1.39886 0
M  V30 6249 O 639.539 0.316585 1.79733 0
M  V30 6250 C 639.59 3.57362 0.545377 0
M  V30 6251 O 639.311 4.33656 -0.622428 0
M  V30 6252 C 640.812 4.27305 1.18004 0
M  V30 6253 H 638.032 0.670504 0.025789 0
M  V30 6254 H 640.576 1.96561 -0.564276 0
M  V30 6255 H 638.731 3.66941 1.2423 0
M  V30 6256 H 639.145 5.23507 -0.322662 0
M  V30 6257 H 640.619 5.34366 1.38408 0
M  V30 6258 H 641.096 3.83 2.1496 0
M  V30 6259 H 641.702 4.22064 0.523671 0
M  V30 6260 N 640.017 0.126909 1.57088 0
M  V30 6261 C 641.263 -0.529952 1.95753 0
M  V30 6262 C 641.596 -1.65823 1.01077 0
M  V30 6263 O 640.871 -1.94437 0.0494162 0
M  V30 6264 C 641.154 -1.05517 3.44294 0
M  V30 6265 C 641.007 0.0702253 4.49745 0
M  V30 6266 C 642.326 -1.9435 3.94862 0
M  V30 6267 H 639.445 -0.191168 0.711775 0
M  V30 6268 H 642.087 0.204071 1.88901 0
M  V30 6269 H 640.237 -1.68069 3.50264 0
M  V30 6270 H 641.909 0.705834 4.55868 0
M  V30 6271 H 640.152 0.732259 4.27575 0
M  V30 6272 H 640.823 -0.338642 5.5096 0
M  V30 6273 H 643.299 -1.41658 3.91244 0
M  V30 6274 H 642.175 -2.28015 4.993 0
M  V30 6275 H 642.436 -2.87299 3.36024 0
M  V30 6276 N 641.495 -1.56914 -0.146875 0
M  V30 6277 C 642.741 -1.84515 -0.855914 0
M  V30 6278 C 643.096 -0.710909 -1.78784 0
M  V30 6279 O 642.389 0.291123 -1.89375 0
M  V30 6280 C 642.583 -3.16128 -1.66727 0
M  V30 6281 C 642.412 -4.42246 -0.815405 0
M  V30 6282 C 641.182 -5.03006 -0.480976 0
M  V30 6283 C 643.38 -5.14094 -0.145684 0
M  V30 6284 N 641.362 -6.12695 0.384476 0
M  V30 6285 C 642.733 -6.17282 0.579902 0
M  V30 6286 C 644.788 -4.97856 -0.0663705 0
M  V30 6287 C 643.491 -7.0599 1.37731 0
M  V30 6288 C 645.517 -5.87028 0.71778 0
M  V30 6289 C 644.879 -6.89698 1.43165 0
M  V30 6290 H 640.978 -0.725829 -0.291026 0
M  V30 6291 H 643.562 -1.94322 -0.121279 0
M  V30 6292 H 641.733 -3.07468 -2.37315 0
M  V30 6293 H 643.465 -3.31635 -2.31949 0
M  V30 6294 H 640.22 -4.66504 -0.816789 0
M  V30 6295 H 640.644 -6.72158 0.80823 0
M  V30 6296 H 645.286 -4.18465 -0.603929 0
M  V30 6297 H 643.004 -7.84809 1.92613 0
M  V30 6298 H 646.59 -5.76532 0.781141 0
M  V30 6299 H 645.47 -7.57505 2.02868 0
M  V30 6300 N 642.974 0.416227 -1.52004 0
M  V30 6301 C 643.922 1.5272 -1.7544 0
M  V30 6302 C 644.916 1.57596 -0.621289 0
M  V30 6303 O 646.122 1.61087 -0.803172 0
M  V30 6304 H 642.497 0.507772 -0.554682 0
M  V30 6305 H 644.468 1.30136 -2.68528 0
M  V30 6306 C 643.217 2.90165 -1.91571 0
M  V30 6307 H 642.54 2.87154 -2.78178 0
M  V30 6308 H 643.98 3.67211 -2.11972 0
M  V30 6309 C 642.439 3.29947 -0.680942 0
M  V30 6310 O 642.969 4.01403 0.154527 0
M  V30 6311 N 641.175 2.8593 -0.518894 0
M  V30 6312 H 640.722 2.2795 -1.19986 0
M  V30 6313 H 640.68 3.12907 0.305985 0
M  V30 6314 N 644.452 1.42507 0.673017 0
M  V30 6315 C 645.362 1.4853 1.81593 0
M  V30 6316 C 646.378 0.373907 1.69935 0
M  V30 6317 O 647.554 0.625078 1.91454 0
M  V30 6318 C 644.619 1.387 3.17747 0
M  V30 6319 C 643.68 2.60346 3.41348 0
M  V30 6320 C 642.913 2.50975 4.71007 0
M  V30 6321 O 643.136 1.54659 5.49033 0
M  V30 6322 O 642.07 3.41138 4.95892 0
M  V30 6323 H 645.896 2.45001 1.79467 0
M  V30 6324 H 643.481 1.2429 0.82899 0
M  V30 6325 H 645.363 1.35586 3.98992 0
M  V30 6326 H 644.038 0.453555 3.20507 0
M  V30 6327 H 642.945 2.69034 2.59945 0
M  V30 6328 H 644.278 3.52595 3.43421 0
M  V30 6329 N 645.93 -0.909495 1.28709 0
M  V30 6330 C 647.178 -1.65577 1.15882 0
M  V30 6331 C 647.499 -1.928 -0.292108 0
M  V30 6332 O 646.769 -1.54716 -1.20166 0
M  V30 6333 H 645.349 -0.613714 0.425869 0
M  V30 6334 H 648.011 -1.09108 1.61498 0
M  V30 6335 H 647.107 -2.61634 1.70159 0
M  V30 6336 N 647.408 -1.11026 -1.11852 0
M  V30 6337 C 648.338 -0.786812 -2.19844 0
M  V30 6338 C 649.319 0.242935 -1.68356 0
M  V30 6339 O 650.504 0.107355 -1.93903 0
M  V30 6340 C 647.634 -0.224516 -3.46574 0
M  V30 6341 C 646.588 -1.18564 -4.1125 0
M  V30 6342 C 645.914 -0.484261 -5.32503 0
M  V30 6343 C 647.214 -2.53465 -4.56676 0
M  V30 6344 H 648.908 -1.68978 -2.47158 0
M  V30 6345 H 646.454 -0.813906 -1.18792 0
M  V30 6346 H 648.407 0.0139435 -4.21398 0
M  V30 6347 H 647.131 0.713722 -3.18706 0
M  V30 6348 H 645.79 -1.40966 -3.38414 0
M  V30 6349 H 645.438 0.458646 -5.00905 0
M  V30 6350 H 645.138 -1.12526 -5.76725 0
M  V30 6351 H 646.662 -0.254492 -6.10069 0
M  V30 6352 H 648.076 -2.35177 -5.22843 0
M  V30 6353 H 646.473 -3.13507 -5.11697 0
M  V30 6354 H 647.543 -3.13008 -3.70343 0
M  V30 6355 N 648.886 1.2938 -0.899927 0
M  V30 6356 C 650.163 1.9046 -0.445443 0
M  V30 6357 C 650.543 1.81683 1.07492 0
M  V30 6358 O 649.891 1.24371 1.91688 0
M  V30 6359 C 650.101 3.35529 -0.960279 0
M  V30 6360 C 651.449 4.12556 -1.00412 0
M  V30 6361 O 652.473 3.44434 -0.907965 0
M  V30 6362 O 651.332 5.34294 -1.14857 0
M  V30 6363 H 648.426 0.815253 -0.138893 0
M  V30 6364 H 650.972 1.37844 -0.989808 0
M  V30 6365 H 649.744 3.36074 -2.00425 0
M  V30 6366 H 649.367 3.95624 -0.395939 0
M  V30 6367 N 650.364 0.662433 1.43002 0
M  V30 6368 C 651.589 0.186003 2.06564 0
M  V30 6369 C 652.014 -1.14314 1.49379 0
M  V30 6370 O 651.372 -1.70824 0.607346 0
M  V30 6371 C 651.42 0.118269 3.60406 0
M  V30 6372 O 650.524 -0.916859 4.02079 0
M  V30 6373 H 649.865 0.0990981 0.656563 0
M  V30 6374 H 652.395 0.907958 1.8335 0
M  V30 6375 H 652.405 -0.0619981 4.07953 0
M  V30 6376 H 651.08 1.08849 4.01403 0
M  V30 6377 H 649.657 -0.708635 3.66105 0
M  V30 6378 N 651.842 -1.52309 0.404946 0
M  V30 6379 C 652.79 -2.28452 -0.437321 0
M  V30 6380 C 653.784 -1.32975 -1.04948 0
M  V30 6381 O 654.99 -1.50451 -0.988159 0
M  V30 6382 H 651.365 -0.734824 -0.159805 0
M  V30 6383 H 653.336 -2.97542 0.22615 0
M  V30 6384 C 652.085 -3.11536 -1.54404 0
M  V30 6385 H 651.408 -3.84871 -1.08233 0
M  V30 6386 H 652.848 -3.67926 -2.10729 0
M  V30 6387 C 651.307 -2.24833 -2.50902 0
M  V30 6388 O 651.837 -1.88574 -3.54687 0
M  V30 6389 N 650.043 -1.88685 -2.21012 0
M  V30 6390 H 649.59 -2.18371 -1.36646 0
M  V30 6391 H 649.548 -1.30966 -2.85824 0
M  V30 6392 N 653.32 -0.135238 -1.57019 0
M  V30 6393 C 654.568 0.51777 -1.95355 0
M  V30 6394 C 654.889 1.6617 -1.02042 0
M  V30 6395 O 654.159 1.95738 -0.0797343 0
M  V30 6396 H 652.739 0.194264 -0.721298 0
M  V30 6397 H 655.401 -0.207983 -1.93787 0
M  V30 6398 H 654.497 0.901675 -2.98791 0
M  V30 6399 N 654.798 1.5699 0.138552 0
M  V30 6400 C 655.745 1.98899 1.17081 0
M  V30 6401 C 656.715 0.857922 1.42228 0
M  V30 6402 O 657.9 1.12065 1.54422 0
M  V30 6403 C 655.04 2.38189 2.4972 0
M  V30 6404 C 654.153 3.64624 2.31674 0
M  V30 6405 C 653.288 3.9298 3.57407 0
M  V30 6406 C 652.327 5.1266 3.34435 0
M  V30 6407 N 651.464 5.36983 4.5232 0
M  V30 6408 H 656.304 2.86881 0.80642 0
M  V30 6409 H 653.841 1.41925 0.386727 0
M  V30 6410 H 655.799 2.59 3.2707 0
M  V30 6411 H 654.429 1.53275 2.84089 0
M  V30 6412 H 653.481 3.51542 1.45337 0
M  V30 6413 H 654.793 4.52131 2.10664 0
M  V30 6414 H 653.947 4.14335 4.43183 0
M  V30 6415 H 652.686 3.03912 3.8143 0
M  V30 6416 H 651.691 4.9117 2.47048 0
M  V30 6417 H 652.916 6.03288 3.11802 0
M  V30 6418 H 650.862 4.50871 4.76499 0
M  V30 6419 H 650.779 6.18775 4.34343 0
M  V30 6420 H 652.047 5.62842 5.39285 0
M  V30 6421 N 656.276 -0.40816 1.52223 0
M  V30 6422 C 657.206 -1.5042 1.78595 0
M  V30 6423 C 658.187 -1.57723 0.636974 0
M  V30 6424 O 659.372 -1.72982 0.882664 0
M  V30 6425 C 656.502 -2.88232 1.93751 0
M  V30 6426 C 655.456 -2.95779 3.09352 0
M  V30 6427 C 654.782 -4.35855 3.09732 0
M  V30 6428 C 656.082 -2.67175 4.48793 0
M  V30 6429 H 657.776 -1.28601 2.70374 0
M  V30 6430 H 655.322 -0.617221 1.30101 0
M  V30 6431 H 657.275 -3.64895 2.10783 0
M  V30 6432 H 655.999 -3.11347 0.986443 0
M  V30 6433 H 654.658 -2.21561 2.92072 0
M  V30 6434 H 654.306 -4.55981 2.12346 0
M  V30 6435 H 654.006 -4.41829 3.87377 0
M  V30 6436 H 655.53 -5.14451 3.28895 0
M  V30 6437 H 656.944 -3.3356 4.66273 0
M  V30 6438 H 655.341 -2.84523 5.28362 0
M  V30 6439 H 656.411 -1.62609 4.56822 0
M  V30 6440 N 657.755 -1.42862 -0.66545 0
M  V30 6441 C 659.001 -1.4504 -1.426 0
M  V30 6442 C 659.356 -0.0690217 -1.92276 0
M  V30 6443 O 658.649 0.91036 -1.68591 0
M  V30 6444 C 658.843 -2.4175 -2.63233 0
M  V30 6445 C 658.672 -3.89155 -2.25362 0
M  V30 6446 C 657.442 -4.57619 -2.14273 0
M  V30 6447 C 659.64 -4.79326 -1.86417 0
M  V30 6448 N 657.622 -5.90006 -1.69604 0
M  V30 6449 C 658.993 -6.00892 -1.52738 0
M  V30 6450 C 661.048 -4.66696 -1.73492 0
M  V30 6451 C 659.751 -7.11232 -1.0743 0
M  V30 6452 C 661.777 -5.77027 -1.29589 0
M  V30 6453 C 661.139 -6.97712 -0.968393 0
M  V30 6454 H 657.238 -0.585889 -0.517936 0
M  V30 6455 H 659.822 -1.78956 -0.767002 0
M  V30 6456 H 657.993 -2.09881 -3.26809 0
M  V30 6457 H 659.725 -2.34447 -3.29874 0
M  V30 6458 H 656.48 -4.11957 -2.33641 0
M  V30 6459 H 656.904 -6.60249 -1.49666 0
M  V30 6460 H 661.546 -3.7386 -1.97455 0
M  V30 6461 H 659.264 -8.03907 -0.822147 0
M  V30 6462 H 662.85 -5.6927 -1.20095 0
M  V30 6463 H 661.73 -7.81634 -0.63384 0
M  V30 6464 N 659.233 0.902656 -1.29189 0
M  V30 6465 C 660.196 1.98797 -1.14071 0
M  V30 6466 C 661.196 1.60615 -0.0770549 0
M  V30 6467 O 662.386 1.71165 -0.323753 0
M  V30 6468 C 659.518 3.32688 -0.743739 0
M  V30 6469 H 660.711 2.13637 -2.10473 0
M  V30 6470 H 658.264 1.08678 -1.12334 0
M  V30 6471 H 658.999 3.23549 0.220554 0
M  V30 6472 H 658.784 3.61765 -1.51223 0
M  V30 6473 H 660.274 4.12337 -0.660935 0
M  V30 6474 N 660.711 1.11618 1.11262 0
M  V30 6475 C 661.939 0.888739 1.8684 0
M  V30 6476 C 662.354 -0.561558 1.80255 0
M  V30 6477 O 661.711 -1.38782 1.18515 0
M  V30 6478 C 661.762 1.34422 3.35579 0
M  V30 6479 O 661.483 2.73766 3.42029 0
M  V30 6480 C 662.984 1.15246 4.28058 0
M  V30 6481 H 660.204 0.318152 0.590779 0
M  V30 6482 H 662.748 1.48398 1.40707 0
M  V30 6483 H 660.903 0.79239 3.7921 0
M  V30 6484 H 661.317 2.9355 4.34659 0
M  V30 6485 H 662.791 1.52015 5.30656 0
M  V30 6486 H 663.268 0.0922007 4.39103 0
M  V30 6487 H 663.874 1.69136 3.90222 0
M  V30 6488 N 662.189 -1.289 0.906776 0
M  V30 6489 C 663.437 -1.94883 0.535266 0
M  V30 6490 C 663.758 -1.71784 -0.922791 0
M  V30 6491 O 663.028 -1.05359 -1.65156 0
M  V30 6492 H 661.608 -0.721109 0.194962 0
M  V30 6493 H 664.27 -1.57018 1.15461 0
M  V30 6494 H 663.366 -3.03591 0.723821 0
M  V30 6495 N 663.667 -0.670007 -1.42649 0
M  V30 6496 C 664.915 -0.18991 -2.01206 0
M  V30 6497 C 665.236 1.20617 -1.53221 0
M  V30 6498 O 664.506 1.80898 -0.751856 0
M  V30 6499 H 663.086 -0.0672189 -0.743969 0
M  V30 6500 H 665.748 -0.865442 -1.74631 0
M  V30 6501 H 664.844 -0.187481 -3.11536 0
M  V30 6502 N 665.145 1.52092 -0.413018 0
M  V30 6503 C 666.393 2.01456 0.161178 0
M  V30 6504 C 666.714 1.30034 1.45314 0
M  V30 6505 O 665.984 0.427435 1.9118 0
M  V30 6506 H 664.564 0.744376 0.0625526 0
M  V30 6507 H 667.226 1.86974 -0.550151 0
M  V30 6508 H 666.322 3.1008 0.354517 0
M  V30 6509 N 666.623 0.143563 1.56945 0
M  V30 6510 C 667.853 -0.514699 2.00086 0
M  V30 6511 C 668.261 -1.59184 1.0226 0
M  V30 6512 O 667.604 -1.83697 0.0110514 0
M  V30 6513 C 667.666 -1.17778 3.39659 0
M  V30 6514 C 667.33 -0.245657 4.56339 0
M  V30 6515 C 668.327 0.525343 5.17239 0
M  V30 6516 C 666.012 -0.149564 5.02077 0
M  V30 6517 C 668.006 1.37992 6.22284 0
M  V30 6518 C 665.693 0.708621 6.06978 0
M  V30 6519 C 666.691 1.47197 6.6695 0
M  V30 6520 O 666.379 2.31586 7.6982 0
M  V30 6521 H 666.111 -0.138789 0.661599 0
M  V30 6522 H 668.665 0.234098 2.04062 0
M  V30 6523 H 666.895 -1.97415 3.32512 0
M  V30 6524 H 668.584 -1.73542 3.6693 0
M  V30 6525 H 669.35 0.461118 4.82803 0
M  V30 6526 H 665.229 -0.733457 4.55128 0
M  V30 6527 H 668.773 1.97621 6.69023 0
M  V30 6528 H 664.67 0.77415 6.40841 0
M  V30 6529 H 665.438 2.24796 7.87025 0
M  V30 6530 N 668.101 -1.57061 -0.130224 0
M  V30 6531 C 669.326 -1.88802 -0.858409 0
M  V30 6532 C 669.751 -0.734353 -1.73173 0
M  V30 6533 O 669.109 0.315529 -1.78533 0
M  V30 6534 C 669.157 -3.19228 -1.67708 0
M  V30 6535 O 668.261 -3.04343 -2.78297 0
M  V30 6536 H 667.602 -0.619849 -0.238083 0
M  V30 6537 H 670.132 -2.04271 -0.115995 0
M  V30 6538 H 670.142 -3.51669 -2.06864 0
M  V30 6539 H 668.817 -4.02793 -1.0359 0
M  V30 6540 H 667.394 -2.83346 -2.42425 0
M  V30 6541 N 669.579 0.400081 -1.52437 0
M  V30 6542 C 670.825 1.14788 -1.67187 0
M  V30 6543 C 671.158 1.89928 -0.405074 0
M  V30 6544 O 670.433 1.85118 0.596804 0
M  V30 6545 C 670.716 2.13507 -2.89977 0
M  V30 6546 C 670.569 1.42204 -4.2673 0
M  V30 6547 C 671.888 3.14069 -3.083 0
M  V30 6548 H 669.007 0.415939 -0.608411 0
M  V30 6549 H 671.649 0.432542 -1.85011 0
M  V30 6550 H 669.799 2.7451 -2.74912 0
M  V30 6551 H 671.471 0.842503 -4.53541 0
M  V30 6552 H 669.714 0.723939 -4.27717 0
M  V30 6553 H 670.385 2.14281 -5.08712 0
M  V30 6554 H 672.861 2.63148 -3.22323 0
M  V30 6555 H 671.737 3.80398 -3.95713 0
M  V30 6556 H 671.998 3.82309 -2.22018 0
M  V30 6557 N 671.057 1.43213 0.657864 0
M  V30 6558 C 672.287 1.478 1.44356 0
M  V30 6559 C 672.695 0.0930206 1.88971 0
M  V30 6560 O 672.038 -0.906089 1.59799 0
M  V30 6561 C 672.1 2.35745 2.71412 0
M  V30 6562 C 671.764 3.83359 2.48767 0
M  V30 6563 C 672.761 4.74585 2.12285 0
M  V30 6564 C 670.446 4.27799 2.63235 0
M  V30 6565 C 672.44 6.08247 1.90562 0
M  V30 6566 C 670.127 5.61516 2.41128 0
M  V30 6567 C 671.125 6.51557 2.04847 0
M  V30 6568 O 670.813 7.82802 1.82967 0
M  V30 6569 H 670.545 0.504363 0.450104 0
M  V30 6570 H 673.099 1.88572 0.814241 0
M  V30 6571 H 671.329 1.89852 3.36887 0
M  V30 6572 H 673.018 2.31589 3.33348 0
M  V30 6573 H 673.784 4.41531 2.00687 0
M  V30 6574 H 669.663 3.57993 2.90451 0
M  V30 6575 H 673.207 6.78489 1.62168 0
M  V30 6576 H 669.104 5.94139 2.52327 0
M  V30 6577 H 669.872 7.94332 1.97429 0
M  V30 6578 N 672.536 -0.895792 1.29666 0
M  V30 6579 C 673.446 -2.03329 1.17024 0
M  V30 6580 C 674.462 -1.73753 0.0925962 0
M  V30 6581 O 675.638 -1.99071 0.305431 0
M  V30 6582 C 672.703 -3.36072 0.851841 0
M  V30 6583 C 671.764 -3.7914 2.01373 0
M  V30 6584 C 670.997 -5.05549 1.71043 0
M  V30 6585 O 671.22 -5.66874 0.633213 0
M  V30 6586 O 670.154 -5.44764 2.5596 0
M  V30 6587 H 673.98 -2.16918 2.12556 0
M  V30 6588 H 671.565 -1.02007 1.09156 0
M  V30 6589 H 673.447 -4.15729 0.689006 0
M  V30 6590 H 672.122 -3.23616 -0.0736634 0
M  V30 6591 H 671.029 -3.00233 2.23183 0
M  V30 6592 H 672.362 -3.96186 2.92058 0
M  V30 6593 N 674.014 -1.12206 -1.10668 0
M  V30 6594 C 675.239 -0.898938 -1.86906 0
M  V30 6595 C 675.664 0.546346 -1.79991 0
M  V30 6596 O 675.022 1.38655 -1.1681 0
M  V30 6597 C 675.07 -1.37529 -3.33344 0
M  V30 6598 O 674.174 -0.55218 -4.08687 0
M  V30 6599 H 673.515 -0.323163 -0.580053 0
M  V30 6600 H 676.045 -1.49355 -1.39837 0
M  V30 6601 H 676.055 -1.3733 -3.84193 0
M  V30 6602 H 674.73 -2.42767 -3.37693 0
M  V30 6603 H 673.307 -0.620947 -3.67694 0
M  V30 6604 N 675.492 1.28418 -0.913599 0
M  V30 6605 C 676.439 2.27301 -0.400373 0
M  V30 6606 C 677.409 1.57582 0.52509 0
M  V30 6607 O 678.594 1.85482 0.447318 0
M  V30 6608 C 675.734 3.43284 0.35361 0
M  V30 6609 C 674.847 4.27752 -0.604341 0
M  V30 6610 C 673.982 5.30934 0.168075 0
M  V30 6611 C 673.021 6.07065 -0.783499 0
M  V30 6612 N 672.158 7.02086 -0.0446112 0
M  V30 6613 H 676.998 2.70579 -1.24865 0
M  V30 6614 H 674.535 1.33067 -0.627028 0
M  V30 6615 H 676.493 4.09322 0.806945 0
M  V30 6616 H 675.123 3.00997 1.16623 0
M  V30 6617 H 674.175 3.61759 -1.17621 0
M  V30 6618 H 675.487 4.80682 -1.33216 0
M  V30 6619 H 674.641 6.02855 0.681979 0
M  V30 6620 H 673.38 4.78771 0.928947 0
M  V30 6621 H 672.385 5.33995 -1.30878 0
M  V30 6622 H 673.61 6.61317 -1.54392 0
M  V30 6623 H 671.556 6.52273 0.698272 0
M  V30 6624 H 671.473 7.52637 -0.712258 0
M  V30 6625 H 672.741 7.78205 0.449102 0
M  V30 6626 N 676.97 0.677563 1.42291 0
M  V30 6627 C 678.381 0.277912 1.8462 0
M  V30 6628 C 678.732 -1.18048 1.56714 0
M  V30 6629 O 677.857 -1.90404 1.02836 0
M  V30 6630 C 678.452 0.497619 3.35126 0
M  V30 6631 C 677.011 0.152063 3.76093 0
M  V30 6632 C 676.158 0.78872 2.65847 0
M  V30 6633 H 679.109 0.879527 1.32098 0
M  V30 6634 H 679.13 -0.24939 3.79682 0
M  V30 6635 H 678.642 1.55913 3.55405 0
M  V30 6636 H 676.743 -0.905896 3.6142 0
M  V30 6637 H 676.856 0.594514 4.75397 0
M  V30 6638 H 675.22 0.219813 2.5375 0
M  V30 6639 H 676.003 1.85374 2.88949 0
M  V30 6640 N 678.448 -1.51871 0.421078 0
M  V30 6641 C 679.673 -2.0684 -0.152371 0
M  V30 6642 C 680.098 -1.28802 -1.37083 0
M  V30 6643 O 679.456 -0.321482 -1.78427 0
M  V30 6644 C 679.504 -3.57532 -0.469368 0
M  V30 6645 O 678.608 -3.81818 -1.55848 0
M  V30 6646 H 677.949 -0.663939 -0.00898586 0
M  V30 6647 H 680.479 -1.95674 0.597724 0
M  V30 6648 H 680.489 -4.01515 -0.724553 0
M  V30 6649 H 679.164 -4.13761 0.421276 0
M  V30 6650 H 677.741 -3.49709 -1.29453 0
M  V30 6651 N 679.926 -0.151884 -1.56866 0
M  V30 6652 C 681.172 0.492327 -1.97352 0
M  V30 6653 C 681.527 1.62156 -1.03553 0
M  V30 6654 O 680.82 1.91467 -0.0714872 0
M  V30 6655 C 681.014 1.04074 -3.41911 0
M  V30 6656 C 680.843 -0.0338306 -4.49687 0
M  V30 6657 C 679.613 -0.476914 -5.03044 0
M  V30 6658 C 681.811 -0.827105 -5.07606 0
M  V30 6659 N 679.793 -1.53382 -5.9443 0
M  V30 6660 C 681.164 -1.73439 -5.95247 0
M  V30 6661 C 683.219 -0.874351 -4.90163 0
M  V30 6662 C 681.922 -2.68488 -6.67313 0
M  V30 6663 C 683.948 -1.81269 -5.62935 0
M  V30 6664 C 683.31 -2.70749 -6.50288 0
M  V30 6665 H 679.409 0.148822 -0.767708 0
M  V30 6666 H 681.993 -0.247615 -1.93119 0
M  V30 6667 H 680.164 1.75027 -3.46728 0
M  V30 6668 H 681.896 1.65197 -3.69448 0
M  V30 6669 H 678.651 -0.0782493 -4.73535 0
M  V30 6670 H 679.075 -2.06217 -6.44828 0
M  V30 6671 H 683.717 -0.196628 -4.22343 0
M  V30 6672 H 681.435 -3.37257 -7.34359 0
M  V30 6673 H 685.021 -1.85511 -5.51432 0
M  V30 6674 H 683.901 -3.42175 -7.0561 0
M  V30 6675 N 681.404 1.57128 0.121893 0
M  V30 6676 C 682.336 1.96773 1.17529 0
M  V30 6677 C 683.349 0.866668 1.37814 0
M  V30 6678 O 684.538 1.14497 1.3694 0
M  V30 6679 C 681.638 2.24832 2.53582 0
M  V30 6680 C 680.811 3.56138 2.53939 0
M  V30 6681 C 679.87 3.72443 3.71716 0
M  V30 6682 O 678.896 4.44584 3.55434 0
M  V30 6683 N 680.098 3.10993 4.90167 0
M  V30 6684 H 682.863 2.87743 0.838086 0
M  V30 6685 H 680.424 1.58881 0.311199 0
M  V30 6686 H 682.416 2.32958 3.30927 0
M  V30 6687 H 680.986 1.40002 2.79496 0
M  V30 6688 H 680.206 3.59226 1.62329 0
M  V30 6689 H 681.494 4.42448 2.51231 0
M  V30 6690 H 680.892 2.52345 5.06299 0
M  V30 6691 H 679.449 3.24644 5.65198 0
M  V30 6692 N 682.882 -0.391992 1.52647 0
M  V30 6693 C 684.107 -1.16312 1.71716 0
M  V30 6694 C 684.532 -1.83042 0.433279 0
M  V30 6695 O 683.89 -1.70705 -0.610707 0
M  V30 6696 C 683.938 -2.18908 2.86551 0
M  V30 6697 O 683.042 -3.2543 2.53316 0
M  V30 6698 H 682.383 -0.338743 0.571095 0
M  V30 6699 H 684.913 -0.457202 1.99426 0
M  V30 6700 H 684.923 -2.62954 3.1196 0
M  V30 6701 H 683.598 -1.69726 3.79692 0
M  V30 6702 H 682.175 -2.86543 2.38637 0
M  V30 6703 N 684.36 -1.4356 -0.65026 0
M  V30 6704 C 685.606 -1.45549 -1.41221 0
M  V30 6705 C 685.939 -0.0805472 -1.94033 0
M  V30 6706 O 685.214 0.899043 -1.72475 0
M  V30 6707 C 685.497 -2.50028 -2.59148 0
M  V30 6708 C 685.35 -3.96808 -2.1181 0
M  V30 6709 C 686.669 -2.51212 -3.61359 0
M  V30 6710 H 683.788 -0.529967 -0.512156 0
M  V30 6711 H 686.43 -1.75127 -0.736933 0
M  V30 6712 H 684.58 -2.24937 -3.16758 0
M  V30 6713 H 686.252 -4.32966 -1.59178 0
M  V30 6714 H 684.495 -4.09498 -1.43156 0
M  V30 6715 H 685.166 -4.6553 -2.96625 0
M  V30 6716 H 687.642 -2.73583 -3.13515 0
M  V30 6717 H 686.518 -3.26252 -4.41419 0
M  V30 6718 H 686.779 -1.54701 -4.1415 0
M  V30 6719 N 685.838 0.888903 -1.30139 0
M  V30 6720 C 687.084 1.6428 -1.18912 0
M  V30 6721 C 687.417 1.92499 0.256477 0
M  V30 6722 O 686.692 1.54312 1.18397 0
M  V30 6723 C 686.975 2.9851 -2.01405 0
M  V30 6724 C 686.828 2.77288 -3.54163 0
M  V30 6725 C 688.147 3.99383 -1.84882 0
M  V30 6726 H 685.266 0.596148 -0.433333 0
M  V30 6727 H 687.908 1.0289 -1.5973 0
M  V30 6728 H 686.058 3.50907 -1.66722 0
M  V30 6729 H 687.73 2.31709 -3.98884 0
M  V30 6730 H 685.973 2.11867 -3.78543 0
M  V30 6731 H 686.644 3.72717 -4.07168 0
M  V30 6732 H 689.12 3.56132 -2.15196 0
M  V30 6733 H 687.996 4.91222 -2.44934 0
M  V30 6734 H 688.257 4.34674 -0.806902 0
M  V30 6735 N 687.317 1.12792 1.10072 0
M  V30 6736 C 688.542 0.908838 1.86427 0
M  V30 6737 C 688.967 -0.536793 1.80278 0
M  V30 6738 O 688.325 -1.38033 1.17543 0
M  V30 6739 C 688.373 1.39295 3.3261 0
M  V30 6740 O 687.477 0.573846 4.08388 0
M  V30 6741 H 686.818 0.326234 0.578331 0
M  V30 6742 H 689.348 1.50094 1.39043 0
M  V30 6743 H 689.358 1.39366 3.83459 0
M  V30 6744 H 688.033 2.44555 3.36401 0
M  V30 6745 H 686.61 0.640438 3.67359 0
M  V30 6746 N 688.795 -1.27931 0.920396 0
M  V30 6747 C 690.043 -1.94304 0.555906 0
M  V30 6748 C 690.364 -1.72753 -0.904519 0
M  V30 6749 O 689.634 -1.07104 -1.64029 0
M  V30 6750 H 688.214 -0.719001 0.202599 0
M  V30 6751 H 690.876 -1.55785 1.1712 0
M  V30 6752 H 689.972 -3.02806 0.755981 0
M  V30 6753 N 690.273 -0.685099 -1.4193 0
M  V30 6754 C 691.501 -0.220372 -2.05723 0
M  V30 6755 C 691.916 1.12642 -1.51516 0
M  V30 6756 O 691.273 1.70182 -0.659114 0
M  V30 6757 C 691.324 -0.157974 -3.61155 0
M  V30 6758 O 691.045 -1.45156 -4.13354 0
M  V30 6759 C 692.546 0.329009 -4.42077 0
M  V30 6760 H 689.766 -0.104725 -0.662777 0
M  V30 6761 H 692.31 -0.934736 -1.81887 0
M  V30 6762 H 690.465 0.507144 -3.84066 0
M  V30 6763 H 690.879 -1.33172 -5.07312 0
M  V30 6764 H 692.353 0.321559 -5.51063 0
M  V30 6765 H 692.83 1.36608 -4.17414 0
M  V30 6766 H 693.436 -0.304737 -4.24207 0
M  V30 6767 N 691.751 1.51645 -0.429126 0
M  V30 6768 C 693.162 1.86665 0.0359003 0
M  V30 6769 C 693.513 1.34677 1.42676 0
M  V30 6770 O 692.638 0.694195 2.04963 0
M  V30 6771 C 693.233 3.38724 0.0719221 0
M  V30 6772 C 691.792 3.7331 0.481336 0
M  V30 6773 C 690.939 2.75313 -0.331329 0
M  V30 6774 H 693.89 1.44987 -0.645333 0
M  V30 6775 H 693.911 3.7011 0.883118 0
M  V30 6776 H 693.423 3.76532 -0.940495 0
M  V30 6777 H 691.524 3.41088 1.49966 0
M  V30 6778 H 691.637 4.78631 0.211837 0
M  V30 6779 H 690.001 2.53839 0.209204 0
M  V30 6780 H 690.784 3.15963 -1.34247 0
M  V30 6781 N 693.229 0.160201 1.56784 0
M  V30 6782 C 694.477 -0.486625 1.96154 0
M  V30 6783 C 694.798 -1.64525 1.04673 0
M  V30 6784 O 694.068 -1.95586 0.110864 0
M  V30 6785 H 692.648 -0.182764 0.724297 0
M  V30 6786 H 695.31 0.238787 1.93432 0
M  V30 6787 H 694.406 -0.854025 3.00188 0
M  V30 6788 N 694.707 -1.5719 -0.113559 0
M  V30 6789 C 696.123 -1.52607 -0.467253 0
M  V30 6790 C 696.323 -0.874058 -1.81556 0
M  V30 6791 O 695.379 -0.458703 -2.48299 0
M  V30 6792 C 696.692 -2.97363 -0.446736 0
M  V30 6793 C 698.24 -3.08482 -0.529903 0
M  V30 6794 C 698.715 -4.54809 -0.539721 0
M  V30 6795 N 700.206 -4.59284 -0.601005 0
M  V30 6796 C 700.941 -5.69927 -0.630138 0
M  V30 6797 N 700.437 -6.90051 -0.616589 0
M  V30 6798 N 702.23 -5.5805 -0.673558 0
M  V30 6799 H 694.381 -1.97958 0.769819 0
M  V30 6800 H 696.644 -0.90428 0.284572 0
M  V30 6801 H 696.35 -3.48458 0.47643 0
M  V30 6802 H 696.224 -3.55086 -1.27254 0
M  V30 6803 H 698.611 -2.57386 -1.44349 0
M  V30 6804 H 698.692 -2.53744 0.323695 0
M  V30 6805 H 698.336 -5.06552 0.369843 0
M  V30 6806 H 698.266 -5.07364 -1.41028 0
M  V30 6807 H 700.757 -3.72822 -0.617419 0
M  V30 6808 H 701.07 -7.70132 -0.641592 0
M  V30 6809 H 699.415 -6.92543 -0.583927 0
M  V30 6810 H 702.606 -4.63112 -0.681544 0
M  V30 6811 H 702.779 -6.44286 -0.692794 0
M  V30 6812 N 696.185 0.383891 -1.52853 0
M  V30 6813 C 697.601 0.724316 -1.42218 0
M  V30 6814 C 697.801 1.93943 -0.546654 0
M  V30 6815 O 696.857 2.5249 -0.0220562 0
M  V30 6816 C 698.17 0.954635 -2.85144 0
M  V30 6817 C 699.718 1.05579 -2.94656 0
M  V30 6818 C 700.193 1.3187 -4.38605 0
M  V30 6819 N 701.684 1.38681 -4.41952 0
M  V30 6820 C 702.419 1.60699 -5.50421 0
M  V30 6821 N 701.915 1.80154 -6.68967 0
M  V30 6822 N 703.708 1.6292 -5.37972 0
M  V30 6823 H 695.859 -0.4156 -2.08294 0
M  V30 6824 H 698.122 -0.123776 -0.939885 0
M  V30 6825 H 697.828 0.133829 -3.51445 0
M  V30 6826 H 697.702 1.86788 -3.27704 0
M  V30 6827 H 700.089 1.86716 -2.2852 0
M  V30 6828 H 700.17 0.120338 -2.55517 0
M  V30 6829 H 699.814 0.512416 -5.05309 0
M  V30 6830 H 699.744 2.26708 -4.75301 0
M  V30 6831 H 702.235 1.25334 -3.56511 0
M  V30 6832 H 702.548 1.96476 -7.47407 0
M  V30 6833 H 700.893 1.77368 -6.71986 0
M  V30 6834 H 704.084 1.47276 -4.44328 0
M  V30 6835 H 704.257 1.79739 -6.22574 0
M  V30 6836 N 697.663 1.43903 0.642637 0
M  V30 6837 C 698.593 1.52697 1.76652 0
M  V30 6838 C 699.574 0.380816 1.65782 0
M  V30 6839 O 700.759 0.599432 1.84717 0
M  V30 6840 C 697.889 1.45975 3.15133 0
M  V30 6841 C 696.843 2.58949 3.40778 0
M  V30 6842 C 696.169 2.37279 4.79169 0
M  V30 6843 C 697.469 4.01153 3.34475 0
M  V30 6844 H 699.163 2.46766 1.69549 0
M  V30 6845 H 696.709 1.18767 0.814279 0
M  V30 6846 H 698.662 1.5073 3.93521 0
M  V30 6847 H 697.386 0.484162 3.22991 0
M  V30 6848 H 696.045 2.53564 2.64765 0
M  V30 6849 H 695.693 1.37939 4.83717 0
M  V30 6850 H 695.393 3.13016 4.97287 0
M  V30 6851 H 696.917 2.43834 5.59801 0
M  V30 6852 H 698.331 4.07968 4.02784 0
M  V30 6853 H 696.728 4.77001 3.64129 0
M  V30 6854 H 697.798 4.25539 2.32475 0
M  V30 6855 N 699.141 -0.881989 1.30609 0
M  V30 6856 C 700.071 -2.00413 1.1982 0
M  V30 6857 C 701.052 -1.69871 0.0881538 0
M  V30 6858 O 702.237 -1.92304 0.2707 0
M  V30 6859 C 699.367 -3.35641 0.89233 0
M  V30 6860 C 698.321 -3.80451 1.96064 0
M  V30 6861 C 697.647 -5.13003 1.5077 0
M  V30 6862 C 698.947 -3.98855 3.37213 0
M  V30 6863 H 700.641 -2.09698 2.13699 0
M  V30 6864 H 698.187 -1.00754 1.02882 0
M  V30 6865 H 700.14 -4.13669 0.803497 0
M  V30 6866 H 698.864 -3.26497 -0.0821381 0
M  V30 6867 H 697.523 -3.04654 2.03916 0
M  V30 6868 H 697.171 -5.0029 0.521417 0
M  V30 6869 H 696.871 -5.43956 2.22229 0
M  V30 6870 H 698.395 -5.93554 1.43271 0
M  V30 6871 H 699.809 -4.67312 3.32103 0
M  V30 6872 H 698.206 -4.41188 4.06784 0
M  V30 6873 H 699.276 -3.02614 3.78883 0
M  V30 6874 N 700.619 -1.13374 -1.09472 0
M  V30 6875 C 702.03 -0.90801 -1.63132 0
M  V30 6876 C 702.381 0.555576 -1.8817 0
M  V30 6877 O 701.506 1.42218 -1.63104 0
M  V30 6878 C 702.101 -1.64182 -2.96361 0
M  V30 6879 C 700.66 -1.46197 -3.46848 0
M  V30 6880 C 699.807 -1.67134 -2.21273 0
M  V30 6881 H 702.758 -1.2871 -0.928411 0
M  V30 6882 H 702.779 -1.09863 -3.64294 0
M  V30 6883 H 702.291 -2.707 -2.78106 0
M  V30 6884 H 700.392 -0.419788 -3.70228 0
M  V30 6885 H 700.505 -2.22472 -4.24315 0
M  V30 6886 H 698.869 -1.09616 -2.29905 0
M  V30 6887 H 699.652 -2.74971 -2.05538 0
M  V30 6888 N 702.098 1.27442 -0.927168 0
M  V30 6889 C 703.375 1.89473 -0.485742 0
M  V30 6890 C 703.755 1.83922 1.03614 0
M  V30 6891 O 703.103 1.28409 1.89007 0
M  V30 6892 C 703.313 3.33417 -1.03123 0
M  V30 6893 C 704.661 4.10333 -1.0914 0
M  V30 6894 O 705.685 3.4243 -0.98082 0
M  V30 6895 O 704.544 5.31737 -1.26165 0
M  V30 6896 H 701.638 0.812124 -0.156154 0
M  V30 6897 H 704.184 1.35713 -1.01882 0
M  V30 6898 H 702.956 3.31747 -2.07508 0
M  V30 6899 H 702.579 3.94695 -0.479767 0
M  V30 6900 N 703.576 0.692616 1.41565 0
M  V30 6901 C 704.825 0.219452 2.00503 0
M  V30 6902 C 705.138 -1.18683 1.55479 0
M  V30 6903 O 706.344 -1.75731 2.06956 0
M  V30 6904 C 704.8 0.341451 3.58277 0
M  V30 6905 C 704.408 1.75291 4.12283 0
M  V30 6906 C 706.152 -0.0720899 4.24439 0
M  V30 6907 C 704.059 1.82673 5.62481 0
M  V30 6908 H 702.989 0.0782874 0.749925 0
M  V30 6909 H 705.64 0.860386 1.62079 0
M  V30 6910 H 704.022 -0.367683 3.94289 0
M  V30 6911 H 705.196 2.49057 3.87695 0
M  V30 6912 H 703.511 2.11587 3.58636 0
M  V30 6913 H 706.108 -0.0373385 5.34687 0
M  V30 6914 H 706.451 -1.11034 4.0122 0
M  V30 6915 H 706.984 0.586663 3.9345 0
M  V30 6916 H 703.723 2.84539 5.90523 0
M  V30 6917 H 703.243 1.13288 5.89004 0
M  V30 6918 H 704.922 1.58827 6.27203 0
M  V30 6919 N 705.054 -1.51416 0.437162 0
M  V30 6920 C 706.279 -2.0699 -0.130424 0
M  V30 6921 C 706.704 -1.30249 -1.35709 0
M  V30 6922 O 706.062 -0.340388 -1.78076 0
M  V30 6923 C 706.11 -3.5801 -0.43142 0
M  V30 6924 O 705.214 -3.8345 -1.5179 0
M  V30 6925 H 704.555 -0.663997 -0.00194339 0
M  V30 6926 H 707.085 -1.95029 0.618445 0
M  V30 6927 H 707.095 -4.02261 -0.681926 0
M  V30 6928 H 705.77 -4.13291 0.465137 0
M  V30 6929 H 704.347 -3.51062 -1.25737 0
M  V30 6930 N 706.532 -0.168513 -1.56696 0
M  V30 6931 C 707.779 0.477158 -1.96798 0
M  V30 6932 C 708.107 1.63442 -1.05437 0
M  V30 6933 O 707.362 1.95503 -0.0878903 0
M  V30 6934 C 707.661 1.00441 -3.42996 0
M  V30 6935 C 707.327 -0.0366556 -4.50885 0
M  V30 6936 C 705.989 -0.322785 -4.80116 0
M  V30 6937 C 708.341 -0.743447 -5.1587 0
M  V30 6938 C 705.669 -1.32114 -5.71632 0
M  V30 6939 C 708.021 -1.73077 -6.08463 0
M  V30 6940 C 706.685 -2.02437 -6.36062 0
M  V30 6941 H 705.955 0.174604 -0.720135 0
M  V30 6942 H 708.602 -0.259884 -1.89728 0
M  V30 6943 H 706.907 1.81922 -3.47004 0
M  V30 6944 H 708.604 1.51294 -3.71364 0
M  V30 6945 H 705.194 0.196532 -4.28149 0
M  V30 6946 H 709.378 -0.535602 -4.93401 0
M  V30 6947 H 704.634 -1.55482 -5.913 0
M  V30 6948 H 708.808 -2.28382 -6.57886 0
M  V30 6949 H 706.435 -2.79946 -7.06777 0
M  V30 6950 N 708.01 1.57248 0.105221 0
M  V30 6951 C 709.287 1.76566 0.841647 0
M  V30 6952 C 709.667 0.747566 1.9742 0
M  V30 6953 O 709.015 -0.225886 2.27381 0
M  V30 6954 C 709.225 3.22016 1.3456 0
M  V30 6955 C 710.573 3.84911 1.79244 0
M  V30 6956 O 711.597 3.25703 1.44207 0
M  V30 6957 O 710.456 4.89008 2.43995 0
M  V30 6958 H 707.55 0.723443 0.400698 0
M  V30 6959 H 710.096 1.69472 0.0878893 0
M  V30 6960 H 708.868 3.87644 0.533685 0
M  V30 6961 H 708.491 3.33703 2.16167 0
M  V30 6962 N 709.488 -0.375779 1.53054 0
M  V30 6963 C 710.451 -1.44254 1.7811 0
M  V30 6964 C 711.451 -1.47018 0.651328 0
M  V30 6965 O 712.641 -1.47957 0.919472 0
M  V30 6966 C 709.773 -2.8345 1.89391 0
M  V30 6967 H 710.966 -1.23316 2.73374 0
M  V30 6968 H 708.519 -0.608312 1.43977 0
M  V30 6969 H 709.254 -3.09716 0.961589 0
M  V30 6970 H 709.039 -2.82844 2.71555 0
M  V30 6971 H 710.529 -3.60722 2.10404 0
M  V30 6972 N 710.966 -1.44241 -0.634997 0
M  V30 6973 C 711.929 -1.50457 -1.72903 0
M  V30 6974 C 712.929 -0.387058 -1.56072 0
M  V30 6975 O 714.119 -0.649531 -1.61638 0
M  V30 6976 C 711.251 -1.37477 -3.1195 0
M  V30 6977 H 712.444 -2.47907 -1.68767 0
M  V30 6978 H 709.997 -1.31276 -0.84831 0
M  V30 6979 H 710.732 -0.41106 -3.21684 0
M  V30 6980 H 710.517 -2.18506 -3.25573 0
M  V30 6981 H 712.007 -1.44799 -3.91692 0
M  V30 6982 N 712.444 0.87505 -1.31075 0
M  V30 6983 C 713.376 1.98773 -1.14114 0
M  V30 6984 C 714.389 1.62595 -0.0816119 0
M  V30 6985 O 715.578 1.75449 -0.32861 0
M  V30 6986 C 712.678 3.31159 -0.720224 0
M  V30 6987 C 711.851 3.9571 -1.86366 0
M  V30 6988 C 710.91 5.06407 -1.42965 0
M  V30 6989 O 709.936 5.27501 -2.13848 0
M  V30 6990 N 711.138 5.79649 -0.314194 0
M  V30 6991 H 713.903 2.1387 -2.09951 0
M  V30 6992 H 711.464 1.04873 -1.23342 0
M  V30 6993 H 713.456 4.0259 -0.412687 0
M  V30 6994 H 712.026 3.12257 0.146396 0
M  V30 6995 H 711.246 3.17324 -2.33879 0
M  V30 6996 H 712.534 4.35576 -2.62966 0
M  V30 6997 H 711.932 5.65025 0.276228 0
M  V30 6998 H 710.489 6.51766 -0.0661641 0
M  V30 6999 N 713.922 1.13953 1.08869 0
M  V30 7000 C 715.17 0.903023 1.80803 0
M  V30 7001 C 715.491 -0.572151 1.86417 0
M  V30 7002 O 714.761 -1.41589 1.35386 0
M  V30 7003 H 713.341 0.331099 0.669614 0
M  V30 7004 H 716.003 1.43719 1.31647 0
M  V30 7005 H 715.099 1.29881 2.83791 0
M  V30 7006 N 715.4 -1.26948 0.933913 0
M  V30 7007 C 716.628 -1.98186 0.59414 0
M  V30 7008 C 717.043 -1.69614 -0.829257 0
M  V30 7009 O 716.4 -0.960213 -1.55197 0
M  V30 7010 C 716.451 -3.52123 0.818026 0
M  V30 7011 O 716.172 -3.79698 2.18543 0
M  V30 7012 C 717.673 -4.40608 0.48781 0
M  V30 7013 H 714.893 -0.632305 0.224569 0
M  V30 7014 H 717.437 -1.61646 1.25263 0
M  V30 7015 H 715.592 -3.86851 0.206246 0
M  V30 7016 H 716.006 -4.7426 2.24005 0
M  V30 7017 H 717.48 -5.47606 0.695126 0
M  V30 7018 H 717.957 -4.35394 -0.576913 0
M  V30 7019 H 718.563 -4.11411 1.078 0
M  V30 7020 N 716.879 -0.700114 -1.41195 0
M  V30 7021 C 718.127 -0.232546 -2.00758 0
M  V30 7022 C 718.448 1.1734 -1.55745 0
M  V30 7023 O 717.718 1.79262 -0.790058 0
M  V30 7024 H 716.298 -0.0829845 -0.742376 0
M  V30 7025 H 718.96 -0.902289 -1.72756 0
M  V30 7026 H 718.056 -0.253521 -3.11069 0
M  V30 7027 N 718.357 1.51182 -0.445186 0
M  V30 7028 C 719.32 2.26501 0.350722 0
M  V30 7029 C 720.32 1.3025 0.942952 0
M  V30 7030 O 721.51 1.53897 0.816175 0
M  V30 7031 C 718.642 3.06274 1.49697 0
M  V30 7032 H 719.835 2.98299 -0.309474 0
M  V30 7033 H 717.388 1.55034 -0.198551 0
M  V30 7034 H 718.123 2.38911 2.19299 0
M  V30 7035 H 717.908 3.76979 1.0784 0
M  V30 7036 H 719.398 3.63306 2.05909 0
M  V30 7037 N 719.835 0.176821 1.56605 0
M  V30 7038 C 720.765 -0.746841 2.21234 0
M  V30 7039 C 721.746 -1.23502 1.16967 0
M  V30 7040 O 722.931 -1.28718 1.45414 0
M  V30 7041 C 720.061 -1.97407 2.8574 0
M  V30 7042 C 719.015 -1.62153 3.96094 0
M  V30 7043 C 718.341 -2.92387 4.47676 0
M  V30 7044 C 719.641 -0.845353 5.15413 0
M  V30 7045 H 721.335 -0.208116 2.98676 0
M  V30 7046 H 718.881 -0.0986594 1.43662 0
M  V30 7047 H 720.834 -2.62531 3.2963 0
M  V30 7048 H 719.558 -2.53703 2.05676 0
M  V30 7049 H 718.217 -0.993964 3.52868 0
M  V30 7050 H 717.865 -3.46734 3.64396 0
M  V30 7051 H 717.565 -2.69551 5.22127 0
M  V30 7052 H 719.089 -3.5853 4.94255 0
M  V30 7053 H 720.503 -1.39929 5.55961 0
M  V30 7054 H 718.9 -0.715814 5.95815 0
M  V30 7055 H 719.97 0.157239 4.84645 0
M  V30 7056 N 721.313 -1.57302 -0.09688 0
M  V30 7057 C 722.562 -1.85183 -0.799388 0
M  V30 7058 C 722.875 -0.765818 -1.79985 0
M  V30 7059 O 724.081 -0.931696 -2.55013 0
M  V30 7060 C 722.537 -3.28399 -1.47249 0
M  V30 7061 C 722.145 -4.45066 -0.511888 0
M  V30 7062 C 723.889 -3.65506 -2.15883 0
M  V30 7063 C 721.796 -5.79315 -1.18948 0
M  V30 7064 H 720.726 -0.690752 -0.302287 0
M  V30 7065 H 723.377 -1.83425 -0.0523104 0
M  V30 7066 H 721.759 -3.24692 -2.26697 0
M  V30 7067 H 722.933 -4.60116 0.250962 0
M  V30 7068 H 721.248 -4.16343 0.0686576 0
M  V30 7069 H 723.845 -4.63087 -2.67309 0
M  V30 7070 H 724.188 -2.94041 -2.94696 0
M  V30 7071 H 724.721 -3.71094 -1.43298 0
M  V30 7072 H 721.46 -6.54007 -0.442198 0
M  V30 7073 H 720.98 -5.68111 -1.9238 0
M  V30 7074 H 722.659 -6.23816 -1.71646 0
M  V30 7075 N 722.791 0.367657 -1.53252 0
M  V30 7076 C 724.021 1.12955 -1.72988 0
M  V30 7077 C 724.429 1.8358 -0.457708 0
M  V30 7078 O 723.772 1.74336 0.579006 0
M  V30 7079 C 723.834 2.20545 -2.83902 0
M  V30 7080 C 723.498 1.69704 -4.24323 0
M  V30 7081 C 724.495 1.16223 -5.06743 0
M  V30 7082 C 722.18 1.7528 -4.70725 0
M  V30 7083 C 724.174 0.689935 -6.33655 0
M  V30 7084 C 721.861 1.27662 -5.97617 0
M  V30 7085 C 722.859 0.746083 -6.78913 0
M  V30 7086 O 722.547 0.276925 -8.03423 0
M  V30 7087 H 722.279 0.343753 -0.582074 0
M  V30 7088 H 724.833 0.433106 -2.00782 0
M  V30 7089 H 723.063 2.93676 -2.51577 0
M  V30 7090 H 724.752 2.82111 -2.91836 0
M  V30 7091 H 725.518 1.11256 -4.72067 0
M  V30 7092 H 721.397 2.15515 -4.07522 0
M  V30 7093 H 724.941 0.275164 -6.97057 0
M  V30 7094 H 720.838 1.32322 -6.31792 0
M  V30 7095 H 721.606 0.396445 -8.17539 0
M  V30 7096 N 724.269 1.44576 0.627338 0
M  V30 7097 C 725.217 1.52039 1.76031 0
M  V30 7098 C 726.211 0.391796 1.64807 0
M  V30 7099 O 727.417 0.5669 1.7084 0
M  V30 7100 H 723.792 0.477165 0.581221 0
M  V30 7101 H 725.763 2.47387 1.6686 0
M  V30 7102 C 724.512 1.48539 3.14375 0
M  V30 7103 H 723.835 2.34699 3.23661 0
M  V30 7104 H 725.275 1.57821 3.93534 0
M  V30 7105 C 723.734 0.20672 3.36265 0
M  V30 7106 O 724.264 -0.72154 3.95167 0
M  V30 7107 N 722.47 0.108654 2.90397 0
M  V30 7108 H 722.017 0.864884 2.42647 0
M  V30 7109 H 721.975 -0.746121 3.05418 0
M  V30 7110 N 725.747 -0.868086 1.31537 0
M  V30 7111 C 726.977 -1.65162 1.24118 0
M  V30 7112 C 727.385 -1.88187 -0.195558 0
M  V30 7113 O 726.728 -1.44154 -1.13866 0
M  V30 7114 C 726.79 -3.04119 1.91708 0
M  V30 7115 C 726.454 -3.04194 3.4105 0
M  V30 7116 C 727.451 -2.82016 4.36764 0
M  V30 7117 C 725.136 -3.25256 3.82772 0
M  V30 7118 C 727.13 -2.80881 5.72175 0
M  V30 7119 C 724.817 -3.23749 5.18295 0
M  V30 7120 C 725.815 -3.01589 6.12808 0
M  V30 7121 O 725.503 -2.9993 7.45853 0
M  V30 7122 H 725.235 -0.521597 0.430015 0
M  V30 7123 H 727.789 -1.09165 1.73989 0
M  V30 7124 H 726.019 -3.61849 1.36389 0
M  V30 7125 H 727.708 -3.64701 1.78179 0
M  V30 7126 H 728.474 -2.65525 4.05859 0
M  V30 7127 H 724.353 -3.41534 3.09638 0
M  V30 7128 H 727.897 -2.63503 6.45919 0
M  V30 7129 H 723.794 -3.39781 5.48834 0
M  V30 7130 H 724.562 -3.15979 7.55049 0
M  V30 7131 N 727.225 -1.14528 -1.08264 0
M  V30 7132 C 728.473 -0.912599 -1.80322 0
M  V30 7133 C 728.794 0.562256 -1.86718 0
M  V30 7134 O 728.064 1.40869 -1.36135 0
M  V30 7135 H 726.644 -0.334645 -0.667849 0
M  V30 7136 H 729.306 -1.44415 -1.30883 0
M  V30 7137 H 728.402 -1.31384 -2.83098 0
M  V30 7138 N 728.703 1.26451 -0.940633 0
M  V30 7139 C 729.635 2.25556 -0.407104 0
M  V30 7140 C 730.648 1.55888 0.469324 0
M  V30 7141 O 731.837 1.76292 0.279858 0
M  V30 7142 C 728.937 3.36109 0.434064 0
M  V30 7143 C 728.11 4.3532 -0.426082 0
M  V30 7144 C 727.169 5.25004 0.354563 0
M  V30 7145 O 726.195 5.68684 -0.242219 0
M  V30 7146 N 727.397 5.5652 1.65123 0
M  V30 7147 H 730.162 2.7197 -1.25907 0
M  V30 7148 H 727.723 1.40212 -0.809456 0
M  V30 7149 H 729.715 3.93059 0.963684 0
M  V30 7150 H 728.285 2.89194 1.18683 0
M  V30 7151 H 727.505 3.77449 -1.13692 0
M  V30 7152 H 728.793 4.986 -1.01366 0
M  V30 7153 H 728.191 5.22912 2.15822 0
M  V30 7154 H 726.748 6.16115 2.12711 0
M  V30 7155 N 730.181 0.707592 1.40822 0
M  V30 7156 C 731.111 0.0644925 2.33411 0
M  V30 7157 C 732.092 -0.754205 1.52466 0
M  V30 7158 O 733.277 -0.704749 1.80961 0
M  V30 7159 C 730.407 -0.863865 3.36385 0
M  V30 7160 C 729.361 -0.15138 4.27732 0
M  V30 7161 C 728.687 -1.19491 5.21177 0
M  V30 7162 C 729.987 0.989607 5.12839 0
M  V30 7163 H 731.681 0.837829 2.87438 0
M  V30 7164 H 729.227 0.404346 1.38207 0
M  V30 7165 H 731.18 -1.32309 4.0009 0
M  V30 7166 H 729.904 -1.66901 2.80734 0
M  V30 7167 H 728.563 0.287937 3.65467 0
M  V30 7168 H 728.211 -1.9929 4.61836 0
M  V30 7169 H 727.911 -0.723123 5.83134 0
M  V30 7170 H 729.435 -1.6544 5.8776 0
M  V30 7171 H 730.849 0.610114 5.70044 0
M  V30 7172 H 729.246 1.38926 5.83798 0
M  V30 7173 H 730.316 1.82389 4.49291 0
M  V30 7174 N 731.66 -1.50943 0.453197 0
M  V30 7175 C 732.592 -2.25922 -0.38623 0
M  V30 7176 C 733.605 -1.3055 -0.972652 0
M  V30 7177 O 734.794 -1.56191 -0.864097 0
M  V30 7178 C 731.894 -3.01176 -1.5539 0
M  V30 7179 C 731.067 -4.23768 -1.0835 0
M  V30 7180 C 730.126 -4.81466 -2.12313 0
M  V30 7181 O 729.152 -5.42875 -1.71101 0
M  V30 7182 N 730.354 -4.66889 -3.44956 0
M  V30 7183 H 733.119 -2.98601 0.256468 0
M  V30 7184 H 730.68 -1.59408 0.282965 0
M  V30 7185 H 732.672 -3.36659 -2.24594 0
M  V30 7186 H 731.242 -2.31409 -2.10163 0
M  V30 7187 H 730.462 -3.93597 -0.217961 0
M  V30 7188 H 731.75 -5.03289 -0.746857 0
M  V30 7189 H 731.148 -4.18011 -3.81161 0
M  V30 7190 H 729.705 -5.06691 -4.1001 0
M  V30 7191 N 733.138 -0.185124 -1.56509 0
M  V30 7192 C 734.07 0.771401 -2.15829 0
M  V30 7193 C 735.083 1.18392 -1.11747 0
M  V30 7194 O 736.272 1.12137 -1.38879 0
M  V30 7195 C 733.372 2.05169 -2.69739 0
M  V30 7196 C 732.545 1.80056 -3.98621 0
M  V30 7197 C 731.604 2.92435 -4.37456 0
M  V30 7198 O 730.63 2.62473 -5.05071 0
M  V30 7199 N 731.832 4.20554 -4.00143 0
M  V30 7200 H 734.597 0.264184 -2.98533 0
M  V30 7201 H 732.158 -0.00281069 -1.619 0
M  V30 7202 H 734.15 2.7947 -2.92709 0
M  V30 7203 H 732.72 2.47041 -1.91545 0
M  V30 7204 H 731.94 0.895862 -3.83885 0
M  V30 7205 H 733.228 1.60662 -4.82768 0
M  V30 7206 H 732.626 4.47753 -3.45736 0
M  V30 7207 H 731.183 4.91514 -4.28085 0
M  V30 7208 N 734.616 1.57351 0.0885366 0
M  V30 7209 C 735.865 1.85604 0.789556 0
M  V30 7210 C 736.178 0.775352 1.79576 0
M  V30 7211 O 737.384 0.945206 2.54515 0
M  V30 7212 C 735.84 3.29175 1.45506 0
M  V30 7213 C 735.448 4.45331 0.488278 0
M  V30 7214 C 737.192 3.66646 2.13942 0
M  V30 7215 C 735.099 5.79937 1.15874 0
M  V30 7216 H 734.029 0.692346 0.298619 0
M  V30 7217 H 736.68 1.83451 0.0425821 0
M  V30 7218 H 735.062 3.25889 2.24972 0
M  V30 7219 H 736.236 4.59977 -0.275359 0
M  V30 7220 H 734.551 4.16301 -0.0907363 0
M  V30 7221 H 737.148 4.64498 2.6485 0
M  V30 7222 H 737.491 2.956 2.93132 0
M  V30 7223 H 738.024 3.71848 1.41328 0
M  V30 7224 H 734.763 6.54232 0.407508 0
M  V30 7225 H 734.283 5.69123 1.89364 0
M  V30 7226 H 735.962 6.24718 1.68336 0
M  V30 7227 N 736.094 -0.359525 1.53444 0
M  V30 7228 C 737.342 -1.09935 1.69584 0
M  V30 7229 C 737.663 -1.89656 0.453371 0
M  V30 7230 O 736.933 -1.8852 -0.53263 0
M  V30 7231 H 735.513 -0.408843 0.625185 0
M  V30 7232 H 738.175 -0.40467 1.90653 0
M  V30 7233 H 737.271 -1.78575 2.55964 0
M  V30 7234 N 737.572 -1.44907 -0.619662 0
M  V30 7235 C 738.82 -1.47999 -1.37625 0
M  V30 7236 C 739.141 -0.118295 -1.94641 0
M  V30 7237 O 738.411 0.85086 -1.76457 0
M  V30 7238 H 736.991 -0.544993 -0.510873 0
M  V30 7239 H 739.653 -1.80772 -0.728522 0
M  V30 7240 H 738.749 -2.21196 -2.20179 0
M  V30 7241 N 739.05 0.861098 -1.31996 0
M  V30 7242 C 740.278 1.6474 -1.25173 0
M  V30 7243 C 740.693 1.87926 0.181425 0
M  V30 7244 O 740.05 1.4437 1.1164 0
M  V30 7245 C 740.101 3.01036 -2.0015 0
M  V30 7246 O 739.822 2.7888 -3.37872 0
M  V30 7247 C 741.323 3.95481 -2.00273 0
M  V30 7248 H 738.543 0.513314 -0.432146 0
M  V30 7249 H 741.087 1.07419 -1.74016 0
M  V30 7250 H 739.242 3.55021 -1.55046 0
M  V30 7251 H 739.656 3.65514 -3.76165 0
M  V30 7252 H 741.13 4.88403 -2.57229 0
M  V30 7253 H 741.607 4.27957 -0.987407 0
M  V30 7254 H 742.213 3.47433 -2.45296 0
M  V30 7255 N 740.528 1.15101 1.07655 0
M  V30 7256 C 741.753 0.948177 1.84457 0
M  V30 7257 C 742.178 -0.498432 1.81376 0
M  V30 7258 O 741.536 -1.35509 1.20445 0
M  V30 7259 C 741.584 1.46318 3.29581 0
M  V30 7260 O 740.688 0.660342 4.07079 0
M  V30 7261 H 740.029 0.338428 0.571281 0
M  V30 7262 H 742.559 1.5301 1.35828 0
M  V30 7263 H 742.569 1.47468 3.80417 0
M  V30 7264 H 741.244 2.51635 3.31138 0
M  V30 7265 H 739.821 0.718216 3.65918 0
M  V30 7266 N 742.006 -1.2595 0.947325 0
M  V30 7267 C 742.936 -2.28521 0.479604 0
M  V30 7268 C 743.917 -1.63469 -0.470293 0
M  V30 7269 O 745.102 -1.90627 -0.370824 0
M  V30 7270 C 742.232 -3.46397 -0.250289 0
M  V30 7271 C 741.186 -4.23578 0.613643 0
M  V30 7272 C 740.512 -5.34131 -0.246568 0
M  V30 7273 C 741.812 -4.86979 1.88809 0
M  V30 7274 H 743.506 -2.67895 1.33688 0
M  V30 7275 H 741.052 -1.28783 0.644274 0
M  V30 7276 H 743.005 -4.17269 -0.588576 0
M  V30 7277 H 741.729 -3.05993 -1.14175 0
M  V30 7278 H 740.388 -3.54478 0.93491 0
M  V30 7279 H 740.036 -4.89968 -1.13756 0
M  V30 7280 H 739.736 -5.86683 0.328123 0
M  V30 7281 H 741.26 -6.07839 -0.579986 0
M  V30 7282 H 742.674 -5.50034 1.61666 0
M  V30 7283 H 741.071 -5.49675 2.40784 0
M  V30 7284 H 742.141 -4.09575 2.5957 0
M  V30 7285 N 743.484 -0.715051 -1.40445 0
M  V30 7286 C 744.447 -0.0708726 -2.2909 0
M  V30 7287 C 745.447 0.687926 -1.45342 0
M  V30 7288 O 746.637 0.519908 -1.66261 0
M  V30 7289 C 743.769 0.909528 -3.28543 0
M  V30 7290 H 744.962 -0.851611 -2.87555 0
M  V30 7291 H 742.515 -0.479674 -1.48758 0
M  V30 7292 H 743.25 1.71734 -2.75096 0
M  V30 7293 H 743.035 0.368318 -3.90366 0
M  V30 7294 H 744.525 1.35744 -3.94922 0
M  V30 7295 N 744.962 1.50701 -0.461195 0
M  V30 7296 C 746.187 2.07171 0.0974773 0
M  V30 7297 C 746.612 1.32391 1.3362 0
M  V30 7298 O 745.97 0.368676 1.77512 0
M  V30 7299 C 746.018 3.58651 0.374409 0
M  V30 7300 O 745.122 3.85816 1.4567 0
M  V30 7301 H 744.463 0.663944 -0.00862047 0
M  V30 7302 H 746.993 1.94021 -0.649394 0
M  V30 7303 H 747.003 4.03295 0.617843 0
M  V30 7304 H 745.678 4.12498 -0.530829 0
M  V30 7305 H 744.255 3.53018 1.20136 0
M  V30 7306 N 746.441 0.193421 1.56409 0
M  V30 7307 C 747.852 -0.319471 1.83946 0
M  V30 7308 C 748.203 -1.61505 1.11403 0
M  V30 7309 O 747.328 -2.13139 0.374289 0
M  V30 7310 C 747.923 -0.586411 3.33686 0
M  V30 7311 C 746.482 -1.04368 3.61641 0
M  V30 7312 C 745.629 -0.0913834 2.77149 0
M  V30 7313 H 748.58 0.417242 1.53117 0
M  V30 7314 H 748.601 -1.43591 3.52366 0
M  V30 7315 H 748.113 0.356701 3.86457 0
M  V30 7316 H 746.214 -2.00113 3.14302 0
M  V30 7317 H 746.327 -0.937549 4.69837 0
M  V30 7318 H 744.691 -0.592954 2.47702 0
M  V30 7319 H 745.474 0.846142 3.32709 0
M  V30 7320 N 747.919 -1.57396 -0.0801906 0
M  V30 7321 C 749.168 -1.8602 -0.779702 0
M  V30 7322 C 749.481 -0.784864 -1.79163 0
M  V30 7323 O 750.687 -0.958691 -2.54011 0
M  V30 7324 C 749.143 -3.29942 -1.43758 0
M  V30 7325 C 748.751 -4.45584 -0.464654 0
M  V30 7326 C 750.495 -3.67775 -2.11995 0
M  V30 7327 C 748.402 -5.80544 -1.12797 0
M  V30 7328 H 747.332 -0.69392 -0.294943 0
M  V30 7329 H 749.983 -1.83471 -0.0328527 0
M  V30 7330 H 748.365 -3.27078 -2.2324 0
M  V30 7331 H 749.539 -4.59824 0.299749 0
M  V30 7332 H 747.854 -4.16247 0.112813 0
M  V30 7333 H 750.451 -4.65896 -2.62383 0
M  V30 7334 H 750.794 -2.9715 -2.91561 0
M  V30 7335 H 751.327 -3.72593 -1.39354 0
M  V30 7336 H 748.066 -6.54439 -0.372807 0
M  V30 7337 H 747.586 -5.70119 -1.86344 0
M  V30 7338 H 749.265 -6.25602 -1.6502 0
M  V30 7339 N 749.397 0.351382 -1.53633 0
M  V30 7340 C 750.644 1.0925 -1.70502 0
M  V30 7341 C 750.972 1.88881 -0.464123 0
M  V30 7342 O 750.227 1.87693 0.554077 0
M  V30 7343 C 750.526 2.06744 -2.91533 0
M  V30 7344 C 750.192 1.43484 -4.27461 0
M  V30 7345 C 748.854 1.2596 -4.64422 0
M  V30 7346 C 751.206 0.978436 -5.11934 0
M  V30 7347 C 748.534 0.614017 -5.83478 0
M  V30 7348 C 750.886 0.346795 -6.31649 0
M  V30 7349 C 749.55 0.15917 -6.6731 0
M  V30 7350 H 748.82 0.399773 -0.623909 0
M  V30 7351 H 751.467 0.372656 -1.87839 0
M  V30 7352 H 749.772 2.85082 -2.68767 0
M  V30 7353 H 751.469 2.64066 -3.01778 0
M  V30 7354 H 748.059 1.5812 -3.98367 0
M  V30 7355 H 752.243 1.1017 -4.83918 0
M  V30 7356 H 747.499 0.457194 -6.09688 0
M  V30 7357 H 751.673 -0.0149864 -6.96398 0
M  V30 7358 H 749.3 -0.343129 -7.59425 0
M  V30 7359 N 750.875 1.45233 0.611969 0
M  V30 7360 C 752.121 1.49242 1.37312 0
M  V30 7361 C 752.454 0.131963 1.93751 0
M  V30 7362 O 751.729 -0.852999 1.74798 0
M  V30 7363 C 752.012 2.56811 2.52428 0
M  V30 7364 C 751.865 4.02284 2.01215 0
M  V30 7365 C 753.184 2.60705 3.54572 0
M  V30 7366 H 750.303 0.54336 0.497925 0
M  V30 7367 H 752.945 1.77019 0.690242 0
M  V30 7368 H 751.095 2.33256 3.10683 0
M  V30 7369 H 752.767 4.37035 1.47643 0
M  V30 7370 H 751.01 4.1315 1.32248 0
M  V30 7371 H 751.681 4.7323 2.84178 0
M  V30 7372 H 754.157 2.81799 3.06151 0
M  V30 7373 H 753.033 3.37841 4.32614 0
M  V30 7374 H 753.294 1.65627 4.09903 0
M  V30 7375 N 752.353 -0.854086 1.3245 0
M  V30 7376 C 753.601 -1.60513 1.228 0
M  V30 7377 C 753.922 -1.93865 -0.210073 0
M  V30 7378 O 753.192 -1.59673 -1.13496 0
M  V30 7379 H 751.772 -0.595099 0.451516 0
M  V30 7380 H 754.434 -1.0216 1.6598 0
M  V30 7381 H 753.53 -2.54182 1.81102 0
M  V30 7382 N 753.831 -1.1567 -1.07043 0
M  V30 7383 C 754.761 -0.879348 -2.16309 0
M  V30 7384 C 755.742 0.171311 -1.69235 0
M  V30 7385 O 756.927 0.0250175 -1.94184 0
M  V30 7386 C 754.057 -0.371307 -3.45309 0
M  V30 7387 C 753.011 -1.359 -4.05851 0
M  V30 7388 C 752.337 -0.709678 -5.29969 0
M  V30 7389 C 753.637 -2.72606 -4.45514 0
M  V30 7390 H 755.331 -1.79308 -2.39768 0
M  V30 7391 H 752.877 -0.863558 -1.15233 0
M  V30 7392 H 754.83 -0.164798 -4.21078 0
M  V30 7393 H 753.554 0.577906 -3.21446 0
M  V30 7394 H 752.213 -1.55193 -3.32131 0
M  V30 7395 H 751.861 0.245782 -5.02399 0
M  V30 7396 H 751.561 -1.36886 -5.71433 0
M  V30 7397 H 753.085 -0.513015 -6.08441 0
M  V30 7398 H 754.499 -2.57141 -5.12398 0
M  V30 7399 H 752.896 -3.34927 -4.97939 0
M  V30 7400 H 753.966 -3.28434 -3.56734 0
M  V30 7401 N 755.309 1.25446 -0.953992 0
M  V30 7402 C 756.555 1.93756 -0.618888 0
M  V30 7403 C 756.91 1.73344 0.83484 0
M  V30 7404 O 756.203 1.06753 1.59105 0
M  V30 7405 C 756.397 3.45555 -0.912496 0
M  V30 7406 C 756.226 3.8073 -2.39321 0
M  V30 7407 C 754.996 4.02819 -3.05065 0
M  V30 7408 C 757.194 3.88286 -3.37251 0
M  V30 7409 N 755.176 4.24981 -4.43017 0
M  V30 7410 C 756.547 4.1513 -4.60507 0
M  V30 7411 C 758.602 3.70965 -3.32099 0
M  V30 7412 C 757.305 4.26454 -5.79249 0
M  V30 7413 C 759.331 3.83528 -4.50178 0
M  V30 7414 C 758.693 4.10783 -5.72221 0
M  V30 7415 H 754.792 0.731271 -0.277069 0
M  V30 7416 H 757.376 1.5125 -1.22604 0
M  V30 7417 H 755.547 3.86959 -0.334284 0
M  V30 7418 H 757.279 4.01117 -0.537362 0
M  V30 7419 H 754.034 3.9868 -2.55639 0
M  V30 7420 H 754.458 4.4007 -5.14459 0
M  V30 7421 H 759.1 3.4891 -2.38791 0
M  V30 7422 H 756.818 4.47325 -6.72998 0
M  V30 7423 H 760.404 3.71513 -4.47738 0
M  V30 7424 H 759.284 4.20285 -6.62065 0
M  V30 7425 N 756.787 0.722489 1.40064 0
M  V30 7426 C 757.75 0.0830209 2.2905 0
M  V30 7427 C 758.75 -0.680208 1.45705 0
M  V30 7428 O 759.94 -0.511084 1.66534 0
M  V30 7429 C 757.072 -0.892092 3.29021 0
M  V30 7430 H 758.265 0.866848 2.87099 0
M  V30 7431 H 755.818 0.487556 1.48501 0
M  V30 7432 H 756.553 -1.70273 2.76003 0
M  V30 7433 H 756.338 -0.34761 3.90556 0
M  V30 7434 H 757.828 -1.33648 3.95636 0
M  V30 7435 N 758.265 -1.50454 0.469181 0
M  V30 7436 C 759.681 -1.59124 0.123226 0
M  V30 7437 C 759.881 -1.47749 -1.37013 0
M  V30 7438 O 758.937 -1.335 -2.14322 0
M  V30 7439 C 760.25 -2.93101 0.67172 0
M  V30 7440 C 761.798 -3.06491 0.634978 0
M  V30 7441 C 762.273 -4.43041 1.16098 0
M  V30 7442 N 763.764 -4.49448 1.12031 0
M  V30 7443 C 764.499 -5.53491 1.49784 0
M  V30 7444 N 763.995 -6.64798 1.94976 0
M  V30 7445 N 765.788 -5.44025 1.41399 0
M  V30 7446 H 757.939 -1.56091 1.44046 0
M  V30 7447 H 760.202 -0.737564 0.59557 0
M  V30 7448 H 759.908 -3.06895 1.7178 0
M  V30 7449 H 759.782 -3.77027 0.114222 0
M  V30 7450 H 762.169 -2.92346 -0.402187 0
M  V30 7451 H 762.25 -2.24328 1.22926 0
M  V30 7452 H 761.894 -4.57935 2.19677 0
M  V30 7453 H 761.824 -5.23794 0.542939 0
M  V30 7454 H 764.315 -3.69575 0.788828 0
M  V30 7455 H 764.628 -7.40246 2.21936 0
M  V30 7456 H 762.973 -6.65923 1.98927 0
M  V30 7457 H 766.164 -4.55955 1.05935 0
M  V30 7458 H 766.337 -6.2499 1.71147 0
M  V30 7459 N 759.743 -0.201713 -1.56304 0
M  V30 7460 C 760.673 0.71155 -2.22394 0
M  V30 7461 C 761.654 1.21625 -1.18917 0
M  V30 7462 O 762.839 1.26388 -1.47444 0
M  V30 7463 C 759.969 1.92837 -2.88845 0
M  V30 7464 C 758.923 1.55831 -3.98623 0
M  V30 7465 C 758.249 2.85228 -4.52271 0
M  V30 7466 C 759.549 0.763249 -5.16693 0
M  V30 7467 H 761.243 0.160573 -2.98969 0
M  V30 7468 H 758.789 0.0757916 -1.438 0
M  V30 7469 H 760.742 2.57253 -3.33764 0
M  V30 7470 H 759.466 2.50398 -2.09686 0
M  V30 7471 H 758.125 0.9377 -3.54405 0
M  V30 7472 H 757.773 3.40893 -3.69866 0
M  V30 7473 H 757.473 2.6121 -5.26349 0
M  V30 7474 H 758.997 3.50622 -4.99897 0
M  V30 7475 H 760.411 1.31066 -5.58117 0
M  V30 7476 H 758.808 0.620935 -5.96879 0
M  V30 7477 H 759.878 -0.234322 -4.84334 0
M  V30 7478 N 761.222 1.57436 0.0718424 0
M  V30 7479 C 762.154 2.00412 1.1121 0
M  V30 7480 C 763.167 0.910074 1.34987 0
M  V30 7481 O 764.356 1.18796 1.33228 0
M  V30 7482 C 761.456 2.32786 2.46301 0
M  V30 7483 C 760.629 3.64036 2.4248 0
M  V30 7484 C 759.688 3.8408 3.59679 0
M  V30 7485 O 758.714 4.55667 3.4111 0
M  V30 7486 N 759.916 3.2643 4.80025 0
M  V30 7487 H 762.681 2.90264 0.746118 0
M  V30 7488 H 760.242 1.59791 0.260495 0
M  V30 7489 H 762.234 2.43368 3.23348 0
M  V30 7490 H 760.804 1.48824 2.74901 0
M  V30 7491 H 760.024 3.64208 1.50818 0
M  V30 7492 H 761.312 4.50217 2.37027 0
M  V30 7493 H 760.71 2.68325 4.98014 0
M  V30 7494 H 759.267 3.42461 5.54584 0
M  V30 7495 N 762.7 -0.34323 1.53817 0
M  V30 7496 C 763.925 -1.1079 1.75329 0
M  V30 7497 C 764.35 -1.81571 0.491293 0
M  V30 7498 O 763.708 -1.72561 -0.556089 0
M  V30 7499 C 763.756 -2.09681 2.9337 0
M  V30 7500 O 762.86 -3.17207 2.63541 0
M  V30 7501 H 762.201 -0.320402 0.581583 0
M  V30 7502 H 764.731 -0.393525 2.0078 0
M  V30 7503 H 764.741 -2.52897 3.20168 0
M  V30 7504 H 763.416 -1.5756 3.84899 0
M  V30 7505 H 761.993 -2.78806 2.47632 0
M  V30 7506 N 764.178 -1.45556 -0.604258 0
M  V30 7507 C 765.141 -1.54091 -1.69672 0
M  V30 7508 C 766.141 -0.420076 -1.55216 0
M  V30 7509 O 767.331 -0.683671 -1.60224 0
M  V30 7510 C 764.463 -1.44063 -3.08964 0
M  V30 7511 H 765.656 -2.51431 -1.6347 0
M  V30 7512 H 763.209 -1.33046 -0.820273 0
M  V30 7513 H 763.944 -0.479201 -3.2074 0
M  V30 7514 H 763.729 -2.25362 -3.20865 0
M  V30 7515 H 765.219 -1.53075 -3.88533 0
M  V30 7516 N 765.656 0.84705 -1.32902 0
M  V30 7517 C 766.604 1.97765 -1.22441 0
M  V30 7518 C 767.598 1.68919 -0.127546 0
M  V30 7519 O 768.804 1.77633 -0.290973 0
M  V30 7520 H 765.179 0.649072 -0.379748 0
M  V30 7521 H 767.15 2.03713 -2.18044 0
M  V30 7522 C 765.899 3.33834 -0.972125 0
M  V30 7523 H 765.222 3.56564 -1.80837 0
M  V30 7524 H 766.662 4.13467 -0.939209 0
M  V30 7525 C 765.121 3.35328 0.325059 0
M  V30 7526 O 765.651 3.78887 1.33445 0
M  V30 7527 N 763.857 2.88488 0.349718 0
M  V30 7528 H 763.404 2.53234 -0.472236 0
M  V30 7529 H 763.362 2.8987 1.21748 0
M  V30 7530 N 767.134 1.16236 1.06428 0
M  V30 7531 C 768.359 0.967688 1.83441 0
M  V30 7532 C 768.784 -0.479167 1.81894 0
M  V30 7533 O 768.142 -1.34224 1.21875 0
M  V30 7534 C 768.19 1.49806 3.2801 0
M  V30 7535 O 767.294 0.703481 4.06356 0
M  V30 7536 H 766.635 0.344468 0.56766 0
M  V30 7537 H 769.165 1.54442 1.34197 0
M  V30 7538 H 769.175 1.51495 3.78831 0
M  V30 7539 H 767.85 2.55133 3.2845 0
M  V30 7540 H 766.427 0.756986 3.65136 0
M  V30 7541 N 768.612 -1.24939 0.960631 0
M  V30 7542 C 769.56 -2.27659 0.47686 0
M  V30 7543 C 770.554 -1.63148 -0.455961 0
M  V30 7544 O 771.76 -1.76911 -0.332029 0
M  V30 7545 H 768.135 -0.739651 0.135723 0
M  V30 7546 H 770.106 -2.65844 1.35534 0
M  V30 7547 C 768.855 -3.46976 -0.224191 0
M  V30 7548 H 768.178 -3.96854 0.484471 0
M  V30 7549 H 769.618 -4.20717 -0.526615 0
M  V30 7550 C 768.077 -3.04159 -1.44876 0
M  V30 7551 O 768.607 -3.10697 -2.54618 0
M  V30 7552 N 766.813 -2.59284 -1.31226 0
M  V30 7553 H 766.36 -2.54164 -0.419361 0
M  V30 7554 H 766.318 -2.31 -2.13275 0
M  V30 7555 N 770.09 -0.729906 -1.39679 0
M  V30 7556 C 771.315 -0.284345 -2.05442 0
M  V30 7557 C 771.74 1.07056 -1.54663 0
M  V30 7558 O 771.098 1.67732 -0.688157 0
M  V30 7559 C 771.146 -0.290089 -3.59431 0
M  V30 7560 O 770.25 0.723978 -4.05995 0
M  V30 7561 H 769.591 -0.130311 -0.651088 0
M  V30 7562 H 772.121 -0.994403 -1.78809 0
M  V30 7563 H 772.131 -0.132712 -4.07784 0
M  V30 7564 H 770.806 -1.27877 -3.95753 0
M  V30 7565 H 769.383 0.533154 -3.69069 0
M  V30 7566 N 771.568 1.50203 -0.477153 0
M  V30 7567 C 772.498 2.31517 0.303646 0
M  V30 7568 C 773.479 1.38696 0.984753 0
M  V30 7569 O 774.664 1.67615 0.980758 0
M  V30 7570 C 771.794 3.18598 1.38249 0
M  V30 7571 C 770.748 4.2002 0.822645 0
M  V30 7572 C 770.074 4.95878 2.00024 0
M  V30 7573 C 771.374 5.22023 -0.170185 0
M  V30 7574 H 773.068 2.97042 -0.375027 0
M  V30 7575 H 770.614 1.42848 -0.181802 0
M  V30 7576 H 772.567 3.74282 1.93625 0
M  V30 7577 H 771.291 2.5097 2.09002 0
M  V30 7578 H 769.95 3.65445 0.290813 0
M  V30 7579 H 769.598 4.24717 2.69489 0
M  V30 7580 H 769.298 5.64487 1.63183 0
M  V30 7581 H 770.822 5.54399 2.55878 0
M  V30 7582 H 772.236 5.72543 0.294606 0
M  V30 7583 H 770.633 5.98386 -0.453181 0
M  V30 7584 H 771.703 4.72396 -1.09408 0
M  V30 7585 N 773.046 0.209999 1.56195 0
M  V30 7586 C 774.294 -0.423974 1.97603 0
M  V30 7587 C 774.615 -1.61112 1.09854 0
M  V30 7588 O 773.885 -1.95134 0.173032 0
M  V30 7589 H 772.465 -0.159629 0.729745 0
M  V30 7590 H 775.127 0.300205 1.92574 0
M  V30 7591 H 774.223 -0.75809 3.02753 0
M  V30 7592 N 774.524 -1.57472 -0.0634922 0
M  V30 7593 C 775.771 -1.87654 -0.761066 0
M  V30 7594 C 776.099 -0.802847 -1.77157 0
M  V30 7595 O 775.354 0.200244 -1.94673 0
M  V30 7596 C 775.653 -3.24521 -1.49736 0
M  V30 7597 C 775.319 -4.46532 -0.626065 0
M  V30 7598 C 773.981 -4.7965 -0.385978 0
M  V30 7599 C 776.333 -5.21195 -0.0224001 0
M  V30 7600 C 773.661 -5.84837 0.467118 0
M  V30 7601 C 776.013 -6.27286 0.818198 0
M  V30 7602 C 774.677 -6.58899 1.06808 0
M  V30 7603 H 773.947 -0.686675 -0.278494 0
M  V30 7604 H 776.594 -1.91488 -0.0216348 0
M  V30 7605 H 774.899 -3.16516 -2.30921 0
M  V30 7606 H 776.596 -3.45111 -2.04204 0
M  V30 7607 H 773.186 -4.20618 -0.823325 0
M  V30 7608 H 777.37 -4.95917 -0.194985 0
M  V30 7609 H 772.626 -6.07725 0.669375 0
M  V30 7610 H 776.8 -6.84298 1.29265 0
M  V30 7611 H 774.427 -7.40233 1.73088 0
M  V30 7612 N 776.003 0.335068 -1.53997 0
M  V30 7613 C 777.414 0.910191 -1.6301 0
M  V30 7614 C 777.765 1.89271 -0.516809 0
M  V30 7615 O 776.89 2.13516 0.352123 0
M  V30 7616 C 777.485 1.65761 -2.9548 0
M  V30 7617 C 776.044 2.18163 -3.06728 0
M  V30 7618 C 775.191 1.00338 -2.5851 0
M  V30 7619 H 778.142 0.112965 -1.58297 0
M  V30 7620 H 778.163 2.52107 -2.84995 0
M  V30 7621 H 777.675 0.94227 -3.76488 0
M  V30 7622 H 775.776 2.92847 -2.30372 0
M  V30 7623 H 775.889 2.43952 -4.1234 0
M  V30 7624 H 774.253 1.37925 -2.14124 0
M  V30 7625 H 775.036 0.30254 -3.41964 0
M  V30 7626 N 777.481 1.45874 0.596531 0
M  V30 7627 C 778.444 1.54988 1.68853 0
M  V30 7628 C 779.444 0.428302 1.54991 0
M  V30 7629 O 780.634 0.692158 1.59859 0
M  V30 7630 C 777.766 1.457 3.08195 0
M  V30 7631 H 778.959 2.52294 1.62135 0
M  V30 7632 H 776.512 1.33479 0.813206 0
M  V30 7633 H 777.247 0.496204 3.20481 0
M  V30 7634 H 777.032 2.27061 3.19665 0
M  V30 7635 H 778.522 1.55133 3.87716 0
M  V30 7636 N 778.959 -0.83999 1.33349 0
M  V30 7637 C 779.922 -1.93128 1.23426 0
M  V30 7638 C 780.922 -1.60065 0.153599 0
M  V30 7639 O 782.112 -1.69425 0.405049 0
M  V30 7640 C 779.244 -3.28761 0.901622 0
M  V30 7641 H 780.437 -2.03352 2.20427 0
M  V30 7642 H 777.99 -1.03194 1.17391 0
M  V30 7643 H 778.725 -3.24233 -0.0659337 0
M  V30 7644 H 778.51 -3.54138 1.68311 0
M  V30 7645 H 780 -4.08714 0.856913 0
M  V30 7646 N 780.437 -1.16799 -1.0581 0
M  V30 7647 C 781.662 -0.977402 -1.82925 0
M  V30 7648 C 782.087 0.469514 -1.82146 0
M  V30 7649 O 781.445 1.33576 -1.22585 0
M  V30 7650 C 781.493 -1.51543 -3.27211 0
M  V30 7651 O 780.597 -0.725021 -4.05977 0
M  V30 7652 H 779.938 -0.347474 -0.565825 0
M  V30 7653 H 782.468 -1.55151 -1.33376 0
M  V30 7654 H 782.478 -1.53502 -3.78023 0
M  V30 7655 H 781.153 -2.56872 -3.27093 0
M  V30 7656 H 779.73 -0.77634 -3.64729 0
M  V30 7657 N 781.915 1.24427 -0.967243 0
M  V30 7658 C 783.162 1.92487 -0.62888 0
M  V30 7659 C 783.49 1.75623 0.835871 0
M  V30 7660 O 782.745 1.1027 1.61675 0
M  V30 7661 C 783.044 3.44568 -0.949096 0
M  V30 7662 C 782.71 3.816 -2.40192 0
M  V30 7663 C 781.372 3.9142 -2.799 0
M  V30 7664 C 783.724 3.99715 -3.34481 0
M  V30 7665 C 781.052 4.16771 -4.12939 0
M  V30 7666 C 783.404 4.26562 -4.67148 0
M  V30 7667 C 782.068 4.34601 -5.06634 0
M  V30 7668 H 781.338 0.704361 -0.230124 0
M  V30 7669 H 783.985 1.4772 -1.21864 0
M  V30 7670 H 782.29 3.90819 -0.277085 0
M  V30 7671 H 783.987 3.95436 -0.665692 0
M  V30 7672 H 780.577 3.74522 -2.08402 0
M  V30 7673 H 784.761 3.91531 -3.04987 0
M  V30 7674 H 780.017 4.21214 -4.43158 0
M  V30 7675 H 784.191 4.39523 -5.40178 0
M  V30 7676 H 781.818 4.53998 -6.09746 0
M  V30 7677 N 783.393 0.737304 1.3929 0
M  V30 7678 C 784.623 0.296143 2.04467 0
M  V30 7679 C 785.031 -1.0748 1.55707 0
M  V30 7680 O 784.374 -1.69082 0.718123 0
M  V30 7681 C 784.436 0.222161 3.58813 0
M  V30 7682 C 784.1 1.53195 4.30558 0
M  V30 7683 C 785.097 2.47809 4.57041 0
M  V30 7684 C 782.782 1.79688 4.6906 0
M  V30 7685 C 784.776 3.67147 5.21039 0
M  V30 7686 C 782.463 2.99304 5.32785 0
M  V30 7687 C 783.461 3.92855 5.58708 0
M  V30 7688 O 783.149 5.1037 6.2111 0
M  V30 7689 H 782.881 0.126896 0.663983 0
M  V30 7690 H 785.435 1.00242 1.79278 0
M  V30 7691 H 783.665 -0.540239 3.82908 0
M  V30 7692 H 785.354 -0.187311 4.05468 0
M  V30 7693 H 786.12 2.28611 4.2774 0
M  V30 7694 H 781.999 1.07716 4.48239 0
M  V30 7695 H 785.543 4.40183 5.41188 0
M  V30 7696 H 781.44 3.18401 5.61508 0
M  V30 7697 H 782.208 5.10735 6.39603 0
M  V30 7698 N 784.871 -1.49948 0.485112 0
M  V30 7699 C 786.096 -2.073 -0.0645059 0
M  V30 7700 C 786.521 -1.345 -1.31497 0
M  V30 7701 O 785.879 -0.39687 -1.76903 0
M  V30 7702 C 785.927 -3.59201 -0.317304 0
M  V30 7703 O 785.031 -3.88085 -1.39514 0
M  V30 7704 H 784.372 -0.663723 0.0191822 0
M  V30 7705 H 786.902 -1.92963 0.680179 0
M  V30 7706 H 786.912 -4.04227 -0.553604 0
M  V30 7707 H 785.587 -4.11602 0.596387 0
M  V30 7708 H 784.164 -3.54885 -1.14504 0
M  V30 7709 N 786.349 -0.21828 -1.56081 0
M  V30 7710 C 787.312 0.679633 -2.18892 0
M  V30 7711 C 788.312 1.12405 -1.14986 0
M  V30 7712 O 789.502 1.03339 -1.40238 0
M  V30 7713 C 786.634 1.93063 -2.80962 0
M  V30 7714 H 787.827 0.132066 -2.99609 0
M  V30 7715 H 785.38 0.0313374 -1.56269 0
M  V30 7716 H 786.115 2.52015 -2.04106 0
M  V30 7717 H 785.9 1.62046 -3.57048 0
M  V30 7718 H 787.39 2.57043 -3.29118 0
M  V30 7719 N 787.827 1.57504 0.0551401 0
M  V30 7720 C 789.076 1.87237 0.750009 0
M  V30 7721 C 789.389 0.813268 1.77891 0
M  V30 7722 O 790.595 0.99898 2.52453 0
M  V30 7723 C 789.051 3.32187 1.38491 0
M  V30 7724 C 788.659 4.46267 0.393707 0
M  V30 7725 C 790.403 3.71101 2.06117 0
M  V30 7726 C 788.31 5.82265 1.03547 0
M  V30 7727 H 787.24 0.698524 0.283866 0
M  V30 7728 H 789.891 1.835 0.00365997 0
M  V30 7729 H 788.273 3.30588 2.18008 0
M  V30 7730 H 789.447 4.59289 -0.372865 0
M  V30 7731 H 787.762 4.16015 -0.17902 0
M  V30 7732 H 790.359 4.70012 2.54937 0
M  V30 7733 H 790.702 3.01751 2.86796 0
M  V30 7734 H 791.235 3.74762 1.33409 0
M  V30 7735 H 787.974 6.54949 0.268644 0
M  V30 7736 H 787.494 5.73012 1.7725 0
M  V30 7737 H 789.173 6.28148 1.55047 0
M  V30 7738 N 789.305 -0.326896 1.54172 0
M  V30 7739 C 790.53 -1.08924 1.76494 0
M  V30 7740 C 790.955 -1.81039 0.510523 0
M  V30 7741 O 790.313 -1.73141 -0.537756 0
M  V30 7742 C 790.361 -2.06558 2.95578 0
M  V30 7743 O 789.465 -3.14394 2.6689 0
M  V30 7744 H 788.806 -0.314216 0.584948 0
M  V30 7745 H 791.336 -0.372207 2.01186 0
M  V30 7746 H 791.346 -2.49487 3.22832 0
M  V30 7747 H 790.021 -1.53469 3.86549 0
M  V30 7748 H 788.598 -2.76164 2.50576 0
M  V30 7749 N 790.784 -1.46188 -0.588786 0
M  V30 7750 C 792.009 -1.5498 -1.37826 0
M  V30 7751 C 792.434 -0.189498 -1.87143 0
M  V30 7752 O 791.792 0.829293 -1.61222 0
M  V30 7753 C 791.84 -2.55369 -2.54596 0
M  V30 7754 O 790.944 -2.08452 -3.55839 0
M  V30 7755 H 790.285 -0.521741 -0.41071 0
M  V30 7756 H 792.815 -1.91708 -0.714779 0
M  V30 7757 H 792.825 -2.74782 -3.01594 0
M  V30 7758 H 791.5 -3.54155 -2.18052 0
M  V30 7759 H 790.077 -1.98999 -3.15363 0
M  V30 7760 N 792.262 0.832906 -1.33792 0
M  V30 7761 C 793.49 1.62048 -1.28639 0
M  V30 7762 C 793.905 1.88269 0.141522 0
M  V30 7763 O 793.262 1.46706 1.08553 0
M  V30 7764 C 793.313 2.96722 -2.0649 0
M  V30 7765 O 793.034 2.7165 -3.43712 0
M  V30 7766 C 794.535 3.91144 -2.08617 0
M  V30 7767 H 791.755 0.504032 -0.442937 0
M  V30 7768 H 794.299 1.03704 -1.76255 0
M  V30 7769 H 792.454 3.51652 -1.62541 0
M  V30 7770 H 792.868 3.57453 -3.83833 0
M  V30 7771 H 794.342 4.82837 -2.67531 0
M  V30 7772 H 794.819 4.25766 -1.07796 0
M  V30 7773 H 795.425 3.42152 -2.52611 0
M  V30 7774 N 793.74 1.17359 1.05189 0
M  V30 7775 C 795.151 0.96793 1.5965 0
M  V30 7776 C 795.502 -0.485355 1.90102 0
M  V30 7777 O 794.627 -1.36066 1.6827 0
M  V30 7778 C 795.222 1.75068 2.90063 0
M  V30 7779 C 793.781 1.58969 3.41183 0
M  V30 7780 C 792.928 1.75231 2.14917 0
M  V30 7781 H 795.879 1.32067 0.880001 0
M  V30 7782 H 795.9 1.23308 3.59966 0
M  V30 7783 H 795.412 2.80835 2.67868 0
M  V30 7784 H 793.513 0.556906 3.68415 0
M  V30 7785 H 793.626 2.38067 4.15766 0
M  V30 7786 H 791.99 1.18073 2.25679 0
M  V30 7787 H 792.773 2.8241 1.95191 0
M  V30 7788 N 795.218 -1.23913 0.973828 0
M  V30 7789 C 796.443 -1.96735 0.656511 0
M  V30 7790 C 796.868 -1.71682 -0.768571 0
M  V30 7791 O 796.226 -0.984267 -1.52256 0
M  V30 7792 C 796.274 -3.48004 0.944735 0
M  V30 7793 O 795.378 -4.12387 0.0333357 0
M  V30 7794 H 794.719 -0.616119 0.247575 0
M  V30 7795 H 797.249 -1.57525 1.30564 0
M  V30 7796 H 797.259 -3.98424 0.87876 0
M  V30 7797 H 795.934 -3.65567 1.98328 0
M  V30 7798 H 794.511 -3.72585 0.153157 0
M  V30 7799 N 796.696 -0.74468 -1.38897 0
M  V30 7800 C 797.626 -0.126355 -2.33158 0
M  V30 7801 C 798.607 0.713517 -1.54412 0
M  V30 7802 O 799.792 0.656523 -1.82766 0
M  V30 7803 C 796.922 0.774375 -3.38557 0
M  V30 7804 C 795.876 0.0379214 -4.27983 0
M  V30 7805 C 795.202 1.05631 -5.24162 0
M  V30 7806 C 796.502 -1.12523 -5.10035 0
M  V30 7807 H 798.196 -0.913744 -2.85116 0
M  V30 7808 H 795.742 -0.440847 -1.37086 0
M  V30 7809 H 797.695 1.21655 -4.03458 0
M  V30 7810 H 796.419 1.59399 -2.85061 0
M  V30 7811 H 795.078 -0.384733 -3.64576 0
M  V30 7812 H 794.726 1.86975 -4.66958 0
M  V30 7813 H 794.426 0.568261 -5.84846 0
M  V30 7814 H 795.95 1.49799 -5.9194 0
M  V30 7815 H 797.364 -0.761037 -5.68226 0
M  V30 7816 H 795.761 -1.54355 -5.79909 0
M  V30 7817 H 796.831 -1.94237 -4.44297 0
M  V30 7818 N 798.174 1.49689 -0.493057 0
M  V30 7819 C 799.42 2.02727 0.0543518 0
M  V30 7820 C 799.753 1.37264 1.37376 0
M  V30 7821 O 799.028 0.505644 1.87812 0
M  V30 7822 C 799.311 3.59456 0.215226 0
M  V30 7823 C 799.164 4.35459 -1.12675 0
M  V30 7824 C 800.483 4.29511 0.959586 0
M  V30 7825 H 797.602 0.736773 0.0182786 0
M  V30 7826 H 800.244 1.78792 -0.642924 0
M  V30 7827 H 798.394 3.79981 0.809122 0
M  V30 7828 H 800.066 4.2645 -1.75891 0
M  V30 7829 H 798.309 3.9833 -1.71801 0
M  V30 7830 H 798.98 5.43454 -0.967578 0
M  V30 7831 H 801.456 4.13594 0.455977 0
M  V30 7832 H 800.332 5.38939 1.04098 0
M  V30 7833 H 800.593 3.94202 2.00144 0
M  V30 7834 N 799.652 0.226554 1.55963 0
M  V30 7835 C 800.602 -0.694986 2.1715 0
M  V30 7836 C 801.586 -1.15394 1.12129 0
M  V30 7837 O 802.778 -1.1071 1.38102 0
M  V30 7838 C 799.907 -1.9007 2.85882 0
M  V30 7839 C 798.993 -1.46119 3.98133 0
M  V30 7840 N 799.384 -0.734584 5.00437 0
M  V30 7841 C 797.682 -1.74809 4.10314 0
M  V30 7842 C 798.383 -0.509773 5.79462 0
M  V30 7843 N 797.359 -1.06796 5.33006 0
M  V30 7844 H 801.161 -0.131469 2.93606 0
M  V30 7845 H 798.675 0.0280165 1.62376 0
M  V30 7846 H 800.672 -2.57169 3.28131 0
M  V30 7847 H 799.332 -2.46864 2.10923 0
M  V30 7848 H 800.343 -0.386757 5.16454 0
M  V30 7849 H 797.02 -2.32887 3.46511 0
M  V30 7850 H 798.41 0.0688847 6.71865 0
M  V30 7851 N 801.13 -1.57531 -0.0467866 0
M  V30 7852 C 802.407 -1.79568 -0.775536 0
M  V30 7853 C 802.787 -0.820322 -1.94509 0
M  V30 7854 O 802.135 0.14134 -2.28062 0
M  V30 7855 C 802.345 -3.26789 -1.22516 0
M  V30 7856 C 803.693 -3.91299 -1.64835 0
M  V30 7857 O 804.717 -3.30831 -1.3202 0
M  V30 7858 O 803.576 -4.97727 -2.25677 0
M  V30 7859 H 800.67 -0.737817 -0.373572 0
M  V30 7860 H 803.216 -1.69682 -0.0249302 0
M  V30 7861 H 801.988 -3.89357 -0.389446 0
M  V30 7862 H 801.611 -3.41496 -2.03633 0
M  V30 7863 N 802.608 0.318715 -1.54344 0
M  V30 7864 C 803.854 1.05765 -1.73037 0
M  V30 7865 C 804.187 1.87514 -0.505181 0
M  V30 7866 O 803.462 1.88021 0.497838 0
M  V30 7867 C 803.745 1.97836 -3.00887 0
M  V30 7868 C 803.598 1.19384 -4.33668 0
M  V30 7869 C 804.917 2.97285 -3.24514 0
M  V30 7870 H 802.036 0.383104 -0.629603 0
M  V30 7871 H 804.678 0.333864 -1.87044 0
M  V30 7872 H 802.828 2.59552 -2.89076 0
M  V30 7873 H 804.5 0.600906 -4.57369 0
M  V30 7874 H 802.743 0.496198 -4.30953 0
M  V30 7875 H 803.414 1.87014 -5.19355 0
M  V30 7876 H 805.89 2.45693 -3.35819 0
M  V30 7877 H 804.766 3.58887 -4.15321 0
M  V30 7878 H 805.027 3.70003 -2.41971 0
M  V30 7879 N 804.086 1.46499 0.581025 0
M  V30 7880 C 805.033 1.5719 1.68997 0
M  V30 7881 C 806.003 0.416114 1.60803 0
M  V30 7882 O 807.188 0.633086 1.79991 0
M  V30 7883 C 804.328 1.56973 3.07333 0
M  V30 7884 C 803.441 2.83298 3.26139 0
M  V30 7885 C 802.576 2.74574 4.54734 0
M  V30 7886 C 801.615 3.9583 4.66889 0
M  V30 7887 N 800.752 3.85482 5.86811 0
M  V30 7888 H 805.592 2.51914 1.59196 0
M  V30 7889 H 803.129 1.24975 0.775857 0
M  V30 7890 H 805.087 1.54832 3.87405 0
M  V30 7891 H 803.717 0.657803 3.16027 0
M  V30 7892 H 802.769 2.95411 2.3966 0
M  V30 7893 H 804.081 3.7316 3.30988 0
M  V30 7894 H 803.235 2.70548 5.43036 0
M  V30 7895 H 801.974 1.82354 4.52325 0
M  V30 7896 H 800.979 4.00186 3.77003 0
M  V30 7897 H 802.204 4.89148 4.71075 0
M  V30 7898 H 800.15 2.96051 5.85397 0
M  V30 7899 H 800.067 4.69002 5.92936 0
M  V30 7900 H 801.335 3.85434 6.7754 0
M  V30 7901 N 805.565 -0.825799 1.34232 0
M  V30 7902 C 806.79 -1.61883 1.29648 0
M  V30 7903 C 807.215 -1.87669 -0.127295 0
M  V30 7904 O 806.573 -1.45016 -1.08813 0
M  V30 7905 C 806.621 -2.93846 2.09014 0
M  V30 7906 O 805.725 -3.85778 1.4577 0
M  V30 7907 H 805.066 -0.492454 0.445405 0
M  V30 7908 H 807.596 -1.02641 1.76992 0
M  V30 7909 H 807.606 -3.43435 2.20264 0
M  V30 7910 H 806.281 -2.74401 3.12533 0
M  V30 7911 H 804.858 -3.4429 1.43245 0
M  V30 7912 N 807.043 -1.17915 -1.04565 0
M  V30 7913 C 808.291 -0.969505 -1.77327 0
M  V30 7914 C 808.612 0.502569 -1.88412 0
M  V30 7915 O 807.882 1.36467 -1.40547 0
M  V30 7916 H 806.462 -0.355723 -0.656864 0
M  V30 7917 H 809.124 -1.48506 -1.26223 0
M  V30 7918 H 808.22 -1.40324 -2.78775 0
M  V30 7919 N 808.521 1.23394 -0.980386 0
M  V30 7920 C 809.469 2.26872 -0.513018 0
M  V30 7921 C 810.463 1.63853 0.429948 0
M  V30 7922 O 811.669 1.77417 0.303842 0
M  V30 7923 H 808.044 0.737398 -0.147473 0
M  V30 7924 H 810.015 2.63654 -1.39746 0
M  V30 7925 C 808.764 3.47289 0.168962 0
M  V30 7926 H 808.087 3.96033 -0.547546 0
M  V30 7927 H 809.527 4.21502 0.459616 0
M  V30 7928 C 807.986 3.06425 1.40019 0
M  V30 7929 O 808.516 3.14708 2.49643 0
M  V30 7930 N 806.722 2.61339 1.27084 0
M  V30 7931 H 806.269 2.54799 0.378872 0
M  V30 7932 H 806.227 2.34364 2.09573 0
M  V30 7933 N 809.999 0.752036 1.385 0
M  V30 7934 C 810.947 0.112634 2.32327 0
M  V30 7935 C 811.941 -0.707037 1.53939 0
M  V30 7936 O 813.147 -0.606309 1.69481 0
M  V30 7937 H 809.522 0.0176275 0.751793 0
M  V30 7938 H 811.493 0.920074 2.83861 0
M  V30 7939 C 810.242 -0.767458 3.39124 0
M  V30 7940 H 809.565 -0.146122 3.99533 0
M  V30 7941 H 811.005 -1.18216 4.07187 0
M  V30 7942 C 809.464 -1.90938 2.77568 0
M  V30 7943 O 809.994 -3.00342 2.66754 0
M  V30 7944 N 808.2 -1.70396 2.35401 0
M  V30 7945 H 807.747 -0.81413 2.44397 0
M  V30 7946 H 807.705 -2.46972 1.94557 0
M  V30 7947 N 811.477 -1.49425 0.500989 0
M  V30 7948 C 812.725 -2.02053 -0.0434495 0
M  V30 7949 C 813.046 -1.38285 -1.37486 0
M  V30 7950 O 812.316 -0.538171 -1.88363 0
M  V30 7951 H 810.896 -0.746757 -0.0190469 0
M  V30 7952 H 813.558 -1.83449 0.658227 0
M  V30 7953 H 812.654 -3.11619 -0.173129 0
M  V30 7954 N 812.955 -0.234822 -1.55841 0
M  V30 7955 C 814.185 0.397168 -2.02746 0
M  V30 7956 C 814.593 1.52951 -1.11367 0
M  V30 7957 O 813.936 1.8332 -0.118133 0
M  V30 7958 C 813.998 0.977748 -3.45948 0
M  V30 7959 C 813.662 -0.0208193 -4.56995 0
M  V30 7960 C 814.659 -0.826015 -5.13296 0
M  V30 7961 C 812.344 -0.143416 -5.02095 0
M  V30 7962 C 814.338 -1.74038 -6.1318 0
M  V30 7963 C 812.025 -1.0613 -6.01814 0
M  V30 7964 C 813.023 -1.85832 -6.57233 0
M  V30 7965 O 812.711 -2.76075 -7.55008 0
M  V30 7966 H 812.443 0.0999802 -0.668566 0
M  V30 7967 H 814.997 -0.352673 -2.0235 0
M  V30 7968 H 813.227 1.77693 -3.43456 0
M  V30 7969 H 814.916 1.51854 -3.76424 0
M  V30 7970 H 815.682 -0.741822 -4.79293 0
M  V30 7971 H 811.561 0.466857 -4.5863 0
M  V30 7972 H 815.105 -2.36291 -6.56363 0
M  V30 7973 H 811.002 -1.14646 -6.35237 0
M  V30 7974 H 811.77 -2.703 -7.7258 0
M  V30 7975 N 814.433 1.57553 0.0384317 0
M  V30 7976 C 815.681 1.88468 0.729672 0
M  V30 7977 C 816.002 0.831302 1.76393 0
M  V30 7978 O 815.272 -0.13622 1.95426 0
M  V30 7979 H 813.852 0.695529 0.272485 0
M  V30 7980 H 816.514 1.94899 0.0066032 0
M  V30 7981 H 815.61 2.8705 1.22511 0
M  V30 7982 N 815.911 -0.310526 1.54511 0
M  V30 7983 C 817.159 -1.04484 1.72996 0
M  V30 7984 C 817.48 -1.88118 0.513479 0
M  V30 7985 O 816.75 -1.90119 -0.472384 0
M  V30 7986 H 815.33 -0.388747 0.637875 0
M  V30 7987 H 817.992 -0.343811 1.91844 0
M  V30 7988 H 817.088 -1.70341 2.61515 0
M  V30 7989 N 817.389 -1.46805 -0.573248 0
M  V30 7990 C 818.619 -1.55965 -1.35494 0
M  V30 7991 C 819.027 -0.203038 -1.88107 0
M  V30 7992 O 818.37 0.81138 -1.6481 0
M  V30 7993 C 818.432 -2.51168 -2.57206 0
M  V30 7994 C 818.096 -3.97211 -2.25993 0
M  V30 7995 C 819.093 -4.86155 -1.84254 0
M  V30 7996 C 816.778 -4.42419 -2.37846 0
M  V30 7997 C 818.772 -6.18323 -1.54776 0
M  V30 7998 C 816.459 -5.74619 -2.0798 0
M  V30 7999 C 817.457 -6.62392 -1.66511 0
M  V30 8000 O 817.145 -7.92137 -1.37016 0
M  V30 8001 H 816.877 -0.529748 -0.419932 0
M  V30 8002 H 819.431 -1.92998 -0.702914 0
M  V30 8003 H 817.661 -2.09171 -3.25245 0
M  V30 8004 H 819.35 -2.50631 -3.19279 0
M  V30 8005 H 820.116 -4.52481 -1.74603 0
M  V30 8006 H 815.995 -3.74319 -2.69085 0
M  V30 8007 H 819.539 -6.8679 -1.22334 0
M  V30 8008 H 815.436 -6.0784 -2.17258 0
M  V30 8009 H 816.204 -8.04492 -1.50782 0
M  V30 8010 N 818.867 0.818669 -1.34668 0
M  V30 8011 C 820.115 1.57201 -1.27013 0
M  V30 8012 C 820.436 1.94354 0.158599 0
M  V30 8013 O 819.706 1.62626 1.09223 0
M  V30 8014 H 818.286 0.582919 -0.467135 0
M  V30 8015 H 820.948 0.977234 -1.6863 0
M  V30 8016 H 820.044 2.49291 -1.87778 0
M  V30 8017 N 820.346 1.18468 1.03938 0
M  V30 8018 C 821.576 1.0043 1.80547 0
M  V30 8019 C 821.984 -0.450407 1.83761 0
M  V30 8020 O 821.327 -1.32463 1.27276 0
M  V30 8021 C 821.389 1.48437 3.27424 0
M  V30 8022 C 821.053 2.96372 3.47869 0
M  V30 8023 C 822.05 3.94217 3.38953 0
M  V30 8024 C 819.735 3.34831 3.74424 0
M  V30 8025 C 821.729 5.28517 3.56298 0
M  V30 8026 C 819.416 4.69294 3.91416 0
M  V30 8027 C 820.414 5.65946 3.82354 0
M  V30 8028 O 820.102 6.97974 3.98858 0
M  V30 8029 H 819.834 0.354853 0.575374 0
M  V30 8030 H 822.388 1.57473 1.31876 0
M  V30 8031 H 820.618 0.857601 3.7707 0
M  V30 8032 H 822.307 1.2677 3.85596 0
M  V30 8033 H 823.073 3.6585 3.184 0
M  V30 8034 H 818.952 2.60161 3.80575 0
M  V30 8035 H 822.496 6.03943 3.49141 0
M  V30 8036 H 818.393 4.97361 4.11463 0
M  V30 8037 H 819.161 7.04895 4.1601 0
M  V30 8038 N 821.824 -1.22873 0.986916 0
M  V30 8039 C 822.772 -2.26597 0.525043 0
M  V30 8040 C 823.766 -1.64079 -0.421252 0
M  V30 8041 O 824.972 -1.77576 -0.294429 0
M  V30 8042 H 821.347 -0.736606 0.151381 0
M  V30 8043 H 823.318 -2.62909 1.41142 0
M  V30 8044 C 822.067 -3.47374 -0.150542 0
M  V30 8045 H 821.39 -3.95737 0.568541 0
M  V30 8046 H 822.83 -4.21739 -0.437256 0
M  V30 8047 C 821.289 -3.07163 -1.38392 0
M  V30 8048 O 821.819 -3.16028 -2.47971 0
M  V30 8049 N 820.025 -2.62009 -1.25697 0
M  V30 8050 H 819.572 -2.54996 -0.365355 0
M  V30 8051 H 819.53 -2.35472 -2.08327 0
M  V30 8052 N 823.302 -0.75937 -1.38099 0
M  V30 8053 C 824.265 -0.14372 -2.28749 0
M  V30 8054 C 825.265 0.641338 -1.47457 0
M  V30 8055 O 826.455 0.466751 -1.67831 0
M  V30 8056 C 823.587 0.804545 -3.3127 0
M  V30 8057 H 824.78 -0.942663 -2.847 0
M  V30 8058 H 822.333 -0.526757 -1.47156 0
M  V30 8059 H 823.068 1.62895 -2.80421 0
M  V30 8060 H 822.853 0.243939 -3.9134 0
M  V30 8061 H 824.343 1.23111 -3.99041 0
M  V30 8062 N 824.78 1.49157 -0.508906 0
M  V30 8063 C 826.028 2.02073 0.0327335 0
M  V30 8064 C 826.349 1.39012 1.3675 0
M  V30 8065 O 825.619 0.548153 1.88075 0
M  V30 8066 H 824.199 0.746848 0.0150864 0
M  V30 8067 H 826.861 1.83097 -0.667946 0
M  V30 8068 H 825.957 3.11707 0.1566 0
M  V30 8069 N 826.258 0.243083 1.55714 0
M  V30 8070 C 827.486 -0.386971 2.03249 0
M  V30 8071 C 827.901 -1.51812 1.12243 0
M  V30 8072 O 827.258 -1.81992 0.136119 0
M  V30 8073 C 827.309 -0.898361 3.5016 0
M  V30 8074 O 827.03 0.187708 4.37698 0
M  V30 8075 C 828.531 -1.59949 4.13438 0
M  V30 8076 H 825.751 -0.0923981 0.664608 0
M  V30 8077 H 828.295 0.365832 2.01201 0
M  V30 8078 H 826.45 -1.60136 3.52754 0
M  V30 8079 H 826.864 -0.200001 5.24119 0
M  V30 8080 H 828.338 -1.90907 5.17937 0
M  V30 8081 H 828.815 -2.52014 3.59702 0
M  V30 8082 H 829.421 -0.941163 4.14756 0
M  V30 8083 N 827.736 -1.57571 -0.0300757 0
M  V30 8084 C 828.984 -1.88852 -0.719666 0
M  V30 8085 C 829.305 -0.840645 -1.75949 0
M  V30 8086 O 828.575 0.125854 -1.95495 0
M  V30 8087 H 827.155 -0.696965 -0.268792 0
M  V30 8088 H 829.817 -1.949 0.00373285 0
M  V30 8089 H 828.913 -2.87695 -1.20987 0
M  V30 8090 N 829.214 0.302327 -1.54673 0
M  V30 8091 C 830.46 1.03532 -1.75079 0
M  V30 8092 C 830.815 1.84972 -0.52943 0
M  V30 8093 O 830.108 1.85537 0.478169 0
M  V30 8094 C 830.302 1.97365 -2.97963 0
M  V30 8095 C 830.131 1.25154 -4.31934 0
M  V30 8096 C 828.901 0.979243 -4.95721 0
M  V30 8097 C 831.099 0.656653 -5.10091 0
M  V30 8098 N 829.081 0.227265 -6.13479 0
M  V30 8099 C 830.452 0.0373759 -6.19989 0
M  V30 8100 C 832.507 0.561571 -4.94723 0
M  V30 8101 C 831.21 -0.667782 -7.16194 0
M  V30 8102 C 833.236 -0.12993 -5.91257 0
M  V30 8103 C 832.598 -0.738063 -7.00523 0
M  V30 8104 H 828.697 0.361824 -0.693258 0
M  V30 8105 H 831.281 0.314091 -1.9215 0
M  V30 8106 H 829.452 2.66739 -2.8232 0
M  V30 8107 H 831.184 2.63806 -3.06902 0
M  V30 8108 H 827.939 1.27706 -4.56057 0
M  V30 8109 H 828.363 -0.135199 -6.76865 0
M  V30 8110 H 833.005 1.01744 -4.10375 0
M  V30 8111 H 830.723 -1.13542 -8.00084 0
M  V30 8112 H 834.309 -0.203423 -5.81444 0
M  V30 8113 H 833.189 -1.26463 -7.73936 0
M  V30 8114 N 830.692 1.47107 0.565454 0
M  V30 8115 C 831.969 1.43787 1.32607 0
M  V30 8116 C 832.349 0.130428 2.10697 0
M  V30 8117 O 831.697 -0.888086 2.10536 0
M  V30 8118 C 831.907 2.67833 2.23755 0
M  V30 8119 C 833.255 3.14704 2.85037 0
M  V30 8120 O 834.279 2.68503 2.34061 0
M  V30 8121 O 833.138 3.95002 3.77671 0
M  V30 8122 H 830.232 0.572623 0.596684 0
M  V30 8123 H 832.778 1.59296 0.58504 0
M  V30 8124 H 831.55 3.54532 1.65597 0
M  V30 8125 H 831.173 2.54869 3.05168 0
M  V30 8126 N 832.17 -0.811516 1.35101 0
M  V30 8127 C 833.4 -1.59749 1.31011 0
M  V30 8128 C 833.808 -1.88847 -0.115566 0
M  V30 8129 O 833.151 -1.48854 -1.07649 0
M  V30 8130 C 833.213 -2.95714 2.04435 0
M  V30 8131 C 832.877 -2.89456 3.53645 0
M  V30 8132 C 833.874 -2.63237 4.48333 0
M  V30 8133 C 831.559 -3.08728 3.96222 0
M  V30 8134 C 833.553 -2.56361 5.83573 0
M  V30 8135 C 831.24 -3.01475 5.3156 0
M  V30 8136 C 832.238 -2.75326 6.25048 0
M  V30 8137 O 831.926 -2.68026 7.57903 0
M  V30 8138 H 831.658 -0.502889 0.45175 0
M  V30 8139 H 834.212 -1.01687 1.78462 0
M  V30 8140 H 832.442 -3.55739 1.51613 0
M  V30 8141 H 834.131 -3.56816 1.93487 0
M  V30 8142 H 834.897 -2.48072 4.16756 0
M  V30 8143 H 830.776 -3.28094 3.23845 0
M  V30 8144 H 834.32 -2.35871 6.56514 0
M  V30 8145 H 830.217 -3.16197 5.62752 0
M  V30 8146 H 830.985 -2.8367 7.67772 0
M  V30 8147 N 833.648 -1.19017 -1.03309 0
M  V30 8148 C 835.059 -0.993206 -1.5809 0
M  V30 8149 C 835.41 0.45505 -1.9085 0
M  V30 8150 O 834.535 1.33372 -1.70414 0
M  V30 8151 C 835.13 -1.79661 -2.87241 0
M  V30 8152 C 833.689 -1.64377 -3.38611 0
M  V30 8153 C 832.836 -1.78628 -2.12102 0
M  V30 8154 H 835.787 -1.3345 -0.858879 0
M  V30 8155 H 835.808 -1.29019 -3.57958 0
M  V30 8156 H 835.32 -2.85061 -2.63366 0
M  V30 8157 H 833.421 -0.615447 -3.67482 0
M  V30 8158 H 833.534 -2.44651 -4.11926 0
M  V30 8159 H 831.898 -1.21648 -2.23772 0
M  V30 8160 H 832.681 -2.8548 -1.90673 0
M  V30 8161 N 835.127 1.22348 -0.993418 0
M  V30 8162 C 836.355 1.95125 -0.688021 0
M  V30 8163 C 836.77 1.73377 0.747388 0
M  V30 8164 O 836.127 1.03317 1.50439 0
M  V30 8165 C 836.178 3.47819 -0.985097 0
M  V30 8166 O 835.899 3.68838 -2.3641 0
M  V30 8167 C 837.4 4.37779 -0.697474 0
M  V30 8168 H 834.62 0.62087 -0.254481 0
M  V30 8169 H 837.164 1.55485 -1.32833 0
M  V30 8170 H 835.319 3.85426 -0.390583 0
M  V30 8171 H 835.733 4.63032 -2.46377 0
M  V30 8172 H 837.207 5.43666 -0.955604 0
M  V30 8173 H 837.684 4.37651 0.368524 0
M  V30 8174 H 838.29 4.05799 -1.27306 0
M  V30 8175 N 836.605 0.766683 1.37694 0
M  V30 8176 C 837.853 0.328065 1.9942 0
M  V30 8177 C 838.174 -1.09775 1.61166 0
M  V30 8178 O 837.444 -1.75288 0.874686 0
M  V30 8179 H 836.024 0.11831 0.737572 0
M  V30 8180 H 838.686 0.983686 1.68255 0
M  V30 8181 H 837.782 0.401647 3.09505 0
M  V30 8182 N 838.083 -1.48885 0.516809 0
M  V30 8183 C 839.329 -2.03395 -0.0140225 0
M  V30 8184 C 839.684 -1.38808 -1.33229 0
M  V30 8185 O 838.977 -0.520104 -1.84406 0
M  V30 8186 C 839.171 -3.56801 -0.206798 0
M  V30 8187 C 839 -4.36259 1.09124 0
M  V30 8188 C 837.77 -4.77689 1.64745 0
M  V30 8189 C 839.968 -4.73881 1.99854 0
M  V30 8190 N 837.95 -5.41634 2.88975 0
M  V30 8191 C 839.321 -5.37707 3.08661 0
M  V30 8192 C 841.376 -4.55816 2.00341 0
M  V30 8193 C 840.079 -5.85379 4.18001 0
M  V30 8194 C 842.105 -5.04459 3.08666 0
M  V30 8195 C 841.467 -5.68299 4.16191 0
M  V30 8196 H 837.566 -0.781169 0.036042 0
M  V30 8197 H 840.15 -1.81867 0.695173 0
M  V30 8198 H 838.321 -3.78181 -0.885064 0
M  V30 8199 H 840.053 -3.9795 -0.736053 0
M  V30 8200 H 836.808 -4.58392 1.19054 0
M  V30 8201 H 837.232 -5.78181 3.52187 0
M  V30 8202 H 841.874 -4.05851 1.18511 0
M  V30 8203 H 839.592 -6.34356 5.00618 0
M  V30 8204 H 843.178 -4.92281 3.10082 0
M  V30 8205 H 842.058 -6.05257 4.98631 0
M  V30 8206 N 839.561 -0.251338 -1.55583 0
M  V30 8207 C 840.809 0.371434 -1.98657 0
M  V30 8208 C 841.13 1.58143 -1.14087 0
M  V30 8209 O 840.4 1.94607 -0.224708 0
M  V30 8210 H 838.98 0.140225 -0.733721 0
M  V30 8211 H 841.642 -0.351157 -1.9171 0
M  V30 8212 H 840.738 0.677554 -3.04657 0
M  V30 8213 N 841.039 1.57585 0.0217189 0
M  V30 8214 C 842.264 1.94267 0.726309 0
M  V30 8215 C 842.689 0.851904 1.67703 0
M  V30 8216 O 842.047 -0.191792 1.80283 0
M  V30 8217 C 842.095 3.30023 1.45318 0
M  V30 8218 O 841.199 3.22791 2.5667 0
M  V30 8219 H 840.54 0.634777 0.194818 0
M  V30 8220 H 843.07 2.04585 -0.0249985 0
M  V30 8221 H 843.08 3.65084 1.82147 0
M  V30 8222 H 841.755 4.08972 0.755962 0
M  V30 8223 H 840.332 2.99373 2.2233 0
M  V30 8224 N 842.517 -0.29412 1.54831 0
M  V30 8225 C 843.447 -1.36757 1.89261 0
M  V30 8226 C 844.428 -1.52564 0.752214 0
M  V30 8227 O 845.613 -1.65958 1.00855 0
M  V30 8228 C 842.743 -2.73066 2.14597 0
M  V30 8229 C 841.697 -2.72017 3.3044 0
M  V30 8230 C 841.023 -4.11679 3.4121 0
M  V30 8231 C 842.323 -2.33149 4.67375 0
M  V30 8232 H 844.017 -1.08191 2.79169 0
M  V30 8233 H 841.563 -0.519014 1.34321 0
M  V30 8234 H 843.516 -3.48255 2.37269 0
M  V30 8235 H 842.24 -3.03172 1.21467 0
M  V30 8236 H 840.899 -1.99285 3.07703 0
M  V30 8237 H 840.547 -4.38973 2.45584 0
M  V30 8238 H 840.247 -4.11877 4.19084 0
M  V30 8239 H 841.771 -4.88637 3.6615 0
M  V30 8240 H 843.185 -2.98054 4.89731 0
M  V30 8241 H 841.582 -2.44546 5.48012 0
M  V30 8242 H 842.652 -1.28275 4.67626 0
M  V30 8243 N 843.995 -1.47404 -0.557645 0
M  V30 8244 C 845.272 -1.44488 -1.31843 0
M  V30 8245 C 845.652 -0.1416 -2.10625 0
M  V30 8246 O 845 0.876908 -2.11004 0
M  V30 8247 C 845.21 -2.69016 -2.22331 0
M  V30 8248 C 846.558 -3.16212 -2.83364 0
M  V30 8249 O 847.582 -2.69741 -2.32634 0
M  V30 8250 O 846.441 -3.96999 -3.75571 0
M  V30 8251 H 843.535 -0.57578 -0.593639 0
M  V30 8252 H 846.081 -1.59605 -0.576584 0
M  V30 8253 H 844.853 -3.55406 -1.63715 0
M  V30 8254 H 844.476 -2.56484 -3.03812 0
M  V30 8255 N 845.473 0.80434 -1.35529 0
M  V30 8256 C 846.722 1.55665 -1.28263 0
M  V30 8257 C 847.035 1.95096 0.140352 0
M  V30 8258 O 848.241 2.69422 0.335303 0
M  V30 8259 C 846.697 2.80935 -2.24952 0
M  V30 8260 C 846.305 2.48733 -3.72607 0
M  V30 8261 C 848.049 3.5894 -2.26632 0
M  V30 8262 C 845.956 3.70308 -4.61114 0
M  V30 8263 H 844.886 0.584301 -0.476559 0
M  V30 8264 H 847.537 0.88395 -1.60806 0
M  V30 8265 H 845.919 3.49927 -1.85383 0
M  V30 8266 H 847.093 1.87733 -4.20824 0
M  V30 8267 H 845.408 1.83969 -3.73557 0
M  V30 8268 H 848.005 4.49244 -2.89973 0
M  V30 8269 H 848.348 3.96433 -1.27069 0
M  V30 8270 H 848.881 2.96912 -2.64742 0
M  V30 8271 H 845.62 3.37922 -5.61684 0
M  V30 8272 H 845.14 4.30526 -4.17621 0
M  V30 8273 H 846.819 4.37511 -4.76648 0
M  V30 8274 N 846.951 1.19563 1.02676 0
M  V30 8275 C 847.914 0.937182 2.09164 0
M  V30 8276 C 848.914 -0.0831927 1.60585 0
M  V30 8277 O 850.104 0.15178 1.73538 0
M  V30 8278 C 847.236 0.408912 3.38439 0
M  V30 8279 H 848.429 1.88164 2.33526 0
M  V30 8280 H 845.982 1.00959 1.19319 0
M  V30 8281 H 846.717 -0.541497 3.19747 0
M  V30 8282 H 846.502 1.14464 3.7502 0
M  V30 8283 H 847.992 0.247242 4.16867 0
M  V30 8284 N 848.429 -1.21819 0.999893 0
M  V30 8285 C 849.376 -2.24003 0.556005 0
M  V30 8286 C 850.346 -1.60825 -0.415287 0
M  V30 8287 O 851.531 -1.88123 -0.318481 0
M  V30 8288 C 848.671 -3.44904 -0.116289 0
M  V30 8289 C 847.784 -4.22573 0.897574 0
M  V30 8290 C 846.919 -5.30831 0.198073 0
M  V30 8291 C 845.958 -6.00225 1.19983 0
M  V30 8292 N 845.095 -7.00111 0.528157 0
M  V30 8293 H 849.935 -2.61334 1.43208 0
M  V30 8294 H 847.472 -1.28431 0.717205 0
M  V30 8295 H 849.43 -4.13908 -0.523055 0
M  V30 8296 H 848.06 -3.08315 -0.956108 0
M  V30 8297 H 847.112 -3.52797 1.42262 0
M  V30 8298 H 848.424 -4.70363 1.66013 0
M  V30 8299 H 847.578 -6.06121 -0.265065 0
M  V30 8300 H 846.317 -4.84033 -0.596924 0
M  V30 8301 H 845.322 -5.23711 1.67353 0
M  V30 8302 H 846.547 -6.4911 1.99582 0
M  V30 8303 H 844.493 -6.55534 -0.247276 0
M  V30 8304 H 844.41 -7.45943 1.22904 0
M  V30 8305 H 845.678 -7.7945 0.0880543 0
M  V30 8306 N 849.908 -0.773975 -1.37286 0
M  V30 8307 C 850.838 -0.175782 -2.32837 0
M  V30 8308 C 851.819 0.680603 -1.5589 0
M  V30 8309 O 853.004 0.617607 -1.84117 0
M  V30 8310 C 850.134 0.702388 -3.40123 0
M  V30 8311 C 849.088 -0.0528687 -4.27967 0
M  V30 8312 C 848.414 0.944891 -5.26285 0
M  V30 8313 C 849.714 -1.23316 -5.07534 0
M  V30 8314 H 851.408 -0.974016 -2.83114 0
M  V30 8315 H 848.954 -0.469826 -1.3612 0
M  V30 8316 H 850.907 1.13069 -4.05947 0
M  V30 8317 H 849.631 1.53316 -2.88378 0
M  V30 8318 H 848.29 -0.461978 -3.63678 0
M  V30 8319 H 847.938 1.77028 -4.70819 0
M  V30 8320 H 847.638 0.444079 -5.8592 0
M  V30 8321 H 849.162 1.37209 -5.94984 0
M  V30 8322 H 850.576 -0.881395 -5.66484 0
M  V30 8323 H 848.973 -1.66621 -5.76504 0
M  V30 8324 H 850.043 -2.03617 -4.40077 0
M  V30 8325 N 851.386 1.48609 -0.524698 0
M  V30 8326 C 852.611 2.07398 0.00952139 0
M  V30 8327 C 853.036 1.37939 1.27884 0
M  V30 8328 O 852.394 0.443633 1.75788 0
M  V30 8329 C 852.442 3.59916 0.221956 0
M  V30 8330 O 851.546 3.91647 1.29175 0
M  V30 8331 H 850.887 0.662981 -0.0367729 0
M  V30 8332 H 853.417 1.91092 -0.7311 0
M  V30 8333 H 853.427 4.05552 0.446236 0
M  V30 8334 H 852.102 4.09876 -0.705306 0
M  V30 8335 H 850.679 3.57796 1.05055 0
M  V30 8336 N 852.864 0.259585 1.55447 0
M  V30 8337 C 853.827 -0.621359 2.20617 0
M  V30 8338 C 854.827 -1.09317 1.17925 0
M  V30 8339 O 856.017 -0.995842 1.42929 0
M  V30 8340 C 853.149 -1.85546 2.85982 0
M  V30 8341 H 854.342 -0.0525833 2.99854 0
M  V30 8342 H 851.895 0.0101055 1.56297 0
M  V30 8343 H 852.63 -2.46515 2.10715 0
M  V30 8344 H 852.415 -1.52523 3.61219 0
M  V30 8345 H 853.905 -2.48227 3.35817 0
M  V30 8346 N 854.342 -1.57594 -0.0133615 0
M  V30 8347 C 855.572 -1.93969 -0.711295 0
M  V30 8348 C 855.98 -0.859084 -1.68572 0
M  V30 8349 O 855.323 0.171842 -1.82894 0
M  V30 8350 C 855.385 -3.2625 -1.51001 0
M  V30 8351 C 855.049 -4.51628 -0.698645 0
M  V30 8352 C 856.046 -5.19899 0.00791185 0
M  V30 8353 C 853.731 -4.98095 -0.648553 0
M  V30 8354 C 855.725 -6.32928 0.753691 0
M  V30 8355 C 853.412 -6.11017 0.10096 0
M  V30 8356 C 854.41 -6.78289 0.800828 0
M  V30 8357 O 854.098 -7.89048 1.53814 0
M  V30 8358 H 853.83 -0.6445 -0.203951 0
M  V30 8359 H 856.384 -2.05378 0.0298267 0
M  V30 8360 H 854.614 -3.11211 -2.29531 0
M  V30 8361 H 856.303 -3.47835 -2.09202 0
M  V30 8362 H 857.069 -4.84995 -0.0217192 0
M  V30 8363 H 852.948 -4.45568 -1.18282 0
M  V30 8364 H 856.492 -6.85371 1.3005 0
M  V30 8365 H 852.389 -6.45364 0.132459 0
M  V30 8366 H 853.157 -8.05492 1.45345 0
M  V30 8367 N 855.82 0.285905 -1.54985 0
M  V30 8368 C 857.069 1.01691 -1.74189 0
M  V30 8369 C 857.382 1.87908 -0.543135 0
M  V30 8370 O 858.588 2.64389 -0.617305 0
M  V30 8371 C 857.044 1.85785 -3.0824 0
M  V30 8372 C 856.652 1.04497 -4.35642 0
M  V30 8373 C 858.396 2.58393 -3.36798 0
M  V30 8374 C 856.303 1.87955 -5.60738 0
M  V30 8375 H 855.233 0.383396 -0.649248 0
M  V30 8376 H 857.884 0.27317 -1.81455 0
M  V30 8377 H 856.266 2.64205 -2.94978 0
M  V30 8378 H 857.44 0.305847 -4.59784 0
M  V30 8379 H 855.755 0.434023 -4.14132 0
M  V30 8380 H 858.352 3.21214 -4.27464 0
M  V30 8381 H 858.695 3.28011 -2.56349 0
M  V30 8382 H 859.228 1.87012 -3.511 0
M  V30 8383 H 855.967 1.22781 -6.43898 0
M  V30 8384 H 855.487 2.59499 -5.40759 0
M  V30 8385 H 857.166 2.45636 -5.98558 0
M  V30 8386 N 857.298 1.47698 0.54982 0
M  V30 8387 C 858.714 1.3338 0.876468 0
M  V30 8388 C 858.914 0.329837 1.98782 0
M  V30 8389 O 857.97 -0.256022 2.51199 0
M  V30 8390 C 859.283 2.72903 1.26272 0
M  V30 8391 C 860.831 2.81243 1.37373 0
M  V30 8392 C 861.306 4.21423 1.79351 0
M  V30 8393 N 862.797 4.24 1.86489 0
M  V30 8394 C 863.532 5.29386 2.20313 0
M  V30 8395 N 863.028 6.4507 2.527 0
M  V30 8396 N 864.821 5.16768 2.2115 0
M  V30 8397 H 856.972 2.11603 -0.183781 0
M  V30 8398 H 859.235 0.947798 -0.0195601 0
M  V30 8399 H 858.941 3.47836 0.519889 0
M  V30 8400 H 858.815 3.05151 2.21727 0
M  V30 8401 H 861.202 2.06577 2.10737 0
M  V30 8402 H 861.283 2.52639 0.400882 0
M  V30 8403 H 860.927 4.96597 1.06555 0
M  V30 8404 H 860.857 4.47456 2.77652 0
M  V30 8405 H 863.348 3.40547 1.63817 0
M  V30 8406 H 863.661 7.21236 2.77557 0
M  V30 8407 H 862.006 6.48377 2.50263 0
M  V30 8408 H 865.197 4.25416 1.95293 0
M  V30 8409 H 865.37 5.99004 2.4718 0
M  V30 8410 N 858.776 -0.797141 1.35954 0
M  V30 8411 C 860.001 -1.59097 1.33053 0
M  V30 8412 C 860.426 -1.87897 -0.0874592 0
M  V30 8413 O 859.784 -1.47291 -1.05712 0
M  V30 8414 C 859.832 -2.89346 2.152 0
M  V30 8415 O 858.936 -3.826 1.5392 0
M  V30 8416 H 858.277 -0.482895 0.45575 0
M  V30 8417 H 860.807 -0.988633 1.79129 0
M  V30 8418 H 860.817 -3.38686 2.27499 0
M  V30 8419 H 859.492 -2.6771 3.18283 0
M  V30 8420 H 858.069 -3.41174 1.50516 0
M  V30 8421 N 860.254 -1.20106 -1.0204 0
M  V30 8422 C 861.202 -0.943231 -2.12617 0
M  V30 8423 C 862.196 0.104042 -1.6908 0
M  V30 8424 O 863.402 -0.0459732 -1.79941 0
M  V30 8425 H 859.777 -0.28767 -0.694802 0
M  V30 8426 H 861.748 -1.88221 -2.3155 0
M  V30 8427 C 860.497 -0.50771 -3.43973 0
M  V30 8428 H 859.82 -1.30514 -3.77897 0
M  V30 8429 H 861.26 -0.366486 -4.22413 0
M  V30 8430 C 859.719 0.77939 -3.27761 0
M  V30 8431 O 860.249 1.83876 -3.57145 0
M  V30 8432 N 858.455 0.739931 -2.81022 0
M  V30 8433 H 858.002 -0.122426 -2.57309 0
M  V30 8434 H 857.96 1.60147 -2.70556 0
M  V30 8435 N 861.732 1.21287 -1.00634 0
M  V30 8436 C 862.98 1.90013 -0.688438 0
M  V30 8437 C 863.301 1.78573 0.783365 0
M  V30 8438 O 862.571 1.1815 1.56261 0
M  V30 8439 H 861.151 0.703336 -0.251648 0
M  V30 8440 H 863.813 1.47346 -1.27574 0
M  V30 8441 H 862.909 2.96879 -0.962781 0
M  V30 8442 N 863.21 0.781244 1.36873 0
M  V30 8443 C 864.457 0.349889 1.99454 0
M  V30 8444 C 864.785 -1.07621 1.62013 0
M  V30 8445 O 864.04 -1.75665 0.86258 0
M  V30 8446 C 864.339 0.45146 3.54537 0
M  V30 8447 C 864.005 1.83718 4.11775 0
M  V30 8448 C 862.667 2.21634 4.2712 0
M  V30 8449 C 865.019 2.7449 4.43063 0
M  V30 8450 C 862.347 3.49742 4.7106 0
M  V30 8451 C 864.699 4.02017 4.88431 0
M  V30 8452 C 863.363 4.39967 5.01982 0
M  V30 8453 H 862.633 0.128033 0.729855 0
M  V30 8454 H 865.28 0.997117 1.63493 0
M  V30 8455 H 863.585 -0.279288 3.90803 0
M  V30 8456 H 865.282 0.0988609 4.00878 0
M  V30 8457 H 861.872 1.53251 4.00265 0
M  V30 8458 H 866.056 2.46453 4.30783 0
M  V30 8459 H 861.312 3.79026 4.79738 0
M  V30 8460 H 865.486 4.72475 5.11605 0
M  V30 8461 H 863.113 5.39291 5.35788 0
M  V30 8462 N 864.689 -1.48329 0.532571 0
M  V30 8463 C 865.937 -2.021 -0.000581206 0
M  V30 8464 C 866.258 -1.4117 -1.34522 0
M  V30 8465 O 865.528 -0.578005 -1.87179 0
M  V30 8466 H 864.108 -0.746993 -0.00320281 0
M  V30 8467 H 866.77 -1.82011 0.696991 0
M  V30 8468 H 865.866 -3.11917 -0.106991 0
M  V30 8469 N 866.167 -0.267825 -1.55308 0
M  V30 8470 C 867.117 0.637168 -2.18916 0
M  V30 8471 C 868.101 1.12381 -1.15149 0
M  V30 8472 O 869.293 1.0701 -1.40989 0
M  V30 8473 C 866.422 1.82423 -2.90821 0
M  V30 8474 C 865.508 1.35512 -4.01867 0
M  V30 8475 N 865.899 0.601644 -5.02209 0
M  V30 8476 C 864.197 1.63868 -4.14805 0
M  V30 8477 C 864.898 0.35596 -5.8061 0
M  V30 8478 N 863.874 0.926271 -5.3565 0
M  V30 8479 H 867.676 0.0535787 -2.93851 0
M  V30 8480 H 865.19 -0.0710577 -1.62244 0
M  V30 8481 H 867.187 2.48379 -3.34834 0
M  V30 8482 H 865.847 2.41185 -2.17394 0
M  V30 8483 H 866.858 0.249693 -5.17298 0
M  V30 8484 H 863.535 2.23618 -3.52564 0
M  V30 8485 H 864.925 -0.246994 -6.71446 0
M  V30 8486 O 867.684 1.6095 -0.133191 0
M  V30 8487 H 868.375 1.88082 0.463129 0
M  V30 END ATOM
M  V30 BEGIN BOND
M  V30 END BOND
M  V30 END CTAB
M  END
$$$$
