drugbank_target|Q9UI33 Sodium channel protein type 11 subunit alpha (DB00273; DB00555; DB00564; DB01069; DB09085; DB09088; DB09342; DB09345; DB11186; DB13746)
 OpenBabel12092119263D

  0  0  0     0  0            999 V3000
M  V30 BEGIN CTAB
M  V30 COUNTS 29035 29373 0 0 0
M  V30 BEGIN ATOM
M  V30 1 H -0.908 1.98254 -0.117106 0
M  V30 2 N 0 1.576 0 0
M  V30 3 C 0.933 2.03868 1.02534 0
M  V30 4 C 1.911 0.928543 1.3348 0
M  V30 5 O 3.095 1.19667 1.45644 0
M  V30 6 C 0.222 2.43627 2.35294 0
M  V30 7 C -0.732 3.65373 2.2001 0
M  V30 8 S 0.101 5.13292 1.52614 0
M  V30 9 C 1.257 5.56322 2.86805 0
M  V30 10 H 1.49 2.90518 0.631377 0
M  V30 11 H -0.977 1.52953 0.210867 0
M  V30 12 H 0.981 2.67203 3.11629 0
M  V30 13 H -0.358 1.57376 2.7183 0
M  V30 14 H -1.165 3.90944 3.18086 0
M  V30 15 H -1.563 3.418 1.51819 0
M  V30 16 H 0.729 5.58782 3.83104 0
M  V30 17 H 1.672 6.56266 2.65933 0
M  V30 18 H 2.08 4.83886 2.90714 0
M  V30 19 N 1.4781 -0.272755 1.55222 0
M  V30 20 C 2.7551 -1.02562 1.66555 0
M  V30 21 C 3.1351 -2.04282 0.532189 0
M  V30 22 O 2.4831 -2.23662 -0.467717 0
M  V30 23 C 2.6931 -1.6822 3.05782 0
M  V30 24 C 4.0411 -2.19373 3.63539 0
M  V30 25 O 5.0651 -1.78206 3.08417 0
M  V30 26 O 3.9241 -2.94883 4.60115 0
M  V30 27 H 1.0181 -0.475755 0.676451 0
M  V30 28 H 3.5641 -0.268593 1.67561 0
M  V30 29 H 2.3361 -0.945112 3.79715 0
M  V30 30 H 1.9591 -2.50609 3.08676 0
M  V30 31 N 2.9562 -1.48159 -0.537278 0
M  V30 32 C 4.2332 -1.46291 -1.29839 0
M  V30 33 C 4.6132 -0.170613 -2.10409 0
M  V30 34 O 3.9612 0.847746 -2.12192 0
M  V30 35 C 4.1712 -2.72055 -2.18603 0
M  V30 36 C 5.5192 -3.20087 -2.7898 0
M  V30 37 O 6.5432 -2.72921 -2.28894 0
M  V30 38 O 5.4022 -4.02138 -3.70064 0
M  V30 39 H 2.4962 -0.583906 -0.585647 0
M  V30 40 H 5.0422 -1.60384 -0.554534 0
M  V30 41 H 3.8142 -3.57628 -1.58801 0
M  V30 42 H 3.4372 -2.60646 -3.00249 0
M  V30 43 N 4.4343 0.785586 -1.36625 0
M  V30 44 C 5.8503 1.08419 -1.17122 0
M  V30 45 C 6.0503 2.015 0.00208491 0
M  V30 46 O 5.1063 2.43551 0.666278 0
M  V30 47 C 6.4193 1.69498 -2.48377 0
M  V30 48 C 7.9673 1.81821 -2.54775 0
M  V30 49 C 8.4423 2.46315 -3.86126 0
M  V30 50 N 9.9333 2.53779 -3.87492 0
M  V30 51 C 10.6683 3.045 -4.85868 0
M  V30 52 N 10.1643 3.55499 -5.94637 0
M  V30 53 N 11.9573 3.03247 -4.73284 0
M  V30 54 H 4.1083 0.167264 -2.1174 0
M  V30 55 H 6.3713 0.13682 -0.938075 0
M  V30 56 H 6.0773 1.08571 -3.34522 0
M  V30 57 H 5.9513 2.6896 -2.64462 0
M  V30 58 H 8.3383 2.41884 -1.69045 0
M  V30 59 H 8.4193 0.811532 -2.42586 0
M  V30 60 H 8.0633 1.86895 -4.72263 0
M  V30 61 H 7.9933 3.47561 -3.95612 0
M  V30 62 H 10.4843 2.17672 -3.08913 0
M  V30 63 H 10.7973 3.92562 -6.65669 0
M  V30 64 H 9.1423 3.5364 -5.98301 0
M  V30 65 H 12.3333 2.62696 -3.87438 0
M  V30 66 H 12.5063 3.42467 -5.50109 0
M  V30 67 N 5.9124 1.20967 1.01018 0
M  V30 68 C 7.1524 1.03511 1.76252 0
M  V30 69 C 7.5164 -0.42458 1.87247 0
M  V30 70 O 8.7174 -0.719508 2.58991 0
M  V30 71 C 6.9884 1.70726 3.13986 0
M  V30 72 S 8.5474 1.68458 4.05176 0
M  V30 73 H 5.3654 0.371037 0.606508 0
M  V30 74 H 7.9674 1.53628 1.20908 0
M  V30 75 H 6.6714 2.76128 3.03614 0
M  V30 76 H 6.2024 1.20767 3.74405 0
M  V30 77 H 8.2174 0.721987 4.90919 0
M  V30 78 N 7.3905 -1.2043 1.01659 0
M  V30 79 C 8.6205 -1.93496 0.724081 0
M  V30 80 C 9.0285 -1.74998 -0.71918 0
M  V30 81 O 8.3715 -1.06118 -1.49949 0
M  V30 82 C 8.4335 -3.45886 0.97994 0
M  V30 83 C 8.0975 -3.88145 2.41232 0
M  V30 84 C 9.0945 -3.93907 3.39313 0
M  V30 85 C 6.7795 -4.20134 2.75305 0
M  V30 86 C 8.7735 -4.31069 4.6953 0
M  V30 87 C 6.4605 -4.56971 4.05735 0
M  V30 88 C 7.4585 -4.62411 5.02658 0
M  V30 89 O 7.1465 -4.98403 6.30754 0
M  V30 90 H 6.8785 -0.621824 0.265162 0
M  V30 91 H 9.4325 -1.53867 1.36066 0
M  V30 92 H 7.6625 -3.85639 0.286198 0
M  V30 93 H 9.3515 -4.0018 0.679021 0
M  V30 94 H 10.1175 -3.69357 3.14325 0
M  V30 95 H 5.9965 -4.1509 2.00551 0
M  V30 96 H 9.5405 -4.3523 5.45179 0
M  V30 97 H 5.4375 -4.80977 4.30502 0
M  V30 98 H 6.2055 -5.16395 6.35042 0
M  V30 99 N 8.8686 -0.792821 -1.36206 0
M  V30 100 C 10.2796 -0.429513 -1.81692 0
M  V30 101 C 10.6306 1.04695 -1.65932 0
M  V30 102 O 9.7556 1.81256 -1.18218 0
M  V30 103 C 10.3506 -0.772831 -3.29868 0
M  V30 104 C 8.9096 -0.462307 -3.7355 0
M  V30 105 C 8.0566 -1.00569 -2.5842 0
M  V30 106 H 11.0076 -0.985672 -1.24379 0
M  V30 107 H 11.0286 -0.0651928 -3.80444 0
M  V30 108 H 10.5406 -1.84747 -3.41307 0
M  V30 109 H 8.6416 0.604158 -3.67669 0
M  V30 110 H 8.7546 -0.985299 -4.68859 0
M  V30 111 H 7.1186 -0.428734 -2.51066 0
M  V30 112 H 7.9016 -2.08616 -2.72643 0
M  V30 113 N 10.3467 1.47872 -0.545128 0
M  V30 114 C 11.5927 2.02793 -0.0166104 0
M  V30 115 C 11.9257 1.41987 1.32489 0
M  V30 116 O 11.2007 0.571045 1.85928 0
M  V30 117 C 11.4837 3.59989 0.0893294 0
M  V30 118 C 11.3367 4.3125 -1.27841 0
M  V30 119 C 12.6557 4.32606 0.808724 0
M  V30 120 H 9.7747 0.736962 -0.00751035 0
M  V30 121 H 12.4167 1.76433 -0.705085 0
M  V30 122 H 10.5667 3.82579 0.675681 0
M  V30 123 H 12.2387 4.20035 -1.90704 0
M  V30 124 H 10.4817 3.92076 -1.85632 0
M  V30 125 H 11.1527 5.39736 -1.15713 0
M  V30 126 H 13.6287 4.14936 0.310992 0
M  V30 127 H 12.5047 5.42251 0.851782 0
M  V30 128 H 12.7657 4.00963 1.86229 0
M  V30 129 N 11.8248 0.280983 1.55075 0
M  V30 130 C 13.0738 -0.334784 1.98902 0
M  V30 131 C 13.3868 -1.56534 1.17288 0
M  V30 132 O 14.5928 -2.25443 1.51287 0
M  V30 133 C 13.0488 -0.646994 3.54037 0
M  V30 134 C 12.6568 0.564085 4.44435 0
M  V30 135 C 14.4008 -1.22506 4.06439 0
M  V30 136 C 12.3078 0.226137 5.90967 0
M  V30 137 H 11.2378 -0.128866 0.742906 0
M  V30 138 H 13.8888 0.386556 1.79382 0
M  V30 139 H 12.2708 -1.42739 3.6938 0
M  V30 140 H 13.4448 1.34082 4.40861 0
M  V30 141 H 11.7598 1.0594 4.02698 0
M  V30 142 H 14.3568 -1.49182 5.13468 0
M  V30 143 H 14.6998 -2.16085 3.55827 0
M  V30 144 H 15.2328 -0.50682 3.94558 0
M  V30 145 H 11.9718 1.12996 6.45687 0
M  V30 146 H 11.4918 -0.513717 5.97596 0
M  V30 147 H 13.1708 -0.179539 6.46751 0
M  V30 148 N 13.3029 -1.57598 0.00835791 0
M  V30 149 C 14.5499 -1.90928 -0.674732 0
M  V30 150 C 14.8779 -0.88277 -1.73313 0
M  V30 151 O 14.1329 0.111294 -1.95383 0
M  V30 152 C 14.4319 -3.3101 -1.34787 0
M  V30 153 C 14.0979 -4.48922 -0.421861 0
M  V30 154 C 12.7599 -4.8091 -0.166927 0
M  V30 155 C 15.1119 -5.20755 0.215211 0
M  V30 156 C 12.4399 -5.821 0.733232 0
M  V30 157 C 14.7919 -6.22905 1.1033 0
M  V30 158 C 13.4559 -6.53346 1.36733 0
M  V30 159 H 12.7259 -0.698656 -0.246902 0
M  V30 160 H 15.3729 -1.91387 0.0656779 0
M  V30 161 H 13.6779 -3.26714 -2.16253 0
M  V30 162 H 15.3749 -3.54061 -1.8826 0
M  V30 163 H 11.9649 -4.23934 -0.630729 0
M  V30 164 H 16.1489 -4.9629 0.0312829 0
M  V30 165 H 11.4049 -6.04042 0.945712 0
M  V30 166 H 15.5789 -6.77694 1.60325 0
M  V30 167 H 13.2059 -7.31573 2.06652 0
M  V30 168 N 14.781 0.264519 -1.55364 0
M  V30 169 C 16.192 0.834936 -1.6699 0
M  V30 170 C 16.543 1.86718 -0.602552 0
M  V30 171 O 15.668 2.14899 0.254425 0
M  V30 172 C 16.263 1.5212 -3.02729 0
M  V30 173 C 14.822 2.03954 -3.16354 0
M  V30 174 C 13.969 0.884498 -2.62815 0
M  V30 175 H 16.92 0.0406869 -1.58648 0
M  V30 176 H 16.941 2.38853 -2.96191 0
M  V30 177 H 16.453 0.769668 -3.80392 0
M  V30 178 H 14.554 2.82041 -2.43482 0
M  V30 179 H 14.667 2.24902 -4.23032 0
M  V30 180 H 13.031 1.2802 -2.20188 0
M  V30 181 H 13.814 0.14634 -3.42988 0
M  V30 182 N 16.2591 1.48442 0.529413 0
M  V30 183 C 17.5361 1.46978 1.29062 0
M  V30 184 C 17.9161 0.181769 2.10316 0
M  V30 185 O 17.2641 -0.836481 2.12639 0
M  V30 186 C 17.4741 2.7321 2.17157 0
M  V30 187 C 18.8221 3.21562 2.77278 0
M  V30 188 O 19.8461 2.74131 2.27444 0
M  V30 189 O 18.7051 4.04094 3.67927 0
M  V30 190 H 15.7991 0.587003 0.582543 0
M  V30 191 H 18.3451 1.60676 0.546021 0
M  V30 192 H 17.1171 3.58465 1.56903 0
M  V30 193 H 16.7401 2.62235 2.98862 0
M  V30 194 N 17.7372 -0.778329 1.37039 0
M  V30 195 C 18.6472 -1.92253 1.34446 0
M  V30 196 C 19.6632 -1.72267 0.244991 0
M  V30 197 O 20.8392 -1.95615 0.479258 0
M  V30 198 C 17.9042 -3.27282 1.144 0
M  V30 199 C 16.9652 -3.59969 2.33925 0
M  V30 200 C 16.1982 -4.88555 2.14825 0
M  V30 201 O 16.4212 -5.59113 1.12912 0
M  V30 202 O 15.3552 -5.20153 3.02861 0
M  V30 203 H 19.1812 -1.97392 2.30803 0
M  V30 204 H 16.7662 -0.920154 1.17701 0
M  V30 205 H 18.6482 -4.08062 1.05182 0
M  V30 206 H 17.3232 -3.23011 0.211124 0
M  V30 207 H 16.2302 -2.7945 2.48714 0
M  V30 208 H 17.5632 -3.68976 3.25757 0
M  V30 209 N 19.2153 -1.21501 -1.00376 0
M  V30 210 C 20.6313 -0.972629 -1.26539 0
M  V30 211 C 20.8313 0.340257 -1.98606 0
M  V30 212 O 19.8873 1.06561 -2.28913 0
M  V30 213 C 21.2003 -2.16404 -2.08781 0
M  V30 214 C 22.7483 -2.20643 -2.22004 0
M  V30 215 C 23.2233 -3.39306 -3.07629 0
M  V30 216 N 24.7143 -3.39401 -3.15217 0
M  V30 217 C 25.4493 -4.27867 -3.81729 0
M  V30 218 N 24.9453 -5.26533 -4.5026 0
M  V30 219 N 26.7383 -4.15672 -3.78382 0
M  V30 220 H 18.8893 -2.05929 -0.520281 0
M  V30 221 H 21.1523 -0.901803 -0.292328 0
M  V30 222 H 20.8583 -3.11554 -1.63178 0
M  V30 223 H 20.7323 -2.15567 -3.09533 0
M  V30 224 H 23.1193 -1.26048 -2.66825 0
M  V30 225 H 23.2003 -2.25523 -1.20718 0
M  V30 226 H 22.8443 -4.34195 -2.63509 0
M  V30 227 H 22.7743 -3.31665 -4.09031 0
M  V30 228 H 25.2653 -2.67997 -2.66432 0
M  V30 229 H 25.5783 -5.90337 -4.98721 0
M  V30 230 H 23.9233 -5.30457 -4.49044 0
M  V30 231 H 27.1143 -3.3785 -3.23998 0
M  V30 232 H 27.2873 -4.84825 -4.2994 0
M  V30 233 N 20.6934 1.19889 -1.02296 0
M  V30 234 C 21.6414 2.24938 -0.592081 0
M  V30 235 C 22.6354 1.65257 0.372357 0
M  V30 236 O 23.8414 1.78371 0.241583 0
M  V30 237 H 20.2164 0.731787 -0.173182 0
M  V30 238 H 22.1874 2.58603 -1.48885 0
M  V30 239 C 20.9364 3.47668 0.047351 0
M  V30 240 H 20.2594 3.93875 -0.685772 0
M  V30 241 H 21.6994 4.22852 0.311862 0
M  V30 242 C 20.1584 3.11136 1.29212 0
M  V30 243 O 20.6884 3.2325 2.38479 0
M  V30 244 N 18.8944 2.65625 1.17863 0
M  V30 245 H 18.4414 2.55968 0.289493 0
M  V30 246 H 18.3994 2.41553 2.01245 0
M  V30 247 N 22.1715 0.800033 1.35784 0
M  V30 248 C 23.4185 0.377342 1.98953 0
M  V30 249 C 23.7465 -1.05378 1.6348 0
M  V30 250 O 23.0015 -1.74459 0.886707 0
M  V30 251 C 23.3005 0.500276 3.53881 0
M  V30 252 C 22.9665 1.89375 4.09204 0
M  V30 253 C 21.6285 2.27499 4.24025 0
M  V30 254 C 23.9805 2.8057 4.39238 0
M  V30 255 C 21.3085 3.562 4.66195 0
M  V30 256 C 23.6605 4.0871 4.82844 0
M  V30 257 C 22.3245 4.46843 4.95871 0
M  V30 258 H 21.5945 0.138079 0.728021 0
M  V30 259 H 24.2415 1.01955 1.62103 0
M  V30 260 H 22.5465 -0.225405 3.91151 0
M  V30 261 H 24.2435 0.154097 4.00704 0
M  V30 262 H 20.8335 1.58753 3.98115 0
M  V30 263 H 25.0175 2.52367 4.27346 0
M  V30 264 H 20.2735 3.85602 4.74469 0
M  V30 265 H 24.4475 4.79481 5.05046 0
M  V30 266 H 22.0745 5.46623 5.28306 0
M  V30 267 N 23.6496 -1.47581 0.552962 0
M  V30 268 C 25.0656 -1.5818 0.212424 0
M  V30 269 C 25.2656 -1.55213 -1.28496 0
M  V30 270 O 24.3216 -1.45329 -2.06484 0
M  V30 271 C 25.6346 -2.88865 0.835318 0
M  V30 272 C 27.1826 -3.0244 0.806156 0
M  V30 273 C 27.6576 -4.35819 1.40804 0
M  V30 274 N 29.1486 -4.42444 1.37103 0
M  V30 275 C 29.8836 -5.44202 1.80641 0
M  V30 276 N 29.3796 -6.52795 2.32015 0
M  V30 277 N 31.1726 -5.35222 1.71738 0
M  V30 278 H 23.3236 -1.47753 1.52587 0
M  V30 279 H 25.5866 -0.702941 0.636064 0
M  V30 280 H 25.2926 -2.9676 1.88749 0
M  V30 281 H 25.1666 -3.7579 0.325848 0
M  V30 282 H 27.5536 -2.94144 -0.237317 0
M  V30 283 H 27.6346 -2.17068 1.35334 0
M  V30 284 H 27.2786 -4.44871 2.45056 0
M  V30 285 H 27.2086 -5.19916 0.836338 0
M  V30 286 H 29.6996 -3.6456 0.995202 0
M  V30 287 H 30.0126 -7.26609 2.63171 0
M  V30 288 H 28.3576 -6.53696 2.36023 0
M  V30 289 H 31.5486 -4.49284 1.31382 0
M  V30 290 H 31.7216 -6.14389 2.05987 0
M  V30 291 N 25.1277 -0.289203 -1.54924 0
M  V30 292 C 26.5387 0.205791 -1.85562 0
M  V30 293 C 26.8897 1.54351 -1.2112 0
M  V30 294 O 26.0147 2.10435 -0.504601 0
M  V30 295 C 26.6097 0.380177 -3.3666 0
M  V30 296 C 25.1687 0.819395 -3.67373 0
M  V30 297 C 24.3157 -0.079159 -2.77187 0
M  V30 298 H 27.2667 -0.510577 -1.50262 0
M  V30 299 H 27.2877 1.21659 -3.60526 0
M  V30 300 H 26.7997 -0.593589 -3.83534 0
M  V30 301 H 24.9007 1.80413 -3.26009 0
M  V30 302 H 25.0137 0.646957 -4.74712 0
M  V30 303 H 23.3777 0.439565 -2.50878 0
M  V30 304 H 24.1607 -1.04906 -3.26878 0
M  V30 305 N 26.6058 1.57591 -0.0167156 0
M  V30 306 C 27.8528 1.91283 0.664597 0
M  V30 307 C 28.1808 0.891949 1.72842 0
M  V30 308 O 27.4358 -0.100931 1.9544 0
M  V30 309 C 27.7348 3.3172 1.33029 0
M  V30 310 C 27.4008 4.4914 0.398047 0
M  V30 311 C 26.0628 4.80992 0.141421 0
M  V30 312 C 28.4148 5.20634 -0.242825 0
M  V30 313 C 25.7428 5.81703 -0.764092 0
M  V30 314 C 28.0948 6.22311 -1.13632 0
M  V30 315 C 26.7588 6.52611 -1.40196 0
M  V30 316 H 26.0288 0.699956 0.243193 0
M  V30 317 H 28.6758 1.9135 -0.0758267 0
M  V30 318 H 26.9808 3.27856 2.14517 0
M  V30 319 H 28.6778 3.55055 1.86379 0
M  V30 320 H 25.2678 4.24262 0.608238 0
M  V30 321 H 29.4518 4.96267 -0.0576019 0
M  V30 322 H 24.7078 6.03532 -0.977732 0
M  V30 323 H 28.8818 6.76834 -1.63917 0
M  V30 324 H 26.5088 7.30467 -2.10529 0
M  V30 325 N 28.0839 -0.256276 1.55502 0
M  V30 326 C 29.3119 -1.00342 1.8094 0
M  V30 327 C 29.7269 -1.79307 0.59114 0
M  V30 328 O 29.0839 -1.77114 -0.440081 0
M  V30 329 C 29.1349 -1.94875 3.04476 0
M  V30 330 O 28.8559 -1.19107 4.21598 0
M  V30 331 C 30.3569 -2.81266 3.42644 0
M  V30 332 H 27.5769 -0.295685 0.602338 0
M  V30 333 H 30.1209 -0.281998 2.02546 0
M  V30 334 H 28.2759 -2.62457 2.84947 0
M  V30 335 H 28.6899 -1.82969 4.91551 0
M  V30 336 H 30.1639 -3.43362 4.32211 0
M  V30 337 H 30.6409 -3.51897 2.62802 0
M  V30 338 H 31.2469 -2.1915 3.64491 0
M  V30 339 N 29.562 -1.4872 -0.521534 0
M  V30 340 C 30.787 -1.61101 -1.30618 0
M  V30 341 C 31.212 -0.274611 -1.86085 0
M  V30 342 O 30.57 0.754937 -1.64834 0
M  V30 343 C 30.618 -2.66709 -2.4269 0
M  V30 344 O 29.722 -2.24456 -3.45967 0
M  V30 345 H 29.063 -0.539921 -0.386499 0
M  V30 346 H 31.593 -1.94767 -0.626645 0
M  V30 347 H 31.603 -2.88245 -2.88754 0
M  V30 348 H 30.278 -3.63727 -2.01682 0
M  V30 349 H 28.855 -2.13168 -3.05964 0
M  V30 350 N 31.0401 0.771051 -1.3745 0
M  V30 351 C 32.3171 1.519 -1.23231 0
M  V30 352 C 32.6971 2.10383 0.173809 0
M  V30 353 O 32.0451 1.95583 1.18151 0
M  V30 354 C 32.2551 2.59933 -2.32886 0
M  V30 355 C 33.6031 3.27316 -2.70461 0
M  V30 356 O 34.6271 2.70228 -2.32068 0
M  V30 357 O 33.4861 4.30531 -3.36608 0
M  V30 358 H 30.5801 0.672803 -0.480901 0
M  V30 359 H 33.1261 0.807957 -1.49232 0
M  V30 360 H 31.8981 2.14842 -3.27045 0
M  V30 361 H 31.5211 3.38637 -2.08353 0
M  V30 362 N 32.5182 1.22032 0.997298 0
M  V30 363 C 33.7432 1.06921 1.77715 0
M  V30 364 C 34.1682 -0.376226 1.84299 0
M  V30 365 O 33.5262 -1.27165 1.29223 0
M  V30 366 C 33.5742 1.67996 3.19076 0
M  V30 367 O 32.6782 0.930653 4.01762 0
M  V30 368 H 32.0192 0.375814 0.547412 0
M  V30 369 H 34.5492 1.61737 1.25309 0
M  V30 370 H 34.5592 1.72538 3.69723 0
M  V30 371 H 33.2342 2.73182 3.13599 0
M  V30 372 H 31.8112 0.960917 3.60307 0
M  V30 373 N 33.9963 -1.19345 1.0293 0
M  V30 374 C 34.9263 -2.2481 0.631105 0
M  V30 375 C 35.9073 -1.66245 -0.360104 0
M  V30 376 O 37.0923 -1.92677 -0.242726 0
M  V30 377 C 34.2223 -3.47295 -0.0184607 0
M  V30 378 C 33.1763 -4.18536 0.895073 0
M  V30 379 C 32.5023 -5.34586 0.110592 0
M  V30 380 C 33.8023 -4.73287 2.209 0
M  V30 381 H 35.4963 -2.58372 1.51275 0
M  V30 382 H 33.0423 -1.24194 0.728818 0
M  V30 383 H 34.9953 -4.20268 -0.308675 0
M  V30 384 H 33.7193 -3.12933 -0.934907 0
M  V30 385 H 32.3783 -3.47446 1.16949 0
M  V30 386 H 32.0263 -4.96469 -0.807902 0
M  V30 387 H 31.7263 -5.83183 0.719087 0
M  V30 388 H 33.2503 -6.10355 -0.172871 0
M  V30 389 H 34.6643 -5.38013 1.98028 0
M  V30 390 H 33.0613 -5.32373 2.76946 0
M  V30 391 H 34.1313 -3.91331 2.86336 0
M  V30 392 N 35.4744 -0.807222 -1.35358 0
M  V30 393 C 36.4374 -0.223665 -2.28106 0
M  V30 394 C 37.4374 0.589354 -1.4961 0
M  V30 395 O 38.6274 0.407745 -1.69361 0
M  V30 396 C 35.7594 0.688149 -3.33882 0
M  V30 397 H 36.9524 -1.04169 -2.81227 0
M  V30 398 H 34.5054 -0.577921 -1.45223 0
M  V30 399 H 35.2404 1.52984 -2.85948 0
M  V30 400 H 35.0254 0.10687 -3.91954 0
M  V30 401 H 36.5154 1.09075 -4.03104 0
M  V30 402 N 36.9525 1.47285 -0.560781 0
M  V30 403 C 37.9155 2.28535 0.174488 0
M  V30 404 C 38.9155 1.37153 0.839388 0
M  V30 405 O 40.1055 1.59748 0.694702 0
M  V30 406 C 37.2375 3.16934 1.25561 0
M  V30 407 H 38.4305 2.95012 -0.539262 0
M  V30 408 H 35.9835 1.53034 -0.317865 0
M  V30 409 H 36.7185 2.55157 2.00164 0
M  V30 410 H 36.5035 3.8419 0.783604 0
M  V30 411 H 37.9935 3.78143 1.77193 0
M  V30 412 N 38.4306 0.297415 1.54768 0
M  V30 413 C 39.6796 -0.313669 1.99246 0
M  V30 414 C 39.9926 -1.55281 1.18942 0
M  V30 415 O 41.1986 -2.23825 1.5367 0
M  V30 416 C 39.6546 -0.609407 3.54703 0
M  V30 417 C 39.2626 0.611192 4.43811 0
M  V30 418 C 41.0066 -1.18188 4.07715 0
M  V30 419 C 38.9136 0.288805 5.90694 0
M  V30 420 H 37.8436 -0.120979 0.744231 0
M  V30 421 H 40.4946 0.40556 1.78962 0
M  V30 422 H 38.8766 -1.38813 3.70873 0
M  V30 423 H 40.0506 1.3875 4.39414 0
M  V30 424 H 38.3656 1.10205 4.01552 0
M  V30 425 H 40.9626 -1.43727 5.15021 0
M  V30 426 H 41.3056 -2.12299 3.58099 0
M  V30 427 H 41.8386 -0.464944 3.95074 0
M  V30 428 H 38.5776 1.19838 6.44453 0
M  V30 429 H 38.0976 -0.450305 5.98107 0
M  V30 430 H 39.7766 -0.110933 6.46905 0
M  V30 431 N 39.9087 -1.5758 0.0250728 0
M  V30 432 C 40.8187 -2.1343 -0.973905 0
M  V30 433 C 41.8347 -1.08556 -1.35984 0
M  V30 434 O 43.0107 -1.40592 -1.44207 0
M  V30 435 C 40.0757 -2.64703 -2.23904 0
M  V30 436 C 39.1367 -3.84276 -1.91391 0
M  V30 437 C 38.3697 -4.33095 -3.11873 0
M  V30 438 O 38.5927 -3.81107 -4.24398 0
M  V30 439 O 37.5267 -5.24984 -2.94406 0
M  V30 440 H 41.3527 -2.99057 -0.529036 0
M  V30 441 H 38.9377 -1.48118 -0.195288 0
M  V30 442 H 40.8197 -2.97769 -2.98181 0
M  V30 443 H 39.4947 -1.82161 -2.6758 0
M  V30 444 H 38.4017 -3.56143 -1.14511 0
M  V30 445 H 39.7347 -4.67968 -1.52534 0
M  V30 446 N 41.3868 0.248026 -1.55636 0
M  V30 447 C 42.3338 1.30707 -1.90222 0
M  V30 448 C 43.3038 1.47881 -0.756332 0
M  V30 449 O 44.4888 1.61883 -1.00988 0
M  V30 450 C 41.6288 2.65769 -2.20138 0
M  V30 451 C 40.7418 2.56612 -3.47526 0
M  V30 452 C 39.8768 3.8402 -3.67017 0
M  V30 453 C 38.9158 3.69476 -4.8801 0
M  V30 454 N 38.0528 4.88774 -5.04029 0
M  V30 455 H 42.8928 1.00512 -2.80538 0
M  V30 456 H 40.4298 0.485055 -1.38873 0
M  V30 457 H 42.3878 3.44386 -2.35487 0
M  V30 458 H 41.0178 2.94115 -1.33027 0
M  V30 459 H 40.0698 1.69571 -3.40514 0
M  V30 460 H 41.3818 2.41774 -4.36287 0
M  V30 461 H 40.5358 4.7108 -3.8232 0
M  V30 462 H 39.2748 4.01754 -2.76487 0
M  V30 463 H 38.2798 2.80799 -4.72686 0
M  V30 464 H 39.5048 3.53238 -5.8 0
M  V30 465 H 37.4508 5.0687 -4.16435 0
M  V30 466 H 37.3678 4.76562 -5.86877 0
M  V30 467 H 38.6358 5.77335 -5.23741 0
M  V30 468 N 42.8649 1.48995 0.513639 0
M  V30 469 C 44.2809 1.35478 0.843682 0
M  V30 470 C 44.4809 0.378213 1.97919 0
M  V30 471 O 43.5369 -0.194689 2.51748 0
M  V30 472 C 44.8499 2.75901 1.1958 0
M  V30 473 C 46.3979 2.84509 1.30474 0
M  V30 474 C 46.8729 4.25671 1.69021 0
M  V30 475 N 48.3639 4.28422 1.76094 0
M  V30 476 C 49.0989 5.34601 2.07338 0
M  V30 477 N 48.5949 6.5104 2.36894 0
M  V30 478 N 50.3879 5.22007 2.08483 0
M  V30 479 H 42.5389 2.11092 -0.235328 0
M  V30 480 H 44.8019 0.947039 -0.0426669 0
M  V30 481 H 44.5079 3.49001 0.434913 0
M  V30 482 H 44.3819 3.10467 2.1422 0
M  V30 483 H 46.7689 2.11655 2.05637 0
M  V30 484 H 46.8499 2.53542 0.339155 0
M  V30 485 H 46.4939 4.99048 0.944135 0
M  V30 486 H 46.4239 4.54094 2.66658 0
M  V30 487 H 48.9149 3.44441 1.55464 0
M  V30 488 H 49.2279 7.2779 2.59887 0
M  V30 489 H 47.5729 6.54287 2.34378 0
M  V30 490 H 50.7639 4.30051 1.84861 0
M  V30 491 H 50.9369 6.04854 2.325 0
M  V30 492 N 44.343 -0.763751 1.37857 0
M  V30 493 C 45.592 -1.51789 1.32827 0
M  V30 494 C 45.905 -1.95426 -0.0823719 0
M  V30 495 O 47.111 -2.70298 -0.255172 0
M  V30 496 C 45.567 -2.74133 2.33193 0
M  V30 497 C 45.175 -2.37562 3.79827 0
M  V30 498 C 46.919 -3.52054 2.37188 0
M  V30 499 C 44.826 -3.56456 4.71904 0
M  V30 500 H 43.756 -0.569896 0.493695 0
M  V30 501 H 46.407 -0.835822 1.63359 0
M  V30 502 H 44.789 -3.4427 1.9569 0
M  V30 503 H 45.963 -1.75157 4.26212 0
M  V30 504 H 44.278 -1.72798 3.78853 0
M  V30 505 H 46.875 -4.40437 3.03182 0
M  V30 506 H 47.218 -3.92486 1.38782 0
M  V30 507 H 47.751 -2.88921 2.7344 0
M  V30 508 H 44.49 -3.21099 5.71468 0
M  V30 509 H 44.01 -4.17938 4.30218 0
M  V30 510 H 45.689 -4.23168 4.89426 0
M  V30 511 N 45.8211 -1.22559 -0.990812 0
M  V30 512 C 46.7841 -0.998863 -2.0629 0
M  V30 513 C 47.7841 0.0354834 -1.60761 0
M  V30 514 O 48.9741 -0.203231 -1.7301 0
M  V30 515 C 46.1061 -0.509203 -3.37076 0
M  V30 516 H 47.2991 -1.95014 -2.27837 0
M  V30 517 H 44.8521 -1.04456 -1.16269 0
M  V30 518 H 45.5871 0.446335 -3.21214 0
M  V30 519 H 45.3721 -1.25547 -3.71457 0
M  V30 520 H 46.8621 -0.370888 -4.1595 0
M  V30 521 N 47.2992 1.18797 -1.03562 0
M  V30 522 C 48.5482 1.87978 -0.731235 0
M  V30 523 C 48.8612 1.80911 0.743671 0
M  V30 524 O 50.0672 2.45407 1.16137 0
M  V30 525 C 48.5232 3.3721 -1.25768 0
M  V30 526 C 48.1312 3.52818 -2.76085 0
M  V30 527 C 49.8752 4.11825 -1.0296 0
M  V30 528 C 47.7822 4.9598 -3.22114 0
M  V30 529 H 46.7122 0.704063 -0.269835 0
M  V30 530 H 49.3632 1.34266 -1.25079 0
M  V30 531 H 47.7452 3.90359 -0.666011 0
M  V30 532 H 48.9192 3.09965 -3.40966 0
M  V30 533 H 47.2342 2.91602 -2.97249 0
M  V30 534 H 49.8312 5.17411 -1.34869 0
M  V30 535 H 50.1742 4.16287 0.0333546 0
M  V30 536 H 50.7072 3.64833 -1.58562 0
M  V30 537 H 47.4462 4.96684 -4.27768 0
M  V30 538 H 46.9662 5.39569 -2.61965 0
M  V30 539 H 48.6452 5.6467 -3.15844 0
M  V30 540 N 48.7773 0.814389 1.34928 0
M  V30 541 C 49.7093 0.187834 2.28429 0
M  V30 542 C 50.7223 -0.617374 1.5064 0
M  V30 543 O 51.9113 -0.448454 1.72775 0
M  V30 544 C 49.0113 -0.755962 3.30361 0
M  V30 545 C 48.1843 0.00456686 4.374 0
M  V30 546 C 47.2433 -0.858876 5.19143 0
M  V30 547 O 46.2693 -0.306968 5.68372 0
M  V30 548 N 47.4713 -2.17988 5.38016 0
M  V30 549 H 50.2363 0.991105 2.82838 0
M  V30 550 H 47.7973 0.670561 1.4736 0
M  V30 551 H 49.7893 -1.338 3.81942 0
M  V30 552 H 48.3593 -1.46001 2.7641 0
M  V30 553 H 47.5793 0.767865 3.86649 0
M  V30 554 H 48.8673 0.528422 5.06049 0
M  V30 555 H 48.2653 -2.65212 4.99679 0
M  V30 556 H 46.8223 -2.71098 5.92747 0
M  V30 557 N 50.2554 -1.46986 0.568584 0
M  V30 558 C 51.2024 -2.30153 -0.172707 0
M  V30 559 C 52.1724 -1.39759 -0.897586 0
M  V30 560 O 53.3574 -1.68716 -0.891044 0
M  V30 561 C 50.4974 -3.23952 -1.1895 0
M  V30 562 C 49.6104 -4.29441 -0.469517 0
M  V30 563 C 48.7454 -5.1038 -1.47259 0
M  V30 564 C 47.7844 -6.07632 -0.738225 0
M  V30 565 N 46.9214 -6.8149 -1.68868 0
M  V30 566 H 51.7614 -2.93019 0.542596 0
M  V30 567 H 49.2984 -1.44422 0.279401 0
M  V30 568 H 51.2564 -3.76767 -1.79173 0
M  V30 569 H 49.8864 -2.62926 -1.87269 0
M  V30 570 H 48.9384 -3.79594 0.247467 0
M  V30 571 H 50.2504 -4.98689 0.105241 0
M  V30 572 H 49.4044 -5.67402 -2.14803 0
M  V30 573 H 48.1434 -4.4106 -2.08128 0
M  V30 574 H 47.1484 -5.49778 -0.0489293 0
M  V30 575 H 48.3734 -6.78966 -0.135129 0
M  V30 576 H 46.3194 -6.14891 -2.28573 0
M  V30 577 H 46.2364 -7.46948 -1.16636 0
M  V30 578 H 47.5044 -7.43078 -2.3549 0
M  V30 579 N 51.7335 -0.305618 -1.54608 0
M  V30 580 C 52.6435 0.57778 -2.27374 0
M  V30 581 C 53.6595 1.14451 -1.31061 0
M  V30 582 O 54.8355 1.16831 -1.6405 0
M  V30 583 C 51.9005 1.73123 -3.00382 0
M  V30 584 C 50.9615 1.19812 -4.12242 0
M  V30 585 C 50.1945 2.2966 -4.81759 0
M  V30 586 O 50.4175 3.49651 -4.50666 0
M  V30 587 O 49.3515 1.96091 -5.69062 0
M  V30 588 H 53.1775 -0.012624 -3.03697 0
M  V30 589 H 50.7625 -0.0719184 -1.49227 0
M  V30 590 H 52.6445 2.40315 -3.4616 0
M  V30 591 H 51.3195 2.30815 -2.26949 0
M  V30 592 H 50.2265 0.491798 -3.70853 0
M  V30 593 H 51.5595 0.666566 -4.87666 0
M  V30 594 N 53.2116 1.57565 -0.0334293 0
M  V30 595 C 54.1586 2.10478 0.946981 0
M  V30 596 C 55.1286 1.00787 1.32027 0
M  V30 597 O 56.3136 1.28232 1.41284 0
M  V30 598 C 53.4536 2.63994 2.22263 0
M  V30 599 C 52.5666 3.87709 1.90541 0
M  V30 600 C 51.7016 4.29604 3.12433 0
M  V30 601 C 50.7406 5.46065 2.76549 0
M  V30 602 N 49.8776 5.83096 3.9108 0
M  V30 603 H 54.7176 2.93963 0.488846 0
M  V30 604 H 52.2546 1.45296 0.22969 0
M  V30 605 H 54.2126 2.93114 2.96884 0
M  V30 606 H 52.8426 1.83333 2.65685 0
M  V30 607 H 51.8946 3.65291 1.06144 0
M  V30 608 H 53.2066 4.72403 1.60116 0
M  V30 609 H 52.3606 4.60182 3.9537 0
M  V30 610 H 51.0996 3.43685 3.46023 0
M  V30 611 H 50.1046 5.15176 1.92026 0
M  V30 612 H 51.3296 6.33685 2.44171 0
M  V30 613 H 49.2756 5.00132 4.24504 0
M  V30 614 H 49.1926 6.6244 3.64293 0
M  V30 615 H 50.4606 6.18282 4.74708 0
M  V30 616 N 54.6897 -0.239769 1.55765 0
M  V30 617 C 55.6367 -1.29696 1.90913 0
M  V30 618 C 56.6067 -1.47478 0.764164 0
M  V30 619 O 57.7917 -1.61345 1.01845 0
M  V30 620 C 54.9317 -2.64598 2.21544 0
M  V30 621 C 54.0447 -2.54765 3.48882 0
M  V30 622 C 53.1797 -3.82069 3.69049 0
M  V30 623 C 52.2187 -3.66883 4.89963 0
M  V30 624 N 51.3557 -4.86094 5.06614 0
M  V30 625 H 56.1957 -0.990224 2.81067 0
M  V30 626 H 53.7327 -0.477684 1.39128 0
M  V30 627 H 55.6907 -3.43132 2.3731 0
M  V30 628 H 54.3207 -2.93405 1.34585 0
M  V30 629 H 53.3727 -1.67763 3.41409 0
M  V30 630 H 54.6847 -2.39457 4.37563 0
M  V30 631 H 53.8387 -4.69046 3.84812 0
M  V30 632 H 52.5777 -4.00282 2.78614 0
M  V30 633 H 51.5827 -2.78289 4.74168 0
M  V30 634 H 52.8077 -3.50157 5.81865 0
M  V30 635 H 50.7537 -5.04655 4.19117 0
M  V30 636 H 50.6707 -4.73443 5.89396 0
M  V30 637 H 51.9387 -5.74549 5.26795 0
M  V30 638 N 56.1678 -1.49265 -0.50573 0
M  V30 639 C 57.1148 -1.65585 -1.6078 0
M  V30 640 C 58.0848 -0.497396 -1.58478 0
M  V30 641 O 59.2698 -0.72385 -1.76536 0
M  V30 642 C 56.4098 -1.72408 -2.98948 0
M  V30 643 C 55.5228 -2.99525 -3.11301 0
M  V30 644 C 54.6578 -2.97356 -4.40174 0
M  V30 645 C 53.6968 -4.19074 -4.46143 0
M  V30 646 N 52.8338 -4.14841 -5.66437 0
M  V30 647 H 57.6738 -2.59688 -1.46172 0
M  V30 648 H 55.2108 -1.28761 -0.711261 0
M  V30 649 H 57.1688 -1.74344 -3.79025 0
M  V30 650 H 55.7988 -0.817753 -3.1227 0
M  V30 651 H 54.8508 -3.07222 -2.24318 0
M  V30 652 H 56.1628 -3.89518 -3.11572 0
M  V30 653 H 55.3168 -2.97829 -5.28567 0
M  V30 654 H 54.0558 -2.05133 -4.42461 0
M  V30 655 H 53.0608 -4.1885 -3.56153 0
M  V30 656 H 54.2858 -5.12483 -4.45575 0
M  V30 657 H 52.2318 -3.25453 -5.69575 0
M  V30 658 H 52.1488 -4.98564 -5.68304 0
M  V30 659 H 53.4168 -4.1941 -6.57051 0
M  V30 660 N 57.6459 0.756429 -1.3826 0
M  V30 661 C 58.8709 1.55077 -1.37717 0
M  V30 662 C 59.2959 1.88073 0.03164 0
M  V30 663 O 58.6539 1.50364 1.01293 0
M  V30 664 C 58.7019 2.8283 -2.23695 0
M  V30 665 O 57.8059 3.77862 -1.6521 0
M  V30 666 H 57.1469 0.469152 -0.469885 0
M  V30 667 H 59.6769 0.935019 -1.81985 0
M  V30 668 H 59.6869 3.31783 -2.37453 0
M  V30 669 H 58.3619 2.58144 -3.2609 0
M  V30 670 H 56.9389 3.36555 -1.60578 0
M  V30 671 N 59.124 1.23083 0.984299 0
M  V30 672 C 60.071 1.00854 2.07598 0
M  V30 673 C 61.041 -0.0726709 1.65941 0
M  V30 674 O 62.226 0.0786535 1.90638 0
M  V30 675 C 59.366 0.601645 3.39815 0
M  V30 676 C 58.479 1.75456 3.94765 0
M  V30 677 C 57.614 1.29482 5.15177 0
M  V30 678 C 56.653 2.41873 5.62284 0
M  V30 679 N 55.79 1.96885 6.73929 0
M  V30 680 H 60.63 1.943 2.25946 0
M  V30 681 H 58.167 0.968001 1.10762 0
M  V30 682 H 60.125 0.346854 4.15756 0
M  V30 683 H 58.755 -0.295803 3.21442 0
M  V30 684 H 57.807 2.12346 3.15616 0
M  V30 685 H 59.119 2.59965 4.25699 0
M  V30 686 H 58.273 0.997923 5.98437 0
M  V30 687 H 57.012 0.420046 4.85888 0
M  V30 688 H 56.017 2.72342 4.77608 0
M  V30 689 H 57.242 3.29881 5.93595 0
M  V30 690 H 55.188 1.11782 6.46406 0
M  V30 691 H 55.105 2.74956 7.04227 0
M  V30 692 H 56.373 1.70289 7.60672 0
M  V30 693 N 60.6021 -1.18246 1.0419 0
M  V30 694 C 61.8791 -1.84121 0.660208 0
M  V30 695 C 62.2591 -1.92778 -0.860221 0
M  V30 696 O 61.6071 -1.45464 -1.76217 0
M  V30 697 C 61.8171 -3.22355 1.33747 0
M  V30 698 C 63.1651 -3.98376 1.46906 0
M  V30 699 O 64.1891 -3.31799 1.29568 0
M  V30 700 O 63.0481 -5.17665 1.75171 0
M  V30 701 H 60.1421 -0.794036 0.231161 0
M  V30 702 H 62.6881 -1.25628 1.14087 0
M  V30 703 H 61.4601 -3.10964 2.37522 0
M  V30 704 H 61.0831 -3.88506 0.845515 0
M  V30 705 N 62.0802 -0.821533 -1.34494 0
M  V30 706 C 63.0122 -0.199946 -2.28326 0
M  V30 707 C 64.0252 0.609377 -1.50965 0
M  V30 708 O 65.2142 0.439285 -1.7301 0
M  V30 709 C 62.3142 0.738431 -3.30757 0
M  V30 710 C 61.4872 -0.0277632 -4.37391 0
M  V30 711 C 60.5462 0.831332 -5.19591 0
M  V30 712 O 59.5722 0.276822 -5.68526 0
M  V30 713 N 60.7742 2.15132 -5.39165 0
M  V30 714 H 63.5392 -1.00609 -2.82308 0
M  V30 715 H 61.1002 -0.678366 -1.47003 0
M  V30 716 H 63.0922 1.31773 -3.82646 0
M  V30 717 H 61.6622 1.44533 -2.7718 0
M  V30 718 H 60.8822 -0.788359 -3.86236 0
M  V30 719 H 62.1702 -0.555251 -5.05761 0
M  V30 720 H 61.5682 2.62559 -5.01078 0
M  V30 721 H 60.1252 2.6795 -5.94177 0
M  V30 722 N 63.5583 1.46682 -0.576371 0
M  V30 723 C 64.7863 2.06798 -0.0649635 0
M  V30 724 C 65.2013 1.42612 1.23723 0
M  V30 725 O 64.5583 0.529203 1.74659 0
M  V30 726 C 64.6093 3.6132 0.114202 0
M  V30 727 O 64.3303 4.23104 -1.13644 0
M  V30 728 C 65.8313 4.38349 0.66069 0
M  V30 729 H 63.0513 0.668778 -0.0545616 0
M  V30 730 H 65.5953 1.88404 -0.795237 0
M  V30 731 H 63.7503 3.79162 0.794673 0
M  V30 732 H 64.1643 5.15894 -0.946253 0
M  V30 733 H 65.6383 5.47081 0.73526 0
M  V30 734 H 66.1153 4.05953 1.67627 0
M  V30 735 H 66.7213 4.25297 0.0152951 0
M  V30 736 N 65.0364 0.313813 1.54444 0
M  V30 737 C 66.2844 -0.291099 1.99993 0
M  V30 738 C 66.6054 -1.53418 1.20366 0
M  V30 739 O 65.8754 -1.93544 0.302927 0
M  V30 740 H 64.4554 -0.110552 0.738774 0
M  V30 741 H 67.1174 0.428106 1.9014 0
M  V30 742 H 66.2134 -0.554268 3.07139 0
M  V30 743 N 66.5145 -1.57545 0.0417849 0
M  V30 744 C 67.4245 -2.14451 -0.951213 0
M  V30 745 C 68.4405 -1.09992 -1.34825 0
M  V30 746 O 69.6165 -1.42114 -1.42708 0
M  V30 747 C 66.6815 -2.67063 -2.21084 0
M  V30 748 C 65.7425 -3.86284 -1.87304 0
M  V30 749 C 64.9755 -4.36378 -3.07261 0
M  V30 750 O 65.1985 -3.85587 -4.20332 0
M  V30 751 O 64.1325 -5.28077 -2.88822 0
M  V30 752 H 67.9585 -2.99601 -0.497287 0
M  V30 753 H 65.5435 -1.48317 -0.179567 0
M  V30 754 H 67.4255 -3.00914 -2.95006 0
M  V30 755 H 66.1005 -1.84989 -2.65633 0
M  V30 756 H 65.0075 -3.57338 -1.10727 0
M  V30 757 H 66.3405 -4.6956 -1.47562 0
M  V30 758 N 67.9926 0.231505 -1.5589 0
M  V30 759 C 69.2386 0.95877 -1.78705 0
M  V30 760 C 69.5716 1.8438 -0.609725 0
M  V30 761 O 68.8466 1.90521 0.391426 0
M  V30 762 C 69.1296 1.8062 -3.11526 0
M  V30 763 C 68.9826 0.948328 -4.39689 0
M  V30 764 C 70.3016 2.78585 -3.40703 0
M  V30 765 H 67.4206 0.347129 -0.650131 0
M  V30 766 H 70.0626 0.228259 -1.88624 0
M  V30 767 H 68.2126 2.42902 -3.03201 0
M  V30 768 H 69.8846 0.343016 -4.60023 0
M  V30 769 H 68.1276 0.253314 -4.3306 0
M  V30 770 H 68.7986 1.57543 -5.29041 0
M  V30 771 H 71.2746 2.26439 -3.49091 0
M  V30 772 H 70.1506 3.34988 -4.34826 0
M  V30 773 H 70.4116 3.55825 -2.62375 0
M  V30 774 N 69.4707 1.49531 0.497807 0
M  V30 775 C 70.8817 1.52344 1.07927 0
M  V30 776 C 71.2327 0.311469 1.93712 0
M  V30 777 O 70.3577 -0.578405 2.08527 0
M  V30 778 C 70.9527 2.76062 1.96405 0
M  V30 779 C 69.5117 2.81643 2.49709 0
M  V30 780 C 68.6587 2.46299 1.27404 0
M  V30 781 H 71.6097 1.56182 0.281576 0
M  V30 782 H 71.6307 2.56405 2.81135 0
M  V30 783 H 71.1427 3.64254 1.33943 0
M  V30 784 H 69.2437 1.97739 3.15801 0
M  V30 785 H 69.3567 3.83891 2.86643 0
M  V30 786 H 67.7207 1.98148 1.60029 0
M  V30 787 H 68.5037 3.36769 0.66645 0
M  V30 788 N 70.9488 -0.749086 1.3866 0
M  V30 789 C 71.8808 -1.87273 1.32142 0
M  V30 790 C 72.8938 -1.61127 0.232787 0
M  V30 791 O 74.0828 -1.71623 0.49069 0
M  V30 792 C 71.1828 -3.23005 1.02571 0
M  V30 793 C 70.3558 -3.7662 2.22433 0
M  V30 794 C 69.4148 -4.90879 1.89537 0
M  V30 795 O 68.4408 -5.05276 2.62078 0
M  V30 796 N 69.6428 -5.74198 0.853031 0
M  V30 797 H 72.4078 -1.93373 2.28969 0
M  V30 798 H 69.9688 -0.929216 1.32579 0
M  V30 799 H 71.9608 -3.96992 0.786085 0
M  V30 800 H 70.5308 -3.12262 0.145249 0
M  V30 801 H 69.7508 -2.94147 2.62434 0
M  V30 802 H 71.0388 -4.09173 3.02415 0
M  V30 803 H 70.4368 -5.6514 0.25155 0
M  V30 804 H 68.9938 -6.48313 0.67329 0
M  V30 805 N 72.4269 -1.23603 -0.977757 0
M  V30 806 C 73.8379 -1.06424 -1.53398 0
M  V30 807 C 74.1889 0.367578 -1.92726 0
M  V30 808 O 73.3139 1.25465 -1.76316 0
M  V30 809 C 73.9089 -1.92568 -2.78753 0
M  V30 810 C 72.4679 -1.79642 -3.30765 0
M  V30 811 C 71.6149 -1.88111 -2.03739 0
M  V30 812 H 74.5659 -1.37227 -0.797152 0
M  V30 813 H 74.5869 -1.45203 -3.51705 0
M  V30 814 H 74.0989 -2.96771 -2.50098 0
M  V30 815 H 72.1999 -0.782325 -3.64294 0
M  V30 816 H 72.3129 -2.63174 -4.00345 0
M  V30 817 H 70.6769 -1.31723 -2.17994 0
M  V30 818 H 71.4599 -2.93875 -1.77461 0
M  V30 819 N 73.905 1.17692 -1.04816 0
M  V30 820 C 75.321 1.39863 -0.768794 0
M  V30 821 C 75.521 1.91118 0.638451 0
M  V30 822 O 74.577 2.10036 1.40146 0
M  V30 823 C 75.89 2.39274 -1.82122 0
M  V30 824 C 77.438 2.52987 -1.843 0
M  V30 825 C 77.913 3.55669 -2.88555 0
M  V30 826 N 79.404 3.63183 -2.87493 0
M  V30 827 C 80.139 4.42381 -3.64811 0
M  V30 828 N 79.635 5.25125 -4.51903 0
M  V30 829 N 81.428 4.37217 -3.53267 0
M  V30 830 H 73.579 0.82752 -1.95617 0
M  V30 831 H 75.842 0.426123 -0.846831 0
M  V30 832 H 75.548 2.08678 -2.83102 0
M  V30 833 H 75.422 3.38725 -1.65967 0
M  V30 834 H 77.809 2.82896 -0.839869 0
M  V30 835 H 77.89 1.53623 -2.04532 0
M  V30 836 H 77.534 3.26499 -3.89051 0
M  V30 837 H 77.464 4.54728 -2.65575 0
M  V30 838 H 79.955 3.04103 -2.24343 0
M  V30 839 H 80.268 5.82728 -5.07591 0
M  V30 840 H 78.613 5.24519 -4.55966 0
M  V30 841 H 81.804 3.71626 -2.84625 0
M  V30 842 H 81.977 4.98696 -4.13771 0
M  V30 843 N 75.3831 0.828654 1.34056 0
M  V30 844 C 76.7941 0.477534 1.8049 0
M  V30 845 C 77.1451 -1.00258 1.6865 0
M  V30 846 O 76.2701 -1.78057 1.22982 0
M  V30 847 C 76.8651 0.860018 3.27703 0
M  V30 848 C 75.4241 0.561185 3.72193 0
M  V30 849 C 74.5711 1.07385 2.55663 0
M  V30 850 H 77.5221 1.0183 1.21722 0
M  V30 851 H 77.5431 0.166038 3.80138 0
M  V30 852 H 77.0551 1.93731 3.36288 0
M  V30 853 H 75.1561 -0.506465 3.69142 0
M  V30 854 H 75.2691 1.10926 4.66082 0
M  V30 855 H 73.6331 0.495149 2.49841 0
M  V30 856 H 74.4161 2.15771 2.67016 0
M  V30 857 N 76.8612 -1.46375 0.584142 0
M  V30 858 C 77.7932 -2.28443 -0.186119 0
M  V30 859 C 78.8062 -1.38596 -0.854115 0
M  V30 860 O 79.9952 -1.63183 -0.723438 0
M  V30 861 C 77.0952 -3.13671 -1.28311 0
M  V30 862 C 76.2682 -4.31652 -0.706758 0
M  V30 863 C 75.3272 -4.98267 -1.69163 0
M  V30 864 O 74.3532 -5.55815 -1.22712 0
M  V30 865 N 75.5552 -4.95408 -3.02575 0
M  V30 866 H 78.3202 -2.9519 0.517986 0
M  V30 867 H 75.8812 -1.56303 0.42201 0
M  V30 868 H 77.8732 -3.55101 -1.94128 0
M  V30 869 H 76.4432 -2.48989 -1.89005 0
M  V30 870 H 75.6632 -3.93989 0.128908 0
M  V30 871 H 76.9512 -5.07906 -0.301506 0
M  V30 872 H 76.3492 -4.49902 -3.42936 0
M  V30 873 H 74.9062 -5.40774 -3.63877 0
M  V30 874 N 78.3393 -0.321999 -1.54275 0
M  V30 875 C 79.2693 0.537411 -2.27231 0
M  V30 876 C 80.2503 1.12064 -1.27968 0
M  V30 877 O 81.4353 1.14606 -1.56777 0
M  V30 878 C 78.5653 1.69919 -3.02894 0
M  V30 879 C 77.5193 1.24534 -4.09482 0
M  V30 880 C 76.8453 2.49394 -4.72977 0
M  V30 881 C 78.1453 0.361335 -5.21049 0
M  V30 882 H 79.8393 -0.0711406 -2.99315 0
M  V30 883 H 77.3853 -0.0356555 -1.43956 0
M  V30 884 H 79.3383 2.30668 -3.52662 0
M  V30 885 H 78.0623 2.33431 -2.28424 0
M  V30 886 H 76.7213 0.660782 -3.60596 0
M  V30 887 H 76.3693 3.11265 -3.95124 0
M  V30 888 H 76.0693 2.19718 -5.44975 0
M  V30 889 H 77.5933 3.10908 -5.25517 0
M  V30 890 H 79.0073 0.875072 -5.66582 0
M  V30 891 H 77.4043 0.157428 -5.99893 0
M  V30 892 H 78.4743 -0.60822 -4.8107 0
M  V30 893 N 79.8174 1.5752 -0.0501392 0
M  V30 894 C 81.0944 1.83996 0.663685 0
M  V30 895 C 81.4744 0.938339 1.89099 0
M  V30 896 O 80.8224 -0.00087759 2.285 0
M  V30 897 C 81.0324 3.33702 1.02196 0
M  V30 898 C 82.3804 4.00691 1.40469 0
M  V30 899 O 83.4044 3.38321 1.11433 0
M  V30 900 O 82.2634 5.10658 1.94654 0
M  V30 901 H 79.3574 0.759385 0.32751 0
M  V30 902 H 81.9034 1.69514 -0.0794238 0
M  V30 903 H 80.6754 3.91015 0.149364 0
M  V30 904 H 80.2984 3.53368 1.82255 0
M  V30 905 N 81.2955 -0.223234 1.56011 0
M  V30 906 C 82.2255 -1.27988 1.95298 0
M  V30 907 C 83.2065 -1.48976 0.820979 0
M  V30 908 O 84.3915 -1.61188 1.08315 0
M  V30 909 C 81.5215 -2.63 2.26822 0
M  V30 910 C 80.4755 -2.56671 3.42497 0
M  V30 911 C 79.8015 -3.95697 3.59622 0
M  V30 912 C 81.1015 -2.11601 4.77517 0
M  V30 913 H 82.7955 -0.953525 2.8381 0
M  V30 914 H 80.3415 -0.457244 1.36548 0
M  V30 915 H 82.2945 -3.37077 2.52898 0
M  V30 916 H 81.0185 -2.9732 1.35161 0
M  V30 917 H 79.6775 -1.85051 3.16467 0
M  V30 918 H 79.3255 -4.27322 2.6534 0
M  V30 919 H 79.0255 -3.92345 4.37424 0
M  V30 920 H 80.5495 -4.71438 3.88044 0
M  V30 921 H 81.9635 -2.7542 5.02809 0
M  V30 922 H 80.3605 -2.19311 5.5859 0
M  V30 923 H 81.4305 -1.06824 4.72987 0
M  V30 924 N 82.7736 -1.49793 -0.48987 0
M  V30 925 C 83.7206 -1.67281 -1.59014 0
M  V30 926 C 84.6906 -0.514177 -1.57941 0
M  V30 927 O 85.8756 -0.742533 -1.75759 0
M  V30 928 C 83.0156 -1.75569 -2.97102 0
M  V30 929 C 82.1286 -3.0281 -3.08107 0
M  V30 930 C 81.2636 -3.02008 -4.36995 0
M  V30 931 C 80.3026 -4.23782 -4.41673 0
M  V30 932 N 79.4396 -4.20826 -5.62005 0
M  V30 933 H 84.2796 -2.61224 -1.43409 0
M  V30 934 H 81.8166 -1.29508 -0.697565 0
M  V30 935 H 83.7746 -1.78354 -3.77155 0
M  V30 936 H 82.4046 -0.850827 -3.11385 0
M  V30 937 H 81.4566 -3.09584 -2.21047 0
M  V30 938 H 82.7686 -3.92801 -3.07423 0
M  V30 939 H 81.9226 -3.03418 -5.25378 0
M  V30 940 H 80.6616 -2.09815 -4.4026 0
M  V30 941 H 79.6666 -4.22604 -3.5169 0
M  V30 942 H 80.8916 -5.17181 -4.40115 0
M  V30 943 H 78.8376 -3.31476 -5.66091 0
M  V30 944 H 78.7546 -5.04564 -5.62984 0
M  V30 945 H 80.0226 -4.26355 -6.52565 0
M  V30 946 N 84.2517 0.741722 -1.39055 0
M  V30 947 C 85.2147 1.83733 -1.37021 0
M  V30 948 C 86.2147 1.58542 -0.268534 0
M  V30 949 O 87.4047 1.66067 -0.526076 0
M  V30 950 C 84.5367 3.2141 -1.13617 0
M  V30 951 H 85.7297 1.86941 -2.34506 0
M  V30 952 H 83.2827 0.944676 -1.24521 0
M  V30 953 H 84.0177 3.23865 -0.167863 0
M  V30 954 H 83.8027 3.4109 -1.93391 0
M  V30 955 H 85.2927 4.01477 -1.14918 0
M  V30 956 N 85.7298 1.2412 0.971189 0
M  V30 957 C 86.9548 1.10667 1.75407 0
M  V30 958 C 87.3798 -0.337048 1.85056 0
M  V30 959 O 86.7378 -1.24396 1.31892 0
M  V30 960 C 86.7858 1.74726 3.15441 0
M  V30 961 O 85.8898 1.01566 3.99697 0
M  V30 962 H 85.2308 0.387341 0.539317 0
M  V30 963 H 87.7608 1.64358 1.2185 0
M  V30 964 H 87.7708 1.80341 3.6598 0
M  V30 965 H 86.4458 2.79773 3.07734 0
M  V30 966 H 85.0228 1.03713 3.58187 0
M  V30 967 N 87.2079 -1.17134 1.05439 0
M  V30 968 C 88.6239 -1.39454 0.776201 0
M  V30 969 C 88.8239 -1.91454 -0.628307 0
M  V30 970 O 87.8799 -2.10777 -1.39031 0
M  V30 971 C 89.1929 -2.38305 1.83388 0
M  V30 972 C 90.7409 -2.52006 1.85639 0
M  V30 973 C 91.2159 -3.54133 2.90437 0
M  V30 974 N 92.7069 -3.61653 2.89415 0
M  V30 975 C 93.4419 -4.4044 3.67152 0
M  V30 976 N 92.9379 -5.22721 4.54681 0
M  V30 977 N 94.7309 -4.35337 3.55581 0
M  V30 978 H 86.8819 -0.817134 1.96053 0
M  V30 979 H 89.1449 -0.421626 0.849079 0
M  V30 980 H 88.8509 -2.07173 2.84204 0
M  V30 981 H 88.7249 -3.37841 1.67761 0
M  V30 982 H 91.1119 -2.82447 0.85486 0
M  V30 983 H 91.1929 -1.52537 2.05344 0
M  V30 984 H 90.8369 -3.24431 3.90777 0
M  V30 985 H 90.7669 -4.53313 2.67983 0
M  V30 986 H 93.2579 -3.02909 2.25952 0
M  V30 987 H 93.5709 -5.80027 5.10674 0
M  V30 988 H 91.9159 -5.22093 4.58741 0
M  V30 989 H 95.1069 -3.70112 2.86592 0
M  V30 990 H 95.2799 -4.96494 4.1641 0
M  V30 991 N 88.686 -0.835752 -1.33615 0
M  V30 992 C 89.633 -0.26473 -2.29277 0
M  V30 993 C 90.603 0.617712 -1.54187 0
M  V30 994 O 91.788 0.556641 -1.825 0
M  V30 995 C 88.928 0.556777 -3.40579 0
M  V30 996 C 88.041 -0.349339 -4.30585 0
M  V30 997 C 87.176 0.482969 -5.29 0
M  V30 998 C 86.215 -0.421732 -6.10645 0
M  V30 999 N 85.352 0.372262 -7.01112 0
M  V30 1000 H 90.192 -1.08582 -2.77514 0
M  V30 1001 H 87.729 -0.546927 -1.36554 0
M  V30 1002 H 89.687 1.04852 -4.03809 0
M  V30 1003 H 88.317 1.34286 -2.93542 0
M  V30 1004 H 87.369 -0.959372 -3.68104 0
M  V30 1005 H 88.681 -1.04445 -4.87742 0
M  V30 1006 H 87.835 1.03866 -5.97743 0
M  V30 1007 H 86.574 1.21153 -4.72412 0
M  V30 1008 H 85.579 -0.989464 -5.40823 0
M  V30 1009 H 86.804 -1.14861 -6.69316 0
M  V30 1010 H 84.75 1.08426 -6.46977 0
M  V30 1011 H 84.667 -0.264198 -7.55538 0
M  V30 1012 H 85.935 0.910293 -7.74167 0
M  V30 1013 N 90.1641 1.46063 -0.591896 0
M  V30 1014 C 91.0941 2.33172 0.123673 0
M  V30 1015 C 92.0751 1.45897 0.87453 0
M  V30 1016 O 93.2601 1.74698 0.848181 0
M  V30 1017 C 90.3901 3.28336 1.13194 0
M  V30 1018 C 89.3441 4.25124 0.495324 0
M  V30 1019 C 88.6701 5.09863 1.61071 0
M  V30 1020 C 89.9701 5.19143 -0.573425 0
M  V30 1021 H 91.6641 2.93252 -0.603646 0
M  V30 1022 H 89.2101 1.41014 -0.291741 0
M  V30 1023 H 91.1631 3.88137 1.64097 0
M  V30 1024 H 89.8871 2.66383 1.88965 0
M  V30 1025 H 88.5461 3.66599 0.00729452 0
M  V30 1026 H 88.1941 4.44288 2.35832 0
M  V30 1027 H 87.8941 5.75417 1.19035 0
M  V30 1028 H 89.4181 5.72529 2.12233 0
M  V30 1029 H 90.8321 5.73106 -0.1491 0
M  V30 1030 H 89.2291 5.93089 -0.914636 0
M  V30 1031 H 90.2991 4.62519 -1.45617 0
M  V30 1032 N 91.6422 0.330177 1.54103 0
M  V30 1033 C 93.0532 -0.15652 1.86043 0
M  V30 1034 C 93.4042 -1.51086 1.2517 0
M  V30 1035 O 92.5292 -2.09023 0.560217 0
M  V30 1036 C 93.1242 -0.290784 3.3755 0
M  V30 1037 C 91.6832 -0.721705 3.69416 0
M  V30 1038 C 90.8302 0.152622 2.7688 0
M  V30 1039 H 93.7812 0.550237 1.48856 0
M  V30 1040 H 93.8022 -1.12058 3.63625 0
M  V30 1041 H 93.3142 0.695068 3.81825 0
M  V30 1042 H 91.4152 -1.71706 3.30678 0
M  V30 1043 H 91.5282 -0.520869 4.7626 0
M  V30 1044 H 89.8922 -0.372894 2.51956 0
M  V30 1045 H 90.6752 1.13536 3.23982 0
M  V30 1046 N 93.1203 -1.57491 0.0584922 0
M  V30 1047 C 94.0673 -2.11958 -0.913376 0
M  V30 1048 C 95.0373 -1.02875 -1.30407 0
M  V30 1049 O 96.2223 -1.30464 -1.39226 0
M  V30 1050 C 93.3623 -2.67497 -2.18035 0
M  V30 1051 C 92.4753 -3.90691 -1.84349 0
M  V30 1052 C 91.6103 -4.3452 -3.05559 0
M  V30 1053 C 90.6493 -5.50395 -2.67827 0
M  V30 1054 N 89.7863 -5.89244 -3.81754 0
M  V30 1055 H 94.6263 -2.94704 -0.442017 0
M  V30 1056 H 92.1633 -1.45643 -0.206545 0
M  V30 1057 H 94.1213 -2.978 -2.92183 0
M  V30 1058 H 92.7513 -1.87537 -2.62735 0
M  V30 1059 H 91.8033 -3.66934 -1.00319 0
M  V30 1060 H 93.1153 -4.7489 -1.5258 0
M  V30 1061 H 92.2693 -4.66414 -3.87998 0
M  V30 1062 H 91.0083 -3.49147 -3.40511 0
M  V30 1063 H 90.0133 -5.18165 -1.83806 0
M  V30 1064 H 91.2383 -6.3749 -2.34059 0
M  V30 1065 H 89.1843 -5.06823 -4.16493 0
M  V30 1066 H 89.1013 -6.68151 -3.53708 0
M  V30 1067 H 90.3693 -6.25756 -4.64811 0
M  V30 1068 N 94.5984 0.214957 -1.56127 0
M  V30 1069 C 95.5284 1.2695 -1.95974 0
M  V30 1070 C 96.5094 1.48539 -0.828868 0
M  V30 1071 O 97.6944 1.60611 -1.09168 0
M  V30 1072 C 94.8244 2.61794 -2.28214 0
M  V30 1073 C 93.7784 2.54851 -3.43853 0
M  V30 1074 C 93.1044 3.93785 -3.61715 0
M  V30 1075 C 94.4044 2.09065 -4.78632 0
M  V30 1076 H 96.0984 0.93846 -2.84312 0
M  V30 1077 H 93.6444 0.449996 -1.36788 0
M  V30 1078 H 95.5974 3.35731 -2.54682 0
M  V30 1079 H 94.3214 2.96599 -1.36736 0
M  V30 1080 H 92.9804 1.8337 -3.17444 0
M  V30 1081 H 92.6284 4.25908 -2.67602 0
M  V30 1082 H 92.3284 3.90019 -4.39498 0
M  V30 1083 H 93.8524 4.69374 -3.90539 0
M  V30 1084 H 95.2664 2.7275 -5.04262 0
M  V30 1085 H 93.6634 2.16346 -5.59745 0
M  V30 1086 H 94.7334 1.04315 -4.73547 0
M  V30 1087 N 96.0765 1.50051 0.48192 0
M  V30 1088 C 97.3065 1.63999 1.2565 0
M  V30 1089 C 97.7145 0.318288 1.86504 0
M  V30 1090 O 97.0575 -0.708534 1.69486 0
M  V30 1091 C 97.1195 2.66504 2.4128 0
M  V30 1092 C 96.7835 4.10352 2.01148 0
M  V30 1093 C 97.7805 4.96562 1.54021 0
M  V30 1094 C 95.4655 4.56203 2.10199 0
M  V30 1095 C 97.4595 6.26668 1.16473 0
M  V30 1096 C 95.1465 5.86318 1.72264 0
M  V30 1097 C 96.1445 6.71375 1.25477 0
M  V30 1098 O 95.8325 7.99062 0.880626 0
M  V30 1099 H 95.5645 0.55456 0.386574 0
M  V30 1100 H 98.1185 1.96954 0.582944 0
M  V30 1101 H 96.3485 2.28769 3.11772 0
M  V30 1102 H 98.0375 2.69783 3.03268 0
M  V30 1103 H 98.8035 4.62358 1.46458 0
M  V30 1104 H 94.6825 3.90152 2.45566 0
M  V30 1105 H 98.2265 6.93011 0.798841 0
M  V30 1106 H 94.1235 6.20046 1.79482 0
M  V30 1107 H 94.8915 8.12239 1.01043 0
M  V30 1108 N 97.5546 -0.734337 1.39446 0
M  V30 1109 C 98.8026 -1.49096 1.36436 0
M  V30 1110 C 99.1236 -1.94961 -0.0388255 0
M  V30 1111 O 98.3936 -1.69033 -0.990191 0
M  V30 1112 H 96.9736 -0.5531 0.502085 0
M  V30 1113 H 99.6356 -0.871725 1.74319 0
M  V30 1114 H 98.7316 -2.37276 2.02747 0
M  V30 1115 N 99.0327 -1.24633 -0.964593 0
M  V30 1116 C 100.31 -0.995809 -1.68354 0
M  V30 1117 C 100.69 0.480964 -2.05548 0
M  V30 1118 O 100.038 1.45599 -1.76105 0
M  V30 1119 C 100.248 -1.92177 -2.91323 0
M  V30 1120 C 101.596 -2.19446 -3.63495 0
M  V30 1121 O 102.62 -1.89855 -3.01386 0
M  V30 1122 O 101.479 -2.69714 -4.75307 0
M  V30 1123 H 98.5727 -0.376854 -0.736146 0
M  V30 1124 H 101.119 -1.35745 -1.0184 0
M  V30 1125 H 99.8907 -2.91938 -2.60553 0
M  V30 1126 H 99.5137 -1.56349 -3.65569 0
M  V30 1127 N 100.511 1.16574 -1.06058 0
M  V30 1128 C 101.76 1.86385 -0.770944 0
M  V30 1129 C 102.073 1.82448 0.705129 0
M  V30 1130 O 103.279 2.47815 1.10905 0
M  V30 1131 C 101.735 3.34466 -1.32893 0
M  V30 1132 C 101.343 3.46883 -2.83507 0
M  V30 1133 C 103.087 4.09548 -1.11672 0
M  V30 1134 C 100.994 4.89036 -3.32562 0
M  V30 1135 H 99.9238 0.698181 -0.284709 0
M  V30 1136 H 102.575 1.31583 -1.27899 0
M  V30 1137 H 100.957 3.88859 -0.748662 0
M  V30 1138 H 102.131 3.02663 -3.47465 0
M  V30 1139 H 100.446 2.85232 -3.03368 0
M  V30 1140 H 103.043 5.14434 -1.45814 0
M  V30 1141 H 103.386 4.16264 -0.0549535 0
M  V30 1142 H 103.919 3.61387 -1.66265 0
M  V30 1143 H 100.658 4.87499 -4.38207 0
M  V30 1144 H 100.178 5.3389 -2.73351 0
M  V30 1145 H 101.857 5.57843 -3.2775 0
M  V30 1146 N 101.989 0.842826 1.3317 0
M  V30 1147 C 103.4 0.496651 1.79973 0
M  V30 1148 C 103.751 -0.984641 1.69703 0
M  V30 1149 O 102.876 -1.76743 1.24863 0
M  V30 1150 C 103.471 0.894727 3.26772 0
M  V30 1151 C 102.03 0.600629 3.71577 0
M  V30 1152 C 101.177 1.10091 2.5451 0
M  V30 1153 H 104.128 1.03116 1.20635 0
M  V30 1154 H 104.149 0.206347 3.7994 0
M  V30 1155 H 103.661 1.97287 3.34215 0
M  V30 1156 H 101.762 -0.467284 3.69658 0
M  V30 1157 H 101.875 1.15863 4.64879 0
M  V30 1158 H 100.239 0.52162 2.49301 0
M  V30 1159 H 101.022 2.18591 2.64713 0
M  V30 1160 N 103.467 -1.45747 0.599634 0
M  V30 1161 C 104.883 -1.57424 0.26264 0
M  V30 1162 C 105.083 -1.59222 -1.23493 0
M  V30 1163 O 104.139 -1.51825 -2.01756 0
M  V30 1164 C 105.452 -2.86061 0.926795 0
M  V30 1165 C 107 -2.99722 0.901967 0
M  V30 1166 C 107.475 -4.31119 1.54598 0
M  V30 1167 N 108.966 -4.37858 1.5111 0
M  V30 1168 C 109.701 -5.3818 1.97863 0
M  V30 1169 N 109.197 -6.45083 2.52666 0
M  V30 1170 N 110.99 -5.29487 1.88679 0
M  V30 1171 H 103.141 -1.42823 1.57211 0
M  V30 1172 H 105.404 -0.68235 0.658105 0
M  V30 1173 H 105.11 -2.90605 1.98095 0
M  V30 1174 H 104.984 -3.74563 0.445238 0
M  V30 1175 H 107.371 -2.9475 -0.143617 0
M  V30 1176 H 107.452 -2.12652 1.42171 0
M  V30 1177 H 107.096 -4.36849 2.59085 0
M  V30 1178 H 107.026 -5.16992 1.00132 0
M  V30 1179 H 109.517 -3.61209 1.11068 0
M  V30 1180 H 109.83 -7.17869 2.86155 0
M  V30 1181 H 108.175 -6.45856 2.56701 0
M  V30 1182 H 111.366 -4.44877 1.4561 0
M  V30 1183 H 111.539 -6.07524 2.25429 0
M  V30 1184 N 104.945 -0.338344 -1.53925 0
M  V30 1185 C 105.855 0.529421 -2.28548 0
M  V30 1186 C 106.871 1.11645 -1.3346 0
M  V30 1187 O 108.047 1.13325 -1.66492 0
M  V30 1188 C 105.112 1.66713 -3.03987 0
M  V30 1189 C 104.173 1.11041 -4.14691 0
M  V30 1190 C 103.406 2.19389 -4.86522 0
M  V30 1191 O 103.629 3.40013 -4.57982 0
M  V30 1192 O 102.563 1.83976 -5.73094 0
M  V30 1193 H 106.389 -0.0770399 -3.03602 0
M  V30 1194 H 103.974 -0.103555 -1.49041 0
M  V30 1195 H 105.856 2.32918 -3.5118 0
M  V30 1196 H 104.531 2.25949 -2.31794 0
M  V30 1197 H 103.438 0.413024 -3.71813 0
M  V30 1198 H 104.771 0.562975 -4.8897 0
M  V30 1199 N 106.423 1.57458 -0.0668435 0
M  V30 1200 C 107.353 2.15468 0.899764 0
M  V30 1201 C 108.334 1.08042 1.31381 0
M  V30 1202 O 109.519 1.36054 1.38574 0
M  V30 1203 C 106.649 2.71232 2.16911 0
M  V30 1204 C 105.603 3.83781 1.89463 0
M  V30 1205 C 104.929 4.26127 3.22986 0
M  V30 1206 C 106.229 5.08238 1.20381 0
M  V30 1207 H 107.923 2.96488 0.416529 0
M  V30 1208 H 105.469 1.4262 0.198908 0
M  V30 1209 H 107.422 3.10458 2.84945 0
M  V30 1210 H 106.146 1.87426 2.67468 0
M  V30 1211 H 104.805 3.45051 1.23836 0
M  V30 1212 H 104.453 3.39249 3.71374 0
M  V30 1213 H 104.153 5.01993 3.05413 0
M  V30 1214 H 105.677 4.67966 3.92225 0
M  V30 1215 H 107.091 5.44811 1.78475 0
M  V30 1216 H 105.488 5.89349 1.13083 0
M  V30 1217 H 106.558 4.84558 0.182153 0
M  V30 1218 N 107.901 -0.206675 1.56239 0
M  V30 1219 C 109.15 -0.926964 1.79138 0
M  V30 1220 C 109.463 -1.84901 0.638043 0
M  V30 1221 O 110.669 -2.60906 0.751033 0
M  V30 1222 C 109.125 -1.6986 3.17294 0
M  V30 1223 C 108.733 -0.821956 4.40395 0
M  V30 1224 C 110.477 -2.40922 3.4951 0
M  V30 1225 C 108.384 -1.59179 5.69575 0
M  V30 1226 H 107.314 -0.349864 0.667915 0
M  V30 1227 H 109.965 -0.180487 1.8261 0
M  V30 1228 H 108.347 -2.48853 3.08039 0
M  V30 1229 H 109.521 -0.0715019 4.60745 0
M  V30 1230 H 107.836 -0.222741 4.15804 0
M  V30 1231 H 110.433 -2.99047 4.43255 0
M  V30 1232 H 110.776 -3.14542 2.72707 0
M  V30 1233 H 111.309 -1.68905 3.60161 0
M  V30 1234 H 108.048 -0.898589 6.49312 0
M  V30 1235 H 107.568 -2.31648 5.53262 0
M  V30 1236 H 109.247 -2.14862 6.10281 0
M  V30 1237 N 109.379 -1.50304 -0.473955 0
M  V30 1238 C 110.627 -1.60832 -1.22382 0
M  V30 1239 C 110.948 -0.30939 -1.9253 0
M  V30 1240 O 110.218 0.67296 -1.83978 0
M  V30 1241 H 108.798 -0.592652 -0.454723 0
M  V30 1242 H 111.46 -1.87068 -0.546968 0
M  V30 1243 H 110.556 -2.41803 -1.97327 0
M  V30 1244 N 110.857 0.726932 -1.39834 0
M  V30 1245 C 111.804 1.841 -1.39197 0
M  V30 1246 C 112.774 1.642 -0.250502 0
M  V30 1247 O 113.959 1.85494 -0.446846 0
M  V30 1248 C 111.099 3.21697 -1.24919 0
M  V30 1249 C 110.212 3.53247 -2.48678 0
M  V30 1250 C 109.347 4.80289 -2.26928 0
M  V30 1251 C 108.386 5.04707 -3.4632 0
M  V30 1252 N 107.523 6.22956 -3.23836 0
M  V30 1253 H 112.363 1.83979 -2.34427 0
M  V30 1254 H 109.9 0.898876 -1.16442 0
M  V30 1255 H 111.858 4.01137 -1.1465 0
M  V30 1256 H 110.488 3.21076 -0.333153 0
M  V30 1257 H 109.54 2.68447 -2.69519 0
M  V30 1258 H 110.852 3.67205 -3.37582 0
M  V30 1259 H 110.006 5.67725 -2.13947 0
M  V30 1260 H 108.745 4.68519 -1.35431 0
M  V30 1261 H 107.75 4.1573 -3.5979 0
M  V30 1262 H 108.975 5.18357 -4.38729 0
M  V30 1263 H 106.921 6.12459 -2.35011 0
M  V30 1264 H 106.838 6.37539 -4.063 0
M  V30 1265 H 108.106 7.1321 -3.14566 0
M  V30 1266 N 112.336 1.25143 0.95797 0
M  V30 1267 C 113.747 1.08851 1.51685 0
M  V30 1268 C 114.098 -0.33687 1.93286 0
M  V30 1269 O 113.223 -1.22644 1.7829 0
M  V30 1270 C 113.818 1.96978 2.75654 0
M  V30 1271 C 112.377 1.84881 3.27866 0
M  V30 1272 C 111.524 1.91329 2.0072 0
M  V30 1273 H 114.475 1.38478 0.77522 0
M  V30 1274 H 114.496 1.5078 3.4935 0
M  V30 1275 H 114.008 3.00712 2.45345 0
M  V30 1276 H 112.109 0.840182 3.63004 0
M  V30 1277 H 112.222 2.6951 3.96107 0
M  V30 1278 H 110.586 1.35174 2.15871 0
M  V30 1279 H 111.369 2.96661 1.72764 0
M  V30 1280 N 113.814 -1.1601 1.06675 0
M  V30 1281 C 114.744 -2.22688 0.702307 0
M  V30 1282 C 115.725 -1.67306 -0.307032 0
M  V30 1283 O 116.91 -1.93352 -0.181305 0
M  V30 1284 C 114.04 -3.47178 0.092038 0
M  V30 1285 C 112.994 -4.15477 1.02777 0
M  V30 1286 C 112.32 -5.33963 0.28061 0
M  V30 1287 C 113.62 -4.66019 2.35846 0
M  V30 1288 H 115.314 -2.53429 1.59419 0
M  V30 1289 H 112.86 -1.21813 0.767961 0
M  V30 1290 H 114.813 -4.21037 -0.174814 0
M  V30 1291 H 113.537 -3.15749 -0.834877 0
M  V30 1292 H 112.196 -3.43549 1.27944 0
M  V30 1293 H 111.844 -4.98788 -0.649545 0
M  V30 1294 H 111.544 -5.806 0.904258 0
M  V30 1295 H 113.068 -6.10596 0.021396 0
M  V30 1296 H 114.482 -5.3144 2.15045 0
M  V30 1297 H 112.879 -5.23293 2.93743 0
M  V30 1298 H 113.949 -3.82023 2.98641 0
M  V30 1299 N 115.292 -0.849877 -1.32721 0
M  V30 1300 C 116.202 -0.293791 -2.32753 0
M  V30 1301 C 117.218 0.585906 -1.63839 0
M  V30 1302 O 118.394 0.487413 -1.95413 0
M  V30 1303 C 115.459 0.512752 -3.42887 0
M  V30 1304 C 114.52 -0.39252 -4.27502 0
M  V30 1305 C 113.753 0.375625 -5.32377 0
M  V30 1306 O 113.976 1.60613 -5.4732 0
M  V30 1307 O 112.91 -0.256094 -6.01355 0
M  V30 1308 H 116.736 -1.12242 -2.82197 0
M  V30 1309 H 114.321 -0.612685 -1.36259 0
M  V30 1310 H 116.203 0.970704 -4.10067 0
M  V30 1311 H 114.878 1.31826 -2.95641 0
M  V30 1312 H 113.785 -0.898547 -3.63149 0
M  V30 1313 H 115.118 -1.16309 -4.7826 0
M  V30 1314 N 116.77 1.45427 -0.607355 0
M  V30 1315 C 118.047 1.9557 -0.0344566 0
M  V30 1316 C 118.427 1.54979 1.43334 0
M  V30 1317 O 117.775 0.812241 2.13576 0
M  V30 1318 C 117.985 3.48226 -0.232321 0
M  V30 1319 C 119.333 4.2445 -0.113001 0
M  V30 1320 O 120.357 3.55829 -0.162431 0
M  V30 1321 O 119.216 5.465 0.00209442 0
M  V30 1322 H 116.31 0.826222 0.0358667 0
M  V30 1323 H 118.856 1.55594 -0.6774 0
M  V30 1324 H 117.628 3.70739 -1.25174 0
M  V30 1325 H 117.251 3.95092 0.445896 0
M  V30 1326 N 118.248 0.346503 1.53744 0
M  V30 1327 C 119.178 -0.501193 2.28058 0
M  V30 1328 C 120.159 -1.10014 1.29734 0
M  V30 1329 O 121.344 -1.12097 1.58581 0
M  V30 1330 C 118.474 -1.65078 3.05559 0
M  V30 1331 C 117.428 -1.18003 4.11411 0
M  V30 1332 C 116.754 -2.41837 4.76884 0
M  V30 1333 C 118.054 -0.278394 5.21558 0
M  V30 1334 H 119.748 0.11875 2.99164 0
M  V30 1335 H 117.294 0.0585531 1.43881 0
M  V30 1336 H 119.247 -2.25028 3.56287 0
M  V30 1337 H 117.971 -2.29767 2.32109 0
M  V30 1338 H 116.63 -0.603331 3.61601 0
M  V30 1339 H 116.278 -3.0494 4.00026 0
M  V30 1340 H 115.978 -2.1102 5.48402 0
M  V30 1341 H 117.502 -3.02508 5.30397 0
M  V30 1342 H 118.916 -0.784823 5.67903 0
M  V30 1343 H 117.313 -0.0619707 6.00068 0
M  V30 1344 H 118.383 0.684677 4.80042 0
M  V30 1345 N 119.726 -1.57421 0.075193 0
M  V30 1346 C 121.003 -1.85029 -0.634329 0
M  V30 1347 C 121.383 -0.968305 -1.87582 0
M  V30 1348 O 120.731 -0.0354749 -2.28472 0
M  V30 1349 C 120.941 -3.35286 -0.968742 0
M  V30 1350 C 122.289 -4.02875 -1.34077 0
M  V30 1351 O 123.313 -3.40051 -1.06037 0
M  V30 1352 O 122.172 -5.13691 -1.86506 0
M  V30 1353 H 119.266 -0.7645 -0.315387 0
M  V30 1354 H 121.812 -1.69366 0.106382 0
M  V30 1355 H 120.584 -3.91203 -0.0871376 0
M  V30 1356 H 120.207 -3.56223 -1.7661 0
M  V30 1357 N 121.204 0.198386 -1.56346 0
M  V30 1358 C 122.615 0.763358 -1.70381 0
M  V30 1359 C 122.966 1.83995 -0.681203 0
M  V30 1360 O 122.091 2.15785 0.16305 0
M  V30 1361 C 122.686 1.39143 -3.08909 0
M  V30 1362 C 121.245 1.90352 -3.2472 0
M  V30 1363 C 120.392 0.772233 -2.6633 0
M  V30 1364 H 123.343 -0.0266377 -1.58678 0
M  V30 1365 H 123.364 2.26076 -3.06055 0
M  V30 1366 H 122.876 0.607638 -3.83314 0
M  V30 1367 H 120.977 2.71461 -2.55225 0
M  V30 1368 H 121.09 2.06757 -4.3219 0
M  V30 1369 H 119.454 1.18566 -2.2542 0
M  V30 1370 H 120.237 0.00073556 -3.433 0
M  V30 1371 N 122.682 1.50554 0.465978 0
M  V30 1372 C 123.929 1.61798 1.21768 0
M  V30 1373 C 124.257 0.320696 1.91838 0
M  V30 1374 O 123.512 -0.693724 1.82992 0
M  V30 1375 C 123.811 2.75152 2.28093 0
M  V30 1376 C 123.477 4.15454 1.75239 0
M  V30 1377 C 122.139 4.53628 1.60546 0
M  V30 1378 C 124.491 5.03121 1.36083 0
M  V30 1379 C 121.819 5.77204 1.05128 0
M  V30 1380 C 124.171 6.27249 0.821056 0
M  V30 1381 C 122.835 6.64221 0.660795 0
M  V30 1382 H 122.105 0.592063 0.445582 0
M  V30 1383 H 124.752 1.84503 0.512927 0
M  V30 1384 H 123.057 2.46556 3.04496 0
M  V30 1385 H 124.754 2.81055 2.86023 0
M  V30 1386 H 121.344 3.85341 1.87644 0
M  V30 1387 H 125.528 4.74257 1.46267 0
M  V30 1388 H 120.784 6.0452 0.91462 0
M  V30 1389 H 124.958 6.94537 0.509018 0
M  V30 1390 H 122.585 7.59854 0.229226 0
M  V30 1391 N 124.16 -0.719506 1.40217 0
M  V30 1392 C 125.39 -1.50646 1.41384 0
M  V30 1393 C 125.798 -1.89197 0.0107743 0
M  V30 1394 O 125.141 -1.55709 -0.974708 0
M  V30 1395 C 125.203 -2.81405 2.23722 0
M  V30 1396 C 124.867 -2.65199 3.72181 0
M  V30 1397 C 125.864 -2.32717 4.64907 0
M  V30 1398 C 123.549 -2.81586 4.1595 0
M  V30 1399 C 125.543 -2.16827 5.99387 0
M  V30 1400 C 123.23 -2.65313 5.50502 0
M  V30 1401 C 124.228 -2.32981 6.42035 0
M  V30 1402 O 123.916 -2.16827 7.74107 0
M  V30 1403 H 123.648 -0.471606 0.484318 0
M  V30 1404 H 126.202 -0.895456 1.84853 0
M  V30 1405 H 124.432 -3.44823 1.75026 0
M  V30 1406 H 126.121 -3.43102 2.16878 0
M  V30 1407 H 126.887 -2.19694 4.32388 0
M  V30 1408 H 122.766 -3.0574 3.45027 0
M  V30 1409 H 126.31 -1.91513 6.70797 0
M  V30 1410 H 122.207 -2.7792 5.82607 0
M  V30 1411 H 122.975 -2.31778 7.84998 0
M  V30 1412 N 125.638 -1.25649 -0.95132 0
M  V30 1413 C 127.054 -1.02542 -1.223 0
M  V30 1414 C 127.254 0.255715 -1.99871 0
M  V30 1415 O 126.31 0.967558 -2.33226 0
M  V30 1416 C 127.623 -2.25065 -1.99415 0
M  V30 1417 C 129.171 -2.29861 -2.12446 0
M  V30 1418 C 129.646 -3.52048 -2.92961 0
M  V30 1419 N 131.137 -3.52465 -3.00538 0
M  V30 1420 C 131.872 -4.43672 -3.63239 0
M  V30 1421 N 131.368 -5.45157 -4.27523 0
M  V30 1422 N 133.161 -4.31346 -3.60412 0
M  V30 1423 H 125.312 -2.07951 -0.432471 0
M  V30 1424 H 127.575 -0.91339 -0.253816 0
M  V30 1425 H 127.281 -3.18194 -1.49817 0
M  V30 1426 H 127.155 -2.28502 -3.00111 0
M  V30 1427 H 129.542 -1.37252 -2.61239 0
M  V30 1428 H 129.623 -2.3044 -1.11044 0
M  V30 1429 H 129.267 -4.44981 -2.44856 0
M  V30 1430 H 129.197 -3.48715 -3.94596 0
M  V30 1431 H 131.688 -2.79056 -2.54826 0
M  V30 1432 H 132.001 -6.10958 -4.73234 0
M  V30 1433 H 130.346 -5.49025 -4.26141 0
M  V30 1434 H 133.537 -3.51288 -3.09377 0
M  V30 1435 H 133.71 -5.02624 -4.0899 0
M  V30 1436 N 127.117 1.15442 -1.07289 0
M  V30 1437 C 128.065 2.22225 -0.686952 0
M  V30 1438 C 129.059 1.66688 0.30193 0
M  V30 1439 O 130.265 1.79236 0.165712 0
M  V30 1440 H 126.64 0.723783 -0.204064 0
M  V30 1441 H 128.611 2.52056 -1.5972 0
M  V30 1442 C 127.36 3.47556 -0.100149 0
M  V30 1443 H 126.683 3.90612 -0.852211 0
M  V30 1444 H 128.123 4.23794 0.132235 0
M  V30 1445 C 126.582 3.16337 1.159 0
M  V30 1446 O 127.112 3.33074 2.24555 0
M  V30 1447 N 125.318 2.70385 1.06491 0
M  V30 1448 H 124.865 2.56966 0.180668 0
M  V30 1449 H 124.823 2.49871 1.90819 0
M  V30 1450 N 128.595 0.856903 1.32268 0
M  V30 1451 C 129.545 0.274899 2.26337 0
M  V30 1452 C 130.529 -0.580543 1.50062 0
M  V30 1453 O 131.721 -0.429559 1.71708 0
M  V30 1454 C 128.85 -0.533841 3.39124 0
M  V30 1455 C 127.936 0.334114 4.22782 0
M  V30 1456 N 128.327 1.42143 4.85416 0
M  V30 1457 C 126.625 0.124256 4.45827 0
M  V30 1458 C 127.326 1.95559 5.47843 0
M  V30 1459 N 126.302 1.25444 5.28928 0
M  V30 1460 H 130.104 1.10612 2.72291 0
M  V30 1461 H 127.618 0.703258 1.46383 0
M  V30 1462 H 129.615 -0.96722 4.05525 0
M  V30 1463 H 128.275 -1.36283 2.94715 0
M  V30 1464 H 129.286 1.80436 4.85451 0
M  V30 1465 H 125.963 -0.669837 4.12092 0
M  V30 1466 H 127.353 2.86714 6.07655 0
M  V30 1467 N 130.073 -1.45103 0.615059 0
M  V30 1468 C 131.02 -2.30586 -0.0993978 0
M  V30 1469 C 131.99 -1.42544 -0.852669 0
M  V30 1470 O 133.175 -1.71465 -0.836917 0
M  V30 1471 C 130.315 -3.27572 -1.08583 0
M  V30 1472 C 129.428 -4.30717 -0.332656 0
M  V30 1473 C 128.563 -5.14807 -1.30947 0
M  V30 1474 C 127.602 -6.09673 -0.544538 0
M  V30 1475 N 126.739 -6.86517 -1.47101 0
M  V30 1476 H 131.579 -2.91144 0.635542 0
M  V30 1477 H 129.116 -1.4346 0.325206 0
M  V30 1478 H 131.074 -3.82276 -1.67095 0
M  V30 1479 H 129.704 -2.68751 -1.78809 0
M  V30 1480 H 128.756 -3.78615 0.368107 0
M  V30 1481 H 130.068 -4.98102 0.263842 0
M  V30 1482 H 129.222 -5.73948 -1.96643 0
M  V30 1483 H 127.961 -4.47458 -1.9399 0
M  V30 1484 H 126.966 -5.49656 0.126003 0
M  V30 1485 H 128.191 -6.79052 0.080947 0
M  V30 1486 H 126.137 -6.21851 -2.08895 0
M  V30 1487 H 126.054 -7.50281 -0.928137 0
M  V30 1488 H 127.322 -7.50194 -2.11731 0
M  V30 1489 N 131.551 -0.354651 -1.53558 0
M  V30 1490 C 132.779 0.239515 -2.05509 0
M  V30 1491 C 133.194 1.4333 -1.2289 0
M  V30 1492 O 132.551 1.80538 -0.266899 0
M  V30 1493 C 132.602 0.643719 -3.55723 0
M  V30 1494 O 132.323 -0.502602 -4.35207 0
M  V30 1495 C 133.824 1.29743 -4.23889 0
M  V30 1496 H 131.044 0.0442697 -0.669538 0
M  V30 1497 H 133.588 -0.509856 -1.98042 0
M  V30 1498 H 131.743 1.34302 -3.63376 0
M  V30 1499 H 132.157 -0.178172 -5.24197 0
M  V30 1500 H 133.631 1.53091 -5.30346 0
M  V30 1501 H 134.108 2.25441 -3.76926 0
M  V30 1502 H 134.714 0.639865 -4.20459 0
M  V30 1503 N 133.029 1.57378 -0.0835403 0
M  V30 1504 C 134.276 1.9393 0.58287 0
M  V30 1505 C 134.604 0.964455 1.68904 0
M  V30 1506 O 133.859 -0.0179474 1.95692 0
M  V30 1507 C 134.158 3.37063 1.1884 0
M  V30 1508 C 133.824 4.50424 0.207194 0
M  V30 1509 C 132.486 4.81159 -0.0627115 0
M  V30 1510 C 134.838 5.19136 -0.463426 0
M  V30 1511 C 132.166 5.77939 -1.01012 0
M  V30 1512 C 134.518 6.16931 -1.39924 0
M  V30 1513 C 133.182 6.46078 -1.67749 0
M  V30 1514 H 132.452 0.70964 0.213287 0
M  V30 1515 H 135.099 1.90856 -0.156916 0
M  V30 1516 H 133.404 3.3666 2.00418 0
M  V30 1517 H 135.101 3.6264 1.71153 0
M  V30 1518 H 131.691 4.2646 0.427747 0
M  V30 1519 H 135.875 4.95576 -0.268034 0
M  V30 1520 H 131.131 5.98842 -1.23283 0
M  V30 1521 H 135.305 6.69273 -1.92476 0
M  V30 1522 H 132.932 7.2088 -2.41321 0
M  V30 1523 N 134.507 -0.190092 1.56449 0
M  V30 1524 C 135.44 -1.26375 1.90012 0
M  V30 1525 C 136.418 -1.43705 0.760765 0
M  V30 1526 O 137.602 -1.59014 1.01226 0
M  V30 1527 C 134.729 -2.62962 2.13468 0
M  V30 1528 C 133.775 -2.62474 3.36169 0
M  V30 1529 S 134.608 -2.13412 4.91137 0
M  V30 1530 C 135.764 -3.51812 5.17667 0
M  V30 1531 H 135.997 -0.977181 2.80782 0
M  V30 1532 H 133.53 -0.393814 1.49293 0
M  V30 1533 H 135.488 -3.41583 2.27664 0
M  V30 1534 H 134.149 -2.88828 1.23439 0
M  V30 1535 H 133.342 -3.62918 3.49723 0
M  V30 1536 H 132.944 -1.91937 3.20992 0
M  V30 1537 H 135.236 -4.47706 5.08494 0
M  V30 1538 H 136.179 -3.43148 6.19399 0
M  V30 1539 H 136.587 -3.46956 4.45288 0
M  V30 1540 N 135.985 -1.50799 -0.457987 0
M  V30 1541 C 137.231 -1.62683 -1.21088 0
M  V30 1542 C 137.564 -0.332268 -1.91336 0
M  V30 1543 O 136.839 0.667043 -1.82704 0
M  V30 1544 C 137.122 -2.81615 -2.24422 0
M  V30 1545 C 136.975 -4.20989 -1.58392 0
M  V30 1546 C 138.294 -2.96085 -3.2561 0
M  V30 1547 H 135.413 -0.592087 -0.438864 0
M  V30 1548 H 138.055 -1.83225 -0.50286 0
M  V30 1549 H 136.205 -2.64231 -2.84806 0
M  V30 1550 H 137.877 -4.49994 -1.01504 0
M  V30 1551 H 136.12 -4.24641 -0.886704 0
M  V30 1552 H 136.791 -5.0016 -2.33547 0
M  V30 1553 H 139.267 -3.12042 -2.75262 0
M  V30 1554 H 138.143 -3.80902 -3.95228 0
M  V30 1555 H 138.404 -2.0726 -3.90507 0
M  V30 1556 N 137.463 0.71206 -1.40597 0
M  V30 1557 C 138.393 1.83889 -1.43899 0
M  V30 1558 C 139.374 1.67442 -0.299504 0
M  V30 1559 O 140.559 1.87421 -0.508624 0
M  V30 1560 C 137.689 3.21877 -1.30431 0
M  V30 1561 C 136.643 3.53002 -2.42019 0
M  V30 1562 C 135.969 4.90172 -2.13626 0
M  V30 1563 C 137.269 3.53643 -3.84362 0
M  V30 1564 H 138.963 1.81383 -2.38203 0
M  V30 1565 H 136.509 0.871237 -1.14654 0
M  V30 1566 H 138.462 4.00404 -1.31357 0
M  V30 1567 H 137.186 3.24968 -0.326049 0
M  V30 1568 H 135.845 2.76818 -2.40349 0
M  V30 1569 H 135.493 4.89869 -1.14182 0
M  V30 1570 H 135.193 5.11962 -2.88389 0
M  V30 1571 H 136.717 5.71028 -2.1624 0
M  V30 1572 H 138.131 4.22203 -3.87837 0
M  V30 1573 H 136.528 3.86961 -4.58673 0
M  V30 1574 H 137.598 2.52954 -4.13693 0
M  V30 1575 N 138.941 1.26152 0.944643 0
M  V30 1576 C 139.889 1.07215 2.06417 0
M  V30 1577 C 140.883 9.2007e-05 1.694 0
M  V30 1578 O 142.089 0.1565 1.79318 0
M  V30 1579 H 138.464 0.329837 0.675805 0
M  V30 1580 H 140.435 2.02099 2.19541 0
M  V30 1581 C 139.184 0.718197 3.40202 0
M  V30 1582 H 138.507 1.53497 3.69159 0
M  V30 1583 H 139.947 0.625459 4.19361 0
M  V30 1584 C 138.406 -0.576435 3.31932 0
M  V30 1585 O 138.936 -1.61574 3.67773 0
M  V30 1586 N 137.142 -0.565781 2.85039 0
M  V30 1587 H 136.689 0.280367 2.5607 0
M  V30 1588 H 136.647 -1.43213 2.79888 0
M  V30 1589 N 140.419 -1.14872 1.07899 0
M  V30 1590 C 141.835 -1.37776 0.805606 0
M  V30 1591 C 142.035 -1.92743 -0.587555 0
M  V30 1592 O 141.091 -2.13678 -1.34528 0
M  V30 1593 C 142.404 -2.34361 1.88402 0
M  V30 1594 C 143.952 -2.48012 1.90942 0
M  V30 1595 C 144.427 -3.47893 2.97883 0
M  V30 1596 N 145.918 -3.55433 2.97021 0
M  V30 1597 C 146.653 -4.32553 3.76412 0
M  V30 1598 N 146.149 -5.12959 4.65666 0
M  V30 1599 N 147.942 -4.27697 3.64735 0
M  V30 1600 H 140.093 -0.775365 1.97742 0
M  V30 1601 H 142.356 -0.403521 0.857831 0
M  V30 1602 H 142.062 -2.01098 2.88535 0
M  V30 1603 H 141.936 -3.34206 1.74889 0
M  V30 1604 H 144.323 -2.8057 0.914579 0
M  V30 1605 H 144.404 -1.48147 2.08534 0
M  V30 1606 H 144.048 -3.16069 3.97571 0
M  V30 1607 H 143.978 -4.47527 2.77538 0
M  V30 1608 H 146.469 -2.98048 2.32326 0
M  V30 1609 H 146.782 -5.69065 5.22862 0
M  V30 1610 H 145.127 -5.12245 4.69712 0
M  V30 1611 H 148.318 -3.63949 2.94378 0
M  V30 1612 H 148.491 -4.8755 4.26848 0
M  V30 1613 N 141.898 -0.863906 -1.31812 0
M  V30 1614 C 142.845 -0.313303 -2.28664 0
M  V30 1615 C 143.815 0.584868 -1.55462 0
M  V30 1616 O 145 0.517805 -1.83639 0
M  V30 1617 C 142.14 0.48441 -3.41683 0
M  V30 1618 C 141.253 -0.440594 -4.29747 0
M  V30 1619 C 140.388 0.370652 -5.29905 0
M  V30 1620 C 139.427 -0.551164 -6.09613 0
M  V30 1621 N 138.564 0.223462 -7.01744 0
M  V30 1622 H 143.404 -1.14444 -2.75148 0
M  V30 1623 H 140.941 -0.575769 -1.35364 0
M  V30 1624 H 142.899 0.962627 -4.05943 0
M  V30 1625 H 141.529 1.28029 -2.96325 0
M  V30 1626 H 140.581 -1.03724 -3.65986 0
M  V30 1627 H 141.893 -1.14767 -4.85417 0
M  V30 1628 H 141.047 0.911638 -5.99812 0
M  V30 1629 H 139.786 1.11105 -4.74876 0
M  V30 1630 H 138.791 -1.10396 -5.38603 0
M  V30 1631 H 140.016 -1.29032 -6.66729 0
M  V30 1632 H 137.962 0.946787 -6.49132 0
M  V30 1633 H 137.879 -0.424399 -7.54808 0
M  V30 1634 H 139.147 0.745876 -7.75923 0
M  V30 1635 N 143.376 1.44774 -0.622745 0
M  V30 1636 C 144.792 1.56986 -0.287652 0
M  V30 1637 C 144.992 1.61167 1.20944 0
M  V30 1638 O 144.048 1.55015 1.99315 0
M  V30 1639 C 145.361 2.84551 -0.972188 0
M  V30 1640 C 146.909 2.9825 -0.949536 0
M  V30 1641 C 147.384 4.28605 -1.61437 0
M  V30 1642 N 148.875 4.35399 -1.58057 0
M  V30 1643 C 149.61 5.34964 -2.064 0
M  V30 1644 N 149.106 6.40981 -2.62897 0
M  V30 1645 N 150.899 5.26419 -1.97078 0
M  V30 1646 H 143.05 1.40304 -1.59463 0
M  V30 1647 H 145.313 0.671794 -0.668878 0
M  V30 1648 H 145.019 2.87417 -2.02693 0
M  V30 1649 H 144.893 3.73807 -0.504771 0
M  V30 1650 H 147.28 2.94941 0.0967067 0
M  V30 1651 H 147.361 2.10364 -1.45536 0
M  V30 1652 H 147.005 4.32672 -2.66002 0
M  V30 1653 H 146.935 5.15334 -1.08344 0
M  V30 1654 H 149.426 3.59397 -1.16801 0
M  V30 1655 H 149.739 7.13225 -2.97539 0
M  V30 1656 H 148.084 6.4169 -2.66943 0
M  V30 1657 H 151.275 4.42504 -1.52669 0
M  V30 1658 H 151.448 6.03861 -2.35066 0
M  V30 1659 N 144.854 0.36279 1.53368 0
M  V30 1660 C 146.082 -0.228613 2.05633 0
M  V30 1661 C 146.497 -1.42676 1.23649 0
M  V30 1662 O 145.854 -1.80394 0.27647 0
M  V30 1663 C 145.905 -0.624845 3.56059 0
M  V30 1664 O 145.626 0.525675 4.34935 0
M  V30 1665 C 147.127 -1.27493 4.24571 0
M  V30 1666 H 144.347 -0.0407183 0.669763 0
M  V30 1667 H 146.891 0.520352 1.97769 0
M  V30 1668 H 145.046 -1.32373 3.64083 0
M  V30 1669 H 145.46 0.205969 5.24095 0
M  V30 1670 H 146.934 -1.50277 5.31151 0
M  V30 1671 H 147.411 -2.23439 3.78116 0
M  V30 1672 H 148.017 -0.617558 4.20792 0
M  V30 1673 N 146.332 -1.57332 0.0918853 0
M  V30 1674 C 147.581 -1.93412 -0.572249 0
M  V30 1675 C 147.894 -0.975515 -1.69538 0
M  V30 1676 O 149.1 -1.22991 -2.42045 0
M  V30 1677 C 147.556 -3.43648 -1.0693 0
M  V30 1678 C 147.164 -4.47994 0.0239049 0
M  V30 1679 C 148.908 -3.88695 -1.70635 0
M  V30 1680 C 146.815 -5.89381 -0.488319 0
M  V30 1681 H 145.745 -0.721939 -0.217532 0
M  V30 1682 H 148.396 -1.82735 0.167369 0
M  V30 1683 H 146.778 -3.49466 -1.8625 0
M  V30 1684 H 147.952 -4.53815 0.799277 0
M  V30 1685 H 146.267 -4.12536 0.565946 0
M  V30 1686 H 148.864 -4.91725 -2.10025 0
M  V30 1687 H 149.207 -3.27166 -2.57426 0
M  V30 1688 H 149.74 -3.85564 -0.979023 0
M  V30 1689 H 146.479 -6.54602 0.342906 0
M  V30 1690 H 145.999 -5.87037 -1.23077 0
M  V30 1691 H 147.678 -6.39863 -0.958317 0
M  V30 1692 N 147.81 0.181792 -1.56548 0
M  V30 1693 C 149.04 0.914618 -1.85252 0
M  V30 1694 C 149.448 1.76791 -0.673914 0
M  V30 1695 O 148.791 1.80009 0.366416 0
M  V30 1696 C 148.853 1.85019 -3.08234 0
M  V30 1697 C 148.517 1.17754 -4.41569 0
M  V30 1698 C 149.514 0.548035 -5.17003 0
M  V30 1699 C 147.199 1.17742 -4.88305 0
M  V30 1700 C 149.193 -0.0726128 -6.37359 0
M  V30 1701 C 146.88 0.552946 -6.08593 0
M  V30 1702 C 147.878 -0.070978 -6.82963 0
M  V30 1703 O 147.566 -0.685635 -8.00971 0
M  V30 1704 H 147.298 0.271695 -0.618998 0
M  V30 1705 H 149.852 0.189944 -2.0452 0
M  V30 1706 H 148.082 2.61491 -2.84885 0
M  V30 1707 H 149.771 2.45195 -3.23472 0
M  V30 1708 H 150.537 0.540174 -4.81982 0
M  V30 1709 H 146.416 1.65246 -4.30366 0
M  V30 1710 H 149.96 -0.560213 -6.95347 0
M  V30 1711 H 145.857 0.558354 -6.43081 0
M  V30 1712 H 146.625 -0.58385 -8.16415 0
M  V30 1713 N 149.288 1.51039 0.449983 0
M  V30 1714 C 150.704 1.38934 0.785462 0
M  V30 1715 C 150.904 0.461817 1.96136 0
M  V30 1716 O 149.96 -0.0877389 2.52348 0
M  V30 1717 C 151.273 2.80724 1.0777 0
M  V30 1718 C 152.821 2.89787 1.1829 0
M  V30 1719 C 153.296 4.32457 1.50815 0
M  V30 1720 N 154.787 4.35505 1.57764 0
M  V30 1721 C 155.522 5.42914 1.84477 0
M  V30 1722 N 155.018 6.60502 2.09068 0
M  V30 1723 N 156.811 5.3038 1.86155 0
M  V30 1724 H 148.962 2.09904 -0.324647 0
M  V30 1725 H 151.225 0.944378 -0.0827957 0
M  V30 1726 H 150.931 3.50531 0.286498 0
M  V30 1727 H 150.805 3.19273 2.00859 0
M  V30 1728 H 153.192 2.20186 1.96474 0
M  V30 1729 H 153.273 2.54752 0.231314 0
M  V30 1730 H 152.917 5.02603 0.731622 0
M  V30 1731 H 152.847 4.64995 2.47158 0
M  V30 1732 H 155.338 3.50724 1.40715 0
M  V30 1733 H 155.651 7.38158 2.28785 0
M  V30 1734 H 153.996 6.63639 2.06416 0
M  V30 1735 H 157.187 4.37505 1.66454 0
M  V30 1736 H 157.36 6.1417 2.06637 0
M  V30 1737 N 150.766 -0.704594 1.40972 0
M  V30 1738 C 152.013 -1.46458 1.39844 0
M  V30 1739 C 152.341 -1.94499 0.00447594 0
M  V30 1740 O 151.596 -1.69275 -0.982057 0
M  V30 1741 C 151.895 -2.698 2.34399 0
M  V30 1742 C 151.561 -2.40464 3.81429 0
M  V30 1743 C 150.223 -2.32174 4.21484 0
M  V30 1744 C 152.575 -2.16086 4.74296 0
M  V30 1745 C 149.903 -1.97589 5.52427 0
M  V30 1746 C 152.255 -1.83011 6.05549 0
M  V30 1747 C 150.919 -1.7321 6.44635 0
M  V30 1748 H 150.189 -0.535927 0.511725 0
M  V30 1749 H 152.836 -0.806124 1.73706 0
M  V30 1750 H 151.141 -3.40536 1.93759 0
M  V30 1751 H 152.838 -3.27919 2.30804 0
M  V30 1752 H 149.428 -2.47808 3.49699 0
M  V30 1753 H 153.612 -2.2144 4.4416 0
M  V30 1754 H 148.868 -1.88547 5.81601 0
M  V30 1755 H 153.042 -1.63164 6.77016 0
M  V30 1756 H 150.669 -1.46179 7.46013 0
M  V30 1757 N 152.244 -1.26651 -0.937939 0
M  V30 1758 C 153.469 -1.15279 -1.72411 0
M  V30 1759 C 153.894 0.287866 -1.85884 0
M  V30 1760 O 153.252 1.20855 -1.35143 0
M  V30 1761 C 153.3 -1.83028 -3.10698 0
M  V30 1762 O 152.404 -1.12128 -3.96864 0
M  V30 1763 H 151.745 -0.401504 -0.528858 0
M  V30 1764 H 154.275 -1.67531 -1.1745 0
M  V30 1765 H 154.285 -1.89981 -3.6107 0
M  V30 1766 H 152.96 -2.87833 -3.00208 0
M  V30 1767 H 151.537 -1.13173 -3.55312 0
M  V30 1768 N 153.722 1.14298 -1.08507 0
M  V30 1769 C 154.685 2.17607 -0.719711 0
M  V30 1770 C 155.685 1.58907 0.245997 0
M  V30 1771 O 156.875 1.74181 0.0254081 0
M  V30 1772 C 154.007 3.40842 -0.0627695 0
M  V30 1773 H 155.2 2.51443 -1.63452 0
M  V30 1774 H 152.753 1.28963 -0.88307 0
M  V30 1775 H 153.488 3.12587 0.863716 0
M  V30 1776 H 153.273 3.84713 -0.757504 0
M  V30 1777 H 154.763 4.17221 0.177786 0
M  V30 1778 N 155.201 0.870884 1.31352 0
M  V30 1779 C 156.148 0.325425 2.28494 0
M  V30 1780 C 157.118 -0.576615 1.5577 0
M  V30 1781 O 158.303 -0.508059 1.83911 0
M  V30 1782 C 155.443 -0.466283 3.41935 0
M  V30 1783 C 154.556 0.463378 4.29508 0
M  V30 1784 C 153.691 -0.342544 5.30094 0
M  V30 1785 C 152.73 0.583486 6.09313 0
M  V30 1786 N 151.867 -0.186244 7.01853 0
M  V30 1787 H 156.707 1.15901 2.74538 0
M  V30 1788 H 154.244 0.58294 1.35056 0
M  V30 1789 H 156.202 -0.941085 4.06447 0
M  V30 1790 H 154.832 -1.26456 2.97 0
M  V30 1791 H 153.884 1.05663 3.65431 0
M  V30 1792 H 155.196 1.1734 4.84802 0
M  V30 1793 H 154.35 -0.879816 6.00287 0
M  V30 1794 H 153.089 -1.08585 4.75458 0
M  V30 1795 H 152.094 1.13251 5.3801 0
M  V30 1796 H 153.319 1.32566 6.66035 0
M  V30 1797 H 151.265 -0.912348 6.49625 0
M  V30 1798 H 151.182 0.464422 7.54572 0
M  V30 1799 H 152.45 -0.704716 7.76308 0
M  V30 1800 N 156.679 -1.44442 0.630414 0
M  V30 1801 C 157.629 -2.27794 -0.0968103 0
M  V30 1802 C 158.613 -1.38624 -0.816834 0
M  V30 1803 O 159.805 -1.62438 -0.70306 0
M  V30 1804 C 156.934 -3.25929 -1.07819 0
M  V30 1805 C 156.02 -4.22588 -0.357826 0
M  V30 1806 N 156.411 -5.0207 0.613169 0
M  V30 1807 C 154.709 -4.41914 -0.602365 0
M  V30 1808 C 155.41 -5.72351 1.03871 0
M  V30 1809 N 154.386 -5.42287 0.377642 0
M  V30 1810 H 158.188 -2.86653 0.648621 0
M  V30 1811 H 155.702 -1.55871 0.455862 0
M  V30 1812 H 157.699 -3.84399 -1.61378 0
M  V30 1813 H 156.359 -2.68631 -1.82393 0
M  V30 1814 H 157.37 -5.08331 0.990947 0
M  V30 1815 H 154.047 -3.95714 -1.33103 0
M  V30 1816 H 155.437 -6.4619 1.84086 0
M  V30 1817 N 158.157 -0.370918 -1.53173 0
M  V30 1818 C 159.12 0.460778 -2.24521 0
M  V30 1819 C 160.12 1.00536 -1.25496 0
M  V30 1820 O 161.31 0.890266 -1.49733 0
M  V30 1821 C 158.442 1.64457 -2.98608 0
M  V30 1822 H 159.635 -0.163613 -2.99453 0
M  V30 1823 H 157.188 -0.122699 -1.55818 0
M  V30 1824 H 157.923 2.30691 -2.2793 0
M  V30 1825 H 157.708 1.26099 -3.7127 0
M  V30 1826 H 159.198 2.23384 -3.5283 0
M  V30 1827 N 159.635 1.57281 -0.100228 0
M  V30 1828 C 160.565 2.17328 0.853857 0
M  V30 1829 C 161.546 1.10804 1.2906 0
M  V30 1830 O 162.731 1.38963 1.35657 0
M  V30 1831 C 159.861 2.75772 2.11109 0
M  V30 1832 C 158.815 3.87713 1.81279 0
M  V30 1833 C 158.141 4.32882 3.13874 0
M  V30 1834 C 159.441 5.10677 1.09574 0
M  V30 1835 H 161.135 2.97305 0.353545 0
M  V30 1836 H 158.681 1.43009 0.168612 0
M  V30 1837 H 160.634 3.16433 2.78296 0
M  V30 1838 H 159.358 1.93057 2.63432 0
M  V30 1839 H 158.017 3.476 1.16489 0
M  V30 1840 H 157.665 3.47051 3.64095 0
M  V30 1841 H 157.365 5.08358 2.94696 0
M  V30 1842 H 158.889 4.7618 3.82211 0
M  V30 1843 H 160.303 5.48474 1.66879 0
M  V30 1844 H 158.7 5.91615 1.00557 0
M  V30 1845 H 159.77 4.84835 0.0793299 0
M  V30 1846 N 161.113 -0.173488 1.56642 0
M  V30 1847 C 162.36 -0.890465 1.81871 0
M  V30 1848 C 162.688 -1.82339 0.67696 0
M  V30 1849 O 161.943 -1.92795 -0.335926 0
M  V30 1850 C 162.242 -1.72069 3.13252 0
M  V30 1851 C 161.908 -0.936878 4.41059 0
M  V30 1852 C 160.57 -0.720545 4.75775 0
M  V30 1853 C 162.922 -0.386919 5.19762 0
M  V30 1854 C 160.25 0.0568829 5.86672 0
M  V30 1855 C 162.602 0.37741 6.31473 0
M  V30 1856 C 161.266 0.604563 6.64757 0
M  V30 1857 H 160.536 -0.325844 0.665512 0
M  V30 1858 H 163.183 -0.155527 1.90867 0
M  V30 1859 H 161.488 -2.52496 2.99588 0
M  V30 1860 H 163.185 -2.27844 3.29982 0
M  V30 1861 H 159.775 -1.11553 4.13828 0
M  V30 1862 H 163.959 -0.541398 4.93338 0
M  V30 1863 H 159.215 0.242635 6.10918 0
M  V30 1864 H 163.389 0.810825 6.91664 0
M  V30 1865 H 161.016 1.20885 7.50527 0
M  V30 1866 N 162.591 -1.51276 -0.441967 0
M  V30 1867 C 163.84 -1.6295 -1.18871 0
M  V30 1868 C 164.153 -0.349312 -1.92456 0
M  V30 1869 O 165.359 -0.345355 -2.69295 0
M  V30 1870 C 163.815 -2.87759 -2.16155 0
M  V30 1871 C 163.423 -4.22764 -1.48239 0
M  V30 1872 C 165.167 -3.08788 -2.91291 0
M  V30 1873 C 163.074 -5.38728 -2.4398 0
M  V30 1874 H 162.004 -0.606913 -0.447406 0
M  V30 1875 H 164.655 -1.77739 -0.456205 0
M  V30 1876 H 163.037 -2.66593 -2.92821 0
M  V30 1877 H 164.211 -4.54293 -0.771635 0
M  V30 1878 H 162.526 -4.07575 -0.852741 0
M  V30 1879 H 165.123 -3.92599 -3.63002 0
M  V30 1880 H 165.466 -2.21679 -3.5237 0
M  V30 1881 H 165.999 -3.30272 -2.21733 0
M  V30 1882 H 162.738 -6.28082 -1.87598 0
M  V30 1883 H 162.258 -5.1158 -3.13123 0
M  V30 1884 H 163.937 -5.70489 -3.05207 0
M  V30 1885 N 164.069 0.697108 -1.41344 0
M  V30 1886 C 165.316 1.45714 -1.40619 0
M  V30 1887 C 165.644 1.94494 -0.0147907 0
M  V30 1888 O 164.899 1.69794 0.973066 0
M  V30 1889 C 165.198 2.68553 -2.35826 0
M  V30 1890 C 164.864 2.38438 -3.82698 0
M  V30 1891 C 163.526 2.29936 -4.22709 0
M  V30 1892 C 165.878 2.13567 -4.75435 0
M  V30 1893 C 163.206 1.94656 -5.53467 0
M  V30 1894 C 165.558 1.79797 -6.06511 0
M  V30 1895 C 164.222 1.69789 -6.45545 0
M  V30 1896 H 163.492 0.533206 -0.51456 0
M  V30 1897 H 166.139 0.796901 -1.74131 0
M  V30 1898 H 164.444 3.39503 -1.95563 0
M  V30 1899 H 166.141 3.2669 -2.32539 0
M  V30 1900 H 162.731 2.4595 -3.51008 0
M  V30 1901 H 166.915 2.19082 -4.45328 0
M  V30 1902 H 162.171 1.8546 -5.82593 0
M  V30 1903 H 166.345 1.59572 -6.77872 0
M  V30 1904 H 163.972 1.4222 -7.46778 0
M  V30 1905 N 165.547 1.27147 0.931209 0
M  V30 1906 C 166.795 1.13055 1.6752 0
M  V30 1907 C 167.116 -0.324791 1.92276 0
M  V30 1908 O 166.386 -1.22775 1.52654 0
M  V30 1909 H 164.966 0.415391 0.620854 0
M  V30 1910 H 167.628 1.59623 1.11833 0
M  V30 1911 H 166.724 1.65694 2.64485 0
M  V30 1912 N 167.025 -1.13721 1.09112 0
M  V30 1913 C 168.436 -1.6648 0.845068 0
M  V30 1914 C 168.787 -1.85911 -0.62701 0
M  V30 1915 O 167.912 -1.57556 -1.48341 0
M  V30 1916 C 168.507 -3.02413 1.52748 0
M  V30 1917 C 167.066 -3.52176 1.32849 0
M  V30 1918 C 166.213 -2.27492 1.58564 0
M  V30 1919 H 169.164 -0.976872 1.25072 0
M  V30 1920 H 169.185 -3.68223 0.958752 0
M  V30 1921 H 168.697 -2.88238 2.59885 0
M  V30 1922 H 166.798 -3.7156 0.278137 0
M  V30 1923 H 166.911 -4.32499 2.0611 0
M  V30 1924 H 165.275 -2.33923 1.00758 0
M  V30 1925 H 166.058 -2.15886 2.66924 0
M  V30 1926 N 168.503 -0.877838 -1.30888 0
M  V30 1927 C 169.75 -0.492696 -1.96415 0
M  V30 1928 C 170.078 0.956671 -1.69346 0
M  V30 1929 O 169.333 1.68993 -0.986913 0
M  V30 1930 C 169.632 -0.705748 -3.50363 0
M  V30 1931 C 169.298 -2.1291 -3.97467 0
M  V30 1932 C 167.96 -2.51834 -4.1004 0
M  V30 1933 C 170.312 -3.05702 -4.22132 0
M  V30 1934 C 167.64 -3.82775 -4.44635 0
M  V30 1935 C 169.992 -4.36166 -4.58194 0
M  V30 1936 C 168.656 -4.74993 -4.68975 0
M  V30 1937 H 167.926 -0.18029 -0.718733 0
M  V30 1938 H 170.573 -1.11233 -1.55883 0
M  V30 1939 H 168.878 -0.00303058 -3.918 0
M  V30 1940 H 170.575 -0.387456 -3.99124 0
M  V30 1941 H 167.165 -1.81694 -3.88182 0
M  V30 1942 H 171.349 -2.76853 -4.11906 0
M  V30 1943 H 166.605 -4.12609 -4.51181 0
M  V30 1944 H 170.779 -5.08111 -4.76231 0
M  V30 1945 H 168.406 -5.76495 -4.95537 0
M  V30 1946 N 169.982 1.44106 -0.638065 0
M  V30 1947 C 170.93 2.3248 0.0748149 0
M  V30 1948 C 171.924 1.47746 0.828702 0
M  V30 1949 O 173.13 1.64049 0.740816 0
M  V30 1950 H 169.505 0.750771 0.0429686 0
M  V30 1951 H 171.476 2.90348 -0.688504 0
M  V30 1952 C 170.225 3.31843 1.03805 0
M  V30 1953 H 169.548 3.97059 0.467375 0
M  V30 1954 H 170.988 3.96345 1.50622 0
M  V30 1955 C 169.447 2.61291 2.1267 0
M  V30 1956 O 169.977 2.41702 3.20847 0
M  V30 1957 N 168.183 2.20915 1.88798 0
M  V30 1958 H 167.73 2.37047 1.00829 0
M  V30 1959 H 167.688 1.74038 2.61836 0
M  V30 1960 N 171.46 0.379036 1.52974 0
M  V30 1961 C 172.685 -0.209353 2.06341 0
M  V30 1962 C 173.11 -1.40583 1.24972 0
M  V30 1963 O 172.468 -1.79246 0.272155 0
M  V30 1964 C 172.516 -0.567786 3.56102 0
M  V30 1965 O 171.62 -1.66318 3.77375 0
M  V30 1966 H 170.961 -0.0272919 0.663439 0
M  V30 1967 H 173.491 0.543536 1.97248 0
M  V30 1968 H 173.501 -0.835003 3.99364 0
M  V30 1969 H 172.176 0.307013 4.14765 0
M  V30 1970 H 170.753 -1.39048 3.46006 0
M  V30 1971 N 172.938 -1.57226 0.108567 0
M  V30 1972 C 174.187 -1.94008 -0.551703 0
M  V30 1973 C 174.5 -0.993442 -1.68494 0
M  V30 1974 O 175.706 -1.25551 -2.40726 0
M  V30 1975 C 174.162 -3.44763 -1.03279 0
M  V30 1976 C 173.77 -4.47943 0.0714193 0
M  V30 1977 C 175.514 -3.90483 -1.66503 0
M  V30 1978 C 173.421 -5.89865 -0.425779 0
M  V30 1979 H 172.351 -0.724206 -0.209863 0
M  V30 1980 H 175.002 -1.82547 0.186741 0
M  V30 1981 H 173.384 -3.51422 -1.82533 0
M  V30 1982 H 174.558 -4.52942 0.847365 0
M  V30 1983 H 172.873 -4.11913 0.609669 0
M  V30 1984 H 175.47 -4.93925 -2.04798 0
M  V30 1985 H 175.813 -3.29877 -2.53942 0
M  V30 1986 H 176.346 -3.86581 -0.938074 0
M  V30 1987 H 173.085 -6.54202 0.412316 0
M  V30 1988 H 172.605 -5.88309 -1.16843 0
M  V30 1989 H 174.284 -6.40844 -0.890397 0
M  V30 1990 N 174.416 0.165178 -1.56732 0
M  V30 1991 C 175.832 0.517174 -1.50988 0
M  V30 1992 C 176.032 1.84331 -0.813894 0
M  V30 1993 O 175.088 2.49672 -0.37682 0
M  V30 1994 C 176.401 0.544261 -2.95733 0
M  V30 1995 C 177.949 0.631039 -3.06573 0
M  V30 1996 C 178.424 0.68896 -4.52788 0
M  V30 1997 N 179.915 0.751683 -4.5706 0
M  V30 1998 C 180.65 0.817177 -5.67547 0
M  V30 1999 N 180.146 0.843129 -6.8765 0
M  V30 2000 N 181.939 0.856668 -5.55534 0
M  V30 2001 H 174.09 -0.704318 -2.00382 0
M  V30 2002 H 176.353 -0.254687 -0.913148 0
M  V30 2003 H 176.059 -0.361607 -3.49836 0
M  V30 2004 H 175.933 1.3886 -3.5071 0
M  V30 2005 H 178.32 1.52733 -2.52501 0
M  V30 2006 H 178.401 -0.240095 -2.54671 0
M  V30 2007 H 178.045 -0.2031 -5.07494 0
M  V30 2008 H 177.975 1.57633 -5.02454 0
M  V30 2009 H 180.466 0.739661 -3.70591 0
M  V30 2010 H 180.779 0.894448 -7.67606 0
M  V30 2011 H 179.124 0.811304 -6.90248 0
M  V30 2012 H 182.315 0.833437 -4.60621 0
M  V30 2013 H 182.488 0.904247 -6.4166 0
M  V30 2014 N 175.894 1.51508 0.433938 0
M  V30 2015 C 177.119 1.68443 1.21003 0
M  V30 2016 C 177.544 0.382636 1.84167 0
M  V30 2017 O 176.902 -0.65755 1.68956 0
M  V30 2018 C 176.95 2.80405 2.26727 0
M  V30 2019 O 176.054 2.44245 3.32292 0
M  V30 2020 H 175.395 0.561536 0.354363 0
M  V30 2021 H 177.925 1.9809 0.512024 0
M  V30 2022 H 177.935 3.0459 2.71457 0
M  V30 2023 H 176.61 3.74867 1.80132 0
M  V30 2024 H 175.187 2.30644 2.93015 0
M  V30 2025 N 177.372 -0.689602 1.41712 0
M  V30 2026 C 178.302 -1.81577 1.46806 0
M  V30 2027 C 179.283 -1.66945 0.326105 0
M  V30 2028 O 180.468 -1.86588 0.538377 0
M  V30 2029 C 177.598 -3.19762 1.35535 0
M  V30 2030 C 176.552 -3.49107 2.47605 0
M  V30 2031 C 175.878 -4.86711 2.21397 0
M  V30 2032 C 177.178 -3.47483 3.89939 0
M  V30 2033 H 178.872 -1.7757 2.41058 0
M  V30 2034 H 176.418 -0.852887 1.16025 0
M  V30 2035 H 178.371 -3.98263 1.3771 0
M  V30 2036 H 177.095 -3.24409 0.377708 0
M  V30 2037 H 175.754 -2.72959 2.44722 0
M  V30 2038 H 175.402 -4.8799 1.21961 0
M  V30 2039 H 175.102 -5.0731 2.96497 0
M  V30 2040 H 176.626 -5.67515 2.25297 0
M  V30 2041 H 178.04 -4.1598 3.94505 0
M  V30 2042 H 176.437 -3.79615 4.64771 0
M  V30 2043 H 177.507 -2.46341 4.17665 0
M  V30 2044 N 178.85 -1.27639 -0.924453 0
M  V30 2045 C 179.813 -1.10681 -2.00705 0
M  V30 2046 C 180.813 -0.0497823 -1.60723 0
M  V30 2047 O 182.003 -0.294654 -1.7169 0
M  V30 2048 C 179.135 -0.687164 -3.33902 0
M  V30 2049 H 180.328 -2.06817 -2.17179 0
M  V30 2050 H 177.881 -1.10473 -1.10569 0
M  V30 2051 H 178.616 0.275439 -3.23128 0
M  V30 2052 H 178.401 -1.45061 -3.6428 0
M  V30 2053 H 179.891 -0.590853 -4.13399 0
M  V30 2054 N 180.328 1.1314 -1.09713 0
M  V30 2055 C 181.577 1.83838 -0.829851 0
M  V30 2056 C 181.89 1.84599 0.646728 0
M  V30 2057 O 183.096 2.51218 1.02965 0
M  V30 2058 C 181.552 3.30069 -1.43466 0
M  V30 2059 C 181.16 3.37688 -2.94399 0
M  V30 2060 C 182.904 4.05788 -1.24645 0
M  V30 2061 C 180.811 4.78209 -3.47952 0
M  V30 2062 H 179.741 0.68877 -0.306777 0
M  V30 2063 H 182.392 1.27448 -1.3202 0
M  V30 2064 H 180.774 3.8628 -0.871996 0
M  V30 2065 H 181.948 2.91456 -3.56918 0
M  V30 2066 H 180.263 2.75436 -3.12289 0
M  V30 2067 H 182.86 5.09535 -1.62107 0
M  V30 2068 H 183.203 4.15878 -0.187357 0
M  V30 2069 H 183.736 3.55915 -1.77678 0
M  V30 2070 H 180.475 4.73311 -4.53495 0
M  V30 2071 H 179.995 5.24924 -2.90198 0
M  V30 2072 H 181.674 5.47133 -3.45332 0
M  V30 2073 N 181.806 0.884767 1.30421 0
M  V30 2074 C 183.222 0.57874 1.48737 0
M  V30 2075 C 183.422 -0.883567 1.81095 0
M  V30 2076 O 182.478 -1.6648 1.89844 0
M  V30 2077 C 183.791 1.49171 2.61091 0
M  V30 2078 C 185.339 1.49532 2.74971 0
M  V30 2079 C 185.814 2.39421 3.90438 0
M  V30 2080 N 187.305 2.37383 3.97748 0
M  V30 2081 C 188.04 3.03647 4.86401 0
M  V30 2082 N 187.536 3.79136 5.79852 0
M  V30 2083 N 189.329 2.9288 4.79768 0
M  V30 2084 H 181.48 1.83075 1.0769 0
M  V30 2085 H 183.743 0.783637 0.533495 0
M  V30 2086 H 183.449 2.53291 2.44001 0
M  V30 2087 H 183.323 1.20113 3.57565 0
M  V30 2088 H 185.71 0.46163 2.91467 0
M  V30 2089 H 185.791 1.8262 1.79119 0
M  V30 2090 H 185.435 3.42874 3.74699 0
M  V30 2091 H 185.365 2.03649 4.85628 0
M  V30 2092 H 187.856 1.82525 3.30897 0
M  V30 2093 H 188.169 4.26789 6.4426 0
M  V30 2094 H 186.514 3.83243 5.79784 0
M  V30 2095 H 189.705 2.33433 4.05742 0
M  V30 2096 H 189.878 3.448 5.4865 0
M  V30 2097 N 183.284 -1.43765 0.645699 0
M  V30 2098 C 184.53 -2.02197 0.156271 0
M  V30 2099 C 184.863 -1.50776 -1.22393 0
M  V30 2100 O 184.138 -0.697771 -1.81553 0
M  V30 2101 C 184.421 -3.59749 0.158872 0
M  V30 2102 C 184.274 -4.21419 1.57245 0
M  V30 2103 C 185.593 -4.37149 -0.50879 0
M  V30 2104 H 182.712 -0.734694 0.0582602 0
M  V30 2105 H 185.354 -1.71157 0.824951 0
M  V30 2106 H 183.504 -3.86325 -0.410525 0
M  V30 2107 H 185.176 -4.059 2.19186 0
M  V30 2108 H 183.419 -3.78356 2.122 0
M  V30 2109 H 184.09 -5.30482 1.52619 0
M  V30 2110 H 186.566 -4.16093 -0.024412 0
M  V30 2111 H 185.442 -5.4683 -0.476213 0
M  V30 2112 H 185.703 -4.12839 -1.58165 0
M  V30 2113 N 184.763 -0.387143 -1.52771 0
M  V30 2114 C 185.988 0.198407 -2.06449 0
M  V30 2115 C 186.413 1.39918 -1.25716 0
M  V30 2116 O 185.771 1.79099 -0.281657 0
M  V30 2117 C 185.819 0.548893 -3.56398 0
M  V30 2118 O 184.923 1.64315 -3.78252 0
M  V30 2119 H 184.264 0.0237731 -0.663574 0
M  V30 2120 H 186.794 -0.553989 -1.96957 0
M  V30 2121 H 186.804 0.813812 -3.99801 0
M  V30 2122 H 185.479 -0.329005 -4.14597 0
M  V30 2123 H 184.056 1.37211 -3.46738 0
M  V30 2124 N 186.241 1.57166 -0.116904 0
M  V30 2125 C 187.487 1.95412 0.542405 0
M  V30 2126 C 187.82 1.00019 1.66463 0
M  V30 2127 O 187.095 0.0370346 1.94465 0
M  V30 2128 C 187.378 3.43615 1.07708 0
M  V30 2129 C 187.231 4.49781 -0.0415868 0
M  V30 2130 C 188.55 3.93616 1.96861 0
M  V30 2131 H 185.669 0.710543 0.195696 0
M  V30 2132 H 188.311 1.89027 -0.192038 0
M  V30 2133 H 186.461 3.49187 1.70296 0
M  V30 2134 H 188.133 4.56308 -0.676793 0
M  V30 2135 H 186.376 4.28033 -0.705019 0
M  V30 2136 H 187.047 5.50733 0.373717 0
M  V30 2137 H 189.523 3.90335 1.44146 0
M  V30 2138 H 188.399 4.97838 2.3119 0
M  V30 2139 H 188.66 3.34188 2.89432 0
M  V30 2140 N 187.719 -0.156864 1.56817 0
M  V30 2141 C 188.669 -1.19891 1.93934 0
M  V30 2142 C 189.653 -1.39061 0.809372 0
M  V30 2143 O 190.845 -1.40789 1.07273 0
M  V30 2144 C 187.974 -2.53493 2.31508 0
M  V30 2145 C 187.06 -2.37957 3.51052 0
M  V30 2146 N 187.451 -1.92158 4.67877 0
M  V30 2147 C 185.749 -2.68739 3.55943 0
M  V30 2148 C 186.45 -1.8943 5.49992 0
M  V30 2149 N 185.426 -2.32375 4.91429 0
M  V30 2150 H 189.228 -0.836746 2.81737 0
M  V30 2151 H 186.742 -0.365012 1.58245 0
M  V30 2152 H 188.739 -3.28811 2.56299 0
M  V30 2153 H 187.399 -2.905 1.45051 0
M  V30 2154 H 188.41 -1.62274 4.91821 0
M  V30 2155 H 185.087 -3.09687 2.80001 0
M  V30 2156 H 186.477 -1.55596 6.53636 0
M  V30 2157 N 189.197 -1.51736 -0.425897 0
M  V30 2158 C 190.422 -1.69082 -1.20108 0
M  V30 2159 C 190.847 -0.392398 -1.83962 0
M  V30 2160 O 190.205 0.64858 -1.69302 0
M  V30 2161 C 190.253 -2.81604 -2.25237 0
M  V30 2162 O 189.357 -2.46004 -3.30992 0
M  V30 2163 H 188.698 -0.563408 -0.35138 0
M  V30 2164 H 191.228 -1.98358 -0.501512 0
M  V30 2165 H 191.238 -3.06025 -2.69838 0
M  V30 2166 H 189.913 -3.75817 -1.78142 0
M  V30 2167 H 188.49 -2.32195 -2.91787 0
M  V30 2168 N 190.675 0.682077 -1.42076 0
M  V30 2169 C 191.605 1.80796 -1.47767 0
M  V30 2170 C 192.586 1.6677 -0.334954 0
M  V30 2171 O 193.771 1.863 -0.548264 0
M  V30 2172 C 190.901 3.19038 -1.37229 0
M  V30 2173 C 189.855 3.47789 -2.49453 0
M  V30 2174 C 189.181 4.8553 -2.23975 0
M  V30 2175 C 190.481 3.45411 -3.91776 0
M  V30 2176 H 192.175 1.7629 -2.41997 0
M  V30 2177 H 189.721 0.846721 -1.16476 0
M  V30 2178 H 191.674 3.97528 -1.39821 0
M  V30 2179 H 190.398 3.24204 -0.394907 0
M  V30 2180 H 189.057 2.71657 -2.46166 0
M  V30 2181 H 188.705 4.87337 -1.24547 0
M  V30 2182 H 188.405 5.0573 -2.99184 0
M  V30 2183 H 189.929 5.66312 -2.28304 0
M  V30 2184 H 191.343 4.13882 -3.96705 0
M  V30 2185 H 189.74 3.77145 -4.66778 0
M  V30 2186 H 190.81 2.44122 -4.18966 0
M  V30 2187 N 192.153 1.28127 0.917671 0
M  V30 2188 C 193.4 1.15052 1.66641 0
M  V30 2189 C 193.728 -0.301677 1.92146 0
M  V30 2190 O 192.983 -1.23622 1.51711 0
M  V30 2191 C 193.282 1.89018 3.03327 0
M  V30 2192 C 192.948 3.38832 2.97496 0
M  V30 2193 C 191.61 3.79693 2.95613 0
M  V30 2194 C 193.962 4.34378 2.88036 0
M  V30 2195 C 191.29 5.14447 2.82066 0
M  V30 2196 C 193.642 5.69201 2.7603 0
M  V30 2197 C 192.306 6.09343 2.72502 0
M  V30 2198 H 191.576 0.421006 0.609783 0
M  V30 2199 H 194.223 1.58855 1.06945 0
M  V30 2200 H 192.528 1.37752 3.66785 0
M  V30 2201 H 194.225 1.76321 3.60156 0
M  V30 2202 H 190.815 3.06342 2.99754 0
M  V30 2203 H 194.999 4.03775 2.88581 0
M  V30 2204 H 190.255 5.44681 2.77728 0
M  V30 2205 H 194.429 6.42901 2.67678 0
M  V30 2206 H 192.056 7.13712 2.61762 0
M  V30 2207 N 193.631 -1.12557 1.10312 0
M  V30 2208 C 194.856 -1.88405 0.867085 0
M  V30 2209 C 195.281 -1.79038 -0.576817 0
M  V30 2210 O 194.639 -1.14439 -1.40618 0
M  V30 2211 C 194.687 -3.3563 1.31851 0
M  V30 2212 O 193.791 -4.09565 0.482734 0
M  V30 2213 H 193.132 -0.585455 0.313271 0
M  V30 2214 H 195.662 -1.42352 1.4696 0
M  V30 2215 H 195.672 -3.86469 1.3079 0
M  V30 2216 H 194.347 -3.41765 2.37001 0
M  V30 2217 H 192.924 -3.68695 0.558448 0
M  V30 2218 N 195.109 -0.891671 -1.2995 0
M  V30 2219 C 196.042 -0.307994 -2.26112 0
M  V30 2220 C 197.02 0.575262 -1.52084 0
M  V30 2221 O 198.204 0.523864 -1.81074 0
M  V30 2222 C 195.331 0.561734 -3.34009 0
M  V30 2223 C 194.377 -0.253107 -4.25748 0
M  V30 2224 S 195.21 -1.64572 -5.09584 0
M  V30 2225 C 196.366 -0.782699 -6.20987 0
M  V30 2226 H 196.599 -1.12309 -2.75271 0
M  V30 2227 H 194.132 -0.691509 -1.38049 0
M  V30 2228 H 196.09 1.05777 -3.96638 0
M  V30 2229 H 194.751 1.35099 -2.83561 0
M  V30 2230 H 193.944 0.410908 -5.02322 0
M  V30 2231 H 193.546 -0.682004 -3.67729 0
M  V30 2232 H 195.838 -0.00257476 -6.775 0
M  V30 2233 H 196.781 -1.52026 -6.91588 0
M  V30 2234 H 197.189 -0.340638 -5.63471 0
M  V30 2235 N 196.587 1.43421 -0.653314 0
M  V30 2236 C 197.834 2.01812 -0.166745 0
M  V30 2237 C 198.162 1.51535 1.21931 0
M  V30 2238 O 197.417 0.698975 1.82792 0
M  V30 2239 C 197.716 3.57176 -0.126623 0
M  V30 2240 C 197.382 4.26798 -1.45444 0
M  V30 2241 C 196.044 4.45534 -1.81805 0
M  V30 2242 C 198.396 4.66225 -2.32989 0
M  V30 2243 C 195.724 5.00961 -3.05377 0
M  V30 2244 C 198.076 5.23021 -3.55853 0
M  V30 2245 C 196.74 5.39973 -3.9241 0
M  V30 2246 H 196.01 0.738484 -0.0610162 0
M  V30 2247 H 198.657 1.71896 -0.84404 0
M  V30 2248 H 196.962 3.86634 0.634123 0
M  V30 2249 H 198.659 4.00112 0.266723 0
M  V30 2250 H 195.249 4.12561 -1.16153 0
M  V30 2251 H 199.433 4.51443 -2.06187 0
M  V30 2252 H 194.689 5.12271 -3.3375 0
M  V30 2253 H 198.863 5.52518 -4.23907 0
M  V30 2254 H 196.49 5.82687 -4.88242 0
M  V30 2255 N 198.065 0.39524 1.52563 0
M  V30 2256 C 199.314 -0.186321 2.00838 0
M  V30 2257 C 199.627 -1.47402 1.28577 0
M  V30 2258 O 200.833 -2.13599 1.67593 0
M  V30 2259 C 199.289 -0.382595 3.57861 0
M  V30 2260 C 198.897 0.892202 4.39026 0
M  V30 2261 C 200.641 -0.9202 4.14406 0
M  V30 2262 C 198.548 0.66388 5.87662 0
M  V30 2263 H 197.478 -0.0734041 0.750418 0
M  V30 2264 H 200.129 0.518552 1.76021 0
M  V30 2265 H 198.511 -1.14946 3.7895 0
M  V30 2266 H 199.685 1.66414 4.29701 0
M  V30 2267 H 198 1.35519 3.9373 0
M  V30 2268 H 200.597 -1.10683 5.23119 0
M  V30 2269 H 200.94 -1.89096 3.70875 0
M  V30 2270 H 201.473 -0.212751 3.97231 0
M  V30 2271 H 198.212 1.6058 6.35527 0
M  V30 2272 H 197.732 -0.0690193 5.9976 0
M  V30 2273 H 199.411 0.300699 6.46301 0
M  V30 2274 N 199.544 -1.57102 0.125237 0
M  V30 2275 C 200.793 -1.94582 -0.531095 0
M  V30 2276 C 201.106 -1.01126 -1.6743 0
M  V30 2277 O 202.312 -1.28097 -2.39381 0
M  V30 2278 C 200.768 -3.45839 -0.996164 0
M  V30 2279 C 200.376 -4.47842 0.118926 0
M  V30 2280 C 202.12 -3.92227 -1.62352 0
M  V30 2281 C 200.027 -5.90284 -0.363192 0
M  V30 2282 H 198.957 -0.726391 -0.20217 0
M  V30 2283 H 201.608 -1.82339 0.206092 0
M  V30 2284 H 199.99 -3.53338 -1.78796 0
M  V30 2285 H 201.164 -4.52018 0.895358 0
M  V30 2286 H 199.479 -4.11243 0.653324 0
M  V30 2287 H 202.076 -4.96069 -1.99548 0
M  V30 2288 H 202.419 -3.32552 -2.50429 0
M  V30 2289 H 202.952 -3.87554 -0.897019 0
M  V30 2290 H 199.691 -6.53728 0.481679 0
M  V30 2291 H 199.211 -5.89515 -1.10597 0
M  V30 2292 H 200.89 -6.41752 -0.822377 0
M  V30 2293 N 201.022 0.148545 -1.56898 0
M  V30 2294 C 202.27 0.859717 -1.82902 0
M  V30 2295 C 202.591 1.81775 -0.70588 0
M  V30 2296 O 201.861 1.93994 0.272586 0
M  V30 2297 H 200.441 0.320469 -0.674766 0
M  V30 2298 H 203.103 0.142918 -1.94375 0
M  V30 2299 H 202.199 1.4229 -2.77777 0
M  V30 2300 N 202.5 1.5196 0.417844 0
M  V30 2301 C 203.728 1.69426 1.18753 0
M  V30 2302 C 204.143 0.399955 1.84515 0
M  V30 2303 O 203.5 -0.623288 1.71527 0
M  V30 2304 C 203.551 2.82375 2.25714 0
M  V30 2305 O 203.272 4.06793 1.62638 0
M  V30 2306 C 204.773 3.11277 3.15628 0
M  V30 2307 H 201.993 0.568031 0.357186 0
M  V30 2308 H 204.537 1.98475 0.49273 0
M  V30 2309 H 202.692 2.5587 2.90877 0
M  V30 2310 H 203.106 4.69667 2.3348 0
M  V30 2311 H 204.58 3.93843 3.86771 0
M  V30 2312 H 205.057 2.24473 3.77503 0
M  V30 2313 H 205.663 3.39515 2.56144 0
M  V30 2314 N 203.978 -0.674533 1.42435 0
M  V30 2315 C 205.224 -1.43671 1.43131 0
M  V30 2316 C 205.557 -1.94142 0.0476021 0
M  V30 2317 O 204.832 -1.70924 -0.928188 0
M  V30 2318 C 205.115 -2.63355 2.45594 0
M  V30 2319 C 204.968 -2.18514 3.93156 0
M  V30 2320 C 206.287 -3.65571 2.45043 0
M  V30 2321 H 203.406 -0.521077 0.521198 0
M  V30 2322 H 206.048 -0.766551 1.7385 0
M  V30 2323 H 204.198 -3.2053 2.19528 0
M  V30 2324 H 205.87 -1.66504 4.30202 0
M  V30 2325 H 204.113 -1.50086 4.07009 0
M  V30 2326 H 204.784 -3.04484 4.60428 0
M  V30 2327 H 207.26 -3.18113 2.68223 0
M  V30 2328 H 206.136 -4.46893 3.18713 0
M  V30 2329 H 206.397 -4.16716 1.47649 0
M  V30 2330 N 205.456 -1.28612 -0.910864 0
M  V30 2331 C 206.705 -1.15311 -1.65488 0
M  V30 2332 C 207.018 0.296999 -1.93332 0
M  V30 2333 O 208.224 0.551168 -2.65847 0
M  V30 2334 C 206.68 -2.01599 -2.98137 0
M  V30 2335 C 206.288 -3.51367 -2.7793 0
M  V30 2336 C 208.032 -1.96993 -3.76024 0
M  V30 2337 C 205.939 -4.29797 -4.06237 0
M  V30 2338 H 204.869 -0.42796 -0.620779 0
M  V30 2339 H 207.52 -1.53166 -1.01057 0
M  V30 2340 H 205.902 -1.56603 -3.63719 0
M  V30 2341 H 207.076 -4.0434 -2.21011 0
M  V30 2342 H 205.391 -3.57529 -2.13452 0
M  V30 2343 H 207.988 -2.52856 -4.71135 0
M  V30 2344 H 208.331 -0.94733 -4.05378 0
M  V30 2345 H 208.864 -2.39973 -3.17266 0
M  V30 2346 H 205.603 -5.32648 -3.82055 0
M  V30 2347 H 205.123 -3.81596 -4.62757 0
M  V30 2348 H 206.802 -4.39869 -4.74473 0
M  V30 2349 N 206.934 1.1197 -1.10907 0
M  V30 2350 C 208.183 1.82947 -0.849302 0
M  V30 2351 C 208.496 1.85275 0.627112 0
M  V30 2352 O 209.702 2.52296 1.00295 0
M  V30 2353 C 208.158 3.28529 -1.46959 0
M  V30 2354 C 207.766 3.34546 -2.97965 0
M  V30 2355 C 209.51 4.04443 -1.28942 0
M  V30 2356 C 207.417 4.74491 -3.53004 0
M  V30 2357 H 206.347 0.685477 -0.314065 0
M  V30 2358 H 208.998 1.2604 -1.33365 0
M  V30 2359 H 207.38 3.85333 -0.912917 0
M  V30 2360 H 208.554 2.87654 -3.59989 0
M  V30 2361 H 206.869 2.72108 -3.15192 0
M  V30 2362 H 209.466 5.07787 -1.67502 0
M  V30 2363 H 209.809 4.15656 -0.231456 0
M  V30 2364 H 210.342 3.5401 -1.81443 0
M  V30 2365 H 207.081 4.68474 -4.58489 0
M  V30 2366 H 206.601 5.21816 -2.9575 0
M  V30 2367 H 208.28 5.4344 -3.51115 0
M  V30 2368 N 208.412 0.89855 1.29475 0
M  V30 2369 C 209.36 0.365253 2.29714 0
M  V30 2370 C 210.354 -0.534993 1.6073 0
M  V30 2371 O 211.56 -0.417921 1.75081 0
M  V30 2372 H 207.935 0.0994853 0.74539 0
M  V30 2373 H 209.906 1.22406 2.72138 0
M  V30 2374 C 208.655 -0.393159 3.4547 0
M  V30 2375 H 207.978 0.290332 3.98744 0
M  V30 2376 H 209.418 -0.731189 4.17648 0
M  V30 2377 C 207.877 -1.59539 2.9673 0
M  V30 2378 O 208.407 -2.69469 2.97908 0
M  V30 2379 N 206.613 -1.43716 2.52575 0
M  V30 2380 H 206.16 -0.542828 2.51816 0
M  V30 2381 H 206.118 -2.24288 2.20323 0
M  V30 2382 N 209.89 -1.43072 0.660911 0
M  V30 2383 C 211.13 -2.03596 0.181146 0
M  V30 2384 C 211.494 -1.51057 -1.18515 0
M  V30 2385 O 212.695 -2.03275 -1.75877 0
M  V30 2386 C 210.966 -3.56845 0.19911 0
M  V30 2387 S 212.525 -4.38289 -0.211684 0
M  V30 2388 H 209.343 -0.706954 0.0757479 0
M  V30 2389 H 211.945 -1.75027 0.870965 0
M  V30 2390 H 210.649 -3.92583 1.1961 0
M  V30 2391 H 210.18 -3.90067 -0.510996 0
M  V30 2392 H 212.195 -4.74583 -1.44863 0
M  V30 2393 N 211.368 -0.403325 -1.52352 0
M  V30 2394 C 212.614 0.174605 -2.02047 0
M  V30 2395 C 212.947 1.45282 -1.28867 0
M  V30 2396 O 212.222 1.90483 -0.393257 0
M  V30 2397 C 212.505 0.428238 -3.57545 0
M  V30 2398 C 212.358 -0.866248 -4.4138 0
M  V30 2399 C 213.677 1.21287 -4.23057 0
M  V30 2400 H 210.796 0.0619851 -0.734389 0
M  V30 2401 H 213.438 -0.53565 -1.82293 0
M  V30 2402 H 211.588 1.03327 -3.74507 0
M  V30 2403 H 213.26 -1.50265 -4.3614 0
M  V30 2404 H 211.503 -1.47851 -4.07827 0
M  V30 2405 H 212.174 -0.643249 -5.48239 0
M  V30 2406 H 214.65 0.700703 -4.10158 0
M  V30 2407 H 213.526 1.35909 -5.31808 0
M  V30 2408 H 213.787 2.23193 -3.81625 0
M  V30 2409 N 212.846 1.57033 -0.133567 0
M  V30 2410 C 214.093 1.95686 0.520877 0
M  V30 2411 C 214.421 1.0177 1.6575 0
M  V30 2412 O 213.676 0.0443195 1.9565 0
M  V30 2413 C 213.975 3.40674 1.08057 0
M  V30 2414 C 213.641 4.50855 0.0637899 0
M  V30 2415 C 212.303 4.80716 -0.215757 0
M  V30 2416 C 214.655 5.17398 -0.62835 0
M  V30 2417 C 211.983 5.74433 -1.19348 0
M  V30 2418 C 214.335 6.12167 -1.5948 0
M  V30 2419 C 212.999 6.40414 -1.88218 0
M  V30 2420 H 212.269 0.716067 0.190602 0
M  V30 2421 H 214.916 1.9026 -0.217556 0
M  V30 2422 H 213.221 3.42865 1.89606 0
M  V30 2423 H 214.918 3.67902 1.59529 0
M  V30 2424 H 211.508 4.27605 0.291855 0
M  V30 2425 H 215.692 4.94472 -0.425562 0
M  V30 2426 H 210.948 5.94616 -1.42272 0
M  V30 2427 H 215.122 6.6281 -2.13671 0
M  V30 2428 H 212.749 7.12838 -2.64133 0
M  V30 2429 N 214.325 -0.140222 1.56975 0
M  V30 2430 C 215.258 -1.20266 1.93936 0
M  V30 2431 C 216.236 -1.41212 0.806099 0
M  V30 2432 O 217.42 -1.55713 1.06234 0
M  V30 2433 C 214.547 -2.56037 2.21726 0
M  V30 2434 C 213.593 -2.51646 3.44349 0
M  V30 2435 S 214.426 -1.97678 4.97678 0
M  V30 2436 C 215.582 -3.35165 5.28597 0
M  V30 2437 H 215.815 -0.887358 2.83749 0
M  V30 2438 H 213.348 -0.346119 1.50471 0
M  V30 2439 H 215.306 -3.34167 2.38416 0
M  V30 2440 H 213.967 -2.84755 1.32566 0
M  V30 2441 H 213.16 -3.51608 3.61092 0
M  V30 2442 H 212.762 -1.81628 3.26936 0
M  V30 2443 H 215.054 -4.31302 5.2248 0
M  V30 2444 H 215.997 -3.23269 6.30002 0
M  V30 2445 H 216.405 -3.32614 4.56101 0
M  V30 2446 N 215.803 -1.52179 -0.40978 0
M  V30 2447 C 216.766 -1.74853 -1.48186 0
M  V30 2448 C 217.766 -0.618417 -1.48433 0
M  V30 2449 O 218.956 -0.886286 -1.49969 0
M  V30 2450 C 216.088 -1.8303 -2.87598 0
M  V30 2451 H 217.281 -2.70559 -1.29374 0
M  V30 2452 H 214.834 -1.42586 -0.640233 0
M  V30 2453 H 215.569 -0.89236 -3.11781 0
M  V30 2454 H 215.354 -2.65187 -2.88822 0
M  V30 2455 H 216.844 -2.02316 -3.65319 0
M  V30 2456 N 217.281 0.66697 -1.42791 0
M  V30 2457 C 218.509 1.45505 -1.47091 0
M  V30 2458 C 218.924 1.8861 -0.0845873 0
M  V30 2459 O 218.281 1.58632 0.90234 0
M  V30 2460 C 218.332 2.69906 -2.40485 0
M  V30 2461 O 218.053 2.28608 -3.73725 0
M  V30 2462 C 219.554 3.63396 -2.53886 0
M  V30 2463 H 216.774 0.447459 -0.500022 0
M  V30 2464 H 219.318 0.818866 -1.8739 0
M  V30 2465 H 217.473 3.29696 -2.03419 0
M  V30 2466 H 217.887 3.08997 -4.23817 0
M  V30 2467 H 219.361 4.47387 -3.2334 0
M  V30 2468 H 219.838 4.09824 -1.57927 0
M  V30 2469 H 220.444 3.09495 -2.91706 0
M  V30 2470 N 218.759 1.29093 0.90403 0
M  V30 2471 C 220.007 1.16583 1.65085 0
M  V30 2472 C 220.328 -0.283933 1.92922 0
M  V30 2473 O 219.598 -1.19509 1.55224 0
M  V30 2474 H 218.178 0.428467 0.611903 0
M  V30 2475 H 220.84 1.61959 1.08422 0
M  V30 2476 H 219.936 1.71266 2.6091 0
M  V30 2477 N 220.237 -1.11381 1.11499 0
M  V30 2478 C 221.648 -1.6465 0.880191 0
M  V30 2479 C 221.999 -1.87199 -0.587434 0
M  V30 2480 O 221.124 -1.60667 -1.44966 0
M  V30 2481 C 221.719 -2.99105 1.59128 0
M  V30 2482 C 220.278 -3.49279 1.40289 0
M  V30 2483 C 219.425 -2.24077 1.63354 0
M  V30 2484 H 222.376 -0.950123 1.27116 0
M  V30 2485 H 222.397 -3.66107 1.03664 0
M  V30 2486 H 221.909 -2.82661 2.65941 0
M  V30 2487 H 220.01 -3.70887 0.356888 0
M  V30 2488 H 220.123 -4.2803 2.15238 0
M  V30 2489 H 218.487 -2.31733 1.05698 0
M  V30 2490 H 219.27 -2.10175 2.71443 0
M  V30 2491 N 221.715 -0.905404 -1.28997 0
M  V30 2492 C 222.678 -0.392253 -2.25819 0
M  V30 2493 C 223.678 0.476753 -1.5357 0
M  V30 2494 O 224.868 0.280994 -1.71919 0
M  V30 2495 C 222 0.438588 -3.38067 0
M  V30 2496 H 223.193 -1.24743 -2.72725 0
M  V30 2497 H 220.746 -0.684051 -1.40536 0
M  V30 2498 H 221.481 1.31352 -2.96508 0
M  V30 2499 H 221.266 -0.184167 -3.91667 0
M  V30 2500 H 222.756 0.78873 -4.10084 0
M  V30 2501 N 223.193 1.4272 -0.668489 0
M  V30 2502 C 224.14 2.30796 0.0137489 0
M  V30 2503 C 225.11 1.4561 0.799177 0
M  V30 2504 O 226.295 1.74453 0.772702 0
M  V30 2505 C 223.435 3.31377 0.963507 0
M  V30 2506 C 222.548 4.31655 0.172569 0
M  V30 2507 C 221.683 5.19312 1.1175 0
M  V30 2508 C 220.722 6.11274 0.317886 0
M  V30 2509 N 219.859 6.91504 1.2152 0
M  V30 2510 H 224.699 2.88585 -0.743161 0
M  V30 2511 H 222.236 1.42154 -0.378226 0
M  V30 2512 H 224.194 3.88214 1.52792 0
M  V30 2513 H 222.824 2.75202 1.68712 0
M  V30 2514 H 221.876 3.76988 -0.508374 0
M  V30 2515 H 223.188 4.96779 -0.448527 0
M  V30 2516 H 222.342 5.80851 1.75206 0
M  V30 2517 H 221.081 4.5435 1.77249 0
M  V30 2518 H 220.086 5.48809 -0.329918 0
M  V30 2519 H 221.311 6.78283 -0.332917 0
M  V30 2520 H 219.257 6.29176 1.85671 0
M  V30 2521 H 219.174 7.53209 0.649036 0
M  V30 2522 H 220.442 7.57535 1.83742 0
M  V30 2523 N 224.671 0.411399 1.52136 0
M  V30 2524 C 225.619 -0.427633 2.28635 0
M  V30 2525 C 226.613 -1.04383 1.33419 0
M  V30 2526 O 227.819 -0.981772 1.50868 0
M  V30 2527 H 224.194 -0.156689 0.735495 0
M  V30 2528 H 226.165 0.238761 2.97443 0
M  V30 2529 C 224.914 -1.53082 3.12188 0
M  V30 2530 H 224.237 -1.06601 3.85326 0
M  V30 2531 H 225.677 -2.09167 3.68816 0
M  V30 2532 C 224.136 -2.49946 2.25895 0
M  V30 2533 O 224.666 -3.53884 1.90076 0
M  V30 2534 N 222.872 -2.2021 1.8962 0
M  V30 2535 H 222.419 -1.35719 2.18948 0
M  V30 2536 H 222.377 -2.85266 1.32176 0
M  V30 2537 N 226.149 -1.5696 0.141893 0
M  V30 2538 C 227.374 -2.00754 -0.520838 0
M  V30 2539 C 227.799 -1.0213 -1.57959 0
M  V30 2540 O 227.157 0.00371324 -1.813 0
M  V30 2541 C 227.205 -3.43318 -1.10294 0
M  V30 2542 O 226.309 -3.47679 -2.21795 0
M  V30 2543 H 225.65 -0.651564 -0.127908 0
M  V30 2544 H 228.18 -2.03221 0.23712 0
M  V30 2545 H 228.19 -3.82012 -1.43287 0
M  V30 2546 H 226.865 -4.14608 -0.327574 0
M  V30 2547 H 225.442 -3.20824 -1.9007 0
M  V30 2548 N 227.627 0.131896 -1.57047 0
M  V30 2549 C 228.575 1.18146 -2.0036 0
M  V30 2550 C 229.569 1.43614 -0.898406 0
M  V30 2551 O 230.775 1.43729 -1.08361 0
M  V30 2552 H 227.15 0.398042 -0.638018 0
M  V30 2553 H 229.121 0.789564 -2.87765 0
M  V30 2554 C 227.87 2.50341 -2.41298 0
M  V30 2555 H 227.193 2.31578 -3.25902 0
M  V30 2556 H 228.633 3.22371 -2.75414 0
M  V30 2557 C 227.092 3.11984 -1.27153 0
M  V30 2558 O 227.622 3.97484 -0.580459 0
M  V30 2559 N 225.828 2.71662 -1.03189 0
M  V30 2560 H 225.375 2.02231 -1.59564 0
M  V30 2561 H 225.333 3.13238 -0.270077 0
M  V30 2562 N 229.106 1.52395 0.401703 0
M  V30 2563 C 230.331 1.70972 1.17403 0
M  V30 2564 C 230.756 0.421615 1.83314 0
M  V30 2565 O 230.114 -0.621564 1.70312 0
M  V30 2566 C 230.162 2.85151 2.20728 0
M  V30 2567 O 229.266 2.51238 3.27037 0
M  V30 2568 H 228.607 0.568927 0.342372 0
M  V30 2569 H 231.137 1.99131 0.469891 0
M  V30 2570 H 231.147 3.10279 2.64936 0
M  V30 2571 H 229.822 3.78603 1.7214 0
M  V30 2572 H 228.399 2.36808 2.88057 0
M  V30 2573 N 230.584 -0.659388 1.43143 0
M  V30 2574 C 231.532 -1.79374 1.4808 0
M  V30 2575 C 232.526 -1.65639 0.354988 0
M  V30 2576 O 233.732 -1.7206 0.528704 0
M  V30 2577 H 230.107 -0.591705 0.4641 0
M  V30 2578 H 232.078 -1.72329 2.43609 0
M  V30 2579 C 230.827 -3.17606 1.41499 0
M  V30 2580 H 230.15 -3.28809 2.27431 0
M  V30 2581 H 231.59 -3.96951 1.49015 0
M  V30 2582 C 230.049 -3.36642 0.131765 0
M  V30 2583 O 230.579 -3.93461 -0.809386 0
M  V30 2584 N 228.785 -2.90567 0.0439396 0
M  V30 2585 H 228.332 -2.44513 0.810619 0
M  V30 2586 H 228.29 -3.03681 -0.813969 0
M  V30 2587 N 232.062 -1.29571 -0.897171 0
M  V30 2588 C 233.01 -1.14802 -2.02295 0
M  V30 2589 C 234.004 -0.0629637 -1.69283 0
M  V30 2590 O 235.21 -0.222945 -1.78614 0
M  V30 2591 H 231.585 -0.354692 -0.663097 0
M  V30 2592 H 233.556 -2.10108 -2.11889 0
M  V30 2593 C 232.305 -0.843966 -3.37302 0
M  V30 2594 H 231.628 -1.67093 -3.63208 0
M  V30 2595 H 233.068 -0.780672 -4.16751 0
M  V30 2596 C 231.527 0.452843 -3.33843 0
M  V30 2597 O 232.057 1.47813 -3.73516 0
M  V30 2598 N 230.263 0.459601 -2.86943 0
M  V30 2599 H 229.81 -0.375213 -2.54853 0
M  V30 2600 H 229.768 1.32726 -2.85011 0
M  V30 2601 N 233.54 1.10788 -1.12088 0
M  V30 2602 C 234.768 1.86461 -0.896651 0
M  V30 2603 C 235.183 1.80492 0.553912 0
M  V30 2604 O 234.54 1.19102 1.38278 0
M  V30 2605 C 234.591 3.35006 -1.35843 0
M  V30 2606 O 234.312 3.40866 -2.75213 0
M  V30 2607 C 235.813 4.27565 -1.1706 0
M  V30 2608 H 233.033 0.589425 -0.320654 0
M  V30 2609 H 235.577 1.40076 -1.48993 0
M  V30 2610 H 233.732 3.7887 -0.808458 0
M  V30 2611 H 234.146 4.33411 -2.9539 0
M  V30 2612 H 235.62 5.30007 -1.54263 0
M  V30 2613 H 236.097 4.3906 -0.110814 0
M  V30 2614 H 236.703 3.89501 -1.70789 0
M  V30 2615 N 235.018 0.912232 1.28515 0
M  V30 2616 C 236.295 0.463597 1.90027 0
M  V30 2617 C 236.675 -1.05753 1.82701 0
M  V30 2618 O 236.023 -1.90492 1.26194 0
M  V30 2619 C 236.233 0.992253 3.34597 0
M  V30 2620 C 237.581 1.04344 4.11579 0
M  V30 2621 O 238.605 0.94079 3.43551 0
M  V30 2622 O 237.464 1.1995 5.33174 0
M  V30 2623 H 234.558 0.146666 0.813891 0
M  V30 2624 H 237.104 1.00292 1.36893 0
M  V30 2625 H 235.876 2.03623 3.34146 0
M  V30 2626 H 235.499 0.433672 3.95228 0
M  V30 2627 N 236.496 -1.42363 0.676048 0
M  V30 2628 C 237.745 -2.00745 0.196037 0
M  V30 2629 C 238.058 -1.54083 -1.20489 0
M  V30 2630 O 239.264 -2.04891 -1.78134 0
M  V30 2631 C 237.72 -3.58651 0.299616 0
M  V30 2632 C 237.328 -4.143 1.70468 0
M  V30 2633 C 239.072 -4.24326 -0.121619 0
M  V30 2634 C 236.979 -5.64574 1.76096 0
M  V30 2635 H 235.909 -0.750787 0.0695301 0
M  V30 2636 H 238.56 -1.63072 0.841412 0
M  V30 2637 H 236.942 -3.93833 -0.413673 0
M  V30 2638 H 238.116 -3.90575 2.44515 0
M  V30 2639 H 236.431 -3.61081 2.07387 0
M  V30 2640 H 239.028 -5.34607 -0.0997362 0
M  V30 2641 H 239.371 -3.99897 -1.15708 0
M  V30 2642 H 239.904 -3.94108 0.540706 0
M  V30 2643 H 236.643 -5.93804 2.77628 0
M  V30 2644 H 236.163 -5.90286 1.06406 0
M  V30 2645 H 237.842 -6.29013 1.51496 0
M  V30 2646 N 237.974 -0.419461 -1.51915 0
M  V30 2647 C 238.937 0.389116 -2.25873 0
M  V30 2648 C 239.937 0.964924 -1.28631 0
M  V30 2649 O 241.127 0.842179 -1.52489 0
M  V30 2650 C 238.259 1.54874 -3.03689 0
M  V30 2651 H 239.452 -0.258799 -2.98781 0
M  V30 2652 H 237.005 -0.172209 -1.55348 0
M  V30 2653 H 237.74 2.23323 -2.35154 0
M  V30 2654 H 237.525 1.14223 -3.75094 0
M  V30 2655 H 239.015 2.12046 -3.59759 0
M  V30 2656 N 239.452 1.56882 -0.150215 0
M  V30 2657 C 240.362 2.20494 0.801222 0
M  V30 2658 C 241.378 1.19019 1.26927 0
M  V30 2659 O 242.554 1.51607 1.32579 0
M  V30 2660 C 239.619 2.81659 2.02161 0
M  V30 2661 C 238.68 3.9827 1.60249 0
M  V30 2662 C 237.913 4.56508 2.7647 0
M  V30 2663 O 238.136 4.13627 3.92771 0
M  V30 2664 O 237.07 5.46719 2.51757 0
M  V30 2665 H 240.896 3.02315 0.289717 0
M  V30 2666 H 238.481 1.49202 0.0769684 0
M  V30 2667 H 240.363 3.20522 2.73576 0
M  V30 2668 H 239.038 2.02849 2.52258 0
M  V30 2669 H 237.945 3.64117 0.858477 0
M  V30 2670 H 239.278 4.78609 1.14864 0
M  V30 2671 N 240.93 -0.123565 1.57115 0
M  V30 2672 C 242.17 -0.838097 1.86428 0
M  V30 2673 C 242.534 -1.77266 0.737611 0
M  V30 2674 O 243.735 -2.52842 0.912389 0
M  V30 2675 C 242.006 -1.57219 3.20962 0
M  V30 2676 S 243.565 -2.32893 3.71896 0
M  V30 2677 H 240.383 -0.279811 0.653626 0
M  V30 2678 H 242.985 -0.0967034 1.95261 0
M  V30 2679 H 241.689 -0.877522 4.00909 0
M  V30 2680 H 241.22 -2.35405 3.15195 0
M  V30 2681 H 243.235 -3.5853 3.43032 0
M  V30 2682 N 242.408 -1.52605 -0.393616 0
M  V30 2683 C 243.654 -1.67672 -1.14079 0
M  V30 2684 C 243.987 -0.413121 -1.89755 0
M  V30 2685 O 243.262 0.588952 -1.85369 0
M  V30 2686 C 243.545 -2.9088 -2.12276 0
M  V30 2687 C 243.398 -4.27329 -1.40394 0
M  V30 2688 C 244.717 -3.09628 -3.12759 0
M  V30 2689 H 241.836 -0.610168 -0.413356 0
M  V30 2690 H 244.478 -1.85193 -0.424696 0
M  V30 2691 H 242.628 -2.76073 -2.73342 0
M  V30 2692 H 244.3 -4.53894 -0.82327 0
M  V30 2693 H 242.543 -4.2802 -0.705801 0
M  V30 2694 H 243.214 -5.09615 -2.12123 0
M  V30 2695 H 245.69 -3.23436 -2.61779 0
M  V30 2696 H 244.566 -3.97322 -3.78717 0
M  V30 2697 H 244.827 -2.23637 -3.81365 0
M  V30 2698 N 243.887 0.651787 -1.4349 0
M  V30 2699 C 245.134 1.41167 -1.45183 0
M  V30 2700 C 245.462 1.94349 -0.0766601 0
M  V30 2701 O 244.717 1.72804 0.918555 0
M  V30 2702 C 245.016 2.60914 -2.44251 0
M  V30 2703 C 244.682 2.26142 -3.9009 0
M  V30 2704 C 243.344 2.16371 -4.2981 0
M  V30 2705 C 245.696 1.98334 -4.81989 0
M  V30 2706 C 243.024 1.7695 -5.5938 0
M  V30 2707 C 245.376 1.6041 -6.11924 0
M  V30 2708 C 244.04 1.49166 -6.5062 0
M  V30 2709 H 243.31 0.516566 -0.531263 0
M  V30 2710 H 245.957 0.741099 -1.76579 0
M  V30 2711 H 244.262 3.3311 -2.06265 0
M  V30 2712 H 245.959 3.19127 -2.42815 0
M  V30 2713 H 242.549 2.34658 -3.58655 0
M  V30 2714 H 246.733 2.04803 -4.52072 0
M  V30 2715 H 241.989 1.66831 -5.88198 0
M  V30 2716 H 246.163 1.37925 -6.82605 0
M  V30 2717 H 243.79 1.1839 -7.50925 0
M  V30 2718 N 245.365 1.30045 0.890287 0
M  V30 2719 C 246.593 1.21472 1.67487 0
M  V30 2720 C 247.008 -0.223241 1.87476 0
M  V30 2721 O 246.365 -1.14828 1.41847 0
M  V30 2722 C 246.416 1.93394 3.05419 0
M  V30 2723 O 246.137 3.31576 2.86337 0
M  V30 2724 C 247.638 1.91414 3.99844 0
M  V30 2725 H 244.858 0.420604 0.522813 0
M  V30 2726 H 247.402 1.7158 1.11268 0
M  V30 2727 H 245.557 1.47099 3.58386 0
M  V30 2728 H 245.971 3.67929 3.73802 0
M  V30 2729 H 247.445 2.46285 4.94012 0
M  V30 2730 H 247.922 0.891833 4.3005 0
M  V30 2731 H 248.528 2.37496 3.52811 0
M  V30 2732 N 246.843 -1.10192 1.12674 0
M  V30 2733 C 248.091 -1.81845 0.881861 0
M  V30 2734 C 248.412 -1.85737 -0.593867 0
M  V30 2735 O 247.682 -1.33724 -1.4316 0
M  V30 2736 H 246.262 -0.673432 0.323261 0
M  V30 2737 H 248.924 -1.33316 1.42172 0
M  V30 2738 H 248.02 -2.85288 1.2656 0
M  V30 2739 N 248.321 -0.919034 -1.28029 0
M  V30 2740 C 249.57 -0.550802 -1.94034 0
M  V30 2741 C 249.883 0.910877 -1.73096 0
M  V30 2742 O 251.089 1.3875 -2.33368 0
M  V30 2743 C 249.545 -0.934249 -3.47563 0
M  V30 2744 C 249.153 -2.41602 -3.7727 0
M  V30 2745 C 250.897 -0.636854 -4.19696 0
M  V30 2746 C 248.804 -2.73932 -5.24133 0
M  V30 2747 H 247.734 -0.202273 -0.726362 0
M  V30 2748 H 250.385 -1.11867 -1.45458 0
M  V30 2749 H 248.767 -0.295115 -3.94899 0
M  V30 2750 H 249.941 -3.10233 -3.40723 0
M  V30 2751 H 248.256 -2.68441 -3.18321 0
M  V30 2752 H 250.853 -0.855005 -5.2782 0
M  V30 2753 H 251.196 0.425575 -4.14119 0
M  V30 2754 H 251.729 -1.23469 -3.78154 0
M  V30 2755 H 248.468 -3.79049 -5.34792 0
M  V30 2756 H 247.988 -2.09942 -5.61858 0
M  V30 2757 H 249.667 -2.61215 -5.91925 0
M  V30 2758 N 249.799 1.42003 -0.683588 0
M  V30 2759 C 251.029 2.05448 -0.217866 0
M  V30 2760 C 251.437 1.51491 1.13346 0
M  V30 2761 O 250.78 0.653048 1.717 0
M  V30 2762 C 250.842 3.59399 -0.0850118 0
M  V30 2763 C 250.506 4.36093 -1.36645 0
M  V30 2764 C 251.503 4.66169 -2.30179 0
M  V30 2765 C 249.188 4.75578 -1.61649 0
M  V30 2766 C 251.182 5.34676 -3.46988 0
M  V30 2767 C 248.869 5.43824 -2.78745 0
M  V30 2768 C 249.867 5.73299 -3.71238 0
M  V30 2769 O 249.555 6.40142 -4.86285 0
M  V30 2770 H 249.287 0.668344 -0.101454 0
M  V30 2771 H 251.841 1.82974 -0.933248 0
M  V30 2772 H 250.071 3.80566 0.686031 0
M  V30 2773 H 251.76 4.04457 0.341973 0
M  V30 2774 H 252.526 4.36156 -2.12115 0
M  V30 2775 H 248.405 4.52025 -0.905243 0
M  V30 2776 H 251.949 5.57599 -4.19201 0
M  V30 2777 H 247.846 5.73254 -2.96732 0
M  V30 2778 H 248.614 6.58636 -4.85944 0
M  V30 2779 N 251.277 0.427512 1.51691 0
M  V30 2780 C 252.526 -0.143679 2.01188 0
M  V30 2781 C 252.839 -1.44642 1.31674 0
M  V30 2782 O 254.045 -2.09997 1.72086 0
M  V30 2783 C 252.501 -0.306602 3.58592 0
M  V30 2784 C 252.109 0.985125 4.37035 0
M  V30 2785 C 253.853 -0.832091 4.16265 0
M  V30 2786 C 251.76 0.788382 5.86122 0
M  V30 2787 H 250.69 -0.0574701 0.751807 0
M  V30 2788 H 253.341 0.555772 1.74881 0
M  V30 2789 H 251.723 -1.06882 3.81303 0
M  V30 2790 H 252.897 1.75492 4.26074 0
M  V30 2791 H 251.212 1.4384 3.90767 0
M  V30 2792 H 253.809 -0.995617 5.25349 0
M  V30 2793 H 254.152 -1.81186 3.74803 0
M  V30 2794 H 254.685 -0.128444 3.97593 0
M  V30 2795 H 251.424 1.74025 6.31978 0
M  V30 2796 H 250.944 0.0582143 5.99772 0
M  V30 2797 H 252.623 0.437722 6.45518 0
M  V30 2798 N 252.755 -1.56801 0.158532 0
M  V30 2799 C 254.002 -1.9649 -0.489679 0
M  V30 2800 C 254.33 -1.04394 -1.6411 0
M  V30 2801 O 253.585 -0.0754401 -1.95555 0
M  V30 2802 C 253.884 -3.4235 -1.02623 0
M  V30 2803 C 253.55 -4.50899 0.00794526 0
M  V30 2804 C 252.212 -4.80312 0.292207 0
M  V30 2805 C 254.564 -5.16333 0.710584 0
M  V30 2806 C 251.892 -5.72461 1.28472 0
M  V30 2807 C 254.244 -6.09553 1.69199 0
M  V30 2808 C 252.908 -6.37339 1.98383 0
M  V30 2809 H 252.178 -0.719009 -0.179186 0
M  V30 2810 H 254.825 -1.8989 0.247798 0
M  V30 2811 H 253.13 -3.45838 -1.84128 0
M  V30 2812 H 254.827 -3.70393 -1.53656 0
M  V30 2813 H 251.417 -4.28015 -0.22379 0
M  V30 2814 H 255.601 -4.93732 0.504174 0
M  V30 2815 H 250.857 -5.92278 1.51714 0
M  V30 2816 H 255.031 -6.59327 2.24189 0
M  V30 2817 H 252.658 -7.08546 2.7544 0
M  V30 2818 N 254.233 0.115231 -1.57178 0
M  V30 2819 C 255.143 1.15994 -2.03918 0
M  V30 2820 C 256.159 1.45103 -0.960268 0
M  V30 2821 O 257.335 1.56144 -1.27204 0
M  V30 2822 C 254.4 2.46568 -2.43732 0
M  V30 2823 C 253.461 2.24822 -3.65723 0
M  V30 2824 C 252.694 3.4917 -4.03629 0
M  V30 2825 O 252.917 4.56623 -3.41835 0
M  V30 2826 O 251.851 3.39949 -4.96708 0
M  V30 2827 H 255.677 0.793019 -2.93164 0
M  V30 2828 H 253.262 0.3263 -1.45793 0
M  V30 2829 H 255.144 3.23492 -2.70057 0
M  V30 2830 H 253.819 2.82726 -1.57631 0
M  V30 2831 H 252.726 1.45744 -3.44542 0
M  V30 2832 H 254.059 1.93566 -4.52541 0
M  V30 2833 N 255.711 1.52812 0.385517 0
M  V30 2834 C 256.674 1.77188 1.45386 0
M  V30 2835 C 257.674 0.641953 1.4743 0
M  V30 2836 O 258.864 0.910033 1.4854 0
M  V30 2837 C 255.996 1.87582 2.8465 0
M  V30 2838 H 257.189 2.72583 1.25054 0
M  V30 2839 H 254.742 1.43586 0.617467 0
M  V30 2840 H 255.477 0.941849 3.10322 0
M  V30 2841 H 255.262 2.69748 2.84567 0
M  V30 2842 H 256.752 2.08102 3.62054 0
M  V30 2843 N 257.189 -0.644168 1.43834 0
M  V30 2844 C 258.119 -1.76814 1.52509 0
M  V30 2845 C 259.1 -1.65823 0.379052 0
M  V30 2846 O 260.285 -1.84781 0.597466 0
M  V30 2847 C 257.415 -3.15288 1.4564 0
M  V30 2848 C 256.369 -3.41053 2.58586 0
M  V30 2849 C 255.695 -4.79421 2.36769 0
M  V30 2850 C 256.995 -3.34902 4.00797 0
M  V30 2851 H 258.689 -1.69812 2.46586 0
M  V30 2852 H 256.235 -0.815542 1.1868 0
M  V30 2853 H 258.188 -3.93681 1.50311 0
M  V30 2854 H 256.912 -3.23043 0.480725 0
M  V30 2855 H 255.571 -2.65035 2.53282 0
M  V30 2856 H 255.219 -4.83863 1.37424 0
M  V30 2857 H 254.919 -4.9762 3.12487 0
M  V30 2858 H 256.443 -5.6006 2.43238 0
M  V30 2859 H 257.857 -4.03218 4.07539 0
M  V30 2860 H 256.254 -3.64637 4.76613 0
M  V30 2861 H 257.324 -2.32928 4.25291 0
M  V30 2862 N 258.668 -1.30515 -0.883378 0
M  V30 2863 C 259.917 -1.18795 -1.63005 0
M  V30 2864 C 260.23 0.255923 -1.93919 0
M  V30 2865 O 261.436 0.494654 -2.66956 0
M  V30 2866 C 259.892 -2.07878 -2.93794 0
M  V30 2867 C 259.5 -3.57184 -2.70414 0
M  V30 2868 C 261.244 -2.04924 -3.71761 0
M  V30 2869 C 259.151 -4.38317 -3.97029 0
M  V30 2870 H 258.081 -0.441031 -0.611562 0
M  V30 2871 H 260.732 -1.55275 -0.977854 0
M  V30 2872 H 259.114 -1.64283 -3.60315 0
M  V30 2873 H 260.288 -4.08937 -2.12384 0
M  V30 2874 H 258.603 -3.61976 -2.0582 0
M  V30 2875 H 261.2 -2.62792 -4.65665 0
M  V30 2876 H 261.543 -1.0331 -4.03277 0
M  V30 2877 H 262.076 -2.46649 -3.12104 0
M  V30 2878 H 258.815 -5.40632 -3.70671 0
M  V30 2879 H 258.335 -3.91326 -4.54559 0
M  V30 2880 H 260.014 -4.49834 -4.65036 0
M  V30 2881 N 260.146 1.09593 -1.13257 0
M  V30 2882 C 261.093 2.1618 -0.808381 0
M  V30 2883 C 262.063 1.64517 0.228754 0
M  V30 2884 O 263.248 1.9053 0.101381 0
M  V30 2885 C 260.388 3.43973 -0.278675 0
M  V30 2886 C 259.501 4.09545 -1.37466 0
M  V30 2887 C 258.636 5.25088 -0.803479 0
M  V30 2888 C 257.675 5.82579 -1.87799 0
M  V30 2889 N 256.812 6.89486 -1.32488 0
M  V30 2890 H 261.652 2.43254 -1.72138 0
M  V30 2891 H 259.189 1.19392 -0.859294 0
M  V30 2892 H 261.147 4.17174 0.0465583 0
M  V30 2893 H 259.777 3.17223 0.597459 0
M  V30 2894 H 258.829 3.34226 -1.81652 0
M  V30 2895 H 260.141 4.48307 -2.18684 0
M  V30 2896 H 259.295 6.05178 -0.429427 0
M  V30 2897 H 258.034 4.87684 0.0397956 0
M  V30 2898 H 257.039 5.01152 -2.26113 0
M  V30 2899 H 258.264 6.22045 -2.72463 0
M  V30 2900 H 256.21 6.54064 -0.503575 0
M  V30 2901 H 256.127 7.27007 -2.07355 0
M  V30 2902 H 257.395 7.73336 -0.978336 0
M  V30 2903 N 261.624 0.925811 1.2754 0
M  V30 2904 C 262.873 0.561084 1.93739 0
M  V30 2905 C 263.186 -0.901685 1.73577 0
M  V30 2906 O 264.392 -1.37511 2.34101 0
M  V30 2907 C 262.848 0.952668 3.47062 0
M  V30 2908 C 262.456 2.43599 3.75983 0
M  V30 2909 C 264.2 0.659103 4.19352 0
M  V30 2910 C 262.107 2.76707 5.22673 0
M  V30 2911 H 261.037 0.206122 0.725279 0
M  V30 2912 H 263.688 1.12637 1.44863 0
M  V30 2913 H 262.07 0.316053 3.94737 0
M  V30 2914 H 263.244 3.12035 3.39073 0
M  V30 2915 H 261.559 2.70125 3.16893 0
M  V30 2916 H 264.156 0.882985 5.27359 0
M  V30 2917 H 264.499 -0.403607 4.14339 0
M  V30 2918 H 265.032 1.25473 3.77494 0
M  V30 2919 H 261.771 3.8188 5.32774 0
M  V30 2920 H 261.291 2.12919 5.60737 0
M  V30 2921 H 262.97 2.6435 5.90532 0
M  V30 2922 N 263.102 -1.41638 0.69111 0
M  V30 2923 C 264.032 -2.3347 0.037248 0
M  V30 2924 C 265.013 -1.51575 -0.771947 0
M  V30 2925 O 266.198 -1.80126 -0.72582 0
M  V30 2926 C 263.328 -3.35354 -0.903064 0
M  V30 2927 C 262.282 -4.27526 -0.201288 0
M  V30 2928 C 261.608 -5.19747 -1.25565 0
M  V30 2929 C 262.908 -5.13959 0.929689 0
M  V30 2930 H 264.602 -2.88397 0.804227 0
M  V30 2931 H 262.148 -1.38669 0.388189 0
M  V30 2932 H 264.101 -3.98519 -1.36969 0
M  V30 2933 H 262.825 -2.78767 -1.70166 0
M  V30 2934 H 261.484 -3.65779 0.245265 0
M  V30 2935 H 261.132 -4.59479 -2.04666 0
M  V30 2936 H 260.832 -5.8225 -0.791128 0
M  V30 2937 H 262.356 -5.85789 -1.72288 0
M  V30 2938 H 263.77 -5.70718 0.543546 0
M  V30 2939 H 262.167 -5.85379 1.32103 0
M  V30 2940 H 263.237 -4.51389 1.77133 0
M  V30 2941 N 264.58 -0.43555 -1.51462 0
M  V30 2942 C 265.543 0.365137 -2.26273 0
M  V30 2943 C 266.543 0.951227 -1.29647 0
M  V30 2944 O 267.733 0.825958 -1.53374 0
M  V30 2945 C 264.865 1.51645 -3.05314 0
M  V30 2946 H 266.058 -0.290474 -2.9849 0
M  V30 2947 H 263.611 -0.188676 -1.55157 0
M  V30 2948 H 264.346 2.20816 -2.3751 0
M  V30 2949 H 264.131 1.10238 -3.76284 0
M  V30 2950 H 265.621 2.08218 -3.61987 0
M  V30 2951 N 266.058 1.56714 -0.166846 0
M  V30 2952 C 267.474 1.58473 0.189372 0
M  V30 2953 C 267.674 1.18201 1.63189 0
M  V30 2954 O 266.73 0.891528 2.36237 0
M  V30 2955 C 268.043 3.00573 -0.0873872 0
M  V30 2956 C 269.591 3.1299 -0.0252443 0
M  V30 2957 C 270.066 4.57174 -0.274934 0
M  V30 2958 N 271.557 4.62665 -0.222553 0
M  V30 2959 C 272.292 5.72072 -0.389985 0
M  V30 2960 N 271.788 6.90054 -0.616229 0
M  V30 2961 N 273.581 5.61153 -0.326202 0
M  V30 2962 H 265.732 1.8118 -1.10849 0
M  V30 2963 H 267.995 0.839525 -0.440342 0
M  V30 2964 H 267.701 3.34497 -1.0865 0
M  V30 2965 H 267.575 3.72019 0.623037 0
M  V30 2966 H 269.962 2.78895 0.96444 0
M  V30 2967 H 270.043 2.43989 -0.768309 0
M  V30 2968 H 269.687 4.91976 -1.26181 0
M  V30 2969 H 269.617 5.24328 0.48869 0
M  V30 2970 H 272.108 3.77863 -0.0531512 0
M  V30 2971 H 272.421 7.69311 -0.733559 0
M  V30 2972 H 270.766 6.91927 -0.652791 0
M  V30 2973 H 273.957 4.67859 -0.150072 0
M  V30 2974 H 274.13 6.46364 -0.460116 0
M  V30 2975 N 267.536 -0.106894 1.57237 0
M  V30 2976 C 268.784 -0.810921 1.85117 0
M  V30 2977 C 269.105 -1.7984 0.753827 0
M  V30 2978 O 268.375 -1.94649 -0.221056 0
M  V30 2979 H 266.955 -0.302466 0.683025 0
M  V30 2980 H 269.617 -0.0913324 1.94686 0
M  V30 2981 H 268.713 -1.34875 2.81452 0
M  V30 2982 N 269.014 -1.53014 -0.377408 0
M  V30 2983 C 270.261 -1.68623 -1.12128 0
M  V30 2984 C 270.589 -0.431997 -1.89642 0
M  V30 2985 O 269.844 0.585855 -1.86725 0
M  V30 2986 C 270.143 -2.87982 -2.11663 0
M  V30 2987 C 269.809 -4.24964 -1.50719 0
M  V30 2988 C 268.471 -4.62217 -1.33825 0
M  V30 2989 C 270.823 -5.10199 -1.06519 0
M  V30 2990 C 268.151 -5.82352 -0.712963 0
M  V30 2991 C 270.503 -6.30969 -0.453955 0
M  V30 2992 C 269.167 -6.66944 -0.272411 0
M  V30 2993 H 268.437 -0.617034 -0.410305 0
M  V30 2994 H 271.084 -1.8718 -0.404484 0
M  V30 2995 H 269.389 -2.63889 -2.89603 0
M  V30 2996 H 271.086 -2.97253 -2.6915 0
M  V30 2997 H 267.676 -3.95626 -1.64858 0
M  V30 2998 H 271.86 -4.81978 -1.18368 0
M  V30 2999 H 267.116 -6.08824 -0.560611 0
M  V30 3000 H 271.29 -6.96324 -0.103217 0
M  V30 3001 H 268.917 -7.59898 0.214181 0
M  V30 3002 N 270.492 0.636531 -1.44174 0
M  V30 3003 C 271.741 1.39213 -1.45954 0
M  V30 3004 C 272.054 1.95374 -0.0939119 0
M  V30 3005 O 273.26 2.71498 0.0107767 0
M  V30 3006 C 271.716 2.52025 -2.56927 0
M  V30 3007 C 271.324 2.024 -3.99673 0
M  V30 3008 C 273.068 3.29269 -2.67922 0
M  V30 3009 C 270.975 3.12521 -5.0208 0
M  V30 3010 H 269.905 0.523132 -0.542999 0
M  V30 3011 H 272.556 0.685349 -1.70221 0
M  V30 3012 H 270.938 3.25253 -2.25891 0
M  V30 3013 H 272.112 1.36073 -4.40251 0
M  V30 3014 H 270.427 1.37987 -3.92872 0
M  V30 3015 H 273.024 4.11352 -3.41605 0
M  V30 3016 H 273.367 3.78397 -1.73555 0
M  V30 3017 H 273.9 2.63129 -2.98342 0
M  V30 3018 H 270.639 2.68343 -5.98057 0
M  V30 3019 H 270.159 3.77507 -4.66099 0
M  V30 3020 H 271.838 3.77385 -5.25538 0
M  V30 3021 N 271.97 1.30982 0.876444 0
M  V30 3022 C 272.9 1.20668 1.99903 0
M  V30 3023 C 273.881 0.095354 1.69833 0
M  V30 3024 O 275.066 0.27885 1.92188 0
M  V30 3025 C 272.196 0.90655 3.3526 0
M  V30 3026 C 271.15 1.97675 3.79617 0
M  V30 3027 C 270.476 1.52943 5.1236 0
M  V30 3028 C 271.776 3.389 3.97422 0
M  V30 3029 H 273.47 2.14586 2.0879 0
M  V30 3030 H 271.016 1.03308 1.00317 0
M  V30 3031 H 272.969 0.821025 4.13324 0
M  V30 3032 H 271.693 -0.0682969 3.26529 0
M  V30 3033 H 270.352 2.05205 3.03787 0
M  V30 3034 H 270 0.54262 5.00065 0
M  V30 3035 H 269.7 2.24532 5.43009 0
M  V30 3036 H 271.224 1.45786 5.92941 0
M  V30 3037 H 272.638 3.34081 4.659 0
M  V30 3038 H 271.035 4.0865 4.3946 0
M  V30 3039 H 272.105 3.80163 3.01006 0
M  V30 3040 N 273.449 -1.08991 1.13837 0
M  V30 3041 C 274.726 -1.77863 0.813876 0
M  V30 3042 C 275.106 -1.99375 -0.693746 0
M  V30 3043 O 274.454 -1.59875 -1.63255 0
M  V30 3044 C 274.664 -3.0986 1.60586 0
M  V30 3045 C 276.012 -3.84493 1.8014 0
M  V30 3046 O 277.036 -3.19624 1.57222 0
M  V30 3047 O 275.895 -5.00957 2.18413 0
M  V30 3048 H 272.989 -0.771589 0.297624 0
M  V30 3049 H 275.535 -1.15507 1.24323 0
M  V30 3050 H 274.307 -2.89715 2.63022 0
M  V30 3051 H 273.93 -3.79942 1.17173 0
M  V30 3052 N 274.927 -0.932562 -1.27047 0
M  V30 3053 C 275.837 -0.441219 -2.30414 0
M  V30 3054 C 276.853 0.480525 -1.67233 0
M  V30 3055 O 278.029 0.362151 -1.98117 0
M  V30 3056 C 275.094 0.293651 -3.45454 0
M  V30 3057 C 274.155 -0.663601 -4.2414 0
M  V30 3058 C 273.388 0.0362932 -5.33688 0
M  V30 3059 O 273.611 1.2548 -5.56427 0
M  V30 3060 O 272.545 -0.638015 -5.98509 0
M  V30 3061 H 276.371 -1.29962 -2.74488 0
M  V30 3062 H 273.956 -0.6981 -1.32087 0
M  V30 3063 H 275.838 0.707951 -4.15411 0
M  V30 3064 H 274.513 1.12758 -3.03426 0
M  V30 3065 H 273.42 -1.12768 -3.56699 0
M  V30 3066 H 274.753 -1.46489 -4.69896 0
M  V30 3067 N 276.405 1.4127 -0.698611 0
M  V30 3068 C 277.652 2.0118 -0.230865 0
M  V30 3069 C 277.98 1.55338 1.17049 0
M  V30 3070 O 277.235 0.756775 1.80475 0
M  V30 3071 C 277.534 3.56592 -0.240192 0
M  V30 3072 C 277.2 4.21955 -1.58948 0
M  V30 3073 C 275.862 4.39524 -1.95887 0
M  V30 3074 C 278.214 4.58576 -2.47704 0
M  V30 3075 C 275.542 4.90992 -3.2116 0
M  V30 3076 C 277.894 5.11435 -3.72313 0
M  V30 3077 C 276.558 5.27215 -4.0939 0
M  V30 3078 H 275.828 0.736169 -0.0844796 0
M  V30 3079 H 278.475 1.69124 -0.8983 0
M  V30 3080 H 276.78 3.88456 0.510797 0
M  V30 3081 H 278.477 4.00758 0.139296 0
M  V30 3082 H 275.067 4.08657 -1.29219 0
M  V30 3083 H 279.251 4.44654 -2.20445 0
M  V30 3084 H 274.507 5.01393 -3.49878 0
M  V30 3085 H 278.681 5.38752 -4.4127 0
M  V30 3086 H 276.308 5.66859 -5.06533 0
M  V30 3087 N 277.883 0.443576 1.51229 0
M  V30 3088 C 279.108 -0.121648 2.07043 0
M  V30 3089 C 279.533 -1.35156 1.30823 0
M  V30 3090 O 278.891 -1.7793 0.347934 0
M  V30 3091 C 278.939 -0.41624 3.5819 0
M  V30 3092 O 278.043 -1.50163 3.8409 0
M  V30 3093 H 277.384 0.000871367 0.663999 0
M  V30 3094 H 279.914 0.626706 1.94765 0
M  V30 3095 H 279.924 -0.664867 4.02546 0
M  V30 3096 H 278.599 0.482653 4.1309 0
M  V30 3097 H 277.176 -1.24248 3.51592 0
M  V30 3098 N 279.361 -1.56624 0.175154 0
M  V30 3099 C 280.608 -1.96999 -0.468811 0
M  V30 3100 C 280.936 -1.06129 -1.62994 0
M  V30 3101 O 280.191 -0.0961771 -1.95464 0
M  V30 3102 C 280.49 -3.43419 -0.989864 0
M  V30 3103 C 280.156 -4.50866 0.0557687 0
M  V30 3104 C 278.818 -4.79975 0.343134 0
M  V30 3105 C 281.17 -5.15551 0.765308 0
M  V30 3106 C 278.498 -5.71066 1.34536 0
M  V30 3107 C 280.85 -6.07724 1.75654 0
M  V30 3108 C 279.514 -6.35199 2.05132 0
M  V30 3109 H 278.784 -0.720869 -0.17155 0
M  V30 3110 H 281.431 -1.89616 0.267924 0
M  V30 3111 H 279.736 -3.47772 -1.80449 0
M  V30 3112 H 281.433 -3.72002 -1.49719 0
M  V30 3113 H 278.023 -4.28229 -0.178381 0
M  V30 3114 H 282.207 -4.9317 0.556513 0
M  V30 3115 H 277.463 -5.90635 1.57988 0
M  V30 3116 H 281.637 -6.56912 2.31169 0
M  V30 3117 H 279.264 -7.05584 2.8294 0
M  V30 3118 N 280.839 0.0985539 -1.57292 0
M  V30 3119 C 281.769 1.12064 -2.04851 0
M  V30 3120 C 282.75 1.41981 -0.936767 0
M  V30 3121 O 283.935 1.52071 -1.20781 0
M  V30 3122 C 281.065 2.44144 -2.47004 0
M  V30 3123 C 280.019 2.28643 -3.6181 0
M  V30 3124 C 279.345 3.65869 -3.89929 0
M  V30 3125 C 280.645 1.72986 -4.92822 0
M  V30 3126 H 282.339 0.724979 -2.9049 0
M  V30 3127 H 279.885 0.34729 -1.39749 0
M  V30 3128 H 281.838 3.15914 -2.78884 0
M  V30 3129 H 280.562 2.85639 -1.5836 0
M  V30 3130 H 279.221 1.59318 -3.30172 0
M  V30 3131 H 278.869 4.04885 -2.98458 0
M  V30 3132 H 278.569 3.56344 -4.67218 0
M  V30 3133 H 280.093 4.39112 -4.2428 0
M  V30 3134 H 281.507 2.34593 -5.23105 0
M  V30 3135 H 279.904 1.74229 -5.74251 0
M  V30 3136 H 280.974 0.689007 -4.7998 0
M  V30 3137 N 282.317 1.53212 0.369288 0
M  V30 3138 C 283.733 1.42902 0.710712 0
M  V30 3139 C 283.933 0.565135 1.93413 0
M  V30 3140 O 282.989 0.0461484 2.52458 0
M  V30 3141 C 284.302 2.86042 0.927382 0
M  V30 3142 C 285.85 2.9565 1.02762 0
M  V30 3143 C 286.325 4.39843 1.27679 0
M  V30 3144 N 287.816 4.43256 1.34457 0
M  V30 3145 C 288.551 5.51929 1.55439 0
M  V30 3146 N 288.047 6.70655 1.73762 0
M  V30 3147 N 289.84 5.39502 1.57779 0
M  V30 3148 H 281.991 2.07888 -0.435457 0
M  V30 3149 H 284.254 0.938661 -0.132739 0
M  V30 3150 H 283.96 3.51557 0.100287 0
M  V30 3151 H 283.834 3.29472 1.83653 0
M  V30 3152 H 286.221 2.30291 1.84527 0
M  V30 3153 H 286.302 2.5562 0.0959504 0
M  V30 3154 H 285.946 5.05774 0.464175 0
M  V30 3155 H 285.876 4.77443 2.22162 0
M  V30 3156 H 288.367 3.5769 1.21926 0
M  V30 3157 H 288.68 7.49248 1.89335 0
M  V30 3158 H 287.025 6.73648 1.70948 0
M  V30 3159 H 290.216 4.45713 1.43029 0
M  V30 3160 H 290.389 6.2426 1.7379 0
M  V30 3161 N 283.795 -0.628877 1.44509 0
M  V30 3162 C 285.072 -1.38733 1.37886 0
M  V30 3163 C 285.452 -2.11065 0.0387008 0
M  V30 3164 O 284.8 -2.06476 -0.97878 0
M  V30 3165 C 285.01 -2.35188 2.57852 0
M  V30 3166 C 286.358 -2.9845 3.02014 0
M  V30 3167 O 287.382 -2.45513 2.58073 0
M  V30 3168 O 286.241 -3.94487 3.78209 0
M  V30 3169 H 283.335 -0.621015 0.54614 0
M  V30 3170 H 285.881 -0.653744 1.56602 0
M  V30 3171 H 284.653 -1.80855 3.46998 0
M  V30 3172 H 284.276 -3.1596 2.4136 0
M  V30 3173 N 285.273 -1.31445 -0.869486 0
M  V30 3174 C 286.684 -1.19042 -1.43826 0
M  V30 3175 C 287.035 0.202919 -1.95148 0
M  V30 3176 O 286.16 1.10071 -1.86315 0
M  V30 3177 C 286.755 -2.15499 -2.6143 0
M  V30 3178 C 285.314 -2.07028 -3.14351 0
M  V30 3179 C 284.461 -2.04701 -1.87063 0
M  V30 3180 H 287.412 -1.43489 -0.677984 0
M  V30 3181 H 287.433 -1.74488 -3.38134 0
M  V30 3182 H 286.945 -3.16899 -2.24046 0
M  V30 3183 H 285.046 -1.08825 -3.56354 0
M  V30 3184 H 285.159 -2.96157 -3.766 0
M  V30 3185 H 283.523 -1.49724 -2.06046 0
M  V30 3186 H 284.306 -3.07857 -1.51917 0
M  V30 3187 N 286.751 1.08385 -1.14413 0
M  V30 3188 C 287.997 1.81212 -0.923793 0
M  V30 3189 C 288.352 1.84555 0.543814 0
M  V30 3190 O 287.645 1.31056 1.39767 0
M  V30 3191 C 287.839 3.26273 -1.45879 0
M  V30 3192 C 287.668 3.37063 -2.97689 0
M  V30 3193 C 286.438 3.4824 -3.66138 0
M  V30 3194 C 288.636 3.28698 -3.95553 0
M  V30 3195 N 286.618 3.47824 -5.05858 0
M  V30 3196 C 287.989 3.35276 -5.21527 0
M  V30 3197 C 290.044 3.12437 -3.8767 0
M  V30 3198 C 288.747 3.27267 -6.40538 0
M  V30 3199 C 290.773 3.05757 -5.06228 0
M  V30 3200 C 290.135 3.12938 -6.3107 0
M  V30 3201 H 286.234 0.6769 -0.391574 0
M  V30 3202 H 288.818 1.29455 -1.45429 0
M  V30 3203 H 286.989 3.76474 -0.95507 0
M  V30 3204 H 288.721 3.87165 -1.17835 0
M  V30 3205 H 285.476 3.52141 -3.16692 0
M  V30 3206 H 285.9 3.51171 -5.78798 0
M  V30 3207 H 290.542 3.05747 -2.92025 0
M  V30 3208 H 288.26 3.32718 -7.36427 0
M  V30 3209 H 291.846 2.94295 -5.01878 0
M  V30 3210 H 290.726 3.078 -7.21269 0
M  V30 3211 N 288.23 0.939286 1.26551 0
M  V30 3212 C 289.178 0.43815 2.28436 0
M  V30 3213 C 290.172 -0.483587 1.62351 0
M  V30 3214 O 291.378 -0.362009 1.76322 0
M  V30 3215 H 287.753 0.123149 0.741848 0
M  V30 3216 H 289.724 1.31002 2.68106 0
M  V30 3217 C 288.473 -0.283052 3.46546 0
M  V30 3218 H 287.796 0.417043 3.97619 0
M  V30 3219 H 289.236 -0.597948 4.19763 0
M  V30 3220 C 287.695 -1.50018 3.01656 0
M  V30 3221 O 288.225 -2.59855 3.0633 0
M  V30 3222 N 286.431 -1.35608 2.57019 0
M  V30 3223 H 285.978 -0.46244 2.53415 0
M  V30 3224 H 285.936 -2.17165 2.27347 0
M  V30 3225 N 289.708 -1.40897 0.706093 0
M  V30 3226 C 290.954 -2.01849 0.250681 0
M  V30 3227 C 291.309 -1.5496 -1.14041 0
M  V30 3228 O 290.602 -0.755566 -1.76073 0
M  V30 3229 C 290.796 -3.5646 0.259099 0
M  V30 3230 C 290.625 -4.18357 1.64947 0
M  V30 3231 C 289.395 -4.522 2.25485 0
M  V30 3232 C 291.593 -4.43856 2.598 0
M  V30 3233 N 289.575 -4.9944 3.56977 0
M  V30 3234 C 290.946 -4.92986 3.75985 0
M  V30 3235 C 293.001 -4.25882 2.57933 0
M  V30 3236 C 291.704 -5.2603 4.90597 0
M  V30 3237 C 293.73 -4.6002 3.71665 0
M  V30 3238 C 293.092 -5.09331 4.86581 0
M  V30 3239 H 289.191 -0.769843 0.137353 0
M  V30 3240 H 291.775 -1.71278 0.925845 0
M  V30 3241 H 289.946 -3.86481 -0.385592 0
M  V30 3242 H 291.678 -4.04144 -0.21213 0
M  V30 3243 H 288.433 -4.3901 1.77671 0
M  V30 3244 H 288.857 -5.27454 4.24407 0
M  V30 3245 H 293.499 -3.86986 1.70298 0
M  V30 3246 H 291.217 -5.63843 5.78884 0
M  V30 3247 H 294.803 -4.47762 3.71484 0
M  V30 3248 H 293.683 -5.35251 5.73129 0
M  V30 3249 N 291.186 -0.45159 -1.50991 0
M  V30 3250 C 292.116 0.342898 -2.30969 0
M  V30 3251 C 293.097 1.00815 -1.37005 0
M  V30 3252 O 294.282 1.00907 -1.65926 0
M  V30 3253 C 291.412 1.43637 -3.16205 0
M  V30 3254 C 290.366 0.893818 -4.18563 0
M  V30 3255 C 289.692 2.08411 -4.92411 0
M  V30 3256 C 290.992 -0.0815568 -5.22236 0
M  V30 3257 H 292.686 -0.324556 -2.97636 0
M  V30 3258 H 290.232 -0.157531 -1.43136 0
M  V30 3259 H 292.185 1.9995 -3.70942 0
M  V30 3260 H 290.909 2.13232 -2.47386 0
M  V30 3261 H 289.568 0.352798 -3.64898 0
M  V30 3262 H 289.216 2.76658 -4.20082 0
M  V30 3263 H 288.916 1.72741 -5.61636 0
M  V30 3264 H 290.44 2.65251 -5.49976 0
M  V30 3265 H 291.854 0.391742 -5.7196 0
M  V30 3266 H 290.251 -0.351551 -5.99069 0
M  V30 3267 H 291.321 -1.01374 -4.74185 0
M  V30 3268 N 292.664 1.56529 -0.183458 0
M  V30 3269 C 293.941 1.88959 0.50536 0
M  V30 3270 C 294.321 1.09523 1.80466 0
M  V30 3271 O 293.669 0.19278 2.27685 0
M  V30 3272 C 293.879 3.41162 0.73547 0
M  V30 3273 C 295.227 4.11155 1.06005 0
M  V30 3274 O 296.251 3.46548 0.823594 0
M  V30 3275 O 295.11 5.25318 1.50675 0
M  V30 3276 H 292.204 0.78441 0.261973 0
M  V30 3277 H 294.75 1.68231 -0.222802 0
M  V30 3278 H 293.522 3.90874 -0.182561 0
M  V30 3279 H 293.145 3.67543 1.51651 0
M  V30 3280 N 294.142 -0.090211 1.57342 0
M  V30 3281 C 295.367 -0.810082 1.90925 0
M  V30 3282 C 295.792 -1.71248 0.778187 0
M  V30 3283 O 295.15 -1.79278 -0.269991 0
M  V30 3284 C 295.198 -1.59529 3.23393 0
M  V30 3285 O 294.302 -2.70461 3.11327 0
M  V30 3286 H 293.643 -0.222231 0.625707 0
M  V30 3287 H 296.173 -0.0639716 2.045 0
M  V30 3288 H 296.183 -1.97847 3.5682 0
M  V30 3289 H 294.858 -0.933055 4.05299 0
M  V30 3290 H 293.435 -2.35135 2.89423 0
M  V30 3291 N 295.62 -1.53406 -0.361157 0
M  V30 3292 C 296.869 -1.69022 -1.10066 0
M  V30 3293 C 297.182 -0.450838 -1.90333 0
M  V30 3294 O 298.388 -0.487617 -2.67085 0
M  V30 3295 C 296.844 -2.98812 -2.00598 0
M  V30 3296 C 296.452 -4.30027 -1.25621 0
M  V30 3297 C 298.196 -3.23795 -2.74513 0
M  V30 3298 C 296.103 -5.50903 -2.1508 0
M  V30 3299 H 295.033 -0.629776 -0.414606 0
M  V30 3300 H 297.684 -1.79907 -0.361348 0
M  V30 3301 H 296.066 -2.8174 -2.78278 0
M  V30 3302 H 297.24 -4.57745 -0.529739 0
M  V30 3303 H 295.555 -4.11522 -0.635496 0
M  V30 3304 H 298.152 -4.11289 -3.41681 0
M  V30 3305 H 298.495 -2.40045 -3.40123 0
M  V30 3306 H 299.028 -3.41561 -2.03914 0
M  V30 3307 H 295.767 -6.37143 -1.54041 0
M  V30 3308 H 295.287 -5.27459 -2.85565 0
M  V30 3309 H 296.966 -5.85865 -2.74538 0
M  V30 3310 N 297.098 0.621204 -1.44841 0
M  V30 3311 C 298.344 1.3826 -1.48365 0
M  V30 3312 C 298.677 1.93831 -0.119624 0
M  V30 3313 O 297.952 1.74251 0.864111 0
M  V30 3314 C 298.235 2.54058 -2.55199 0
M  V30 3315 C 298.088 2.03772 -4.00995 0
M  V30 3316 C 299.407 3.56225 -2.58442 0
M  V30 3317 H 296.526 0.501374 -0.540179 0
M  V30 3318 H 299.168 0.7015 -1.76576 0
M  V30 3319 H 297.318 3.12162 -2.31274 0
M  V30 3320 H 298.99 1.50423 -4.36086 0
M  V30 3321 H 297.233 1.34876 -4.12299 0
M  V30 3322 H 297.904 2.87185 -4.71411 0
M  V30 3323 H 300.38 3.07939 -2.79844 0
M  V30 3324 H 299.256 4.34756 -3.3508 0
M  V30 3325 H 299.517 4.10949 -1.63013 0
M  V30 3326 N 298.576 1.31904 0.862503 0
M  V30 3327 C 299.825 1.21373 1.61094 0
M  V30 3328 C 300.138 -0.22504 1.94301 0
M  V30 3329 O 301.344 -0.452121 2.67709 0
M  V30 3330 C 299.8 2.12525 2.9045 0
M  V30 3331 C 299.408 3.61441 2.64697 0
M  V30 3332 C 301.152 2.10813 3.68454 0
M  V30 3333 C 299.059 4.44578 3.90006 0
M  V30 3334 H 297.989 0.450705 0.604468 0
M  V30 3335 H 300.64 1.56811 0.953027 0
M  V30 3336 H 299.022 1.69994 3.57656 0
M  V30 3337 H 300.196 4.12264 2.05851 0
M  V30 3338 H 298.511 3.65205 2.00036 0
M  V30 3339 H 301.108 2.70167 4.61426 0
M  V30 3340 H 301.451 1.09713 4.01583 0
M  V30 3341 H 301.984 2.51583 3.08141 0
M  V30 3342 H 298.723 5.46461 3.62023 0
M  V30 3343 H 298.243 3.98508 4.48276 0
M  V30 3344 H 299.922 4.57176 4.5782 0
M  V30 3345 N 300.054 -1.07777 1.14986 0
M  V30 3346 C 301.302 -1.79934 0.920235 0
M  V30 3347 C 301.623 -1.86955 -0.554336 0
M  V30 3348 O 300.893 -1.36731 -1.40291 0
M  V30 3349 H 299.473 -0.666424 0.337473 0
M  V30 3350 H 302.135 -1.3027 1.44968 0
M  V30 3351 H 301.231 -2.82539 1.32583 0
M  V30 3352 N 301.532 -0.945985 -1.26051 0
M  V30 3353 C 302.781 -0.591836 -1.92822 0
M  V30 3354 C 303.094 0.873956 -1.7499 0
M  V30 3355 O 304.3 1.33769 -2.36259 0
M  V30 3356 C 302.756 -1.00776 -3.45503 0
M  V30 3357 C 302.364 -2.4955 -3.7206 0
M  V30 3358 C 304.108 -0.725735 -4.1825 0
M  V30 3359 C 302.015 -2.84988 -5.18205 0
M  V30 3360 H 300.945 -0.217635 -0.721908 0
M  V30 3361 H 303.596 -1.14927 -1.43052 0
M  V30 3362 H 301.978 -0.378812 -3.94184 0
M  V30 3363 H 303.152 -3.1739 -3.34066 0
M  V30 3364 H 301.467 -2.75133 -3.12555 0
M  V30 3365 H 304.064 -0.966771 -5.25887 0
M  V30 3366 H 304.407 0.337639 -4.14929 0
M  V30 3367 H 304.94 -1.31463 -3.7545 0
M  V30 3368 H 301.679 -3.90307 -5.26631 0
M  V30 3369 H 301.199 -2.21813 -5.57278 0
M  V30 3370 H 302.878 -2.73712 -5.86252 0
M  V30 3371 N 303.011 1.40521 -0.713556 0
M  V30 3372 C 303.974 2.29098 -0.0684347 0
M  V30 3373 C 304.974 1.45268 0.689472 0
M  V30 3374 O 306.164 1.66205 0.521677 0
M  V30 3375 C 303.296 3.28446 0.913024 0
M  V30 3376 H 304.489 2.87645 -0.84855 0
M  V30 3377 H 302.042 1.48809 -0.47809 0
M  V30 3378 H 302.777 2.74913 1.72027 0
M  V30 3379 H 302.562 3.90327 0.372472 0
M  V30 3380 H 304.052 3.94777 1.36165 0
M  V30 3381 N 304.489 0.459591 1.5075 0
M  V30 3382 C 305.738 -0.100971 2.01447 0
M  V30 3383 C 306.051 -1.41816 1.34713 0
M  V30 3384 O 307.257 -2.06299 1.76502 0
M  V30 3385 C 305.713 -0.23047 3.59161 0
M  V30 3386 C 305.321 1.0776 4.34847 0
M  V30 3387 C 307.065 -0.743608 4.17936 0
M  V30 3388 C 304.972 0.91253 5.84317 0
M  V30 3389 H 303.902 -0.0415102 0.752856 0
M  V30 3390 H 306.553 0.592742 1.73663 0
M  V30 3391 H 304.935 -0.987703 3.83485 0
M  V30 3392 H 306.109 1.8449 4.22256 0
M  V30 3393 H 304.424 1.52097 3.87628 0
M  V30 3394 H 307.021 -0.883959 5.27343 0
M  V30 3395 H 307.364 -1.73196 3.78562 0
M  V30 3396 H 307.897 -0.04408 3.97776 0
M  V30 3397 H 304.636 1.87391 6.28144 0
M  V30 3398 H 304.156 0.185422 5.99513 0
M  V30 3399 H 305.835 0.574547 6.44444 0
M  V30 3400 N 305.967 -1.56429 0.191757 0
M  V30 3401 C 307.213 -1.97777 -0.448554 0
M  V30 3402 C 307.546 -1.07847 -1.61501 0
M  V30 3403 O 306.821 -0.129774 -1.94067 0
M  V30 3404 C 307.104 -3.48362 -0.911906 0
M  V30 3405 C 306.957 -4.4907 0.256136 0
M  V30 3406 C 308.276 -4.02561 -1.77857 0
M  V30 3407 H 305.395 -0.719071 -0.161572 0
M  V30 3408 H 308.037 -1.87896 0.282007 0
M  V30 3409 H 306.187 -3.56914 -1.53442 0
M  V30 3410 H 307.859 -4.5256 0.893733 0
M  V30 3411 H 306.102 -4.24181 0.908436 0
M  V30 3412 H 306.773 -5.51889 -0.11053 0
M  V30 3413 H 309.249 -3.96767 -1.25359 0
M  V30 3414 H 308.125 -5.08301 -2.07174 0
M  V30 3415 H 308.386 -3.47616 -2.73158 0
M  V30 3416 N 307.445 0.0818655 -1.57387 0
M  V30 3417 C 308.67 0.799946 -1.91352 0
M  V30 3418 C 309.095 1.70833 -0.787258 0
M  V30 3419 O 308.453 1.79419 0.26048 0
M  V30 3420 C 308.501 1.57812 -3.24234 0
M  V30 3421 O 307.605 2.68806 -3.12757 0
M  V30 3422 H 306.946 0.21891 -0.626877 0
M  V30 3423 H 309.476 0.0531256 -2.04531 0
M  V30 3424 H 309.486 1.95952 -3.57864 0
M  V30 3425 H 308.161 0.911548 -4.05788 0
M  V30 3426 H 306.738 2.33597 -2.90666 0
M  V30 3427 N 308.923 1.53595 0.353017 0
M  V30 3428 C 310.153 1.74058 1.11299 0
M  V30 3429 C 310.561 0.475205 1.83135 0
M  V30 3430 O 309.904 -0.562344 1.74881 0
M  V30 3431 C 309.966 2.85994 2.17825 0
M  V30 3432 C 309.63 4.25923 1.65647 0
M  V30 3433 C 310.627 5.07829 1.11383 0
M  V30 3434 C 308.312 4.72377 1.7078 0
M  V30 3435 C 310.306 6.34285 0.629439 0
M  V30 3436 C 307.993 5.98808 1.21953 0
M  V30 3437 C 308.991 6.79594 0.681265 0
M  V30 3438 O 308.679 8.03651 0.200248 0
M  V30 3439 H 308.411 0.585327 0.338183 0
M  V30 3440 H 310.965 2.01186 0.413927 0
M  V30 3441 H 309.195 2.54368 2.91262 0
M  V30 3442 H 310.884 2.94515 2.79313 0
M  V30 3443 H 311.65 4.73107 1.06746 0
M  V30 3444 H 307.529 4.0956 2.11617 0
M  V30 3445 H 311.073 6.97288 0.208636 0
M  V30 3446 H 306.97 6.33026 1.26287 0
M  V30 3447 H 307.738 8.1788 0.318416 0
M  V30 3448 N 310.401 -0.613514 1.45168 0
M  V30 3449 C 311.65 -1.36874 1.4815 0
M  V30 3450 C 311.963 -1.952 0.124982 0
M  V30 3451 O 313.169 -2.71481 0.0324176 0
M  V30 3452 C 311.625 -2.47905 2.60904 0
M  V30 3453 C 311.233 -1.96016 4.02842 0
M  V30 3454 C 312.977 -3.24965 2.73126 0
M  V30 3455 C 310.884 -3.04494 5.06988 0
M  V30 3456 H 309.814 -0.514428 0.551253 0
M  V30 3457 H 312.465 -0.658182 1.7129 0
M  V30 3458 H 310.847 -3.21618 2.31037 0
M  V30 3459 H 312.021 -1.29051 4.4236 0
M  V30 3460 H 310.336 -1.31719 3.95018 0
M  V30 3461 H 312.933 -4.05865 3.48106 0
M  V30 3462 H 313.276 -3.75588 1.79553 0
M  V30 3463 H 313.809 -2.5835 3.0249 0
M  V30 3464 H 310.548 -2.58795 6.0225 0
M  V30 3465 H 310.068 -3.70044 4.72046 0
M  V30 3466 H 311.747 -3.68976 5.31475 0
M  V30 3467 N 311.879 -1.3236 -0.855495 0
M  V30 3468 C 313.29 -1.2056 -1.42556 0
M  V30 3469 C 313.641 0.182209 -1.95352 0
M  V30 3470 O 312.766 1.08088 -1.87472 0
M  V30 3471 C 313.361 -2.1826 -2.59129 0
M  V30 3472 C 311.92 -2.10351 -3.12137 0
M  V30 3473 C 311.067 -2.06674 -1.84882 0
M  V30 3474 H 314.018 -1.442 -0.662727 0
M  V30 3475 H 314.039 -1.78064 -3.36264 0
M  V30 3476 H 313.551 -3.19257 -2.20673 0
M  V30 3477 H 311.652 -1.12599 -3.55179 0
M  V30 3478 H 311.765 -3.00135 -3.73438 0
M  V30 3479 H 310.129 -1.51901 -2.04446 0
M  V30 3480 H 310.912 -3.09451 -1.48643 0
M  V30 3481 N 313.357 1.07166 -1.15556 0
M  V30 3482 C 314.605 1.79443 -0.929764 0
M  V30 3483 C 314.926 1.87246 0.544414 0
M  V30 3484 O 314.196 1.37473 1.39564 0
M  V30 3485 H 312.776 0.664625 -0.341003 0
M  V30 3486 H 315.438 1.29499 -1.45657 0
M  V30 3487 H 314.534 2.81832 -1.34079 0
M  V30 3488 N 314.835 0.952656 1.25548 0
M  V30 3489 C 316.084 0.602053 1.92505 0
M  V30 3490 C 316.397 -0.864663 1.75451 0
M  V30 3491 O 317.603 -1.32514 2.36965 0
M  V30 3492 C 316.059 1.02607 3.44963 0
M  V30 3493 C 315.667 2.51519 3.70732 0
M  V30 3494 C 317.411 0.747905 4.1786 0
M  V30 3495 C 315.318 2.87732 5.16686 0
M  V30 3496 H 314.248 0.22146 0.720744 0
M  V30 3497 H 316.899 1.15684 1.42441 0
M  V30 3498 H 315.281 0.399712 3.93978 0
M  V30 3499 H 316.455 3.19157 3.32378 0
M  V30 3500 H 314.77 2.76786 3.11092 0
M  V30 3501 H 317.367 0.994647 5.25367 0
M  V30 3502 H 317.71 -0.315629 4.15102 0
M  V30 3503 H 318.243 1.33452 3.74747 0
M  V30 3504 H 314.982 3.93095 5.24554 0
M  V30 3505 H 314.502 2.24765 5.56094 0
M  V30 3506 H 316.181 2.76817 5.84792 0
M  V30 3507 N 316.313 -1.40141 0.720998 0
M  V30 3508 C 317.541 -2.05096 0.272656 0
M  V30 3509 C 317.956 -1.54334 -1.0875 0
M  V30 3510 O 317.313 -0.702211 -1.6845 0
M  V30 3511 C 317.364 -3.60636 0.249835 0
M  V30 3512 O 317.085 -4.09526 1.55629 0
M  V30 3513 C 318.586 -4.42772 -0.216396 0
M  V30 3514 H 315.806 -0.659897 0.121558 0
M  V30 3515 H 318.35 -1.79449 0.980723 0
M  V30 3516 H 316.505 -3.85232 -0.409237 0
M  V30 3517 H 316.919 -5.03758 1.4604 0
M  V30 3518 H 318.393 -5.51702 -0.181212 0
M  V30 3519 H 318.87 -4.20756 -1.25941 0
M  V30 3520 H 319.476 -4.23294 0.412596 0
M  V30 3521 N 317.792 -0.46758 -1.50504 0
M  V30 3522 C 319.041 0.0902868 -2.01498 0
M  V30 3523 C 319.354 1.411 -1.35463 0
M  V30 3524 O 320.56 2.0536 -1.77594 0
M  V30 3525 C 319.016 0.21142 -3.59278 0
M  V30 3526 C 318.624 -1.10065 -4.34269 0
M  V30 3527 C 320.368 0.721433 -4.18325 0
M  V30 3528 C 318.275 -0.943505 -5.83825 0
M  V30 3529 H 317.205 0.037517 -0.753066 0
M  V30 3530 H 319.856 -0.601943 -1.73346 0
M  V30 3531 H 318.238 0.967352 -3.84003 0
M  V30 3532 H 319.412 -1.86726 -4.21272 0
M  V30 3533 H 317.727 -1.5415 -3.86816 0
M  V30 3534 H 320.324 0.85598 -5.27804 0
M  V30 3535 H 320.667 1.71186 -3.79475 0
M  V30 3536 H 321.2 0.0229843 -3.97793 0
M  V30 3537 H 317.939 -1.90719 -6.27141 0
M  V30 3538 H 317.459 -0.217213 -5.99407 0
M  V30 3539 H 319.138 -0.608715 -6.4413 0
M  V30 3540 N 319.27 1.56325 -0.20005 0
M  V30 3541 C 320.217 2.1932 0.718833 0
M  V30 3542 C 321.187 1.14198 1.20615 0
M  V30 3543 O 322.372 1.42469 1.26914 0
M  V30 3544 C 319.512 2.86041 1.93066 0
M  V30 3545 C 318.625 4.05702 1.48425 0
M  V30 3546 C 317.76 4.60266 2.65196 0
M  V30 3547 C 316.799 5.72273 2.17185 0
M  V30 3548 N 315.936 6.21221 3.27152 0
M  V30 3549 H 320.776 2.97486 0.17489 0
M  V30 3550 H 318.313 1.46911 0.0745794 0
M  V30 3551 H 320.271 3.22897 2.64184 0
M  V30 3552 H 318.901 2.1043 2.44783 0
M  V30 3553 H 317.953 3.74475 0.668755 0
M  V30 3554 H 319.265 4.86699 1.09204 0
M  V30 3555 H 318.419 4.99453 3.4443 0
M  V30 3556 H 317.158 3.78386 3.07693 0
M  V30 3557 H 316.163 5.3261 1.36407 0
M  V30 3558 H 317.388 6.55974 1.75713 0
M  V30 3559 H 315.334 5.42263 3.69171 0
M  V30 3560 H 315.251 6.97284 2.92116 0
M  V30 3561 H 316.519 6.65063 4.06585 0
M  V30 3562 N 320.748 -0.0735177 1.57428 0
M  V30 3563 C 321.678 -1.0879 2.06608 0
M  V30 3564 C 322.659 -1.40473 0.959237 0
M  V30 3565 O 323.844 -1.5013 1.23185 0
M  V30 3566 C 320.974 -2.40183 2.50857 0
M  V30 3567 C 319.928 -2.22858 3.65402 0
M  V30 3568 C 319.254 -3.59619 3.957 0
M  V30 3569 C 320.554 -1.65123 4.95511 0
M  V30 3570 H 322.248 -0.678673 2.91607 0
M  V30 3571 H 319.794 -0.325013 1.40284 0
M  V30 3572 H 321.747 -3.11437 2.83874 0
M  V30 3573 H 320.471 -2.83083 1.62885 0
M  V30 3574 H 319.13 -1.54045 3.32664 0
M  V30 3575 H 318.778 -4.00086 3.04861 0
M  V30 3576 H 318.478 -3.48866 4.72828 0
M  V30 3577 H 320.002 -4.32306 4.31212 0
M  V30 3578 H 321.416 -2.26241 5.26771 0
M  V30 3579 H 319.813 -1.65071 5.7695 0
M  V30 3580 H 320.883 -0.612559 4.81015 0
M  V30 3581 N 322.226 -1.5378 -0.344866 0
M  V30 3582 C 323.156 -1.84662 -1.42906 0
M  V30 3583 C 324.137 -0.701648 -1.54955 0
M  V30 3584 O 325.322 -0.953438 -1.69184 0
M  V30 3585 C 322.452 -2.05503 -2.79974 0
M  V30 3586 C 321.406 -3.21318 -2.82734 0
M  V30 3587 C 320.732 -3.2749 -4.22675 0
M  V30 3588 C 322.032 -4.59456 -2.48389 0
M  V30 3589 H 323.726 -2.75461 -1.17311 0
M  V30 3590 H 321.272 -1.32542 -0.562896 0
M  V30 3591 H 323.225 -2.25691 -3.55867 0
M  V30 3592 H 321.949 -1.11434 -3.07002 0
M  V30 3593 H 320.608 -3.00984 -2.09294 0
M  V30 3594 H 320.256 -2.31019 -4.4681 0
M  V30 3595 H 319.956 -4.05316 -4.25433 0
M  V30 3596 H 321.48 -3.49887 -5.00412 0
M  V30 3597 H 322.894 -4.79667 -3.13995 0
M  V30 3598 H 321.291 -5.39675 -2.62432 0
M  V30 3599 H 322.361 -4.63155 -1.4358 0
M  V30 3600 N 323.704 0.605807 -1.45491 0
M  V30 3601 C 325.115 1.18777 -1.44045 0
M  V30 3602 C 325.466 1.95471 -0.169001 0
M  V30 3603 O 324.591 2.0374 0.729324 0
M  V30 3604 C 325.186 2.16064 -2.60963 0
M  V30 3605 C 323.745 2.69633 -2.62631 0
M  V30 3606 C 322.892 1.45072 -2.36325 0
M  V30 3607 H 325.843 0.395017 -1.53705 0
M  V30 3608 H 325.864 2.9913 -2.35163 0
M  V30 3609 H 325.376 1.60217 -3.53486 0
M  V30 3610 H 323.477 3.29414 -1.74119 0
M  V30 3611 H 323.59 3.13944 -3.61906 0
M  V30 3612 H 321.954 1.74089 -1.85917 0
M  V30 3613 H 322.737 0.910899 -3.30995 0
M  V30 3614 N 325.182 1.32811 0.848464 0
M  V30 3615 C 326.112 1.24882 1.97299 0
M  V30 3616 C 327.093 0.131357 1.69592 0
M  V30 3617 O 328.278 0.319553 1.91553 0
M  V30 3618 C 325.408 0.97746 3.33261 0
M  V30 3619 C 324.362 2.05682 3.75338 0
M  V30 3620 C 323.688 1.63777 5.09 0
M  V30 3621 C 324.988 3.47254 3.90144 0
M  V30 3622 H 326.682 2.18966 2.04191 0
M  V30 3623 H 324.228 1.05413 0.981029 0
M  V30 3624 H 326.181 0.908513 4.1149 0
M  V30 3625 H 324.905 0.000980011 3.266 0
M  V30 3626 H 323.564 2.11603 2.99366 0
M  V30 3627 H 323.212 0.648569 4.98801 0
M  V30 3628 H 322.912 2.36 5.38124 0
M  V30 3629 H 324.436 1.5833 5.89715 0
M  V30 3630 H 325.85 3.43888 4.58709 0
M  V30 3631 H 324.247 4.1788 4.30693 0
M  V30 3632 H 325.317 3.86462 2.92874 0
M  V30 3633 N 326.66 -1.06551 1.16123 0
M  V30 3634 C 328.076 -1.3142 0.905585 0
M  V30 3635 C 328.276 -1.96571 -0.442964 0
M  V30 3636 O 327.332 -2.23068 -1.18308 0
M  V30 3637 C 328.645 -2.19741 2.05267 0
M  V30 3638 C 330.193 -2.33165 2.08813 0
M  V30 3639 C 330.668 -3.24838 3.22868 0
M  V30 3640 N 332.159 -3.32421 3.22568 0
M  V30 3641 C 332.894 -4.0344 4.0746 0
M  V30 3642 N 332.39 -4.77003 5.02434 0
M  V30 3643 N 334.183 -3.99464 3.95456 0
M  V30 3644 H 326.334 -0.626548 2.02949 0
M  V30 3645 H 328.597 -0.338777 0.8854 0
M  V30 3646 H 328.303 -1.79142 3.02657 0
M  V30 3647 H 328.177 -3.20313 1.99198 0
M  V30 3648 H 330.564 -2.73013 1.12018 0
M  V30 3649 H 330.645 -1.3227 2.18948 0
M  V30 3650 H 330.289 -2.85708 4.19921 0
M  V30 3651 H 330.219 -4.25707 3.0997 0
M  V30 3652 H 332.71 -2.79994 2.53795 0
M  V30 3653 H 333.023 -5.28712 5.63634 0
M  V30 3654 H 331.368 -4.75992 5.06415 0
M  V30 3655 H 334.559 -3.4111 3.20564 0
M  V30 3656 H 334.732 -4.54544 4.61837 0
M  V30 3657 N 328.138 -0.959301 -1.25041 0
M  V30 3658 C 329.366 -0.633949 -1.96948 0
M  V30 3659 C 329.781 0.794916 -1.7125 0
M  V30 3660 O 329.138 1.53231 -0.991287 0
M  V30 3661 C 329.189 -0.888805 -3.50403 0
M  V30 3662 O 328.91 -2.26149 -3.75218 0
M  V30 3663 C 330.411 -0.576482 -4.39536 0
M  V30 3664 H 327.631 -0.237263 -0.627652 0
M  V30 3665 H 330.175 -1.28495 -1.59089 0
M  V30 3666 H 328.33 -0.284145 -3.86357 0
M  V30 3667 H 328.744 -2.33514 -4.6965 0
M  V30 3668 H 330.218 -0.805314 -5.46094 0
M  V30 3669 H 330.695 0.489075 -4.36468 0
M  V30 3670 H 331.301 -1.16067 -4.09156 0
M  V30 3671 N 329.616 1.39756 -0.72842 0
M  V30 3672 C 330.863 2.00645 -0.273487 0
M  V30 3673 C 331.191 1.57786 1.13727 0
M  V30 3674 O 330.446 0.794886 1.7883 0
M  V30 3675 C 330.745 3.56002 -0.315776 0
M  V30 3676 C 330.411 4.18489 -1.67863 0
M  V30 3677 C 329.073 4.3527 -2.05166 0
M  V30 3678 C 331.425 4.53219 -2.57375 0
M  V30 3679 C 328.753 4.84069 -3.31503 0
M  V30 3680 C 331.105 5.03423 -3.83077 0
M  V30 3681 C 329.769 5.18413 -4.20481 0
M  V30 3682 H 329.039 0.734211 -0.100076 0
M  V30 3683 H 331.686 1.6718 -0.933972 0
M  V30 3684 H 329.991 3.89452 0.428285 0
M  V30 3685 H 331.688 4.00963 0.0542575 0
M  V30 3686 H 328.278 4.05824 -1.37858 0
M  V30 3687 H 332.462 4.39878 -2.29827 0
M  V30 3688 H 327.718 4.93859 -3.60435 0
M  V30 3689 H 331.892 5.2927 -4.52599 0
M  V30 3690 H 329.519 5.55987 -5.18443 0
M  V30 3691 N 331.094 0.475555 1.50254 0
M  V30 3692 C 332.51 0.12997 1.5907 0
M  V30 3693 C 332.71 -1.36385 1.48328 0
M  V30 3694 O 331.766 -2.13754 1.34407 0
M  V30 3695 C 333.079 0.684139 2.92814 0
M  V30 3696 C 334.627 0.647965 3.0622 0
M  V30 3697 C 335.102 1.17975 4.42545 0
M  V30 3698 N 336.593 1.13936 4.48969 0
M  V30 3699 C 337.328 1.52129 5.52851 0
M  V30 3700 N 336.824 1.97793 6.63965 0
M  V30 3701 N 338.617 1.43704 5.4342 0
M  V30 3702 H 330.768 1.44706 1.55479 0
M  V30 3703 H 333.031 0.598691 0.735033 0
M  V30 3704 H 332.737 1.73079 3.06164 0
M  V30 3705 H 332.611 0.130204 3.76975 0
M  V30 3706 H 334.998 -0.38979 2.92514 0
M  V30 3707 H 335.079 1.23876 2.23805 0
M  V30 3708 H 334.723 2.21616 4.57 0
M  V30 3709 H 334.653 0.565138 5.23559 0
M  V30 3710 H 337.144 0.804488 3.69238 0
M  V30 3711 H 337.457 2.25072 7.39299 0
M  V30 3712 H 335.802 2.01749 6.65073 0
M  V30 3713 H 338.993 1.07867 4.55502 0
M  V30 3714 H 339.166 1.73794 6.24259 0
M  V30 3715 N 332.573 -1.56217 0.208337 0
M  V30 3716 C 333.819 -1.98242 -0.427552 0
M  V30 3717 C 334.152 -1.09554 -1.60348 0
M  V30 3718 O 333.427 -0.15035 -1.93918 0
M  V30 3719 C 333.71 -3.4931 -0.874907 0
M  V30 3720 C 333.563 -4.48773 0.303751 0
M  V30 3721 C 334.882 -4.04424 -1.73577 0
M  V30 3722 H 332.001 -0.720744 -0.153936 0
M  V30 3723 H 334.643 -1.87586 0.30192 0
M  V30 3724 H 332.793 -3.58522 -1.49648 0
M  V30 3725 H 334.465 -4.51586 0.941682 0
M  V30 3726 H 332.708 -4.23194 0.953375 0
M  V30 3727 H 333.379 -5.51976 -0.0519883 0
M  V30 3728 H 335.855 -3.98075 -1.21143 0
M  V30 3729 H 334.731 -5.1047 -2.01771 0
M  V30 3730 H 334.992 -3.50494 -2.69456 0
M  V30 3731 N 334.051 0.0651679 -1.57465 0
M  V30 3732 C 335.298 0.763063 -1.87573 0
M  V30 3733 C 335.626 1.77242 -0.800961 0
M  V30 3734 O 334.881 1.94651 0.202316 0
M  V30 3735 C 335.18 1.50081 -3.24362 0
M  V30 3736 C 334.846 0.630816 -4.46466 0
M  V30 3737 C 333.508 0.391082 -4.79608 0
M  V30 3738 C 335.86 0.0279465 -5.21193 0
M  V30 3739 C 333.188 -0.460894 -5.84887 0
M  V30 3740 C 335.54 -0.811522 -6.27373 0
M  V30 3741 C 334.204 -1.06106 -6.59013 0
M  V30 3742 H 333.474 0.279224 -0.686378 0
M  V30 3743 H 336.121 0.0236726 -1.91485 0
M  V30 3744 H 334.426 2.31258 -3.16271 0
M  V30 3745 H 336.123 2.04571 -3.44894 0
M  V30 3746 H 332.713 0.8278 -4.2053 0
M  V30 3747 H 336.897 0.200262 -4.95896 0
M  V30 3748 H 332.153 -0.662907 -6.07796 0
M  V30 3749 H 336.327 -1.28537 -6.84435 0
M  V30 3750 H 333.954 -1.723 -7.40417 0
M  V30 3751 N 335.529 1.53961 0.336706 0
M  V30 3752 C 336.945 1.44378 0.680241 0
M  V30 3753 C 337.145 0.606034 1.9217 0
M  V30 3754 O 336.201 0.099688 2.52303 0
M  V30 3755 C 337.514 2.87945 0.8665 0
M  V30 3756 C 339.062 2.97763 0.964682 0
M  V30 3757 C 339.537 4.42453 1.18321 0
M  V30 3758 N 341.028 4.46008 1.25025 0
M  V30 3759 C 341.763 5.55102 1.43697 0
M  V30 3760 N 341.259 6.7419 1.59498 0
M  V30 3761 N 343.052 5.42727 1.463 0
M  V30 3762 H 335.203 2.06918 -0.479455 0
M  V30 3763 H 337.466 0.935634 -0.152619 0
M  V30 3764 H 337.172 3.51691 0.0256937 0
M  V30 3765 H 337.046 3.33293 1.76623 0
M  V30 3766 H 339.433 2.34153 1.796 0
M  V30 3767 H 339.514 2.55766 0.041708 0
M  V30 3768 H 339.158 5.06645 0.356788 0
M  V30 3769 H 339.088 4.82048 2.11985 0
M  V30 3770 H 341.579 3.60196 1.14312 0
M  V30 3771 H 341.892 7.53095 1.734 0
M  V30 3772 H 340.237 6.77123 1.56621 0
M  V30 3773 H 343.428 4.48647 1.33543 0
M  V30 3774 H 343.601 6.27806 1.6051 0
M  V30 3775 N 337.007 -0.598083 1.45811 0
M  V30 3776 C 337.97 -1.69018 1.54808 0
M  V30 3777 C 338.97 -1.55037 0.426652 0
M  V30 3778 O 340.16 -1.59932 0.690456 0
M  V30 3779 C 337.292 -3.0835 1.45371 0
M  V30 3780 H 338.485 -1.62403 2.52121 0
M  V30 3781 H 336.038 -0.814626 1.33392 0
M  V30 3782 H 336.773 -3.20534 0.492793 0
M  V30 3783 H 336.558 -3.19907 2.26721 0
M  V30 3784 H 338.048 -3.8788 1.54721 0
M  V30 3785 N 338.485 -1.33259 -0.841409 0
M  V30 3786 C 339.415 -1.25926 -1.96634 0
M  V30 3787 C 340.396 -0.140349 -1.6952 0
M  V30 3788 O 341.581 -0.329707 -1.91381 0
M  V30 3789 C 338.711 -0.99512 -3.32738 0
M  V30 3790 C 337.665 -2.0767 -3.74242 0
M  V30 3791 C 336.991 -1.66474 -5.08125 0
M  V30 3792 C 338.291 -3.49318 -3.88297 0
M  V30 3793 H 339.985 -2.20046 -2.03027 0
M  V30 3794 H 337.531 -1.05931 -0.975425 0
M  V30 3795 H 339.484 -0.930323 -4.11002 0
M  V30 3796 H 338.208 -0.0183004 -3.26595 0
M  V30 3797 H 336.867 -2.13187 -2.98239 0
M  V30 3798 H 336.515 -0.675012 -4.9845 0
M  V30 3799 H 336.215 -2.3885 -5.36865 0
M  V30 3800 H 337.739 -1.61455 -5.88867 0
M  V30 3801 H 339.153 -3.46316 -4.56879 0
M  V30 3802 H 337.55 -4.20158 -4.28471 0
M  V30 3803 H 338.62 -3.8801 -2.9082 0
M  V30 3804 N 339.963 1.05934 -1.16686 0
M  V30 3805 C 340.91 2.13499 -0.876748 0
M  V30 3806 C 341.88 1.65162 0.176299 0
M  V30 3807 O 343.065 1.90757 0.0407143 0
M  V30 3808 C 340.205 3.42912 -0.387967 0
M  V30 3809 C 339.318 4.04964 -1.50426 0
M  V30 3810 C 338.453 5.22266 -0.970125 0
M  V30 3811 C 337.492 5.76309 -2.06238 0
M  V30 3812 N 336.629 6.84922 -1.54356 0
M  V30 3813 H 341.469 2.37654 -1.7979 0
M  V30 3814 H 339.006 1.16598 -0.896843 0
M  V30 3815 H 340.964 4.17111 -0.086186 0
M  V30 3816 H 339.594 3.18963 0.496235 0
M  V30 3817 H 338.646 3.28277 -1.92193 0
M  V30 3818 H 339.958 4.41122 -2.32836 0
M  V30 3819 H 339.112 6.03506 -0.621743 0
M  V30 3820 H 337.851 4.87564 -0.115377 0
M  V30 3821 H 336.856 4.93704 -2.41942 0
M  V30 3822 H 338.081 6.13062 -2.92115 0
M  V30 3823 H 336.027 6.52131 -0.711406 0
M  V30 3824 H 335.944 7.20043 -2.30379 0
M  V30 3825 H 337.212 7.69832 -1.22387 0
M  V30 3826 N 341.441 0.965919 1.2453 0
M  V30 3827 C 342.404 0.499547 2.2369 0
M  V30 3828 C 343.404 -0.40294 1.5567 0
M  V30 3829 O 344.594 -0.19865 1.73064 0
M  V30 3830 C 341.726 -0.276792 3.39774 0
M  V30 3831 H 342.919 1.37613 2.66463 0
M  V30 3832 H 340.472 0.750324 1.37112 0
M  V30 3833 H 341.207 -1.17055 3.02438 0
M  V30 3834 H 340.992 0.370826 3.90343 0
M  V30 3835 H 342.482 -0.592175 4.1338 0
M  V30 3836 N 342.919 -1.39368 0.735821 0
M  V30 3837 C 344.168 -1.99733 0.281004 0
M  V30 3838 C 344.481 -1.59055 -1.13846 0
M  V30 3839 O 345.687 -2.12262 -1.69284 0
M  V30 3840 C 344.143 -3.57057 0.451462 0
M  V30 3841 C 343.751 -4.06697 1.87886 0
M  V30 3842 C 345.495 -4.2446 0.0584616 0
M  V30 3843 C 343.402 -5.56598 1.99883 0
M  V30 3844 H 342.332 -0.747163 0.101311 0
M  V30 3845 H 344.983 -1.59357 0.909819 0
M  V30 3846 H 343.365 -3.95234 -0.246263 0
M  V30 3847 H 344.539 -3.79853 2.60861 0
M  V30 3848 H 342.854 -3.5196 2.22515 0
M  V30 3849 H 345.451 -5.34549 0.127099 0
M  V30 3850 H 345.794 -4.04444 -0.986433 0
M  V30 3851 H 346.327 -3.9146 0.707374 0
M  V30 3852 H 343.066 -5.81494 3.02564 0
M  V30 3853 H 342.586 -5.85242 1.31346 0
M  V30 3854 H 344.265 -6.22022 1.78039 0
M  V30 3855 N 344.397 -0.483516 -1.5 0
M  V30 3856 C 345.622 0.0667119 -2.07293 0
M  V30 3857 C 346.047 1.3164 -1.3436 0
M  V30 3858 O 345.405 1.76945 -0.394987 0
M  V30 3859 C 345.453 0.321126 -3.59167 0
M  V30 3860 O 344.557 1.39927 -3.87936 0
M  V30 3861 H 343.898 -0.0184758 -0.663743 0
M  V30 3862 H 346.428 -0.678125 -1.93035 0
M  V30 3863 H 346.438 0.557906 -4.04168 0
M  V30 3864 H 345.113 -0.592007 -4.11665 0
M  V30 3865 H 343.69 1.14882 -3.54763 0
M  V30 3866 N 345.875 1.56104 -0.216619 0
M  V30 3867 C 347.121 1.98466 0.417033 0
M  V30 3868 C 347.454 1.10403 1.59765 0
M  V30 3869 O 346.729 0.160632 1.93836 0
M  V30 3870 C 347.012 3.49769 0.85637 0
M  V30 3871 C 346.865 4.48606 -0.327546 0
M  V30 3872 C 348.184 4.05339 1.7143 0
M  V30 3873 H 345.303 0.721551 0.150112 0
M  V30 3874 H 347.945 1.87423 -0.311864 0
M  V30 3875 H 346.095 3.5931 1.47745 0
M  V30 3876 H 347.767 4.5108 -0.965618 0
M  V30 3877 H 346.01 4.22682 -0.975805 0
M  V30 3878 H 346.681 5.51995 0.0227149 0
M  V30 3879 H 349.157 3.98712 1.19031 0
M  V30 3880 H 348.033 5.11533 1.99061 0
M  V30 3881 H 348.294 3.51918 2.67593 0
M  V30 3882 N 347.353 -0.0568162 1.57498 0
M  V30 3883 C 348.599 -0.75422 1.88253 0
M  V30 3884 C 348.932 -1.76461 0.810865 0
M  V30 3885 O 348.207 -1.93691 -0.177259 0
M  V30 3886 C 348.49 -1.44878 3.2967 0
M  V30 3887 C 348.343 -0.453789 4.47505 0
M  V30 3888 C 349.662 -2.38994 3.69554 0
M  V30 3889 H 346.781 -0.272724 0.684683 0
M  V30 3890 H 349.423 -0.0172113 1.89992 0
M  V30 3891 H 347.573 -2.077 3.28318 0
M  V30 3892 H 349.245 0.170371 4.60985 0
M  V30 3893 H 347.488 0.229552 4.33192 0
M  V30 3894 H 348.159 -0.977699 5.43273 0
M  V30 3895 H 350.635 -1.86239 3.72095 0
M  V30 3896 H 349.511 -2.84587 4.69363 0
M  V30 3897 H 349.772 -3.24461 3.00296 0
M  V30 3898 N 348.832 -1.54138 -0.328536 0
M  V30 3899 C 350.057 -1.76378 -1.09112 0
M  V30 3900 C 350.482 -0.508596 -1.81094 0
M  V30 3901 O 349.84 0.539598 -1.73084 0
M  V30 3902 C 349.888 -2.95358 -2.06872 0
M  V30 3903 O 348.992 -2.66556 -3.14677 0
M  V30 3904 H 348.333 -0.584614 -0.314838 0
M  V30 3905 H 350.863 -2.01146 -0.374348 0
M  V30 3906 H 350.873 -3.22566 -2.4983 0
M  V30 3907 H 349.548 -3.86385 -1.5388 0
M  V30 3908 H 348.125 -2.50282 -2.7643 0
M  V30 3909 N 350.31 0.590341 -1.46126 0
M  V30 3910 C 351.726 0.912917 -1.30912 0
M  V30 3911 C 351.926 1.99616 -0.274893 0
M  V30 3912 O 350.982 2.50397 0.325197 0
M  V30 3913 C 352.295 1.3375 -2.69317 0
M  V30 3914 C 353.843 1.45077 -2.77348 0
M  V30 3915 C 354.318 1.90904 -4.16317 0
M  V30 3916 N 355.809 1.9811 -4.18696 0
M  V30 3917 C 356.544 2.34828 -5.23109 0
M  V30 3918 N 356.04 2.70393 -6.37856 0
M  V30 3919 N 357.833 2.35317 -5.10473 0
M  V30 3920 H 349.984 -0.125358 -2.1203 0
M  V30 3921 H 352.247 0.00658481 -0.947977 0
M  V30 3922 H 351.953 0.615614 -3.4627 0
M  V30 3923 H 351.827 2.30058 -2.9892 0
M  V30 3924 H 354.214 2.16353 -2.00687 0
M  V30 3925 H 354.295 0.4704 -2.51438 0
M  V30 3926 H 353.939 1.20209 -4.9347 0
M  V30 3927 H 353.869 2.89886 -4.39629 0
M  V30 3928 H 356.36 1.73146 -3.359 0
M  V30 3929 H 356.673 2.97341 -7.13308 0
M  V30 3930 H 355.018 2.68048 -6.41229 0
M  V30 3931 H 358.209 2.0695 -4.19868 0
M  V30 3932 H 358.382 2.63605 -5.9196 0
M  V30 3933 N 351.788 1.33704 0.83433 0
M  V30 3934 C 352.718 1.26967 1.95963 0
M  V30 3935 C 353.699 0.149337 1.69443 0
M  V30 3936 O 354.884 0.339852 1.91203 0
M  V30 3937 C 352.014 1.01275 3.32206 0
M  V30 3938 C 350.968 2.09652 3.73136 0
M  V30 3939 C 350.294 1.69166 5.07235 0
M  V30 3940 C 351.594 3.51372 3.86439 0
M  V30 3941 H 353.288 2.2112 2.01857 0
M  V30 3942 H 350.834 1.06447 0.969793 0
M  V30 3943 H 352.787 0.952106 4.10503 0
M  V30 3944 H 351.511 0.0356203 3.26581 0
M  V30 3945 H 350.17 2.14766 2.97104 0
M  V30 3946 H 349.818 0.701437 4.98085 0
M  V30 3947 H 349.518 2.41694 5.35591 0
M  V30 3948 H 351.042 1.64576 5.88003 0
M  V30 3949 H 352.456 3.48734 4.55036 0
M  V30 3950 H 350.853 4.22425 4.26236 0
M  V30 3951 H 351.923 3.89546 2.88759 0
M  V30 3952 N 353.266 -1.05314 1.17247 0
M  V30 3953 C 354.213 -2.13031 0.888058 0
M  V30 3954 C 355.183 -1.65253 -0.167537 0
M  V30 3955 O 356.368 -1.90775 -0.0305974 0
M  V30 3956 C 353.508 -3.42702 0.406147 0
M  V30 3957 C 352.621 -4.04161 1.52572 0
M  V30 3958 C 351.756 -5.21744 0.997808 0
M  V30 3959 C 350.795 -5.75207 2.09291 0
M  V30 3960 N 349.932 -6.84094 1.57986 0
M  V30 3961 H 354.772 -2.36698 1.81048 0
M  V30 3962 H 352.309 -1.16121 0.903013 0
M  V30 3963 H 354.267 -4.17059 0.108305 0
M  V30 3964 H 352.897 -3.19222 -0.479313 0
M  V30 3965 H 351.949 -3.27253 1.93931 0
M  V30 3966 H 353.261 -4.39881 2.35172 0
M  V30 3967 H 352.415 -6.03168 0.653739 0
M  V30 3968 H 351.154 -4.87495 0.141232 0
M  V30 3969 H 350.159 -4.92414 2.44557 0
M  V30 3970 H 351.384 -6.11505 2.95362 0
M  V30 3971 H 349.33 -6.51745 0.74598 0
M  V30 3972 H 349.247 -7.18811 2.34195 0
M  V30 3973 H 350.515 -7.69172 1.26468 0
M  V30 3974 N 354.744 -0.972509 -1.24016 0
M  V30 3975 C 355.99 -0.637978 -1.92504 0
M  V30 3976 C 356.323 0.825383 -1.75787 0
M  V30 3977 O 355.598 1.59442 -1.11393 0
M  V30 3978 C 355.881 -1.01942 -3.45369 0
M  V30 3979 C 355.734 -2.53983 -3.71231 0
M  V30 3980 C 357.053 -0.55751 -4.36555 0
M  V30 3981 H 354.172 -0.233248 -0.699117 0
M  V30 3982 H 356.814 -1.21238 -1.46292 0
M  V30 3983 H 354.964 -0.530656 -3.84859 0
M  V30 3984 H 356.636 -3.10374 -3.41271 0
M  V30 3985 H 354.879 -2.96968 -3.16216 0
M  V30 3986 H 355.55 -2.75723 -4.78206 0
M  V30 3987 H 358.026 -0.977029 -4.04467 0
M  V30 3988 H 356.902 -0.85292 -5.42233 0
M  V30 3989 H 357.163 0.542328 -4.38761 0
M  V30 3990 N 356.222 1.38976 -0.743202 0
M  V30 3991 C 357.471 1.99581 -0.291592 0
M  V30 3992 C 357.784 1.59656 1.13001 0
M  V30 3993 O 358.99 2.13157 1.68156 0
M  V30 3994 C 357.446 3.56813 -0.470391 0
M  V30 3995 C 357.054 4.05695 -1.90041 0
M  V30 3996 C 358.798 4.24423 -0.0809709 0
M  V30 3997 C 356.705 5.5553 -2.02832 0
M  V30 3998 H 355.635 0.746615 -0.105272 0
M  V30 3999 H 358.286 1.58872 -0.918258 0
M  V30 4000 H 356.668 3.95359 0.225299 0
M  V30 4001 H 357.842 3.78464 -2.62872 0
M  V30 4002 H 356.157 3.50775 -2.24379 0
M  V30 4003 H 358.754 5.34474 -0.155445 0
M  V30 4004 H 359.097 4.04962 0.96497 0
M  V30 4005 H 359.63 3.9108 -0.728124 0
M  V30 4006 H 356.369 5.79881 -3.05643 0
M  V30 4007 H 355.889 5.84537 -1.34448 0
M  V30 4008 H 357.568 6.21069 -1.81335 0
M  V30 4009 N 357.7 0.491464 1.49741 0
M  V30 4010 C 358.946 -0.0565092 2.02721 0
M  V30 4011 C 359.279 -1.37522 1.37118 0
M  V30 4012 O 358.554 -1.87866 0.503645 0
M  V30 4013 C 358.837 -0.219051 3.59433 0
M  V30 4014 C 358.69 1.12211 4.35579 0
M  V30 4015 C 360.009 -0.964157 4.29409 0
M  V30 4016 H 357.128 -0.0190627 0.736753 0
M  V30 4017 H 359.77 0.641021 1.7886 0
M  V30 4018 H 357.92 -0.813165 3.79895 0
M  V30 4019 H 359.592 1.75437 4.26637 0
M  V30 4020 H 357.835 1.71377 3.98513 0
M  V30 4021 H 358.506 0.961794 5.43556 0
M  V30 4022 H 360.982 -0.460378 4.13545 0
M  V30 4023 H 359.858 -1.04671 5.38828 0
M  V30 4024 H 360.119 -2.00563 3.93988 0
M  V30 4025 N 359.178 -1.55987 0.224894 0
M  V30 4026 C 360.426 -1.97998 -0.405099 0
M  V30 4027 C 360.747 -1.11387 -1.60056 0
M  V30 4028 O 360.017 -0.191645 -1.9496 0
M  V30 4029 H 358.597 -0.731235 -0.152658 0
M  V30 4030 H 361.259 -1.92279 0.318567 0
M  V30 4031 H 360.355 -3.03463 -0.729167 0
M  V30 4032 N 360.656 0.0484629 -1.57525 0
M  V30 4033 C 361.619 1.03956 -2.04269 0
M  V30 4034 C 362.619 1.30211 -0.943496 0
M  V30 4035 O 363.809 1.25539 -1.20771 0
M  V30 4036 C 360.941 2.37742 -2.44319 0
M  V30 4037 H 362.134 0.636182 -2.93075 0
M  V30 4038 H 359.687 0.294811 -1.53494 0
M  V30 4039 H 360.422 2.82866 -1.5861 0
M  V30 4040 H 360.207 2.20021 -3.24551 0
M  V30 4041 H 361.697 3.08936 -2.80978 0
M  V30 4042 N 362.134 1.5431 0.320358 0
M  V30 4043 C 363.064 1.86912 1.3995 0
M  V30 4044 C 364.045 0.726211 1.53819 0
M  V30 4045 O 365.23 0.980233 1.67646 0
M  V30 4046 C 362.36 2.09932 2.7667 0
M  V30 4047 C 361.314 3.25776 2.77586 0
M  V30 4048 C 360.64 3.34173 4.17412 0
M  V30 4049 C 361.94 4.6335 2.41048 0
M  V30 4050 H 363.634 2.77292 1.12914 0
M  V30 4051 H 361.18 1.33421 0.541738 0
M  V30 4052 H 363.133 2.31324 3.52232 0
M  V30 4053 H 361.857 1.16304 3.0519 0
M  V30 4054 H 360.516 3.04276 2.04479 0
M  V30 4055 H 360.164 2.38098 4.43078 0
M  V30 4056 H 359.864 4.12033 4.18931 0
M  V30 4057 H 361.388 3.57803 4.94782 0
M  V30 4058 H 362.802 4.84602 3.06324 0
M  V30 4059 H 361.199 5.43782 2.53813 0
M  V30 4060 H 362.269 4.65381 1.36193 0
M  V30 4061 N 363.613 -0.582584 1.46437 0
M  V30 4062 C 364.543 -1.70187 1.59871 0
M  V30 4063 C 365.524 -1.64066 0.449042 0
M  V30 4064 O 366.709 -1.82081 0.6753 0
M  V30 4065 C 363.839 -3.08827 1.58881 0
M  V30 4066 C 362.793 -3.29779 2.72819 0
M  V30 4067 C 362.119 -4.68947 2.5689 0
M  V30 4068 C 363.419 -3.17601 4.1464 0
M  V30 4069 H 365.113 -1.592 2.53566 0
M  V30 4070 H 362.659 -0.764472 1.22032 0
M  V30 4071 H 364.612 -3.86951 1.66873 0
M  V30 4072 H 363.336 -3.20713 0.617306 0
M  V30 4073 H 361.995 -2.54054 2.64296 0
M  V30 4074 H 361.643 -4.77599 1.57823 0
M  V30 4075 H 361.343 -4.83919 3.33312 0
M  V30 4076 H 362.867 -5.4924 2.66773 0
M  V30 4077 H 364.281 -3.8557 4.24274 0
M  V30 4078 H 362.678 -3.44094 4.9165 0
M  V30 4079 H 363.748 -2.14681 4.34788 0
M  V30 4080 N 365.091 -1.34144 -0.827227 0
M  V30 4081 C 366.507 -1.13732 -1.11969 0
M  V30 4082 C 366.707 0.0640463 -2.01398 0
M  V30 4083 O 365.763 0.740856 -2.41387 0
M  V30 4084 C 367.076 -2.43047 -1.77055 0
M  V30 4085 C 368.624 -2.49063 -1.89569 0
M  V30 4086 C 369.099 -3.78369 -2.58072 0
M  V30 4087 N 370.59 -3.79505 -2.65575 0
M  V30 4088 C 371.325 -4.76274 -3.19297 0
M  V30 4089 N 370.821 -5.83424 -3.73616 0
M  V30 4090 N 372.614 -4.63735 -3.17658 0
M  V30 4091 H 364.765 -2.11126 -0.232296 0
M  V30 4092 H 367.028 -0.933424 -0.165602 0
M  V30 4093 H 366.734 -3.31025 -1.18807 0
M  V30 4094 H 366.608 -2.56066 -2.76966 0
M  V30 4095 H 368.995 -1.61527 -2.46968 0
M  V30 4096 H 369.076 -2.39975 -0.885745 0
M  V30 4097 H 368.72 -4.66293 -2.01329 0
M  V30 4098 H 368.65 -3.84737 -3.59562 0
M  V30 4099 H 371.141 -3.02074 -2.27068 0
M  V30 4100 H 371.454 -6.53282 -4.12846 0
M  V30 4101 H 369.799 -5.87143 -3.71871 0
M  V30 4102 H 372.99 -3.79177 -2.74486 0
M  V30 4103 H 373.163 -5.39318 -3.59221 0
M  V30 4104 N 366.569 1.04691 -1.17803 0
M  V30 4105 C 367.794 1.81984 -0.994813 0
M  V30 4106 C 368.219 1.82586 0.452112 0
M  V30 4107 O 367.577 1.23854 1.324 0
M  V30 4108 C 367.625 3.2575 -1.54659 0
M  V30 4109 O 366.729 4.05267 -0.763728 0
M  V30 4110 H 366.07 0.562483 -0.352857 0
M  V30 4111 H 368.6 1.3189 -1.56417 0
M  V30 4112 H 368.61 3.76541 -1.57102 0
M  V30 4113 H 367.285 3.24627 -2.59981 0
M  V30 4114 H 365.862 3.63972 -0.811108 0
M  V30 4115 N 368.047 0.979072 1.23499 0
M  V30 4116 C 369.293 0.648178 1.92163 0
M  V30 4117 C 369.626 -0.816049 1.76222 0
M  V30 4118 O 368.901 -1.58849 1.12237 0
M  V30 4119 C 369.184 1.03773 3.44824 0
M  V30 4120 C 369.037 2.55948 3.69879 0
M  V30 4121 C 370.356 0.580653 4.36253 0
M  V30 4122 H 367.475 0.236952 0.69787 0
M  V30 4123 H 370.117 1.22012 1.45647 0
M  V30 4124 H 368.267 0.551058 3.84572 0
M  V30 4125 H 369.939 3.12179 3.3962 0
M  V30 4126 H 368.182 2.98641 3.14636 0
M  V30 4127 H 368.853 2.78255 4.76737 0
M  V30 4128 H 371.329 0.998465 4.03943 0
M  V30 4129 H 370.205 0.881663 5.41773 0
M  V30 4130 H 370.466 -0.519052 4.39042 0
M  V30 4131 N 369.525 -1.3858 0.750561 0
M  V30 4132 C 370.472 -2.30483 0.120835 0
M  V30 4133 C 371.442 -1.50022 -0.712923 0
M  V30 4134 O 372.627 -1.78662 -0.669676 0
M  V30 4135 C 369.767 -3.36431 -0.768666 0
M  V30 4136 C 368.88 -4.31927 0.0793922 0
M  V30 4137 C 368.015 -5.24944 -0.81283 0
M  V30 4138 C 367.054 -6.12088 0.0390447 0
M  V30 4139 N 366.191 -6.97412 -0.809969 0
M  V30 4140 H 371.031 -2.83761 0.91015 0
M  V30 4141 H 368.568 -1.39707 0.460463 0
M  V30 4142 H 370.526 -3.96462 -1.29898 0
M  V30 4143 H 369.156 -2.8457 -1.5238 0
M  V30 4144 H 368.208 -3.73382 0.727303 0
M  V30 4145 H 369.52 -4.93319 0.737401 0
M  V30 4146 H 368.674 -5.90078 -1.41042 0
M  V30 4147 H 367.413 -4.63911 -1.50458 0
M  V30 4148 H 366.418 -5.45952 0.649328 0
M  V30 4149 H 367.643 -6.75189 0.727809 0
M  V30 4150 H 365.589 -6.38931 -1.48672 0
M  V30 4151 H 365.506 -7.55712 -0.208789 0
M  V30 4152 H 366.774 -7.66959 -1.39263 0
M  V30 4153 N 371.003 -0.499398 -1.49478 0
M  V30 4154 C 371.95 0.279881 -2.29097 0
M  V30 4155 C 372.92 0.961805 -1.3542 0
M  V30 4156 O 374.105 0.968777 -1.64376 0
M  V30 4157 C 371.245 1.33932 -3.18051 0
M  V30 4158 C 370.358 0.669333 -4.26783 0
M  V30 4159 C 369.493 1.70907 -5.02955 0
M  V30 4160 C 368.532 1.02087 -6.03527 0
M  V30 4161 N 367.669 2.00474 -6.7287 0
M  V30 4162 H 372.509 -0.405317 -2.95231 0
M  V30 4163 H 370.046 -0.211726 -1.45568 0
M  V30 4164 H 372.004 1.96553 -3.67998 0
M  V30 4165 H 370.634 1.9933 -2.53904 0
M  V30 4166 H 369.686 -0.0701234 -3.80335 0
M  V30 4167 H 370.998 0.127503 -4.98637 0
M  V30 4168 H 370.152 2.41037 -5.56764 0
M  V30 4169 H 368.891 2.28476 -4.30871 0
M  V30 4170 H 367.896 0.305338 -5.48951 0
M  V30 4171 H 369.121 0.451708 -6.77596 0
M  V30 4172 H 367.067 2.57007 -6.03559 0
M  V30 4173 H 366.984 1.51353 -7.40694 0
M  V30 4174 H 368.252 2.69897 -7.31284 0
M  V30 4175 N 372.481 1.55866 -0.233164 0
M  V30 4176 C 373.411 2.23783 0.666599 0
M  V30 4177 C 374.392 1.21343 1.19205 0
M  V30 4178 O 375.577 1.4996 1.23392 0
M  V30 4179 C 372.707 2.92671 1.86978 0
M  V30 4180 C 371.661 4.01682 1.47768 0
M  V30 4181 C 370.987 4.57926 2.76058 0
M  V30 4182 C 372.287 5.18126 0.658993 0
M  V30 4183 H 373.981 2.99232 0.100306 0
M  V30 4184 H 371.527 1.43924 0.046804 0
M  V30 4185 H 373.48 3.3888 2.50476 0
M  V30 4186 H 372.204 2.14688 2.46123 0
M  V30 4187 H 370.863 3.56222 0.866106 0
M  V30 4188 H 370.511 3.76659 3.33372 0
M  V30 4189 H 370.211 5.31505 2.50552 0
M  V30 4190 H 371.735 5.06859 3.40479 0
M  V30 4191 H 373.149 5.60644 1.19795 0
M  V30 4192 H 371.546 5.98009 0.500552 0
M  V30 4193 H 372.616 4.83763 -0.331856 0
M  V30 4194 N 373.959 -0.0401083 1.57549 0
M  V30 4195 C 375.205 -0.734211 1.89043 0
M  V30 4196 C 375.538 -1.75591 0.829535 0
M  V30 4197 O 374.813 -1.93868 -0.156706 0
M  V30 4198 C 375.096 -1.41374 3.31188 0
M  V30 4199 C 374.949 -0.406299 4.47961 0
M  V30 4200 C 376.268 -2.35061 3.72068 0
M  V30 4201 H 373.387 -0.265447 0.687537 0
M  V30 4202 H 376.029 0.00294087 1.9 0
M  V30 4203 H 374.179 -2.04206 3.30503 0
M  V30 4204 H 375.851 0.219255 4.60779 0
M  V30 4205 H 374.094 0.275485 4.32924 0
M  V30 4206 H 374.765 -0.920022 5.44279 0
M  V30 4207 H 377.241 -1.82282 3.74049 0
M  V30 4208 H 376.117 -2.79593 4.72355 0
M  V30 4209 H 376.378 -3.21258 3.0372 0
M  V30 4210 N 375.437 -1.54477 -0.31217 0
M  V30 4211 C 376.385 -1.85395 -1.40469 0
M  V30 4212 C 377.379 -0.726749 -1.53019 0
M  V30 4213 O 378.585 -0.910582 -1.55269 0
M  V30 4214 H 374.96 -0.587845 -0.46898 0
M  V30 4215 H 376.931 -2.76736 -1.11623 0
M  V30 4216 C 375.68 -2.10811 -2.76503 0
M  V30 4217 H 375.003 -2.97014 -2.67625 0
M  V30 4218 H 376.443 -2.3639 -3.51988 0
M  V30 4219 C 374.902 -0.903165 -3.24568 0
M  V30 4220 O 375.432 -0.118085 -4.01526 0
M  V30 4221 N 373.638 -0.711634 -2.81752 0
M  V30 4222 H 373.185 -1.35171 -2.19286 0
M  V30 4223 H 373.143 0.0930473 -3.14262 0
M  V30 4224 N 376.915 0.57481 -1.46744 0
M  V30 4225 C 378.161 1.3347 -1.52688 0
M  V30 4226 C 378.494 1.93353 -0.181229 0
M  V30 4227 O 377.769 1.76912 0.808237 0
M  V30 4228 C 378.052 2.45811 -2.63152 0
M  V30 4229 C 377.905 1.90912 -4.07275 0
M  V30 4230 C 379.224 3.47822 -2.69644 0
M  V30 4231 H 376.343 0.483935 -0.555856 0
M  V30 4232 H 378.985 0.644968 -1.78718 0
M  V30 4233 H 377.135 3.04646 -2.41088 0
M  V30 4234 H 378.807 1.36473 -4.4065 0
M  V30 4235 H 377.05 1.21691 -4.16382 0
M  V30 4236 H 377.721 2.72042 -4.80309 0
M  V30 4237 H 380.197 2.9888 -2.895 0
M  V30 4238 H 379.073 4.23876 -3.48742 0
M  V30 4239 H 379.334 4.05555 -1.76005 0
M  V30 4240 N 378.394 1.34581 0.820102 0
M  V30 4241 C 379.643 1.26437 1.57151 0
M  V30 4242 C 379.956 -0.163111 1.94919 0
M  V30 4243 O 381.162 -0.366722 2.69012 0
M  V30 4244 C 379.618 2.21658 2.83541 0
M  V30 4245 C 379.226 3.69679 2.53065 0
M  V30 4246 C 380.97 2.22428 3.61561 0
M  V30 4247 C 378.877 4.56761 3.75664 0
M  V30 4248 H 377.807 0.469707 0.589823 0
M  V30 4249 H 380.458 1.59763 0.902656 0
M  V30 4250 H 378.84 1.81287 3.52067 0
M  V30 4251 H 380.014 4.18605 1.92631 0
M  V30 4252 H 378.329 3.71384 1.88316 0
M  V30 4253 H 380.926 2.8471 4.52597 0
M  V30 4254 H 381.269 1.22434 3.97889 0
M  V30 4255 H 381.802 2.61259 2.99981 0
M  V30 4256 H 378.541 5.57702 3.44454 0
M  V30 4257 H 378.061 4.12568 4.35371 0
M  V30 4258 H 379.74 4.71509 4.43044 0
M  V30 4259 N 379.872 -1.04064 1.18357 0
M  V30 4260 C 381.121 -1.76662 0.973313 0
M  V30 4261 C 381.434 -1.89154 -0.497991 0
M  V30 4262 O 382.64 -2.58606 -0.826762 0
M  V30 4263 C 381.096 -3.17624 1.69242 0
M  V30 4264 C 380.704 -3.13225 3.20303 0
M  V30 4265 C 382.448 -3.946 1.56497 0
M  V30 4266 C 380.355 -4.49046 3.84853 0
M  V30 4267 H 379.285 -0.662214 0.36054 0
M  V30 4268 H 381.936 -1.16553 1.41731 0
M  V30 4269 H 380.318 -3.78129 1.1762 0
M  V30 4270 H 381.492 -2.62172 3.78949 0
M  V30 4271 H 379.807 -2.49749 3.33189 0
M  V30 4272 H 382.404 -4.95042 2.02084 0
M  V30 4273 H 382.747 -4.13074 0.517243 0
M  V30 4274 H 383.28 -3.4067 2.05399 0
M  V30 4275 H 380.019 -4.35777 4.89672 0
M  V30 4276 H 379.539 -5.00203 3.30994 0
M  V30 4277 H 381.218 -5.17961 3.87718 0
M  V30 4278 N 381.35 -0.985608 -1.22978 0
M  V30 4279 C 382.28 -0.549649 -2.26939 0
M  V30 4280 C 383.261 0.419803 -1.64838 0
M  V30 4281 O 384.446 0.31203 -1.91677 0
M  V30 4282 C 381.576 0.143652 -3.47003 0
M  V30 4283 C 380.53 -0.743606 -4.21491 0
M  V30 4284 C 379.856 0.0822027 -5.34637 0
M  V30 4285 C 381.156 -2.03694 -4.80943 0
M  V30 4286 H 382.85 -1.41862 -2.63658 0
M  V30 4287 H 380.396 -0.683571 -1.26741 0
M  V30 4288 H 382.349 0.459985 -4.18882 0
M  V30 4289 H 381.073 1.04711 -3.09359 0
M  V30 4290 H 379.732 -1.04347 -3.51436 0
M  V30 4291 H 379.38 0.986359 -4.93234 0
M  V30 4292 H 379.08 -0.508377 -5.85397 0
M  V30 4293 H 380.604 0.392797 -6.09335 0
M  V30 4294 H 382.018 -1.78504 -5.44802 0
M  V30 4295 H 380.415 -2.57573 -5.42011 0
M  V30 4296 H 381.485 -2.72042 -4.01399 0
M  V30 4297 N 382.828 1.3818 -0.7579 0
M  V30 4298 C 384.056 2.04301 -0.326937 0
M  V30 4299 C 384.471 1.57163 1.0462 0
M  V30 4300 O 383.828 0.746626 1.66529 0
M  V30 4301 C 383.879 3.59846 -0.345363 0
M  V30 4302 O 383.6 4.05256 -1.66432 0
M  V30 4303 C 385.101 4.4319 0.098927 0
M  V30 4304 H 382.321 0.656443 -0.139012 0
M  V30 4305 H 384.865 1.76786 -1.02796 0
M  V30 4306 H 383.02 3.86182 0.306955 0
M  V30 4307 H 383.434 4.99709 -1.59345 0
M  V30 4308 H 384.908 5.51989 0.0348745 0
M  V30 4309 H 385.385 4.23947 1.14741 0
M  V30 4310 H 385.991 4.22051 -0.52468 0
M  V30 4311 N 384.306 0.507319 1.49211 0
M  V30 4312 C 385.553 -0.0349529 2.0247 0
M  V30 4313 C 385.881 -1.36409 1.38647 0
M  V30 4314 O 385.136 -1.88841 0.513566 0
M  V30 4315 C 385.435 -0.229513 3.56662 0
M  V30 4316 C 385.101 1.02241 4.39156 0
M  V30 4317 C 383.763 1.36557 4.61417 0
M  V30 4318 C 386.115 1.85428 4.871 0
M  V30 4319 C 383.443 2.53999 5.28868 0
M  V30 4320 C 385.795 3.02028 5.55843 0
M  V30 4321 C 384.459 3.36717 5.76349 0
M  V30 4322 H 383.729 -0.0127902 0.74089 0
M  V30 4323 H 386.376 0.668756 1.79443 0
M  V30 4324 H 384.681 -1.0158 3.78403 0
M  V30 4325 H 386.378 -0.663641 3.9547 0
M  V30 4326 H 382.968 0.745124 4.22073 0
M  V30 4327 H 387.152 1.6023 4.69723 0
M  V30 4328 H 382.408 2.81105 5.42946 0
M  V30 4329 H 386.582 3.66808 5.91967 0
M  V30 4330 H 384.209 4.27821 6.28389 0
M  V30 4331 N 385.784 -1.5574 0.241426 0
M  V30 4332 C 387.031 -1.9881 -0.384836 0
M  V30 4333 C 387.359 -1.12947 -1.58346 0
M  V30 4334 O 386.614 -0.178993 -1.9488 0
M  V30 4335 C 386.913 -3.47308 -0.843317 0
M  V30 4336 C 386.579 -4.50223 0.246946 0
M  V30 4337 C 385.241 -4.78088 0.546399 0
M  V30 4338 C 387.593 -5.11841 0.983282 0
M  V30 4339 C 384.921 -5.64846 1.58636 0
M  V30 4340 C 387.273 -5.99727 2.01272 0
M  V30 4341 C 385.937 -6.25927 2.31888 0
M  V30 4342 H 385.207 -0.727496 -0.140821 0
M  V30 4343 H 387.854 -1.8831 0.348106 0
M  V30 4344 H 386.159 -3.55112 -1.65537 0
M  V30 4345 H 387.856 -3.78017 -1.33806 0
M  V30 4346 H 384.446 -4.286 0.00340639 0
M  V30 4347 H 388.63 -4.90366 0.765182 0
M  V30 4348 H 383.886 -5.83403 1.82896 0
M  V30 4349 H 388.06 -6.46517 2.58823 0
M  V30 4350 H 385.687 -6.92949 3.12611 0
M  V30 4351 N 387.262 0.0317525 -1.57568 0
M  V30 4352 C 388.502 0.727979 -1.90997 0
M  V30 4353 C 388.866 1.72664 -0.839708 0
M  V30 4354 O 390.067 2.47092 -1.05825 0
M  V30 4355 C 388.338 1.38239 -3.29583 0
M  V30 4356 S 389.897 2.10814 -3.84841 0
M  V30 4357 H 386.715 0.241226 -0.668828 0
M  V30 4358 H 389.317 -0.0173037 -1.95492 0
M  V30 4359 H 388.021 0.642288 -4.05343 0
M  V30 4360 H 387.552 2.16628 -3.28384 0
M  V30 4361 H 389.567 3.3792 -3.63352 0
M  V30 4362 N 388.74 1.54641 0.303973 0
M  V30 4363 C 389.67 1.88386 1.3796 0
M  V30 4364 C 390.651 0.742485 1.5304 0
M  V30 4365 O 391.836 0.997959 1.66597 0
M  V30 4366 C 388.966 2.12854 2.74427 0
M  V30 4367 C 387.92 3.28702 2.74115 0
M  V30 4368 C 387.246 3.38582 4.13844 0
M  V30 4369 C 388.546 4.65881 2.3612 0
M  V30 4370 H 390.24 2.78474 1.09966 0
M  V30 4371 H 387.786 1.33988 0.527556 0
M  V30 4372 H 389.739 2.35047 3.49758 0
M  V30 4373 H 388.463 1.19535 3.03939 0
M  V30 4374 H 387.122 3.06428 2.0124 0
M  V30 4375 H 386.77 2.42784 4.40528 0
M  V30 4376 H 386.47 4.16453 4.14537 0
M  V30 4377 H 387.994 3.63031 4.90959 0
M  V30 4378 H 389.408 4.87823 3.01167 0
M  V30 4379 H 387.805 5.46444 2.48031 0
M  V30 4380 H 388.875 4.66799 1.3125 0
M  V30 4381 N 390.218 -0.567019 1.47046 0
M  V30 4382 C 391.443 -1.3551 1.57009 0
M  V30 4383 C 391.868 -1.86841 0.217259 0
M  V30 4384 O 391.226 -1.62435 -0.805268 0
M  V30 4385 C 391.274 -2.50777 2.5912 0
M  V30 4386 O 390.378 -3.52706 2.13711 0
M  V30 4387 H 389.719 -0.402919 0.52778 0
M  V30 4388 H 392.249 -0.686241 1.92748 0
M  V30 4389 H 392.259 -2.97481 2.79229 0
M  V30 4390 H 390.934 -2.12771 3.57353 0
M  V30 4391 H 389.511 -3.12374 2.03659 0
M  V30 4392 N 391.696 -1.35014 -0.812953 0
M  V30 4393 C 392.945 -1.27269 -1.56479 0
M  V30 4394 C 393.258 0.152771 -1.95002 0
M  V30 4395 O 394.464 0.352451 -2.69203 0
M  V30 4396 C 392.92 -2.23159 -2.82362 0
M  V30 4397 C 392.528 -3.71016 -2.511 0
M  V30 4398 C 394.272 -2.24342 -3.60376 0
M  V30 4399 C 392.179 -4.58746 -3.73237 0
M  V30 4400 H 391.109 -0.472829 -0.587324 0
M  V30 4401 H 393.76 -1.6024 -0.894171 0
M  V30 4402 H 392.142 -1.83151 -3.51101 0
M  V30 4403 H 393.316 -4.1962 -1.90409 0
M  V30 4404 H 391.631 -3.72378 -1.86343 0
M  V30 4405 H 394.228 -2.87107 -4.51081 0
M  V30 4406 H 394.571 -1.24542 -3.97234 0
M  V30 4407 H 395.104 -2.62846 -2.98591 0
M  V30 4408 H 391.843 -5.59521 -3.41492 0
M  V30 4409 H 391.363 -4.14871 -4.33176 0
M  V30 4410 H 393.042 -4.73852 -4.40537 0
M  V30 4411 N 393.175 1.03435 -1.18907 0
M  V30 4412 C 394.422 1.76743 -0.988334 0
M  V30 4413 C 394.75 1.88447 0.481441 0
M  V30 4414 O 394.005 1.39383 1.37371 0
M  V30 4415 C 394.304 3.19792 -1.59586 0
M  V30 4416 C 393.97 3.28108 -3.09283 0
M  V30 4417 C 392.632 3.30084 -3.5014 0
M  V30 4418 C 394.984 3.27696 -4.05296 0
M  V30 4419 C 392.312 3.29299 -4.85571 0
M  V30 4420 C 394.664 3.28451 -5.4065 0
M  V30 4421 C 393.328 3.28723 -5.80946 0
M  V30 4422 H 392.598 0.64675 -0.361657 0
M  V30 4423 H 395.245 1.21442 -1.48068 0
M  V30 4424 H 393.55 3.78136 -1.02568 0
M  V30 4425 H 395.247 3.75171 -1.41589 0
M  V30 4426 H 391.837 3.27294 -2.76725 0
M  V30 4427 H 396.021 3.25354 -3.74778 0
M  V30 4428 H 391.277 3.2783 -5.16079 0
M  V30 4429 H 395.451 3.27082 -6.14809 0
M  V30 4430 H 393.078 3.27868 -6.85862 0
M  V30 4431 N 394.653 0.992116 1.22453 0
M  V30 4432 C 395.616 0.546883 2.2258 0
M  V30 4433 C 396.616 -0.369829 1.56489 0
M  V30 4434 O 397.806 -0.161896 1.73446 0
M  V30 4435 C 394.938 -0.204659 3.40285 0
M  V30 4436 H 396.131 1.43234 2.63484 0
M  V30 4437 H 393.684 0.779239 1.3549 0
M  V30 4438 H 394.419 -1.10614 3.04853 0
M  V30 4439 H 394.204 0.45354 3.89468 0
M  V30 4440 H 395.694 -0.504358 4.14543 0
M  V30 4441 N 396.131 -1.37776 0.765217 0
M  V30 4442 C 397.061 -2.32945 0.160953 0
M  V30 4443 C 398.042 -1.55454 -0.690516 0
M  V30 4444 O 399.227 -1.83721 -0.629318 0
M  V30 4445 C 396.357 -3.39669 -0.724031 0
M  V30 4446 C 395.311 -4.27992 0.0256173 0
M  V30 4447 C 394.637 -5.25673 -0.978383 0
M  V30 4448 C 395.937 -5.08309 1.20082 0
M  V30 4449 H 397.631 -2.83728 0.955969 0
M  V30 4450 H 395.177 -1.36416 0.461149 0
M  V30 4451 H 397.13 -4.05219 -1.15652 0
M  V30 4452 H 395.854 -2.87396 -1.5515 0
M  V30 4453 H 394.513 -3.63964 0.438812 0
M  V30 4454 H 394.161 -4.69682 -1.80022 0
M  V30 4455 H 393.861 -5.85625 -0.481378 0
M  V30 4456 H 395.385 -5.94098 -1.40995 0
M  V30 4457 H 396.799 -5.67034 0.845307 0
M  V30 4458 H 395.196 -5.77554 1.62947 0
M  V30 4459 H 396.266 -4.41365 2.00811 0
M  V30 4460 N 397.609 -0.515225 -1.4894 0
M  V30 4461 C 398.855 0.0242508 -2.02785 0
M  V30 4462 C 399.188 1.35323 -1.39289 0
M  V30 4463 O 398.463 1.87041 -0.533469 0
M  V30 4464 C 398.746 0.16184 -3.59736 0
M  V30 4465 C 398.599 -1.19127 -4.33738 0
M  V30 4466 C 399.918 0.895719 -4.30888 0
M  V30 4467 H 397.037 0.00733914 -0.736963 0
M  V30 4468 H 399.679 -0.669395 -1.77818 0
M  V30 4469 H 397.829 0.752624 -3.8114 0
M  V30 4470 H 399.501 -1.82202 -4.23792 0
M  V30 4471 H 397.744 -1.77695 -3.95736 0
M  V30 4472 H 398.415 -1.04815 -5.41957 0
M  V30 4473 H 400.891 0.394528 -4.14225 0
M  V30 4474 H 399.767 0.960859 -5.40425 0
M  V30 4475 H 400.028 1.9427 -3.97129 0
M  V30 4476 N 399.087 1.5561 -0.249682 0
M  V30 4477 C 400.335 1.98618 0.373548 0
M  V30 4478 C 400.656 1.13919 1.58264 0
M  V30 4479 O 399.926 0.222637 1.94631 0
M  V30 4480 H 398.506 0.733571 0.141006 0
M  V30 4481 H 401.168 1.91748 -0.349117 0
M  V30 4482 H 400.264 3.04584 0.680796 0
M  V30 4483 N 400.565 -0.0233959 1.57583 0
M  V30 4484 C 401.497 -1.04994 2.03737 0
M  V30 4485 C 402.51 -1.32125 0.951152 0
M  V30 4486 O 403.699 -1.29512 1.22837 0
M  V30 4487 C 400.799 -2.39026 2.40249 0
M  V30 4488 C 399.972 -2.31171 3.7132 0
M  V30 4489 C 399.031 -3.47698 3.94959 0
M  V30 4490 O 398.057 -3.26937 4.65941 0
M  V30 4491 N 399.259 -4.6976 3.41037 0
M  V30 4492 H 402.024 -0.656507 2.92421 0
M  V30 4493 H 399.585 -0.211235 1.60516 0
M  V30 4494 H 401.577 -3.15712 2.53196 0
M  V30 4495 H 400.147 -2.70194 1.57207 0
M  V30 4496 H 399.367 -1.39547 3.68674 0
M  V30 4497 H 400.655 -2.23071 4.57293 0
M  V30 4498 H 400.053 -4.89528 2.83512 0
M  V30 4499 H 398.61 -5.43791 3.59353 0
M  V30 4500 N 402.043 -1.548 -0.295768 0
M  V30 4501 C 402.975 -1.82492 -1.3867 0
M  V30 4502 C 403.988 -0.708134 -1.46592 0
M  V30 4503 O 405.177 -0.985686 -1.48817 0
M  V30 4504 C 402.277 -1.95256 -2.76999 0
M  V30 4505 C 401.45 -3.25709 -2.91946 0
M  V30 4506 C 400.509 -3.28824 -4.10806 0
M  V30 4507 O 399.535 -4.02328 -4.02643 0
M  V30 4508 N 400.737 -2.5459 -5.21694 0
M  V30 4509 H 403.502 -2.76646 -1.15269 0
M  V30 4510 H 401.063 -1.54438 -0.485849 0
M  V30 4511 H 403.055 -1.94736 -3.54768 0
M  V30 4512 H 401.625 -1.08072 -2.93324 0
M  V30 4513 H 400.845 -3.38959 -2.01247 0
M  V30 4514 H 402.133 -4.11786 -2.98847 0
M  V30 4515 H 401.531 -1.94512 -5.31208 0
M  V30 4516 H 400.088 -2.59818 -5.97778 0
M  V30 4517 N 403.521 0.559213 -1.47345 0
M  V30 4518 C 404.451 1.67622 -1.62558 0
M  V30 4519 C 405.432 1.63331 -0.475087 0
M  V30 4520 O 406.617 1.80983 -0.704182 0
M  V30 4521 C 403.747 3.0626 -1.63774 0
M  V30 4522 C 402.701 3.25397 -2.7803 0
M  V30 4523 C 402.027 4.64801 -2.64318 0
M  V30 4524 C 403.327 3.10965 -4.19641 0
M  V30 4525 H 405.021 1.55146 -2.56067 0
M  V30 4526 H 402.567 0.744961 -1.23233 0
M  V30 4527 H 404.52 3.84247 -1.73008 0
M  V30 4528 H 403.244 3.1969 -0.66825 0
M  V30 4529 H 401.903 2.49817 -2.68304 0
M  V30 4530 H 401.551 4.75028 -1.65401 0
M  V30 4531 H 401.251 4.78555 -3.40968 0
M  V30 4532 H 402.775 5.44926 -2.75478 0
M  V30 4533 H 404.189 3.78772 -4.30354 0
M  V30 4534 H 402.586 3.36229 -4.97062 0
M  V30 4535 H 403.656 2.07736 -4.38148 0
M  V30 4536 N 404.999 1.35443 0.805782 0
M  V30 4537 C 406.246 1.28761 1.56291 0
M  V30 4538 C 406.574 -0.137747 1.94012 0
M  V30 4539 O 405.829 -1.1032 1.61642 0
M  V30 4540 C 406.128 2.14045 2.86216 0
M  V30 4541 C 405.794 3.62826 2.67709 0
M  V30 4542 C 404.456 4.0338 2.6237 0
M  V30 4543 C 406.808 4.57227 2.50186 0
M  V30 4544 C 404.136 5.36501 2.37451 0
M  V30 4545 C 406.488 5.90547 2.26797 0
M  V30 4546 C 405.152 6.30245 2.1988 0
M  V30 4547 H 404.422 0.471171 0.571908 0
M  V30 4548 H 407.069 1.67347 0.930974 0
M  V30 4549 H 405.374 1.68342 3.53791 0
M  V30 4550 H 407.071 2.0621 3.43917 0
M  V30 4551 H 403.661 3.30644 2.72713 0
M  V30 4552 H 407.845 4.2678 2.53323 0
M  V30 4553 H 403.101 5.66259 2.30567 0
M  V30 4554 H 407.275 6.63274 2.12228 0
M  V30 4555 H 404.902 7.33328 2.00333 0
M  V30 4556 N 406.477 -1.02803 1.19454 0
M  V30 4557 C 407.41 -2.107 0.876396 0
M  V30 4558 C 408.388 -1.61741 -0.166897 0
M  V30 4559 O 409.572 -1.88451 -0.0430195 0
M  V30 4560 C 406.699 -3.37262 0.311758 0
M  V30 4561 C 405.745 -4.05093 1.33424 0
M  V30 4562 S 406.578 -4.50498 2.89503 0
M  V30 4563 C 407.734 -5.80277 2.34584 0
M  V30 4564 H 407.967 -2.37362 1.79016 0
M  V30 4565 H 405.5 -1.15755 1.02177 0
M  V30 4566 H 407.458 -4.10499 -0.00748752 0
M  V30 4567 H 406.119 -3.08693 -0.58032 0
M  V30 4568 H 405.312 -4.9611 0.888302 0
M  V30 4569 H 404.914 -3.3803 1.60037 0
M  V30 4570 H 407.206 -6.54873 1.73633 0
M  V30 4571 H 408.149 -6.29651 3.23952 0
M  V30 4572 H 408.557 -5.3599 1.77131 0
M  V30 4573 N 407.956 -0.998596 -1.21925 0
M  V30 4574 C 409.204 -0.676325 -1.90448 0
M  V30 4575 C 409.525 0.794719 -1.78071 0
M  V30 4576 O 408.795 1.5701 -1.17152 0
M  V30 4577 H 407.375 -0.247165 -0.704925 0
M  V30 4578 H 410.037 -1.26633 -1.48156 0
M  V30 4579 H 409.133 -0.943858 -2.97486 0
M  V30 4580 N 409.434 1.37368 -0.772513 0
M  V30 4581 C 410.659 2.0447 -0.347386 0
M  V30 4582 C 411.084 1.57882 1.0225 0
M  V30 4583 O 410.442 0.73941 1.65537 0
M  V30 4584 C 410.49 3.58369 -0.400479 0
M  V30 4585 O 409.594 4.0803 0.598789 0
M  V30 4586 H 408.935 0.646773 -0.15027 0
M  V30 4587 H 411.465 1.75667 -1.04892 0
M  V30 4588 H 411.475 4.07183 -0.258045 0
M  V30 4589 H 410.15 3.91633 -1.39986 0
M  V30 4590 H 408.727 3.70534 0.419411 0
M  V30 4591 N 410.912 0.523116 1.48665 0
M  V30 4592 C 411.842 -0.23231 2.32342 0
M  V30 4593 C 412.823 -0.941637 1.41659 0
M  V30 4594 O 414.008 -0.928751 1.70552 0
M  V30 4595 C 411.138 -1.28387 3.22698 0
M  V30 4596 C 410.092 -0.693098 4.22351 0
M  V30 4597 C 409.418 -1.8468 5.01794 0
M  V30 4598 C 410.718 0.33063 5.21252 0
M  V30 4599 H 412.412 0.466192 2.95748 0
M  V30 4600 H 409.958 0.225643 1.42221 0
M  V30 4601 H 411.911 -1.82024 3.80059 0
M  V30 4602 H 410.635 -2.01186 2.57278 0
M  V30 4603 H 409.294 -0.178299 3.66166 0
M  V30 4604 H 408.942 -2.56301 4.32804 0
M  V30 4605 H 408.642 -1.45747 5.69238 0
M  V30 4606 H 410.166 -2.38709 5.62006 0
M  V30 4607 H 411.58 -0.118407 5.73178 0
M  V30 4608 H 409.977 0.636974 5.9671 0
M  V30 4609 H 411.047 1.23883 4.68808 0
M  V30 4610 N 412.39 -1.55475 0.257931 0
M  V30 4611 C 413.338 -2.23244 -0.653076 0
M  V30 4612 C 414.332 -1.22366 -1.17144 0
M  V30 4613 O 415.538 -1.40347 -1.12706 0
M  V30 4614 H 411.913 -0.716247 -0.229117 0
M  V30 4615 H 413.884 -2.98343 -0.0584788 0
M  V30 4616 C 412.633 -2.95401 -1.83395 0
M  V30 4617 H 411.956 -3.72802 -1.44424 0
M  V30 4618 H 413.396 -3.46165 -2.44838 0
M  V30 4619 C 411.855 -1.99895 -2.71189 0
M  V30 4620 O 412.385 -1.53909 -3.71046 0
M  V30 4621 N 410.591 -1.6676 -2.3799 0
M  V30 4622 H 410.138 -2.04352 -1.56837 0
M  V30 4623 H 410.096 -1.03127 -2.97005 0
M  V30 4624 N 413.868 0.0150385 -1.57593 0
M  V30 4625 C 414.798 1.01047 -2.10503 0
M  V30 4626 C 415.779 1.36816 -1.01071 0
M  V30 4627 O 416.964 1.45455 -1.28672 0
M  V30 4628 C 414.094 2.30708 -2.59598 0
M  V30 4629 C 413.048 2.09142 -3.73421 0
M  V30 4630 C 412.374 3.44685 -4.08774 0
M  V30 4631 C 413.674 1.46619 -5.01298 0
M  V30 4632 H 415.368 0.569978 -2.93925 0
M  V30 4633 H 412.914 0.272724 -1.41394 0
M  V30 4634 H 414.867 3.00687 -2.95238 0
M  V30 4635 H 413.591 2.76843 -1.73279 0
M  V30 4636 H 412.25 1.41592 -3.38153 0
M  V30 4637 H 411.898 3.88495 -3.195 0
M  V30 4638 H 411.598 3.31077 -4.8545 0
M  V30 4639 H 413.122 4.16004 -4.4696 0
M  V30 4640 H 414.536 2.06535 -5.34805 0
M  V30 4641 H 412.933 1.43544 -5.82679 0
M  V30 4642 H 414.003 0.433611 -4.82957 0
M  V30 4643 N 415.346 1.54954 0.287554 0
M  V30 4644 C 416.293 1.86834 1.35505 0
M  V30 4645 C 417.263 0.718452 1.49758 0
M  V30 4646 O 418.448 0.968358 1.644 0
M  V30 4647 C 415.588 2.13303 2.71286 0
M  V30 4648 C 414.701 3.40883 2.65373 0
M  V30 4649 C 413.836 3.57125 3.93236 0
M  V30 4650 C 412.875 4.78449 3.81776 0
M  V30 4651 N 412.012 4.91426 5.01443 0
M  V30 4652 H 416.852 2.77889 1.07619 0
M  V30 4653 H 414.389 1.37593 0.520241 0
M  V30 4654 H 416.347 2.26646 3.50267 0
M  V30 4655 H 414.977 1.25499 2.97405 0
M  V30 4656 H 414.029 3.36088 1.78182 0
M  V30 4657 H 415.341 4.29993 2.52799 0
M  V30 4658 H 414.495 3.70207 4.80658 0
M  V30 4659 H 413.234 2.66173 4.0866 0
M  V30 4660 H 412.239 4.65386 2.92738 0
M  V30 4661 H 413.464 5.70822 3.67884 0
M  V30 4662 H 411.41 4.03401 5.17304 0
M  V30 4663 H 411.327 5.74559 4.91343 0
M  V30 4664 H 412.595 5.08879 5.90477 0
M  V30 4665 N 416.824 -0.551391 1.4764 0
M  V30 4666 C 418.064 -1.31901 1.56145 0
M  V30 4667 C 418.428 -1.90724 0.221013 0
M  V30 4668 O 419.629 -2.6819 0.180945 0
M  V30 4669 C 417.9 -2.39517 2.65267 0
M  V30 4670 S 419.459 -3.26289 2.93395 0
M  V30 4671 H 416.277 -0.448965 0.551318 0
M  V30 4672 H 418.879 -0.630599 1.85051 0
M  V30 4673 H 417.583 -1.94747 3.6125 0
M  V30 4674 H 417.114 -3.13092 2.38195 0
M  V30 4675 H 419.129 -4.39122 2.31055 0
M  V30 4676 N 418.302 -1.35869 -0.798587 0
M  V30 4677 C 419.551 -1.28921 -1.5512 0
M  V30 4678 C 419.864 0.13208 -1.95154 0
M  V30 4679 O 421.07 0.323879 -2.69561 0
M  V30 4680 C 419.526 -2.26141 -2.79979 0
M  V30 4681 C 419.134 -3.73658 -2.47151 0
M  V30 4682 C 420.878 -2.28152 -3.57976 0
M  V30 4683 C 418.785 -4.62679 -3.6835 0
M  V30 4684 H 417.715 -0.479031 -0.582276 0
M  V30 4685 H 420.366 -1.61179 -0.877125 0
M  V30 4686 H 418.748 -1.86865 -3.49138 0
M  V30 4687 H 419.922 -4.21616 -1.85947 0
M  V30 4688 H 418.237 -3.74333 -1.82383 0
M  V30 4689 H 420.834 -2.91875 -4.4801 0
M  V30 4690 H 421.177 -1.28748 -3.95891 0
M  V30 4691 H 421.71 -2.65998 -2.95787 0
M  V30 4692 H 418.449 -5.63111 -3.35538 0
M  V30 4693 H 417.969 -4.19442 -4.28752 0
M  V30 4694 H 419.648 -4.78498 -4.35487 0
M  V30 4695 N 419.78 1.02168 -1.19998 0
M  V30 4696 C 421.005 1.79833 -1.03319 0
M  V30 4697 C 421.43 1.83504 0.413281 0
M  V30 4698 O 420.788 1.26635 1.29743 0
M  V30 4699 C 420.836 3.22396 -1.61533 0
M  V30 4700 O 419.94 4.03555 -0.849519 0
M  V30 4701 H 419.281 0.554872 -0.364709 0
M  V30 4702 H 421.811 1.28542 -1.59179 0
M  V30 4703 H 421.821 3.73124 -1.65054 0
M  V30 4704 H 420.496 3.19039 -2.66809 0
M  V30 4705 H 419.073 3.62169 -0.888129 0
M  V30 4706 N 421.258 1.00505 1.21394 0
M  V30 4707 C 422.674 0.717873 1.42544 0
M  V30 4708 C 422.874 -0.706936 1.88692 0
M  V30 4709 O 421.93 -1.47627 2.04847 0
M  V30 4710 C 423.243 1.73377 2.45684 0
M  V30 4711 C 424.791 1.75059 2.59467 0
M  V30 4712 C 425.266 2.75545 3.6584 0
M  V30 4713 N 426.757 2.74213 3.73311 0
M  V30 4714 C 427.492 3.48626 4.55245 0
M  V30 4715 N 426.988 4.32678 5.41075 0
M  V30 4716 N 428.781 3.37276 4.49668 0
M  V30 4717 H 420.932 1.92506 0.897503 0
M  V30 4718 H 423.195 0.830919 0.456375 0
M  V30 4719 H 422.901 2.75395 2.18748 0
M  V30 4720 H 422.775 1.53647 3.44489 0
M  V30 4721 H 425.162 0.737337 2.8574 0
M  V30 4722 H 425.243 1.98861 1.60897 0
M  V30 4723 H 424.887 3.77028 3.40313 0
M  V30 4724 H 424.817 2.49009 4.64007 0
M  V30 4725 H 427.308 2.13234 3.11993 0
M  V30 4726 H 427.621 4.86253 6.00648 0
M  V30 4727 H 425.966 4.3676 5.40616 0
M  V30 4728 H 429.157 2.71043 3.81646 0
M  V30 4729 H 429.33 3.95524 5.13288 0
M  V30 4730 N 422.737 -1.36956 0.779787 0
M  V30 4731 C 424.014 -1.93697 0.272156 0
M  V30 4732 C 424.394 -1.71267 -1.23413 0
M  V30 4733 O 423.742 -1.06607 -2.02107 0
M  V30 4734 C 423.952 -3.42812 0.654291 0
M  V30 4735 C 425.3 -4.19921 0.628602 0
M  V30 4736 O 426.324 -3.51209 0.594172 0
M  V30 4737 O 425.183 -5.42465 0.662864 0
M  V30 4738 H 422.277 -0.824447 0.0649286 0
M  V30 4739 H 424.823 -1.46196 0.861682 0
M  V30 4740 H 423.595 -3.52754 1.69353 0
M  V30 4741 H 423.218 -3.97582 0.0381369 0
M  V30 4742 N 424.215 -0.530993 -1.48385 0
M  V30 4743 C 425.455 0.000718982 -2.044 0
M  V30 4744 C 425.819 1.31485 -1.39913 0
M  V30 4745 O 427.02 1.93265 -1.86821 0
M  V30 4746 C 425.291 0.119177 -3.57201 0
M  V30 4747 S 426.85 0.600806 -4.34667 0
M  V30 4748 H 423.668 -0.0125473 -0.710889 0
M  V30 4749 H 426.27 -0.711783 -1.82082 0
M  V30 4750 H 424.974 -0.842061 -4.01668 0
M  V30 4751 H 424.505 0.856026 -3.83974 0
M  V30 4752 H 426.52 1.86514 -4.59812 0
M  V30 4753 N 425.693 1.55336 -0.266172 0
M  V30 4754 C 426.64 2.22172 0.625165 0
M  V30 4755 C 427.61 1.19211 1.15663 0
M  V30 4756 O 428.795 1.47723 1.20758 0
M  V30 4757 C 425.935 2.93972 1.8076 0
M  V30 4758 C 425.048 4.11632 1.31084 0
M  V30 4759 C 424.183 4.71099 2.45436 0
M  V30 4760 C 423.222 5.8097 1.92718 0
M  V30 4761 N 422.359 6.34538 3.00509 0
M  V30 4762 H 427.199 2.9796 0.0485582 0
M  V30 4763 H 424.736 1.47095 0.0122024 0
M  V30 4764 H 426.694 3.33811 2.50251 0
M  V30 4765 H 425.324 2.20623 2.35638 0
M  V30 4766 H 424.376 3.76975 0.509326 0
M  V30 4767 H 425.688 4.90893 0.884633 0
M  V30 4768 H 424.842 5.13612 3.22936 0
M  V30 4769 H 423.581 3.91096 2.91368 0
M  V30 4770 H 422.586 5.37916 1.13695 0
M  V30 4771 H 423.811 6.62836 1.47733 0
M  V30 4772 H 421.757 5.57433 3.45839 0
M  V30 4773 H 421.674 7.09046 2.62279 0
M  V30 4774 H 422.942 6.81709 3.78011 0
M  V30 4775 N 427.171 -0.0066808 1.57599 0
M  V30 4776 C 428.119 -1.01851 2.09115 0
M  V30 4777 C 429.113 -1.36021 1.00969 0
M  V30 4778 O 430.319 -1.34663 1.19439 0
M  V30 4779 H 426.694 -0.346083 0.667631 0
M  V30 4780 H 428.665 -0.558394 2.93129 0
M  V30 4781 C 427.414 -2.30374 2.60429 0
M  V30 4782 H 426.737 -2.04947 3.43273 0
M  V30 4783 H 428.177 -2.99466 3.00161 0
M  V30 4784 C 426.636 -3.00893 1.51542 0
M  V30 4785 O 427.166 -3.91614 0.894484 0
M  V30 4786 N 425.372 -2.62603 1.2445 0
M  V30 4787 H 424.919 -1.88911 1.75129 0
M  V30 4788 H 424.877 -3.10101 0.518137 0
M  V30 4789 N 428.649 -1.55105 -0.279332 0
M  V30 4790 C 429.898 -1.74618 -1.00952 0
M  V30 4791 C 430.211 -0.551096 -1.87676 0
M  V30 4792 O 431.417 -0.628507 -2.64125 0
M  V30 4793 C 429.873 -3.09025 -1.84476 0
M  V30 4794 C 429.481 -4.36081 -1.0265 0
M  V30 4795 C 431.225 -3.37891 -2.56963 0
M  V30 4796 C 429.132 -5.6153 -1.85576 0
M  V30 4797 H 428.062 -0.650868 -0.38064 0
M  V30 4798 H 430.713 -1.81569 -0.265475 0
M  V30 4799 H 429.095 -2.96095 -2.62952 0
M  V30 4800 H 430.269 -4.59909 -0.286354 0
M  V30 4801 H 428.584 -4.14312 -0.416464 0
M  V30 4802 H 431.181 -4.28822 -3.19399 0
M  V30 4803 H 431.524 -2.57737 -3.26921 0
M  V30 4804 H 432.057 -3.5189 -1.85522 0
M  V30 4805 H 428.796 -6.44413 -1.2005 0
M  V30 4806 H 428.316 -5.41854 -2.57204 0
M  V30 4807 H 429.995 -5.99594 -2.43096 0
M  V30 4808 N 430.127 0.543554 -1.4793 0
M  V30 4809 C 431.352 1.32995 -1.59145 0
M  V30 4810 C 431.777 1.86472 -0.246956 0
M  V30 4811 O 431.135 1.63696 0.779324 0
M  V30 4812 C 431.183 2.46623 -2.63077 0
M  V30 4813 O 430.287 3.49261 -2.19295 0
M  V30 4814 H 429.628 0.394472 -0.534124 0
M  V30 4815 H 432.158 0.655489 -1.93816 0
M  V30 4816 H 432.168 2.93001 -2.83926 0
M  V30 4817 H 430.843 2.07059 -3.60693 0
M  V30 4818 H 429.42 3.09094 -2.08603 0
M  V30 4819 N 431.605 1.3629 0.791371 0
M  V30 4820 C 432.553 1.30514 1.92533 0
M  V30 4821 C 433.547 0.197285 1.68247 0
M  V30 4822 O 434.753 0.364176 1.76278 0
M  V30 4823 H 431.128 0.406263 0.632815 0
M  V30 4824 H 433.099 2.26282 1.94523 0
M  V30 4825 C 431.848 1.10933 3.29529 0
M  V30 4826 H 431.171 1.95427 3.48781 0
M  V30 4827 H 432.611 1.10937 4.0923 0
M  V30 4828 C 431.07 -0.186123 3.36385 0
M  V30 4829 O 431.6 -1.17664 3.84081 0
M  V30 4830 N 429.806 -0.230128 2.89687 0
M  V30 4831 H 429.353 0.576545 2.51065 0
M  V30 4832 H 429.311 -1.09658 2.94657 0
M  V30 4833 N 433.083 -1.0153 1.20538 0
M  V30 4834 C 434.494 -1.56598 1.01657 0
M  V30 4835 C 434.845 -1.91505 -0.426668 0
M  V30 4836 O 433.97 -1.72375 -1.30827 0
M  V30 4837 C 434.565 -2.84542 1.83905 0
M  V30 4838 C 433.124 -3.36133 1.69386 0
M  V30 4839 C 432.271 -2.09427 1.81757 0
M  V30 4840 H 435.222 -0.838974 1.34711 0
M  V30 4841 H 435.243 -3.56004 1.34319 0
M  V30 4842 H 434.755 -2.59105 2.8894 0
M  V30 4843 H 432.856 -3.66528 0.669933 0
M  V30 4844 H 432.969 -4.08248 2.50739 0
M  V30 4845 H 431.333 -2.21941 1.24957 0
M  V30 4846 H 432.116 -1.86414 2.88279 0
M  V30 4847 N 434.561 -1.01147 -1.20859 0
M  V30 4848 C 435.471 -0.58686 -2.27141 0
M  V30 4849 C 436.487 0.373198 -1.69951 0
M  V30 4850 O 437.663 0.235423 -2.00019 0
M  V30 4851 C 434.728 0.0733602 -3.46622 0
M  V30 4852 C 433.789 -0.931995 -4.19061 0
M  V30 4853 C 433.022 -0.303186 -5.32838 0
M  V30 4854 O 433.245 0.898395 -5.63281 0
M  V30 4855 O 432.179 -1.01735 -5.9324 0
M  V30 4856 H 436.005 -1.47155 -2.65667 0
M  V30 4857 H 433.59 -0.780689 -1.2738 0
M  V30 4858 H 435.472 0.442333 -4.19072 0
M  V30 4859 H 434.147 0.932329 -3.09983 0
M  V30 4860 H 433.054 -1.35224 -3.48805 0
M  V30 4861 H 434.387 -1.76076 -4.59628 0
M  V30 4862 N 436.039 1.36541 -0.78704 0
M  V30 4863 C 437.002 2.28413 -0.189778 0
M  V30 4864 C 438.002 1.48719 0.611499 0
M  V30 4865 O 439.192 1.68737 0.432842 0
M  V30 4866 C 436.324 3.32824 0.737638 0
M  V30 4867 H 437.517 2.82743 -0.999831 0
M  V30 4868 H 435.07 1.46065 -0.556298 0
M  V30 4869 H 435.805 2.83646 1.57212 0
M  V30 4870 H 435.59 3.91752 0.165044 0
M  V30 4871 H 437.08 4.0144 1.15047 0
M  V30 4872 N 437.518 0.538854 1.48102 0
M  V30 4873 C 438.748 0.0122958 2.06596 0
M  V30 4874 C 439.156 -1.27861 1.39457 0
M  V30 4875 O 438.499 -1.77348 0.478907 0
M  V30 4876 C 438.561 -0.273131 3.58461 0
M  V30 4877 C 438.225 0.92561 4.47528 0
M  V30 4878 C 439.222 1.82637 4.86765 0
M  V30 4879 C 436.907 1.13511 4.89306 0
M  V30 4880 C 438.901 2.92047 5.66558 0
M  V30 4881 C 436.588 2.23233 5.68868 0
M  V30 4882 C 437.586 3.12333 6.07402 0
M  V30 4883 O 437.274 4.20155 6.85365 0
M  V30 4884 H 437.006 0.0344283 0.675123 0
M  V30 4885 H 439.56 0.746494 1.91355 0
M  V30 4886 H 437.79 -1.06141 3.71848 0
M  V30 4887 H 439.479 -0.742842 3.99045 0
M  V30 4888 H 440.245 1.67649 4.55103 0
M  V30 4889 H 436.124 0.450835 4.5879 0
M  V30 4890 H 439.668 3.6162 5.96554 0
M  V30 4891 H 435.565 2.38201 5.99942 0
M  V30 4892 H 436.333 4.17975 7.03732 0
M  V30 4893 N 438.996 -1.55193 0.274407 0
M  V30 4894 C 440.273 -1.91584 -0.394331 0
M  V30 4895 C 440.653 -1.19858 -1.73774 0
M  V30 4896 O 440.001 -0.3252 -2.26174 0
M  V30 4897 C 440.211 -3.4487 -0.535311 0
M  V30 4898 C 441.559 -4.16636 -0.818534 0
M  V30 4899 O 442.583 -3.5076 -0.620146 0
M  V30 4900 O 441.442 -5.33209 -1.19792 0
M  V30 4901 H 438.536 -0.798349 -0.215794 0
M  V30 4902 H 441.082 -1.66646 0.320507 0
M  V30 4903 H 439.854 -3.89145 0.410141 0
M  V30 4904 H 439.477 -3.75759 -1.29964 0
M  V30 4905 N 440.474 -0.00167713 -1.576 0
M  V30 4906 C 441.424 0.997744 -2.0501 0
M  V30 4907 C 442.408 1.30214 -0.94515 0
M  V30 4908 O 443.6 1.29284 -1.20891 0
M  V30 4909 C 440.729 2.2892 -2.55833 0
M  V30 4910 C 439.815 2.01437 -3.73208 0
M  V30 4911 N 440.206 1.44119 -4.84833 0
M  V30 4912 C 438.504 2.31571 -3.8117 0
M  V30 4913 C 439.205 1.33145 -5.66257 0
M  V30 4914 N 438.181 1.81763 -5.12312 0
M  V30 4915 H 441.983 0.549098 -2.88725 0
M  V30 4916 H 439.497 0.20398 -1.61114 0
M  V30 4917 H 441.494 3.01361 -2.88075 0
M  V30 4918 H 440.154 2.74436 -1.73537 0
M  V30 4919 H 441.165 1.11978 -5.0565 0
M  V30 4920 H 437.842 2.7995 -3.09732 0
M  V30 4921 H 439.232 0.890567 -6.65972 0
M  V30 4922 N 441.952 1.55251 0.271103 0
M  V30 4923 C 443.192 1.77698 1.01008 0
M  V30 4924 C 443.556 0.567246 1.83429 0
M  V30 4925 O 444.757 0.670013 2.60316 0
M  V30 4926 C 443.028 3.04715 1.86772 0
M  V30 4927 S 444.587 3.48289 2.66909 0
M  V30 4928 H 441.405 0.624343 0.340172 0
M  V30 4929 H 444.007 1.9348 0.280315 0
M  V30 4930 H 442.711 3.90853 1.25149 0
M  V30 4931 H 442.242 2.91604 2.64066 0
M  V30 4932 H 444.257 3.07712 3.89266 0
M  V30 4933 N 443.43 -0.535701 1.48216 0
M  V30 4934 C 444.677 -1.29183 1.55942 0
M  V30 4935 C 445.005 -1.93125 0.230857 0
M  V30 4936 O 444.26 -1.79556 -0.778331 0
M  V30 4937 C 444.559 -2.4068 2.64212 0
M  V30 4938 C 444.225 -1.94428 4.06827 0
M  V30 4939 C 442.887 -1.81532 4.45645 0
M  V30 4940 C 445.239 -1.59405 4.96225 0
M  V30 4941 C 442.567 -1.31939 5.71672 0
M  V30 4942 C 444.919 -1.11276 6.22736 0
M  V30 4943 C 443.583 -0.969924 6.60416 0
M  V30 4944 H 442.853 -0.472715 0.570632 0
M  V30 4945 H 445.5 -0.598437 1.81909 0
M  V30 4946 H 443.805 -3.15666 2.32083 0
M  V30 4947 H 445.502 -2.98822 2.67407 0
M  V30 4948 H 442.092 -2.05415 3.76168 0
M  V30 4949 H 446.276 -1.68231 4.66917 0
M  V30 4950 H 441.532 -1.19562 5.99596 0
M  V30 4951 H 445.706 -0.832453 6.91407 0
M  V30 4952 H 443.333 -0.583436 7.57958 0
M  V30 4953 N 444.908 -1.36708 -0.784132 0
M  V30 4954 C 445.818 -1.3363 -1.92822 0
M  V30 4955 C 446.834 -0.237686 -1.72369 0
M  V30 4956 O 448.01 -0.470962 -1.95816 0
M  V30 4957 C 445.075 -1.13011 -3.27764 0
M  V30 4958 C 444.136 -2.32397 -3.60957 0
M  V30 4959 C 443.369 -2.12752 -4.89461 0
M  V30 4960 O 443.592 -1.10541 -5.59586 0
M  V30 4961 O 442.526 -3.00653 -5.21432 0
M  V30 4962 H 446.352 -2.29964 -1.98369 0
M  V30 4963 H 443.937 -1.1731 -0.925136 0
M  V30 4964 H 445.819 -1.03451 -4.08504 0
M  V30 4965 H 444.494 -0.19743 -3.23097 0
M  V30 4966 H 443.401 -2.47527 -2.80502 0
M  V30 4967 H 444.734 -3.2419 -3.70354 0
M  V30 4968 N 446.386 1.0089 -1.21074 0
M  V30 4969 C 447.333 2.09588 -0.966512 0
M  V30 4970 C 448.303 1.65761 0.106089 0
M  V30 4971 O 449.488 1.90758 -0.0402287 0
M  V30 4972 C 446.628 3.40958 -0.533058 0
M  V30 4973 C 445.741 3.9822 -1.67467 0
M  V30 4974 C 444.876 5.17682 -1.19076 0
M  V30 4975 C 443.915 5.67043 -2.30496 0
M  V30 4976 N 443.052 6.77759 -1.83267 0
M  V30 4977 H 447.892 2.29815 -1.89708 0
M  V30 4978 H 445.429 1.12689 -0.945489 0
M  V30 4979 H 447.387 4.1637 -0.263019 0
M  V30 4980 H 446.017 3.20781 0.360505 0
M  V30 4981 H 445.069 3.1983 -2.05944 0
M  V30 4982 H 446.381 4.3085 -2.51336 0
M  V30 4983 H 445.535 6.00326 -0.877151 0
M  V30 4984 H 444.274 4.86635 -0.322066 0
M  V30 4985 H 443.279 4.82999 -2.62664 0
M  V30 4986 H 444.504 6.00121 -3.17855 0
M  V30 4987 H 442.45 6.48527 -0.987356 0
M  V30 4988 H 442.367 7.09624 -2.60711 0
M  V30 4989 H 443.635 7.63949 -1.54928 0
M  V30 4990 N 447.864 1.01787 1.20321 0
M  V30 4991 C 448.811 0.589197 2.23153 0
M  V30 4992 C 449.781 -0.391367 1.61423 0
M  V30 4993 O 450.966 -0.290518 1.88575 0
M  V30 4994 C 448.106 -0.0650747 3.45039 0
M  V30 4995 C 447.219 0.960207 4.21194 0
M  V30 4996 C 446.354 0.276854 5.30478 0
M  V30 4997 C 445.393 1.2888 5.98378 0
M  V30 4998 N 444.53 0.632031 6.99249 0
M  V30 4999 H 449.37 1.47071 2.59179 0
M  V30 5000 H 446.907 0.736192 1.27352 0
M  V30 5001 H 448.865 -0.461552 4.14639 0
M  V30 5002 H 447.495 -0.910233 3.09701 0
M  V30 5003 H 446.547 1.47484 3.50646 0
M  V30 5004 H 447.859 1.72977 4.67847 0
M  V30 5005 H 447.013 -0.175056 6.06447 0
M  V30 5006 H 445.752 -0.525004 4.84866 0
M  V30 5007 H 444.757 1.75109 5.21169 0
M  V30 5008 H 445.982 2.09196 6.46076 0
M  V30 5009 H 443.928 -0.149935 6.55829 0
M  V30 5010 H 443.845 1.33964 7.44036 0
M  V30 5011 H 445.113 0.203755 7.79234 0
M  V30 5012 N 449.342 -1.36122 0.79427 0
M  V30 5013 C 450.252 -2.33769 0.197296 0
M  V30 5014 C 451.268 -1.61276 -0.653153 0
M  V30 5015 O 452.444 -1.9323 -0.5678 0
M  V30 5016 C 449.509 -3.40474 -0.654098 0
M  V30 5017 C 448.57 -4.28759 0.215411 0
M  V30 5018 C 447.803 -5.30368 -0.595443 0
M  V30 5019 O 448.026 -5.40211 -1.83107 0
M  V30 5020 O 446.96 -6.019 0.00721351 0
M  V30 5021 H 450.786 -2.86597 1.00478 0
M  V30 5022 H 448.371 -1.38676 0.555818 0
M  V30 5023 H 450.253 -4.05703 -1.13944 0
M  V30 5024 H 448.928 -2.89937 -1.43938 0
M  V30 5025 H 447.835 -3.66554 0.747615 0
M  V30 5026 H 449.168 -4.82661 0.964332 0
M  V30 5027 N 450.82 -0.546701 -1.47814 0
M  V30 5028 C 451.768 0.220048 -2.31557 0
M  V30 5029 C 452.762 0.919472 -1.42275 0
M  V30 5030 O 453.968 0.841953 -1.59095 0
M  V30 5031 H 450.343 0.0898334 -0.746615 0
M  V30 5032 H 452.314 -0.505589 -2.94086 0
M  V30 5033 C 451.063 1.24353 -3.24702 0
M  V30 5034 H 450.386 0.714758 -3.93359 0
M  V30 5035 H 451.826 1.75112 -3.8615 0
M  V30 5036 C 450.285 2.28593 -2.47481 0
M  V30 5037 O 450.815 3.35334 -2.21165 0
M  V30 5038 N 449.021 2.02244 -2.08676 0
M  V30 5039 H 448.568 1.15455 -2.30278 0
M  V30 5040 H 448.526 2.72207 -1.57323 0
M  V30 5041 N 452.299 1.55045 -0.282633 0
M  V30 5042 C 453.524 2.04628 0.337977 0
M  V30 5043 C 453.949 1.15937 1.48123 0
M  V30 5044 O 453.307 0.159532 1.80597 0
M  V30 5045 C 453.355 3.51854 0.78936 0
M  V30 5046 O 452.459 3.66236 1.89592 0
M  V30 5047 H 451.8 0.660434 0.0687261 0
M  V30 5048 H 454.33 2.00261 -0.419124 0
M  V30 5049 H 454.34 3.93361 1.08311 0
M  V30 5050 H 453.015 4.15873 -0.0470419 0
M  V30 5051 H 451.592 3.36633 1.60413 0
M  V30 5052 N 453.777 0.010035 1.57597 0
M  V30 5053 C 455.188 -0.531426 1.78977 0
M  V30 5054 C 455.539 -1.73375 0.918454 0
M  V30 5055 O 454.664 -2.16047 0.123635 0
M  V30 5056 C 455.259 -0.97086 3.24592 0
M  V30 5057 C 453.818 -1.45756 3.47033 0
M  V30 5058 C 452.965 -0.413384 2.74201 0
M  V30 5059 H 455.916 0.236166 1.56933 0
M  V30 5060 H 455.937 -1.83633 3.33255 0
M  V30 5061 H 455.449 -0.0955893 3.87982 0
M  V30 5062 H 453.55 -2.35339 2.88871 0
M  V30 5063 H 453.663 -1.4781 4.55729 0
M  V30 5064 H 452.027 -0.877266 2.39115 0
M  V30 5065 H 452.81 0.453092 3.40297 0
M  V30 5066 N 455.255 -1.55392 -0.262866 0
M  V30 5067 C 456.165 -1.92077 -1.34698 0
M  V30 5068 C 457.181 -0.819227 -1.53508 0
M  V30 5069 O 458.357 -1.11921 -1.67439 0
M  V30 5070 C 455.422 -2.19407 -2.68443 0
M  V30 5071 C 454.483 -3.42905 -2.58292 0
M  V30 5072 C 453.716 -3.68921 -3.85659 0
M  V30 5073 O 453.939 -2.97275 -4.8681 0
M  V30 5074 O 452.873 -4.62455 -3.85252 0
M  V30 5075 H 456.699 -2.84384 -1.06581 0
M  V30 5076 H 454.284 -1.42069 -0.462264 0
M  V30 5077 H 456.166 -2.38365 -3.47506 0
M  V30 5078 H 454.841 -1.30282 -2.96325 0
M  V30 5079 H 453.748 -3.29272 -1.7757 0
M  V30 5080 H 455.081 -4.32282 -2.35358 0
M  V30 5081 N 456.733 0.527833 -1.48498 0
M  V30 5082 C 457.98 1.28354 -1.56625 0
M  V30 5083 C 458.308 1.93 -0.241096 0
M  V30 5084 O 457.563 1.79967 0.768798 0
M  V30 5085 C 457.862 2.39275 -2.65485 0
M  V30 5086 C 457.528 1.92268 -4.07853 0
M  V30 5087 C 456.19 1.79166 -4.46602 0
M  V30 5088 C 458.542 1.56771 -4.97064 0
M  V30 5089 C 455.87 1.28905 -5.72364 0
M  V30 5090 C 458.222 1.07972 -6.23318 0
M  V30 5091 C 456.886 0.934887 -6.60921 0
M  V30 5092 H 456.156 0.469682 -0.573131 0
M  V30 5093 H 458.803 0.588781 -1.82224 0
M  V30 5094 H 457.108 3.1443 -2.33754 0
M  V30 5095 H 458.805 2.974 -2.68988 0
M  V30 5096 H 455.395 2.03417 -3.77252 0
M  V30 5097 H 459.579 1.65753 -4.67803 0
M  V30 5098 H 454.835 1.16381 -6.00221 0
M  V30 5099 H 459.009 0.795775 -6.91838 0
M  V30 5100 H 456.636 0.543231 -7.58257 0
M  V30 5101 N 458.211 1.37122 0.776871 0
M  V30 5102 C 459.158 1.3247 1.88998 0
M  V30 5103 C 460.128 0.191143 1.64997 0
M  V30 5104 O 461.313 0.379683 1.86984 0
M  V30 5105 C 458.453 1.13241 3.25992 0
M  V30 5106 C 457.566 2.35782 3.61982 0
M  V30 5107 C 456.701 2.09465 4.88158 0
M  V30 5108 C 455.74 3.279 5.16864 0
M  V30 5109 N 454.877 3.01167 6.34226 0
M  V30 5110 H 459.717 2.27642 1.9231 0
M  V30 5111 H 457.254 1.13125 0.94027 0
M  V30 5112 H 459.212 1.00115 4.0501 0
M  V30 5113 H 457.842 0.217186 3.22069 0
M  V30 5114 H 456.894 2.59666 2.77989 0
M  V30 5115 H 458.206 3.24125 3.79137 0
M  V30 5116 H 457.36 1.93341 5.75069 0
M  V30 5117 H 456.099 1.18452 4.73097 0
M  V30 5118 H 455.104 3.44569 4.2843 0
M  V30 5119 H 456.329 4.19757 5.33836 0
M  V30 5120 H 454.275 2.12779 6.20533 0
M  V30 5121 H 454.192 3.83052 6.51772 0
M  V30 5122 H 455.46 2.88649 7.24087 0
M  V30 5123 N 459.689 -1.00246 1.21608 0
M  V30 5124 C 460.622 -2.08794 0.920892 0
M  V30 5125 C 461.6 -1.62059 -0.132552 0
M  V30 5126 O 462.784 -1.885 -0.0030366 0
M  V30 5127 C 459.911 -3.36525 0.383226 0
M  V30 5128 C 458.957 -4.02172 1.41987 0
M  V30 5129 S 459.79 -4.44256 2.98994 0
M  V30 5130 C 460.946 -5.7517 2.4684 0
M  V30 5131 H 461.179 -2.33511 1.8401 0
M  V30 5132 H 458.712 -1.13562 1.04609 0
M  V30 5133 H 460.67 -4.10423 0.0795871 0
M  V30 5134 H 459.331 -3.09854 -0.514711 0
M  V30 5135 H 458.524 -4.94114 0.993335 0
M  V30 5136 H 458.126 -3.34559 1.67171 0
M  V30 5137 H 460.418 -6.51042 1.87484 0
M  V30 5138 H 461.361 -6.22638 3.37235 0
M  V30 5139 H 461.769 -5.32112 1.88461 0
M  V30 5140 N 461.167 -1.02423 -1.1978 0
M  V30 5141 C 462.407 -0.726635 -1.91048 0
M  V30 5142 C 462.771 0.730947 -1.77542 0
M  V30 5143 O 463.972 1.14141 -2.43362 0
M  V30 5144 C 462.243 -1.15964 -3.38064 0
M  V30 5145 S 463.802 -0.985172 -4.27598 0
M  V30 5146 H 460.62 -0.264679 -0.659899 0
M  V30 5147 H 463.222 -1.31309 -1.44838 0
M  V30 5148 H 461.926 -2.21619 -3.45417 0
M  V30 5149 H 461.457 -0.566274 -3.89303 0
M  V30 5150 H 463.472 0.106946 -4.96085 0
M  V30 5151 N 462.645 1.35699 -0.801477 0
M  V30 5152 C 463.893 1.9852 -0.37871 0
M  V30 5153 C 464.214 1.63907 1.05638 0
M  V30 5154 O 463.484 0.919013 1.73006 0
M  V30 5155 H 462.064 0.734322 -0.137042 0
M  V30 5156 H 464.726 1.65697 -1.02619 0
M  V30 5157 H 463.822 3.08382 -0.480284 0
M  V30 5158 N 464.123 0.554532 1.47522 0
M  V30 5159 C 465.372 0.0273458 2.01681 0
M  V30 5160 C 465.685 -1.32962 1.43459 0
M  V30 5161 O 466.891 -1.94657 1.89265 0
M  V30 5162 C 465.347 -0.00159057 3.599 0
M  V30 5163 C 464.955 1.35197 4.27113 0
M  V30 5164 C 466.699 -0.476311 4.21819 0
M  V30 5165 C 464.606 1.28229 5.77331 0
M  V30 5166 H 463.536 0.00645269 0.753972 0
M  V30 5167 H 466.187 0.701985 1.69542 0
M  V30 5168 H 464.569 -0.741821 3.8899 0
M  V30 5169 H 465.743 2.1097 4.09668 0
M  V30 5170 H 464.058 1.76441 3.77171 0
M  V30 5171 H 466.655 -0.5468 5.31897 0
M  V30 5172 H 466.998 -1.4877 3.8881 0
M  V30 5173 H 467.531 0.20898 3.97251 0
M  V30 5174 H 464.27 2.26959 6.14955 0
M  V30 5175 H 463.79 0.566314 5.97121 0
M  V30 5176 H 465.469 0.983226 6.39485 0
M  V30 5177 N 465.601 -1.54893 0.290851 0
M  V30 5178 C 466.847 -2.00949 -0.314784 0
M  V30 5179 C 467.202 -1.1757 -1.52299 0
M  V30 5180 O 466.495 -0.241558 -1.90071 0
M  V30 5181 C 466.689 -3.49815 -0.732397 0
M  V30 5182 C 466.518 -4.47603 0.433799 0
M  V30 5183 C 465.288 -4.96806 0.922599 0
M  V30 5184 C 467.486 -4.98233 1.27546 0
M  V30 5185 N 465.468 -5.78426 2.05662 0
M  V30 5186 C 466.839 -5.77455 2.25712 0
M  V30 5187 C 468.894 -4.80439 1.307 0
M  V30 5188 C 467.597 -6.40778 3.26796 0
M  V30 5189 C 469.623 -5.44574 2.30637 0
M  V30 5190 C 468.985 -6.23619 3.27533 0
M  V30 5191 H 465.084 -0.777905 -0.0799257 0
M  V30 5192 H 467.668 -1.9015 0.418458 0
M  V30 5193 H 465.839 -3.60925 -1.43483 0
M  V30 5194 H 467.571 -3.82681 -1.31671 0
M  V30 5195 H 464.326 -4.70961 0.49926 0
M  V30 5196 H 464.75 -6.23923 2.62772 0
M  V30 5197 H 469.392 -4.18918 0.571622 0
M  V30 5198 H 467.11 -7.01439 4.01258 0
M  V30 5199 H 470.696 -5.32739 2.33838 0
M  V30 5200 H 469.576 -6.72367 4.03599 0
M  V30 5201 N 467.08 -0.0183926 -1.57589 0
M  V30 5202 C 468.013 1.00148 -2.0505 0
M  V30 5203 C 468.991 1.32387 -0.944058 0
M  V30 5204 O 470.175 1.44237 -1.21358 0
M  V30 5205 C 467.302 2.32435 -2.46357 0
M  V30 5206 C 466.348 2.15731 -3.67916 0
M  V30 5207 S 467.181 1.46613 -5.15039 0
M  V30 5208 C 468.337 2.80293 -5.59631 0
M  V30 5209 H 468.57 0.597429 -2.91235 0
M  V30 5210 H 466.103 0.193002 -1.53189 0
M  V30 5211 H 468.061 3.0849 -2.70822 0
M  V30 5212 H 466.722 2.69975 -1.60537 0
M  V30 5213 H 465.915 3.13502 -3.9463 0
M  V30 5214 H 465.517 1.4782 -3.43548 0
M  V30 5215 H 467.809 3.76557 -5.63215 0
M  V30 5216 H 468.752 2.58256 -6.59325 0
M  V30 5217 H 469.16 2.85047 -4.87246 0
M  V30 5218 N 468.558 1.5553 0.254621 0
M  V30 5219 C 469.806 1.7665 0.981793 0
M  V30 5220 C 470.127 0.580963 1.86145 0
M  V30 5221 O 469.397 -0.403537 1.91699 0
M  V30 5222 H 467.977 0.651475 0.365498 0
M  V30 5223 H 470.639 1.92958 0.274426 0
M  V30 5224 H 469.735 2.67486 1.60802 0
M  V30 5225 N 470.036 -0.519951 1.48776 0
M  V30 5226 C 470.984 -1.64443 1.64503 0
M  V30 5227 C 471.978 -1.61501 0.511248 0
M  V30 5228 O 473.184 -1.66238 0.690294 0
M  V30 5229 H 469.559 -0.544776 0.518385 0
M  V30 5230 H 471.53 -1.48325 2.58925 0
M  V30 5231 C 470.279 -3.02673 1.71127 0
M  V30 5232 H 469.602 -3.05635 2.57735 0
M  V30 5233 H 471.042 -3.80941 1.86172 0
M  V30 5234 C 469.501 -3.33854 0.452032 0
M  V30 5235 O 470.031 -3.99385 -0.430678 0
M  V30 5236 N 468.237 -2.88825 0.32069 0
M  V30 5237 H 467.784 -2.35674 1.03998 0
M  V30 5238 H 467.742 -3.10056 -0.520814 0
M  V30 5239 N 471.514 -1.37532 -0.769588 0
M  V30 5240 C 472.739 -1.36231 -1.56384 0
M  V30 5241 C 473.164 0.0495849 -1.88035 0
M  V30 5242 O 472.522 1.02723 -1.49391 0
M  V30 5243 C 472.57 -2.20986 -2.84952 0
M  V30 5244 O 471.674 -1.61597 -3.79421 0
M  V30 5245 H 471.015 -0.465387 -0.473615 0
M  V30 5246 H 473.545 -1.81085 -0.952342 0
M  V30 5247 H 473.555 -2.34277 -3.34034 0
M  V30 5248 H 472.23 -3.23612 -2.61243 0
M  V30 5249 H 470.807 -1.57359 -3.38072 0
M  V30 5250 N 472.992 0.995999 -1.22138 0
M  V30 5251 C 473.955 2.06711 -0.990109 0
M  V30 5252 C 474.955 1.60744 0.0422978 0
M  V30 5253 O 476.145 1.73095 -0.195895 0
M  V30 5254 C 473.277 3.37288 -0.49491 0
M  V30 5255 H 474.47 2.28661 -1.94047 0
M  V30 5256 H 472.023 1.16711 -1.03963 0
M  V30 5257 H 472.758 3.21022 0.459948 0
M  V30 5258 H 472.543 3.71986 -1.23971 0
M  V30 5259 H 474.033 4.16103 -0.353253 0
M  V30 5260 N 474.47 1.03057 1.19235 0
M  V30 5261 C 475.71 0.736757 1.9066 0
M  V30 5262 C 476.074 -0.721521 1.77927 0
M  V30 5263 O 477.275 -1.12849 2.43964 0
M  V30 5264 C 475.546 1.17755 3.37444 0
M  V30 5265 S 477.105 1.00783 4.27069 0
M  V30 5266 H 473.923 0.268174 0.658486 0
M  V30 5267 H 476.525 1.32076 1.4414 0
M  V30 5268 H 475.229 2.23448 3.44237 0
M  V30 5269 H 474.76 0.586912 3.88997 0
M  V30 5270 H 476.775 -0.0806356 4.96134 0
M  V30 5271 N 475.948 -1.35272 0.808662 0
M  V30 5272 C 477.173 -2.03477 0.401475 0
M  V30 5273 C 477.598 -1.60537 -0.980279 0
M  V30 5274 O 476.956 -0.78304 -1.63518 0
M  V30 5275 C 477.004 -3.57181 0.495354 0
M  V30 5276 O 476.108 -4.09474 -0.490397 0
M  V30 5277 H 475.449 -0.642561 0.167366 0
M  V30 5278 H 477.979 -1.72824 1.09512 0
M  V30 5279 H 477.989 -4.06356 0.365912 0
M  V30 5280 H 476.664 -3.87784 1.5032 0
M  V30 5281 H 475.241 -3.71516 -0.321023 0
M  V30 5282 N 477.426 -0.562348 -1.47226 0
M  V30 5283 C 478.675 -0.038041 -2.01664 0
M  V30 5284 C 478.988 1.32199 -1.44162 0
M  V30 5285 O 480.194 1.9365 -1.90294 0
M  V30 5286 C 478.65 -0.0174958 -3.59896 0
M  V30 5287 C 478.258 -1.3746 -4.2639 0
M  V30 5288 C 480.002 0.453934 -4.22066 0
M  V30 5289 C 477.909 -1.31289 -5.76643 0
M  V30 5290 H 476.839 -0.0104511 -0.753928 0
M  V30 5291 H 479.49 -0.710966 -1.69167 0
M  V30 5292 H 477.872 0.721182 -3.89378 0
M  V30 5293 H 479.046 -2.1314 -4.08544 0
M  V30 5294 H 477.361 -1.78438 -3.7623 0
M  V30 5295 H 479.958 0.518584 -5.32179 0
M  V30 5296 H 480.301 1.46706 -3.89594 0
M  V30 5297 H 480.834 -0.230044 -3.97134 0
M  V30 5298 H 477.573 -2.30217 -6.13743 0
M  V30 5299 H 477.093 -0.597973 -5.96812 0
M  V30 5300 H 478.772 -1.01713 -6.38955 0
M  V30 5301 N 478.904 1.54736 -0.299062 0
M  V30 5302 C 479.836 2.20891 0.61153 0
M  V30 5303 C 480.849 1.20104 1.09904 0
M  V30 5304 O 482.038 1.46707 1.01683 0
M  V30 5305 C 479.138 2.84018 1.84897 0
M  V30 5306 C 478.311 4.10719 1.50428 0
M  V30 5307 C 477.37 4.57667 2.59667 0
M  V30 5308 O 476.396 5.2291 2.24842 0
M  V30 5309 N 477.598 4.29821 3.90172 0
M  V30 5310 H 480.363 2.99666 0.0452001 0
M  V30 5311 H 477.924 1.61446 -0.121178 0
M  V30 5312 H 479.916 3.1236 2.5732 0
M  V30 5313 H 478.486 2.09095 2.32375 0
M  V30 5314 H 477.706 3.89408 0.612781 0
M  V30 5315 H 478.994 4.93223 1.24934 0
M  V30 5316 H 478.392 3.77549 4.21276 0
M  V30 5317 H 476.949 4.62877 4.58899 0
M  V30 5318 N 480.382 0.0267497 1.57577 0
M  V30 5319 C 481.612 -0.6617 1.95717 0
M  V30 5320 C 482.02 -1.66331 0.901706 0
M  V30 5321 O 481.363 -1.83273 -0.125241 0
M  V30 5322 C 481.425 -1.42649 3.29987 0
M  V30 5323 C 481.089 -0.583482 4.5326 0
M  V30 5324 C 482.086 0.140221 5.19711 0
M  V30 5325 C 479.771 -0.521581 4.99585 0
M  V30 5326 C 481.765 0.914523 6.30805 0
M  V30 5327 C 479.452 0.256428 6.10562 0
M  V30 5328 C 480.45 0.973189 6.76031 0
M  V30 5329 O 480.138 1.73845 7.84878 0
M  V30 5330 H 479.87 -0.187483 0.649481 0
M  V30 5331 H 482.424 0.0820847 2.05236 0
M  V30 5332 H 480.654 -2.21536 3.16952 0
M  V30 5333 H 482.343 -2.00282 3.53047 0
M  V30 5334 H 483.109 0.101716 4.84893 0
M  V30 5335 H 478.988 -1.06904 4.48433 0
M  V30 5336 H 482.532 1.4745 6.81839 0
M  V30 5337 H 478.429 0.296657 6.44818 0
M  V30 5338 H 479.197 1.65797 8.01532 0
M  V30 5339 N 481.861 -1.55662 -0.24637 0
M  V30 5340 C 482.771 -1.93495 -1.32653 0
M  V30 5341 C 483.787 -0.835462 -1.5263 0
M  V30 5342 O 484.963 -1.1369 -1.66242 0
M  V30 5343 C 482.028 -2.22242 -2.66101 0
M  V30 5344 C 481.089 -3.45625 -2.54641 0
M  V30 5345 C 480.322 -3.72991 -3.81724 0
M  V30 5346 O 480.545 -3.02421 -4.8363 0
M  V30 5347 O 479.479 -4.66515 -3.80325 0
M  V30 5348 H 483.305 -2.85498 -1.03559 0
M  V30 5349 H 480.89 -1.42551 -0.44717 0
M  V30 5350 H 482.772 -2.42037 -3.44958 0
M  V30 5351 H 481.447 -1.33417 -2.94926 0
M  V30 5352 H 480.354 -3.31136 -1.74067 0
M  V30 5353 H 481.687 -4.34754 -2.3076 0
M  V30 5354 N 483.339 0.512053 -1.4905 0
M  V30 5355 C 484.579 1.27715 -1.59588 0
M  V30 5356 C 484.943 1.90071 -0.271502 0
M  V30 5357 O 486.144 2.67616 -0.251987 0
M  V30 5358 C 484.415 2.32399 -2.71524 0
M  V30 5359 S 485.974 3.18396 -3.01943 0
M  V30 5360 H 482.792 0.43419 -0.563027 0
M  V30 5361 H 485.394 0.581315 -1.86657 0
M  V30 5362 H 484.098 1.85101 -3.66287 0
M  V30 5363 H 483.629 3.06667 -2.46412 0
M  V30 5364 H 485.644 4.32842 -2.42616 0
M  V30 5365 N 484.817 1.37938 0.762283 0
M  V30 5366 C 485.764 1.34467 1.87583 0
M  V30 5367 C 486.734 0.208633 1.64785 0
M  V30 5368 O 487.919 0.399494 1.86571 0
M  V30 5369 C 485.059 1.16692 3.24772 0
M  V30 5370 C 484.172 2.39608 3.59461 0
M  V30 5371 C 483.307 2.14631 4.85908 0
M  V30 5372 C 482.346 3.33364 5.13357 0
M  V30 5373 N 481.483 3.07877 6.30996 0
M  V30 5374 H 486.323 2.29669 1.89885 0
M  V30 5375 H 483.86 1.14116 0.928219 0
M  V30 5376 H 485.818 1.04405 4.03925 0
M  V30 5377 H 484.448 0.251333 3.2182 0
M  V30 5378 H 483.5 2.626 2.75219 0
M  V30 5379 H 484.812 3.28128 3.75678 0
M  V30 5380 H 483.966 1.99429 5.72986 0
M  V30 5381 H 482.705 1.23463 4.71814 0
M  V30 5382 H 481.71 3.49094 4.24751 0
M  V30 5383 H 482.935 4.25395 5.29354 0
M  V30 5384 H 480.881 2.19348 6.18241 0
M  V30 5385 H 480.798 3.89944 6.47673 0
M  V30 5386 H 482.066 2.96313 7.20985 0
M  V30 5387 N 486.295 -0.989507 1.22664 0
M  V30 5388 C 487.245 -2.06478 0.967005 0
M  V30 5389 C 488.229 -1.60682 -0.0836374 0
M  V30 5390 O 489.421 -1.76541 0.127322 0
M  V30 5391 C 486.55 -3.38861 0.550313 0
M  V30 5392 C 485.636 -3.9128 1.63587 0
M  V30 5393 N 486.027 -4.16884 2.86429 0
M  V30 5394 C 484.325 -4.1972 1.50834 0
M  V30 5395 C 485.026 -4.5954 3.56648 0
M  V30 5396 N 484.002 -4.63434 2.84131 0
M  V30 5397 H 487.804 -2.24219 1.90008 0
M  V30 5398 H 485.318 -1.17153 1.12467 0
M  V30 5399 H 487.315 -4.15465 0.345612 0
M  V30 5400 H 485.975 -3.22518 -0.375822 0
M  V30 5401 H 486.986 -4.04976 3.22823 0
M  V30 5402 H 483.663 -4.1243 0.648643 0
M  V30 5403 H 485.053 -4.87944 4.61909 0
M  V30 5404 N 487.773 -1.03688 -1.18687 0
M  V30 5405 C 489.001 -0.757918 -1.92518 0
M  V30 5406 C 489.416 0.684398 -1.75959 0
M  V30 5407 O 488.773 1.46617 -1.08673 0
M  V30 5408 C 488.824 -1.10985 -3.44042 0
M  V30 5409 O 488.545 -2.49554 -3.60076 0
M  V30 5410 C 490.046 -0.854844 -4.3498 0
M  V30 5411 H 487.266 -0.276699 -0.611293 0
M  V30 5412 H 489.81 -1.38352 -1.50595 0
M  V30 5413 H 487.965 -0.529279 -3.83767 0
M  V30 5414 H 488.379 -2.6291 -4.53849 0
M  V30 5415 H 489.853 -1.15098 -5.39867 0
M  V30 5416 H 490.33 0.210507 -4.38695 0
M  V30 5417 H 490.936 -1.41853 -4.00946 0
M  V30 5418 N 489.251 1.34841 -0.815825 0
M  V30 5419 C 490.198 2.29644 -0.230664 0
M  V30 5420 C 491.168 1.53253 0.640533 0
M  V30 5421 O 492.353 1.81653 0.583672 0
M  V30 5422 C 489.493 3.39715 0.607275 0
M  V30 5423 C 488.606 4.31056 -0.28538 0
M  V30 5424 C 487.741 5.28225 0.561446 0
M  V30 5425 C 486.78 6.11204 -0.331035 0
M  V30 5426 N 485.917 7.00483 0.476302 0
M  V30 5427 H 490.757 2.79095 -1.0445 0
M  V30 5428 H 488.294 1.37351 -0.526595 0
M  V30 5429 H 490.252 4.02208 1.10835 0
M  V30 5430 H 488.882 2.91517 1.38629 0
M  V30 5431 H 487.934 3.69487 -0.904621 0
M  V30 5432 H 489.246 4.89239 -0.97193 0
M  V30 5433 H 488.4 5.96135 1.12728 0
M  V30 5434 H 487.139 4.70562 1.28153 0
M  V30 5435 H 486.144 5.42232 -0.909069 0
M  V30 5436 H 487.369 6.70947 -1.04912 0
M  V30 5437 H 485.315 6.45296 1.18019 0
M  V30 5438 H 485.232 7.55847 -0.152008 0
M  V30 5439 H 486.5 7.7273 1.02512 0
M  V30 5440 N 490.729 0.570148 1.46925 0
M  V30 5441 C 491.978 0.0487352 2.01641 0
M  V30 5442 C 492.291 -1.31433 1.44861 0
M  V30 5443 O 493.497 -1.92638 1.91318 0
M  V30 5444 C 491.953 0.0365817 3.59881 0
M  V30 5445 C 491.561 1.39719 4.25655 0
M  V30 5446 C 493.305 -0.431545 4.22301 0
M  V30 5447 C 491.212 1.34345 5.75939 0
M  V30 5448 H 490.142 0.0144492 0.753862 0
M  V30 5449 H 492.793 0.719928 1.68788 0
M  V30 5450 H 491.175 -0.700522 3.89755 0
M  V30 5451 H 492.349 2.15303 4.07408 0
M  V30 5452 H 490.664 1.80431 3.75278 0
M  V30 5453 H 493.261 -0.490354 5.32447 0
M  V30 5454 H 493.604 -1.44638 3.90366 0
M  V30 5455 H 494.137 0.251102 3.97007 0
M  V30 5456 H 490.876 2.33469 6.12513 0
M  V30 5457 H 490.396 0.629615 5.96486 0
M  V30 5458 H 492.075 1.051 6.38407 0
M  V30 5459 N 492.207 -1.54576 0.307264 0
M  V30 5460 C 493.155 -2.25208 -0.581723 0
M  V30 5461 C 494.149 -1.26031 -1.13192 0
M  V30 5462 O 495.355 -1.43862 -1.08184 0
M  V30 5463 H 491.73 -0.723173 -0.206214 0
M  V30 5464 H 493.701 -2.98378 0.0364663 0
M  V30 5465 C 492.45 -3.01086 -1.73904 0
M  V30 5466 H 491.773 -3.77208 -1.32491 0
M  V30 5467 H 493.213 -3.5378 -2.33701 0
M  V30 5468 C 491.672 -2.08422 -2.64692 0
M  V30 5469 O 492.202 -1.65636 -3.65961 0
M  V30 5470 N 490.408 -1.74247 -2.32564 0
M  V30 5471 H 489.955 -2.09238 -1.50257 0
M  V30 5472 H 489.913 -1.12524 -2.93574 0
M  V30 5473 N 493.685 -0.035106 -1.57561 0
M  V30 5474 C 495.096 0.502885 -1.798 0
M  V30 5475 C 495.447 1.71892 -0.945921 0
M  V30 5476 O 494.572 2.15822 -0.157991 0
M  V30 5477 C 495.167 0.919097 -3.26095 0
M  V30 5478 C 493.726 1.40216 -3.49308 0
M  V30 5479 C 492.873 0.369709 -2.74824 0
M  V30 5480 H 495.824 -0.261102 -1.56537 0
M  V30 5481 H 495.845 1.78308 -3.36135 0
M  V30 5482 H 495.357 0.0338526 -3.88085 0
M  V30 5483 H 493.458 2.30714 -2.92578 0
M  V30 5484 H 493.571 1.40541 -4.58023 0
M  V30 5485 H 491.935 0.839113 -2.40481 0
M  V30 5486 H 492.718 -0.507173 -3.39533 0
M  V30 5487 N 495.163 1.55791 0.238111 0
M  V30 5488 C 496.44 1.68798 0.98826 0
M  V30 5489 C 496.82 0.577562 2.03045 0
M  V30 5490 O 496.168 -0.41778 2.24648 0
M  V30 5491 C 496.378 3.09454 1.61367 0
M  V30 5492 C 497.726 3.68335 2.11221 0
M  V30 5493 O 498.75 3.1231 1.71292 0
M  V30 5494 O 497.609 4.6657 2.84561 0
M  V30 5495 H 494.703 0.686881 0.460568 0
M  V30 5496 H 497.249 1.68118 0.231202 0
M  V30 5497 H 496.021 3.81726 0.860295 0
M  V30 5498 H 495.644 3.14182 2.4367 0
M  V30 5499 N 496.642 -0.504142 1.49319 0
M  V30 5500 C 497.872 -1.28071 1.62116 0
M  V30 5501 C 498.28 -1.86955 0.290566 0
M  V30 5502 O 497.623 -1.68415 -0.733616 0
M  V30 5503 C 497.685 -2.4521 2.62893 0
M  V30 5504 C 497.349 -2.07218 4.0732 0
M  V30 5505 C 498.346 -1.61375 4.94221 0
M  V30 5506 C 496.031 -2.16949 4.53033 0
M  V30 5507 C 498.025 -1.25763 6.2487 0
M  V30 5508 C 495.712 -1.80949 5.83696 0
M  V30 5509 C 496.71 -1.3543 6.69438 0
M  V30 5510 O 496.398 -0.99915 7.97667 0
M  V30 5511 H 496.13 -0.394763 0.54876 0
M  V30 5512 H 498.684 -0.612118 1.96067 0
M  V30 5513 H 496.914 -3.15134 2.24115 0
M  V30 5514 H 498.603 -3.0724 2.65252 0
M  V30 5515 H 499.369 -1.53306 4.60133 0
M  V30 5516 H 495.248 -2.5133 3.86463 0
M  V30 5517 H 498.792 -0.901631 6.91749 0
M  V30 5518 H 494.689 -1.88667 6.17313 0
M  V30 5519 H 495.457 -1.13089 8.1065 0
M  V30 5520 N 498.12 -1.38341 -0.754957 0
M  V30 5521 C 499.068 -1.35573 -1.89005 0
M  V30 5522 C 500.062 -0.241824 -1.67665 0
M  V30 5523 O 501.268 -0.410785 -1.7525 0
M  V30 5524 H 497.643 -0.422898 -0.621821 0
M  V30 5525 H 499.614 -2.31359 -1.88455 0
M  V30 5526 C 498.363 -1.19631 -3.26471 0
M  V30 5527 H 497.686 -2.04605 -3.43477 0
M  V30 5528 H 499.126 -1.21748 -4.06144 0
M  V30 5529 C 497.585 0.0968705 -3.36761 0
M  V30 5530 O 498.115 1.07439 -3.87066 0
M  V30 5531 N 496.321 0.153242 -2.90196 0
M  V30 5532 H 495.868 -0.642908 -2.49448 0
M  V30 5533 H 495.826 1.01807 -2.9746 0
M  V30 5534 N 499.598 0.982988 -1.23187 0
M  V30 5535 C 500.828 1.75666 -1.08743 0
M  V30 5536 C 501.236 1.85662 0.364195 0
M  V30 5537 O 500.579 1.33317 1.26382 0
M  V30 5538 C 500.641 3.20144 -1.63549 0
M  V30 5539 C 500.305 3.33665 -3.12277 0
M  V30 5540 C 501.302 3.20194 -4.096 0
M  V30 5541 C 498.987 3.58397 -3.51933 0
M  V30 5542 C 500.981 3.31256 -5.44563 0
M  V30 5543 C 498.668 3.69098 -4.87042 0
M  V30 5544 C 499.666 3.55537 -5.83166 0
M  V30 5545 O 499.354 3.65864 -7.1582 0
M  V30 5546 H 499.086 0.558194 -0.381307 0
M  V30 5547 H 501.64 1.24387 -1.63454 0
M  V30 5548 H 499.87 3.72659 -1.03256 0
M  V30 5549 H 501.559 3.79262 -1.4462 0
M  V30 5550 H 502.325 3.00987 -3.80305 0
M  V30 5551 H 498.204 3.68025 -2.77631 0
M  V30 5552 H 501.748 3.20588 -6.19572 0
M  V30 5553 H 497.645 3.87814 -5.16014 0
M  V30 5554 H 498.413 3.82675 -7.23534 0
M  V30 5555 N 501.076 1.04316 1.18135 0
M  V30 5556 C 502.304 0.768117 1.92113 0
M  V30 5557 C 502.719 -0.675057 1.76319 0
M  V30 5558 O 502.076 -1.46038 1.09449 0
M  V30 5559 C 502.127 1.12808 3.43448 0
M  V30 5560 O 501.848 2.5146 3.58747 0
M  V30 5561 C 503.349 0.8779 4.3452 0
M  V30 5562 H 500.569 0.279937 0.609817 0
M  V30 5563 H 503.113 1.39149 1.49859 0
M  V30 5564 H 501.268 0.549623 3.83481 0
M  V30 5565 H 501.682 2.65313 4.52448 0
M  V30 5566 H 503.156 1.17959 5.39249 0
M  V30 5567 H 503.633 -0.187239 4.38801 0
M  V30 5568 H 504.239 1.43977 4.00188 0
M  V30 5569 N 502.554 -1.34406 0.822964 0
M  V30 5570 C 503.502 -2.31428 0.233165 0
M  V30 5571 C 504.496 -1.57404 -0.626118 0
M  V30 5572 O 505.702 -1.72402 -0.517453 0
M  V30 5573 H 502.077 -0.749863 0.0566557 0
M  V30 5574 H 504.048 -2.78699 1.06628 0
M  V30 5575 C 502.797 -3.42653 -0.590264 0
M  V30 5576 H 502.12 -3.99753 0.0616129 0
M  V30 5577 H 503.56 -4.12778 -0.969054 0
M  V30 5578 C 502.019 -2.87112 -1.76262 0
M  V30 5579 O 502.549 -2.81995 -2.8608 0
M  V30 5580 N 500.755 -2.43934 -1.57938 0
M  V30 5581 H 500.302 -2.48296 -0.686078 0
M  V30 5582 H 500.26 -2.07123 -2.36532 0
M  V30 5583 N 504.032 -0.577932 -1.46621 0
M  V30 5584 C 505.279 -0.0616879 -2.02406 0
M  V30 5585 C 505.607 1.29638 -1.44997 0
M  V30 5586 O 504.862 1.86176 -0.60308 0
M  V30 5587 C 505.161 0.0590832 -3.57351 0
M  V30 5588 C 504.827 -1.23077 -4.33777 0
M  V30 5589 C 503.489 -1.58416 -4.54376 0
M  V30 5590 C 505.841 -2.08457 -4.77698 0
M  V30 5591 C 503.169 -2.78943 -5.16147 0
M  V30 5592 C 505.521 -3.28204 -5.408 0
M  V30 5593 C 504.185 -3.63832 -5.59627 0
M  V30 5594 H 503.455 -0.0225732 -0.740656 0
M  V30 5595 H 506.102 -0.753609 -1.76048 0
M  V30 5596 H 504.407 0.834104 -3.82818 0
M  V30 5597 H 506.104 0.474202 -3.98186 0
M  V30 5598 H 502.694 -0.945652 -4.18038 0
M  V30 5599 H 506.878 -1.82459 -4.61544 0
M  V30 5600 H 502.134 -3.06689 -5.28916 0
M  V30 5601 H 506.308 -3.94634 -5.73792 0
M  V30 5602 H 503.935 -4.57315 -6.07262 0
M  V30 5603 N 505.51 1.54411 -0.315457 0
M  V30 5604 C 506.787 1.92562 0.343398 0
M  V30 5605 C 507.167 1.24423 1.70535 0
M  V30 5606 O 506.515 0.385051 2.25232 0
M  V30 5607 C 506.725 3.46168 0.443687 0
M  V30 5608 C 508.073 4.18659 0.707783 0
M  V30 5609 O 509.097 3.52281 0.52693 0
M  V30 5610 O 507.956 5.36198 1.05612 0
M  V30 5611 H 505.05 0.80379 0.194552 0
M  V30 5612 H 507.596 1.65738 -0.364577 0
M  V30 5613 H 506.368 3.8792 -0.513172 0
M  V30 5614 H 505.991 3.79073 1.19956 0
M  V30 5615 N 506.988 0.0434614 1.5754 0
M  V30 5616 C 507.936 -0.951465 2.1225 0
M  V30 5617 C 508.93 -1.3274 1.05245 0
M  V30 5618 O 510.136 -1.30795 1.23663 0
M  V30 5619 H 506.511 -0.324667 0.678303 0
M  V30 5620 H 508.482 -0.464855 2.94757 0
M  V30 5621 C 507.231 -2.21972 2.67626 0
M  V30 5622 H 506.554 -1.93923 3.4962 0
M  V30 5623 H 507.994 -2.89765 3.09536 0
M  V30 5624 C 506.453 -2.95919 1.61038 0
M  V30 5625 O 506.983 -3.8857 1.01862 0
M  V30 5626 N 505.189 -2.58511 1.32741 0
M  V30 5627 H 504.736 -1.83244 1.81051 0
M  V30 5628 H 504.694 -3.08296 0.616531 0
M  V30 5629 N 508.466 -1.55915 -0.229846 0
M  V30 5630 C 509.713 -1.78542 -0.955452 0
M  V30 5631 C 510.041 -0.610785 -1.84661 0
M  V30 5632 O 509.296 0.405213 -1.91459 0
M  V30 5633 C 509.595 -3.06845 -1.8325 0
M  V30 5634 C 509.261 -4.37395 -1.09528 0
M  V30 5635 C 507.923 -4.72868 -0.891598 0
M  V30 5636 C 510.275 -5.18029 -0.574046 0
M  V30 5637 C 507.603 -5.86496 -0.154655 0
M  V30 5638 C 509.955 -6.32423 0.149513 0
M  V30 5639 C 508.619 -6.66504 0.364519 0
M  V30 5640 H 507.889 -0.653333 -0.349625 0
M  V30 5641 H 510.536 -1.90183 -0.224235 0
M  V30 5642 H 508.841 -2.90291 -2.63132 0
M  V30 5643 H 510.538 -3.21553 -2.39592 0
M  V30 5644 H 507.128 -4.09538 -1.26399 0
M  V30 5645 H 511.312 -4.91066 -0.718899 0
M  V30 5646 H 506.568 -6.11396 0.0222356 0
M  V30 5647 H 510.742 -6.94137 0.560947 0
M  V30 5648 H 508.369 -7.54397 0.937495 0
M  V30 5649 N 509.944 0.496216 -1.49584 0
M  V30 5650 C 511.192 1.24756 -1.58998 0
M  V30 5651 C 511.513 1.92968 -0.280775 0
M  V30 5652 O 510.783 1.82959 0.700198 0
M  V30 5653 H 509.363 0.463471 -0.585836 0
M  V30 5654 H 512.025 0.574678 -1.86235 0
M  V30 5655 H 511.121 2.00895 -2.38847 0
M  V30 5656 N 511.423 1.38739 0.74761 0
M  V30 5657 C 512.669 1.3648 1.50814 0
M  V30 5658 C 513.024 -0.0431982 1.92351 0
M  V30 5659 O 512.317 -1.0071 1.62997 0
M  V30 5660 C 512.511 2.25992 2.7688 0
M  V30 5661 C 512.34 3.75354 2.47668 0
M  V30 5662 C 511.11 4.44348 2.40589 0
M  V30 5663 C 513.308 4.67642 2.14046 0
M  V30 5664 N 511.29 5.79114 2.03715 0
M  V30 5665 C 512.661 5.90965 1.87512 0
M  V30 5666 C 514.716 4.55787 2.00407 0
M  V30 5667 C 513.419 7.03759 1.48714 0
M  V30 5668 C 515.445 5.68491 1.63011 0
M  V30 5669 C 514.807 6.90879 1.37353 0
M  V30 5670 H 510.906 0.554695 0.551214 0
M  V30 5671 H 513.49 1.7418 0.870033 0
M  V30 5672 H 511.661 1.9047 3.3849 0
M  V30 5673 H 513.393 2.14815 3.42982 0
M  V30 5674 H 510.148 3.97634 2.57262 0
M  V30 5675 H 510.572 6.504 1.87906 0
M  V30 5676 H 515.214 3.61712 2.18916 0
M  V30 5677 H 512.932 7.97746 1.28945 0
M  V30 5678 H 516.518 5.613 1.53081 0
M  V30 5679 H 515.398 7.76609 1.08848 0
M  V30 5680 N 512.901 -0.976442 1.23707 0
M  V30 5681 C 514.126 -1.75875 1.09922 0
M  V30 5682 C 514.551 -1.84911 -0.34489 0
M  V30 5683 O 513.909 -1.31363 -1.24954 0
M  V30 5684 C 513.957 -3.16179 1.73388 0
M  V30 5685 O 513.061 -4.00124 0.99871 0
M  V30 5686 H 512.402 -0.540954 0.385052 0
M  V30 5687 H 514.932 -1.22546 1.6384 0
M  V30 5688 H 514.942 -3.66741 1.78788 0
M  V30 5689 H 513.617 -3.08917 2.78466 0
M  V30 5690 H 512.194 -3.58624 1.02193 0
M  V30 5691 N 514.379 -1.04941 -1.1758 0
M  V30 5692 C 515.626 -0.757989 -1.87779 0
M  V30 5693 C 515.954 0.714827 -1.80888 0
M  V30 5694 O 515.209 1.53824 -1.20982 0
M  V30 5695 C 515.508 -1.18062 -3.37337 0
M  V30 5696 C 515.174 -2.65521 -3.6443 0
M  V30 5697 C 513.836 -3.05804 -3.71534 0
M  V30 5698 C 516.188 -3.60822 -3.76108 0
M  V30 5699 C 513.516 -4.40256 -3.87803 0
M  V30 5700 C 515.868 -4.95005 -3.93895 0
M  V30 5701 C 514.532 -5.34945 -3.99237 0
M  V30 5702 H 513.802 -0.277368 -0.68713 0
M  V30 5703 H 516.449 -1.31603 -1.39115 0
M  V30 5704 H 514.754 -0.541525 -3.8804 0
M  V30 5705 H 516.451 -0.932368 -3.9001 0
M  V30 5706 H 513.041 -2.33324 -3.59524 0
M  V30 5707 H 517.225 -3.30841 -3.69943 0
M  V30 5708 H 512.481 -4.70707 -3.90186 0
M  V30 5709 H 516.655 -5.68746 -4.01872 0
M  V30 5710 H 514.282 -6.39135 -4.11596 0
M  V30 5711 N 515.857 1.33968 -0.830081 0
M  V30 5712 C 516.787 2.31911 -0.271911 0
M  V30 5713 C 517.768 1.58571 0.61556 0
M  V30 5714 O 518.953 1.86514 0.540946 0
M  V30 5715 C 516.083 3.42737 0.561146 0
M  V30 5716 C 515.037 4.27383 -0.229789 0
M  V30 5717 C 514.363 5.29742 0.726463 0
M  V30 5718 C 515.663 5.02 -1.44197 0
M  V30 5719 H 517.357 2.78844 -1.09025 0
M  V30 5720 H 514.903 1.34061 -0.52571 0
M  V30 5721 H 516.856 4.10276 0.961867 0
M  V30 5722 H 515.58 2.94471 1.41261 0
M  V30 5723 H 514.239 3.61456 -0.611964 0
M  V30 5724 H 513.887 4.77736 1.57408 0
M  V30 5725 H 513.587 5.87255 0.20142 0
M  V30 5726 H 515.111 6.00149 1.12489 0
M  V30 5727 H 516.525 5.62355 -1.11488 0
M  V30 5728 H 514.922 5.69122 -1.90317 0
M  V30 5729 H 515.992 4.31281 -2.2164 0
M  V30 5730 N 517.335 0.585699 1.46312 0
M  V30 5731 C 518.298 -0.135673 2.28798 0
M  V30 5732 C 519.298 -0.815988 1.38558 0
M  V30 5733 O 520.488 -0.667487 1.60904 0
M  V30 5734 C 517.62 -1.20163 3.1902 0
M  V30 5735 H 518.813 0.589257 2.94054 0
M  V30 5736 H 516.366 0.343794 1.52472 0
M  V30 5737 H 517.101 -1.95804 2.58517 0
M  V30 5738 H 516.886 -0.718282 3.85465 0
M  V30 5739 H 518.376 -1.70749 3.81096 0
M  V30 5740 N 518.813 -1.54241 0.323641 0
M  V30 5741 C 519.746 -2.20579 -0.584833 0
M  V30 5742 C 520.724 -1.18286 -1.11567 0
M  V30 5743 O 521.908 -1.47025 -1.17966 0
M  V30 5744 C 519.035 -2.86754 -1.80249 0
M  V30 5745 C 518.081 -4.02767 -1.4029 0
M  V30 5746 S 518.914 -5.33693 -0.439539 0
M  V30 5747 C 520.07 -6.03362 -1.66448 0
M  V30 5748 H 520.303 -2.97292 -0.0213238 0
M  V30 5749 H 517.836 -1.54024 0.107726 0
M  V30 5750 H 519.794 -3.25503 -2.50116 0
M  V30 5751 H 518.455 -2.09844 -2.33719 0
M  V30 5752 H 517.648 -4.47933 -2.31024 0
M  V30 5753 H 517.25 -3.65692 -0.783928 0
M  V30 5754 H 519.542 -6.25546 -2.6019 0
M  V30 5755 H 520.485 -6.9689 -1.25498 0
M  V30 5756 H 520.893 -5.33273 -1.85149 0
M  V30 5757 N 520.291 -0.0518155 -1.57515 0
M  V30 5758 C 521.538 0.621823 -1.92716 0
M  V30 5759 C 521.866 1.70813 -0.930229 0
M  V30 5760 O 521.121 1.95616 0.0573708 0
M  V30 5761 C 521.42 1.25607 -3.34601 0
M  V30 5762 C 521.086 0.297901 -4.49915 0
M  V30 5763 C 519.748 0.034243 -4.81188 0
M  V30 5764 C 522.1 -0.358738 -5.19964 0
M  V30 5765 C 519.428 -0.893479 -5.79857 0
M  V30 5766 C 521.78 -1.27466 -6.19625 0
M  V30 5767 C 520.444 -1.54698 -6.49326 0
M  V30 5768 H 519.714 0.227541 -0.705199 0
M  V30 5769 H 522.361 -0.118432 -1.91133 0
M  V30 5770 H 520.666 2.07161 -3.32553 0
M  V30 5771 H 522.363 1.78424 -3.59118 0
M  V30 5772 H 518.953 0.513581 -4.25512 0
M  V30 5773 H 523.137 -0.168133 -4.96015 0
M  V30 5774 H 518.393 -1.11193 -6.01204 0
M  V30 5775 H 522.567 -1.78953 -6.73015 0
M  V30 5776 H 520.194 -2.26748 -7.25596 0
M  V30 5777 N 521.769 1.56035 0.221574 0
M  V30 5778 C 523.185 1.49026 0.571271 0
M  V30 5779 C 523.385 0.746912 1.87146 0
M  V30 5780 O 522.441 0.286566 2.50869 0
M  V30 5781 C 523.754 2.93579 0.650522 0
M  V30 5782 C 525.302 3.04099 0.741151 0
M  V30 5783 C 525.777 4.5001 0.851747 0
M  V30 5784 N 527.268 4.54053 0.915968 0
M  V30 5785 C 528.003 5.64232 1.02125 0
M  V30 5786 N 527.499 6.84164 1.09049 0
M  V30 5787 N 529.292 5.52084 1.05639 0
M  V30 5788 H 521.443 2.02791 -0.63162 0
M  V30 5789 H 523.706 0.921736 -0.221602 0
M  V30 5790 H 523.412 3.50912 -0.235253 0
M  V30 5791 H 523.286 3.45476 1.51413 0
M  V30 5792 H 525.673 2.4683 1.61737 0
M  V30 5793 H 525.754 2.55371 -0.148128 0
M  V30 5794 H 525.398 5.07896 -0.0200117 0
M  V30 5795 H 525.328 4.96444 1.75644 0
M  V30 5796 H 527.819 3.67683 0.872782 0
M  V30 5797 H 528.132 7.63883 1.1706 0
M  V30 5798 H 526.477 6.86875 1.05962 0
M  V30 5799 H 529.668 4.57317 0.998953 0
M  V30 5800 H 529.841 6.37983 1.13498 0
M  V30 5801 N 523.247 -0.488276 1.49845 0
M  V30 5802 C 524.177 -1.59675 1.70371 0
M  V30 5803 C 525.158 -1.60878 0.552473 0
M  V30 5804 O 526.343 -1.77417 0.78973 0
M  V30 5805 C 523.473 -2.98098 1.782 0
M  V30 5806 C 522.427 -3.11761 2.93239 0
M  V30 5807 C 521.753 -4.51661 2.86193 0
M  V30 5808 C 523.053 -2.90589 4.33999 0
M  V30 5809 H 524.747 -1.42752 2.63177 0
M  V30 5810 H 522.293 -0.685317 1.26647 0
M  V30 5811 H 524.246 -3.75555 1.91144 0
M  V30 5812 H 522.97 -3.16138 0.820018 0
M  V30 5813 H 521.629 -2.36732 2.79917 0
M  V30 5814 H 521.277 -4.66595 1.87877 0
M  V30 5815 H 520.977 -4.61742 3.63412 0
M  V30 5816 H 522.501 -5.31162 3.01163 0
M  V30 5817 H 523.915 -3.57807 4.47936 0
M  V30 5818 H 522.312 -3.1213 5.12538 0
M  V30 5819 H 523.382 -1.86595 4.4756 0
M  V30 5820 N 524.725 -1.39134 -0.740242 0
M  V30 5821 C 525.658 -1.3182 -1.86276 0
M  V30 5822 C 526.636 -0.192794 -1.61453 0
M  V30 5823 O 527.82 -0.372365 -1.84786 0
M  V30 5824 C 524.947 -1.04564 -3.22155 0
M  V30 5825 C 523.993 -2.19224 -3.65846 0
M  V30 5826 S 524.826 -3.81466 -3.75824 0
M  V30 5827 C 525.982 -3.56425 -5.14502 0
M  V30 5828 H 526.215 -2.26822 -1.92195 0
M  V30 5829 H 523.748 -1.25127 -0.904576 0
M  V30 5830 H 525.706 -0.895228 -4.00619 0
M  V30 5831 H 524.367 -0.112578 -3.13898 0
M  V30 5832 H 523.56 -1.95732 -4.6444 0
M  V30 5833 H 523.162 -2.30441 -2.94572 0
M  V30 5834 H 525.454 -3.13366 -6.00673 0
M  V30 5835 H 526.397 -4.54462 -5.43019 0
M  V30 5836 H 526.805 -2.90641 -4.8393 0
M  V30 5837 N 526.204 0.969867 -1.24223 0
M  V30 5838 C 527.432 1.74756 -1.10761 0
M  V30 5839 C 527.847 1.85713 0.340041 0
M  V30 5840 O 527.204 1.34389 1.23474 0
M  V30 5841 C 527.255 3.16915 -1.73917 0
M  V30 5842 O 526.976 3.06511 -3.13021 0
M  V30 5843 C 528.477 4.11032 -1.66036 0
M  V30 5844 H 525.697 0.548092 -0.387087 0
M  V30 5845 H 528.241 1.2178 -1.64286 0
M  V30 5846 H 526.396 3.66884 -1.244 0
M  V30 5847 H 526.81 3.96079 -3.43834 0
M  V30 5848 H 528.284 5.08446 -2.14911 0
M  V30 5849 H 528.761 4.34785 -0.621159 0
M  V30 5850 H 529.367 3.66972 -2.14969 0
M  V30 5851 N 527.682 1.05563 1.17022 0
M  V30 5852 C 528.614 0.617888 2.20714 0
M  V30 5853 C 529.627 -0.320303 1.59618 0
M  V30 5854 O 530.816 -0.112449 1.78145 0
M  V30 5855 C 527.916 -0.115333 3.38704 0
M  V30 5856 C 527.089 0.834493 4.29366 0
M  V30 5857 C 526.148 0.141855 5.26009 0
M  V30 5858 O 525.174 0.777151 5.6387 0
M  V30 5859 N 526.376 -1.11934 5.69606 0
M  V30 5860 H 529.141 1.50981 2.58892 0
M  V30 5861 H 526.702 0.938008 1.31958 0
M  V30 5862 H 528.694 -0.588918 4.00392 0
M  V30 5863 H 527.264 -0.908967 2.99093 0
M  V30 5864 H 526.484 1.48762 3.65053 0
M  V30 5865 H 527.772 1.4791 4.86827 0
M  V30 5866 H 527.17 -1.65574 5.40927 0
M  V30 5867 H 525.727 -1.53692 6.33421 0
M  V30 5868 N 529.16 -1.33526 0.837174 0
M  V30 5869 C 530.437 -1.92369 0.354065 0
M  V30 5870 C 530.817 -1.76348 -1.16038 0
M  V30 5871 O 530.165 -1.15083 -1.97403 0
M  V30 5872 C 530.375 -3.39728 0.799101 0
M  V30 5873 C 531.723 -4.16877 0.806139 0
M  V30 5874 O 532.747 -3.48373 0.742597 0
M  V30 5875 O 531.606 -5.39166 0.892345 0
M  V30 5876 H 528.7 -0.820952 0.0998378 0
M  V30 5877 H 531.246 -1.42409 0.922913 0
M  V30 5878 H 530.018 -3.45254 1.84162 0
M  V30 5879 H 529.641 -3.97062 0.206731 0
M  V30 5880 N 530.638 -0.59345 -1.46 0
M  V30 5881 C 531.863 -0.0872365 -2.07216 0
M  V30 5882 C 532.288 1.2131 -1.43755 0
M  V30 5883 O 531.646 1.73528 -0.525152 0
M  V30 5884 C 531.694 0.0538197 -3.6056 0
M  V30 5885 O 530.798 1.10765 -3.97247 0
M  V30 5886 H 530.139 -0.0676598 -0.660544 0
M  V30 5887 H 532.669 -0.819445 -1.87473 0
M  V30 5888 H 532.679 0.256567 -4.07193 0
M  V30 5889 H 531.354 -0.895739 -4.0614 0
M  V30 5890 H 529.931 0.882501 -3.62307 0
M  V30 5891 N 532.116 1.54067 -0.331816 0
M  V30 5892 C 533.362 2.01713 0.261395 0
M  V30 5893 C 533.717 1.21566 1.49129 0
M  V30 5894 O 533.01 0.291867 1.89364 0
M  V30 5895 C 533.204 3.51634 0.639392 0
M  V30 5896 C 533.033 4.46295 -0.552321 0
M  V30 5897 C 531.803 4.94185 -1.05399 0
M  V30 5898 C 534.001 4.94677 -1.40711 0
M  V30 5899 N 531.983 5.7277 -2.20925 0
M  V30 5900 C 533.354 5.71267 -2.40943 0
M  V30 5901 C 535.409 4.76805 -1.43392 0
M  V30 5902 C 534.112 6.31889 -3.4367 0
M  V30 5903 C 536.138 5.38268 -2.44994 0
M  V30 5904 C 535.5 6.14716 -3.43952 0
M  V30 5905 H 531.599 0.77975 0.0592729 0
M  V30 5906 H 534.183 1.88974 -0.468726 0
M  V30 5907 H 532.354 3.64603 1.33863 0
M  V30 5908 H 534.086 3.86038 1.21478 0
M  V30 5909 H 530.841 4.69472 -0.623952 0
M  V30 5910 H 531.265 6.16737 -2.79222 0
M  V30 5911 H 535.907 4.17255 -0.682489 0
M  V30 5912 H 533.625 6.90554 -4.19715 0
M  V30 5913 H 537.211 5.26352 -2.4788 0
M  V30 5914 H 536.091 6.6143 -4.21283 0
M  V30 5915 N 533.594 0.0601682 1.57485 0
M  V30 5916 C 534.504 -0.926121 2.15546 0
M  V30 5917 C 535.52 -1.33532 1.11558 0
M  V30 5918 O 536.696 -1.4104 1.4377 0
M  V30 5919 C 533.761 -2.17952 2.69625 0
M  V30 5920 C 532.822 -1.82783 3.88444 0
M  V30 5921 C 532.055 -3.02148 4.39935 0
M  V30 5922 O 532.278 -4.15803 3.90466 0
M  V30 5923 O 531.212 -2.82639 5.31412 0
M  V30 5924 H 535.038 -0.462289 3.00161 0
M  V30 5925 H 532.623 -0.162246 1.48516 0
M  V30 5926 H 534.505 -2.91474 3.04337 0
M  V30 5927 H 533.18 -2.63456 1.88077 0
M  V30 5928 H 532.087 -1.06549 3.58606 0
M  V30 5929 H 533.42 -1.42072 4.7125 0
M  V30 5930 N 535.072 -1.5615 -0.213296 0
M  V30 5931 C 536.019 -1.93086 -1.26437 0
M  V30 5932 C 536.989 -0.789086 -1.4616 0
M  V30 5933 O 538.174 -1.04569 -1.59593 0
M  V30 5934 C 535.314 -2.26003 -2.608 0
M  V30 5935 C 534.427 -3.53156 -2.48807 0
M  V30 5936 C 533.562 -3.7548 -3.7575 0
M  V30 5937 C 532.601 -4.96119 -3.58514 0
M  V30 5938 N 531.738 -5.14791 -4.77425 0
M  V30 5939 H 536.578 -2.82707 -0.942376 0
M  V30 5940 H 534.115 -1.39919 -0.454001 0
M  V30 5941 H 536.073 -2.431 -3.39055 0
M  V30 5942 H 534.703 -1.39546 -2.91079 0
M  V30 5943 H 533.755 -3.44207 -1.61944 0
M  V30 5944 H 535.067 -4.41565 -2.31996 0
M  V30 5945 H 534.221 -3.92718 -4.62447 0
M  V30 5946 H 532.96 -2.85368 -3.95495 0
M  V30 5947 H 531.965 -4.78823 -2.70201 0
M  V30 5948 H 533.19 -5.87724 -3.40231 0
M  V30 5949 H 531.136 -4.27623 -4.97468 0
M  V30 5950 H 531.053 -5.97347 -4.63371 0
M  V30 5951 H 532.321 -5.36471 -5.65525 0
M  V30 5952 N 536.55 0.480323 -1.50102 0
M  V30 5953 C 537.48 1.58769 -1.71215 0
M  V30 5954 C 538.461 1.60583 -0.560997 0
M  V30 5955 O 539.646 1.76996 -0.799127 0
M  V30 5956 C 536.776 2.97148 -1.79778 0
M  V30 5957 C 535.73 3.10201 -2.94888 0
M  V30 5958 C 535.056 4.50137 -2.88584 0
M  V30 5959 C 536.356 2.88283 -4.35534 0
M  V30 5960 H 538.05 1.41354 -2.6393 0
M  V30 5961 H 535.596 0.678591 -1.27008 0
M  V30 5962 H 537.549 3.74536 -1.93133 0
M  V30 5963 H 536.273 3.15699 -0.836772 0
M  V30 5964 H 534.932 2.35244 -2.81169 0
M  V30 5965 H 534.58 4.65593 -1.90349 0
M  V30 5966 H 534.28 4.59808 -3.65856 0
M  V30 5967 H 535.804 5.29558 -3.03976 0
M  V30 5968 H 537.218 3.55427 -4.49827 0
M  V30 5969 H 535.615 3.09408 -5.14186 0
M  V30 5970 H 536.685 1.84219 -4.48544 0
M  V30 5971 N 538.028 1.39524 0.732853 0
M  V30 5972 C 539.258 1.3994 1.51988 0
M  V30 5973 C 539.666 -0.00727973 1.89199 0
M  V30 5974 O 539.009 -0.989521 1.54771 0
M  V30 5975 C 539.071 2.21026 2.83527 0
M  V30 5976 C 538.735 3.69633 2.68738 0
M  V30 5977 C 539.732 4.62665 2.37143 0
M  V30 5978 C 537.417 4.13244 2.85542 0
M  V30 5979 C 539.411 5.97291 2.22536 0
M  V30 5980 C 537.098 5.47945 2.70554 0
M  V30 5981 C 538.096 6.39783 2.39097 0
M  V30 5982 O 537.784 7.72002 2.24204 0
M  V30 5983 H 537.516 0.479795 0.476206 0
M  V30 5984 H 540.07 1.8399 0.913054 0
M  V30 5985 H 538.3 1.71728 3.46477 0
M  V30 5986 H 539.989 2.13594 3.45156 0
M  V30 5987 H 540.755 4.30272 2.2381 0
M  V30 5988 H 536.634 3.42094 3.09019 0
M  V30 5989 H 540.178 6.68939 1.97905 0
M  V30 5990 H 536.075 5.79928 2.83466 0
M  V30 5991 H 536.843 7.8275 2.39258 0
M  V30 5992 N 539.506 -0.963266 1.24736 0
M  V30 5993 C 540.438 -2.06162 1.0015 0
M  V30 5994 C 541.451 -1.62771 -0.0305905 0
M  V30 5995 O 542.64 -1.77296 0.206966 0
M  V30 5996 C 539.74 -3.35333 0.490385 0
M  V30 5997 C 538.913 -4.07609 1.58663 0
M  V30 5998 C 537.972 -5.15052 1.0774 0
M  V30 5999 O 536.998 -5.4098 1.77002 0
M  V30 6000 N 538.2 -5.80436 -0.0858605 0
M  V30 6001 H 540.965 -2.27825 1.94719 0
M  V30 6002 H 538.526 -1.13121 1.15825 0
M  V30 6003 H 540.518 -4.04477 0.134371 0
M  V30 6004 H 539.088 -3.10507 -0.361155 0
M  V30 6005 H 538.308 -3.32681 2.11463 0
M  V30 6006 H 539.596 -4.52656 2.32336 0
M  V30 6007 H 538.994 -5.6178 -0.664806 0
M  V30 6008 H 537.551 -6.50674 -0.382981 0
M  V30 6009 N 540.985 -1.06182 -1.16461 0
M  V30 6010 C 541.917 -0.629584 -2.20383 0
M  V30 6011 C 542.93 0.311834 -1.59786 0
M  V30 6012 O 544.119 0.103 -1.78203 0
M  V30 6013 C 541.219 0.0973695 -3.3876 0
M  V30 6014 C 540.392 -0.857252 -4.28917 0
M  V30 6015 C 539.451 -0.169749 -5.25926 0
M  V30 6016 O 538.477 -0.807044 -5.6345 0
M  V30 6017 N 539.679 1.08911 -5.70192 0
M  V30 6018 H 542.444 -1.52352 -2.58087 0
M  V30 6019 H 540.005 -0.944993 -1.31459 0
M  V30 6020 H 541.997 0.567676 -4.00699 0
M  V30 6021 H 540.567 0.893093 -2.99571 0
M  V30 6022 H 539.787 -1.50696 -3.64259 0
M  V30 6023 H 541.075 -1.50489 -4.86035 0
M  V30 6024 H 540.473 1.62703 -5.41797 0
M  V30 6025 H 539.03 1.50331 -6.34227 0
M  V30 6026 N 542.463 1.3308 -0.844243 0
M  V30 6027 C 543.691 2.01808 -0.456203 0
M  V30 6028 C 544.106 1.63498 0.944131 0
M  V30 6029 O 543.463 0.85102 1.61443 0
M  V30 6030 C 543.514 3.56922 -0.573513 0
M  V30 6031 O 543.235 3.93851 -1.91868 0
M  V30 6032 C 544.736 4.42922 -0.183125 0
M  V30 6033 H 541.956 0.646273 -0.180477 0
M  V30 6034 H 544.5 1.69891 -1.1383 0
M  V30 6035 H 542.655 3.87352 0.0607367 0
M  V30 6036 H 543.069 4.88564 -1.90802 0
M  V30 6037 H 544.543 5.51093 -0.316241 0
M  V30 6038 H 545.02 4.30386 0.875477 0
M  V30 6039 H 545.626 4.1786 -0.792027 0
M  V30 6040 N 543.941 0.601185 1.45683 0
M  V30 6041 C 544.871 -0.108824 2.33246 0
M  V30 6042 C 545.852 -0.865223 1.46451 0
M  V30 6043 O 547.037 -0.83704 1.75235 0
M  V30 6044 C 544.167 -1.11101 3.2905 0
M  V30 6045 C 543.121 -0.468244 4.25431 0
M  V30 6046 C 542.447 -1.57822 5.10878 0
M  V30 6047 C 543.747 0.606469 5.18767 0
M  V30 6048 H 545.441 0.622306 2.92861 0
M  V30 6049 H 542.987 0.300714 1.40825 0
M  V30 6050 H 544.94 -1.61622 3.89174 0
M  V30 6051 H 543.664 -1.87265 2.67581 0
M  V30 6052 H 542.323 0.0160484 3.66596 0
M  V30 6053 H 541.971 -2.32998 4.45781 0
M  V30 6054 H 541.671 -1.15369 5.76163 0
M  V30 6055 H 543.195 -2.08583 5.73869 0
M  V30 6056 H 544.609 0.185589 5.73 0
M  V30 6057 H 543.006 0.952381 5.92494 0
M  V30 6058 H 544.076 1.48559 4.61582 0
M  V30 6059 N 545.419 -1.53889 0.339982 0
M  V30 6060 C 546.835 -1.59595 -0.0120752 0
M  V30 6061 C 547.035 -1.35605 -1.49042 0
M  V30 6062 O 546.091 -1.14856 -2.24865 0
M  V30 6063 C 547.404 -2.9774 0.420898 0
M  V30 6064 C 548.952 -3.1077 0.37294 0
M  V30 6065 C 549.427 -4.51286 0.781327 0
M  V30 6066 N 550.918 -4.57325 0.735374 0
M  V30 6067 C 551.653 -5.64194 1.02336 0
M  V30 6068 N 551.149 -6.7893 1.37933 0
M  V30 6069 N 552.942 -5.54051 0.947838 0
M  V30 6070 H 545.093 -1.67738 1.30299 0
M  V30 6071 H 547.356 -0.785385 0.530918 0
M  V30 6072 H 547.062 -3.20349 1.45152 0
M  V30 6073 H 546.936 -3.76639 -0.205721 0
M  V30 6074 H 549.323 -2.87886 -0.648505 0
M  V30 6075 H 549.404 -2.33939 1.03472 0
M  V30 6076 H 549.048 -4.74905 1.80077 0
M  V30 6077 H 548.978 -5.26511 0.0970679 0
M  V30 6078 H 551.469 -3.74931 0.472773 0
M  V30 6079 H 551.782 -7.56392 1.58402 0
M  V30 6080 H 550.127 -6.80386 1.41774 0
M  V30 6081 H 553.318 -4.63293 0.669115 0
M  V30 6082 H 553.491 -6.37246 1.17563 0
M  V30 6083 N 546.897 -0.0685191 -1.57451 0
M  V30 6084 C 548.125 0.610462 -1.97689 0
M  V30 6085 C 548.54 1.63346 -0.946758 0
M  V30 6086 O 547.897 1.82377 0.0669868 0
M  V30 6087 C 547.948 1.28196 -3.38006 0
M  V30 6088 O 547.669 0.299906 -4.37072 0
M  V30 6089 C 549.17 2.04907 -3.931 0
M  V30 6090 H 546.39 0.165689 -0.650222 0
M  V30 6091 H 548.934 -0.139953 -2.04021 0
M  V30 6092 H 547.089 1.98348 -3.32771 0
M  V30 6093 H 547.503 0.78126 -5.18649 0
M  V30 6094 H 548.977 2.47287 -4.93511 0
M  V30 6095 H 549.454 2.9043 -3.29465 0
M  V30 6096 H 550.06 1.39629 -4.01726 0
M  V30 6097 N 548.375 1.56261 0.205012 0
M  V30 6098 C 549.603 1.84141 0.943386 0
M  V30 6099 C 550.018 0.649772 1.77266 0
M  V30 6100 O 549.375 -0.381612 1.78466 0
M  V30 6101 C 549.426 3.10719 1.84759 0
M  V30 6102 O 549.147 4.25286 1.05181 0
M  V30 6103 C 550.648 3.51706 2.69848 0
M  V30 6104 H 547.868 0.611734 0.275721 0
M  V30 6105 H 550.412 2.03364 0.215253 0
M  V30 6106 H 548.567 2.93422 2.52947 0
M  V30 6107 H 548.981 4.97301 1.66709 0
M  V30 6108 H 550.455 4.43266 3.28967 0
M  V30 6109 H 550.932 2.7423 3.43067 0
M  V30 6110 H 551.538 3.71499 2.07047 0
M  V30 6111 N 549.853 -0.472356 1.50355 0
M  V30 6112 C 551.101 -1.22211 1.60962 0
M  V30 6113 C 551.422 -1.92497 0.311439 0
M  V30 6114 O 550.692 -1.8405 -0.671002 0
M  V30 6115 H 549.272 -0.454092 0.593135 0
M  V30 6116 H 551.934 -0.544977 1.87126 0
M  V30 6117 H 551.03 -1.9707 2.42012 0
M  V30 6118 N 551.331 -1.39911 -0.725443 0
M  V30 6119 C 552.261 -1.42138 -1.85254 0
M  V30 6120 C 553.242 -0.283513 -1.67721 0
M  V30 6121 O 554.427 -0.490717 -1.87898 0
M  V30 6122 C 551.557 -1.27354 -3.23107 0
M  V30 6123 C 550.511 -2.3864 -3.55296 0
M  V30 6124 C 549.837 -2.08939 -4.92188 0
M  V30 6125 C 551.137 -3.8097 -3.57295 0
M  V30 6126 H 552.831 -2.36461 -1.83648 0
M  V30 6127 H 550.377 -1.13817 -0.882138 0
M  V30 6128 H 552.33 -1.2753 -4.01639 0
M  V30 6129 H 551.054 -0.295025 -3.25265 0
M  V30 6130 H 549.713 -2.37696 -2.79099 0
M  V30 6131 H 549.361 -1.09502 -4.90936 0
M  V30 6132 H 549.061 -2.83491 -5.14691 0
M  V30 6133 H 550.585 -2.10781 -5.73065 0
M  V30 6134 H 551.999 -3.8379 -4.25885 0
M  V30 6135 H 550.396 -4.5496 -3.9132 0
M  V30 6136 H 551.466 -4.11261 -2.5689 0
M  V30 6137 N 552.809 0.956637 -1.25245 0
M  V30 6138 C 554.039 1.7332 -1.12445 0
M  V30 6139 C 554.447 1.86392 0.324732 0
M  V30 6140 O 553.79 1.35967 1.23526 0
M  V30 6141 C 553.852 3.16603 -1.70303 0
M  V30 6142 C 553.516 3.26966 -3.19284 0
M  V30 6143 C 554.513 3.11434 -4.16299 0
M  V30 6144 C 552.198 3.50851 -3.59456 0
M  V30 6145 C 554.192 3.1963 -5.51467 0
M  V30 6146 C 551.879 3.58684 -4.94761 0
M  V30 6147 C 552.877 3.43087 -5.90576 0
M  V30 6148 O 552.565 3.50598 -7.2342 0
M  V30 6149 H 552.297 0.549981 -0.393061 0
M  V30 6150 H 554.851 1.20892 -1.66055 0
M  V30 6151 H 553.081 3.70385 -1.11138 0
M  V30 6152 H 554.77 3.76109 -1.52632 0
M  V30 6153 H 555.536 2.92853 -3.86604 0
M  V30 6154 H 551.415 3.62053 -2.85375 0
M  V30 6155 H 554.959 3.07373 -6.26233 0
M  V30 6156 H 550.856 3.76782 -5.24124 0
M  V30 6157 H 551.624 3.67242 -7.31489 0
M  V30 6158 N 554.287 1.06798 1.15896 0
M  V30 6159 C 555.512 0.808739 1.90982 0
M  V30 6160 C 555.937 -0.6316 1.77179 0
M  V30 6161 O 555.295 -1.4407 1.10061 0
M  V30 6162 C 555.343 1.21468 3.39526 0
M  V30 6163 O 554.447 0.356562 4.10856 0
M  V30 6164 H 553.788 0.29512 0.594811 0
M  V30 6165 H 556.318 1.42513 1.46804 0
M  V30 6166 H 556.328 1.18844 3.90308 0
M  V30 6167 H 555.003 2.26379 3.48891 0
M  V30 6168 H 553.58 0.444808 3.70238 0
M  V30 6169 N 555.766 -1.3263 0.851289 0
M  V30 6170 C 557.012 -1.9766 0.453694 0
M  V30 6171 C 557.345 -1.67225 -0.987396 0
M  V30 6172 O 556.62 -0.958693 -1.69232 0
M  V30 6173 C 556.903 -3.5344 0.68936 0
M  V30 6174 C 556.756 -3.93517 2.17862 0
M  V30 6175 C 558.075 -4.39866 0.143555 0
M  V30 6176 H 555.194 -0.717989 0.166314 0
M  V30 6177 H 557.836 -1.57068 1.06909 0
M  V30 6178 H 555.986 -3.88147 0.165546 0
M  V30 6179 H 557.658 -3.69006 2.76826 0
M  V30 6180 H 555.901 -3.42798 2.65841 0
M  V30 6181 H 556.572 -5.02065 2.29422 0
M  V30 6182 H 559.048 -4.11875 0.591451 0
M  V30 6183 H 557.924 -5.47858 0.338043 0
M  V30 6184 H 558.185 -4.31696 -0.953466 0
M  V30 6185 N 557.244 -0.608902 -1.45362 0
M  V30 6186 C 558.491 -0.104607 -2.0223 0
M  V30 6187 C 558.819 1.26534 -1.47714 0
M  V30 6188 O 558.074 1.84855 -0.642435 0
M  V30 6189 C 558.373 -0.0167296 -3.57396 0
M  V30 6190 C 558.039 -1.32251 -4.31069 0
M  V30 6191 C 556.701 -1.68019 -4.50914 0
M  V30 6192 C 559.053 -2.18542 -4.73169 0
M  V30 6193 C 556.381 -2.89828 -5.10114 0
M  V30 6194 C 558.733 -3.39602 -5.33717 0
M  V30 6195 C 557.397 -3.7562 -5.51784 0
M  V30 6196 H 556.667 -0.0382785 -0.740011 0
M  V30 6197 H 559.314 -0.790782 -1.7441 0
M  V30 6198 H 557.619 0.752715 -3.84502 0
M  V30 6199 H 559.316 0.389634 -3.99103 0
M  V30 6200 H 555.906 -1.03411 -4.15938 0
M  V30 6201 H 560.09 -1.92208 -4.5757 0
M  V30 6202 H 555.346 -3.17839 -5.22291 0
M  V30 6203 H 559.52 -4.06716 -5.65292 0
M  V30 6204 H 557.147 -4.70093 -5.97425 0
M  V30 6205 N 558.722 1.53707 -0.348139 0
M  V30 6206 C 559.969 2.00988 0.246966 0
M  V30 6207 C 560.297 1.23586 1.50189 0
M  V30 6208 O 559.552 0.312817 1.93184 0
M  V30 6209 C 559.851 3.52292 0.602061 0
M  V30 6210 C 559.517 4.47453 -0.556509 0
M  V30 6211 C 558.179 4.73188 -0.874446 0
M  V30 6212 C 560.531 5.03851 -1.33354 0
M  V30 6213 C 557.859 5.52577 -1.9717 0
M  V30 6214 C 560.211 5.84437 -2.42108 0
M  V30 6215 C 558.875 6.08465 -2.74456 0
M  V30 6216 H 558.145 0.735469 0.0903712 0
M  V30 6217 H 560.792 1.85464 -0.477001 0
M  V30 6218 H 559.097 3.65672 1.40681 0
M  V30 6219 H 560.794 3.86337 1.07447 0
M  V30 6220 H 557.384 4.27558 -0.298652 0
M  V30 6221 H 561.568 4.8393 -1.10117 0
M  V30 6222 H 556.824 5.69418 -2.22651 0
M  V30 6223 H 560.998 6.27151 -3.02745 0
M  V30 6224 H 558.625 6.69768 -3.59604 0
M  V30 6225 N 560.2 0.0768682 1.57412 0
M  V30 6226 C 561.447 -0.591085 1.93681 0
M  V30 6227 C 561.775 -1.69311 0.957286 0
M  V30 6228 O 561.03 -1.95682 -0.0262428 0
M  V30 6229 C 561.329 -1.20268 3.36557 0
M  V30 6230 C 560.995 -0.226286 4.50332 0
M  V30 6231 C 559.657 0.0423142 4.81181 0
M  V30 6232 C 562.009 0.441415 5.19327 0
M  V30 6233 C 559.337 0.985616 5.78362 0
M  V30 6234 C 561.689 1.37307 6.17519 0
M  V30 6235 C 560.353 1.65009 6.46783 0
M  V30 6236 H 559.623 -0.216293 0.70873 0
M  V30 6237 H 562.27 0.148824 1.90921 0
M  V30 6238 H 560.575 -2.01844 3.35807 0
M  V30 6239 H 562.272 -1.72688 3.61911 0
M  V30 6240 H 558.862 -0.445821 4.26275 0
M  V30 6241 H 563.046 0.247023 4.95685 0
M  V30 6242 H 558.302 1.20743 5.99359 0
M  V30 6243 H 562.476 1.89637 6.70083 0
M  V30 6244 H 560.103 2.38263 7.21897 0
M  V30 6245 N 561.678 -1.56367 -0.196722 0
M  V30 6246 C 562.927 -1.79724 -0.915539 0
M  V30 6247 C 563.24 -0.649804 -1.84491 0
M  V30 6248 O 564.446 -0.767631 -2.60422 0
M  V30 6249 C 562.902 -3.18369 -1.67836 0
M  V30 6250 C 562.51 -4.4091 -0.793897 0
M  V30 6251 C 564.254 -3.51037 -2.38691 0
M  V30 6252 C 562.161 -5.70577 -1.55549 0
M  V30 6253 H 561.091 -0.67013 -0.345604 0
M  V30 6254 H 563.742 -1.82721 -0.168856 0
M  V30 6255 H 562.124 -3.09617 -2.46887 0
M  V30 6256 H 563.298 -4.60781 -0.042163 0
M  V30 6257 H 561.613 -4.15937 -0.19626 0
M  V30 6258 H 564.21 -4.4515 -2.96219 0
M  V30 6259 H 564.553 -2.74704 -3.12799 0
M  V30 6260 H 565.086 -3.61229 -1.66608 0
M  V30 6261 H 561.825 -6.49871 -0.857226 0
M  V30 6262 H 561.345 -5.54726 -2.2812 0
M  V30 6263 H 563.024 -6.11637 -2.10971 0
M  V30 6264 N 563.156 0.464375 -1.50603 0
M  V30 6265 C 564.402 1.21776 -1.62168 0
M  V30 6266 C 564.735 1.91476 -0.324154 0
M  V30 6267 O 564.01 1.8242 0.674782 0
M  V30 6268 C 564.293 2.25614 -2.80661 0
M  V30 6269 C 564.146 1.60175 -4.20314 0
M  V30 6270 C 565.465 3.26862 -2.94702 0
M  V30 6271 H 562.584 0.44137 -0.590222 0
M  V30 6272 H 565.226 0.510623 -1.8301 0
M  V30 6273 H 563.376 2.85923 -2.63021 0
M  V30 6274 H 565.048 1.03411 -4.4956 0
M  V30 6275 H 563.291 0.904697 -4.24261 0
M  V30 6276 H 563.962 2.35665 -4.99165 0
M  V30 6277 H 566.438 2.76582 -3.10872 0
M  V30 6278 H 565.314 3.96839 -3.79223 0
M  V30 6279 H 565.575 3.91382 -2.05603 0
M  V30 6280 N 564.634 1.40294 0.718013 0
M  V30 6281 C 565.88 1.38645 1.48005 0
M  V30 6282 C 566.213 -0.0121202 1.94196 0
M  V30 6283 O 565.488 -0.980309 1.67989 0
M  V30 6284 C 565.771 2.37379 2.70782 0
M  V30 6285 C 565.624 3.8625 2.30501 0
M  V30 6286 C 566.943 2.33685 3.72933 0
M  V30 6287 H 564.062 0.504928 0.536858 0
M  V30 6288 H 566.704 1.71411 0.819649 0
M  V30 6289 H 564.854 2.09568 3.27129 0
M  V30 6290 H 566.526 4.24879 1.79655 0
M  V30 6291 H 564.769 4.02202 1.6253 0
M  V30 6292 H 565.44 4.50847 3.18498 0
M  V30 6293 H 567.916 2.58314 3.2621 0
M  V30 6294 H 566.792 3.0482 4.56482 0
M  V30 6295 H 567.053 1.34765 4.21059 0
M  V30 6296 N 566.112 -0.949982 1.2575 0
M  V30 6297 C 567.361 -1.68956 1.10168 0
M  V30 6298 C 567.674 -1.92327 -0.356309 0
M  V30 6299 O 568.88 -2.64026 -0.632657 0
M  V30 6300 C 567.336 -3.04196 1.92336 0
M  V30 6301 C 566.944 -2.88603 3.42655 0
M  V30 6302 C 568.688 -3.81904 1.85336 0
M  V30 6303 C 566.595 -4.19262 4.17101 0
M  V30 6304 H 565.525 -0.633645 0.408668 0
M  V30 6305 H 568.176 -1.05719 1.49986 0
M  V30 6306 H 566.558 -3.68363 1.45344 0
M  V30 6307 H 567.732 -2.3334 3.97353 0
M  V30 6308 H 566.047 -2.24345 3.50796 0
M  V30 6309 H 568.644 -4.78688 2.38248 0
M  V30 6310 H 568.987 -4.08099 0.822226 0
M  V30 6311 H 569.52 -3.24495 2.30104 0
M  V30 6312 H 566.259 -3.98254 5.20648 0
M  V30 6313 H 565.779 -4.74273 3.67186 0
M  V30 6314 H 567.458 -4.87775 4.25071 0
M  V30 6315 N 567.59 -1.07411 -1.15328 0
M  V30 6316 C 568.837 -0.797649 -1.86128 0
M  V30 6317 C 569.165 0.676298 -1.82364 0
M  V30 6318 O 568.42 1.51223 -1.24218 0
M  V30 6319 C 568.719 -1.25191 -3.34757 0
M  V30 6320 C 568.385 -2.73191 -3.58716 0
M  V30 6321 C 567.047 -3.13616 -3.64964 0
M  V30 6322 C 569.399 -3.68718 -3.6837 0
M  V30 6323 C 566.727 -4.48383 -3.78377 0
M  V30 6324 C 569.079 -5.03248 -3.83306 0
M  V30 6325 C 567.743 -5.43293 -3.878 0
M  V30 6326 H 567.013 -0.29188 -0.681092 0
M  V30 6327 H 569.66 -1.34524 -1.36292 0
M  V30 6328 H 567.965 -0.623712 -3.86804 0
M  V30 6329 H 569.662 -1.01489 -3.87945 0
M  V30 6330 H 566.252 -2.40898 -3.54494 0
M  V30 6331 H 570.436 -3.38614 -3.62842 0
M  V30 6332 H 565.692 -4.78877 -3.80114 0
M  V30 6333 H 569.866 -5.77142 -3.89718 0
M  V30 6334 H 567.493 -6.47721 -3.97946 0
M  V30 6335 N 569.068 1.32177 -0.85831 0
M  V30 6336 C 569.998 2.31282 -0.321041 0
M  V30 6337 C 570.979 1.59841 0.581786 0
M  V30 6338 O 572.164 1.87619 0.501262 0
M  V30 6339 C 569.294 3.4385 0.48832 0
M  V30 6340 C 568.248 4.26799 -0.320391 0
M  V30 6341 C 567.574 5.31164 0.613934 0
M  V30 6342 C 568.874 4.98829 -1.54813 0
M  V30 6343 H 570.568 2.76469 -1.14915 0
M  V30 6344 H 568.114 1.32916 -0.554028 0
M  V30 6345 H 570.067 4.12224 0.874626 0
M  V30 6346 H 568.791 2.97401 1.34983 0
M  V30 6347 H 567.45 3.60077 -0.688497 0
M  V30 6348 H 567.098 4.80967 1.47239 0
M  V30 6349 H 566.798 5.8755 0.0768097 0
M  V30 6350 H 568.322 6.024 0.997336 0
M  V30 6351 H 569.736 5.59864 -1.23392 0
M  V30 6352 H 568.133 5.64957 -2.02346 0
M  V30 6353 H 569.203 4.26483 -2.30739 0
M  V30 6354 N 570.547 0.616602 1.45037 0
M  V30 6355 C 571.795 0.115103 2.01772 0
M  V30 6356 C 572.116 -1.2622 1.48639 0
M  V30 6357 O 571.386 -1.83563 0.684199 0
M  V30 6358 H 569.966 0.0395607 0.745952 0
M  V30 6359 H 572.628 0.800032 1.77723 0
M  V30 6360 H 571.724 0.0717274 3.12018 0
M  V30 6361 N 572.025 -1.5352 0.356285 0
M  V30 6362 C 573.25 -2.06007 -0.239961 0
M  V30 6363 C 573.675 -1.22872 -1.42422 0
M  V30 6364 O 573.033 -0.245516 -1.7963 0
M  V30 6365 C 573.081 -3.5522 -0.620587 0
M  V30 6366 O 572.185 -3.74864 -1.71902 0
M  V30 6367 H 571.526 -0.662961 -0.0371377 0
M  V30 6368 H 574.056 -1.98033 0.514194 0
M  V30 6369 H 574.066 -3.98081 -0.894197 0
M  V30 6370 H 572.741 -4.15175 0.245407 0
M  V30 6371 H 571.318 -3.43904 -1.44169 0
M  V30 6372 N 573.503 -0.0852151 -1.57369 0
M  V30 6373 C 574.75 0.580806 -1.93992 0
M  V30 6374 C 575.078 1.68801 -0.966252 0
M  V30 6375 O 574.333 1.95694 0.0158649 0
M  V30 6376 C 574.632 1.18482 -3.3719 0
M  V30 6377 C 574.298 0.2024 -4.50446 0
M  V30 6378 C 572.96 -0.0678318 -4.81152 0
M  V30 6379 C 575.312 -0.46895 -5.19086 0
M  V30 6380 C 572.64 -1.01627 -5.77831 0
M  V30 6381 C 574.992 -1.4058 -6.16782 0
M  V30 6382 C 573.656 -1.68436 -6.45899 0
M  V30 6383 H 572.926 0.212532 -0.709867 0
M  V30 6384 H 575.573 -0.158947 -1.90839 0
M  V30 6385 H 573.878 2.0006 -3.36873 0
M  V30 6386 H 575.575 1.70767 -3.62822 0
M  V30 6387 H 572.165 0.423208 -4.26505 0
M  V30 6388 H 576.349 -0.273307 -4.95547 0
M  V30 6389 H 571.605 -1.2392 -5.9871 0
M  V30 6390 H 575.779 -1.93188 -6.69068 0
M  V30 6391 H 573.406 -2.42088 -7.20623 0
M  V30 6392 N 574.981 1.5647 0.188427 0
M  V30 6393 C 576.211 1.84863 0.922463 0
M  V30 6394 C 576.619 0.666413 1.77075 0
M  V30 6395 O 575.962 -0.374044 1.79852 0
M  V30 6396 C 576.024 3.07447 1.86324 0
M  V30 6397 C 575.688 4.41066 1.19625 0
M  V30 6398 C 576.685 5.16767 0.569946 0
M  V30 6399 C 574.37 4.87802 1.19811 0
M  V30 6400 C 576.364 6.37384 -0.045594 0
M  V30 6401 C 574.051 6.08353 0.57874 0
M  V30 6402 C 575.049 6.82987 -0.0420259 0
M  V30 6403 O 574.737 8.01254 -0.651675 0
M  V30 6404 H 574.469 0.61784 0.274316 0
M  V30 6405 H 577.023 2.04437 0.198613 0
M  V30 6406 H 575.253 2.83774 2.62696 0
M  V30 6407 H 576.942 3.2243 2.46564 0
M  V30 6408 H 577.708 4.81749 0.560601 0
M  V30 6409 H 573.587 4.29662 1.67069 0
M  V30 6410 H 577.131 6.95578 -0.530731 0
M  V30 6411 H 573.028 6.42838 0.58561 0
M  V30 6412 H 573.796 8.16655 -0.549236 0
M  V30 6413 N 576.459 -0.456382 1.50847 0
M  V30 6414 C 577.389 -1.56025 1.73719 0
M  V30 6415 C 578.37 -1.5967 0.586473 0
M  V30 6416 O 579.555 -1.75702 0.827185 0
M  V30 6417 C 576.685 -2.94251 1.84483 0
M  V30 6418 C 575.639 -3.05471 2.99786 0
M  V30 6419 C 574.965 -4.45489 2.95709 0
M  V30 6420 C 576.265 -2.81318 4.40065 0
M  V30 6421 H 577.959 -1.37138 2.66146 0
M  V30 6422 H 575.505 -0.658299 1.28072 0
M  V30 6423 H 577.458 -3.71417 1.99067 0
M  V30 6424 H 576.182 -3.14328 0.886891 0
M  V30 6425 H 574.841 -2.30741 2.84876 0
M  V30 6426 H 574.489 -4.62505 1.97732 0
M  V30 6427 H 574.189 -4.53929 3.73125 0
M  V30 6428 H 575.713 -5.24655 3.12362 0
M  V30 6429 H 577.127 -3.48226 4.55425 0
M  V30 6430 H 575.524 -3.01188 5.19043 0
M  V30 6431 H 576.594 -1.7706 4.51418 0
M  V30 6432 N 577.937 -1.40673 -0.710563 0
M  V30 6433 C 579.186 -1.38525 -1.46607 0
M  V30 6434 C 579.499 0.0077024 -1.95598 0
M  V30 6435 O 580.705 0.151792 -2.71075 0
M  V30 6436 C 579.161 -2.43489 -2.6503 0
M  V30 6437 C 578.769 -3.88619 -2.22888 0
M  V30 6438 C 580.513 -2.50456 -3.42742 0
M  V30 6439 C 578.42 -4.85168 -3.3818 0
M  V30 6440 H 577.35 -0.515092 -0.550632 0
M  V30 6441 H 580.001 -1.66431 -0.772846 0
M  V30 6442 H 578.383 -2.0869 -3.36548 0
M  V30 6443 H 579.557 -4.32588 -1.58758 0
M  V30 6444 H 577.872 -3.85174 -1.58208 0
M  V30 6445 H 580.469 -3.19776 -4.28541 0
M  V30 6446 H 580.812 -1.53665 -3.86902 0
M  V30 6447 H 581.345 -2.84271 -2.78271 0
M  V30 6448 H 578.084 -5.8331 -2.99047 0
M  V30 6449 H 577.604 -4.4586 -4.01209 0
M  V30 6450 H 579.283 -5.05225 -4.04174 0
M  V30 6451 N 579.415 0.9433 -1.26252 0
M  V30 6452 C 580.363 2.06302 -1.07434 0
M  V30 6453 C 581.357 1.694 -0.00189471 0
M  V30 6454 O 582.563 1.79302 -0.158408 0
M  V30 6455 H 578.938 0.675453 -0.330556 0
M  V30 6456 H 580.909 2.19326 -2.02333 0
M  V30 6457 C 579.658 3.40125 -0.721817 0
M  V30 6458 H 578.981 3.68996 -1.5389 0
M  V30 6459 H 580.421 4.19295 -0.629922 0
M  V30 6460 C 578.88 3.31993 0.572902 0
M  V30 6461 O 579.41 3.67945 1.61182 0
M  V30 6462 N 577.616 2.85099 0.562748 0
M  V30 6463 H 577.163 2.5604 -0.283092 0
M  V30 6464 H 577.121 2.80041 1.42915 0
M  V30 6465 N 580.893 1.08022 1.14757 0
M  V30 6466 C 581.823 0.728248 2.21853 0
M  V30 6467 C 582.804 -0.287486 1.67653 0
M  V30 6468 O 583.989 -0.158727 1.9355 0
M  V30 6469 C 581.119 0.132549 3.47047 0
M  V30 6470 C 580.073 1.07619 4.14249 0
M  V30 6471 C 579.399 0.342907 5.33599 0
M  V30 6472 C 580.699 2.41268 4.63235 0
M  V30 6473 H 582.393 1.62365 2.51551 0
M  V30 6474 H 579.939 0.782125 1.20908 0
M  V30 6475 H 581.892 -0.125665 4.21213 0
M  V30 6476 H 580.616 -0.797971 3.16702 0
M  V30 6477 H 579.275 1.31944 3.42033 0
M  V30 6478 H 578.923 -0.59129 4.99513 0
M  V30 6479 H 578.623 0.971955 5.79506 0
M  V30 6480 H 580.147 0.0926538 6.1053 0
M  V30 6481 H 581.561 2.21232 5.28894 0
M  V30 6482 H 579.958 2.9983 5.19829 0
M  V30 6483 H 581.028 3.03079 3.78512 0
M  V30 6484 N 582.371 -1.3172 0.865308 0
M  V30 6485 C 583.599 -2.01057 0.488251 0
M  V30 6486 C 584.014 -1.64979 -0.918 0
M  V30 6487 O 583.371 -0.876597 -1.60069 0
M  V30 6488 C 583.422 -3.55964 0.630224 0
M  V30 6489 O 583.143 -3.90749 1.98109 0
M  V30 6490 C 584.644 -4.42574 0.253567 0
M  V30 6491 H 581.864 -0.64332 0.190736 0
M  V30 6492 H 584.408 -1.68058 1.16519 0
M  V30 6493 H 582.563 -3.874 0.000895422 0
M  V30 6494 H 582.977 -4.85467 1.9855 0
M  V30 6495 H 584.451 -5.50521 0.403875 0
M  V30 6496 H 584.928 -4.31724 -0.806895 0
M  V30 6497 H 585.534 -4.16547 0.858404 0
M  V30 6498 N 583.85 -0.624285 -1.44708 0
M  V30 6499 C 584.779 0.0717025 -2.3339 0
M  V30 6500 C 585.76 0.841814 -1.47809 0
M  V30 6501 O 586.946 0.809056 -1.76544 0
M  V30 6502 C 584.076 1.05852 -3.30776 0
M  V30 6503 C 583.029 0.400503 -4.26122 0
M  V30 6504 C 582.356 1.49674 -5.13324 0
M  V30 6505 C 583.656 -0.688924 -5.17737 0
M  V30 6506 H 585.35 -0.668819 -2.91834 0
M  V30 6507 H 582.896 -0.32308 -1.40329 0
M  V30 6508 H 584.849 1.5541 -3.91696 0
M  V30 6509 H 583.572 1.82984 -2.70526 0
M  V30 6510 H 582.231 -0.0743687 -3.66525 0
M  V30 6511 H 581.88 2.25877 -4.49431 0
M  V30 6512 H 581.58 1.06188 -5.77926 0
M  V30 6513 H 583.104 1.99427 -5.77115 0
M  V30 6514 H 584.518 -0.276724 -5.72632 0
M  V30 6515 H 582.915 -1.04652 -5.90904 0
M  V30 6516 H 583.985 -1.55884 -4.5916 0
M  V30 6517 N 585.328 1.53329 -0.364422 0
M  V30 6518 C 586.291 2.24323 0.470292 0
M  V30 6519 C 587.291 1.25068 1.01067 0
M  V30 6520 O 588.481 1.49354 0.896605 0
M  V30 6521 C 585.613 2.97908 1.65722 0
M  V30 6522 H 586.806 2.9952 -0.150917 0
M  V30 6523 H 584.359 1.55868 -0.116092 0
M  V30 6524 H 585.094 2.2695 2.31655 0
M  V30 6525 H 584.879 3.70732 1.27671 0
M  V30 6526 H 586.369 3.5188 2.24878 0
M  V30 6527 N 586.806 0.0935595 1.57322 0
M  V30 6528 C 588.052 -0.571355 1.94585 0
M  V30 6529 C 588.385 -1.67929 0.975366 0
M  V30 6530 O 587.66 -1.94498 0.00816206 0
M  V30 6531 C 587.943 -1.12797 3.41978 0
M  V30 6532 C 587.796 -0.0251881 4.49793 0
M  V30 6533 C 589.115 -2.02682 3.90651 0
M  V30 6534 H 586.234 -0.206223 0.70756 0
M  V30 6535 H 588.876 0.163956 1.89291 0
M  V30 6536 H 587.026 -1.75461 3.4662 0
M  V30 6537 H 588.698 0.608979 4.57263 0
M  V30 6538 H 586.941 0.641399 4.29032 0
M  V30 6539 H 587.612 -0.455433 5.50118 0
M  V30 6540 H 590.088 -1.49925 3.88152 0
M  V30 6541 H 588.964 -2.38555 4.94351 0
M  V30 6542 H 589.225 -2.94362 3.29854 0
M  V30 6543 N 588.284 -1.56567 -0.180126 0
M  V30 6544 C 589.53 -1.81761 -0.899497 0
M  V30 6545 C 589.863 -0.670015 -1.82276 0
M  V30 6546 O 589.138 0.328575 -1.91705 0
M  V30 6547 C 589.421 -3.17296 -1.7028 0
M  V30 6548 C 589.274 -4.4257 -0.803255 0
M  V30 6549 C 590.593 -3.49678 -2.67233 0
M  V30 6550 H 587.712 -0.661192 -0.325567 0
M  V30 6551 H 590.354 -1.89272 -0.16612 0
M  V30 6552 H 588.504 -3.11023 -2.32802 0
M  V30 6553 H 590.176 -4.60902 -0.191585 0
M  V30 6554 H 588.419 -4.33658 -0.110796 0
M  V30 6555 H 589.09 -5.33935 -1.40064 0
M  V30 6556 H 591.566 -3.56347 -2.14839 0
M  V30 6557 H 590.442 -4.45605 -3.20511 0
M  V30 6558 H 590.703 -2.73932 -3.47007 0
M  V30 6559 N 589.762 0.448376 -1.51087 0
M  V30 6560 C 590.99 1.22143 -1.66999 0
M  V30 6561 C 591.405 1.85283 -0.362699 0
M  V30 6562 O 590.762 1.70236 0.65772 0
M  V30 6563 C 590.813 2.31357 -2.7777 0
M  V30 6564 O 590.534 1.70801 -4.03434 0
M  V30 6565 C 592.035 3.21836 -3.04855 0
M  V30 6566 H 589.255 0.368558 -0.560719 0
M  V30 6567 H 591.799 0.532618 -1.97442 0
M  V30 6568 H 589.954 2.95973 -2.49958 0
M  V30 6569 H 590.368 2.42895 -4.64868 0
M  V30 6570 H 591.842 3.94627 -3.85971 0
M  V30 6571 H 592.319 3.81949 -2.16821 0
M  V30 6572 H 592.925 2.62933 -3.34285 0
M  V30 6573 N 591.24 1.41047 0.703093 0
M  V30 6574 C 592.173 1.36713 1.82715 0
M  V30 6575 C 593.151 0.235533 1.60885 0
M  V30 6576 O 594.335 0.421227 1.83733 0
M  V30 6577 C 591.462 1.13069 3.1927 0
M  V30 6578 C 590.508 2.28846 3.59905 0
M  V30 6579 S 591.341 3.91297 3.65578 0
M  V30 6580 C 592.497 3.69941 5.04871 0
M  V30 6581 H 592.73 2.31838 1.86114 0
M  V30 6582 H 590.263 1.27481 0.871083 0
M  V30 6583 H 592.221 1.00113 3.98105 0
M  V30 6584 H 590.882 0.195763 3.13489 0
M  V30 6585 H 590.075 2.07977 4.59088 0
M  V30 6586 H 589.677 2.3817 2.88359 0
M  V30 6587 H 591.969 3.29181 5.92154 0
M  V30 6588 H 592.912 4.68699 5.30779 0
M  V30 6589 H 593.32 3.03369 4.76054 0
M  V30 6590 N 592.718 -0.936591 1.26751 0
M  V30 6591 C 593.681 -2.01752 1.08761 0
M  V30 6592 C 594.681 -1.60763 0.0344435 0
M  V30 6593 O 595.871 -1.71963 0.278258 0
M  V30 6594 C 593.003 -3.34543 0.655271 0
M  V30 6595 H 594.196 -2.19143 2.04735 0
M  V30 6596 H 591.749 -1.11618 1.09413 0
M  V30 6597 H 592.484 -3.22851 -0.30626 0
M  V30 6598 H 592.269 -3.65647 1.41578 0
M  V30 6599 H 593.759 -4.13944 0.551378 0
M  V30 6600 N 594.196 -1.08629 -1.14182 0
M  V30 6601 C 595.426 -0.837673 -1.88856 0
M  V30 6602 C 595.834 0.614024 -1.78959 0
M  V30 6603 O 595.177 1.43384 -1.14833 0
M  V30 6604 C 595.239 -1.18355 -3.39459 0
M  V30 6605 C 594.903 -2.63848 -3.73139 0
M  V30 6606 C 595.9 -3.62099 -3.73069 0
M  V30 6607 C 593.585 -2.99761 -4.03049 0
M  V30 6608 C 595.579 -4.94292 -4.02435 0
M  V30 6609 C 593.266 -4.32147 -4.32078 0
M  V30 6610 C 594.264 -5.29223 -4.31755 0
M  V30 6611 O 593.952 -6.59229 -4.60079 0
M  V30 6612 H 593.684 -0.301609 -0.604986 0
M  V30 6613 H 596.238 -1.44961 -1.45518 0
M  V30 6614 H 594.468 -0.514628 -3.8326 0
M  V30 6615 H 596.157 -0.915391 -3.95443 0
M  V30 6616 H 596.923 -3.35698 -3.50046 0
M  V30 6617 H 592.802 -2.2484 -4.02453 0
M  V30 6618 H 596.346 -5.70055 -4.02098 0
M  V30 6619 H 592.243 -4.58296 -4.54571 0
M  V30 6620 H 593.011 -6.64578 -4.77785 0
M  V30 6621 N 595.674 1.31259 -0.872281 0
M  V30 6622 C 596.584 2.32221 -0.333255 0
M  V30 6623 C 597.6 1.6481 0.558013 0
M  V30 6624 O 598.776 1.96212 0.454175 0
M  V30 6625 C 595.841 3.43708 0.454479 0
M  V30 6626 C 594.902 4.26774 -0.465024 0
M  V30 6627 C 594.135 5.32937 0.28521 0
M  V30 6628 O 594.358 5.49968 1.513 0
M  V30 6629 O 593.292 6.00834 -0.358126 0
M  V30 6630 H 597.118 2.80252 -1.17016 0
M  V30 6631 H 594.703 1.352 -0.635724 0
M  V30 6632 H 596.585 4.11656 0.900963 0
M  V30 6633 H 595.26 2.97836 1.26789 0
M  V30 6634 H 594.167 3.61571 -0.960055 0
M  V30 6635 H 595.5 4.76217 -1.2441 0
M  V30 6636 N 597.152 0.631951 1.44375 0
M  V30 6637 C 598.062 -0.073674 2.34484 0
M  V30 6638 C 599.078 -0.834825 1.52665 0
M  V30 6639 O 600.254 -0.786902 1.85391 0
M  V30 6640 C 597.319 -1.04247 3.30656 0
M  V30 6641 C 596.38 -0.280602 4.28382 0
M  V30 6642 C 595.613 -1.20325 5.19959 0
M  V30 6643 O 595.836 -2.44199 5.15484 0
M  V30 6644 O 594.77 -0.687128 5.97965 0
M  V30 6645 H 598.596 0.667477 2.96274 0
M  V30 6646 H 596.181 0.392144 1.44162 0
M  V30 6647 H 598.063 -1.59981 3.89851 0
M  V30 6648 H 596.738 -1.76422 2.71398 0
M  V30 6649 H 595.645 0.319804 3.72731 0
M  V30 6650 H 596.978 0.401144 4.90563 0
M  V30 6651 N 598.631 -1.53133 0.372548 0
M  V30 6652 C 599.563 -2.23557 -0.505444 0
M  V30 6653 C 600.576 -1.25211 -1.04049 0
M  V30 6654 O 601.765 -1.51391 -0.945675 0
M  V30 6655 C 598.865 -2.92516 -1.71136 0
M  V30 6656 C 598.038 -4.17428 -1.30661 0
M  V30 6657 C 597.097 -4.69535 -2.37536 0
M  V30 6658 O 596.123 -5.33042 -1.99637 0
M  V30 6659 N 597.325 -4.47947 -3.6922 0
M  V30 6660 H 600.09 -2.9954 0.0978259 0
M  V30 6661 H 597.651 -1.60684 0.198068 0
M  V30 6662 H 599.643 -3.24281 -2.42124 0
M  V30 6663 H 598.213 -2.19944 -2.22134 0
M  V30 6664 H 597.433 -3.91888 -0.426292 0
M  V30 6665 H 598.721 -4.98622 -1.01259 0
M  V30 6666 H 598.119 -3.97219 -4.02783 0
M  V30 6667 H 596.676 -4.84245 -4.36292 0
M  V30 6668 N 600.109 -0.101901 -1.5727 0
M  V30 6669 C 601.057 0.872034 -2.15635 0
M  V30 6670 C 602.051 1.28742 -1.10099 0
M  V30 6671 O 603.257 1.26116 -1.28432 0
M  V30 6672 H 599.632 0.299269 -0.689886 0
M  V30 6673 H 601.603 0.355137 -2.96279 0
M  V30 6674 C 600.352 2.11886 -2.7568 0
M  V30 6675 H 599.675 1.80813 -3.56576 0
M  V30 6676 H 601.115 2.78077 -3.20077 0
M  V30 6677 C 599.574 2.89739 -1.7191 0
M  V30 6678 O 600.104 3.84522 -1.16213 0
M  V30 6679 N 598.31 2.53407 -1.42245 0
M  V30 6680 H 597.857 1.76398 -1.87727 0
M  V30 6681 H 597.815 3.05795 -0.730529 0
M  V30 6682 N 601.587 1.56661 0.17182 0
M  V30 6683 C 602.534 1.96371 1.21273 0
M  V30 6684 C 603.504 0.82756 1.44016 0
M  V30 6685 O 604.689 1.08764 1.56764 0
M  V30 6686 C 601.829 2.32838 2.54716 0
M  V30 6687 C 600.942 3.59628 2.39356 0
M  V30 6688 C 600.077 3.85311 3.65662 0
M  V30 6689 C 599.116 5.0545 3.45234 0
M  V30 6690 N 598.253 5.27268 4.63608 0
M  V30 6691 H 603.093 2.85106 0.86709 0
M  V30 6692 H 600.63 1.41073 0.416744 0
M  V30 6693 H 602.588 2.52004 3.3249 0
M  V30 6694 H 601.218 1.47214 2.87277 0
M  V30 6695 H 600.27 3.4838 1.52761 0
M  V30 6696 H 601.582 4.4756 2.20207 0
M  V30 6697 H 600.736 4.04841 4.51872 0
M  V30 6698 H 599.475 2.95753 3.8779 0
M  V30 6699 H 598.48 4.85819 2.5741 0
M  V30 6700 H 599.705 5.96538 3.24529 0
M  V30 6701 H 597.651 4.40662 4.85956 0
M  V30 6702 H 597.568 6.09422 4.4737 0
M  V30 6703 H 598.836 5.51277 5.51103 0
M  V30 6704 N 603.065 -0.440357 1.51323 0
M  V30 6705 C 604.013 -1.55492 1.72988 0
M  V30 6706 C 605.007 -1.58564 0.596138 0
M  V30 6707 O 606.213 -1.62345 0.777443 0
M  V30 6708 H 602.588 -0.516532 0.546533 0
M  V30 6709 H 604.559 -1.34392 2.66423 0
M  V30 6710 C 603.308 -2.93176 1.86931 0
M  V30 6711 H 602.631 -2.91543 2.73574 0
M  V30 6712 H 604.071 -3.70537 2.06103 0
M  V30 6713 C 602.53 -3.30988 0.628365 0
M  V30 6714 O 603.06 -4.01106 -0.218367 0
M  V30 6715 N 601.266 -2.86719 0.473339 0
M  V30 6716 H 600.813 -2.2983 1.16345 0
M  V30 6717 H 600.771 -3.12381 -0.355727 0
M  V30 6718 N 604.543 -1.41418 -0.695603 0
M  V30 6719 C 605.789 -1.40982 -1.4578 0
M  V30 6720 C 606.122 -0.0187763 -1.94191 0
M  V30 6721 O 605.397 0.95346 -1.69527 0
M  V30 6722 C 605.68 -2.41657 -2.66972 0
M  V30 6723 C 605.533 -3.89869 -2.24327 0
M  V30 6724 C 606.852 -2.39589 -3.69168 0
M  V30 6725 H 603.971 -0.513405 -0.528757 0
M  V30 6726 H 606.613 -1.72693 -0.792275 0
M  V30 6727 H 604.763 -2.14746 -3.23754 0
M  V30 6728 H 606.435 -4.27683 -1.72872 0
M  V30 6729 H 604.678 -4.04737 -1.56111 0
M  V30 6730 H 605.349 -4.55857 -3.11285 0
M  V30 6731 H 607.825 -2.63471 -3.2206 0
M  V30 6732 H 606.701 -3.12044 -4.51575 0
M  V30 6733 H 606.962 -1.41447 -4.18862 0
M  V30 6734 N 606.021 0.929856 -1.27246 0
M  V30 6735 C 606.984 2.01172 -1.09829 0
M  V30 6736 C 607.984 1.60743 -0.0429687 0
M  V30 6737 O 609.174 1.71813 -0.287373 0
M  V30 6738 C 606.306 3.34191 -0.673003 0
M  V30 6739 H 607.499 2.18054 -2.05895 0
M  V30 6740 H 605.052 1.11036 -1.10003 0
M  V30 6741 H 605.787 3.23009 0.289134 0
M  V30 6742 H 605.572 3.64892 -1.43515 0
M  V30 6743 H 607.062 4.13646 -0.573323 0
M  V30 6744 N 607.499 1.09233 1.13605 0
M  V30 6745 C 608.462 0.733553 2.17144 0
M  V30 6746 C 609.462 -0.235873 1.59061 0
M  V30 6747 O 610.652 -0.0143167 1.74194 0
M  V30 6748 C 607.784 0.084471 3.40795 0
M  V30 6749 H 608.977 1.65049 2.50397 0
M  V30 6750 H 606.53 0.891264 1.28399 0
M  V30 6751 H 607.265 -0.843795 3.1313 0
M  V30 6752 H 607.05 0.781985 3.84223 0
M  V30 6753 H 608.54 -0.151216 4.17326 0
M  V30 6754 N 608.977 -1.30795 0.87923 0
M  V30 6755 C 609.887 -2.32041 0.345565 0
M  V30 6756 C 610.903 -1.65103 -0.549265 0
M  V30 6757 O 612.079 -1.9645 -0.443763 0
M  V30 6758 C 609.144 -3.43944 -0.436245 0
M  V30 6759 C 608.205 -4.26521 0.48765 0
M  V30 6760 C 607.438 -5.33081 -0.256943 0
M  V30 6761 O 607.661 -5.50762 -1.48381 0
M  V30 6762 O 606.595 -6.00635 0.389985 0
M  V30 6763 H 610.421 -2.79627 1.18501 0
M  V30 6764 H 608.006 -1.3486 0.642885 0
M  V30 6765 H 609.888 -4.12128 -0.879119 0
M  V30 6766 H 608.563 -2.98504 -1.25208 0
M  V30 6767 H 607.47 -3.61057 0.979216 0
M  V30 6768 H 608.803 -4.75551 1.26933 0
M  V30 6769 N 610.455 -0.639598 -1.44038 0
M  V30 6770 C 611.704 -0.144885 -2.01179 0
M  V30 6771 C 612.017 1.24372 -1.50967 0
M  V30 6772 O 613.223 1.83291 -2.00292 0
M  V30 6773 C 611.679 -0.208244 -3.59297 0
M  V30 6774 C 611.287 -1.59869 -4.18504 0
M  V30 6775 C 613.031 0.229568 -4.23879 0
M  V30 6776 C 610.938 -1.61671 -5.68873 0
M  V30 6777 H 609.868 -0.0504005 -0.752314 0
M  V30 6778 H 612.519 -0.799639 -1.65161 0
M  V30 6779 H 610.901 0.513767 -3.92653 0
M  V30 6780 H 612.075 -2.34496 -3.96671 0
M  V30 6781 H 610.39 -1.98131 -3.66242 0
M  V30 6782 H 612.987 0.235758 -5.3418 0
M  V30 6783 H 613.33 1.25848 -3.96822 0
M  V30 6784 H 613.863 -0.440233 -3.95357 0
M  V30 6785 H 610.602 -2.62427 -6.00677 0
M  V30 6786 H 610.122 -0.913489 -5.92803 0
M  V30 6787 H 611.801 -1.35439 -6.32665 0
M  V30 6788 N 611.933 1.52934 -0.380664 0
M  V30 6789 C 612.843 2.29921 0.466192 0
M  V30 6790 C 613.859 1.36488 1.07922 0
M  V30 6791 O 615.035 1.69553 1.0869 0
M  V30 6792 C 612.1 3.08468 1.58266 0
M  V30 6793 C 611.161 4.17595 0.995627 0
M  V30 6794 C 610.394 4.92387 2.05889 0
M  V30 6795 O 610.617 4.67184 3.27254 0
M  V30 6796 O 609.551 5.77949 1.68102 0
M  V30 6797 H 613.377 3.03274 -0.160735 0
M  V30 6798 H 610.962 1.48698 -0.144617 0
M  V30 6799 H 612.844 3.57469 2.23145 0
M  V30 6800 H 611.519 2.37937 2.19471 0
M  V30 6801 H 610.426 3.72811 0.310332 0
M  V30 6802 H 611.759 4.90336 0.427918 0
M  V30 6803 N 613.412 0.11024 1.57214 0
M  V30 6804 C 614.375 -0.828808 2.1369 0
M  V30 6805 C 615.375 -1.20059 1.06969 0
M  V30 6806 O 616.565 -1.12754 1.32786 0
M  V30 6807 C 613.697 -2.11959 2.66994 0
M  V30 6808 H 614.89 -0.338146 2.97988 0
M  V30 6809 H 612.443 -0.138913 1.55681 0
M  V30 6810 H 613.178 -2.65476 1.8626 0
M  V30 6811 H 612.963 -1.86258 3.45037 0
M  V30 6812 H 614.453 -2.79105 3.10629 0
M  V30 6813 N 614.89 -1.56749 -0.16351 0
M  V30 6814 C 615.837 -1.97011 -1.2023 0
M  V30 6815 C 616.807 -0.835186 -1.43575 0
M  V30 6816 O 617.992 -1.09594 -1.56185 0
M  V30 6817 C 615.132 -2.34186 -2.53478 0
M  V30 6818 C 614.245 -3.60893 -2.37446 0
M  V30 6819 C 613.38 -3.87245 -3.63614 0
M  V30 6820 C 612.419 -5.07274 -3.42548 0
M  V30 6821 N 611.556 -5.29719 -4.60806 0
M  V30 6822 H 616.396 -2.85562 -0.851958 0
M  V30 6823 H 613.933 -1.41292 -0.409257 0
M  V30 6824 H 615.891 -2.53764 -3.31149 0
M  V30 6825 H 614.521 -1.48736 -2.86492 0
M  V30 6826 H 613.573 -3.49185 -1.50911 0
M  V30 6827 H 614.885 -4.48722 -2.1783 0
M  V30 6828 H 614.039 -4.07232 -4.49719 0
M  V30 6829 H 612.778 -2.97806 -3.86216 0
M  V30 6830 H 611.783 -4.87177 -2.5483 0
M  V30 6831 H 613.008 -5.98251 -3.2136 0
M  V30 6832 H 610.954 -4.43233 -4.83612 0
M  V30 6833 H 610.871 -6.11786 -4.44132 0
M  V30 6834 H 612.139 -5.54192 -5.48171 0
M  V30 6835 N 616.368 0.432326 -1.51554 0
M  V30 6836 C 617.278 1.55023 -1.76082 0
M  V30 6837 C 618.294 1.61593 -0.645265 0
M  V30 6838 O 619.47 1.78742 -0.928086 0
M  V30 6839 C 616.535 2.90964 -1.88523 0
M  V30 6840 C 615.596 2.9447 -3.12388 0
M  V30 6841 C 614.829 4.23926 -3.24225 0
M  V30 6842 O 615.052 5.16576 -2.4188 0
M  V30 6843 O 613.986 4.33818 -4.17235 0
M  V30 6844 H 617.812 1.37238 -2.70923 0
M  V30 6845 H 615.397 0.615845 -1.36117 0
M  V30 6846 H 617.279 3.71633 -1.98662 0
M  V30 6847 H 615.954 3.08865 -0.9687 0
M  V30 6848 H 614.861 2.12737 -3.07723 0
M  V30 6849 H 616.194 2.81514 -4.03746 0
M  V30 6850 N 617.846 1.41785 0.688094 0
M  V30 6851 C 618.793 1.44221 1.80191 0
M  V30 6852 C 619.763 0.295688 1.63447 0
M  V30 6853 O 620.948 0.49783 1.84191 0
M  V30 6854 C 618.088 1.33743 3.1813 0
M  V30 6855 C 617.201 2.58325 3.46254 0
M  V30 6856 C 616.336 2.40086 4.73848 0
M  V30 6857 C 615.375 3.60107 4.94964 0
M  V30 6858 N 614.512 3.40892 6.13789 0
M  V30 6859 H 619.352 2.39411 1.77444 0
M  V30 6860 H 616.889 1.18876 0.866423 0
M  V30 6861 H 618.847 1.25669 3.97823 0
M  V30 6862 H 617.477 0.42157 3.20035 0
M  V30 6863 H 616.529 2.7682 2.60912 0
M  V30 6864 H 617.841 3.4758 3.57756 0
M  V30 6865 H 616.995 2.29522 5.61609 0
M  V30 6866 H 615.734 1.483 4.64606 0
M  V30 6867 H 614.739 3.71118 4.05649 0
M  V30 6868 H 615.964 4.52857 5.06061 0
M  V30 6869 H 613.91 2.51812 6.05745 0
M  V30 6870 H 613.827 4.23727 6.26092 0
M  V30 6871 H 615.095 3.34114 7.04264 0
M  V30 6872 N 619.324 -0.923095 1.27737 0
M  V30 6873 C 620.257 -2.02515 1.05181 0
M  V30 6874 C 621.235 -1.62574 -0.0292204 0
M  V30 6875 O 622.419 -1.88137 0.116848 0
M  V30 6876 C 619.546 -3.33407 0.596468 0
M  V30 6877 C 618.592 -3.92328 1.67276 0
M  V30 6878 S 619.425 -4.24342 3.26641 0
M  V30 6879 C 620.581 -5.58308 2.82919 0
M  V30 6880 H 620.814 -2.21336 1.98488 0
M  V30 6881 H 618.347 -1.06679 1.1162 0
M  V30 6882 H 620.305 -4.09086 0.34044 0
M  V30 6883 H 618.966 -3.125 -0.316614 0
M  V30 6884 H 618.159 -4.86797 1.30556 0
M  V30 6885 H 617.761 -3.2325 1.8811 0
M  V30 6886 H 620.053 -6.37801 2.28509 0
M  V30 6887 H 620.996 -5.99931 3.7615 0
M  V30 6888 H 621.404 -5.19049 2.21919 0
M  V30 6889 N 620.802 -1.09834 -1.13024 0
M  V30 6890 C 622.049 -0.83695 -1.84395 0
M  V30 6891 C 622.377 0.637463 -1.83757 0
M  V30 6892 O 621.632 1.48554 -1.27398 0
M  V30 6893 C 621.931 -1.32263 -3.32026 0
M  V30 6894 C 621.597 -2.80739 -3.52841 0
M  V30 6895 C 620.259 -3.21286 -3.5823 0
M  V30 6896 C 622.611 -3.76449 -3.60466 0
M  V30 6897 C 619.939 -4.56308 -3.68781 0
M  V30 6898 C 622.291 -5.11266 -3.72546 0
M  V30 6899 C 620.955 -5.51397 -3.76189 0
M  V30 6900 H 620.225 -0.306262 -0.674748 0
M  V30 6901 H 622.872 -1.37385 -1.33408 0
M  V30 6902 H 621.177 -0.705618 -3.85394 0
M  V30 6903 H 622.874 -1.09695 -3.85705 0
M  V30 6904 H 619.464 -2.48363 -3.49305 0
M  V30 6905 H 623.648 -3.46234 -3.55578 0
M  V30 6906 H 618.904 -4.86832 -3.69871 0
M  V30 6907 H 623.078 -5.85279 -3.77388 0
M  V30 6908 H 620.705 -6.56017 -3.84117 0
M  V30 6909 N 622.28 1.30327 -0.886154 0
M  V30 6910 C 623.212 2.27079 -0.311072 0
M  V30 6911 C 624.225 1.53758 0.53502 0
M  V30 6912 O 625.414 1.74947 0.354378 0
M  V30 6913 C 622.514 3.33965 0.576228 0
M  V30 6914 C 621.687 4.36735 -0.241064 0
M  V30 6915 C 620.746 5.23028 0.576916 0
M  V30 6916 O 619.772 5.692 -0.000802231 0
M  V30 6917 N 620.974 5.49016 1.88579 0
M  V30 6918 H 623.739 2.77065 -1.14259 0
M  V30 6919 H 621.3 1.43519 -0.749258 0
M  V30 6920 H 623.292 3.88618 1.12953 0
M  V30 6921 H 621.862 2.839 1.30842 0
M  V30 6922 H 621.082 3.81932 -0.975805 0
M  V30 6923 H 622.37 5.02451 -0.801272 0
M  V30 6924 H 621.768 5.13288 2.37806 0
M  V30 6925 H 620.325 6.06539 2.38651 0
M  V30 6926 N 623.758 0.647228 1.43697 0
M  V30 6927 C 624.668 -0.0487997 2.34549 0
M  V30 6928 C 625.684 -0.818586 1.53542 0
M  V30 6929 O 626.86 -0.767195 1.86215 0
M  V30 6930 C 623.925 -1.00734 3.31743 0
M  V30 6931 C 622.986 -0.23515 4.28655 0
M  V30 6932 C 622.219 -1.14803 5.21206 0
M  V30 6933 O 622.442 -2.38717 5.18045 0
M  V30 6934 O 621.376 -0.623667 5.9866 0
M  V30 6935 H 625.202 0.698863 2.9555 0
M  V30 6936 H 622.787 0.407412 1.43738 0
M  V30 6937 H 624.669 -1.55837 3.91526 0
M  V30 6938 H 623.344 -1.73534 2.73254 0
M  V30 6939 H 622.251 0.359319 3.7237 0
M  V30 6940 H 623.584 0.453152 4.9011 0
M  V30 6941 N 625.236 -1.5273 0.388769 0
M  V30 6942 C 626.199 -2.25043 -0.434544 0
M  V30 6943 C 627.199 -1.26661 -0.990644 0
M  V30 6944 O 628.389 -1.50762 -0.872731 0
M  V30 6945 C 625.521 -3.00507 -1.60961 0
M  V30 6946 H 626.714 -2.99242 0.198549 0
M  V30 6947 H 624.267 -1.55664 0.140875 0
M  V30 6948 H 625.002 -2.30607 -2.28015 0
M  V30 6949 H 624.787 -3.72716 -1.21757 0
M  V30 6950 H 626.277 -3.55413 -2.19251 0
M  V30 6951 N 626.714 -0.118576 -1.57153 0
M  V30 6952 C 627.646 0.862247 -2.12363 0
M  V30 6953 C 628.659 1.23025 -1.06625 0
M  V30 6954 O 629.848 1.17927 -1.33998 0
M  V30 6955 C 626.948 2.16425 -2.60794 0
M  V30 6956 C 626.121 1.96801 -3.90626 0
M  V30 6957 C 625.18 3.10726 -4.2466 0
M  V30 6958 O 624.206 2.83659 -4.93484 0
M  V30 6959 N 625.408 4.37147 -3.81946 0
M  V30 6960 H 628.173 0.390564 -2.97144 0
M  V30 6961 H 625.734 0.0658591 -1.61766 0
M  V30 6962 H 627.726 2.91633 -2.80593 0
M  V30 6963 H 626.296 2.54943 -1.80895 0
M  V30 6964 H 625.516 1.05787 -3.7974 0
M  V30 6965 H 626.804 1.80993 -4.7552 0
M  V30 6966 H 626.202 4.62014 -3.26435 0
M  V30 6967 H 624.759 5.09229 -4.06853 0
M  V30 6968 N 628.193 1.56834 0.155195 0
M  V30 6969 C 629.125 1.94235 1.21677 0
M  V30 6970 C 630.138 0.83724 1.39621 0
M  V30 6971 O 631.327 1.11567 1.39338 0
M  V30 6972 C 628.427 2.19402 2.58294 0
M  V30 6973 C 627.6 3.50671 2.61436 0
M  V30 6974 C 626.659 3.64475 3.79532 0
M  V30 6975 O 625.685 4.36945 3.64784 0
M  V30 6976 N 626.887 3.00526 4.96653 0
M  V30 6977 H 629.652 2.85901 0.898932 0
M  V30 6978 H 627.213 1.58185 0.34483 0
M  V30 6979 H 629.205 2.25886 3.35794 0
M  V30 6980 H 627.775 1.34042 2.82403 0
M  V30 6981 H 626.995 3.55702 1.69912 0
M  V30 6982 H 628.283 4.3702 2.60559 0
M  V30 6983 H 627.681 2.41549 5.11538 0
M  V30 6984 H 626.238 3.12583 5.71958 0
M  V30 6985 N 629.671 -0.424282 1.51781 0
M  V30 6986 C 630.601 -1.52305 1.7699 0
M  V30 6987 C 631.582 -1.5839 0.620209 0
M  V30 6988 O 632.767 -1.73908 0.864268 0
M  V30 6989 C 629.897 -2.90271 1.90683 0
M  V30 6990 C 628.851 -2.99043 3.06198 0
M  V30 6991 C 628.177 -4.39116 3.05092 0
M  V30 6992 C 629.477 -2.7192 4.45934 0
M  V30 6993 H 631.171 -1.31461 2.68995 0
M  V30 6994 H 628.717 -0.630985 1.29439 0
M  V30 6995 H 630.67 -3.6711 2.06901 0
M  V30 6996 H 629.394 -3.12376 0.953365 0
M  V30 6997 H 628.053 -2.24646 2.89706 0
M  V30 6998 H 627.701 -4.58207 2.07498 0
M  V30 6999 H 627.401 -4.45912 3.82669 0
M  V30 7000 H 628.925 -5.17911 3.2342 0
M  V30 7001 H 630.339 -3.38487 4.62709 0
M  V30 7002 H 628.736 -2.90111 5.25315 0
M  V30 7003 H 629.806 -1.67445 4.55072 0
M  V30 7004 N 631.149 -1.42148 -0.680565 0
M  V30 7005 C 632.079 -1.4796 -1.80638 0
M  V30 7006 C 633.06 -0.336728 -1.66734 0
M  V30 7007 O 634.245 -0.550247 -1.86242 0
M  V30 7008 C 631.375 -1.37569 -3.18892 0
M  V30 7009 C 630.329 -2.49823 -3.47524 0
M  V30 7010 C 629.655 -2.24491 -4.85291 0
M  V30 7011 C 630.955 -3.92144 -3.44994 0
M  V30 7012 H 632.649 -2.42184 -1.76032 0
M  V30 7013 H 630.195 -1.16566 -0.845481 0
M  V30 7014 H 632.148 -1.40243 -3.97379 0
M  V30 7015 H 630.872 -0.398357 -3.24162 0
M  V30 7016 H 629.531 -2.46455 -2.71395 0
M  V30 7017 H 629.179 -1.25066 -4.87204 0
M  V30 7018 H 628.879 -2.99722 -5.05411 0
M  V30 7019 H 630.403 -2.28906 -5.66069 0
M  V30 7020 H 631.817 -3.97145 -4.13459 0
M  V30 7021 H 630.214 -4.67179 -3.76648 0
M  V30 7022 H 631.284 -4.19225 -2.43676 0
M  V30 7023 N 632.627 0.916307 -1.28225 0
M  V30 7024 C 633.574 2.01841 -1.11932 0
M  V30 7025 C 634.544 1.66091 -0.0171604 0
M  V30 7026 O 635.729 1.89934 -0.181617 0
M  V30 7027 C 632.869 3.36065 -0.784504 0
M  V30 7028 C 631.982 3.847 -1.96544 0
M  V30 7029 C 631.117 5.07423 -1.57149 0
M  V30 7030 C 630.156 5.48384 -2.71922 0
M  V30 7031 N 629.293 6.62298 -2.33037 0
M  V30 7032 H 634.133 2.1511 -2.06232 0
M  V30 7033 H 631.67 1.05366 -1.02647 0
M  V30 7034 H 633.628 4.13272 -0.571148 0
M  V30 7035 H 632.258 3.22571 0.121565 0
M  V30 7036 H 631.31 3.03673 -2.291 0
M  V30 7037 H 632.622 4.1102 -2.82603 0
M  V30 7038 H 631.776 5.92165 -1.32004 0
M  V30 7039 H 630.515 4.82906 -0.682153 0
M  V30 7040 H 629.52 4.62184 -2.97768 0
M  V30 7041 H 630.745 5.7489 -3.61494 0
M  V30 7042 H 628.691 6.39416 -1.4657 0
M  V30 7043 H 628.608 6.8833 -3.12631 0
M  V30 7044 H 629.876 7.50352 -2.11169 0
M  V30 7045 N 634.105 1.10431 1.1244 0
M  V30 7046 C 635.015 0.765502 2.21759 0
M  V30 7047 C 636.031 -0.236966 1.72379 0
M  V30 7048 O 637.207 -0.0757329 2.01258 0
M  V30 7049 C 634.272 0.202316 3.46109 0
M  V30 7050 C 633.333 1.26205 4.1033 0
M  V30 7051 C 632.566 0.725648 5.28744 0
M  V30 7052 O 632.789 -0.447942 5.68638 0
M  V30 7053 O 631.723 1.48555 5.83279 0
M  V30 7054 H 635.549 1.67801 2.53133 0
M  V30 7055 H 633.134 0.879443 1.20773 0
M  V30 7056 H 635.016 -0.107918 4.21262 0
M  V30 7057 H 633.691 -0.683052 3.16411 0
M  V30 7058 H 632.598 1.62514 3.36957 0
M  V30 7059 H 633.931 2.12044 4.44183 0
M  V30 7060 N 635.583 -1.29855 0.893053 0
M  V30 7061 C 636.493 -2.31661 0.370157 0
M  V30 7062 C 637.509 -1.65677 -0.531723 0
M  V30 7063 O 638.685 -1.9691 -0.422902 0
M  V30 7064 C 635.75 -3.44388 -0.399741 0
M  V30 7065 C 634.811 -4.2598 0.532861 0
M  V30 7066 C 634.044 -5.33324 -0.200388 0
M  V30 7067 O 634.267 -5.52305 -1.42531 0
M  V30 7068 O 633.201 -6.00188 0.453668 0
M  V30 7069 H 637.027 -2.78354 1.2146 0
M  V30 7070 H 634.612 -1.34171 0.657153 0
M  V30 7071 H 636.494 -4.13037 -0.835358 0
M  V30 7072 H 635.169 -2.99815 -1.22035 0
M  V30 7073 H 634.076 -3.59998 1.01746 0
M  V30 7074 H 635.409 -4.74178 1.3197 0
M  V30 7075 N 637.061 -0.65484 -1.43351 0
M  V30 7076 C 638.008 0.0357713 -2.30772 0
M  V30 7077 C 638.978 0.813035 -1.44841 0
M  V30 7078 O 640.163 0.789314 -1.73708 0
M  V30 7079 C 637.303 0.995084 -3.30442 0
M  V30 7080 C 636.416 0.21375 -4.31471 0
M  V30 7081 C 635.551 1.16701 -5.18222 0
M  V30 7082 C 634.59 0.376201 -6.10943 0
M  V30 7083 N 633.727 1.28113 -6.90313 0
M  V30 7084 H 638.567 -0.71559 -2.89281 0
M  V30 7085 H 636.104 -0.364645 -1.42509 0
M  V30 7086 H 638.062 1.5649 -3.86739 0
M  V30 7087 H 636.692 1.7133 -2.7358 0
M  V30 7088 H 635.744 -0.472377 -3.77456 0
M  V30 7089 H 637.056 -0.401103 -4.97185 0
M  V30 7090 H 636.21 1.8074 -5.79153 0
M  V30 7091 H 634.949 1.81577 -4.52638 0
M  V30 7092 H 633.954 -0.277534 -5.49099 0
M  V30 7093 H 635.179 -0.268178 -6.7857 0
M  V30 7094 H 633.125 1.91666 -6.27376 0
M  V30 7095 H 633.042 0.720879 -7.52555 0
M  V30 7096 H 634.31 1.90962 -7.55747 0
M  V30 7097 N 638.539 1.52521 -0.396863 0
M  V30 7098 C 639.449 2.30403 0.44178 0
M  V30 7099 C 640.465 1.37625 1.06468 0
M  V30 7100 O 641.641 1.70697 1.06886 0
M  V30 7101 C 638.706 3.1013 1.54986 0
M  V30 7102 C 637.767 4.18628 0.951279 0
M  V30 7103 C 637 4.94543 2.00655 0
M  V30 7104 O 637.223 4.70629 3.22281 0
M  V30 7105 O 636.157 5.797 1.61962 0
M  V30 7106 H 639.983 3.03087 -0.192892 0
M  V30 7107 H 637.568 1.48537 -0.16038 0
M  V30 7108 H 639.45 3.59816 2.19341 0
M  V30 7109 H 638.125 2.40251 2.16935 0
M  V30 7110 H 637.032 3.73119 0.270773 0
M  V30 7111 H 638.365 4.90763 0.375887 0
M  V30 7112 N 640.017 0.126909 1.57088 0
M  V30 7113 C 640.98 -0.806097 2.14557 0
M  V30 7114 C 641.98 -1.18918 1.08236 0
M  V30 7115 O 643.17 -1.11339 1.33975 0
M  V30 7116 C 640.302 -2.09116 2.69227 0
M  V30 7117 H 641.495 -0.306522 2.98329 0
M  V30 7118 H 639.048 -0.122393 1.5582 0
M  V30 7119 H 639.783 -2.63486 1.89065 0
M  V30 7120 H 639.568 -1.82588 3.46993 0
M  V30 7121 H 641.058 -2.75794 3.13572 0
M  V30 7122 N 641.495 -1.56914 -0.146875 0
M  V30 7123 C 642.425 -2.01308 -1.1831 0
M  V30 7124 C 643.406 -0.892664 -1.44795 0
M  V30 7125 O 644.591 -1.16048 -1.55713 0
M  V30 7126 C 641.721 -2.3938 -2.51624 0
M  V30 7127 C 640.675 -3.54608 -2.3966 0
M  V30 7128 C 640.001 -3.78493 -3.77686 0
M  V30 7129 C 641.301 -4.87269 -1.88058 0
M  V30 7130 H 642.995 -2.88123 -0.813964 0
M  V30 7131 H 640.541 -1.38615 -0.3901 0
M  V30 7132 H 642.494 -2.69037 -3.24341 0
M  V30 7133 H 641.218 -1.49502 -2.90373 0
M  V30 7134 H 639.877 -3.25116 -1.69396 0
M  V30 7135 H 639.525 -2.85866 -4.13871 0
M  V30 7136 H 639.225 -4.56039 -3.70543 0
M  V30 7137 H 640.749 -4.10576 -4.51951 0
M  V30 7138 H 642.163 -5.15644 -2.50568 0
M  V30 7139 H 640.56 -5.68622 -1.91805 0
M  V30 7140 H 641.63 -4.77634 -0.836277 0
M  V30 7141 N 642.974 0.416227 -1.52004 0
M  V30 7142 C 644.22 1.16555 -1.6596 0
M  V30 7143 C 644.553 1.90347 -0.384906 0
M  V30 7144 O 643.828 1.84474 0.616405 0
M  V30 7145 C 644.111 2.1657 -2.87696 0
M  V30 7146 C 643.964 1.46722 -4.25197 0
M  V30 7147 C 645.283 3.17321 -3.04951 0
M  V30 7148 H 642.402 0.422369 -0.603965 0
M  V30 7149 H 645.044 0.452141 -1.84542 0
M  V30 7150 H 643.194 2.77411 -2.71985 0
M  V30 7151 H 644.866 0.89056 -4.52622 0
M  V30 7152 H 643.109 0.769263 -4.26925 0
M  V30 7153 H 643.78 2.19665 -5.0641 0
M  V30 7154 H 646.256 2.66552 -3.19514 0
M  V30 7155 H 645.132 3.84573 -3.91656 0
M  V30 7156 H 645.393 3.84643 -2.17951 0
M  V30 7157 N 644.452 1.42507 0.673017 0
M  V30 7158 C 645.415 1.4582 1.76831 0
M  V30 7159 C 646.415 0.345542 1.57043 0
M  V30 7160 O 647.605 0.606447 1.63303 0
M  V30 7161 C 644.737 1.29158 3.15485 0
M  V30 7162 H 645.93 2.43345 1.7528 0
M  V30 7163 H 643.483 1.28981 0.882817 0
M  V30 7164 H 644.218 0.325626 3.22661 0
M  V30 7165 H 644.003 2.09797 3.31252 0
M  V30 7166 H 645.493 1.34363 3.95394 0
M  V30 7167 N 645.93 -0.909495 1.28709 0
M  V30 7168 C 646.863 -2.01388 1.07323 0
M  V30 7169 C 647.841 -1.62596 -0.0119757 0
M  V30 7170 O 649.025 -1.88003 0.136796 0
M  V30 7171 C 646.152 -3.32755 0.631797 0
M  V30 7172 C 645.198 -3.90532 1.71428 0
M  V30 7173 S 646.031 -4.20853 3.31124 0
M  V30 7174 C 647.187 -5.55276 2.88825 0
M  V30 7175 H 647.42 -2.19219 2.00824 0
M  V30 7176 H 644.953 -1.05489 1.12745 0
M  V30 7177 H 646.911 -4.08702 0.38381 0
M  V30 7178 H 645.572 -3.12818 -0.283451 0
M  V30 7179 H 644.765 -4.85385 1.35712 0
M  V30 7180 H 644.367 -3.21237 1.91528 0
M  V30 7181 H 646.659 -6.35341 2.3526 0
M  V30 7182 H 647.602 -5.95907 3.82492 0
M  V30 7183 H 648.01 -5.16666 2.27412 0
M  V30 7184 N 647.408 -1.11026 -1.11852 0
M  V30 7185 C 648.656 -0.854769 -1.83134 0
M  V30 7186 C 648.977 0.621375 -1.84835 0
M  V30 7187 O 648.247 1.45129 -1.31584 0
M  V30 7188 H 646.827 -0.313229 -0.678157 0
M  V30 7189 H 649.489 -1.40178 -1.35411 0
M  V30 7190 H 648.585 -1.22311 -2.87135 0
M  V30 7191 N 648.886 1.2938 -0.899927 0
M  V30 7192 C 650.135 1.9483 -0.521937 0
M  V30 7193 C 650.448 1.71725 0.936473 0
M  V30 7194 O 651.654 2.31282 1.42199 0
M  V30 7195 C 650.11 3.48911 -0.88255 0
M  V30 7196 C 649.718 3.80815 -2.35974 0
M  V30 7197 C 651.462 4.20595 -0.57448 0
M  V30 7198 C 649.369 5.28142 -2.66121 0
M  V30 7199 H 648.299 0.729285 -0.191468 0
M  V30 7200 H 650.95 1.47103 -1.09695 0
M  V30 7201 H 649.332 3.95293 -0.236459 0
M  V30 7202 H 650.506 3.45291 -3.05141 0
M  V30 7203 H 648.821 3.22271 -2.63686 0
M  V30 7204 H 651.418 5.29031 -0.776556 0
M  V30 7205 H 651.761 4.13442 0.487005 0
M  V30 7206 H 652.294 3.79945 -1.17842 0
M  V30 7207 H 649.033 5.4036 -3.71068 0
M  V30 7208 H 648.553 5.64913 -2.01578 0
M  V30 7209 H 650.232 5.95738 -2.52399 0
M  V30 7210 N 650.364 0.662433 1.43002 0
M  V30 7211 C 651.641 0.109096 1.95296 0
M  V30 7212 C 652.021 -1.37313 1.60338 0
M  V30 7213 O 651.369 -2.1032 0.893187 0
M  V30 7214 C 651.579 0.365096 3.47085 0
M  V30 7215 C 652.927 0.274964 4.23709 0
M  V30 7216 O 653.951 0.29816 3.5495 0
M  V30 7217 O 652.81 0.206549 5.4611 0
M  V30 7218 H 649.904 -0.00429724 0.826989 0
M  V30 7219 H 652.45 0.736308 1.52894 0
M  V30 7220 H 651.222 1.39237 3.65689 0
M  V30 7221 H 650.845 -0.294733 3.96506 0
M  V30 7222 N 651.842 -1.52309 0.404946 0
M  V30 7223 C 653.258 -1.59503 0.0556255 0
M  V30 7224 C 653.458 -1.41805 -1.43156 0
M  V30 7225 O 652.514 -1.2429 -2.19792 0
M  V30 7226 C 653.827 -2.95687 0.546801 0
M  V30 7227 C 655.375 -3.08909 0.504413 0
M  V30 7228 C 655.85 -4.47566 0.97203 0
M  V30 7229 N 657.341 -4.53795 0.928679 0
M  V30 7230 C 658.076 -5.59346 1.26174 0
M  V30 7231 N 657.572 -6.72469 1.66604 0
M  V30 7232 N 659.365 -5.49532 1.18198 0
M  V30 7233 H 651.516 -1.6206 1.37296 0
M  V30 7234 H 653.779 -0.762161 0.563751 0
M  V30 7235 H 653.485 -3.13905 1.58609 0
M  V30 7236 H 653.359 -3.77172 -0.0457905 0
M  V30 7237 H 655.746 -2.90378 -0.525819 0
M  V30 7238 H 655.827 -2.2934 1.13301 0
M  V30 7239 H 655.471 -4.6684 2.00057 0
M  V30 7240 H 655.401 -5.25625 0.320292 0
M  V30 7241 H 657.892 -3.72588 0.631369 0
M  V30 7242 H 658.205 -7.48993 1.9034 0
M  V30 7243 H 656.55 -6.73761 1.70504 0
M  V30 7244 H 659.741 -4.60038 0.865011 0
M  V30 7245 H 659.914 -6.31687 1.44485 0
M  V30 7246 N 653.32 -0.135238 -1.57019 0
M  V30 7247 C 654.545 0.529343 -2.00531 0
M  V30 7248 C 654.97 1.58391 -1.01459 0
M  V30 7249 O 654.328 1.81296 0.0113986 0
M  V30 7250 C 654.376 1.11748 -3.42848 0
M  V30 7251 O 653.48 2.23267 -3.46736 0
M  V30 7252 H 652.821 0.130669 -0.651016 0
M  V30 7253 H 655.351 -0.228503 -2.0332 0
M  V30 7254 H 655.361 1.44905 -3.81401 0
M  V30 7255 H 654.036 0.345147 -4.14465 0
M  V30 7256 H 652.613 1.91428 -3.20015 0
M  V30 7257 N 654.798 1.5699 0.138552 0
M  V30 7258 C 656.023 1.88344 0.86841 0
M  V30 7259 C 656.448 0.725159 1.7356 0
M  V30 7260 O 655.806 -0.324992 1.78363 0
M  V30 7261 C 655.854 3.18334 1.69398 0
M  V30 7262 O 654.958 3.02863 2.79907 0
M  V30 7263 H 654.299 0.618577 0.241367 0
M  V30 7264 H 656.829 2.04207 0.126826 0
M  V30 7265 H 656.839 3.50567 2.08726 0
M  V30 7266 H 655.514 4.02238 1.05725 0
M  V30 7267 H 654.091 2.82056 2.43924 0
M  V30 7268 N 656.276 -0.40816 1.52223 0
M  V30 7269 C 657.206 -1.5042 1.78595 0
M  V30 7270 C 658.187 -1.57723 0.636974 0
M  V30 7271 O 659.372 -1.72982 0.882664 0
M  V30 7272 C 656.502 -2.88232 1.93751 0
M  V30 7273 C 655.456 -2.95779 3.09352 0
M  V30 7274 C 654.782 -4.35855 3.09732 0
M  V30 7275 C 656.082 -2.67175 4.48793 0
M  V30 7276 H 657.776 -1.28601 2.70374 0
M  V30 7277 H 655.322 -0.617221 1.30101 0
M  V30 7278 H 657.275 -3.64895 2.10783 0
M  V30 7279 H 655.999 -3.11347 0.986443 0
M  V30 7280 H 654.658 -2.21561 2.92072 0
M  V30 7281 H 654.306 -4.55981 2.12346 0
M  V30 7282 H 654.006 -4.41829 3.87377 0
M  V30 7283 H 655.53 -5.14451 3.28895 0
M  V30 7284 H 656.944 -3.3356 4.66273 0
M  V30 7285 H 655.341 -2.84523 5.28362 0
M  V30 7286 H 656.411 -1.62609 4.56822 0
M  V30 7287 N 657.755 -1.42862 -0.66545 0
M  V30 7288 C 658.983 -1.47246 -1.45349 0
M  V30 7289 C 659.398 -0.0865944 -1.88601 0
M  V30 7290 O 658.755 0.900652 -1.58728 0
M  V30 7291 C 658.806 -2.40772 -2.6965 0
M  V30 7292 O 658.527 -3.73968 -2.2821 0
M  V30 7293 C 660.028 -2.54272 -3.63126 0
M  V30 7294 H 657.248 -0.500497 -0.446927 0
M  V30 7295 H 659.792 -1.87477 -0.816871 0
M  V30 7296 H 657.947 -2.0377 -3.29479 0
M  V30 7297 H 658.361 -4.24146 -3.08546 0
M  V30 7298 H 659.835 -3.23815 -4.47043 0
M  V30 7299 H 660.312 -1.58364 -4.09656 0
M  V30 7300 H 660.918 -2.92036 -3.09185 0
M  V30 7301 N 659.233 0.902656 -1.29189 0
M  V30 7302 C 660.458 1.69167 -1.19989 0
M  V30 7303 C 660.883 1.86607 0.236495 0
M  V30 7304 O 660.241 1.38425 1.17082 0
M  V30 7305 C 660.289 3.05532 -1.91527 0
M  V30 7306 O 659.393 3.93621 -1.2303 0
M  V30 7307 H 658.734 0.517584 -0.415936 0
M  V30 7308 H 661.264 1.12785 -1.70706 0
M  V30 7309 H 661.274 3.55693 -1.99866 0
M  V30 7310 H 659.949 2.92156 -2.96003 0
M  V30 7311 H 658.526 3.52055 -1.22928 0
M  V30 7312 N 660.711 1.11618 1.11262 0
M  V30 7313 C 661.641 0.79846 2.19424 0
M  V30 7314 C 662.622 -0.234003 1.68483 0
M  V30 7315 O 663.807 -0.0970704 1.93957 0
M  V30 7316 C 660.937 0.242892 3.4645 0
M  V30 7317 C 659.891 1.20744 4.10615 0
M  V30 7318 C 659.217 0.512494 5.32238 0
M  V30 7319 C 660.517 2.55884 4.55325 0
M  V30 7320 H 662.211 1.70286 2.46258 0
M  V30 7321 H 659.757 0.820195 1.18359 0
M  V30 7322 H 661.71 0.00840447 4.21399 0
M  V30 7323 H 660.434 -0.696811 3.1908 0
M  V30 7324 H 659.093 1.42759 3.37662 0
M  V30 7325 H 658.741 -0.432075 5.01141 0
M  V30 7326 H 658.441 1.15583 5.7612 0
M  V30 7327 H 659.965 0.286842 6.09926 0
M  V30 7328 H 661.379 2.37946 5.21588 0
M  V30 7329 H 659.776 3.16216 5.10027 0
M  V30 7330 H 660.846 3.14968 3.68678 0
M  V30 7331 N 662.189 -1.289 0.906776 0
M  V30 7332 C 663.099 -2.31256 0.394707 0
M  V30 7333 C 664.115 -1.66231 -0.514121 0
M  V30 7334 O 665.291 -1.97347 -0.401994 0
M  V30 7335 C 662.356 -3.44792 -0.363191 0
M  V30 7336 C 661.417 -4.25391 0.578012 0
M  V30 7337 C 660.65 -5.33506 -0.143811 0
M  V30 7338 O 660.873 -5.53786 -1.36665 0
M  V30 7339 O 659.807 -5.99673 0.5173 0
M  V30 7340 H 663.633 -2.77051 1.24405 0
M  V30 7341 H 661.218 -1.33466 0.671346 0
M  V30 7342 H 663.1 -4.139 -0.791503 0
M  V30 7343 H 661.775 -3.01093 -1.18848 0
M  V30 7344 H 660.682 -3.58899 1.05558 0
M  V30 7345 H 662.015 -4.72752 1.36992 0
M  V30 7346 N 663.667 -0.670007 -1.42649 0
M  V30 7347 C 664.895 -0.19854 -2.05945 0
M  V30 7348 C 665.31 1.14243 -1.50313 0
M  V30 7349 O 664.667 1.70872 -0.641027 0
M  V30 7350 C 664.718 -0.11966 -3.61302 0
M  V30 7351 O 664.439 -1.40764 -4.1487 0
M  V30 7352 C 665.94 0.375878 -4.41704 0
M  V30 7353 H 663.16 -0.0976894 -0.663851 0
M  V30 7354 H 665.704 -0.915392 -1.82868 0
M  V30 7355 H 663.859 0.547851 -3.83507 0
M  V30 7356 H 664.273 -1.27784 -5.08696 0
M  V30 7357 H 665.747 0.379988 -5.50691 0
M  V30 7358 H 666.224 1.41028 -4.15942 0
M  V30 7359 H 666.83 -0.259727 -4.24506 0
M  V30 7360 N 665.145 1.52092 -0.413018 0
M  V30 7361 C 666.37 2.06756 0.163338 0
M  V30 7362 C 666.795 1.28073 1.37764 0
M  V30 7363 O 666.153 0.312015 1.78595 0
M  V30 7364 C 666.201 3.57278 0.488322 0
M  V30 7365 O 665.305 3.80986 1.57871 0
M  V30 7366 H 664.646 0.663882 0.0125068 0
M  V30 7367 H 667.176 1.95988 -0.587339 0
M  V30 7368 H 667.186 4.01125 0.745836 0
M  V30 7369 H 665.861 4.13978 -0.399327 0
M  V30 7370 H 664.438 3.49017 1.31306 0
M  V30 7371 N 666.623 0.143563 1.56945 0
M  V30 7372 C 667.853 -0.514699 2.00086 0
M  V30 7373 C 668.261 -1.59184 1.0226 0
M  V30 7374 O 667.604 -1.83697 0.0110514 0
M  V30 7375 C 667.666 -1.17778 3.39659 0
M  V30 7376 C 667.33 -0.245657 4.56339 0
M  V30 7377 C 668.327 0.525343 5.17239 0
M  V30 7378 C 666.012 -0.149564 5.02077 0
M  V30 7379 C 668.006 1.37992 6.22284 0
M  V30 7380 C 665.693 0.708621 6.06978 0
M  V30 7381 C 666.691 1.47197 6.6695 0
M  V30 7382 O 666.379 2.31586 7.6982 0
M  V30 7383 H 666.111 -0.138789 0.661599 0
M  V30 7384 H 668.665 0.234098 2.04062 0
M  V30 7385 H 666.895 -1.97415 3.32512 0
M  V30 7386 H 668.584 -1.73542 3.6693 0
M  V30 7387 H 669.35 0.461118 4.82803 0
M  V30 7388 H 665.229 -0.733457 4.55128 0
M  V30 7389 H 668.773 1.97621 6.69023 0
M  V30 7390 H 664.67 0.77415 6.40841 0
M  V30 7391 H 665.438 2.24796 7.87025 0
M  V30 7392 N 668.101 -1.57061 -0.130224 0
M  V30 7393 C 669.348 -1.84257 -0.839972 0
M  V30 7394 C 669.676 -0.726986 -1.80403 0
M  V30 7395 O 668.931 0.282632 -1.93648 0
M  V30 7396 C 669.23 -3.17878 -1.63365 0
M  V30 7397 C 668.896 -4.43475 -0.814891 0
M  V30 7398 C 667.558 -4.77581 -0.589066 0
M  V30 7399 C 669.91 -5.20631 -0.243437 0
M  V30 7400 C 667.238 -5.86292 0.218648 0
M  V30 7401 C 669.59 -6.30192 0.551408 0
M  V30 7402 C 668.254 -6.62837 0.787653 0
M  V30 7403 H 667.524 -0.674245 -0.307367 0
M  V30 7404 H 670.171 -1.91224 -0.102832 0
M  V30 7405 H 668.476 -3.06437 -2.44138 0
M  V30 7406 H 670.173 -3.3614 -2.18658 0
M  V30 7407 H 666.763 -4.16747 -1.00098 0
M  V30 7408 H 670.947 -4.94644 -0.405145 0
M  V30 7409 H 666.203 -6.10017 0.411016 0
M  V30 7410 H 670.377 -6.89165 1.00126 0
M  V30 7411 H 668.004 -7.46908 1.41537 0
M  V30 7412 N 669.579 0.400081 -1.52437 0
M  V30 7413 C 670.807 1.16768 -1.70801 0
M  V30 7414 C 671.222 1.84036 -0.421462 0
M  V30 7415 O 670.579 1.72242 0.603228 0
M  V30 7416 C 670.63 2.22403 -2.8499 0
M  V30 7417 O 670.351 1.57879 -4.08663 0
M  V30 7418 C 671.852 3.11974 -3.1494 0
M  V30 7419 H 669.072 0.350533 -0.57216 0
M  V30 7420 H 671.616 0.469534 -1.99037 0
M  V30 7421 H 669.771 2.87871 -2.59247 0
M  V30 7422 H 670.185 2.27982 -4.7236 0
M  V30 7423 H 671.659 3.82148 -3.9833 0
M  V30 7424 H 672.136 3.74858 -2.28863 0
M  V30 7425 H 672.742 2.52165 -3.42481 0
M  V30 7426 N 671.057 1.43213 0.657864 0
M  V30 7427 C 672.468 1.39669 1.23893 0
M  V30 7428 C 672.819 0.0984217 1.95953 0
M  V30 7429 O 671.944 -0.8023 2.00978 0
M  V30 7430 C 672.539 2.53004 2.25332 0
M  V30 7431 C 671.098 2.5274 2.78926 0
M  V30 7432 C 670.245 2.30941 1.53497 0
M  V30 7433 H 673.196 1.52181 0.450172 0
M  V30 7434 H 673.217 2.24226 3.07413 0
M  V30 7435 H 672.729 3.4748 1.72856 0
M  V30 7436 H 670.83 1.6213 3.35477 0
M  V30 7437 H 670.943 3.50352 3.26787 0
M  V30 7438 H 669.307 1.7952 1.80678 0
M  V30 7439 H 670.09 3.27496 1.02963 0
M  V30 7440 N 672.536 -0.895792 1.29666 0
M  V30 7441 C 673.483 -2.00035 1.15129 0
M  V30 7442 C 674.453 -1.66043 0.0435819 0
M  V30 7443 O 675.638 -1.89621 0.211811 0
M  V30 7444 C 672.778 -3.34774 0.83787 0
M  V30 7445 C 671.891 -3.81525 2.0264 0
M  V30 7446 C 671.026 -5.04858 1.65201 0
M  V30 7447 C 670.065 -5.43988 2.80612 0
M  V30 7448 N 669.202 -6.58507 2.43544 0
M  V30 7449 H 674.042 -2.11802 2.09628 0
M  V30 7450 H 671.579 -1.03719 1.04311 0
M  V30 7451 H 673.537 -4.12311 0.636824 0
M  V30 7452 H 672.167 -3.22724 -0.0702314 0
M  V30 7453 H 671.219 -2.9999 2.33903 0
M  V30 7454 H 672.531 -4.06472 2.89106 0
M  V30 7455 H 671.685 -5.8999 1.41408 0
M  V30 7456 H 670.424 -4.81759 0.758893 0
M  V30 7457 H 669.429 -4.57388 3.05083 0
M  V30 7458 H 670.654 -5.69066 3.70595 0
M  V30 7459 H 668.6 -6.37004 1.56724 0
M  V30 7460 H 668.517 -6.83269 3.23542 0
M  V30 7461 H 669.785 -7.46897 2.2308 0
M  V30 7462 N 674.014 -1.12206 -1.10668 0
M  V30 7463 C 674.961 -0.787716 -2.16942 0
M  V30 7464 C 675.931 0.244442 -1.64291 0
M  V30 7465 O 677.116 0.119558 -1.90425 0
M  V30 7466 C 674.256 -0.24584 -3.44223 0
M  V30 7467 C 673.369 -1.33552 -4.10838 0
M  V30 7468 C 672.504 -0.753337 -5.25831 0
M  V30 7469 C 671.543 -1.82231 -5.84344 0
M  V30 7470 N 670.68 -1.25902 -6.90719 0
M  V30 7471 H 675.52 -1.69809 -2.44885 0
M  V30 7472 H 673.057 -0.847862 -1.20207 0
M  V30 7473 H 675.015 0.0863639 -4.17111 0
M  V30 7474 H 673.645 0.627702 -3.16638 0
M  V30 7475 H 672.697 -1.78454 -3.35944 0
M  V30 7476 H 674.009 -2.14396 -4.50373 0
M  V30 7477 H 673.163 -0.37166 -6.05561 0
M  V30 7478 H 671.902 0.0863297 -4.87624 0
M  V30 7479 H 670.907 -2.2132 -5.03287 0
M  V30 7480 H 672.132 -2.66515 -6.24617 0
M  V30 7481 H 670.078 -0.44114 -6.54515 0
M  V30 7482 H 669.995 -2.00408 -7.28953 0
M  V30 7483 H 671.263 -0.904498 -7.74235 0
M  V30 7484 N 675.492 1.28418 -0.913599 0
M  V30 7485 C 676.908 1.47411 -0.611728 0
M  V30 7486 C 677.108 1.83018 0.843008 0
M  V30 7487 O 676.164 1.93505 1.6221 0
M  V30 7488 C 677.477 2.57703 -1.5495 0
M  V30 7489 C 679.025 2.71572 -1.5562 0
M  V30 7490 C 679.5 3.85008 -2.48058 0
M  V30 7491 N 680.991 3.92361 -2.46184 0
M  V30 7492 C 681.726 4.79516 -3.14407 0
M  V30 7493 N 681.222 5.71262 -3.91958 0
M  V30 7494 N 683.015 4.73125 -3.03495 0
M  V30 7495 H 675.166 1.03585 -1.85429 0
M  V30 7496 H 677.429 0.515907 -0.795326 0
M  V30 7497 H 677.135 2.38298 -2.58663 0
M  V30 7498 H 677.009 3.54801 -1.28048 0
M  V30 7499 H 679.396 2.90366 -0.526441 0
M  V30 7500 H 679.477 1.75006 -1.86565 0
M  V30 7501 H 679.121 3.66969 -3.51136 0
M  V30 7502 H 679.051 4.80971 -2.14416 0
M  V30 7503 H 681.542 3.26749 -1.89851 0
M  V30 7504 H 681.855 6.34593 -4.41034 0
M  V30 7505 H 680.2 5.71103 -3.96063 0
M  V30 7506 H 683.391 4.00442 -2.42413 0
M  V30 7507 H 683.564 5.40834 -3.56935 0
M  V30 7508 N 676.97 0.677563 1.42291 0
M  V30 7509 C 677.917 0.000947061 2.308 0
M  V30 7510 C 678.887 -0.789889 1.46116 0
M  V30 7511 O 680.072 -0.761578 1.74942 0
M  V30 7512 C 677.212 -0.942387 3.31984 0
M  V30 7513 C 676.325 -0.14508 4.31756 0
M  V30 7514 C 675.46 -1.08442 5.20013 0
M  V30 7515 C 674.499 -0.278958 6.11464 0
M  V30 7516 N 673.636 -1.17115 6.92263 0
M  V30 7517 H 678.476 0.761521 2.88106 0
M  V30 7518 H 676.013 0.38727 1.41911 0
M  V30 7519 H 677.971 -1.50317 3.89179 0
M  V30 7520 H 676.601 -1.66956 2.76271 0
M  V30 7521 H 675.653 0.532368 3.76656 0
M  V30 7522 H 676.965 0.48015 4.96484 0
M  V30 7523 H 676.119 -1.71504 5.81955 0
M  V30 7524 H 674.858 -1.74353 4.55469 0
M  V30 7525 H 673.863 0.364856 5.48588 0
M  V30 7526 H 675.088 0.376099 6.78058 0
M  V30 7527 H 673.034 -1.81661 6.30345 0
M  V30 7528 H 672.951 -0.601063 7.53607 0
M  V30 7529 H 674.219 -1.78915 7.58689 0
M  V30 7530 N 678.448 -1.51871 0.421078 0
M  V30 7531 C 679.378 -2.30231 -0.389363 0
M  V30 7532 C 680.359 -1.34946 -1.03555 0
M  V30 7533 O 681.544 -1.63859 -1.04229 0
M  V30 7534 C 678.674 -3.13247 -1.49979 0
M  V30 7535 C 677.628 -4.16677 -0.977966 0
M  V30 7536 C 676.954 -4.88112 -2.1829 0
M  V30 7537 C 678.254 -5.22295 -0.0236775 0
M  V30 7538 H 679.948 -2.98229 0.264524 0
M  V30 7539 H 677.494 -1.43424 0.12866 0
M  V30 7540 H 679.447 -3.66838 -2.07383 0
M  V30 7541 H 678.171 -2.4304 -2.18173 0
M  V30 7542 H 676.83 -3.64114 -0.426245 0
M  V30 7543 H 676.478 -4.14423 -2.85066 0
M  V30 7544 H 676.178 -5.58041 -1.84021 0
M  V30 7545 H 677.702 -5.44521 -2.76278 0
M  V30 7546 H 679.116 -5.71055 -0.506899 0
M  V30 7547 H 677.513 -5.99656 0.230782 0
M  V30 7548 H 678.583 -4.76131 0.917999 0
M  V30 7549 N 679.926 -0.151884 -1.56866 0
M  V30 7550 C 681.173 0.498004 -1.96281 0
M  V30 7551 C 681.501 1.64551 -1.03698 0
M  V30 7552 O 680.756 1.95585 -0.0671497 0
M  V30 7553 C 681.055 1.04074 -3.41911 0
M  V30 7554 C 680.721 0.0111688 -4.50899 0
M  V30 7555 C 679.383 -0.271844 -4.80432 0
M  V30 7556 C 681.735 -0.68869 -5.1663 0
M  V30 7557 C 679.063 -1.26044 -5.73001 0
M  V30 7558 C 681.415 -1.66613 -6.10264 0
M  V30 7559 C 680.079 -1.9568 -6.38174 0
M  V30 7560 H 679.349 0.182233 -0.718242 0
M  V30 7561 H 681.996 -0.239746 -1.89993 0
M  V30 7562 H 680.301 1.85592 -3.45055 0
M  V30 7563 H 681.998 1.55224 -3.69738 0
M  V30 7564 H 678.588 0.241932 -4.27917 0
M  V30 7565 H 682.772 -0.48324 -4.93942 0
M  V30 7566 H 678.028 -1.49202 -5.92915 0
M  V30 7567 H 682.202 -2.21392 -6.60272 0
M  V30 7568 H 679.829 -2.72434 -7.09707 0
M  V30 7569 N 681.404 1.57128 0.121893 0
M  V30 7570 C 682.652 1.84335 0.828548 0
M  V30 7571 C 682.973 0.736632 1.80551 0
M  V30 7572 O 682.243 -0.23962 1.94429 0
M  V30 7573 H 680.823 0.680108 0.30897 0
M  V30 7574 H 683.485 1.9459 0.109906 0
M  V30 7575 H 682.581 2.80152 1.37554 0
M  V30 7576 N 682.882 -0.391992 1.52647 0
M  V30 7577 C 683.83 -1.4991 1.77848 0
M  V30 7578 C 684.824 -1.56587 0.646282 0
M  V30 7579 O 686.03 -1.59789 0.828698 0
M  V30 7580 H 682.405 -0.498883 0.56269 0
M  V30 7581 H 684.376 -1.25847 2.70564 0
M  V30 7582 C 683.125 -2.87081 1.96163 0
M  V30 7583 H 682.448 -2.82692 2.82711 0
M  V30 7584 H 683.888 -3.63792 2.17787 0
M  V30 7585 C 682.347 -3.28822 0.733348 0
M  V30 7586 O 682.877 -4.01598 -0.0906481 0
M  V30 7587 N 681.083 -2.85068 0.564317 0
M  V30 7588 H 680.63 -2.26012 1.23598 0
M  V30 7589 H 680.588 -3.13355 -0.256166 0
M  V30 7590 N 684.36 -1.4356 -0.65026 0
M  V30 7591 C 685.307 -1.48948 -1.76304 0
M  V30 7592 C 686.277 -0.338919 -1.62605 0
M  V30 7593 O 687.462 -0.54649 -1.82806 0
M  V30 7594 C 684.602 -1.42131 -3.14472 0
M  V30 7595 C 683.715 -2.67415 -3.39284 0
M  V30 7596 C 682.85 -2.52565 -4.67316 0
M  V30 7597 C 681.889 -3.73103 -4.85243 0
M  V30 7598 N 681.026 -3.57046 -6.04535 0
M  V30 7599 H 685.866 -2.44032 -1.71034 0
M  V30 7600 H 683.403 -1.21131 -0.834601 0
M  V30 7601 H 685.361 -1.36172 -3.94351 0
M  V30 7602 H 683.991 -0.506273 -3.18805 0
M  V30 7603 H 683.043 -2.8364 -2.53481 0
M  V30 7604 H 684.355 -3.56943 -3.48415 0
M  V30 7605 H 683.509 -2.44331 -5.55326 0
M  V30 7606 H 682.248 -1.60566 -4.60511 0
M  V30 7607 H 681.253 -3.81743 -3.95667 0
M  V30 7608 H 682.478 -4.66115 -4.93876 0
M  V30 7609 H 680.424 -2.67783 -5.98856 0
M  V30 7610 H 680.341 -4.40178 -6.14638 0
M  V30 7611 H 681.609 -3.52669 -6.95158 0
M  V30 7612 N 685.838 0.888903 -1.30139 0
M  V30 7613 C 686.785 1.99422 -1.16188 0
M  V30 7614 C 687.755 1.66017 -0.0523869 0
M  V30 7615 O 688.94 1.89506 -0.221864 0
M  V30 7616 C 686.08 3.34325 -0.855612 0
M  V30 7617 C 685.193 3.80445 -2.0466 0
M  V30 7618 C 684.328 5.03975 -1.67876 0
M  V30 7619 C 683.367 5.42492 -2.83493 0
M  V30 7620 N 682.504 6.57206 -2.47032 0
M  V30 7621 H 687.344 2.10687 -2.10749 0
M  V30 7622 H 684.881 1.03165 -1.04859 0
M  V30 7623 H 686.839 4.11968 -0.658681 0
M  V30 7624 H 685.469 3.22756 0.0531155 0
M  V30 7625 H 684.521 2.98745 -2.3549 0
M  V30 7626 H 685.833 4.04933 -2.91257 0
M  V30 7627 H 684.987 5.89232 -1.44535 0
M  V30 7628 H 683.726 4.8135 -0.784431 0
M  V30 7629 H 682.731 4.55764 -3.07505 0
M  V30 7630 H 683.956 5.67093 -3.73607 0
M  V30 7631 H 681.902 6.36164 -1.601 0
M  V30 7632 H 681.819 6.81543 -3.27161 0
M  V30 7633 H 683.087 7.45704 -2.27038 0
M  V30 7634 N 687.317 1.12792 1.10072 0
M  V30 7635 C 688.733 0.864745 1.34143 0
M  V30 7636 C 688.933 -0.503201 1.95116 0
M  V30 7637 O 687.989 -1.25111 2.19325 0
M  V30 7638 C 689.302 1.98413 2.25949 0
M  V30 7639 C 690.85 2.01545 2.39476 0
M  V30 7640 C 691.325 3.12727 3.34613 0
M  V30 7641 N 692.816 3.12194 3.42183 0
M  V30 7642 C 693.551 3.94862 4.15779 0
M  V30 7643 N 693.047 4.87528 4.92228 0
M  V30 7644 N 694.84 3.82985 4.11435 0
M  V30 7645 H 686.991 2.00926 0.68866 0
M  V30 7646 H 689.254 0.874564 0.365844 0
M  V30 7647 H 688.96 2.97005 1.88364 0
M  V30 7648 H 688.834 1.89254 3.26287 0
M  V30 7649 H 691.221 1.0357 2.76328 0
M  V30 7650 H 691.302 2.14777 1.3894 0
M  V30 7651 H 690.946 4.10936 2.98486 0
M  V30 7652 H 690.876 2.96732 4.35037 0
M  V30 7653 H 693.367 2.45065 2.87666 0
M  V30 7654 H 693.68 5.47109 5.45794 0
M  V30 7655 H 692.025 4.91539 4.9134 0
M  V30 7656 H 695.216 3.09923 3.50807 0
M  V30 7657 H 695.389 4.47641 4.68531 0
M  V30 7658 N 688.795 -1.27931 0.920396 0
M  V30 7659 C 689.742 -2.27085 0.412422 0
M  V30 7660 C 690.712 -1.57858 -0.516725 0
M  V30 7661 O 691.897 -1.85717 -0.437475 0
M  V30 7662 C 689.037 -3.43466 -0.335399 0
M  V30 7663 C 688.15 -4.27425 0.627017 0
M  V30 7664 C 687.285 -5.31016 -0.139916 0
M  V30 7665 C 686.324 -6.06641 0.815683 0
M  V30 7666 N 685.461 -7.02052 0.0818439 0
M  V30 7667 H 690.301 -2.69913 1.26298 0
M  V30 7668 H 687.838 -1.32732 0.634076 0
M  V30 7669 H 689.796 -4.09744 -0.785226 0
M  V30 7670 H 688.426 -3.01611 -1.15025 0
M  V30 7671 H 687.478 -3.6113 1.19537 0
M  V30 7672 H 688.79 -4.79969 1.35763 0
M  V30 7673 H 687.944 -6.03208 -0.649998 0
M  V30 7674 H 686.683 -4.79257 -0.903543 0
M  V30 7675 H 685.688 -5.33294 1.33708 0
M  V30 7676 H 686.913 -6.60489 1.57897 0
M  V30 7677 H 684.859 -6.52634 -0.663671 0
M  V30 7678 H 684.776 -7.52249 0.752163 0
M  V30 7679 H 686.044 -7.78432 -0.407825 0
M  V30 7680 N 690.273 -0.685099 -1.4193 0
M  V30 7681 C 691.498 -0.218842 -2.06242 0
M  V30 7682 C 691.923 1.11923 -1.51178 0
M  V30 7683 O 691.281 1.69837 -0.634446 0
M  V30 7684 C 691.329 -0.175592 -3.60172 0
M  V30 7685 O 690.433 0.852776 -4.03487 0
M  V30 7686 H 689.774 -0.109531 -0.654904 0
M  V30 7687 H 692.304 -0.937013 -1.81882 0
M  V30 7688 H 692.314 -0.00291151 -4.08 0
M  V30 7689 H 690.989 -1.15222 -3.99621 0
M  V30 7690 H 689.566 0.650301 -3.67186 0
M  V30 7691 N 691.751 1.51645 -0.429126 0
M  V30 7692 C 692.998 2.02015 0.140079 0
M  V30 7693 C 693.326 1.31374 1.43427 0
M  V30 7694 O 692.581 0.414779 1.91254 0
M  V30 7695 C 692.88 3.54989 0.414472 0
M  V30 7696 C 692.546 4.43874 -0.792911 0
M  V30 7697 C 691.208 4.67887 -1.12404 0
M  V30 7698 C 693.56 4.96074 -1.59875 0
M  V30 7699 C 690.888 5.41348 -2.26184 0
M  V30 7700 C 693.24 5.70782 -2.72747 0
M  V30 7701 C 691.904 5.93062 -3.06324 0
M  V30 7702 H 691.174 0.739225 0.0512585 0
M  V30 7703 H 693.821 1.82675 -0.574641 0
M  V30 7704 H 692.126 3.72615 1.21099 0
M  V30 7705 H 693.823 3.91489 0.868173 0
M  V30 7706 H 690.413 4.25374 -0.524871 0
M  V30 7707 H 694.597 4.77412 -1.35614 0
M  V30 7708 H 689.853 5.56815 -2.52522 0
M  V30 7709 H 694.027 6.10221 -3.35564 0
M  V30 7710 H 691.654 6.49764 -3.94602 0
M  V30 7711 N 693.229 0.160201 1.56784 0
M  V30 7712 C 694.476 -0.487588 1.96542 0
M  V30 7713 C 694.804 -1.63999 1.04569 0
M  V30 7714 O 694.059 -1.95546 0.0775211 0
M  V30 7715 C 694.358 -1.02259 3.42459 0
M  V30 7716 C 694.024 0.0127436 4.50898 0
M  V30 7717 C 692.686 0.297318 4.80281 0
M  V30 7718 C 695.038 0.716078 5.16257 0
M  V30 7719 C 692.366 1.29081 5.72324 0
M  V30 7720 C 694.718 1.69847 6.09372 0
M  V30 7721 C 693.382 1.99061 6.37127 0
M  V30 7722 H 692.652 -0.178421 0.719199 0
M  V30 7723 H 695.299 0.249818 1.89864 0
M  V30 7724 H 693.604 -1.8376 3.46034 0
M  V30 7725 H 695.301 -1.53261 3.70556 0
M  V30 7726 H 691.891 -0.219235 4.28039 0
M  V30 7727 H 696.075 0.509428 4.93679 0
M  V30 7728 H 691.331 1.52344 5.92116 0
M  V30 7729 H 695.505 2.2489 6.59088 0
M  V30 7730 H 693.132 2.76194 7.08252 0
M  V30 7731 N 694.707 -1.5719 -0.113559 0
M  V30 7732 C 695.637 -2.03772 -1.14013 0
M  V30 7733 C 696.618 -0.923176 -1.42869 0
M  V30 7734 O 697.803 -1.19325 -1.53216 0
M  V30 7735 C 694.933 -2.44663 -2.4649 0
M  V30 7736 C 693.887 -3.59612 -2.32085 0
M  V30 7737 C 693.213 -3.8642 -3.69573 0
M  V30 7738 C 694.513 -4.91149 -1.7768 0
M  V30 7739 H 696.207 -2.89785 -0.752665 0
M  V30 7740 H 693.753 -1.39412 -0.360609 0
M  V30 7741 H 695.706 -2.75857 -3.18561 0
M  V30 7742 H 694.43 -1.55628 -2.87137 0
M  V30 7743 H 693.089 -3.28636 -1.62461 0
M  V30 7744 H 692.737 -2.94581 -4.07715 0
M  V30 7745 H 692.437 -4.63797 -3.60786 0
M  V30 7746 H 693.961 -4.2007 -4.4314 0
M  V30 7747 H 695.375 -5.20843 -2.39574 0
M  V30 7748 H 693.772 -5.72562 -1.79701 0
M  V30 7749 H 694.842 -4.79301 -0.734776 0
M  V30 7750 N 696.185 0.383891 -1.52853 0
M  V30 7751 C 697.601 0.724316 -1.42218 0
M  V30 7752 C 697.801 1.93943 -0.546654 0
M  V30 7753 O 696.857 2.5249 -0.0220562 0
M  V30 7754 C 698.17 0.954635 -2.85144 0
M  V30 7755 C 699.718 1.05579 -2.94656 0
M  V30 7756 C 700.193 1.3187 -4.38605 0
M  V30 7757 N 701.684 1.38681 -4.41952 0
M  V30 7758 C 702.419 1.60699 -5.50421 0
M  V30 7759 N 701.915 1.80154 -6.68967 0
M  V30 7760 N 703.708 1.6292 -5.37972 0
M  V30 7761 H 695.859 -0.4156 -2.08294 0
M  V30 7762 H 698.122 -0.123776 -0.939885 0
M  V30 7763 H 697.828 0.133829 -3.51445 0
M  V30 7764 H 697.702 1.86788 -3.27704 0
M  V30 7765 H 700.089 1.86716 -2.2852 0
M  V30 7766 H 700.17 0.120338 -2.55517 0
M  V30 7767 H 699.814 0.512416 -5.05309 0
M  V30 7768 H 699.744 2.26708 -4.75301 0
M  V30 7769 H 702.235 1.25334 -3.56511 0
M  V30 7770 H 702.548 1.96476 -7.47407 0
M  V30 7771 H 700.893 1.77368 -6.71986 0
M  V30 7772 H 704.084 1.47276 -4.44328 0
M  V30 7773 H 704.257 1.79739 -6.22574 0
M  V30 7774 N 697.663 1.43903 0.642637 0
M  V30 7775 C 698.573 1.52349 1.78401 0
M  V30 7776 C 699.589 0.409869 1.69104 0
M  V30 7777 O 700.765 0.665548 1.90085 0
M  V30 7778 C 697.83 1.45408 3.14734 0
M  V30 7779 C 696.891 2.67528 3.35749 0
M  V30 7780 C 696.124 2.60909 4.65577 0
M  V30 7781 O 696.347 1.6627 5.45628 0
M  V30 7782 O 695.281 3.5158 4.88544 0
M  V30 7783 H 699.107 2.48752 1.7423 0
M  V30 7784 H 696.692 1.26021 0.802439 0
M  V30 7785 H 698.574 1.44019 3.96026 0
M  V30 7786 H 697.249 0.521437 3.19473 0
M  V30 7787 H 696.156 2.74487 2.5418 0
M  V30 7788 H 697.489 3.598 3.35864 0
M  V30 7789 N 699.141 -0.881989 1.30609 0
M  V30 7790 C 700.366 -1.67236 1.22665 0
M  V30 7791 C 700.791 -1.8696 -0.206777 0
M  V30 7792 O 700.149 -1.4027 -1.14865 0
M  V30 7793 C 700.197 -3.02446 1.96363 0
M  V30 7794 O 699.301 -3.91614 1.29276 0
M  V30 7795 H 698.642 -0.510902 0.424117 0
M  V30 7796 H 701.172 -1.10055 1.72479 0
M  V30 7797 H 701.182 -3.52468 2.055 0
M  V30 7798 H 699.857 -2.8741 3.00613 0
M  V30 7799 H 698.434 -3.50055 1.28514 0
M  V30 7800 N 700.619 -1.13374 -1.09472 0
M  V30 7801 C 701.867 -0.893422 -1.8128 0
M  V30 7802 C 702.188 0.582029 -1.86111 0
M  V30 7803 O 701.458 1.42305 -1.34633 0
M  V30 7804 H 700.038 -0.327543 -0.67136 0
M  V30 7805 H 702.7 -1.43018 -1.32408 0
M  V30 7806 H 701.796 -1.28374 -2.84476 0
M  V30 7807 N 702.098 1.27442 -0.927168 0
M  V30 7808 C 703.045 2.26863 -0.424459 0
M  V30 7809 C 704.015 1.5813 0.508346 0
M  V30 7810 O 705.2 1.85946 0.42762 0
M  V30 7811 C 702.34 3.43639 0.31718 0
M  V30 7812 C 701.453 4.27087 -0.649675 0
M  V30 7813 C 700.588 5.31082 0.111753 0
M  V30 7814 C 699.627 6.062 -0.847843 0
M  V30 7815 N 698.764 7.01999 -0.119074 0
M  V30 7816 H 703.604 2.69239 -1.27728 0
M  V30 7817 H 701.141 1.32394 -0.641106 0
M  V30 7818 H 703.099 4.10155 0.763486 0
M  V30 7819 H 701.729 3.02217 1.13424 0
M  V30 7820 H 700.781 3.60491 -1.21451 0
M  V30 7821 H 702.093 4.79242 -1.38307 0
M  V30 7822 H 701.247 6.03544 0.618 0
M  V30 7823 H 699.986 4.7973 0.878114 0
M  V30 7824 H 698.991 5.32577 -1.36534 0
M  V30 7825 H 700.216 6.59642 -1.61398 0
M  V30 7826 H 698.162 6.52977 0.629051 0
M  V30 7827 H 698.079 7.5184 -0.792046 0
M  V30 7828 H 699.347 7.78638 0.366537 0
M  V30 7829 N 703.576 0.692616 1.41565 0
M  V30 7830 C 704.853 0.150496 1.9502 0
M  V30 7831 C 705.233 -1.33881 1.63215 0
M  V30 7832 O 704.581 -2.08378 0.937598 0
M  V30 7833 C 704.791 0.438636 3.46233 0
M  V30 7834 C 706.139 0.364777 4.2303 0
M  V30 7835 O 707.163 0.373383 3.54238 0
M  V30 7836 O 706.022 0.32234 5.45549 0
M  V30 7837 H 703.116 0.0132454 0.826894 0
M  V30 7838 H 705.662 0.768574 1.51298 0
M  V30 7839 H 704.434 1.46962 3.62654 0
M  V30 7840 H 704.057 -0.210562 3.97042 0
M  V30 7841 N 705.054 -1.51416 0.437162 0
M  V30 7842 C 705.986 -2.255 -0.410171 0
M  V30 7843 C 706.999 -1.29511 -0.986444 0
M  V30 7844 O 708.188 -1.55266 -0.880614 0
M  V30 7845 C 705.288 -2.99511 -1.58575 0
M  V30 7846 C 704.461 -4.22595 -1.12839 0
M  V30 7847 C 703.52 -4.79187 -2.17407 0
M  V30 7848 O 702.546 -5.4103 -1.76849 0
M  V30 7849 N 703.748 -4.63204 -3.49889 0
M  V30 7850 H 706.513 -2.98856 0.224783 0
M  V30 7851 H 704.074 -1.59699 0.266041 0
M  V30 7852 H 706.066 -3.34258 -2.28152 0
M  V30 7853 H 704.636 -2.29167 -2.12606 0
M  V30 7854 H 703.856 -3.93344 -0.259695 0
M  V30 7855 H 705.144 -5.02468 -0.800196 0
M  V30 7856 H 704.542 -4.13945 -3.85573 0
M  V30 7857 H 703.099 -5.02313 -4.15361 0
M  V30 7858 N 706.532 -0.168513 -1.56696 0
M  V30 7859 C 707.943 0.348694 -1.83415 0
M  V30 7860 C 708.294 1.63257 -1.0882 0
M  V30 7861 O 707.419 2.13707 -0.340333 0
M  V30 7862 C 708.014 0.639423 -3.32711 0
M  V30 7863 C 706.573 1.10108 -3.59935 0
M  V30 7864 C 705.72 0.135464 -2.76969 0
M  V30 7865 H 708.671 -0.392829 -1.53761 0
M  V30 7866 H 708.692 1.49179 -3.50037 0
M  V30 7867 H 708.204 -0.295173 -3.86976 0
M  V30 7868 H 706.305 2.05088 -3.11079 0
M  V30 7869 H 706.418 1.01218 -4.68286 0
M  V30 7870 H 704.782 0.632286 -2.46727 0
M  V30 7871 H 705.565 -0.793104 -3.34013 0
M  V30 7872 N 708.01 1.57248 0.105221 0
M  V30 7873 C 709.421 1.74612 0.660865 0
M  V30 7874 C 709.772 0.789231 1.79626 0
M  V30 7875 O 708.897 -0.0346611 2.16372 0
M  V30 7876 C 709.492 3.16624 1.20559 0
M  V30 7877 C 708.051 3.35447 1.7074 0
M  V30 7878 C 707.198 2.70445 0.612764 0
M  V30 7879 H 710.149 1.5824 -0.12079 0
M  V30 7880 H 710.17 3.18937 2.07508 0
M  V30 7881 H 709.682 3.86245 0.379012 0
M  V30 7882 H 707.783 2.7089 2.5583 0
M  V30 7883 H 707.896 4.43702 1.80736 0
M  V30 7884 H 706.26 2.32061 1.04975 0
M  V30 7885 H 707.043 3.42699 -0.203066 0
M  V30 7886 N 709.488 -0.375779 1.53054 0
M  V30 7887 C 710.736 -1.11727 1.68409 0
M  V30 7888 C 711.057 -1.90127 0.43323 0
M  V30 7889 O 710.327 -1.87945 -0.552595 0
M  V30 7890 H 708.907 -0.415451 0.620813 0
M  V30 7891 H 711.569 -0.424869 1.90213 0
M  V30 7892 H 710.665 -1.8128 2.54055 0
M  V30 7893 N 710.966 -1.44241 -0.634997 0
M  V30 7894 C 712.191 -1.50516 -1.42687 0
M  V30 7895 C 712.616 -0.129864 -1.87651 0
M  V30 7896 O 711.974 0.880164 -1.58502 0
M  V30 7897 C 712.022 -2.4714 -2.62591 0
M  V30 7898 O 711.126 -1.97025 -3.62291 0
M  V30 7899 H 710.467 -0.50841 -0.427101 0
M  V30 7900 H 712.997 -1.89337 -0.775408 0
M  V30 7901 H 713.007 -2.65048 -3.10183 0
M  V30 7902 H 711.682 -3.47039 -2.29209 0
M  V30 7903 H 710.259 -1.88866 -3.21534 0
M  V30 7904 N 712.444 0.87505 -1.31075 0
M  V30 7905 C 713.721 1.60976 -1.11113 0
M  V30 7906 C 714.101 2.08409 0.336006 0
M  V30 7907 O 713.449 1.85858 1.32924 0
M  V30 7908 C 713.659 2.77166 -2.12085 0
M  V30 7909 C 715.007 3.47254 -2.44335 0
M  V30 7910 O 716.031 2.87367 -2.10472 0
M  V30 7911 O 714.89 4.55276 -3.02301 0
M  V30 7912 H 711.984 0.707982 -0.427424 0
M  V30 7913 H 714.53 0.920957 -1.42536 0
M  V30 7914 H 713.302 2.39494 -3.09449 0
M  V30 7915 H 712.925 3.53737 -1.81538 0
M  V30 7916 N 713.922 1.13953 1.08869 0
M  V30 7917 C 715.147 0.928559 1.85452 0
M  V30 7918 C 715.572 -0.517642 1.80837 0
M  V30 7919 O 714.93 -1.36779 1.19001 0
M  V30 7920 C 714.978 1.42814 3.31114 0
M  V30 7921 O 714.082 0.617129 4.07756 0
M  V30 7922 H 713.423 0.33235 0.574839 0
M  V30 7923 H 715.953 1.5156 1.37443 0
M  V30 7924 H 715.963 1.43425 3.8196 0
M  V30 7925 H 714.638 2.48109 3.33788 0
M  V30 7926 H 713.215 0.679365 3.66659 0
M  V30 7927 N 715.4 -1.26948 0.933913 0
M  V30 7928 C 716.677 -1.89212 0.495784 0
M  V30 7929 C 717.057 -1.84469 -1.02637 0
M  V30 7930 O 716.405 -1.29409 -1.88323 0
M  V30 7931 C 716.615 -3.32865 1.0489 0
M  V30 7932 C 717.963 -4.09749 1.11315 0
M  V30 7933 O 718.987 -3.41905 0.998966 0
M  V30 7934 O 717.846 -5.31061 1.28983 0
M  V30 7935 H 714.94 -0.811284 0.160459 0
M  V30 7936 H 717.486 -1.35171 1.02601 0
M  V30 7937 H 716.258 -3.30642 2.09265 0
M  V30 7938 H 715.881 -3.94435 0.500692 0
M  V30 7939 N 716.879 -0.700114 -1.41195 0
M  V30 7940 C 717.789 -0.0382854 -2.34569 0
M  V30 7941 C 718.805 0.761036 -1.56474 0
M  V30 7942 O 719.981 0.697553 -1.88934 0
M  V30 7943 C 717.046 0.883522 -3.35253 0
M  V30 7944 C 716.107 0.0758957 -4.29233 0
M  V30 7945 C 715.34 0.9538 -5.25108 0
M  V30 7946 O 715.563 2.19326 -5.26547 0
M  V30 7947 O 714.497 0.401049 -6.00562 0
M  V30 7948 H 718.323 -0.808073 -2.92752 0
M  V30 7949 H 715.908 -0.460479 -1.42127 0
M  V30 7950 H 717.79 1.41199 -3.9704 0
M  V30 7951 H 716.465 1.63272 -2.79506 0
M  V30 7952 H 715.372 -0.497274 -3.7078 0
M  V30 7953 H 716.705 -0.634741 -4.8809 0
M  V30 7954 N 718.357 1.51182 -0.445186 0
M  V30 7955 C 719.634 1.9478 0.178965 0
M  V30 7956 C 720.014 1.38428 1.59376 0
M  V30 7957 O 719.362 0.574552 2.21159 0
M  V30 7958 C 719.572 3.48683 0.148711 0
M  V30 7959 C 720.92 4.23152 0.35042 0
M  V30 7960 O 721.944 3.55479 0.226474 0
M  V30 7961 O 720.803 5.4322 0.597893 0
M  V30 7962 H 717.897 0.817387 0.12573 0
M  V30 7963 H 720.443 1.62051 -0.503729 0
M  V30 7964 H 719.215 3.82176 -0.84009 0
M  V30 7965 H 718.838 3.87875 0.873979 0
M  V30 7966 N 719.835 0.176821 1.56605 0
M  V30 7967 C 721.075 -0.469104 1.98944 0
M  V30 7968 C 721.439 -1.60048 1.06059 0
M  V30 7969 O 722.64 -2.30934 1.3756 0
M  V30 7970 C 720.911 -0.934571 3.44965 0
M  V30 7971 S 722.47 -1.58091 4.09332 0
M  V30 7972 H 719.288 -0.150695 0.694847 0
M  V30 7973 H 721.89 0.27558 1.93548 0
M  V30 7974 H 720.594 -0.100814 4.10276 0
M  V30 7975 H 720.125 -1.71316 3.54139 0
M  V30 7976 H 722.14 -2.86922 4.04834 0
M  V30 7977 N 721.313 -1.57302 -0.09688 0
M  V30 7978 C 722.245 -1.98618 -1.14384 0
M  V30 7979 C 723.258 -0.888483 -1.36418 0
M  V30 7980 O 724.447 -1.16661 -1.35101 0
M  V30 7981 C 721.547 -2.28838 -2.49973 0
M  V30 7982 C 720.72 -3.60132 -2.48241 0
M  V30 7983 C 719.779 -3.7831 -3.65743 0
M  V30 7984 O 718.805 -4.50183 -3.48316 0
M  V30 7985 N 720.007 -3.18752 -4.85157 0
M  V30 7986 H 722.772 -2.8904 -0.792202 0
M  V30 7987 H 720.333 -1.59356 -0.285883 0
M  V30 7988 H 722.325 -2.38193 -3.27179 0
M  V30 7989 H 720.895 -1.44431 -2.77233 0
M  V30 7990 H 720.115 -3.61763 -1.56593 0
M  V30 7991 H 721.403 -4.46389 -2.4416 0
M  V30 7992 H 720.801 -2.60368 -5.0222 0
M  V30 7993 H 719.358 -3.33595 -5.59962 0
M  V30 7994 N 722.791 0.367657 -1.53252 0
M  V30 7995 C 723.738 1.45028 -1.79543 0
M  V30 7996 C 724.708 1.53288 -0.63969 0
M  V30 7997 O 725.893 1.69209 -0.881653 0
M  V30 7998 C 723.033 2.82 -1.98923 0
M  V30 7999 C 722.146 2.82722 -3.26638 0
M  V30 8000 C 721.281 4.11257 -3.36216 0
M  V30 8001 C 720.32 4.06113 -4.57972 0
M  V30 8002 N 719.457 5.26293 -4.64715 0
M  V30 8003 H 724.297 1.21908 -2.71923 0
M  V30 8004 H 721.834 0.591011 -1.34705 0
M  V30 8005 H 723.792 3.61568 -2.08146 0
M  V30 8006 H 722.422 3.03523 -1.09881 0
M  V30 8007 H 721.474 1.95399 -3.26379 0
M  V30 8008 H 722.786 2.74794 -4.16281 0
M  V30 8009 H 721.94 4.99239 -3.44739 0
M  V30 8010 H 720.679 4.21935 -2.44586 0
M  V30 8011 H 719.684 3.16517 -4.49552 0
M  V30 8012 H 720.909 3.97039 -5.50942 0
M  V30 8013 H 718.855 5.37561 -3.75985 0
M  V30 8014 H 718.772 5.20526 -5.4826 0
M  V30 8015 H 720.04 6.16113 -4.77519 0
M  V30 8016 N 724.269 1.44576 0.627338 0
M  V30 8017 C 725.216 1.51734 1.73912 0
M  V30 8018 C 726.186 0.364745 1.62046 0
M  V30 8019 O 727.371 0.575503 1.81914 0
M  V30 8020 C 724.511 1.47116 3.12171 0
M  V30 8021 C 723.624 2.72778 3.34986 0
M  V30 8022 C 722.759 2.59968 4.63239 0
M  V30 8023 C 721.798 3.80776 4.79245 0
M  V30 8024 N 720.935 3.66618 5.98778 0
M  V30 8025 H 725.775 2.46722 1.6713 0
M  V30 8026 H 723.312 1.22444 0.815224 0
M  V30 8027 H 725.27 1.42429 3.92135 0
M  V30 8028 H 723.9 0.556928 3.17959 0
M  V30 8029 H 722.952 2.87637 2.48936 0
M  V30 8030 H 724.264 3.62441 3.42692 0
M  V30 8031 H 723.418 2.53135 5.51369 0
M  V30 8032 H 722.157 1.67872 4.57898 0
M  V30 8033 H 721.162 3.87989 3.89544 0
M  V30 8034 H 722.387 4.73913 4.86398 0
M  V30 8035 H 720.333 2.77277 5.9452 0
M  V30 8036 H 720.25 4.499 6.07557 0
M  V30 8037 H 721.518 3.63684 6.89459 0
M  V30 8038 N 725.747 -0.868086 1.31537 0
M  V30 8039 C 727.158 -1.437 1.19195 0
M  V30 8040 C 727.509 -1.95169 -0.200842 0
M  V30 8041 O 726.634 -1.86432 -1.09872 0
M  V30 8042 C 727.229 -2.612 2.15778 0
M  V30 8043 C 725.788 -3.1413 2.07363 0
M  V30 8044 C 724.935 -1.86845 2.049 0
M  V30 8045 H 727.886 -0.676457 1.43561 0
M  V30 8046 H 727.907 -3.37948 1.74847 0
M  V30 8047 H 727.419 -2.23709 3.17137 0
M  V30 8048 H 725.52 -3.56238 1.09204 0
M  V30 8049 H 725.633 -3.76285 2.96557 0
M  V30 8050 H 723.997 -2.05886 1.49943 0
M  V30 8051 H 724.78 -1.51589 3.08019 0
M  V30 8052 N 727.225 -1.14528 -1.08264 0
M  V30 8053 C 728.157 -0.791325 -2.15106 0
M  V30 8054 C 729.17 0.192449 -1.61659 0
M  V30 8055 O 730.359 -0.0294704 -1.78476 0
M  V30 8056 C 727.459 -0.154183 -3.38549 0
M  V30 8057 C 726.632 -1.17305 -4.21377 0
M  V30 8058 C 725.691 -0.559401 -5.23218 0
M  V30 8059 O 724.717 -1.22277 -5.55911 0
M  V30 8060 N 725.919 0.663159 -5.767 0
M  V30 8061 H 728.684 -1.71076 -2.46075 0
M  V30 8062 H 726.245 -1.0399 -1.24087 0
M  V30 8063 H 728.237 0.268884 -4.03806 0
M  V30 8064 H 726.807 0.668418 -3.0537 0
M  V30 8065 H 726.027 -1.773 -3.52077 0
M  V30 8066 H 727.315 -1.86128 -4.73533 0
M  V30 8067 H 726.713 1.22066 -5.52373 0
M  V30 8068 H 725.27 1.02871 -6.43631 0
M  V30 8069 N 728.703 1.26451 -0.940633 0
M  V30 8070 C 729.633 2.28773 -0.467479 0
M  V30 8071 C 730.614 1.63218 0.478955 0
M  V30 8072 O 731.799 1.90427 0.380929 0
M  V30 8073 C 728.929 3.46259 0.268656 0
M  V30 8074 C 727.883 4.23898 -0.591171 0
M  V30 8075 C 727.209 5.33993 0.274891 0
M  V30 8076 C 728.509 4.87974 -1.86223 0
M  V30 8077 H 730.203 2.68601 -1.32265 0
M  V30 8078 H 727.749 1.29123 -0.637436 0
M  V30 8079 H 729.702 4.16951 0.610696 0
M  V30 8080 H 728.426 3.05383 1.15796 0
M  V30 8081 H 727.085 3.54969 -0.916098 0
M  V30 8082 H 726.733 4.89358 1.16353 0
M  V30 8083 H 726.433 5.86849 -0.297006 0
M  V30 8084 H 727.957 6.07523 0.612213 0
M  V30 8085 H 729.371 5.50883 -1.58747 0
M  V30 8086 H 727.768 5.50945 -2.37866 0
M  V30 8087 H 728.838 4.10945 -2.57394 0
M  V30 8088 N 730.181 0.707592 1.40822 0
M  V30 8089 C 731.111 0.0644925 2.33411 0
M  V30 8090 C 732.092 -0.754205 1.52466 0
M  V30 8091 O 733.277 -0.704749 1.80961 0
M  V30 8092 C 730.407 -0.863865 3.36385 0
M  V30 8093 C 729.361 -0.15138 4.27732 0
M  V30 8094 C 728.687 -1.19491 5.21177 0
M  V30 8095 C 729.987 0.989607 5.12839 0
M  V30 8096 H 731.681 0.837829 2.87438 0
M  V30 8097 H 729.227 0.404346 1.38207 0
M  V30 8098 H 731.18 -1.32309 4.0009 0
M  V30 8099 H 729.904 -1.66901 2.80734 0
M  V30 8100 H 728.563 0.287937 3.65467 0
M  V30 8101 H 728.211 -1.9929 4.61836 0
M  V30 8102 H 727.911 -0.723123 5.83134 0
M  V30 8103 H 729.435 -1.6544 5.8776 0
M  V30 8104 H 730.849 0.610114 5.70044 0
M  V30 8105 H 729.246 1.38926 5.83798 0
M  V30 8106 H 730.316 1.82389 4.49291 0
M  V30 8107 N 731.66 -1.50943 0.453197 0
M  V30 8108 C 732.57 -2.31884 -0.355963 0
M  V30 8109 C 733.586 -1.41481 -1.01287 0
M  V30 8110 O 734.762 -1.74546 -1.00477 0
M  V30 8111 C 731.827 -3.15668 -1.43369 0
M  V30 8112 C 730.888 -4.2187 -0.795253 0
M  V30 8113 C 730.121 -5.0165 -1.82162 0
M  V30 8114 O 730.344 -4.82266 -3.04592 0
M  V30 8115 O 729.278 -5.85311 -1.40336 0
M  V30 8116 H 733.104 -3.02162 0.305248 0
M  V30 8117 H 730.689 -1.47839 0.215398 0
M  V30 8118 H 732.571 -3.67709 -2.05836 0
M  V30 8119 H 731.246 -2.48137 -2.07869 0
M  V30 8120 H 730.153 -3.73867 -0.132106 0
M  V30 8121 H 731.486 -4.9182 -0.193484 0
M  V30 8122 N 733.138 -0.185124 -1.56509 0
M  V30 8123 C 734.07 0.771401 -2.15829 0
M  V30 8124 C 735.083 1.18392 -1.11747 0
M  V30 8125 O 736.272 1.12137 -1.38879 0
M  V30 8126 C 733.372 2.05169 -2.69739 0
M  V30 8127 C 732.545 1.80056 -3.98621 0
M  V30 8128 C 731.604 2.92435 -4.37456 0
M  V30 8129 O 730.63 2.62473 -5.05071 0
M  V30 8130 N 731.832 4.20554 -4.00143 0
M  V30 8131 H 734.597 0.264184 -2.98533 0
M  V30 8132 H 732.158 -0.00281069 -1.619 0
M  V30 8133 H 734.15 2.7947 -2.92709 0
M  V30 8134 H 732.72 2.47041 -1.91545 0
M  V30 8135 H 731.94 0.895862 -3.83885 0
M  V30 8136 H 733.228 1.60662 -4.82768 0
M  V30 8137 H 732.626 4.47753 -3.45736 0
M  V30 8138 H 731.183 4.91514 -4.28085 0
M  V30 8139 N 734.616 1.57351 0.0885366 0
M  V30 8140 C 735.844 1.90631 0.804196 0
M  V30 8141 C 736.259 0.779474 1.71958 0
M  V30 8142 O 735.616 -0.248179 1.80805 0
M  V30 8143 C 735.667 3.23568 1.61202 0
M  V30 8144 O 735.388 4.31917 0.733447 0
M  V30 8145 C 736.889 3.70753 2.43016 0
M  V30 8146 H 734.109 0.630501 0.229585 0
M  V30 8147 H 736.653 2.044 0.0638092 0
M  V30 8148 H 734.808 3.11377 2.30485 0
M  V30 8149 H 735.222 5.08297 1.29361 0
M  V30 8150 H 736.696 4.66447 2.9518 0
M  V30 8151 H 737.173 2.98922 3.2178 0
M  V30 8152 H 737.779 3.85834 1.7892 0
M  V30 8153 N 736.094 -0.359525 1.53444 0
M  V30 8154 C 737.041 -1.44073 1.8031 0
M  V30 8155 C 738.011 -1.52946 0.647811 0
M  V30 8156 O 739.196 -1.68739 0.890614 0
M  V30 8157 C 736.336 -2.80941 2.00416 0
M  V30 8158 C 735.449 -2.80986 3.28132 0
M  V30 8159 C 734.584 -4.09468 3.38393 0
M  V30 8160 C 733.623 -4.03679 4.60119 0
M  V30 8161 N 732.76 -5.23821 4.675 0
M  V30 8162 H 737.6 -1.20464 2.72566 0
M  V30 8163 H 735.137 -0.583859 1.35017 0
M  V30 8164 H 737.095 -3.60459 2.1006 0
M  V30 8165 H 735.725 -3.02936 1.11489 0
M  V30 8166 H 734.777 -1.93666 3.27411 0
M  V30 8167 H 736.089 -2.72583 4.17732 0
M  V30 8168 H 735.243 -4.97404 3.47382 0
M  V30 8169 H 733.982 -4.20632 2.4682 0
M  V30 8170 H 732.987 -3.14129 4.51224 0
M  V30 8171 H 734.212 -3.94112 5.5304 0
M  V30 8172 H 732.158 -5.35559 3.7883 0
M  V30 8173 H 732.075 -5.17611 5.51013 0
M  V30 8174 H 733.343 -6.13572 4.8078 0
M  V30 8175 N 737.572 -1.44907 -0.619662 0
M  V30 8176 C 738.988 -1.29046 -0.939107 0
M  V30 8177 C 739.188 -0.23462 -2.00129 0
M  V30 8178 O 738.244 0.37558 -2.49691 0
M  V30 8179 C 739.557 -2.66567 -1.39149 0
M  V30 8180 C 741.105 -2.74368 -1.50635 0
M  V30 8181 C 741.58 -4.12386 -1.99253 0
M  V30 8182 N 743.071 -4.1462 -2.06506 0
M  V30 8183 C 743.806 -5.18272 -2.4532 0
M  V30 8184 N 743.302 -6.32278 -2.83189 0
M  V30 8185 N 745.095 -5.05628 -2.45554 0
M  V30 8186 H 737.246 -2.12239 0.0826135 0
M  V30 8187 H 739.509 -0.947652 -0.0256829 0
M  V30 8188 H 739.215 -3.4496 -0.685254 0
M  V30 8189 H 739.089 -2.94224 -2.36034 0
M  V30 8190 H 741.476 -1.96287 -2.20353 0
M  V30 8191 H 741.557 -2.50439 -0.520963 0
M  V30 8192 H 741.201 -4.90947 -1.30127 0
M  V30 8193 H 741.131 -4.33699 -2.98684 0
M  V30 8194 H 743.622 -3.32343 -1.79878 0
M  V30 8195 H 743.935 -7.07172 -3.11652 0
M  V30 8196 H 742.28 -6.35699 -2.80913 0
M  V30 8197 H 745.471 -4.15613 -2.15367 0
M  V30 8198 H 745.644 -5.86529 -2.75478 0
M  V30 8199 N 739.05 0.861098 -1.31996 0
M  V30 8200 C 739.98 1.98482 -1.22993 0
M  V30 8201 C 740.961 1.6971 -0.115168 0
M  V30 8202 O 742.146 1.91849 -0.30126 0
M  V30 8203 C 739.276 3.34179 -0.945615 0
M  V30 8204 C 738.23 3.77284 -2.02091 0
M  V30 8205 C 737.556 5.1054 -1.58912 0
M  V30 8206 C 738.856 3.93439 -3.43515 0
M  V30 8207 H 740.55 2.06271 -2.17008 0
M  V30 8208 H 738.096 0.991043 -1.04472 0
M  V30 8209 H 740.049 4.12338 -0.869206 0
M  V30 8210 H 738.773 3.26586 0.0301849 0
M  V30 8211 H 737.432 3.01371 -2.08737 0
M  V30 8212 H 737.08 4.99397 -0.600942 0
M  V30 8213 H 736.78 5.40352 -2.30854 0
M  V30 8214 H 738.304 5.91199 -1.52696 0
M  V30 8215 H 739.718 4.6197 -3.39495 0
M  V30 8216 H 738.115 4.34661 -4.13751 0
M  V30 8217 H 739.185 2.96548 -3.8365 0
M  V30 8218 N 740.528 1.15101 1.07655 0
M  V30 8219 C 741.753 0.948177 1.84457 0
M  V30 8220 C 742.178 -0.498432 1.81376 0
M  V30 8221 O 741.536 -1.35509 1.20445 0
M  V30 8222 C 741.584 1.46318 3.29581 0
M  V30 8223 O 740.688 0.660342 4.07079 0
M  V30 8224 H 740.029 0.338428 0.571281 0
M  V30 8225 H 742.559 1.5301 1.35828 0
M  V30 8226 H 742.569 1.47468 3.80417 0
M  V30 8227 H 741.244 2.51635 3.31138 0
M  V30 8228 H 739.821 0.718216 3.65918 0
M  V30 8229 N 742.006 -1.2595 0.947325 0
M  V30 8230 C 742.938 -2.25336 0.41906 0
M  V30 8231 C 743.951 -1.56135 -0.461051 0
M  V30 8232 O 745.14 -1.76438 -0.270505 0
M  V30 8233 C 742.24 -3.36334 -0.416233 0
M  V30 8234 C 741.413 -4.35088 0.449162 0
M  V30 8235 C 740.472 -5.25185 -0.326716 0
M  V30 8236 O 739.498 -5.68548 0.272374 0
M  V30 8237 N 740.7 -5.57388 -1.6217 0
M  V30 8238 H 743.465 -2.71298 1.27348 0
M  V30 8239 H 741.026 -1.39781 0.81688 0
M  V30 8240 H 743.018 -3.93564 -0.942826 0
M  V30 8241 H 741.588 -2.89819 -1.17148 0
M  V30 8242 H 740.808 -3.76841 1.15692 0
M  V30 8243 H 742.096 -4.98056 1.04008 0
M  V30 8244 H 741.494 -5.2405 -2.13046 0
M  V30 8245 H 740.051 -6.17234 -2.0944 0
M  V30 8246 N 743.484 -0.715051 -1.40445 0
M  V30 8247 C 744.432 -0.0509974 -2.32544 0
M  V30 8248 C 745.426 0.747602 -1.52011 0
M  V30 8249 O 746.632 0.651031 -1.67814 0
M  V30 8250 H 743.007 0.00231113 -0.751996 0
M  V30 8251 H 744.978 -0.84449 -2.86201 0
M  V30 8252 C 743.727 0.857101 -3.3697 0
M  V30 8253 H 743.05 0.252 -3.99005 0
M  V30 8254 H 744.49 1.28971 -4.03909 0
M  V30 8255 C 742.949 1.98231 -2.72408 0
M  V30 8256 O 743.479 3.07309 -2.58697 0
M  V30 8257 N 741.685 1.76577 -2.308 0
M  V30 8258 H 741.232 0.878641 -2.42152 0
M  V30 8259 H 741.19 2.52043 -1.87941 0
M  V30 8260 N 744.962 1.50701 -0.461195 0
M  V30 8261 C 745.892 2.31182 0.328184 0
M  V30 8262 C 746.873 1.37644 0.999408 0
M  V30 8263 O 748.058 1.66565 0.99848 0
M  V30 8264 C 745.188 3.17113 1.41621 0
M  V30 8265 C 744.142 4.19124 0.867148 0
M  V30 8266 C 743.468 4.93728 2.05272 0
M  V30 8267 C 744.768 5.22174 -0.114808 0
M  V30 8268 H 746.462 2.97423 -0.343501 0
M  V30 8269 H 744.008 1.43033 -0.166641 0
M  V30 8270 H 745.961 3.72208 1.97584 0
M  V30 8271 H 744.685 2.48739 2.11652 0
M  V30 8272 H 743.344 3.65116 0.329557 0
M  V30 8273 H 742.992 4.21835 2.73978 0
M  V30 8274 H 742.692 5.62724 1.69161 0
M  V30 8275 H 744.216 5.51654 2.61744 0
M  V30 8276 H 745.63 5.72198 0.355316 0
M  V30 8277 H 744.027 5.98833 -0.389689 0
M  V30 8278 H 745.097 4.7353 -1.04391 0
M  V30 8279 N 746.441 0.193421 1.56409 0
M  V30 8280 C 747.666 -0.454552 2.02358 0
M  V30 8281 C 748.091 -1.54516 1.07268 0
M  V30 8282 O 747.449 -1.81214 0.0558962 0
M  V30 8283 C 747.497 -0.989469 3.46759 0
M  V30 8284 O 746.601 -2.10244 3.54783 0
M  V30 8285 H 745.942 -0.106417 0.655417 0
M  V30 8286 H 748.472 0.303807 2.02332 0
M  V30 8287 H 748.482 -1.30649 3.86516 0
M  V30 8288 H 747.157 -0.191083 4.15461 0
M  V30 8289 H 745.734 -1.79419 3.26899 0
M  V30 8290 N 747.919 -1.57396 -0.0801906 0
M  V30 8291 C 748.849 -2.06145 -1.09665 0
M  V30 8292 C 749.83 -0.953273 -1.40878 0
M  V30 8293 O 751.015 -1.22548 -1.50651 0
M  V30 8294 C 748.145 -2.49836 -2.41245 0
M  V30 8295 C 747.099 -3.64454 -2.24405 0
M  V30 8296 C 746.425 -3.94172 -3.61293 0
M  V30 8297 C 747.725 -4.94807 -1.67223 0
M  V30 8298 H 749.419 -2.91316 -0.691028 0
M  V30 8299 H 746.965 -1.40145 -0.330957 0
M  V30 8300 H 748.918 -2.82552 -3.12638 0
M  V30 8301 H 747.642 -1.61683 -2.83771 0
M  V30 8302 H 746.301 -3.32008 -1.55454 0
M  V30 8303 H 745.949 -3.03163 -4.01374 0
M  V30 8304 H 745.649 -4.71345 -3.50867 0
M  V30 8305 H 747.173 -4.29376 -4.3413 0
M  V30 8306 H 748.587 -5.25807 -2.28472 0
M  V30 8307 H 746.984 -5.76245 -1.67515 0
M  V30 8308 H 748.054 -4.80751 -0.632944 0
M  V30 8309 N 749.397 0.351382 -1.53633 0
M  V30 8310 C 750.674 1.10903 -1.6112 0
M  V30 8311 C 751.054 2.06725 -0.427556 0
M  V30 8312 O 750.402 2.20992 0.580916 0
M  V30 8313 C 750.612 1.83561 -2.96827 0
M  V30 8314 C 751.96 2.37587 -3.51906 0
M  V30 8315 O 752.984 1.93669 -2.9895 0
M  V30 8316 O 751.843 3.17913 -4.44515 0
M  V30 8317 H 748.937 0.509558 -0.651368 0
M  V30 8318 H 751.483 0.353504 -1.65977 0
M  V30 8319 H 750.255 1.1371 -3.74414 0
M  V30 8320 H 749.878 2.6599 -2.95525 0
M  V30 8321 N 750.875 1.45233 0.611969 0
M  V30 8322 C 751.825 1.49997 1.71711 0
M  V30 8323 C 752.809 0.363689 1.56736 0
M  V30 8324 O 754.001 0.610261 1.66147 0
M  V30 8325 C 751.13 1.46537 3.10454 0
M  V30 8326 C 750.216 2.65351 3.30831 0
M  V30 8327 N 750.607 3.90485 3.21489 0
M  V30 8328 C 748.905 2.60955 3.61688 0
M  V30 8329 C 749.606 4.69758 3.43078 0
M  V30 8330 N 748.582 4.01141 3.66861 0
M  V30 8331 H 752.384 2.44574 1.62975 0
M  V30 8332 H 749.898 1.40464 0.815082 0
M  V30 8333 H 751.895 1.48035 3.89732 0
M  V30 8334 H 750.555 0.530139 3.20343 0
M  V30 8335 H 751.566 4.22171 2.99987 0
M  V30 8336 H 748.243 1.76319 3.78441 0
M  V30 8337 H 749.633 5.7877 3.41285 0
M  V30 8338 N 752.353 -0.854086 1.3245 0
M  V30 8339 C 753.6 -1.60831 1.23043 0
M  V30 8340 C 753.928 -1.93389 -0.2076 0
M  V30 8341 O 753.183 -1.5756 -1.16075 0
M  V30 8342 C 753.482 -2.93746 2.03587 0
M  V30 8343 C 753.148 -2.80615 3.52939 0
M  V30 8344 C 751.81 -2.76742 3.93659 0
M  V30 8345 C 754.162 -2.66507 4.4791 0
M  V30 8346 C 751.49 -2.56638 5.27592 0
M  V30 8347 C 753.842 -2.47939 5.81987 0
M  V30 8348 C 752.506 -2.42458 6.21909 0
M  V30 8349 H 751.776 -0.588523 0.450247 0
M  V30 8350 H 754.423 -0.990699 1.63882 0
M  V30 8351 H 752.728 -3.5963 1.55478 0
M  V30 8352 H 754.425 -3.51127 1.93677 0
M  V30 8353 H 751.015 -2.84456 3.20598 0
M  V30 8354 H 755.199 -2.68544 4.1737 0
M  V30 8355 H 750.455 -2.50831 5.57579 0
M  V30 8356 H 754.629 -2.36002 6.55192 0
M  V30 8357 H 752.256 -2.2664 7.2563 0
M  V30 8358 N 753.831 -1.1567 -1.07043 0
M  V30 8359 C 755.108 -0.843948 -1.76456 0
M  V30 8360 C 755.488 0.659806 -2.00524 0
M  V30 8361 O 754.836 1.60518 -1.62623 0
M  V30 8362 C 755.046 -1.65822 -3.0709 0
M  V30 8363 C 756.394 -1.8664 -3.8138 0
M  V30 8364 O 757.418 -1.62624 -3.1691 0
M  V30 8365 O 756.277 -2.26884 -4.97178 0
M  V30 8366 H 753.371 -0.310677 -0.766426 0
M  V30 8367 H 755.917 -1.26266 -1.1338 0
M  V30 8368 H 754.689 -2.67902 -2.85209 0
M  V30 8369 H 754.312 -1.23605 -3.77899 0
M  V30 8370 N 755.309 1.25446 -0.953992 0
M  V30 8371 C 756.219 2.29632 -0.480264 0
M  V30 8372 C 757.235 1.68025 0.452071 0
M  V30 8373 O 758.411 1.98703 0.328472 0
M  V30 8374 C 755.476 3.45903 0.234974 0
M  V30 8375 C 754.537 4.22953 -0.735495 0
M  V30 8376 C 753.77 5.33672 -0.0542957 0
M  V30 8377 O 753.993 5.58477 1.16018 0
M  V30 8378 O 752.927 5.9734 -0.739509 0
M  V30 8379 H 756.753 2.72242 -1.34602 0
M  V30 8380 H 754.338 1.30883 -0.720419 0
M  V30 8381 H 756.22 4.16552 0.637341 0
M  V30 8382 H 754.895 3.05296 1.07592 0
M  V30 8383 H 753.802 3.54734 -1.18806 0
M  V30 8384 H 755.135 4.67341 -1.54444 0
M  V30 8385 N 756.787 0.722489 1.40064 0
M  V30 8386 C 757.737 0.0506801 2.27944 0
M  V30 8387 C 758.721 -0.725493 1.43615 0
M  V30 8388 O 759.913 -0.596559 1.66644 0
M  V30 8389 C 757.042 -0.865195 3.32219 0
M  V30 8390 C 756.128 -0.0838393 4.24017 0
M  V30 8391 N 756.519 0.936516 4.97054 0
M  V30 8392 C 754.817 -0.315371 4.44884 0
M  V30 8393 C 755.518 1.4066 5.64437 0
M  V30 8394 N 754.494 0.727485 5.3871 0
M  V30 8395 H 758.296 0.832609 2.8186 0
M  V30 8396 H 755.81 0.555691 1.52597 0
M  V30 8397 H 757.807 -1.36186 3.94029 0
M  V30 8398 H 756.467 -1.64642 2.79862 0
M  V30 8399 H 757.478 1.31755 5.0086 0
M  V30 8400 H 754.155 -1.07238 4.03492 0
M  V30 8401 H 755.545 2.25482 6.32936 0
M  V30 8402 N 758.265 -1.50454 0.469181 0
M  V30 8403 C 759.513 -2.01916 -0.0862982 0
M  V30 8404 C 759.834 -1.35337 -1.40388 0
M  V30 8405 O 759.104 -0.498096 -1.89462 0
M  V30 8406 H 757.684 -0.746185 -0.0348825 0
M  V30 8407 H 760.346 -1.84804 0.619167 0
M  V30 8408 H 759.442 -3.11182 -0.239189 0
M  V30 8409 N 759.743 -0.201713 -1.56304 0
M  V30 8410 C 761.02 0.483273 -1.89536 0
M  V30 8411 C 761.4 1.79176 -1.11621 0
M  V30 8412 O 760.748 2.27445 -0.219339 0
M  V30 8413 C 760.958 0.695604 -3.41998 0
M  V30 8414 C 762.306 1.012 -4.12364 0
M  V30 8415 O 763.33 0.783094 -3.47485 0
M  V30 8416 O 762.189 1.44534 -5.27041 0
M  V30 8417 H 759.283 0.252801 -0.787414 0
M  V30 8418 H 761.829 -0.24242 -1.6796 0
M  V30 8419 H 760.601 -0.228165 -3.90634 0
M  V30 8420 H 760.224 1.47351 -3.69288 0
M  V30 8421 N 761.222 1.57436 0.0718424 0
M  V30 8422 C 762.633 1.75975 0.623678 0
M  V30 8423 C 762.984 0.827155 1.77912 0
M  V30 8424 O 762.109 0.0112425 2.16397 0
M  V30 8425 C 762.704 3.1911 1.13816 0
M  V30 8426 C 761.263 3.38994 1.63586 0
M  V30 8427 C 760.41 2.71684 0.555261 0
M  V30 8428 H 763.361 1.57948 -0.154328 0
M  V30 8429 H 763.382 3.23267 2.00696 0
M  V30 8430 H 762.894 3.86962 0.296998 0
M  V30 8431 H 760.995 2.76256 2.50027 0
M  V30 8432 H 761.108 4.47436 1.71283 0
M  V30 8433 H 759.472 2.34236 1.00029 0
M  V30 8434 H 760.255 3.42191 -0.275712 0
M  V30 8435 N 762.7 -0.34323 1.53817 0
M  V30 8436 C 763.63 -1.42709 1.84814 0
M  V30 8437 C 764.611 -1.5488 0.703297 0
M  V30 8438 O 765.796 -1.69082 0.955237 0
M  V30 8439 C 762.926 -2.79756 2.05801 0
M  V30 8440 C 761.88 -2.82392 3.21619 0
M  V30 8441 C 761.206 -4.22326 3.2794 0
M  V30 8442 C 762.506 -2.479 4.59721 0
M  V30 8443 H 764.2 -1.17018 2.75585 0
M  V30 8444 H 761.746 -0.561485 1.32602 0
M  V30 8445 H 763.699 -3.55627 2.26069 0
M  V30 8446 H 762.423 -3.06883 1.11761 0
M  V30 8447 H 761.082 -2.08974 3.01207 0
M  V30 8448 H 760.73 -4.46564 2.31494 0
M  V30 8449 H 760.43 -4.25001 4.05768 0
M  V30 8450 H 761.954 -5.00039 3.50419 0
M  V30 8451 H 763.368 -3.13484 4.80001 0
M  V30 8452 H 761.765 -2.61857 5.39954 0
M  V30 8453 H 762.835 -1.43087 4.63308 0
M  V30 8454 N 764.178 -1.45556 -0.604258 0
M  V30 8455 C 765.11 -1.50494 -1.72871 0
M  V30 8456 C 766.123 -0.395368 -1.57926 0
M  V30 8457 O 767.312 -0.662603 -1.65746 0
M  V30 8458 C 764.412 -1.34874 -3.10906 0
M  V30 8459 C 763.585 -2.59564 -3.52058 0
M  V30 8460 C 762.644 -2.38453 -4.6907 0
M  V30 8461 O 761.67 -3.12082 -4.76018 0
M  V30 8462 N 762.872 -1.43229 -5.62553 0
M  V30 8463 H 765.637 -2.4744 -1.69097 0
M  V30 8464 H 763.198 -1.41338 -0.789636 0
M  V30 8465 H 765.19 -1.18556 -3.86945 0
M  V30 8466 H 763.76 -0.461913 -3.09168 0
M  V30 8467 H 762.98 -2.90974 -2.65946 0
M  V30 8468 H 764.268 -3.42441 -3.76313 0
M  V30 8469 H 763.666 -0.824714 -5.59656 0
M  V30 8470 H 762.223 -1.32882 -6.38111 0
M  V30 8471 N 765.656 0.84705 -1.32902 0
M  V30 8472 C 767.072 1.13645 -1.12058 0
M  V30 8473 C 767.272 2.01281 0.093937 0
M  V30 8474 O 766.328 2.4026 0.776608 0
M  V30 8475 C 767.641 1.80644 -2.40392 0
M  V30 8476 C 769.189 1.93246 -2.46221 0
M  V30 8477 C 769.664 2.6366 -3.74496 0
M  V30 8478 N 771.155 2.71179 -3.75521 0
M  V30 8479 C 771.89 3.26332 -4.71482 0
M  V30 8480 N 771.386 3.82236 -5.77813 0
M  V30 8481 N 773.179 3.24507 -4.58968 0
M  V30 8482 H 765.33 0.263612 -2.10758 0
M  V30 8483 H 767.593 0.17944 -0.930863 0
M  V30 8484 H 767.299 1.23708 -3.29225 0
M  V30 8485 H 767.173 2.80736 -2.51926 0
M  V30 8486 H 769.56 2.49338 -1.57843 0
M  V30 8487 H 769.641 0.921272 -2.38634 0
M  V30 8488 H 769.285 2.08229 -4.63253 0
M  V30 8489 H 769.215 3.65234 -3.79357 0
M  V30 8490 H 771.706 2.31527 -2.9867 0
M  V30 8491 H 772.019 4.22499 -6.47082 0
M  V30 8492 H 770.364 3.80546 -5.81558 0
M  V30 8493 H 773.555 2.80085 -3.7506 0
M  V30 8494 H 773.728 3.67188 -5.33926 0
M  V30 8495 N 767.134 1.16236 1.06428 0
M  V30 8496 C 768.066 0.825446 2.1382 0
M  V30 8497 C 769.079 -0.166707 1.61944 0
M  V30 8498 O 770.268 0.0578606 1.78406 0
M  V30 8499 C 767.368 0.208023 3.38261 0
M  V30 8500 C 766.541 1.23994 4.19457 0
M  V30 8501 C 765.6 0.642569 5.22262 0
M  V30 8502 O 764.626 1.31106 5.53895 0
M  V30 8503 N 765.828 -0.571327 5.77682 0
M  V30 8504 H 768.593 1.7497 2.43322 0
M  V30 8505 H 766.154 1.05951 1.22417 0
M  V30 8506 H 768.146 -0.204608 4.04182 0
M  V30 8507 H 766.716 -0.619752 3.06395 0
M  V30 8508 H 765.936 1.82879 3.49212 0
M  V30 8509 H 767.224 1.93638 4.70512 0
M  V30 8510 H 766.622 -1.13263 5.54245 0
M  V30 8511 H 765.179 -0.926187 6.45186 0
M  V30 8512 N 768.612 -1.24939 0.960631 0
M  V30 8513 C 770.028 -1.45039 0.666018 0
M  V30 8514 C 770.228 -1.86021 -0.774501 0
M  V30 8515 O 769.284 -1.99392 -1.54916 0
M  V30 8516 C 770.597 -2.51775 1.64408 0
M  V30 8517 C 772.145 -2.6561 1.65592 0
M  V30 8518 C 772.62 -3.75536 2.62177 0
M  V30 8519 N 774.111 -3.82954 2.60577 0
M  V30 8520 C 774.846 -4.67517 3.31987 0
M  V30 8521 N 774.342 -5.56321 4.1289 0
M  V30 8522 N 776.135 -4.61535 3.20845 0
M  V30 8523 H 768.286 -0.96632 1.89145 0
M  V30 8524 H 770.549 -0.486034 0.813926 0
M  V30 8525 H 770.255 -2.28534 2.67329 0
M  V30 8526 H 770.129 -3.49804 1.41128 0
M  V30 8527 H 772.516 -2.88212 0.633846 0
M  V30 8528 H 772.597 -1.67962 1.92931 0
M  V30 8529 H 772.241 -3.53684 3.64514 0
M  V30 8530 H 772.171 -4.72682 2.32119 0
M  V30 8531 H 774.662 -3.19478 2.01847 0
M  V30 8532 H 774.975 -6.17787 4.64283 0
M  V30 8533 H 773.32 -5.5601 4.16987 0
M  V30 8534 H 776.511 -3.91169 2.57108 0
M  V30 8535 H 776.684 -5.27214 3.76762 0
M  V30 8536 N 770.09 -0.729906 -1.39679 0
M  V30 8537 C 771.053 -0.0951668 -2.29002 0
M  V30 8538 C 772.053 0.672471 -1.46063 0
M  V30 8539 O 773.243 0.502245 -1.66803 0
M  V30 8540 C 770.375 0.874631 -3.29489 0
M  V30 8541 H 771.568 -0.882062 -2.86635 0
M  V30 8542 H 769.121 -0.495424 -1.4824 0
M  V30 8543 H 769.856 1.68807 -2.76902 0
M  V30 8544 H 769.641 0.326893 -3.90735 0
M  V30 8545 H 771.131 1.31548 -3.96339 0
M  V30 8546 N 771.568 1.50203 -0.477153 0
M  V30 8547 C 772.498 2.31517 0.303646 0
M  V30 8548 C 773.479 1.38696 0.984753 0
M  V30 8549 O 774.664 1.67615 0.980758 0
M  V30 8550 C 771.794 3.18598 1.38249 0
M  V30 8551 C 770.748 4.2002 0.822645 0
M  V30 8552 C 770.074 4.95878 2.00024 0
M  V30 8553 C 771.374 5.22023 -0.170185 0
M  V30 8554 H 773.068 2.97042 -0.375027 0
M  V30 8555 H 770.614 1.42848 -0.181802 0
M  V30 8556 H 772.567 3.74282 1.93625 0
M  V30 8557 H 771.291 2.5097 2.09002 0
M  V30 8558 H 769.95 3.65445 0.290813 0
M  V30 8559 H 769.598 4.24717 2.69489 0
M  V30 8560 H 769.298 5.64487 1.63183 0
M  V30 8561 H 770.822 5.54399 2.55878 0
M  V30 8562 H 772.236 5.72543 0.294606 0
M  V30 8563 H 770.633 5.98386 -0.453181 0
M  V30 8564 H 771.703 4.72396 -1.09408 0
M  V30 8565 N 773.046 0.209999 1.56195 0
M  V30 8566 C 774.271 -0.433064 2.02828 0
M  V30 8567 C 774.696 -1.5337 1.08901 0
M  V30 8568 O 774.054 -1.81144 0.0751132 0
M  V30 8569 C 774.102 -0.952635 3.47789 0
M  V30 8570 O 773.206 -2.0647 3.56993 0
M  V30 8571 H 772.547 -0.0994594 0.656509 0
M  V30 8572 H 775.077 0.32525 2.01998 0
M  V30 8573 H 775.087 -1.26542 3.8788 0
M  V30 8574 H 773.762 -0.147007 4.1564 0
M  V30 8575 H 772.339 -1.75942 3.28784 0
M  V30 8576 N 774.524 -1.57472 -0.0634922 0
M  V30 8577 C 775.487 -2.03268 -1.059 0
M  V30 8578 C 776.487 -0.931028 -1.31105 0
M  V30 8579 O 777.677 -1.19567 -1.26686 0
M  V30 8580 C 774.809 -2.42039 -2.40062 0
M  V30 8581 H 776.002 -2.92454 -0.664119 0
M  V30 8582 H 773.555 -1.53206 -0.309444 0
M  V30 8583 H 774.29 -1.55904 -2.84367 0
M  V30 8584 H 774.075 -3.22437 -2.23108 0
M  V30 8585 H 775.565 -2.78017 -3.11603 0
M  V30 8586 N 776.003 0.335068 -1.53997 0
M  V30 8587 C 777.249 1.07594 -1.71905 0
M  V30 8588 C 777.582 1.88039 -0.485264 0
M  V30 8589 O 776.857 1.87482 0.517752 0
M  V30 8590 C 777.14 2.01016 -2.98772 0
M  V30 8591 C 776.993 1.23977 -4.32377 0
M  V30 8592 C 778.312 3.0071 -3.21343 0
M  V30 8593 H 775.431 0.38976 -0.625505 0
M  V30 8594 H 778.073 0.353684 -1.86679 0
M  V30 8595 H 776.223 2.62603 -2.86307 0
M  V30 8596 H 777.895 0.649383 -4.56706 0
M  V30 8597 H 776.138 0.541878 -4.30402 0
M  V30 8598 H 776.809 1.92512 -5.17342 0
M  V30 8599 H 779.285 2.4924 -3.33194 0
M  V30 8600 H 778.161 3.63272 -4.11491 0
M  V30 8601 H 778.422 3.72549 -2.38033 0
M  V30 8602 N 777.481 1.45874 0.596531 0
M  V30 8603 C 778.706 1.54247 1.38646 0
M  V30 8604 C 779.131 0.179571 1.87241 0
M  V30 8605 O 778.489 -0.837831 1.6078 0
M  V30 8606 C 778.537 2.54015 2.55946 0
M  V30 8607 O 777.641 2.06561 3.5694 0
M  V30 8608 H 776.982 0.519555 0.413471 0
M  V30 8609 H 779.512 1.91327 0.724936 0
M  V30 8610 H 779.522 2.73179 3.03047 0
M  V30 8611 H 778.197 3.52994 2.19928 0
M  V30 8612 H 776.774 1.97324 3.16414 0
M  V30 8613 N 778.959 -0.83999 1.33349 0
M  V30 8614 C 780.208 -1.59011 1.2409 0
M  V30 8615 C 780.521 -1.94655 -0.192029 0
M  V30 8616 O 781.727 -2.68438 -0.406617 0
M  V30 8617 C 780.183 -2.86801 2.17425 0
M  V30 8618 C 779.791 -2.58525 3.65881 0
M  V30 8619 C 781.535 -3.64823 2.17036 0
M  V30 8620 C 779.442 -3.82404 4.51133 0
M  V30 8621 H 778.372 -0.596731 0.460899 0
M  V30 8622 H 781.023 -0.926274 1.58406 0
M  V30 8623 H 779.405 -3.54719 1.7604 0
M  V30 8624 H 780.579 -1.98824 4.15699 0
M  V30 8625 H 778.894 -1.93808 3.68548 0
M  V30 8626 H 781.491 -4.56774 2.7796 0
M  V30 8627 H 781.834 -3.99663 1.16513 0
M  V30 8628 H 782.367 -3.03826 2.56777 0
M  V30 8629 H 779.106 -3.52696 5.52527 0
M  V30 8630 H 778.626 -4.41447 4.0606 0
M  V30 8631 H 780.305 -4.49995 4.6488 0
M  V30 8632 N 780.437 -1.16799 -1.0581 0
M  V30 8633 C 781.367 -0.902241 -2.15364 0
M  V30 8634 C 782.348 0.153351 -1.69407 0
M  V30 8635 O 783.533 0.00442032 -1.94199 0
M  V30 8636 C 780.663 -0.407911 -3.44896 0
M  V30 8637 C 779.617 -1.40197 -4.04387 0
M  V30 8638 C 778.943 -0.765848 -5.29187 0
M  V30 8639 C 780.243 -2.77316 -4.42598 0
M  V30 8640 H 781.937 -1.81841 -2.37853 0
M  V30 8641 H 779.483 -0.875731 -1.14311 0
M  V30 8642 H 781.436 -0.20945 -4.20879 0
M  V30 8643 H 780.16 0.54378 -3.22041 0
M  V30 8644 H 778.819 -1.58707 -3.30466 0
M  V30 8645 H 778.467 0.192482 -5.02632 0
M  V30 8646 H 778.167 -1.42939 -5.69949 0
M  V30 8647 H 779.691 -0.577519 -6.07863 0
M  V30 8648 H 781.105 -2.62561 -5.09642 0
M  V30 8649 H 779.502 -3.4019 -4.94359 0
M  V30 8650 H 780.572 -3.32199 -3.53231 0
M  V30 8651 N 781.915 1.24427 -0.967243 0
M  V30 8652 C 783.143 1.96541 -0.646477 0
M  V30 8653 C 783.558 1.71753 0.783996 0
M  V30 8654 O 782.915 1.00102 1.52597 0
M  V30 8655 C 782.966 3.4983 -0.911098 0
M  V30 8656 O 782.687 3.7377 -2.28534 0
M  V30 8657 C 784.188 4.3916 -0.604458 0
M  V30 8658 H 781.408 0.626129 -0.241255 0
M  V30 8659 H 783.952 1.58268 -1.29505 0
M  V30 8660 H 782.107 3.86168 -0.308741 0
M  V30 8661 H 782.521 4.68154 -2.365 0
M  V30 8662 H 783.995 5.4557 -0.840069 0
M  V30 8663 H 784.472 4.36771 0.461273 0
M  V30 8664 H 785.078 4.08409 -1.1867 0
M  V30 8665 N 783.393 0.737304 1.3929 0
M  V30 8666 C 784.642 0.283129 1.99703 0
M  V30 8667 C 784.955 -1.13677 1.59176 0
M  V30 8668 O 786.161 -1.69058 2.12442 0
M  V30 8669 C 784.617 0.455262 3.57009 0
M  V30 8670 C 784.225 1.88319 4.06497 0
M  V30 8671 C 785.969 0.0629786 4.24453 0
M  V30 8672 C 783.876 2.00475 5.56385 0
M  V30 8673 H 782.806 0.102106 0.747054 0
M  V30 8674 H 785.457 0.911515 1.5926 0
M  V30 8675 H 783.839 -0.242057 3.9526 0
M  V30 8676 H 785.013 2.61265 3.79575 0
M  V30 8677 H 783.328 2.2289 3.51723 0
M  V30 8678 H 785.925 0.132787 5.34535 0
M  V30 8679 H 786.268 -0.982128 4.04549 0
M  V30 8680 H 786.801 0.71154 3.91385 0
M  V30 8681 H 783.54 3.03182 5.81172 0
M  V30 8682 H 783.06 1.31969 5.85102 0
M  V30 8683 H 784.739 1.787 6.21832 0
M  V30 8684 N 784.871 -1.49948 0.485112 0
M  V30 8685 C 786.099 -2.06806 -0.0622824 0
M  V30 8686 C 786.514 -1.34736 -1.32256 0
M  V30 8687 O 785.871 -0.420836 -1.77582 0
M  V30 8688 C 785.922 -3.59934 -0.336096 0
M  V30 8689 O 785.643 -4.29289 0.874203 0
M  V30 8690 C 787.144 -4.33459 -0.928903 0
M  V30 8691 H 784.364 -0.670867 0.0133472 0
M  V30 8692 H 786.908 -1.92937 0.677917 0
M  V30 8693 H 785.063 -3.7356 -1.02625 0
M  V30 8694 H 785.477 -5.20735 0.627332 0
M  V30 8695 H 786.951 -5.41527 -1.07017 0
M  V30 8696 H 787.428 -3.94881 -1.92265 0
M  V30 8697 H 788.034 -4.24399 -0.276705 0
M  V30 8698 N 786.349 -0.21828 -1.56081 0
M  V30 8699 C 787.282 0.733096 -2.16104 0
M  V30 8700 C 788.26 1.19333 -1.10447 0
M  V30 8701 O 789.444 1.27666 -1.38685 0
M  V30 8702 C 786.571 1.99283 -2.73868 0
M  V30 8703 C 785.617 1.67285 -3.92324 0
M  V30 8704 S 786.45 0.800511 -5.29483 0
M  V30 8705 C 787.606 2.06988 -5.90683 0
M  V30 8706 H 787.839 0.222917 -2.96463 0
M  V30 8707 H 785.372 -0.00300946 -1.544 0
M  V30 8708 H 787.33 2.71618 -3.07789 0
M  V30 8709 H 785.991 2.47414 -1.93508 0
M  V30 8710 H 785.184 2.60874 -4.31232 0
M  V30 8711 H 784.786 1.03016 -3.59533 0
M  V30 8712 H 787.078 3.02019 -6.06457 0
M  V30 8713 H 788.021 1.72476 -6.86773 0
M  V30 8714 H 788.429 2.20893 -5.19487 0
M  V30 8715 N 787.827 1.57504 0.0551401 0
M  V30 8716 C 788.774 2.04825 1.06373 0
M  V30 8717 C 789.744 0.932108 1.37481 0
M  V30 8718 O 790.929 1.20093 1.48265 0
M  V30 8719 C 788.069 2.51091 2.36743 0
M  V30 8720 C 787.182 3.76392 2.12021 0
M  V30 8721 C 786.317 4.11373 3.36074 0
M  V30 8722 C 785.356 5.29666 3.0679 0
M  V30 8723 N 784.493 5.60205 4.2322 0
M  V30 8724 H 789.333 2.90753 0.653216 0
M  V30 8725 H 786.87 1.43776 0.310951 0
M  V30 8726 H 788.828 2.75973 3.12881 0
M  V30 8727 H 787.458 1.68118 2.75565 0
M  V30 8728 H 786.51 3.58751 1.26498 0
M  V30 8729 H 787.822 4.62662 1.86401 0
M  V30 8730 H 786.976 4.37245 4.20597 0
M  V30 8731 H 785.715 3.23704 3.64784 0
M  V30 8732 H 784.72 5.03574 2.20664 0
M  V30 8733 H 785.945 6.18968 2.79385 0
M  V30 8734 H 783.891 4.75495 4.5193 0
M  V30 8735 H 783.808 6.40928 4.00933 0
M  V30 8736 H 785.076 5.90637 5.08692 0
M  V30 8737 N 789.305 -0.326896 1.54172 0
M  V30 8738 C 790.215 -1.42525 1.86343 0
M  V30 8739 C 791.231 -1.56764 0.75505 0
M  V30 8740 O 792.407 -1.71924 1.04901 0
M  V30 8741 C 789.472 -2.77286 2.08119 0
M  V30 8742 C 788.533 -2.7225 3.31931 0
M  V30 8743 C 787.766 -4.00584 3.52659 0
M  V30 8744 O 787.989 -4.98686 2.76891 0
M  V30 8745 O 786.923 -4.04045 4.46129 0
M  V30 8746 H 790.749 -1.18249 2.79734 0
M  V30 8747 H 788.334 -0.520614 1.40036 0
M  V30 8748 H 790.216 -3.57065 2.23791 0
M  V30 8749 H 788.891 -3.01459 1.17917 0
M  V30 8750 H 787.798 -1.91033 3.21647 0
M  V30 8751 H 789.131 -2.53032 4.2218 0
M  V30 8752 N 790.784 -1.46188 -0.588786 0
M  V30 8753 C 791.716 -1.52319 -1.71265 0
M  V30 8754 C 792.729 -0.412096 -1.57498 0
M  V30 8755 O 793.918 -0.680146 -1.65034 0
M  V30 8756 C 791.018 -1.38164 -3.09458 0
M  V30 8757 C 790.191 -2.63284 -3.49286 0
M  V30 8758 C 789.25 -2.43415 -4.66514 0
M  V30 8759 O 788.276 -3.17113 -4.72682 0
M  V30 8760 N 789.478 -1.49187 -5.61002 0
M  V30 8761 H 792.243 -2.49219 -1.66463 0
M  V30 8762 H 789.804 -1.42167 -0.774601 0
M  V30 8763 H 791.796 -1.22653 -3.85666 0
M  V30 8764 H 790.366 -0.494678 -3.08661 0
M  V30 8765 H 789.586 -2.93779 -2.62845 0
M  V30 8766 H 790.874 -3.46413 -3.7266 0
M  V30 8767 H 790.272 -0.884027 -5.5875 0
M  V30 8768 H 788.829 -1.39642 -6.36666 0
M  V30 8769 N 792.262 0.832906 -1.33792 0
M  V30 8770 C 793.172 1.97514 -1.26592 0
M  V30 8771 C 794.188 1.73114 -0.175391 0
M  V30 8772 O 795.364 1.97387 -0.400062 0
M  V30 8773 C 792.429 3.31625 -1.01121 0
M  V30 8774 C 791.49 3.69101 -2.19233 0
M  V30 8775 C 790.723 4.96813 -1.94968 0
M  V30 8776 O 790.946 5.63208 -0.902955 0
M  V30 8777 O 789.88 5.31932 -2.8166 0
M  V30 8778 H 793.706 2.0653 -2.22664 0
M  V30 8779 H 791.291 0.966826 -1.13898 0
M  V30 8780 H 793.173 4.11968 -0.886571 0
M  V30 8781 H 791.848 3.23599 -0.080822 0
M  V30 8782 H 790.755 2.89243 -2.37253 0
M  V30 8783 H 792.088 3.818 -3.10628 0
M  V30 8784 N 793.74 1.17359 1.05189 0
M  V30 8785 C 794.687 0.890325 2.12936 0
M  V30 8786 C 795.657 -0.165779 1.65271 0
M  V30 8787 O 796.842 -0.0285672 1.90779 0
M  V30 8788 C 793.982 0.409793 3.42658 0
M  V30 8789 C 793.095 1.53002 4.03998 0
M  V30 8790 C 792.23 1.00336 5.21638 0
M  V30 8791 C 791.269 2.09903 5.74984 0
M  V30 8792 N 790.406 1.58714 6.83926 0
M  V30 8793 H 795.246 1.81299 2.36505 0
M  V30 8794 H 792.783 0.904249 1.16025 0
M  V30 8795 H 794.741 0.112743 4.17048 0
M  V30 8796 H 793.371 -0.475915 3.19272 0
M  V30 8797 H 792.423 1.9428 3.27047 0
M  V30 8798 H 793.735 2.3564 4.39631 0
M  V30 8799 H 792.889 0.660158 6.03098 0
M  V30 8800 H 791.628 0.14642 4.8748 0
M  V30 8801 H 790.633 2.45081 4.92154 0
M  V30 8802 H 791.858 2.96013 6.1119 0
M  V30 8803 H 789.804 0.752915 6.51665 0
M  V30 8804 H 789.721 2.34959 7.18561 0
M  V30 8805 H 790.989 1.27287 7.69037 0
M  V30 8806 N 795.218 -1.23913 0.973828 0
M  V30 8807 C 796.443 -1.96735 0.656511 0
M  V30 8808 C 796.868 -1.71682 -0.768571 0
M  V30 8809 O 796.226 -0.984267 -1.52256 0
M  V30 8810 C 796.274 -3.48004 0.944735 0
M  V30 8811 O 795.378 -4.12387 0.0333357 0
M  V30 8812 H 794.719 -0.616119 0.247575 0
M  V30 8813 H 797.249 -1.57525 1.30564 0
M  V30 8814 H 797.259 -3.98424 0.87876 0
M  V30 8815 H 795.934 -3.65567 1.98328 0
M  V30 8816 H 794.511 -3.72585 0.153157 0
M  V30 8817 N 796.696 -0.74468 -1.38897 0
M  V30 8818 C 797.628 -0.0713608 -2.29089 0
M  V30 8819 C 798.641 0.693224 -1.47303 0
M  V30 8820 O 799.83 0.535785 -1.70269 0
M  V30 8821 C 796.93 0.923078 -3.26087 0
M  V30 8822 C 796.103 0.217998 -4.36856 0
M  V30 8823 C 795.162 1.12192 -5.14101 0
M  V30 8824 O 794.188 0.595771 -5.66073 0
M  V30 8825 N 795.39 2.45082 -5.26227 0
M  V30 8826 H 798.155 -0.845906 -2.87514 0
M  V30 8827 H 795.716 -0.594712 -1.50581 0
M  V30 8828 H 797.708 1.53061 -3.74639 0
M  V30 8829 H 796.278 1.59876 -2.68623 0
M  V30 8830 H 795.498 -0.570134 -3.90055 0
M  V30 8831 H 796.786 -0.270248 -5.08082 0
M  V30 8832 H 796.184 2.90294 -4.85537 0
M  V30 8833 H 794.741 3.00907 -5.78185 0
M  V30 8834 N 798.174 1.49689 -0.493057 0
M  V30 8835 C 799.084 2.32746 0.294358 0
M  V30 8836 C 800.1 1.44117 0.975003 0
M  V30 8837 O 801.276 1.77149 0.958138 0
M  V30 8838 C 798.341 3.19358 1.34949 0
M  V30 8839 C 797.402 4.2383 0.683122 0
M  V30 8840 C 796.635 5.06303 1.68798 0
M  V30 8841 O 796.858 4.90172 2.91698 0
M  V30 8842 O 795.792 5.88826 1.24768 0
M  V30 8843 H 799.618 3.01247 -0.385254 0
M  V30 8844 H 797.203 1.47216 -0.254519 0
M  V30 8845 H 799.085 3.73037 1.96014 0
M  V30 8846 H 797.76 2.53561 2.01217 0
M  V30 8847 H 796.667 3.74086 0.0329351 0
M  V30 8848 H 798 4.9216 0.0630192 0
M  V30 8849 N 799.652 0.226554 1.55963 0
M  V30 8850 C 801.063 -0.280381 1.84583 0
M  V30 8851 C 801.414 -1.59105 1.14804 0
M  V30 8852 O 800.539 -2.12297 0.419414 0
M  V30 8853 C 801.134 -0.515499 3.34855 0
M  V30 8854 C 799.693 -0.966733 3.63774 0
M  V30 8855 C 798.84 -0.0325753 2.77281 0
M  V30 8856 H 801.791 0.449626 1.52197 0
M  V30 8857 H 801.812 -1.36085 3.55332 0
M  V30 8858 H 801.324 0.438594 3.85614 0
M  V30 8859 H 799.425 -1.93401 3.18476 0
M  V30 8860 H 799.538 -0.837679 4.7172 0
M  V30 8861 H 797.902 -0.540279 2.48904 0
M  V30 8862 H 798.685 0.916524 3.30839 0
M  V30 8863 N 801.13 -1.57531 -0.0467866 0
M  V30 8864 C 802.37 -1.90294 -0.746171 0
M  V30 8865 C 802.734 -0.823194 -1.73458 0
M  V30 8866 O 803.935 -1.03463 -2.48091 0
M  V30 8867 C 802.206 -3.28249 -1.41378 0
M  V30 8868 S 803.765 -3.82812 -2.14477 0
M  V30 8869 H 800.583 -0.666496 -0.247598 0
M  V30 8870 H 803.185 -1.955 -0.00135143 0
M  V30 8871 H 801.889 -4.04712 -0.680937 0
M  V30 8872 H 801.42 -3.26302 -2.19751 0
M  V30 8873 H 803.435 -3.60111 -3.41372 0
M  V30 8874 N 802.608 0.318715 -1.54344 0
M  V30 8875 C 803.538 1.39751 -1.87061 0
M  V30 8876 C 804.519 1.53741 -0.727848 0
M  V30 8877 O 805.704 1.67541 -0.982016 0
M  V30 8878 C 802.834 2.76446 -2.10226 0
M  V30 8879 C 801.788 2.77239 -3.26071 0
M  V30 8880 C 801.114 4.17056 -3.34617 0
M  V30 8881 C 802.414 2.40555 -4.63606 0
M  V30 8882 H 804.108 1.12619 -2.77412 0
M  V30 8883 H 801.654 0.540318 -1.33479 0
M  V30 8884 H 803.607 3.51985 -2.31699 0
M  V30 8885 H 802.331 3.05066 -1.16629 0
M  V30 8886 H 800.99 2.04155 -3.04493 0
M  V30 8887 H 800.638 4.42824 -2.3857 0
M  V30 8888 H 800.338 4.18492 -4.12478 0
M  V30 8889 H 801.862 4.94401 -3.5833 0
M  V30 8890 H 803.276 3.05808 -4.84927 0
M  V30 8891 H 801.673 2.53234 -5.44052 0
M  V30 8892 H 802.743 1.35698 -4.65526 0
M  V30 8893 N 804.086 1.46499 0.581025 0
M  V30 8894 C 805.497 1.4604 1.16315 0
M  V30 8895 C 805.848 0.202154 1.95156 0
M  V30 8896 O 804.973 -0.694638 2.04948 0
M  V30 8897 C 805.568 2.64593 2.11604 0
M  V30 8898 C 804.127 2.6717 2.65136 0
M  V30 8899 C 803.274 2.38753 1.4104 0
M  V30 8900 H 806.225 1.54354 0.368871 0
M  V30 8901 H 806.246 2.40207 2.95095 0
M  V30 8902 H 805.758 3.56154 1.54194 0
M  V30 8903 H 803.859 1.79685 3.26411 0
M  V30 8904 H 803.972 3.67182 3.07757 0
M  V30 8905 H 802.336 1.88845 1.70908 0
M  V30 8906 H 803.119 3.32493 0.854588 0
M  V30 8907 N 805.565 -0.825799 1.34232 0
M  V30 8908 C 806.805 -1.59541 1.27773 0
M  V30 8909 C 807.169 -1.91405 -0.150998 0
M  V30 8910 O 808.37 -2.66644 -0.339728 0
M  V30 8911 C 806.641 -2.86183 2.14089 0
M  V30 8912 S 808.2 -3.76751 2.24953 0
M  V30 8913 H 805.018 -0.546871 0.454371 0
M  V30 8914 H 807.62 -0.975677 1.69413 0
M  V30 8915 H 806.324 -2.60767 3.16905 0
M  V30 8916 H 805.855 -3.53155 1.73335 0
M  V30 8917 H 807.87 -4.75442 1.4202 0
M  V30 8918 N 807.043 -1.17915 -1.04565 0
M  V30 8919 C 808.291 -0.969505 -1.77327 0
M  V30 8920 C 808.612 0.502569 -1.88412 0
M  V30 8921 O 807.882 1.36467 -1.40547 0
M  V30 8922 H 806.462 -0.355723 -0.656864 0
M  V30 8923 H 809.124 -1.48506 -1.26223 0
M  V30 8924 H 808.22 -1.40324 -2.78775 0
M  V30 8925 N 808.521 1.23394 -0.980386 0
M  V30 8926 C 809.431 2.28561 -0.528864 0
M  V30 8927 C 810.447 1.68946 0.416329 0
M  V30 8928 O 811.623 1.99355 0.286251 0
M  V30 8929 C 808.688 3.46323 0.16155 0
M  V30 8930 C 807.749 4.21297 -0.825044 0
M  V30 8931 C 806.982 5.33437 -0.167483 0
M  V30 8932 O 807.205 5.60812 1.04146 0
M  V30 8933 O 806.139 5.95637 -0.866047 0
M  V30 8934 H 809.965 2.69326 -1.40346 0
M  V30 8935 H 807.55 1.29325 -0.748019 0
M  V30 8936 H 809.432 4.17811 0.548841 0
M  V30 8937 H 808.107 3.0751 1.01092 0
M  V30 8938 H 807.014 3.52134 -1.26303 0
M  V30 8939 H 808.347 4.6396 -1.64322 0
M  V30 8940 N 809.999 0.752036 1.385 0
M  V30 8941 C 810.947 0.112634 2.32327 0
M  V30 8942 C 811.941 -0.707037 1.53939 0
M  V30 8943 O 813.147 -0.606309 1.69481 0
M  V30 8944 H 809.522 0.0176275 0.751793 0
M  V30 8945 H 811.493 0.920074 2.83861 0
M  V30 8946 C 810.242 -0.767458 3.39124 0
M  V30 8947 H 809.565 -0.146122 3.99533 0
M  V30 8948 H 811.005 -1.18216 4.07187 0
M  V30 8949 C 809.464 -1.90938 2.77568 0
M  V30 8950 O 809.994 -3.00342 2.66754 0
M  V30 8951 N 808.2 -1.70396 2.35401 0
M  V30 8952 H 807.747 -0.81413 2.44397 0
M  V30 8953 H 807.705 -2.46972 1.94557 0
M  V30 8954 N 811.477 -1.49425 0.500989 0
M  V30 8955 C 812.407 -2.31971 -0.266775 0
M  V30 8956 C 813.388 -1.40245 -0.962563 0
M  V30 8957 O 814.573 -1.69154 -0.953968 0
M  V30 8958 C 811.703 -3.20757 -1.33163 0
M  V30 8959 C 810.657 -4.21275 -0.75572 0
M  V30 8960 C 809.983 -4.98997 -1.92109 0
M  V30 8961 C 811.283 -5.21686 0.253213 0
M  V30 8962 H 812.977 -2.96408 0.422237 0
M  V30 8963 H 810.523 -1.4254 0.204505 0
M  V30 8964 H 812.476 -3.77315 -1.87646 0
M  V30 8965 H 811.2 -2.54263 -2.04983 0
M  V30 8966 H 809.859 -3.65861 -0.232637 0
M  V30 8967 H 809.507 -4.28951 -2.62698 0
M  V30 8968 H 809.207 -5.67011 -1.54182 0
M  V30 8969 H 810.731 -5.584 -2.47026 0
M  V30 8970 H 812.145 -5.72939 -0.203483 0
M  V30 8971 H 810.542 -5.9759 0.548322 0
M  V30 8972 H 811.612 -4.70596 1.16909 0
M  V30 8973 N 812.955 -0.234822 -1.55841 0
M  V30 8974 C 813.918 0.656378 -2.196 0
M  V30 8975 C 814.918 1.11179 -1.16171 0
M  V30 8976 O 816.108 1.01845 -1.41326 0
M  V30 8977 C 813.24 1.90072 -2.82993 0
M  V30 8978 H 814.433 0.100281 -2.99732 0
M  V30 8979 H 811.986 0.0147613 -1.56293 0
M  V30 8980 H 812.721 2.49836 -2.06767 0
M  V30 8981 H 812.506 1.5825 -3.58747 0
M  V30 8982 H 813.996 2.53538 -3.31826 0
M  V30 8983 N 814.433 1.57553 0.0384317 0
M  V30 8984 C 815.658 1.93485 0.746872 0
M  V30 8985 C 816.083 0.834069 1.68597 0
M  V30 8986 O 815.441 -0.210902 1.80069 0
M  V30 8987 C 815.489 3.28463 1.4881 0
M  V30 8988 O 814.593 3.20051 2.60079 0
M  V30 8989 H 813.934 0.632675 0.201539 0
M  V30 8990 H 816.464 2.046 -0.00329815 0
M  V30 8991 H 816.474 3.63132 1.86009 0
M  V30 8992 H 815.149 4.08147 0.799297 0
M  V30 8993 H 813.726 2.96998 2.25492 0
M  V30 8994 N 815.911 -0.310526 1.54511 0
M  V30 8995 C 816.858 -1.38264 1.84802 0
M  V30 8996 C 817.828 -1.50808 0.696141 0
M  V30 8997 O 819.013 -1.6582 0.943846 0
M  V30 8998 C 816.153 -2.74422 2.09252 0
M  V30 8999 C 815.266 -2.70405 3.36906 0
M  V30 9000 C 814.401 -3.98495 3.51248 0
M  V30 9001 C 813.44 -3.88836 4.72729 0
M  V30 9002 N 812.577 -5.08683 4.83928 0
M  V30 9003 H 817.417 -1.11732 2.76261 0
M  V30 9004 H 814.954 -0.540609 1.36806 0
M  V30 9005 H 816.912 -3.53593 2.21422 0
M  V30 9006 H 815.542 -2.99235 1.2107 0
M  V30 9007 H 814.594 -1.83151 3.33406 0
M  V30 9008 H 815.906 -2.59155 4.26193 0
M  V30 9009 H 815.06 -4.861 3.63031 0
M  V30 9010 H 813.799 -4.12567 2.60077 0
M  V30 9011 H 812.804 -2.99615 4.60989 0
M  V30 9012 H 814.029 -3.76318 5.65298 0
M  V30 9013 H 811.975 -5.23236 3.95677 0
M  V30 9014 H 811.892 -4.99819 5.67201 0
M  V30 9015 H 813.16 -5.97966 5.00057 0
M  V30 9016 N 817.389 -1.46805 -0.573248 0
M  V30 9017 C 818.619 -1.55965 -1.35494 0
M  V30 9018 C 819.027 -0.203038 -1.88107 0
M  V30 9019 O 818.37 0.81138 -1.6481 0
M  V30 9020 C 818.432 -2.51168 -2.57206 0
M  V30 9021 C 818.096 -3.97211 -2.25993 0
M  V30 9022 C 819.093 -4.86155 -1.84254 0
M  V30 9023 C 816.778 -4.42419 -2.37846 0
M  V30 9024 C 818.772 -6.18323 -1.54776 0
M  V30 9025 C 816.459 -5.74619 -2.0798 0
M  V30 9026 C 817.457 -6.62392 -1.66511 0
M  V30 9027 O 817.145 -7.92137 -1.37016 0
M  V30 9028 H 816.877 -0.529748 -0.419932 0
M  V30 9029 H 819.431 -1.92998 -0.702914 0
M  V30 9030 H 817.661 -2.09171 -3.25245 0
M  V30 9031 H 819.35 -2.50631 -3.19279 0
M  V30 9032 H 820.116 -4.52481 -1.74603 0
M  V30 9033 H 815.995 -3.74319 -2.69085 0
M  V30 9034 H 819.539 -6.8679 -1.22334 0
M  V30 9035 H 815.436 -6.0784 -2.17258 0
M  V30 9036 H 816.204 -8.04492 -1.50782 0
M  V30 9037 N 818.867 0.818669 -1.34668 0
M  V30 9038 C 819.797 1.94468 -1.29245 0
M  V30 9039 C 820.778 1.69257 -0.169101 0
M  V30 9040 O 821.963 1.90794 -0.362143 0
M  V30 9041 C 819.093 3.31001 -1.05145 0
M  V30 9042 C 818.047 3.70663 -2.13992 0
M  V30 9043 C 817.373 5.05226 -1.75074 0
M  V30 9044 C 818.673 3.82312 -3.55858 0
M  V30 9045 H 820.367 1.99263 -2.2346 0
M  V30 9046 H 817.913 0.957304 -1.07572 0
M  V30 9047 H 819.866 4.09364 -0.999949 0
M  V30 9048 H 818.59 3.26517 -0.0737312 0
M  V30 9049 H 817.249 2.94578 -2.18219 0
M  V30 9050 H 816.897 4.97233 -0.759518 0
M  V30 9051 H 816.597 5.32734 -2.47928 0
M  V30 9052 H 818.121 5.86042 -1.71427 0
M  V30 9053 H 819.535 4.50935 -3.5402 0
M  V30 9054 H 817.932 4.21278 -4.2737 0
M  V30 9055 H 819.002 2.84193 -3.9289 0
M  V30 9056 N 820.346 1.18468 1.03938 0
M  V30 9057 C 821.592 0.982286 1.77423 0
M  V30 9058 C 821.925 -0.48679 1.88 0
M  V30 9059 O 821.2 -1.36146 1.38905 0
M  V30 9060 C 821.483 1.63929 3.20623 0
M  V30 9061 C 821.336 3.18132 3.17982 0
M  V30 9062 C 822.655 1.3536 4.18767 0
M  V30 9063 H 819.774 0.358264 0.644062 0
M  V30 9064 H 822.416 1.46154 1.21405 0
M  V30 9065 H 820.566 1.2318 3.68455 0
M  V30 9066 H 822.238 3.68024 2.78129 0
M  V30 9067 H 820.481 3.50225 2.55978 0
M  V30 9068 H 821.152 3.5924 4.19107 0
M  V30 9069 H 823.628 1.70669 3.79488 0
M  V30 9070 H 822.504 1.83896 5.17178 0
M  V30 9071 H 822.765 0.276722 4.41233 0
M  V30 9072 N 821.824 -1.22873 0.986916 0
M  V30 9073 C 823.07 -1.92047 0.670042 0
M  V30 9074 C 823.425 -1.75497 -0.788587 0
M  V30 9075 O 822.718 -1.10934 -1.56218 0
M  V30 9076 C 822.912 -3.43014 1.00379 0
M  V30 9077 C 822.741 -3.74251 2.49332 0
M  V30 9078 C 821.511 -3.94589 3.15638 0
M  V30 9079 C 823.709 -3.79208 3.47428 0
M  V30 9080 N 821.691 -4.13086 4.54129 0
M  V30 9081 C 823.062 -4.02775 4.71352 0
M  V30 9082 C 825.117 -3.62029 3.41818 0
M  V30 9083 C 823.82 -4.10946 5.90352 0
M  V30 9084 C 825.846 -3.71457 4.60189 0
M  V30 9085 C 825.208 -3.95468 5.82911 0
M  V30 9086 H 821.307 -0.723668 0.29636 0
M  V30 9087 H 823.891 -1.47946 1.26571 0
M  V30 9088 H 822.062 -3.85936 0.436762 0
M  V30 9089 H 823.794 -3.99551 0.643522 0
M  V30 9090 H 820.549 -3.91762 2.66119 0
M  V30 9091 H 820.973 -4.26275 5.25945 0
M  V30 9092 H 825.615 -3.42457 2.47958 0
M  V30 9093 H 823.333 -4.29324 6.84621 0
M  V30 9094 H 826.919 -3.59511 4.57431 0
M  V30 9095 H 825.799 -4.02584 6.72975 0
M  V30 9096 N 823.302 -0.75937 -1.38099 0
M  V30 9097 C 824.25 -0.124954 -2.32264 0
M  V30 9098 C 825.244 0.698863 -1.54312 0
M  V30 9099 O 826.45 0.597312 -1.698 0
M  V30 9100 H 822.825 -0.0216142 -0.751689 0
M  V30 9101 H 824.796 -0.935115 -2.83369 0
M  V30 9102 C 823.545 0.749463 -3.39527 0
M  V30 9103 H 822.868 0.124932 -3.99605 0
M  V30 9104 H 824.308 1.16055 -4.07808 0
M  V30 9105 C 822.767 1.89464 -2.78577 0
M  V30 9106 O 823.297 2.98923 -2.68343 0
M  V30 9107 N 821.503 1.69145 -2.36301 0
M  V30 9108 H 821.05 0.801157 -2.44825 0
M  V30 9109 H 821.008 2.45936 -1.95864 0
M  V30 9110 N 824.78 1.49157 -0.508906 0
M  V30 9111 C 826.02 2.04376 0.0310623 0
M  V30 9112 C 826.384 1.37946 1.33547 0
M  V30 9113 O 827.585 1.83931 1.96017 0
M  V30 9114 C 825.856 3.56985 0.172191 0
M  V30 9115 S 827.415 4.33728 0.665267 0
M  V30 9116 H 824.233 0.710997 -0.00199266 0
M  V30 9117 H 826.835 1.83119 -0.684674 0
M  V30 9118 H 825.539 4.02874 -0.78234 0
M  V30 9119 H 825.07 3.82661 0.912933 0
M  V30 9120 H 827.085 4.56992 1.9332 0
M  V30 9121 N 826.258 0.243083 1.55714 0
M  V30 9122 C 827.498 -0.384303 2.00755 0
M  V30 9123 C 827.862 -1.55406 1.12752 0
M  V30 9124 O 829.063 -2.24892 1.47231 0
M  V30 9125 C 827.334 -0.787419 3.48618 0
M  V30 9126 S 828.893 -1.40587 4.15669 0
M  V30 9127 H 825.711 -0.121088 0.700613 0
M  V30 9128 H 828.313 0.357423 1.92205 0
M  V30 9129 H 827.017 0.0732892 4.10335 0
M  V30 9130 H 826.548 -1.56142 3.61086 0
M  V30 9131 H 828.563 -2.69493 4.16639 0
M  V30 9132 N 827.736 -1.57571 -0.0300757 0
M  V30 9133 C 829.147 -1.77567 -0.576802 0
M  V30 9134 C 829.498 -0.874034 -1.75656 0
M  V30 9135 O 828.623 -0.0686124 -2.16291 0
M  V30 9136 C 829.218 -3.22016 -1.05315 0
M  V30 9137 C 827.777 -3.43212 -1.5454 0
M  V30 9138 C 826.924 -2.73061 -0.483033 0
M  V30 9139 H 829.875 -1.57483 0.196151 0
M  V30 9140 H 829.896 -3.28474 -1.92055 0
M  V30 9141 H 829.408 -3.87613 -0.194298 0
M  V30 9142 H 827.509 -2.82788 -2.42615 0
M  V30 9143 H 827.622 -4.5182 -1.5936 0
M  V30 9144 H 825.986 -2.36805 -0.937835 0
M  V30 9145 H 826.769 -3.4134 0.366341 0
M  V30 9146 N 829.214 0.302327 -1.54673 0
M  V30 9147 C 830.146 1.39443 -1.81902 0
M  V30 9148 C 831.159 1.46891 -0.701914 0
M  V30 9149 O 832.348 1.49233 -0.979369 0
M  V30 9150 C 829.448 2.77824 -1.9408 0
M  V30 9151 C 828.621 2.93324 -3.24468 0
M  V30 9152 C 827.68 4.12196 -3.27079 0
M  V30 9153 O 826.706 4.04344 -4.00617 0
M  V30 9154 N 827.908 5.22768 -2.52376 0
M  V30 9155 H 830.673 1.1644 -2.76155 0
M  V30 9156 H 828.234 0.492392 -1.54231 0
M  V30 9157 H 830.226 3.5559 -1.9323 0
M  V30 9158 H 828.796 2.9378 -1.06828 0
M  V30 9159 H 828.016 2.02682 -3.38103 0
M  V30 9160 H 829.304 3.0059 -4.10516 0
M  V30 9161 H 828.702 5.32027 -1.92259 0
M  V30 9162 H 827.259 5.98874 -2.57281 0
M  V30 9163 N 830.692 1.47107 0.565454 0
M  V30 9164 C 831.938 1.54519 1.3227 0
M  V30 9165 C 832.293 0.201313 1.91344 0
M  V30 9166 O 831.586 -0.792058 1.74462 0
M  V30 9167 C 831.78 2.59309 2.45954 0
M  V30 9168 C 831.609 4.03756 1.98019 0
M  V30 9169 C 830.379 4.71293 1.8224 0
M  V30 9170 C 832.577 4.91029 1.52955 0
M  V30 9171 N 830.559 6.00288 1.28557 0
M  V30 9172 C 831.93 6.09986 1.10981 0
M  V30 9173 C 833.985 4.77539 1.4093 0
M  V30 9174 C 832.688 7.16943 0.581796 0
M  V30 9175 C 834.714 5.84584 0.895307 0
M  V30 9176 C 834.076 7.02725 0.485454 0
M  V30 9177 H 830.175 0.620177 0.476345 0
M  V30 9178 H 832.759 1.83814 0.641901 0
M  V30 9179 H 830.93 2.31896 3.11575 0
M  V30 9180 H 832.662 2.56614 3.1294 0
M  V30 9181 H 829.417 4.27074 2.04707 0
M  V30 9182 H 829.841 6.68991 1.03828 0
M  V30 9183 H 834.483 3.86574 1.71231 0
M  V30 9184 H 832.201 8.07661 0.266399 0
M  V30 9185 H 835.787 5.76191 0.805939 0
M  V30 9186 H 834.667 7.84144 0.0938828 0
M  V30 9187 N 832.17 -0.811516 1.35101 0
M  V30 9188 C 833.1 -1.9378 1.30275 0
M  V30 9189 C 834.081 -1.69165 0.178075 0
M  V30 9190 O 835.266 -1.90599 0.372256 0
M  V30 9191 C 832.396 -3.30439 1.06899 0
M  V30 9192 C 831.35 -3.69523 2.15955 0
M  V30 9193 C 830.676 -5.0429 1.77751 0
M  V30 9194 C 831.976 -3.80419 3.57881 0
M  V30 9195 H 833.67 -1.98075 2.24514 0
M  V30 9196 H 831.216 -0.951586 1.08078 0
M  V30 9197 H 833.169 -4.08828 1.02164 0
M  V30 9198 H 831.893 -3.26473 0.0910462 0
M  V30 9199 H 830.552 -2.93416 2.19778 0
M  V30 9200 H 830.2 -4.96823 0.785876 0
M  V30 9201 H 829.9 -5.31411 2.5075 0
M  V30 9202 H 831.424 -5.85125 1.74533 0
M  V30 9203 H 832.838 -4.49051 3.56407 0
M  V30 9204 H 831.235 -4.19005 4.29598 0
M  V30 9205 H 832.305 -2.82105 3.94391 0
M  V30 9206 N 833.648 -1.19017 -1.03309 0
M  V30 9207 C 834.888 -1.00129 -1.78195 0
M  V30 9208 C 835.252 0.460236 -1.86402 0
M  V30 9209 O 836.453 0.768802 -2.57571 0
M  V30 9210 C 834.724 -1.64703 -3.17187 0
M  V30 9211 S 836.283 -1.60695 -4.08317 0
M  V30 9212 H 833.101 -0.359395 -0.613479 0
M  V30 9213 H 835.703 -1.51293 -1.23818 0
M  V30 9214 H 834.407 -2.70283 -3.08829 0
M  V30 9215 H 833.938 -1.136 -3.76641 0
M  V30 9216 H 835.953 -0.628171 -4.92208 0
M  V30 9217 N 835.127 1.22348 -0.993418 0
M  V30 9218 C 836.373 1.91393 -0.67056 0
M  V30 9219 C 836.706 1.77163 0.795428 0
M  V30 9220 O 835.981 1.14084 1.57528 0
M  V30 9221 C 836.264 3.43589 -1.0779 0
M  V30 9222 C 836.117 3.66867 -2.60248 0
M  V30 9223 C 837.436 4.35545 -0.631527 0
M  V30 9224 H 834.555 0.695057 -0.24508 0
M  V30 9225 H 837.197 1.44213 -1.23703 0
M  V30 9226 H 835.347 3.83903 -0.595902 0
M  V30 9227 H 837.019 3.35954 -3.16121 0
M  V30 9228 H 835.262 3.1113 -3.02293 0
M  V30 9229 H 835.933 4.73457 -2.838 0
M  V30 9230 H 838.409 4.0275 -1.04554 0
M  V30 9231 H 837.285 5.40707 -0.944831 0
M  V30 9232 H 837.546 4.39618 0.467779 0
M  V30 9233 N 836.605 0.766683 1.37694 0
M  V30 9234 C 837.552 0.147725 2.30327 0
M  V30 9235 C 838.522 -0.695366 1.50844 0
M  V30 9236 O 839.707 -0.64878 1.79431 0
M  V30 9237 C 836.847 -0.72935 3.37305 0
M  V30 9238 C 835.96 0.129795 4.31805 0
M  V30 9239 C 835.095 -0.751511 5.25857 0
M  V30 9240 C 834.134 0.110475 6.12 0
M  V30 9241 N 833.271 -0.728522 6.9831 0
M  V30 9242 H 838.111 0.943204 2.82679 0
M  V30 9243 H 835.648 0.476736 1.3916 0
M  V30 9244 H 837.606 -1.25263 3.97951 0
M  V30 9245 H 836.236 -1.49048 2.86329 0
M  V30 9246 H 835.288 0.770829 3.72508 0
M  V30 9247 H 836.6 0.794923 4.92425 0
M  V30 9248 H 835.754 -1.34146 5.91684 0
M  V30 9249 H 834.493 -1.45034 4.65636 0
M  V30 9250 H 833.498 0.712999 5.45157 0
M  V30 9251 H 834.723 0.806557 6.74293 0
M  V30 9252 H 832.669 -1.41206 6.40622 0
M  V30 9253 H 832.586 -0.12058 7.55904 0
M  V30 9254 H 833.854 -1.30303 7.68532 0
M  V30 9255 N 838.083 -1.48885 0.516809 0
M  V30 9256 C 839.03 -2.29408 -0.253125 0
M  V30 9257 C 840 -1.36533 -0.945935 0
M  V30 9258 O 841.185 -1.65495 -0.949527 0
M  V30 9259 C 838.325 -3.19592 -1.30211 0
M  V30 9260 C 837.438 -4.27535 -0.61948 0
M  V30 9261 C 836.573 -5.04916 -1.65026 0
M  V30 9262 C 835.612 -6.04677 -0.950368 0
M  V30 9263 N 834.749 -6.75164 -1.92608 0
M  V30 9264 H 839.589 -2.94738 0.439744 0
M  V30 9265 H 837.126 -1.45311 0.2287 0
M  V30 9266 H 839.084 -3.70267 -1.92245 0
M  V30 9267 H 837.714 -2.56213 -1.96353 0
M  V30 9268 H 836.766 -3.80228 0.114505 0
M  V30 9269 H 838.078 -4.98752 -0.0693016 0
M  V30 9270 H 837.232 -5.59539 -2.34523 0
M  V30 9271 H 835.971 -4.33508 -2.23432 0
M  V30 9272 H 834.976 -5.4927 -0.241252 0
M  V30 9273 H 836.201 -6.78077 -0.372599 0
M  V30 9274 H 834.147 -6.06517 -2.49946 0
M  V30 9275 H 834.064 -7.4241 -1.42699 0
M  V30 9276 H 835.332 -7.34384 -2.61345 0
M  V30 9277 N 839.561 -0.251338 -1.55583 0
M  V30 9278 C 840.807 0.37272 -1.99346 0
M  V30 9279 C 841.14 1.57266 -1.13934 0
M  V30 9280 O 840.415 1.9343 -0.20377 0
M  V30 9281 C 840.698 0.778245 -3.5159 0
M  V30 9282 C 840.551 -0.427394 -4.47765 0
M  V30 9283 C 841.87 1.62358 -4.09057 0
M  V30 9284 H 838.989 0.134002 -0.724715 0
M  V30 9285 H 841.631 -0.353536 -1.86682 0
M  V30 9286 H 839.781 1.39704 -3.62512 0
M  V30 9287 H 841.453 -1.06586 -4.48818 0
M  V30 9288 H 839.696 -1.06972 -4.20404 0
M  V30 9289 H 840.367 -0.10025 -5.51909 0
M  V30 9290 H 842.843 1.1012 -4.01264 0
M  V30 9291 H 841.719 1.87617 -5.1584 0
M  V30 9292 H 841.98 2.59688 -3.57791 0
M  V30 9293 N 841.039 1.57585 0.0217189 0
M  V30 9294 C 841.969 2.10073 1.01939 0
M  V30 9295 C 842.95 1.0049 1.37243 0
M  V30 9296 O 844.135 1.28055 1.45999 0
M  V30 9297 C 841.265 2.58618 2.31806 0
M  V30 9298 C 840.219 3.72531 2.10724 0
M  V30 9299 C 839.545 4.07309 3.46415 0
M  V30 9300 C 840.845 5.00672 1.48743 0
M  V30 9301 H 842.539 2.9368 0.582432 0
M  V30 9302 H 840.085 1.41277 0.278715 0
M  V30 9303 H 842.038 2.9396 3.01936 0
M  V30 9304 H 840.762 1.72104 2.77575 0
M  V30 9305 H 839.421 3.37549 1.43025 0
M  V30 9306 H 839.069 3.17851 3.89846 0
M  V30 9307 H 838.769 4.84042 3.33132 0
M  V30 9308 H 840.293 4.45192 4.17895 0
M  V30 9309 H 841.707 5.33925 2.088 0
M  V30 9310 H 840.104 5.82065 1.46013 0
M  V30 9311 H 841.174 4.82769 0.45408 0
M  V30 9312 N 842.517 -0.29412 1.54831 0
M  V30 9313 C 843.933 -0.640167 1.46199 0
M  V30 9314 C 844.133 -1.90426 0.658798 0
M  V30 9315 O 843.189 -2.51932 0.169228 0
M  V30 9316 C 844.502 -0.786763 2.90225 0
M  V30 9317 C 846.05 -0.882201 3.0031 0
M  V30 9318 C 846.525 -1.06074 4.45547 0
M  V30 9319 N 848.016 -1.12678 4.49286 0
M  V30 9320 C 848.751 -1.28334 5.58854 0
M  V30 9321 N 848.247 -1.40845 6.78332 0
M  V30 9322 N 850.04 -1.31277 5.46555 0
M  V30 9323 H 842.191 0.536334 2.05517 0
M  V30 9324 H 844.454 0.178363 0.93107 0
M  V30 9325 H 844.16 0.0713018 3.51628 0
M  V30 9326 H 844.034 -1.67364 3.38037 0
M  V30 9327 H 846.421 -1.73075 2.39017 0
M  V30 9328 H 846.502 0.0288405 2.55784 0
M  V30 9329 H 846.146 -0.216935 5.07437 0
M  V30 9330 H 846.076 -1.98611 4.8771 0
M  V30 9331 H 848.567 -1.04335 3.63212 0
M  V30 9332 H 848.88 -1.52566 7.57591 0
M  V30 9333 H 847.225 -1.37888 6.81184 0
M  V30 9334 H 850.416 -1.2112 4.52159 0
M  V30 9335 H 850.589 -1.43136 6.31994 0
M  V30 9336 N 843.995 -1.47404 -0.557645 0
M  V30 9337 C 845.223 -1.57622 -1.34026 0
M  V30 9338 C 845.638 -0.226256 -1.87439 0
M  V30 9339 O 844.995 0.78043 -1.64971 0
M  V30 9340 C 845.046 -2.60111 -2.51047 0
M  V30 9341 O 844.767 -3.89866 -1.99841 0
M  V30 9342 C 846.268 -2.80508 -3.43264 0
M  V30 9343 H 843.488 -0.532271 -0.40857 0
M  V30 9344 H 846.032 -1.93019 -0.675555 0
M  V30 9345 H 844.187 -2.27648 -3.13457 0
M  V30 9346 H 844.601 -4.45864 -2.76234 0
M  V30 9347 H 846.075 -3.56084 -4.21792 0
M  V30 9348 H 846.552 -1.88314 -3.9678 0
M  V30 9349 H 847.158 -3.14166 -2.86671 0
M  V30 9350 N 845.473 0.80434 -1.35529 0
M  V30 9351 C 846.719 1.56385 -1.29118 0
M  V30 9352 C 847.052 1.9374 0.133536 0
M  V30 9353 O 846.327 1.6153 1.08344 0
M  V30 9354 C 846.61 2.85097 -2.19981 0
M  V30 9355 C 846.463 2.54204 -3.7108 0
M  V30 9356 C 847.782 3.86817 -2.09907 0
M  V30 9357 H 844.901 0.567382 -0.470368 0
M  V30 9358 H 847.543 0.925235 -1.6595 0
M  V30 9359 H 845.693 3.39594 -1.88701 0
M  V30 9360 H 847.365 2.05872 -4.12813 0
M  V30 9361 H 845.608 1.87364 -3.91251 0
M  V30 9362 H 846.279 3.46068 -4.30048 0
M  V30 9363 H 848.755 3.41725 -2.37409 0
M  V30 9364 H 847.631 4.7465 -2.75678 0
M  V30 9365 H 847.892 4.28663 -1.08171 0
M  V30 9366 N 846.951 1.19563 1.02676 0
M  V30 9367 C 847.884 0.878638 2.10607 0
M  V30 9368 C 848.862 -0.165176 1.61759 0
M  V30 9369 O 850.046 -0.041014 1.88455 0
M  V30 9370 C 847.173 0.315347 3.37229 0
M  V30 9371 C 846.219 1.33855 4.04951 0
M  V30 9372 S 847.052 2.89982 4.50189 0
M  V30 9373 C 848.208 2.35202 5.80027 0
M  V30 9374 H 848.441 1.79268 2.37171 0
M  V30 9375 H 845.974 1.023 1.15646 0
M  V30 9376 H 847.932 -0.00311911 4.105 0
M  V30 9377 H 846.593 -0.577035 3.08754 0
M  V30 9378 H 845.786 0.893581 4.96015 0
M  V30 9379 H 845.388 1.60397 3.37859 0
M  V30 9380 H 847.68 1.74329 6.54687 0
M  V30 9381 H 848.623 3.24622 6.29306 0
M  V30 9382 H 849.031 1.77702 5.35801 0
M  V30 9383 N 848.429 -1.21819 0.999893 0
M  V30 9384 C 849.657 -1.94758 0.698359 0
M  V30 9385 C 850.072 -1.73771 -0.738183 0
M  V30 9386 O 849.429 -1.04113 -1.49889 0
M  V30 9387 C 849.48 -3.47292 1.00353 0
M  V30 9388 O 849.201 -3.67579 2.38363 0
M  V30 9389 C 850.702 -4.37403 0.72068 0
M  V30 9390 H 847.922 -0.619512 0.257771 0
M  V30 9391 H 850.466 -1.54778 1.33656 0
M  V30 9392 H 848.621 -3.85213 0.411018 0
M  V30 9393 H 849.035 -4.61719 2.48829 0
M  V30 9394 H 850.509 -5.43151 0.984422 0
M  V30 9395 H 850.986 -4.3784 -0.345309 0
M  V30 9396 H 851.592 -4.05119 1.29456 0
M  V30 9397 N 849.908 -0.773975 -1.37286 0
M  V30 9398 C 851.185 -0.263942 -1.93811 0
M  V30 9399 C 851.565 1.24138 -1.70743 0
M  V30 9400 O 850.913 2.02557 -1.05749 0
M  V30 9401 C 851.123 -0.639753 -3.43086 0
M  V30 9402 C 852.471 -0.610796 -4.20184 0
M  V30 9403 O 853.495 -0.579278 -3.51458 0
M  V30 9404 O 852.354 -0.639862 -5.42741 0
M  V30 9405 H 849.448 -0.0614331 -0.824715 0
M  V30 9406 H 851.994 -0.855477 -1.46559 0
M  V30 9407 H 850.766 -1.67856 -3.53469 0
M  V30 9408 H 850.389 -0.0212827 -3.97594 0
M  V30 9409 N 851.386 1.48609 -0.524698 0
M  V30 9410 C 852.797 1.86516 -0.0828846 0
M  V30 9411 C 853.148 1.43478 1.33822 0
M  V30 9412 O 852.273 0.823139 2.00133 0
M  V30 9413 C 852.868 3.38495 -0.143639 0
M  V30 9414 C 851.427 3.75615 0.242951 0
M  V30 9415 C 850.574 2.72649 -0.505747 0
M  V30 9416 H 853.525 1.40589 -0.736233 0
M  V30 9417 H 853.546 3.74977 0.645955 0
M  V30 9418 H 853.058 3.69789 -1.17805 0
M  V30 9419 H 851.159 3.49935 1.27971 0
M  V30 9420 H 851.272 4.7901 -0.0929834 0
M  V30 9421 H 849.636 2.54656 0.0473482 0
M  V30 9422 H 850.419 3.06786 -1.54069 0
M  V30 9423 N 852.864 0.259585 1.55447 0
M  V30 9424 C 854.111 -0.361607 1.99245 0
M  V30 9425 C 854.439 -1.57017 1.14787 0
M  V30 9426 O 853.694 -1.94658 0.201724 0
M  V30 9427 C 853.993 -0.802727 3.48269 0
M  V30 9428 C 853.659 0.299472 4.49904 0
M  V30 9429 C 852.321 0.602157 4.77418 0
M  V30 9430 C 854.673 1.04295 5.10658 0
M  V30 9431 C 852.001 1.65217 5.62957 0
M  V30 9432 C 854.353 2.08257 5.97337 0
M  V30 9433 C 853.017 2.39177 6.23178 0
M  V30 9434 H 852.287 -0.132322 0.72909 0
M  V30 9435 H 854.934 0.370059 1.8789 0
M  V30 9436 H 853.239 -1.61381 3.5702 0
M  V30 9437 H 854.936 -1.29385 3.79553 0
M  V30 9438 H 851.526 0.0534256 4.28567 0
M  V30 9439 H 855.71 0.822358 4.89439 0
M  V30 9440 H 850.966 1.89692 5.81229 0
M  V30 9441 H 855.14 2.6635 6.43452 0
M  V30 9442 H 852.767 3.20677 6.89253 0
M  V30 9443 N 854.342 -1.57594 -0.0133615 0
M  V30 9444 C 855.57 -1.94251 -0.712328 0
M  V30 9445 C 855.985 -0.86063 -1.68043 0
M  V30 9446 O 855.342 0.161632 -1.81783 0
M  V30 9447 C 855.393 -3.30891 -1.45581 0
M  V30 9448 O 855.114 -4.34924 -0.526539 0
M  V30 9449 C 856.615 -3.81926 -2.2505 0
M  V30 9450 H 853.835 -0.640737 -0.199241 0
M  V30 9451 H 856.379 -2.04472 0.0337855 0
M  V30 9452 H 854.534 -3.22019 -2.15366 0
M  V30 9453 H 854.948 -5.1389 -1.04962 0
M  V30 9454 H 856.422 -4.79999 -2.72589 0
M  V30 9455 H 856.899 -3.13934 -3.07152 0
M  V30 9456 H 857.505 -3.93931 -1.60308 0
M  V30 9457 N 855.82 0.285905 -1.54985 0
M  V30 9458 C 856.73 1.37534 -1.90057 0
M  V30 9459 C 857.746 1.54707 -0.796348 0
M  V30 9460 O 858.922 1.69082 -1.09423 0
M  V30 9461 C 855.987 2.7167 -2.15398 0
M  V30 9462 C 855.048 2.63354 -3.39033 0
M  V30 9463 C 854.281 3.91093 -3.63155 0
M  V30 9464 O 854.504 4.91169 -2.90015 0
M  V30 9465 O 853.438 3.92075 -4.56685 0
M  V30 9466 H 857.264 1.10791 -2.8277 0
M  V30 9467 H 854.849 0.483303 -1.41367 0
M  V30 9468 H 856.731 3.51006 -2.33179 0
M  V30 9469 H 855.406 2.98226 -1.25868 0
M  V30 9470 H 854.313 1.82438 -3.26599 0
M  V30 9471 H 855.646 2.41749 -4.2874 0
M  V30 9472 N 857.298 1.47698 0.54982 0
M  V30 9473 C 858.228 1.63622 1.66583 0
M  V30 9474 C 859.209 0.485477 1.63025 0
M  V30 9475 O 860.394 0.715692 1.80531 0
M  V30 9476 C 857.524 1.65721 3.05211 0
M  V30 9477 C 856.478 2.80097 3.2362 0
M  V30 9478 C 855.804 2.67272 4.63109 0
M  V30 9479 C 857.104 4.21612 3.08286 0
M  V30 9480 H 858.798 2.57049 1.53512 0
M  V30 9481 H 856.344 1.23705 0.737099 0
M  V30 9482 H 858.297 1.75451 3.83138 0
M  V30 9483 H 857.021 0.688593 3.19258 0
M  V30 9484 H 855.68 2.69889 2.48104 0
M  V30 9485 H 855.328 1.68422 4.73965 0
M  V30 9486 H 855.028 3.44008 4.76374 0
M  V30 9487 H 856.552 2.78942 5.43161 0
M  V30 9488 H 857.966 4.32758 3.76024 0
M  V30 9489 H 856.363 4.99193 3.33057 0
M  V30 9490 H 857.433 4.39462 2.04942 0
M  V30 9491 N 858.776 -0.797141 1.35954 0
M  V30 9492 C 859.739 -1.89104 1.29508 0
M  V30 9493 C 860.739 -1.59495 0.204444 0
M  V30 9494 O 861.929 -1.68051 0.458746 0
M  V30 9495 C 859.061 -3.25726 1.00576 0
M  V30 9496 H 860.254 -1.96237 2.26785 0
M  V30 9497 H 857.807 -0.994075 1.20614 0
M  V30 9498 H 858.542 -3.24279 0.0372519 0
M  V30 9499 H 858.327 -3.48604 1.79492 0
M  V30 9500 H 859.817 -4.0578 0.986508 0
M  V30 9501 N 860.254 -1.20106 -1.0204 0
M  V30 9502 C 861.503 -1.00316 -1.74985 0
M  V30 9503 C 861.816 0.465814 -1.89972 0
M  V30 9504 O 863.022 0.782749 -2.59972 0
M  V30 9505 C 861.478 -1.74608 -3.14706 0
M  V30 9506 C 861.086 -3.25573 -3.07744 0
M  V30 9507 C 862.83 -1.63172 -3.91887 0
M  V30 9508 C 860.737 -3.92419 -4.42449 0
M  V30 9509 H 859.667 -0.371728 -0.655999 0
M  V30 9510 H 862.318 -1.43688 -1.14131 0
M  V30 9511 H 860.7 -1.24021 -3.76078 0
M  V30 9512 H 861.874 -3.83345 -2.55702 0
M  V30 9513 H 860.189 -3.3738 -2.44057 0
M  V30 9514 H 862.786 -2.10457 -4.9154 0
M  V30 9515 H 863.129 -0.58728 -4.12137 0
M  V30 9516 H 863.662 -2.11152 -3.37135 0
M  V30 9517 H 860.401 -4.96998 -4.27403 0
M  V30 9518 H 859.921 -3.39436 -4.94513 0
M  V30 9519 H 861.6 -3.96453 -5.11306 0
M  V30 9520 N 861.732 1.21287 -1.00634 0
M  V30 9521 C 862.96 1.94385 -0.708678 0
M  V30 9522 C 863.375 1.7416 0.728957 0
M  V30 9523 O 862.732 1.04906 1.49335 0
M  V30 9524 C 862.783 3.46755 -1.02193 0
M  V30 9525 O 862.504 3.6631 -2.40309 0
M  V30 9526 C 864.005 4.37014 -0.743867 0
M  V30 9527 H 861.225 0.618136 -0.261052 0
M  V30 9528 H 863.769 1.54067 -1.34475 0
M  V30 9529 H 861.924 3.8499 -0.431441 0
M  V30 9530 H 862.338 4.60393 -2.51274 0
M  V30 9531 H 863.812 5.42621 -1.01321 0
M  V30 9532 H 864.289 4.38017 0.322084 0
M  V30 9533 H 864.895 4.04426 -1.31603 0
M  V30 9534 N 863.21 0.781244 1.36873 0
M  V30 9535 C 864.459 0.34652 1.98701 0
M  V30 9536 C 864.772 -1.08555 1.62712 0
M  V30 9537 O 865.978 -1.62213 2.17713 0
M  V30 9538 C 864.434 0.568611 3.5538 0
M  V30 9539 C 864.042 2.01156 4.003 0
M  V30 9540 C 865.786 0.197983 4.24038 0
M  V30 9541 C 863.693 2.18074 5.49725 0
M  V30 9542 H 862.623 0.125821 0.743428 0
M  V30 9543 H 865.274 0.961721 1.56279 0
M  V30 9544 H 863.656 -0.116185 3.9583 0
M  V30 9545 H 864.83 2.73209 3.71071 0
M  V30 9546 H 863.145 2.33967 3.44454 0
M  V30 9547 H 865.742 0.302778 5.33842 0
M  V30 9548 H 866.085 -0.852927 4.07469 0
M  V30 9549 H 866.618 0.835696 3.88923 0
M  V30 9550 H 863.357 3.21519 5.71232 0
M  V30 9551 H 862.877 1.50517 5.80607 0
M  V30 9552 H 864.556 1.98393 6.15832 0
M  V30 9553 N 864.689 -1.48329 0.532571 0
M  V30 9554 C 865.929 -2.044 0.00145618 0
M  V30 9555 C 866.293 -1.40053 -1.31336 0
M  V30 9556 O 867.494 -1.87026 -1.93066 0
M  V30 9557 C 865.765 -3.57214 -0.115376 0
M  V30 9558 S 867.324 -4.34731 -0.59618 0
M  V30 9559 H 864.142 -0.710876 0.0133038 0
M  V30 9560 H 866.744 -1.82006 0.71372 0
M  V30 9561 H 865.448 -4.01579 0.846335 0
M  V30 9562 H 864.979 -3.84065 -0.85194 0
M  V30 9563 H 866.994 -4.6001 -1.86025 0
M  V30 9564 N 866.167 -0.267825 -1.55308 0
M  V30 9565 C 867.416 0.351635 -1.98611 0
M  V30 9566 C 867.729 1.57522 -1.15957 0
M  V30 9567 O 868.935 2.26717 -1.49371 0
M  V30 9568 C 867.391 0.676986 -3.53475 0
M  V30 9569 C 866.999 -0.526385 -4.44897 0
M  V30 9570 C 868.743 1.25948 -4.05386 0
M  V30 9571 C 866.65 -0.176026 -5.91138 0
M  V30 9572 H 865.58 0.13516 -0.741787 0
M  V30 9573 H 868.231 -0.371333 -1.79704 0
M  V30 9574 H 866.613 1.45866 -3.68156 0
M  V30 9575 H 867.787 -1.30339 -4.41982 0
M  V30 9576 H 866.102 -1.02522 -4.03582 0
M  V30 9577 H 868.699 1.53529 -5.12184 0
M  V30 9578 H 869.042 2.19094 -3.53982 0
M  V30 9579 H 869.575 0.540253 -3.94114 0
M  V30 9580 H 866.314 -1.07518 -6.46622 0
M  V30 9581 H 865.834 0.564363 -5.97139 0
M  V30 9582 H 867.513 0.234365 -6.46575 0
M  V30 9583 N 867.645 1.57599 0.00500368 0
M  V30 9584 C 868.894 1.89528 0.690061 0
M  V30 9585 C 869.207 0.869451 1.75214 0
M  V30 9586 O 870.413 1.07879 2.49147 0
M  V30 9587 C 868.869 3.36425 1.27852 0
M  V30 9588 C 868.477 4.47293 0.251531 0
M  V30 9589 C 870.221 3.77471 1.94206 0
M  V30 9590 C 868.128 5.85264 0.8497 0
M  V30 9591 H 867.058 0.707201 0.2615 0
M  V30 9592 H 869.709 1.83418 -0.0547209 0
M  V30 9593 H 868.091 3.37356 2.07381 0
M  V30 9594 H 869.265 4.5787 -0.518796 0
M  V30 9595 H 867.58 4.15235 -0.311281 0
M  V30 9596 H 870.177 4.77884 2.39855 0
M  V30 9597 H 870.52 3.10722 2.77051 0
M  V30 9598 H 871.053 3.78817 1.21419 0
M  V30 9599 H 867.792 6.55472 0.0601408 0
M  V30 9600 H 867.312 5.78361 1.5893 0
M  V30 9601 H 868.991 6.32762 1.34984 0
M  V30 9602 N 869.123 -0.277682 1.55134 0
M  V30 9603 C 870.372 -1.00766 1.74726 0
M  V30 9604 C 870.685 -1.87617 0.553092 0
M  V30 9605 O 871.891 -2.64058 0.631318 0
M  V30 9606 C 870.347 -1.84147 3.09221 0
M  V30 9607 C 869.955 -1.02186 4.3619 0
M  V30 9608 C 871.699 -2.56604 3.38164 0
M  V30 9609 C 869.606 -1.84978 5.61727 0
M  V30 9610 H 868.536 -0.379948 0.651273 0
M  V30 9611 H 871.187 -0.263543 1.81598 0
M  V30 9612 H 869.569 -2.62637 2.96375 0
M  V30 9613 H 870.743 -0.281459 4.5994 0
M  V30 9614 H 869.058 -0.412054 4.14356 0
M  V30 9615 H 871.655 -3.18942 4.29162 0
M  V30 9616 H 871.998 -3.26647 2.58085 0
M  V30 9617 H 872.531 -1.85147 3.52087 0
M  V30 9618 H 869.27 -1.19365 6.4454 0
M  V30 9619 H 868.79 -2.56628 5.42128 0
M  V30 9620 H 870.469 -2.42458 5.99853 0
M  V30 9621 N 870.601 -1.47988 -0.541979 0
M  V30 9622 C 871.549 -1.62044 -1.66867 0
M  V30 9623 C 872.543 -0.487217 -1.62242 0
M  V30 9624 O 873.749 -0.66554 -1.67244 0
M  V30 9625 H 870.124 -0.51024 -0.552412 0
M  V30 9626 H 872.095 -2.56695 -1.52153 0
M  V30 9627 C 870.844 -1.66615 -3.0518 0
M  V30 9628 H 870.167 -2.5317 -3.09427 0
M  V30 9629 H 871.607 -1.80496 -3.83663 0
M  V30 9630 C 870.066 -0.402421 -3.34488 0
M  V30 9631 O 870.596 0.48992 -3.98701 0
M  V30 9632 N 868.802 -0.277778 -2.89269 0
M  V30 9633 H 868.349 -1.00488 -2.37192 0
M  V30 9634 H 868.307 0.566784 -3.09249 0
M  V30 9635 N 872.079 0.78992 -1.36375 0
M  V30 9636 C 873.307 1.57873 -1.3373 0
M  V30 9637 C 873.722 1.88624 0.0815544 0
M  V30 9638 O 873.079 1.50085 1.03831 0
M  V30 9639 C 873.13 2.90003 -2.15825 0
M  V30 9640 O 872.851 2.60578 -3.5218 0
M  V30 9641 C 874.352 3.84309 -2.20955 0
M  V30 9642 H 871.572 0.489685 -0.458748 0
M  V30 9643 H 874.116 0.980436 -1.79465 0
M  V30 9644 H 872.271 3.46303 -1.73646 0
M  V30 9645 H 872.685 3.4506 -3.95011 0
M  V30 9646 H 874.159 4.74081 -2.82756 0
M  V30 9647 H 874.636 4.22121 -1.21287 0
M  V30 9648 H 875.242 3.33942 -2.63368 0
M  V30 9649 N 873.557 1.20646 1.01402 0
M  V30 9650 C 874.803 1.0197 1.753 0
M  V30 9651 C 875.136 -0.446803 1.8899 0
M  V30 9652 O 874.411 -1.33169 1.41762 0
M  V30 9653 C 874.694 1.70693 3.17074 0
M  V30 9654 C 874.547 3.24805 3.11162 0
M  V30 9655 C 875.866 1.44212 4.15802 0
M  V30 9656 H 872.985 0.371844 0.636318 0
M  V30 9657 H 875.627 1.48696 1.18277 0
M  V30 9658 H 873.777 1.30968 3.65759 0
M  V30 9659 H 875.449 3.73841 2.70261 0
M  V30 9660 H 873.692 3.55576 2.48492 0
M  V30 9661 H 874.363 3.68049 4.11393 0
M  V30 9662 H 876.839 1.7868 3.75783 0
M  V30 9663 H 875.715 1.94825 5.13161 0
M  V30 9664 H 875.976 0.370252 4.40547 0
M  V30 9665 N 875.035 -1.20752 1.01276 0
M  V30 9666 C 876.282 -1.90021 0.699887 0
M  V30 9667 C 876.61 -1.78604 -0.770113 0
M  V30 9668 O 875.865 -1.16195 -1.57471 0
M  V30 9669 C 876.164 -3.40808 1.07633 0
M  V30 9670 C 875.83 -3.72423 2.54189 0
M  V30 9671 C 874.492 -3.80762 2.94234 0
M  V30 9672 C 876.844 -3.87025 3.49086 0
M  V30 9673 C 874.172 -4.01158 4.28123 0
M  V30 9674 C 876.524 -4.0893 4.82658 0
M  V30 9675 C 875.188 -4.15498 5.22415 0
M  V30 9676 H 874.458 -0.695335 0.256107 0
M  V30 9677 H 877.105 -1.43096 1.27263 0
M  V30 9678 H 875.41 -3.89521 0.421944 0
M  V30 9679 H 877.107 -3.92693 0.811997 0
M  V30 9680 H 873.697 -3.66529 2.22158 0
M  V30 9681 H 877.881 -3.79942 3.19309 0
M  V30 9682 H 873.137 -4.04476 4.58486 0
M  V30 9683 H 877.311 -4.19172 5.56119 0
M  V30 9684 H 874.938 -4.31055 6.26176 0
M  V30 9685 N 876.513 -0.788492 -1.36457 0
M  V30 9686 C 877.443 -0.200468 -2.32638 0
M  V30 9687 C 878.424 0.664031 -1.56603 0
M  V30 9688 O 879.609 0.598045 -1.84762 0
M  V30 9689 C 876.739 0.666274 -3.40849 0
M  V30 9690 C 875.693 -0.0982574 -4.27887 0
M  V30 9691 C 875.019 0.889018 -5.27258 0
M  V30 9692 C 876.319 -1.28692 -5.06197 0
M  V30 9693 H 878.013 -1.00399 -2.82065 0
M  V30 9694 H 875.559 -0.484237 -1.35614 0
M  V30 9695 H 877.512 1.08757 -4.07124 0
M  V30 9696 H 876.236 1.50249 -2.89987 0
M  V30 9697 H 874.895 -0.500525 -3.63167 0
M  V30 9698 H 874.543 1.72024 -4.7267 0
M  V30 9699 H 874.243 0.381909 -5.86358 0
M  V30 9700 H 875.767 1.30891 -5.96406 0
M  V30 9701 H 877.181 -0.941429 -5.65517 0
M  V30 9702 H 875.578 -1.72726 -5.74705 0
M  V30 9703 H 876.648 -2.08273 -4.37893 0
M  V30 9704 N 877.991 1.48044 -0.54043 0
M  V30 9705 C 878.954 2.28273 0.205966 0
M  V30 9706 C 879.954 1.35983 0.858209 0
M  V30 9707 O 881.144 1.58776 0.716651 0
M  V30 9708 C 878.276 3.15174 1.29917 0
M  V30 9709 H 879.469 2.95727 -0.498555 0
M  V30 9710 H 877.022 1.53457 -0.296745 0
M  V30 9711 H 877.757 2.52374 2.03661 0
M  V30 9712 H 877.542 3.83074 0.836475 0
M  V30 9713 H 879.032 3.75666 1.82387 0
M  V30 9714 N 879.47 0.276058 1.55163 0
M  V30 9715 C 880.403 -0.652386 2.18676 0
M  V30 9716 C 881.381 -1.15151 1.148 0
M  V30 9717 O 882.565 -1.22431 1.43328 0
M  V30 9718 C 879.692 -1.88982 2.81076 0
M  V30 9719 C 878.738 -1.52609 3.98262 0
M  V30 9720 S 879.571 -0.603445 5.32089 0
M  V30 9721 C 880.727 -1.84923 5.97958 0
M  V30 9722 H 880.96 -0.112733 2.97086 0
M  V30 9723 H 878.493 0.0603118 1.54282 0
M  V30 9724 H 880.451 -2.60007 3.17658 0
M  V30 9725 H 879.112 -2.40061 2.02557 0
M  V30 9726 H 878.305 -2.44689 4.40617 0
M  V30 9727 H 877.907 -0.89601 3.63108 0
M  V30 9728 H 880.199 -2.79303 6.17249 0
M  V30 9729 H 881.142 -1.46868 6.92702 0
M  V30 9730 H 881.55 -2.0146 5.27327 0
M  V30 9731 N 880.948 -1.576 0.00335426 0
M  V30 9732 C 881.858 -2.12067 -1.00322 0
M  V30 9733 C 882.874 -1.06672 -1.37467 0
M  V30 9734 O 884.05 -1.38592 -1.46131 0
M  V30 9735 C 881.115 -2.61593 -2.27531 0
M  V30 9736 C 880.176 -3.81602 -1.96668 0
M  V30 9737 C 879.409 -4.28756 -3.17811 0
M  V30 9738 O 879.632 -3.75222 -4.2961 0
M  V30 9739 O 878.566 -5.20877 -3.01613 0
M  V30 9740 H 882.392 -2.98299 -0.570199 0
M  V30 9741 H 879.977 -1.47835 -0.215682 0
M  V30 9742 H 881.859 -2.93631 -3.02256 0
M  V30 9743 H 880.534 -1.78457 -2.70065 0
M  V30 9744 H 879.441 -3.54531 -1.19408 0
M  V30 9745 H 880.774 -4.65822 -1.58968 0
M  V30 9746 N 882.426 0.269451 -1.5528 0
M  V30 9747 C 883.376 1.33553 -1.84791 0
M  V30 9748 C 884.36 1.44532 -0.707067 0
M  V30 9749 O 885.552 1.48153 -0.968493 0
M  V30 9750 C 882.681 2.69516 -2.12641 0
M  V30 9751 C 881.767 2.62633 -3.32993 0
M  V30 9752 N 882.158 2.25371 -4.52815 0
M  V30 9753 C 880.456 2.93688 -3.35654 0
M  V30 9754 C 881.157 2.28567 -5.34913 0
M  V30 9755 N 880.133 2.67181 -4.73408 0
M  V30 9756 H 883.935 1.03758 -2.74976 0
M  V30 9757 H 881.449 0.478087 -1.55203 0
M  V30 9758 H 883.446 3.46424 -2.3194 0
M  V30 9759 H 882.106 3.00197 -1.23742 0
M  V30 9760 H 883.117 1.9729 -4.7885 0
M  V30 9761 H 879.794 3.29057 -2.56958 0
M  V30 9762 H 881.184 2.02289 -6.40725 0
M  V30 9763 N 883.904 1.48273 0.534124 0
M  V30 9764 C 884.854 1.58889 1.63519 0
M  V30 9765 C 885.838 0.44626 1.54588 0
M  V30 9766 O 887.03 0.697474 1.62679 0
M  V30 9767 C 884.159 1.62787 3.0225 0
M  V30 9768 C 883.245 2.82515 3.16301 0
M  V30 9769 N 883.636 4.06977 3.00338 0
M  V30 9770 C 881.934 2.7976 3.47347 0
M  V30 9771 C 882.635 4.87283 3.17694 0
M  V30 9772 N 881.611 4.20024 3.45081 0
M  V30 9773 H 885.413 2.52869 1.49781 0
M  V30 9774 H 882.927 1.44587 0.739479 0
M  V30 9775 H 884.924 1.68486 3.81337 0
M  V30 9776 H 883.584 0.699201 3.17082 0
M  V30 9777 H 884.595 4.37479 2.77186 0
M  V30 9778 H 881.272 1.96132 3.68563 0
M  V30 9779 H 882.662 5.96047 3.10126 0
M  V30 9780 N 885.382 -0.782676 1.36792 0
M  V30 9781 C 886.329 -1.89558 1.31667 0
M  V30 9782 C 887.299 -1.65076 0.184147 0
M  V30 9783 O 888.484 -1.87143 0.371753 0
M  V30 9784 C 885.624 -3.26469 1.11858 0
M  V30 9785 C 884.737 -3.62978 2.34245 0
M  V30 9786 C 883.872 -4.89041 2.07394 0
M  V30 9787 C 882.911 -5.18249 3.25706 0
M  V30 9788 N 882.048 -6.35497 2.98476 0
M  V30 9789 H 886.888 -1.93274 2.26824 0
M  V30 9790 H 884.425 -0.945057 1.12726 0
M  V30 9791 H 886.383 -4.05431 0.983968 0
M  V30 9792 H 885.013 -3.22158 0.203531 0
M  V30 9793 H 884.065 -2.79087 2.58485 0
M  V30 9794 H 885.377 -3.80507 3.22514 0
M  V30 9795 H 884.531 -5.75883 1.90901 0
M  V30 9796 H 883.27 -4.73594 1.16446 0
M  V30 9797 H 882.275 -4.29887 3.4275 0
M  V30 9798 H 883.5 -5.35611 4.1749 0
M  V30 9799 H 881.446 -6.21429 2.10146 0
M  V30 9800 H 881.363 -6.5339 3.80286 0
M  V30 9801 H 882.631 -7.25304 2.85577 0
M  V30 9802 N 886.86 -1.21182 -1.00761 0
M  V30 9803 C 887.793 -0.912033 -2.09182 0
M  V30 9804 C 888.771 0.139421 -1.62001 0
M  V30 9805 O 889.955 0.0110272 -1.88497 0
M  V30 9806 C 887.082 -0.368957 -3.36684 0
M  V30 9807 C 886.128 -1.4028 -4.0277 0
M  V30 9808 S 886.961 -2.97108 -4.45519 0
M  V30 9809 C 888.117 -2.444 -5.76211 0
M  V30 9810 H 888.35 -1.83019 -2.34289 0
M  V30 9811 H 885.883 -1.04127 -1.14004 0
M  V30 9812 H 887.841 -0.0621883 -4.10453 0
M  V30 9813 H 886.502 0.527841 -3.09633 0
M  V30 9814 H 885.695 -0.97238 -4.94531 0
M  V30 9815 H 885.297 -1.65752 -3.35265 0
M  V30 9816 H 887.589 -1.84723 -6.51831 0
M  V30 9817 H 888.532 -3.34593 -6.24062 0
M  V30 9818 H 888.94 -1.86203 -5.32906 0
M  V30 9819 N 888.338 1.20213 -1.01915 0
M  V30 9820 C 889.248 2.26763 -0.601311 0
M  V30 9821 C 890.264 1.70185 0.362369 0
M  V30 9822 O 891.44 2.00165 0.222682 0
M  V30 9823 C 888.505 3.46662 0.0512879 0
M  V30 9824 C 887.566 4.18459 -0.958659 0
M  V30 9825 C 886.799 5.32634 -0.337107 0
M  V30 9826 O 887.022 5.63841 0.86251 0
M  V30 9827 O 885.956 5.9258 -1.05511 0
M  V30 9828 H 889.782 2.64725 -1.48844 0
M  V30 9829 H 887.367 1.2688 -0.788784 0
M  V30 9830 H 889.249 4.19345 0.41564 0
M  V30 9831 H 887.924 3.1057 0.912572 0
M  V30 9832 H 886.831 3.47937 -1.37442 0
M  V30 9833 H 888.164 4.58498 -1.78999 0
M  V30 9834 N 889.816 0.795718 1.36037 0
M  V30 9835 C 890.779 0.204318 2.28287 0
M  V30 9836 C 891.779 -0.602017 1.49105 0
M  V30 9837 O 892.969 -0.422089 1.69009 0
M  V30 9838 C 890.101 -0.716431 3.33287 0
M  V30 9839 H 891.294 1.01781 2.821 0
M  V30 9840 H 888.847 0.565588 1.45708 0
M  V30 9841 H 889.582 -1.55403 2.84641 0
M  V30 9842 H 889.367 -0.140096 3.9185 0
M  V30 9843 H 890.857 -1.12488 4.02164 0
M  V30 9844 N 891.294 -1.47756 0.548274 0
M  V30 9845 C 892.519 -2.07387 0.023475 0
M  V30 9846 C 892.944 -1.39956 -1.25674 0
M  V30 9847 O 892.302 -0.471543 -1.7506 0
M  V30 9848 C 892.35 -3.60224 -0.164669 0
M  V30 9849 O 891.454 -3.93653 -1.22928 0
M  V30 9850 H 890.795 -0.662312 0.0473156 0
M  V30 9851 H 893.325 -1.89905 0.761409 0
M  V30 9852 H 893.335 -4.06211 -0.38166 0
M  V30 9853 H 892.01 -4.08702 0.770425 0
M  V30 9854 H 890.587 -3.59422 -0.993495 0
M  V30 9855 N 892.772 -0.284283 -1.55015 0
M  V30 9856 C 894.019 0.329864 -1.99795 0
M  V30 9857 C 894.347 1.55171 -1.1727 0
M  V30 9858 O 893.602 1.94312 -0.232667 0
M  V30 9859 C 893.901 0.747219 -3.49502 0
M  V30 9860 C 893.567 -0.37101 -4.49371 0
M  V30 9861 C 892.229 -0.678034 -4.76399 0
M  V30 9862 C 894.581 -1.12406 -5.08935 0
M  V30 9863 C 891.909 -1.74152 -5.60257 0
M  V30 9864 C 894.261 -2.17734 -5.93948 0
M  V30 9865 C 892.925 -2.49061 -6.19294 0
M  V30 9866 H 892.195 0.120706 -0.731103 0
M  V30 9867 H 894.842 -0.399904 -1.87278 0
M  V30 9868 H 893.147 1.55681 -3.59542 0
M  V30 9869 H 894.844 1.2333 -3.81563 0
M  V30 9870 H 891.434 -0.1216 -4.28427 0
M  V30 9871 H 895.618 -0.900119 -4.88069 0
M  V30 9872 H 890.874 -1.98915 -5.78137 0
M  V30 9873 H 895.048 -2.76553 -6.39133 0
M  V30 9874 H 892.675 -3.31602 -6.84064 0
M  V30 9875 N 894.251 1.57596 -0.0117121 0
M  V30 9876 C 895.161 2.12596 0.991964 0
M  V30 9877 C 896.177 1.07399 1.36899 0
M  V30 9878 O 897.353 1.39365 1.45394 0
M  V30 9879 C 894.418 2.62796 2.2614 0
M  V30 9880 C 893.479 3.8264 1.94642 0
M  V30 9881 C 892.712 4.30435 3.15533 0
M  V30 9882 O 892.935 3.77495 4.27614 0
M  V30 9883 O 891.869 5.22469 2.98847 0
M  V30 9884 H 895.695 2.98597 0.554371 0
M  V30 9885 H 893.28 1.47947 0.207839 0
M  V30 9886 H 895.162 2.9523 3.00695 0
M  V30 9887 H 893.837 1.79886 2.69114 0
M  V30 9888 H 892.744 3.5516 1.17526 0
M  V30 9889 H 894.077 4.66658 1.56496 0
M  V30 9890 N 895.729 -0.261212 1.5542 0
M  V30 9891 C 896.676 -1.32315 1.89107 0
M  V30 9892 C 897.646 -1.48517 0.743767 0
M  V30 9893 O 898.831 -1.62733 0.996123 0
M  V30 9894 C 895.971 -2.67626 2.17877 0
M  V30 9895 C 895.084 -2.59549 3.45338 0
M  V30 9896 C 894.219 -3.87118 3.63748 0
M  V30 9897 C 893.258 -3.736 4.8486 0
M  V30 9898 N 892.395 -4.93029 4.99867 0
M  V30 9899 H 897.235 -1.02886 2.79675 0
M  V30 9900 H 894.772 -0.496812 1.38456 0
M  V30 9901 H 896.73 -3.4637 2.32559 0
M  V30 9902 H 895.36 -2.95232 1.30529 0
M  V30 9903 H 894.412 -1.72452 3.39064 0
M  V30 9904 H 895.724 -2.45465 4.34222 0
M  V30 9905 H 894.878 -4.74305 3.78312 0
M  V30 9906 H 893.617 -4.04084 2.73071 0
M  V30 9907 H 892.622 -2.84797 4.70288 0
M  V30 9908 H 893.847 -3.58143 5.76984 0
M  V30 9909 H 891.793 -5.10383 4.12123 0
M  V30 9910 H 891.71 -4.81521 5.82815 0
M  V30 9911 H 892.978 -5.81754 5.18828 0
M  V30 9912 N 897.207 -1.48554 -0.526253 0
M  V30 9913 C 898.14 -1.57928 -1.64724 0
M  V30 9914 C 899.118 -0.429536 -1.56824 0
M  V30 9915 O 900.302 -0.641651 -1.77243 0
M  V30 9916 C 897.429 -1.51075 -3.0314 0
M  V30 9917 C 896.475 -2.70937 -3.29386 0
M  V30 9918 S 897.308 -4.3287 -3.15251 0
M  V30 9919 C 898.464 -4.28622 -4.56108 0
M  V30 9920 H 898.697 -2.52761 -1.56523 0
M  V30 9921 H 896.23 -1.37133 -0.7095 0
M  V30 9922 H 898.188 -1.47808 -3.82966 0
M  V30 9923 H 896.849 -0.57574 -3.08778 0
M  V30 9924 H 896.042 -2.62291 -4.30371 0
M  V30 9925 H 895.644 -2.71486 -2.57238 0
M  V30 9926 H 897.936 -3.98784 -5.47702 0
M  V30 9927 H 898.879 -5.29798 -4.69808 0
M  V30 9928 H 899.287 -3.59038 -4.35605 0
M  V30 9929 N 898.685 0.775411 -1.37205 0
M  V30 9930 C 899.615 1.90258 -1.35367 0
M  V30 9931 C 900.596 1.68634 -0.222864 0
M  V30 9932 O 901.781 1.89545 -0.422659 0
M  V30 9933 C 898.911 3.27488 -1.15623 0
M  V30 9934 C 897.865 3.63668 -2.25676 0
M  V30 9935 C 897.191 4.994 -1.91059 0
M  V30 9936 C 898.491 3.70797 -3.67841 0
M  V30 9937 H 900.185 1.92053 -2.29687 0
M  V30 9938 H 897.731 0.922597 -1.10563 0
M  V30 9939 H 899.684 4.05976 -1.12968 0
M  V30 9940 H 898.408 3.26117 -0.177573 0
M  V30 9941 H 897.067 2.87486 -2.2748 0
M  V30 9942 H 896.715 4.94565 -0.917324 0
M  V30 9943 H 896.415 5.24576 -2.64751 0
M  V30 9944 H 897.939 5.80291 -1.89985 0
M  V30 9945 H 899.353 4.39444 -3.68187 0
M  V30 9946 H 897.75 4.07468 -4.40556 0
M  V30 9947 H 898.82 2.71549 -4.01732 0
M  V30 9948 N 900.163 1.21714 1.00117 0
M  V30 9949 C 901.111 0.976937 2.11089 0
M  V30 9950 C 902.105 -0.0771295 1.69224 0
M  V30 9951 O 903.311 0.0745945 1.79845 0
M  V30 9952 H 899.686 0.298687 0.690138 0
M  V30 9953 H 901.657 1.91881 2.28526 0
M  V30 9954 C 900.406 0.562369 3.43122 0
M  V30 9955 H 899.729 1.36509 3.75773 0
M  V30 9956 H 901.169 0.433642 4.21777 0
M  V30 9957 C 899.628 -0.727148 3.28959 0
M  V30 9958 O 900.158 -1.78171 3.60025 0
M  V30 9959 N 898.364 -0.695129 2.82164 0
M  V30 9960 H 897.911 0.163346 2.57082 0
M  V30 9961 H 897.869 -1.55822 2.73069 0
M  V30 9962 N 901.641 -1.19671 1.02551 0
M  V30 9963 C 902.89 -1.88591 0.715272 0
M  V30 9964 C 903.203 -1.80274 -0.758982 0
M  V30 9965 O 904.409 -2.44413 -1.18213 0
M  V30 9966 C 902.865 -3.38264 1.22905 0
M  V30 9967 C 902.473 -3.55146 2.73084 0
M  V30 9968 C 904.217 -4.12683 0.994649 0
M  V30 9969 C 902.124 -4.98693 3.17897 0
M  V30 9970 H 901.054 -0.706326 0.263857 0
M  V30 9971 H 903.705 -1.35322 1.23936 0
M  V30 9972 H 902.087 -3.9091 0.632892 0
M  V30 9973 H 903.261 -3.12845 3.38326 0
M  V30 9974 H 901.576 -2.94112 2.94766 0
M  V30 9975 H 904.173 -5.18536 1.30478 0
M  V30 9976 H 904.516 -4.16243 -0.0686466 0
M  V30 9977 H 905.049 -3.66164 1.55464 0
M  V30 9978 H 901.788 -5.00293 4.23542 0
M  V30 9979 H 901.308 -5.4177 2.57381 0
M  V30 9980 H 902.987 -5.67327 3.11045 0
M  V30 9981 N 903.119 -0.802921 -1.35613 0
M  V30 9982 C 904.367 -0.380822 -1.9848 0
M  V30 9983 C 904.688 1.05464 -1.6402 0
M  V30 9984 O 903.958 1.72908 -0.920854 0
M  V30 9985 H 902.538 -0.137824 -0.734176 0
M  V30 9986 H 905.2 -1.02795 -1.65587 0
M  V30 9987 H 904.296 -0.483565 -3.08331 0
M  V30 9988 N 904.597 1.47463 -0.556102 0
M  V30 9989 C 905.545 2.31692 0.205299 0
M  V30 9990 C 906.539 1.42857 0.910394 0
M  V30 9991 O 907.745 1.59628 0.831806 0
M  V30 9992 H 904.12 0.747172 0.0850775 0
M  V30 9993 H 906.091 2.93758 -0.524305 0
M  V30 9994 C 904.84 3.25487 1.22283 0
M  V30 9995 H 904.163 3.93806 0.689697 0
M  V30 9996 H 905.603 3.87257 1.7265 0
M  V30 9997 C 904.062 2.48931 2.27013 0
M  V30 9998 O 904.592 2.23296 3.33919 0
M  V30 9999 N 902.798 2.0996 2.00911 0
M  V30 10000 H 902.345 2.31008 1.13986 0
M  V30 10001 H 902.303 1.59053 2.712 0
M  V30 10002 N 906.075 0.2925 1.54862 0
M  V30 10003 C 907.005 -0.580677 2.26165 0
M  V30 10004 C 907.986 -1.14485 1.25806 0
M  V30 10005 O 909.171 -1.17577 1.54562 0
M  V30 10006 C 906.301 -1.75668 2.99596 0
M  V30 10007 C 905.255 -1.32325 4.07031 0
M  V30 10008 C 904.581 -2.58374 4.68131 0
M  V30 10009 C 905.881 -0.460703 5.20264 0
M  V30 10010 H 907.575 0.0140075 2.99397 0
M  V30 10011 H 905.121 0.00817706 1.43998 0
M  V30 10012 H 907.074 -2.37356 3.48195 0
M  V30 10013 H 905.798 -2.37747 2.23928 0
M  V30 10014 H 904.457 -0.729477 3.59269 0
M  V30 10015 H 904.105 -3.18749 3.89112 0
M  V30 10016 H 903.805 -2.30078 5.40683 0
M  V30 10017 H 905.329 -3.2088 5.19489 0
M  V30 10018 H 906.743 -0.983037 5.64809 0
M  V30 10019 H 905.14 -0.271881 5.99484 0
M  V30 10020 H 906.21 0.516304 4.82143 0
M  V30 10021 N 907.553 -1.57587 0.0200696 0
M  V30 10022 C 908.799 -1.91708 -0.661503 0
M  V30 10023 C 909.132 -0.895968 -1.72296 0
M  V30 10024 O 908.407 0.082577 -1.94325 0
M  V30 10025 C 908.69 -3.36344 -1.28627 0
M  V30 10026 C 908.543 -4.49186 -0.234982 0
M  V30 10027 C 909.862 -3.80771 -2.20685 0
M  V30 10028 H 906.981 -0.69717 -0.239005 0
M  V30 10029 H 909.623 -1.8985 0.0754764 0
M  V30 10030 H 907.773 -3.38058 -1.91439 0
M  V30 10031 H 909.445 -4.59606 0.395011 0
M  V30 10032 H 907.688 -4.31557 0.440565 0
M  V30 10033 H 908.359 -5.47395 -0.711558 0
M  V30 10034 H 910.835 -3.80735 -1.67868 0
M  V30 10035 H 909.711 -4.82685 -2.61356 0
M  V30 10036 H 909.972 -3.15764 -3.09428 0
M  V30 10037 N 909.032 0.252966 -1.55557 0
M  V30 10038 C 910.279 0.981852 -1.77104 0
M  V30 10039 C 910.607 1.85547 -0.583305 0
M  V30 10040 O 909.862 1.90836 0.43359 0
M  V30 10041 C 910.161 1.87785 -3.04091 0
M  V30 10042 C 909.827 1.16009 -4.35721 0
M  V30 10043 C 908.489 0.961697 -4.71492 0
M  V30 10044 C 910.841 0.650884 -5.1712 0
M  V30 10045 C 908.169 0.241704 -5.86202 0
M  V30 10046 C 910.521 -0.0556124 -6.32576 0
M  V30 10047 C 909.185 -0.265536 -6.66972 0
M  V30 10048 H 908.455 0.359285 -0.64807 0
M  V30 10049 H 911.102 0.252443 -1.89829 0
M  V30 10050 H 909.407 2.67412 -2.86353 0
M  V30 10051 H 911.104 2.44339 -3.17961 0
M  V30 10052 H 907.694 1.32465 -4.07616 0
M  V30 10053 H 911.878 0.791719 -4.89944 0
M  V30 10054 H 907.134 0.0685292 -6.11362 0
M  V30 10055 H 911.308 -0.457839 -6.94893 0
M  V30 10056 H 908.935 -0.8254 -7.55706 0
M  V30 10057 N 910.51 1.48831 0.518367 0
M  V30 10058 C 911.738 1.6112 1.298 0
M  V30 10059 C 912.153 0.275872 1.86774 0
M  V30 10060 O 911.51 -0.736416 1.66983 0
M  V30 10061 C 911.561 2.66675 2.44063 0
M  V30 10062 O 911.282 3.95027 1.89434 0
M  V30 10063 C 912.783 2.8951 3.35706 0
M  V30 10064 H 910.003 0.542916 0.394314 0
M  V30 10065 H 912.547 1.94743 0.624142 0
M  V30 10066 H 910.702 2.35879 3.07311 0
M  V30 10067 H 911.116 4.53031 2.64316 0
M  V30 10068 H 912.59 3.67142 4.12202 0
M  V30 10069 H 913.067 1.98768 3.91648 0
M  V30 10070 H 913.673 3.21656 2.7824 0
M  V30 10071 N 911.988 -0.768124 1.37614 0
M  V30 10072 C 913.213 -1.56239 1.36397 0
M  V30 10073 C 913.638 -1.8804 -0.0475839 0
M  V30 10074 O 912.996 -1.495 -1.02564 0
M  V30 10075 C 913.044 -2.84716 2.21289 0
M  V30 10076 O 912.148 -3.79249 1.62001 0
M  V30 10077 H 911.489 -0.473119 0.465891 0
M  V30 10078 H 914.019 -0.950415 1.81186 0
M  V30 10079 H 914.029 -3.33784 2.34632 0
M  V30 10080 H 912.704 -2.60899 3.2389 0
M  V30 10081 H 911.281 -3.37904 1.57719 0
M  V30 10082 N 913.466 -1.22244 -0.994698 0
M  V30 10083 C 914.715 -1.04005 -1.72817 0
M  V30 10084 C 915.028 0.425413 -1.90918 0
M  V30 10085 O 916.234 0.727429 -2.61574 0
M  V30 10086 C 914.69 -1.81244 -3.10932 0
M  V30 10087 C 914.298 -3.32028 -3.00768 0
M  V30 10088 C 916.042 -1.71448 -3.88337 0
M  V30 10089 C 913.949 -4.01716 -4.34026 0
M  V30 10090 H 912.879 -0.385559 -0.647966 0
M  V30 10091 H 915.53 -1.46077 -1.11058 0
M  V30 10092 H 913.912 -1.3197 -3.73363 0
M  V30 10093 H 915.086 -3.88682 -2.47513 0
M  V30 10094 H 913.401 -3.4248 -2.36846 0
M  V30 10095 H 915.998 -2.20836 -4.86965 0
M  V30 10096 H 916.341 -0.674568 -4.10798 0
M  V30 10097 H 916.874 -2.18256 -3.3258 0
M  V30 10098 H 913.613 -5.05952 -4.16765 0
M  V30 10099 H 913.133 -3.49849 -4.87202 0
M  V30 10100 H 914.812 -4.0721 -5.02782 0
M  V30 10101 N 914.944 1.19125 -1.03184 0
M  V30 10102 C 916.191 1.88883 -0.730029 0
M  V30 10103 C 916.519 1.79807 0.741602 0
M  V30 10104 O 915.774 1.18686 1.55603 0
M  V30 10105 C 916.073 3.39052 -1.13041 0
M  V30 10106 C 915.739 3.68332 -2.60082 0
M  V30 10107 C 914.401 3.76033 -3.00254 0
M  V30 10108 C 916.753 3.81423 -3.55199 0
M  V30 10109 C 914.081 3.94296 -4.34451 0
M  V30 10110 C 916.433 4.012 -4.89103 0
M  V30 10111 C 915.097 4.07134 -5.28959 0
M  V30 10112 H 914.367 0.691172 -0.267137 0
M  V30 10113 H 917.014 1.41053 -1.29523 0
M  V30 10114 H 915.319 3.88801 -0.48386 0
M  V30 10115 H 917.016 3.91351 -0.874368 0
M  V30 10116 H 913.606 3.62948 -2.27961 0
M  V30 10117 H 917.79 3.74814 -3.25313 0
M  V30 10118 H 913.046 3.97131 -4.64863 0
M  V30 10119 H 917.22 4.10271 -5.62717 0
M  V30 10120 H 914.847 4.21038 -6.32954 0
M  V30 10121 N 916.422 0.810101 1.35185 0
M  V30 10122 C 917.671 0.388589 1.97921 0
M  V30 10123 C 917.984 -1.05079 1.64978 0
M  V30 10124 O 919.19 -1.57559 2.21105 0
M  V30 10125 C 917.646 0.643864 3.54094 0
M  V30 10126 C 917.254 2.09602 3.95943 0
M  V30 10127 C 918.998 0.287883 4.23523 0
M  V30 10128 C 916.905 2.29686 5.44976 0
M  V30 10129 H 915.835 0.141562 0.740592 0
M  V30 10130 H 918.486 0.994653 1.54204 0
M  V30 10131 H 916.868 -0.0321978 3.95987 0
M  V30 10132 H 918.042 2.81018 3.65192 0
M  V30 10133 H 916.357 2.4122 3.39414 0
M  V30 10134 H 918.954 0.415946 5.3308 0
M  V30 10135 H 919.297 -0.766305 4.09186 0
M  V30 10136 H 919.83 0.918004 3.87063 0
M  V30 10137 H 916.569 3.33563 5.64284 0
M  V30 10138 H 916.089 1.62798 5.77284 0
M  V30 10139 H 917.768 2.11411 6.11485 0
M  V30 10140 N 917.9 -1.47166 0.563914 0
M  V30 10141 C 918.863 -2.28571 -0.169624 0
M  V30 10142 C 919.863 -1.37331 -0.836467 0
M  V30 10143 O 921.053 -1.59896 -0.6913 0
M  V30 10144 C 918.185 -3.17201 -1.24886 0
M  V30 10145 H 919.378 -2.94896 0.545539 0
M  V30 10146 H 916.931 -1.52966 0.321121 0
M  V30 10147 H 917.666 -2.55582 -1.99621 0
M  V30 10148 H 917.451 -3.84356 -0.775426 0
M  V30 10149 H 918.941 -3.7852 -1.76388 0
M  V30 10150 N 919.378 -0.300708 -1.54705 0
M  V30 10151 C 920.288 0.584996 -2.27189 0
M  V30 10152 C 921.304 1.14866 -1.30697 0
M  V30 10153 O 922.48 1.17351 -1.63679 0
M  V30 10154 C 919.545 1.74076 -2.99831 0
M  V30 10155 C 918.606 1.2112 -4.1186 0
M  V30 10156 C 917.839 2.31188 -4.81028 0
M  V30 10157 O 918.062 3.5108 -4.49554 0
M  V30 10158 O 916.996 1.97897 -5.68437 0
M  V30 10159 H 920.822 -0.00298177 -3.037 0
M  V30 10160 H 918.407 -0.0671802 -1.49249 0
M  V30 10161 H 920.289 2.41413 -3.45395 0
M  V30 10162 H 918.964 2.31535 -2.26215 0
M  V30 10163 H 917.871 0.50357 -3.70695 0
M  V30 10164 H 919.204 0.682046 -4.87452 0
M  V30 10165 N 920.856 1.57574 -0.0284266 0
M  V30 10166 C 921.789 2.05684 0.988401 0
M  V30 10167 C 922.767 0.952468 1.31783 0
M  V30 10168 O 923.951 1.22274 1.43462 0
M  V30 10169 C 921.078 2.47832 2.30862 0
M  V30 10170 C 920.124 3.69282 2.13384 0
M  V30 10171 S 920.957 5.15962 1.43331 0
M  V30 10172 C 922.113 5.61404 2.76723 0
M  V30 10173 H 922.346 2.9161 0.578873 0
M  V30 10174 H 919.879 1.53309 0.183244 0
M  V30 10175 H 921.837 2.7278 3.06759 0
M  V30 10176 H 920.498 1.62253 2.68947 0
M  V30 10177 H 919.691 3.96618 3.10983 0
M  V30 10178 H 919.293 3.44482 1.45629 0
M  V30 10179 H 921.585 5.65601 3.72963 0
M  V30 10180 H 922.528 6.60956 2.54053 0
M  V30 10181 H 922.936 4.89051 2.81939 0
M  V30 10182 N 922.334 -0.244713 1.55689 0
M  V30 10183 C 923.574 -0.979776 1.79387 0
M  V30 10184 C 923.938 -1.8244 0.598298 0
M  V30 10185 O 925.139 -2.59141 0.7141 0
M  V30 10186 C 923.41 -1.81573 3.07841 0
M  V30 10187 S 924.969 -2.60959 3.52769 0
M  V30 10188 H 921.787 -0.329526 0.630027 0
M  V30 10189 H 924.389 -0.247435 1.93928 0
M  V30 10190 H 923.093 -1.18497 3.92921 0
M  V30 10191 H 922.624 -2.59078 2.96044 0
M  V30 10192 H 924.639 -3.83987 3.14275 0
M  V30 10193 N 923.813 -1.49104 -0.510467 0
M  V30 10194 C 924.743 -1.67981 -1.62187 0
M  V30 10195 C 925.724 -0.528529 -1.6168 0
M  V30 10196 O 926.909 -0.763305 -1.7857 0
M  V30 10197 C 924.039 -1.73755 -3.0071 0
M  V30 10198 C 922.993 -2.88579 -3.1608 0
M  V30 10199 C 922.319 -2.79457 -4.5586 0
M  V30 10200 C 923.619 -4.29638 -2.97 0
M  V30 10201 H 925.313 -2.61029 -1.46643 0
M  V30 10202 H 922.859 -1.25615 -0.704042 0
M  V30 10203 H 924.812 -1.85548 -3.78352 0
M  V30 10204 H 923.536 -0.772996 -3.17321 0
M  V30 10205 H 922.195 -2.76372 -2.40861 0
M  V30 10206 H 921.843 -1.80929 -4.69333 0
M  V30 10207 H 921.543 -3.56518 -4.67086 0
M  V30 10208 H 923.067 -2.93245 -5.35574 0
M  V30 10209 H 924.481 -4.42575 -3.64418 0
M  V30 10210 H 922.878 -5.07847 -3.19704 0
M  V30 10211 H 923.948 -4.44741 -1.93219 0
M  V30 10212 N 925.291 0.760815 -1.38019 0
M  V30 10213 C 926.238 1.8744 -1.34666 0
M  V30 10214 C 927.208 1.64762 -0.210386 0
M  V30 10215 O 928.393 1.86528 -0.401479 0
M  V30 10216 C 925.533 3.24648 -1.17037 0
M  V30 10217 C 924.646 3.59206 -2.3999 0
M  V30 10218 C 923.781 4.8568 -2.15148 0
M  V30 10219 C 922.82 5.13002 -3.3391 0
M  V30 10220 N 921.957 6.30668 -3.08549 0
M  V30 10221 H 926.797 1.8964 -2.29871 0
M  V30 10222 H 924.334 0.927004 -1.14215 0
M  V30 10223 H 926.292 4.03814 -1.04834 0
M  V30 10224 H 924.922 3.21793 -0.254758 0
M  V30 10225 H 923.974 2.74939 -2.62893 0
M  V30 10226 H 925.286 3.75328 -3.28527 0
M  V30 10227 H 924.44 5.72773 -2.00039 0
M  V30 10228 H 923.179 4.71682 -1.23965 0
M  V30 10229 H 922.184 4.2438 -3.49545 0
M  V30 10230 H 923.409 5.28901 -4.25958 0
M  V30 10231 H 921.355 6.18008 -2.20006 0
M  V30 10232 H 921.272 6.47257 -3.90633 0
M  V30 10233 H 922.54 7.20669 -2.9708 0
M  V30 10234 N 926.769 1.22769 0.988202 0
M  V30 10235 C 928.018 1.0492 1.72263 0
M  V30 10236 C 928.331 -0.415282 1.91141 0
M  V30 10237 O 929.537 -0.713547 2.61956 0
M  V30 10238 C 927.993 1.82891 3.09966 0
M  V30 10239 C 927.601 3.33618 2.99003 0
M  V30 10240 C 929.345 1.73505 3.87423 0
M  V30 10241 C 927.252 4.04012 4.3189 0
M  V30 10242 H 926.182 0.38899 0.645912 0
M  V30 10243 H 928.833 1.46664 1.10281 0
M  V30 10244 H 927.215 1.33948 3.72658 0
M  V30 10245 H 928.389 3.8999 2.45448 0
M  V30 10246 H 926.704 3.43732 2.35027 0
M  V30 10247 H 929.301 2.23416 4.85787 0
M  V30 10248 H 929.644 0.696344 4.10435 0
M  V30 10249 H 930.177 2.20016 3.31418 0
M  V30 10250 H 926.916 5.08155 4.14075 0
M  V30 10251 H 926.436 3.52428 4.8534 0
M  V30 10252 H 928.115 4.0987 5.00615 0
M  V30 10253 N 928.247 -1.18576 1.03814 0
M  V30 10254 C 929.496 -1.87822 0.735235 0
M  V30 10255 C 929.809 -1.81069 -0.739819 0
M  V30 10256 O 931.015 -2.45654 -1.15614 0
M  V30 10257 C 929.471 -3.36941 1.26486 0
M  V30 10258 C 929.079 -3.5223 2.76836 0
M  V30 10259 C 930.823 -4.11604 1.03836 0
M  V30 10260 C 928.73 -4.95294 3.23169 0
M  V30 10261 H 927.66 -0.703487 0.271333 0
M  V30 10262 H 930.311 -1.34 1.25365 0
M  V30 10263 H 928.693 -3.90217 0.674318 0
M  V30 10264 H 929.867 -3.09239 3.41625 0
M  V30 10265 H 928.182 -2.90969 2.97869 0
M  V30 10266 H 930.779 -5.17123 1.3597 0
M  V30 10267 H 931.122 -4.16293 -0.0244945 0
M  V30 10268 H 931.655 -3.64494 1.59338 0
M  V30 10269 H 928.394 -4.95772 4.28824 0
M  V30 10270 H 927.914 -5.3901 2.63113 0
M  V30 10271 H 929.593 -5.63996 3.17045 0
M  V30 10272 N 929.725 -0.817259 -1.34754 0
M  V30 10273 C 930.688 -0.240611 -2.27934 0
M  V30 10274 C 931.688 0.578219 -1.50044 0
M  V30 10275 O 932.878 0.395148 -1.69659 0
M  V30 10276 C 930.01 0.663318 -3.34384 0
M  V30 10277 H 931.203 -1.06257 -2.80445 0
M  V30 10278 H 928.756 -0.588697 -1.4479 0
M  V30 10279 H 929.491 1.50855 -2.87077 0
M  V30 10280 H 929.276 0.0777388 -3.92023 0
M  V30 10281 H 930.766 1.06076 -4.03903 0
M  V30 10282 N 931.203 1.46865 -0.571711 0
M  V30 10283 C 932.133 2.3298 0.155795 0
M  V30 10284 C 933.114 1.44678 0.894553 0
M  V30 10285 O 934.299 1.73513 0.872176 0
M  V30 10286 C 931.429 3.26745 1.17708 0
M  V30 10287 C 930.383 4.24401 0.553863 0
M  V30 10288 C 929.709 5.07595 1.68083 0
M  V30 10289 C 931.009 5.19884 -0.501827 0
M  V30 10290 H 932.703 2.94056 -0.563176 0
M  V30 10291 H 930.249 1.41402 -0.27228 0
M  V30 10292 H 932.202 3.85838 1.6943 0
M  V30 10293 H 930.926 2.63753 1.92618 0
M  V30 10294 H 929.585 3.66554 0.057815 0
M  V30 10295 H 929.233 4.40996 2.41933 0
M  V30 10296 H 928.933 5.73722 1.26953 0
M  V30 10297 H 930.457 5.6955 2.20103 0
M  V30 10298 H 931.871 5.73257 -0.0701057 0
M  V30 10299 H 930.268 5.94293 -0.832815 0
M  V30 10300 H 931.338 4.64482 -1.39229 0
M  V30 10301 N 932.681 0.308908 1.54543 0
M  V30 10302 C 933.958 -0.351558 1.92415 0
M  V30 10303 C 934.338 -1.71061 1.23699 0
M  V30 10304 O 933.686 -2.25394 0.3755 0
M  V30 10305 C 933.896 -0.458357 3.45977 0
M  V30 10306 C 935.244 -0.725524 4.18355 0
M  V30 10307 O 936.268 -0.541859 3.52054 0
M  V30 10308 O 935.127 -1.07884 5.35745 0
M  V30 10309 H 932.221 -0.197957 0.802958 0
M  V30 10310 H 934.767 0.357548 1.65891 0
M  V30 10311 H 933.539 0.496723 3.88134 0
M  V30 10312 H 933.162 -1.21562 3.78561 0
M  V30 10313 N 934.159 -1.57557 0.0367827 0
M  V30 10314 C 935.57 -1.79853 -0.500971 0
M  V30 10315 C 935.921 -0.947749 -1.71791 0
M  V30 10316 O 935.046 -0.160287 -2.15806 0
M  V30 10317 C 935.641 -3.26193 -0.915626 0
M  V30 10318 C 934.2 -3.49457 -1.39845 0
M  V30 10319 C 933.347 -2.74864 -0.366784 0
M  V30 10320 H 936.298 -1.56509 0.262768 0
M  V30 10321 H 936.319 -3.36324 -1.7795 0
M  V30 10322 H 935.831 -3.88089 -0.0297227 0
M  V30 10323 H 933.932 -2.92823 -2.30402 0
M  V30 10324 H 934.045 -4.58172 -1.40054 0
M  V30 10325 H 932.409 -2.4057 -0.836554 0
M  V30 10326 H 933.192 -3.39479 0.510785 0
M  V30 10327 N 935.637 0.236453 -1.55816 0
M  V30 10328 C 936.867 0.978873 -1.81939 0
M  V30 10329 C 937.275 1.79041 -0.611647 0
M  V30 10330 O 936.618 1.78616 0.429172 0
M  V30 10331 C 936.68 1.9569 -3.01572 0
M  V30 10332 C 936.344 1.33131 -4.37178 0
M  V30 10333 C 937.341 0.728585 -5.1477 0
M  V30 10334 C 935.026 1.34755 -4.83887 0
M  V30 10335 C 937.02 0.150427 -6.37222 0
M  V30 10336 C 934.707 0.765539 -6.06286 0
M  V30 10337 C 935.705 0.168017 -6.82793 0
M  V30 10338 O 935.393 -0.404976 -8.02879 0
M  V30 10339 H 935.125 0.293186 -0.609113 0
M  V30 10340 H 937.679 0.261384 -2.0373 0
M  V30 10341 H 935.909 2.71298 -2.75562 0
M  V30 10342 H 937.598 2.56362 -3.14695 0
M  V30 10343 H 938.364 0.708477 -4.79797 0
M  V30 10344 H 934.243 1.80202 -4.24321 0
M  V30 10345 H 937.787 -0.316586 -6.96881 0
M  V30 10346 H 933.684 0.78301 -6.40733 0
M  V30 10347 H 934.452 -0.29785 -8.17958 0
M  V30 10348 N 937.115 1.49373 0.502552 0
M  V30 10349 C 938.065 1.62321 1.60112 0
M  V30 10350 C 939.049 0.47895 1.53606 0
M  V30 10351 O 940.241 0.731824 1.61162 0
M  V30 10352 C 937.37 1.69162 2.98729 0
M  V30 10353 C 936.456 2.89161 3.10237 0
M  V30 10354 N 936.847 4.13256 2.91638 0
M  V30 10355 C 935.145 2.87065 3.41335 0
M  V30 10356 C 935.846 4.93913 3.07287 0
M  V30 10357 N 934.822 4.27249 3.36094 0
M  V30 10358 H 938.624 2.55989 1.44384 0
M  V30 10359 H 936.138 1.46123 0.708644 0
M  V30 10360 H 938.135 1.76536 3.77678 0
M  V30 10361 H 936.795 0.766301 3.15528 0
M  V30 10362 H 937.806 4.4326 2.67844 0
M  V30 10363 H 934.483 2.03905 3.6432 0
M  V30 10364 H 935.873 6.02491 2.97413 0
M  V30 10365 N 938.594 -0.753485 1.38421 0
M  V30 10366 C 939.824 -1.54049 1.37669 0
M  V30 10367 C 940.232 -1.89167 -0.0353656 0
M  V30 10368 O 939.575 -1.53285 -1.01239 0
M  V30 10369 C 939.637 -2.86777 2.16793 0
M  V30 10370 C 939.301 -2.74196 3.65603 0
M  V30 10371 C 940.298 -2.43985 4.59094 0
M  V30 10372 C 937.983 -2.91645 4.0896 0
M  V30 10373 C 939.977 -2.31379 5.93921 0
M  V30 10374 C 937.664 -2.78658 5.43868 0
M  V30 10375 C 938.662 -2.48568 6.36163 0
M  V30 10376 O 938.35 -2.3564 7.68589 0
M  V30 10377 H 938.082 -0.483276 0.472673 0
M  V30 10378 H 940.636 -0.940267 1.82615 0
M  V30 10379 H 938.866 -3.48988 1.66565 0
M  V30 10380 H 940.555 -3.48289 2.08446 0
M  V30 10381 H 941.321 -2.30172 4.26902 0
M  V30 10382 H 937.2 -3.14063 3.37469 0
M  V30 10383 H 940.744 -2.07813 6.65927 0
M  V30 10384 H 936.641 -2.92044 5.75656 0
M  V30 10385 H 937.409 -2.50851 7.79112 0
M  V30 10386 N 940.072 -1.23292 -0.981677 0
M  V30 10387 C 941.319 -1.06424 -1.72279 0
M  V30 10388 C 941.647 0.399055 -1.90362 0
M  V30 10389 O 940.902 1.31181 -1.45224 0
M  V30 10390 C 941.201 -1.73339 -3.12551 0
M  V30 10391 C 940.867 -3.23256 -3.14351 0
M  V30 10392 C 939.529 -3.64159 -3.14549 0
M  V30 10393 C 941.881 -4.1916 -3.09765 0
M  V30 10394 C 939.209 -4.99428 -3.07877 0
M  V30 10395 C 941.561 -5.54419 -3.04635 0
M  V30 10396 C 940.225 -5.94688 -3.03154 0
M  V30 10397 H 939.495 -0.389434 -0.630415 0
M  V30 10398 H 942.142 -1.53208 -1.1489 0
M  V30 10399 H 940.447 -1.18911 -3.73319 0
M  V30 10400 H 942.144 -1.57767 -3.68661 0
M  V30 10401 H 938.734 -2.90693 -3.14953 0
M  V30 10402 H 942.918 -3.88569 -3.08753 0
M  V30 10403 H 938.174 -5.29844 -3.05083 0
M  V30 10404 H 942.348 -6.28448 -3.00043 0
M  V30 10405 H 939.975 -6.99468 -2.97739 0
M  V30 10406 N 941.55 1.18024 -1.04442 0
M  V30 10407 C 942.966 1.40107 -0.76435 0
M  V30 10408 C 943.166 1.90914 0.644516 0
M  V30 10409 O 942.222 2.0959 1.40813 0
M  V30 10410 C 943.535 2.39851 -1.81361 0
M  V30 10411 C 945.083 2.53571 -1.83496 0
M  V30 10412 C 945.558 3.56583 -2.87424 0
M  V30 10413 N 947.049 3.64094 -2.86339 0
M  V30 10414 C 947.784 4.43537 -3.63405 0
M  V30 10415 N 947.28 5.26557 -4.50233 0
M  V30 10416 N 949.073 4.38336 -3.51877 0
M  V30 10417 H 941.224 0.833726 -1.95353 0
M  V30 10418 H 943.487 0.42881 -0.845474 0
M  V30 10419 H 943.193 2.09576 -2.82438 0
M  V30 10420 H 943.067 3.39251 -1.6489 0
M  V30 10421 H 945.454 2.83161 -0.830883 0
M  V30 10422 H 945.535 1.54272 -2.04044 0
M  V30 10423 H 945.179 3.27733 -3.88012 0
M  V30 10424 H 945.109 4.55569 -2.6413 0
M  V30 10425 H 947.6 3.04814 -2.23376 0
M  V30 10426 H 947.913 5.84336 -5.05738 0
M  V30 10427 H 946.258 5.25964 -4.54298 0
M  V30 10428 H 949.449 3.72528 -2.83444 0
M  V30 10429 H 949.622 5.00007 -4.12186 0
M  V30 10430 N 943.028 0.824394 1.34319 0
M  V30 10431 C 944.444 0.510336 1.51221 0
M  V30 10432 C 944.644 -0.965201 1.76879 0
M  V30 10433 O 943.7 -1.74961 1.82057 0
M  V30 10434 C 945.013 1.37114 2.6762 0
M  V30 10435 C 946.561 1.36842 2.81502 0
M  V30 10436 C 947.036 2.21374 4.00946 0
M  V30 10437 N 948.527 2.19005 4.08156 0
M  V30 10438 C 949.262 2.81159 4.99737 0
M  V30 10439 N 948.758 3.52309 5.96532 0
M  V30 10440 N 950.551 2.70706 4.9262 0
M  V30 10441 H 942.702 1.77976 1.15924 0
M  V30 10442 H 944.965 0.758503 0.568663 0
M  V30 10443 H 944.671 2.41905 2.55294 0
M  V30 10444 H 944.545 1.03689 3.62669 0
M  V30 10445 H 946.932 0.328284 2.93268 0
M  V30 10446 H 947.013 1.74265 1.87257 0
M  V30 10447 H 946.657 3.25437 3.8994 0
M  V30 10448 H 946.587 1.813 4.94407 0
M  V30 10449 H 949.078 1.67252 3.38874 0
M  V30 10450 H 949.391 3.96977 6.63045 0
M  V30 10451 H 947.736 3.56415 5.96652 0
M  V30 10452 H 950.927 2.14694 4.15962 0
M  V30 10453 H 951.1 3.19431 5.63798 0
M  V30 10454 N 944.506 -1.46559 0.579492 0
M  V30 10455 C 945.754 -2.02 0.0637157 0
M  V30 10456 C 946.075 -1.45378 -1.29962 0
M  V30 10457 O 945.345 -0.637262 -1.85245 0
M  V30 10458 H 943.925 -0.746717 0.0205638 0
M  V30 10459 H 946.587 -1.79702 0.754544 0
M  V30 10460 H 945.683 -3.12099 -0.00770254 0
M  V30 10461 N 945.984 -0.3171 -1.54377 0
M  V30 10462 C 947.23 0.280631 -2.01455 0
M  V30 10463 C 947.585 1.50282 -1.20138 0
M  V30 10464 O 946.878 1.89634 -0.273785 0
M  V30 10465 C 947.072 0.672917 -3.51008 0
M  V30 10466 C 946.901 -0.509709 -4.46802 0
M  V30 10467 C 945.671 -1.00679 -4.95168 0
M  V30 10468 C 947.869 -1.35984 -4.95997 0
M  V30 10469 N 945.851 -2.1545 -5.74852 0
M  V30 10470 C 947.222 -2.35481 -5.73541 0
M  V30 10471 C 949.277 -1.38836 -4.78152 0
M  V30 10472 C 947.98 -3.37625 -6.35139 0
M  V30 10473 C 950.006 -2.39847 -5.40581 0
M  V30 10474 C 949.368 -3.38071 -6.1797 0
M  V30 10475 H 945.467 0.0667107 -0.779149 0
M  V30 10476 H 948.051 -0.450672 -1.89412 0
M  V30 10477 H 946.222 1.37336 -3.63309 0
M  V30 10478 H 947.954 1.25156 -3.84861 0
M  V30 10479 H 944.709 -0.579125 -4.70046 0
M  V30 10480 H 945.133 -2.73324 -6.19373 0
M  V30 10481 H 949.775 -0.642643 -4.17887 0
M  V30 10482 H 947.493 -4.13106 -6.94528 0
M  V30 10483 H 951.079 -2.42847 -5.28693 0
M  V30 10484 H 949.959 -4.14953 -6.6542 0
M  V30 10485 N 947.462 1.57535 -0.0451378 0
M  V30 10486 C 948.41 2.12351 0.949205 0
M  V30 10487 C 949.404 1.05386 1.32628 0
M  V30 10488 O 950.61 1.23802 1.30664 0
M  V30 10489 H 946.985 0.678648 0.323945 0
M  V30 10490 H 948.956 2.94806 0.461718 0
M  V30 10491 C 947.705 2.67862 2.21687 0
M  V30 10492 H 947.028 3.49826 1.93551 0
M  V30 10493 H 948.468 3.09844 2.89435 0
M  V30 10494 C 946.927 1.61353 2.95748 0
M  V30 10495 O 947.457 1.02276 3.88462 0
M  V30 10496 N 945.663 1.33017 2.5837 0
M  V30 10497 H 945.21 1.81246 1.83051 0
M  V30 10498 H 945.168 0.619812 3.0823 0
M  V30 10499 N 948.94 -0.228186 1.55939 0
M  V30 10500 C 950.189 -0.951563 1.77843 0
M  V30 10501 C 950.502 -1.85763 0.612501 0
M  V30 10502 O 951.708 -2.61916 0.715006 0
M  V30 10503 C 950.164 -1.74216 3.14923 0
M  V30 10504 C 949.772 -0.882569 4.39221 0
M  V30 10505 C 951.516 -2.45715 3.46156 0
M  V30 10506 C 949.423 -1.67014 5.67327 0
M  V30 10507 H 948.353 -0.359035 0.663031 0
M  V30 10508 H 951.004 -0.205636 1.82344 0
M  V30 10509 H 949.386 -2.53075 3.0458 0
M  V30 10510 H 950.56 -0.13499 4.60602 0
M  V30 10511 H 948.875 -0.280022 4.15457 0
M  V30 10512 H 951.472 -3.05127 4.39092 0
M  V30 10513 H 951.815 -3.1827 2.68346 0
M  V30 10514 H 952.348 -1.73852 3.57799 0
M  V30 10515 H 949.087 -0.987985 6.48012 0
M  V30 10516 H 948.607 -2.3925 5.50018 0
M  V30 10517 H 950.286 -2.23252 6.07262 0
M  V30 10518 N 950.418 -1.49637 -0.494624 0
M  V30 10519 C 951.665 -1.59445 -1.24834 0
M  V30 10520 C 951.993 -0.284028 -1.92415 0
M  V30 10521 O 951.248 0.728519 -1.81634 0
M  V30 10522 C 951.547 -2.70749 -2.33302 0
M  V30 10523 C 951.213 -4.12034 -1.83135 0
M  V30 10524 C 949.875 -4.50482 -1.69173 0
M  V30 10525 C 952.227 -5.00432 -1.4566 0
M  V30 10526 C 949.555 -5.75093 -1.16124 0
M  V30 10527 C 951.907 -6.25568 -0.940608 0
M  V30 10528 C 950.571 -6.62839 -0.787432 0
M  V30 10529 H 949.841 -0.583451 -0.456799 0
M  V30 10530 H 952.488 -1.8349 -0.548044 0
M  V30 10531 H 950.793 -2.407 -3.09145 0
M  V30 10532 H 952.49 -2.75546 -2.91334 0
M  V30 10533 H 949.08 -3.8169 -1.94964 0
M  V30 10534 H 953.264 -4.71379 -1.55291 0
M  V30 10535 H 948.52 -6.02665 -1.02982 0
M  V30 10536 H 952.694 -6.93439 -0.641467 0
M  V30 10537 H 950.321 -7.59279 -0.374191 0
M  V30 10538 N 951.896 0.746133 -1.38819 0
M  V30 10539 C 953.173 1.49652 -1.25951 0
M  V30 10540 C 953.553 2.10663 0.135833 0
M  V30 10541 O 952.901 1.97682 1.14604 0
M  V30 10542 C 953.111 2.5569 -2.37537 0
M  V30 10543 C 954.459 3.22385 -2.76321 0
M  V30 10544 O 955.483 2.65998 -2.36904 0
M  V30 10545 O 954.342 4.2439 -3.44319 0
M  V30 10546 H 951.436 0.664019 -0.492958 0
M  V30 10547 H 953.982 0.780908 -1.50665 0
M  V30 10548 H 952.754 2.08908 -3.30867 0
M  V30 10549 H 952.377 3.34823 -2.14427 0
M  V30 10550 N 953.375 1.23811 0.975125 0
M  V30 10551 C 954.6 1.10109 1.75757 0
M  V30 10552 C 955.025 -0.342922 1.84948 0
M  V30 10553 O 954.383 -1.24814 1.31496 0
M  V30 10554 C 954.431 1.73724 3.15994 0
M  V30 10555 O 953.535 1.00297 4.00018 0
M  V30 10556 H 952.876 0.385627 0.540544 0
M  V30 10557 H 955.406 1.63971 1.22372 0
M  V30 10558 H 955.416 1.79178 3.6655 0
M  V30 10559 H 954.091 2.78794 3.0862 0
M  V30 10560 H 952.668 1.02575 3.58515 0
M  V30 10561 N 954.853 -1.17469 1.05066 0
M  V30 10562 C 956.102 -1.87032 0.755114 0
M  V30 10563 C 956.415 -1.81844 -0.720572 0
M  V30 10564 O 957.621 -2.46866 -1.13002 0
M  V30 10565 C 956.077 -3.35581 1.30052 0
M  V30 10566 C 955.685 -3.49274 2.80556 0
M  V30 10567 C 957.429 -4.1048 1.08196 0
M  V30 10568 C 955.336 -4.91838 3.28404 0
M  V30 10569 H 954.266 -0.70057 0.278779 0
M  V30 10570 H 956.917 -1.32663 1.26779 0
M  V30 10571 H 955.299 -3.89479 0.715667 0
M  V30 10572 H 956.473 -3.05598 3.44886 0
M  V30 10573 H 954.788 -2.87793 3.00939 0
M  V30 10574 H 957.385 -5.15652 1.41447 0
M  V30 10575 H 957.728 -4.16295 0.0196603 0
M  V30 10576 H 958.261 -3.62784 1.63195 0
M  V30 10577 H 955 -4.91196 4.34058 0
M  V30 10578 H 954.52 -5.36189 2.68815 0
M  V30 10579 H 956.199 -5.60602 3.23009 0
M  V30 10580 N 956.331 -0.831506 -1.3388 0
M  V30 10581 C 957.577 -0.424302 -1.98312 0
M  V30 10582 C 957.91 1.01211 -1.65741 0
M  V30 10583 O 957.185 1.70636 -0.933464 0
M  V30 10584 C 957.468 -0.636815 -3.54424 0
M  V30 10585 C 957.321 -2.11997 -3.96708 0
M  V30 10586 C 958.64 -0.0782411 -4.4003 0
M  V30 10587 H 955.759 -0.155637 -0.720379 0
M  V30 10588 H 958.401 -1.04566 -1.58638 0
M  V30 10589 H 956.551 -0.107907 -3.8835 0
M  V30 10590 H 958.223 -2.71317 -3.73075 0
M  V30 10591 H 956.466 -2.60723 -3.46707 0
M  V30 10592 H 957.137 -2.21944 -5.05416 0
M  V30 10593 H 959.613 -0.530243 -4.12708 0
M  V30 10594 H 958.489 -0.256676 -5.483 0
M  V30 10595 H 958.75 1.01745 -4.30233 0
M  V30 10596 N 957.809 1.4625 -0.587256 0
M  V30 10597 C 958.772 2.28812 0.133238 0
M  V30 10598 C 959.772 1.38645 0.814513 0
M  V30 10599 O 960.962 1.60975 0.665774 0
M  V30 10600 C 958.094 3.19147 1.19824 0
M  V30 10601 H 959.287 2.93991 -0.592386 0
M  V30 10602 H 956.84 1.52435 -0.345416 0
M  V30 10603 H 957.575 2.58725 1.95529 0
M  V30 10604 H 957.36 3.85541 0.71418 0
M  V30 10605 H 958.85 3.81278 1.70344 0
M  V30 10606 N 959.287 0.325282 1.54207 0
M  V30 10607 C 960.217 -0.532574 2.27345 0
M  V30 10608 C 961.198 -1.11791 1.28206 0
M  V30 10609 O 962.383 -1.14272 1.57021 0
M  V30 10610 C 959.513 -1.69274 3.03255 0
M  V30 10611 C 958.467 -1.23662 4.09746 0
M  V30 10612 C 957.793 -2.48386 4.73506 0
M  V30 10613 C 959.093 -0.350244 5.21124 0
M  V30 10614 H 960.787 0.0775108 2.993 0
M  V30 10615 H 958.333 0.0387193 1.43948 0
M  V30 10616 H 960.286 -2.29917 3.53152 0
M  V30 10617 H 959.01 -2.32944 2.28921 0
M  V30 10618 H 957.669 -0.653106 3.60735 0
M  V30 10619 H 957.317 -3.10424 3.95786 0
M  V30 10620 H 957.017 -2.18558 5.45441 0
M  V30 10621 H 958.541 -3.09789 5.26178 0
M  V30 10622 H 959.955 -0.863011 5.66767 0
M  V30 10623 H 958.352 -0.14466 5.99926 0
M  V30 10624 H 959.422 0.618457 4.8094 0
M  V30 10625 N 960.765 -1.57509 0.0534917 0
M  V30 10626 C 961.695 -2.14698 -0.917999 0
M  V30 10627 C 962.676 -1.06924 -1.32292 0
M  V30 10628 O 963.861 -1.34875 -1.39723 0
M  V30 10629 C 960.991 -2.69383 -2.19203 0
M  V30 10630 C 959.945 -3.82161 -1.9271 0
M  V30 10631 C 959.271 -4.23373 -3.26587 0
M  V30 10632 C 960.571 -5.07199 -1.24686 0
M  V30 10633 H 962.265 -2.96125 -0.44165 0
M  V30 10634 H 959.811 -1.42446 -0.210993 0
M  V30 10635 H 961.764 -3.08031 -2.87567 0
M  V30 10636 H 960.488 -1.85151 -2.69048 0
M  V30 10637 H 959.147 -3.43989 -1.26757 0
M  V30 10638 H 958.795 -3.36089 -3.74237 0
M  V30 10639 H 958.495 -4.99385 -3.09658 0
M  V30 10640 H 960.019 -4.64623 -3.96178 0
M  V30 10641 H 961.433 -5.43279 -1.83088 0
M  V30 10642 H 959.83 -5.88369 -1.18076 0
M  V30 10643 H 960.9 -4.84386 -0.223227 0
M  V30 10644 N 962.243 0.219913 -1.56058 0
M  V30 10645 C 963.468 0.965073 -1.83579 0
M  V30 10646 C 963.893 1.77092 -0.634024 0
M  V30 10647 O 963.251 1.76434 0.417205 0
M  V30 10648 C 963.299 1.85705 -3.09105 0
M  V30 10649 O 962.403 2.95261 -2.87914 0
M  V30 10650 H 961.744 0.273173 -0.605204 0
M  V30 10651 H 964.274 0.23273 -2.03272 0
M  V30 10652 H 964.284 2.26655 -3.39252 0
M  V30 10653 H 962.959 1.26476 -3.96203 0
M  V30 10654 H 961.536 2.58246 -2.69005 0
M  V30 10655 N 963.721 1.49897 0.486681 0
M  V30 10656 C 964.968 1.60105 1.23986 0
M  V30 10657 C 965.296 0.294228 1.92262 0
M  V30 10658 O 964.551 -0.718876 1.82018 0
M  V30 10659 C 964.85 2.71982 2.31863 0
M  V30 10660 C 964.516 4.13 1.80948 0
M  V30 10661 C 963.178 4.51373 1.66782 0
M  V30 10662 C 965.53 5.01198 1.43004 0
M  V30 10663 C 962.858 5.75701 1.13072 0
M  V30 10664 C 965.21 6.26058 0.90742 0
M  V30 10665 C 963.874 6.63247 0.752269 0
M  V30 10666 H 963.144 0.585866 0.453698 0
M  V30 10667 H 965.791 1.83778 0.538305 0
M  V30 10668 H 964.096 2.42336 3.07865 0
M  V30 10669 H 965.793 2.77087 2.89869 0
M  V30 10670 H 962.383 3.82718 1.92937 0
M  V30 10671 H 966.567 4.72196 1.52789 0
M  V30 10672 H 961.823 6.03202 0.997842 0
M  V30 10673 H 965.997 6.9377 0.604684 0
M  V30 10674 H 963.624 7.59466 0.33392 0
M  V30 10675 N 965.199 -0.738761 1.39212 0
M  V30 10676 C 966.162 -1.83441 1.37412 0
M  V30 10677 C 967.162 -1.58484 0.271908 0
M  V30 10678 O 968.352 -1.65954 0.529609 0
M  V30 10679 C 965.484 -3.21167 1.143 0
M  V30 10680 H 966.677 -1.86441 2.34904 0
M  V30 10681 H 964.23 -0.942023 1.24722 0
M  V30 10682 H 964.965 -3.23829 0.174756 0
M  V30 10683 H 964.75 -3.40678 1.94116 0
M  V30 10684 H 966.24 -4.01231 1.15773 0
M  V30 10685 N 966.677 -1.24326 -0.968545 0
M  V30 10686 C 967.954 -0.990459 -1.68669 0
M  V30 10687 C 968.334 0.487487 -2.05394 0
M  V30 10688 O 967.682 1.46158 -1.75642 0
M  V30 10689 C 967.892 -1.91251 -2.91931 0
M  V30 10690 C 969.24 -2.18291 -3.6419 0
M  V30 10691 O 970.264 -1.88897 -3.01987 0
M  V30 10692 O 969.123 -2.68204 -4.76161 0
M  V30 10693 H 966.217 -0.374515 -0.737338 0
M  V30 10694 H 968.763 -1.35421 -1.02271 0
M  V30 10695 H 967.535 -2.9111 -2.61478 0
M  V30 10696 H 967.158 -1.55188 -3.66064 0
M  V30 10697 N 968.156 1.1691 -1.05688 0
M  V30 10698 C 969.402 1.8757 -0.771071 0
M  V30 10699 C 969.735 1.8113 0.700399 0
M  V30 10700 O 969.01 1.22273 1.5126 0
M  V30 10701 C 969.293 3.37392 -1.25851 0
M  V30 10702 C 969.146 3.52556 -2.79329 0
M  V30 10703 C 970.465 4.31585 -0.861512 0
M  V30 10704 H 967.584 0.681089 -0.281579 0
M  V30 10705 H 970.226 1.37453 -1.31174 0
M  V30 10706 H 968.376 3.80204 -0.798563 0
M  V30 10707 H 970.048 3.18725 -3.33485 0
M  V30 10708 H 968.291 2.94668 -3.1836 0
M  V30 10709 H 968.962 4.57748 -3.08498 0
M  V30 10710 H 971.438 3.96642 -1.25756 0
M  V30 10711 H 970.314 5.34939 -1.23012 0
M  V30 10712 H 970.575 4.4148 0.234089 0
M  V30 10713 N 969.634 0.838594 1.33437 0
M  V30 10714 C 970.567 0.216651 2.27169 0
M  V30 10715 C 971.545 -0.636065 1.49643 0
M  V30 10716 O 972.729 -0.596388 1.78817 0
M  V30 10717 C 969.856 -0.69584 3.31475 0
M  V30 10718 C 968.902 0.0813808 4.26422 0
M  V30 10719 S 969.735 1.43909 5.15801 0
M  V30 10720 C 970.891 0.531887 6.23636 0
M  V30 10721 H 971.124 1.01128 2.79572 0
M  V30 10722 H 968.657 0.635332 1.40723 0
M  V30 10723 H 970.615 -1.21671 3.92054 0
M  V30 10724 H 969.276 -1.46413 2.77888 0
M  V30 10725 H 968.469 -0.612944 5.00259 0
M  V30 10726 H 968.071 0.533304 3.70178 0
M  V30 10727 H 970.363 -0.270371 6.7696 0
M  V30 10728 H 971.306 1.24041 6.97151 0
M  V30 10729 H 971.714 0.113357 5.64386 0
M  V30 10730 N 971.112 -1.45937 0.595003 0
M  V30 10731 C 972.06 -2.32155 -0.143798 0
M  V30 10732 C 973.054 -1.45221 -0.872198 0
M  V30 10733 O 974.26 -1.61777 -0.789191 0
M  V30 10734 H 970.635 -0.749165 -0.0652377 0
M  V30 10735 H 972.606 -2.92264 0.602005 0
M  V30 10736 C 971.355 -3.28615 -1.13611 0
M  V30 10737 H 970.678 -3.95496 -0.585044 0
M  V30 10738 H 972.118 -3.91699 -1.62321 0
M  V30 10739 C 970.577 -2.54863 -2.20333 0
M  V30 10740 O 971.107 -2.32071 -3.27881 0
M  V30 10741 N 969.313 -2.15213 -1.95274 0
M  V30 10742 H 968.86 -2.33949 -1.07822 0
M  V30 10743 H 968.818 -1.66188 -2.66888 0
M  V30 10744 N 972.59 -0.333456 -1.54032 0
M  V30 10745 C 973.83 0.266604 -2.02654 0
M  V30 10746 C 974.194 1.48568 -1.21621 0
M  V30 10747 O 975.395 2.15925 -1.60093 0
M  V30 10748 C 973.666 0.582825 -3.52616 0
M  V30 10749 S 975.225 1.16113 -4.23159 0
M  V30 10750 H 972.043 0.0800344 -0.706481 0
M  V30 10751 H 974.645 -0.468876 -1.89794 0
M  V30 10752 H 973.349 -0.312401 -4.09209 0
M  V30 10753 H 972.88 1.34824 -3.69576 0
M  V30 10754 H 974.895 2.44743 -4.31642 0
M  V30 10755 N 974.068 1.57479 -0.061844 0
M  V30 10756 C 975.314 1.93395 0.610443 0
M  V30 10757 C 975.647 0.941334 1.6986 0
M  V30 10758 O 974.922 -0.0310262 1.94475 0
M  V30 10759 C 975.205 3.39636 1.19664 0
M  V30 10760 C 975.058 4.49651 0.115805 0
M  V30 10761 C 976.377 3.86488 2.10512 0
M  V30 10762 H 973.496 0.703262 0.220436 0
M  V30 10763 H 976.138 1.89583 -0.125785 0
M  V30 10764 H 974.288 3.43015 1.82409 0
M  V30 10765 H 975.96 4.58397 -0.516728 0
M  V30 10766 H 974.203 4.30237 -0.55483 0
M  V30 10767 H 974.874 5.49089 0.566176 0
M  V30 10768 H 977.35 3.85052 1.57715 0
M  V30 10769 H 976.226 4.89444 2.48466 0
M  V30 10770 H 976.487 3.23856 3.00948 0
M  V30 10771 N 975.546 -0.211634 1.56173 0
M  V30 10772 C 976.476 -1.26533 1.96244 0
M  V30 10773 C 977.457 -1.48362 0.832028 0
M  V30 10774 O 978.642 -1.60378 1.0951 0
M  V30 10775 C 975.772 -2.61307 2.2877 0
M  V30 10776 C 974.726 -2.54119 3.44395 0
M  V30 10777 C 974.052 -3.93014 3.62552 0
M  V30 10778 C 975.352 -2.08046 4.79076 0
M  V30 10779 H 977.046 -0.932407 2.84511 0
M  V30 10780 H 974.592 -0.447084 1.36884 0
M  V30 10781 H 976.545 -3.35188 2.55396 0
M  V30 10782 H 975.269 -2.96307 1.37367 0
M  V30 10783 H 973.928 -1.82694 3.17834 0
M  V30 10784 H 973.576 -4.25338 2.68508 0
M  V30 10785 H 973.276 -3.89083 4.40327 0
M  V30 10786 H 974.8 -4.68542 3.91537 0
M  V30 10787 H 976.214 -2.71676 5.04842 0
M  V30 10788 H 974.611 -2.15154 5.60204 0
M  V30 10789 H 975.681 -1.03306 4.73768 0
M  V30 10790 N 977.024 -1.50153 -0.478725 0
M  V30 10791 C 977.956 -1.64603 -1.59494 0
M  V30 10792 C 978.969 -0.527789 -1.54007 0
M  V30 10793 O 980.158 -0.80069 -1.59534 0
M  V30 10794 C 977.258 -1.60738 -2.98356 0
M  V30 10795 C 976.431 -2.88468 -3.28794 0
M  V30 10796 C 975.49 -2.77349 -4.47173 0
M  V30 10797 O 974.516 -3.51302 -4.47857 0
M  V30 10798 N 975.718 -1.9039 -5.4839 0
M  V30 10799 H 978.483 -2.6088 -1.47518 0
M  V30 10800 H 976.044 -1.47521 -0.667011 0
M  V30 10801 H 978.036 -1.50923 -3.75505 0
M  V30 10802 H 976.606 -0.722273 -3.04141 0
M  V30 10803 H 975.826 -3.12467 -2.40329 0
M  V30 10804 H 977.114 -3.73102 -3.45937 0
M  V30 10805 H 976.512 -1.29606 -5.50653 0
M  V30 10806 H 975.069 -1.86484 -6.24553 0
M  V30 10807 N 978.502 0.731368 -1.39602 0
M  V30 10808 C 979.449 1.84541 -1.38612 0
M  V30 10809 C 980.419 1.64279 -0.245287 0
M  V30 10810 O 981.604 1.85635 -0.440954 0
M  V30 10811 C 978.744 3.22092 -1.23897 0
M  V30 10812 C 977.857 3.54034 -2.47555 0
M  V30 10813 C 976.992 4.81007 -2.25402 0
M  V30 10814 C 976.031 5.05804 -3.44716 0
M  V30 10815 N 975.168 6.23981 -3.21857 0
M  V30 10816 H 980.008 1.84722 -2.33841 0
M  V30 10817 H 977.545 0.902569 -1.16156 0
M  V30 10818 H 979.503 4.01499 -1.13376 0
M  V30 10819 H 978.133 3.2118 -0.322958 0
M  V30 10820 H 977.185 2.69301 -2.68665 0
M  V30 10821 H 978.497 3.68275 -3.36415 0
M  V30 10822 H 977.651 5.68401 -2.12143 0
M  V30 10823 H 976.39 4.68946 -1.33943 0
M  V30 10824 H 975.395 4.1687 -3.58468 0
M  V30 10825 H 976.62 5.19747 -4.37081 0
M  V30 10826 H 974.566 6.13202 -2.33065 0
M  V30 10827 H 974.483 6.38826 -4.04274 0
M  V30 10828 H 975.751 7.14205 -3.123 0
M  V30 10829 N 979.98 1.24838 0.961938 0
M  V30 10830 C 981.396 1.01502 1.23165 0
M  V30 10831 C 981.596 -0.272651 1.99647 0
M  V30 10832 O 980.652 -0.987297 2.32398 0
M  V30 10833 C 981.965 2.23366 2.01316 0
M  V30 10834 C 983.513 2.28051 2.14387 0
M  V30 10835 C 983.988 3.49552 2.95935 0
M  V30 10836 N 985.479 3.49904 3.03515 0
M  V30 10837 C 986.214 4.40577 3.66987 0
M  V30 10838 N 985.71 5.41512 4.3213 0
M  V30 10839 N 987.503 4.28275 3.64056 0
M  V30 10840 H 979.654 2.07576 0.450086 0
M  V30 10841 H 981.917 0.911205 0.261551 0
M  V30 10842 H 981.623 3.16913 1.5251 0
M  V30 10843 H 981.497 2.25949 3.02038 0
M  V30 10844 H 983.884 1.35032 2.62393 0
M  V30 10845 H 983.965 2.29491 1.12994 0
M  V30 10846 H 983.609 4.42889 2.4862 0
M  V30 10847 H 983.539 3.45357 3.97538 0
M  V30 10848 H 986.03 2.76885 2.57183 0
M  V30 10849 H 986.343 6.06924 4.78396 0
M  V30 10850 H 984.688 5.45393 4.3078 0
M  V30 10851 H 987.879 3.48653 3.12344 0
M  V30 10852 H 988.052 4.99138 4.13237 0
M  V30 10853 N 981.458 -1.16348 1.06306 0
M  V30 10854 C 982.683 -1.91323 0.800636 0
M  V30 10855 C 983.108 -1.7691 -0.639105 0
M  V30 10856 O 982.466 -1.0945 -1.44535 0
M  V30 10857 C 982.514 -3.40038 1.20027 0
M  V30 10858 O 981.618 -4.11003 0.339142 0
M  V30 10859 H 980.959 -0.596057 0.292595 0
M  V30 10860 H 983.489 -1.47406 1.41889 0
M  V30 10861 H 983.499 -3.90808 1.17188 0
M  V30 10862 H 982.174 -3.49848 2.24898 0
M  V30 10863 H 980.751 -3.70423 0.42911 0
M  V30 10864 N 982.937 -0.845659 -1.3299 0
M  V30 10865 C 984.183 -0.454563 -1.98256 0
M  V30 10866 C 984.538 0.976983 -1.65749 0
M  V30 10867 O 983.831 1.67481 -0.930631 0
M  V30 10868 C 984.025 -0.6201 -3.51979 0
M  V30 10869 C 983.854 -2.06619 -3.99423 0
M  V30 10870 C 982.624 -2.70283 -4.26937 0
M  V30 10871 C 984.822 -3.03573 -4.15148 0
M  V30 10872 N 982.804 -4.05896 -4.60567 0
M  V30 10873 C 984.175 -4.24149 -4.52214 0
M  V30 10874 C 986.23 -2.99888 -3.97457 0
M  V30 10875 C 984.933 -5.41527 -4.73435 0
M  V30 10876 C 986.959 -4.16502 -4.19858 0
M  V30 10877 C 986.321 -5.35835 -4.57231 0
M  V30 10878 H 982.42 -0.214896 -0.751893 0
M  V30 10879 H 985.004 -1.09515 -1.6098 0
M  V30 10880 H 983.175 -0.00926528 -3.88399 0
M  V30 10881 H 984.907 -0.199782 -4.04207 0
M  V30 10882 H 981.662 -2.21377 -4.18676 0
M  V30 10883 H 982.086 -4.75824 -4.81581 0
M  V30 10884 H 986.728 -2.08753 -3.67671 0
M  V30 10885 H 984.446 -6.332 -5.02079 0
M  V30 10886 H 988.032 -4.15075 -4.07681 0
M  V30 10887 H 986.912 -6.24568 -4.74219 0
M  V30 10888 N 984.415 1.45619 -0.602734 0
M  V30 10889 C 985.826 1.85814 -0.181636 0
M  V30 10890 C 986.177 1.5037 1.26029 0
M  V30 10891 O 985.302 0.928068 1.95489 0
M  V30 10892 C 985.897 3.37258 -0.322866 0
M  V30 10893 C 984.456 3.76375 0.043504 0
M  V30 10894 C 983.603 2.69585 -0.649561 0
M  V30 10895 H 986.554 1.36489 -0.809721 0
M  V30 10896 H 986.575 3.77874 0.446279 0
M  V30 10897 H 986.087 3.63024 -1.37241 0
M  V30 10898 H 984.188 3.56226 1.09241 0
M  V30 10899 H 984.301 4.77843 -0.346765 0
M  V30 10900 H 982.665 2.54549 -0.087706 0
M  V30 10901 H 983.448 2.98188 -1.70115 0
M  V30 10902 N 985.893 0.34162 1.53853 0
M  V30 10903 C 987.14 -0.255484 2.00882 0
M  V30 10904 C 987.468 -1.50711 1.22949 0
M  V30 10905 O 986.723 -1.93315 0.304625 0
M  V30 10906 C 987.022 -0.616989 3.52034 0
M  V30 10907 C 986.688 0.537536 4.47684 0
M  V30 10908 C 985.35 0.854379 4.73554 0
M  V30 10909 C 987.702 1.31217 5.04412 0
M  V30 10910 C 985.03 1.94826 5.53407 0
M  V30 10911 C 987.382 2.39628 5.85458 0
M  V30 10912 C 986.046 2.71874 6.09623 0
M  V30 10913 H 985.316 -0.0934881 0.735079 0
M  V30 10914 H 987.963 0.469135 1.85665 0
M  V30 10915 H 986.268 -1.42229 3.65073 0
M  V30 10916 H 987.965 -1.09084 3.85878 0
M  V30 10917 H 984.555 0.280524 4.27681 0
M  V30 10918 H 988.739 1.08064 4.84392 0
M  V30 10919 H 983.995 2.20235 5.70356 0
M  V30 10920 H 988.169 3.00084 6.28429 0
M  V30 10921 H 985.796 3.56762 6.71286 0
M  V30 10922 N 987.371 -1.57444 0.0701946 0
M  V30 10923 C 988.301 -2.15659 -0.895176 0
M  V30 10924 C 989.282 -1.08321 -1.31151 0
M  V30 10925 O 990.467 -1.36349 -1.38284 0
M  V30 10926 C 987.597 -2.71693 -2.16334 0
M  V30 10927 C 986.551 -3.84183 -1.88645 0
M  V30 10928 C 985.877 -4.26814 -3.22078 0
M  V30 10929 C 987.177 -5.08493 -1.19299 0
M  V30 10930 H 988.871 -2.96576 -0.410217 0
M  V30 10931 H 986.417 -1.42662 -0.195872 0
M  V30 10932 H 988.37 -3.11064 -2.84284 0
M  V30 10933 H 987.094 -1.87994 -2.67069 0
M  V30 10934 H 985.753 -3.45314 -1.23101 0
M  V30 10935 H 985.401 -3.40039 -3.70651 0
M  V30 10936 H 985.101 -5.02642 -3.04344 0
M  V30 10937 H 986.625 -4.68799 -3.91228 0
M  V30 10938 H 988.039 -5.4519 -1.77316 0
M  V30 10939 H 986.436 -5.89588 -1.11828 0
M  V30 10940 H 987.506 -4.84595 -0.171839 0
M  V30 10941 N 988.849 0.203349 -1.56283 0
M  V30 10942 C 990.265 0.55384 -1.49682 0
M  V30 10943 C 990.465 1.86261 -0.768701 0
M  V30 10944 O 989.521 2.50517 -0.315824 0
M  V30 10945 C 990.834 0.616216 -2.94318 0
M  V30 10946 C 992.382 0.705611 -3.04943 0
M  V30 10947 C 992.857 0.79917 -4.50974 0
M  V30 10948 N 994.348 0.862916 -4.55091 0
M  V30 10949 C 995.083 0.955334 -5.65386 0
M  V30 10950 N 994.579 1.01057 -6.8539 0
M  V30 10951 N 996.372 0.991884 -5.53279 0
M  V30 10952 H 988.523 -0.655244 -2.0204 0
M  V30 10953 H 990.786 -0.232344 -0.919087 0
M  V30 10954 H 990.492 -0.27619 -3.50614 0
M  V30 10955 H 990.366 1.47371 -3.4722 0
M  V30 10956 H 992.753 1.58845 -2.48701 0
M  V30 10957 H 992.834 -0.177921 -2.5518 0
M  V30 10958 H 992.478 -0.0792841 -5.07838 0
M  V30 10959 H 992.408 1.69838 -4.9846 0
M  V30 10960 H 994.899 0.829812 -3.68677 0
M  V30 10961 H 995.212 1.08137 -7.65197 0
M  V30 10962 H 993.557 0.979384 -6.88065 0
M  V30 10963 H 996.748 0.945514 -4.58451 0
M  V30 10964 H 996.921 1.06045 -6.39264 0
M  V30 10965 N 990.327 1.50405 0.470755 0
M  V30 10966 C 991.552 1.65442 1.25075 0
M  V30 10967 C 991.977 0.337612 1.85045 0
M  V30 10968 O 991.335 -0.698555 1.67302 0
M  V30 10969 C 991.383 2.74793 2.33498 0
M  V30 10970 O 990.487 2.36069 3.3815 0
M  V30 10971 H 989.828 0.552728 0.367951 0
M  V30 10972 H 992.358 1.96782 0.560177 0
M  V30 10973 H 992.368 2.97879 2.78804 0
M  V30 10974 H 991.043 3.70363 1.8922 0
M  V30 10975 H 989.62 2.2343 2.98552 0
M  V30 10976 N 991.805 -0.723954 1.39988 0
M  V30 10977 C 993.052 -1.48371 1.37812 0
M  V30 10978 C 993.38 -1.94487 -0.0223285 0
M  V30 10979 O 992.635 -1.67906 -1.00529 0
M  V30 10980 C 992.934 -2.73004 2.30659 0
M  V30 10981 C 992.6 -2.45698 3.78078 0
M  V30 10982 C 991.262 -2.37961 4.18244 0
M  V30 10983 C 993.614 -2.22601 4.71273 0
M  V30 10984 C 990.942 -2.05183 5.49652 0
M  V30 10985 C 993.294 -1.91339 6.0297 0
M  V30 10986 C 991.958 -1.82078 6.42187 0
M  V30 10987 H 991.228 -0.542929 0.504291 0
M  V30 10988 H 993.875 -0.829986 1.72579 0
M  V30 10989 H 992.18 -3.43174 1.89048 0
M  V30 10990 H 993.877 -3.31068 2.26263 0
M  V30 10991 H 990.467 -2.52603 3.46251 0
M  V30 10992 H 994.651 -2.2754 4.41066 0
M  V30 10993 H 989.907 -1.96544 5.78948 0
M  V30 10994 H 994.081 -1.72479 6.74703 0
M  V30 10995 H 991.708 -1.56446 7.43928 0
M  V30 10996 N 993.283 -1.25346 -0.955304 0
M  V30 10997 C 994.699 -1.02154 -1.22625 0
M  V30 10998 C 994.899 0.26206 -1.99789 0
M  V30 10999 O 993.955 0.974958 -2.32918 0
M  V30 11000 C 995.268 -2.2443 -2.00129 0
M  V30 11001 C 996.816 -2.29185 -2.13174 0
M  V30 11002 C 997.291 -3.51117 -2.94077 0
M  V30 11003 N 998.782 -3.51509 -3.01655 0
M  V30 11004 C 999.517 -4.42517 -3.64645 0
M  V30 11005 N 999.013 -5.43796 -4.29252 0
M  V30 11006 N 1000.81 -4.302 -3.61779 0
M  V30 11007 H 992.957 -2.07812 -0.439071 0
M  V30 11008 H 995.22 -0.91258 -0.256715 0
M  V30 11009 H 994.926 -3.17717 -1.50827 0
M  V30 11010 H 994.8 -2.27548 -3.00835 0
M  V30 11011 H 997.187 -1.36422 -2.61674 0
M  V30 11012 H 997.268 -2.30087 -1.11775 0
M  V30 11013 H 996.912 -4.44201 -2.46268 0
M  V30 11014 H 996.842 -3.4746 -3.95701 0
M  V30 11015 H 999.333 -2.78245 -2.55711 0
M  V30 11016 H 999.646 -6.09453 -4.75171 0
M  V30 11017 H 997.991 -5.4767 -4.27882 0
M  V30 11018 H 1001.18 -3.50304 -3.10491 0
M  V30 11019 H 1001.36 -5.01323 -4.10584 0
M  V30 11020 N 994.761 1.15782 -1.06922 0
M  V30 11021 C 996.007 1.86741 -0.790922 0
M  V30 11022 C 996.34 1.81863 0.681149 0
M  V30 11023 O 995.615 1.23871 1.49954 0
M  V30 11024 C 995.898 3.36038 -1.29422 0
M  V30 11025 C 995.751 3.49573 -2.83052 0
M  V30 11026 C 997.07 4.30647 -0.907239 0
M  V30 11027 H 994.189 0.678064 -0.288787 0
M  V30 11028 H 996.831 1.36054 -1.32624 0
M  V30 11029 H 994.981 3.79336 -0.838843 0
M  V30 11030 H 996.653 3.1517 -3.36847 0
M  V30 11031 H 994.896 2.91275 -3.21467 0
M  V30 11032 H 995.567 4.5445 -3.13335 0
M  V30 11033 H 998.043 3.95286 -1.29956 0
M  V30 11034 H 996.919 5.33604 -1.28679 0
M  V30 11035 H 997.18 4.41703 0.187251 0
M  V30 11036 N 996.239 0.8527 1.3254 0
M  V30 11037 C 997.169 0.311234 2.31416 0
M  V30 11038 C 998.15 -0.588557 1.59593 0
M  V30 11039 O 999.335 -0.509211 1.87405 0
M  V30 11040 C 996.465 -0.502892 3.4364 0
M  V30 11041 C 995.419 0.302296 4.26931 0
M  V30 11042 C 994.745 -0.636445 5.30899 0
M  V30 11043 C 996.045 1.52697 4.99481 0
M  V30 11044 H 997.739 1.13742 2.76953 0
M  V30 11045 H 995.285 0.548389 1.33149 0
M  V30 11046 H 997.238 -0.892092 4.11849 0
M  V30 11047 H 995.962 -1.36242 2.96826 0
M  V30 11048 H 994.621 0.673226 3.60365 0
M  V30 11049 H 994.269 -1.49277 4.80339 0
M  V30 11050 H 993.969 -0.101716 5.87512 0
M  V30 11051 H 995.493 -1.02286 6.01972 0
M  V30 11052 H 996.907 1.21017 5.60382 0
M  V30 11053 H 995.304 1.9995 5.65809 0
M  V30 11054 H 996.374 2.28929 4.27457 0
M  V30 11055 N 997.718 -1.45297 0.610449 0
M  V30 11056 C 999.134 -1.57225 0.274332 0
M  V30 11057 C 999.334 -1.60136 -1.22306 0
M  V30 11058 O 998.39 -1.5332 -2.00622 0
M  V30 11059 C 999.703 -2.85365 0.948028 0
M  V30 11060 C 1001.25 -2.99044 0.924216 0
M  V30 11061 C 1001.73 -4.29958 1.57798 0
M  V30 11062 N 1003.22 -4.36723 1.5436 0
M  V30 11063 C 1003.95 -5.36695 2.01857 0
M  V30 11064 N 1003.45 -6.43187 2.57453 0
M  V30 11065 N 1005.24 -5.28071 1.92608 0
M  V30 11066 H 997.392 -1.41651 1.58268 0
M  V30 11067 H 999.655 -0.67744 0.663158 0
M  V30 11068 H 999.361 -2.89125 2.00249 0
M  V30 11069 H 999.235 -3.74222 0.473062 0
M  V30 11070 H 1001.62 -2.94849 -0.121709 0
M  V30 11071 H 1001.7 -2.1159 1.43748 0
M  V30 11072 H 1001.35 -4.34912 2.62325 0
M  V30 11073 H 1001.28 -5.16234 1.03972 0
M  V30 11074 H 1003.77 -3.60374 1.13749 0
M  V30 11075 H 1004.08 -7.15722 2.91482 0
M  V30 11076 H 1002.43 -6.4393 2.61493 0
M  V30 11077 H 1005.62 -4.43783 1.48912 0
M  V30 11078 H 1005.79 -6.05832 2.29938 0
M  V30 11079 N 999.196 -0.349774 -1.5367 0
M  V30 11080 C 1000.44 0.245189 -2.01312 0
M  V30 11081 C 1000.77 1.49702 -1.23705 0
M  V30 11082 O 1000.05 1.91742 -0.326371 0
M  V30 11083 C 1000.33 0.553071 -3.55827 0
M  V30 11084 C 1000.19 -0.71129 -4.4414 0
M  V30 11085 C 1001.5 1.36015 -4.18555 0
M  V30 11086 H 998.624 0.0876415 -0.73177 0
M  V30 11087 H 1001.27 -0.471543 -1.84056 0
M  V30 11088 H 999.416 1.16367 -3.70663 0
M  V30 11089 H 1001.09 -1.34913 -4.41131 0
M  V30 11090 H 999.331 -1.33491 -4.1275 0
M  V30 11091 H 1000 -0.45104 -5.50154 0
M  V30 11092 H 1002.48 0.843778 -4.07455 0
M  V30 11093 H 1001.35 1.54432 -5.26728 0
M  V30 11094 H 1001.61 2.36408 -3.73582 0
M  V30 11095 N 1000.67 1.57404 -0.0785433 0
M  V30 11096 C 1001.92 1.93744 0.589024 0
M  V30 11097 C 1002.25 0.959087 1.69209 0
M  V30 11098 O 1001.5 -0.0241604 1.95685 0
M  V30 11099 C 1001.8 3.36684 1.1991 0
M  V30 11100 C 1001.47 4.50356 0.221493 0
M  V30 11101 C 1000.13 4.81177 -0.0474347 0
M  V30 11102 C 1002.48 5.1928 -0.446941 0
M  V30 11103 C 999.811 5.78257 -0.99177 0
M  V30 11104 C 1002.16 6.17372 -1.37964 0
M  V30 11105 C 1000.83 6.46607 -1.65697 0
M  V30 11106 H 1000.1 0.70896 0.215539 0
M  V30 11107 H 1002.74 1.90905 -0.150856 0
M  V30 11108 H 1001.05 3.36022 2.01486 0
M  V30 11109 H 1002.75 3.62095 1.72303 0
M  V30 11110 H 999.336 4.26322 0.441284 0
M  V30 11111 H 1003.52 4.95658 -0.252298 0
M  V30 11112 H 998.776 5.9923 -1.21381 0
M  V30 11113 H 1002.95 6.6988 -1.9035 0
M  V30 11114 H 1000.58 7.21643 -2.39031 0
M  V30 11115 N 1002.15 -0.195058 1.56388 0
M  V30 11116 C 1003.1 -1.24175 1.94549 0
M  V30 11117 C 1004.07 -1.45229 0.806089 0
M  V30 11118 O 1005.25 -1.58362 1.06425 0
M  V30 11119 C 1002.39 -2.58145 2.29031 0
M  V30 11120 C 1001.51 -2.44669 3.56035 0
M  V30 11121 C 1000.64 -3.71342 3.7984 0
M  V30 11122 C 999.681 -3.52699 5.0027 0
M  V30 11123 N 998.818 -4.71385 5.20328 0
M  V30 11124 H 1003.66 -0.909319 2.83788 0
M  V30 11125 H 1001.19 -0.437641 1.40439 0
M  V30 11126 H 1003.15 -3.36195 2.4704 0
M  V30 11127 H 1001.78 -2.8943 1.42933 0
M  V30 11128 H 1000.83 -1.57916 3.46073 0
M  V30 11129 H 1002.15 -2.26827 4.44242 0
M  V30 11130 H 1001.3 -4.57832 3.98088 0
M  V30 11131 H 1000.04 -3.92138 2.89964 0
M  V30 11132 H 999.045 -2.64594 4.81944 0
M  V30 11133 H 1000.27 -3.33349 5.91655 0
M  V30 11134 H 998.216 -4.92444 4.33399 0
M  V30 11135 H 998.133 -4.56368 6.02714 0
M  V30 11136 H 999.401 -5.59226 5.43035 0
M  V30 11137 N 1003.63 -1.50653 -0.462772 0
M  V30 11138 C 1004.56 -1.73056 -1.5676 0
M  V30 11139 C 1005.54 -0.579699 -1.59917 0
M  V30 11140 O 1006.73 -0.819729 -1.76051 0
M  V30 11141 C 1003.86 -1.83234 -2.9503 0
M  V30 11142 C 1002.81 -2.98488 -3.06739 0
M  V30 11143 C 1002.14 -2.93818 -4.46738 0
M  V30 11144 C 1003.44 -4.38869 -2.83181 0
M  V30 11145 H 1005.13 -2.65562 -1.38265 0
M  V30 11146 H 1002.68 -1.27792 -0.663722 0
M  V30 11147 H 1004.63 -1.97491 -3.72257 0
M  V30 11148 H 1003.35 -0.873558 -3.14701 0
M  V30 11149 H 1002.01 -2.83895 -2.31946 0
M  V30 11150 H 1001.66 -1.95769 -4.63339 0
M  V30 11151 H 1001.36 -3.71197 -4.55507 0
M  V30 11152 H 1002.88 -3.10135 -5.25974 0
M  V30 11153 H 1004.3 -4.53945 -3.50153 0
M  V30 11154 H 1002.69 -5.17762 -3.03386 0
M  V30 11155 H 1003.76 -4.50663 -1.78972 0
M  V30 11156 N 1005.11 0.71652 -1.4037 0
M  V30 11157 C 1006.07 1.81231 -1.40313 0
M  V30 11158 C 1007.07 1.58032 -0.297087 0
M  V30 11159 O 1008.26 1.65091 -0.555944 0
M  V30 11160 C 1005.39 3.19308 -1.19395 0
M  V30 11161 H 1006.59 1.8268 -2.3784 0
M  V30 11162 H 1004.14 0.922062 -1.26205 0
M  V30 11163 H 1004.87 3.2351 -0.226252 0
M  V30 11164 H 1004.66 3.37546 -1.99512 0
M  V30 11165 H 1006.15 3.99339 -1.22141 0
M  V30 11166 N 1006.59 1.25851 0.948643 0
M  V30 11167 C 1007.53 1.06759 2.04625 0
M  V30 11168 C 1008.5 -0.0251144 1.66081 0
M  V30 11169 O 1009.69 0.133221 1.90334 0
M  V30 11170 C 1006.83 0.698724 3.37952 0
M  V30 11171 C 1005.94 1.8669 3.89578 0
M  V30 11172 C 1005.08 1.44184 5.11258 0
M  V30 11173 C 1004.12 2.57878 5.55126 0
M  V30 11174 N 1003.25 2.16106 6.68014 0
M  V30 11175 H 1008.09 2.00691 2.20289 0
M  V30 11176 H 1005.63 0.999327 1.07944 0
M  V30 11177 H 1007.59 0.465788 4.14592 0
M  V30 11178 H 1006.22 -0.203618 3.22157 0
M  V30 11179 H 1005.27 2.21298 3.09405 0
M  V30 11180 H 1006.58 2.72051 4.18079 0
M  V30 11181 H 1005.74 1.16891 5.95333 0
M  V30 11182 H 1004.47 0.559035 4.84485 0
M  V30 11183 H 1003.48 2.85909 4.69612 0
M  V30 11184 H 1004.7 3.46747 5.83904 0
M  V30 11185 H 1002.65 1.3025 6.42939 0
M  V30 11186 H 1002.57 2.95012 6.96063 0
M  V30 11187 H 1003.84 1.92005 7.55483 0
M  V30 11188 N 1008.06 -1.15214 1.07534 0
M  V30 11189 C 1009.29 -1.90463 0.820883 0
M  V30 11190 C 1009.71 -1.77578 -0.620305 0
M  V30 11191 O 1009.07 -1.10976 -1.43366 0
M  V30 11192 C 1009.12 -3.38746 1.23627 0
M  V30 11193 O 1008.22 -4.1062 0.382715 0
M  V30 11194 H 1007.57 -0.59292 0.298901 0
M  V30 11195 H 1010.1 -1.45893 1.43445 0
M  V30 11196 H 1010.11 -3.89543 1.21327 0
M  V30 11197 H 1008.78 -3.47443 2.28596 0
M  V30 11198 H 1007.36 -3.69947 0.468374 0
M  V30 11199 N 1009.54 -0.859717 -1.32086 0
M  V30 11200 C 1010.79 -0.475565 -1.97762 0
M  V30 11201 C 1011.14 0.959348 -1.66776 0
M  V30 11202 O 1010.44 1.66484 -0.948343 0
M  V30 11203 C 1010.63 -0.657397 -3.51302 0
M  V30 11204 C 1010.46 -2.10843 -3.97209 0
M  V30 11205 C 1009.23 -2.74796 -4.24046 0
M  V30 11206 C 1011.43 -3.07959 -4.11905 0
M  V30 11207 N 1009.41 -4.10758 -4.56236 0
M  V30 11208 C 1010.78 -4.28922 -4.4769 0
M  V30 11209 C 1012.84 -3.04086 -3.94254 0
M  V30 11210 C 1011.54 -5.46518 -4.67665 0
M  V30 11211 C 1013.56 -4.20931 -4.15416 0
M  V30 11212 C 1012.93 -5.40654 -4.51522 0
M  V30 11213 H 1009.03 -0.222859 -0.749572 0
M  V30 11214 H 1011.61 -1.11217 -1.59809 0
M  V30 11215 H 1009.78 -0.0504597 -3.88367 0
M  V30 11216 H 1011.51 -0.242642 -4.03972 0
M  V30 11217 H 1008.27 -2.25805 -4.16304 0
M  V30 11218 H 1008.69 -4.80905 -4.76507 0
M  V30 11219 H 1013.33 -2.12641 -3.65436 0
M  V30 11220 H 1011.05 -6.3849 -4.95335 0
M  V30 11221 H 1014.64 -4.19376 -4.03255 0
M  V30 11222 H 1013.52 -6.29563 -4.67568 0
M  V30 11223 N 1011.02 1.44971 -0.618145 0
M  V30 11224 C 1012.43 1.85611 -0.201334 0
M  V30 11225 C 1012.78 1.51698 1.24427 0
M  V30 11226 O 1011.91 0.94875 1.94493 0
M  V30 11227 C 1012.5 3.36897 -0.358619 0
M  V30 11228 C 1011.06 3.764 0.00358196 0
M  V30 11229 C 1010.21 2.68881 -0.678118 0
M  V30 11230 H 1013.16 1.35622 -0.824152 0
M  V30 11231 H 1013.18 3.78326 0.406176 0
M  V30 11232 H 1012.69 3.61548 -1.41084 0
M  V30 11233 H 1010.79 3.57365 1.05457 0
M  V30 11234 H 1010.91 4.77449 -0.397427 0
M  V30 11235 H 1009.27 2.54442 -0.114699 0
M  V30 11236 H 1010.05 2.96367 -1.73268 0
M  V30 11237 N 1012.5 0.357919 1.53482 0
M  V30 11238 C 1013.73 -0.23514 2.05559 0
M  V30 11239 C 1014.14 -1.43068 1.23195 0
M  V30 11240 O 1013.5 -1.80481 0.270741 0
M  V30 11241 C 1013.55 -0.636147 3.55859 0
M  V30 11242 O 1013.27 0.511864 4.35099 0
M  V30 11243 C 1014.77 -1.28841 4.24164 0
M  V30 11244 H 1011.99 -0.0428446 0.669631 0
M  V30 11245 H 1014.54 0.51407 1.97933 0
M  V30 11246 H 1012.69 -1.33528 3.63661 0
M  V30 11247 H 1013.1 0.189328 5.24158 0
M  V30 11248 H 1014.58 -1.51962 5.30671 0
M  V30 11249 H 1015.06 -2.24638 3.77405 0
M  V30 11250 H 1015.66 -0.630914 4.20594 0
M  V30 11251 N 1013.98 -1.5736 0.0868897 0
M  V30 11252 C 1014.91 -2.16596 -0.872252 0
M  V30 11253 C 1015.89 -1.09706 -1.29995 0
M  V30 11254 O 1017.07 -1.37808 -1.36831 0
M  V30 11255 C 1014.2 -2.73972 -2.1344 0
M  V30 11256 C 1013.16 -3.86163 -1.8456 0
M  V30 11257 C 1012.48 -4.30206 -3.17533 0
M  V30 11258 C 1013.78 -5.0973 -1.13899 0
M  V30 11259 H 1015.48 -2.96995 -0.378738 0
M  V30 11260 H 1013.02 -1.42861 -0.18073 0
M  V30 11261 H 1014.98 -3.14062 -2.80968 0
M  V30 11262 H 1013.7 -1.90817 -2.6506 0
M  V30 11263 H 1012.36 -3.466 -1.19432 0
M  V30 11264 H 1012.01 -3.43951 -3.67024 0
M  V30 11265 H 1011.71 -5.05841 -2.98996 0
M  V30 11266 H 1013.23 -4.72922 -3.86234 0
M  V30 11267 H 1014.64 -5.4704 -1.71523 0
M  V30 11268 H 1013.04 -5.90741 -1.05569 0
M  V30 11269 H 1014.11 -4.8475 -0.120432 0
M  V30 11270 N 1015.45 0.186762 -1.56489 0
M  V30 11271 C 1016.4 1.25084 -1.96104 0
M  V30 11272 C 1017.4 1.4667 -0.847609 0
M  V30 11273 O 1018.6 1.47432 -1.03266 0
M  V30 11274 H 1014.98 0.420121 -0.623701 0
M  V30 11275 H 1016.95 0.889761 -2.84826 0
M  V30 11276 C 1015.7 2.5863 -2.32392 0
M  V30 11277 H 1015.02 2.42838 -3.176 0
M  V30 11278 H 1016.46 3.3181 -2.63967 0
M  V30 11279 C 1014.92 3.16241 -1.16159 0
M  V30 11280 O 1015.45 3.99272 -0.441034 0
M  V30 11281 N 1013.66 2.75106 -0.936206 0
M  V30 11282 H 1013.2 2.0769 -1.5239 0
M  V30 11283 H 1013.16 3.13991 -0.160317 0
M  V30 11284 N 1016.93 1.50896 0.454776 0
M  V30 11285 C 1018.16 1.6648 1.22849 0
M  V30 11286 C 1018.58 0.354841 1.85435 0
M  V30 11287 O 1017.93 -0.664931 1.69956 0
M  V30 11288 C 1017.98 2.76787 2.32532 0
M  V30 11289 O 1017.7 4.02706 1.72509 0
M  V30 11290 C 1019.21 3.03488 3.23125 0
M  V30 11291 H 1016.43 0.559152 0.370932 0
M  V30 11292 H 1018.97 1.97215 0.540983 0
M  V30 11293 H 1017.12 2.48701 2.9703 0
M  V30 11294 H 1017.54 4.63834 2.44863 0
M  V30 11295 H 1019.01 3.84294 3.9626 0
M  V30 11296 H 1019.49 2.152 3.82865 0
M  V30 11297 H 1020.1 3.33167 2.64347 0
M  V30 11298 N 1018.41 -0.709066 1.40748 0
M  V30 11299 C 1019.34 -1.83583 1.4429 0
M  V30 11300 C 1020.32 -1.67378 0.303067 0
M  V30 11301 O 1021.51 -1.87312 0.512612 0
M  V30 11302 C 1018.64 -3.21599 1.31116 0
M  V30 11303 C 1017.59 -3.52486 2.4277 0
M  V30 11304 C 1016.92 -4.89716 2.14668 0
M  V30 11305 C 1018.22 -3.52824 3.85113 0
M  V30 11306 H 1019.91 -1.80876 2.38588 0
M  V30 11307 H 1017.46 -0.868795 1.14839 0
M  V30 11308 H 1019.41 -4.00123 1.32209 0
M  V30 11309 H 1018.13 -3.24898 0.332965 0
M  V30 11310 H 1016.79 -2.76305 2.40937 0
M  V30 11311 H 1016.44 -4.89625 1.15224 0
M  V30 11312 H 1016.14 -5.11347 2.89478 0
M  V30 11313 H 1017.66 -5.70566 2.17455 0
M  V30 11314 H 1019.08 -4.21377 3.88734 0
M  V30 11315 H 1017.48 -3.85984 4.59496 0
M  V30 11316 H 1018.55 -2.52073 4.14231 0
M  V30 11317 N 1019.89 -1.26353 -0.941956 0
M  V30 11318 C 1021.14 -1.11241 -1.68251 0
M  V30 11319 C 1021.45 0.344055 -1.9255 0
M  V30 11320 O 1022.66 0.615832 -2.64423 0
M  V30 11321 C 1021.11 -1.94269 -3.02965 0
M  V30 11322 C 1020.72 -3.44485 -2.86415 0
M  V30 11323 C 1022.47 -1.87764 -3.80716 0
M  V30 11324 C 1020.37 -4.19763 -4.16597 0
M  V30 11325 H 1019.3 -0.412694 -0.63103 0
M  V30 11326 H 1021.95 -1.50656 -1.04762 0
M  V30 11327 H 1020.34 -1.47687 -3.6743 0
M  V30 11328 H 1021.51 -3.9883 -2.30805 0
M  V30 11329 H 1019.82 -3.52218 -2.22107 0
M  V30 11330 H 1022.42 -2.41292 -4.77161 0
M  V30 11331 H 1022.76 -0.848195 -4.07568 0
M  V30 11332 H 1023.3 -2.32165 -3.23024 0
M  V30 11333 H 1020.04 -5.23173 -3.9493 0
M  V30 11334 H 1019.56 -3.70198 -4.71925 0
M  V30 11335 H 1021.24 -4.28168 -4.85058 0
M  V30 11336 N 1021.37 1.14642 -1.08144 0
M  V30 11337 C 1022.31 2.1964 -0.708995 0
M  V30 11338 C 1023.28 1.63303 0.303512 0
M  V30 11339 O 1024.47 1.8987 0.18813 0
M  V30 11340 C 1021.61 3.44886 -0.121585 0
M  V30 11341 C 1020.72 4.15386 -1.18654 0
M  V30 11342 C 1019.86 5.28205 -0.56328 0
M  V30 11343 C 1018.9 5.90534 -1.61046 0
M  V30 11344 N 1018.03 6.94809 -1.00919 0
M  V30 11345 H 1022.87 2.50848 -1.6087 0
M  V30 11346 H 1020.41 1.23185 -0.803975 0
M  V30 11347 H 1022.37 4.16528 0.23668 0
M  V30 11348 H 1021 3.14169 0.741445 0
M  V30 11349 H 1020.05 3.42159 -1.66227 0
M  V30 11350 H 1021.36 4.57809 -1.9802 0
M  V30 11351 H 1020.52 6.06507 -0.153109 0
M  V30 11352 H 1019.26 4.86995 0.262066 0
M  V30 11353 H 1018.26 5.10938 -2.03033 0
M  V30 11354 H 1019.49 6.33819 -2.43824 0
M  V30 11355 H 1017.43 6.5568 -0.204894 0
M  V30 11356 H 1017.35 7.35704 -1.73999 0
M  V30 11357 H 1018.62 7.76992 -0.624792 0
M  V30 11358 N 1022.85 0.866709 1.31628 0
M  V30 11359 C 1024.09 0.472185 1.96095 0
M  V30 11360 C 1024.41 -0.979873 1.69286 0
M  V30 11361 O 1025.61 -1.48039 2.27589 0
M  V30 11362 C 1024.07 0.793468 3.51044 0
M  V30 11363 C 1023.68 2.26206 3.86697 0
M  V30 11364 C 1025.42 0.467255 4.21921 0
M  V30 11365 C 1023.33 2.52593 5.34743 0
M  V30 11366 H 1022.26 0.172846 0.733921 0
M  V30 11367 H 1024.91 1.05916 1.49847 0
M  V30 11368 H 1023.29 0.135783 3.95767 0
M  V30 11369 H 1024.47 2.96254 3.52945 0
M  V30 11370 H 1022.78 2.55399 3.28877 0
M  V30 11371 H 1025.38 0.641669 5.30836 0
M  V30 11372 H 1025.72 -0.592065 4.12068 0
M  V30 11373 H 1026.25 1.08134 3.82821 0
M  V30 11374 H 1022.99 3.57196 5.49628 0
M  V30 11375 H 1022.51 1.87136 5.6986 0
M  V30 11376 H 1024.19 2.37156 6.01968 0
M  V30 11377 N 1024.32 -1.44642 0.625825 0
M  V30 11378 C 1025.57 -2.01308 0.125682 0
M  V30 11379 C 1025.89 -1.49773 -1.25807 0
M  V30 11380 O 1027.09 -1.98533 -1.85194 0
M  V30 11381 C 1025.55 -3.59479 0.17395 0
M  V30 11382 C 1025.16 -4.20011 1.55868 0
M  V30 11383 C 1026.9 -4.2364 -0.270005 0
M  V30 11384 C 1024.81 -5.7039 1.56235 0
M  V30 11385 H 1023.74 -0.75276 0.0432194 0
M  V30 11386 H 1026.39 -1.65916 0.783842 0
M  V30 11387 H 1024.77 -3.92145 -0.551212 0
M  V30 11388 H 1025.94 -3.98891 2.307 0
M  V30 11389 H 1024.26 -3.68116 1.94627 0
M  V30 11390 H 1026.86 -5.33931 -0.28672 0
M  V30 11391 H 1027.2 -3.95603 -1.29629 0
M  V30 11392 H 1027.73 -3.95759 0.402487 0
M  V30 11393 H 1024.47 -6.03154 2.56683 0
M  V30 11394 H 1023.99 -5.93648 0.856881 0
M  V30 11395 H 1025.67 -6.33929 1.29396 0
M  V30 11396 N 1025.8 -0.366053 -1.5329 0
M  V30 11397 C 1027.05 0.223051 -2.00865 0
M  V30 11398 C 1027.37 1.49244 -1.25504 0
M  V30 11399 O 1026.64 1.92404 -0.368444 0
M  V30 11400 H 1025.22 0.085413 -0.742101 0
M  V30 11401 H 1027.88 -0.492396 -1.88578 0
M  V30 11402 H 1026.98 0.449701 -3.08843 0
M  V30 11403 N 1027.28 1.57312 -0.0952337 0
M  V30 11404 C 1028.23 2.15263 0.881167 0
M  V30 11405 C 1029.22 1.09552 1.29208 0
M  V30 11406 O 1030.43 1.27897 1.26659 0
M  V30 11407 H 1026.8 0.688611 0.302191 0
M  V30 11408 H 1028.77 2.96126 0.367694 0
M  V30 11409 C 1027.52 2.74779 2.13053 0
M  V30 11410 H 1026.85 3.55807 1.82323 0
M  V30 11411 H 1028.29 3.18895 2.79431 0
M  V30 11412 C 1026.74 1.7068 2.90465 0
M  V30 11413 O 1027.27 1.14582 3.85011 0
M  V30 11414 N 1025.48 1.41169 2.54007 0
M  V30 11415 H 1025.03 1.86977 1.77193 0
M  V30 11416 H 1024.99 0.717559 3.06102 0
M  V30 11417 N 1028.76 -0.17846 1.56586 0
M  V30 11418 C 1029.98 -0.916061 1.86073 0
M  V30 11419 C 1030.41 -1.75349 0.680754 0
M  V30 11420 O 1029.77 -1.77479 -0.37028 0
M  V30 11421 C 1029.81 -1.77445 3.1392 0
M  V30 11422 O 1028.92 -2.87524 2.95641 0
M  V30 11423 H 1028.26 -0.257031 0.612234 0
M  V30 11424 H 1030.79 -0.178755 2.03818 0
M  V30 11425 H 1030.8 -2.1758 3.45142 0
M  V30 11426 H 1029.47 -1.15927 3.99417 0
M  V30 11427 H 1028.05 -2.51023 2.75757 0
M  V30 11428 N 1030.24 -1.51135 -0.446768 0
M  V30 11429 C 1031.48 -1.63578 -1.19875 0
M  V30 11430 C 1031.81 -0.346478 -1.91084 0
M  V30 11431 O 1031.09 0.653447 -1.83195 0
M  V30 11432 C 1031.37 -2.83275 -2.22323 0
M  V30 11433 C 1031.23 -4.22155 -1.55259 0
M  V30 11434 C 1032.54 -2.98496 -3.23401 0
M  V30 11435 H 1029.66 -0.595333 -0.434452 0
M  V30 11436 H 1032.31 -1.83593 -0.48923 0
M  V30 11437 H 1030.46 -2.6634 -2.82834 0
M  V30 11438 H 1032.13 -4.50736 -0.981571 0
M  V30 11439 H 1030.37 -4.25288 -0.855122 0
M  V30 11440 H 1031.04 -5.01882 -2.29823 0
M  V30 11441 H 1033.52 -3.14079 -2.72935 0
M  V30 11442 H 1032.39 -3.83828 -3.92386 0
M  V30 11443 H 1032.65 -2.10157 -3.88956 0
M  V30 11444 N 1031.71 0.701592 -1.41122 0
M  V30 11445 C 1032.96 1.45871 -1.39879 0
M  V30 11446 C 1033.28 1.94999 -0.00668769 0
M  V30 11447 O 1032.55 1.71298 0.95047 0
M  V30 11448 H 1031.13 0.541231 -0.514857 0
M  V30 11449 H 1033.79 0.830803 -1.76306 0
M  V30 11450 H 1032.89 2.32479 -2.0823 0
M  V30 11451 N 1033.19 1.2685 0.935242 0
M  V30 11452 C 1034.15 1.08975 2.01636 0
M  V30 11453 C 1035.15 0.0361543 1.60759 0
M  V30 11454 O 1036.34 0.280087 1.71934 0
M  V30 11455 C 1033.48 0.658831 3.34473 0
M  V30 11456 H 1034.67 2.04968 2.18925 0
M  V30 11457 H 1032.22 1.09531 1.11501 0
M  V30 11458 H 1032.96 -0.302824 3.22883 0
M  V30 11459 H 1032.74 1.41967 3.65497 0
M  V30 11460 H 1034.23 0.555783 4.13885 0
M  V30 11461 N 1034.67 -1.14067 1.0875 0
M  V30 11462 C 1035.6 -2.21385 0.74236 0
M  V30 11463 C 1036.58 -1.67833 -0.276805 0
M  V30 11464 O 1037.77 -1.93647 -0.1464 0
M  V30 11465 C 1034.9 -3.46956 0.154644 0
M  V30 11466 C 1033.85 -4.13555 1.10255 0
M  V30 11467 C 1033.18 -5.3337 0.376877 0
M  V30 11468 C 1034.48 -4.6169 2.44213 0
M  V30 11469 H 1036.17 -2.50512 1.63964 0
M  V30 11470 H 1033.72 -1.20408 0.789807 0
M  V30 11471 H 1035.67 -4.21284 -0.0988419 0
M  V30 11472 H 1034.39 -3.17203 -0.777789 0
M  V30 11473 H 1033.05 -3.41186 1.34119 0
M  V30 11474 H 1032.7 -4.99879 -0.559472 0
M  V30 11475 H 1032.4 -5.78875 1.00884 0
M  V30 11476 H 1033.92 -6.10458 0.131527 0
M  V30 11477 H 1035.34 -5.27475 2.24595 0
M  V30 11478 H 1033.74 -5.17909 3.03134 0
M  V30 11479 H 1034.81 -3.76574 3.05483 0
M  V30 11480 N 1036.15 -0.873678 -1.31166 0
M  V30 11481 C 1037.4 -0.485497 -1.96182 0
M  V30 11482 C 1037.72 0.96621 -1.69379 0
M  V30 11483 O 1036.99 1.67783 -1.01121 0
M  V30 11484 H 1035.57 -0.176547 -0.725838 0
M  V30 11485 H 1038.23 -1.11428 -1.59906 0
M  V30 11486 H 1037.33 -0.646325 -3.05334 0
M  V30 11487 N 1037.63 1.44308 -0.633487 0
M  V30 11488 C 1038.85 2.06897 -0.144347 0
M  V30 11489 C 1039.28 1.47045 1.173 0
M  V30 11490 O 1038.63 0.572806 1.72013 0
M  V30 11491 C 1038.68 3.60571 -0.0456324 0
M  V30 11492 O 1037.79 4.0015 0.997682 0
M  V30 11493 H 1037.13 0.658427 -0.0858499 0
M  V30 11494 H 1039.66 1.85142 -0.870833 0
M  V30 11495 H 1039.67 4.07745 0.144178 0
M  V30 11496 H 1038.34 4.03515 -1.0074 0
M  V30 11497 H 1036.92 3.64603 0.782252 0
M  V30 11498 N 1039.1 0.374177 1.53094 0
M  V30 11499 C 1040.03 -0.459976 2.28925 0
M  V30 11500 C 1041.02 -1.07656 1.31698 0
M  V30 11501 O 1042.2 -1.09219 1.60577 0
M  V30 11502 C 1039.33 -1.5954 3.08487 0
M  V30 11503 C 1038.28 -1.10563 4.13473 0
M  V30 11504 C 1037.61 -2.33196 4.81169 0
M  V30 11505 C 1038.91 -0.184275 5.21975 0
M  V30 11506 H 1040.6 0.172692 2.98902 0
M  V30 11507 H 1038.15 0.0844956 1.43752 0
M  V30 11508 H 1040.1 -2.18565 3.60288 0
M  V30 11509 H 1038.83 -2.25543 2.36216 0
M  V30 11510 H 1037.49 -0.53801 3.62631 0
M  V30 11511 H 1037.13 -2.97675 4.05461 0
M  V30 11512 H 1036.83 -2.01094 5.52119 0
M  V30 11513 H 1038.36 -2.92892 5.35767 0
M  V30 11514 H 1039.77 -0.682262 5.69226 0
M  V30 11515 H 1038.17 0.0462746 6.00082 0
M  V30 11516 H 1039.24 0.771152 4.78729 0
M  V30 11517 N 1040.58 -1.57259 0.103575 0
M  V30 11518 C 1041.81 -1.99 -0.566275 0
M  V30 11519 C 1042.23 -0.982909 -1.61197 0
M  V30 11520 O 1041.58 0.026345 -1.82481 0
M  V30 11521 C 1041.63 -3.40778 -1.20635 0
M  V30 11522 O 1041.35 -4.37632 -0.202472 0
M  V30 11523 C 1042.86 -3.97567 -1.961 0
M  V30 11524 H 1040.08 -0.653751 -0.151164 0
M  V30 11525 H 1042.62 -2.03658 0.185365 0
M  V30 11526 H 1040.77 -3.37107 -1.90886 0
M  V30 11527 H 1041.19 -5.2026 -0.665535 0
M  V30 11528 H 1042.66 -4.98897 -2.36233 0
M  V30 11529 H 1043.14 -3.35853 -2.83018 0
M  V30 11530 H 1043.75 -4.04737 -1.30645 0
M  V30 11531 N 1042.06 0.170153 -1.56679 0
M  V30 11532 C 1043.31 0.887906 -1.8233 0
M  V30 11533 C 1043.64 1.81845 -0.681608 0
M  V30 11534 O 1042.91 1.9191 0.316362 0
M  V30 11535 C 1043.2 1.68256 -3.18374 0
M  V30 11536 C 1043.05 0.775059 -4.43072 0
M  V30 11537 C 1044.37 2.65001 -3.51372 0
M  V30 11538 H 1041.49 0.32135 -0.663252 0
M  V30 11539 H 1044.13 0.154065 -1.89374 0
M  V30 11540 H 1042.28 2.30817 -3.12499 0
M  V30 11541 H 1043.95 0.162234 -4.61015 0
M  V30 11542 H 1042.2 0.0831809 -4.3372 0
M  V30 11543 H 1042.87 1.36661 -5.34816 0
M  V30 11544 H 1045.34 2.12566 -3.57708 0
M  V30 11545 H 1044.22 3.17667 -4.47637 0
M  V30 11546 H 1044.48 3.45255 -2.76136 0
M  V30 11547 N 1043.54 1.5137 0.438746 0
M  V30 11548 C 1044.78 1.64211 1.19006 0
M  V30 11549 C 1045.12 0.356607 1.90898 0
M  V30 11550 O 1044.39 -0.643722 1.83539 0
M  V30 11551 C 1044.68 2.8445 2.20817 0
M  V30 11552 C 1044.53 4.22972 1.53018 0
M  V30 11553 C 1045.85 3.00207 3.21813 0
M  V30 11554 H 1042.97 0.597628 0.431288 0
M  V30 11555 H 1045.61 1.8385 0.479487 0
M  V30 11556 H 1043.76 2.67836 2.81418 0
M  V30 11557 H 1045.43 4.5125 0.957654 0
M  V30 11558 H 1043.67 4.25736 0.832556 0
M  V30 11559 H 1044.34 5.03094 2.27158 0
M  V30 11560 H 1046.82 3.15522 2.71266 0
M  V30 11561 H 1045.7 3.85904 3.90345 0
M  V30 11562 H 1045.96 2.12216 3.87836 0
M  V30 11563 N 1045.02 -0.694098 1.41492 0
M  V30 11564 C 1045.95 -1.82042 1.46229 0
M  V30 11565 C 1046.93 -1.67047 0.320803 0
M  V30 11566 O 1048.11 -1.86758 0.53245 0
M  V30 11567 C 1045.24 -3.2019 1.34519 0
M  V30 11568 C 1044.2 -3.49892 2.46495 0
M  V30 11569 C 1043.52 -4.87411 2.1985 0
M  V30 11570 C 1044.82 -3.4872 3.88834 0
M  V30 11571 H 1046.52 -1.78335 2.40493 0
M  V30 11572 H 1044.06 -0.856566 1.15754 0
M  V30 11573 H 1046.02 -3.98699 1.36445 0
M  V30 11574 H 1044.74 -3.24527 0.367406 0
M  V30 11575 H 1043.4 -2.73734 2.43854 0
M  V30 11576 H 1043.05 -4.88375 1.20411 0
M  V30 11577 H 1042.75 -5.08248 2.94885 0
M  V30 11578 H 1044.27 -5.68228 2.23494 0
M  V30 11579 H 1045.68 -4.1723 3.93182 0
M  V30 11580 H 1044.08 -3.81089 4.63564 0
M  V30 11581 H 1045.15 -2.47665 4.16881 0
M  V30 11582 N 1046.49 -1.27344 -0.928501 0
M  V30 11583 C 1047.74 -1.13804 -1.67859 0
M  V30 11584 C 1048.07 0.31555 -1.91619 0
M  V30 11585 O 1047.35 1.23087 -1.50599 0
M  V30 11586 C 1047.63 -1.9213 -3.04562 0
M  V30 11587 C 1047.48 -3.45468 -2.88048 0
M  V30 11588 C 1048.8 -1.72513 -4.04879 0
M  V30 11589 H 1045.92 -0.414796 -0.609191 0
M  V30 11590 H 1048.56 -1.5649 -1.07753 0
M  V30 11591 H 1046.71 -1.55853 -3.55868 0
M  V30 11592 H 1048.39 -3.9157 -2.43865 0
M  V30 11593 H 1046.63 -3.71849 -2.23407 0
M  V30 11594 H 1047.3 -3.95515 -3.85061 0
M  V30 11595 H 1049.78 -2.04143 -3.62581 0
M  V30 11596 H 1048.65 -2.29713 -4.98521 0
M  V30 11597 H 1048.91 -0.672856 -4.3695 0
M  V30 11598 N 1047.97 1.13488 -1.09353 0
M  V30 11599 C 1049.22 1.841 -0.82401 0
M  V30 11600 C 1049.53 1.84393 0.652586 0
M  V30 11601 O 1050.74 2.5089 1.03762 0
M  V30 11602 C 1049.2 3.30523 -1.42418 0
M  V30 11603 C 1048.8 3.38621 -2.93326 0
M  V30 11604 C 1050.55 4.06182 -1.23356 0
M  V30 11605 C 1048.46 4.79311 -3.46432 0
M  V30 11606 H 1047.39 0.68974 -0.304589 0
M  V30 11607 H 1050.04 1.27866 -1.31615 0
M  V30 11608 H 1048.42 3.86555 -0.859727 0
M  V30 11609 H 1049.59 2.92587 -3.5599 0
M  V30 11610 H 1047.91 2.76426 -3.11412 0
M  V30 11611 H 1050.5 5.10047 -1.60488 0
M  V30 11612 H 1050.85 4.15936 -0.174152 0
M  V30 11613 H 1051.38 3.56477 -1.76547 0
M  V30 11614 H 1048.12 4.74748 -4.5199 0
M  V30 11615 H 1047.64 5.25842 -2.8853 0
M  V30 11616 H 1049.32 5.48227 -3.43593 0
M  V30 11617 N 1049.45 0.880621 1.30701 0
M  V30 11618 C 1050.7 0.497611 1.966 0
M  V30 11619 C 1051.03 -0.949901 1.69383 0
M  V30 11620 O 1050.31 -1.67054 0.996152 0
M  V30 11621 C 1050.59 0.767919 3.51817 0
M  V30 11622 C 1050.44 2.26574 3.88567 0
M  V30 11623 C 1051.76 0.241502 4.39437 0
M  V30 11624 H 1048.88 0.182267 0.714106 0
M  V30 11625 H 1051.52 1.10382 1.54648 0
M  V30 11626 H 1049.67 0.251967 3.87682 0
M  V30 11627 H 1051.34 2.84977 3.62748 0
M  V30 11628 H 1049.59 2.73411 3.36792 0
M  V30 11629 H 1050.26 2.40549 4.9683 0
M  V30 11630 H 1052.73 0.683051 4.10455 0
M  V30 11631 H 1051.61 0.459997 5.46969 0
M  V30 11632 H 1051.87 -0.857068 4.33713 0
M  V30 11633 N 1050.93 -1.4397 0.641131 0
M  V30 11634 C 1052.18 -2.01163 0.147026 0
M  V30 11635 C 1052.49 -1.51099 -1.24211 0
M  V30 11636 O 1053.7 -2.00487 -1.83078 0
M  V30 11637 C 1052.15 -3.59275 0.212068 0
M  V30 11638 C 1051.76 -4.18334 1.60314 0
M  V30 11639 C 1053.51 -4.23903 -0.225057 0
M  V30 11640 C 1051.41 -5.68701 1.62276 0
M  V30 11641 H 1050.34 -0.75226 0.051201 0
M  V30 11642 H 1052.99 -1.65075 0.801396 0
M  V30 11643 H 1051.38 -3.92708 -0.509589 0
M  V30 11644 H 1052.55 -3.96422 2.34918 0
M  V30 11645 H 1050.86 -3.66031 1.9852 0
M  V30 11646 H 1053.46 -5.34205 -0.230074 0
M  V30 11647 H 1053.8 -3.96956 -1.25426 0
M  V30 11648 H 1054.34 -3.95309 0.44444 0
M  V30 11649 H 1051.08 -6.00397 2.63066 0
M  V30 11650 H 1050.6 -5.92705 0.919797 0
M  V30 11651 H 1052.28 -6.32521 1.36112 0
M  V30 11652 N 1052.41 -0.382291 -1.52893 0
M  V30 11653 C 1053.65 0.202133 -2.01489 0
M  V30 11654 C 1053.98 1.47399 -1.26901 0
M  V30 11655 O 1053.24 1.92439 -0.355771 0
M  V30 11656 C 1053.54 0.523437 -3.53546 0
M  V30 11657 C 1053.2 -0.656042 -4.46102 0
M  V30 11658 C 1051.86 -0.979633 -4.71123 0
M  V30 11659 C 1054.22 -1.44545 -5.00756 0
M  V30 11660 C 1051.54 -2.0943 -5.48047 0
M  V30 11661 C 1053.9 -2.55066 -5.78899 0
M  V30 11662 C 1052.56 -2.87942 -6.02201 0
M  V30 11663 H 1051.83 0.0739659 -0.737299 0
M  V30 11664 H 1054.48 -0.518196 -1.84356 0
M  V30 11665 H 1052.78 1.325 -3.68715 0
M  V30 11666 H 1054.48 0.988148 -3.88634 0
M  V30 11667 H 1051.07 -0.393818 -4.26787 0
M  V30 11668 H 1055.25 -1.20869 -4.81357 0
M  V30 11669 H 1050.51 -2.3528 -5.64317 0
M  V30 11670 H 1054.68 -3.1664 -6.20252 0
M  V30 11671 H 1052.31 -3.74435 -6.61591 0
M  V30 11672 N 1053.89 1.57202 -0.111913 0
M  V30 11673 C 1055.13 1.94125 0.547573 0
M  V30 11674 C 1055.45 0.997026 1.68282 0
M  V30 11675 O 1056.65 1.26063 2.40459 0
M  V30 11676 C 1055.11 3.44982 1.02545 0
M  V30 11677 C 1054.72 4.47927 -0.0809529 0
M  V30 11678 C 1056.46 3.90837 1.65671 0
M  V30 11679 C 1054.37 5.89955 0.413224 0
M  V30 11680 H 1053.3 0.724651 0.208321 0
M  V30 11681 H 1055.95 1.82507 -0.190625 0
M  V30 11682 H 1054.33 3.5181 1.81785 0
M  V30 11683 H 1055.51 4.52761 -0.857003 0
M  V30 11684 H 1053.82 4.11782 -0.618434 0
M  V30 11685 H 1056.42 4.9436 2.03746 0
M  V30 11686 H 1056.76 3.30417 2.53239 0
M  V30 11687 H 1057.29 3.8678 0.929844 0
M  V30 11688 H 1054.03 6.54113 -0.426238 0
M  V30 11689 H 1053.55 5.88557 1.15591 0
M  V30 11690 H 1055.23 6.41032 0.876756 0
M  V30 11691 N 1055.36 -0.161842 1.56767 0
M  V30 11692 C 1056.61 -0.876925 1.82527 0
M  V30 11693 C 1056.94 -1.81831 0.690492 0
M  V30 11694 O 1056.19 -1.9304 -0.32159 0
M  V30 11695 C 1056.49 -1.69736 3.14522 0
M  V30 11696 C 1056.16 -0.904075 4.41743 0
M  V30 11697 C 1054.82 -0.685168 4.76297 0
M  V30 11698 C 1057.17 -0.348282 5.20035 0
M  V30 11699 C 1054.5 0.10048 5.86614 0
M  V30 11700 C 1056.85 0.424327 6.31175 0
M  V30 11701 C 1055.52 0.653948 6.64289 0
M  V30 11702 H 1054.79 -0.320889 0.667915 0
M  V30 11703 H 1057.43 -0.141338 1.90978 0
M  V30 11704 H 1055.74 -2.50262 3.01456 0
M  V30 11705 H 1057.44 -2.25386 3.31666 0
M  V30 11706 H 1054.03 -1.08474 4.14646 0
M  V30 11707 H 1058.21 -0.504721 4.93727 0
M  V30 11708 H 1053.47 0.288029 6.10721 0
M  V30 11709 H 1057.64 0.862203 6.91042 0
M  V30 11710 H 1055.27 1.26459 7.49608 0
M  V30 11711 N 1056.84 -1.516 -0.430713 0
M  V30 11712 C 1058.07 -1.687 -1.20644 0
M  V30 11713 C 1058.49 -0.386555 -1.84085 0
M  V30 11714 O 1057.85 0.653952 -1.69095 0
M  V30 11715 C 1057.9 -2.80887 -2.2613 0
M  V30 11716 O 1057 -2.44952 -3.31772 0
M  V30 11717 H 1056.34 -0.562289 -0.353167 0
M  V30 11718 H 1058.87 -1.98198 -0.507807 0
M  V30 11719 H 1058.88 -3.05167 -2.70809 0
M  V30 11720 H 1057.56 -3.75249 -1.79334 0
M  V30 11721 H 1056.13 -2.31267 -2.92523 0
M  V30 11722 N 1058.32 0.686584 -1.41858 0
M  V30 11723 C 1059.57 1.44879 -1.41908 0
M  V30 11724 C 1059.9 1.94175 -0.0311408 0
M  V30 11725 O 1059.17 1.70131 0.942646 0
M  V30 11726 C 1059.46 2.65428 -2.43352 0
M  V30 11727 C 1059.31 2.2184 -3.91289 0
M  V30 11728 C 1060.63 3.67635 -2.41934 0
M  V30 11729 H 1057.75 0.525477 -0.516762 0
M  V30 11730 H 1060.39 0.781263 -1.73194 0
M  V30 11731 H 1058.54 3.2238 -2.16803 0
M  V30 11732 H 1060.21 1.70146 -4.28775 0
M  V30 11733 H 1058.45 1.53531 -4.05722 0
M  V30 11734 H 1059.13 3.08376 -4.5783 0
M  V30 11735 H 1061.6 3.20376 -2.65516 0
M  V30 11736 H 1060.48 4.49579 -3.14913 0
M  V30 11737 H 1060.74 4.17953 -1.44111 0
M  V30 11738 N 1059.8 1.27835 0.921735 0
M  V30 11739 C 1061.04 1.14692 1.67253 0
M  V30 11740 C 1061.38 -0.305384 1.91784 0
M  V30 11741 O 1060.65 -1.22286 1.51249 0
M  V30 11742 C 1060.93 1.93743 3.03539 0
M  V30 11743 C 1060.79 3.46991 2.86212 0
M  V30 11744 C 1062.11 1.74658 4.03959 0
M  V30 11745 H 1059.23 0.418021 0.606983 0
M  V30 11746 H 1061.87 1.5706 1.06922 0
M  V30 11747 H 1060.02 1.57738 3.55037 0
M  V30 11748 H 1061.69 3.92858 2.41785 0
M  V30 11749 H 1059.93 3.73029 2.21432 0
M  V30 11750 H 1060.6 3.97551 3.82958 0
M  V30 11751 H 1063.08 2.06063 3.61493 0
M  V30 11752 H 1061.96 2.32353 4.97296 0
M  V30 11753 H 1062.22 0.696019 4.36587 0
M  V30 11754 N 1061.28 -1.12907 1.09954 0
M  V30 11755 C 1062.52 -1.83941 0.837255 0
M  V30 11756 C 1062.84 -1.84234 -0.638984 0
M  V30 11757 O 1062.11 -1.30193 -1.46378 0
M  V30 11758 H 1060.69 -0.681115 0.306743 0
M  V30 11759 H 1063.36 -1.36743 1.38879 0
M  V30 11760 H 1062.45 -2.88289 1.19565 0
M  V30 11761 N 1062.75 -0.88754 -1.30232 0
M  V30 11762 C 1063.69 -0.300814 -2.26209 0
M  V30 11763 C 1064.66 0.580088 -1.519 0
M  V30 11764 O 1065.85 0.529611 -1.80907 0
M  V30 11765 C 1062.98 0.572336 -3.33829 0
M  V30 11766 C 1062.02 -0.239589 -4.25827 0
M  V30 11767 S 1062.85 -1.62953 -5.10104 0
M  V30 11768 C 1064.01 -0.762979 -6.21232 0
M  V30 11769 H 1064.24 -1.11435 -2.75626 0
M  V30 11770 H 1061.78 -0.687123 -1.38268 0
M  V30 11771 H 1063.73 1.07036 -3.963 0
M  V30 11772 H 1062.4 1.35999 -2.83131 0
M  V30 11773 H 1061.59 0.426854 -5.02189 0
M  V30 11774 H 1061.19 -0.670325 -3.67944 0
M  V30 11775 H 1063.48 0.0189354 -6.77497 0
M  V30 11776 H 1064.43 -1.49829 -6.92067 0
M  V30 11777 H 1064.83 -0.322747 -5.63577 0
M  V30 11778 N 1064.23 1.43628 -0.648757 0
M  V30 11779 C 1065.16 2.29045 0.0841858 0
M  V30 11780 C 1066.18 1.42262 0.791537 0
M  V30 11781 O 1067.37 1.66243 0.650039 0
M  V30 11782 C 1064.47 3.19075 1.14212 0
M  V30 11783 C 1063.64 4.34372 0.513799 0
M  V30 11784 C 1062.7 5.05307 1.46803 0
M  V30 11785 O 1061.72 5.60729 0.978346 0
M  V30 11786 N 1062.93 5.08393 2.80209 0
M  V30 11787 H 1065.69 2.9259 -0.648948 0
M  V30 11788 H 1063.25 1.54268 -0.491209 0
M  V30 11789 H 1065.24 3.63395 1.78119 0
M  V30 11790 H 1063.81 2.57161 1.77728 0
M  V30 11791 H 1063.03 3.93024 -0.304262 0
M  V30 11792 H 1064.32 5.08745 0.0749871 0
M  V30 11793 H 1063.72 4.64729 3.22557 0
M  V30 11794 H 1062.28 5.56445 3.3943 0
M  V30 11795 N 1065.71 0.390394 1.52688 0
M  V30 11796 C 1066.64 -0.43567 2.294 0
M  V30 11797 C 1067.62 -1.06253 1.32832 0
M  V30 11798 O 1068.81 -1.07509 1.61726 0
M  V30 11799 C 1065.94 -1.56259 3.10162 0
M  V30 11800 C 1064.89 -1.06172 4.14622 0
M  V30 11801 C 1064.22 -2.2808 4.83615 0
M  V30 11802 C 1065.52 -0.128902 5.22141 0
M  V30 11803 H 1067.21 0.204384 2.98702 0
M  V30 11804 H 1064.76 0.0997377 1.43654 0
M  V30 11805 H 1066.71 -2.14732 3.62585 0
M  V30 11806 H 1065.43 -2.23025 2.38595 0
M  V30 11807 H 1064.09 -0.499518 3.63181 0
M  V30 11808 H 1063.74 -2.93358 4.08595 0
M  V30 11809 H 1063.44 -1.95227 5.5422 0
M  V30 11810 H 1064.96 -2.87193 5.38844 0
M  V30 11811 H 1066.38 -0.621849 5.69917 0
M  V30 11812 H 1064.78 0.109919 5.99999 0
M  V30 11813 H 1065.85 0.821884 4.77884 0
M  V30 11814 N 1067.19 -1.57141 0.120249 0
M  V30 11815 C 1068.44 -1.95238 -0.537449 0
M  V30 11816 C 1068.76 -1.00361 -1.66607 0
M  V30 11817 O 1068.02 -0.0277306 -1.9568 0
M  V30 11818 C 1068.32 -3.39745 -1.10941 0
M  V30 11819 C 1067.98 -4.50785 -0.102012 0
M  V30 11820 C 1066.65 -4.80882 0.174994 0
M  V30 11821 C 1069 -5.17913 0.584462 0
M  V30 11822 C 1066.33 -5.75424 1.14474 0
M  V30 11823 C 1068.68 -6.13497 1.54284 0
M  V30 11824 C 1067.34 -6.41987 1.82782 0
M  V30 11825 H 1066.61 -0.714425 -0.196666 0
M  V30 11826 H 1069.26 -1.90438 0.201418 0
M  V30 11827 H 1067.56 -3.41246 -1.92506 0
M  V30 11828 H 1069.26 -3.66536 -1.62642 0
M  V30 11829 H 1065.85 -4.27342 -0.328097 0
M  V30 11830 H 1070.03 -4.94815 0.383625 0
M  V30 11831 H 1065.29 -5.95801 1.37226 0
M  V30 11832 H 1069.46 -6.64598 2.08044 0
M  V30 11833 H 1067.09 -7.15052 2.5808 0
M  V30 11834 N 1068.67 0.153526 -1.5685 0
M  V30 11835 C 1069.91 0.865519 -1.82629 0
M  V30 11836 C 1070.24 1.81999 -0.700105 0
M  V30 11837 O 1069.51 1.93907 0.278744 0
M  V30 11838 H 1068.09 0.32261 -0.673745 0
M  V30 11839 H 1070.75 0.149088 -1.94329 0
M  V30 11840 H 1069.84 1.43171 -2.77324 0
M  V30 11841 N 1070.14 1.51827 0.422667 0
M  V30 11842 C 1071.56 1.40328 0.760275 0
M  V30 11843 C 1071.76 0.497119 1.95272 0
M  V30 11844 O 1070.82 -0.0422083 2.52465 0
M  V30 11845 C 1072.13 2.82622 1.02689 0
M  V30 11846 C 1073.68 2.91874 1.13044 0
M  V30 11847 C 1074.15 4.35107 1.4299 0
M  V30 11848 N 1075.64 4.3828 1.49883 0
M  V30 11849 C 1076.38 5.46153 1.74655 0
M  V30 11850 N 1075.87 6.64165 1.9712 0
M  V30 11851 N 1077.67 5.33651 1.76558 0
M  V30 11852 H 1069.82 2.09285 -0.362455 0
M  V30 11853 H 1072.08 0.94273 -0.0998161 0
M  V30 11854 H 1071.79 3.50991 0.223226 0
M  V30 11855 H 1071.66 3.22844 1.95068 0
M  V30 11856 H 1074.05 2.23694 1.92471 0
M  V30 11857 H 1074.13 2.55128 0.185326 0
M  V30 11858 H 1073.77 5.03841 0.640848 0
M  V30 11859 H 1073.7 4.69377 2.38731 0
M  V30 11860 H 1076.19 3.53206 1.34366 0
M  V30 11861 H 1076.51 7.42165 2.15434 0
M  V30 11862 H 1074.85 6.67255 1.94413 0
M  V30 11863 H 1078.04 4.40436 1.58536 0
M  V30 11864 H 1078.22 6.17798 1.95525 0
M  V30 11865 N 1071.62 -0.679052 1.4222 0
M  V30 11866 C 1072.85 -1.47248 1.46058 0
M  V30 11867 C 1073.27 -1.87962 0.0720987 0
M  V30 11868 O 1072.63 -1.5572 -0.928488 0
M  V30 11869 C 1072.68 -2.70067 2.38948 0
M  V30 11870 O 1071.78 -3.68178 1.85791 0
M  V30 11871 H 1071.12 -0.442533 0.495036 0
M  V30 11872 H 1073.65 -0.833263 1.86863 0
M  V30 11873 H 1073.66 -3.18187 2.55385 0
M  V30 11874 H 1072.34 -2.39773 3.39826 0
M  V30 11875 H 1070.92 -3.2719 1.78889 0
M  V30 11876 N 1073.1 -1.28322 -0.914942 0
M  V30 11877 C 1074.35 -1.15407 -1.66396 0
M  V30 11878 C 1074.68 0.297587 -1.9221 0
M  V30 11879 O 1073.93 1.23299 -1.51973 0
M  V30 11880 C 1074.23 -1.89663 -3.02924 0
M  V30 11881 C 1073.9 -3.39464 -2.96774 0
M  V30 11882 C 1072.56 -3.80321 -2.94804 0
M  V30 11883 C 1074.91 -4.3499 -2.87111 0
M  V30 11884 C 1072.24 -5.15046 -2.8097 0
M  V30 11885 C 1074.59 -5.69788 -2.74818 0
M  V30 11886 C 1073.25 -6.09921 -2.71205 0
M  V30 11887 H 1072.52 -0.422303 -0.608885 0
M  V30 11888 H 1075.17 -1.59082 -1.06607 0
M  V30 11889 H 1073.48 -1.38533 -3.66491 0
M  V30 11890 H 1075.17 -1.77087 -3.59779 0
M  V30 11891 H 1071.76 -3.06979 -2.99101 0
M  V30 11892 H 1075.95 -4.04389 -2.87721 0
M  V30 11893 H 1071.2 -5.45271 -2.76568 0
M  V30 11894 H 1075.38 -6.43469 -2.66309 0
M  V30 11895 H 1073 -7.14267 -2.60243 0
M  V30 11896 N 1074.58 1.12322 -1.10551 0
M  V30 11897 C 1075.53 2.20166 -0.750317 0
M  V30 11898 C 1076.52 1.67484 0.254066 0
M  V30 11899 O 1077.73 1.79637 0.114309 0
M  V30 11900 H 1074.1 0.717642 -0.22471 0
M  V30 11901 H 1076.07 2.47378 -1.66873 0
M  V30 11902 C 1074.82 3.47126 -0.199651 0
M  V30 11903 H 1074.14 3.88011 -0.963735 0
M  V30 11904 H 1075.58 4.23999 0.0108033 0
M  V30 11905 C 1074.04 3.19526 1.06792 0
M  V30 11906 O 1074.57 3.39368 2.14923 0
M  V30 11907 N 1072.78 2.73324 0.987032 0
M  V30 11908 H 1072.33 2.57378 0.106997 0
M  V30 11909 H 1072.28 2.55234 1.83584 0
M  V30 11910 N 1076.06 0.894434 1.2976 0
M  V30 11911 C 1077.28 0.5322 2.00455 0
M  V30 11912 C 1077.71 -0.874427 1.66539 0
M  V30 11913 O 1077.06 -1.58113 0.887129 0
M  V30 11914 C 1077.11 0.725264 3.53231 0
M  V30 11915 O 1076.22 -0.224612 4.11788 0
M  V30 11916 H 1075.56 0.208562 0.630395 0
M  V30 11917 H 1078.09 1.20458 1.65382 0
M  V30 11918 H 1078.1 0.627889 4.0314 0
M  V30 11919 H 1076.77 1.75079 3.77253 0
M  V30 11920 H 1075.35 -0.0801361 3.72814 0
M  V30 11921 N 1077.53 -1.43282 0.656365 0
M  V30 11922 C 1078.47 -2.29087 -0.0720378 0
M  V30 11923 C 1079.48 -1.4268 -0.783982 0
M  V30 11924 O 1080.67 -1.66585 -0.641213 0
M  V30 11925 C 1077.77 -3.19676 -1.12519 0
M  V30 11926 C 1076.94 -4.34638 -0.490756 0
M  V30 11927 C 1076 -5.06079 -1.44121 0
M  V30 11928 O 1075.03 -5.6124 -0.948595 0
M  V30 11929 N 1076.23 -5.09872 -2.77509 0
M  V30 11930 H 1078.99 -2.92241 0.664456 0
M  V30 11931 H 1076.55 -1.54006 0.499383 0
M  V30 11932 H 1078.55 -3.64334 -1.76189 0
M  V30 11933 H 1077.12 -2.581 -1.76362 0
M  V30 11934 H 1076.34 -3.92857 0.3251 0
M  V30 11935 H 1077.62 -5.08777 -0.0480061 0
M  V30 11936 H 1077.02 -4.66433 -3.20088 0
M  V30 11937 H 1075.58 -5.58237 -3.36474 0
M  V30 11938 N 1079.01 -0.398486 -1.52479 0
M  V30 11939 C 1079.96 0.432212 -2.26717 0
M  V30 11940 C 1080.93 1.05007 -1.28696 0
M  V30 11941 O 1082.12 1.07636 -1.57541 0
M  V30 11942 C 1079.26 1.54868 -3.08399 0
M  V30 11943 C 1078.37 0.952779 -4.21362 0
M  V30 11944 C 1077.5 2.04106 -4.90423 0
M  V30 11945 C 1076.54 1.42153 -5.95364 0
M  V30 11946 N 1075.68 2.44951 -6.57984 0
M  V30 11947 H 1080.52 -0.207303 -2.97278 0
M  V30 11948 H 1078.06 -0.114066 -1.46657 0
M  V30 11949 H 1080.01 2.20684 -3.54054 0
M  V30 11950 H 1078.64 2.15837 -2.4003 0
M  V30 11951 H 1077.7 0.183962 -3.79955 0
M  V30 11952 H 1079.01 0.460131 -4.96673 0
M  V30 11953 H 1078.16 2.77672 -5.39429 0
M  V30 11954 H 1076.9 2.56733 -4.14656 0
M  V30 11955 H 1075.91 0.671161 -5.45688 0
M  V30 11956 H 1077.13 0.903093 -6.73068 0
M  V30 11957 H 1075.08 2.9673 -5.85053 0
M  V30 11958 H 1074.99 2.00468 -7.28937 0
M  V30 11959 H 1076.26 3.18119 -7.11632 0
M  V30 11960 N 1080.49 1.57075 -0.12858 0
M  V30 11961 C 1081.72 2.00305 0.537839 0
M  V30 11962 C 1082.14 1.00787 1.58819 0
M  V30 11963 O 1081.5 -0.0190839 1.8129 0
M  V30 11964 C 1081.55 3.42371 1.13201 0
M  V30 11965 O 1080.65 3.45786 2.24735 0
M  V30 11966 H 1079.99 0.650456 0.133428 0
M  V30 11967 H 1082.52 2.03415 -0.219882 0
M  V30 11968 H 1082.53 3.80783 1.4652 0
M  V30 11969 H 1081.21 4.14315 0.362713 0
M  V30 11970 H 1079.78 3.19201 1.92783 0
M  V30 11971 N 1081.97 -0.145205 1.5693 0
M  V30 11972 C 1083.38 -0.705089 1.72874 0
M  V30 11973 C 1083.73 -1.81577 0.743261 0
M  V30 11974 O 1082.86 -2.16214 -0.0897153 0
M  V30 11975 C 1083.45 -1.28578 3.13454 0
M  V30 11976 C 1082.01 -1.79221 3.30994 0
M  V30 11977 C 1081.16 -0.681392 2.68798 0
M  V30 11978 H 1084.11 0.0804798 1.58496 0
M  V30 11979 H 1084.13 -2.15558 3.13552 0
M  V30 11980 H 1083.64 -0.477186 3.85155 0
M  V30 11981 H 1081.74 -2.62642 2.64292 0
M  V30 11982 H 1081.86 -1.91969 4.38959 0
M  V30 11983 H 1080.22 -1.10847 2.29314 0
M  V30 11984 H 1081 0.115786 3.43105 0
M  V30 11985 N 1083.45 -1.52049 -0.414609 0
M  V30 11986 C 1084.39 -1.74998 -1.5048 0
M  V30 11987 C 1085.36 -0.592251 -1.55182 0
M  V30 11988 O 1086.55 -0.829203 -1.7184 0
M  V30 11989 C 1083.69 -1.90157 -2.87983 0
M  V30 11990 C 1082.8 -3.17789 -2.92633 0
M  V30 11991 C 1081.94 -3.23411 -4.21401 0
M  V30 11992 C 1080.98 -4.45267 -4.20004 0
M  V30 11993 N 1080.11 -4.48312 -5.40334 0
M  V30 11994 H 1084.95 -2.68046 -1.30212 0
M  V30 11995 H 1082.49 -1.32824 -0.632154 0
M  V30 11996 H 1084.45 -1.96929 -3.67797 0
M  V30 11997 H 1083.08 -1.00496 -3.06758 0
M  V30 11998 H 1082.13 -3.20216 -2.05343 0
M  V30 11999 H 1083.44 -4.07634 -2.87465 0
M  V30 12000 H 1082.6 -3.29224 -5.09604 0
M  V30 12001 H 1081.34 -2.31495 -4.29257 0
M  V30 12002 H 1080.34 -4.39606 -3.30192 0
M  V30 12003 H 1081.57 -5.38472 -4.13793 0
M  V30 12004 H 1079.51 -3.59277 -5.48868 0
M  V30 12005 H 1079.43 -5.31994 -5.37139 0
M  V30 12006 H 1080.7 -4.58347 -6.30506 0
M  V30 12007 N 1084.93 0.6715 -1.42579 0
M  V30 12008 C 1085.86 1.79693 -1.49107 0
M  V30 12009 C 1086.84 1.66516 -0.347338 0
M  V30 12010 O 1088.02 1.85887 -0.562094 0
M  V30 12011 C 1085.15 3.1801 -1.39596 0
M  V30 12012 C 1084.11 3.45926 -2.5203 0
M  V30 12013 C 1083.43 4.83852 -2.27577 0
M  V30 12014 C 1084.73 3.4249 -3.94333 0
M  V30 12015 H 1086.43 1.74486 -2.433 0
M  V30 12016 H 1083.97 0.838042 -1.17102 0
M  V30 12017 H 1085.92 3.96478 -1.42771 0
M  V30 12018 H 1084.65 3.23901 -0.418989 0
M  V30 12019 H 1083.31 2.6982 -2.48178 0
M  V30 12020 H 1082.96 4.86398 -1.28165 0
M  V30 12021 H 1082.66 5.03493 -3.02934 0
M  V30 12022 H 1084.18 5.646 -2.32506 0
M  V30 12023 H 1085.59 4.10922 -3.9977 0
M  V30 12024 H 1083.99 3.73666 -4.69568 0
M  V30 12025 H 1085.06 2.41002 -4.20768 0
M  V30 12026 N 1086.4 1.28806 0.908124 0
M  V30 12027 C 1087.64 1.17546 1.67219 0
M  V30 12028 C 1088.01 -0.270396 1.90086 0
M  V30 12029 O 1089.21 -0.505808 2.63998 0
M  V30 12030 C 1087.48 1.95774 2.99011 0
M  V30 12031 S 1089.04 2.00953 3.90081 0
M  V30 12032 H 1085.86 0.419283 0.574215 0
M  V30 12033 H 1088.46 1.6298 1.07971 0
M  V30 12034 H 1087.16 2.99978 2.80074 0
M  V30 12035 H 1086.69 1.50911 3.63303 0
M  V30 12036 H 1088.71 1.1201 4.83392 0
M  V30 12037 N 1087.88 -1.11734 1.11145 0
M  V30 12038 C 1088.83 -2.19765 0.761982 0
M  V30 12039 C 1089.82 -1.67616 -0.24518 0
M  V30 12040 O 1091.03 -1.79695 -0.104781 0
M  V30 12041 H 1087.4 -0.71644 0.228513 0
M  V30 12042 H 1089.38 -2.4649 1.68183 0
M  V30 12043 C 1088.12 -3.47016 0.218057 0
M  V30 12044 H 1087.45 -3.87494 0.984299 0
M  V30 12045 H 1088.89 -4.23998 0.0116825 0
M  V30 12046 C 1087.35 -3.20088 -1.05096 0
M  V30 12047 O 1087.88 -3.40503 -2.1312 0
M  V30 12048 N 1086.08 -2.73844 -0.972523 0
M  V30 12049 H 1085.63 -2.57431 -0.0933459 0
M  V30 12050 H 1085.59 -2.56204 -1.82228 0
M  V30 12051 N 1089.36 -0.901303 -1.29284 0
M  V30 12052 C 1090.77 -0.576317 -1.77582 0
M  V30 12053 C 1091.12 0.908078 -1.73921 0
M  V30 12054 O 1090.25 1.71006 -1.32611 0
M  V30 12055 C 1090.84 -1.03938 -3.22463 0
M  V30 12056 C 1089.4 -0.765533 -3.68533 0
M  V30 12057 C 1088.55 -1.21318 -2.49354 0
M  V30 12058 H 1091.5 -1.08386 -1.15923 0
M  V30 12059 H 1091.52 -0.375367 -3.78644 0
M  V30 12060 H 1091.03 -2.11977 -3.25096 0
M  V30 12061 H 1089.13 0.302176 -3.71373 0
M  V30 12062 H 1089.25 -1.36454 -4.59257 0
M  V30 12063 H 1087.61 -0.632141 -2.46731 0
M  V30 12064 H 1088.39 -2.30165 -2.54714 0
M  V30 12065 N 1090.84 1.42931 -0.663954 0
M  V30 12066 C 1092.07 2.06028 -0.189808 0
M  V30 12067 C 1092.48 1.49827 1.14879 0
M  V30 12068 O 1091.84 0.633778 1.71142 0
M  V30 12069 C 1091.89 3.61349 -0.104343 0
M  V30 12070 O 1091.61 4.15463 -1.39004 0
M  V30 12071 C 1093.11 4.4154 0.394599 0
M  V30 12072 H 1090.33 0.664259 -0.0948744 0
M  V30 12073 H 1092.87 1.83255 -0.907632 0
M  V30 12074 H 1091.03 3.83271 0.564103 0
M  V30 12075 H 1091.44 5.09233 -1.25626 0
M  V30 12076 H 1092.92 5.50525 0.403329 0
M  V30 12077 H 1093.39 4.1534 1.4279 0
M  V30 12078 H 1094 4.24612 -0.241729 0
M  V30 12079 N 1092.32 0.406567 1.52266 0
M  V30 12080 C 1093.56 -0.169717 2.01386 0
M  V30 12081 C 1093.88 -1.45864 1.29417 0
M  V30 12082 O 1093.15 -1.9136 0.419327 0
M  V30 12083 H 1091.73 -0.0657075 0.744105 0
M  V30 12084 H 1094.4 0.542221 1.87206 0
M  V30 12085 H 1093.49 -0.367659 3.09927 0
M  V30 12086 N 1093.79 -1.57004 0.136909 0
M  V30 12087 C 1095.21 -1.82675 -0.385577 0
M  V30 12088 C 1095.56 -1.05508 -1.65416 0
M  V30 12089 O 1094.68 -0.297207 -2.14349 0
M  V30 12090 C 1095.28 -3.31356 -0.706326 0
M  V30 12091 C 1093.84 -3.57644 -1.17337 0
M  V30 12092 C 1092.98 -2.7664 -0.191239 0
M  V30 12093 H 1095.93 -1.54522 0.36177 0
M  V30 12094 H 1095.95 -3.4696 -1.56201 0
M  V30 12095 H 1095.47 -3.87492 0.217147 0
M  V30 12096 H 1093.57 -3.06883 -2.11313 0
M  V30 12097 H 1093.68 -4.66152 -1.10632 0
M  V30 12098 H 1092.04 -2.45403 -0.681867 0
M  V30 12099 H 1092.83 -3.35543 0.725647 0
M  V30 12100 N 1095.27 0.136881 -1.57004 0
M  V30 12101 C 1096.5 0.862436 -1.88068 0
M  V30 12102 C 1096.92 1.74274 -0.726227 0
M  V30 12103 O 1096.27 1.79956 0.30366 0
M  V30 12104 C 1096.32 1.71076 -3.18458 0
M  V30 12105 O 1096.04 0.865918 -4.29457 0
M  V30 12106 C 1097.55 2.54302 -3.63105 0
M  V30 12107 H 1094.77 0.248865 -0.623143 0
M  V30 12108 H 1097.31 0.126633 -2.04108 0
M  V30 12109 H 1095.46 2.39951 -3.04142 0
M  V30 12110 H 1095.88 1.4493 -5.04079 0
M  V30 12111 H 1097.35 3.09384 -4.57149 0
M  V30 12112 H 1097.83 3.3082 -2.88886 0
M  V30 12113 H 1098.44 1.907 -3.80149 0
M  V30 12114 N 1096.75 1.52266 0.40654 0
M  V30 12115 C 1098 1.66699 1.15496 0
M  V30 12116 C 1098.33 0.397019 1.90098 0
M  V30 12117 O 1097.6 -0.604646 1.84863 0
M  V30 12118 C 1097.89 2.8907 2.14734 0
M  V30 12119 C 1097.74 4.26123 1.44012 0
M  V30 12120 C 1099.06 3.06966 3.15373 0
M  V30 12121 H 1096.18 0.606642 0.418515 0
M  V30 12122 H 1098.82 1.84826 0.440381 0
M  V30 12123 H 1096.97 2.73745 2.75673 0
M  V30 12124 H 1098.64 4.5318 0.861722 0
M  V30 12125 H 1096.89 4.27406 0.742064 0
M  V30 12126 H 1097.56 5.07799 2.16436 0
M  V30 12127 H 1100.03 3.21205 2.64512 0
M  V30 12128 H 1098.91 3.94097 3.82072 0
M  V30 12129 H 1099.17 2.20395 3.83247 0
M  V30 12130 N 1098.23 -0.663929 1.42933 0
M  V30 12131 C 1099.45 -1.45691 1.47611 0
M  V30 12132 C 1099.88 -1.87875 0.0920305 0
M  V30 12133 O 1099.24 -1.56696 -0.91192 0
M  V30 12134 C 1099.28 -2.67517 2.41799 0
M  V30 12135 O 1098.39 -3.66187 1.89686 0
M  V30 12136 H 1097.73 -0.437257 0.499702 0
M  V30 12137 H 1100.26 -0.813397 1.87737 0
M  V30 12138 H 1100.27 -3.1546 2.58745 0
M  V30 12139 H 1098.94 -2.36155 3.4235 0
M  V30 12140 H 1097.52 -3.25274 1.82349 0
M  V30 12141 N 1099.71 -1.29285 -0.901281 0
M  V30 12142 C 1100.95 -1.18431 -1.66594 0
M  V30 12143 C 1101.31 0.260312 -1.90227 0
M  V30 12144 O 1102.51 0.4918 -2.64263 0
M  V30 12145 C 1100.78 -1.97357 -2.97968 0
M  V30 12146 S 1102.34 -2.03019 -3.8901 0
M  V30 12147 H 1099.16 -0.422323 -0.571983 0
M  V30 12148 H 1101.76 -1.63551 -1.07105 0
M  V30 12149 H 1100.47 -3.01459 -2.78479 0
M  V30 12150 H 1100 -1.52836 -3.62498 0
M  V30 12151 H 1102.01 -1.14572 -4.82791 0
M  V30 12152 N 1101.18 1.11143 -1.11736 0
M  V30 12153 C 1102.11 2.19339 -0.800795 0
M  V30 12154 C 1103.1 1.68508 0.23221 0
M  V30 12155 O 1104.28 1.93967 0.0950063 0
M  V30 12156 C 1101.41 3.46424 -0.246579 0
M  V30 12157 C 1100.36 4.10487 -1.21181 0
M  V30 12158 C 1099.69 5.32183 -0.518158 0
M  V30 12159 C 1100.99 4.55052 -2.56368 0
M  V30 12160 H 1102.68 2.46077 -1.70548 0
M  V30 12161 H 1100.23 1.18271 -0.821454 0
M  V30 12162 H 1102.18 4.21398 -0.0128889 0
M  V30 12163 H 1100.91 3.19154 0.693415 0
M  V30 12164 H 1099.57 3.3751 -1.43118 0
M  V30 12165 H 1099.21 5.01187 0.426742 0
M  V30 12166 H 1098.91 5.75997 -1.16196 0
M  V30 12167 H 1100.44 6.09895 -0.293333 0
M  V30 12168 H 1101.85 5.21335 -2.38501 0
M  V30 12169 H 1100.25 5.0969 -3.16758 0
M  V30 12170 H 1101.32 3.68343 -3.1536 0
M  V30 12171 N 1102.66 0.908147 1.28804 0
M  V30 12172 C 1104.08 0.605474 1.47669 0
M  V30 12173 C 1104.28 -0.850759 1.82659 0
M  V30 12174 O 1103.33 -1.63029 1.92816 0
M  V30 12175 C 1104.65 1.53856 2.58358 0
M  V30 12176 C 1106.2 1.54467 2.7223 0
M  V30 12177 C 1106.67 2.46424 3.86056 0
M  V30 12178 N 1108.16 2.44519 3.93402 0
M  V30 12179 C 1108.9 3.12371 4.80845 0
M  V30 12180 N 1108.39 3.89533 5.72919 0
M  V30 12181 N 1110.19 3.01486 4.74407 0
M  V30 12182 H 1102.34 1.84988 1.04371 0
M  V30 12183 H 1104.6 0.793132 0.519274 0
M  V30 12184 H 1104.31 2.57651 2.39393 0
M  V30 12185 H 1104.18 1.26543 3.5534 0
M  V30 12186 H 1106.57 0.514127 2.90587 0
M  V30 12187 H 1106.65 1.85821 1.75796 0
M  V30 12188 H 1106.29 3.49577 3.68454 0
M  V30 12189 H 1106.22 2.12375 4.81876 0
M  V30 12190 H 1108.71 1.88464 3.27551 0
M  V30 12191 H 1109.03 4.3834 6.36457 0
M  V30 12192 H 1107.37 3.93639 5.72777 0
M  V30 12193 H 1110.56 2.40713 4.01466 0
M  V30 12194 H 1110.73 3.5464 5.42342 0
M  V30 12195 N 1104.14 -1.42577 0.671525 0
M  V30 12196 C 1105.09 -2.27978 -0.0315286 0
M  V30 12197 C 1106.07 -1.40907 -0.776796 0
M  V30 12198 O 1107.27 -1.64385 -0.656248 0
M  V30 12199 C 1104.4 -3.28884 -0.9844 0
M  V30 12200 C 1103.48 -4.23439 -0.236647 0
M  V30 12201 N 1103.87 -5.00107 0.756714 0
M  V30 12202 C 1102.17 -4.43457 -0.475551 0
M  V30 12203 C 1102.87 -5.69141 1.20221 0
M  V30 12204 N 1101.85 -5.40983 0.532802 0
M  V30 12205 H 1105.65 -2.84678 0.730455 0
M  V30 12206 H 1103.16 -1.54501 0.500317 0
M  V30 12207 H 1105.16 -3.88864 -1.50302 0
M  V30 12208 H 1103.82 -2.73745 -1.74625 0
M  V30 12209 H 1104.83 -5.05285 1.13613 0
M  V30 12210 H 1101.51 -3.99364 -1.21715 0
M  V30 12211 H 1102.9 -6.40653 2.02517 0
M  V30 12212 N 1105.62 -0.414636 -1.52048 0
M  V30 12213 C 1106.86 0.151945 -2.02832 0
M  V30 12214 C 1107.22 1.42337 -1.29452 0
M  V30 12215 O 1106.51 1.87509 -0.39383 0
M  V30 12216 C 1106.71 0.448327 -3.54577 0
M  V30 12217 C 1106.54 -0.792827 -4.42656 0
M  V30 12218 C 1105.31 -1.31966 -4.87763 0
M  V30 12219 C 1107.5 -1.67252 -4.86345 0
M  V30 12220 N 1105.49 -2.51572 -5.59986 0
M  V30 12221 C 1106.86 -2.71479 -5.57404 0
M  V30 12222 C 1108.91 -1.68963 -4.68354 0
M  V30 12223 C 1107.61 -3.77334 -6.12382 0
M  V30 12224 C 1109.64 -2.7374 -5.24233 0
M  V30 12225 C 1109 -3.76687 -5.95219 0
M  V30 12226 H 1105.1 0.0170247 -0.781815 0
M  V30 12227 H 1107.69 -0.570219 -1.86163 0
M  V30 12228 H 1105.86 1.13953 -3.71307 0
M  V30 12229 H 1107.59 1.00427 -3.92041 0
M  V30 12230 H 1104.34 -0.876885 -4.65411 0
M  V30 12231 H 1104.77 -3.12161 -6.00737 0
M  V30 12232 H 1109.41 -0.907103 -4.12955 0
M  V30 12233 H 1107.13 -4.56439 -6.6685 0
M  V30 12234 H 1110.71 -2.75978 -5.12179 0
M  V30 12235 H 1109.59 -4.56431 -6.37684 0
M  V30 12236 N 1107.1 1.56929 -0.145233 0
M  V30 12237 C 1108.05 2.13246 0.806846 0
M  V30 12238 C 1109.03 1.05984 1.21063 0
M  V30 12239 O 1110.22 1.32165 1.17734 0
M  V30 12240 C 1107.35 2.75622 2.04663 0
M  V30 12241 C 1106.44 3.90006 1.66603 0
M  V30 12242 N 1106.83 4.95946 0.993545 0
M  V30 12243 C 1105.13 4.0068 1.95886 0
M  V30 12244 C 1105.83 5.76032 0.810087 0
M  V30 12245 N 1104.8 5.26739 1.34339 0
M  V30 12246 H 1108.61 2.92527 0.283806 0
M  V30 12247 H 1106.12 1.62302 0.0563676 0
M  V30 12248 H 1108.12 3.14329 2.73867 0
M  V30 12249 H 1106.78 1.97815 2.57487 0
M  V30 12250 H 1107.79 5.13748 0.654508 0
M  V30 12251 H 1104.46 3.33946 2.50572 0
M  V30 12252 H 1105.85 6.71315 0.280209 0
M  V30 12253 N 1108.58 -0.128553 1.57075 0
M  V30 12254 C 1109.51 -1.18822 1.94825 0
M  V30 12255 C 1110.49 -1.40609 0.816571 0
M  V30 12256 O 1111.67 -1.5492 1.07388 0
M  V30 12257 C 1108.8 -2.54383 2.23623 0
M  V30 12258 C 1107.84 -2.4908 3.4621 0
M  V30 12259 S 1108.68 -1.93974 4.99133 0
M  V30 12260 C 1109.83 -3.31228 5.31074 0
M  V30 12261 H 1110.07 -0.866246 2.844 0
M  V30 12262 H 1107.6 -0.334927 1.50724 0
M  V30 12263 H 1109.56 -3.32386 2.40893 0
M  V30 12264 H 1108.22 -2.83761 1.34678 0
M  V30 12265 H 1107.41 -3.48915 3.63695 0
M  V30 12266 H 1107.01 -1.79193 3.28277 0
M  V30 12267 H 1109.3 -4.27407 5.25671 0
M  V30 12268 H 1110.25 -3.18578 6.32387 0
M  V30 12269 H 1110.66 -3.29215 4.5856 0
M  V30 12270 N 1110.05 -1.5248 -0.398459 0
M  V30 12271 C 1111.3 -1.66731 -1.14215 0
M  V30 12272 C 1111.62 -0.404957 -1.90749 0
M  V30 12273 O 1110.89 0.580434 -1.87104 0
M  V30 12274 H 1109.47 -0.614577 -0.424622 0
M  V30 12275 H 1112.13 -1.89561 -0.453059 0
M  V30 12276 H 1111.23 -2.51336 -1.85031 0
M  V30 12277 N 1111.53 0.65634 -1.43283 0
M  V30 12278 C 1112.81 1.41339 -1.35213 0
M  V30 12279 C 1113.19 2.111 0.00158494 0
M  V30 12280 O 1112.54 2.0457 1.018 0
M  V30 12281 C 1112.75 2.40066 -2.53317 0
M  V30 12282 C 1114.09 3.04159 -2.96264 0
M  V30 12283 O 1115.12 2.50393 -2.53341 0
M  V30 12284 O 1113.98 4.01633 -3.70612 0
M  V30 12285 H 1111.07 0.631325 -0.534189 0
M  V30 12286 H 1113.62 0.68351 -1.55326 0
M  V30 12287 H 1112.39 1.87444 -3.43483 0
M  V30 12288 H 1112.01 3.20509 -2.35287 0
M  V30 12289 N 1113.01 1.29761 0.894412 0
M  V30 12290 C 1114.26 1.18039 1.64539 0
M  V30 12291 C 1114.58 -0.26697 1.92659 0
M  V30 12292 O 1113.84 -1.20865 1.53916 0
M  V30 12293 C 1114.14 1.94458 2.99868 0
M  V30 12294 C 1113.8 3.44143 2.91336 0
M  V30 12295 C 1112.47 3.84963 2.88716 0
M  V30 12296 C 1114.82 4.39503 2.80154 0
M  V30 12297 C 1112.15 5.19451 2.72741 0
M  V30 12298 C 1114.5 5.74088 2.65718 0
M  V30 12299 C 1113.16 6.14159 2.61467 0
M  V30 12300 H 1112.43 0.431936 0.60209 0
M  V30 12301 H 1115.08 1.60758 1.04063 0
M  V30 12302 H 1113.38 1.44346 3.64241 0
M  V30 12303 H 1115.08 1.82788 3.56917 0
M  V30 12304 H 1111.67 3.11699 2.9418 0
M  V30 12305 H 1115.86 4.08915 2.81251 0
M  V30 12306 H 1111.11 5.49602 2.67858 0
M  V30 12307 H 1115.29 6.47625 2.56038 0
M  V30 12308 H 1112.91 7.18317 2.48847 0
M  V30 12309 N 1114.49 -1.10549 1.12324 0
M  V30 12310 C 1115.73 -1.82941 0.889043 0
M  V30 12311 C 1116.09 -1.83483 -0.578935 0
M  V30 12312 O 1115.38 -1.28365 -1.42243 0
M  V30 12313 C 1115.58 -3.28997 1.39626 0
M  V30 12314 C 1115.4 -3.42683 2.91202 0
M  V30 12315 C 1114.17 -3.55164 3.59426 0
M  V30 12316 C 1116.37 -3.36187 3.89208 0
M  V30 12317 N 1114.35 -3.57414 4.99128 0
M  V30 12318 C 1115.73 -3.45168 5.15033 0
M  V30 12319 C 1117.78 -3.19778 3.81637 0
M  V30 12320 C 1116.48 -3.39431 6.34176 0
M  V30 12321 C 1118.51 -3.15362 5.003 0
M  V30 12322 C 1117.87 -3.24924 6.24983 0
M  V30 12323 H 1113.97 -0.684249 0.378585 0
M  V30 12324 H 1116.55 -1.32206 1.42932 0
M  V30 12325 H 1114.73 -3.78228 0.883051 0
M  V30 12326 H 1116.46 -3.89343 1.10425 0
M  V30 12327 H 1113.21 -3.5812 3.09914 0
M  V30 12328 H 1113.64 -3.62153 5.71991 0
M  V30 12329 H 1118.28 -3.11264 2.86137 0
M  V30 12330 H 1116 -3.46711 7.29943 0
M  V30 12331 H 1119.58 -3.03819 4.96171 0
M  V30 12332 H 1118.46 -3.21508 7.15264 0
M  V30 12333 N 1115.97 -0.914965 -1.28321 0
M  V30 12334 C 1116.92 -0.375436 -2.24888 0
M  V30 12335 C 1117.9 0.51313 -1.52498 0
M  V30 12336 O 1119.09 0.352654 -1.73451 0
M  V30 12337 C 1116.22 0.382266 -3.41165 0
M  V30 12338 C 1115.31 -0.522089 -4.20874 0
M  V30 12339 N 1115.7 -1.63623 -4.78603 0
M  V30 12340 C 1114 -0.322703 -4.44831 0
M  V30 12341 C 1114.7 -2.19766 -5.38589 0
M  V30 12342 N 1113.67 -1.48878 -5.22816 0
M  V30 12343 H 1117.47 -1.2263 -2.67094 0
M  V30 12344 H 1114.99 -0.767759 -1.43106 0
M  V30 12345 H 1116.99 0.785641 -4.0943 0
M  V30 12346 H 1115.65 1.23021 -3.00493 0
M  V30 12347 H 1116.66 -2.01879 -4.76933 0
M  V30 12348 H 1113.33 0.485627 -4.14666 0
M  V30 12349 H 1114.72 -3.13494 -5.94282 0
M  V30 12350 N 1117.44 1.42219 -0.679077 0
M  V30 12351 C 1118.67 2.06333 -0.210097 0
M  V30 12352 C 1119.09 1.50703 1.12562 0
M  V30 12353 O 1118.45 0.627241 1.70104 0
M  V30 12354 C 1118.5 3.60243 -0.160322 0
M  V30 12355 O 1117.6 4.03122 0.869872 0
M  V30 12356 H 1116.94 0.655362 -0.106754 0
M  V30 12357 H 1119.47 1.82278 -0.929294 0
M  V30 12358 H 1119.48 4.07997 0.014384 0
M  V30 12359 H 1118.16 4.00106 -1.13526 0
M  V30 12360 H 1116.74 3.66907 0.66586 0
M  V30 12361 N 1118.92 0.422693 1.51826 0
M  V30 12362 C 1120.17 -0.148641 2.01954 0
M  V30 12363 C 1120.5 -1.43982 1.30765 0
M  V30 12364 O 1119.75 -1.91428 0.406668 0
M  V30 12365 C 1120.05 -0.429516 3.5481 0
M  V30 12366 C 1119.72 0.774088 4.44206 0
M  V30 12367 C 1118.38 1.1042 4.6836 0
M  V30 12368 C 1120.73 1.5777 4.96747 0
M  V30 12369 C 1118.06 2.23887 5.42302 0
M  V30 12370 C 1120.41 2.70325 5.71933 0
M  V30 12371 C 1119.07 3.03807 5.94355 0
M  V30 12372 H 1118.34 -0.0543917 0.739001 0
M  V30 12373 H 1120.99 0.566892 1.82917 0
M  V30 12374 H 1119.3 -1.22678 3.72099 0
M  V30 12375 H 1120.99 -0.884761 3.91118 0
M  V30 12376 H 1117.58 0.506834 4.25593 0
M  V30 12377 H 1121.77 1.33589 4.77983 0
M  V30 12378 H 1117.02 2.50159 5.5788 0
M  V30 12379 H 1121.2 3.32974 6.11638 0
M  V30 12380 H 1118.82 3.91844 6.51431 0
M  V30 12381 N 1120.4 -1.5685 0.153553 0
M  V30 12382 C 1121.33 -2.20101 -0.779601 0
M  V30 12383 C 1122.31 -1.15121 -1.25225 0
M  V30 12384 O 1123.5 -1.43487 -1.30862 0
M  V30 12385 C 1120.63 -2.82778 -2.01628 0
M  V30 12386 C 1119.58 -3.93643 -1.68015 0
M  V30 12387 C 1118.91 -4.43286 -2.99001 0
M  V30 12388 C 1120.21 -5.14102 -0.921774 0
M  V30 12389 H 1121.9 -2.98334 -0.252432 0
M  V30 12390 H 1119.45 -1.43499 -0.119975 0
M  V30 12391 H 1121.4 -3.25696 -2.67395 0
M  V30 12392 H 1120.12 -2.01887 -2.56728 0
M  V30 12393 H 1118.78 -3.51354 -1.04624 0
M  V30 12394 H 1118.43 -3.59208 -3.52106 0
M  V30 12395 H 1118.13 -5.18068 -2.77272 0
M  V30 12396 H 1119.65 -4.88878 -3.65828 0
M  V30 12397 H 1121.07 -5.53823 -1.48167 0
M  V30 12398 H 1119.46 -5.94687 -0.804185 0
M  V30 12399 H 1120.53 -4.84825 0.0852757 0
M  V30 12400 N 1121.88 0.120221 -1.57141 0
M  V30 12401 C 1123.12 0.829449 -1.85062 0
M  V30 12402 C 1123.46 1.79585 -0.739116 0
M  V30 12403 O 1122.73 1.92819 0.255147 0
M  V30 12404 C 1123.01 1.58042 -3.23566 0
M  V30 12405 C 1122.87 0.633706 -4.45314 0
M  V30 12406 C 1124.19 2.53688 -3.59625 0
M  V30 12407 H 1121.31 0.300086 -0.67314 0
M  V30 12408 H 1123.95 0.0937393 -1.89769 0
M  V30 12409 H 1122.1 2.20758 -3.19684 0
M  V30 12410 H 1123.77 0.0154836 -4.61297 0
M  V30 12411 H 1122.01 -0.054846 -4.33765 0
M  V30 12412 H 1122.68 1.19577 -5.38893 0
M  V30 12413 H 1125.16 2.01078 -3.6429 0
M  V30 12414 H 1124.04 3.03265 -4.57516 0
M  V30 12415 H 1124.3 3.36296 -2.8698 0
M  V30 12416 N 1123.36 1.52689 0.390367 0
M  V30 12417 C 1124.6 1.67914 1.13722 0
M  V30 12418 C 1124.94 0.417159 1.89667 0
M  V30 12419 O 1124.21 -0.585005 1.85494 0
M  V30 12420 C 1124.49 2.91331 2.11656 0
M  V30 12421 C 1124.35 4.27626 1.39484 0
M  V30 12422 C 1125.67 3.10293 3.12099 0
M  V30 12423 H 1122.78 0.611047 0.412057 0
M  V30 12424 H 1125.43 1.85283 0.420753 0
M  V30 12425 H 1123.58 2.76654 2.72754 0
M  V30 12426 H 1125.25 4.54068 0.813607 0
M  V30 12427 H 1123.49 4.28169 0.69669 0
M  V30 12428 H 1124.16 5.10066 2.11038 0
M  V30 12429 H 1126.64 3.23992 2.6109 0
M  V30 12430 H 1125.51 3.98127 3.7787 0
M  V30 12431 H 1125.78 2.24448 3.80888 0
M  V30 12432 N 1124.83 -0.648732 1.43629 0
M  V30 12433 C 1126.08 -1.40857 1.45483 0
M  V30 12434 C 1126.41 -1.94332 0.0807963 0
M  V30 12435 O 1125.66 -1.72999 -0.914875 0
M  V30 12436 C 1125.96 -2.60394 2.44806 0
M  V30 12437 C 1125.63 -2.25311 3.90571 0
M  V30 12438 C 1124.29 -2.15456 4.3027 0
M  V30 12439 C 1126.64 -1.97307 4.8241 0
M  V30 12440 C 1123.97 -1.75759 5.59755 0
M  V30 12441 C 1126.32 -1.59108 6.12264 0
M  V30 12442 C 1124.99 -1.47781 6.50936 0
M  V30 12443 H 1124.26 -0.515434 0.532362 0
M  V30 12444 H 1126.9 -0.737339 1.76736 0
M  V30 12445 H 1125.21 -3.3267 2.06973 0
M  V30 12446 H 1126.91 -3.18609 2.43494 0
M  V30 12447 H 1123.5 -2.33894 3.59154 0
M  V30 12448 H 1127.68 -2.0384 4.52507 0
M  V30 12449 H 1122.94 -1.65579 5.88552 0
M  V30 12450 H 1127.11 -1.36472 6.82897 0
M  V30 12451 H 1124.74 -1.16792 7.51175 0
M  V30 12452 N 1126.31 -1.30234 -0.887518 0
M  V30 12453 C 1127.73 -1.0851 -1.17037 0
M  V30 12454 C 1127.93 0.155788 -2.00897 0
M  V30 12455 O 1126.98 0.850123 -2.37759 0
M  V30 12456 C 1128.3 -2.34723 -1.87951 0
M  V30 12457 C 1129.85 -2.40163 -2.00726 0
M  V30 12458 C 1130.32 -3.66211 -2.75051 0
M  V30 12459 N 1131.81 -3.67004 -2.82599 0
M  V30 12460 C 1132.55 -4.61224 -3.40676 0
M  V30 12461 N 1132.04 -5.65786 -3.99823 0
M  V30 12462 N 1133.84 -4.48772 -3.38467 0
M  V30 12463 H 1125.99 -2.09847 -0.328297 0
M  V30 12464 H 1128.25 -0.924904 -0.20798 0
M  V30 12465 H 1127.96 -3.25265 -1.33773 0
M  V30 12466 H 1127.83 -2.43175 -2.8835 0
M  V30 12467 H 1130.22 -1.50101 -2.54074 0
M  V30 12468 H 1130.3 -2.35688 -0.994218 0
M  V30 12469 H 1129.94 -4.56631 -2.22376 0
M  V30 12470 H 1129.87 -3.67947 -3.76726 0
M  V30 12471 H 1132.36 -2.91409 -2.40602 0
M  V30 12472 H 1132.68 -6.33783 -4.42197 0
M  V30 12473 H 1131.02 -5.69581 -3.9825 0
M  V30 12474 H 1134.21 -3.6627 -2.91485 0
M  V30 12475 H 1134.38 -5.22382 -3.83433 0
M  V30 12476 N 1127.79 1.09952 -1.12909 0
M  V30 12477 C 1129.04 1.81386 -0.882163 0
M  V30 12478 C 1129.35 1.86376 0.593592 0
M  V30 12479 O 1130.56 2.54064 0.957275 0
M  V30 12480 C 1129.01 3.25824 -1.52861 0
M  V30 12481 C 1128.62 3.29117 -3.0395 0
M  V30 12482 C 1130.37 4.02051 -1.36216 0
M  V30 12483 C 1128.27 4.68047 -3.61505 0
M  V30 12484 H 1127.2 0.679701 -0.326378 0
M  V30 12485 H 1129.85 1.23614 -1.35616 0
M  V30 12486 H 1128.24 3.83624 -0.982271 0
M  V30 12487 H 1129.41 2.81114 -3.65119 0
M  V30 12488 H 1127.73 2.66379 -3.20049 0
M  V30 12489 H 1130.32 5.04683 -1.76633 0
M  V30 12490 H 1130.67 4.15171 -0.306391 0
M  V30 12491 H 1131.2 3.5068 -1.87799 0
M  V30 12492 H 1127.94 4.60128 -4.66865 0
M  V30 12493 H 1127.46 5.16397 -3.05114 0
M  V30 12494 H 1129.14 5.37018 -3.6086 0
M  V30 12495 N 1129.27 0.921757 1.27833 0
M  V30 12496 C 1130.2 0.433466 2.29441 0
M  V30 12497 C 1131.18 -0.503133 1.62489 0
M  V30 12498 O 1132.36 -0.409156 1.89841 0
M  V30 12499 C 1129.49 -0.320029 3.45822 0
M  V30 12500 C 1128.45 0.528178 4.24728 0
M  V30 12501 C 1127.77 -0.354132 5.33526 0
M  V30 12502 C 1129.07 1.78959 4.90684 0
M  V30 12503 H 1130.77 1.28263 2.70535 0
M  V30 12504 H 1128.31 0.618197 1.30055 0
M  V30 12505 H 1130.27 -0.672526 4.15999 0
M  V30 12506 H 1128.99 -1.20317 3.0363 0
M  V30 12507 H 1127.65 0.863302 3.5629 0
M  V30 12508 H 1127.3 -1.23605 4.87576 0
M  V30 12509 H 1127 0.209855 5.87225 0
M  V30 12510 H 1128.52 -0.702333 6.06547 0
M  V30 12511 H 1129.94 1.50552 5.53179 0
M  V30 12512 H 1128.33 2.29661 5.54415 0
M  V30 12513 H 1129.4 2.51265 4.14721 0
M  V30 12514 N 1130.75 -1.41857 0.686609 0
M  V30 12515 C 1131.99 -2.03236 0.217839 0
M  V30 12516 C 1132.35 -1.5317 -1.15771 0
M  V30 12517 O 1133.55 -2.06415 -1.72181 0
M  V30 12518 C 1131.82 -3.56428 0.263443 0
M  V30 12519 S 1133.38 -4.386 -0.132595 0
M  V30 12520 H 1130.2 -0.705472 0.088487 0
M  V30 12521 H 1132.8 -1.73428 0.902393 0
M  V30 12522 H 1131.51 -3.90362 1.26672 0
M  V30 12523 H 1131.04 -3.90925 -0.440556 0
M  V30 12524 H 1133.05 -4.77119 -1.3628 0
M  V30 12525 N 1132.22 -0.430739 -1.51599 0
M  V30 12526 C 1133.47 0.137657 -2.01631 0
M  V30 12527 C 1133.79 1.43787 -1.31721 0
M  V30 12528 O 1133.06 1.90668 -0.449717 0
M  V30 12529 H 1131.64 0.0538611 -0.745056 0
M  V30 12530 H 1134.31 -0.571935 -1.86319 0
M  V30 12531 H 1133.4 0.318305 -3.10473 0
M  V30 12532 N 1133.7 1.56767 -0.161869 0
M  V30 12533 C 1134.61 2.21083 0.784814 0
M  V30 12534 C 1135.63 1.19959 1.26039 0
M  V30 12535 O 1136.8 1.52588 1.31449 0
M  V30 12536 C 1133.87 2.83153 2.00063 0
M  V30 12537 C 1132.93 3.9945 1.57285 0
M  V30 12538 C 1132.16 4.5855 2.7307 0
M  V30 12539 O 1132.39 4.16534 3.89686 0
M  V30 12540 O 1131.32 5.48575 2.47688 0
M  V30 12541 H 1135.15 3.02522 0.267243 0
M  V30 12542 H 1132.73 1.49255 0.0658783 0
M  V30 12543 H 1134.61 3.22546 2.71186 0
M  V30 12544 H 1133.29 2.04718 2.50744 0
M  V30 12545 H 1132.2 3.64745 0.831393 0
M  V30 12546 H 1133.53 4.7945 1.11304 0
M  V30 12547 N 1135.18 -0.111886 1.57202 0
M  V30 12548 C 1136.43 -0.8146 1.86376 0
M  V30 12549 C 1136.78 -1.77156 0.750558 0
M  V30 12550 O 1136.07 -1.89977 -0.248867 0
M  V30 12551 C 1136.27 -1.59644 3.19763 0
M  V30 12552 C 1136.1 -0.71669 4.43952 0
M  V30 12553 C 1134.87 -0.36881 5.03952 0
M  V30 12554 C 1137.07 -0.0311316 5.14291 0
M  V30 12555 N 1135.05 0.520861 6.11686 0
M  V30 12556 C 1136.42 0.71726 6.15837 0
M  V30 12557 C 1138.47 0.0445453 4.9788 0
M  V30 12558 C 1137.18 1.53423 7.02747 0
M  V30 12559 C 1139.2 0.848364 5.85283 0
M  V30 12560 C 1138.56 1.58493 6.86338 0
M  V30 12561 H 1134.66 -0.274785 0.732132 0
M  V30 12562 H 1137.25 -0.0779628 1.94544 0
M  V30 12563 H 1135.42 -2.30407 3.12678 0
M  V30 12564 H 1137.15 -2.24504 3.36719 0
M  V30 12565 H 1133.91 -0.712671 4.68207 0
M  V30 12566 H 1134.33 0.957756 6.70191 0
M  V30 12567 H 1138.97 -0.510564 4.19706 0
M  V30 12568 H 1136.69 2.10047 7.80324 0
M  V30 12569 H 1140.28 0.909372 5.74649 0
M  V30 12570 H 1139.16 2.19691 7.52798 0
M  V30 12571 N 1136.66 -1.52894 -0.382264 0
M  V30 12572 C 1137.91 -1.67489 -1.12385 0
M  V30 12573 C 1138.22 -0.424565 -1.90937 0
M  V30 12574 O 1139.43 -0.450763 -2.67732 0
M  V30 12575 C 1137.88 -2.96019 -2.04697 0
M  V30 12576 C 1137.49 -4.28255 -1.31535 0
M  V30 12577 C 1139.23 -3.19981 -2.78949 0
M  V30 12578 C 1137.14 -5.47887 -2.22652 0
M  V30 12579 H 1136.07 -0.624002 -0.423246 0
M  V30 12580 H 1138.72 -1.79392 -0.386107 0
M  V30 12581 H 1137.1 -2.77878 -2.82134 0
M  V30 12582 H 1138.28 -4.56971 -0.592771 0
M  V30 12583 H 1136.59 -4.10607 -0.692148 0
M  V30 12584 H 1139.19 -4.06541 -3.47316 0
M  V30 12585 H 1139.53 -2.35335 -3.43399 0
M  V30 12586 H 1140.07 -3.38718 -2.08602 0
M  V30 12587 H 1136.81 -6.3496 -1.62806 0
M  V30 12588 H 1136.33 -5.23473 -2.92807 0
M  V30 12589 H 1138 -5.82026 -2.82586 0
M  V30 12590 N 1138.14 0.641106 -1.43971 0
M  V30 12591 C 1139.05 1.78239 -1.52538 0
M  V30 12592 C 1140.06 1.6906 -0.411668 0
M  V30 12593 O 1141.24 1.90014 -0.66757 0
M  V30 12594 C 1138.3 3.14579 -1.45743 0
M  V30 12595 C 1137.37 3.35464 -2.67885 0
M  V30 12596 C 1136.6 4.65299 -2.61404 0
M  V30 12597 O 1136.82 5.45451 -1.66851 0
M  V30 12598 O 1135.76 4.8817 -3.521 0
M  V30 12599 H 1139.58 1.73965 -2.48937 0
M  V30 12600 H 1137.17 0.801098 -1.26106 0
M  V30 12601 H 1139.05 3.95873 -1.4444 0
M  V30 12602 H 1137.72 3.19417 -0.524837 0
M  V30 12603 H 1136.63 2.53888 -2.74758 0
M  V30 12604 H 1137.96 3.35481 -3.60157 0
M  V30 12605 N 1139.62 1.30703 0.880598 0
M  V30 12606 C 1140.56 1.17369 2.00817 0
M  V30 12607 C 1141.56 0.0845159 1.69189 0
M  V30 12608 O 1142.76 0.245673 1.78316 0
M  V30 12609 H 1139.14 0.363107 0.658527 0
M  V30 12610 H 1141.11 2.12789 2.09197 0
M  V30 12611 C 1139.86 0.886851 3.362 0
M  V30 12612 H 1139.18 1.71704 3.61051 0
M  V30 12613 H 1140.62 0.83368 4.15723 0
M  V30 12614 C 1139.08 -0.410293 3.34392 0
M  V30 12615 O 1139.61 -1.43044 3.75368 0
M  V30 12616 N 1137.82 -0.423023 2.87505 0
M  V30 12617 H 1137.36 0.407637 2.54354 0
M  V30 12618 H 1137.32 -1.29086 2.86678 0
M  V30 12619 N 1141.09 -1.09351 1.1349 0
M  V30 12620 C 1142.03 -2.15291 0.756645 0
M  V30 12621 C 1143 -1.60548 -0.257497 0
M  V30 12622 O 1144.19 -1.87912 -0.14882 0
M  V30 12623 C 1141.32 -3.38481 0.121799 0
M  V30 12624 C 1140.36 -4.11949 1.10456 0
M  V30 12625 S 1141.19 -4.6605 2.63738 0
M  V30 12626 C 1142.35 -5.92539 2.01615 0
M  V30 12627 H 1142.58 -2.47044 1.65398 0
M  V30 12628 H 1140.12 -1.21312 0.955129 0
M  V30 12629 H 1142.07 -4.09809 -0.238086 0
M  V30 12630 H 1140.74 -3.04945 -0.752821 0
M  V30 12631 H 1139.93 -5.00317 0.608195 0
M  V30 12632 H 1139.53 -3.46486 1.40795 0
M  V30 12633 H 1141.82 -6.63593 1.36569 0
M  V30 12634 H 1142.77 -6.46856 2.88068 0
M  V30 12635 H 1143.17 -5.45094 1.46741 0
M  V30 12636 N 1142.57 -0.928524 -1.27343 0
M  V30 12637 C 1143.82 -0.579726 -1.94963 0
M  V30 12638 C 1144.17 0.869595 -1.71627 0
M  V30 12639 O 1143.47 1.61223 -1.03526 0
M  V30 12640 C 1143.66 -0.84269 -3.47323 0
M  V30 12641 C 1143.49 -2.31602 -3.85474 0
M  V30 12642 C 1142.26 -2.96888 -4.08884 0
M  V30 12643 C 1144.46 -3.2936 -3.95002 0
M  V30 12644 N 1142.44 -4.34365 -4.33821 0
M  V30 12645 C 1143.81 -4.5205 -4.24324 0
M  V30 12646 C 1145.86 -3.24557 -3.7758 0
M  V30 12647 C 1144.57 -5.70539 -4.38038 0
M  V30 12648 C 1146.59 -4.4236 -3.9252 0
M  V30 12649 C 1145.96 -5.63828 -4.22229 0
M  V30 12650 H 1142.05 -0.262279 -0.736705 0
M  V30 12651 H 1144.64 -1.19531 -1.53689 0
M  V30 12652 H 1142.81 -0.256254 -3.87554 0
M  V30 12653 H 1144.54 -0.456438 -4.02118 0
M  V30 12654 H 1141.3 -2.47555 -4.03749 0
M  V30 12655 H 1141.72 -5.05488 -4.50345 0
M  V30 12656 H 1146.36 -2.31713 -3.53651 0
M  V30 12657 H 1144.08 -6.63849 -4.60793 0
M  V30 12658 H 1147.67 -4.40162 -3.80458 0
M  V30 12659 H 1146.55 -6.53463 -4.33539 0
M  V30 12660 N 1144.05 1.41491 -0.694123 0
M  V30 12661 C 1144.96 2.34583 -0.0283414 0
M  V30 12662 C 1145.98 1.5615 0.767662 0
M  V30 12663 O 1147.15 1.88637 0.705556 0
M  V30 12664 C 1144.22 3.34876 0.897726 0
M  V30 12665 C 1143.28 4.29197 0.0940905 0
M  V30 12666 C 1142.51 5.24699 0.976051 0
M  V30 12667 O 1142.73 5.25613 2.21556 0
M  V30 12668 O 1141.67 6.00387 0.426503 0
M  V30 12669 H 1145.49 2.93092 -0.795656 0
M  V30 12670 H 1143.08 1.4232 -0.45445 0
M  V30 12671 H 1144.96 3.96438 1.4288 0
M  V30 12672 H 1143.64 2.78812 1.64456 0
M  V30 12673 H 1142.54 3.70988 -0.481552 0
M  V30 12674 H 1143.88 4.88355 -0.614045 0
M  V30 12675 N 1145.53 0.438773 1.51369 0
M  V30 12676 C 1146.77 -0.126367 2.04009 0
M  V30 12677 C 1147.13 -1.39837 1.31566 0
M  V30 12678 O 1148.33 -2.04384 1.74587 0
M  V30 12679 C 1146.6 -0.338531 3.55793 0
M  V30 12680 S 1148.16 -0.866869 4.30152 0
M  V30 12681 H 1144.98 -0.0311763 0.710316 0
M  V30 12682 H 1147.58 0.598507 1.86113 0
M  V30 12683 H 1146.29 0.593555 4.06085 0
M  V30 12684 H 1145.82 -1.09044 3.77985 0
M  V30 12685 H 1147.83 -2.14427 4.47477 0
M  V30 12686 N 1147.01 -1.56678 0.170181 0
M  V30 12687 C 1147.94 -2.13747 -0.799203 0
M  V30 12688 C 1148.92 -1.06725 -1.22673 0
M  V30 12689 O 1150.1 -1.34694 -1.3187 0
M  V30 12690 C 1147.23 -2.67611 -2.07611 0
M  V30 12691 C 1146.27 -3.86994 -1.7927 0
M  V30 12692 S 1147.11 -5.26771 -0.962951 0
M  V30 12693 C 1148.26 -5.84039 -2.25054 0
M  V30 12694 H 1148.5 -2.95637 -0.313976 0
M  V30 12695 H 1146.03 -1.54336 -0.0444708 0
M  V30 12696 H 1147.99 -2.99291 -2.80954 0
M  V30 12697 H 1146.65 -1.85808 -2.53247 0
M  V30 12698 H 1145.84 -4.23006 -2.74011 0
M  V30 12699 H 1145.44 -3.56195 -1.14023 0
M  V30 12700 H 1147.73 -5.96883 -3.20525 0
M  V30 12701 H 1148.68 -6.81145 -1.93513 0
M  V30 12702 H 1149.09 -5.12449 -2.36763 0
M  V30 12703 N 1148.48 0.103547 -1.57259 0
M  V30 12704 C 1149.42 1.15225 -1.98131 0
M  V30 12705 C 1150.43 1.36793 -0.882692 0
M  V30 12706 O 1151.62 1.35595 -1.16088 0
M  V30 12707 C 1148.72 2.50941 -2.27776 0
M  V30 12708 C 1147.89 2.49765 -3.59077 0
M  V30 12709 C 1146.95 3.67344 -3.76756 0
M  V30 12710 O 1145.98 3.50221 -4.48702 0
M  V30 12711 N 1147.18 4.86504 -3.16692 0
M  V30 12712 H 1149.94 0.804448 -2.88702 0
M  V30 12713 H 1147.5 0.292636 -1.59233 0
M  V30 12714 H 1149.5 3.28186 -2.36804 0
M  V30 12715 H 1148.07 2.77843 -1.43255 0
M  V30 12716 H 1147.29 1.58125 -3.61096 0
M  V30 12717 H 1148.57 2.4605 -4.4535 0
M  V30 12718 H 1147.97 5.03319 -2.58236 0
M  V30 12719 H 1146.53 5.61371 -3.31218 0
M  V30 12720 N 1149.96 1.53094 0.37415 0
M  V30 12721 C 1150.87 1.81872 1.48188 0
M  V30 12722 C 1151.89 0.706487 1.59012 0
M  V30 12723 O 1153.06 0.995648 1.75068 0
M  V30 12724 C 1150.13 1.99494 2.83554 0
M  V30 12725 C 1149.19 3.23402 2.82329 0
M  V30 12726 C 1148.42 3.40174 4.11239 0
M  V30 12727 O 1148.65 2.61425 5.06965 0
M  V30 12728 O 1147.58 4.33493 4.17573 0
M  V30 12729 H 1151.41 2.75965 1.26795 0
M  V30 12730 H 1148.99 1.38368 0.56343 0
M  V30 12731 H 1150.87 2.12705 3.63778 0
M  V30 12732 H 1149.55 1.08591 3.04942 0
M  V30 12733 H 1148.45 3.15621 2.00834 0
M  V30 12734 H 1149.79 4.14199 2.65894 0
M  V30 12735 N 1151.44 -0.633461 1.44309 0
M  V30 12736 C 1152.4 -1.72743 1.50641 0
M  V30 12737 C 1153.4 -1.56031 0.388718 0
M  V30 12738 O 1154.59 -1.61568 0.651251 0
M  V30 12739 C 1151.72 -3.11804 1.37809 0
M  V30 12740 H 1152.92 -1.68503 2.48086 0
M  V30 12741 H 1150.47 -0.846912 1.31366 0
M  V30 12742 H 1151.21 -3.2164 0.414483 0
M  V30 12743 H 1150.99 -3.2534 2.18852 0
M  V30 12744 H 1152.48 -3.91538 1.45216 0
M  V30 12745 N 1152.92 -1.31168 -0.873655 0
M  V30 12746 C 1153.87 -1.18432 -2.00191 0
M  V30 12747 C 1154.86 -0.0934873 -1.69142 0
M  V30 12748 O 1156.07 -0.255126 -1.78183 0
M  V30 12749 H 1152.44 -0.366594 -0.656592 0
M  V30 12750 H 1154.41 -2.13896 -2.08065 0
M  V30 12751 C 1153.16 -0.904668 -3.35725 0
M  V30 12752 H 1152.48 -1.73617 -3.60135 0
M  V30 12753 H 1153.92 -0.855715 -4.15275 0
M  V30 12754 C 1152.38 0.392554 -3.34605 0
M  V30 12755 O 1152.91 1.41052 -3.76121 0
M  V30 12756 N 1151.12 0.40777 -2.87725 0
M  V30 12757 H 1150.67 -0.42112 -2.54134 0
M  V30 12758 H 1150.62 1.27564 -2.87358 0
M  V30 12759 N 1154.4 1.08748 -1.14068 0
M  V30 12760 C 1155.36 2.1375 -0.827266 0
M  V30 12761 C 1156.36 1.59936 0.166496 0
M  V30 12762 O 1157.55 1.74092 -0.0614305 0
M  V30 12763 C 1154.68 3.40106 -0.232557 0
M  V30 12764 H 1155.87 2.42985 -1.7578 0
M  V30 12765 H 1153.43 1.24402 -0.946244 0
M  V30 12766 H 1154.16 3.16503 0.706859 0
M  V30 12767 H 1153.95 3.8046 -0.948293 0
M  V30 12768 H 1155.44 4.17589 -0.0303662 0
M  V30 12769 N 1155.87 0.935264 1.26849 0
M  V30 12770 C 1157.1 0.595704 1.98661 0
M  V30 12771 C 1157.52 -0.821001 1.69237 0
M  V30 12772 O 1156.88 -1.55211 0.936982 0
M  V30 12773 C 1156.93 0.837275 3.50745 0
M  V30 12774 O 1156.03 -0.0934914 4.12294 0
M  V30 12775 H 1155.38 0.228512 0.623441 0
M  V30 12776 H 1157.91 1.25658 1.61466 0
M  V30 12777 H 1157.92 0.755827 4.00938 0
M  V30 12778 H 1156.59 1.86993 3.71492 0
M  V30 12779 H 1155.17 0.0385124 3.7288 0
M  V30 12780 N 1157.35 -1.41121 0.701616 0
M  V30 12781 C 1158.58 -2.05973 0.242896 0
M  V30 12782 C 1159 -1.52474 -1.10151 0
M  V30 12783 O 1158.36 -0.654224 -1.69085 0
M  V30 12784 C 1158.41 -3.59943 0.217614 0
M  V30 12785 O 1157.51 -4.04454 -0.805629 0
M  V30 12786 H 1156.85 -0.653581 0.117166 0
M  V30 12787 H 1159.38 -1.80777 0.958175 0
M  V30 12788 H 1159.39 -4.07969 0.0505267 0
M  V30 12789 H 1158.07 -3.98249 1.19877 0
M  V30 12790 H 1156.65 -3.6792 -0.607404 0
M  V30 12791 N 1158.83 -0.446794 -1.51134 0
M  V30 12792 C 1160.06 0.117242 -2.07068 0
M  V30 12793 C 1160.48 1.34877 -1.3111 0
M  V30 12794 O 1159.84 1.77856 -0.35172 0
M  V30 12795 C 1159.89 0.408616 -3.58277 0
M  V30 12796 O 1158.99 1.49345 -3.84408 0
M  V30 12797 H 1158.33 -0.00228458 -0.663996 0
M  V30 12798 H 1160.86 -0.63085 -1.94632 0
M  V30 12799 H 1160.87 0.656298 -4.02687 0
M  V30 12800 H 1159.55 -0.491444 -4.12986 0
M  V30 12801 H 1158.12 1.23499 -3.51856 0
M  V30 12802 N 1160.31 1.56586 -0.178487 0
M  V30 12803 C 1161.24 2.21313 0.744486 0
M  V30 12804 C 1162.22 1.17098 1.23377 0
M  V30 12805 O 1163.4 1.45551 1.28563 0
M  V30 12806 C 1160.53 2.8595 1.97103 0
M  V30 12807 C 1159.49 3.96266 1.61732 0
M  V30 12808 C 1158.81 4.47987 2.91911 0
M  V30 12809 C 1160.11 5.15503 0.839868 0
M  V30 12810 H 1161.81 2.98698 0.204938 0
M  V30 12811 H 1159.35 1.43672 0.0971306 0
M  V30 12812 H 1161.31 3.29909 2.6218 0
M  V30 12813 H 1160.03 2.05946 2.53484 0
M  V30 12814 H 1158.69 3.52974 0.990208 0
M  V30 12815 H 1158.34 3.64765 3.46346 0
M  V30 12816 H 1158.04 5.22413 2.68995 0
M  V30 12817 H 1159.56 4.94637 3.58004 0
M  V30 12818 H 1160.98 5.5611 1.39337 0
M  V30 12819 H 1159.37 5.95891 0.709473 0
M  V30 12820 H 1160.44 4.84628 -0.162396 0
M  V30 12821 N 1161.79 -0.095206 1.57312 0
M  V30 12822 C 1163.03 -0.804335 1.87909 0
M  V30 12823 C 1163.39 -1.75907 0.769465 0
M  V30 12824 O 1164.59 -2.51155 0.957846 0
M  V30 12825 C 1162.86 -1.51405 3.23746 0
M  V30 12826 S 1164.42 -2.26147 3.76036 0
M  V30 12827 H 1161.24 -0.267976 0.658567 0
M  V30 12828 H 1163.84 -0.0614682 1.95403 0
M  V30 12829 H 1162.55 -0.805066 4.02426 0
M  V30 12830 H 1162.08 -2.29681 3.1939 0
M  V30 12831 H 1164.09 -3.52284 3.49443 0
M  V30 12832 N 1163.26 -1.53291 -0.366026 0
M  V30 12833 C 1164.51 -1.69702 -1.11036 0
M  V30 12834 C 1164.84 -0.44728 -1.88979 0
M  V30 12835 O 1164.12 0.55542 -1.86401 0
M  V30 12836 C 1164.4 -2.94661 -2.06995 0
M  V30 12837 C 1164.25 -4.29791 -1.32663 0
M  V30 12838 C 1165.57 -3.15219 -3.07123 0
M  V30 12839 H 1162.69 -0.617525 -0.402284 0
M  V30 12840 H 1165.33 -1.85929 -0.391223 0
M  V30 12841 H 1163.48 -2.80958 -2.68318 0
M  V30 12842 H 1165.16 -4.55305 -0.741266 0
M  V30 12843 H 1163.4 -4.29223 -0.628484 0
M  V30 12844 H 1164.07 -5.13359 -2.02896 0
M  V30 12845 H 1166.55 -3.28105 -2.55903 0
M  V30 12846 H 1165.42 -4.04088 -3.71489 0
M  V30 12847 H 1165.68 -2.30479 -3.77269 0
M  V30 12848 N 1164.74 0.6258 -1.44643 0
M  V30 12849 C 1165.99 1.38125 -1.46984 0
M  V30 12850 C 1166.3 1.95299 -0.108429 0
M  V30 12851 O 1167.51 2.71498 -0.00940005 0
M  V30 12852 C 1165.97 2.50108 -2.58793 0
M  V30 12853 C 1165.57 1.99424 -4.01166 0
M  V30 12854 C 1167.32 3.27269 -2.70361 0
M  V30 12855 C 1165.23 3.08781 -5.04389 0
M  V30 12856 H 1164.16 0.519083 -0.546872 0
M  V30 12857 H 1166.81 0.67268 -1.70726 0
M  V30 12858 H 1165.19 3.23565 -2.28302 0
M  V30 12859 H 1166.36 1.32797 -4.4125 0
M  V30 12860 H 1164.68 1.35063 -3.93887 0
M  V30 12861 H 1167.27 4.08802 -3.44652 0
M  V30 12862 H 1167.62 3.77097 -1.76362 0
M  V30 12863 H 1168.15 2.60905 -3.00289 0
M  V30 12864 H 1164.89 2.63891 -6.00035 0
M  V30 12865 H 1164.41 3.74033 -4.68892 0
M  V30 12866 H 1166.09 3.73469 -5.28328 0
M  V30 12867 N 1166.22 1.31629 0.866686 0
M  V30 12868 C 1167.47 1.21683 1.62238 0
M  V30 12869 C 1167.8 -0.223767 1.92907 0
M  V30 12870 O 1167.07 -1.15761 1.563 0
M  V30 12871 C 1167.36 2.06443 2.95048 0
M  V30 12872 C 1167.21 3.58818 2.71237 0
M  V30 12873 C 1168.53 1.91634 3.96187 0
M  V30 12874 H 1165.65 0.443389 0.588707 0
M  V30 12875 H 1168.29 1.61453 1.00164 0
M  V30 12876 H 1166.44 1.72654 3.48027 0
M  V30 12877 H 1168.11 4.0276 2.24905 0
M  V30 12878 H 1166.36 3.82085 2.05411 0
M  V30 12879 H 1167.03 4.13436 3.65752 0
M  V30 12880 H 1169.5 2.21209 3.52428 0
M  V30 12881 H 1168.38 2.53236 4.86993 0
M  V30 12882 H 1168.64 0.880564 4.33242 0
M  V30 12883 N 1167.7 -1.08142 1.14644 0
M  V30 12884 C 1168.95 -1.80582 0.916327 0
M  V30 12885 C 1169.27 -1.86355 -0.556969 0
M  V30 12886 O 1168.53 -1.33736 -1.42875 0
M  V30 12887 C 1168.83 -3.25962 1.46573 0
M  V30 12888 C 1168.49 -3.40302 2.95814 0
M  V30 12889 C 1167.16 -3.43922 3.36557 0
M  V30 12890 C 1169.51 -3.43758 3.91765 0
M  V30 12891 C 1166.84 -3.48594 4.7191 0
M  V30 12892 C 1169.19 -3.49965 5.26979 0
M  V30 12893 C 1167.85 -3.5186 5.67231 0
M  V30 12894 H 1167.12 -0.660795 0.335308 0
M  V30 12895 H 1169.77 -1.27309 1.43055 0
M  V30 12896 H 1168.07 -3.81961 0.872507 0
M  V30 12897 H 1169.77 -3.80571 1.2636 0
M  V30 12898 H 1166.36 -3.38176 2.63315 0
M  V30 12899 H 1170.55 -3.40189 3.61366 0
M  V30 12900 H 1165.8 -3.48355 5.02453 0
M  V30 12901 H 1169.98 -3.51585 6.01133 0
M  V30 12902 H 1167.6 -3.55233 6.72097 0
M  V30 12903 N 1169.18 -0.941978 -1.26351 0
M  V30 12904 C 1170.43 -0.585711 -1.93009 0
M  V30 12905 C 1170.74 0.879507 -1.74711 0
M  V30 12906 O 1171.95 1.34518 -2.35833 0
M  V30 12907 C 1170.4 -0.996787 -3.45821 0
M  V30 12908 C 1170.01 -2.48367 -3.72851 0
M  V30 12909 C 1171.75 -0.712452 -4.18479 0
M  V30 12910 C 1169.66 -2.83341 -5.19107 0
M  V30 12911 H 1168.59 -0.215342 -0.722595 0
M  V30 12912 H 1171.24 -1.14472 -1.43417 0
M  V30 12913 H 1169.62 -0.366295 -3.94302 0
M  V30 12914 H 1170.8 -3.16328 -3.35072 0
M  V30 12915 H 1169.11 -2.74139 -3.13427 0
M  V30 12916 H 1171.71 -0.95007 -5.26192 0
M  V30 12917 H 1172.05 0.350811 -4.14819 0
M  V30 12918 H 1172.59 -1.3027 -3.75865 0
M  V30 12919 H 1169.32 -3.88633 -5.27868 0
M  V30 12920 H 1168.84 -2.20043 -5.5798 0
M  V30 12921 H 1170.52 -2.71849 -5.87118 0
M  V30 12922 N 1170.66 1.40747 -0.709091 0
M  V30 12923 C 1171.59 2.33404 -0.0669763 0
M  V30 12924 C 1172.57 1.52546 0.752582 0
M  V30 12925 O 1173.75 1.81036 0.702823 0
M  V30 12926 C 1170.88 3.36476 0.860285 0
M  V30 12927 C 1169.84 4.27748 0.146828 0
M  V30 12928 C 1169.16 5.21304 1.18937 0
M  V30 12929 C 1170.46 5.12734 -0.995064 0
M  V30 12930 H 1172.16 2.87349 -0.840888 0
M  V30 12931 H 1169.7 1.38163 -0.405817 0
M  V30 12932 H 1171.65 4.00231 1.31883 0
M  V30 12933 H 1170.38 2.80912 1.66602 0
M  V30 12934 H 1169.04 3.65437 -0.291826 0
M  V30 12935 H 1168.69 4.62048 1.98798 0
M  V30 12936 H 1168.39 5.8321 0.716917 0
M  V30 12937 H 1169.91 5.87936 1.64815 0
M  V30 12938 H 1171.32 5.69979 -0.61618 0
M  V30 12939 H 1169.72 5.83649 -1.39547 0
M  V30 12940 H 1170.79 4.49097 -1.82867 0
M  V30 12941 N 1172.13 0.454803 1.50895 0
M  V30 12942 C 1173.38 -0.107367 2.01414 0
M  V30 12943 C 1173.7 -1.42243 1.34262 0
M  V30 12944 O 1174.9 -2.06858 1.75846 0
M  V30 12945 C 1173.36 -0.241872 3.59086 0
M  V30 12946 C 1172.97 1.06379 4.35187 0
M  V30 12947 C 1174.71 -0.756873 4.17698 0
M  V30 12948 C 1172.62 0.893973 5.84604 0
M  V30 12949 H 1171.55 -0.0439003 0.752721 0
M  V30 12950 H 1174.2 0.587225 1.7385 0
M  V30 12951 H 1172.58 -0.999873 3.83169 0
M  V30 12952 H 1173.75 1.83148 4.2284 0
M  V30 12953 H 1172.07 1.50865 3.88109 0
M  V30 12954 H 1174.67 -0.900697 5.27059 0
M  V30 12955 H 1175.01 -1.74397 3.7801 0
M  V30 12956 H 1175.54 -0.0567088 3.9776 0
M  V30 12957 H 1172.28 1.85395 6.28736 0
M  V30 12958 H 1171.8 0.166387 5.99569 0
M  V30 12959 H 1173.48 0.554084 6.44623 0
M  V30 12960 N 1173.61 -1.56489 0.186789 0
M  V30 12961 C 1174.84 -2.01722 -0.459993 0
M  V30 12962 C 1175.25 -1.06697 -1.5576 0
M  V30 12963 O 1174.61 -0.0704212 -1.82364 0
M  V30 12964 C 1174.66 -3.46693 -1.02401 0
M  V30 12965 O 1174.38 -4.3809 0.0297916 0
M  V30 12966 C 1175.88 -4.07403 -1.7475 0
M  V30 12967 H 1173.1 -0.660845 -0.116298 0
M  V30 12968 H 1175.65 -2.02389 0.293059 0
M  V30 12969 H 1173.8 -3.46752 -1.72749 0
M  V30 12970 H 1174.22 -5.23057 -0.388821 0
M  V30 12971 H 1175.69 -5.10718 -2.09455 0
M  V30 12972 H 1176.17 -3.50383 -2.64818 0
M  V30 12973 H 1176.77 -4.11093 -1.09007 0
M  V30 12974 N 1175.09 0.086862 -1.5736 0
M  V30 12975 C 1176.34 0.790008 -1.8678 0
M  V30 12976 C 1176.67 1.77977 -0.777042 0
M  V30 12977 O 1175.94 1.93317 0.21419 0
M  V30 12978 C 1176.23 1.51143 -3.26845 0
M  V30 12979 C 1176.08 0.539106 -4.46558 0
M  V30 12980 C 1177.4 2.46003 -3.64926 0
M  V30 12981 H 1174.52 0.285741 -0.679354 0
M  V30 12982 H 1177.16 0.0534655 -1.89925 0
M  V30 12983 H 1175.31 2.13928 -3.24295 0
M  V30 12984 H 1176.98 -0.0823679 -4.61226 0
M  V30 12985 H 1175.22 -0.146842 -4.33551 0
M  V30 12986 H 1175.9 1.0812 -5.41308 0
M  V30 12987 H 1178.37 1.93306 -3.68473 0
M  V30 12988 H 1177.25 2.93493 -4.63846 0
M  V30 12989 H 1177.51 3.30133 -2.94049 0
M  V30 12990 N 1176.57 1.53483 0.357892 0
M  V30 12991 C 1177.82 1.69256 1.09706 0
M  V30 12992 C 1178.13 0.454888 1.90237 0
M  V30 12993 O 1179.34 0.4933 2.66981 0
M  V30 12994 C 1177.79 2.99238 1.99961 0
M  V30 12995 C 1177.4 4.30293 1.24706 0
M  V30 12996 C 1179.14 3.24378 2.73823 0
M  V30 12997 C 1177.05 5.5136 2.13907 0
M  V30 12998 H 1175.98 0.630657 0.413265 0
M  V30 12999 H 1178.63 1.79983 0.357518 0
M  V30 13000 H 1177.01 2.82332 2.77677 0
M  V30 13001 H 1178.19 4.57857 0.519995 0
M  V30 13002 H 1176.5 4.11656 0.626736 0
M  V30 13003 H 1179.1 4.12015 3.40805 0
M  V30 13004 H 1179.44 2.40769 3.39612 0
M  V30 13005 H 1179.98 3.41994 2.03187 0
M  V30 13006 H 1176.71 6.3747 1.52684 0
M  V30 13007 H 1176.23 5.28065 2.84442 0
M  V30 13008 H 1177.91 5.86448 2.7329 0
M  V30 13009 N 1178.05 -0.61812 1.44973 0
M  V30 13010 C 1179.29 -1.37468 1.48145 0
M  V30 13011 C 1179.61 -1.94628 0.120366 0
M  V30 13012 O 1178.88 -1.76548 -0.848982 0
M  V30 13013 H 1177.46 -0.510293 0.545536 0
M  V30 13014 H 1180.13 -0.726598 1.8085 0
M  V30 13015 H 1179.22 -2.19944 2.2143 0
M  V30 13016 N 1179.52 -1.32087 -0.859693 0
M  V30 13017 C 1180.47 -1.20601 -1.96784 0
M  V30 13018 C 1181.44 -0.089355 -1.65859 0
M  V30 13019 O 1182.63 -0.264022 -1.88964 0
M  V30 13020 C 1179.77 -0.929872 -3.32336 0
M  V30 13021 C 1178.88 -2.13084 -3.75791 0
M  V30 13022 C 1178.01 -1.79061 -5.00111 0
M  V30 13023 C 1177.05 -2.95507 -5.36043 0
M  V30 13024 N 1176.19 -2.61611 -6.5154 0
M  V30 13025 H 1181.03 -2.1539 -2.0594 0
M  V30 13026 H 1178.57 -1.07131 -1.00803 0
M  V30 13027 H 1180.52 -0.750285 -4.10398 0
M  V30 13028 H 1179.15 -0.0187929 -3.22795 0
M  V30 13029 H 1178.21 -2.42086 -2.93425 0
M  V30 13030 H 1179.52 -3.00205 -3.98344 0
M  V30 13031 H 1178.67 -1.57625 -5.85866 0
M  V30 13032 H 1177.41 -0.891459 -4.79483 0
M  V30 13033 H 1176.42 -3.17581 -4.48801 0
M  V30 13034 H 1177.64 -3.86147 -5.5863 0
M  V30 13035 H 1175.59 -1.74231 -6.32439 0
M  V30 13036 H 1175.5 -3.42262 -6.74087 0
M  V30 13037 H 1176.77 -2.43592 -7.40461 0
M  V30 13038 N 1181 1.07532 -1.15215 0
M  V30 13039 C 1181.93 2.1668 -0.870171 0
M  V30 13040 C 1182.91 1.69161 0.178483 0
M  V30 13041 O 1184.1 1.94172 0.0332489 0
M  V30 13042 C 1181.23 3.45464 -0.356666 0
M  V30 13043 C 1180.18 4.06424 -1.34179 0
M  V30 13044 C 1179.51 5.30266 -0.687206 0
M  V30 13045 C 1180.81 4.46666 -2.70715 0
M  V30 13046 H 1182.5 2.40526 -1.7829 0
M  V30 13047 H 1180.05 1.15598 -0.858665 0
M  V30 13048 H 1182 4.21144 -0.146947 0
M  V30 13049 H 1180.72 3.21199 0.591527 0
M  V30 13050 H 1179.38 3.32786 -1.53783 0
M  V30 13051 H 1179.03 5.0229 0.267077 0
M  V30 13052 H 1178.73 5.72009 -1.34462 0
M  V30 13053 H 1180.26 6.08653 -0.487218 0
M  V30 13054 H 1181.67 5.13483 -2.54966 0
M  V30 13055 H 1180.07 4.99355 -3.32813 0
M  V30 13056 H 1181.14 3.58123 -3.26919 0
M  V30 13057 N 1182.48 0.948665 1.2585 0
M  V30 13058 C 1183.73 0.601125 1.93686 0
M  V30 13059 C 1184.06 -0.858779 1.7418 0
M  V30 13060 O 1183.33 -1.61539 1.0833 0
M  V30 13061 C 1183.62 0.95333 3.47252 0
M  V30 13062 C 1183.47 2.46853 3.7601 0
M  V30 13063 C 1184.79 0.474098 4.37539 0
M  V30 13064 H 1181.91 0.219864 0.703441 0
M  V30 13065 H 1184.55 1.18424 1.48579 0
M  V30 13066 H 1182.7 0.457114 3.85801 0
M  V30 13067 H 1184.37 3.03804 3.47132 0
M  V30 13068 H 1182.62 2.9088 3.21825 0
M  V30 13069 H 1183.29 2.66547 4.83381 0
M  V30 13070 H 1185.76 0.899664 4.06258 0
M  V30 13071 H 1184.64 0.749287 5.43762 0
M  V30 13072 H 1184.9 -0.625961 4.37646 0
M  V30 13073 N 1183.96 -1.40369 0.716545 0
M  V30 13074 C 1185.2 -2.01167 0.256846 0
M  V30 13075 C 1185.54 -1.56689 -1.14727 0
M  V30 13076 O 1184.81 -0.787384 -1.7785 0
M  V30 13077 C 1185.1 -3.58511 0.337963 0
M  V30 13078 C 1184.95 -4.13059 1.78052 0
M  V30 13079 C 1186.27 -4.39142 -0.290295 0
M  V30 13080 H 1183.39 -0.730877 0.0948028 0
M  V30 13081 H 1186.03 -1.66833 0.909225 0
M  V30 13082 H 1184.18 -3.87891 -0.217482 0
M  V30 13083 H 1185.85 -3.94472 2.39143 0
M  V30 13084 H 1184.09 -3.67311 2.30793 0
M  V30 13085 H 1184.76 -5.22217 1.78867 0
M  V30 13086 H 1187.24 -4.15697 0.182987 0
M  V30 13087 H 1186.12 -5.48524 -0.203097 0
M  V30 13088 H 1186.38 -4.20209 -1.37394 0
M  V30 13089 N 1185.44 -0.462799 -1.50652 0
M  V30 13090 C 1186.37 0.325724 -2.31217 0
M  V30 13091 C 1187.35 0.997942 -1.3775 0
M  V30 13092 O 1188.53 0.996707 -1.66671 0
M  V30 13093 C 1185.66 1.41283 -3.17264 0
M  V30 13094 C 1184.62 0.862687 -4.19216 0
M  V30 13095 C 1183.94 2.04746 -4.93946 0
M  V30 13096 C 1185.24 -0.120365 -5.22161 0
M  V30 13097 H 1186.94 -0.346666 -2.97386 0
M  V30 13098 H 1184.48 -0.168163 -1.43015 0
M  V30 13099 H 1186.44 1.97188 -3.72418 0
M  V30 13100 H 1185.16 2.11387 -2.48964 0
M  V30 13101 H 1183.82 0.325671 -3.65151 0
M  V30 13102 H 1183.47 2.73529 -4.22127 0
M  V30 13103 H 1183.17 1.68562 -5.62904 0
M  V30 13104 H 1184.69 2.61157 -5.51932 0
M  V30 13105 H 1186.1 0.349226 -5.72235 0
M  V30 13106 H 1184.5 -0.396061 -5.98792 0
M  V30 13107 H 1185.57 -1.04895 -4.73418 0
M  V30 13108 N 1186.91 1.56388 -0.195085 0
M  V30 13109 C 1187.86 2.20431 0.742484 0
M  V30 13110 C 1188.86 1.17548 1.21979 0
M  V30 13111 O 1190.06 1.35693 1.18269 0
M  V30 13112 H 1186.44 0.706435 0.257786 0
M  V30 13113 H 1188.41 2.97865 0.178624 0
M  V30 13114 C 1187.16 2.87772 1.95147 0
M  V30 13115 H 1186.48 3.66681 1.59326 0
M  V30 13116 H 1187.92 3.36021 2.58585 0
M  V30 13117 C 1186.38 1.88807 2.79022 0
M  V30 13118 O 1186.91 1.38836 3.76945 0
M  V30 13119 N 1185.12 1.57037 2.44515 0
M  V30 13120 H 1184.66 1.97868 1.64943 0
M  V30 13121 H 1184.62 0.910776 3.00919 0
M  V30 13122 N 1188.39 -0.0785156 1.57404 0
M  V30 13123 C 1189.32 -1.09446 2.06262 0
M  V30 13124 C 1190.3 -1.40777 0.954772 0
M  V30 13125 O 1191.49 -1.5052 1.22708 0
M  V30 13126 C 1188.62 -2.40979 2.50093 0
M  V30 13127 C 1187.57 -2.24017 3.64692 0
M  V30 13128 C 1186.9 -3.60873 3.94556 0
M  V30 13129 C 1188.2 -1.66696 4.94985 0
M  V30 13130 H 1189.89 -0.687928 2.9139 0
M  V30 13131 H 1187.44 -0.329466 1.4018 0
M  V30 13132 H 1189.39 -3.12337 2.82884 0
M  V30 13133 H 1188.12 -2.83599 1.61985 0
M  V30 13134 H 1186.77 -1.55101 3.32174 0
M  V30 13135 H 1186.42 -4.01051 3.0359 0
M  V30 13136 H 1186.12 -3.50365 4.71718 0
M  V30 13137 H 1187.65 -4.33673 4.29837 0
M  V30 13138 H 1189.06 -2.27913 5.2605 0
M  V30 13139 H 1187.46 -1.66902 5.76423 0
M  V30 13140 H 1188.53 -0.627827 4.80818 0
M  V30 13141 N 1189.87 -1.5367 -0.349747 0
M  V30 13142 C 1191.12 -1.70618 -1.09068 0
M  V30 13143 C 1191.45 -0.466133 -1.88832 0
M  V30 13144 O 1190.7 0.552079 -1.87751 0
M  V30 13145 C 1191 -2.91753 -2.06434 0
M  V30 13146 C 1190.67 -4.27614 -1.43029 0
M  V30 13147 C 1189.33 -4.64555 -1.25466 0
M  V30 13148 C 1191.68 -5.12037 -0.972987 0
M  V30 13149 C 1189.01 -5.83543 -0.607807 0
M  V30 13150 C 1191.36 -6.31685 -0.340073 0
M  V30 13151 C 1190.02 -6.67327 -0.152069 0
M  V30 13152 H 1189.29 -0.624334 -0.399108 0
M  V30 13153 H 1191.94 -1.87879 -0.370657 0
M  V30 13154 H 1190.25 -2.6907 -2.84796 0
M  V30 13155 H 1191.94 -3.02059 -2.63744 0
M  V30 13156 H 1188.53 -3.98535 -1.57696 0
M  V30 13157 H 1192.72 -4.84035 -1.09655 0
M  V30 13158 H 1187.97 -6.09737 -0.450705 0
M  V30 13159 H 1192.15 -6.96396 0.0223973 0
M  V30 13160 H 1189.77 -7.59388 0.35121 0
M  V30 13161 N 1191.35 0.610423 -1.45298 0
M  V30 13162 C 1192.6 1.36558 -1.48441 0
M  V30 13163 C 1192.91 1.95173 -0.129137 0
M  V30 13164 O 1194.12 2.71473 -0.0381956 0
M  V30 13165 C 1192.57 2.47349 -2.61431 0
M  V30 13166 C 1192.18 1.95158 -4.03258 0
M  V30 13167 C 1193.92 3.24383 -2.73817 0
M  V30 13168 C 1191.83 3.03414 -5.07635 0
M  V30 13169 H 1190.76 0.513253 -0.552347 0
M  V30 13170 H 1193.41 0.654535 -1.7143 0
M  V30 13171 H 1191.79 3.21125 -2.31721 0
M  V30 13172 H 1192.97 1.2811 -4.42634 0
M  V30 13173 H 1191.28 1.30878 -3.95297 0
M  V30 13174 H 1193.88 4.05123 -3.48969 0
M  V30 13175 H 1194.22 3.75205 -1.80352 0
M  V30 13176 H 1194.76 2.57705 -3.03039 0
M  V30 13177 H 1191.5 2.57512 -6.028 0
M  V30 13178 H 1191.02 3.69039 -4.72833 0
M  V30 13179 H 1192.69 3.67844 -5.32259 0
M  V30 13180 N 1192.83 1.32541 0.852676 0
M  V30 13181 C 1193.79 1.21578 1.94297 0
M  V30 13182 C 1194.79 0.138318 1.60204 0
M  V30 13183 O 1195.98 0.388864 1.69804 0
M  V30 13184 C 1193.11 0.870209 3.29606 0
M  V30 13185 H 1194.3 2.18476 2.05446 0
M  V30 13186 H 1191.86 1.16401 1.0431 0
M  V30 13187 H 1192.59 -0.0968698 3.24155 0
M  V30 13188 H 1192.38 1.64924 3.55728 0
M  V30 13189 H 1193.87 0.817874 4.09513 0
M  V30 13190 N 1194.3 -1.0692 1.15784 0
M  V30 13191 C 1195.23 -2.16216 0.881649 0
M  V30 13192 C 1196.22 -1.69253 -0.16951 0
M  V30 13193 O 1197.4 -1.94186 -0.0229511 0
M  V30 13194 C 1194.53 -3.4527 0.374982 0
M  V30 13195 C 1193.48 -4.05706 1.36332 0
M  V30 13196 C 1192.81 -5.29894 0.715317 0
M  V30 13197 C 1194.11 -4.45224 2.7308 0
M  V30 13198 H 1195.8 -2.39577 1.79563 0
M  V30 13199 H 1193.35 -1.15141 0.864784 0
M  V30 13200 H 1195.3 -4.2106 0.169279 0
M  V30 13201 H 1194.03 -3.21508 -0.574485 0
M  V30 13202 H 1192.69 -3.31965 1.55546 0
M  V30 13203 H 1192.33 -5.02425 -0.240436 0
M  V30 13204 H 1192.03 -5.71287 1.37494 0
M  V30 13205 H 1193.56 -6.08386 0.519489 0
M  V30 13206 H 1194.97 -5.12124 2.57686 0
M  V30 13207 H 1193.37 -4.97583 3.35457 0
M  V30 13208 H 1194.44 -3.56384 3.28813 0
M  V30 13209 N 1195.78 -0.955326 -1.25345 0
M  V30 13210 C 1196.71 -0.494145 -2.28211 0
M  V30 13211 C 1197.69 0.459875 -1.63766 0
M  V30 13212 O 1198.88 0.358679 -1.90859 0
M  V30 13213 C 1196.01 0.228228 -3.46549 0
M  V30 13214 C 1194.96 -0.640601 -4.23179 0
M  V30 13215 C 1194.29 0.212553 -5.34277 0
M  V30 13216 C 1195.59 -1.91906 -4.85767 0
M  V30 13217 H 1197.28 -1.35391 -2.67039 0
M  V30 13218 H 1194.83 -0.652462 -1.2837 0
M  V30 13219 H 1196.78 0.561995 -4.17636 0
M  V30 13220 H 1195.51 1.12224 -3.06714 0
M  V30 13221 H 1194.16 -0.957462 -3.53876 0
M  V30 13222 H 1193.81 1.10634 -4.90682 0
M  V30 13223 H 1193.51 -0.365473 -5.86462 0
M  V30 13224 H 1195.04 0.541271 -6.08196 0
M  V30 13225 H 1196.45 -1.65165 -5.48993 0
M  V30 13226 H 1194.85 -2.44279 -5.48131 0
M  V30 13227 H 1195.92 -2.62173 -4.07914 0
M  V30 13228 N 1197.26 1.39987 -0.723979 0
M  V30 13229 C 1198.19 2.3332 -0.0917282 0
M  V30 13230 C 1199.17 1.53335 0.736361 0
M  V30 13231 O 1200.36 1.81771 0.683582 0
M  V30 13232 C 1197.49 3.3737 0.824549 0
M  V30 13233 C 1196.44 4.2788 0.101452 0
M  V30 13234 C 1195.77 5.22536 1.13401 0
M  V30 13235 C 1197.07 5.11649 -1.04939 0
M  V30 13236 H 1198.76 2.86441 -0.871318 0
M  V30 13237 H 1196.31 1.37725 -0.420448 0
M  V30 13238 H 1198.26 4.01607 1.27631 0
M  V30 13239 H 1196.98 2.82663 1.63613 0
M  V30 13240 H 1195.64 3.65107 -0.330569 0
M  V30 13241 H 1195.29 4.64131 1.93886 0
M  V30 13242 H 1194.99 5.83938 0.65502 0
M  V30 13243 H 1196.52 5.89651 1.58569 0
M  V30 13244 H 1197.93 5.69293 -0.6766 0
M  V30 13245 H 1196.33 5.82137 -1.45729 0
M  V30 13246 H 1197.4 4.47132 -1.8762 0
M  V30 13247 N 1198.74 0.470782 1.50404 0
M  V30 13248 C 1199.69 -0.337584 2.30137 0
M  V30 13249 C 1200.68 -0.990673 1.37412 0
M  V30 13250 O 1201.89 -0.921813 1.54605 0
M  V30 13251 H 1198.26 -0.127707 0.741077 0
M  V30 13252 H 1200.23 0.355297 2.96277 0
M  V30 13253 C 1198.98 -1.40714 3.17954 0
M  V30 13254 H 1198.31 -0.913982 3.89213 0
M  V30 13255 H 1199.75 -1.94533 3.7674 0
M  V30 13256 C 1198.2 -2.40889 2.35529 0
M  V30 13257 O 1198.73 -3.46153 2.03816 0
M  V30 13258 N 1196.94 -2.126 1.98115 0
M  V30 13259 H 1196.49 -1.27023 2.24105 0
M  V30 13260 H 1196.45 -2.7986 1.43269 0
M  V30 13261 N 1200.22 -1.56282 0.203376 0
M  V30 13262 C 1201.44 -2.02643 -0.441658 0
M  V30 13263 C 1201.87 -1.0825 -1.5383 0
M  V30 13264 O 1201.23 -0.0674337 -1.81175 0
M  V30 13265 C 1201.27 -3.47382 -0.967369 0
M  V30 13266 O 1200.38 -3.56115 -2.07981 0
M  V30 13267 H 1199.72 -0.656081 -0.102242 0
M  V30 13268 H 1202.25 -2.02134 0.316684 0
M  V30 13269 H 1202.26 -3.8734 -1.28186 0
M  V30 13270 H 1200.93 -4.15574 -0.164625 0
M  V30 13271 H 1199.51 -3.28035 -1.77334 0
M  V30 13272 N 1201.7 0.070167 -1.57444 0
M  V30 13273 C 1202.94 0.769014 -1.8733 0
M  V30 13274 C 1203.27 1.77496 -0.79533 0
M  V30 13275 O 1202.53 1.94586 0.208495 0
M  V30 13276 C 1202.82 1.5111 -3.23883 0
M  V30 13277 C 1202.49 0.644988 -4.46263 0
M  V30 13278 C 1201.15 0.406307 -4.79482 0
M  V30 13279 C 1203.5 0.0444938 -5.21181 0
M  V30 13280 C 1200.83 -0.442322 -5.8503 0
M  V30 13281 C 1203.18 -0.791599 -6.27628 0
M  V30 13282 C 1201.85 -1.04014 -6.59346 0
M  V30 13283 H 1201.12 0.281402 -0.685488 0
M  V30 13284 H 1203.77 0.029752 -1.91477 0
M  V30 13285 H 1202.07 2.32261 -3.15535 0
M  V30 13286 H 1203.77 2.05665 -3.44242 0
M  V30 13287 H 1200.36 0.841148 -4.20265 0
M  V30 13288 H 1204.54 0.216005 -4.9583 0
M  V30 13289 H 1199.8 -0.643607 -6.08003 0
M  V30 13290 H 1203.97 -1.26363 -6.8484 0
M  V30 13291 H 1201.6 -1.69949 -7.4096 0
M  V30 13292 N 1203.17 1.53854 0.341593 0
M  V30 13293 C 1204.4 1.75447 1.10604 0
M  V30 13294 C 1204.82 0.493225 1.81518 0
M  V30 13295 O 1204.18 -0.554253 1.7262 0
M  V30 13296 C 1204.23 2.93593 2.09369 0
M  V30 13297 O 1203.33 2.63878 3.16926 0
M  V30 13298 H 1202.67 0.581923 0.319783 0
M  V30 13299 H 1205.2 2.00822 0.391388 0
M  V30 13300 H 1205.21 3.20437 2.52556 0
M  V30 13301 H 1203.89 3.85067 1.57151 0
M  V30 13302 H 1202.47 2.47929 2.78542 0
M  V30 13303 N 1204.65 -0.602709 1.4562 0
M  V30 13304 C 1205.6 -1.73425 1.55005 0
M  V30 13305 C 1206.59 -1.64118 0.419713 0
M  V30 13306 O 1207.8 -1.69853 0.595815 0
M  V30 13307 H 1204.17 -0.573038 0.486962 0
M  V30 13308 H 1206.15 -1.62637 2.50184 0
M  V30 13309 C 1204.89 -3.11808 1.53853 0
M  V30 13310 H 1204.22 -3.19631 2.40158 0
M  V30 13311 H 1205.66 -3.90798 1.64477 0
M  V30 13312 C 1204.12 -3.35866 0.263765 0
M  V30 13313 O 1204.65 -3.96334 -0.654364 0
M  V30 13314 N 1202.85 -2.90171 0.157927 0
M  V30 13315 H 1202.4 -2.41144 0.905944 0
M  V30 13316 H 1202.36 -3.06641 -0.694175 0
M  V30 13317 N 1206.13 -1.32992 -0.845635 0
M  V30 13318 C 1207.04 -1.24701 -1.98713 0
M  V30 13319 C 1208.06 -0.158864 -1.73273 0
M  V30 13320 O 1209.23 -0.381209 -1.97759 0
M  V30 13321 C 1206.3 -0.979524 -3.32575 0
M  V30 13322 C 1205.36 -2.15701 -3.71176 0
M  V30 13323 C 1204.59 -1.90219 -4.98651 0
M  V30 13324 O 1204.81 -0.849171 -5.64044 0
M  V30 13325 O 1203.75 -2.76571 -5.34595 0
M  V30 13326 H 1207.57 -2.20683 -2.08645 0
M  V30 13327 H 1205.16 -1.12971 -0.97765 0
M  V30 13328 H 1207.04 -0.847219 -4.12796 0
M  V30 13329 H 1205.72 -0.0499398 -3.23661 0
M  V30 13330 H 1204.62 -2.34483 -2.91494 0
M  V30 13331 H 1205.96 -3.0697 -3.84747 0
M  V30 13332 N 1207.61 1.06304 -1.1635 0
M  V30 13333 C 1208.52 2.17296 -0.884289 0
M  V30 13334 C 1209.53 1.73408 0.143414 0
M  V30 13335 O 1210.71 2.01373 -0.0331987 0
M  V30 13336 C 1207.77 3.44509 -0.389163 0
M  V30 13337 C 1206.84 4.02906 -1.48208 0
M  V30 13338 C 1206.07 5.24047 -1.01048 0
M  V30 13339 O 1206.29 5.70229 0.139821 0
M  V30 13340 O 1205.23 5.74394 -1.79876 0
M  V30 13341 H 1209.05 2.4369 -1.81243 0
M  V30 13342 H 1206.64 1.15841 -0.943459 0
M  V30 13343 H 1208.52 4.21229 -0.120018 0
M  V30 13344 H 1207.19 3.19642 0.510968 0
M  V30 13345 H 1206.1 3.27677 -1.80496 0
M  V30 13346 H 1207.43 4.32068 -2.35751 0
M  V30 13347 N 1209.09 0.96196 1.24836 0
M  V30 13348 C 1210.5 0.667561 1.44968 0
M  V30 13349 C 1210.7 -0.772521 1.86103 0
M  V30 13350 O 1209.76 -1.54704 1.99557 0
M  V30 13351 C 1211.07 1.64675 2.516 0
M  V30 13352 C 1212.62 1.65874 2.65433 0
M  V30 13353 C 1213.09 2.62576 3.75257 0
M  V30 13354 N 1214.58 2.60984 3.82677 0
M  V30 13355 C 1215.32 3.32484 4.67163 0
M  V30 13356 N 1214.82 4.13482 5.55882 0
M  V30 13357 N 1216.61 3.21336 4.61193 0
M  V30 13358 H 1208.76 1.89248 0.964307 0
M  V30 13359 H 1211.02 0.814443 0.485167 0
M  V30 13360 H 1210.73 2.67572 2.2825 0
M  V30 13361 H 1210.6 1.415 3.49653 0
M  V30 13362 H 1212.99 0.636912 2.88145 0
M  V30 13363 H 1213.07 1.9311 1.67756 0
M  V30 13364 H 1212.71 3.6489 3.53295 0
M  V30 13365 H 1212.64 2.32622 4.72435 0
M  V30 13366 H 1215.14 2.02187 3.19263 0
M  V30 13367 H 1215.45 4.6494 6.17293 0
M  V30 13368 H 1213.79 4.17578 5.55566 0
M  V30 13369 H 1216.98 2.57524 3.90895 0
M  V30 13370 H 1217.16 3.77323 5.26812 0
M  V30 13371 N 1210.56 -1.39601 0.731392 0
M  V30 13372 C 1211.51 -2.32469 0.0781328 0
M  V30 13373 C 1212.51 -1.52873 -0.729811 0
M  V30 13374 O 1213.71 -1.68563 -0.631402 0
M  V30 13375 H 1210.09 -0.751972 0.00646515 0
M  V30 13376 H 1212.06 -2.85196 0.877833 0
M  V30 13377 C 1210.81 -3.37948 -0.817717 0
M  V30 13378 H 1210.13 -3.99272 -0.205417 0
M  V30 13379 H 1211.57 -4.05387 -1.24248 0
M  V30 13380 C 1210.03 -2.74703 -1.95038 0
M  V30 13381 O 1210.56 -2.62266 -3.04269 0
M  V30 13382 N 1208.76 -2.32845 -1.73872 0
M  V30 13383 H 1208.31 -2.43161 -0.850321 0
M  V30 13384 H 1208.27 -1.90869 -2.49833 0
M  V30 13385 N 1212.04 -0.478751 -1.50152 0
M  V30 13386 C 1213.29 0.0734397 -2.01967 0
M  V30 13387 C 1213.61 1.39523 -1.36229 0
M  V30 13388 O 1212.88 1.89141 -0.510149 0
M  V30 13389 H 1211.46 0.0301305 -0.746392 0
M  V30 13390 H 1214.12 -0.630921 -1.84406 0
M  V30 13391 H 1213.22 0.21937 -3.11328 0
M  V30 13392 N 1213.52 1.56172 -0.211661 0
M  V30 13393 C 1214.47 2.21206 0.719063 0
M  V30 13394 C 1215.46 1.18835 1.20725 0
M  V30 13395 O 1216.67 1.36939 1.16823 0
M  V30 13396 H 1213.04 0.709129 0.250279 0
M  V30 13397 H 1215.01 2.98038 0.147022 0
M  V30 13398 C 1213.76 2.89826 1.92084 0
M  V30 13399 H 1213.09 3.68351 1.55428 0
M  V30 13400 H 1214.53 3.38744 2.55006 0
M  V30 13401 C 1212.99 1.91756 2.77004 0
M  V30 13402 O 1213.52 1.42826 3.75451 0
M  V30 13403 N 1211.72 1.59622 2.42836 0
M  V30 13404 H 1211.27 1.99606 1.62835 0
M  V30 13405 H 1211.23 0.942641 2.99936 0
M  V30 13406 N 1215 -0.0618163 1.57479 0
M  V30 13407 C 1215.93 -1.07252 2.07411 0
M  V30 13408 C 1216.91 -1.39756 0.969649 0
M  V30 13409 O 1218.09 -1.4921 1.24298 0
M  V30 13410 C 1215.22 -2.38313 2.52635 0
M  V30 13411 C 1214.18 -2.20136 3.67048 0
M  V30 13412 C 1213.5 -3.56668 3.98361 0
M  V30 13413 C 1214.8 -1.61437 4.96725 0
M  V30 13414 H 1216.5 -0.656983 2.92103 0
M  V30 13415 H 1214.04 -0.314579 1.40522 0
M  V30 13416 H 1216 -3.09319 2.86181 0
M  V30 13417 H 1214.72 -2.81865 1.64984 0
M  V30 13418 H 1213.38 -1.51569 3.338 0
M  V30 13419 H 1213.03 -3.97809 3.07826 0
M  V30 13420 H 1212.73 -3.45342 4.75408 0
M  V30 13421 H 1214.25 -4.2909 4.34413 0
M  V30 13422 H 1215.67 -2.2232 5.28438 0
M  V30 13423 H 1214.06 -1.60779 5.78161 0
M  V30 13424 H 1215.13 -0.576795 4.81457 0
M  V30 13425 N 1216.48 -1.54033 -0.333429 0
M  V30 13426 C 1217.39 -1.85737 -1.43314 0
M  V30 13427 C 1218.4 -0.748398 -1.57083 0
M  V30 13428 O 1219.58 -1.04171 -1.72367 0
M  V30 13429 C 1216.64 -2.06942 -2.78165 0
M  V30 13430 C 1215.7 -3.30774 -2.73655 0
M  V30 13431 C 1214.94 -3.50957 -4.02075 0
M  V30 13432 O 1215.16 -2.74774 -4.99855 0
M  V30 13433 O 1214.09 -4.44412 -4.05933 0
M  V30 13434 H 1217.92 -2.7923 -1.19434 0
M  V30 13435 H 1215.51 -1.39814 -0.526546 0
M  V30 13436 H 1217.39 -2.22276 -3.58011 0
M  V30 13437 H 1216.06 -1.16638 -3.01956 0
M  V30 13438 H 1214.97 -3.20835 -1.92395 0
M  V30 13439 H 1216.3 -4.21103 -2.54819 0
M  V30 13440 N 1217.95 0.594978 -1.45938 0
M  V30 13441 C 1219.2 1.35093 -1.50314 0
M  V30 13442 C 1219.52 1.94412 -0.151315 0
M  V30 13443 O 1218.79 1.77876 0.820787 0
M  V30 13444 H 1217.37 0.501549 -0.553586 0
M  V30 13445 H 1220.04 0.697735 -1.81983 0
M  V30 13446 H 1219.13 2.16393 -2.24901 0
M  V30 13447 N 1219.43 1.33438 0.838571 0
M  V30 13448 C 1220.34 1.25753 1.98049 0
M  V30 13449 C 1221.36 0.168051 1.73187 0
M  V30 13450 O 1222.53 0.391691 1.97554 0
M  V30 13451 C 1219.6 0.997148 3.32051 0
M  V30 13452 C 1218.66 2.17667 3.70027 0
M  V30 13453 C 1217.89 1.92861 4.97635 0
M  V30 13454 O 1218.12 0.879072 5.63585 0
M  V30 13455 O 1217.05 2.79402 5.33121 0
M  V30 13456 H 1220.88 2.21786 2.07472 0
M  V30 13457 H 1218.46 1.13488 0.971645 0
M  V30 13458 H 1220.34 0.869099 4.1234 0
M  V30 13459 H 1219.02 0.0671036 3.2363 0
M  V30 13460 H 1217.93 2.36025 2.90246 0
M  V30 13461 H 1219.26 3.09006 3.83114 0
M  V30 13462 N 1220.91 -1.05686 1.16912 0
M  V30 13463 C 1221.87 -2.11481 0.883647 0
M  V30 13464 C 1222.87 -1.60321 -0.124034 0
M  V30 13465 O 1224.06 -1.73868 0.107566 0
M  V30 13466 C 1221.2 -3.3937 0.322649 0
M  V30 13467 H 1222.39 -2.38239 1.8216 0
M  V30 13468 H 1219.94 -1.2185 0.978895 0
M  V30 13469 H 1220.68 -3.18266 -0.622695 0
M  V30 13470 H 1220.46 -3.77812 1.04883 0
M  V30 13471 H 1221.95 -4.17362 0.141072 0
M  V30 13472 N 1222.39 -0.968567 -1.24324 0
M  V30 13473 C 1223.8 -0.675239 -1.44612 0
M  V30 13474 C 1224 0.762641 -1.8651 0
M  V30 13475 O 1223.06 1.53644 -2.00374 0
M  V30 13476 C 1224.37 -1.66007 -2.50723 0
M  V30 13477 C 1225.92 -1.6728 -2.6455 0
M  V30 13478 C 1226.4 -2.64563 -3.73859 0
M  V30 13479 N 1227.89 -2.6301 -3.81287 0
M  V30 13480 C 1228.62 -3.34957 -4.65394 0
M  V30 13481 N 1228.12 -4.16424 -5.53681 0
M  V30 13482 N 1229.91 -3.23778 -4.59483 0
M  V30 13483 H 1222.06 -1.89757 -0.954257 0
M  V30 13484 H 1224.33 -0.817004 -0.480841 0
M  V30 13485 H 1224.03 -2.68779 -2.26827 0
M  V30 13486 H 1223.91 -1.43353 -3.48898 0
M  V30 13487 H 1226.29 -0.652184 -2.87803 0
M  V30 13488 H 1226.37 -1.93997 -1.6673 0
M  V30 13489 H 1226.02 -3.66759 -3.51355 0
M  V30 13490 H 1225.95 -2.35124 -4.71194 0
M  V30 13491 H 1228.44 -2.03877 -3.18186 0
M  V30 13492 H 1228.75 -4.68207 -6.14818 0
M  V30 13493 H 1227.1 -4.20518 -5.53344 0
M  V30 13494 H 1230.29 -2.59594 -3.89524 0
M  V30 13495 H 1230.46 -3.80112 -5.24804 0
M  V30 13496 N 1223.87 1.39211 -0.738786 0
M  V30 13497 C 1224.81 2.30578 -0.10129 0
M  V30 13498 C 1225.78 1.49412 0.725616 0
M  V30 13499 O 1226.97 1.78087 0.684799 0
M  V30 13500 C 1224.11 3.35767 0.797161 0
M  V30 13501 C 1223.22 4.31979 -0.0427701 0
M  V30 13502 C 1222.36 5.24236 0.857306 0
M  V30 13503 C 1221.4 6.12099 0.0128501 0
M  V30 13504 N 1220.53 6.96701 0.869067 0
M  V30 13505 H 1225.37 2.84522 -0.88606 0
M  V30 13506 H 1222.91 1.40093 -0.448602 0
M  V30 13507 H 1224.87 3.95347 1.33255 0
M  V30 13508 H 1223.5 2.83268 1.54787 0
M  V30 13509 H 1222.55 3.73986 -0.695622 0
M  V30 13510 H 1223.86 4.93927 -0.69555 0
M  V30 13511 H 1223.02 5.88861 1.4604 0
M  V30 13512 H 1221.75 4.62619 1.54386 0
M  V30 13513 H 1220.76 5.46483 -0.603018 0
M  V30 13514 H 1221.98 6.75781 -0.67054 0
M  V30 13515 H 1219.93 6.37647 1.54084 0
M  V30 13516 H 1219.85 7.55507 0.272852 0
M  V30 13517 H 1221.12 7.65751 1.4576 0
M  V30 13518 N 1225.34 0.486708 1.49896 0
M  V30 13519 C 1226.57 -0.0600816 2.06813 0
M  V30 13520 C 1226.99 -1.32112 1.34877 0
M  V30 13521 O 1226.34 -1.77537 0.422725 0
M  V30 13522 C 1226.4 -0.332266 3.5997 0
M  V30 13523 O 1226.12 0.878771 4.29196 0
M  V30 13524 C 1227.62 -0.924289 4.33557 0
M  V30 13525 H 1224.84 0.0140611 0.670853 0
M  V30 13526 H 1227.38 0.67997 1.92864 0
M  V30 13527 H 1225.54 -1.02227 3.73669 0
M  V30 13528 H 1225.95 0.632873 5.20668 0
M  V30 13529 H 1227.42 -1.06441 5.4164 0
M  V30 13530 H 1227.9 -1.91844 3.95085 0
M  V30 13531 H 1228.51 -0.272189 4.24428 0
M  V30 13532 N 1226.82 -1.56058 0.219941 0
M  V30 13533 C 1227.77 -2.20218 -0.690846 0
M  V30 13534 C 1228.74 -1.15725 -1.19151 0
M  V30 13535 O 1229.93 -1.44073 -1.2509 0
M  V30 13536 C 1227.07 -2.88477 -1.89408 0
M  V30 13537 C 1226.18 -4.07559 -1.43246 0
M  V30 13538 C 1225.31 -4.63605 -2.59314 0
M  V30 13539 C 1224.35 -5.74993 -2.0988 0
M  V30 13540 N 1223.49 -6.25337 -3.19214 0
M  V30 13541 H 1228.33 -2.97685 -0.136992 0
M  V30 13542 H 1225.87 -1.46994 -0.055865 0
M  V30 13543 H 1227.82 -3.26235 -2.60051 0
M  V30 13544 H 1226.45 -2.1353 -2.42084 0
M  V30 13545 H 1225.51 -3.75297 -0.621013 0
M  V30 13546 H 1226.82 -4.8805 -1.02997 0
M  V30 13547 H 1225.97 -5.03798 -3.38041 0
M  V30 13548 H 1224.71 -3.82274 -3.0285 0
M  V30 13549 H 1223.72 -5.34304 -1.29613 0
M  V30 13550 H 1224.94 -6.58158 -1.67345 0
M  V30 13551 H 1222.89 -5.4692 -3.62236 0
M  V30 13552 H 1222.8 -7.00947 -2.83213 0
M  V30 13553 H 1224.07 -6.70187 -3.98083 0
M  V30 13554 N 1228.3 0.053464 -1.57509 0
M  V30 13555 C 1229.55 0.750212 -1.88414 0
M  V30 13556 C 1229.88 1.76288 -0.814619 0
M  V30 13557 O 1229.16 1.93728 0.173136 0
M  V30 13558 C 1229.44 1.44176 -3.29978 0
M  V30 13559 C 1229.29 0.444263 -4.47601 0
M  V30 13560 C 1230.61 2.38207 -3.70061 0
M  V30 13561 H 1227.73 0.271266 -0.685262 0
M  V30 13562 H 1230.37 0.0131676 -1.89995 0
M  V30 13563 H 1228.52 2.07001 -3.2876 0
M  V30 13564 H 1230.19 -0.180182 -4.60948 0
M  V30 13565 H 1228.44 -0.238771 -4.33142 0
M  V30 13566 H 1229.11 0.966134 -5.43479 0
M  V30 13567 H 1231.58 1.85446 -3.7249 0
M  V30 13568 H 1230.46 2.83588 -4.69967 0
M  V30 13569 H 1230.72 3.23821 -3.00985 0
M  V30 13570 N 1229.78 1.54207 0.325255 0
M  V30 13571 C 1230.71 1.79812 1.42128 0
M  V30 13572 C 1231.72 0.68003 1.47917 0
M  V30 13573 O 1232.91 0.957107 1.50671 0
M  V30 13574 C 1230.01 1.89935 2.80674 0
M  V30 13575 C 1229.19 3.20078 2.98108 0
M  V30 13576 C 1228.25 3.20924 4.17006 0
M  V30 13577 O 1227.27 3.94571 4.10247 0
M  V30 13578 N 1228.47 2.44588 5.26457 0
M  V30 13579 H 1231.24 2.74396 1.20527 0
M  V30 13580 H 1228.8 1.53483 0.515233 0
M  V30 13581 H 1230.79 1.8793 3.58419 0
M  V30 13582 H 1229.36 1.02455 2.95333 0
M  V30 13583 H 1228.58 3.35057 2.07679 0
M  V30 13584 H 1229.87 4.06008 3.06651 0
M  V30 13585 H 1229.27 1.8434 5.34823 0
M  V30 13586 H 1227.82 2.48363 6.02627 0
M  V30 13587 N 1231.26 -0.58723 1.46251 0
M  V30 13588 C 1232.19 -1.70694 1.5933 0
M  V30 13589 C 1233.17 -1.64208 0.443831 0
M  V30 13590 O 1234.35 -1.82294 0.669516 0
M  V30 13591 C 1231.48 -3.0933 1.579 0
M  V30 13592 C 1230.44 -3.30643 2.7177 0
M  V30 13593 C 1229.76 -4.69761 2.554 0
M  V30 13594 C 1231.06 -3.18916 4.1363 0
M  V30 13595 H 1232.76 -1.60004 2.53059 0
M  V30 13596 H 1230.3 -0.768343 1.21789 0
M  V30 13597 H 1232.26 -3.87479 1.65644 0
M  V30 13598 H 1230.98 -3.20907 0.60712 0
M  V30 13599 H 1229.64 -2.54892 2.63488 0
M  V30 13600 H 1229.29 -4.78098 1.56306 0
M  V30 13601 H 1228.99 -4.84974 3.31774 0
M  V30 13602 H 1230.51 -5.50084 2.65028 0
M  V30 13603 H 1231.93 -3.86915 4.23048 0
M  V30 13604 H 1230.32 -3.45653 4.90555 0
M  V30 13605 H 1231.39 -2.1606 4.34104 0
M  V30 13606 N 1232.74 -1.33881 -0.831482 0
M  V30 13607 C 1233.7 -1.24654 -1.92339 0
M  V30 13608 C 1234.7 -0.163788 -1.59964 0
M  V30 13609 O 1235.89 -0.415829 -1.69164 0
M  V30 13610 C 1233.02 -0.922537 -3.2818 0
M  V30 13611 H 1234.21 -2.21717 -2.01944 0
M  V30 13612 H 1231.77 -1.18046 -1.02445 0
M  V30 13613 H 1232.5 0.0452872 -3.24268 0
M  V30 13614 H 1232.29 -1.70562 -3.53059 0
M  V30 13615 H 1233.78 -0.88292 -4.0816 0
M  V30 13616 N 1234.21 1.05064 -1.1747 0
M  V30 13617 C 1235.14 2.14786 -0.915936 0
M  V30 13618 C 1236.12 1.69502 0.142561 0
M  V30 13619 O 1237.31 1.94198 -0.00794522 0
M  V30 13620 C 1234.44 3.44629 -0.429864 0
M  V30 13621 C 1233.39 4.03486 -1.42769 0
M  V30 13622 C 1232.72 5.28689 -0.799528 0
M  V30 13623 C 1234.02 4.40823 -2.80129 0
M  V30 13624 H 1235.71 2.3669 -1.83352 0
M  V30 13625 H 1233.26 1.13751 -0.882992 0
M  V30 13626 H 1235.21 4.20737 -0.236245 0
M  V30 13627 H 1233.94 3.22381 0.523263 0
M  V30 13628 H 1232.6 3.29449 -1.60808 0
M  V30 13629 H 1232.24 5.02744 0.160474 0
M  V30 13630 H 1231.94 5.69028 -1.46565 0
M  V30 13631 H 1233.47 6.07483 -0.616212 0
M  V30 13632 H 1234.88 5.07959 -2.65801 0
M  V30 13633 H 1233.28 4.92183 -3.43331 0
M  V30 13634 H 1234.35 3.51108 -3.34441 0
M  V30 13635 N 1235.69 0.975146 1.23809 0
M  V30 13636 C 1236.97 0.557725 1.8748 0
M  V30 13637 C 1237.35 -0.965164 1.87744 0
M  V30 13638 O 1236.7 -1.83966 1.35531 0
M  V30 13639 C 1236.91 1.15777 3.29236 0
M  V30 13640 C 1238.25 1.24726 4.05868 0
M  V30 13641 O 1239.28 1.11084 3.38436 0
M  V30 13642 O 1238.14 1.46373 5.26533 0
M  V30 13643 H 1235.23 0.187045 0.80557 0
M  V30 13644 H 1237.78 1.06989 1.31725 0
M  V30 13645 H 1236.55 2.20023 3.23583 0
M  V30 13646 H 1236.17 0.630103 3.92575 0
M  V30 13647 N 1237.17 -1.38817 0.746158 0
M  V30 13648 C 1238.59 -1.53894 0.42294 0
M  V30 13649 C 1238.79 -1.71064 -1.06486 0
M  V30 13650 O 1237.84 -1.71744 -1.85095 0
M  V30 13651 C 1239.15 -2.75029 1.2157 0
M  V30 13652 C 1240.7 -2.88873 1.20504 0
M  V30 13653 C 1241.18 -4.1296 1.9806 0
M  V30 13654 N 1242.67 -4.20022 1.95283 0
M  V30 13655 C 1243.4 -5.15011 2.52093 0
M  V30 13656 N 1242.9 -6.1572 3.17586 0
M  V30 13657 N 1244.69 -5.07308 2.42064 0
M  V30 13658 H 1236.84 -1.25921 1.71049 0
M  V30 13659 H 1239.11 -0.611148 0.724708 0
M  V30 13660 H 1238.81 -2.68722 2.26895 0
M  V30 13661 H 1238.69 -3.68009 0.827593 0
M  V30 13662 H 1241.07 -2.94667 0.159877 0
M  V30 13663 H 1241.15 -1.96925 1.63261 0
M  V30 13664 H 1240.8 -4.07929 3.02583 0
M  V30 13665 H 1240.73 -5.03974 1.52702 0
M  V30 13666 H 1243.22 -3.47892 1.4758 0
M  V30 13667 H 1243.53 -6.84682 3.58373 0
M  V30 13668 H 1241.88 -6.16075 3.21678 0
M  V30 13669 H 1245.07 -4.27569 1.90532 0
M  V30 13670 H 1245.24 -5.81158 2.86635 0
M  V30 13671 N 1238.65 -0.49465 -1.49636 0
M  V30 13672 C 1239.89 0.0521172 -2.02433 0
M  V30 13673 C 1240.22 1.37579 -1.37485 0
M  V30 13674 O 1239.48 1.8927 -0.497538 0
M  V30 13675 C 1239.78 0.259743 -3.56455 0
M  V30 13676 C 1239.44 -0.985143 -4.40007 0
M  V30 13677 C 1238.1 -1.3264 -4.62558 0
M  V30 13678 C 1240.46 -1.81291 -4.88654 0
M  V30 13679 C 1237.78 -2.49506 -5.31003 0
M  V30 13680 C 1240.14 -2.97305 -5.58384 0
M  V30 13681 C 1238.8 -3.31818 -5.79183 0
M  V30 13682 H 1238.07 0.0190711 -0.740755 0
M  V30 13683 H 1240.72 -0.653519 -1.80004 0
M  V30 13684 H 1239.02 1.04785 -3.77528 0
M  V30 13685 H 1240.72 0.697146 -3.94893 0
M  V30 13686 H 1237.31 -0.709313 -4.2269 0
M  V30 13687 H 1241.49 -1.56242 -4.71065 0
M  V30 13688 H 1236.75 -2.76491 -5.4531 0
M  V30 13689 H 1240.92 -3.61777 -5.95055 0
M  V30 13690 H 1238.55 -4.22478 -6.31994 0
M  V30 13691 N 1240.13 1.55939 -0.228214 0
M  V30 13692 C 1241.54 1.59094 0.12704 0
M  V30 13693 C 1241.74 1.24514 1.58425 0
M  V30 13694 O 1240.8 0.983544 2.32557 0
M  V30 13695 C 1242.11 2.99999 -0.205268 0
M  V30 13696 C 1243.66 3.1265 -0.148046 0
M  V30 13697 C 1244.13 4.55743 -0.454122 0
M  V30 13698 N 1245.62 4.61435 -0.403937 0
M  V30 13699 C 1246.36 5.70101 -0.614173 0
M  V30 13700 N 1245.86 6.87104 -0.88654 0
M  V30 13701 N 1247.65 5.5944 -0.546153 0
M  V30 13702 H 1239.8 1.7669 -1.17874 0
M  V30 13703 H 1242.06 0.821599 -0.472947 0
M  V30 13704 H 1241.77 3.29976 -1.21692 0
M  V30 13705 H 1241.64 3.74177 0.476573 0
M  V30 13706 H 1244.03 2.82465 0.854255 0
M  V30 13707 H 1244.11 2.40786 -0.863462 0
M  V30 13708 H 1243.75 4.86646 -1.45389 0
M  V30 13709 H 1243.68 5.25841 0.282561 0
M  V30 13710 H 1246.18 3.77363 -0.201388 0
M  V30 13711 H 1246.49 7.65839 -1.03488 0
M  V30 13712 H 1244.83 6.88833 -0.923808 0
M  V30 13713 H 1248.02 4.6691 -0.33355 0
M  V30 13714 H 1248.2 6.44061 -0.713402 0
M  V30 13715 N 1241.6 -0.0451101 1.57535 0
M  V30 13716 C 1243.02 -0.400463 1.54494 0
M  V30 13717 C 1243.22 -1.77584 0.952166 0
M  V30 13718 O 1242.28 -2.46069 0.566221 0
M  V30 13719 C 1243.59 -0.31703 2.99024 0
M  V30 13720 C 1245.14 -0.395284 3.10494 0
M  V30 13721 C 1245.61 -0.341475 4.56725 0
M  V30 13722 N 1247.1 -0.400755 4.61463 0
M  V30 13723 C 1247.84 -0.381757 5.72128 0
M  V30 13724 N 1247.33 -0.315995 6.92079 0
M  V30 13725 N 1249.13 -0.4303 5.60451 0
M  V30 13726 H 1241.28 0.855156 1.94424 0
M  V30 13727 H 1243.54 0.323618 0.891053 0
M  V30 13728 H 1243.25 0.627477 3.46057 0
M  V30 13729 H 1243.12 -1.11696 3.60283 0
M  V30 13730 H 1245.51 -1.33022 2.63418 0
M  V30 13731 H 1245.59 0.433709 2.52096 0
M  V30 13732 H 1245.23 0.589725 5.04465 0
M  V30 13733 H 1245.16 -1.18836 5.13016 0
M  V30 13734 H 1247.65 -0.454745 3.75154 0
M  V30 13735 H 1247.97 -0.306158 7.72193 0
M  V30 13736 H 1246.31 -0.282281 6.94427 0
M  V30 13737 H 1249.5 -0.479555 4.65637 0
M  V30 13738 H 1249.68 -0.412025 6.46689 0
M  V30 13739 N 1243.08 -1.54377 -0.317073 0
M  V30 13740 C 1244.05 -1.83488 -1.37349 0
M  V30 13741 C 1245.05 -0.706981 -1.44424 0
M  V30 13742 O 1246.24 -0.975289 -1.44339 0
M  V30 13743 C 1243.37 -2.00074 -2.76013 0
M  V30 13744 H 1244.56 -2.77883 -1.12789 0
M  V30 13745 H 1242.11 -1.46194 -0.552902 0
M  V30 13746 H 1242.85 -1.07913 -3.05819 0
M  V30 13747 H 1242.63 -2.82155 -2.7227 0
M  V30 13748 H 1244.12 -2.24022 -3.52426 0
M  V30 13749 N 1244.56 0.579466 -1.4656 0
M  V30 13750 C 1245.81 1.33756 -1.52038 0
M  V30 13751 C 1246.14 1.93725 -0.173423 0
M  V30 13752 O 1245.39 1.77167 0.831293 0
M  V30 13753 C 1245.69 2.48417 -2.56951 0
M  V30 13754 C 1245.36 2.0642 -4.00876 0
M  V30 13755 C 1244.02 1.94682 -4.4006 0
M  V30 13756 C 1246.37 1.74066 -4.91274 0
M  V30 13757 C 1243.7 1.48852 -5.67503 0
M  V30 13758 C 1246.05 1.29714 -6.19158 0
M  V30 13759 C 1244.71 1.16555 -6.57245 0
M  V30 13760 H 1243.98 0.489447 -0.556347 0
M  V30 13761 H 1246.63 0.652176 -1.80053 0
M  V30 13762 H 1244.94 3.22416 -2.2261 0
M  V30 13763 H 1246.63 3.06629 -2.58418 0
M  V30 13764 H 1243.22 2.16492 -3.69904 0
M  V30 13765 H 1247.41 1.82019 -4.61717 0
M  V30 13766 H 1242.66 1.3731 -5.95782 0
M  V30 13767 H 1246.84 1.03734 -6.88631 0
M  V30 13768 H 1244.46 0.808193 -7.55892 0
M  V30 13769 N 1246.04 1.3432 0.824371 0
M  V30 13770 C 1247.28 1.27942 1.59405 0
M  V30 13771 C 1247.64 -0.148961 1.91421 0
M  V30 13772 O 1248.84 -0.336891 2.6668 0
M  V30 13773 C 1247.11 2.14393 2.85955 0
M  V30 13774 S 1248.67 2.25354 3.76512 0
M  V30 13775 H 1245.49 0.454953 0.546387 0
M  V30 13776 H 1248.09 1.69517 0.973873 0
M  V30 13777 H 1246.8 3.17182 2.60429 0
M  V30 13778 H 1246.33 1.7371 3.52971 0
M  V30 13779 H 1248.34 1.42526 4.7529 0
M  V30 13780 N 1247.52 -1.0444 1.18026 0
M  V30 13781 C 1248.76 -1.77575 0.973314 0
M  V30 13782 C 1249.09 -1.88032 -0.4974 0
M  V30 13783 O 1248.35 -1.38214 -1.38548 0
M  V30 13784 C 1248.65 -3.21134 1.56869 0
M  V30 13785 C 1248.31 -3.30718 3.0649 0
M  V30 13786 C 1246.97 -3.33041 3.47328 0
M  V30 13787 C 1249.33 -3.3112 4.02503 0
M  V30 13788 C 1246.65 -3.33404 4.82762 0
M  V30 13789 C 1249.01 -3.33023 5.37846 0
M  V30 13790 C 1247.67 -3.33636 5.78138 0
M  V30 13791 H 1246.94 -0.649793 0.356161 0
M  V30 13792 H 1249.59 -1.22693 1.47033 0
M  V30 13793 H 1247.89 -3.78992 0.993584 0
M  V30 13794 H 1249.59 -3.76358 1.38404 0
M  V30 13795 H 1246.18 -3.29628 2.7394 0
M  V30 13796 H 1250.36 -3.2852 3.72006 0
M  V30 13797 H 1245.62 -3.32194 5.13281 0
M  V30 13798 H 1249.79 -3.32283 6.12014 0
M  V30 13799 H 1247.42 -3.33671 6.83058 0
M  V30 13800 N 1248.99 -0.981699 -1.2329 0
M  V30 13801 C 1250.24 -0.652266 -1.92024 0
M  V30 13802 C 1250.57 0.812297 -1.76396 0
M  V30 13803 O 1249.85 1.5861 -1.12575 0
M  V30 13804 C 1250.13 -1.04506 -3.44602 0
M  V30 13805 C 1249.98 -2.56735 -3.69333 0
M  V30 13806 C 1251.3 -0.589937 -4.36128 0
M  V30 13807 H 1248.42 -0.238437 -0.697364 0
M  V30 13808 H 1251.06 -1.22322 -1.45387 0
M  V30 13809 H 1249.21 -0.559242 -3.84454 0
M  V30 13810 H 1250.89 -3.12901 -3.38955 0
M  V30 13811 H 1249.13 -2.9931 -3.14 0
M  V30 13812 H 1249.8 -2.79269 -4.76144 0
M  V30 13813 H 1252.28 -1.00706 -4.0373 0
M  V30 13814 H 1251.15 -0.893192 -5.41584 0
M  V30 13815 H 1251.41 0.509707 -4.39152 0
M  V30 13816 N 1250.47 1.3842 -0.753509 0
M  V30 13817 C 1251.89 1.53668 -0.431095 0
M  V30 13818 C 1252.09 1.71626 1.05578 0
M  V30 13819 O 1251.14 1.72723 1.84182 0
M  V30 13820 C 1252.46 2.74381 -1.23027 0
M  V30 13821 C 1254.01 2.8823 -1.22034 0
M  V30 13822 C 1254.48 4.11904 -2.00248 0
M  V30 13823 N 1255.97 4.18981 -1.97508 0
M  V30 13824 C 1256.71 5.13667 -2.5482 0
M  V30 13825 N 1256.2 6.14027 -3.20846 0
M  V30 13826 N 1258 5.06017 -2.44751 0
M  V30 13827 H 1250.15 1.25012 -1.71714 0
M  V30 13828 H 1252.41 0.607296 -0.727939 0
M  V30 13829 H 1252.12 2.67515 -2.28317 0
M  V30 13830 H 1251.99 3.67565 -0.847098 0
M  V30 13831 H 1254.38 2.94578 -0.175502 0
M  V30 13832 H 1254.46 1.96057 -1.64303 0
M  V30 13833 H 1254.1 4.06318 -3.04742 0
M  V30 13834 H 1254.03 5.03157 -1.55373 0
M  V30 13835 H 1256.52 3.47104 -1.49423 0
M  V30 13836 H 1256.84 6.82771 -3.61999 0
M  V30 13837 H 1255.18 6.1436 -3.24941 0
M  V30 13838 H 1258.37 4.26552 -1.92797 0
M  V30 13839 H 1258.54 5.7963 -2.89713 0
M  V30 13840 N 1251.95 0.502579 1.49372 0
M  V30 13841 C 1252.9 -0.294292 2.26093 0
M  V30 13842 C 1253.88 -0.934147 1.31006 0
M  V30 13843 O 1255.08 -0.841486 1.55718 0
M  V30 13844 C 1252.21 -1.3572 3.15333 0
M  V30 13845 C 1251.29 -0.723506 4.17883 0
M  V30 13846 N 1251.68 0.174787 5.05498 0
M  V30 13847 C 1249.98 -0.983906 4.35012 0
M  V30 13848 C 1250.68 0.537673 5.7921 0
M  V30 13849 N 1249.66 -0.0947799 5.43517 0
M  V30 13850 H 1253.46 0.397202 2.91204 0
M  V30 13851 H 1250.97 0.31876 1.59241 0
M  V30 13852 H 1252.97 -1.94154 3.6893 0
M  V30 13853 H 1251.63 -2.05036 2.51775 0
M  V30 13854 H 1252.64 0.545699 5.15017 0
M  V30 13855 H 1249.32 -1.66969 3.82658 0
M  V30 13856 H 1250.71 1.27266 6.59737 0
M  V30 13857 N 1253.43 -1.55816 0.23648 0
M  V30 13858 C 1254.66 -2.03083 -0.395584 0
M  V30 13859 C 1255.07 -1.11599 -1.52286 0
M  V30 13860 O 1254.43 -0.128403 -1.82048 0
M  V30 13861 C 1254.48 -3.49776 -0.913197 0
M  V30 13862 O 1254.2 -4.37773 0.169151 0
M  V30 13863 C 1255.7 -4.12756 -1.617 0
M  V30 13864 H 1252.92 -0.66421 -0.0952146 0
M  V30 13865 H 1255.47 -2.01354 0.357299 0
M  V30 13866 H 1253.62 -3.52072 -1.6163 0
M  V30 13867 H 1254.03 -5.24029 -0.222217 0
M  V30 13868 H 1255.51 -5.17123 -1.93101 0
M  V30 13869 H 1255.99 -3.58631 -2.53537 0
M  V30 13870 H 1256.59 -4.14353 -0.958736 0
M  V30 13871 N 1254.91 0.036755 -1.57557 0
M  V30 13872 C 1255.84 1.03939 -2.09091 0
M  V30 13873 C 1256.82 1.38196 -0.991761 0
M  V30 13874 O 1258 1.47214 -1.26656 0
M  V30 13875 C 1255.13 2.34263 -2.56394 0
M  V30 13876 C 1254.09 2.14269 -3.70504 0
M  V30 13877 C 1253.41 3.50286 -4.03985 0
M  V30 13878 C 1254.71 1.53514 -4.9923 0
M  V30 13879 H 1256.41 0.610429 -2.93111 0
M  V30 13880 H 1253.95 0.292183 -1.41005 0
M  V30 13881 H 1255.91 3.04727 -2.91066 0
M  V30 13882 H 1254.63 2.79205 -1.69447 0
M  V30 13883 H 1253.29 1.46239 -3.36169 0
M  V30 13884 H 1252.94 3.92861 -3.14116 0
M  V30 13885 H 1252.64 3.37735 -4.80842 0
M  V30 13886 H 1254.16 4.22124 -4.41184 0
M  V30 13887 H 1255.57 2.13885 -5.31908 0
M  V30 13888 H 1253.97 1.51561 -5.80646 0
M  V30 13889 H 1255.04 0.500126 -4.82314 0
M  V30 13890 N 1256.39 1.54543 0.308881 0
M  V30 13891 C 1257.3 1.87994 1.4034 0
M  V30 13892 C 1258.31 0.773294 1.55872 0
M  V30 13893 O 1259.49 1.069 1.70688 0
M  V30 13894 C 1256.55 2.11341 2.74838 0
M  V30 13895 C 1255.61 3.35086 2.68358 0
M  V30 13896 C 1254.85 3.5731 3.96441 0
M  V30 13897 O 1255.07 2.82692 4.9542 0
M  V30 13898 O 1254 4.50814 3.98811 0
M  V30 13899 H 1257.83 2.81094 1.14976 0
M  V30 13900 H 1255.41 1.40634 0.504236 0
M  V30 13901 H 1257.3 2.27943 3.54429 0
M  V30 13902 H 1255.97 1.21427 3.00062 0
M  V30 13903 H 1254.88 3.23855 1.87267 0
M  V30 13904 H 1256.21 4.25104 2.48087 0
M  V30 13905 N 1257.86 -0.571685 1.46866 0
M  V30 13906 C 1258.81 -1.6751 1.54676 0
M  V30 13907 C 1259.8 -1.55673 0.406774 0
M  V30 13908 O 1260.99 -1.64401 0.655847 0
M  V30 13909 C 1258.12 -3.06295 1.55043 0
M  V30 13910 C 1257.2 -3.23388 2.74374 0
M  V30 13911 N 1257.6 -3.10598 3.99202 0
M  V30 13912 C 1255.89 -3.54354 2.7083 0
M  V30 13913 C 1256.59 -3.29993 4.79041 0
M  V30 13914 N 1255.57 -3.55659 4.11106 0
M  V30 13915 H 1259.37 -1.56168 2.48975 0
M  V30 13916 H 1256.89 -0.776036 1.42658 0
M  V30 13917 H 1258.88 -3.85502 1.58726 0
M  V30 13918 H 1257.54 -3.18759 0.618278 0
M  V30 13919 H 1258.55 -2.8823 4.30283 0
M  V30 13920 H 1255.23 -3.73435 1.86688 0
M  V30 13921 H 1256.62 -3.25194 5.87961 0
M  V30 13922 N 1259.34 -1.34755 -0.817236 0
M  V30 13923 C 1260.59 -1.27432 -1.57377 0
M  V30 13924 C 1260.92 0.15419 -1.93888 0
M  V30 13925 O 1260.17 1.11686 -1.60701 0
M  V30 13926 C 1260.47 -2.11611 -2.8802 0
M  V30 13927 C 1260.14 -3.60543 -2.70776 0
M  V30 13928 C 1258.8 -4.01141 -2.6578 0
M  V30 13929 C 1261.15 -4.55089 -2.54053 0
M  V30 13930 C 1258.48 -5.34469 -2.41991 0
M  V30 13931 C 1260.83 -5.88603 -2.31795 0
M  V30 13932 C 1259.49 -6.28358 -2.25215 0
M  V30 13933 H 1258.76 -0.466305 -0.575882 0
M  V30 13934 H 1261.41 -1.66552 -0.945128 0
M  V30 13935 H 1259.72 -1.65336 -3.55206 0
M  V30 13936 H 1261.41 -2.03287 -3.45652 0
M  V30 13937 H 1258 -3.2832 -2.75506 0
M  V30 13938 H 1262.19 -4.24617 -2.56932 0
M  V30 13939 H 1257.44 -5.64284 -2.35359 0
M  V30 13940 H 1261.62 -6.61451 -2.17844 0
M  V30 13941 H 1259.24 -7.31604 -2.06543 0
M  V30 13942 N 1260.82 1.03812 -1.18578 0
M  V30 13943 C 1262.06 1.78618 -0.993725 0
M  V30 13944 C 1262.42 1.86206 0.468133 0
M  V30 13945 O 1263.62 2.57243 0.779714 0
M  V30 13946 C 1261.9 3.17883 -1.63357 0
M  V30 13947 S 1263.45 4.08994 -1.58962 0
M  V30 13948 H 1260.27 0.614997 -0.356792 0
M  V30 13949 H 1262.87 1.24458 -1.50766 0
M  V30 13950 H 1261.58 3.09972 -2.68972 0
M  V30 13951 H 1261.11 3.77119 -1.12003 0
M  V30 13952 H 1263.12 4.9247 -0.6073 0
M  V30 13953 N 1262.3 0.988223 1.22768 0
M  V30 13954 C 1263.25 0.505913 2.22316 0
M  V30 13955 C 1264.23 -0.423346 1.55231 0
M  V30 13956 O 1265.42 -0.250927 1.75212 0
M  V30 13957 C 1262.55 -0.182707 3.42813 0
M  V30 13958 C 1261.64 0.766582 4.17114 0
M  V30 13959 N 1262.03 1.91248 4.6825 0
M  V30 13960 C 1260.33 0.581503 4.42193 0
M  V30 13961 C 1261.03 2.50793 5.2486 0
M  V30 13962 N 1260 1.79106 5.13247 0
M  V30 13963 H 1263.81 1.37994 2.5949 0
M  V30 13964 H 1261.32 0.849888 1.38386 0
M  V30 13965 H 1263.32 -0.545595 4.13315 0
M  V30 13966 H 1261.98 -1.05292 3.07154 0
M  V30 13967 H 1262.99 2.29342 4.64352 0
M  V30 13968 H 1259.67 -0.243039 4.16792 0
M  V30 13969 H 1261.06 3.47609 5.74994 0
M  V30 13970 N 1263.78 -1.38018 0.760839 0
M  V30 13971 C 1264.72 -2.30387 0.13796 0
M  V30 13972 C 1265.69 -1.50548 -0.701754 0
M  V30 13973 O 1266.88 -1.79154 -0.656381 0
M  V30 13974 C 1264.02 -3.36993 -0.743642 0
M  V30 13975 C 1263.13 -4.31856 0.111489 0
M  V30 13976 C 1262.27 -5.25534 -0.773796 0
M  V30 13977 C 1261.3 -6.12042 0.0845311 0
M  V30 13978 N 1260.44 -6.97995 -0.758118 0
M  V30 13979 H 1265.28 -2.83077 0.931212 0
M  V30 13980 H 1262.82 -1.39361 0.470833 0
M  V30 13981 H 1264.78 -3.97417 -1.26948 0
M  V30 13982 H 1263.41 -2.85695 -1.50261 0
M  V30 13983 H 1262.46 -3.72832 0.755031 0
M  V30 13984 H 1263.77 -4.92758 0.774042 0
M  V30 13985 H 1262.92 -5.9111 -1.36653 0
M  V30 13986 H 1261.66 -4.65017 -1.47006 0
M  V30 13987 H 1260.67 -5.45455 0.689883 0
M  V30 13988 H 1261.89 -6.74629 0.777966 0
M  V30 13989 H 1259.84 -6.40018 -1.4392 0
M  V30 13990 H 1259.76 -7.55846 -0.152623 0
M  V30 13991 H 1261.02 -7.67973 -1.33559 0
M  V30 13992 N 1265.25 -0.510493 -1.49103 0
M  V30 13993 C 1266.5 0.0226445 -2.03387 0
M  V30 13994 C 1266.85 1.33817 -1.38242 0
M  V30 13995 O 1266.15 1.84625 -0.512282 0
M  V30 13996 C 1266.34 0.221921 -3.5671 0
M  V30 13997 C 1266.17 -1.07273 -4.36718 0
M  V30 13998 C 1264.94 -1.62719 -4.78383 0
M  V30 13999 C 1267.14 -1.97844 -4.74723 0
M  V30 14000 N 1265.12 -2.86676 -5.42854 0
M  V30 14001 C 1266.49 -3.06378 -5.3901 0
M  V30 14002 C 1268.55 -1.98407 -4.56661 0
M  V30 14003 C 1267.25 -4.15515 -5.87145 0
M  V30 14004 C 1269.28 -3.06525 -5.05763 0
M  V30 14005 C 1268.64 -4.13778 -5.70059 0
M  V30 14006 H 1264.74 -0.0327303 -0.781315 0
M  V30 14007 H 1267.32 -0.687457 -1.8216 0
M  V30 14008 H 1265.49 0.901088 -3.77803 0
M  V30 14009 H 1267.22 0.752916 -3.97635 0
M  V30 14010 H 1263.98 -1.17109 -4.58893 0
M  V30 14011 H 1264.4 -3.49733 -5.79669 0
M  V30 14012 H 1269.04 -1.16789 -4.0635 0
M  V30 14013 H 1266.76 -4.97925 -6.36472 0
M  V30 14014 H 1270.35 -3.07992 -4.93591 0
M  V30 14015 H 1269.23 -4.96061 -6.07366 0
M  V30 14016 N 1266.73 1.55688 -0.24474 0
M  V30 14017 C 1267.97 2.00796 0.382167 0
M  V30 14018 C 1268.34 1.12917 1.55286 0
M  V30 14019 O 1269.54 1.47471 2.24735 0
M  V30 14020 C 1267.81 3.48702 0.783708 0
M  V30 14021 S 1269.37 4.15818 1.40145 0
M  V30 14022 H 1266.18 0.700742 0.120343 0
M  V30 14023 H 1268.79 1.92167 -0.359468 0
M  V30 14024 H 1267.49 4.10327 -0.0776558 0
M  V30 14025 H 1267.02 3.61252 1.55758 0
M  V30 14026 H 1269.04 4.16925 2.6905 0
M  V30 14027 N 1268.21 -0.0283989 1.57574 0
M  V30 14028 C 1269.63 -0.384054 1.5491 0
M  V30 14029 C 1269.83 -1.76564 0.970947 0
M  V30 14030 O 1268.88 -2.45455 0.592288 0
M  V30 14031 C 1270.19 -0.285297 2.99344 0
M  V30 14032 C 1271.74 -0.36233 3.10896 0
M  V30 14033 C 1272.22 -0.293014 4.57062 0
M  V30 14034 N 1273.71 -0.351788 4.61862 0
M  V30 14035 C 1274.44 -0.321054 5.725 0
M  V30 14036 N 1273.94 -0.242573 6.92375 0
M  V30 14037 N 1275.73 -0.370832 5.60875 0
M  V30 14038 H 1267.88 0.87573 1.93506 0
M  V30 14039 H 1270.15 0.33305 0.887571 0
M  V30 14040 H 1269.85 0.664146 3.45372 0
M  V30 14041 H 1269.73 -1.07869 3.61447 0
M  V30 14042 H 1272.11 -1.30221 2.64814 0
M  V30 14043 H 1272.19 0.460422 2.51622 0
M  V30 14044 H 1271.84 0.643197 5.03811 0
M  V30 14045 H 1271.77 -1.13388 5.14248 0
M  V30 14046 H 1274.26 -0.414929 3.75615 0
M  V30 14047 H 1274.57 -0.224239 7.72475 0
M  V30 14048 H 1272.92 -0.208612 6.94687 0
M  V30 14049 H 1276.11 -0.430141 4.6612 0
M  V30 14050 H 1276.28 -0.343412 6.47089 0
M  V30 14051 N 1269.69 -1.54705 -0.300681 0
M  V30 14052 C 1270.63 -1.85678 -1.37084 0
M  V30 14053 C 1271.6 -0.70573 -1.50362 0
M  V30 14054 O 1272.79 -0.954385 -1.65215 0
M  V30 14055 C 1269.93 -2.10995 -2.73084 0
M  V30 14056 C 1269.04 -3.38621 -2.68254 0
M  V30 14057 C 1268.18 -3.53779 -3.9625 0
M  V30 14058 C 1267.22 -4.75195 -3.85818 0
M  V30 14059 N 1266.35 -4.87157 -5.05591 0
M  V30 14060 H 1271.19 -2.76967 -1.09971 0
M  V30 14061 H 1268.73 -1.37147 -0.531887 0
M  V30 14062 H 1270.69 -2.23669 -3.52176 0
M  V30 14063 H 1269.32 -1.22973 -2.98458 0
M  V30 14064 H 1268.37 -3.34566 -1.81025 0
M  V30 14065 H 1269.68 -4.27834 -2.56436 0
M  V30 14066 H 1268.84 -3.66119 -4.83779 0
M  V30 14067 H 1267.58 -2.62699 -4.10902 0
M  V30 14068 H 1266.58 -4.62888 -2.96673 0
M  V30 14069 H 1267.81 -5.67683 -3.72711 0
M  V30 14070 H 1265.75 -3.99001 -5.20706 0
M  V30 14071 H 1265.67 -5.70372 -4.96197 0
M  V30 14072 H 1266.94 -5.03854 -5.9477 0
M  V30 14073 N 1271.17 0.563888 -1.47167 0
M  V30 14074 C 1272.1 1.68655 -1.55204 0
M  V30 14075 C 1273.11 1.56776 -0.438769 0
M  V30 14076 O 1274.3 1.63856 -0.708059 0
M  V30 14077 C 1271.4 3.07068 -1.43396 0
M  V30 14078 C 1270.57 3.44767 -2.69174 0
M  V30 14079 C 1269.63 4.62316 -2.51298 0
M  V30 14080 O 1268.66 4.67231 -3.2509 0
M  V30 14081 N 1269.86 5.58389 -1.58688 0
M  V30 14082 H 1272.63 1.62209 -2.52009 0
M  V30 14083 H 1270.19 0.750359 -1.43462 0
M  V30 14084 H 1272.18 3.83529 -1.29181 0
M  V30 14085 H 1270.75 3.07777 -0.546997 0
M  V30 14086 H 1269.97 2.57821 -2.98198 0
M  V30 14087 H 1271.26 3.66726 -3.52689 0
M  V30 14088 H 1270.65 5.57169 -0.978737 0
M  V30 14089 H 1269.21 6.34204 -1.50428 0
M  V30 14090 N 1272.64 1.35187 0.810078 0
M  V30 14091 C 1273.59 1.27848 1.94313 0
M  V30 14092 C 1274.59 0.174081 1.68503 0
M  V30 14093 O 1275.79 0.339848 1.76763 0
M  V30 14094 H 1272.17 0.397504 0.638353 0
M  V30 14095 H 1274.14 2.23579 1.97623 0
M  V30 14096 C 1272.89 1.06382 3.31026 0
M  V30 14097 H 1272.21 1.90601 3.51441 0
M  V30 14098 H 1273.65 1.05287 4.1072 0
M  V30 14099 C 1272.11 -0.232462 3.36097 0
M  V30 14100 O 1272.64 -1.22946 3.82423 0
M  V30 14101 N 1270.85 -0.270028 2.89343 0
M  V30 14102 H 1270.39 0.541891 2.51836 0
M  V30 14103 H 1270.35 -1.13708 2.93117 0
M  V30 14104 N 1274.12 -1.03182 1.19127 0
M  V30 14105 C 1275.05 -2.13301 0.94999 0
M  V30 14106 C 1276.03 -1.69707 -0.115577 0
M  V30 14107 O 1277.22 -1.94161 0.0388395 0
M  V30 14108 C 1274.35 -3.43902 0.484637 0
M  V30 14109 C 1273.3 -4.01164 1.4917 0
M  V30 14110 C 1272.63 -5.2735 0.883537 0
M  V30 14111 C 1273.93 -4.36311 2.87107 0
M  V30 14112 H 1275.62 -2.33743 1.87095 0
M  V30 14113 H 1273.17 -1.12332 0.900977 0
M  V30 14114 H 1275.12 -4.20308 0.30315 0
M  V30 14115 H 1273.85 -3.23173 -0.471909 0
M  V30 14116 H 1272.5 -3.26849 1.66028 0
M  V30 14117 H 1272.15 -5.02936 -0.0804712 0
M  V30 14118 H 1271.85 -5.66624 1.55599 0
M  V30 14119 H 1273.38 -6.06425 0.71278 0
M  V30 14120 H 1274.79 -5.03666 2.73848 0
M  V30 14121 H 1273.19 -4.86659 3.51117 0
M  V30 14122 H 1274.26 -3.45743 3.39985 0
M  V30 14123 N 1275.6 -0.99472 -1.22242 0
M  V30 14124 C 1277.01 -0.706456 -1.72818 0
M  V30 14125 C 1277.36 0.776566 -1.80177 0
M  V30 14126 O 1276.49 1.60698 -1.44931 0
M  V30 14127 C 1277.08 -1.27571 -3.13865 0
M  V30 14128 C 1275.64 -1.03679 -3.61839 0
M  V30 14129 C 1274.79 -1.3948 -2.39668 0
M  V30 14130 H 1277.74 -1.16687 -1.07564 0
M  V30 14131 H 1277.76 -0.655202 -3.74816 0
M  V30 14132 H 1277.27 -2.35508 -3.08476 0
M  V30 14133 H 1275.37 0.0258679 -3.72591 0
M  V30 14134 H 1275.49 -1.70145 -4.4787 0
M  V30 14135 H 1273.85 -0.813418 -2.41362 0
M  V30 14136 H 1274.63 -2.48425 -2.36939 0
M  V30 14137 N 1277.08 1.37613 -0.768148 0
M  V30 14138 C 1278.01 2.28935 -0.110234 0
M  V30 14139 C 1279.02 1.48459 0.668122 0
M  V30 14140 O 1280.21 1.71154 0.506808 0
M  V30 14141 C 1277.31 3.27606 0.867598 0
M  V30 14142 C 1276.49 4.37163 0.143819 0
M  V30 14143 C 1275.54 5.15931 1.03449 0
M  V30 14144 O 1274.57 5.67003 0.499605 0
M  V30 14145 N 1275.77 5.30311 2.36114 0
M  V30 14146 H 1278.54 2.86037 -0.894585 0
M  V30 14147 H 1276.1 1.4955 -0.620185 0
M  V30 14148 H 1278.09 3.77183 1.4668 0
M  V30 14149 H 1276.66 2.71298 1.55294 0
M  V30 14150 H 1275.88 3.89031 -0.636257 0
M  V30 14151 H 1277.17 5.0755 -0.356446 0
M  V30 14152 H 1276.57 4.90394 2.82011 0
M  V30 14153 H 1275.12 5.83209 2.9105 0
M  V30 14154 N 1278.56 0.518393 1.4883 0
M  V30 14155 C 1279.49 -0.287642 2.27388 0
M  V30 14156 C 1280.5 -0.914974 1.34655 0
M  V30 14157 O 1281.69 -0.795373 1.598 0
M  V30 14158 C 1278.79 -1.42149 3.07647 0
M  V30 14159 C 1277.96 -0.898238 4.28078 0
M  V30 14160 C 1277.02 -1.91179 4.90242 0
M  V30 14161 O 1276.05 -1.47337 5.498 0
M  V30 14162 N 1277.25 -3.24331 4.81445 0
M  V30 14163 H 1280.02 0.386047 2.97203 0
M  V30 14164 H 1277.58 0.352002 1.58027 0
M  V30 14165 H 1279.57 -2.09745 3.46106 0
M  V30 14166 H 1278.14 -1.99903 2.40328 0
M  V30 14167 H 1277.36 -0.0466326 3.94172 0
M  V30 14168 H 1278.65 -0.527338 5.0606 0
M  V30 14169 H 1278.04 -3.62627 4.34187 0
M  V30 14170 H 1276.6 -3.87593 5.24037 0
M  V30 14171 N 1280.03 -1.55556 0.252993 0
M  V30 14172 C 1280.98 -2.21634 -0.643979 0
M  V30 14173 C 1281.95 -1.18226 -1.1667 0
M  V30 14174 O 1283.14 -1.46694 -1.22006 0
M  V30 14175 C 1280.28 -2.92429 -1.83246 0
M  V30 14176 C 1279.39 -4.10506 -1.34569 0
M  V30 14177 C 1278.52 -4.69001 -2.49421 0
M  V30 14178 C 1277.56 -5.79315 -1.97636 0
M  V30 14179 N 1276.7 -6.31967 -3.05878 0
M  V30 14180 H 1281.54 -2.97909 -0.0738178 0
M  V30 14181 H 1279.08 -1.47079 -0.0246728 0
M  V30 14182 H 1281.04 -3.31678 -2.53072 0
M  V30 14183 H 1279.67 -2.18617 -2.375 0
M  V30 14184 H 1278.72 -3.76529 -0.541268 0
M  V30 14185 H 1280.03 -4.90125 -0.92622 0
M  V30 14186 H 1279.18 -5.10855 -3.27279 0
M  V30 14187 H 1277.92 -3.88612 -2.94673 0
M  V30 14188 H 1276.93 -5.36933 -1.18251 0
M  V30 14189 H 1278.15 -6.6156 -1.53347 0
M  V30 14190 H 1276.1 -5.5448 -3.50553 0
M  V30 14191 H 1276.02 -7.06797 -2.68281 0
M  V30 14192 H 1277.28 -6.7848 -3.83777 0
M  V30 14193 N 1281.51 0.0200419 -1.57587 0
M  V30 14194 C 1282.42 1.0346 -2.10555 0
M  V30 14195 C 1283.44 1.39035 -1.0462 0
M  V30 14196 O 1284.61 1.48172 -1.36407 0
M  V30 14197 C 1281.68 2.31389 -2.58186 0
M  V30 14198 C 1280.74 2.02311 -3.7864 0
M  V30 14199 C 1279.97 3.24141 -4.23991 0
M  V30 14200 O 1280.2 4.35132 -3.68803 0
M  V30 14201 O 1279.13 3.09312 -5.16342 0
M  V30 14202 H 1282.96 0.614419 -2.9742 0
M  V30 14203 H 1280.54 0.237604 -1.47498 0
M  V30 14204 H 1282.42 3.06582 -2.89112 0
M  V30 14205 H 1281.1 2.72684 -1.74428 0
M  V30 14206 H 1280.01 1.24658 -3.5272 0
M  V30 14207 H 1281.34 1.65866 -4.6341 0
M  V30 14208 N 1282.99 1.54862 0.292472 0
M  V30 14209 C 1284.24 1.74807 1.02813 0
M  V30 14210 C 1284.57 0.536935 1.8663 0
M  V30 14211 O 1283.84 -0.465854 1.88839 0
M  V30 14212 C 1284.13 3.04202 1.927 0
M  V30 14213 C 1283.98 4.35631 1.12006 0
M  V30 14214 C 1285.3 3.29514 2.91734 0
M  V30 14215 H 1282.42 0.636015 0.372362 0
M  V30 14216 H 1285.06 1.87583 0.302069 0
M  V30 14217 H 1283.21 2.9344 2.54608 0
M  V30 14218 H 1284.88 4.58323 0.52319 0
M  V30 14219 H 1283.13 4.31733 0.42298 0
M  V30 14220 H 1283.8 5.22454 1.78172 0
M  V30 14221 H 1286.27 3.39941 2.39957 0
M  V30 14222 H 1285.15 4.21352 3.51786 0
M  V30 14223 H 1285.41 2.48216 3.65843 0
M  V30 14224 N 1284.47 -0.556076 1.47464 0
M  V30 14225 C 1285.43 -1.64515 1.59586 0
M  V30 14226 C 1286.43 -1.53751 0.470881 0
M  V30 14227 O 1287.62 -1.57889 0.735979 0
M  V30 14228 C 1284.75 -3.0406 1.54143 0
M  V30 14229 H 1285.95 -1.55116 2.56669 0
M  V30 14230 H 1283.5 -0.776087 1.35671 0
M  V30 14231 H 1284.23 -3.18991 0.584395 0
M  V30 14232 H 1284.02 -3.13282 2.3579 0
M  V30 14233 H 1285.51 -3.8329 1.65766 0
M  V30 14234 N 1285.95 -1.35615 -0.802897 0
M  V30 14235 C 1287.2 -1.28839 -1.55708 0
M  V30 14236 C 1287.52 0.135906 -1.94526 0
M  V30 14237 O 1286.79 1.07317 -1.6389 0
M  V30 14238 H 1285.37 -0.473906 -0.577427 0
M  V30 14239 H 1288.03 -1.69759 -0.957487 0
M  V30 14240 H 1287.12 -1.90675 -2.47082 0
M  V30 14241 N 1287.43 1.02549 -1.19673 0
M  V30 14242 C 1288.67 1.75656 -0.999463 0
M  V30 14243 C 1288.99 1.89238 0.470517 0
M  V30 14244 O 1288.26 1.42843 1.34062 0
M  V30 14245 H 1286.84 0.650732 -0.366821 0
M  V30 14246 H 1289.51 1.23684 -1.50627 0
M  V30 14247 H 1288.6 2.76353 -1.45035 0
M  V30 14248 N 1288.9 1.00119 1.21713 0
M  V30 14249 C 1290.14 0.690044 1.924 0
M  V30 14250 C 1290.51 -0.764695 1.76115 0
M  V30 14251 O 1291.71 -1.18764 2.4114 0
M  V30 14252 C 1289.98 1.09491 3.40215 0
M  V30 14253 S 1291.54 0.903392 4.294 0
M  V30 14254 H 1288.36 0.252037 0.66483 0
M  V30 14255 H 1290.96 1.28521 1.47318 0
M  V30 14256 H 1289.66 2.14987 3.49584 0
M  V30 14257 H 1289.19 0.491878 3.90313 0
M  V30 14258 H 1291.21 -0.201597 4.9579 0
M  V30 14259 N 1290.38 -1.37203 0.775435 0
M  V30 14260 C 1291.34 -2.28566 0.170406 0
M  V30 14261 C 1292.34 -1.48195 -0.624085 0
M  V30 14262 O 1293.53 -1.68364 -0.447132 0
M  V30 14263 C 1290.67 -3.32186 -0.765829 0
M  V30 14264 H 1291.86 -2.8358 0.975824 0
M  V30 14265 H 1289.41 -1.46531 0.543895 0
M  V30 14266 H 1290.15 -2.82303 -1.59611 0
M  V30 14267 H 1289.93 -3.91598 -0.198251 0
M  V30 14268 H 1291.42 -4.0045 -1.18446 0
M  V30 14269 N 1291.86 -0.526279 -1.48553 0
M  V30 14270 C 1292.82 0.227739 -2.28066 0
M  V30 14271 C 1293.82 0.871146 -1.35158 0
M  V30 14272 O 1295.01 0.731769 -1.58085 0
M  V30 14273 C 1292.14 1.32918 -3.1392 0
M  V30 14274 H 1293.34 -0.470313 -2.96189 0
M  V30 14275 H 1290.89 -0.282089 -1.53733 0
M  V30 14276 H 1291.63 2.0606 -2.50419 0
M  V30 14277 H 1291.41 0.872991 -3.82258 0
M  V30 14278 H 1292.9 1.85964 -3.73908 0
M  V30 14279 N 1293.34 1.5542 -0.261239 0
M  V30 14280 C 1294.27 2.19334 0.665214 0
M  V30 14281 C 1295.28 1.17388 1.128 0
M  V30 14282 O 1296.47 1.44183 1.0523 0
M  V30 14283 C 1293.57 2.79425 1.91768 0
M  V30 14284 C 1292.74 4.06929 1.60399 0
M  V30 14285 C 1291.8 4.51199 2.70751 0
M  V30 14286 O 1290.83 5.17272 2.37526 0
M  V30 14287 N 1292.03 4.20179 4.00537 0
M  V30 14288 H 1294.8 2.99467 0.118262 0
M  V30 14289 H 1292.36 1.61693 -0.0817727 0
M  V30 14290 H 1294.35 3.05992 2.64861 0
M  V30 14291 H 1292.92 2.03366 2.37405 0
M  V30 14292 H 1292.14 3.87798 0.707559 0
M  V30 14293 H 1293.43 4.9003 1.36924 0
M  V30 14294 H 1292.83 3.67164 4.30357 0
M  V30 14295 H 1291.38 4.51549 4.7005 0
M  V30 14296 N 1294.82 -0.0116844 1.57596 0
M  V30 14297 C 1296.04 -0.713924 1.94725 0
M  V30 14298 C 1296.47 -1.67157 0.862565 0
M  V30 14299 O 1295.82 -1.80401 -0.180308 0
M  V30 14300 C 1295.87 -1.43214 3.30941 0
M  V30 14301 O 1294.98 -2.5461 3.24419 0
M  V30 14302 H 1294.32 -0.190772 0.636005 0
M  V30 14303 H 1296.85 0.0380247 2.04565 0
M  V30 14304 H 1296.86 -1.79819 3.66237 0
M  V30 14305 H 1295.53 -0.729906 4.09445 0
M  V30 14306 H 1294.11 -2.20419 3.00782 0
M  V30 14307 N 1296.29 -1.55015 -0.284256 0
M  V30 14308 C 1297.24 -1.87122 -1.35107 0
M  V30 14309 C 1298.21 -0.721638 -1.49605 0
M  V30 14310 O 1299.4 -0.971855 -1.64194 0
M  V30 14311 C 1296.54 -2.1388 -2.70831 0
M  V30 14312 C 1295.65 -3.41447 -2.64647 0
M  V30 14313 C 1294.78 -3.57961 -3.92476 0
M  V30 14314 C 1293.82 -4.79261 -3.80757 0
M  V30 14315 N 1292.96 -4.92492 -5.00395 0
M  V30 14316 H 1297.8 -2.78117 -1.07027 0
M  V30 14317 H 1295.34 -1.37704 -0.517311 0
M  V30 14318 H 1297.29 -2.27391 -3.49784 0
M  V30 14319 H 1295.92 -1.26132 -2.97137 0
M  V30 14320 H 1294.98 -3.36467 -1.77466 0
M  V30 14321 H 1296.29 -4.3053 -2.51884 0
M  V30 14322 H 1295.44 -3.71229 -4.79868 0
M  V30 14323 H 1294.18 -2.67042 -4.08093 0
M  V30 14324 H 1293.19 -4.66008 -2.91747 0
M  V30 14325 H 1294.41 -5.71604 -3.66669 0
M  V30 14326 H 1292.36 -4.04501 -5.16445 0
M  V30 14327 H 1292.27 -5.75603 -4.9012 0
M  V30 14328 H 1293.54 -5.10134 -5.89392 0
M  V30 14329 N 1297.77 0.548248 -1.47757 0
M  V30 14330 C 1299.05 1.3092 -1.45325 0
M  V30 14331 C 1299.43 2.1053 -0.155008 0
M  V30 14332 O 1298.78 2.11558 0.863455 0
M  V30 14333 C 1298.99 2.20614 -2.70426 0
M  V30 14334 C 1300.33 2.81345 -3.18009 0
M  V30 14335 O 1301.36 2.30911 -2.71216 0
M  V30 14336 O 1300.22 3.73036 -3.99383 0
M  V30 14337 H 1297.31 0.58996 -0.579548 0
M  V30 14338 H 1299.86 0.56641 -1.59968 0
M  V30 14339 H 1298.63 1.61449 -3.56441 0
M  V30 14340 H 1298.25 3.02173 -2.58413 0
M  V30 14341 N 1299.25 1.36039 0.795694 0
M  V30 14342 C 1300.5 1.29251 1.54845 0
M  V30 14343 C 1300.81 -0.127926 1.95181 0
M  V30 14344 O 1302.02 -0.318141 2.6963 0
M  V30 14345 C 1300.47 2.26736 2.79497 0
M  V30 14346 C 1300.08 3.74183 2.46355 0
M  V30 14347 C 1301.83 2.28913 3.5749 0
M  V30 14348 C 1299.73 4.63462 3.67365 0
M  V30 14349 H 1298.66 0.48027 0.581255 0
M  V30 14350 H 1301.31 1.61366 0.873693 0
M  V30 14351 H 1299.7 1.87608 3.4874 0
M  V30 14352 H 1300.87 4.22011 1.8505 0
M  V30 14353 H 1299.18 3.7472 1.81586 0
M  V30 14354 H 1301.78 2.92828 4.47388 0
M  V30 14355 H 1302.12 1.2959 3.95616 0
M  V30 14356 H 1302.66 2.66627 2.9522 0
M  V30 14357 H 1299.4 5.63824 3.34339 0
M  V30 14358 H 1298.92 4.20354 4.27858 0
M  V30 14359 H 1300.6 4.79424 4.34467 0
M  V30 14360 N 1300.73 -1.01913 1.20215 0
M  V30 14361 C 1301.98 -1.74878 1.00502 0
M  V30 14362 C 1302.29 -1.90022 -0.463792 0
M  V30 14363 O 1303.5 -2.60055 -0.779982 0
M  V30 14364 C 1301.95 -3.1452 1.74943 0
M  V30 14365 C 1301.56 -3.07397 3.259 0
M  V30 14366 C 1303.3 -3.91713 1.63589 0
M  V30 14367 C 1301.21 -4.42032 3.92889 0
M  V30 14368 H 1300.14 -0.655603 0.372426 0
M  V30 14369 H 1302.79 -1.13978 1.4381 0
M  V30 14370 H 1301.17 -3.75946 1.24421 0
M  V30 14371 H 1302.35 -2.55294 3.83617 0
M  V30 14372 H 1300.66 -2.43698 3.37639 0
M  V30 14373 H 1303.26 -4.91316 2.1098 0
M  V30 14374 H 1303.6 -4.12074 0.591665 0
M  V30 14375 H 1304.14 -3.3691 2.11511 0
M  V30 14376 H 1300.88 -4.26874 4.97453 0
M  V30 14377 H 1300.4 -4.94151 3.39962 0
M  V30 14378 H 1302.07 -5.10884 3.96997 0
M  V30 14379 N 1302.21 -1.00763 -1.2118 0
M  V30 14380 C 1303.62 -0.724746 -1.72059 0
M  V30 14381 C 1303.97 0.757413 -1.80991 0
M  V30 14382 O 1303.09 1.59152 -1.46627 0
M  V30 14383 C 1303.69 -1.30893 -3.12494 0
M  V30 14384 C 1302.25 -1.07511 -3.60719 0
M  V30 14385 C 1301.39 -1.42014 -2.38175 0
M  V30 14386 H 1304.35 -1.17821 -1.0632 0
M  V30 14387 H 1304.37 -0.694919 -3.741 0
M  V30 14388 H 1303.88 -2.38767 -3.05961 0
M  V30 14389 H 1301.98 -0.0136518 -3.72597 0
M  V30 14390 H 1302.09 -1.74885 -4.4604 0
M  V30 14391 H 1300.46 -0.838972 -2.40486 0
M  V30 14392 H 1301.24 -2.50924 -2.34291 0
M  V30 14393 N 1303.68 1.3679 -0.7827 0
M  V30 14394 C 1304.61 2.32721 -0.190604 0
M  V30 14395 C 1305.6 1.56321 0.670663 0
M  V30 14396 O 1306.78 1.84507 0.605871 0
M  V30 14397 C 1303.91 3.40564 0.680717 0
M  V30 14398 C 1302.86 4.27925 -0.080118 0
M  V30 14399 C 1302.19 5.26876 0.911361 0
M  V30 14400 C 1303.49 5.06738 -1.26545 0
M  V30 14401 H 1305.18 2.82488 -0.992023 0
M  V30 14402 H 1302.73 1.35818 -0.478484 0
M  V30 14403 H 1304.68 4.06659 1.10482 0
M  V30 14404 H 1303.41 2.89348 1.51477 0
M  V30 14405 H 1302.07 3.63376 -0.485125 0
M  V30 14406 H 1301.71 4.71936 1.74026 0
M  V30 14407 H 1301.41 5.8619 0.406762 0
M  V30 14408 H 1302.94 5.95846 1.33418 0
M  V30 14409 H 1304.35 5.65911 -0.917448 0
M  V30 14410 H 1302.75 5.75432 -1.70289 0
M  V30 14411 H 1303.82 4.38772 -2.06415 0
M  V30 14412 N 1305.16 0.53415 1.48272 0
M  V30 14413 C 1306.41 0.00157492 2.028 0
M  V30 14414 C 1306.74 -1.33538 1.41001 0
M  V30 14415 O 1306.02 -1.86347 0.557245 0
M  V30 14416 C 1306.3 -0.116016 3.59913 0
M  V30 14417 C 1306.15 1.2464 4.32186 0
M  V30 14418 C 1307.47 -0.840775 4.31994 0
M  V30 14419 H 1304.59 0.00204634 0.736997 0
M  V30 14420 H 1307.23 0.691985 1.76951 0
M  V30 14421 H 1305.38 -0.704027 3.82068 0
M  V30 14422 H 1307.05 1.87584 4.21438 0
M  V30 14423 H 1305.3 1.8272 3.93441 0
M  V30 14424 H 1305.97 1.11708 5.40579 0
M  V30 14425 H 1308.44 -0.341746 4.14694 0
M  V30 14426 H 1307.32 -0.89196 5.41604 0
M  V30 14427 H 1307.58 -1.89197 3.99571 0
M  V30 14428 N 1306.64 -1.55279 0.269478 0
M  V30 14429 C 1307.57 -2.18397 -0.66165 0
M  V30 14430 C 1308.55 -1.1431 -1.15637 0
M  V30 14431 O 1309.74 -1.42808 -1.23037 0
M  V30 14432 C 1306.86 -2.80272 -1.90172 0
M  V30 14433 C 1305.91 -3.97612 -1.54295 0
M  V30 14434 S 1306.74 -5.31828 -0.625995 0
M  V30 14435 C 1307.9 -5.97169 -1.87456 0
M  V30 14436 H 1308.13 -2.97036 -0.125326 0
M  V30 14437 H 1305.66 -1.54306 0.0537711 0
M  V30 14438 H 1307.62 -3.16553 -2.61351 0
M  V30 14439 H 1306.28 -2.01538 -2.40918 0
M  V30 14440 H 1305.48 -4.39576 -2.46555 0
M  V30 14441 H 1305.08 -3.62725 -0.911395 0
M  V30 14442 H 1307.37 -6.16059 -2.81917 0
M  V30 14443 H 1308.31 -6.92073 -1.49803 0
M  V30 14444 H 1308.72 -5.26469 -2.03693 0
M  V30 14445 N 1308.12 0.00332656 -1.576 0
M  V30 14446 C 1309.03 1.01221 -2.1164 0
M  V30 14447 C 1310.04 1.37918 -1.06088 0
M  V30 14448 O 1311.22 1.46717 -1.37971 0
M  V30 14449 C 1308.29 2.28638 -2.60626 0
M  V30 14450 C 1307.35 1.98284 -3.80765 0
M  V30 14451 C 1306.58 3.19626 -4.27405 0
M  V30 14452 O 1306.8 4.31196 -3.73398 0
M  V30 14453 O 1305.74 3.03819 -5.19594 0
M  V30 14454 H 1309.56 0.582839 -2.98055 0
M  V30 14455 H 1307.15 0.221947 -1.47742 0
M  V30 14456 H 1309.03 3.03498 -2.92347 0
M  V30 14457 H 1307.7 2.70819 -1.7731 0
M  V30 14458 H 1306.61 1.2091 -3.54022 0
M  V30 14459 H 1307.94 1.60942 -4.65144 0
M  V30 14460 N 1309.6 1.55164 0.276031 0
M  V30 14461 C 1310.53 1.82758 1.36656 0
M  V30 14462 C 1311.51 0.680405 1.4768 0
M  V30 14463 O 1312.69 0.923078 1.64352 0
M  V30 14464 C 1309.82 1.98651 2.74328 0
M  V30 14465 C 1308.86 3.21192 2.80603 0
M  V30 14466 S 1309.7 4.78628 2.40156 0
M  V30 14467 C 1310.85 4.9749 3.79809 0
M  V30 14468 H 1311.09 2.74969 1.13045 0
M  V30 14469 H 1308.62 1.46896 0.4755 0
M  V30 14470 H 1310.58 2.08492 3.53612 0
M  V30 14471 H 1309.24 1.07333 2.95192 0
M  V30 14472 H 1308.43 3.29189 3.81642 0
M  V30 14473 H 1308.03 3.09926 2.09337 0
M  V30 14474 H 1310.33 4.83045 4.75051 0
M  V30 14475 H 1311.27 5.99544 3.76765 0
M  V30 14476 H 1311.68 4.25489 3.70971 0
M  V30 14477 N 1311.07 -0.540404 1.48045 0
M  V30 14478 C 1312.02 -1.64598 1.61791 0
M  V30 14479 C 1312.99 -1.59595 0.460301 0
M  V30 14480 O 1314.18 -1.78176 0.682482 0
M  V30 14481 C 1311.32 -3.02887 1.65389 0
M  V30 14482 C 1310.43 -3.18202 2.92184 0
M  V30 14483 C 1309.56 -4.46989 2.87009 0
M  V30 14484 C 1308.6 -4.55795 4.08555 0
M  V30 14485 N 1307.74 -5.75958 4.01518 0
M  V30 14486 H 1312.58 -1.52188 2.56208 0
M  V30 14487 H 1310.12 -0.741097 1.27068 0
M  V30 14488 H 1312.08 -3.82988 1.65457 0
M  V30 14489 H 1310.71 -3.14092 0.744703 0
M  V30 14490 H 1309.76 -2.31422 3.01907 0
M  V30 14491 H 1311.07 -3.20571 3.82146 0
M  V30 14492 H 1310.22 -5.35369 2.85421 0
M  V30 14493 H 1308.96 -4.47125 1.94759 0
M  V30 14494 H 1307.97 -3.65824 4.1043 0
M  V30 14495 H 1309.19 -4.57406 5.01953 0
M  V30 14496 H 1307.14 -5.77011 3.12081 0
M  V30 14497 H 1307.06 -5.79777 4.85175 0
M  V30 14498 H 1308.32 -6.66653 4.03972 0
M  V30 14499 N 1312.55 -1.36459 -0.788468 0
M  V30 14500 C 1313.97 -1.16893 -1.08666 0
M  V30 14501 C 1314.17 0.00633808 -2.01499 0
M  V30 14502 O 1313.22 0.671417 -2.4341 0
M  V30 14503 C 1314.54 -2.48018 -1.70022 0
M  V30 14504 C 1316.09 -2.5439 -1.82358 0
M  V30 14505 C 1316.56 -3.85605 -2.47129 0
M  V30 14506 N 1318.05 -3.86956 -2.54597 0
M  V30 14507 C 1318.79 -4.85224 -3.05525 0
M  V30 14508 N 1318.28 -5.93885 -3.56753 0
M  V30 14509 N 1320.08 -4.72643 -3.04246 0
M  V30 14510 H 1312.23 -2.11705 -0.171733 0
M  V30 14511 H 1314.49 -0.937784 -0.1388 0
M  V30 14512 H 1314.2 -3.34292 -1.09277 0
M  V30 14513 H 1314.07 -2.63894 -2.69518 0
M  V30 14514 H 1316.46 -1.68534 -2.4224 0
M  V30 14515 H 1316.54 -2.42414 -0.816651 0
M  V30 14516 H 1316.18 -4.71868 -1.87891 0
M  V30 14517 H 1316.11 -3.94878 -3.48395 0
M  V30 14518 H 1318.6 -3.08453 -2.18323 0
M  V30 14519 H 1318.92 -6.64839 -3.93966 0
M  V30 14520 H 1317.26 -5.97553 -3.54902 0
M  V30 14521 H 1320.45 -3.86883 -2.63513 0
M  V30 14522 H 1320.62 -5.49385 -3.43627 0
M  V30 14523 N 1314.03 1.01274 -1.20754 0
M  V30 14524 C 1315.28 1.74586 -1.01804 0
M  V30 14525 C 1315.6 1.89727 0.450419 0
M  V30 14526 O 1314.87 1.44257 1.32539 0
M  V30 14527 H 1313.45 0.646804 -0.373702 0
M  V30 14528 H 1316.11 1.22079 -1.5193 0
M  V30 14529 H 1315.21 2.748 -1.47958 0
M  V30 14530 N 1315.51 1.01404 1.20644 0
M  V30 14531 C 1316.73 0.720839 1.9447 0
M  V30 14532 C 1317.16 -0.711711 1.74116 0
M  V30 14533 O 1316.52 -1.48938 1.03379 0
M  V30 14534 C 1316.57 1.05864 3.4471 0
M  V30 14535 O 1315.67 0.168901 4.12054 0
M  V30 14536 H 1315.01 0.267698 0.607646 0
M  V30 14537 H 1317.54 1.35672 1.53147 0
M  V30 14538 H 1317.55 1.00928 3.9532 0
M  V30 14539 H 1316.23 2.1024 3.58848 0
M  V30 14540 H 1314.8 0.275572 3.7188 0
M  V30 14541 N 1316.99 -1.36373 0.789944 0
M  V30 14542 C 1317.9 -2.3383 0.189873 0
M  V30 14543 C 1318.91 -1.61068 -0.65827 0
M  V30 14544 O 1320.09 -1.93049 -0.573932 0
M  V30 14545 C 1317.15 -3.40264 -0.664905 0
M  V30 14546 C 1316.22 -4.28825 0.201798 0
M  V30 14547 C 1315.45 -5.30176 -0.612278 0
M  V30 14548 O 1315.67 -5.39627 -1.84821 0
M  V30 14549 O 1314.61 -6.01899 -0.0118964 0
M  V30 14550 H 1318.43 -2.86915 0.995671 0
M  V30 14551 H 1316.02 -1.38852 0.551412 0
M  V30 14552 H 1317.9 -4.05339 -1.15231 0
M  V30 14553 H 1316.57 -2.89478 -1.44858 0
M  V30 14554 H 1315.48 -3.66789 0.735974 0
M  V30 14555 H 1316.81 -4.82965 0.949003 0
M  V30 14556 N 1318.47 -0.542005 -1.47987 0
M  V30 14557 C 1319.69 -0.016717 -2.06893 0
M  V30 14558 C 1320.11 1.27015 -1.39687 0
M  V30 14559 O 1319.47 1.75845 -0.488326 0
M  V30 14560 C 1319.52 0.198437 -3.60955 0
M  V30 14561 O 1319.24 -1.03746 -4.25639 0
M  V30 14562 C 1320.74 0.762741 -4.36689 0
M  V30 14563 H 1317.96 -0.0389497 -0.669869 0
M  V30 14564 H 1320.5 -0.751082 -1.90208 0
M  V30 14565 H 1318.66 0.882884 -3.77205 0
M  V30 14566 H 1319.07 -0.82568 -5.1796 0
M  V30 14567 H 1320.55 0.862649 -5.45218 0
M  V30 14568 H 1321.02 1.77049 -4.01933 0
M  V30 14569 H 1321.63 0.114478 -4.25146 0
M  V30 14570 N 1319.94 1.55134 -0.277709 0
M  V30 14571 C 1320.88 2.20028 0.641913 0
M  V30 14572 C 1321.89 1.18578 1.11549 0
M  V30 14573 O 1323.08 1.45291 1.03695 0
M  V30 14574 C 1320.18 2.81443 1.88794 0
M  V30 14575 C 1319.35 4.08607 1.56074 0
M  V30 14576 C 1318.41 4.54045 2.6595 0
M  V30 14577 O 1317.44 5.19762 2.32026 0
M  V30 14578 N 1318.64 4.24403 3.96058 0
M  V30 14579 H 1321.4 2.99575 0.0864929 0
M  V30 14580 H 1318.96 1.61598 -0.0989178 0
M  V30 14581 H 1320.96 3.08784 2.616 0
M  V30 14582 H 1319.53 2.05873 2.35234 0
M  V30 14583 H 1318.75 3.88527 0.666388 0
M  V30 14584 H 1320.03 4.91455 1.31719 0
M  V30 14585 H 1319.43 3.71708 4.26439 0
M  V30 14586 H 1317.99 4.56509 4.65234 0
M  V30 14587 N 1321.42 0.00503138 1.57599 0
M  V30 14588 C 1322.33 -1.00097 2.12174 0
M  V30 14589 C 1323.35 -1.37353 1.06818 0
M  V30 14590 O 1324.52 -1.45984 1.38747 0
M  V30 14591 C 1321.59 -2.27252 2.61835 0
M  V30 14592 C 1320.65 -1.96262 3.81811 0
M  V30 14593 C 1319.88 -3.17355 4.29094 0
M  V30 14594 O 1320.11 -4.2921 3.75679 0
M  V30 14595 O 1319.04 -3.01059 5.21198 0
M  V30 14596 H 1322.87 -0.567024 2.9836 0
M  V30 14597 H 1320.45 -0.214109 1.47858 0
M  V30 14598 H 1322.33 -3.01944 2.93952 0
M  V30 14599 H 1321.01 -2.69875 1.78744 0
M  V30 14600 H 1319.91 -1.19031 3.54658 0
M  V30 14601 H 1321.25 -1.58473 4.65991 0
M  V30 14602 N 1322.9 -1.55308 -0.267798 0
M  V30 14603 C 1323.81 -1.91649 -1.35307 0
M  V30 14604 C 1324.83 -0.814349 -1.53767 0
M  V30 14605 O 1326 -1.11388 -1.67793 0
M  V30 14606 C 1323.07 -2.18553 -2.69138 0
M  V30 14607 C 1322.13 -3.42083 -2.5938 0
M  V30 14608 C 1321.36 -3.67695 -3.86828 0
M  V30 14609 O 1321.58 -2.95728 -4.87751 0
M  V30 14610 O 1320.52 -4.61229 -3.86718 0
M  V30 14611 H 1324.34 -2.84044 -1.07483 0
M  V30 14612 H 1321.93 -1.41921 -0.466772 0
M  V30 14613 H 1323.81 -2.3726 -3.48261 0
M  V30 14614 H 1322.49 -1.2934 -2.96737 0
M  V30 14615 H 1321.39 -3.28706 -1.78614 0
M  V30 14616 H 1322.73 -4.31532 -2.36729 0
M  V30 14617 N 1324.38 0.532545 -1.4833 0
M  V30 14618 C 1325.31 1.64662 -1.65555 0
M  V30 14619 C 1326.29 1.62447 -0.50447 0
M  V30 14620 O 1327.47 1.79684 -0.736712 0
M  V30 14621 C 1324.6 3.03256 -1.69272 0
M  V30 14622 C 1323.56 3.20329 -2.83854 0
M  V30 14623 C 1322.88 4.59958 -2.72659 0
M  V30 14624 C 1324.18 3.03345 -4.25181 0
M  V30 14625 H 1325.88 1.50502 -2.58823 0
M  V30 14626 H 1323.42 0.722612 -1.24556 0
M  V30 14627 H 1325.38 3.81064 -1.79911 0
M  V30 14628 H 1324.1 3.18433 -0.725805 0
M  V30 14629 H 1322.76 2.44937 -2.72766 0
M  V30 14630 H 1322.41 4.71967 -1.73942 0
M  V30 14631 H 1322.11 4.72327 -3.49544 0
M  V30 14632 H 1323.63 5.39869 -2.85262 0
M  V30 14633 H 1325.05 3.70948 -4.37116 0
M  V30 14634 H 1323.44 3.27208 -5.03045 0
M  V30 14635 H 1324.51 1.998 -4.41824 0
M  V30 14636 N 1325.86 1.36875 0.78122 0
M  V30 14637 C 1327.1 1.31299 1.53639 0
M  V30 14638 C 1327.42 -0.104942 1.94717 0
M  V30 14639 O 1326.69 -1.04696 1.65576 0
M  V30 14640 H 1325.27 0.483032 0.569815 0
M  V30 14641 H 1327.94 1.71261 0.930359 0
M  V30 14642 H 1327.03 1.94581 2.44018 0
M  V30 14643 N 1327.33 -1.00632 1.21289 0
M  V30 14644 C 1328.58 -1.73802 1.02351 0
M  V30 14645 C 1328.9 -1.90503 -0.443611 0
M  V30 14646 O 1330.1 -2.60868 -0.752356 0
M  V30 14647 C 1328.56 -3.12647 1.78269 0
M  V30 14648 C 1328.17 -3.03923 3.29142 0
M  V30 14649 C 1329.91 -3.89956 1.67735 0
M  V30 14650 C 1327.82 -4.3784 3.97556 0
M  V30 14651 H 1326.75 -0.651616 0.379358 0
M  V30 14652 H 1329.4 -1.12446 1.45011 0
M  V30 14653 H 1327.78 -3.74605 1.28401 0
M  V30 14654 H 1328.95 -2.51211 3.86303 0
M  V30 14655 H 1327.27 -2.40103 3.40205 0
M  V30 14656 H 1329.87 -4.89051 2.1618 0
M  V30 14657 H 1330.21 -4.11423 0.635338 0
M  V30 14658 H 1330.74 -3.34647 2.15072 0
M  V30 14659 H 1327.48 -4.21573 5.01952 0
M  V30 14660 H 1327 -4.90518 3.45184 0
M  V30 14661 H 1328.68 -5.06644 4.02393 0
M  V30 14662 N 1328.81 -1.02043 -1.20104 0
M  V30 14663 C 1329.74 -0.614421 -2.25271 0
M  V30 14664 C 1330.72 0.37242 -1.65973 0
M  V30 14665 O 1331.91 0.257005 -1.92492 0
M  V30 14666 C 1329.04 0.0442085 -3.47272 0
M  V30 14667 C 1327.99 -0.864019 -4.19188 0
M  V30 14668 C 1327.32 -0.0709551 -5.34653 0
M  V30 14669 C 1328.62 -2.17385 -4.74912 0
M  V30 14670 H 1330.31 -1.49355 -2.59487 0
M  V30 14671 H 1327.86 -0.719591 -1.24731 0
M  V30 14672 H 1329.81 0.339825 -4.20028 0
M  V30 14673 H 1328.53 0.958082 -3.12231 0
M  V30 14674 H 1327.19 -1.1437 -3.48303 0
M  V30 14675 H 1326.84 0.844688 -4.95857 0
M  V30 14676 H 1326.54 -0.67583 -5.83701 0
M  V30 14677 H 1328.07 0.218118 -6.1021 0
M  V30 14678 H 1329.48 -1.94034 -5.39466 0
M  V30 14679 H 1327.88 -2.72991 -5.34412 0
M  V30 14680 H 1328.95 -2.83427 -3.93443 0
M  V30 14681 N 1330.29 1.35952 -0.797165 0
M  V30 14682 C 1331.52 2.0328 -0.385316 0
M  V30 14683 C 1331.93 1.60095 1.00076 0
M  V30 14684 O 1331.29 0.794014 1.64322 0
M  V30 14685 C 1331.34 3.5871 -0.448284 0
M  V30 14686 O 1331.06 4.00323 -1.7797 0
M  V30 14687 C 1332.56 4.43291 -0.0280465 0
M  V30 14688 H 1329.78 0.652192 -0.157756 0
M  V30 14689 H 1332.33 1.73769 -1.07817 0
M  V30 14690 H 1330.48 3.86903 0.196224 0
M  V30 14691 H 1330.9 4.94941 -1.73592 0
M  V30 14692 H 1332.37 5.51862 -0.123234 0
M  V30 14693 H 1332.85 4.27059 1.02552 0
M  V30 14694 H 1333.45 4.20375 -0.645343 0
M  V30 14695 N 1331.77 0.549846 1.47697 0
M  V30 14696 C 1332.99 0.0256819 2.07384 0
M  V30 14697 C 1333.42 -1.25525 1.4009 0
M  V30 14698 O 1332.78 -1.7501 0.473406 0
M  V30 14699 C 1332.82 -0.160835 3.60241 0
M  V30 14700 O 1331.93 -1.22509 3.93783 0
M  V30 14701 H 1331.27 0.0480204 0.662261 0
M  V30 14702 H 1333.8 0.763429 1.89823 0
M  V30 14703 H 1333.81 -0.377337 4.06251 0
M  V30 14704 H 1332.48 0.774774 4.0862 0
M  V30 14705 H 1331.06 -0.98967 3.59527 0
M  V30 14706 N 1333.25 -1.54984 0.285932 0
M  V30 14707 C 1334.49 -2.00126 -0.328223 0
M  V30 14708 C 1334.83 -1.17409 -1.54689 0
M  V30 14709 O 1334.1 -0.246806 -1.92928 0
M  V30 14710 C 1334.38 -3.53236 -0.699733 0
M  V30 14711 C 1334.24 -4.46702 0.527029 0
M  V30 14712 C 1335.56 -4.12572 -1.53206 0
M  V30 14713 H 1332.67 -0.727521 -0.117825 0
M  V30 14714 H 1335.32 -1.85848 0.395032 0
M  V30 14715 H 1333.47 -3.65534 -1.31594 0
M  V30 14716 H 1335.14 -4.46332 1.16557 0
M  V30 14717 H 1333.38 -4.17917 1.1631 0
M  V30 14718 H 1334.05 -5.51549 0.223165 0
M  V30 14719 H 1336.53 -4.03618 -1.01154 0
M  V30 14720 H 1335.4 -5.19891 -1.7608 0
M  V30 14721 H 1335.67 -3.63487 -2.51654 0
M  V30 14722 N 1334.72 -0.0133892 -1.57594 0
M  V30 14723 C 1336.14 0.527615 -1.7909 0
M  V30 14724 C 1336.49 1.73179 -0.922142 0
M  V30 14725 O 1335.61 2.1602 -0.128233 0
M  V30 14726 C 1336.21 0.963949 -3.24798 0
M  V30 14727 C 1334.77 1.45017 -3.47343 0
M  V30 14728 C 1333.91 0.407548 -2.74289 0
M  V30 14729 H 1336.86 -0.239505 -1.56882 0
M  V30 14730 H 1336.88 1.82924 -3.33645 0
M  V30 14731 H 1336.4 0.0873315 -3.88002 0
M  V30 14732 H 1334.5 2.34724 -2.89371 0
M  V30 14733 H 1334.61 1.4684 -4.56043 0
M  V30 14734 H 1332.97 0.872174 -2.39301 0
M  V30 14735 H 1333.76 -0.460333 -3.402 0
M  V30 14736 N 1336.2 1.55448 0.259558 0
M  V30 14737 C 1337.15 1.89248 1.32113 0
M  V30 14738 C 1338.12 0.745348 1.48438 0
M  V30 14739 O 1339.3 0.997854 1.62627 0
M  V30 14740 C 1336.44 2.18161 2.67394 0
M  V30 14741 C 1335.56 3.45614 2.59182 0
M  V30 14742 C 1334.69 3.6416 3.86731 0
M  V30 14743 C 1333.73 4.85258 3.73084 0
M  V30 14744 N 1332.87 5.00391 4.92497 0
M  V30 14745 H 1337.71 2.79785 1.02589 0
M  V30 14746 H 1335.25 1.38509 0.495338 0
M  V30 14747 H 1337.2 2.32927 3.46122 0
M  V30 14748 H 1335.83 1.30843 2.95093 0
M  V30 14749 H 1334.89 3.39248 1.72091 0
M  V30 14750 H 1336.2 4.34483 2.45002 0
M  V30 14751 H 1335.35 3.78817 4.73902 0
M  V30 14752 H 1334.09 2.73501 4.03793 0
M  V30 14753 H 1333.1 4.70591 2.84296 0
M  V30 14754 H 1334.32 5.77365 3.57528 0
M  V30 14755 H 1332.27 4.12666 5.09944 0
M  V30 14756 H 1332.18 5.83328 4.809 0
M  V30 14757 H 1333.45 5.19446 5.81202 0
M  V30 14758 N 1337.68 -0.524672 1.4861 0
M  V30 14759 C 1338.91 -1.30482 1.60568 0
M  V30 14760 C 1339.32 -1.86889 0.267952 0
M  V30 14761 O 1338.68 -1.66669 -0.743488 0
M  V30 14762 C 1338.73 -2.45191 2.65638 0
M  V30 14763 O 1338.45 -1.91107 3.9422 0
M  V30 14764 C 1339.95 -3.36931 2.88084 0
M  V30 14765 H 1337.17 -0.396612 0.541239 0
M  V30 14766 H 1339.72 -0.632392 1.94476 0
M  V30 14767 H 1337.87 -3.08308 2.34574 0
M  V30 14768 H 1338.29 -2.66234 4.51907 0
M  V30 14769 H 1339.76 -4.13755 3.65391 0
M  V30 14770 H 1340.24 -3.92487 1.97106 0
M  V30 14771 H 1340.84 -2.79601 3.20473 0
M  V30 14772 N 1339.16 -1.37287 -0.77395 0
M  V30 14773 C 1340.09 -1.35569 -1.90114 0
M  V30 14774 C 1341.07 -0.224658 -1.6861 0
M  V30 14775 O 1342.25 -0.424676 -1.895 0
M  V30 14776 C 1339.38 -1.15971 -3.27365 0
M  V30 14777 C 1338.34 -2.26063 -3.63427 0
M  V30 14778 C 1337.66 -1.9159 -4.99197 0
M  V30 14779 C 1338.96 -3.68236 -3.70405 0
M  V30 14780 H 1340.66 -2.29891 -1.91808 0
M  V30 14781 H 1338.2 -1.10661 -0.92142 0
M  V30 14782 H 1340.16 -1.134 -4.05855 0
M  V30 14783 H 1338.88 -0.181043 -3.26098 0
M  V30 14784 H 1337.54 -2.27786 -2.87244 0
M  V30 14785 H 1337.19 -0.922586 -4.94467 0
M  V30 14786 H 1336.89 -2.65309 -5.24294 0
M  V30 14787 H 1338.41 -1.90602 -5.80089 0
M  V30 14788 H 1339.83 -3.68655 -4.39052 0
M  V30 14789 H 1338.22 -4.4099 -4.06999 0
M  V30 14790 H 1339.29 -4.02021 -2.71122 0
M  V30 14791 N 1340.64 0.999871 -1.21821 0
M  V30 14792 C 1341.88 1.73497 -1.0365 0
M  V30 14793 C 1342.21 1.90194 0.430271 0
M  V30 14794 O 1341.48 1.45655 1.31002 0
M  V30 14795 H 1340.06 0.642804 -0.380541 0
M  V30 14796 H 1342.72 1.20461 -1.53216 0
M  V30 14797 H 1341.81 2.73215 -1.50864 0
M  V30 14798 N 1342.11 1.02678 1.19562 0
M  V30 14799 C 1343.36 0.723086 1.89471 0
M  V30 14800 C 1343.69 -0.746269 1.79289 0
M  V30 14801 O 1342.97 -1.54322 1.18384 0
M  V30 14802 C 1343.25 1.17224 3.40486 0
M  V30 14803 C 1343.1 2.70266 3.5955 0
M  V30 14804 C 1344.42 0.751397 4.33638 0
M  V30 14805 H 1341.54 0.264155 0.688034 0
M  V30 14806 H 1344.18 1.27633 1.40747 0
M  V30 14807 H 1342.33 0.701544 3.82113 0
M  V30 14808 H 1344.01 3.25266 3.27108 0
M  V30 14809 H 1342.25 3.10758 3.02675 0
M  V30 14810 H 1342.92 2.96748 4.65451 0
M  V30 14811 H 1345.4 1.15621 3.99714 0
M  V30 14812 H 1344.27 1.09358 5.37896 0
M  V30 14813 H 1344.53 -0.346367 4.40741 0
M  V30 14814 N 1343.59 -1.35528 0.804364 0
M  V30 14815 C 1345.01 -1.51962 0.487831 0
M  V30 14816 C 1345.21 -1.75426 -0.991353 0
M  V30 14817 O 1344.26 -1.7944 -1.77644 0
M  V30 14818 C 1345.58 -2.69626 1.33126 0
M  V30 14819 C 1347.13 -2.83502 1.32648 0
M  V30 14820 C 1347.6 -4.04188 2.15397 0
M  V30 14821 N 1349.09 -4.11362 2.12922 0
M  V30 14822 C 1349.83 -5.03856 2.73709 0
M  V30 14823 N 1349.32 -6.01696 3.43415 0
M  V30 14824 N 1351.12 -4.96585 2.63363 0
M  V30 14825 H 1343.27 -1.18553 1.76235 0
M  V30 14826 H 1345.53 -0.57986 0.749977 0
M  V30 14827 H 1345.24 -2.58857 2.38088 0
M  V30 14828 H 1345.11 -3.64168 0.982934 0
M  V30 14829 H 1347.5 -2.93723 0.284712 0
M  V30 14830 H 1347.58 -1.89824 1.71466 0
M  V30 14831 H 1347.22 -3.94728 3.19613 0
M  V30 14832 H 1347.15 -4.97044 1.7394 0
M  V30 14833 H 1349.64 -3.41319 1.62203 0
M  V30 14834 H 1349.96 -6.68866 3.8709 0
M  V30 14835 H 1348.3 -6.01877 3.47519 0
M  V30 14836 H 1351.49 -4.19103 2.08496 0
M  V30 14837 H 1351.66 -5.68478 3.11026 0
M  V30 14838 N 1345.07 -0.557671 -1.47404 0
M  V30 14839 C 1346.02 0.210176 -2.27029 0
M  V30 14840 C 1347.01 0.884882 -1.34382 0
M  V30 14841 O 1348.2 0.783112 -1.58734 0
M  V30 14842 C 1345.33 1.23923 -3.20153 0
M  V30 14843 C 1344.41 0.567913 -4.2028 0
M  V30 14844 N 1344.8 -0.362279 -5.04501 0
M  V30 14845 C 1343.1 0.821776 -4.38364 0
M  V30 14846 C 1343.8 -0.752273 -5.76815 0
M  V30 14847 N 1342.78 -0.107008 -5.43495 0
M  V30 14848 H 1346.58 -0.505007 -2.89529 0
M  V30 14849 H 1344.09 -0.377642 -1.57948 0
M  V30 14850 H 1346.09 1.80328 -3.75882 0
M  V30 14851 H 1344.75 1.9555 -2.59211 0
M  V30 14852 H 1345.76 -0.736468 -5.12637 0
M  V30 14853 H 1342.44 1.52652 -3.88592 0
M  V30 14854 H 1343.83 -1.51664 -6.54559 0
M  V30 14855 N 1346.55 1.54831 -0.294147 0
M  V30 14856 C 1347.83 1.92071 0.369902 0
M  V30 14857 C 1348.21 1.22061 1.72233 0
M  V30 14858 O 1347.55 0.353975 2.25742 0
M  V30 14859 C 1347.76 3.45524 0.49135 0
M  V30 14860 C 1349.11 4.17644 0.765411 0
M  V30 14861 O 1350.14 3.51521 0.575428 0
M  V30 14862 O 1349 5.34692 1.12992 0
M  V30 14863 H 1346.09 0.801033 0.20561 0
M  V30 14864 H 1348.64 1.66224 -0.341702 0
M  V30 14865 H 1347.41 3.88591 -0.459663 0
M  V30 14866 H 1347.03 3.77384 1.25169 0
M  V30 14867 N 1348.03 0.0217466 1.57585 0
M  V30 14868 C 1349.27 -0.653715 1.92609 0
M  V30 14869 C 1349.63 -1.70158 0.897998 0
M  V30 14870 O 1348.92 -1.91403 -0.0869654 0
M  V30 14871 C 1349.12 -1.3197 3.32143 0
M  V30 14872 C 1348.94 -0.33786 4.48429 0
M  V30 14873 C 1347.71 0.0596192 5.05265 0
M  V30 14874 C 1349.91 0.404844 5.12704 0
M  V30 14875 N 1347.89 1.03739 6.05071 0
M  V30 14876 C 1349.27 1.2366 6.07543 0
M  V30 14877 C 1351.32 0.466341 4.95711 0
M  V30 14878 C 1350.02 2.1243 6.87216 0
M  V30 14879 C 1352.05 1.34134 5.75988 0
M  V30 14880 C 1351.41 2.1609 6.70436 0
M  V30 14881 H 1347.51 -0.211748 0.752786 0
M  V30 14882 H 1350.09 0.0871946 1.94505 0
M  V30 14883 H 1348.27 -2.03078 3.3108 0
M  V30 14884 H 1350 -1.95159 3.54535 0
M  V30 14885 H 1346.75 -0.313299 4.72563 0
M  V30 14886 H 1347.18 1.5223 6.59663 0
M  V30 14887 H 1351.82 -0.153024 4.22523 0
M  V30 14888 H 1349.54 2.75424 7.59715 0
M  V30 14889 H 1353.12 1.39312 5.64875 0
M  V30 14890 H 1352 2.82701 7.31471 0
M  V30 14891 N 1349.51 -1.55583 -0.251311 0
M  V30 14892 C 1350.73 -1.81259 -0.997636 0
M  V30 14893 C 1351.15 -0.596861 -1.79117 0
M  V30 14894 O 1350.51 0.434425 -1.77254 0
M  V30 14895 C 1350.56 -3.05097 -1.93902 0
M  V30 14896 O 1350.28 -4.21976 -1.1776 0
M  V30 14897 C 1351.78 -3.4354 -2.8017 0
M  V30 14898 H 1349 -0.603279 -0.29376 0
M  V30 14899 H 1351.54 -2.02635 -0.27553 0
M  V30 14900 H 1349.7 -2.85784 -2.61546 0
M  V30 14901 H 1350.11 -4.92133 -1.81398 0
M  V30 14902 H 1351.59 -4.33305 -3.41981 0
M  V30 14903 H 1352.06 -2.63924 -3.51057 0
M  V30 14904 H 1352.67 -3.65189 -2.17985 0
M  V30 14905 N 1350.98 0.516783 -1.48886 0
M  V30 14906 C 1352.23 1.27118 -1.58785 0
M  V30 14907 C 1352.58 1.90579 -0.264114 0
M  V30 14908 O 1351.88 1.76972 0.734271 0
M  V30 14909 C 1352.07 2.37296 -2.67256 0
M  V30 14910 C 1351.9 1.84637 -4.10048 0
M  V30 14911 C 1350.67 1.66646 -4.77029 0
M  V30 14912 C 1352.87 1.36728 -4.95792 0
M  V30 14913 N 1350.85 1.08751 -6.04191 0
M  V30 14914 C 1352.22 0.908663 -6.13305 0
M  V30 14915 C 1354.28 1.25154 -4.81914 0
M  V30 14916 C 1352.98 0.345766 -7.18468 0
M  V30 14917 C 1355.01 0.702625 -5.87211 0
M  V30 14918 C 1354.37 0.254151 -7.03941 0
M  V30 14919 H 1350.47 0.455698 -0.635503 0
M  V30 14920 H 1353.05 0.581119 -1.85825 0
M  V30 14921 H 1351.22 3.03782 -2.42014 0
M  V30 14922 H 1352.95 3.04334 -2.66764 0
M  V30 14923 H 1349.71 1.90556 -4.33573 0
M  V30 14924 H 1350.13 0.817766 -6.72043 0
M  V30 14925 H 1354.77 1.58429 -3.91995 0
M  V30 14926 H 1352.49 0.000713578 -8.081 0
M  V30 14927 H 1356.08 0.616065 -5.78529 0
M  V30 14928 H 1354.96 -0.163978 -7.84029 0
M  V30 14929 N 1352.46 1.37696 0.766659 0
M  V30 14930 C 1353.39 1.36576 1.89392 0
M  V30 14931 C 1354.37 0.233597 1.68488 0
M  V30 14932 O 1355.56 0.434719 1.89272 0
M  V30 14933 C 1352.69 1.17705 3.26746 0
M  V30 14934 C 1351.64 2.27987 3.62224 0
M  V30 14935 C 1350.97 1.94235 4.98174 0
M  V30 14936 C 1352.27 3.70195 3.68447 0
M  V30 14937 H 1353.96 2.30905 1.90587 0
M  V30 14938 H 1351.51 1.11148 0.915538 0
M  V30 14939 H 1353.46 1.15551 4.05248 0
M  V30 14940 H 1352.18 0.198334 3.25997 0
M  V30 14941 H 1350.84 2.29306 2.86032 0
M  V30 14942 H 1350.49 0.948796 4.93971 0
M  V30 14943 H 1350.19 2.68086 5.2288 0
M  V30 14944 H 1351.72 1.93676 5.7907 0
M  V30 14945 H 1353.13 3.70978 4.37091 0
M  V30 14946 H 1351.53 4.43142 4.04654 0
M  V30 14947 H 1352.6 4.03453 2.68986 0
M  V30 14948 N 1353.94 -0.993397 1.22349 0
M  V30 14949 C 1354.9 -2.065 0.994506 0
M  V30 14950 C 1355.9 -1.60753 -0.0388766 0
M  V30 14951 O 1357.09 -1.73053 0.199578 0
M  V30 14952 C 1354.22 -3.37182 0.502088 0
M  V30 14953 H 1355.42 -2.28248 1.94533 0
M  V30 14954 H 1352.97 -1.16489 1.04211 0
M  V30 14955 H 1353.71 -3.21119 -0.453114 0
M  V30 14956 H 1353.49 -3.71721 1.24763 0
M  V30 14957 H 1354.98 -4.16027 0.362108 0
M  V30 14958 N 1355.42 -1.03311 -1.19015 0
M  V30 14959 C 1356.83 -0.761079 -1.70483 0
M  V30 14960 C 1357.18 0.718851 -1.82557 0
M  V30 14961 O 1356.3 1.56006 -1.4997 0
M  V30 14962 C 1356.9 -1.37492 -3.09647 0
M  V30 14963 C 1355.46 -1.15138 -3.58358 0
M  V30 14964 C 1354.61 -1.47034 -2.35109 0
M  V30 14965 H 1357.56 -1.2005 -1.03797 0
M  V30 14966 H 1357.58 -0.774115 -3.72542 0
M  V30 14967 H 1357.09 -2.45203 -3.00828 0
M  V30 14968 H 1355.19 -0.0926822 -3.72485 0
M  V30 14969 H 1355.3 -1.84307 -4.4223 0
M  V30 14970 H 1353.67 -0.889794 -2.38652 0
M  V30 14971 H 1354.45 -2.55837 -2.28916 0
M  V30 14972 N 1356.9 1.35099 -0.81154 0
M  V30 14973 C 1357.83 2.32264 -0.239925 0
M  V30 14974 C 1358.81 1.57708 0.637354 0
M  V30 14975 O 1359.99 1.85751 0.566598 0
M  V30 14976 C 1357.12 3.41931 0.608325 0
M  V30 14977 C 1356.08 4.27659 -0.170869 0
M  V30 14978 C 1355.4 5.28691 0.799398 0
M  V30 14979 C 1356.7 5.0394 -1.37266 0
M  V30 14980 H 1358.4 2.8032 -1.05172 0
M  V30 14981 H 1355.94 1.34773 -0.507185 0
M  V30 14982 H 1357.89 4.08911 1.01832 0
M  V30 14983 H 1356.62 2.92496 1.45306 0
M  V30 14984 H 1355.28 3.62265 -0.562094 0
M  V30 14985 H 1354.93 4.75521 1.63977 0
M  V30 14986 H 1354.63 5.86921 0.282331 0
M  V30 14987 H 1356.15 5.98542 1.20749 0
M  V30 14988 H 1357.56 5.63838 -1.03728 0
M  V30 14989 H 1355.96 5.7169 -1.82456 0
M  V30 14990 H 1357.03 4.34295 -2.15676 0
M  V30 14991 N 1358.37 0.56548 1.47106 0
M  V30 14992 C 1359.34 -0.167191 2.28589 0
M  V30 14993 C 1360.34 -0.835005 1.3742 0
M  V30 14994 O 1361.53 -0.689598 1.59969 0
M  V30 14995 C 1358.66 -1.24548 3.17333 0
M  V30 14996 H 1359.85 0.548677 2.94838 0
M  V30 14997 H 1357.4 0.322749 1.52931 0
M  V30 14998 H 1358.14 -1.99348 2.55794 0
M  V30 14999 H 1357.92 -0.771335 3.84438 0
M  V30 15000 H 1359.41 -1.75985 3.78707 0
M  V30 15001 N 1359.85 -1.54672 0.302354 0
M  V30 15002 C 1360.76 -2.27251 -0.582578 0
M  V30 15003 C 1361.78 -1.30819 -1.14727 0
M  V30 15004 O 1362.95 -1.63803 -1.17177 0
M  V30 15005 C 1360.02 -3.00016 -1.73757 0
M  V30 15006 C 1359.08 -4.11988 -1.20682 0
M  V30 15007 C 1358.31 -4.81273 -2.30676 0
M  V30 15008 O 1358.54 -4.49927 -3.50602 0
M  V30 15009 O 1357.47 -5.68647 -1.97291 0
M  V30 15010 H 1361.3 -3.03699 0.00621365 0
M  V30 15011 H 1358.88 -1.49242 0.0687684 0
M  V30 15012 H 1360.76 -3.45652 -2.41045 0
M  V30 15013 H 1359.44 -2.26462 -2.31294 0
M  V30 15014 H 1358.35 -3.70749 -0.499625 0
M  V30 15015 H 1359.68 -4.87524 -0.676858 0
M  V30 15016 N 1361.33 -0.0301034 -1.57571 0
M  V30 15017 C 1362.24 0.967086 -2.1374 0
M  V30 15018 C 1363.26 1.35636 -1.0899 0
M  V30 15019 O 1364.43 1.43758 -1.41052 0
M  V30 15020 C 1361.5 2.23058 -2.65417 0
M  V30 15021 C 1360.56 1.90163 -3.84885 0
M  V30 15022 C 1359.79 3.10488 -4.34088 0
M  V30 15023 O 1360.01 4.23179 -3.8246 0
M  V30 15024 O 1358.95 2.92729 -5.25921 0
M  V30 15025 H 1362.77 0.519486 -2.99224 0
M  V30 15026 H 1360.36 0.190559 -1.4818 0
M  V30 15027 H 1362.24 2.97229 -2.98719 0
M  V30 15028 H 1360.92 2.66997 -1.83015 0
M  V30 15029 H 1359.82 1.13373 -3.56507 0
M  V30 15030 H 1361.16 1.51039 -4.68453 0
M  V30 15031 N 1362.81 1.55714 0.243056 0
M  V30 15032 C 1363.72 1.93777 1.32241 0
M  V30 15033 C 1364.73 0.838709 1.52452 0
M  V30 15034 O 1365.91 1.14044 1.66 0
M  V30 15035 C 1362.98 2.22808 2.65627 0
M  V30 15036 C 1362.04 3.46166 2.53904 0
M  V30 15037 C 1361.27 3.73802 3.8093 0
M  V30 15038 O 1361.49 3.0345 4.82985 0
M  V30 15039 O 1360.43 4.67323 3.79332 0
M  V30 15040 H 1364.25 2.85718 1.02951 0
M  V30 15041 H 1361.84 1.42646 0.444135 0
M  V30 15042 H 1363.72 2.4277 3.44442 0
M  V30 15043 H 1362.39 1.34045 2.94642 0
M  V30 15044 H 1361.3 3.31506 1.73362 0
M  V30 15045 H 1362.63 4.35244 2.29834 0
M  V30 15046 N 1364.29 -0.50888 1.49158 0
M  V30 15047 C 1365.56 -1.27021 1.48745 0
M  V30 15048 C 1365.94 -2.10045 0.210772 0
M  V30 15049 O 1365.29 -2.13773 -0.807061 0
M  V30 15050 C 1365.5 -2.13367 2.76181 0
M  V30 15051 C 1366.85 -2.72815 3.25357 0
M  V30 15052 O 1367.87 -2.23639 2.77243 0
M  V30 15053 O 1366.73 -3.62316 4.09133 0
M  V30 15054 H 1363.83 -0.574387 0.594986 0
M  V30 15055 H 1366.37 -0.523798 1.61414 0
M  V30 15056 H 1365.14 -1.51941 3.60596 0
M  V30 15057 H 1364.77 -2.95215 2.66334 0
M  V30 15058 N 1365.76 -1.381 -0.759346 0
M  V30 15059 C 1367.04 -1.24517 -1.50847 0
M  V30 15060 C 1367.42 0.155929 -2.10523 0
M  V30 15061 O 1366.77 1.16485 -1.96579 0
M  V30 15062 C 1366.98 -2.35086 -2.57945 0
M  V30 15063 C 1368.33 -2.73232 -3.25007 0
M  V30 15064 O 1369.35 -2.34355 -2.68247 0
M  V30 15065 O 1368.21 -3.40254 -4.27656 0
M  V30 15066 H 1365.3 -0.486599 -0.668693 0
M  V30 15067 H 1367.85 -1.49913 -0.795249 0
M  V30 15068 H 1366.62 -3.28858 -2.12056 0
M  V30 15069 H 1366.25 -2.11222 -3.36854 0
M  V30 15070 N 1367.24 0.986894 -1.22875 0
M  V30 15071 C 1368.49 1.72985 -1.05849 0
M  V30 15072 C 1368.82 1.89939 0.404594 0
M  V30 15073 O 1368.1 1.44693 1.29978 0
M  V30 15074 C 1368.38 3.13193 -1.77714 0
M  V30 15075 C 1368.23 3.0385 -3.31655 0
M  V30 15076 C 1369.55 4.12486 -1.53438 0
M  V30 15077 H 1366.67 0.627877 -0.385926 0
M  V30 15078 H 1369.31 1.14936 -1.51294 0
M  V30 15079 H 1367.46 3.62751 -1.39083 0
M  V30 15080 H 1369.13 2.61866 -3.79768 0
M  V30 15081 H 1367.38 2.4051 -3.61023 0
M  V30 15082 H 1368.05 4.03092 -3.77122 0
M  V30 15083 H 1370.52 3.71709 -1.87007 0
M  V30 15084 H 1369.4 5.08694 -2.06207 0
M  V30 15085 H 1369.66 4.39613 -0.468294 0
M  V30 15086 N 1368.72 1.0394 1.18466 0
M  V30 15087 C 1369.63 0.639714 2.2571 0
M  V30 15088 C 1370.65 -0.333431 1.70775 0
M  V30 15089 O 1371.82 -0.188676 2.00514 0
M  V30 15090 C 1368.89 0.007559 3.46699 0
M  V30 15091 C 1367.95 1.02955 4.16772 0
M  V30 15092 C 1367.18 0.427464 5.31985 0
M  V30 15093 O 1367.4 -0.766684 5.65224 0
M  V30 15094 O 1366.34 1.15553 5.90704 0
M  V30 15095 H 1370.16 1.53316 2.6216 0
M  V30 15096 H 1367.75 0.810206 1.25523 0
M  V30 15097 H 1369.63 -0.344404 4.1999 0
M  V30 15098 H 1368.31 -0.859727 3.12074 0
M  V30 15099 H 1367.21 1.43328 3.45554 0
M  V30 15100 H 1368.55 1.86756 4.55393 0
M  V30 15101 N 1370.2 -1.34667 0.818693 0
M  V30 15102 C 1371.45 -1.98414 0.404759 0
M  V30 15103 C 1371.77 -1.64919 -1.03112 0
M  V30 15104 O 1371.03 -0.910695 -1.73219 0
M  V30 15105 C 1371.33 -3.53157 0.549059 0
M  V30 15106 C 1370.99 -4.06552 1.95003 0
M  V30 15107 C 1369.66 -4.20846 2.33329 0
M  V30 15108 C 1372.01 -4.35324 2.86604 0
M  V30 15109 C 1369.34 -4.61236 3.62599 0
M  V30 15110 C 1371.69 -4.77159 4.15334 0
M  V30 15111 C 1370.35 -4.89658 4.53642 0
M  V30 15112 H 1369.62 -0.726047 0.148112 0
M  V30 15113 H 1372.27 -1.60681 1.04182 0
M  V30 15114 H 1370.57 -3.91425 -0.17141 0
M  V30 15115 H 1372.27 -4.00453 0.209374 0
M  V30 15116 H 1368.86 -3.95887 1.64231 0
M  V30 15117 H 1373.04 -4.23823 2.58239 0
M  V30 15118 H 1368.3 -4.69104 3.92112 0
M  V30 15119 H 1372.47 -4.98381 4.86404 0
M  V30 15120 H 1370.1 -5.20713 5.53861 0
M  V30 15121 N 1371.68 -0.573274 -1.46804 0
M  V30 15122 C 1372.9 -0.0586717 -2.07317 0
M  V30 15123 C 1373.33 1.2328 -1.42069 0
M  V30 15124 O 1372.68 1.74235 -0.501188 0
M  V30 15125 C 1372.73 0.103503 -3.60451 0
M  V30 15126 O 1371.84 1.16229 -3.95682 0
M  V30 15127 H 1371.18 -0.0585504 -0.661414 0
M  V30 15128 H 1373.71 -0.793532 -1.88585 0
M  V30 15129 H 1373.72 0.312658 -4.068 0
M  V30 15130 H 1372.39 -0.839684 -4.07335 0
M  V30 15131 H 1370.97 0.932347 -3.61056 0
M  V30 15132 N 1373.15 1.5451 -0.310553 0
M  V30 15133 C 1374.4 1.99931 0.29532 0
M  V30 15134 C 1374.72 1.20042 1.53672 0
M  V30 15135 O 1373.99 0.298841 1.93607 0
M  V30 15136 H 1372.57 0.738539 0.112111 0
M  V30 15137 H 1375.24 1.9023 -0.424092 0
M  V30 15138 H 1374.33 3.07021 0.560749 0
M  V30 15139 N 1374.63 0.0384594 1.57553 0
M  V30 15140 C 1375.54 -0.955737 2.14249 0
M  V30 15141 C 1376.56 -1.35056 1.09708 0
M  V30 15142 O 1377.74 -1.43008 1.41812 0
M  V30 15143 C 1374.8 -2.21647 2.66596 0
M  V30 15144 C 1373.86 -1.88119 3.85888 0
M  V30 15145 C 1373.09 -3.08182 4.35729 0
M  V30 15146 O 1373.32 -4.21145 3.84699 0
M  V30 15147 O 1372.25 -2.89936 5.27467 0
M  V30 15148 H 1376.08 -0.50361 2.99495 0
M  V30 15149 H 1373.66 -0.182698 1.48279 0
M  V30 15150 H 1375.54 -2.9564 3.00291 0
M  V30 15151 H 1374.22 -2.66022 1.84428 0
M  V30 15152 H 1373.13 -1.11481 3.57103 0
M  V30 15153 H 1374.46 -1.48553 4.69247 0
M  V30 15154 N 1376.11 -1.55841 -0.234795 0
M  V30 15155 C 1377.39 -1.69008 -0.984665 0
M  V30 15156 C 1377.77 -0.581882 -2.02922 0
M  V30 15157 O 1377.12 0.412998 -2.24737 0
M  V30 15158 C 1377.33 -3.09796 -1.60708 0
M  V30 15159 C 1378.67 -3.68784 -2.10436 0
M  V30 15160 O 1379.7 -3.12674 -1.70627 0
M  V30 15161 O 1378.56 -4.67175 -2.83567 0
M  V30 15162 H 1375.65 -0.68786 -0.459105 0
M  V30 15163 H 1378.2 -1.68166 -0.227623 0
M  V30 15164 H 1376.97 -3.81908 -0.852169 0
M  V30 15165 H 1376.59 -3.147 -2.43001 0
M  V30 15166 N 1377.59 0.500963 -1.49426 0
M  V30 15167 C 1378.54 1.62335 -1.66584 0
M  V30 15168 C 1379.53 1.60837 -0.531773 0
M  V30 15169 O 1380.74 1.65345 -0.711408 0
M  V30 15170 H 1377.11 0.538131 -0.52528 0
M  V30 15171 H 1379.08 1.45016 -2.60793 0
M  V30 15172 C 1377.83 3.00469 -1.74968 0
M  V30 15173 H 1377.16 3.02328 -2.61607 0
M  V30 15174 H 1378.6 3.78539 -1.91008 0
M  V30 15175 C 1377.05 3.33251 -0.49451 0
M  V30 15176 O 1377.58 3.99901 0.379783 0
M  V30 15177 N 1375.79 2.88393 -0.357445 0
M  V30 15178 H 1375.34 2.3433 -1.06991 0
M  V30 15179 H 1375.3 3.10694 0.481287 0
M  V30 15180 N 1379.07 1.38501 0.752011 0
M  V30 15181 C 1380.03 1.35655 1.84744 0
M  V30 15182 C 1381.03 0.256772 1.58737 0
M  V30 15183 O 1382.22 0.513749 1.66452 0
M  V30 15184 C 1379.35 1.11231 3.22243 0
M  V30 15185 H 1380.55 2.33114 1.88674 0
M  V30 15186 H 1378.1 1.23818 0.953882 0
M  V30 15187 H 1378.83 0.143848 3.23981 0
M  V30 15188 H 1378.62 1.90857 3.42515 0
M  V30 15189 H 1380.11 1.11939 4.02318 0
M  V30 15190 N 1380.55 -0.980364 1.23396 0
M  V30 15191 C 1381.48 -2.07522 0.972991 0
M  V30 15192 C 1382.49 -1.62714 -0.0530191 0
M  V30 15193 O 1383.68 -1.77564 0.182513 0
M  V30 15194 C 1380.78 -3.35977 0.444126 0
M  V30 15195 C 1379.95 -4.09756 1.53031 0
M  V30 15196 C 1379.01 -5.16488 1.00631 0
M  V30 15197 O 1378.04 -5.43368 1.69529 0
M  V30 15198 N 1379.24 -5.80263 -0.165842 0
M  V30 15199 H 1382 -2.30487 1.91561 0
M  V30 15200 H 1379.57 -1.14706 1.14255 0
M  V30 15201 H 1381.56 -4.04624 0.078617 0
M  V30 15202 H 1380.13 -3.0998 -0.403912 0
M  V30 15203 H 1379.35 -3.35564 2.06858 0
M  V30 15204 H 1380.64 -4.55815 2.26076 0
M  V30 15205 H 1380.03 -5.60811 -0.742162 0
M  V30 15206 H 1378.59 -6.50084 -0.472614 0
M  V30 15207 N 1382.02 -1.04567 -1.17913 0
M  V30 15208 C 1383.44 -0.76584 -1.40025 0
M  V30 15209 C 1383.64 0.642484 -1.90983 0
M  V30 15210 O 1382.7 1.40589 -2.0974 0
M  V30 15211 C 1384.01 -1.81616 -2.39658 0
M  V30 15212 C 1385.56 -1.83765 -2.53376 0
M  V30 15213 C 1386.03 -2.87803 -3.56277 0
M  V30 15214 N 1387.52 -2.86726 -3.63789 0
M  V30 15215 C 1388.26 -3.63876 -4.4315 0
M  V30 15216 N 1387.75 -4.50793 -5.26077 0
M  V30 15217 N 1389.55 -3.52344 -4.37962 0
M  V30 15218 H 1381.7 -1.95442 -0.831647 0
M  V30 15219 H 1383.96 -0.84593 -0.42791 0
M  V30 15220 H 1383.67 -2.8266 -2.09275 0
M  V30 15221 H 1383.54 -1.65251 -3.39075 0
M  V30 15222 H 1385.93 -0.833896 -2.83073 0
M  V30 15223 H 1386.01 -2.04208 -1.54055 0
M  V30 15224 H 1385.65 -3.88361 -3.2732 0
M  V30 15225 H 1385.58 -2.64614 -4.55288 0
M  V30 15226 H 1388.07 -2.237 -3.04576 0
M  V30 15227 H 1388.39 -5.0636 -5.83798 0
M  V30 15228 H 1386.73 -4.54858 -5.2548 0
M  V30 15229 H 1389.92 -2.8384 -3.72226 0
M  V30 15230 H 1390.1 -4.12718 -4.99568 0
M  V30 15231 N 1383.5 1.34231 -0.825823 0
M  V30 15232 C 1384.75 1.97454 -0.411661 0
M  V30 15233 C 1385.06 1.66193 1.03147 0
M  V30 15234 O 1386.27 2.22929 1.54968 0
M  V30 15235 C 1384.73 3.53318 -0.685145 0
M  V30 15236 C 1384.33 3.9347 -2.14208 0
M  V30 15237 C 1386.08 4.23158 -0.337291 0
M  V30 15238 C 1383.98 5.42258 -2.3603 0
M  V30 15239 H 1382.91 0.738889 -0.150196 0
M  V30 15240 H 1385.57 1.53033 -1.01258 0
M  V30 15241 H 1383.95 3.95998 -0.0140178 0
M  V30 15242 H 1385.12 3.61888 -2.85261 0
M  V30 15243 H 1383.44 3.36575 -2.45165 0
M  V30 15244 H 1386.03 5.32558 -0.47813 0
M  V30 15245 H 1386.38 4.10053 0.718499 0
M  V30 15246 H 1386.91 3.85965 -0.963113 0
M  V30 15247 H 1383.65 5.60352 -3.40126 0
M  V30 15248 H 1383.17 5.75345 -1.69524 0
M  V30 15249 H 1384.85 6.08976 -2.18533 0
M  V30 15250 N 1384.98 0.581051 1.46498 0
M  V30 15251 C 1386.21 0.0715652 2.06776 0
M  V30 15252 C 1386.62 -1.23267 1.43006 0
M  V30 15253 O 1385.98 -1.74489 0.534776 0
M  V30 15254 C 1386.03 -0.102666 3.61354 0
M  V30 15255 O 1385.75 1.14995 4.22739 0
M  V30 15256 C 1387.25 -0.646692 4.38558 0
M  V30 15257 H 1384.47 0.0566964 0.6686 0
M  V30 15258 H 1387.02 0.801248 1.8815 0
M  V30 15259 H 1385.17 -0.782564 3.79414 0
M  V30 15260 H 1385.59 0.962718 5.15589 0
M  V30 15261 H 1387.06 -0.717791 5.47313 0
M  V30 15262 H 1387.54 -1.6633 4.06486 0
M  V30 15263 H 1388.14 -0.00171739 4.253 0
M  V30 15264 N 1386.46 -1.54343 0.318742 0
M  V30 15265 C 1387.39 -2.21652 -0.583351 0
M  V30 15266 C 1388.4 -1.21494 -1.08366 0
M  V30 15267 O 1389.59 -1.4799 -0.998064 0
M  V30 15268 C 1386.69 -2.86349 -1.81266 0
M  V30 15269 C 1385.86 -4.12601 -1.45186 0
M  V30 15270 C 1384.92 -4.60937 -2.53818 0
M  V30 15271 O 1383.95 -5.25731 -2.18164 0
M  V30 15272 N 1385.15 -4.34755 -3.84667 0
M  V30 15273 H 1387.92 -2.99699 -0.00703539 0
M  V30 15274 H 1385.48 -1.61278 0.141728 0
M  V30 15275 H 1387.47 -3.15611 -2.53321 0
M  V30 15276 H 1386.04 -2.12037 -2.29693 0
M  V30 15277 H 1385.26 -3.90157 -0.563143 0
M  V30 15278 H 1386.55 -4.94774 -1.18642 0
M  V30 15279 H 1385.95 -3.82883 -4.16434 0
M  V30 15280 H 1384.5 -4.68683 -4.52967 0
M  V30 15281 N 1387.94 -0.0468143 -1.5753 0
M  V30 15282 C 1389.35 0.489509 -1.80169 0
M  V30 15283 C 1389.7 1.71184 -0.958669 0
M  V30 15284 O 1388.82 2.15699 -0.174025 0
M  V30 15285 C 1389.42 0.894838 -3.26769 0
M  V30 15286 C 1387.98 1.37617 -3.50341 0
M  V30 15287 C 1387.12 0.349275 -2.75092 0
M  V30 15288 H 1390.07 -0.272728 -1.56339 0
M  V30 15289 H 1390.1 1.75805 -3.3745 0
M  V30 15290 H 1389.61 0.00501096 -3.881 0
M  V30 15291 H 1387.71 2.28533 -2.94285 0
M  V30 15292 H 1387.82 1.37133 -4.59055 0
M  V30 15293 H 1386.19 0.821219 -2.41098 0
M  V30 15294 H 1386.97 -0.532391 -3.39147 0
M  V30 15295 N 1389.41 1.55964 0.226527 0
M  V30 15296 C 1390.32 1.95169 1.30178 0
M  V30 15297 C 1391.34 0.854831 1.51554 0
M  V30 15298 O 1392.52 1.15798 1.64781 0
M  V30 15299 C 1389.58 2.25612 2.63249 0
M  V30 15300 C 1388.64 3.4884 2.50219 0
M  V30 15301 C 1387.88 3.77822 3.76944 0
M  V30 15302 O 1388.1 3.08556 4.79739 0
M  V30 15303 O 1387.03 4.7132 3.74354 0
M  V30 15304 H 1390.86 2.86794 0.999145 0
M  V30 15305 H 1388.44 1.43109 0.42898 0
M  V30 15306 H 1390.33 2.4641 3.41848 0
M  V30 15307 H 1389 1.37162 2.93203 0
M  V30 15308 H 1387.91 3.33326 1.69836 0
M  V30 15309 H 1389.24 4.37657 2.25205 0
M  V30 15310 N 1390.89 -0.493031 1.4969 0
M  V30 15311 C 1392.3 -1.0744 1.52688 0
M  V30 15312 C 1392.65 -1.93612 0.317652 0
M  V30 15313 O 1391.78 -2.0871 -0.571745 0
M  V30 15314 C 1392.37 -1.95523 2.76688 0
M  V30 15315 C 1390.93 -2.48808 2.82438 0
M  V30 15316 C 1390.08 -1.26617 2.46705 0
M  V30 15317 H 1393.03 -0.276589 1.56271 0
M  V30 15318 H 1393.05 -2.80315 2.57301 0
M  V30 15319 H 1392.56 -1.32779 3.6468 0
M  V30 15320 H 1390.67 -3.15168 1.98746 0
M  V30 15321 H 1390.78 -2.85416 3.84805 0
M  V30 15322 H 1389.14 -1.59396 1.98658 0
M  V30 15323 H 1389.93 -0.655695 3.3698 0
M  V30 15324 N 1392.37 -1.38898 -0.744656 0
M  V30 15325 C 1393.28 -1.39098 -1.88915 0
M  V30 15326 C 1394.3 -0.286956 -1.71617 0
M  V30 15327 O 1395.47 -0.526852 -1.94387 0
M  V30 15328 C 1392.54 -1.22352 -3.24393 0
M  V30 15329 C 1391.6 -2.4264 -3.54153 0
M  V30 15330 C 1390.83 -2.26683 -4.83167 0
M  V30 15331 O 1391.05 -1.26523 -5.56191 0
M  V30 15332 O 1389.99 -3.15464 -5.12607 0
M  V30 15333 H 1393.81 -2.35551 -1.91701 0
M  V30 15334 H 1391.4 -1.19911 -0.891158 0
M  V30 15335 H 1393.28 -1.15109 -4.05374 0
M  V30 15336 H 1391.96 -0.289886 -3.22399 0
M  V30 15337 H 1390.86 -2.55459 -2.73298 0
M  V30 15338 H 1392.2 -3.34664 -3.60917 0
M  V30 15339 N 1393.85 0.973806 -1.23914 0
M  V30 15340 C 1394.78 2.07003 -0.983982 0
M  V30 15341 C 1395.79 1.62739 0.0443893 0
M  V30 15342 O 1396.98 1.77465 -0.191927 0
M  V30 15343 C 1394.08 3.35737 -0.461937 0
M  V30 15344 C 1393.26 4.08939 -1.55202 0
M  V30 15345 C 1392.31 5.15947 -1.03369 0
M  V30 15346 O 1391.34 5.42461 -1.72409 0
M  V30 15347 N 1392.54 5.80343 0.135067 0
M  V30 15348 H 1395.31 2.29468 -1.92781 0
M  V30 15349 H 1392.87 1.14098 -1.14861 0
M  V30 15350 H 1394.86 4.04576 -0.100074 0
M  V30 15351 H 1393.43 3.10189 0.387467 0
M  V30 15352 H 1392.65 3.34462 -2.08635 0
M  V30 15353 H 1393.94 4.5461 -2.2849 0
M  V30 15354 H 1393.34 5.61196 0.71241 0
M  V30 15355 H 1391.89 6.50326 0.438132 0
M  V30 15356 N 1395.33 1.05191 1.17357 0
M  V30 15357 C 1396.26 0.610878 2.20909 0
M  V30 15358 C 1397.27 -0.325369 1.59515 0
M  V30 15359 O 1398.46 -0.118104 1.78109 0
M  V30 15360 C 1395.56 -0.126086 3.38665 0
M  V30 15361 C 1394.73 0.820857 4.29629 0
M  V30 15362 C 1393.79 0.125154 5.26051 0
M  V30 15363 O 1392.82 0.759245 5.64114 0
M  V30 15364 N 1394.02 -1.13742 5.69248 0
M  V30 15365 H 1396.79 1.50158 2.5937 0
M  V30 15366 H 1394.35 0.933814 1.32256 0
M  V30 15367 H 1396.34 -0.601627 4.00203 0
M  V30 15368 H 1394.91 -0.918459 2.98803 0
M  V30 15369 H 1394.13 1.47602 3.65523 0
M  V30 15370 H 1395.42 1.46363 4.87294 0
M  V30 15371 H 1394.81 -1.67291 5.40398 0
M  V30 15372 H 1393.37 -1.55703 6.3293 0
M  V30 15373 N 1396.8 -1.33791 0.83293 0
M  V30 15374 C 1397.77 -2.27637 0.267196 0
M  V30 15375 C 1398.77 -1.50709 -0.560669 0
M  V30 15376 O 1399.96 -1.70109 -0.375321 0
M  V30 15377 C 1397.09 -3.35136 -0.624248 0
M  V30 15378 H 1398.28 -2.79186 1.09522 0
M  V30 15379 H 1395.84 -1.44093 0.605554 0
M  V30 15380 H 1396.57 -2.88818 -1.47494 0
M  V30 15381 H 1396.36 -3.92087 -0.0319827 0
M  V30 15382 H 1397.85 -4.05113 -1.01355 0
M  V30 15383 N 1398.28 -0.588812 -1.46187 0
M  V30 15384 C 1399.51 -0.0824104 -2.06436 0
M  V30 15385 C 1399.92 1.23054 -1.43716 0
M  V30 15386 O 1399.26 1.7562 -0.538825 0
M  V30 15387 C 1399.33 0.151307 -3.59181 0
M  V30 15388 C 1398.99 -1.07697 -4.44129 0
M  V30 15389 C 1399.99 -1.99053 -4.80285 0
M  V30 15390 C 1397.67 -1.30053 -4.85172 0
M  V30 15391 C 1399.67 -3.11108 -5.56319 0
M  V30 15392 C 1397.35 -2.42412 -5.60963 0
M  V30 15393 C 1398.35 -3.32769 -5.96451 0
M  V30 15394 O 1398.04 -4.43175 -6.70709 0
M  V30 15395 H 1397.77 -0.0573231 -0.673565 0
M  V30 15396 H 1400.32 -0.811012 -1.88711 0
M  V30 15397 H 1398.55 0.934591 -3.75236 0
M  V30 15398 H 1400.24 0.606973 -4.01336 0
M  V30 15399 H 1401.01 -1.83 -4.4915 0
M  V30 15400 H 1396.89 -0.606295 -4.56996 0
M  V30 15401 H 1400.43 -3.81659 -5.83937 0
M  V30 15402 H 1396.33 -2.58426 -5.91512 0
M  V30 15403 H 1397.1 -4.4162 -6.8914 0
M  V30 15404 N 1399.76 1.54172 -0.326923 0
M  V30 15405 C 1400.67 2.28149 0.546351 0
M  V30 15406 C 1401.69 1.32628 1.12631 0
M  V30 15407 O 1402.86 1.65647 1.14556 0
M  V30 15408 C 1399.93 3.02742 1.68962 0
M  V30 15409 C 1398.99 4.13856 1.14112 0
M  V30 15410 C 1398.22 4.84882 2.2299 0
M  V30 15411 O 1398.44 4.55448 3.43399 0
M  V30 15412 O 1397.38 5.71714 1.8822 0
M  V30 15413 H 1401.2 3.03651 -0.0545288 0
M  V30 15414 H 1398.79 1.49113 -0.0925027 0
M  V30 15415 H 1400.67 3.49443 2.35515 0
M  V30 15416 H 1399.35 2.30113 2.27662 0
M  V30 15417 H 1398.25 3.71497 0.440579 0
M  V30 15418 H 1399.59 4.88539 0.599211 0
M  V30 15419 N 1401.24 0.0551678 1.57503 0
M  V30 15420 C 1402.17 -0.915714 2.14795 0
M  V30 15421 C 1403.15 -1.32179 1.07065 0
M  V30 15422 O 1404.33 -1.39579 1.35023 0
M  V30 15423 C 1401.46 -2.18916 2.69616 0
M  V30 15424 C 1400.42 -1.92303 3.82366 0
M  V30 15425 C 1399.74 -3.26136 4.23721 0
M  V30 15426 C 1401.04 -1.24146 5.07331 0
M  V30 15427 H 1402.74 -0.438499 2.96171 0
M  V30 15428 H 1400.28 -0.209477 1.42468 0
M  V30 15429 H 1402.24 -2.87239 3.08337 0
M  V30 15430 H 1400.96 -2.6885 1.85437 0
M  V30 15431 H 1399.62 -1.26391 3.44123 0
M  V30 15432 H 1399.27 -3.73879 3.36487 0
M  V30 15433 H 1398.97 -3.09126 4.99715 0
M  V30 15434 H 1400.49 -3.95684 4.65045 0
M  V30 15435 H 1401.91 -1.8251 5.43473 0
M  V30 15436 H 1400.3 -1.17449 5.88494 0
M  V30 15437 H 1401.37 -0.218073 4.84409 0
M  V30 15438 N 1402.72 -1.56081 -0.218252 0
M  V30 15439 C 1403.67 -1.89082 -1.27405 0
M  V30 15440 C 1404.65 -0.754204 -1.42129 0
M  V30 15441 O 1405.84 -1.01668 -1.44888 0
M  V30 15442 C 1402.97 -2.21387 -2.62379 0
M  V30 15443 C 1402.06 -3.41448 -2.51543 0
M  V30 15444 N 1402.45 -4.5998 -2.10362 0
M  V30 15445 C 1400.75 -3.45128 -2.82494 0
M  V30 15446 C 1401.45 -5.42139 -2.10857 0
M  V30 15447 N 1400.42 -4.81936 -2.51472 0
M  V30 15448 H 1404.23 -2.78238 -0.946609 0
M  V30 15449 H 1401.74 -1.56691 -0.426801 0
M  V30 15450 H 1403.74 -2.43205 -3.38611 0
M  V30 15451 H 1402.4 -1.33545 -2.95966 0
M  V30 15452 H 1403.41 -4.85077 -1.8144 0
M  V30 15453 H 1400.08 -2.67638 -3.20431 0
M  V30 15454 H 1401.47 -6.47029 -1.81114 0
M  V30 15455 N 1404.2 0.485086 -1.49949 0
M  V30 15456 C 1405.13 1.60191 -1.63926 0
M  V30 15457 C 1406.14 1.5423 -0.521256 0
M  V30 15458 O 1407.33 1.59872 -0.79392 0
M  V30 15459 C 1404.43 2.99035 -1.59472 0
M  V30 15460 C 1403.6 3.30014 -2.87071 0
M  V30 15461 C 1402.66 4.48345 -2.75451 0
M  V30 15462 O 1401.69 4.49342 -3.494 0
M  V30 15463 N 1402.89 5.49192 -1.88064 0
M  V30 15464 H 1405.65 1.48622 -2.60253 0
M  V30 15465 H 1403.22 0.673258 -1.47237 0
M  V30 15466 H 1405.21 3.76142 -1.4933 0
M  V30 15467 H 1403.78 3.04445 -0.709373 0
M  V30 15468 H 1403 2.41652 -3.11445 0
M  V30 15469 H 1404.29 3.47515 -3.71632 0
M  V30 15470 H 1403.68 5.51198 -1.2727 0
M  V30 15471 H 1402.24 6.25338 -1.83835 0
M  V30 15472 N 1405.67 1.39291 0.737279 0
M  V30 15473 C 1406.58 1.40098 1.88175 0
M  V30 15474 C 1407.6 0.296053 1.71463 0
M  V30 15475 O 1408.78 0.537153 1.94105 0
M  V30 15476 C 1405.84 1.24071 3.2374 0
M  V30 15477 C 1404.9 2.44515 3.52861 0
M  V30 15478 C 1404.13 2.29243 4.81958 0
M  V30 15479 O 1404.36 1.2947 5.55512 0
M  V30 15480 O 1403.29 3.18178 5.10927 0
M  V30 15481 H 1407.12 2.36565 1.90449 0
M  V30 15482 H 1404.7 1.20382 0.884786 0
M  V30 15483 H 1406.58 1.17257 4.04758 0
M  V30 15484 H 1405.26 0.30698 3.22241 0
M  V30 15485 H 1404.17 2.56905 2.71939 0
M  V30 15486 H 1405.5 3.36573 3.59137 0
M  V30 15487 N 1407.15 -0.967221 1.24429 0
M  V30 15488 C 1408.1 -2.08315 1.03478 0
M  V30 15489 C 1409.09 -1.69373 -0.0304332 0
M  V30 15490 O 1410.3 -1.79571 0.124162 0
M  V30 15491 H 1406.67 -0.681638 0.317605 0
M  V30 15492 H 1408.65 -2.23148 1.9811 0
M  V30 15493 C 1407.39 -3.41441 0.656778 0
M  V30 15494 H 1406.72 -3.71865 1.4682 0
M  V30 15495 H 1408.16 -4.2042 0.549791 0
M  V30 15496 C 1406.62 -3.30839 -0.636154 0
M  V30 15497 O 1407.15 -3.64802 -1.68175 0
M  V30 15498 N 1405.35 -2.83973 -0.617052 0
M  V30 15499 H 1404.9 -2.56533 0.234179 0
M  V30 15500 H 1404.86 -2.77262 -1.48233 0
M  V30 15501 N 1408.63 -1.05812 -1.16797 0
M  V30 15502 C 1409.58 -0.664599 -2.21024 0
M  V30 15503 C 1410.55 0.336352 -1.62659 0
M  V30 15504 O 1411.73 0.226346 -1.89453 0
M  V30 15505 C 1408.87 -0.0520739 -3.45061 0
M  V30 15506 C 1407.98 -1.10261 -4.17692 0
M  V30 15507 C 1407.12 -0.456746 -5.29233 0
M  V30 15508 C 1406.16 -1.49116 -5.93659 0
M  V30 15509 N 1405.3 -0.869002 -6.96701 0
M  V30 15510 H 1410.14 -1.55784 -2.54038 0
M  V30 15511 H 1407.67 -0.778993 -1.2478 0
M  V30 15512 H 1409.63 0.320552 -4.15967 0
M  V30 15513 H 1408.26 0.804592 -3.12612 0
M  V30 15514 H 1407.31 -1.593 -3.45438 0
M  V30 15515 H 1408.62 -1.88757 -4.61706 0
M  V30 15516 H 1407.78 -0.0308814 -6.06692 0
M  V30 15517 H 1406.52 0.360131 -4.86369 0
M  V30 15518 H 1405.52 -1.92697 -5.14925 0
M  V30 15519 H 1406.75 -2.31005 -6.38603 0
M  V30 15520 H 1404.69 -0.0727494 -6.5596 0
M  V30 15521 H 1404.61 -1.59141 -7.3906 0
M  V30 15522 H 1405.88 -0.46812 -7.78093 0
M  V30 15523 N 1410.11 1.33347 -0.840014 0
M  V30 15524 C 1411.05 2.29191 -0.272048 0
M  V30 15525 C 1412.02 1.54383 0.612787 0
M  V30 15526 O 1413.21 1.82676 0.550812 0
M  V30 15527 C 1410.35 3.40755 0.545901 0
M  V30 15528 C 1409.46 4.30471 -0.363084 0
M  V30 15529 C 1408.6 5.29151 0.466078 0
M  V30 15530 C 1407.64 6.10508 -0.441225 0
M  V30 15531 N 1406.77 7.01228 0.349877 0
M  V30 15532 H 1411.61 2.77166 -1.09467 0
M  V30 15533 H 1409.15 1.36379 -0.551284 0
M  V30 15534 H 1411.11 4.04142 1.03562 0
M  V30 15535 H 1409.74 2.9397 1.33348 0
M  V30 15536 H 1408.79 3.67795 -0.971119 0
M  V30 15537 H 1410.1 4.87406 -1.06002 0
M  V30 15538 H 1409.26 5.98072 1.01957 0
M  V30 15539 H 1408 4.72796 1.19644 0
M  V30 15540 H 1407 5.40504 -1.00672 0
M  V30 15541 H 1408.23 6.68946 -1.16997 0
M  V30 15542 H 1406.17 6.4732 1.0636 0
M  V30 15543 H 1406.09 7.5545 -0.288317 0
M  V30 15544 H 1407.36 7.74453 0.885573 0
M  V30 15545 N 1411.59 0.596556 1.45873 0
M  V30 15546 C 1413 0.173758 1.8589 0
M  V30 15547 C 1413.35 -1.26665 1.49835 0
M  V30 15548 O 1412.47 -1.9588 0.919773 0
M  V30 15549 C 1413.07 0.308567 3.37392 0
M  V30 15550 C 1411.63 -0.0594585 3.76353 0
M  V30 15551 C 1410.77 0.638127 2.69858 0
M  V30 15552 H 1413.72 0.803928 1.36831 0
M  V30 15553 H 1413.75 -0.462294 3.77681 0
M  V30 15554 H 1413.26 1.35701 3.63603 0
M  V30 15555 H 1411.36 -1.1075 3.5576 0
M  V30 15556 H 1411.47 0.326506 4.77986 0
M  V30 15557 H 1409.84 0.0769147 2.54584 0
M  V30 15558 H 1410.62 1.68849 2.98906 0
M  V30 15559 N 1413.06 -1.53996 0.335095 0
M  V30 15560 C 1414.29 -2.05188 -0.26563 0
M  V30 15561 C 1414.71 -1.21058 -1.44881 0
M  V30 15562 O 1414.06 -0.243919 -1.80863 0
M  V30 15563 C 1414.11 -3.54875 -0.688904 0
M  V30 15564 O 1413.84 -4.35811 0.447217 0
M  V30 15565 C 1415.34 -4.22204 -1.35123 0
M  V30 15566 H 1412.56 -0.668921 -0.0527806 0
M  V30 15567 H 1415.1 -1.98675 0.48463 0
M  V30 15568 H 1413.26 -3.61638 -1.38912 0
M  V30 15569 H 1413.67 -5.24381 0.111495 0
M  V30 15570 H 1415.14 -5.28356 -1.59823 0
M  V30 15571 H 1415.62 -3.74029 -2.30216 0
M  V30 15572 H 1416.23 -4.19611 -0.693283 0
M  V30 15573 N 1414.54 -0.0635198 -1.57472 0
M  V30 15574 C 1415.77 0.620205 -1.9791 0
M  V30 15575 C 1416.19 1.62851 -0.941335 0
M  V30 15576 O 1415.55 1.81056 0.0940313 0
M  V30 15577 C 1415.6 1.27261 -3.37397 0
M  V30 15578 O 1414.7 2.38841 -3.36197 0
M  V30 15579 H 1414.04 0.16021 -0.644382 0
M  V30 15580 H 1416.57 -0.135582 -2.0415 0
M  V30 15581 H 1416.58 1.6214 -3.74399 0
M  V30 15582 H 1415.26 0.533723 -4.12461 0
M  V30 15583 H 1413.83 2.05817 -3.10956 0
M  V30 15584 N 1416.02 1.56195 0.209972 0
M  V30 15585 C 1416.95 1.89859 1.28398 0
M  V30 15586 C 1417.96 0.787878 1.42465 0
M  V30 15587 O 1419.15 1.06623 1.43156 0
M  V30 15588 C 1416.25 2.10231 2.65812 0
M  V30 15589 C 1415.43 3.41309 2.73545 0
M  V30 15590 C 1414.49 3.50973 3.92052 0
M  V30 15591 O 1413.51 4.23915 3.79849 0
M  V30 15592 N 1414.71 2.82965 5.06864 0
M  V30 15593 H 1417.48 2.82581 0.998411 0
M  V30 15594 H 1415.04 1.56882 0.399964 0
M  V30 15595 H 1417.03 2.13999 3.43492 0
M  V30 15596 H 1415.6 1.2408 2.8692 0
M  V30 15597 H 1414.82 3.49539 1.82253 0
M  V30 15598 H 1416.11 4.27636 2.7569 0
M  V30 15599 H 1415.51 2.23504 5.19676 0
M  V30 15600 H 1414.06 2.9238 5.82544 0
M  V30 15601 N 1417.5 -0.477127 1.50204 0
M  V30 15602 C 1418.91 -0.81037 1.37496 0
M  V30 15603 C 1419.11 -1.96937 0.426399 0
M  V30 15604 O 1418.17 -2.52148 -0.133197 0
M  V30 15605 C 1419.48 -1.12811 2.78737 0
M  V30 15606 C 1421.03 -1.23492 2.87608 0
M  V30 15607 C 1421.51 -1.58583 4.29669 0
M  V30 15608 N 1423 -1.65586 4.32591 0
M  V30 15609 C 1423.73 -1.94231 5.39502 0
M  V30 15610 N 1423.23 -2.20936 6.56627 0
M  V30 15611 N 1425.02 -1.95682 5.26939 0
M  V30 15612 H 1417.17 0.286771 2.10455 0
M  V30 15613 H 1419.43 0.0657649 0.945716 0
M  V30 15614 H 1419.14 -0.349616 3.49958 0
M  V30 15615 H 1419.01 -2.0658 3.15602 0
M  V30 15616 H 1421.4 -2.0041 2.1661 0
M  V30 15617 H 1421.48 -0.277182 2.54294 0
M  V30 15618 H 1421.13 -0.822071 5.01203 0
M  V30 15619 H 1421.06 -2.55497 4.60466 0
M  V30 15620 H 1423.55 -1.47012 3.48132 0
M  V30 15621 H 1423.86 -2.42049 7.33916 0
M  V30 15622 H 1422.21 -2.18341 6.59812 0
M  V30 15623 H 1425.4 -1.74311 4.34434 0
M  V30 15624 H 1425.57 -2.1767 6.10347 0
M  V30 15625 N 1418.98 -1.3968 -0.729882 0
M  V30 15626 C 1420.22 -1.37385 -1.49175 0
M  V30 15627 C 1420.56 0.0285839 -1.94179 0
M  V30 15628 O 1419.83 0.994516 -1.67152 0
M  V30 15629 C 1420.11 -2.35075 -2.72785 0
M  V30 15630 C 1419.97 -3.84282 -2.33767 0
M  V30 15631 C 1421.29 -2.30515 -3.74901 0
M  V30 15632 H 1418.4 -0.500359 -0.541119 0
M  V30 15633 H 1421.05 -1.7071 -0.834152 0
M  V30 15634 H 1419.2 -2.06787 -3.28894 0
M  V30 15635 H 1420.87 -4.2334 -1.8325 0
M  V30 15636 H 1419.11 -4.00809 -1.65935 0
M  V30 15637 H 1419.78 -4.48131 -3.22309 0
M  V30 15638 H 1422.26 -2.55539 -3.28389 0
M  V30 15639 H 1421.13 -3.00939 -4.5905 0
M  V30 15640 H 1421.4 -1.3119 -4.22187 0
M  V30 15641 N 1420.45 0.960609 -1.2494 0
M  V30 15642 C 1421.39 2.05948 -1.00588 0
M  V30 15643 C 1422.4 1.62777 0.0271261 0
M  V30 15644 O 1423.59 1.77252 -0.210739 0
M  V30 15645 C 1420.69 3.35228 -0.497521 0
M  V30 15646 C 1419.86 4.0727 -1.59531 0
M  V30 15647 C 1418.92 5.14822 -1.08836 0
M  V30 15648 O 1417.95 5.40602 -1.78153 0
M  V30 15649 N 1419.15 5.80453 0.0735067 0
M  V30 15650 H 1421.91 2.27411 -1.95204 0
M  V30 15651 H 1419.47 1.12874 -1.16065 0
M  V30 15652 H 1421.47 4.04447 -0.142979 0
M  V30 15653 H 1420.04 3.10583 0.354546 0
M  V30 15654 H 1419.26 3.32231 -2.12171 0
M  V30 15655 H 1420.54 4.52161 -2.33299 0
M  V30 15656 H 1419.94 5.6192 0.652848 0
M  V30 15657 H 1418.5 6.50754 0.369132 0
M  V30 15658 N 1421.93 1.0643 1.16234 0
M  V30 15659 C 1423.16 0.802671 1.91238 0
M  V30 15660 C 1423.58 -0.637222 1.76978 0
M  V30 15661 O 1422.94 -1.44419 1.09603 0
M  V30 15662 C 1422.99 1.20389 3.3991 0
M  V30 15663 O 1422.09 0.343516 4.10967 0
M  V30 15664 H 1421.43 0.29323 0.595745 0
M  V30 15665 H 1423.96 1.42046 1.47255 0
M  V30 15666 H 1423.97 1.17604 3.90683 0
M  V30 15667 H 1422.65 2.2527 3.49608 0
M  V30 15668 H 1421.23 0.433051 3.70377 0
M  V30 15669 N 1423.41 -1.329 0.847073 0
M  V30 15670 C 1424.66 -1.97803 0.447417 0
M  V30 15671 C 1424.99 -1.6691 -0.9927 0
M  V30 15672 O 1424.26 -0.953315 -1.69535 0
M  V30 15673 C 1424.55 -3.53657 0.678135 0
M  V30 15674 C 1424.4 -3.94207 2.16612 0
M  V30 15675 C 1425.72 -4.39909 0.129589 0
M  V30 15676 H 1422.84 -0.718514 0.164034 0
M  V30 15677 H 1425.48 -1.57407 1.0641 0
M  V30 15678 H 1423.63 -3.88198 0.153222 0
M  V30 15679 H 1425.3 -3.69883 2.75653 0
M  V30 15680 H 1423.55 -3.43641 2.64752 0
M  V30 15681 H 1424.22 -5.02791 2.27827 0
M  V30 15682 H 1426.69 -4.12061 0.578371 0
M  V30 15683 H 1425.57 -5.47963 0.320648 0
M  V30 15684 H 1425.83 -4.31391 -0.967167 0
M  V30 15685 N 1424.89 -0.604284 -1.45555 0
M  V30 15686 C 1425.8 0.118409 -2.34301 0
M  V30 15687 C 1426.81 0.863807 -1.51044 0
M  V30 15688 O 1427.99 0.822138 -1.83856 0
M  V30 15689 C 1425.06 1.10538 -3.28606 0
M  V30 15690 C 1424.12 0.362301 -4.27768 0
M  V30 15691 C 1423.35 1.30226 -5.17568 0
M  V30 15692 O 1423.57 2.53991 -5.10729 0
M  V30 15693 O 1422.51 0.801116 -5.96545 0
M  V30 15694 H 1426.33 -0.610816 -2.97494 0
M  V30 15695 H 1423.92 -0.364562 -1.44884 0
M  V30 15696 H 1425.8 1.67392 -3.86727 0
M  V30 15697 H 1424.47 1.81569 -2.67982 0
M  V30 15698 H 1423.38 -0.248616 -3.73273 0
M  V30 15699 H 1424.71 -0.307454 -4.91239 0
M  V30 15700 N 1426.37 1.53816 -0.343257 0
M  V30 15701 C 1427.62 2.0009 0.254346 0
M  V30 15702 C 1427.93 1.23502 1.51679 0
M  V30 15703 O 1429.13 1.60251 2.19162 0
M  V30 15704 C 1427.59 3.56357 0.503775 0
M  V30 15705 C 1427.2 4.418 -0.742754 0
M  V30 15706 C 1428.94 4.11046 1.06025 0
M  V30 15707 C 1426.85 5.89576 -0.46414 0
M  V30 15708 H 1425.78 0.747496 0.0988189 0
M  V30 15709 H 1428.43 1.77679 -0.45854 0
M  V30 15710 H 1426.81 3.74833 1.27736 0
M  V30 15711 H 1427.99 4.35099 -1.51742 0
M  V30 15712 H 1426.3 3.98101 -1.22085 0
M  V30 15713 H 1428.9 5.19063 1.28365 0
M  V30 15714 H 1429.24 3.64247 2.01568 0
M  V30 15715 H 1429.77 3.9628 0.347384 0
M  V30 15716 H 1426.51 6.40608 -1.38928 0
M  V30 15717 H 1426.03 5.99181 0.272441 0
M  V30 15718 H 1427.71 6.46949 -0.0812761 0
M  V30 15719 N 1427.84 0.0718701 1.57436 0
M  V30 15720 C 1429.12 -0.638233 1.84894 0
M  V30 15721 C 1429.5 -1.87786 0.964343 0
M  V30 15722 O 1428.85 -2.28479 0.0306523 0
M  V30 15723 C 1429.06 -0.975817 3.3508 0
M  V30 15724 C 1430.41 -1.34927 4.02591 0
M  V30 15725 O 1431.43 -1.06754 3.39826 0
M  V30 15726 O 1430.29 -1.87589 5.13296 0
M  V30 15727 H 1427.38 -0.317 0.763832 0
M  V30 15728 H 1429.93 0.102807 1.69388 0
M  V30 15729 H 1428.7 -0.0953948 3.91184 0
M  V30 15730 H 1428.33 -1.77362 3.55849 0
M  V30 15731 N 1429.32 -1.56304 -0.201686 0
M  V30 15732 C 1430.26 -1.8907 -1.27781 0
M  V30 15733 C 1431.23 -0.75009 -1.44265 0
M  V30 15734 O 1432.42 -1.00044 -1.59761 0
M  V30 15735 C 1429.54 -2.11513 -2.64537 0
M  V30 15736 C 1428.59 -3.34214 -2.64959 0
M  V30 15737 S 1429.42 -4.89541 -2.17047 0
M  V30 15738 C 1430.58 -5.15044 -3.55641 0
M  V30 15739 H 1430.81 -2.8005 -0.997971 0
M  V30 15740 H 1428.35 -1.48997 -0.404872 0
M  V30 15741 H 1430.3 -2.25126 -3.43262 0
M  V30 15742 H 1428.96 -1.21295 -2.89735 0
M  V30 15743 H 1428.16 -3.47023 -3.65501 0
M  V30 15744 H 1427.76 -3.1956 -1.94312 0
M  V30 15745 H 1430.05 -5.05161 -4.51463 0
M  V30 15746 H 1430.99 -6.16838 -3.47731 0
M  V30 15747 H 1431.4 -4.42704 -3.50248 0
M  V30 15748 N 1430.8 0.469154 -1.50455 0
M  V30 15749 C 1432.05 1.22109 -1.61541 0
M  V30 15750 C 1432.38 1.91905 -0.316646 0
M  V30 15751 O 1431.63 1.82845 0.697585 0
M  V30 15752 C 1431.93 2.28673 -2.7467 0
M  V30 15753 C 1431.6 1.76115 -4.15083 0
M  V30 15754 C 1430.26 1.61503 -4.53288 0
M  V30 15755 C 1432.61 1.37145 -5.02833 0
M  V30 15756 C 1429.94 1.06346 -5.76981 0
M  V30 15757 C 1432.29 0.834294 -6.27074 0
M  V30 15758 C 1430.95 0.674814 -6.6408 0
M  V30 15759 H 1430.22 0.44683 -0.591121 0
M  V30 15760 H 1432.87 0.516821 -1.84394 0
M  V30 15761 H 1431.18 3.05015 -2.45912 0
M  V30 15762 H 1432.87 2.86615 -2.80451 0
M  V30 15763 H 1429.46 1.88457 -3.84944 0
M  V30 15764 H 1433.65 1.47268 -4.73947 0
M  V30 15765 H 1428.9 0.927377 -6.04326 0
M  V30 15766 H 1433.08 0.523676 -6.94428 0
M  V30 15767 H 1430.7 0.245264 -7.59804 0
M  V30 15768 N 1432.28 1.40065 0.722464 0
M  V30 15769 C 1433.5 1.4146 1.5167 0
M  V30 15770 C 1433.93 0.0142653 1.88095 0
M  V30 15771 O 1433.29 -0.975934 1.52791 0
M  V30 15772 C 1433.33 2.30531 2.77287 0
M  V30 15773 O 1432.44 1.74382 3.73717 0
M  V30 15774 H 1431.78 0.481194 0.457546 0
M  V30 15775 H 1434.31 1.84213 0.890331 0
M  V30 15776 H 1434.32 2.45479 3.25889 0
M  V30 15777 H 1432.99 3.32292 2.50109 0
M  V30 15778 H 1431.57 1.68743 3.32536 0
M  V30 15779 N 1433.76 -0.95397 1.25448 0
M  V30 15780 C 1434.67 -2.08452 1.07634 0
M  V30 15781 C 1435.68 -1.73995 0.013294 0
M  V30 15782 O 1436.86 -2.00256 0.214367 0
M  V30 15783 C 1433.92 -3.39606 0.697756 0
M  V30 15784 C 1432.99 -3.87926 1.83881 0
M  V30 15785 C 1432.22 -5.12821 1.47819 0
M  V30 15786 O 1432.44 -5.69172 0.374143 0
M  V30 15787 O 1431.38 -5.55866 2.3086 0
M  V30 15788 H 1435.2 -2.26382 2.02447 0
M  V30 15789 H 1432.79 -1.06877 1.04392 0
M  V30 15790 H 1434.67 -4.18438 0.498778 0
M  V30 15791 H 1433.34 -3.22944 -0.221108 0
M  V30 15792 H 1432.25 -3.10095 2.09265 0
M  V30 15793 H 1433.58 -4.09087 2.73694 0
M  V30 15794 N 1435.24 -1.07045 -1.15668 0
M  V30 15795 C 1436.51 -0.704942 -1.82455 0
M  V30 15796 C 1436.89 0.812921 -1.9482 0
M  V30 15797 O 1436.24 1.72615 -1.49721 0
M  V30 15798 C 1436.45 -1.41574 -3.18995 0
M  V30 15799 C 1437.8 -1.56584 -3.94673 0
M  V30 15800 O 1438.82 -1.37626 -3.28538 0
M  V30 15801 O 1437.68 -1.87751 -5.13237 0
M  V30 15802 H 1434.78 -0.250469 -0.788159 0
M  V30 15803 H 1437.32 -1.17118 -1.22806 0
M  V30 15804 H 1436.09 -2.4504 -3.05075 0
M  V30 15805 H 1435.72 -0.940071 -3.86327 0
M  V30 15806 N 1436.71 1.32449 -0.85411 0
M  V30 15807 C 1437.62 2.32658 -0.301221 0
M  V30 15808 C 1438.64 1.64025 0.580673 0
M  V30 15809 O 1439.82 1.95568 0.481172 0
M  V30 15810 C 1436.88 3.43049 0.501803 0
M  V30 15811 C 1435.94 4.27374 -0.406166 0
M  V30 15812 C 1435.17 5.32494 0.358627 0
M  V30 15813 O 1435.4 5.4783 1.58865 0
M  V30 15814 O 1434.33 6.0127 -0.275291 0
M  V30 15815 H 1438.16 2.81838 -1.13143 0
M  V30 15816 H 1435.74 1.36063 -0.617032 0
M  V30 15817 H 1437.62 4.10375 0.957608 0
M  V30 15818 H 1436.3 2.9606 1.30882 0
M  V30 15819 H 1435.21 3.6286 -0.910136 0
M  V30 15820 H 1436.54 4.77887 -1.17835 0
M  V30 15821 N 1438.19 0.611994 1.45232 0
M  V30 15822 C 1439.6 0.193464 1.85695 0
M  V30 15823 C 1439.95 -1.25069 1.5117 0
M  V30 15824 O 1439.08 -1.94894 0.940497 0
M  V30 15825 C 1439.67 0.344334 3.37046 0
M  V30 15826 C 1438.23 -0.0195378 3.76395 0
M  V30 15827 C 1437.38 0.666714 2.69166 0
M  V30 15828 H 1440.33 0.818395 1.35971 0
M  V30 15829 H 1440.35 -0.422209 3.7815 0
M  V30 15830 H 1439.86 1.3955 3.62143 0
M  V30 15831 H 1437.96 -1.06971 3.56915 0
M  V30 15832 H 1438.08 0.377184 4.77613 0
M  V30 15833 H 1436.44 0.103912 2.54488 0
M  V30 15834 H 1437.22 1.7201 2.97099 0
M  V30 15835 N 1439.67 -1.53632 0.351409 0
M  V30 15836 C 1440.62 -2.22041 -0.517867 0
M  V30 15837 C 1441.6 -1.21057 -1.0599 0
M  V30 15838 O 1442.8 -1.46569 -0.992298 0
M  V30 15839 C 1439.92 -3.00259 -1.66432 0
M  V30 15840 C 1439.01 -4.08607 -1.13584 0
M  V30 15841 N 1439.4 -5.04727 -0.329217 0
M  V30 15842 C 1437.7 -4.23059 -1.412 0
M  V30 15843 C 1438.4 -5.81685 -0.0415005 0
M  V30 15844 N 1437.38 -5.39875 -0.635288 0
M  V30 15845 H 1441.18 -2.93711 0.105386 0
M  V30 15846 H 1438.69 -1.61623 0.15868 0
M  V30 15847 H 1440.69 -3.47774 -2.29911 0
M  V30 15848 H 1439.35 -2.30117 -2.29077 0
M  V30 15849 H 1440.36 -5.17891 0.0303777 0
M  V30 15850 H 1437.04 -3.64139 -2.04227 0
M  V30 15851 H 1438.43 -6.69128 0.609686 0
M  V30 15852 N 1441.15 -0.0802183 -1.57396 0
M  V30 15853 C 1442.08 0.881426 -2.16225 0
M  V30 15854 C 1443.06 1.30459 -1.09154 0
M  V30 15855 O 1444.24 1.37413 -1.37227 0
M  V30 15856 C 1441.37 2.14599 -2.73065 0
M  V30 15857 C 1440.33 1.86195 -3.85377 0
M  V30 15858 C 1439.65 3.19354 -4.28856 0
M  V30 15859 C 1440.95 1.16059 -5.09242 0
M  V30 15860 H 1442.65 0.391325 -2.96832 0
M  V30 15861 H 1440.19 0.186785 -1.42783 0
M  V30 15862 H 1442.15 2.82297 -3.12868 0
M  V30 15863 H 1440.87 2.65866 -1.89691 0
M  V30 15864 H 1439.53 1.209 -3.46091 0
M  V30 15865 H 1439.18 3.68479 -3.42392 0
M  V30 15866 H 1438.88 3.01137 -5.04569 0
M  V30 15867 H 1440.4 3.88235 -4.71281 0
M  V30 15868 H 1441.82 1.7384 -5.46308 0
M  V30 15869 H 1440.21 1.08072 -5.90288 0
M  V30 15870 H 1441.28 0.14098 -4.84695 0
M  V30 15871 N 1442.63 1.56409 0.193394 0
M  V30 15872 C 1443.85 1.84837 0.929676 0
M  V30 15873 C 1444.27 0.662928 1.76779 0
M  V30 15874 O 1443.63 -0.368339 1.78744 0
M  V30 15875 C 1443.68 3.12083 1.82445 0
M  V30 15876 O 1443.4 4.26056 1.02018 0
M  V30 15877 C 1444.9 3.53701 2.67227 0
M  V30 15878 H 1442.12 0.613766 0.271168 0
M  V30 15879 H 1444.66 2.03518 0.200134 0
M  V30 15880 H 1442.82 2.95294 2.5076 0
M  V30 15881 H 1443.23 4.98526 1.63008 0
M  V30 15882 H 1444.71 4.45699 3.25663 0
M  V30 15883 H 1445.18 2.76771 3.41019 0
M  V30 15884 H 1445.79 3.73027 2.04281 0
M  V30 15885 N 1444.1 -0.461169 1.50702 0
M  V30 15886 C 1445.35 -1.20934 1.61425 0
M  V30 15887 C 1445.67 -1.92884 0.32481 0
M  V30 15888 O 1446.87 -2.69712 0.311081 0
M  V30 15889 C 1445.33 -2.19797 2.84987 0
M  V30 15890 C 1444.94 -1.53604 4.20844 0
M  V30 15891 C 1446.68 -2.95194 3.05059 0
M  V30 15892 C 1444.59 -2.50811 5.35582 0
M  V30 15893 H 1443.52 -0.455088 0.601174 0
M  V30 15894 H 1446.17 -0.478771 1.77144 0
M  V30 15895 H 1444.55 -2.96187 2.62848 0
M  V30 15896 H 1445.72 -0.829345 4.53275 0
M  V30 15897 H 1444.04 -0.904504 4.06457 0
M  V30 15898 H 1446.64 -3.67965 3.87951 0
M  V30 15899 H 1446.98 -3.5516 2.1718 0
M  V30 15900 H 1447.51 -2.25915 3.27425 0
M  V30 15901 H 1444.25 -1.9557 6.25646 0
M  V30 15902 H 1443.77 -3.19604 5.07556 0
M  V30 15903 H 1445.45 -3.12437 5.66561 0
M  V30 15904 N 1445.58 -1.40446 -0.715026 0
M  V30 15905 C 1446.51 -1.36673 -1.83993 0
M  V30 15906 C 1447.53 -0.272038 -1.60511 0
M  V30 15907 O 1448.72 -0.532425 -1.70375 0
M  V30 15908 C 1445.82 -1.10423 -3.20406 0
M  V30 15909 C 1444.99 -2.31557 -3.71079 0
M  V30 15910 C 1444.05 -2.01459 -4.86108 0
M  V30 15911 O 1443.07 -2.7433 -4.9873 0
M  V30 15912 N 1444.28 -0.992899 -5.71946 0
M  V30 15913 H 1447.04 -2.3362 -1.87728 0
M  V30 15914 H 1444.6 -1.34807 -0.896586 0
M  V30 15915 H 1446.59 -0.88273 -3.94956 0
M  V30 15916 H 1445.16 -0.221408 -3.11815 0
M  V30 15917 H 1444.38 -2.69534 -2.87655 0
M  V30 15918 H 1445.67 -3.1231 -4.01671 0
M  V30 15919 H 1445.07 -0.389387 -5.64358 0
M  V30 15920 H 1443.63 -0.831299 -6.46477 0
M  V30 15921 N 1447.06 0.947303 -1.25952 0
M  V30 15922 C 1448.34 1.66964 -1.01894 0
M  V30 15923 C 1448.72 2.06192 0.452555 0
M  V30 15924 O 1448.06 1.78098 1.43156 0
M  V30 15925 C 1448.27 2.88643 -1.96179 0
M  V30 15926 C 1449.62 3.60432 -2.24441 0
M  V30 15927 O 1450.65 2.98737 -1.93996 0
M  V30 15928 O 1449.51 4.7154 -2.76247 0
M  V30 15929 H 1446.6 0.730875 -0.386976 0
M  V30 15930 H 1449.15 0.999577 -1.37137 0
M  V30 15931 H 1447.92 2.565 -2.95506 0
M  V30 15932 H 1447.54 3.63377 -1.61379 0
M  V30 15933 N 1448.54 1.07657 1.15099 0
M  V30 15934 C 1449.95 0.823828 1.67541 0
M  V30 15935 C 1450.3 -0.650601 1.85099 0
M  V30 15936 O 1449.43 -1.50333 1.55657 0
M  V30 15937 C 1450.02 1.4889 3.04331 0
M  V30 15938 C 1448.58 1.28359 3.53837 0
M  V30 15939 C 1447.73 1.55659 2.2949 0
M  V30 15940 H 1450.68 1.23819 0.992699 0
M  V30 15941 H 1450.7 0.911848 3.69412 0
M  V30 15942 H 1450.21 2.56199 2.9152 0
M  V30 15943 H 1448.31 0.230864 3.71884 0
M  V30 15944 H 1448.42 2.00593 4.35085 0
M  V30 15945 H 1446.79 0.977755 2.35185 0
M  V30 15946 H 1447.57 2.64157 2.19263 0
M  V30 15947 N 1450.02 -1.31994 0.861122 0
M  V30 15948 C 1451.43 -1.49756 0.551844 0
M  V30 15949 C 1451.63 -1.79473 -0.916056 0
M  V30 15950 O 1450.69 -1.86813 -1.69874 0
M  V30 15951 C 1452 -2.63737 1.44442 0
M  V30 15952 C 1453.55 -2.77621 1.44552 0
M  V30 15953 C 1454.02 -3.94689 2.32346 0
M  V30 15954 N 1455.52 -4.01961 2.30177 0
M  V30 15955 C 1456.25 -4.91794 2.94833 0
M  V30 15956 N 1455.75 -5.86589 3.68626 0
M  V30 15957 N 1457.54 -4.84968 2.84188 0
M  V30 15958 H 1449.69 -1.10972 1.81105 0
M  V30 15959 H 1451.95 -0.54753 0.773896 0
M  V30 15960 H 1451.66 -2.48526 2.48853 0
M  V30 15961 H 1451.53 -3.59671 1.13651 0
M  V30 15962 H 1453.92 -2.92251 0.409034 0
M  V30 15963 H 1454 -1.8238 1.79363 0
M  V30 15964 H 1453.65 -3.80817 3.36067 0
M  V30 15965 H 1453.58 -4.89219 1.94865 0
M  V30 15966 H 1456.07 -3.34132 1.76533 0
M  V30 15967 H 1456.38 -6.51846 4.15111 0
M  V30 15968 H 1454.72 -5.86596 3.72734 0
M  V30 15969 H 1457.92 -4.09883 2.26084 0
M  V30 15970 H 1458.09 -5.54774 3.34857 0
M  V30 15971 N 1451.49 -0.619688 -1.44906 0
M  V30 15972 C 1452.44 0.0920359 -2.30616 0
M  V30 15973 C 1453.41 0.848114 -1.42815 0
M  V30 15974 O 1454.6 0.831439 -1.71732 0
M  V30 15975 C 1451.74 1.07537 -3.27917 0
M  V30 15976 C 1450.85 0.318904 -4.30821 0
M  V30 15977 C 1449.98 1.29303 -5.15222 0
M  V30 15978 C 1449.02 0.525071 -6.09844 0
M  V30 15979 N 1448.16 1.44909 -6.86983 0
M  V30 15980 H 1453 -0.644834 -2.9094 0
M  V30 15981 H 1450.54 -0.329785 -1.43356 0
M  V30 15982 H 1452.5 1.65874 -3.82808 0
M  V30 15983 H 1451.13 1.7795 -2.6932 0
M  V30 15984 H 1450.18 -0.380192 -3.78495 0
M  V30 15985 H 1451.49 -0.279742 -4.98015 0
M  V30 15986 H 1450.64 1.94809 -5.74573 0
M  V30 15987 H 1449.38 1.92561 -4.48076 0
M  V30 15988 H 1448.39 -0.14355 -5.49613 0
M  V30 15989 H 1449.61 -0.102625 -6.79022 0
M  V30 15990 H 1447.56 2.06908 -6.22515 0
M  V30 15991 H 1447.48 0.90418 -7.50574 0
M  V30 15992 H 1448.74 2.09335 -7.50866 0
M  V30 15993 N 1452.97 1.53444 -0.359552 0
M  V30 15994 C 1453.92 2.25544 0.48977 0
M  V30 15995 C 1454.89 1.25982 1.08248 0
M  V30 15996 O 1456.07 1.54751 1.1161 0
M  V30 15997 C 1453.21 3.04358 1.62666 0
M  V30 15998 C 1452.33 4.18801 1.0597 0
M  V30 15999 C 1451.46 4.85069 2.1652 0
M  V30 16000 C 1450.5 5.91554 1.57259 0
M  V30 16001 N 1449.64 6.51537 2.61617 0
M  V30 16002 H 1454.48 2.97709 -0.13158 0
M  V30 16003 H 1452.02 1.469 -0.0767056 0
M  V30 16004 H 1453.97 3.48324 2.29623 0
M  V30 16005 H 1452.6 2.34459 2.21876 0
M  V30 16006 H 1451.66 3.79364 0.280599 0
M  V30 16007 H 1452.97 4.95341 0.586383 0
M  V30 16008 H 1452.12 5.32187 2.9131 0
M  V30 16009 H 1450.86 4.07988 2.67202 0
M  V30 16010 H 1449.87 5.43803 0.809818 0
M  V30 16011 H 1451.09 6.70552 1.07409 0
M  V30 16012 H 1449.04 5.77312 3.11523 0
M  V30 16013 H 1448.95 7.23599 2.18954 0
M  V30 16014 H 1450.22 7.03306 3.36127 0
M  V30 16015 N 1454.45 0.0885642 1.57351 0
M  V30 16016 C 1455.68 -0.588641 1.98871 0
M  V30 16017 C 1456.1 -1.61333 0.967125 0
M  V30 16018 O 1455.46 -1.81183 -0.0652149 0
M  V30 16019 C 1455.51 -1.21877 3.39379 0
M  V30 16020 O 1454.61 -2.33462 3.39955 0
M  V30 16021 H 1453.95 -0.149938 0.64685 0
M  V30 16022 H 1456.48 0.168043 2.03909 0
M  V30 16023 H 1456.49 -1.56163 3.76931 0
M  V30 16024 H 1455.17 -0.468037 4.13258 0
M  V30 16025 H 1453.74 -2.00844 3.14191 0
M  V30 16026 N 1455.93 -1.56509 -0.185096 0
M  V30 16027 C 1457.21 -1.72055 -0.930398 0
M  V30 16028 C 1457.59 -0.646145 -2.00968 0
M  V30 16029 O 1456.93 0.34129 -2.25937 0
M  V30 16030 C 1457.14 -3.14752 -1.50771 0
M  V30 16031 C 1458.49 -3.75292 -1.98597 0
M  V30 16032 O 1459.52 -3.17944 -1.60593 0
M  V30 16033 O 1458.37 -4.7596 -2.68561 0
M  V30 16034 H 1455.47 -0.702118 -0.436989 0
M  V30 16035 H 1458.01 -1.68806 -0.174007 0
M  V30 16036 H 1456.79 -3.84426 -0.730236 0
M  V30 16037 H 1456.41 -3.22272 -2.32866 0
M  V30 16038 N 1457.41 0.45317 -1.50944 0
M  V30 16039 C 1458.65 1.20568 -1.63068 0
M  V30 16040 C 1458.99 1.91229 -0.338375 0
M  V30 16041 O 1458.26 1.82916 0.661207 0
M  V30 16042 C 1458.54 2.23522 -2.8233 0
M  V30 16043 C 1458.4 1.57047 -4.21493 0
M  V30 16044 C 1459.72 3.24663 -2.97123 0
M  V30 16045 H 1456.83 0.436971 -0.593486 0
M  V30 16046 H 1459.48 0.497008 -1.83384 0
M  V30 16047 H 1457.63 2.83961 -2.65139 0
M  V30 16048 H 1459.3 1.00067 -4.50316 0
M  V30 16049 H 1457.54 0.873143 -4.24922 0
M  V30 16050 H 1458.21 2.31949 -5.00903 0
M  V30 16051 H 1460.69 2.74264 -3.12919 0
M  V30 16052 H 1459.56 3.9401 -3.82161 0
M  V30 16053 H 1459.83 3.89843 -2.08506 0
M  V30 16054 N 1458.88 1.40823 0.707568 0
M  V30 16055 C 1460.11 1.42866 1.49656 0
M  V30 16056 C 1460.53 0.0305663 1.88775 0
M  V30 16057 O 1459.88 -0.947376 1.55984 0
M  V30 16058 C 1459.94 2.32661 2.76679 0
M  V30 16059 O 1459.66 3.67028 2.39211 0
M  V30 16060 C 1461.16 2.4338 3.70514 0
M  V30 16061 H 1458.38 0.487009 0.461588 0
M  V30 16062 H 1460.92 1.84969 0.872167 0
M  V30 16063 H 1459.08 1.93898 3.35384 0
M  V30 16064 H 1459.49 4.14799 3.21002 0
M  V30 16065 H 1460.96 3.10401 4.56459 0
M  V30 16066 H 1461.44 1.46132 4.14176 0
M  V30 16067 H 1462.05 2.82728 3.17718 0
M  V30 16068 N 1460.36 -0.94061 1.26453 0
M  V30 16069 C 1461.59 -1.72654 1.14914 0
M  V30 16070 C 1462.01 -1.85823 -0.291789 0
M  V30 16071 O 1461.37 -1.34888 -1.2114 0
M  V30 16072 C 1461.42 -3.11083 1.82372 0
M  V30 16073 O 1460.52 -3.971 1.1129 0
M  V30 16074 H 1459.86 -0.529704 0.400387 0
M  V30 16075 H 1462.39 -1.17803 1.67283 0
M  V30 16076 H 1462.4 -3.6147 1.89219 0
M  V30 16077 H 1461.08 -3.00815 2.87199 0
M  V30 16078 H 1459.66 -3.5555 1.12423 0
M  V30 16079 N 1461.84 -1.08266 -1.14527 0
M  V30 16080 C 1463.09 -0.806405 -1.84878 0
M  V30 16081 C 1463.4 0.670151 -1.83762 0
M  V30 16082 O 1464.61 1.06151 -2.49888 0
M  V30 16083 C 1463.06 -1.39257 -3.31867 0
M  V30 16084 C 1462.67 -2.90081 -3.41404 0
M  V30 16085 C 1464.42 -1.19475 -4.0734 0
M  V30 16086 C 1462.32 -3.41842 -4.82595 0
M  V30 16087 H 1461.25 -0.297993 -0.692615 0
M  V30 16088 H 1463.9 -1.30389 -1.29116 0
M  V30 16089 H 1462.29 -0.822802 -3.87358 0
M  V30 16090 H 1463.46 -3.53182 -2.95971 0
M  V30 16091 H 1461.78 -3.08761 -2.79385 0
M  V30 16092 H 1464.37 -1.55614 -5.11555 0
M  V30 16093 H 1464.72 -0.134455 -4.16083 0
M  V30 16094 H 1465.25 -1.73138 -3.58145 0
M  V30 16095 H 1461.99 -4.47439 -4.79039 0
M  V30 16096 H 1461.51 -2.835 -5.28572 0
M  V30 16097 H 1463.19 -3.38346 -5.51481 0
M  V30 16098 N 1463.32 1.31536 -0.86811 0
M  V30 16099 C 1464.25 2.31037 -0.33822 0
M  V30 16100 C 1465.23 1.60269 0.569892 0
M  V30 16101 O 1466.42 1.87987 0.487305 0
M  V30 16102 C 1463.55 3.44203 0.462753 0
M  V30 16103 C 1462.5 4.26549 -0.3521 0
M  V30 16104 C 1461.83 5.31605 0.574443 0
M  V30 16105 C 1463.13 4.97665 -1.58516 0
M  V30 16106 H 1464.82 2.75607 -1.16967 0
M  V30 16107 H 1462.37 1.325 -0.56389 0
M  V30 16108 H 1464.32 4.12862 0.843967 0
M  V30 16109 H 1463.04 2.98396 1.32769 0
M  V30 16110 H 1461.7 3.59555 -0.715237 0
M  V30 16111 H 1461.35 4.82048 1.43661 0
M  V30 16112 H 1461.05 5.87591 0.0331436 0
M  V30 16113 H 1462.57 6.03124 0.952541 0
M  V30 16114 H 1463.99 5.58931 -1.27549 0
M  V30 16115 H 1462.38 5.63437 -2.06539 0
M  V30 16116 H 1463.45 4.24756 -2.33902 0
M  V30 16117 N 1464.8 0.627364 1.44575 0
M  V30 16118 C 1466.02 0.135576 2.06956 0
M  V30 16119 C 1466.45 -1.17922 1.46547 0
M  V30 16120 O 1465.81 -1.72255 0.565509 0
M  V30 16121 C 1465.85 0.030347 3.60587 0
M  V30 16122 O 1464.96 -1.01464 3.99724 0
M  V30 16123 H 1464.3 0.083058 0.658785 0
M  V30 16124 H 1466.83 0.862977 1.8551 0
M  V30 16125 H 1466.84 -0.161461 4.0768 0
M  V30 16126 H 1465.51 0.990285 4.03938 0
M  V30 16127 H 1464.09 -0.797701 3.64268 0
M  V30 16128 N 1466.28 -1.53251 0.367684 0
M  V30 16129 C 1467.19 -2.29518 -0.485669 0
M  V30 16130 C 1468.2 -1.35568 -1.09075 0
M  V30 16131 O 1469.38 -1.68626 -1.10124 0
M  V30 16132 C 1466.44 -3.07115 -1.60876 0
M  V30 16133 C 1465.5 -4.16736 -1.031 0
M  V30 16134 C 1464.74 -4.90624 -2.10056 0
M  V30 16135 O 1464.96 -4.64393 -3.31203 0
M  V30 16136 O 1463.89 -5.76503 -1.72996 0
M  V30 16137 H 1467.72 -3.034 0.135017 0
M  V30 16138 H 1465.3 -1.48816 0.132005 0
M  V30 16139 H 1467.19 -3.55564 -2.26168 0
M  V30 16140 H 1465.86 -2.36068 -2.21481 0
M  V30 16141 H 1464.77 -3.72534 -0.341928 0
M  V30 16142 H 1466.1 -4.89956 -0.469473 0
M  V30 16143 N 1467.75 -0.0969077 -1.57302 0
M  V30 16144 C 1468.99 0.569724 -1.963 0
M  V30 16145 C 1469.36 1.65238 -0.977779 0
M  V30 16146 O 1470.56 2.37634 -1.25632 0
M  V30 16147 C 1468.83 1.10889 -3.39762 0
M  V30 16148 S 1470.39 1.78714 -4.00758 0
M  V30 16149 H 1467.21 0.185855 -0.686279 0
M  V30 16150 H 1469.81 -0.176741 -1.94699 0
M  V30 16151 H 1468.51 0.309441 -4.09232 0
M  V30 16152 H 1468.04 1.89114 -3.44963 0
M  V30 16153 H 1470.06 3.07149 -3.8971 0
M  V30 16154 N 1469.23 1.56605 0.176793 0
M  V30 16155 C 1470.46 1.8617 0.91408 0
M  V30 16156 C 1470.88 0.68262 1.75277 0
M  V30 16157 O 1470.24 -0.368391 1.77518 0
M  V30 16158 C 1470.29 3.14109 1.7711 0
M  V30 16159 O 1469.39 2.95947 2.87209 0
M  V30 16160 H 1468.73 0.612507 0.25638 0
M  V30 16161 H 1471.26 2.03837 0.176586 0
M  V30 16162 H 1471.27 3.45373 2.17213 0
M  V30 16163 H 1469.95 3.9954 1.15502 0
M  V30 16164 H 1468.52 2.76024 2.50729 0
M  V30 16165 N 1470.71 -0.445159 1.51182 0
M  V30 16166 C 1471.94 -1.21787 1.67259 0
M  V30 16167 C 1472.35 -1.85206 0.366641 0
M  V30 16168 O 1471.71 -1.70376 -0.654095 0
M  V30 16169 C 1471.76 -2.30765 2.78262 0
M  V30 16170 O 1471.48 -1.69942 4.03796 0
M  V30 16171 C 1472.98 -3.21186 3.05539 0
M  V30 16172 H 1470.2 -0.367364 0.561502 0
M  V30 16173 H 1472.75 -0.528415 1.97555 0
M  V30 16174 H 1470.9 -2.9544 2.50587 0
M  V30 16175 H 1471.32 -2.41905 4.65384 0
M  V30 16176 H 1472.79 -3.93805 3.8681 0
M  V30 16177 H 1473.27 -3.81487 2.17634 0
M  V30 16178 H 1473.87 -2.62221 3.34844 0
M  V30 16179 N 1472.19 -1.41197 -0.700089 0
M  V30 16180 C 1473.44 -1.39611 -1.45574 0
M  V30 16181 C 1473.75 -0.00683378 -1.95599 0
M  V30 16182 O 1474.96 0.131643 -2.71181 0
M  V30 16183 C 1473.41 -2.45452 -2.63214 0
M  V30 16184 C 1473.02 -3.90265 -2.19993 0
M  V30 16185 C 1474.76 -2.52996 -3.40871 0
M  V30 16186 C 1472.67 -4.87668 -3.34565 0
M  V30 16187 H 1471.6 -0.51917 -0.546789 0
M  V30 16188 H 1474.25 -1.67001 -0.760456 0
M  V30 16189 H 1472.63 -2.11186 -3.34987 0
M  V30 16190 H 1473.81 -4.33756 -1.55539 0
M  V30 16191 H 1472.12 -3.86339 -1.55341 0
M  V30 16192 H 1474.72 -3.22952 -4.26153 0
M  V30 16193 H 1475.06 -1.56536 -3.85749 0
M  V30 16194 H 1475.6 -2.86331 -2.76151 0
M  V30 16195 H 1472.33 -5.85517 -2.94704 0
M  V30 16196 H 1471.85 -4.4883 -3.97884 0
M  V30 16197 H 1473.53 -5.08215 -4.00409 0
M  V30 16198 N 1473.67 0.933891 -1.2695 0
M  V30 16199 C 1474.94 1.65874 -1.0366 0
M  V30 16200 C 1475.32 2.0666 0.43066 0
M  V30 16201 O 1474.67 1.79606 1.41259 0
M  V30 16202 C 1474.88 2.86546 -1.99229 0
M  V30 16203 C 1476.23 3.58031 -2.28251 0
M  V30 16204 O 1477.25 2.96663 -1.97154 0
M  V30 16205 O 1476.11 4.68583 -2.81233 0
M  V30 16206 H 1473.21 0.72673 -0.394706 0
M  V30 16207 H 1475.75 0.984975 -1.38189 0
M  V30 16208 H 1474.52 2.53351 -2.9821 0
M  V30 16209 H 1474.15 3.61645 -1.65224 0
M  V30 16210 N 1475.14 1.08871 1.13951 0
M  V30 16211 C 1476.07 0.744715 2.21306 0
M  V30 16212 C 1477.05 -0.275019 1.67862 0
M  V30 16213 O 1478.24 -0.144339 1.93663 0
M  V30 16214 C 1475.37 0.158336 3.46939 0
M  V30 16215 C 1474.32 1.10695 4.13438 0
M  V30 16216 C 1473.65 0.382552 5.3333 0
M  V30 16217 C 1474.95 2.44704 4.61429 0
M  V30 16218 H 1476.64 1.6423 2.50337 0
M  V30 16219 H 1474.19 0.791088 1.20324 0
M  V30 16220 H 1476.14 -0.0943587 4.21294 0
M  V30 16221 H 1474.87 -0.774413 3.17286 0
M  V30 16222 H 1473.53 1.34482 3.41043 0
M  V30 16223 H 1473.17 -0.554153 4.99938 0
M  V30 16224 H 1472.87 1.01499 5.78767 0
M  V30 16225 H 1474.4 0.138023 6.10444 0
M  V30 16226 H 1475.81 2.25156 5.27236 0
M  V30 16227 H 1474.21 3.03684 5.17586 0
M  V30 16228 H 1475.28 3.05883 3.76249 0
M  V30 16229 N 1476.62 -1.31073 0.875073 0
M  V30 16230 C 1477.55 -2.27335 0.291809 0
M  V30 16231 C 1478.57 -1.53298 -0.548036 0
M  V30 16232 O 1479.76 -1.7464 -0.369198 0
M  V30 16233 C 1476.86 -3.33465 -0.604521 0
M  V30 16234 C 1476.03 -4.36924 0.204029 0
M  V30 16235 C 1475.09 -5.2252 -0.621238 0
M  V30 16236 O 1474.11 -5.6918 -0.0474551 0
M  V30 16237 N 1475.32 -5.47397 -1.93227 0
M  V30 16238 H 1478.08 -2.78024 1.11906 0
M  V30 16239 H 1475.64 -1.44149 0.737064 0
M  V30 16240 H 1477.63 -3.87646 -1.16243 0
M  V30 16241 H 1476.2 -2.8278 -1.33244 0
M  V30 16242 H 1475.42 -3.82745 0.943389 0
M  V30 16243 H 1476.71 -5.03112 0.758644 0
M  V30 16244 H 1476.11 -5.11253 -2.4215 0
M  V30 16245 H 1474.67 -6.04493 -2.43785 0
M  V30 16246 N 1478.1 -0.635022 -1.4424 0
M  V30 16247 C 1479.38 -0.0718064 -1.95468 0
M  V30 16248 C 1479.76 1.40348 -1.57689 0
M  V30 16249 O 1479.11 2.11986 -0.852888 0
M  V30 16250 C 1479.32 -0.298793 -3.47719 0
M  V30 16251 C 1480.66 -0.194056 -4.24156 0
M  V30 16252 O 1481.69 -0.230368 -3.55454 0
M  V30 16253 O 1480.55 -0.102294 -5.46404 0
M  V30 16254 H 1477.64 0.0200784 -0.826756 0
M  V30 16255 H 1480.19 -0.706996 -1.54271 0
M  V30 16256 H 1478.96 -1.32233 -3.6828 0
M  V30 16257 H 1478.58 0.370347 -3.95871 0
M  V30 16258 N 1479.58 1.53054 -0.375806 0
M  V30 16259 C 1480.83 2.01003 0.210257 0
M  V30 16260 C 1481.15 1.26451 1.48442 0
M  V30 16261 O 1480.42 0.380687 1.92166 0
M  V30 16262 H 1479 0.74263 0.0806861 0
M  V30 16263 H 1481.66 1.8826 -0.504393 0
M  V30 16264 H 1480.76 3.09123 0.430027 0
M  V30 16265 N 1481.06 0.105248 1.57248 0
M  V30 16266 C 1482.3 -0.556054 1.94716 0
M  V30 16267 C 1482.63 -1.67557 0.987669 0
M  V30 16268 O 1481.89 -1.95698 0.00905706 0
M  V30 16269 C 1482.19 -1.14178 3.38671 0
M  V30 16270 C 1481.85 -0.145022 4.50667 0
M  V30 16271 C 1480.51 0.129099 4.81027 0
M  V30 16272 C 1482.87 0.535015 5.18447 0
M  V30 16273 C 1480.19 1.08978 5.7649 0
M  V30 16274 C 1482.55 1.48423 6.14942 0
M  V30 16275 C 1481.21 1.76648 6.43702 0
M  V30 16276 H 1480.48 -0.203475 0.712516 0
M  V30 16277 H 1483.13 0.183237 1.90621 0
M  V30 16278 H 1481.43 -1.95754 3.39393 0
M  V30 16279 H 1483.13 -1.66132 3.64967 0
M  V30 16280 H 1479.72 -0.36886 4.2701 0
M  V30 16281 H 1483.9 0.336391 4.95159 0
M  V30 16282 H 1479.16 1.31535 5.97083 0
M  V30 16283 H 1483.33 2.01693 6.66553 0
M  V30 16284 H 1480.96 2.51245 7.17482 0
M  V30 16285 N 1482.53 -1.56697 -0.168486 0
M  V30 16286 C 1483.78 -1.81794 -0.882907 0
M  V30 16287 C 1484.1 -0.682707 -1.82658 0
M  V30 16288 O 1483.37 0.297234 -1.93632 0
M  V30 16289 H 1481.95 -0.670636 -0.329024 0
M  V30 16290 H 1484.62 -1.94178 -0.167625 0
M  V30 16291 H 1483.71 -2.75945 -1.45811 0
M  V30 16292 N 1484.01 0.437135 -1.51416 0
M  V30 16293 C 1485.26 1.18523 -1.653 0
M  V30 16294 C 1485.61 1.88911 -0.364764 0
M  V30 16295 O 1484.91 1.80615 0.63943 0
M  V30 16296 C 1485.1 2.22795 -2.79458 0
M  V30 16297 C 1484.93 1.62642 -4.19259 0
M  V30 16298 C 1483.7 1.41126 -4.85192 0
M  V30 16299 C 1485.9 1.10255 -5.02343 0
M  V30 16300 N 1483.88 0.765717 -6.09106 0
M  V30 16301 C 1485.25 0.582285 -6.1726 0
M  V30 16302 C 1487.31 0.994325 -4.8787 0
M  V30 16303 C 1486.01 -0.0355648 -7.19291 0
M  V30 16304 C 1488.03 0.390369 -5.9011 0
M  V30 16305 C 1487.4 -0.11935 -7.04299 0
M  V30 16306 H 1483.5 0.42137 -0.658765 0
M  V30 16307 H 1486.08 0.4818 -1.88645 0
M  V30 16308 H 1484.25 2.90526 -2.57777 0
M  V30 16309 H 1485.98 2.89765 -2.82521 0
M  V30 16310 H 1482.74 1.67305 -4.43064 0
M  V30 16311 H 1483.16 0.460381 -6.75433 0
M  V30 16312 H 1487.8 1.37428 -3.99842 0
M  V30 16313 H 1485.52 -0.427644 -8.06968 0
M  V30 16314 H 1489.11 0.308533 -5.80981 0
M  V30 16315 H 1487.99 -0.579344 -7.82057 0
M  V30 16316 N 1485.49 1.41566 0.692592 0
M  V30 16317 C 1486.42 1.46423 1.81886 0
M  V30 16318 C 1487.4 0.32258 1.67013 0
M  V30 16319 O 1488.59 0.534437 1.86701 0
M  V30 16320 C 1485.72 1.3486 3.20047 0
M  V30 16321 C 1484.67 2.46867 3.49629 0
M  V30 16322 C 1484 2.20369 4.87177 0
M  V30 16323 C 1485.3 3.89205 3.48306 0
M  V30 16324 H 1486.99 2.40683 1.78079 0
M  V30 16325 H 1484.54 1.15845 0.855334 0
M  V30 16326 H 1486.49 1.36869 3.98553 0
M  V30 16327 H 1485.21 0.370859 3.24488 0
M  V30 16328 H 1483.87 2.44146 2.73475 0
M  V30 16329 H 1483.52 1.20931 4.88247 0
M  V30 16330 H 1483.22 2.95426 5.07934 0
M  V30 16331 H 1484.74 2.24099 5.6799 0
M  V30 16332 H 1486.16 3.93626 4.16811 0
M  V30 16333 H 1484.56 4.63969 3.80595 0
M  V30 16334 H 1485.63 4.17144 2.47222 0
M  V30 16335 N 1486.97 -0.927146 1.27443 0
M  V30 16336 C 1488.38 -1.48984 1.1252 0
M  V30 16337 C 1488.73 -1.94051 -0.289602 0
M  V30 16338 O 1487.86 -1.8123 -1.18257 0
M  V30 16339 C 1488.45 -2.70765 2.03646 0
M  V30 16340 C 1487.01 -3.23256 1.92827 0
M  V30 16341 C 1486.16 -1.95991 1.9617 0
M  V30 16342 H 1489.11 -0.741196 1.40328 0
M  V30 16343 H 1489.13 -3.45567 1.5926 0
M  V30 16344 H 1488.64 -2.37933 3.0661 0
M  V30 16345 H 1486.74 -3.60845 0.928516 0
M  V30 16346 H 1486.85 -3.89413 2.79096 0
M  V30 16347 H 1485.22 -2.12508 1.40402 0
M  V30 16348 H 1486 -1.65473 3.00788 0
M  V30 16349 N 1488.45 -1.09474 -1.13372 0
M  V30 16350 C 1489.36 -0.746674 -2.224 0
M  V30 16351 C 1490.37 0.251572 -1.72172 0
M  V30 16352 O 1491.55 0.092793 -2.01186 0
M  V30 16353 C 1488.61 -0.172965 -3.46268 0
M  V30 16354 C 1487.67 -1.22722 -4.11385 0
M  V30 16355 C 1486.91 -0.680794 -5.2934 0
M  V30 16356 O 1487.13 0.496135 -5.68238 0
M  V30 16357 O 1486.06 -1.43605 -5.84518 0
M  V30 16358 H 1489.89 -1.65649 -2.54547 0
M  V30 16359 H 1487.48 -0.869172 -1.21514 0
M  V30 16360 H 1489.36 0.143629 -4.21155 0
M  V30 16361 H 1488.03 0.709853 -3.15821 0
M  V30 16362 H 1486.94 -1.59652 -3.38323 0
M  V30 16363 H 1488.27 -2.0827 -4.45965 0
M  V30 16364 N 1489.92 1.30607 -0.882012 0
M  V30 16365 C 1490.86 2.26334 -0.291222 0
M  V30 16366 C 1491.84 1.51653 0.586522 0
M  V30 16367 O 1493.02 1.80681 0.537275 0
M  V30 16368 C 1490.15 3.33584 0.586482 0
M  V30 16369 C 1489.19 4.25924 -0.221535 0
M  V30 16370 S 1490.03 5.10791 -1.6079 0
M  V30 16371 C 1491.18 6.2155 -0.736638 0
M  V30 16372 H 1491.41 2.76096 -1.10265 0
M  V30 16373 H 1488.95 1.38558 -0.681255 0
M  V30 16374 H 1490.91 3.95842 1.08715 0
M  V30 16375 H 1489.57 2.82552 1.37198 0
M  V30 16376 H 1488.76 5.02004 0.448139 0
M  V30 16377 H 1488.36 3.68225 -0.654722 0
M  V30 16378 H 1490.65 6.77483 0.0476549 0
M  V30 16379 H 1491.6 6.92696 -1.46894 0
M  V30 16380 H 1492 5.63708 -0.298853 0
M  V30 16381 N 1491.4 0.642663 1.43901 0
M  V30 16382 C 1492.65 0.152003 2.0223 0
M  V30 16383 C 1492.98 -1.22711 1.50518 0
M  V30 16384 O 1492.26 -1.817 0.693937 0
M  V30 16385 C 1492.54 0.151278 3.59782 0
M  V30 16386 C 1492.39 1.56356 4.2175 0
M  V30 16387 C 1493.71 -0.518016 4.37041 0
M  V30 16388 H 1490.83 0.0567094 0.734815 0
M  V30 16389 H 1493.47 0.821337 1.7133 0
M  V30 16390 H 1491.62 -0.418679 3.86237 0
M  V30 16391 H 1493.29 2.18329 4.06362 0
M  V30 16392 H 1491.54 2.11401 3.78803 0
M  V30 16393 H 1492.21 1.51499 5.30803 0
M  V30 16394 H 1494.68 -0.0331947 4.16087 0
M  V30 16395 H 1493.56 -0.487754 5.46729 0
M  V30 16396 H 1493.82 -1.59036 4.12504 0
M  V30 16397 N 1492.88 -1.52852 0.383918 0
M  V30 16398 C 1494.29 -1.86477 -0.0912997 0
M  V30 16399 C 1494.64 -1.30382 -1.46611 0
M  V30 16400 O 1493.77 -0.633042 -2.06934 0
M  V30 16401 C 1494.36 -3.38361 -0.172447 0
M  V30 16402 C 1492.92 -3.71716 -0.591948 0
M  V30 16403 C 1492.07 -2.76176 0.24945 0
M  V30 16404 H 1495.02 -1.46839 0.602006 0
M  V30 16405 H 1495.04 -3.67325 -0.992603 0
M  V30 16406 H 1494.55 -3.79158 0.8283 0
M  V30 16407 H 1492.65 -3.36486 -1.60026 0
M  V30 16408 H 1492.77 -4.77792 -0.353835 0
M  V30 16409 H 1491.13 -2.53106 -0.284469 0
M  V30 16410 H 1491.91 -3.19809 1.24808 0
M  V30 16411 N 1494.36 -0.113586 -1.5719 0
M  V30 16412 C 1495.31 0.83862 -2.15025 0
M  V30 16413 C 1496.28 1.26726 -1.07376 0
M  V30 16414 O 1497.46 1.34574 -1.35257 0
M  V30 16415 C 1494.6 2.08538 -2.74965 0
M  V30 16416 C 1493.71 1.70559 -3.96905 0
M  V30 16417 C 1492.85 2.90161 -4.44949 0
M  V30 16418 C 1491.89 2.48396 -5.59433 0
M  V30 16419 N 1491.03 3.60894 -6.02246 0
M  V30 16420 H 1495.87 0.338585 -2.9607 0
M  V30 16421 H 1493.4 0.155437 -1.46276 0
M  V30 16422 H 1495.36 2.81579 -3.07846 0
M  V30 16423 H 1493.99 2.56009 -1.96619 0
M  V30 16424 H 1493.04 0.874133 -3.7022 0
M  V30 16425 H 1494.35 1.35863 -4.7994 0
M  V30 16426 H 1493.51 3.71434 -4.7971 0
M  V30 16427 H 1492.25 3.28081 -3.60852 0
M  V30 16428 H 1491.25 1.65555 -5.24282 0
M  V30 16429 H 1492.48 2.116 -6.45292 0
M  V30 16430 H 1490.42 3.98497 -5.21091 0
M  V30 16431 H 1490.34 3.30103 -6.80124 0
M  V30 16432 H 1491.61 4.42622 -6.41643 0
M  V30 16433 N 1495.84 1.56784 0.160173 0
M  V30 16434 C 1496.78 1.97267 1.1981 0
M  V30 16435 C 1497.75 0.83824 1.43397 0
M  V30 16436 O 1498.94 1.09926 1.55952 0
M  V30 16437 C 1496.08 2.34725 2.52979 0
M  V30 16438 C 1495.19 3.61397 2.36677 0
M  V30 16439 C 1494.33 3.88018 3.62789 0
M  V30 16440 C 1493.37 5.08002 3.41468 0
M  V30 16441 N 1492.5 5.30699 4.59677 0
M  V30 16442 H 1497.34 2.85743 0.845878 0
M  V30 16443 H 1494.88 1.41379 0.406249 0
M  V30 16444 H 1496.84 2.54468 3.30608 0
M  V30 16445 H 1495.47 1.49345 2.86175 0
M  V30 16446 H 1494.52 3.49505 1.50167 0
M  V30 16447 H 1495.83 4.49185 2.16875 0
M  V30 16448 H 1494.99 4.08188 4.48851 0
M  V30 16449 H 1493.73 2.98627 3.85582 0
M  V30 16450 H 1492.73 4.87718 2.53793 0
M  V30 16451 H 1493.96 5.98934 3.20086 0
M  V30 16452 H 1491.9 4.44261 4.82668 0
M  V30 16453 H 1491.82 6.1273 4.42829 0
M  V30 16454 H 1493.09 5.55357 5.46991 0
M  V30 16455 N 1497.32 -0.429099 1.51646 0
M  V30 16456 C 1498.25 -1.53996 1.69758 0
M  V30 16457 C 1499.26 -1.52189 0.578138 0
M  V30 16458 O 1500.45 -1.56816 0.852709 0
M  V30 16459 C 1497.55 -2.9291 1.7046 0
M  V30 16460 C 1496.72 -3.19132 2.99122 0
M  V30 16461 C 1495.78 -4.37813 2.91901 0
M  V30 16462 O 1494.81 -4.36065 3.65836 0
M  V30 16463 N 1496.01 -5.41834 2.08317 0
M  V30 16464 H 1498.77 -1.38861 2.65589 0
M  V30 16465 H 1496.34 -0.618148 1.49635 0
M  V30 16466 H 1498.33 -3.7034 1.63187 0
M  V30 16467 H 1496.9 -3.01602 0.821877 0
M  V30 16468 H 1496.12 -2.29926 3.20199 0
M  V30 16469 H 1497.41 -3.33483 3.84274 0
M  V30 16470 H 1496.8 -5.46094 1.4764 0
M  V30 16471 H 1495.36 -6.18085 2.06917 0
M  V30 16472 N 1498.79 -1.41931 -0.685074 0
M  V30 16473 C 1500.2 -1.37279 -1.26536 0
M  V30 16474 C 1500.56 -0.0610089 -1.96105 0
M  V30 16475 O 1499.68 0.840508 -1.9941 0
M  V30 16476 C 1500.28 -2.48658 -2.30119 0
M  V30 16477 C 1498.83 -2.47371 -2.83698 0
M  V30 16478 C 1497.98 -2.2797 -1.57876 0
M  V30 16479 H 1500.93 -1.51294 -0.479132 0
M  V30 16480 H 1500.95 -2.18319 -3.11636 0
M  V30 16481 H 1500.47 -3.44118 -1.79456 0
M  V30 16482 H 1498.57 -1.55699 -3.3851 0
M  V30 16483 H 1498.68 -3.44052 -3.33414 0
M  V30 16484 H 1497.04 -1.7604 -1.84071 0
M  V30 16485 H 1497.83 -3.25471 -1.09194 0
M  V30 16486 N 1500.27 0.920374 -1.27933 0
M  V30 16487 C 1501.18 2.05525 -1.13123 0
M  V30 16488 C 1502.2 1.73899 -0.059421 0
M  V30 16489 O 1503.37 1.99617 -0.267386 0
M  V30 16490 C 1500.44 3.37637 -0.787551 0
M  V30 16491 C 1499.5 3.82914 -1.94101 0
M  V30 16492 C 1498.73 5.08721 -1.61364 0
M  V30 16493 O 1498.96 5.6798 -0.524918 0
M  V30 16494 O 1497.89 5.4955 -2.45517 0
M  V30 16495 H 1501.72 2.20935 -2.08378 0
M  V30 16496 H 1499.3 1.04071 -1.07189 0
M  V30 16497 H 1501.18 4.16968 -0.609544 0
M  V30 16498 H 1499.86 3.23417 0.135407 0
M  V30 16499 H 1498.76 3.04438 -2.17413 0
M  V30 16500 H 1500.1 4.01687 -2.84444 0
M  V30 16501 N 1501.75 1.10074 1.1279 0
M  V30 16502 C 1503.17 0.831776 1.36212 0
M  V30 16503 C 1503.37 -0.550632 1.93831 0
M  V30 16504 O 1502.42 -1.30422 2.16209 0
M  V30 16505 C 1503.73 1.92844 2.3072 0
M  V30 16506 C 1505.28 1.95645 2.4432 0
M  V30 16507 C 1505.76 3.04474 3.4214 0
M  V30 16508 N 1507.25 3.03756 3.49695 0
M  V30 16509 C 1507.98 3.84605 4.25284 0
M  V30 16510 N 1507.48 4.7538 5.0397 0
M  V30 16511 N 1509.27 3.72838 4.20652 0
M  V30 16512 H 1501.42 1.99187 0.737452 0
M  V30 16513 H 1503.69 0.865383 0.387062 0
M  V30 16514 H 1503.39 2.92323 1.9555 0
M  V30 16515 H 1503.27 1.81241 3.30805 0
M  V30 16516 H 1505.65 0.968004 2.78772 0
M  V30 16517 H 1505.73 2.11325 1.44136 0
M  V30 16518 H 1505.38 4.03536 3.08418 0
M  V30 16519 H 1505.31 2.86036 4.42144 0
M  V30 16520 H 1507.8 2.37977 2.93556 0
M  V30 16521 H 1508.11 5.33637 5.58974 0
M  V30 16522 H 1506.46 4.79411 5.0318 0
M  V30 16523 H 1509.65 3.01276 3.5826 0
M  V30 16524 H 1509.82 4.36083 4.79308 0
M  V30 16525 N 1503.23 -1.30138 0.888926 0
M  V30 16526 C 1504.47 -1.97776 0.516122 0
M  V30 16527 C 1504.83 -1.68613 -0.918358 0
M  V30 16528 O 1506.03 -2.29617 -1.39748 0
M  V30 16529 C 1504.3 -3.48608 0.787866 0
M  V30 16530 S 1505.86 -4.35735 0.517757 0
M  V30 16531 H 1502.68 -0.684617 0.191885 0
M  V30 16532 H 1505.28 -1.58168 1.14904 0
M  V30 16533 H 1503.99 -3.67326 1.8303 0
M  V30 16534 H 1503.52 -3.93141 0.142652 0
M  V30 16535 H 1505.53 -4.9203 -0.64192 0
M  V30 16536 N 1504.71 -0.650285 -1.43559 0
M  V30 16537 C 1505.64 0.0295939 -2.33481 0
M  V30 16538 C 1506.62 0.815017 -1.49303 0
M  V30 16539 O 1507.8 0.77708 -1.77975 0
M  V30 16540 C 1504.93 0.998683 -3.32631 0
M  V30 16541 C 1503.89 0.323577 -4.26775 0
M  V30 16542 C 1503.21 1.40391 -5.1594 0
M  V30 16543 C 1504.51 -0.782197 -5.1641 0
M  V30 16544 H 1506.21 -0.721349 -2.9058 0
M  V30 16545 H 1503.75 -0.348339 -1.39723 0
M  V30 16546 H 1505.7 1.4832 -3.94435 0
M  V30 16547 H 1504.43 1.78075 -2.73782 0
M  V30 16548 H 1503.09 -0.140467 -3.66331 0
M  V30 16549 H 1502.74 2.17734 -4.53432 0
M  V30 16550 H 1502.44 0.957462 -5.79747 0
M  V30 16551 H 1503.96 1.88985 -5.80618 0
M  V30 16552 H 1505.37 -0.379966 -5.72039 0
M  V30 16553 H 1503.77 -1.15293 -5.88921 0
M  V30 16554 H 1504.84 -1.6414 -4.56274 0
M  V30 16555 N 1506.18 1.52647 -0.392018 0
M  V30 16556 C 1507.59 1.86522 0.0814091 0
M  V30 16557 C 1507.95 1.31158 1.45918 0
M  V30 16558 O 1507.07 0.644007 2.06595 0
M  V30 16559 C 1507.67 3.38448 0.1545 0
M  V30 16560 C 1506.22 3.72025 0.572227 0
M  V30 16561 C 1505.37 2.7604 -0.264093 0
M  V30 16562 H 1508.32 1.46517 -0.609785 0
M  V30 16563 H 1508.34 3.67846 0.973109 0
M  V30 16564 H 1507.86 3.78713 -0.848396 0
M  V30 16565 H 1505.96 3.37329 1.58239 0
M  V30 16566 H 1506.07 4.77973 0.328491 0
M  V30 16567 H 1504.43 2.53254 0.271042 0
M  V30 16568 H 1505.22 3.19143 -1.26502 0
M  V30 16569 N 1507.66 0.121921 1.57128 0
M  V30 16570 C 1508.61 -0.827205 2.15467 0
M  V30 16571 C 1509.58 -1.26155 1.08047 0
M  V30 16572 O 1510.76 -1.33855 1.35969 0
M  V30 16573 C 1507.9 -2.07077 2.76067 0
M  V30 16574 C 1507.02 -1.68452 3.97804 0
M  V30 16575 C 1506.15 -2.87797 4.46482 0
M  V30 16576 C 1505.19 -2.45426 5.60743 0
M  V30 16577 N 1504.33 -3.57695 6.04151 0
M  V30 16578 H 1509.17 -0.322879 2.96246 0
M  V30 16579 H 1506.71 -0.147677 1.46357 0
M  V30 16580 H 1508.66 -2.79943 3.09335 0
M  V30 16581 H 1507.29 -2.54963 1.97974 0
M  V30 16582 H 1506.35 -0.854487 3.70679 0
M  V30 16583 H 1507.66 -1.33316 4.80654 0
M  V30 16584 H 1506.81 -3.68885 4.81673 0
M  V30 16585 H 1505.55 -3.26162 3.62587 0
M  V30 16586 H 1504.56 -1.62772 5.25153 0
M  V30 16587 H 1505.78 -2.08175 6.46405 0
M  V30 16588 H 1503.73 -3.95728 5.23197 0
M  V30 16589 H 1503.64 -3.26491 6.81865 0
M  V30 16590 H 1504.91 -4.39213 6.43981 0
M  V30 16591 N 1509.14 -1.56867 -0.151857 0
M  V30 16592 C 1510.39 -1.82721 -0.863575 0
M  V30 16593 C 1510.71 -0.702042 -1.81924 0
M  V30 16594 O 1509.98 0.27668 -1.93936 0
M  V30 16595 H 1508.56 -0.674088 -0.321893 0
M  V30 16596 H 1511.22 -1.94345 -0.14702 0
M  V30 16597 H 1510.32 -2.77476 -1.42876 0
M  V30 16598 N 1510.62 0.421051 -1.51871 0
M  V30 16599 C 1511.87 1.16908 -1.65344 0
M  V30 16600 C 1512.19 1.90801 -0.377538 0
M  V30 16601 O 1511.45 1.84972 0.639061 0
M  V30 16602 C 1511.75 2.19819 -2.81806 0
M  V30 16603 C 1511.41 1.62821 -4.20476 0
M  V30 16604 C 1510.08 1.47 -4.58197 0
M  V30 16605 C 1512.43 1.21079 -5.06941 0
M  V30 16606 C 1509.76 0.879359 -5.80073 0
M  V30 16607 C 1512.11 0.634373 -6.29411 0
M  V30 16608 C 1510.77 0.4632 -6.65891 0
M  V30 16609 H 1510.04 0.427798 -0.605037 0
M  V30 16610 H 1512.69 0.457896 -1.85945 0
M  V30 16611 H 1510.99 2.97037 -2.55492 0
M  V30 16612 H 1512.69 2.77548 -2.89427 0
M  V30 16613 H 1509.28 1.76115 -3.90745 0
M  V30 16614 H 1513.46 1.32115 -4.78392 0
M  V30 16615 H 1508.72 0.734646 -6.0697 0
M  V30 16616 H 1512.89 0.302484 -6.95743 0
M  V30 16617 H 1510.52 0.00341397 -7.602 0
M  V30 16618 N 1512.1 1.42293 0.677538 0
M  V30 16619 C 1513.34 1.42334 1.43476 0
M  V30 16620 C 1513.67 0.0397842 1.94959 0
M  V30 16621 O 1512.94 -0.921258 1.72886 0
M  V30 16622 H 1511.52 0.523969 0.532415 0
M  V30 16623 H 1514.18 1.7769 0.800758 0
M  V30 16624 H 1513.27 2.12146 2.28912 0
M  V30 16625 N 1513.57 -0.913576 1.28419 0
M  V30 16626 C 1514.81 -1.67716 1.16836 0
M  V30 16627 C 1515.18 -1.8997 -0.278452 0
M  V30 16628 O 1516.38 -2.63781 -0.516994 0
M  V30 16629 C 1514.65 -2.99838 1.94504 0
M  V30 16630 S 1516.21 -3.9093 1.99297 0
M  V30 16631 H 1513.03 -0.575987 0.416845 0
M  V30 16632 H 1515.63 -1.08661 1.62521 0
M  V30 16633 H 1514.33 -2.81343 2.98788 0
M  V30 16634 H 1513.86 -3.6394 1.4937 0
M  V30 16635 H 1515.88 -4.83863 1.0996 0
M  V30 16636 N 1515.05 -1.1067 -1.12204 0
M  V30 16637 C 1516.29 -0.860466 -1.85406 0
M  V30 16638 C 1516.66 0.603027 -1.82284 0
M  V30 16639 O 1517.86 0.965713 -2.50853 0
M  V30 16640 C 1516.13 -1.39677 -3.28976 0
M  V30 16641 S 1517.69 -1.28633 -4.19522 0
M  V30 16642 H 1514.51 -0.31087 -0.639438 0
M  V30 16643 H 1517.11 -1.41263 -1.35148 0
M  V30 16644 H 1515.81 -2.45588 -3.28808 0
M  V30 16645 H 1515.34 -0.841293 -3.84299 0
M  V30 16646 H 1517.36 -0.245599 -4.95592 0
M  V30 16647 N 1516.53 1.29665 -0.895815 0
M  V30 16648 C 1517.78 1.95716 -0.519752 0
M  V30 16649 C 1518.11 1.7065 0.933212 0
M  V30 16650 O 1517.36 1.01014 1.67615 0
M  V30 16651 C 1517.66 3.49355 -0.754025 0
M  V30 16652 C 1517.33 3.94491 -2.18375 0
M  V30 16653 C 1515.99 4.06526 -2.57468 0
M  V30 16654 C 1518.34 4.17874 -3.11498 0
M  V30 16655 C 1515.67 4.39311 -3.88874 0
M  V30 16656 C 1518.02 4.52132 -4.42447 0
M  V30 16657 C 1516.68 4.62376 -4.81419 0
M  V30 16658 H 1515.95 0.716176 -0.190191 0
M  V30 16659 H 1518.6 1.54333 -1.13373 0
M  V30 16660 H 1516.91 3.91758 -0.0570932 0
M  V30 16661 H 1518.6 3.98551 -0.442493 0
M  V30 16662 H 1515.19 3.85638 -1.87033 0
M  V30 16663 H 1519.38 4.08046 -2.8251 0
M  V30 16664 H 1514.63 4.45444 -4.18795 0
M  V30 16665 H 1518.81 4.69175 -5.14634 0
M  V30 16666 H 1516.43 4.87535 -5.83278 0
M  V30 16667 N 1518.01 0.657889 1.43212 0
M  V30 16668 C 1519.42 0.252443 1.84985 0
M  V30 16669 C 1519.77 -1.20196 1.55072 0
M  V30 16670 O 1518.9 -1.91803 1.00202 0
M  V30 16671 C 1519.49 0.451388 3.3578 0
M  V30 16672 C 1518.05 0.100219 3.76267 0
M  V30 16673 C 1517.2 0.752009 2.66908 0
M  V30 16674 H 1520.15 0.861239 1.33298 0
M  V30 16675 H 1520.17 -0.30169 3.79302 0
M  V30 16676 H 1519.68 1.51001 3.5752 0
M  V30 16677 H 1517.78 -0.955618 3.60137 0
M  V30 16678 H 1517.89 0.528942 4.76171 0
M  V30 16679 H 1516.26 0.184823 2.54029 0
M  V30 16680 H 1517.04 1.81375 2.91476 0
M  V30 16681 N 1519.49 -1.52437 0.400108 0
M  V30 16682 C 1520.73 -2.03621 -0.178245 0
M  V30 16683 C 1521.09 -1.27965 -1.4314 0
M  V30 16684 O 1522.29 -1.69329 -2.08761 0
M  V30 16685 C 1520.56 -3.54816 -0.428968 0
M  V30 16686 S 1522.12 -4.27807 -0.97606 0
M  V30 16687 H 1518.94 -0.709293 -0.0492434 0
M  V30 16688 H 1521.54 -1.87576 0.550948 0
M  V30 16689 H 1520.25 -4.07464 0.490016 0
M  V30 16690 H 1519.78 -3.75088 -1.18629 0
M  V30 16691 H 1521.79 -4.41875 -2.25746 0
M  V30 16692 N 1520.96 -0.130252 -1.57061 0
M  V30 16693 C 1522.2 0.527958 -1.97464 0
M  V30 16694 C 1522.57 1.63126 -1.01261 0
M  V30 16695 O 1523.77 2.34916 -1.30644 0
M  V30 16696 C 1522.04 1.03657 -3.42038 0
M  V30 16697 S 1523.6 1.70173 -4.04459 0
M  V30 16698 H 1520.42 0.171256 -0.690067 0
M  V30 16699 H 1523.02 -0.218 -1.94281 0
M  V30 16700 H 1521.72 0.222568 -4.09796 0
M  V30 16701 H 1521.25 1.81754 -3.48897 0
M  V30 16702 H 1523.27 2.98813 -3.96138 0
M  V30 16703 N 1522.44 1.56945 0.143535 0
M  V30 16704 C 1523.67 1.88067 0.874385 0
M  V30 16705 C 1524.09 0.719645 1.73789 0
M  V30 16706 O 1523.45 -0.330654 1.78259 0
M  V30 16707 C 1523.5 3.17795 1.70408 0
M  V30 16708 O 1522.6 3.01973 2.80867 0
M  V30 16709 H 1521.94 0.617808 0.24333 0
M  V30 16710 H 1524.47 2.04165 0.133309 0
M  V30 16711 H 1524.48 3.49903 2.09838 0
M  V30 16712 H 1523.16 4.019 1.07001 0
M  V30 16713 H 1521.74 2.8128 2.44818 0
M  V30 16714 N 1523.92 -0.412991 1.52093 0
M  V30 16715 C 1525.17 -1.16202 1.66208 0
M  V30 16716 C 1525.5 -1.90265 0.388957 0
M  V30 16717 O 1524.78 -1.84605 -0.612477 0
M  V30 16718 C 1525.06 -2.15958 2.88157 0
M  V30 16719 C 1524.91 -1.45817 4.25509 0
M  V30 16720 C 1526.23 -3.16671 3.05626 0
M  V30 16721 H 1523.35 -0.421083 0.604862 0
M  V30 16722 H 1525.99 -0.448212 1.84638 0
M  V30 16723 H 1524.14 -2.76831 2.72574 0
M  V30 16724 H 1525.81 -0.880925 4.52811 0
M  V30 16725 H 1524.06 -0.760175 4.27088 0
M  V30 16726 H 1524.73 -2.18587 5.06877 0
M  V30 16727 H 1527.2 -2.65871 3.20081 0
M  V30 16728 H 1526.08 -3.83739 3.92474 0
M  V30 16729 H 1526.34 -3.84178 2.18769 0
M  V30 16730 N 1525.4 -1.4265 -0.669982 0
M  V30 16731 C 1526.68 -1.33858 -1.42623 0
M  V30 16732 C 1527.06 0.0217285 -2.11089 0
M  V30 16733 O 1526.4 1.03748 -2.03589 0
M  V30 16734 C 1526.61 -2.51015 -2.42472 0
M  V30 16735 C 1527.96 -2.93348 -3.06972 0
M  V30 16736 O 1528.99 -2.5094 -2.52799 0
M  V30 16737 O 1527.85 -3.66762 -4.05151 0
M  V30 16738 H 1524.94 -0.528141 -0.636393 0
M  V30 16739 H 1527.49 -1.54667 -0.6983 0
M  V30 16740 H 1526.26 -3.41679 -1.90713 0
M  V30 16741 H 1525.88 -2.32218 -3.2274 0
M  V30 16742 N 1526.88 0.906753 -1.28902 0
M  V30 16743 C 1527.82 2.01004 -1.13429 0
M  V30 16744 C 1528.79 1.66074 -0.0295031 0
M  V30 16745 O 1529.98 1.89793 -0.195727 0
M  V30 16746 C 1527.12 3.35473 -0.809457 0
M  V30 16747 C 1526.23 3.83229 -1.99398 0
M  V30 16748 C 1525.37 5.06241 -1.60915 0
M  V30 16749 C 1524.41 5.46348 -2.7599 0
M  V30 16750 N 1523.54 6.60548 -2.37952 0
M  V30 16751 H 1528.38 2.13571 -2.07825 0
M  V30 16752 H 1525.92 1.046 -1.03428 0
M  V30 16753 H 1527.88 4.12836 -0.601845 0
M  V30 16754 H 1526.51 3.22652 0.0975896 0
M  V30 16755 H 1525.56 3.01962 -2.31351 0
M  V30 16756 H 1526.87 4.08908 -2.85649 0
M  V30 16757 H 1526.03 5.91168 -1.36401 0
M  V30 16758 H 1524.77 4.82385 -0.718021 0
M  V30 16759 H 1523.77 4.59959 -3.01195 0
M  V30 16760 H 1525 5.72188 -3.65757 0
M  V30 16761 H 1522.94 6.38309 -1.51318 0
M  V30 16762 H 1522.86 6.85987 -3.17738 0
M  V30 16763 H 1524.13 7.48762 -2.1674 0
M  V30 16764 N 1528.36 1.11264 1.11616 0
M  V30 16765 C 1529.77 0.846176 1.35322 0
M  V30 16766 C 1529.97 -0.530043 1.94404 0
M  V30 16767 O 1529.03 -1.28122 2.1758 0
M  V30 16768 C 1530.34 1.9528 2.28662 0
M  V30 16769 C 1531.89 1.98225 2.42231 0
M  V30 16770 C 1532.36 3.08086 3.38891 0
M  V30 16771 N 1533.85 3.07448 3.46453 0
M  V30 16772 C 1534.59 3.89094 4.21181 0
M  V30 16773 N 1534.09 4.80698 4.989 0
M  V30 16774 N 1535.88 3.77279 4.16674 0
M  V30 16775 H 1528.03 1.99958 0.716284 0
M  V30 16776 H 1530.29 0.869439 0.377862 0
M  V30 16777 H 1530 2.94381 1.92439 0
M  V30 16778 H 1529.87 1.84739 3.28864 0
M  V30 16779 H 1532.26 0.997517 2.77729 0
M  V30 16780 H 1532.34 2.12842 1.41887 0
M  V30 16781 H 1531.98 4.06784 3.0412 0
M  V30 16782 H 1531.91 2.90709 4.39085 0
M  V30 16783 H 1534.41 2.41077 2.91016 0
M  V30 16784 H 1534.72 5.39535 5.53282 0
M  V30 16785 H 1533.06 4.84721 4.98067 0
M  V30 16786 H 1536.25 3.05059 3.55044 0
M  V30 16787 H 1536.43 4.41142 4.74655 0
M  V30 16788 N 1529.83 -1.29188 0.902679 0
M  V30 16789 C 1530.78 -2.27632 0.381088 0
M  V30 16790 C 1531.75 -1.57131 -0.538431 0
M  V30 16791 O 1532.94 -1.85096 -0.463027 0
M  V30 16792 C 1530.08 -3.42971 -0.382701 0
M  V30 16793 C 1529.19 -4.28249 0.568054 0
M  V30 16794 C 1528.32 -5.30772 -0.213082 0
M  V30 16795 C 1527.36 -6.07707 0.732004 0
M  V30 16796 N 1526.5 -7.02098 -0.0149139 0
M  V30 16797 H 1531.34 -2.71628 1.22566 0
M  V30 16798 H 1528.88 -1.33594 0.615724 0
M  V30 16799 H 1530.83 -4.08623 -0.841619 0
M  V30 16800 H 1529.46 -2.99997 -1.19171 0
M  V30 16801 H 1528.52 -3.62743 1.14549 0
M  V30 16802 H 1529.83 -4.81794 1.29136 0
M  V30 16803 H 1528.98 -6.02255 -0.733065 0
M  V30 16804 H 1527.72 -4.77966 -0.969504 0
M  V30 16805 H 1526.73 -5.35086 1.26346 0
M  V30 16806 H 1527.95 -6.62602 1.4878 0
M  V30 16807 H 1525.9 -6.51658 -0.753548 0
M  V30 16808 H 1525.81 -7.53214 0.648423 0
M  V30 16809 H 1527.08 -7.77796 -0.515062 0
M  V30 16810 N 1531.31 -0.665475 -1.42861 0
M  V30 16811 C 1532.72 -0.26225 -1.84849 0
M  V30 16812 C 1533.07 1.19372 -1.55707 0
M  V30 16813 O 1532.2 1.91269 -1.01218 0
M  V30 16814 C 1532.79 -0.469189 -3.35535 0
M  V30 16815 C 1531.35 -0.120172 -3.76208 0
M  V30 16816 C 1530.5 -0.766153 -2.66506 0
M  V30 16817 H 1533.45 -0.868296 -1.32839 0
M  V30 16818 H 1533.47 0.281571 -3.79457 0
M  V30 16819 H 1532.98 -1.52894 -3.56714 0
M  V30 16820 H 1531.08 0.936505 -3.60639 0
M  V30 16821 H 1531.2 -0.554188 -4.75884 0
M  V30 16822 H 1529.56 -0.198292 -2.53927 0
M  V30 16823 H 1530.34 -1.82918 -2.9051 0
M  V30 16824 N 1532.79 1.52222 -0.408187 0
M  V30 16825 C 1534.2 1.86598 0.0616213 0
M  V30 16826 C 1534.55 1.32698 1.44519 0
M  V30 16827 O 1533.68 0.665883 2.059 0
M  V30 16828 C 1534.27 3.38592 0.118595 0
M  V30 16829 C 1532.83 3.72611 0.532737 0
M  V30 16830 C 1531.98 2.75744 -0.293356 0
M  V30 16831 H 1534.93 1.45862 -0.625291 0
M  V30 16832 H 1534.95 3.68858 0.934039 0
M  V30 16833 H 1534.46 3.77792 -0.888516 0
M  V30 16834 H 1532.56 3.38989 1.54652 0
M  V30 16835 H 1532.68 4.78294 0.277777 0
M  V30 16836 H 1531.04 2.53527 0.244166 0
M  V30 16837 H 1531.82 3.17783 -1.2988 0
M  V30 16838 N 1534.27 0.138579 1.5699 0
M  V30 16839 C 1535.51 -0.509041 1.96927 0
M  V30 16840 C 1535.87 -1.63028 1.02174 0
M  V30 16841 O 1535.16 -1.9152 0.0552519 0
M  V30 16842 C 1535.36 -1.06969 3.41017 0
M  V30 16843 C 1535.18 -0.00429556 4.497 0
M  V30 16844 C 1533.95 0.434248 5.03431 0
M  V30 16845 C 1536.15 0.78404 5.08289 0
M  V30 16846 N 1534.13 1.48336 5.95709 0
M  V30 16847 C 1535.51 1.68386 5.96696 0
M  V30 16848 C 1537.56 0.832763 4.90886 0
M  V30 16849 C 1536.26 2.6282 6.69565 0
M  V30 16850 C 1538.29 1.7649 5.64451 0
M  V30 16851 C 1537.65 2.65226 6.5256 0
M  V30 16852 H 1533.75 -0.155325 0.766419 0
M  V30 16853 H 1536.33 0.231233 1.93322 0
M  V30 16854 H 1534.51 -1.7796 3.45231 0
M  V30 16855 H 1536.24 -1.68323 3.68035 0
M  V30 16856 H 1532.99 0.0380997 4.73585 0
M  V30 16857 H 1533.42 2.00743 6.46553 0
M  V30 16858 H 1538.06 0.160815 4.22494 0
M  V30 16859 H 1535.78 3.31019 7.37192 0
M  V30 16860 H 1539.36 1.80829 5.52985 0
M  V30 16861 H 1538.24 3.3618 7.08486 0
M  V30 16862 N 1535.75 -1.57019 -0.13521 0
M  V30 16863 C 1536.99 -1.84262 -0.847071 0
M  V30 16864 C 1537.32 -0.721946 -1.80282 0
M  V30 16865 O 1536.6 0.273535 -1.92567 0
M  V30 16866 C 1536.88 -3.22043 -1.61123 0
M  V30 16867 C 1536.74 -4.44689 -0.67617 0
M  V30 16868 C 1538.05 -3.57188 -2.57108 0
M  V30 16869 H 1535.17 -0.670246 -0.306496 0
M  V30 16870 H 1537.82 -1.89671 -0.111843 0
M  V30 16871 H 1535.97 -3.17563 -2.23799 0
M  V30 16872 H 1537.64 -4.61262 -0.0595009 0
M  V30 16873 H 1535.88 -4.33798 0.0134526 0
M  V30 16874 H 1536.55 -5.37727 -1.24714 0
M  V30 16875 H 1539.03 -3.62354 -2.04545 0
M  V30 16876 H 1537.9 -4.54602 -3.07617 0
M  V30 16877 H 1538.16 -2.83758 -3.39019 0
M  V30 16878 N 1537.22 0.404919 -1.52309 0
M  V30 16879 C 1538.47 1.14859 -1.65802 0
M  V30 16880 C 1538.79 1.91546 -0.396174 0
M  V30 16881 O 1539.99 2.68372 -0.410969 0
M  V30 16882 C 1538.45 2.09068 -2.92948 0
M  V30 16883 C 1538.06 1.37878 -4.26255 0
M  V30 16884 C 1539.8 2.83669 -3.15804 0
M  V30 16885 C 1537.71 2.30761 -5.44521 0
M  V30 16886 H 1536.64 0.432463 -0.61765 0
M  V30 16887 H 1539.29 0.412695 -1.78799 0
M  V30 16888 H 1537.67 2.86228 -2.7366 0
M  V30 16889 H 1538.84 0.660543 -4.56041 0
M  V30 16890 H 1537.16 0.753026 -4.09534 0
M  V30 16891 H 1539.76 3.53313 -4.0134 0
M  V30 16892 H 1540.1 3.46855 -2.30212 0
M  V30 16893 H 1540.63 2.13607 -3.35584 0
M  V30 16894 H 1537.37 1.72214 -6.32473 0
M  V30 16895 H 1536.89 3.00546 -5.19069 0
M  V30 16896 H 1538.57 2.91195 -5.77767 0
M  V30 16897 N 1538.7 1.43003 0.662408 0
M  V30 16898 C 1539.95 1.45344 1.42291 0
M  V30 16899 C 1540.3 0.0731138 1.92261 0
M  V30 16900 O 1539.6 -0.90677 1.68785 0
M  V30 16901 C 1539.79 2.4231 2.62718 0
M  V30 16902 C 1539.62 3.89634 2.24533 0
M  V30 16903 C 1538.39 4.58074 2.13299 0
M  V30 16904 C 1540.59 4.79721 1.85397 0
M  V30 16905 N 1538.57 5.90366 1.68348 0
M  V30 16906 C 1539.94 6.01216 1.51459 0
M  V30 16907 C 1542 4.67064 1.72498 0
M  V30 16908 C 1540.7 7.11459 1.05916 0
M  V30 16909 C 1542.72 5.77302 1.2836 0
M  V30 16910 C 1542.09 6.97916 0.953542 0
M  V30 16911 H 1538.19 0.58699 0.516688 0
M  V30 16912 H 1540.77 1.79119 0.763191 0
M  V30 16913 H 1538.94 2.10576 3.26362 0
M  V30 16914 H 1540.67 2.35148 3.29374 0
M  V30 16915 H 1537.43 4.12453 2.32764 0
M  V30 16916 H 1537.85 6.60566 1.48261 0
M  V30 16917 H 1542.49 3.7428 1.96659 0
M  V30 16918 H 1540.21 8.0408 0.805035 0
M  V30 16919 H 1543.8 5.69524 1.18883 0
M  V30 16920 H 1542.68 7.81767 0.617203 0
M  V30 16921 N 1540.18 -0.899904 1.29381 0
M  V30 16922 C 1541.43 -1.65298 1.18524 0
M  V30 16923 C 1541.78 -1.90625 -0.260731 0
M  V30 16924 O 1541.07 -1.50544 -1.1852 0
M  V30 16925 C 1541.27 -3.0069 1.93185 0
M  V30 16926 C 1541.1 -2.88578 3.44895 0
M  V30 16927 C 1539.87 -2.89358 4.14246 0
M  V30 16928 C 1542.07 -2.65623 4.40396 0
M  V30 16929 N 1540.05 -2.67981 5.52322 0
M  V30 16930 C 1541.42 -2.53225 5.6593 0
M  V30 16931 C 1543.47 -2.50729 4.30162 0
M  V30 16932 C 1542.18 -2.27449 6.82393 0
M  V30 16933 C 1544.2 -2.26336 5.46375 0
M  V30 16934 C 1543.56 -2.14702 6.70882 0
M  V30 16935 H 1539.66 -0.61048 0.48871 0
M  V30 16936 H 1542.25 -1.06167 1.63207 0
M  V30 16937 H 1540.42 -3.57881 1.50916 0
M  V30 16938 H 1542.15 -3.65101 1.74596 0
M  V30 16939 H 1538.91 -3.00634 3.65946 0
M  V30 16940 H 1539.33 -2.60346 6.24939 0
M  V30 16941 H 1543.97 -2.58467 3.34596 0
M  V30 16942 H 1541.69 -2.18449 7.78014 0
M  V30 16943 H 1545.28 -2.15656 5.40355 0
M  V30 16944 H 1544.16 -1.96088 7.59289 0
M  V30 16945 N 1541.66 -1.11854 -1.11024 0
M  V30 16946 C 1542.61 -0.77596 -2.19275 0
M  V30 16947 C 1543.6 0.234503 -1.67769 0
M  V30 16948 O 1544.81 0.0933372 -1.79758 0
M  V30 16949 H 1541.18 -0.23307 -0.71497 0
M  V30 16950 H 1543.15 -1.69749 -2.45414 0
M  V30 16951 C 1541.9 -0.240148 -3.4687 0
M  V30 16952 H 1541.22 -1.00895 -3.86859 0
M  V30 16953 H 1542.66 -0.0386799 -4.23982 0
M  V30 16954 C 1541.12 1.03056 -3.20751 0
M  V30 16955 O 1541.65 2.10948 -3.41854 0
M  V30 16956 N 1539.86 0.955066 -2.74457 0
M  V30 16957 H 1539.41 0.0769523 -2.57485 0
M  V30 16958 H 1539.36 1.80593 -2.57359 0
M  V30 16959 N 1543.14 1.28707 -0.909517 0
M  V30 16960 C 1544.07 2.29845 -0.411552 0
M  V30 16961 C 1545.05 1.62001 0.518615 0
M  V30 16962 O 1546.23 1.89442 0.427252 0
M  V30 16963 C 1543.36 3.45501 0.353013 0
M  V30 16964 C 1542.32 4.25213 -0.487625 0
M  V30 16965 C 1541.64 5.33164 0.405026 0
M  V30 16966 C 1542.94 4.9237 -1.74268 0
M  V30 16967 H 1544.64 2.71746 -1.25676 0
M  V30 16968 H 1542.18 1.30639 -0.605759 0
M  V30 16969 H 1544.14 4.15338 0.712191 0
M  V30 16970 H 1542.86 3.02469 1.23209 0
M  V30 16971 H 1541.52 3.57098 -0.829265 0
M  V30 16972 H 1541.17 4.86375 1.28252 0
M  V30 16973 H 1540.87 5.87399 -0.153811 0
M  V30 16974 H 1542.39 6.0585 0.760179 0
M  V30 16975 H 1543.8 5.5459 -1.45266 0
M  V30 16976 H 1542.2 5.56581 -2.2436 0
M  V30 16977 H 1543.27 4.171 -2.47297 0
M  V30 16978 N 1544.61 0.673042 1.42506 0
M  V30 16979 C 1546.03 0.342429 1.55883 0
M  V30 16980 C 1546.23 -1.15229 1.65302 0
M  V30 16981 O 1545.29 -1.93767 1.61897 0
M  V30 16982 C 1546.6 1.0712 2.80973 0
M  V30 16983 C 1548.15 1.05336 2.94743 0
M  V30 16984 C 1548.62 1.76342 4.22691 0
M  V30 16985 N 1550.11 1.73201 4.29599 0
M  V30 16986 C 1550.85 2.25 5.27411 0
M  V30 16987 N 1550.34 2.85173 6.31386 0
M  V30 16988 N 1552.14 2.15385 5.19197 0
M  V30 16989 H 1544.29 1.64277 1.34636 0
M  V30 16990 H 1546.55 0.691984 0.647968 0
M  V30 16991 H 1546.26 2.1263 2.80145 0
M  V30 16992 H 1546.13 0.635313 3.71811 0
M  V30 16993 H 1548.52 0.00659669 2.95099 0
M  V30 16994 H 1548.6 1.52811 2.0514 0
M  V30 16995 H 1548.24 2.80985 4.23096 0
M  V30 16996 H 1548.17 1.26317 5.11225 0
M  V30 16997 H 1550.66 1.2931 3.55088 0
M  V30 16998 H 1550.98 3.22323 7.02373 0
M  V30 16999 H 1549.32 2.89242 6.31953 0
M  V30 17000 H 1552.51 1.68065 4.36889 0
M  V30 17001 H 1552.69 2.5606 5.95262 0
M  V30 17002 N 1546.09 -1.52004 0.416254 0
M  V30 17003 C 1547.04 -2.27206 -0.405723 0
M  V30 17004 C 1548.01 -1.29913 -1.03498 0
M  V30 17005 O 1549.19 -1.58786 -1.0579 0
M  V30 17006 C 1546.33 -3.10186 -1.51258 0
M  V30 17007 C 1545.45 -4.22445 -0.903539 0
M  V30 17008 C 1544.58 -4.92771 -1.98368 0
M  V30 17009 C 1543.62 -5.96983 -1.35196 0
M  V30 17010 N 1542.76 -6.60798 -2.37255 0
M  V30 17011 H 1547.6 -2.97016 0.241983 0
M  V30 17012 H 1545.14 -1.46514 0.131174 0
M  V30 17013 H 1547.09 -3.56606 -2.16537 0
M  V30 17014 H 1545.72 -2.42532 -2.13021 0
M  V30 17015 H 1544.78 -3.80144 -0.139607 0
M  V30 17016 H 1546.09 -4.97176 -0.402136 0
M  V30 17017 H 1545.24 -5.42633 -2.71357 0
M  V30 17018 H 1543.98 -4.17624 -2.51876 0
M  V30 17019 H 1542.99 -5.46434 -0.607431 0
M  V30 17020 H 1544.21 -6.74076 -0.824482 0
M  V30 17021 H 1542.16 -5.88476 -2.89882 0
M  V30 17022 H 1542.07 -7.31227 -1.91947 0
M  V30 17023 H 1543.34 -7.15296 -3.09792 0
M  V30 17024 N 1547.57 -0.146903 -1.56914 0
M  V30 17025 C 1548.8 0.511181 -2.00486 0
M  V30 17026 C 1549.21 1.58425 -1.02699 0
M  V30 17027 O 1548.57 1.82484 -0.0239878 0
M  V30 17028 C 1548.62 1.11191 -3.43975 0
M  V30 17029 O 1548.34 0.0817094 -4.38024 0
M  V30 17030 C 1549.84 1.85061 -4.02824 0
M  V30 17031 H 1547.06 0.133078 -0.657671 0
M  V30 17032 H 1549.61 -0.241457 -2.0307 0
M  V30 17033 H 1547.76 1.81517 -3.42243 0
M  V30 17034 H 1548.18 0.52181 -5.21898 0
M  V30 17035 H 1549.65 2.22385 -5.05222 0
M  V30 17036 H 1550.13 2.73649 -3.4353 0
M  V30 17037 H 1550.73 1.19434 -4.08186 0
M  V30 17038 N 1549.05 1.57088 0.126881 0
M  V30 17039 C 1550.29 1.8625 0.842031 0
M  V30 17040 C 1550.65 0.733868 1.77421 0
M  V30 17041 O 1551.85 0.907051 2.53034 0
M  V30 17042 C 1550.12 3.2063 1.57897 0
M  V30 17043 S 1551.68 3.71403 2.33677 0
M  V30 17044 H 1548.5 0.653034 0.28119 0
M  V30 17045 H 1551.1 1.9524 0.100825 0
M  V30 17046 H 1549.81 4.00722 0.885982 0
M  V30 17047 H 1549.34 3.14698 2.3607 0
M  V30 17048 H 1551.35 3.42274 3.59253 0
M  V30 17049 N 1550.53 -0.396836 1.52522 0
M  V30 17050 C 1551.76 -1.16235 1.70801 0
M  V30 17051 C 1552.16 -1.8442 0.422591 0
M  V30 17052 O 1551.51 -1.732 -0.612171 0
M  V30 17053 C 1551.57 -2.25922 2.79642 0
M  V30 17054 C 1551.23 -1.7777 4.21007 0
M  V30 17055 C 1552.23 -1.25873 5.04432 0
M  V30 17056 C 1549.92 -1.84231 4.67295 0
M  V30 17057 C 1551.91 -0.810733 6.32223 0
M  V30 17058 C 1549.6 -1.39043 5.95072 0
M  V30 17059 C 1550.59 -0.875508 6.77365 0
M  V30 17060 O 1550.28 -0.430197 8.02748 0
M  V30 17061 H 1550.01 -0.354799 0.575407 0
M  V30 17062 H 1552.57 -0.471344 1.99919 0
M  V30 17063 H 1550.8 -2.98424 2.45927 0
M  V30 17064 H 1552.49 -2.87629 2.86399 0
M  V30 17065 H 1553.25 -1.20244 4.69858 0
M  V30 17066 H 1549.13 -2.23253 4.03335 0
M  V30 17067 H 1552.68 -0.408137 6.96405 0
M  V30 17068 H 1548.57 -1.44354 6.29152 0
M  V30 17069 H 1549.34 -0.552389 8.16634 0
M  V30 17070 N 1552.01 -1.43353 -0.654814 0
M  V30 17071 C 1552.94 -1.44353 -1.7803 0
M  V30 17072 C 1553.95 -0.339872 -1.59213 0
M  V30 17073 O 1555.14 -0.604207 -1.67963 0
M  V30 17074 C 1552.24 -1.23913 -3.15434 0
M  V30 17075 C 1551.41 -2.47088 -3.60924 0
M  V30 17076 C 1550.47 -2.21896 -4.77126 0
M  V30 17077 O 1549.5 -2.95236 -4.86646 0
M  V30 17078 N 1550.7 -1.23459 -5.6722 0
M  V30 17079 H 1553.46 -2.41372 -1.77651 0
M  V30 17080 H 1551.03 -1.38488 -0.838603 0
M  V30 17081 H 1553.02 -1.04945 -3.90856 0
M  V30 17082 H 1551.59 -0.35346 -3.10595 0
M  V30 17083 H 1550.81 -2.81492 -2.75964 0
M  V30 17084 H 1552.1 -3.29066 -3.88064 0
M  V30 17085 H 1551.49 -0.6284 -5.62199 0
M  V30 17086 H 1550.05 -1.10474 -6.4237 0
M  V30 17087 N 1553.48 0.89303 -1.29857 0
M  V30 17088 C 1554.73 1.63881 -1.17583 0
M  V30 17089 C 1555.05 1.93723 0.270293 0
M  V30 17090 O 1556.25 2.66582 0.514432 0
M  V30 17091 C 1554.71 2.95327 -2.05694 0
M  V30 17092 C 1554.32 2.73055 -3.55169 0
M  V30 17093 C 1556.06 3.7327 -2.02162 0
M  V30 17094 C 1553.97 4.00268 -4.35361 0
M  V30 17095 H 1552.9 0.614815 -0.436485 0
M  V30 17096 H 1555.55 0.989339 -1.54546 0
M  V30 17097 H 1553.93 3.61523 -1.61607 0
M  V30 17098 H 1555.1 2.1541 -4.07351 0
M  V30 17099 H 1553.42 2.08498 -3.6044 0
M  V30 17100 H 1556.02 4.67601 -2.59333 0
M  V30 17101 H 1556.36 4.04032 -1.00318 0
M  V30 17102 H 1556.89 3.13925 -2.44328 0
M  V30 17103 H 1553.63 3.74669 -5.37869 0
M  V30 17104 H 1553.15 4.57448 -3.87945 0
M  V30 17105 H 1554.83 4.68358 -4.46374 0
M  V30 17106 N 1554.96 1.12442 1.10429 0
M  V30 17107 C 1556.21 0.881062 1.82661 0
M  V30 17108 C 1556.54 -0.591636 1.84968 0
M  V30 17109 O 1555.82 -1.43734 1.31037 0
M  V30 17110 C 1556.1 1.45658 3.29326 0
M  V30 17111 C 1555.95 2.99766 3.35352 0
M  V30 17112 C 1557.27 1.1162 4.2571 0
M  V30 17113 H 1554.39 0.321516 0.663172 0
M  V30 17114 H 1557.03 1.39102 1.29424 0
M  V30 17115 H 1555.18 1.02286 3.74793 0
M  V30 17116 H 1556.85 3.51818 2.98365 0
M  V30 17117 H 1555.1 3.35292 2.75249 0
M  V30 17118 H 1555.77 3.35128 4.38627 0
M  V30 17119 H 1558.24 1.49081 3.88477 0
M  V30 17120 H 1557.12 1.54552 5.26692 0
M  V30 17121 H 1557.38 0.0284093 4.42091 0
M  V30 17122 N 1556.44 -1.28223 0.91633 0
M  V30 17123 C 1557.39 -2.27215 0.40521 0
M  V30 17124 C 1558.36 -1.57693 -0.521734 0
M  V30 17125 O 1559.54 -1.85577 -0.443369 0
M  V30 17126 C 1556.68 -3.43358 -0.346303 0
M  V30 17127 C 1555.79 -4.27622 0.613443 0
M  V30 17128 C 1554.93 -5.30969 -0.156775 0
M  V30 17129 C 1553.97 -6.06897 0.796418 0
M  V30 17130 N 1553.11 -7.02075 0.0595539 0
M  V30 17131 H 1557.95 -2.70312 1.2544 0
M  V30 17132 H 1555.48 -1.32933 0.629859 0
M  V30 17133 H 1557.44 -4.09492 -0.798231 0
M  V30 17134 H 1556.07 -3.01244 -1.15982 0
M  V30 17135 H 1555.12 -3.61508 1.1839 0
M  V30 17136 H 1556.43 -4.80397 1.34239 0
M  V30 17137 H 1555.59 -6.02999 -0.669146 0
M  V30 17138 H 1554.33 -4.78968 -0.918755 0
M  V30 17139 H 1553.33 -5.33716 1.32014 0
M  V30 17140 H 1554.56 -6.60987 1.558 0
M  V30 17141 H 1552.5 -6.5242 -0.684388 0
M  V30 17142 H 1552.42 -7.52484 0.728275 0
M  V30 17143 H 1553.69 -7.78299 -0.432538 0
M  V30 17144 N 1557.92 -0.68059 -1.42147 0
M  V30 17145 C 1558.87 0.0170117 -2.27994 0
M  V30 17146 C 1559.85 0.767809 -1.41398 0
M  V30 17147 O 1561.04 0.645767 -1.64799 0
M  V30 17148 C 1558.17 0.963439 -3.29504 0
M  V30 17149 C 1557.26 0.20968 -4.23581 0
M  V30 17150 N 1557.65 -0.788543 -4.99615 0
M  V30 17151 C 1555.95 0.447304 -4.43751 0
M  V30 17152 C 1556.65 -1.23842 -5.68364 0
M  V30 17153 N 1555.62 -0.567238 -5.40632 0
M  V30 17154 H 1559.43 -0.748567 -2.84207 0
M  V30 17155 H 1556.94 -0.510145 -1.54179 0
M  V30 17156 H 1558.94 1.47823 -3.89813 0
M  V30 17157 H 1557.6 1.72878 -2.74851 0
M  V30 17158 H 1558.61 -1.16828 -5.04551 0
M  V30 17159 H 1555.29 1.1917 -4.00131 0
M  V30 17160 H 1556.68 -2.06593 -6.39351 0
M  V30 17161 N 1559.4 1.51781 -0.424309 0
M  V30 17162 C 1560.62 2.06871 0.147968 0
M  V30 17163 C 1561.05 1.29093 1.36808 0
M  V30 17164 O 1560.4 0.325279 1.78358 0
M  V30 17165 C 1560.45 3.57631 0.461757 0
M  V30 17166 O 1559.56 3.82149 1.55035 0
M  V30 17167 H 1558.9 0.663957 0.00757275 0
M  V30 17168 H 1561.43 1.95547 -0.601888 0
M  V30 17169 H 1561.44 4.01668 0.716005 0
M  V30 17170 H 1560.11 4.1367 -0.430081 0
M  V30 17171 H 1558.69 3.49984 1.28709 0
M  V30 17172 N 1560.87 0.155222 1.56834 0
M  V30 17173 C 1562.12 -0.488126 1.97456 0
M  V30 17174 C 1562.47 -1.61935 1.03898 0
M  V30 17175 O 1561.77 -1.91451 0.0755621 0
M  V30 17176 C 1561.96 -1.03346 3.42132 0
M  V30 17177 C 1561.79 0.0434014 4.49679 0
M  V30 17178 C 1560.56 0.487619 5.02942 0
M  V30 17179 C 1562.76 0.837907 5.07428 0
M  V30 17180 N 1560.74 1.54646 5.94102 0
M  V30 17181 C 1562.11 1.74705 5.94877 0
M  V30 17182 C 1564.17 0.884781 4.89976 0
M  V30 17183 C 1562.87 2.69907 6.6674 0
M  V30 17184 C 1564.9 1.82467 5.62548 0
M  V30 17185 C 1564.26 2.72132 6.4971 0
M  V30 17186 H 1560.36 -0.147187 0.768023 0
M  V30 17187 H 1562.94 0.251725 1.93066 0
M  V30 17188 H 1561.11 -1.74288 3.471 0
M  V30 17189 H 1562.84 -1.6441 3.69799 0
M  V30 17190 H 1559.6 0.0883276 4.73518 0
M  V30 17191 H 1560.02 2.07589 6.44388 0
M  V30 17192 H 1564.66 0.205617 4.223 0
M  V30 17193 H 1562.38 3.3882 7.33639 0
M  V30 17194 H 1565.97 1.86684 5.51036 0
M  V30 17195 H 1564.85 3.43676 7.0488 0
M  V30 17196 N 1562.35 -1.57153 -0.118549 0
M  V30 17197 C 1563.6 -1.84876 -0.826255 0
M  V30 17198 C 1563.93 -0.740373 -1.79858 0
M  V30 17199 O 1563.18 0.268233 -1.93853 0
M  V30 17200 C 1563.48 -3.19084 -1.60998 0
M  V30 17201 C 1563.15 -4.44069 -0.781911 0
M  V30 17202 C 1561.81 -4.78005 -0.553559 0
M  V30 17203 C 1564.16 -5.20798 -0.204739 0
M  V30 17204 C 1561.49 -5.86114 0.262212 0
M  V30 17205 C 1563.84 -6.29765 0.598225 0
M  V30 17206 C 1562.5 -6.62233 0.83689 0
M  V30 17207 H 1561.77 -0.676511 -0.302348 0
M  V30 17208 H 1564.42 -1.91295 -0.0886182 0
M  V30 17209 H 1562.73 -3.08243 -2.41854 0
M  V30 17210 H 1564.42 -3.37755 -2.16153 0
M  V30 17211 H 1561.01 -4.1748 -0.969984 0
M  V30 17212 H 1565.2 -4.94931 -0.368374 0
M  V30 17213 H 1560.45 -6.09695 0.456338 0
M  V30 17214 H 1564.63 -6.88401 1.05244 0
M  V30 17215 H 1562.25 -7.45835 1.47083 0
M  V30 17216 N 1563.83 0.388742 -1.5273 0
M  V30 17217 C 1564.74 1.49916 -1.8045 0
M  V30 17218 C 1565.76 1.59679 -0.691282 0
M  V30 17219 O 1566.93 1.7601 -0.978898 0
M  V30 17220 C 1564 2.85445 -1.96779 0
M  V30 17221 C 1563.06 2.85402 -3.20693 0
M  V30 17222 C 1562.29 4.14466 -3.36234 0
M  V30 17223 O 1562.51 5.09436 -2.56576 0
M  V30 17224 O 1561.45 4.2169 -4.29489 0
M  V30 17225 H 1565.27 1.29423 -2.74743 0
M  V30 17226 H 1562.86 0.576607 -1.37825 0
M  V30 17227 H 1564.74 3.65791 -2.09224 0
M  V30 17228 H 1563.42 3.05964 -1.05676 0
M  V30 17229 H 1562.32 2.03836 -3.1369 0
M  V30 17230 H 1563.66 2.69835 -4.11643 0
M  V30 17231 N 1565.31 1.43698 0.647203 0
M  V30 17232 C 1566.53 1.49301 1.43958 0
M  V30 17233 C 1566.96 0.11395 1.87755 0
M  V30 17234 O 1566.32 -0.893571 1.5775 0
M  V30 17235 C 1566.36 2.44905 2.64677 0
M  V30 17236 O 1565.47 1.93947 3.63948 0
M  V30 17237 H 1564.81 0.504771 0.431396 0
M  V30 17238 H 1567.34 1.88673 0.791432 0
M  V30 17239 H 1567.35 2.62409 3.12419 0
M  V30 17240 H 1566.02 3.45083 2.32143 0
M  V30 17241 H 1564.6 1.86133 3.23124 0
M  V30 17242 N 1566.79 -0.886131 1.30328 0
M  V30 17243 C 1568.03 -1.63784 1.19085 0
M  V30 17244 C 1568.36 -1.92825 -0.254697 0
M  V30 17245 O 1567.62 -1.54682 -1.19883 0
M  V30 17246 C 1567.92 -2.98624 1.96364 0
M  V30 17247 C 1567.58 -2.89139 3.45991 0
M  V30 17248 C 1566.24 -2.86259 3.86794 0
M  V30 17249 C 1568.6 -2.7735 4.41278 0
M  V30 17250 C 1565.92 -2.69428 5.21177 0
M  V30 17251 C 1568.28 -2.62057 5.75768 0
M  V30 17252 C 1566.94 -2.57551 6.15811 0
M  V30 17253 H 1566.21 -0.599327 0.435761 0
M  V30 17254 H 1568.86 -1.03037 1.61418 0
M  V30 17255 H 1567.16 -3.63315 1.46662 0
M  V30 17256 H 1568.86 -3.55746 1.85057 0
M  V30 17257 H 1565.45 -2.92189 3.13566 0
M  V30 17258 H 1569.63 -2.78642 4.10697 0
M  V30 17259 H 1564.89 -2.64353 5.51296 0
M  V30 17260 H 1569.06 -2.51909 6.49242 0
M  V30 17261 H 1566.69 -2.44268 7.19887 0
M  V30 17262 N 1568.26 -1.13026 -1.09832 0
M  V30 17263 C 1569.51 -0.884093 -1.81292 0
M  V30 17264 C 1569.83 0.591608 -1.86439 0
M  V30 17265 O 1571.03 0.954571 -2.54166 0
M  V30 17266 C 1569.49 -1.53207 -3.25662 0
M  V30 17267 C 1569.1 -3.043 -3.28794 0
M  V30 17268 C 1570.84 -1.36644 -4.01906 0
M  V30 17269 C 1568.75 -3.62003 -4.67662 0
M  V30 17270 H 1567.68 -0.327101 -0.679353 0
M  V30 17271 H 1570.33 -1.35748 -1.2347 0
M  V30 17272 H 1568.71 -0.986353 -3.83519 0
M  V30 17273 H 1569.88 -3.65418 -2.80725 0
M  V30 17274 H 1568.2 -3.20332 -2.66038 0
M  V30 17275 H 1570.8 -1.7717 -5.04495 0
M  V30 17276 H 1571.14 -0.310809 -4.15138 0
M  V30 17277 H 1571.67 -1.88172 -3.5048 0
M  V30 17278 H 1568.41 -4.67354 -4.59631 0
M  V30 17279 H 1567.93 -3.05663 -5.16072 0
M  V30 17280 H 1569.61 -3.61432 -5.36634 0
M  V30 17281 N 1569.74 1.27735 -0.923117 0
M  V30 17282 C 1570.99 1.93857 -0.556994 0
M  V30 17283 C 1571.3 1.73386 0.905346 0
M  V30 17284 O 1572.51 2.3381 1.38005 0
M  V30 17285 C 1570.97 3.47263 -0.94534 0
M  V30 17286 C 1570.57 3.76497 -2.42805 0
M  V30 17287 C 1572.32 4.1949 -0.65025 0
M  V30 17288 C 1570.23 5.23256 -2.75603 0
M  V30 17289 H 1569.16 0.725712 -0.204591 0
M  V30 17290 H 1571.81 1.451 -1.12331 0
M  V30 17291 H 1570.19 3.94803 -0.307721 0
M  V30 17292 H 1571.36 3.39731 -3.11319 0
M  V30 17293 H 1569.68 3.17463 -2.69456 0
M  V30 17294 H 1572.27 5.27544 -0.871851 0
M  V30 17295 H 1572.62 4.14253 0.412352 0
M  V30 17296 H 1573.15 3.77758 -1.24676 0
M  V30 17297 H 1569.89 5.33579 -3.80754 0
M  V30 17298 H 1569.41 5.61185 -2.11735 0
M  V30 17299 H 1571.09 5.91088 -2.63103 0
M  V30 17300 N 1571.22 0.688118 1.41784 0
M  V30 17301 C 1572.47 0.215944 2.01345 0
M  V30 17302 C 1572.8 -1.18197 1.54466 0
M  V30 17303 O 1572.05 -1.81032 0.743374 0
M  V30 17304 C 1572.35 0.213747 3.5676 0
M  V30 17305 C 1572.02 1.55816 4.23122 0
M  V30 17306 C 1570.68 1.92623 4.40964 0
M  V30 17307 C 1573.03 2.44297 4.604 0
M  V30 17308 C 1570.36 3.17511 4.93359 0
M  V30 17309 C 1572.71 3.68511 5.14182 0
M  V30 17310 C 1571.37 4.0547 5.30236 0
M  V30 17311 H 1570.64 0.0790193 0.736775 0
M  V30 17312 H 1573.29 0.885737 1.69785 0
M  V30 17313 H 1571.6 -0.539583 3.88067 0
M  V30 17314 H 1573.29 -0.169004 4.00644 0
M  V30 17315 H 1569.88 1.26186 4.09604 0
M  V30 17316 H 1574.07 2.17143 4.46277 0
M  V30 17317 H 1569.32 3.46151 5.03973 0
M  V30 17318 H 1573.5 4.37264 5.42008 0
M  V30 17319 H 1571.12 5.02316 5.70598 0
M  V30 17320 N 1572.7 -1.51554 0.432352 0
M  V30 17321 C 1573.94 -2.02344 -0.13598 0
M  V30 17322 C 1574.28 -1.31619 -1.42794 0
M  V30 17323 O 1573.55 -0.42957 -1.89697 0
M  V30 17324 C 1573.84 -3.58297 -0.359865 0
M  V30 17325 C 1573.69 -4.39645 0.950399 0
M  V30 17326 C 1575.01 -4.25297 -1.13184 0
M  V30 17327 H 1572.13 -0.735439 -0.0479461 0
M  V30 17328 H 1574.77 -1.81237 0.570373 0
M  V30 17329 H 1572.92 -3.76413 -0.961547 0
M  V30 17330 H 1574.59 -4.3319 1.58568 0
M  V30 17331 H 1572.83 -4.04928 1.55614 0
M  V30 17332 H 1573.5 -5.46911 0.747852 0
M  V30 17333 H 1575.98 -4.11421 -0.622231 0
M  V30 17334 H 1574.86 -5.34307 -1.25726 0
M  V30 17335 H 1575.12 -3.85818 -2.15862 0
M  V30 17336 N 1574.18 -0.163538 -1.56749 0
M  V30 17337 C 1575.43 0.483453 -1.9582 0
M  V30 17338 C 1575.74 1.64913 -1.05181 0
M  V30 17339 O 1576.94 2.36184 -1.33901 0
M  V30 17340 C 1575.4 0.911471 -3.48167 0
M  V30 17341 C 1575.01 -0.228178 -4.47419 0
M  V30 17342 C 1576.75 1.52732 -3.96072 0
M  V30 17343 C 1574.66 0.219036 -5.90994 0
M  V30 17344 H 1573.59 0.184383 -0.731108 0
M  V30 17345 H 1576.24 -0.250527 -1.81782 0
M  V30 17346 H 1574.62 1.7012 -3.57596 0
M  V30 17347 H 1575.8 -1.0054 -4.49698 0
M  V30 17348 H 1574.11 -0.753485 -4.09526 0
M  V30 17349 H 1576.71 1.87383 -5.00791 0
M  V30 17350 H 1577.05 2.42239 -3.38565 0
M  V30 17351 H 1577.58 0.802176 -3.89628 0
M  V30 17352 H 1574.32 -0.641066 -6.52358 0
M  V30 17353 H 1573.84 0.96178 -5.92039 0
M  V30 17354 H 1575.52 0.665524 -6.43568 0
M  V30 17355 N 1575.65 1.57214 0.110213 0
M  V30 17356 C 1576.58 2.04015 1.13579 0
M  V30 17357 C 1577.57 0.926215 1.42672 0
M  V30 17358 O 1578.75 1.19651 1.52962 0
M  V30 17359 C 1575.88 2.45187 2.45969 0
M  V30 17360 C 1574.83 3.60105 2.31319 0
M  V30 17361 C 1574.16 3.87205 3.68749 0
M  V30 17362 C 1575.46 4.91526 1.76635 0
M  V30 17363 H 1577.15 2.89944 0.746496 0
M  V30 17364 H 1574.7 1.39488 0.357642 0
M  V30 17365 H 1576.65 2.76534 3.17973 0
M  V30 17366 H 1575.38 1.56238 2.86805 0
M  V30 17367 H 1574.04 3.28981 1.61762 0
M  V30 17368 H 1573.68 2.95448 4.07087 0
M  V30 17369 H 1573.38 4.64563 3.59798 0
M  V30 17370 H 1574.91 4.21013 4.42245 0
M  V30 17371 H 1576.32 5.21351 2.38465 0
M  V30 17372 H 1574.72 5.72944 1.78482 0
M  V30 17373 H 1575.79 4.79456 0.724573 0
M  V30 17374 N 1577.13 -0.380637 1.52934 0
M  V30 17375 C 1578.06 -1.47174 1.81279 0
M  V30 17376 C 1579.04 -1.56549 0.665319 0
M  V30 17377 O 1580.23 -1.71362 0.913722 0
M  V30 17378 C 1577.36 -2.84691 1.98918 0
M  V30 17379 C 1576.31 -2.90151 3.14637 0
M  V30 17380 C 1575.64 -4.30198 3.17544 0
M  V30 17381 C 1576.94 -2.59037 4.53539 0
M  V30 17382 H 1578.63 -1.23703 2.7265 0
M  V30 17383 H 1576.18 -0.593654 1.31194 0
M  V30 17384 H 1578.13 -3.61034 2.1733 0
M  V30 17385 H 1576.86 -3.09517 1.04244 0
M  V30 17386 H 1575.51 -2.16257 2.96021 0
M  V30 17387 H 1575.16 -4.52076 2.20536 0
M  V30 17388 H 1574.86 -4.3477 3.95284 0
M  V30 17389 H 1576.39 -5.08435 3.38121 0
M  V30 17390 H 1577.8 -3.25096 4.72214 0
M  V30 17391 H 1576.2 -2.74946 5.33408 0
M  V30 17392 H 1577.27 -1.54342 4.59681 0
M  V30 17393 N 1578.61 -1.44039 -0.639573 0
M  V30 17394 C 1579.84 -1.50063 -1.43164 0
M  V30 17395 C 1580.26 -0.123906 -1.87691 0
M  V30 17396 O 1579.62 0.885192 -1.58221 0
M  V30 17397 C 1579.67 -2.46305 -2.63375 0
M  V30 17398 O 1578.77 -1.95874 -3.62915 0
M  V30 17399 H 1578.11 -0.507052 -0.428713 0
M  V30 17400 H 1580.64 -1.8909 -0.781415 0
M  V30 17401 H 1580.65 -2.64062 -3.11023 0
M  V30 17402 H 1579.33 -3.46309 -2.3031 0
M  V30 17403 H 1577.9 -1.87844 -3.22132 0
M  V30 17404 N 1580.09 0.879207 -1.30796 0
M  V30 17405 C 1581.31 1.66975 -1.23021 0
M  V30 17406 C 1581.74 1.87004 0.202798 0
M  V30 17407 O 1581.1 1.40514 1.14566 0
M  V30 17408 C 1581.14 3.02028 -1.97007 0
M  V30 17409 O 1580.25 3.91338 -1.30109 0
M  V30 17410 H 1579.59 0.509998 -0.425204 0
M  V30 17411 H 1582.12 1.09688 -1.72713 0
M  V30 17412 H 1582.13 3.5203 -2.06249 0
M  V30 17413 H 1580.8 2.8677 -3.01224 0
M  V30 17414 H 1579.38 3.49781 -1.29258 0
M  V30 17415 N 1581.57 1.13606 1.09231 0
M  V30 17416 C 1582.82 0.897278 1.81089 0
M  V30 17417 C 1583.14 -0.578066 1.86235 0
M  V30 17418 O 1582.41 -1.42018 1.34935 0
M  V30 17419 H 1580.99 0.328971 0.670662 0
M  V30 17420 H 1583.65 1.433 1.32103 0
M  V30 17421 H 1582.74 1.28979 2.84202 0
M  V30 17422 N 1583.05 -1.27244 0.929878 0
M  V30 17423 C 1584.01 -2.25028 0.435315 0
M  V30 17424 C 1585.01 -1.54453 -0.447332 0
M  V30 17425 O 1586.2 -1.72424 -0.248105 0
M  V30 17426 C 1583.33 -3.38843 -0.373933 0
M  V30 17427 H 1584.52 -2.70293 1.2993 0
M  V30 17428 H 1582.08 -1.39204 0.710771 0
M  V30 17429 H 1582.81 -2.98963 -1.25664 0
M  V30 17430 H 1582.6 -3.91244 0.258946 0
M  V30 17431 H 1584.09 -4.11516 -0.710255 0
M  V30 17432 N 1584.52 -0.695628 -1.41417 0
M  V30 17433 C 1585.45 -0.0447013 -2.33457 0
M  V30 17434 C 1586.43 0.767104 -1.51821 0
M  V30 17435 O 1587.62 0.720066 -1.80357 0
M  V30 17436 C 1584.75 0.892353 -3.3564 0
M  V30 17437 C 1583.7 0.187638 -4.27588 0
M  V30 17438 C 1583.03 1.23906 -5.20146 0
M  V30 17439 C 1584.33 -0.946093 -5.1366 0
M  V30 17440 H 1586.02 -0.81343 -2.88138 0
M  V30 17441 H 1583.57 -0.392614 -1.38544 0
M  V30 17442 H 1585.52 1.35696 -3.98954 0
M  V30 17443 H 1584.25 1.69275 -2.79309 0
M  V30 17444 H 1582.91 -0.256942 -3.65698 0
M  V30 17445 H 1582.55 2.03198 -4.6013 0
M  V30 17446 H 1582.25 0.772536 -5.82499 0
M  V30 17447 H 1583.78 1.70417 -5.86336 0
M  V30 17448 H 1585.19 -0.561764 -5.70541 0
M  V30 17449 H 1583.59 -1.33971 -5.84954 0
M  V30 17450 H 1584.66 -1.78573 -4.50821 0
M  V30 17451 N 1586 1.51322 -0.440383 0
M  V30 17452 C 1587.25 2.01302 0.126581 0
M  V30 17453 C 1587.56 1.32898 1.43518 0
M  V30 17454 O 1588.77 1.73864 2.08527 0
M  V30 17455 C 1587.23 3.58839 0.276126 0
M  V30 17456 C 1586.83 4.36182 -1.02222 0
M  V30 17457 C 1588.58 4.16957 0.796697 0
M  V30 17458 C 1586.48 5.85431 -0.838148 0
M  V30 17459 H 1585.41 0.752268 0.0510809 0
M  V30 17460 H 1588.07 1.74403 -0.570609 0
M  V30 17461 H 1586.45 3.82198 1.03639 0
M  V30 17462 H 1587.62 4.24568 -1.79105 0
M  V30 17463 H 1585.94 3.89531 -1.47155 0
M  V30 17464 H 1588.53 5.26176 0.95095 0
M  V30 17465 H 1588.88 3.76329 1.77996 0
M  V30 17466 H 1589.41 3.97687 0.0946613 0
M  V30 17467 H 1586.15 6.30476 -1.79387 0
M  V30 17468 H 1585.67 5.99701 -0.109167 0
M  V30 17469 H 1587.35 6.45122 -0.492547 0
M  V30 17470 N 1587.48 0.171848 1.5666 0
M  V30 17471 C 1588.73 -0.472968 1.96899 0
M  V30 17472 C 1589.05 -1.63217 1.05785 0
M  V30 17473 O 1588.31 -1.95483 0.0920511 0
M  V30 17474 C 1588.61 -0.99711 3.43209 0
M  V30 17475 C 1588.27 0.0462519 4.50876 0
M  V30 17476 C 1586.94 0.333002 4.80046 0
M  V30 17477 C 1589.29 0.754424 5.15711 0
M  V30 17478 C 1586.62 1.3333 5.71349 0
M  V30 17479 C 1588.97 1.74371 6.08093 0
M  V30 17480 C 1587.63 2.03791 6.3563 0
M  V30 17481 H 1586.9 -0.173071 0.720505 0
M  V30 17482 H 1589.55 0.263921 1.89673 0
M  V30 17483 H 1587.85 -1.81183 3.4739 0
M  V30 17484 H 1589.55 -1.50503 3.71685 0
M  V30 17485 H 1586.14 -0.187419 4.2819 0
M  V30 17486 H 1590.33 0.546102 4.93286 0
M  V30 17487 H 1585.58 1.56741 5.90967 0
M  V30 17488 H 1589.76 2.29782 6.57399 0
M  V30 17489 H 1587.38 2.8145 7.0618 0
M  V30 17490 N 1588.96 -1.5727 -0.101874 0
M  V30 17491 C 1589.87 -2.04896 -1.14257 0
M  V30 17492 C 1590.88 -0.972561 -1.44282 0
M  V30 17493 O 1592.06 -1.28526 -1.55058 0
M  V30 17494 C 1589.12 -2.45818 -2.44488 0
M  V30 17495 C 1588.19 -3.6762 -2.21707 0
M  V30 17496 C 1587.42 -4.06581 -3.45728 0
M  V30 17497 O 1587.64 -3.45702 -4.53703 0
M  V30 17498 O 1586.58 -4.99578 -3.35716 0
M  V30 17499 H 1590.4 -2.93827 -0.768085 0
M  V30 17500 H 1587.99 -1.46065 -0.313902 0
M  V30 17501 H 1589.87 -2.72796 -3.21186 0
M  V30 17502 H 1588.54 -1.60028 -2.81377 0
M  V30 17503 H 1587.45 -3.45768 -1.42812 0
M  V30 17504 H 1588.78 -4.54169 -1.89714 0
M  V30 17505 N 1590.44 0.372521 -1.53134 0
M  V30 17506 C 1591.71 1.13113 -1.59577 0
M  V30 17507 C 1592.09 2.07294 -0.399027 0
M  V30 17508 O 1591.44 2.20171 0.611316 0
M  V30 17509 C 1591.65 1.87635 -2.94269 0
M  V30 17510 C 1593 2.42414 -3.48598 0
M  V30 17511 O 1594.02 1.9777 -2.96252 0
M  V30 17512 O 1592.88 3.24008 -4.40092 0
M  V30 17513 H 1589.98 0.518486 -0.644284 0
M  V30 17514 H 1592.52 0.376344 -1.65474 0
M  V30 17515 H 1591.29 1.18859 -3.72811 0
M  V30 17516 H 1590.92 2.70037 -2.91831 0
M  V30 17517 N 1591.91 1.44376 0.631925 0
M  V30 17518 C 1593.16 1.47335 1.39356 0
M  V30 17519 C 1593.49 0.10525 1.93915 0
M  V30 17520 O 1592.77 -0.877006 1.73605 0
M  V30 17521 C 1593.05 2.53308 2.55943 0
M  V30 17522 C 1592.9 3.99473 2.06739 0
M  V30 17523 C 1594.22 2.55794 3.58131 0
M  V30 17524 H 1591.34 0.536447 0.505365 0
M  V30 17525 H 1593.98 1.76051 0.714572 0
M  V30 17526 H 1592.13 2.28953 3.13868 0
M  V30 17527 H 1593.81 4.34958 1.53652 0
M  V30 17528 H 1592.05 4.11288 1.37929 0
M  V30 17529 H 1592.72 4.69269 2.90672 0
M  V30 17530 H 1595.2 2.77554 3.10005 0
M  V30 17531 H 1594.07 3.31847 4.37228 0
M  V30 17532 H 1594.33 1.59962 4.12146 0
M  V30 17533 N 1593.39 -0.872258 1.31261 0
M  V30 17534 C 1594.34 -1.96688 1.15317 0
M  V30 17535 C 1595.33 -1.60769 0.0647922 0
M  V30 17536 O 1596.52 -1.74617 0.289469 0
M  V30 17537 C 1593.65 -3.32347 0.860242 0
M  V30 17538 C 1592.73 -3.7454 1.98948 0
M  V30 17539 N 1593.12 -3.88715 3.23627 0
M  V30 17540 C 1591.42 -4.04035 1.88871 0
M  V30 17541 C 1592.12 -4.24718 3.97478 0
M  V30 17542 N 1591.1 -4.35278 3.25629 0
M  V30 17543 H 1594.9 -2.05755 2.09862 0
M  V30 17544 H 1592.41 -1.0629 1.22785 0
M  V30 17545 H 1594.41 -4.10512 0.727004 0
M  V30 17546 H 1593.07 -3.24609 -0.0770132 0
M  V30 17547 H 1594.08 -3.73504 3.58769 0
M  V30 17548 H 1590.76 -4.04698 1.02595 0
M  V30 17549 H 1592.15 -4.43302 5.04909 0
M  V30 17550 N 1594.87 -1.14184 -1.08627 0
M  V30 17551 C 1595.8 -0.849455 -2.17501 0
M  V30 17552 C 1596.78 0.194617 -1.68983 0
M  V30 17553 O 1597.97 0.0517757 -1.94131 0
M  V30 17554 C 1595.1 -0.323685 -3.45788 0
M  V30 17555 C 1594.05 -1.30294 -4.07685 0
M  V30 17556 C 1593.38 -0.636575 -5.30897 0
M  V30 17557 C 1594.68 -2.66441 -4.49229 0
M  V30 17558 H 1596.37 -1.75987 -2.42217 0
M  V30 17559 H 1593.92 -0.847595 -1.16412 0
M  V30 17560 H 1595.87 -0.106754 -4.21265 0
M  V30 17561 H 1594.59 0.62215 -3.20619 0
M  V30 17562 H 1593.25 -1.50601 -3.34238 0
M  V30 17563 H 1592.9 0.314995 -5.02013 0
M  V30 17564 H 1592.6 -1.28998 -5.73266 0
M  V30 17565 H 1594.12 -0.429117 -6.0909 0
M  V30 17566 H 1595.54 -2.50055 -5.15893 0
M  V30 17567 H 1593.93 -3.28033 -5.02508 0
M  V30 17568 H 1595 -3.23486 -3.61226 0
M  V30 17569 N 1596.35 1.26749 -0.936613 0
M  V30 17570 C 1597.26 2.30272 -0.448573 0
M  V30 17571 C 1598.27 1.67386 0.475184 0
M  V30 17572 O 1599.45 1.98232 0.355825 0
M  V30 17573 C 1596.52 3.45546 0.28262 0
M  V30 17574 C 1595.58 4.23926 -0.677138 0
M  V30 17575 C 1594.81 5.33697 0.019255 0
M  V30 17576 O 1595.03 5.56825 1.23703 0
M  V30 17577 O 1593.97 5.98302 -0.657119 0
M  V30 17578 H 1597.79 2.74072 -1.30838 0
M  V30 17579 H 1595.38 1.31863 -0.702314 0
M  V30 17580 H 1597.26 4.15635 0.694686 0
M  V30 17581 H 1595.93 3.03784 1.11789 0
M  V30 17582 H 1594.84 3.56337 -1.13906 0
M  V30 17583 H 1596.17 4.69425 -1.47988 0
M  V30 17584 N 1597.83 0.703118 1.41046 0
M  V30 17585 C 1598.77 0.0312802 2.32579 0
M  V30 17586 C 1599.77 -0.760463 1.51371 0
M  V30 17587 O 1600.97 -0.665235 1.67256 0
M  V30 17588 H 1597.35 -0.00868655 0.75195 0
M  V30 17589 H 1599.32 0.820195 2.86907 0
M  V30 17590 C 1598.07 -0.885639 3.36232 0
M  V30 17591 H 1597.39 -0.285819 3.98777 0
M  V30 17592 H 1598.83 -1.3239 4.02801 0
M  V30 17593 C 1597.29 -2.00533 2.70718 0
M  V30 17594 O 1597.82 -3.09491 2.56082 0
M  V30 17595 N 1596.03 -1.78528 2.29295 0
M  V30 17596 H 1595.57 -0.899139 2.41399 0
M  V30 17597 H 1595.53 -2.53627 1.85797 0
M  V30 17598 N 1599.3 -1.51086 0.448402 0
M  V30 17599 C 1600.24 -2.25799 -0.393401 0
M  V30 17600 C 1601.25 -1.30241 -0.976792 0
M  V30 17601 O 1602.44 -1.55916 -0.869051 0
M  V30 17602 C 1599.54 -3.00682 -1.56345 0
M  V30 17603 C 1598.71 -4.23421 -1.09695 0
M  V30 17604 C 1597.77 -4.8079 -2.1384 0
M  V30 17605 O 1596.8 -5.42329 -1.72823 0
M  V30 17606 N 1598 -4.65792 -3.46437 0
M  V30 17607 H 1600.76 -2.98681 0.246986 0
M  V30 17608 H 1598.32 -1.59497 0.277902 0
M  V30 17609 H 1600.32 -3.35945 -2.25662 0
M  V30 17610 H 1598.89 -2.30741 -2.10897 0
M  V30 17611 H 1598.11 -3.93526 -0.230457 0
M  V30 17612 H 1599.39 -5.03049 -0.762832 0
M  V30 17613 H 1598.79 -4.16799 -3.82486 0
M  V30 17614 H 1597.35 -5.05386 -4.11616 0
M  V30 17615 N 1600.78 -0.180154 -1.56567 0
M  V30 17616 C 1602.19 0.335054 -1.83669 0
M  V30 17617 C 1602.54 1.62443 -1.1003 0
M  V30 17618 O 1601.67 2.13448 -0.356205 0
M  V30 17619 C 1602.26 0.61468 -3.33177 0
M  V30 17620 C 1600.82 1.0743 -3.60743 0
M  V30 17621 C 1599.97 0.114877 -2.77062 0
M  V30 17622 H 1602.92 -0.404245 -1.53465 0
M  V30 17623 H 1602.94 1.46574 -3.51136 0
M  V30 17624 H 1602.45 -0.323923 -3.86746 0
M  V30 17625 H 1600.56 2.0277 -3.12594 0
M  V30 17626 H 1600.67 0.977349 -4.69025 0
M  V30 17627 H 1599.03 0.613933 -2.4719 0
M  V30 17628 H 1599.82 -0.817904 -3.33414 0
M  V30 17629 N 1602.26 1.57322 0.0935319 0
M  V30 17630 C 1603.21 2.02171 1.11336 0
M  V30 17631 C 1604.18 0.898305 1.39713 0
M  V30 17632 O 1605.36 1.16441 1.51149 0
M  V30 17633 C 1602.5 2.45243 2.42796 0
M  V30 17634 C 1601.62 3.7111 2.21136 0
M  V30 17635 C 1600.75 4.03056 3.46005 0
M  V30 17636 C 1599.79 5.22028 3.19615 0
M  V30 17637 N 1598.93 5.49718 4.36755 0
M  V30 17638 H 1603.77 2.89073 0.723924 0
M  V30 17639 H 1601.3 1.42975 0.345919 0
M  V30 17640 H 1603.26 2.68261 3.19518 0
M  V30 17641 H 1601.89 1.61348 2.79583 0
M  V30 17642 H 1600.94 3.5556 1.35209 0
M  V30 17643 H 1602.26 4.57979 1.97628 0
M  V30 17644 H 1601.41 4.26858 4.31135 0
M  V30 17645 H 1600.15 3.14712 3.72569 0
M  V30 17646 H 1599.15 4.98044 2.32879 0
M  V30 17647 H 1600.38 6.11971 2.94396 0
M  V30 17648 H 1598.32 4.64333 4.63391 0
M  V30 17649 H 1598.24 6.30961 4.16443 0
M  V30 17650 H 1599.51 5.78057 5.22944 0
M  V30 17651 N 1603.74 -0.364395 1.53329 0
M  V30 17652 C 1604.99 -1.10423 1.68789 0
M  V30 17653 C 1605.3 -1.90428 0.446819 0
M  V30 17654 O 1606.51 -2.67188 0.481978 0
M  V30 17655 C 1604.96 -2.01228 2.98388 0
M  V30 17656 C 1604.57 -1.26529 4.29761 0
M  V30 17657 C 1606.31 -2.75196 3.23214 0
M  V30 17658 C 1604.22 -2.16243 5.50448 0
M  V30 17659 H 1603.15 -0.415935 0.628899 0
M  V30 17660 H 1605.8 -0.365145 1.7983 0
M  V30 17661 H 1604.18 -2.78872 2.81152 0
M  V30 17662 H 1605.36 -0.5394 4.57632 0
M  V30 17663 H 1603.67 -0.644181 4.11387 0
M  V30 17664 H 1606.27 -3.42548 4.10567 0
M  V30 17665 H 1606.61 -3.40629 2.39327 0
M  V30 17666 H 1607.15 -2.04635 3.4113 0
M  V30 17667 H 1603.89 -1.55385 6.36817 0
M  V30 17668 H 1603.41 -2.86678 5.26855 0
M  V30 17669 H 1605.08 -2.75774 5.85284 0
M  V30 17670 N 1605.22 -1.44709 -0.62426 0
M  V30 17671 C 1606.15 -1.48097 -1.74928 0
M  V30 17672 C 1607.16 -0.373567 -1.58456 0
M  V30 17673 O 1608.35 -0.639699 -1.66644 0
M  V30 17674 C 1605.45 -1.30576 -3.12735 0
M  V30 17675 C 1604.62 -2.54688 -3.55602 0
M  V30 17676 C 1603.68 -2.31966 -4.72311 0
M  V30 17677 O 1602.71 -3.05492 -4.80274 0
M  V30 17678 N 1603.91 -1.35463 -5.64473 0
M  V30 17679 H 1606.68 -2.45086 -1.72491 0
M  V30 17680 H 1604.24 -1.40236 -0.809039 0
M  V30 17681 H 1606.23 -1.13212 -3.88542 0
M  V30 17682 H 1604.8 -0.419262 -3.09776 0
M  V30 17683 H 1604.02 -2.87282 -2.69931 0
M  V30 17684 H 1605.31 -3.37223 -3.80996 0
M  V30 17685 H 1604.7 -0.747509 -5.60739 0
M  V30 17686 H 1603.26 -1.24075 -6.39882 0
M  V30 17687 N 1606.69 0.865285 -1.31722 0
M  V30 17688 C 1607.6 2.00542 -1.21738 0
M  V30 17689 C 1608.62 1.7349 -0.133124 0
M  V30 17690 O 1609.8 1.98303 -0.351809 0
M  V30 17691 C 1606.86 3.33993 -0.930045 0
M  V30 17692 C 1605.92 3.74337 -2.10167 0
M  V30 17693 C 1605.16 5.0142 -1.82795 0
M  V30 17694 O 1605.38 5.65242 -0.765345 0
M  V30 17695 O 1604.31 5.38642 -2.68604 0
M  V30 17696 H 1608.14 2.11898 -2.17561 0
M  V30 17697 H 1605.72 0.994313 -1.11507 0
M  V30 17698 H 1607.61 4.14008 -0.785846 0
M  V30 17699 H 1606.28 3.237 -0.00188642 0
M  V30 17700 H 1605.19 2.94943 -2.3013 0
M  V30 17701 H 1606.52 3.89261 -3.01225 0
M  V30 17702 N 1608.17 1.14759 1.0802 0
M  V30 17703 C 1609.1 0.860977 2.17047 0
M  V30 17704 C 1610.08 -0.185652 1.69084 0
M  V30 17705 O 1611.27 -0.0414797 1.94156 0
M  V30 17706 C 1608.4 0.342018 3.45612 0
M  V30 17707 C 1607.35 1.32455 4.06989 0
M  V30 17708 C 1606.68 0.664721 5.30552 0
M  V30 17709 C 1607.98 2.68819 4.4781 0
M  V30 17710 H 1609.67 1.77269 2.4128 0
M  V30 17711 H 1607.22 0.853757 1.15961 0
M  V30 17712 H 1609.17 0.129093 4.21202 0
M  V30 17713 H 1607.9 -0.605138 3.20945 0
M  V30 17714 H 1606.55 1.52371 3.33435 0
M  V30 17715 H 1606.2 -0.288367 5.02173 0
M  V30 17716 H 1605.9 1.32036 5.72573 0
M  V30 17717 H 1607.43 0.461412 6.08854 0
M  V30 17718 H 1608.84 2.52787 5.14559 0
M  V30 17719 H 1607.24 3.30694 5.00761 0
M  V30 17720 H 1608.31 3.25398 3.59506 0
M  V30 17721 N 1609.65 -1.26251 0.943322 0
M  V30 17722 C 1610.58 -2.28673 0.472347 0
M  V30 17723 C 1611.56 -1.63319 -0.475481 0
M  V30 17724 O 1612.75 -1.90508 -0.376875 0
M  V30 17725 C 1609.88 -3.46316 -0.261286 0
M  V30 17726 C 1608.83 -4.23771 0.600192 0
M  V30 17727 C 1608.16 -5.3405 -0.263525 0
M  V30 17728 C 1609.46 -4.87576 1.87262 0
M  V30 17729 H 1611.15 -2.68319 1.32836 0
M  V30 17730 H 1608.7 -1.28987 0.640182 0
M  V30 17731 H 1610.65 -4.1708 -0.601821 0
M  V30 17732 H 1609.37 -3.05629 -1.15146 0
M  V30 17733 H 1608.03 -3.54774 0.923651 0
M  V30 17734 H 1607.68 -4.89604 -1.15312 0
M  V30 17735 H 1607.38 -5.86784 0.309495 0
M  V30 17736 H 1608.9 -6.07652 -0.599281 0
M  V30 17737 H 1610.32 -5.50544 1.59919 0
M  V30 17738 H 1608.72 -5.50437 2.39038 0
M  V30 17739 H 1609.79 -4.10397 2.58268 0
M  V30 17740 N 1611.13 -0.710588 -1.40671 0
M  V30 17741 C 1612.08 -0.043614 -2.32559 0
M  V30 17742 C 1613.07 0.752425 -1.51773 0
M  V30 17743 O 1614.28 0.656356 -1.67607 0
M  V30 17744 H 1610.65 0.00469865 -0.751985 0
M  V30 17745 H 1612.62 -0.835399 -2.86468 0
M  V30 17746 C 1611.37 0.867796 -3.36697 0
M  V30 17747 H 1610.7 0.264667 -3.98923 0
M  V30 17748 H 1612.14 1.30252 -4.03498 0
M  V30 17749 C 1610.59 1.99094 -2.71778 0
M  V30 17750 O 1611.12 3.08129 -2.5772 0
M  V30 17751 N 1609.33 1.77309 -2.30239 0
M  V30 17752 H 1608.88 0.886325 -2.41872 0
M  V30 17753 H 1608.84 2.52639 -1.87139 0
M  V30 17754 N 1612.61 1.50847 -0.456408 0
M  V30 17755 C 1613.85 2.04143 0.102549 0
M  V30 17756 C 1614.21 1.33189 1.38292 0
M  V30 17757 O 1615.41 1.7696 2.02333 0
M  V30 17758 C 1613.68 3.56164 0.296985 0
M  V30 17759 S 1615.24 4.31134 0.816609 0
M  V30 17760 H 1612.06 0.710632 0.0228845 0
M  V30 17761 H 1614.66 1.85402 -0.620186 0
M  V30 17762 H 1613.37 4.05365 -0.640906 0
M  V30 17763 H 1612.9 3.79232 1.04626 0
M  V30 17764 H 1614.91 4.49949 2.0919 0
M  V30 17765 N 1614.09 0.188454 1.56469 0
M  V30 17766 C 1615.31 -0.457846 2.01771 0
M  V30 17767 C 1615.73 -1.55646 1.06863 0
M  V30 17768 O 1615.09 -1.82356 0.0723619 0
M  V30 17769 C 1615.14 -1.02032 3.46802 0
M  V30 17770 O 1614.86 0.0344536 4.38086 0
M  V30 17771 C 1616.36 -1.74316 4.07589 0
M  V30 17772 H 1613.58 -0.115594 0.660968 0
M  V30 17773 H 1616.12 0.295213 2.02358 0
M  V30 17774 H 1614.28 -1.7238 3.46935 0
M  V30 17775 H 1614.69 -0.383254 5.23098 0
M  V30 17776 H 1616.17 -2.08912 5.1094 0
M  V30 17777 H 1616.64 -2.64445 3.50665 0
M  V30 17778 H 1617.25 -1.0857 4.11209 0
M  V30 17779 N 1615.56 -1.5737 -0.0851874 0
M  V30 17780 C 1616.84 -1.77624 -0.819094 0
M  V30 17781 C 1617.22 -0.772645 -1.96452 0
M  V30 17782 O 1616.57 0.196912 -2.2765 0
M  V30 17783 C 1616.78 -3.23704 -1.30449 0
M  V30 17784 C 1618.13 -3.87163 -1.74328 0
M  V30 17785 O 1619.15 -3.27513 -1.40048 0
M  V30 17786 O 1618.01 -4.92075 -2.37748 0
M  V30 17787 H 1615.1 -0.728487 -0.391453 0
M  V30 17788 H 1617.65 -1.6957 -0.0663006 0
M  V30 17789 H 1616.42 -3.88292 -0.484277 0
M  V30 17790 H 1616.04 -3.36429 -2.119 0
M  V30 17791 N 1617.04 0.356258 -1.53521 0
M  V30 17792 C 1618.29 1.09526 -1.69372 0
M  V30 17793 C 1618.6 1.90189 -0.456912 0
M  V30 17794 O 1619.81 2.66928 -0.496141 0
M  V30 17795 C 1618.27 1.99643 -2.99451 0
M  V30 17796 C 1617.87 1.24248 -4.30426 0
M  V30 17797 C 1619.62 2.73478 -3.24669 0
M  V30 17798 C 1617.52 2.13321 -5.51587 0
M  V30 17799 H 1616.45 0.412594 -0.631096 0
M  V30 17800 H 1619.11 0.355603 -1.80021 0
M  V30 17801 H 1617.49 2.77377 -2.82627 0
M  V30 17802 H 1618.66 0.515123 -4.57912 0
M  V30 17803 H 1616.98 0.622355 -4.11723 0
M  V30 17804 H 1619.57 3.40366 -4.12377 0
M  V30 17805 H 1619.92 3.39355 -2.4113 0
M  V30 17806 H 1620.45 2.02823 -3.4221 0
M  V30 17807 H 1617.19 1.52006 -6.37632 0
M  V30 17808 H 1616.71 2.8388 -5.28368 0
M  V30 17809 H 1618.39 2.72666 -5.86739 0
M  V30 17810 N 1618.52 1.45038 0.616577 0
M  V30 17811 C 1619.77 1.47861 1.37186 0
M  V30 17812 C 1620.08 0.120862 1.95226 0
M  V30 17813 O 1621.29 0.0266872 2.71487 0
M  V30 17814 C 1619.74 2.6038 2.48455 0
M  V30 17815 C 1619.35 4.02428 1.96866 0
M  V30 17816 C 1621.1 2.7244 3.25541 0
M  V30 17817 C 1619 5.06345 3.05563 0
M  V30 17818 H 1617.93 0.550166 0.51559 0
M  V30 17819 H 1620.58 1.71151 0.661796 0
M  V30 17820 H 1618.97 2.30357 3.22105 0
M  V30 17821 H 1620.14 4.42087 1.29985 0
M  V30 17822 H 1618.45 3.94739 1.32552 0
M  V30 17823 H 1621.05 3.47248 4.06599 0
M  V30 17824 H 1621.39 1.7876 3.75966 0
M  V30 17825 H 1621.93 3.01944 2.58988 0
M  V30 17826 H 1618.67 6.01703 2.60065 0
M  V30 17827 H 1618.19 4.71264 3.7104 0
M  V30 17828 H 1619.87 5.30695 3.70097 0
M  V30 17829 N 1620 -0.858287 1.32179 0
M  V30 17830 C 1621.24 -1.61221 1.22532 0
M  V30 17831 C 1621.57 -1.93322 -0.213739 0
M  V30 17832 O 1620.83 -1.5719 -1.16575 0
M  V30 17833 C 1621.13 -2.94391 2.02654 0
M  V30 17834 C 1620.79 -2.81735 3.52046 0
M  V30 17835 C 1619.45 -2.7799 3.92778 0
M  V30 17836 C 1621.81 -2.67928 4.47062 0
M  V30 17837 C 1619.13 -2.58312 5.26775 0
M  V30 17838 C 1621.49 -2.49785 5.81197 0
M  V30 17839 C 1620.15 -2.44431 6.21136 0
M  V30 17840 H 1619.42 -0.589949 0.448376 0
M  V30 17841 H 1622.07 -0.995897 1.63567 0
M  V30 17842 H 1620.37 -3.60122 1.54336 0
M  V30 17843 H 1622.07 -3.5174 1.92561 0
M  V30 17844 H 1618.66 -2.85472 3.19693 0
M  V30 17845 H 1622.84 -2.69868 4.16515 0
M  V30 17846 H 1618.1 -2.526 5.56779 0
M  V30 17847 H 1622.27 -2.38081 6.54439 0
M  V30 17848 H 1619.9 -2.28943 7.24906 0
M  V30 17849 N 1621.48 -1.1533 -1.07409 0
M  V30 17850 C 1622.7 -0.951643 -1.83715 0
M  V30 17851 C 1623.12 0.500054 -1.82057 0
M  V30 17852 O 1622.48 1.3468 -1.23157 0
M  V30 17853 C 1622.53 -1.45734 -3.30823 0
M  V30 17854 O 1622.25 -2.85217 -3.3254 0
M  V30 17855 C 1623.75 -1.29709 -4.23899 0
M  V30 17856 H 1620.97 -0.338021 -0.57964 0
M  V30 17857 H 1623.51 -1.53088 -1.35589 0
M  V30 17858 H 1621.67 -0.920643 -3.76302 0
M  V30 17859 H 1622.08 -3.08134 -4.24445 0
M  V30 17860 H 1623.56 -1.69938 -5.2519 0
M  V30 17861 H 1624.03 -0.241185 -4.38537 0
M  V30 17862 H 1624.64 -1.82283 -3.84256 0
M  V30 17863 N 1622.95 1.25748 -0.950004 0
M  V30 17864 C 1623.9 2.23767 -0.43731 0
M  V30 17865 C 1624.89 1.53856 0.47088 0
M  V30 17866 O 1626.08 1.74358 0.304687 0
M  V30 17867 C 1623.21 3.4209 0.288037 0
M  V30 17868 C 1622.29 4.19274 -0.637955 0
M  V30 17869 N 1622.69 4.73909 -1.76759 0
M  V30 17870 C 1620.98 4.43772 -0.445251 0
M  V30 17871 C 1621.68 5.32323 -2.34535 0
M  V30 17872 N 1620.66 5.18511 -1.63239 0
M  V30 17873 H 1624.46 2.6361 -1.29949 0
M  V30 17874 H 1621.98 1.40934 -0.806931 0
M  V30 17875 H 1623.97 4.11441 0.672433 0
M  V30 17876 H 1622.63 3.03771 1.14688 0
M  V30 17877 H 1623.64 4.71184 -2.14955 0
M  V30 17878 H 1620.32 4.15848 0.37109 0
M  V30 17879 H 1621.71 5.85411 -3.29763 0
M  V30 17880 N 1624.43 0.718038 1.40292 0
M  V30 17881 C 1625.68 0.255581 2.00074 0
M  V30 17882 C 1625.99 -1.15859 1.57594 0
M  V30 17883 O 1627.2 -1.71969 2.10092 0
M  V30 17884 C 1625.66 0.406019 3.57602 0
M  V30 17885 C 1625.26 1.82699 4.09054 0
M  V30 17886 C 1627.01 0.00447854 4.245 0
M  V30 17887 C 1624.91 1.92788 5.59094 0
M  V30 17888 H 1623.84 0.0918012 0.748391 0
M  V30 17889 H 1626.5 0.88948 1.60501 0
M  V30 17890 H 1624.88 -0.296504 3.94888 0
M  V30 17891 H 1626.05 2.56009 3.8314 0
M  V30 17892 H 1624.37 2.18021 3.54761 0
M  V30 17893 H 1626.96 0.05911 5.34667 0
M  V30 17894 H 1627.31 -1.03779 4.03157 0
M  V30 17895 H 1627.84 0.657535 3.92328 0
M  V30 17896 H 1624.58 2.95145 5.85295 0
M  V30 17897 H 1624.1 1.23893 5.86865 0
M  V30 17898 H 1625.78 1.70114 6.24236 0
M  V30 17899 N 1625.91 -1.50602 0.464402 0
M  V30 17900 C 1627.16 -2.02287 -0.0928919 0
M  V30 17901 C 1627.49 -1.34685 -1.40321 0
M  V30 17902 O 1626.74 -0.459304 -1.90234 0
M  V30 17903 C 1627.04 -3.55859 -0.331507 0
M  V30 17904 C 1626.71 -4.41902 0.896292 0
M  V30 17905 C 1625.37 -4.65137 1.23294 0
M  V30 17906 C 1627.72 -4.92208 1.71409 0
M  V30 17907 C 1625.05 -5.35922 2.38757 0
M  V30 17908 C 1627.4 -5.6426 2.85995 0
M  V30 17909 C 1626.06 -5.85751 3.20082 0
M  V30 17910 H 1625.33 -0.74022 -0.0339916 0
M  V30 17911 H 1627.98 -1.81284 0.61712 0
M  V30 17912 H 1626.29 -3.7534 -1.1237 0
M  V30 17913 H 1627.98 -3.93409 -0.776566 0
M  V30 17914 H 1624.57 -4.24033 0.624007 0
M  V30 17915 H 1628.76 -4.74117 1.46719 0
M  V30 17916 H 1624.01 -5.50769 2.65449 0
M  V30 17917 H 1628.19 -6.02223 3.49714 0
M  V30 17918 H 1625.81 -6.40377 4.09659 0
M  V30 17919 N 1627.39 -0.19675 -1.56367 0
M  V30 17920 C 1628.64 0.441807 -1.96802 0
M  V30 17921 C 1628.95 1.62645 -1.08656 0
M  V30 17922 O 1630.16 2.33291 -1.3888 0
M  V30 17923 C 1628.61 0.837415 -3.50022 0
M  V30 17924 C 1628.22 -0.323031 -4.46834 0
M  V30 17925 C 1629.96 1.44296 -3.99223 0
M  V30 17926 C 1627.87 0.0936285 -5.91326 0
M  V30 17927 H 1626.8 0.168834 -0.734854 0
M  V30 17928 H 1629.45 -0.289029 -1.81209 0
M  V30 17929 H 1627.83 1.62497 -3.61124 0
M  V30 17930 H 1629.01 -1.10056 -4.47464 0
M  V30 17931 H 1627.32 -0.840182 -4.07836 0
M  V30 17932 H 1629.92 1.76718 -5.04653 0
M  V30 17933 H 1630.26 2.35003 -3.43627 0
M  V30 17934 H 1630.8 0.71935 -3.91242 0
M  V30 17935 H 1627.54 -0.779297 -6.50851 0
M  V30 17936 H 1627.06 0.835984 -5.93946 0
M  V30 17937 H 1628.73 0.528864 -6.44835 0
M  V30 17938 N 1628.87 1.57413 0.0768405 0
M  V30 17939 C 1629.8 2.06378 1.09226 0
M  V30 17940 C 1630.78 0.956269 1.40675 0
M  V30 17941 O 1631.96 1.22868 1.5039 0
M  V30 17942 C 1629.09 2.50349 2.40712 0
M  V30 17943 C 1628.05 3.64931 2.23628 0
M  V30 17944 C 1627.37 3.9494 3.60453 0
M  V30 17945 C 1628.67 4.95162 1.66169 0
M  V30 17946 H 1630.37 2.91463 0.684827 0
M  V30 17947 H 1627.91 1.40215 0.327974 0
M  V30 17948 H 1629.87 2.83216 3.12036 0
M  V30 17949 H 1628.59 1.62287 2.83426 0
M  V30 17950 H 1627.25 3.32339 1.54747 0
M  V30 17951 H 1626.9 3.04016 4.00728 0
M  V30 17952 H 1626.6 4.72091 3.49863 0
M  V30 17953 H 1628.12 4.30299 4.33215 0
M  V30 17954 H 1629.53 5.26292 2.27353 0
M  V30 17955 H 1627.93 5.76601 1.66289 0
M  V30 17956 H 1629 4.80885 0.62271 0
M  V30 17957 N 1630.34 -0.348112 1.53707 0
M  V30 17958 C 1631.25 -1.45079 1.84361 0
M  V30 17959 C 1632.27 -1.5779 0.733375 0
M  V30 17960 O 1633.45 -1.73353 1.02522 0
M  V30 17961 C 1630.51 -2.80127 2.04278 0
M  V30 17962 C 1629.57 -2.76799 3.28148 0
M  V30 17963 C 1628.81 -4.05406 3.47105 0
M  V30 17964 O 1629.03 -5.02454 2.69992 0
M  V30 17965 O 1627.96 -4.10155 4.40519 0
M  V30 17966 H 1631.79 -1.22093 2.78077 0
M  V30 17967 H 1629.37 -0.539863 1.39305 0
M  V30 17968 H 1631.26 -3.60115 2.18849 0
M  V30 17969 H 1629.93 -3.03055 1.13751 0
M  V30 17970 H 1628.84 -1.95448 3.18984 0
M  V30 17971 H 1630.17 -2.58826 4.18653 0
M  V30 17972 N 1631.82 -1.45363 -0.608876 0
M  V30 17973 C 1632.76 -1.48425 -1.73336 0
M  V30 17974 C 1633.73 -0.340757 -1.58989 0
M  V30 17975 O 1634.92 -0.541066 -1.80568 0
M  V30 17976 C 1632.04 -1.33807 -3.11149 0
M  V30 17977 C 1631.09 -2.52005 -3.44087 0
M  V30 17978 S 1631.92 -4.14477 -3.39071 0
M  V30 17979 C 1633.08 -4.02321 -4.79467 0
M  V30 17980 H 1633.31 -2.43568 -1.70475 0
M  V30 17981 H 1630.85 -1.32931 -0.785418 0
M  V30 17982 H 1632.8 -1.2606 -3.90665 0
M  V30 17983 H 1631.46 -0.401365 -3.11525 0
M  V30 17984 H 1630.66 -2.37699 -4.44427 0
M  V30 17985 H 1630.26 -2.56606 -2.72083 0
M  V30 17986 H 1632.55 -3.67386 -5.6924 0
M  V30 17987 H 1633.49 -5.02569 -4.98829 0
M  V30 17988 H 1633.9 -3.34 -4.55087 0
M  V30 17989 N 1633.3 0.851265 -1.32632 0
M  V30 17990 C 1634.55 1.60807 -1.23568 0
M  V30 17991 C 1634.88 1.93155 0.201238 0
M  V30 17992 O 1634.15 1.5764 1.13929 0
M  V30 17993 C 1634.44 2.92619 -2.09872 0
M  V30 17994 C 1634.29 2.67031 -3.61959 0
M  V30 17995 C 1635.61 3.93924 -1.96244 0
M  V30 17996 H 1632.73 0.583492 -0.450229 0
M  V30 17997 H 1635.37 0.98273 -1.62611 0
M  V30 17998 H 1633.52 3.45988 -1.76704 0
M  V30 17999 H 1635.19 2.2019 -4.05357 0
M  V30 18000 H 1633.44 2.00938 -3.84456 0
M  V30 18001 H 1634.11 3.60902 -4.17676 0
M  V30 18002 H 1636.58 3.49823 -2.25307 0
M  V30 18003 H 1635.46 4.84005 -2.58902 0
M  V30 18004 H 1635.72 4.32185 -0.931065 0
M  V30 18005 N 1634.78 1.15898 1.06796 0
M  V30 18006 C 1635.71 0.88395 2.16122 0
M  V30 18007 C 1636.69 -0.167708 1.69271 0
M  V30 18008 O 1637.87 -0.0208846 1.94189 0
M  V30 18009 C 1635 0.378656 3.4523 0
M  V30 18010 C 1633.96 1.36764 4.05561 0
M  V30 18011 C 1633.28 0.720956 5.29817 0
M  V30 18012 C 1634.58 2.73554 4.44933 0
M  V30 18013 H 1636.28 1.79818 2.39386 0
M  V30 18014 H 1633.82 0.866008 1.15049 0
M  V30 18015 H 1635.78 0.17376 4.21042 0
M  V30 18016 H 1634.5 -0.571063 3.21569 0
M  V30 18017 H 1633.16 1.55899 3.318 0
M  V30 18018 H 1632.81 -0.235089 5.0245 0
M  V30 18019 H 1632.51 1.38101 5.71141 0
M  V30 18020 H 1634.03 0.525963 6.0833 0
M  V30 18021 H 1635.45 2.58231 5.11849 0
M  V30 18022 H 1633.84 3.35986 4.97226 0
M  V30 18023 H 1634.91 3.29192 3.56034 0
M  V30 18024 N 1636.26 -1.25243 0.956659 0
M  V30 18025 C 1637.2 -2.25811 0.477292 0
M  V30 18026 C 1638.17 -1.59273 -0.471301 0
M  V30 18027 O 1639.36 -1.86894 -0.384105 0
M  V30 18028 C 1636.5 -3.44286 -0.236891 0
M  V30 18029 C 1635.61 -4.25454 0.749177 0
M  V30 18030 C 1634.75 -5.31199 0.012228 0
M  V30 18031 C 1633.79 -6.04056 0.989094 0
M  V30 18032 N 1632.92 -7.0153 0.282883 0
M  V30 18033 H 1637.76 -2.66185 1.33977 0
M  V30 18034 H 1635.3 -1.30862 0.671832 0
M  V30 18035 H 1637.26 -4.11825 -0.66755 0
M  V30 18036 H 1635.89 -3.04781 -1.06339 0
M  V30 18037 H 1634.94 -3.57558 1.29831 0
M  V30 18038 H 1636.25 -4.75883 1.49454 0
M  V30 18039 H 1635.41 -6.04822 -0.476968 0
M  V30 18040 H 1634.14 -4.81648 -0.76591 0
M  V30 18041 H 1633.15 -5.29245 1.48927 0
M  V30 18042 H 1634.37 -6.55695 1.76749 0
M  V30 18043 H 1632.32 -6.54267 -0.476479 0
M  V30 18044 H 1632.24 -7.49786 0.967304 0
M  V30 18045 H 1633.51 -7.79281 -0.184709 0
M  V30 18046 N 1637.73 -0.725468 -1.3991 0
M  V30 18047 C 1638.98 -0.278509 -2.01484 0
M  V30 18048 C 1639.34 1.11892 -1.56518 0
M  V30 18049 O 1638.63 1.75014 -0.77979 0
M  V30 18050 C 1638.82 -0.308261 -3.56068 0
M  V30 18051 C 1638.65 -1.70704 -4.16041 0
M  V30 18052 C 1637.42 -2.31703 -4.49045 0
M  V30 18053 C 1639.62 -2.659 -4.40229 0
M  V30 18054 N 1637.6 -3.63834 -4.94467 0
M  V30 18055 C 1638.97 -3.82751 -4.87751 0
M  V30 18056 C 1641.03 -2.63785 -4.22282 0
M  V30 18057 C 1639.73 -4.97809 -5.1921 0
M  V30 18058 C 1641.76 -3.77978 -4.54848 0
M  V30 18059 C 1641.12 -4.93563 -5.02568 0
M  V30 18060 H 1637.22 -0.147963 -0.767874 0
M  V30 18061 H 1639.8 -0.94939 -1.69984 0
M  V30 18062 H 1637.97 0.332226 -3.86977 0
M  V30 18063 H 1639.7 0.156344 -4.04398 0
M  V30 18064 H 1636.46 -1.83712 -4.36517 0
M  V30 18065 H 1636.88 -4.31644 -5.21548 0
M  V30 18066 H 1641.53 -1.75622 -3.846 0
M  V30 18067 H 1639.24 -5.86609 -5.55802 0
M  V30 18068 H 1642.83 -3.77628 -4.42593 0
M  V30 18069 H 1641.71 -5.8046 -5.27291 0
M  V30 18070 N 1639.21 1.50354 -0.472382 0
M  V30 18071 C 1640.46 2.02633 0.0822846 0
M  V30 18072 C 1640.79 1.35358 1.39254 0
M  V30 18073 O 1640.07 0.479714 1.88491 0
M  V30 18074 C 1640.35 3.59126 0.264742 0
M  V30 18075 C 1640.2 4.3697 -1.06663 0
M  V30 18076 C 1641.52 4.28148 1.01869 0
M  V30 18077 H 1638.64 0.736451 0.0284304 0
M  V30 18078 H 1641.28 1.79661 -0.618224 0
M  V30 18079 H 1639.43 3.7883 0.86141 0
M  V30 18080 H 1641.1 4.28834 -1.69997 0
M  V30 18081 H 1639.35 4.0066 -1.66295 0
M  V30 18082 H 1640.02 5.44736 -0.892592 0
M  V30 18083 H 1642.49 4.12926 0.512931 0
M  V30 18084 H 1641.37 5.37453 1.11515 0
M  V30 18085 H 1641.63 3.91406 2.05557 0
M  V30 18086 N 1640.69 0.205039 1.56261 0
M  V30 18087 C 1641.65 -0.698166 2.18308 0
M  V30 18088 C 1642.65 -1.13376 1.14029 0
M  V30 18089 O 1643.84 -1.04524 1.39357 0
M  V30 18090 C 1640.98 -1.95438 2.79315 0
M  V30 18091 H 1642.17 -0.157462 2.99486 0
M  V30 18092 H 1639.72 -0.0445849 1.56236 0
M  V30 18093 H 1640.46 -2.53736 2.01962 0
M  V30 18094 H 1640.24 -1.65068 3.55662 0
M  V30 18095 H 1641.73 -2.59824 3.26927 0
M  V30 18096 N 1642.17 -1.57451 -0.0684915 0
M  V30 18097 C 1643.42 -1.87411 -0.76702 0
M  V30 18098 C 1643.74 -0.797219 -1.77411 0
M  V30 18099 O 1643 0.206424 -1.94608 0
M  V30 18100 C 1643.3 -3.24044 -1.50765 0
M  V30 18101 C 1642.96 -4.46331 -0.640238 0
M  V30 18102 C 1641.63 -4.79525 -0.401205 0
M  V30 18103 C 1643.98 -5.21185 -0.0389475 0
M  V30 18104 C 1641.31 -5.84983 0.448547 0
M  V30 18105 C 1643.66 -6.27543 0.798278 0
M  V30 18106 C 1642.32 -6.59235 1.04715 0
M  V30 18107 H 1641.59 -0.685787 -0.280673 0
M  V30 18108 H 1644.24 -1.9148 -0.0277143 0
M  V30 18109 H 1642.54 -3.15782 -2.31925 0
M  V30 18110 H 1644.24 -3.44461 -2.05299 0
M  V30 18111 H 1640.83 -4.20354 -0.836675 0
M  V30 18112 H 1645.02 -4.95852 -0.210729 0
M  V30 18113 H 1640.27 -6.07934 0.650077 0
M  V30 18114 H 1644.45 -6.84705 1.27092 0
M  V30 18115 H 1642.07 -7.40779 1.70737 0
M  V30 18116 N 1643.65 0.339955 -1.5389 0
M  V30 18117 C 1644.9 1.07766 -1.7097 0
M  V30 18118 C 1645.22 1.89064 -0.477486 0
M  V30 18119 O 1644.49 1.89183 0.508579 0
M  V30 18120 H 1643.07 0.400849 -0.630341 0
M  V30 18121 H 1645.73 0.380359 -1.91153 0
M  V30 18122 H 1644.82 1.75301 -2.58217 0
M  V30 18123 N 1645.13 1.45684 0.601159 0
M  V30 18124 C 1646.37 1.50036 1.35998 0
M  V30 18125 C 1646.7 0.144645 1.93961 0
M  V30 18126 O 1645.96 -0.857502 1.75913 0
M  V30 18127 C 1646.25 2.53235 2.52204 0
M  V30 18128 C 1645.92 3.97767 2.12348 0
M  V30 18129 C 1644.58 4.37121 2.01193 0
M  V30 18130 C 1646.93 4.88636 1.8134 0
M  V30 18131 C 1644.26 5.65231 1.5726 0
M  V30 18132 C 1646.61 6.17164 1.38892 0
M  V30 18133 C 1645.28 6.55442 1.26299 0
M  V30 18134 H 1644.55 0.54902 0.497652 0
M  V30 18135 H 1647.2 1.79065 0.678833 0
M  V30 18136 H 1645.5 2.17799 3.25685 0
M  V30 18137 H 1647.2 2.53837 3.10431 0
M  V30 18138 H 1643.79 3.6665 2.21959 0
M  V30 18139 H 1647.97 4.58964 1.88853 0
M  V30 18140 H 1643.23 5.93678 1.46139 0
M  V30 18141 H 1647.4 6.87015 1.13946 0
M  V30 18142 H 1645.03 7.54609 0.920316 0
M  V30 18143 N 1646.6 -0.84422 1.33082 0
M  V30 18144 C 1647.85 -1.59596 1.2399 0
M  V30 18145 C 1648.17 -1.94016 -0.19566 0
M  V30 18146 O 1647.44 -1.60512 -1.12306 0
M  V30 18147 H 1646.02 -0.591727 0.455926 0
M  V30 18148 H 1648.68 -1.00924 1.66735 0
M  V30 18149 H 1647.78 -2.52829 1.82986 0
M  V30 18150 N 1648.08 -1.16463 -1.0618 0
M  V30 18151 C 1649.03 -0.87224 -2.13683 0
M  V30 18152 C 1650 0.179784 -1.65124 0
M  V30 18153 O 1651.18 0.0447406 -1.90748 0
M  V30 18154 C 1648.32 -0.380728 -3.42993 0
M  V30 18155 C 1647.44 -1.49571 -4.05281 0
M  V30 18156 C 1646.57 -0.959099 -5.2247 0
M  V30 18157 C 1645.61 -2.05021 -5.76743 0
M  V30 18158 N 1644.75 -1.5291 -6.85247 0
M  V30 18159 H 1649.59 -1.79288 -2.38033 0
M  V30 18160 H 1647.12 -0.894379 -1.16787 0
M  V30 18161 H 1649.08 -0.0773816 -4.17128 0
M  V30 18162 H 1647.71 0.502966 -3.18857 0
M  V30 18163 H 1646.76 -1.915 -3.28682 0
M  V30 18164 H 1648.08 -2.31904 -4.41613 0
M  V30 18165 H 1647.23 -0.609003 -6.03636 0
M  V30 18166 H 1645.97 -0.105086 -4.87587 0
M  V30 18167 H 1644.97 -2.40899 -4.94214 0
M  V30 18168 H 1646.2 -2.90821 -6.13678 0
M  V30 18169 H 1644.15 -0.697639 -6.5228 0
M  V30 18170 H 1644.06 -2.28859 -7.20527 0
M  V30 18171 H 1645.33 -1.20762 -7.70089 0
M  V30 18172 N 1649.56 1.24734 -0.963288 0
M  V30 18173 C 1650.79 1.9646 -0.639305 0
M  V30 18174 C 1651.2 1.71708 0.794553 0
M  V30 18175 O 1650.54 0.995015 1.54419 0
M  V30 18176 C 1650.6 3.49818 -0.828696 0
M  V30 18177 C 1650.27 3.98262 -2.24135 0
M  V30 18178 C 1651.26 4.08281 -3.21874 0
M  V30 18179 C 1648.95 4.31701 -2.56786 0
M  V30 18180 C 1650.94 4.51067 -4.50352 0
M  V30 18181 C 1648.63 4.74172 -3.85492 0
M  V30 18182 C 1649.63 4.83819 -4.82087 0
M  V30 18183 O 1649.32 5.25344 -6.08497 0
M  V30 18184 H 1649.05 0.63276 -0.237888 0
M  V30 18185 H 1651.6 1.59635 -1.29251 0
M  V30 18186 H 1649.83 3.86519 -0.118332 0
M  V30 18187 H 1651.52 4.02753 -0.504465 0
M  V30 18188 H 1652.29 3.82668 -2.97976 0
M  V30 18189 H 1648.17 4.23414 -1.82323 0
M  V30 18190 H 1651.71 4.58512 -5.2575 0
M  V30 18191 H 1647.61 4.99231 -4.09192 0
M  V30 18192 H 1648.37 5.43506 -6.12 0
M  V30 18193 N 1651.04 0.732878 1.39523 0
M  V30 18194 C 1652.28 0.279891 2.00556 0
M  V30 18195 C 1652.61 -1.13223 1.58148 0
M  V30 18196 O 1651.87 -1.78575 0.800591 0
M  V30 18197 C 1652.17 0.32714 3.559 0
M  V30 18198 C 1651.83 1.69198 4.17951 0
M  V30 18199 C 1650.49 2.06555 4.34613 0
M  V30 18200 C 1652.85 2.58821 4.52395 0
M  V30 18201 C 1650.17 3.33047 4.83008 0
M  V30 18202 C 1652.53 3.84682 5.02197 0
M  V30 18203 C 1651.19 4.22134 5.17068 0
M  V30 18204 H 1650.46 0.102419 0.733888 0
M  V30 18205 H 1653.11 0.939304 1.66881 0
M  V30 18206 H 1651.41 -0.415849 3.89587 0
M  V30 18207 H 1653.11 -0.0414564 4.00979 0
M  V30 18208 H 1649.7 1.39153 4.05382 0
M  V30 18209 H 1653.88 2.31231 4.39142 0
M  V30 18210 H 1649.14 3.6201 4.92706 0
M  V30 18211 H 1653.31 4.54286 5.27823 0
M  V30 18212 H 1650.94 5.20215 5.54329 0
M  V30 18213 N 1652.52 -1.50101 0.480349 0
M  V30 18214 C 1653.74 -2.06785 -0.068848 0
M  V30 18215 C 1654.16 -1.34316 -1.32683 0
M  V30 18216 O 1653.52 -0.415196 -1.77714 0
M  V30 18217 C 1653.57 -3.59826 -0.347522 0
M  V30 18218 O 1653.29 -4.29565 0.860569 0
M  V30 18219 C 1654.79 -4.33161 -0.94266 0
M  V30 18220 H 1652.01 -0.670906 0.0112172 0
M  V30 18221 H 1654.55 -1.93151 0.671788 0
M  V30 18222 H 1652.71 -3.73232 -1.0381 0
M  V30 18223 H 1653.12 -5.20931 0.610796 0
M  V30 18224 H 1654.6 -5.41184 -1.08736 0
M  V30 18225 H 1655.07 -3.94268 -1.93518 0
M  V30 18226 H 1655.68 -4.24309 -0.290178 0
M  V30 18227 N 1653.99 -0.213323 -1.5615 0
M  V30 18228 C 1655.22 0.428746 -2.0292 0
M  V30 18229 C 1655.64 1.53137 -1.09227 0
M  V30 18230 O 1655 1.81128 -0.0789684 0
M  V30 18231 C 1655.05 0.945231 -3.47991 0
M  V30 18232 O 1654.15 2.05709 -3.57432 0
M  V30 18233 H 1653.49 0.0980619 -0.656719 0
M  V30 18234 H 1656.02 -0.329548 -2.01929 0
M  V30 18235 H 1656.03 1.25717 -3.88149 0
M  V30 18236 H 1654.71 0.138161 -4.1567 0
M  V30 18237 H 1653.29 1.75242 -3.29158 0
M  V30 18238 N 1655.47 1.57485 0.0601405 0
M  V30 18239 C 1656.44 2.03493 1.05467 0
M  V30 18240 C 1657.44 0.933816 1.30907 0
M  V30 18241 O 1658.63 1.19837 1.26431 0
M  V30 18242 C 1655.76 2.42549 2.39547 0
M  V30 18243 H 1656.95 2.92595 0.657893 0
M  V30 18244 H 1654.5 1.53272 0.306183 0
M  V30 18245 H 1655.24 1.56509 2.84034 0
M  V30 18246 H 1655.02 3.22911 2.22421 0
M  V30 18247 H 1656.51 2.7868 3.1101 0
M  V30 18248 N 1656.95 -0.331789 1.54068 0
M  V30 18249 C 1658.2 -1.06854 1.73072 0
M  V30 18250 C 1658.55 -1.85949 0.494034 0
M  V30 18251 O 1657.84 -1.84591 -0.513489 0
M  V30 18252 C 1658.04 -2.03015 2.94142 0
M  V30 18253 C 1657.87 -1.33374 4.29467 0
M  V30 18254 C 1656.64 -1.07367 4.93762 0
M  V30 18255 C 1658.84 -0.753877 5.08745 0
M  V30 18256 N 1656.82 -0.344298 6.12934 0
M  V30 18257 C 1658.19 -0.155685 6.19805 0
M  V30 18258 C 1660.24 -0.655879 4.93561 0
M  V30 18259 C 1658.95 0.530985 7.17337 0
M  V30 18260 C 1660.97 0.0170729 5.91398 0
M  V30 18261 C 1660.33 0.604244 7.01804 0
M  V30 18262 H 1656.43 -0.374988 0.686227 0
M  V30 18263 H 1659.02 -0.350703 1.91515 0
M  V30 18264 H 1657.19 -2.72078 2.77178 0
M  V30 18265 H 1658.92 -2.69615 3.01811 0
M  V30 18266 H 1655.68 -1.36386 4.53537 0
M  V30 18267 H 1656.1 0.00600404 6.77 0
M  V30 18268 H 1660.74 -1.09557 4.08359 0
M  V30 18269 H 1658.46 0.982531 8.02105 0
M  V30 18270 H 1662.05 0.0924259 5.81727 0
M  V30 18271 H 1660.93 1.11671 7.76208 0
M  V30 18272 N 1658.43 -1.46001 -0.593424 0
M  V30 18273 C 1659.67 -1.52306 -1.36317 0
M  V30 18274 C 1660.03 -0.166331 -1.91278 0
M  V30 18275 O 1661.23 -0.104106 -2.68598 0
M  V30 18276 C 1659.5 -2.58303 -2.47011 0
M  V30 18277 S 1661.06 -2.83936 -3.34553 0
M  V30 18278 H 1657.88 -0.538241 -0.464562 0
M  V30 18279 H 1660.48 -1.8317 -0.683308 0
M  V30 18280 H 1659.19 -3.55528 -2.05007 0
M  V30 18281 H 1658.72 -2.29136 -3.19782 0
M  V30 18282 H 1660.73 -2.18391 -4.45556 0
M  V30 18283 N 1659.91 0.83715 -1.33527 0
M  V30 18284 C 1661.15 1.60619 -1.26416 0
M  V30 18285 C 1661.51 1.9127 0.16722 0
M  V30 18286 O 1662.71 2.66347 0.362323 0
M  V30 18287 C 1660.98 2.87988 -2.11655 0
M  V30 18288 S 1662.54 3.78645 -2.21751 0
M  V30 18289 H 1659.36 0.550704 -0.449718 0
M  V30 18290 H 1661.96 0.990005 -1.6858 0
M  V30 18291 H 1660.67 2.63444 -3.14683 0
M  V30 18292 H 1660.2 3.54612 -1.70334 0
M  V30 18293 H 1662.21 4.76629 -1.37984 0
M  V30 18294 N 1661.38 1.17024 1.05561 0
M  V30 18295 C 1662.31 0.906823 2.15172 0
M  V30 18296 C 1663.3 -0.149745 1.6944 0
M  V30 18297 O 1664.48 -0.000287092 1.942 0
M  V30 18298 C 1661.61 0.415251 3.44809 0
M  V30 18299 C 1660.56 1.41058 4.04088 0
M  V30 18300 C 1659.89 0.777109 5.29023 0
M  V30 18301 C 1661.19 2.78258 4.42007 0
M  V30 18302 H 1662.88 1.82347 2.37466 0
M  V30 18303 H 1660.43 0.878162 1.14124 0
M  V30 18304 H 1662.38 0.218407 4.20834 0
M  V30 18305 H 1661.11 -0.536924 3.22156 0
M  V30 18306 H 1659.77 1.5941 3.30127 0
M  V30 18307 H 1659.41 -0.181784 5.02671 0
M  V30 18308 H 1659.11 1.44151 5.69644 0
M  V30 18309 H 1660.64 0.590455 6.07738 0
M  V30 18310 H 1662.05 2.63645 5.09082 0
M  V30 18311 H 1660.45 3.41241 4.93634 0
M  V30 18312 H 1661.52 3.3295 3.52523 0
M  V30 18313 N 1662.86 -1.24221 0.969889 0
M  V30 18314 C 1664.14 -1.87715 0.549772 0
M  V30 18315 C 1664.52 -1.87333 -0.973114 0
M  V30 18316 O 1663.87 -1.3475 -1.84539 0
M  V30 18317 C 1664.08 -3.29724 1.14381 0
M  V30 18318 C 1665.43 -4.06393 1.23005 0
M  V30 18319 O 1666.45 -3.38904 1.09648 0
M  V30 18320 O 1665.31 -5.27149 1.4414 0
M  V30 18321 H 1662.4 -0.806356 0.183629 0
M  V30 18322 H 1664.95 -1.32177 1.0643 0
M  V30 18323 H 1663.72 -3.24513 2.18649 0
M  V30 18324 H 1663.34 -3.92839 0.613456 0
M  V30 18325 N 1664.34 -0.740267 -1.39132 0
M  V30 18326 C 1665.59 -0.290523 -2.00405 0
M  V30 18327 C 1665.92 1.12383 -1.58746 0
M  V30 18328 O 1665.17 1.78148 -0.81005 0
M  V30 18329 C 1665.47 -0.346009 -3.55721 0
M  V30 18330 C 1665.14 -1.71412 -4.17048 0
M  V30 18331 C 1663.8 -2.08857 -4.33512 0
M  V30 18332 C 1666.15 -2.61216 -4.51016 0
M  V30 18333 C 1663.48 -3.35603 -4.81235 0
M  V30 18334 C 1665.83 -3.8734 -5.0015 0
M  V30 18335 C 1664.49 -4.2487 -5.14822 0
M  V30 18336 H 1663.76 -0.10631 -0.733334 0
M  V30 18337 H 1666.41 -0.948141 -1.66381 0
M  V30 18338 H 1664.72 0.395183 -3.89802 0
M  V30 18339 H 1666.41 0.020191 -4.00995 0
M  V30 18340 H 1663 -1.41301 -4.04638 0
M  V30 18341 H 1667.19 -2.33556 -4.3791 0
M  V30 18342 H 1662.44 -3.64617 -4.90779 0
M  V30 18343 H 1666.62 -4.57079 -5.25406 0
M  V30 18344 H 1664.24 -5.23147 -5.51562 0
M  V30 18345 N 1665.82 1.49844 -0.488302 0
M  V30 18346 C 1667.07 2.01603 0.0624744 0
M  V30 18347 C 1667.38 1.37397 1.39217 0
M  V30 18348 O 1668.59 1.8041 2.0289 0
M  V30 18349 C 1667.04 3.59536 0.161824 0
M  V30 18350 C 1666.65 4.32709 -1.16047 0
M  V30 18351 C 1668.39 4.1928 0.663642 0
M  V30 18352 C 1666.3 5.82468 -1.02397 0
M  V30 18353 H 1665.23 0.753512 0.0271222 0
M  V30 18354 H 1667.88 1.72499 -0.625805 0
M  V30 18355 H 1666.26 3.85301 0.914273 0
M  V30 18356 H 1667.44 4.18655 -1.92522 0
M  V30 18357 H 1665.75 3.84652 -1.59473 0
M  V30 18358 H 1668.35 5.28935 0.783069 0
M  V30 18359 H 1668.69 3.81801 1.65933 0
M  V30 18360 H 1669.23 3.97787 -0.0319078 0
M  V30 18361 H 1665.97 6.2445 -1.99355 0
M  V30 18362 H 1665.49 5.9905 -0.299902 0
M  V30 18363 H 1667.16 6.43229 -0.697538 0
M  V30 18364 N 1667.3 0.221601 1.56034 0
M  V30 18365 C 1668.55 -0.410442 1.9748 0
M  V30 18366 C 1668.86 -1.60895 1.1123 0
M  V30 18367 O 1670.06 -2.31052 1.42574 0
M  V30 18368 C 1668.52 -0.781624 3.5131 0
M  V30 18369 C 1668.13 0.394077 4.46263 0
M  V30 18370 C 1669.87 -1.37927 4.01468 0
M  V30 18371 C 1667.78 0.000458181 5.914 0
M  V30 18372 H 1666.71 -0.157122 0.737447 0
M  V30 18373 H 1669.36 0.317821 1.80727 0
M  V30 18374 H 1667.74 -1.56731 3.63664 0
M  V30 18375 H 1668.92 1.17161 4.45657 0
M  V30 18376 H 1667.23 0.904959 4.06447 0
M  V30 18377 H 1669.83 -1.68667 5.07401 0
M  V30 18378 H 1670.17 -2.29507 3.47322 0
M  V30 18379 H 1670.7 -0.657015 3.92337 0
M  V30 18380 H 1667.44 0.882743 6.49529 0
M  V30 18381 H 1666.96 -0.741386 5.952 0
M  V30 18382 H 1668.64 -0.42621 6.45595 0
M  V30 18383 N 1668.77 -1.57515 -0.0517878 0
M  V30 18384 C 1670.02 -1.88493 -0.748206 0
M  V30 18385 C 1670.35 -0.816494 -1.76202 0
M  V30 18386 O 1669.63 0.171075 -1.93746 0
M  V30 18387 C 1669.91 -3.30131 -1.43825 0
M  V30 18388 C 1669.76 -4.47648 -0.4395 0
M  V30 18389 C 1671.08 -3.70315 -2.37813 0
M  V30 18390 H 1668.2 -0.68555 -0.270537 0
M  V30 18391 H 1670.84 -1.89997 -0.0111457 0
M  V30 18392 H 1668.99 -3.2898 -2.06651 0
M  V30 18393 H 1670.67 -4.60929 0.185088 0
M  V30 18394 H 1668.91 -4.33117 0.243381 0
M  V30 18395 H 1669.58 -5.43582 -0.96035 0
M  V30 18396 H 1672.06 -3.72687 -1.8505 0
M  V30 18397 H 1670.93 -4.70269 -2.83087 0
M  V30 18398 H 1671.19 -3.0133 -3.23501 0
M  V30 18399 N 1670.25 0.323614 -1.54242 0
M  V30 18400 C 1671.5 1.05909 -1.71657 0
M  V30 18401 C 1671.82 1.89177 -0.497151 0
M  V30 18402 O 1673.02 2.65816 -0.552649 0
M  V30 18403 C 1671.48 1.93246 -3.03618 0
M  V30 18404 C 1671.09 1.1509 -4.32965 0
M  V30 18405 C 1672.83 2.6653 -3.30397 0
M  V30 18406 C 1670.74 2.01573 -5.55988 0
M  V30 18407 H 1669.67 0.399114 -0.639706 0
M  V30 18408 H 1672.32 0.317338 -1.80735 0
M  V30 18409 H 1670.7 2.71319 -2.88447 0
M  V30 18410 H 1671.87 0.417877 -4.58901 0
M  V30 18411 H 1670.19 0.534882 -4.1295 0
M  V30 18412 H 1672.79 3.31542 -4.19504 0
M  V30 18413 H 1673.13 3.34164 -2.48274 0
M  V30 18414 H 1673.66 1.95518 -3.46435 0
M  V30 18415 H 1670.4 1.38446 -6.40713 0
M  V30 18416 H 1669.92 2.72609 -5.3427 0
M  V30 18417 H 1671.6 2.60159 -5.9239 0
M  V30 18418 N 1671.73 1.46313 0.585673 0
M  V30 18419 C 1672.98 1.51694 1.34598 0
M  V30 18420 C 1673.31 0.166889 1.93482 0
M  V30 18421 O 1672.59 -0.821331 1.76308 0
M  V30 18422 C 1672.87 2.61322 2.47755 0
M  V30 18423 C 1672.72 4.05848 1.93926 0
M  V30 18424 C 1674.04 2.67058 3.49812 0
M  V30 18425 H 1671.16 0.552253 0.488043 0
M  V30 18426 H 1673.8 1.78235 0.658201 0
M  V30 18427 H 1671.95 2.38822 3.06425 0
M  V30 18428 H 1673.62 4.39626 1.39736 0
M  V30 18429 H 1671.87 4.15468 1.24775 0
M  V30 18430 H 1672.54 4.78279 2.75596 0
M  V30 18431 H 1675.01 2.87276 3.01018 0
M  V30 18432 H 1673.89 3.45589 4.2645 0
M  V30 18433 H 1674.15 1.72993 4.06849 0
M  V30 18434 N 1673.21 -0.830057 1.33969 0
M  V30 18435 C 1674.43 -1.62294 1.29133 0
M  V30 18436 C 1674.86 -1.87627 -0.133253 0
M  V30 18437 O 1674.22 -1.44669 -1.09272 0
M  V30 18438 C 1674.27 -2.94508 2.0808 0
M  V30 18439 O 1673.37 -3.86239 1.44544 0
M  V30 18440 H 1672.71 -0.493865 0.443839 0
M  V30 18441 H 1675.24 -1.03202 1.76665 0
M  V30 18442 H 1675.25 -3.44133 2.19173 0
M  V30 18443 H 1673.93 -2.75392 3.1166 0
M  V30 18444 H 1672.5 -3.44743 1.42151 0
M  V30 18445 N 1674.69 -1.17582 -1.04939 0
M  V30 18446 C 1675.93 -0.967208 -1.7825 0
M  V30 18447 C 1676.27 0.502711 -1.87581 0
M  V30 18448 O 1675.54 1.37318 -1.37746 0
M  V30 18449 C 1675.82 -1.61205 -3.22001 0
M  V30 18450 C 1675.68 -3.15424 -3.20667 0
M  V30 18451 C 1677 -1.31804 -4.199 0
M  V30 18452 H 1674.12 -0.35279 -0.647077 0
M  V30 18453 H 1676.76 -1.45119 -1.2264 0
M  V30 18454 H 1674.91 -1.20052 -3.69486 0
M  V30 18455 H 1676.58 -3.65653 -2.8124 0
M  V30 18456 H 1674.82 -3.48042 -2.58938 0
M  V30 18457 H 1675.49 -3.55674 -4.22138 0
M  V30 18458 H 1677.97 -1.67446 -3.80921 0
M  V30 18459 H 1676.85 -1.79505 -5.18719 0
M  V30 18460 H 1677.11 -0.239304 -4.41452 0
M  V30 18461 N 1676.17 1.23705 -0.976463 0
M  V30 18462 C 1677.39 1.96055 -0.661065 0
M  V30 18463 C 1677.81 1.7233 0.77121 0
M  V30 18464 O 1677.17 1.01234 1.51849 0
M  V30 18465 C 1677.22 3.49144 -0.937071 0
M  V30 18466 O 1676.94 3.72061 -2.31305 0
M  V30 18467 C 1678.44 4.38698 -0.637077 0
M  V30 18468 H 1675.66 0.624319 -0.245901 0
M  V30 18469 H 1678.2 1.57301 -1.30678 0
M  V30 18470 H 1676.36 3.85928 -0.33743 0
M  V30 18471 H 1676.77 4.66383 -2.39973 0
M  V30 18472 H 1678.25 5.44931 -0.88059 0
M  V30 18473 H 1678.72 4.37102 0.428802 0
M  V30 18474 H 1679.33 4.07515 -1.21702 0
M  V30 18475 N 1677.64 0.747635 1.38738 0
M  V30 18476 C 1678.87 0.311781 2.04537 0
M  V30 18477 C 1679.29 -1.05782 1.56383 0
M  V30 18478 O 1678.64 -1.67077 0.734259 0
M  V30 18479 C 1678.69 0.318675 3.60093 0
M  V30 18480 O 1678.42 1.63423 4.06478 0
M  V30 18481 C 1679.92 -0.131782 4.43104 0
M  V30 18482 H 1677.14 0.134141 0.657455 0
M  V30 18483 H 1679.68 1.01482 1.77543 0
M  V30 18484 H 1677.84 -0.335578 3.85944 0
M  V30 18485 H 1678.25 1.55636 5.00877 0
M  V30 18486 H 1679.72 -0.0757978 5.51948 0
M  V30 18487 H 1680.2 -1.17881 4.23085 0
M  V30 18488 H 1680.81 0.493375 4.22429 0
M  V30 18489 N 1679.12 -1.49583 0.496242 0
M  V30 18490 C 1680.05 -2.31885 -0.274139 0
M  V30 18491 C 1681.03 -1.39939 -0.96701 0
M  V30 18492 O 1682.22 -1.6885 -0.959333 0
M  V30 18493 C 1679.35 -3.20332 -1.34181 0
M  V30 18494 C 1678.3 -4.21033 -0.769091 0
M  V30 18495 C 1677.63 -4.98385 -1.93693 0
M  V30 18496 C 1678.93 -5.21764 0.236648 0
M  V30 18497 H 1680.62 -2.9654 0.412824 0
M  V30 18498 H 1678.17 -1.42605 0.199979 0
M  V30 18499 H 1680.12 -3.76718 -1.88843 0
M  V30 18500 H 1678.84 -2.53611 -2.05789 0
M  V30 18501 H 1677.5 -3.65785 -0.244252 0
M  V30 18502 H 1677.15 -4.28115 -2.64058 0
M  V30 18503 H 1676.85 -5.66519 -1.55981 0
M  V30 18504 H 1678.38 -5.57613 -2.48798 0
M  V30 18505 H 1679.79 -5.72871 -0.221672 0
M  V30 18506 H 1678.19 -5.97761 0.529346 0
M  V30 18507 H 1679.26 -4.70964 1.15415 0
M  V30 18508 N 1680.6 -0.229873 -1.55915 0
M  V30 18509 C 1681.85 0.399963 -1.97695 0
M  V30 18510 C 1682.16 1.60303 -1.12081 0
M  V30 18511 O 1683.37 2.30292 -1.43797 0
M  V30 18512 C 1681.82 0.762982 -3.51719 0
M  V30 18513 C 1681.43 -0.417738 -4.46048 0
M  V30 18514 C 1683.18 1.35796 -4.02194 0
M  V30 18515 C 1681.08 -0.0318216 -5.91391 0
M  V30 18516 H 1680.01 0.153209 -0.73827 0
M  V30 18517 H 1682.66 -0.327401 -1.80556 0
M  V30 18518 H 1681.05 1.548 -3.6449 0
M  V30 18519 H 1682.22 -1.19523 -4.45029 0
M  V30 18520 H 1680.53 -0.926501 -4.05962 0
M  V30 18521 H 1683.13 1.65974 -5.08288 0
M  V30 18522 H 1683.47 2.27661 -3.48534 0
M  V30 18523 H 1684.01 0.6362 -3.9268 0
M  V30 18524 H 1680.75 -0.917176 -6.49052 0
M  V30 18525 H 1680.27 0.709811 -5.95585 0
M  V30 18526 H 1681.95 0.391966 -6.45812 0
M  V30 18527 N 1682.08 1.5754 0.0434337 0
M  V30 18528 C 1683.03 2.06683 1.067 0
M  V30 18529 C 1684.02 0.977691 1.38339 0
M  V30 18530 O 1685.23 1.16266 1.37412 0
M  V30 18531 H 1681.6 0.659378 0.361559 0
M  V30 18532 H 1683.57 2.91747 0.626605 0
M  V30 18533 C 1682.32 2.54985 2.36385 0
M  V30 18534 H 1681.64 3.384 2.12897 0
M  V30 18535 H 1683.08 2.93095 3.06384 0
M  V30 18536 C 1681.54 1.44484 3.04345 0
M  V30 18537 O 1682.07 0.80291 3.93594 0
M  V30 18538 N 1680.28 1.18292 2.65434 0
M  V30 18539 H 1679.83 1.70676 1.92944 0
M  V30 18540 H 1679.78 0.445676 3.11225 0
M  V30 18541 N 1683.56 -0.31543 1.54411 0
M  V30 18542 C 1684.49 -1.39353 1.87358 0
M  V30 18543 C 1685.47 -1.53586 0.731118 0
M  V30 18544 O 1686.65 -1.67332 0.98558 0
M  V30 18545 C 1683.78 -2.75998 2.10814 0
M  V30 18546 C 1682.74 -2.76545 3.2666 0
M  V30 18547 C 1682.06 -4.16343 3.35504 0
M  V30 18548 C 1683.36 -2.39567 4.64117 0
M  V30 18549 H 1685.06 -1.12028 2.77651 0
M  V30 18550 H 1682.6 -0.537476 1.33593 0
M  V30 18551 H 1684.55 -3.51491 2.32447 0
M  V30 18552 H 1683.28 -3.04817 1.17278 0
M  V30 18553 H 1681.94 -2.03507 3.04927 0
M  V30 18554 H 1681.59 -4.42316 2.39512 0
M  V30 18555 H 1681.29 -4.17613 4.13368 0
M  V30 18556 H 1682.81 -4.93637 3.59381 0
M  V30 18557 H 1684.22 -3.04775 4.85577 0
M  V30 18558 H 1682.62 -2.52075 5.4459 0
M  V30 18559 H 1683.69 -1.34707 4.65813 0
M  V30 18560 N 1685.03 -1.46622 -0.577906 0
M  V30 18561 C 1685.97 -1.52068 -1.70148 0
M  V30 18562 C 1686.95 -0.374405 -1.58231 0
M  V30 18563 O 1688.13 -0.579245 -1.79379 0
M  V30 18564 C 1685.26 -1.40377 -3.0824 0
M  V30 18565 C 1684.3 -2.59247 -3.38664 0
M  V30 18566 S 1685.14 -4.21576 -3.30203 0
M  V30 18567 C 1686.29 -4.12401 -4.70825 0
M  V30 18568 H 1686.52 -2.4713 -1.6527 0
M  V30 18569 H 1684.06 -1.34567 -0.757045 0
M  V30 18570 H 1686.02 -1.34318 -3.87903 0
M  V30 18571 H 1684.68 -0.467354 -3.10604 0
M  V30 18572 H 1683.87 -2.47073 -4.39285 0
M  V30 18573 H 1683.47 -2.6232 -2.66579 0
M  V30 18574 H 1685.76 -3.79378 -5.61319 0
M  V30 18575 H 1686.71 -5.13037 -4.88056 0
M  V30 18576 H 1687.11 -3.43578 -4.479 0
M  V30 18577 N 1686.51 0.822941 -1.34408 0
M  V30 18578 C 1687.42 1.96567 -1.28056 0
M  V30 18579 C 1688.44 1.72979 -0.188251 0
M  V30 18580 O 1689.61 1.97084 -0.41472 0
M  V30 18581 C 1686.68 3.30865 -1.03583 0
M  V30 18582 C 1685.74 3.67461 -2.2197 0
M  V30 18583 C 1684.97 4.9535 -1.98655 0
M  V30 18584 O 1685.2 5.62521 -0.944785 0
M  V30 18585 O 1684.13 5.29824 -2.85605 0
M  V30 18586 H 1687.96 2.0487 -2.24192 0
M  V30 18587 H 1685.54 0.958334 -1.14614 0
M  V30 18588 H 1687.42 4.11298 -0.917162 0
M  V30 18589 H 1686.1 3.2353 -0.104868 0
M  V30 18590 H 1685.01 2.87472 -2.39396 0
M  V30 18591 H 1686.34 3.79481 -3.13456 0
M  V30 18592 N 1687.99 1.18137 1.04314 0
M  V30 18593 C 1688.92 0.929593 2.14198 0
M  V30 18594 C 1689.9 -0.131766 1.69589 0
M  V30 18595 O 1691.09 0.0203104 1.94189 0
M  V30 18596 C 1688.22 0.451799 3.44349 0
M  V30 18597 C 1687.17 1.45336 4.02569 0
M  V30 18598 C 1686.5 0.833176 5.28169 0
M  V30 18599 C 1687.8 2.8293 4.39031 0
M  V30 18600 H 1689.49 1.84856 2.35518 0
M  V30 18601 H 1687.04 0.890217 1.13186 0
M  V30 18602 H 1688.99 0.26303 4.20578 0
M  V30 18603 H 1687.71 -0.502725 3.22708 0
M  V30 18604 H 1686.37 1.62902 3.28418 0
M  V30 18605 H 1686.02 -0.128459 5.02836 0
M  V30 18606 H 1685.72 1.50185 5.68083 0
M  V30 18607 H 1687.24 0.654881 6.07078 0
M  V30 18608 H 1688.66 2.6903 5.06257 0
M  V30 18609 H 1687.06 3.46458 4.89987 0
M  V30 18610 H 1688.13 3.3667 3.48972 0
M  V30 18611 N 1689.47 -1.23186 0.98301 0
M  V30 18612 C 1690.42 -2.24748 0.525082 0
M  V30 18613 C 1691.39 -1.60237 -0.437411 0
M  V30 18614 O 1692.57 -1.87666 -0.344376 0
M  V30 18615 C 1689.71 -3.44711 -0.163809 0
M  V30 18616 C 1688.82 -4.23769 0.839254 0
M  V30 18617 C 1687.96 -5.31053 0.1249 0
M  V30 18618 C 1687 -6.01822 1.117 0
M  V30 18619 N 1686.13 -7.00772 0.431625 0
M  V30 18620 H 1690.97 -2.63283 1.39593 0
M  V30 18621 H 1688.51 -1.29407 0.699438 0
M  V30 18622 H 1690.47 -4.13148 -0.580046 0
M  V30 18623 H 1689.1 -3.06969 -0.998507 0
M  V30 18624 H 1688.15 -3.54724 1.37386 0
M  V30 18625 H 1689.46 -4.72606 1.59515 0
M  V30 18626 H 1688.62 -6.05698 -0.348569 0
M  V30 18627 H 1687.36 -4.83165 -0.663573 0
M  V30 18628 H 1686.36 -5.25967 1.6012 0
M  V30 18629 H 1687.59 -6.51799 1.90618 0
M  V30 18630 H 1685.53 -6.55131 -0.337592 0
M  V30 18631 H 1685.45 -7.47566 1.12613 0
M  V30 18632 H 1686.72 -7.79498 -0.0193703 0
M  V30 18633 N 1690.95 -0.754982 -1.38339 0
M  V30 18634 C 1692.17 -0.321355 -2.04895 0
M  V30 18635 C 1692.6 1.04249 -1.56569 0
M  V30 18636 O 1691.95 1.66464 -0.718299 0
M  V30 18637 C 1692 -0.354873 -3.5885 0
M  V30 18638 O 1691.11 0.65063 -4.07235 0
M  V30 18639 H 1690.45 -0.142033 -0.648631 0
M  V30 18640 H 1692.98 -1.02649 -1.76987 0
M  V30 18641 H 1692.99 -0.206243 -4.07478 0
M  V30 18642 H 1691.66 -1.34994 -3.93382 0
M  V30 18643 H 1690.24 0.466498 -3.69971 0
M  V30 18644 N 1692.42 1.49318 -0.504168 0
M  V30 18645 C 1693.67 2.02462 0.0392265 0
M  V30 18646 C 1694 1.38359 1.36701 0
M  V30 18647 O 1693.25 0.509579 1.88949 0
M  V30 18648 C 1693.55 3.56613 0.237041 0
M  V30 18649 C 1693.22 4.3937 -1.01314 0
M  V30 18650 C 1691.88 4.61704 -1.35583 0
M  V30 18651 C 1694.23 4.8749 -1.84399 0
M  V30 18652 C 1691.56 5.29403 -2.52882 0
M  V30 18653 C 1693.91 5.56479 -3.00854 0
M  V30 18654 C 1692.58 5.77058 -3.35499 0
M  V30 18655 H 1691.85 0.740861 0.014354 0
M  V30 18656 H 1694.49 1.79584 -0.664967 0
M  V30 18657 H 1692.8 3.78188 1.02379 0
M  V30 18658 H 1694.5 3.95329 0.671987 0
M  V30 18659 H 1691.09 4.2223 -0.736213 0
M  V30 18660 H 1695.27 4.7006 -1.59238 0
M  V30 18661 H 1690.53 5.43538 -2.79958 0
M  V30 18662 H 1694.7 5.9274 -3.65558 0
M  V30 18663 H 1692.33 6.29291 -4.26494 0
M  V30 18664 N 1693.9 0.238138 1.5579 0
M  V30 18665 C 1695.32 -0.116908 1.59171 0
M  V30 18666 C 1695.52 -1.57629 1.2552 0
M  V30 18667 O 1694.57 -2.31926 0.998332 0
M  V30 18668 C 1695.89 0.224366 2.99862 0
M  V30 18669 C 1697.44 0.16795 3.12549 0
M  V30 18670 C 1697.91 0.483132 4.55445 0
M  V30 18671 N 1699.4 0.43331 4.61169 0
M  V30 18672 C 1700.14 0.650461 5.69699 0
M  V30 18673 N 1699.63 0.930272 6.86526 0
M  V30 18674 N 1701.43 0.581764 5.59081 0
M  V30 18675 H 1693.58 1.18996 1.75936 0
M  V30 18676 H 1695.84 0.478169 0.818571 0
M  V30 18677 H 1695.55 1.23791 3.29194 0
M  V30 18678 H 1695.42 -0.452738 3.74473 0
M  V30 18679 H 1697.81 -0.836252 2.83003 0
M  V30 18680 H 1697.89 0.878776 2.40231 0
M  V30 18681 H 1697.53 1.48485 4.8571 0
M  V30 18682 H 1697.46 -0.249073 5.26011 0
M  V30 18683 H 1699.95 0.225412 3.77227 0
M  V30 18684 H 1700.27 1.08362 7.65165 0
M  V30 18685 H 1698.61 0.96765 6.88231 0
M  V30 18686 H 1701.8 0.363273 4.66688 0
M  V30 18687 H 1701.97 0.754398 6.43594 0
M  V30 18688 N 1695.38 -1.57561 -0.0350783 0
M  V30 18689 C 1696.61 -1.93251 -0.73903 0
M  V30 18690 C 1697.02 -0.83739 -1.69214 0
M  V30 18691 O 1696.38 0.186669 -1.81543 0
M  V30 18692 C 1696.43 -3.28853 -1.50127 0
M  V30 18693 O 1696.15 -4.34157 -0.586426 0
M  V30 18694 C 1697.65 -3.78788 -2.30292 0
M  V30 18695 H 1694.87 -0.63793 -0.208053 0
M  V30 18696 H 1697.42 -2.04499 0.00560398 0
M  V30 18697 H 1695.57 -3.1902 -2.19784 0
M  V30 18698 H 1695.99 -5.12395 -1.12034 0
M  V30 18699 H 1697.46 -4.76197 -2.79178 0
M  V30 18700 H 1697.94 -3.09671 -3.11449 0
M  V30 18701 H 1698.54 -3.91684 -1.65721 0
M  V30 18702 N 1696.86 0.307236 -1.54576 0
M  V30 18703 C 1697.79 1.38357 -1.88095 0
M  V30 18704 C 1698.77 1.53196 -0.739253 0
M  V30 18705 O 1699.95 1.66807 -0.99444 0
M  V30 18706 C 1697.08 2.74876 -2.12274 0
M  V30 18707 C 1696.04 2.74809 -3.28122 0
M  V30 18708 C 1695.36 4.14557 -3.37707 0
M  V30 18709 C 1696.66 2.37103 -4.65381 0
M  V30 18710 H 1698.36 1.10554 -2.78241 0
M  V30 18711 H 1695.9 0.530383 -1.33877 0
M  V30 18712 H 1697.86 3.50254 -2.34308 0
M  V30 18713 H 1696.58 3.04191 -1.18893 0
M  V30 18714 H 1695.24 2.01887 -3.06002 0
M  V30 18715 H 1694.89 4.41039 -2.41854 0
M  V30 18716 H 1694.59 4.15415 -4.15577 0
M  V30 18717 H 1696.11 4.91724 -3.61994 0
M  V30 18718 H 1697.53 3.02196 -4.87186 0
M  V30 18719 H 1695.92 2.49184 -5.45919 0
M  V30 18720 H 1696.99 1.32235 -4.66521 0
M  V30 18721 N 1698.34 1.46926 0.570122 0
M  V30 18722 C 1699.75 1.32159 0.894766 0
M  V30 18723 C 1699.95 0.302411 1.99218 0
M  V30 18724 O 1699.01 -0.290615 2.50822 0
M  V30 18725 C 1700.32 2.71136 1.30021 0
M  V30 18726 C 1701.87 2.79323 1.41236 0
M  V30 18727 C 1702.34 4.18911 1.85142 0
M  V30 18728 N 1703.84 4.2139 1.92314 0
M  V30 18729 C 1704.57 5.263 2.27588 0
M  V30 18730 N 1704.07 6.41526 2.61565 0
M  V30 18731 N 1705.86 5.13671 2.28251 0
M  V30 18732 H 1698.01 2.11837 -0.154603 0
M  V30 18733 H 1700.27 0.947978 -0.00649658 0
M  V30 18734 H 1699.98 3.47087 0.567775 0
M  V30 18735 H 1699.85 3.02066 2.25911 0
M  V30 18736 H 1702.24 2.03653 2.13564 0
M  V30 18737 H 1702.32 2.52063 0.43566 0
M  V30 18738 H 1701.97 4.95081 1.13389 0
M  V30 18739 H 1701.9 4.43587 2.83792 0
M  V30 18740 H 1704.39 3.38257 1.68495 0
M  V30 18741 H 1704.7 7.17343 2.8747 0
M  V30 18742 H 1703.04 6.44867 2.59175 0
M  V30 18743 H 1706.24 4.22684 2.01137 0
M  V30 18744 H 1706.41 5.95541 2.55412 0
M  V30 18745 N 1699.82 -0.815801 1.34842 0
M  V30 18746 C 1700.78 -1.90871 1.2689 0
M  V30 18747 C 1701.78 -1.59762 0.182445 0
M  V30 18748 O 1702.97 -1.68667 0.435543 0
M  V30 18749 C 1700.1 -3.27081 0.960774 0
M  V30 18750 H 1701.29 -1.99343 2.24059 0
M  V30 18751 H 1698.85 -1.0106 1.19233 0
M  V30 18752 H 1699.58 -3.24299 -0.00744059 0
M  V30 18753 H 1699.37 -3.51045 1.74671 0
M  V30 18754 H 1700.86 -4.07101 0.930494 0
M  V30 18755 N 1701.29 -1.18689 -1.03686 0
M  V30 18756 C 1702.22 -0.94094 -2.13702 0
M  V30 18757 C 1703.2 0.12277 -1.69656 0
M  V30 18758 O 1704.39 -0.0306085 -1.94176 0
M  V30 18759 C 1701.52 -0.470054 -3.44104 0
M  V30 18760 C 1700.47 -1.47468 -4.01792 0
M  V30 18761 C 1699.8 -0.861174 -5.2772 0
M  V30 18762 C 1701.1 -2.85254 -4.37524 0
M  V30 18763 H 1702.79 -1.86102 -2.34534 0
M  V30 18764 H 1700.34 -0.896207 -1.12713 0
M  V30 18765 H 1702.29 -0.28533 -4.20433 0
M  V30 18766 H 1701.02 0.485604 -3.2297 0
M  V30 18767 H 1699.68 -1.64641 -3.2755 0
M  V30 18768 H 1699.32 0.10179 -5.02897 0
M  V30 18769 H 1699.02 -1.53196 -5.67278 0
M  V30 18770 H 1700.55 -0.687066 -6.06722 0
M  V30 18771 H 1701.96 -2.71711 -5.04823 0
M  V30 18772 H 1700.36 -3.49051 -4.88143 0
M  V30 18773 H 1701.43 -3.38516 -3.47181 0
M  V30 18774 N 1702.77 1.22662 -0.989529 0
M  V30 18775 C 1704.19 1.43445 -0.699687 0
M  V30 18776 C 1704.39 1.87778 0.730875 0
M  V30 18777 O 1703.44 2.02953 1.5022 0
M  V30 18778 C 1704.76 2.47869 -1.70239 0
M  V30 18779 C 1706.3 2.61672 -1.71746 0
M  V30 18780 C 1706.78 3.69315 -2.7087 0
M  V30 18781 N 1708.27 3.76768 -2.69444 0
M  V30 18782 C 1709.01 4.59641 -3.42808 0
M  V30 18783 N 1708.5 5.46533 -4.25762 0
M  V30 18784 N 1710.29 4.53921 -3.3153 0
M  V30 18785 H 1702.45 0.921912 -1.91349 0
M  V30 18786 H 1704.71 0.466905 -0.825048 0
M  V30 18787 H 1704.41 2.22233 -2.7259 0
M  V30 18788 H 1704.29 3.46415 -1.49254 0
M  V30 18789 H 1706.68 2.86655 -0.70094 0
M  V30 18790 H 1706.76 1.63413 -1.96799 0
M  V30 18791 H 1706.4 3.4508 -3.72669 0
M  V30 18792 H 1706.33 4.67136 -2.43088 0
M  V30 18793 H 1708.82 3.1468 -2.09249 0
M  V30 18794 H 1709.13 6.06783 -4.78575 0
M  V30 18795 H 1707.48 5.46126 -4.2985 0
M  V30 18796 H 1710.67 3.85062 -2.66168 0
M  V30 18797 H 1710.84 5.18277 -3.88964 0
M  V30 18798 N 1704.25 0.762308 1.37937 0
M  V30 18799 C 1705.66 0.388966 1.82603 0
M  V30 18800 C 1706.01 -1.08362 1.63561 0
M  V30 18801 O 1705.14 -1.83842 1.14154 0
M  V30 18802 C 1705.73 0.699218 3.31506 0
M  V30 18803 C 1704.29 0.379048 3.74487 0
M  V30 18804 C 1703.44 0.947924 2.60595 0
M  V30 18805 H 1706.39 0.957743 1.26542 0
M  V30 18806 H 1706.41 -0.019502 3.80495 0
M  V30 18807 H 1705.92 1.77105 3.45334 0
M  V30 18808 H 1704.02 -0.685844 3.66233 0
M  V30 18809 H 1704.14 0.880697 4.70936 0
M  V30 18810 H 1702.5 0.372746 2.51958 0
M  V30 18811 H 1703.28 2.02496 2.77219 0
M  V30 18812 N 1705.73 -1.49049 0.51208 0
M  V30 18813 C 1706.66 -2.32163 -0.249529 0
M  V30 18814 C 1707.64 -1.40957 -0.952114 0
M  V30 18815 O 1708.82 -1.69858 -0.94137 0
M  V30 18816 C 1705.95 -3.21737 -1.30776 0
M  V30 18817 C 1704.91 -4.21825 -0.724392 0
M  V30 18818 C 1704.23 -5.00411 -1.88396 0
M  V30 18819 C 1705.53 -5.21483 0.291975 0
M  V30 18820 H 1707.23 -2.96086 0.444253 0
M  V30 18821 H 1704.77 -1.42385 0.215093 0
M  V30 18822 H 1706.73 -3.78699 -1.84837 0
M  V30 18823 H 1705.45 -2.55779 -2.03088 0
M  V30 18824 H 1704.11 -3.66024 -0.205441 0
M  V30 18825 H 1703.76 -4.30891 -2.59502 0
M  V30 18826 H 1703.46 -5.68141 -1.49964 0
M  V30 18827 H 1704.98 -5.6022 -2.42869 0
M  V30 18828 H 1706.4 -5.73074 -0.160899 0
M  V30 18829 H 1704.79 -5.97166 0.592717 0
M  V30 18830 H 1705.86 -4.69714 1.20404 0
M  V30 18831 N 1707.21 -0.246397 -1.55662 0
M  V30 18832 C 1708.62 0.108465 -1.59231 0
M  V30 18833 C 1708.82 1.56961 -1.26354 0
M  V30 18834 O 1707.88 2.31393 -1.01062 0
M  V30 18835 C 1709.19 -0.240265 -2.99739 0
M  V30 18836 C 1710.74 -0.184523 -3.12456 0
M  V30 18837 C 1711.21 -0.507279 -4.55182 0
M  V30 18838 N 1712.7 -0.457761 -4.60933 0
M  V30 18839 C 1713.44 -0.680664 -5.69346 0
M  V30 18840 N 1712.94 -0.966667 -6.86023 0
M  V30 18841 N 1714.73 -0.611405 -5.58765 0
M  V30 18842 H 1706.88 -1.19928 -1.75303 0
M  V30 18843 H 1709.14 -0.482503 -0.816024 0
M  V30 18844 H 1708.85 -1.25535 -3.28533 0
M  V30 18845 H 1708.72 0.432872 -3.74708 0
M  V30 18846 H 1711.11 0.821232 -2.83443 0
M  V30 18847 H 1711.19 -0.891504 -2.39762 0
M  V30 18848 H 1710.83 -1.51059 -4.84916 0
M  V30 18849 H 1710.76 0.221174 -5.26135 0
M  V30 18850 H 1713.26 -0.245414 -3.77102 0
M  V30 18851 H 1713.57 -1.12419 -7.6458 0
M  V30 18852 H 1711.91 -1.00413 -6.87708 0
M  V30 18853 H 1715.1 -0.388018 -4.66489 0
M  V30 18854 H 1715.28 -0.788519 -6.43185 0
M  V30 18855 N 1708.68 1.57577 0.026722 0
M  V30 18856 C 1709.65 2.05684 1.01127 0
M  V30 18857 C 1710.65 0.961373 1.28896 0
M  V30 18858 O 1711.84 1.22491 1.23861 0
M  V30 18859 C 1708.97 2.47576 2.34348 0
M  V30 18860 H 1710.16 2.93925 0.595681 0
M  V30 18861 H 1707.71 1.53887 0.273603 0
M  V30 18862 H 1708.45 1.62498 2.80651 0
M  V30 18863 H 1708.23 3.27556 2.15521 0
M  V30 18864 H 1709.72 2.85214 3.05029 0
M  V30 18865 N 1710.16 -0.299034 1.54737 0
M  V30 18866 C 1711.09 -1.37358 1.88826 0
M  V30 18867 C 1712.07 -1.52802 0.747367 0
M  V30 18868 O 1713.26 -1.66277 1.00327 0
M  V30 18869 C 1710.39 -2.73746 2.13729 0
M  V30 18870 C 1709.34 -2.73065 3.29575 0
M  V30 18871 C 1708.67 -4.12761 3.39901 0
M  V30 18872 C 1709.97 -2.34631 4.66632 0
M  V30 18873 H 1711.66 -1.09077 2.78824 0
M  V30 18874 H 1709.21 -0.523276 1.34156 0
M  V30 18875 H 1711.16 -3.49006 2.36162 0
M  V30 18876 H 1709.88 -3.03556 1.20504 0
M  V30 18877 H 1708.54 -2.00261 3.07068 0
M  V30 18878 H 1708.19 -4.39751 2.44189 0
M  V30 18879 H 1707.89 -4.13205 4.17774 0
M  V30 18880 H 1709.42 -4.89797 3.64597 0
M  V30 18881 H 1710.83 -2.99608 4.88782 0
M  V30 18882 H 1709.23 -2.46285 5.47233 0
M  V30 18883 H 1710.3 -1.29759 4.67216 0
M  V30 18884 N 1711.64 -1.47227 -0.562322 0
M  V30 18885 C 1712.86 -1.5744 -1.35008 0
M  V30 18886 C 1713.29 -0.223223 -1.86771 0
M  V30 18887 O 1712.65 0.800078 -1.62691 0
M  V30 18888 C 1712.7 -2.5992 -2.49948 0
M  V30 18889 O 1711.8 -2.14836 -3.52022 0
M  V30 18890 H 1711.14 -0.529064 -0.401232 0
M  V30 18891 H 1713.67 -1.92966 -0.680084 0
M  V30 18892 H 1713.68 -2.80177 -2.96588 0
M  V30 18893 H 1712.36 -3.58031 -2.11629 0
M  V30 18894 H 1710.93 -2.04655 -3.11722 0
M  V30 18895 N 1713.12 0.808639 -1.35273 0
M  V30 18896 C 1714.05 1.92839 -1.23878 0
M  V30 18897 C 1715.06 1.61987 -0.162543 0
M  V30 18898 O 1716.25 1.73593 -0.41564 0
M  V30 18899 C 1713.35 3.27158 -0.884369 0
M  V30 18900 C 1712.52 3.85931 -2.05855 0
M  V30 18901 C 1711.58 4.98652 -1.68025 0
M  V30 18902 O 1710.61 5.16188 -2.39871 0
M  V30 18903 N 1711.81 5.77363 -0.602684 0
M  V30 18904 H 1714.58 2.03141 -2.20349 0
M  V30 18905 H 1712.14 0.985956 -1.28415 0
M  V30 18906 H 1714.13 4.00033 -0.612814 0
M  V30 18907 H 1712.7 3.12599 -0.00940584 0
M  V30 18908 H 1711.92 3.05274 -2.49402 0
M  V30 18909 H 1713.21 4.21929 -2.84347 0
M  V30 18910 H 1712.61 5.657 -0.00570741 0
M  V30 18911 H 1711.16 6.50627 -0.390903 0
M  V30 18912 N 1714.6 1.19237 1.03055 0
M  V30 18913 C 1715.84 0.993971 1.76427 0
M  V30 18914 C 1716.17 -0.475422 1.886 0
M  V30 18915 O 1715.43 -1.36925 1.39821 0
M  V30 18916 C 1715.73 1.60607 3.19281 0
M  V30 18917 C 1715.39 3.10329 3.27119 0
M  V30 18918 C 1714.05 3.51192 3.28965 0
M  V30 18919 C 1716.41 4.0634 3.264 0
M  V30 18920 C 1713.73 4.8662 3.27747 0
M  V30 18921 C 1716.09 5.41696 3.26723 0
M  V30 18922 C 1714.75 5.81992 3.26866 0
M  V30 18923 H 1714.02 0.36372 0.645592 0
M  V30 18924 H 1716.67 1.48455 1.20969 0
M  V30 18925 H 1714.97 1.03775 3.77807 0
M  V30 18926 H 1716.67 1.42786 3.74717 0
M  V30 18927 H 1713.26 2.77769 3.26409 0
M  V30 18928 H 1717.44 3.75814 3.24156 0
M  V30 18929 H 1712.7 5.17123 3.26181 0
M  V30 18930 H 1716.87 6.1585 3.25118 0
M  V30 18931 H 1714.5 6.86905 3.25676 0
M  V30 18932 N 1716.07 -1.22136 0.99602 0
M  V30 18933 C 1716.98 -2.27869 0.557927 0
M  V30 18934 C 1718 -1.69462 -0.394781 0
M  V30 18935 O 1719.18 -1.99704 -0.26084 0
M  V30 18936 C 1716.24 -3.46501 -0.117434 0
M  V30 18937 C 1715.3 -4.20213 0.878627 0
M  V30 18938 C 1714.54 -5.33181 0.2354 0
M  V30 18939 O 1714.76 -5.62093 -0.969954 0
M  V30 18940 O 1713.69 -5.94486 0.941828 0
M  V30 18941 H 1717.52 -2.67517 1.43765 0
M  V30 18942 H 1715.1 -1.28362 0.764428 0
M  V30 18943 H 1716.99 -4.18476 -0.49559 0
M  V30 18944 H 1715.66 -3.08772 -0.971674 0
M  V30 18945 H 1714.57 -3.50497 1.30777 0
M  V30 18946 H 1715.9 -4.6183 1.70217 0
M  V30 18947 N 1717.55 -0.769612 -1.37531 0
M  V30 18948 C 1718.8 -0.332309 -1.99349 0
M  V30 18949 C 1719.12 1.09432 -1.61399 0
M  V30 18950 O 1718.39 1.75102 -0.878415 0
M  V30 18951 H 1716.97 -0.119879 -0.737318 0
M  V30 18952 H 1719.63 -0.987265 -1.68045 0
M  V30 18953 H 1718.73 -0.408233 -3.09419 0
M  V30 18954 N 1719.03 1.48775 -0.519977 0
M  V30 18955 C 1719.96 2.26281 0.295295 0
M  V30 18956 C 1720.94 1.31694 0.953695 0
M  V30 18957 O 1722.13 1.61019 0.980063 0
M  V30 18958 C 1719.25 3.07617 1.41738 0
M  V30 18959 C 1718.3 4.17503 0.871411 0
M  V30 18960 S 1719.13 5.34903 -0.252845 0
M  V30 18961 C 1720.29 6.19797 0.871949 0
M  V30 18962 H 1720.52 2.95082 -0.362498 0
M  V30 18963 H 1718.05 1.51346 -0.305587 0
M  V30 18964 H 1720.01 3.55058 2.0602 0
M  V30 18965 H 1718.67 2.38249 2.04685 0
M  V30 18966 H 1717.87 4.74 1.71288 0
M  V30 18967 H 1717.47 3.7275 0.305463 0
M  V30 18968 H 1719.76 6.53892 1.7729 0
M  V30 18969 H 1720.7 7.07258 0.345174 0
M  V30 18970 H 1721.11 5.52707 1.14784 0
M  V30 18971 N 1720.51 0.254649 1.55529 0
M  V30 18972 C 1721.46 -0.64162 2.21702 0
M  V30 18973 C 1722.43 -1.16544 1.1835 0
M  V30 18974 O 1723.61 -1.2185 1.46824 0
M  V30 18975 C 1720.75 -1.82935 2.92624 0
M  V30 18976 C 1719.86 -1.34132 4.10649 0
M  V30 18977 C 1719 -2.48922 4.69267 0
M  V30 18978 C 1718.04 -1.9702 5.79525 0
M  V30 18979 N 1717.17 -3.05206 6.32293 0
M  V30 18980 H 1722.01 -0.0706476 2.97916 0
M  V30 18981 H 1719.55 -0.0231077 1.47082 0
M  V30 18982 H 1721.51 -2.52719 3.31947 0
M  V30 18983 H 1720.14 -2.37267 2.1887 0
M  V30 18984 H 1719.19 -0.53726 3.76587 0
M  V30 18985 H 1720.5 -0.921003 4.90223 0
M  V30 18986 H 1719.66 -3.26735 5.11203 0
M  V30 18987 H 1718.4 -2.94259 3.88925 0
M  V30 18988 H 1717.4 -1.17679 5.37058 0
M  V30 18989 H 1718.63 -1.52643 6.61723 0
M  V30 18990 H 1716.57 -3.49963 5.54853 0
M  V30 18991 H 1716.49 -2.67528 7.07082 0
M  V30 18992 H 1717.76 -3.83055 6.78888 0
M  V30 18993 N 1721.99 -1.57589 -0.0183649 0
M  V30 18994 C 1723.23 -1.90038 -0.708056 0
M  V30 18995 C 1723.57 -0.853686 -1.7443 0
M  V30 18996 O 1722.84 0.12994 -1.94065 0
M  V30 18997 C 1723.12 -3.33107 -1.3679 0
M  V30 18998 C 1722.98 -4.48479 -0.344448 0
M  V30 18999 C 1724.3 -3.75276 -2.29904 0
M  V30 19000 H 1721.41 -0.691134 -0.255934 0
M  V30 19001 H 1724.06 -1.89978 0.0291579 0
M  V30 19002 H 1722.21 -3.33289 -1.99626 0
M  V30 19003 H 1723.88 -4.60432 0.282816 0
M  V30 19004 H 1722.12 -4.32503 0.335196 0
M  V30 19005 H 1722.79 -5.45497 -0.844832 0
M  V30 19006 H 1725.27 -3.76529 -1.77103 0
M  V30 19007 H 1724.14 -4.76168 -2.73049 0
M  V30 19008 H 1724.41 -3.08124 -3.17036 0
M  V30 19009 N 1723.46 0.290824 -1.54893 0
M  V30 19010 C 1724.71 1.02627 -1.74916 0
M  V30 19011 C 1725.04 1.86572 -0.538921 0
M  V30 19012 O 1724.32 1.88888 0.463844 0
M  V30 19013 C 1724.6 1.92376 -3.04407 0
M  V30 19014 C 1724.45 1.11542 -4.3575 0
M  V30 19015 C 1725.77 2.91383 -3.29824 0
M  V30 19016 H 1722.89 0.371685 -0.636411 0
M  V30 19017 H 1725.53 0.300072 -1.87615 0
M  V30 19018 H 1723.68 2.54295 -2.93711 0
M  V30 19019 H 1725.36 0.518312 -4.58379 0
M  V30 19020 H 1723.6 0.418386 -4.31778 0
M  V30 19021 H 1724.27 1.77616 -5.22644 0
M  V30 19022 H 1726.75 2.39595 -3.40196 0
M  V30 19023 H 1725.62 3.51338 -4.21726 0
M  V30 19024 H 1725.88 3.65579 -2.48606 0
M  V30 19025 N 1724.94 1.47523 0.554506 0
M  V30 19026 C 1726.19 1.54515 1.3135 0
M  V30 19027 C 1726.52 0.207892 1.93084 0
M  V30 19028 O 1725.8 -0.783749 1.7801 0
M  V30 19029 C 1726.08 2.66519 2.42156 0
M  V30 19030 C 1725.93 4.0987 1.85274 0
M  V30 19031 C 1727.25 2.74418 3.44068 0
M  V30 19032 H 1724.37 0.562481 0.476219 0
M  V30 19033 H 1727.01 1.79591 0.620246 0
M  V30 19034 H 1725.16 2.45268 3.0129 0
M  V30 19035 H 1726.83 4.42492 1.3038 0
M  V30 19036 H 1725.08 4.18021 1.15934 0
M  V30 19037 H 1725.75 4.84017 2.65389 0
M  V30 19038 H 1728.22 2.93596 2.94857 0
M  V30 19039 H 1727.1 3.54557 4.19023 0
M  V30 19040 H 1727.36 1.81584 4.03088 0
M  V30 19041 N 1726.42 -0.801453 1.357 0
M  V30 19042 C 1727.37 -1.93495 1.29083 0
M  V30 19043 C 1728.36 -1.68389 0.184806 0
M  V30 19044 O 1729.57 -1.76543 0.351097 0
M  V30 19045 H 1725.94 -0.635809 0.40156 0
M  V30 19046 H 1727.91 -1.96195 2.24833 0
M  V30 19047 C 1726.66 -3.30342 1.08487 0
M  V30 19048 H 1725.99 -3.50221 1.92835 0
M  V30 19049 H 1727.43 -4.10041 1.079 0
M  V30 19050 C 1725.89 -3.36238 -0.211057 0
M  V30 19051 O 1726.42 -3.83198 -1.20508 0
M  V30 19052 N 1724.62 -2.89509 -0.251599 0
M  V30 19053 H 1724.17 -2.51486 0.557916 0
M  V30 19054 H 1724.13 -2.93836 -1.11839 0
M  V30 19055 N 1727.9 -1.19782 -1.02421 0
M  V30 19056 C 1728.86 -0.941631 -2.08964 0
M  V30 19057 C 1729.86 0.0797747 -1.60602 0
M  V30 19058 O 1731.05 -0.155473 -1.73505 0
M  V30 19059 C 1728.18 -0.416114 -3.38351 0
M  V30 19060 H 1729.38 -1.88661 -2.33125 0
M  V30 19061 H 1726.93 -1.01212 -1.19104 0
M  V30 19062 H 1727.66 0.53469 -3.19862 0
M  V30 19063 H 1727.45 -1.15262 -3.74776 0
M  V30 19064 H 1728.94 -0.256114 -4.16814 0
M  V30 19065 N 1729.38 1.21606 -1.00248 0
M  V30 19066 C 1730.31 2.26159 -0.580911 0
M  V30 19067 C 1731.29 1.65402 0.397017 0
M  V30 19068 O 1732.47 1.92089 0.285552 0
M  V30 19069 C 1729.6 3.47168 0.0957564 0
M  V30 19070 C 1728.56 4.20425 -0.801695 0
M  V30 19071 C 1727.88 5.34699 0.00842241 0
M  V30 19072 C 1729.18 4.78086 -2.10311 0
M  V30 19073 H 1730.88 2.61675 -1.45487 0
M  V30 19074 H 1728.42 1.25786 -0.700995 0
M  V30 19075 H 1730.38 4.19477 0.402141 0
M  V30 19076 H 1729.1 3.10775 1.00433 0
M  V30 19077 H 1727.76 3.49963 -1.09187 0
M  V30 19078 H 1727.41 4.94548 0.918206 0
M  V30 19079 H 1727.11 5.84639 -0.589105 0
M  V30 19080 H 1728.63 6.09819 0.30868 0
M  V30 19081 H 1730.05 5.42287 -1.86004 0
M  V30 19082 H 1728.44 5.38405 -2.65028 0
M  V30 19083 H 1729.51 3.97607 -2.77555 0
M  V30 19084 N 1730.86 0.776895 1.37121 0
M  V30 19085 C 1732.1 0.340209 1.9881 0
M  V30 19086 C 1732.42 -1.09071 1.62367 0
M  V30 19087 O 1733.62 -1.62904 2.17197 0
M  V30 19088 C 1732.08 0.557325 3.55559 0
M  V30 19089 C 1731.69 1.99884 4.00937 0
M  V30 19090 C 1733.43 0.184519 4.24099 0
M  V30 19091 C 1731.34 2.16328 5.50415 0
M  V30 19092 H 1730.27 0.12346 0.743824 0
M  V30 19093 H 1732.92 0.956754 1.56584 0
M  V30 19094 H 1731.3 -0.128752 3.95791 0
M  V30 19095 H 1732.48 2.72029 3.71937 0
M  V30 19096 H 1730.79 2.32872 3.45195 0
M  V30 19097 H 1733.39 0.285827 5.33935 0
M  V30 19098 H 1733.73 -0.865859 4.07196 0
M  V30 19099 H 1734.26 0.823343 3.89186 0
M  V30 19100 H 1731 3.19703 5.7225 0
M  V30 19101 H 1730.52 1.48673 5.81082 0
M  V30 19102 H 1732.2 1.96437 6.16459 0
M  V30 19103 N 1732.33 -1.48497 0.527859 0
M  V30 19104 C 1733.58 -2.02099 -0.00699772 0
M  V30 19105 C 1733.9 -1.40742 -1.34969 0
M  V30 19106 O 1733.17 -0.572059 -1.87361 0
M  V30 19107 H 1731.75 -0.746979 -0.00557445 0
M  V30 19108 H 1734.41 -1.82231 0.691209 0
M  V30 19109 H 1733.51 -3.11881 -0.116893 0
M  V30 19110 N 1733.81 -0.262893 -1.55392 0
M  V30 19111 C 1734.77 0.616662 -2.20749 0
M  V30 19112 C 1735.77 1.09066 -1.18158 0
M  V30 19113 O 1736.96 0.992797 -1.4314 0
M  V30 19114 C 1734.1 1.84937 -2.86376 0
M  V30 19115 H 1735.29 0.0462013 -2.99864 0
M  V30 19116 H 1732.84 -0.013432 -1.56294 0
M  V30 19117 H 1733.58 2.46066 -2.1124 0
M  V30 19118 H 1733.36 1.51754 -3.61543 0
M  V30 19119 H 1734.85 2.47511 -3.36345 0
M  V30 19120 N 1735.29 1.57597 0.0100073 0
M  V30 19121 C 1736.54 1.89308 0.696075 0
M  V30 19122 C 1736.85 0.863884 1.75489 0
M  V30 19123 O 1738.06 1.07087 2.49489 0
M  V30 19124 C 1736.51 3.36017 1.2892 0
M  V30 19125 C 1736.12 4.47211 0.265731 0
M  V30 19126 C 1737.87 3.76852 1.95404 0
M  V30 19127 C 1735.77 5.84991 0.868277 0
M  V30 19128 H 1734.7 0.706368 0.263744 0
M  V30 19129 H 1737.35 1.83435 -0.0488972 0
M  V30 19130 H 1735.74 3.36696 2.08451 0
M  V30 19131 H 1736.91 4.58033 -0.504256 0
M  V30 19132 H 1735.22 4.15332 -0.298096 0
M  V30 19133 H 1737.82 4.77121 2.41371 0
M  V30 19134 H 1738.16 3.09841 2.78036 0
M  V30 19135 H 1738.7 3.7843 1.22621 0
M  V30 19136 H 1735.44 6.5545 0.0809513 0
M  V30 19137 H 1734.96 5.77853 1.60766 0
M  V30 19138 H 1736.64 6.32331 1.36993 0
M  V30 19139 N 1736.77 -0.282606 1.55045 0
M  V30 19140 C 1738.18 -0.854338 1.66006 0
M  V30 19141 C 1738.53 -1.87408 0.580753 0
M  V30 19142 O 1737.65 -2.14588 -0.279449 0
M  V30 19143 C 1738.25 -1.55637 3.00936 0
M  V30 19144 C 1736.81 -2.07626 3.13956 0
M  V30 19145 C 1735.96 -0.915064 2.61767 0
M  V30 19146 H 1738.91 -0.0591711 1.5859 0
M  V30 19147 H 1738.93 -2.42289 2.93388 0
M  V30 19148 H 1738.44 -0.813942 3.79469 0
M  V30 19149 H 1736.54 -2.84859 2.40179 0
M  V30 19150 H 1736.65 -2.29816 4.20382 0
M  V30 19151 H 1735.02 -1.30577 2.18682 0
M  V30 19152 H 1735.8 -0.186298 3.42794 0
M  V30 19153 N 1738.25 -1.47815 -0.546675 0
M  V30 19154 C 1739.21 -1.6063 -1.63495 0
M  V30 19155 C 1740.21 -0.480661 -1.53448 0
M  V30 19156 O 1741.4 -0.746017 -1.57417 0
M  V30 19157 C 1738.53 -1.56076 -3.03073 0
M  V30 19158 H 1739.72 -2.57652 -1.53478 0
M  V30 19159 H 1737.28 -1.36162 -0.767433 0
M  V30 19160 H 1738.01 -0.604694 -3.18613 0
M  V30 19161 H 1737.8 -2.3778 -3.11774 0
M  V30 19162 H 1739.29 -1.68204 -3.82227 0
M  V30 19163 N 1739.72 0.794246 -1.36123 0
M  V30 19164 C 1740.97 1.54708 -1.29416 0
M  V30 19165 C 1741.29 1.95195 0.125849 0
M  V30 19166 O 1742.49 2.69663 0.315271 0
M  V30 19167 C 1740.95 2.79256 -2.27034 0
M  V30 19168 C 1740.56 2.45957 -3.74445 0
M  V30 19169 C 1742.3 3.57246 -2.29294 0
M  V30 19170 C 1740.21 3.66871 -4.63853 0
M  V30 19171 H 1739.14 0.580743 -0.480888 0
M  V30 19172 H 1741.79 0.871975 -1.61458 0
M  V30 19173 H 1740.17 3.4854 -1.87979 0
M  V30 19174 H 1741.34 1.846 -4.22208 0
M  V30 19175 H 1739.66 1.81187 -3.74913 0
M  V30 19176 H 1742.26 4.47076 -2.93304 0
M  V30 19177 H 1742.6 3.95478 -1.30011 0
M  V30 19178 H 1743.13 2.94936 -2.66941 0
M  V30 19179 H 1739.87 3.33739 -5.6418 0
M  V30 19180 H 1739.39 4.27411 -4.20809 0
M  V30 19181 H 1741.07 4.33957 -4.79886 0
M  V30 19182 N 1741.2 1.20323 1.01785 0
M  V30 19183 C 1742.13 0.974819 2.12178 0
M  V30 19184 C 1743.11 -0.0957637 1.6983 0
M  V30 19185 O 1744.3 0.0614963 1.94103 0
M  V30 19186 C 1741.43 0.524739 3.43313 0
M  V30 19187 C 1740.38 1.53842 3.99395 0
M  V30 19188 C 1739.71 0.945021 5.26283 0
M  V30 19189 C 1741.01 2.92179 4.3293 0
M  V30 19190 H 1742.7 1.8981 2.31544 0
M  V30 19191 H 1740.25 0.914025 1.11273 0
M  V30 19192 H 1742.2 0.352182 4.19926 0
M  V30 19193 H 1740.92 -0.434161 3.23701 0
M  V30 19194 H 1739.58 1.69832 3.24889 0
M  V30 19195 H 1739.23 -0.0217709 5.02995 0
M  V30 19196 H 1738.93 1.62201 5.64769 0
M  V30 19197 H 1740.46 0.783504 6.05552 0
M  V30 19198 H 1741.87 2.79708 5.00436 0
M  V30 19199 H 1740.27 3.56773 4.82528 0
M  V30 19200 H 1741.34 3.43997 3.41752 0
M  V30 19201 N 1742.68 -1.21073 1.00892 0
M  V30 19202 C 1743.63 -2.25613 0.565829 0
M  V30 19203 C 1744.62 -1.64812 -0.391588 0
M  V30 19204 O 1745.83 -1.78078 -0.262352 0
M  V30 19205 H 1742.2 -0.733755 0.164643 0
M  V30 19206 H 1744.17 -2.60321 1.45862 0
M  V30 19207 C 1742.92 -3.47589 -0.087861 0
M  V30 19208 H 1742.25 -3.94647 0.639828 0
M  V30 19209 H 1743.69 -4.22459 -0.361115 0
M  V30 19210 C 1742.14 -3.09609 -1.32829 0
M  V30 19211 O 1742.67 -3.20449 -2.4223 0
M  V30 19212 N 1740.88 -2.64234 -1.2095 0
M  V30 19213 H 1740.43 -2.55613 -0.319301 0
M  V30 19214 H 1740.39 -2.39191 -2.04046 0
M  V30 19215 N 1744.16 -0.784156 -1.36707 0
M  V30 19216 C 1745.4 -0.354658 -1.99675 0
M  V30 19217 C 1745.74 1.06948 -1.62098 0
M  V30 19218 O 1745.01 1.73798 -0.873192 0
M  V30 19219 C 1745.3 -0.512421 -3.56435 0
M  V30 19220 C 1745.15 -1.97987 -4.03883 0
M  V30 19221 C 1746.47 0.075762 -4.40035 0
M  V30 19222 H 1743.59 -0.130338 -0.725383 0
M  V30 19223 H 1746.23 -0.989515 -1.62199 0
M  V30 19224 H 1744.38 0.0280323 -3.8849 0
M  V30 19225 H 1746.05 -2.58098 -3.82339 0
M  V30 19226 H 1744.29 -2.48433 -3.55617 0
M  V30 19227 H 1744.96 -2.04125 -5.12871 0
M  V30 19228 H 1747.44 -0.385522 -4.1431 0
M  V30 19229 H 1746.32 -0.0646832 -5.48862 0
M  V30 19230 H 1746.58 1.16735 -4.2641 0
M  V30 19231 N 1745.64 1.48215 -0.535727 0
M  V30 19232 C 1746.57 2.3253 0.212562 0
M  V30 19233 C 1747.55 1.42454 0.929568 0
M  V30 19234 O 1748.73 1.71334 0.914228 0
M  V30 19235 C 1745.86 3.23777 1.25641 0
M  V30 19236 C 1744.82 4.22924 0.657191 0
M  V30 19237 C 1744.14 5.03345 1.80411 0
M  V30 19238 C 1745.44 5.20953 -0.374902 0
M  V30 19239 H 1747.14 2.95341 -0.491301 0
M  V30 19240 H 1744.68 1.42024 -0.237718 0
M  V30 19241 H 1746.64 3.81592 1.78789 0
M  V30 19242 H 1745.36 2.58978 1.98993 0
M  V30 19243 H 1744.02 3.66304 0.147184 0
M  V30 19244 H 1743.67 4.34965 2.52615 0
M  V30 19245 H 1743.37 5.70455 1.40906 0
M  V30 19246 H 1744.89 5.64013 2.33926 0
M  V30 19247 H 1746.3 5.73258 0.0697072 0
M  V30 19248 H 1744.7 5.96147 -0.687646 0
M  V30 19249 H 1745.77 4.67739 -1.27861 0
M  V30 19250 N 1747.11 0.27113 1.5525 0
M  V30 19251 C 1748.04 -0.61179 2.25343 0
M  V30 19252 C 1749.03 -1.16208 1.24216 0
M  V30 19253 O 1750.21 -1.19696 1.52927 0
M  V30 19254 C 1747.34 -1.7978 2.97147 0
M  V30 19255 C 1746.29 -1.37922 4.05169 0
M  V30 19256 C 1745.62 -2.64801 4.64526 0
M  V30 19257 C 1746.92 -0.532357 5.1958 0
M  V30 19258 H 1748.61 -0.0272538 2.99388 0
M  V30 19259 H 1746.16 -0.0116681 1.43995 0
M  V30 19260 H 1748.11 -2.42132 3.44891 0
M  V30 19261 H 1746.84 -2.40811 2.20631 0
M  V30 19262 H 1745.5 -0.778918 3.5823 0
M  V30 19263 H 1745.14 -3.24081 3.84682 0
M  V30 19264 H 1744.84 -2.37507 5.37461 0
M  V30 19265 H 1746.37 -3.28009 5.15017 0
M  V30 19266 H 1747.78 -1.06078 5.63401 0
M  V30 19267 H 1746.18 -0.35447 5.99052 0
M  V30 19268 H 1747.25 0.44981 4.82809 0
M  V30 19269 N 1748.59 -1.576 -0.00164943 0
M  V30 19270 C 1749.84 -1.90778 -0.68786 0
M  V30 19271 C 1750.17 -0.872138 -1.73515 0
M  V30 19272 O 1749.45 0.109349 -1.94192 0
M  V30 19273 C 1749.73 -3.34539 -1.3325 0
M  V30 19274 C 1749.58 -4.48819 -0.296862 0
M  V30 19275 C 1750.9 -3.77693 -2.25911 0
M  V30 19276 H 1748.02 -0.69381 -0.24859 0
M  V30 19277 H 1750.66 -1.89936 0.0493059 0
M  V30 19278 H 1748.81 -3.35388 -1.9608 0
M  V30 19279 H 1750.48 -4.60106 0.331635 0
M  V30 19280 H 1748.73 -4.32123 0.38105 0
M  V30 19281 H 1749.4 -5.46362 -0.786927 0
M  V30 19282 H 1751.87 -3.78386 -1.73099 0
M  V30 19283 H 1750.75 -4.79037 -2.67983 0
M  V30 19284 H 1751.01 -3.11469 -3.1375 0
M  V30 19285 N 1750.07 0.274379 -1.55193 0
M  V30 19286 C 1751.31 1.01383 -1.77485 0
M  V30 19287 C 1751.67 1.83549 -0.563373 0
M  V30 19288 O 1752.88 2.60457 -0.664517 0
M  V30 19289 C 1751.15 1.87414 -3.0432 0
M  V30 19290 S 1752.71 2.67644 -3.47725 0
M  V30 19291 H 1749.52 0.341489 -0.623623 0
M  V30 19292 H 1752.13 0.284398 -1.9342 0
M  V30 19293 H 1750.83 1.25974 -3.90588 0
M  V30 19294 H 1750.36 2.6468 -2.91046 0
M  V30 19295 H 1752.38 3.89914 -3.06889 0
M  V30 19296 N 1751.55 1.48103 0.538828 0
M  V30 19297 C 1752.48 1.64856 1.65363 0
M  V30 19298 C 1753.46 0.497579 1.6266 0
M  V30 19299 O 1754.64 0.729088 1.79994 0
M  V30 19300 C 1751.77 1.67984 3.03971 0
M  V30 19301 C 1750.73 2.82494 3.21529 0
M  V30 19302 C 1750.05 2.70706 4.6111 0
M  V30 19303 C 1751.35 4.23892 3.05145 0
M  V30 19304 H 1753.05 2.58183 1.51598 0
M  V30 19305 H 1750.59 1.24249 0.727886 0
M  V30 19306 H 1752.55 1.78294 3.81824 0
M  V30 19307 H 1751.27 0.712299 3.18738 0
M  V30 19308 H 1749.93 2.71725 2.46091 0
M  V30 19309 H 1749.58 1.7194 4.727 0
M  V30 19310 H 1749.28 3.47539 4.73804 0
M  V30 19311 H 1750.8 2.82971 5.41073 0
M  V30 19312 H 1752.22 4.3554 3.72797 0
M  V30 19313 H 1750.61 5.01654 3.29338 0
M  V30 19314 H 1751.68 4.40973 2.01671 0
M  V30 19315 N 1753.03 -0.787016 1.36542 0
M  V30 19316 C 1754.28 -1.54019 1.30234 0
M  V30 19317 C 1754.59 -1.95259 -0.115496 0
M  V30 19318 O 1755.79 -2.69827 -0.300966 0
M  V30 19319 C 1754.25 -2.78048 2.28512 0
M  V30 19320 C 1753.86 -2.43968 3.75744 0
M  V30 19321 C 1755.6 -3.56025 2.31185 0
M  V30 19322 C 1753.51 -3.64406 4.65792 0
M  V30 19323 H 1752.44 -0.578185 0.483961 0
M  V30 19324 H 1755.09 -0.8634 1.61919 0
M  V30 19325 H 1753.47 -3.47538 1.89824 0
M  V30 19326 H 1754.65 -1.82359 4.23181 0
M  V30 19327 H 1752.96 -1.79197 3.75869 0
M  V30 19328 H 1755.56 -4.45514 2.9567 0
M  V30 19329 H 1755.9 -3.94783 1.32107 0
M  V30 19330 H 1756.43 -2.93516 2.68502 0
M  V30 19331 H 1753.17 -3.30742 5.65942 0
M  V30 19332 H 1752.69 -4.25173 4.2307 0
M  V30 19333 H 1754.37 -4.31406 4.82181 0
M  V30 19334 N 1754.5 -1.20861 -1.01145 0
M  V30 19335 C 1755.75 -1.02191 -1.74823 0
M  V30 19336 C 1756.08 0.445357 -1.89333 0
M  V30 19337 O 1755.33 1.34684 -1.41982 0
M  V30 19338 C 1755.63 -1.65666 -3.16685 0
M  V30 19339 C 1755.3 -3.15494 -3.2214 0
M  V30 19340 C 1753.96 -3.56381 -3.23336 0
M  V30 19341 C 1756.31 -4.11481 -3.19895 0
M  V30 19342 C 1753.64 -4.91772 -3.19964 0
M  V30 19343 C 1755.99 -5.46826 -3.18064 0
M  V30 19344 C 1754.66 -5.87118 -3.17566 0
M  V30 19345 H 1753.93 -0.373945 -0.639724 0
M  V30 19346 H 1756.57 -1.50361 -1.18592 0
M  V30 19347 H 1754.88 -1.09772 -3.76108 0
M  V30 19348 H 1756.58 -1.4873 -3.72398 0
M  V30 19349 H 1753.17 -2.82926 -3.21948 0
M  V30 19350 H 1757.35 -3.80924 -3.18136 0
M  V30 19351 H 1752.61 -5.22247 -3.17913 0
M  V30 19352 H 1756.78 -6.20945 -3.15279 0
M  V30 19353 H 1754.41 -6.92 -3.14707 0
M  V30 19354 N 1755.98 1.20536 -1.01532 0
M  V30 19355 C 1757.23 1.90431 -0.714682 0
M  V30 19356 C 1757.58 1.77289 0.747413 0
M  V30 19357 O 1756.88 1.1455 1.53587 0
M  V30 19358 C 1757.07 3.40578 -1.08358 0
M  V30 19359 C 1756.9 3.6833 -2.57999 0
M  V30 19360 C 1755.67 3.87115 -3.24762 0
M  V30 19361 C 1757.87 3.70996 -3.56183 0
M  V30 19362 N 1755.85 4.02375 -4.63646 0
M  V30 19363 C 1757.22 3.91664 -4.80624 0
M  V30 19364 C 1759.28 3.53953 -3.50174 0
M  V30 19365 C 1757.98 3.97056 -5.99782 0
M  V30 19366 C 1760 3.60615 -4.68733 0
M  V30 19367 C 1759.37 3.81755 -5.91982 0
M  V30 19368 H 1755.47 0.716554 -0.313169 0
M  V30 19369 H 1758.05 1.44951 -1.29989 0
M  V30 19370 H 1756.22 3.84812 -0.526718 0
M  V30 19371 H 1757.95 3.9794 -0.736599 0
M  V30 19372 H 1754.71 3.85444 -2.7519 0
M  V30 19373 H 1755.13 4.13884 -5.35751 0
M  V30 19374 H 1759.77 3.36576 -2.55883 0
M  V30 19375 H 1757.49 4.13229 -6.94455 0
M  V30 19376 H 1761.08 3.48737 -4.65697 0
M  V30 19377 H 1759.96 3.86768 -6.82188 0
M  V30 19378 N 1757.46 0.791395 1.36289 0
M  V30 19379 C 1758.39 0.205419 2.32595 0
M  V30 19380 C 1759.37 -0.660696 1.56744 0
M  V30 19381 O 1760.56 -0.594111 1.84889 0
M  V30 19382 C 1757.69 -0.659018 3.4099 0
M  V30 19383 C 1756.64 0.107364 4.27865 0
M  V30 19384 C 1755.97 -0.877795 5.27446 0
M  V30 19385 C 1757.27 1.29769 5.05922 0
M  V30 19386 H 1758.96 1.00999 2.8185 0
M  V30 19387 H 1756.51 0.487122 1.35511 0
M  V30 19388 H 1758.46 -1.07891 4.07354 0
M  V30 19389 H 1757.18 -1.49632 2.90307 0
M  V30 19390 H 1755.84 0.508253 3.6306 0
M  V30 19391 H 1755.49 -1.71018 4.73035 0
M  V30 19392 H 1755.19 -0.369429 5.86438 0
M  V30 19393 H 1756.71 -1.29621 5.96683 0
M  V30 19394 H 1758.13 0.953463 5.65316 0
M  V30 19395 H 1756.53 1.73949 5.74336 0
M  V30 19396 H 1757.6 2.09205 4.37449 0
M  V30 19397 N 1758.94 -1.47929 0.54358 0
M  V30 19398 C 1760.19 -2.02795 0.014488 0
M  V30 19399 C 1760.52 -1.41848 -1.32638 0
M  V30 19400 O 1759.79 -0.569099 -1.85988 0
M  V30 19401 C 1760.08 -3.5998 -0.093097 0
M  V30 19402 C 1759.93 -4.31384 1.2739 0
M  V30 19403 C 1761.25 -4.32521 -0.813251 0
M  V30 19404 H 1758.37 -0.736969 0.00673905 0
M  V30 19405 H 1761.01 -1.76507 0.703238 0
M  V30 19406 H 1759.16 -3.82508 -0.679685 0
M  V30 19407 H 1760.83 -4.20235 1.90264 0
M  V30 19408 H 1759.07 -3.9227 1.85221 0
M  V30 19409 H 1759.75 -5.39856 1.15148 0
M  V30 19410 H 1762.22 -4.14903 -0.315334 0
M  V30 19411 H 1761.1 -5.42161 -0.857456 0
M  V30 19412 H 1761.36 -4.00768 -1.86649 0
M  V30 19413 N 1760.42 -0.27936 -1.55104 0
M  V30 19414 C 1761.66 0.336205 -1.9969 0
M  V30 19415 C 1761.99 1.55542 -1.16777 0
M  V30 19416 O 1761.25 1.94385 -0.226497 0
M  V30 19417 C 1761.55 0.758312 -3.49263 0
M  V30 19418 C 1761.21 -0.356741 -4.49487 0
M  V30 19419 C 1759.87 -0.662905 -4.76612 0
M  V30 19420 C 1762.23 -1.10789 -5.09289 0
M  V30 19421 C 1759.55 -1.72373 -5.60807 0
M  V30 19422 C 1761.91 -2.15847 -5.94637 0
M  V30 19423 C 1760.57 -2.47094 -6.20081 0
M  V30 19424 H 1759.84 0.123026 -0.730716 0
M  V30 19425 H 1762.49 -0.393956 -1.87404 0
M  V30 19426 H 1760.79 1.56822 -3.59046 0
M  V30 19427 H 1762.49 1.24541 -3.8117 0
M  V30 19428 H 1759.08 -0.107997 -4.28464 0
M  V30 19429 H 1763.26 -0.884619 -4.88353 0
M  V30 19430 H 1758.52 -1.97079 -5.78766 0
M  V30 19431 H 1762.69 -2.74523 -6.40008 0
M  V30 19432 H 1760.32 -3.29428 -6.85114 0
M  V30 19433 N 1761.9 1.57599 -0.0067085 0
M  V30 19434 C 1763.14 1.92717 0.681153 0
M  V30 19435 C 1763.5 0.881593 1.70564 0
M  V30 19436 O 1764.7 1.11823 2.44436 0
M  V30 19437 C 1762.97 3.32858 1.30155 0
M  V30 19438 S 1764.53 3.89871 2.0136 0
M  V30 19439 H 1761.35 0.674515 0.224833 0
M  V30 19440 H 1763.95 1.95392 -0.0650048 0
M  V30 19441 H 1762.65 4.0679 0.54318 0
M  V30 19442 H 1762.19 3.33573 2.0855 0
M  V30 19443 H 1764.2 3.7149 3.28952 0
M  V30 19444 N 1763.37 -0.266145 1.55336 0
M  V30 19445 C 1764.62 -0.994648 1.7547 0
M  V30 19446 C 1764.94 -1.87201 0.56702 0
M  V30 19447 O 1766.14 -2.63582 0.650924 0
M  V30 19448 C 1764.6 -1.81844 3.10581 0
M  V30 19449 C 1764.21 -0.989413 4.36938 0
M  V30 19450 C 1765.95 -2.54084 3.40061 0
M  V30 19451 C 1763.86 -1.80799 5.63086 0
M  V30 19452 H 1762.79 -0.375097 0.654078 0
M  V30 19453 H 1765.44 -0.25004 1.81788 0
M  V30 19454 H 1763.82 -2.60427 2.98318 0
M  V30 19455 H 1764.99 -0.247271 4.60136 0
M  V30 19456 H 1763.31 -0.38125 4.14651 0
M  V30 19457 H 1765.91 -3.15744 4.3152 0
M  V30 19458 H 1766.25 -3.2472 2.60505 0
M  V30 19459 H 1766.78 -1.82526 3.53453 0
M  V30 19460 H 1763.52 -1.14571 6.4541 0
M  V30 19461 H 1763.04 -2.52592 5.4402 0
M  V30 19462 H 1764.72 -2.37994 6.01638 0
M  V30 19463 N 1764.85 -1.48386 -0.530967 0
M  V30 19464 C 1765.78 -1.6573 -1.64486 0
M  V30 19465 C 1766.76 -0.506198 -1.62393 0
M  V30 19466 O 1767.95 -0.738623 -1.79605 0
M  V30 19467 C 1765.08 -1.69594 -3.03076 0
M  V30 19468 C 1764.03 -2.84195 -3.20027 0
M  V30 19469 C 1763.36 -2.73148 -4.59668 0
M  V30 19470 C 1764.66 -4.25504 -3.02892 0
M  V30 19471 H 1766.35 -2.58983 -1.50227 0
M  V30 19472 H 1763.9 -1.24633 -0.721286 0
M  V30 19473 H 1765.85 -1.80316 -3.80873 0
M  V30 19474 H 1764.57 -0.729193 -3.18356 0
M  V30 19475 H 1763.23 -2.73027 -2.44647 0
M  V30 19476 H 1762.88 -1.74444 -4.71782 0
M  V30 19477 H 1762.58 -3.50047 -4.71954 0
M  V30 19478 H 1764.11 -2.85836 -5.39565 0
M  V30 19479 H 1765.52 -4.37511 -3.70482 0
M  V30 19480 H 1763.92 -5.03393 -3.26673 0
M  V30 19481 H 1764.99 -4.42036 -1.99329 0
M  V30 19482 N 1766.33 0.779763 -1.36958 0
M  V30 19483 C 1767.58 1.53499 -1.31463 0
M  V30 19484 C 1767.9 1.94728 0.102869 0
M  V30 19485 O 1767.17 1.65688 1.0452 0
M  V30 19486 H 1765.75 0.5693 -0.483638 0
M  V30 19487 H 1768.41 0.928536 -1.7136 0
M  V30 19488 H 1767.51 2.4381 -1.94841 0
M  V30 19489 N 1767.81 1.21396 1.00503 0
M  V30 19490 C 1769.05 1.0327 1.74537 0
M  V30 19491 C 1769.39 -0.432746 1.89317 0
M  V30 19492 O 1768.66 -1.32111 1.42747 0
M  V30 19493 C 1768.94 1.73045 3.15797 0
M  V30 19494 C 1768.8 3.27108 3.0874 0
M  V30 19495 C 1770.12 1.47298 4.14718 0
M  V30 19496 H 1767.24 0.376563 0.633537 0
M  V30 19497 H 1769.88 1.49571 1.17169 0
M  V30 19498 H 1768.03 1.33682 3.64776 0
M  V30 19499 H 1769.7 3.75839 2.67475 0
M  V30 19500 H 1767.94 3.57413 2.45843 0
M  V30 19501 H 1768.61 3.71096 4.08646 0
M  V30 19502 H 1771.09 1.81468 3.74444 0
M  V30 19503 H 1769.97 1.98633 5.11699 0
M  V30 19504 H 1770.23 0.402981 4.4026 0
M  V30 19505 N 1769.29 -1.19996 1.0217 0
M  V30 19506 C 1770.52 -1.93186 0.732311 0
M  V30 19507 C 1770.92 -1.75303 -0.711724 0
M  V30 19508 O 1770.27 -1.06756 -1.49495 0
M  V30 19509 C 1770.33 -3.45466 0.994655 0
M  V30 19510 C 1769.99 -3.87114 2.42882 0
M  V30 19511 C 1770.99 -3.92459 3.40987 0
M  V30 19512 C 1768.67 -4.18958 2.77091 0
M  V30 19513 C 1770.67 -4.29067 4.7136 0
M  V30 19514 C 1768.36 -4.5524 4.07676 0
M  V30 19515 C 1769.35 -4.60267 5.04622 0
M  V30 19516 O 1769.04 -4.95713 6.32869 0
M  V30 19517 H 1768.77 -0.62069 0.267806 0
M  V30 19518 H 1771.33 -1.53287 1.3672 0
M  V30 19519 H 1769.56 -3.85514 0.30261 0
M  V30 19520 H 1771.25 -3.99887 0.696049 0
M  V30 19521 H 1772.01 -3.68016 3.15895 0
M  V30 19522 H 1767.89 -4.14233 2.02317 0
M  V30 19523 H 1771.44 -4.32905 5.47027 0
M  V30 19524 H 1767.33 -4.7914 4.32545 0
M  V30 19525 H 1768.1 -5.13687 6.37234 0
M  V30 19526 N 1770.76 -0.798611 -1.35867 0
M  V30 19527 C 1772.01 -0.37526 -1.98993 0
M  V30 19528 C 1772.34 1.05549 -1.6337 0
M  V30 19529 O 1771.59 1.74552 -0.88488 0
M  V30 19530 C 1771.89 -0.496572 -3.53934 0
M  V30 19531 C 1771.56 -1.88946 -4.09402 0
M  V30 19532 C 1770.22 -2.27056 -4.24263 0
M  V30 19533 C 1772.57 -2.8011 -4.39531 0
M  V30 19534 C 1769.9 -3.55712 -4.66568 0
M  V30 19535 C 1772.25 -4.08205 -4.83272 0
M  V30 19536 C 1770.92 -4.46323 -4.96338 0
M  V30 19537 H 1770.19 -0.137317 -0.728165 0
M  V30 19538 H 1772.83 -1.01786 -1.6221 0
M  V30 19539 H 1771.14 0.229499 -3.91127 0
M  V30 19540 H 1772.84 -0.149903 -4.0072 0
M  V30 19541 H 1769.43 -1.58336 -3.98281 0
M  V30 19542 H 1773.61 -2.51919 -4.2761 0
M  V30 19543 H 1768.87 -3.85105 -4.74873 0
M  V30 19544 H 1773.04 -4.78952 -5.05547 0
M  V30 19545 H 1770.67 -5.4607 -5.28877 0
M  V30 19546 N 1772.24 1.47639 -0.551417 0
M  V30 19547 C 1773.49 2.02484 -0.0252051 0
M  V30 19548 C 1773.82 1.42638 1.3223 0
M  V30 19549 O 1773.07 0.569434 1.87232 0
M  V30 19550 C 1773.37 3.57187 0.123467 0
M  V30 19551 C 1773.04 4.35925 -1.15241 0
M  V30 19552 C 1771.7 4.57157 -1.50203 0
M  V30 19553 C 1774.05 4.81377 -1.99815 0
M  V30 19554 C 1771.38 5.2109 -2.69597 0
M  V30 19555 C 1773.73 5.46626 -3.18406 0
M  V30 19556 C 1772.39 5.66093 -3.53688 0
M  V30 19557 H 1771.66 0.740943 -0.0092232 0
M  V30 19558 H 1774.31 1.77378 -0.721764 0
M  V30 19559 H 1772.62 3.81253 0.902951 0
M  V30 19560 H 1774.31 3.97267 0.545876 0
M  V30 19561 H 1770.9 4.19674 -0.870169 0
M  V30 19562 H 1775.09 4.64756 -1.74112 0
M  V30 19563 H 1770.34 5.34356 -2.97108 0
M  V30 19564 H 1774.52 5.8081 -3.84231 0
M  V30 19565 H 1772.14 6.15404 -4.46298 0
M  V30 19566 N 1773.72 0.287581 1.54954 0
M  V30 19567 C 1774.95 -0.331442 2.04735 0
M  V30 19568 C 1775.37 -1.47752 1.16409 0
M  V30 19569 O 1774.73 -1.80545 0.165297 0
M  V30 19570 C 1774.78 -0.778123 3.52105 0
M  V30 19571 O 1773.88 -1.88422 3.66839 0
M  V30 19572 H 1773.22 -0.0666173 0.66065 0
M  V30 19573 H 1775.75 0.425516 2.00126 0
M  V30 19574 H 1775.76 -1.07054 3.93705 0
M  V30 19575 H 1774.44 0.0603184 4.15856 0
M  V30 19576 H 1773.01 -1.59338 3.37144 0
M  V30 19577 N 1775.2 -1.57593 0.0150662 0
M  V30 19578 C 1776.45 -1.90836 -0.665282 0
M  V30 19579 C 1776.77 -0.890693 -1.73469 0
M  V30 19580 O 1776.04 0.0698113 -1.95776 0
M  V30 19581 H 1774.62 -0.704377 -0.24872 0
M  V30 19582 H 1777.28 -1.94809 0.0595521 0
M  V30 19583 H 1776.38 -2.91043 -1.12697 0
M  V30 19584 N 1776.68 0.257904 -1.55475 0
M  V30 19585 C 1777.62 1.31912 -1.89388 0
M  V30 19586 C 1778.59 1.48358 -0.746927 0
M  V30 19587 O 1779.78 1.62521 -0.999584 0
M  V30 19588 C 1776.92 2.67162 -2.18446 0
M  V30 19589 C 1776.03 2.58814 -3.45889 0
M  V30 19590 C 1775.17 3.86343 -3.64571 0
M  V30 19591 C 1774.21 3.72567 -4.85654 0
M  V30 19592 N 1773.34 4.91964 -5.00915 0
M  V30 19593 H 1778.18 1.02291 -2.79894 0
M  V30 19594 H 1775.72 0.493864 -1.38562 0
M  V30 19595 H 1777.68 3.45874 -2.33296 0
M  V30 19596 H 1776.31 2.94954 -1.31157 0
M  V30 19597 H 1775.36 1.7173 -3.39431 0
M  V30 19598 H 1776.67 2.4454 -4.34743 0
M  V30 19599 H 1775.83 4.73498 -3.79321 0
M  V30 19600 H 1774.56 4.03501 -2.7393 0
M  V30 19601 H 1773.57 2.83795 -4.70893 0
M  V30 19602 H 1774.79 3.56914 -5.77745 0
M  V30 19603 H 1772.74 5.09505 -4.13208 0
M  V30 19604 H 1772.66 4.80279 -5.83839 0
M  V30 19605 H 1773.93 5.80649 -5.20064 0
M  V30 19606 N 1778.15 1.48666 0.52309 0
M  V30 19607 C 1779.4 1.57034 1.27854 0
M  V30 19608 C 1779.73 0.247256 1.92922 0
M  V30 19609 O 1778.98 -0.763049 1.80211 0
M  V30 19610 C 1779.28 2.66247 2.38426 0
M  V30 19611 C 1778.95 4.08464 1.90965 0
M  V30 19612 C 1777.61 4.47171 1.77739 0
M  V30 19613 C 1779.96 4.97562 1.55184 0
M  V30 19614 C 1777.29 5.72772 1.27077 0
M  V30 19615 C 1779.64 6.23659 1.05982 0
M  V30 19616 C 1778.31 6.61216 0.913782 0
M  V30 19617 H 1777.58 0.574628 0.46785 0
M  V30 19618 H 1780.22 1.82411 0.582961 0
M  V30 19619 H 1778.53 2.34756 3.13682 0
M  V30 19620 H 1780.23 2.69936 2.9654 0
M  V30 19621 H 1776.82 3.779 2.02212 0
M  V30 19622 H 1781 4.6833 1.64259 0
M  V30 19623 H 1776.26 6.0059 1.14464 0
M  V30 19624 H 1780.43 6.92089 0.773684 0
M  V30 19625 H 1778.06 7.58426 0.519021 0
M  V30 19626 N 1779.63 -0.772489 1.37369 0
M  V30 19627 C 1780.88 -1.528 1.32275 0
M  V30 19628 C 1781.2 -1.9478 -0.092541 0
M  V30 19629 O 1780.47 -1.6624 -1.0364 0
M  V30 19630 H 1779.05 -0.566727 0.486651 0
M  V30 19631 H 1781.71 -0.919435 1.7185 0
M  V30 19632 H 1780.81 -2.42774 1.96131 0
M  V30 19633 N 1781.11 -1.21927 -0.998575 0
M  V30 19634 C 1782.06 -0.984283 -2.08759 0
M  V30 19635 C 1783.03 0.0920029 -1.65845 0
M  V30 19636 O 1784.21 -0.0564334 -1.90717 0
M  V30 19637 C 1781.35 -0.562006 -3.40493 0
M  V30 19638 C 1780.47 -1.70844 -3.96783 0
M  V30 19639 C 1779.6 -1.2347 -5.16651 0
M  V30 19640 C 1778.64 -2.35305 -5.65065 0
M  V30 19641 N 1777.78 -1.89018 -6.76178 0
M  V30 19642 H 1782.62 -1.91653 -2.28195 0
M  V30 19643 H 1780.15 -0.955028 -1.11882 0
M  V30 19644 H 1782.11 -0.298383 -4.16132 0
M  V30 19645 H 1780.74 0.33324 -3.21075 0
M  V30 19646 H 1779.79 -2.08653 -3.18069 0
M  V30 19647 H 1781.11 -2.54987 -4.28699 0
M  V30 19648 H 1780.26 -0.928121 -5.99559 0
M  V30 19649 H 1779 -0.363397 -4.86344 0
M  V30 19650 H 1778 -2.66758 -4.8075 0
M  V30 19651 H 1779.23 -3.22941 -5.97399 0
M  V30 19652 H 1777.17 -1.04242 -6.47665 0
M  V30 19653 H 1777.09 -2.66731 -7.07383 0
M  V30 19654 H 1778.36 -1.61413 -7.62605 0
M  V30 19655 N 1782.59 1.19452 -1.02805 0
M  V30 19656 C 1783.83 1.90815 -0.732731 0
M  V30 19657 C 1784.19 1.77774 0.725275 0
M  V30 19658 O 1785.39 2.43726 1.13363 0
M  V30 19659 C 1783.66 3.37692 -1.17042 0
M  V30 19660 S 1785.22 4.27281 -0.998818 0
M  V30 19661 H 1782.04 0.65905 -0.266784 0
M  V30 19662 H 1784.64 1.44418 -1.31771 0
M  V30 19663 H 1783.35 3.44708 -2.2272 0
M  V30 19664 H 1782.88 3.8912 -0.5787 0
M  V30 19665 H 1784.89 4.96116 0.0911076 0
M  V30 19666 N 1784.07 0.805805 1.35442 0
M  V30 19667 C 1785.32 0.382303 1.98044 0
M  V30 19668 C 1785.63 -1.05602 1.64644 0
M  V30 19669 O 1786.83 -1.5826 2.20604 0
M  V30 19670 C 1785.29 0.632619 3.54296 0
M  V30 19671 C 1784.9 2.08344 3.96607 0
M  V30 19672 C 1786.64 0.274435 4.23612 0
M  V30 19673 C 1784.55 2.27954 5.45702 0
M  V30 19674 H 1783.48 0.13921 0.741037 0
M  V30 19675 H 1786.13 0.989752 1.54519 0
M  V30 19676 H 1784.51 -0.0447699 3.95975 0
M  V30 19677 H 1785.69 2.79857 3.66083 0
M  V30 19678 H 1784 2.40142 3.40178 0
M  V30 19679 H 1786.6 0.399019 5.33209 0
M  V30 19680 H 1786.94 -0.779292 4.08941 0
M  V30 19681 H 1787.47 0.90571 3.87352 0
M  V30 19682 H 1784.21 3.3177 5.6534 0
M  V30 19683 H 1783.73 1.60965 5.77798 0
M  V30 19684 H 1785.41 2.09469 6.12153 0
M  V30 19685 N 1785.54 -1.47344 0.559239 0
M  V30 19686 C 1786.49 -2.31735 -0.200368 0
M  V30 19687 C 1787.49 -1.43051 -0.907351 0
M  V30 19688 O 1788.69 -1.59804 -0.828406 0
M  V30 19689 H 1785.07 -0.747351 -0.0834871 0
M  V30 19690 H 1787.04 -2.93645 0.530556 0
M  V30 19691 C 1785.79 -3.25747 -1.2159 0
M  V30 19692 H 1785.11 -3.93952 -0.681314 0
M  V30 19693 H 1786.55 -3.87624 -1.71825 0
M  V30 19694 C 1785.01 -2.49414 -2.26482 0
M  V30 19695 O 1785.54 -2.24006 -3.33443 0
M  V30 19696 N 1783.75 -2.10387 -2.00464 0
M  V30 19697 H 1783.29 -2.3125 -1.13495 0
M  V30 19698 H 1783.25 -1.5963 -2.70861 0
M  V30 19699 N 1787.02 -0.295795 -1.54799 0
M  V30 19700 C 1788.27 0.314384 -1.9964 0
M  V30 19701 C 1788.59 1.5481 -1.1857 0
M  V30 19702 O 1787.86 1.93884 -0.280353 0
M  V30 19703 H 1786.44 0.119153 -0.737436 0
M  V30 19704 H 1789.1 -0.40592 -1.90626 0
M  V30 19705 H 1788.2 0.59002 -3.06472 0
M  V30 19706 N 1788.5 1.57583 -0.0234236 0
M  V30 19707 C 1789.73 1.95861 0.666797 0
M  V30 19708 C 1790.14 0.899616 1.65989 0
M  V30 19709 O 1789.5 -0.119162 1.82111 0
M  V30 19710 C 1789.55 3.34198 1.37818 0
M  V30 19711 O 1789.27 4.36035 0.424887 0
M  V30 19712 C 1790.77 3.87074 2.16075 0
M  V30 19713 H 1787.99 0.645213 0.184233 0
M  V30 19714 H 1790.54 2.04338 -0.0814987 0
M  V30 19715 H 1788.69 3.26958 2.07792 0
M  V30 19716 H 1789.11 5.162 0.929394 0
M  V30 19717 H 1790.58 4.8623 2.61312 0
M  V30 19718 H 1791.06 3.21017 2.99741 0
M  V30 19719 H 1791.66 3.97565 1.5107 0
M  V30 19720 N 1789.98 -0.249655 1.5561 0
M  V30 19721 C 1791.26 -1.00075 1.68061 0
M  V30 19722 C 1791.64 -2.03468 0.562492 0
M  V30 19723 O 1790.98 -2.24332 -0.434424 0
M  V30 19724 C 1791.19 -1.63657 3.08249 0
M  V30 19725 C 1792.54 -2.13946 3.66759 0
M  V30 19726 O 1793.57 -1.73603 3.11031 0
M  V30 19727 O 1792.43 -2.88012 4.64447 0
M  V30 19728 H 1789.52 -0.465648 0.683448 0
M  V30 19729 H 1792.07 -0.243659 1.67942 0
M  V30 19730 H 1790.84 -0.888572 3.81078 0
M  V30 19731 H 1790.46 -2.45993 3.12367 0
M  V30 19732 N 1791.46 -1.48941 -0.515198 0
M  V30 19733 C 1792.68 -1.61656 -1.29931 0
M  V30 19734 C 1793.11 -0.282529 -1.85966 0
M  V30 19735 O 1792.47 0.747914 -1.65154 0
M  V30 19736 C 1792.51 -2.6774 -2.41553 0
M  V30 19737 O 1791.62 -2.25926 -3.45009 0
M  V30 19738 H 1790.96 -0.541561 -0.384197 0
M  V30 19739 H 1793.49 -1.95032 -0.618349 0
M  V30 19740 H 1793.5 -2.89471 -2.87525 0
M  V30 19741 H 1792.17 -3.64582 -2.00131 0
M  V30 19742 H 1790.75 -2.14469 -3.05053 0
M  V30 19743 N 1792.94 0.765193 -1.37777 0
M  V30 19744 C 1794.18 1.52623 -1.33545 0
M  V30 19745 C 1794.51 1.94043 0.077992 0
M  V30 19746 O 1793.79 1.64566 1.03673 0
M  V30 19747 C 1794.07 2.78679 -2.28057 0
M  V30 19748 C 1793.93 2.43471 -3.78209 0
M  V30 19749 C 1795.24 3.80646 -2.20899 0
M  V30 19750 H 1792.36 0.553678 -0.486425 0
M  V30 19751 H 1795.01 0.877326 -1.68532 0
M  V30 19752 H 1793.16 3.3405 -1.9835 0
M  V30 19753 H 1794.83 1.93965 -4.1854 0
M  V30 19754 H 1793.07 1.76081 -3.96457 0
M  V30 19755 H 1793.74 3.33609 -4.39783 0
M  V30 19756 H 1796.22 3.34786 -2.47099 0
M  V30 19757 H 1795.09 4.6656 -2.89159 0
M  V30 19758 H 1795.35 4.25389 -1.20403 0
M  V30 19759 N 1794.41 1.22455 0.992094 0
M  V30 19760 C 1795.66 1.04373 1.72596 0
M  V30 19761 C 1795.98 -0.421349 1.91008 0
M  V30 19762 O 1797.18 -0.72186 2.61728 0
M  V30 19763 C 1795.64 1.81906 3.10545 0
M  V30 19764 C 1795.25 3.32667 3.00061 0
M  V30 19765 C 1796.99 1.72274 3.87972 0
M  V30 19766 C 1794.9 4.02638 4.3317 0
M  V30 19767 H 1793.83 0.386937 0.647144 0
M  V30 19768 H 1796.48 1.46313 1.10746 0
M  V30 19769 H 1794.86 1.32764 3.73081 0
M  V30 19770 H 1796.03 3.89208 2.46685 0
M  V30 19771 H 1794.35 3.42984 2.36117 0
M  V30 19772 H 1796.95 2.21872 4.86494 0
M  V30 19773 H 1797.29 0.68331 4.10654 0
M  V30 19774 H 1797.82 2.18963 3.32115 0
M  V30 19775 H 1794.56 5.06838 4.15687 0
M  V30 19776 H 1794.08 3.50885 4.86456 0
M  V30 19777 H 1795.76 4.08279 5.01914 0
M  V30 19778 N 1795.89 -1.18905 1.03437 0
M  V30 19779 C 1796.84 -2.24362 0.613557 0
M  V30 19780 C 1797.83 -1.65605 -0.356541 0
M  V30 19781 O 1799.04 -1.78594 -0.22452 0
M  V30 19782 H 1795.41 -0.730098 0.18017 0
M  V30 19783 H 1797.39 -2.57168 1.51351 0
M  V30 19784 C 1796.13 -3.47697 -0.0141125 0
M  V30 19785 H 1795.46 -3.93201 0.723394 0
M  V30 19786 H 1796.9 -4.2313 -0.271424 0
M  V30 19787 C 1795.36 -3.12357 -1.26232 0
M  V30 19788 O 1795.89 -3.25515 -2.35378 0
M  V30 19789 N 1794.09 -2.6674 -1.15318 0
M  V30 19790 H 1793.64 -2.56233 -0.26501 0
M  V30 19791 H 1793.6 -2.43466 -1.98927 0
M  V30 19792 N 1797.37 -0.812977 -1.35013 0
M  V30 19793 C 1798.6 -0.408421 -2.02523 0
M  V30 19794 C 1799.01 0.987315 -1.61396 0
M  V30 19795 O 1798.35 1.64865 -0.810251 0
M  V30 19796 C 1798.41 -0.419647 -3.57042 0
M  V30 19797 C 1798.08 -1.767 -4.21457 0
M  V30 19798 C 1799.07 -2.7263 -4.42684 0
M  V30 19799 C 1796.76 -2.05275 -4.5844 0
M  V30 19800 C 1798.75 -3.95315 -5.00004 0
M  V30 19801 C 1796.44 -3.28223 -5.15473 0
M  V30 19802 C 1797.44 -4.23061 -5.36198 0
M  V30 19803 O 1797.13 -5.43837 -5.92027 0
M  V30 19804 H 1796.86 -0.163311 -0.655977 0
M  V30 19805 H 1799.41 -1.09974 -1.73479 0
M  V30 19806 H 1797.64 0.328309 -3.85304 0
M  V30 19807 H 1799.33 -0.0365204 -4.05884 0
M  V30 19808 H 1800.1 -2.51846 -4.14486 0
M  V30 19809 H 1795.98 -1.32265 -4.41619 0
M  V30 19810 H 1799.52 -4.69351 -5.16097 0
M  V30 19811 H 1795.42 -3.48874 -5.43099 0
M  V30 19812 H 1796.18 -5.45221 -6.10472 0
M  V30 19813 N 1798.85 1.47045 -0.567045 0
M  V30 19814 C 1800.08 2.06835 -0.0518309 0
M  V30 19815 C 1800.49 1.41823 1.24626 0
M  V30 19816 O 1799.85 0.518102 1.74991 0
M  V30 19817 C 1799.9 3.6124 0.137142 0
M  V30 19818 O 1799.62 4.23817 -1.10955 0
M  V30 19819 C 1801.12 4.37921 0.688511 0
M  V30 19820 H 1798.34 0.669111 -0.0503138 0
M  V30 19821 H 1800.88 1.88906 -0.783258 0
M  V30 19822 H 1799.04 3.7865 0.818733 0
M  V30 19823 H 1799.45 5.16484 -0.913475 0
M  V30 19824 H 1800.93 5.46603 0.769984 0
M  V30 19825 H 1801.4 4.0488 1.70201 0
M  V30 19826 H 1802.01 4.25279 0.0423004 0
M  V30 19827 N 1800.33 0.304 1.5464 0
M  V30 19828 C 1801.57 -0.305185 1.99378 0
M  V30 19829 C 1801.89 -1.54773 1.19602 0
M  V30 19830 O 1803.09 -2.23169 1.54621 0
M  V30 19831 C 1801.55 -0.594303 3.54959 0
M  V30 19832 C 1801.16 0.630078 4.43547 0
M  V30 19833 C 1802.9 -1.16452 4.08215 0
M  V30 19834 C 1800.81 0.313946 5.90566 0
M  V30 19835 H 1799.74 -0.11781 0.744739 0
M  V30 19836 H 1802.39 0.413174 1.78788 0
M  V30 19837 H 1800.77 -1.37233 3.71461 0
M  V30 19838 H 1801.95 1.40619 4.3882 0
M  V30 19839 H 1800.26 1.11914 4.01079 0
M  V30 19840 H 1802.86 -1.41534 5.15628 0
M  V30 19841 H 1803.2 -2.10773 3.58999 0
M  V30 19842 H 1803.73 -0.448123 3.95268 0
M  V30 19843 H 1800.47 1.2258 6.43937 0
M  V30 19844 H 1799.99 -0.424841 5.98294 0
M  V30 19845 H 1801.67 -0.083395 6.46946 0
M  V30 19846 N 1801.8 -1.57568 0.0317802 0
M  V30 19847 C 1803.05 -1.91087 -0.645639 0
M  V30 19848 C 1803.37 -0.910108 -1.73137 0
M  V30 19849 O 1804.57 -1.13665 -2.46562 0
M  V30 19850 C 1803.03 -3.39317 -1.19966 0
M  V30 19851 C 1802.64 -4.47759 -0.147068 0
M  V30 19852 C 1804.38 -3.81901 -1.85343 0
M  V30 19853 C 1802.29 -5.87088 -0.712872 0
M  V30 19854 H 1801.22 -0.713112 -0.244923 0
M  V30 19855 H 1803.87 -1.83241 0.0975145 0
M  V30 19856 H 1802.25 -3.42105 -1.99451 0
M  V30 19857 H 1803.42 -4.56535 0.625518 0
M  V30 19858 H 1801.74 -4.14395 0.408109 0
M  V30 19859 H 1804.34 -4.83352 -2.28636 0
M  V30 19860 H 1804.68 -3.17104 -2.69724 0
M  V30 19861 H 1805.21 -3.81548 -1.12544 0
M  V30 19862 H 1801.95 -6.55434 0.0928582 0
M  V30 19863 H 1801.47 -5.81913 -1.45388 0
M  V30 19864 H 1803.15 -6.3574 -1.20179 0
M  V30 19865 N 1803.28 0.241399 -1.5574 0
M  V30 19866 C 1804.51 0.986075 -1.81891 0
M  V30 19867 C 1804.93 1.78734 -0.608254 0
M  V30 19868 O 1804.28 1.77527 0.423129 0
M  V30 19869 C 1804.33 1.91956 -3.06325 0
M  V30 19870 O 1804.05 1.15071 -4.22718 0
M  V30 19871 C 1805.56 2.77977 -3.45317 0
M  V30 19872 H 1802.78 0.289913 -0.605137 0
M  V30 19873 H 1805.32 0.262622 -2.02807 0
M  V30 19874 H 1803.47 2.59721 -2.87443 0
M  V30 19875 H 1803.89 1.78261 -4.93278 0
M  V30 19876 H 1805.36 3.39215 -4.35474 0
M  V30 19877 H 1805.84 3.49369 -2.66154 0
M  V30 19878 H 1806.45 2.15655 -3.66569 0
M  V30 19879 N 1804.76 1.49212 0.507292 0
M  V30 19880 C 1805.71 1.65894 1.6304 0
M  V30 19881 C 1806.7 0.524951 1.61061 0
M  V30 19882 O 1807.91 0.704392 1.65645 0
M  V30 19883 H 1804.28 0.522994 0.540353 0
M  V30 19884 H 1806.25 2.60176 1.4612 0
M  V30 19885 C 1805 1.73692 3.01208 0
M  V30 19886 H 1804.33 2.60323 3.03434 0
M  V30 19887 H 1805.77 1.89402 3.79346 0
M  V30 19888 C 1804.23 0.480378 3.33458 0
M  V30 19889 O 1804.76 -0.396732 3.99736 0
M  V30 19890 N 1802.96 0.345216 2.88542 0
M  V30 19891 H 1802.51 1.05997 2.34782 0
M  V30 19892 H 1802.47 -0.494453 3.10488 0
M  V30 19893 N 1806.24 -0.757876 1.38181 0
M  V30 19894 C 1807.19 -1.87152 1.35065 0
M  V30 19895 C 1808.16 -1.64717 0.213892 0
M  V30 19896 O 1809.34 -1.86442 0.405448 0
M  V30 19897 C 1806.48 -3.24398 1.17728 0
M  V30 19898 C 1805.59 -3.58694 2.40754 0
M  V30 19899 C 1804.73 -4.85221 2.16181 0
M  V30 19900 C 1803.77 -5.1229 3.35001 0
M  V30 19901 N 1802.9 -6.3001 3.0989 0
M  V30 19902 H 1807.74 -1.89151 2.30274 0
M  V30 19903 H 1805.28 -0.924571 1.14412 0
M  V30 19904 H 1807.24 -4.0359 1.05694 0
M  V30 19905 H 1805.87 -3.21738 0.261606 0
M  V30 19906 H 1804.92 -2.74379 2.63477 0
M  V30 19907 H 1806.23 -3.74628 3.29325 0
M  V30 19908 H 1805.39 -5.72346 2.01258 0
M  V30 19909 H 1804.13 -4.71417 1.24969 0
M  V30 19910 H 1803.13 -4.23635 3.50448 0
M  V30 19911 H 1804.36 -5.27993 4.27083 0
M  V30 19912 H 1802.3 -6.17538 2.21321 0
M  V30 19913 H 1802.22 -6.46425 3.92009 0
M  V30 19914 H 1803.49 -7.20035 2.98613 0
M  V30 19915 N 1807.72 -1.22979 -0.985586 0
M  V30 19916 C 1808.94 -1.08615 -1.76685 0
M  V30 19917 C 1809.37 0.35859 -1.8465 0
M  V30 19918 O 1808.72 1.25924 -1.30433 0
M  V30 19919 C 1808.77 -1.71039 -3.17456 0
M  V30 19920 O 1807.88 -0.969018 -4.00854 0
M  V30 19921 H 1807.22 -0.38103 -0.543794 0
M  V30 19922 H 1809.75 -1.62927 -1.23757 0
M  V30 19923 H 1809.76 -1.76064 -3.68056 0
M  V30 19924 H 1808.43 -2.76168 -3.10973 0
M  V30 19925 H 1807.01 -0.995318 -3.59371 0
M  V30 19926 N 1809.19 1.18355 -1.04066 0
M  V30 19927 C 1810.13 2.21482 -0.58977 0
M  V30 19928 C 1811.14 1.59198 0.340576 0
M  V30 19929 O 1812.33 1.77988 0.135094 0
M  V30 19930 C 1809.43 3.3853 0.158397 0
M  V30 19931 C 1808.6 4.30392 -0.779824 0
M  V30 19932 C 1807.66 5.26147 -0.0749517 0
M  V30 19933 O 1806.69 5.64812 -0.705381 0
M  V30 19934 N 1807.89 5.68137 1.19168 0
M  V30 19935 H 1810.65 2.60791 -1.47676 0
M  V30 19936 H 1808.21 1.33141 -0.921151 0
M  V30 19937 H 1810.21 3.99611 0.639788 0
M  V30 19938 H 1808.78 2.97913 0.946929 0
M  V30 19939 H 1808 3.66915 -1.44107 0
M  V30 19940 H 1809.28 4.88668 -1.41707 0
M  V30 19941 H 1808.68 5.38777 1.7244 0
M  V30 19942 H 1807.24 6.31415 1.61735 0
M  V30 19943 N 1810.67 0.820125 1.3458 0
M  V30 19944 C 1811.91 0.41269 2.0019 0
M  V30 19945 C 1812.28 -1.0047 1.63614 0
M  V30 19946 O 1813.48 -1.51487 2.22047 0
M  V30 19947 C 1811.75 0.605717 3.5223 0
M  V30 19948 S 1813.31 0.290715 4.37836 0
M  V30 19949 H 1810.13 0.156064 0.693661 0
M  V30 19950 H 1812.73 1.06533 1.63924 0
M  V30 19951 H 1811.43 1.63702 3.76337 0
M  V30 19952 H 1810.96 -0.0617582 3.93352 0
M  V30 19953 H 1812.98 -0.896639 4.88032 0
M  V30 19954 N 1812.15 -1.46743 0.574835 0
M  V30 19955 C 1813.06 -2.34015 -0.16559 0
M  V30 19956 C 1814.08 -1.49273 -0.894064 0
M  V30 19957 O 1815.25 -1.82162 -0.859013 0
M  V30 19958 C 1812.32 -3.26313 -1.17136 0
M  V30 19959 C 1811.38 -4.26952 -0.448413 0
M  V30 19960 C 1810.61 -5.1484 -1.40627 0
M  V30 19961 O 1810.83 -5.05508 -2.6423 0
M  V30 19962 O 1809.77 -5.9481 -0.921143 0
M  V30 19963 H 1813.59 -2.98664 0.550754 0
M  V30 19964 H 1811.18 -1.45589 0.335297 0
M  V30 19965 H 1813.06 -3.83276 -1.75149 0
M  V30 19966 H 1811.74 -2.64269 -1.86931 0
M  V30 19967 H 1810.64 -3.73698 0.17336 0
M  V30 19968 H 1811.98 -4.91759 0.208419 0
M  V30 19969 N 1813.63 -0.312197 -1.54477 0
M  V30 19970 C 1814.85 0.298829 -2.05236 0
M  V30 19971 C 1815.28 1.45881 -1.18745 0
M  V30 19972 O 1814.64 1.80259 -0.193999 0
M  V30 19973 C 1814.68 0.722008 -3.53298 0
M  V30 19974 O 1813.79 1.82562 -3.6979 0
M  V30 19975 H 1813.13 0.0560985 -0.661626 0
M  V30 19976 H 1815.66 -0.4573 -1.99424 0
M  V30 19977 H 1815.67 1.00777 -3.95358 0
M  V30 19978 H 1814.34 -0.12647 -4.15708 0
M  V30 19979 H 1812.92 1.53954 -3.39636 0
M  V30 19980 N 1815.11 1.57549 -0.040136 0
M  V30 19981 C 1816.35 1.9187 0.634838 0
M  V30 19982 C 1816.68 0.918178 1.7203 0
M  V30 19983 O 1815.95 -0.0386563 1.95862 0
M  V30 19984 H 1814.53 0.708245 0.237483 0
M  V30 19985 H 1817.19 1.9469 -0.0905369 0
M  V30 19986 H 1816.28 2.92799 1.08053 0
M  V30 19987 N 1816.58 -0.233136 1.55866 0
M  V30 19988 C 1817.53 -1.3085 1.92304 0
M  V30 19989 C 1818.53 -1.49121 0.803693 0
M  V30 19990 O 1819.73 -1.50433 0.988433 0
M  V30 19991 H 1816.11 -0.438451 0.610954 0
M  V30 19992 H 1818.08 -0.973925 2.82059 0
M  V30 19993 C 1816.83 -2.65415 2.24611 0
M  V30 19994 H 1816.15 -2.5216 3.10251 0
M  V30 19995 H 1817.59 -3.395 2.54 0
M  V30 19996 C 1816.05 -3.1955 1.0672 0
M  V30 19997 O 1816.58 -4.00405 0.322308 0
M  V30 19998 N 1814.79 -2.77764 0.854123 0
M  V30 19999 H 1814.33 -2.12122 1.46157 0
M  V30 20000 H 1814.29 -3.14329 0.0670326 0
M  V30 20001 N 1818.06 -1.49479 -0.499372 0
M  V30 20002 C 1819.31 -1.59048 -1.25339 0
M  V30 20003 C 1819.64 -0.277917 -1.92504 0
M  V30 20004 O 1818.89 0.734282 -1.81402 0
M  V30 20005 C 1819.19 -2.70007 -2.3416 0
M  V30 20006 C 1818.86 -4.11451 -1.84443 0
M  V30 20007 C 1817.52 -4.49942 -1.70603 0
M  V30 20008 C 1819.87 -4.99967 -1.47248 0
M  V30 20009 C 1817.2 -5.74722 -1.17949 0
M  V30 20010 C 1819.55 -6.25266 -0.960465 0
M  V30 20011 C 1818.22 -6.62586 -0.808473 0
M  V30 20012 H 1817.49 -0.581998 -0.458649 0
M  V30 20013 H 1820.13 -1.83315 -0.553867 0
M  V30 20014 H 1818.44 -2.39717 -3.09908 0
M  V30 20015 H 1820.14 -2.74619 -2.92208 0
M  V30 20016 H 1816.73 -3.81069 -1.96174 0
M  V30 20017 H 1820.91 -4.70884 -1.56787 0
M  V30 20018 H 1816.17 -6.02335 -1.04895 0
M  V30 20019 H 1820.34 -6.93232 -0.66348 0
M  V30 20020 H 1817.97 -7.59156 -0.398296 0
M  V30 20021 N 1819.54 0.750537 -1.38581 0
M  V30 20022 C 1820.77 1.54489 -1.38376 0
M  V30 20023 C 1821.19 1.88085 0.023634 0
M  V30 20024 O 1820.55 1.50794 1.00652 0
M  V30 20025 C 1820.6 2.81875 -2.24897 0
M  V30 20026 O 1819.7 3.77155 -1.66817 0
M  V30 20027 H 1819.04 0.467148 -0.471878 0
M  V30 20028 H 1821.57 0.927264 -1.82381 0
M  V30 20029 H 1821.58 3.30769 -2.38864 0
M  V30 20030 H 1820.26 2.56753 -3.27186 0
M  V30 20031 H 1818.83 3.35868 -1.62009 0
M  V30 20032 N 1821.02 1.235 0.979051 0
M  V30 20033 C 1822.27 1.07956 1.72387 0
M  V30 20034 C 1822.62 -0.379427 1.88622 0
M  V30 20035 O 1821.91 -1.27702 1.42838 0
M  V30 20036 C 1822.11 1.74004 3.12182 0
M  V30 20037 C 1821.94 3.26174 3.09581 0
M  V30 20038 C 1820.71 3.95341 3.14696 0
M  V30 20039 C 1822.9 4.22924 2.92643 0
M  V30 20040 N 1820.89 5.34483 3.01996 0
M  V30 20041 C 1822.26 5.48988 2.88119 0
M  V30 20042 C 1824.31 4.13641 2.77138 0
M  V30 20043 C 1823.02 6.66834 2.69676 0
M  V30 20044 C 1825.04 5.31152 2.6006 0
M  V30 20045 C 1824.4 6.56143 2.56235 0
M  V30 20046 H 1820.5 0.449578 0.639847 0
M  V30 20047 H 1823.09 1.56249 1.16165 0
M  V30 20048 H 1821.26 1.28241 3.66618 0
M  V30 20049 H 1822.99 1.51423 3.75304 0
M  V30 20050 H 1819.74 3.46429 3.2293 0
M  V30 20051 H 1820.17 6.07435 2.98917 0
M  V30 20052 H 1824.81 3.17778 2.78885 0
M  V30 20053 H 1822.53 7.62831 2.66674 0
M  V30 20054 H 1826.11 5.25812 2.49024 0
M  V30 20055 H 1824.99 7.4554 2.43185 0
M  V30 20056 N 1822.5 -1.17802 1.04693 0
M  V30 20057 C 1823.75 -1.87271 0.749172 0
M  V30 20058 C 1824.06 -1.81614 -0.726342 0
M  V30 20059 O 1825.27 -2.46506 -1.13785 0
M  V30 20060 C 1823.72 -3.35992 1.28986 0
M  V30 20061 C 1823.33 -3.50163 2.79446 0
M  V30 20062 C 1825.07 -4.10821 1.06892 0
M  V30 20063 C 1822.98 -4.92878 3.26841 0
M  V30 20064 H 1821.91 -0.701451 0.276554 0
M  V30 20065 H 1824.56 -1.33065 1.26357 0
M  V30 20066 H 1822.94 -3.89705 0.703298 0
M  V30 20067 H 1824.12 -3.06692 3.43914 0
M  V30 20068 H 1822.43 -2.88747 3.00023 0
M  V30 20069 H 1825.03 -5.16098 1.39809 0
M  V30 20070 H 1825.37 -4.163 0.00644311 0
M  V30 20071 H 1825.91 -3.633 1.62043 0
M  V30 20072 H 1822.64 -4.92572 4.32497 0
M  V30 20073 H 1822.16 -5.3704 2.67112 0
M  V30 20074 H 1823.84 -5.61624 3.21227 0
M  V30 20075 N 1823.98 -0.827251 -1.34143 0
M  V30 20076 C 1824.92 -0.240552 -2.31353 0
M  V30 20077 C 1825.92 0.62109 -1.57603 0
M  V30 20078 O 1827.12 0.511947 -1.72566 0
M  V30 20079 H 1823.5 -0.0590494 -0.749678 0
M  V30 20080 H 1825.47 -1.07518 -2.78357 0
M  V30 20081 C 1824.22 0.579321 -3.4284 0
M  V30 20082 H 1823.54 -0.0743746 -3.99731 0
M  V30 20083 H 1824.98 0.955871 -4.13085 0
M  V30 20084 C 1823.44 1.75345 -2.87673 0
M  V30 20085 O 1823.97 2.85178 -2.82907 0
M  V30 20086 N 1822.18 1.57158 -2.44437 0
M  V30 20087 H 1821.72 0.678148 -2.48513 0
M  V30 20088 H 1821.68 2.35869 -2.07877 0
M  V30 20089 N 1825.45 1.46436 -0.582609 0
M  V30 20090 C 1826.39 2.28423 0.188509 0
M  V30 20091 C 1827.4 1.38506 0.855565 0
M  V30 20092 O 1828.59 1.63107 0.725145 0
M  V30 20093 C 1825.69 3.13537 1.28639 0
M  V30 20094 C 1824.86 4.31578 0.711275 0
M  V30 20095 C 1823.92 4.9809 1.69685 0
M  V30 20096 O 1822.95 5.55686 1.23294 0
M  V30 20097 N 1824.15 4.95091 3.03093 0
M  V30 20098 H 1826.91 2.95244 -0.514896 0
M  V30 20099 H 1824.47 1.56347 -0.420374 0
M  V30 20100 H 1826.47 3.54897 1.94499 0
M  V30 20101 H 1825.04 2.48792 1.89266 0
M  V30 20102 H 1824.26 3.94002 -0.124784 0
M  V30 20103 H 1825.54 5.07874 0.306822 0
M  V30 20104 H 1824.94 4.49542 3.43407 0
M  V30 20105 H 1823.5 5.40393 3.64443 0
M  V30 20106 N 1826.93 0.320385 1.54309 0
M  V30 20107 C 1827.88 -0.547011 2.24224 0
M  V30 20108 C 1828.85 -1.11419 1.23187 0
M  V30 20109 O 1830.03 -1.15513 1.5186 0
M  V30 20110 C 1827.17 -1.70359 3.0012 0
M  V30 20111 C 1826.29 -1.16594 4.15968 0
M  V30 20112 C 1825.42 -2.28795 4.79402 0
M  V30 20113 C 1824.46 -1.72263 5.8736 0
M  V30 20114 N 1823.6 -2.78113 6.44668 0
M  V30 20115 H 1828.44 0.0557725 2.97948 0
M  V30 20116 H 1825.97 0.0392956 1.47048 0
M  V30 20117 H 1827.93 -2.38413 3.42367 0
M  V30 20118 H 1826.56 -2.27771 2.28736 0
M  V30 20119 H 1825.61 -0.377054 3.78527 0
M  V30 20120 H 1826.93 -0.712254 4.93689 0
M  V30 20121 H 1826.08 -3.04759 5.24601 0
M  V30 20122 H 1824.82 -2.77499 4.01056 0
M  V30 20123 H 1823.82 -0.947951 5.41566 0
M  V30 20124 H 1825.05 -1.2444 6.67601 0
M  V30 20125 H 1823 -3.26115 5.69197 0
M  V30 20126 H 1822.91 -2.37298 7.17792 0
M  V30 20127 H 1824.18 -3.53916 6.94524 0
M  V30 20128 N 1828.41 -1.57525 0.0484906 0
M  V30 20129 C 1829.66 -1.9287 -0.626817 0
M  V30 20130 C 1829.99 -0.926899 -1.70652 0
M  V30 20131 O 1829.26 0.0475129 -1.94442 0
M  V30 20132 C 1829.55 -3.38609 -1.22539 0
M  V30 20133 C 1829.4 -4.49537 -0.153923 0
M  V30 20134 C 1830.72 -3.84689 -2.13781 0
M  V30 20135 H 1827.84 -0.701367 -0.226391 0
M  V30 20136 H 1830.48 -1.89683 0.109708 0
M  V30 20137 H 1828.63 -3.41456 -1.85311 0
M  V30 20138 H 1830.3 -4.58818 0.477846 0
M  V30 20139 H 1828.54 -4.30692 0.518334 0
M  V30 20140 H 1829.22 -5.48589 -0.612708 0
M  V30 20141 H 1831.69 -3.83701 -1.60974 0
M  V30 20142 H 1830.57 -4.8732 -2.52607 0
M  V30 20143 H 1830.83 -3.21293 -3.03682 0
M  V30 20144 N 1829.89 0.224867 -1.55988 0
M  V30 20145 C 1830.84 1.29829 -1.92995 0
M  V30 20146 C 1831.83 1.48693 -0.81159 0
M  V30 20147 O 1833.04 1.49906 -0.996397 0
M  V30 20148 H 1829.41 0.435205 -0.61327 0
M  V30 20149 H 1831.38 0.958953 -2.82571 0
M  V30 20150 C 1830.13 2.6422 -2.26016 0
M  V30 20151 H 1829.45 2.50511 -3.11584 0
M  V30 20152 H 1830.89 3.38148 -2.55797 0
M  V30 20153 C 1829.35 3.1898 -1.08413 0
M  V30 20154 O 1829.88 4.00228 -0.343538 0
M  V30 20155 N 1828.09 2.77308 -0.868842 0
M  V30 20156 H 1827.64 2.11344 -1.4728 0
M  V30 20157 H 1827.59 3.14289 -0.0837012 0
M  V30 20158 N 1831.37 1.49742 0.491438 0
M  V30 20159 C 1832.61 1.59711 1.24494 0
M  V30 20160 C 1832.94 0.288122 1.92354 0
M  V30 20161 O 1832.2 -0.724652 1.81789 0
M  V30 20162 C 1832.49 2.71245 2.32725 0
M  V30 20163 C 1832.16 4.12423 1.82258 0
M  V30 20164 C 1830.82 4.50841 1.68214 0
M  V30 20165 C 1833.17 5.00741 1.44595 0
M  V30 20166 C 1830.5 5.75339 1.149 0
M  V30 20167 C 1832.85 6.25767 0.927292 0
M  V30 20168 C 1831.52 6.63005 0.773323 0
M  V30 20169 H 1830.79 0.584422 0.455556 0
M  V30 20170 H 1833.44 1.83607 0.544137 0
M  V30 20171 H 1831.74 2.41357 3.08632 0
M  V30 20172 H 1833.44 2.76165 2.90747 0
M  V30 20173 H 1830.03 3.82104 1.94151 0
M  V30 20174 H 1834.21 4.71709 1.54288 0
M  V30 20175 H 1829.47 6.02883 1.01699 0
M  V30 20176 H 1833.64 6.93574 0.626707 0
M  V30 20177 H 1831.27 7.59356 0.358031 0
M  V30 20178 N 1832.84 -0.743177 1.38977 0
M  V30 20179 C 1834.12 -1.49384 1.26269 0
M  V30 20180 C 1834.5 -2.10691 -0.131349 0
M  V30 20181 O 1833.85 -1.97925 -1.14183 0
M  V30 20182 C 1834.06 -2.55184 2.3808 0
M  V30 20183 C 1835.41 -3.21796 2.77006 0
M  V30 20184 O 1836.43 -2.65493 2.37469 0
M  V30 20185 O 1835.29 -4.23656 3.45222 0
M  V30 20186 H 1832.38 -0.662968 0.49437 0
M  V30 20187 H 1834.93 -0.7777 1.50831 0
M  V30 20188 H 1833.7 -2.08204 3.31311 0
M  V30 20189 H 1833.33 -3.34366 2.15139 0
M  V30 20190 N 1834.32 -1.24018 -0.972487 0
M  V30 20191 C 1835.27 -1.02594 -2.08752 0
M  V30 20192 C 1836.26 0.0376128 -1.69358 0
M  V30 20193 O 1837.47 -0.116549 -1.79622 0
M  V30 20194 H 1833.85 -0.314713 -0.682979 0
M  V30 20195 H 1835.82 -1.97163 -2.23985 0
M  V30 20196 C 1834.57 -0.642298 -3.41716 0
M  V30 20197 H 1833.89 -1.45243 -3.72484 0
M  V30 20198 H 1835.33 -0.531964 -4.2065 0
M  V30 20199 C 1833.79 0.650173 -3.30567 0
M  V30 20200 O 1834.32 1.6972 -3.64085 0
M  V30 20201 N 1832.52 0.629085 -2.83709 0
M  V30 20202 H 1832.07 -0.223302 -2.5663 0
M  V30 20203 H 1832.03 1.49407 -2.76631 0
M  V30 20204 N 1835.8 1.17245 -1.05316 0
M  V30 20205 C 1837.05 1.87813 -0.765112 0
M  V30 20206 C 1837.38 1.80907 0.706147 0
M  V30 20207 O 1836.65 1.21793 1.51647 0
M  V30 20208 C 1836.94 3.3779 -1.24779 0
M  V30 20209 C 1836.79 3.53441 -2.78208 0
M  V30 20210 C 1838.11 4.31857 -0.847805 0
M  V30 20211 H 1835.23 0.681979 -0.279415 0
M  V30 20212 H 1837.87 1.37869 -1.30737 0
M  V30 20213 H 1836.02 3.80456 -0.786487 0
M  V30 20214 H 1837.69 3.19782 -3.32472 0
M  V30 20215 H 1835.94 2.95678 -3.17423 0
M  V30 20216 H 1836.61 4.58725 -3.07043 0
M  V30 20217 H 1839.08 3.97039 -1.24496 0
M  V30 20218 H 1837.96 5.35326 -1.21313 0
M  V30 20219 H 1838.22 4.41403 0.248104 0
M  V30 20220 N 1837.28 0.834353 1.33702 0
M  V30 20221 C 1838.53 0.427042 1.97537 0
M  V30 20222 C 1838.85 -1.01607 1.66436 0
M  V30 20223 O 1838.12 -1.70711 0.960958 0
M  V30 20224 H 1836.7 0.154921 0.730759 0
M  V30 20225 H 1839.36 1.06632 1.63143 0
M  V30 20226 H 1838.46 0.555396 3.07118 0
M  V30 20227 N 1838.76 -1.46125 0.590367 0
M  V30 20228 C 1839.7 -2.32108 -0.151168 0
M  V30 20229 C 1840.7 -1.44943 -0.876804 0
M  V30 20230 O 1841.9 -1.61526 -0.794323 0
M  V30 20231 H 1838.28 -0.748954 -0.0676159 0
M  V30 20232 H 1840.25 -2.92454 0.592723 0
M  V30 20233 C 1839 -3.28253 -1.14653 0
M  V30 20234 H 1838.32 -3.95309 -0.597597 0
M  V30 20235 H 1839.76 -3.91181 -1.63564 0
M  V30 20236 C 1838.22 -2.54162 -2.21141 0
M  V30 20237 O 1838.75 -2.31029 -3.28616 0
M  V30 20238 N 1836.96 -2.14592 -1.95956 0
M  V30 20239 H 1836.5 -2.33606 -1.08564 0
M  V30 20240 H 1836.46 -1.65339 -2.67414 0
M  V30 20241 N 1840.23 -0.328564 -1.54137 0
M  V30 20242 C 1841.2 0.52248 -2.23165 0
M  V30 20243 C 1842.2 1.03956 -1.22677 0
M  V30 20244 O 1843.39 0.931193 -1.47222 0
M  V30 20245 C 1840.52 1.72624 -2.93962 0
M  V30 20246 H 1841.71 -0.081023 -2.99791 0
M  V30 20247 H 1839.27 -0.0797096 -1.56097 0
M  V30 20248 H 1840 2.36885 -2.21486 0
M  V30 20249 H 1839.79 1.36283 -3.67654 0
M  V30 20250 H 1841.28 2.33023 -3.4654 0
M  V30 20251 N 1841.71 1.57497 -0.0568439 0
M  V30 20252 C 1842.94 1.96945 0.624196 0
M  V30 20253 C 1843.35 0.933312 1.64578 0
M  V30 20254 O 1842.69 -0.0902107 1.83478 0
M  V30 20255 C 1842.76 3.32652 1.3632 0
M  V30 20256 C 1842.42 4.54292 0.496798 0
M  V30 20257 C 1843.42 5.19348 -0.239466 0
M  V30 20258 C 1841.1 5.0049 0.426059 0
M  V30 20259 C 1843.1 6.28943 -1.03485 0
M  V30 20260 C 1840.78 6.09961 -0.373005 0
M  V30 20261 C 1841.78 6.74049 -1.10214 0
M  V30 20262 O 1841.47 7.81414 -1.88805 0
M  V30 20263 H 1841.2 0.652944 0.175043 0
M  V30 20264 H 1843.75 2.05042 -0.121272 0
M  V30 20265 H 1841.98 3.21126 2.15442 0
M  V30 20266 H 1843.67 3.56808 1.93502 0
M  V30 20267 H 1844.44 4.84611 -0.194318 0
M  V30 20268 H 1840.32 4.50394 0.983188 0
M  V30 20269 H 1843.86 6.78898 -1.60447 0
M  V30 20270 H 1839.76 6.44134 -0.419771 0
M  V30 20271 H 1840.53 7.98219 -1.81077 0
M  V30 20272 N 1843.19 -0.216591 1.56105 0
M  V30 20273 C 1844.12 -1.27155 1.95841 0
M  V30 20274 C 1845.1 -1.48626 0.827313 0
M  V30 20275 O 1846.29 -1.60725 1.09 0
M  V30 20276 C 1843.42 -2.62032 2.27939 0
M  V30 20277 C 1842.37 -2.55211 3.43586 0
M  V30 20278 C 1841.7 -3.94163 3.61303 0
M  V30 20279 C 1843 -2.09566 4.78413 0
M  V30 20280 H 1844.69 -0.941435 2.84214 0
M  V30 20281 H 1842.24 -0.451427 1.36741 0
M  V30 20282 H 1844.19 -3.35997 2.5433 0
M  V30 20283 H 1842.91 -2.96742 1.36426 0
M  V30 20284 H 1841.57 -1.83703 3.17252 0
M  V30 20285 H 1841.22 -4.26188 2.67156 0
M  V30 20286 H 1840.92 -3.90479 4.3909 0
M  V30 20287 H 1842.44 -4.69782 3.90047 0
M  V30 20288 H 1843.86 -2.73277 5.03977 0
M  V30 20289 H 1842.26 -2.16931 5.59518 0
M  V30 20290 H 1843.33 -1.0481 4.73437 0
M  V30 20291 N 1844.67 -1.5 -0.48349 0
M  V30 20292 C 1845.63 -1.6742 -1.56535 0
M  V30 20293 C 1846.63 -0.545311 -1.51271 0
M  V30 20294 O 1847.82 -0.812112 -1.54112 0
M  V30 20295 C 1844.95 -1.6879 -2.9618 0
M  V30 20296 H 1846.15 -2.6393 -1.42412 0
M  V30 20297 H 1843.7 -1.39295 -0.708991 0
M  V30 20298 H 1844.43 -0.739285 -3.15761 0
M  V30 20299 H 1844.22 -2.50789 -3.01408 0
M  V30 20300 H 1845.71 -1.84264 -3.74749 0
M  V30 20301 N 1846.15 0.735796 -1.39369 0
M  V30 20302 C 1847.08 1.86303 -1.4076 0
M  V30 20303 C 1848.06 1.67926 -0.27107 0
M  V30 20304 O 1849.24 1.88257 -0.476773 0
M  V30 20305 C 1846.37 3.24043 -1.24955 0
M  V30 20306 C 1845.33 3.57055 -2.35999 0
M  V30 20307 C 1844.65 4.93723 -2.05284 0
M  V30 20308 C 1845.95 3.60109 -3.7831 0
M  V30 20309 H 1847.65 1.85396 -2.35093 0
M  V30 20310 H 1845.19 0.890552 -1.1316 0
M  V30 20311 H 1847.15 4.02574 -1.24549 0
M  V30 20312 H 1845.87 3.25475 -0.270902 0
M  V30 20313 H 1844.53 2.80853 -2.35621 0
M  V30 20314 H 1844.18 4.91734 -1.05859 0
M  V30 20315 H 1843.88 5.16779 -2.79667 0
M  V30 20316 H 1845.4 5.74612 -2.06527 0
M  V30 20317 H 1846.81 4.28718 -3.80622 0
M  V30 20318 H 1845.21 3.94683 -4.52046 0
M  V30 20319 H 1846.28 2.59932 -4.09345 0
M  V30 20320 N 1847.63 1.24532 0.965897 0
M  V30 20321 C 1848.56 1.06393 2.07853 0
M  V30 20322 C 1849.54 -0.0236467 1.70084 0
M  V30 20323 O 1850.72 0.143767 1.93667 0
M  V30 20324 C 1847.85 0.669877 3.40778 0
M  V30 20325 C 1846.81 1.70643 3.92511 0
M  V30 20326 C 1846.13 1.16738 5.21801 0
M  V30 20327 C 1847.43 3.10278 4.20149 0
M  V30 20328 H 1849.13 1.99459 2.23285 0
M  V30 20329 H 1846.67 0.960397 1.07296 0
M  V30 20330 H 1848.62 0.52997 4.18054 0
M  V30 20331 H 1847.35 -0.296477 3.25252 0
M  V30 20332 H 1846.01 1.83458 3.17393 0
M  V30 20333 H 1845.66 0.191586 5.02635 0
M  V30 20334 H 1845.36 1.86009 5.57382 0
M  V30 20335 H 1846.88 1.03963 6.01684 0
M  V30 20336 H 1848.29 3.00681 4.88123 0
M  V30 20337 H 1846.69 3.76918 4.66962 0
M  V30 20338 H 1847.76 3.58182 3.26854 0
M  V30 20339 N 1849.1 -1.16685 1.05936 0
M  V30 20340 C 1850.04 -2.20516 0.624931 0
M  V30 20341 C 1851.05 -1.59719 -0.315206 0
M  V30 20342 O 1852.24 -1.7818 -0.106761 0
M  V30 20343 C 1849.34 -3.38739 -0.10452 0
M  V30 20344 C 1848.51 -4.29097 0.848197 0
M  V30 20345 C 1847.57 -5.25961 0.158648 0
M  V30 20346 O 1846.6 -5.63619 0.795149 0
M  V30 20347 N 1847.8 -5.69961 -1.10115 0
M  V30 20348 H 1850.56 -2.58408 1.51807 0
M  V30 20349 H 1848.12 -1.31658 0.942216 0
M  V30 20350 H 1850.12 -4.00578 -0.576133 0
M  V30 20351 H 1848.69 -2.99382 -0.899414 0
M  V30 20352 H 1847.91 -3.64576 1.49927 0
M  V30 20353 H 1849.19 -4.86352 1.49463 0
M  V30 20354 H 1848.59 -5.41452 -1.63847 0
M  V30 20355 H 1847.15 -6.33908 -1.51669 0
M  V30 20356 N 1850.58 -0.841432 -1.33258 0
M  V30 20357 C 1851.83 -0.439027 -1.97991 0
M  V30 20358 C 1852.16 0.999767 -1.66488 0
M  V30 20359 O 1851.44 1.69938 -0.94612 0
M  V30 20360 C 1851.72 -0.663137 -3.53941 0
M  V30 20361 C 1851.57 -2.14939 -3.95122 0
M  V30 20362 C 1852.89 -0.11094 -4.3996 0
M  V30 20363 H 1850.01 -0.160987 -0.719203 0
M  V30 20364 H 1852.65 -1.05742 -1.57856 0
M  V30 20365 H 1850.8 -0.136765 -3.88259 0
M  V30 20366 H 1852.47 -2.74082 -3.71048 0
M  V30 20367 H 1850.72 -2.63293 -3.4476 0
M  V30 20368 H 1851.39 -2.25694 -5.03752 0
M  V30 20369 H 1853.86 -0.560898 -4.12302 0
M  V30 20370 H 1852.74 -0.297416 -5.48094 0
M  V30 20371 H 1853 0.985446 -4.30977 0
M  V30 20372 N 1852.06 1.4581 -0.598108 0
M  V30 20373 C 1853.02 2.28905 0.11623 0
M  V30 20374 C 1854.02 1.39246 0.804187 0
M  V30 20375 O 1855.21 1.61466 0.653793 0
M  V30 20376 C 1852.34 3.20029 1.17449 0
M  V30 20377 H 1853.54 2.93543 -0.614217 0
M  V30 20378 H 1851.09 1.52175 -0.356735 0
M  V30 20379 H 1851.83 2.60171 1.93601 0
M  V30 20380 H 1851.61 3.86061 0.685508 0
M  V30 20381 H 1853.1 3.82533 1.67505 0
M  V30 20382 N 1853.54 0.336733 1.53961 0
M  V30 20383 C 1854.77 -0.263446 2.05216 0
M  V30 20384 C 1855.18 -1.44752 1.21212 0
M  V30 20385 O 1854.54 -1.80837 0.245844 0
M  V30 20386 C 1854.59 -0.685127 3.54948 0
M  V30 20387 O 1854.31 0.451854 4.35764 0
M  V30 20388 C 1855.81 -1.34674 4.22348 0
M  V30 20389 H 1853.03 -0.0520687 0.668977 0
M  V30 20390 H 1855.57 0.486744 1.98623 0
M  V30 20391 H 1853.73 -1.38527 3.61786 0
M  V30 20392 H 1854.14 0.117076 5.24369 0
M  V30 20393 H 1855.62 -1.59261 5.28526 0
M  V30 20394 H 1856.09 -2.29818 3.74273 0
M  V30 20395 H 1856.7 -0.688817 4.19685 0
M  V30 20396 N 1855.02 -1.57465 0.0651956 0
M  V30 20397 C 1856.26 -1.93238 -0.605428 0
M  V30 20398 C 1856.59 -0.944707 -1.70016 0
M  V30 20399 O 1855.85 0.0407499 -1.95658 0
M  V30 20400 C 1856.14 -3.35656 -1.2276 0
M  V30 20401 C 1855.81 -4.50152 -0.259667 0
M  V30 20402 C 1854.47 -4.812 0.0066384 0
M  V30 20403 C 1856.82 -5.1964 0.4029 0
M  V30 20404 C 1854.15 -5.79077 0.942709 0
M  V30 20405 C 1856.5 -6.1852 1.32725 0
M  V30 20406 C 1855.17 -6.47989 1.60209 0
M  V30 20407 H 1854.44 -0.707107 -0.221542 0
M  V30 20408 H 1857.09 -1.91026 0.134666 0
M  V30 20409 H 1855.39 -3.34301 -2.04328 0
M  V30 20410 H 1857.09 -3.60621 -1.75367 0
M  V30 20411 H 1853.68 -4.25933 -0.477412 0
M  V30 20412 H 1857.86 -4.95854 0.210267 0
M  V30 20413 H 1853.12 -6.00238 1.16296 0
M  V30 20414 H 1857.29 -6.7147 1.84664 0
M  V30 20415 H 1854.92 -7.23643 2.32904 0
M  V30 20416 N 1856.49 0.20831 -1.56217 0
M  V30 20417 C 1857.44 1.2582 -1.93489 0
M  V30 20418 C 1858.41 1.45907 -0.793748 0
M  V30 20419 O 1859.6 1.59258 -1.05078 0
M  V30 20420 C 1856.74 2.60077 -2.26835 0
M  V30 20421 C 1855.85 2.47678 -3.53948 0
M  V30 20422 C 1854.98 3.74549 -3.76678 0
M  V30 20423 C 1854.02 3.56928 -4.97261 0
M  V30 20424 N 1853.16 4.75779 -5.16313 0
M  V30 20425 H 1858 0.933346 -2.83006 0
M  V30 20426 H 1855.54 0.449531 -1.40063 0
M  V30 20427 H 1857.49 3.38277 -2.44181 0
M  V30 20428 H 1856.12 2.90632 -1.40474 0
M  V30 20429 H 1855.18 1.60844 -3.44722 0
M  V30 20430 H 1856.49 2.30585 -4.42303 0
M  V30 20431 H 1855.64 4.61191 -3.94193 0
M  V30 20432 H 1854.38 3.94582 -2.86629 0
M  V30 20433 H 1853.39 2.6867 -4.79683 0
M  V30 20434 H 1854.61 3.38353 -5.88808 0
M  V30 20435 H 1852.56 4.96101 -4.29209 0
M  V30 20436 H 1852.47 4.61462 -5.98823 0
M  V30 20437 H 1853.74 5.6381 -5.38274 0
M  V30 20438 N 1857.97 1.50255 0.475528 0
M  V30 20439 C 1859.22 1.60704 1.22551 0
M  V30 20440 C 1859.54 0.307375 1.92562 0
M  V30 20441 O 1858.81 -0.674885 1.83908 0
M  V30 20442 H 1857.39 0.592176 0.455343 0
M  V30 20443 H 1860.05 1.8701 0.548926 0
M  V30 20444 H 1859.15 2.41596 1.9758 0
M  V30 20445 N 1859.45 -0.728395 1.39758 0
M  V30 20446 C 1860.7 -1.48916 1.38548 0
M  V30 20447 C 1861.05 -1.92393 -0.0166523 0
M  V30 20448 O 1860.34 -1.64371 -0.984518 0
M  V30 20449 C 1860.54 -2.73735 2.29791 0
M  V30 20450 C 1860.37 -2.42465 3.78736 0
M  V30 20451 C 1859.14 -2.34435 4.47625 0
M  V30 20452 C 1861.33 -2.07573 4.70551 0
M  V30 20453 N 1859.32 -1.95705 5.8187 0
M  V30 20454 C 1860.69 -1.7934 5.93496 0
M  V30 20455 C 1862.74 -1.94098 4.58509 0
M  V30 20456 C 1861.45 -1.38989 7.05744 0
M  V30 20457 C 1863.47 -1.55151 5.70686 0
M  V30 20458 C 1862.83 -1.27807 6.92708 0
M  V30 20459 H 1858.93 -0.543508 0.562248 0
M  V30 20460 H 1861.52 -0.845916 1.75363 0
M  V30 20461 H 1859.69 -3.3583 1.95123 0
M  V30 20462 H 1861.42 -3.39985 2.19528 0
M  V30 20463 H 1858.17 -2.51751 4.01146 0
M  V30 20464 H 1858.6 -1.78914 6.52931 0
M  V30 20465 H 1863.24 -2.13904 3.64698 0
M  V30 20466 H 1860.96 -1.17925 7.99449 0
M  V30 20467 H 1864.54 -1.45321 5.63359 0
M  V30 20468 H 1863.42 -0.981212 7.78037 0
M  V30 20469 N 1860.93 -1.25042 -0.959279 0
M  V30 20470 C 1861.86 -0.993416 -2.05442 0
M  V30 20471 C 1862.84 0.0757423 -1.62423 0
M  V30 20472 O 1864.02 -0.0629495 -1.88395 0
M  V30 20473 C 1861.15 -0.500792 -3.34977 0
M  V30 20474 C 1860.2 -1.55978 -3.96955 0
M  V30 20475 S 1861.03 -3.14361 -4.33517 0
M  V30 20476 C 1862.18 -2.66823 -5.66177 0
M  V30 20477 H 1862.42 -1.92071 -2.26927 0
M  V30 20478 H 1859.95 -1.08521 -1.0983 0
M  V30 20479 H 1861.91 -0.223207 -4.09893 0
M  V30 20480 H 1860.57 0.405931 -3.11466 0
M  V30 20481 H 1859.76 -1.16569 -4.90334 0
M  V30 20482 H 1859.36 -1.7878 -3.28502 0
M  V30 20483 H 1861.66 -2.10159 -6.4408 0
M  V30 20484 H 1862.6 -3.58824 -6.10452 0
M  V30 20485 H 1863.01 -2.06972 -5.25189 0
M  V30 20486 N 1862.41 1.16121 -1.06553 0
M  V30 20487 C 1863.68 1.82752 -0.697202 0
M  V30 20488 C 1864.06 1.94474 0.821172 0
M  V30 20489 O 1863.41 1.48988 1.73248 0
M  V30 20490 C 1863.62 3.19592 -1.4022 0
M  V30 20491 C 1864.97 3.95333 -1.5491 0
M  V30 20492 O 1865.99 3.29119 -1.36232 0
M  V30 20493 O 1864.85 5.14028 -1.85574 0
M  V30 20494 H 1861.95 0.789214 -0.247125 0
M  V30 20495 H 1864.49 1.23302 -1.16597 0
M  V30 20496 H 1863.26 3.06111 -2.43745 0
M  V30 20497 H 1862.89 3.86722 -0.923686 0
M  V30 20498 N 1863.88 0.848487 1.3281 0
M  V30 20499 C 1865.13 0.445116 1.96727 0
M  V30 20500 C 1865.45 -1.00311 1.6792 0
M  V30 20501 O 1866.65 -1.51162 2.25527 0
M  V30 20502 C 1865.11 0.745015 3.52104 0
M  V30 20503 C 1864.72 2.20856 3.89778 0
M  V30 20504 C 1866.46 0.409065 4.22524 0
M  V30 20505 C 1864.37 2.452 5.38174 0
M  V30 20506 H 1863.3 0.162715 0.736233 0
M  V30 20507 H 1865.95 1.03841 1.51292 0
M  V30 20508 H 1864.33 0.0812291 3.95917 0
M  V30 20509 H 1865.5 2.91362 3.56994 0
M  V30 20510 H 1863.82 2.50842 3.32366 0
M  V30 20511 H 1866.42 0.568453 5.3167 0
M  V30 20512 H 1866.76 -0.648796 4.11213 0
M  V30 20513 H 1867.29 1.02848 3.84275 0
M  V30 20514 H 1864.03 3.49588 5.54499 0
M  V30 20515 H 1863.55 1.79265 5.72384 0
M  V30 20516 H 1865.23 2.28838 6.0518 0
M  V30 20517 N 1865.36 -1.4549 0.605832 0
M  V30 20518 C 1866.61 -2.01462 0.0979275 0
M  V30 20519 C 1866.92 -1.48025 -1.27859 0
M  V30 20520 O 1868.13 -1.95962 -1.87912 0
M  V30 20521 C 1866.59 -3.59685 0.124393 0
M  V30 20522 C 1866.19 -4.22119 1.50065 0
M  V30 20523 C 1867.94 -4.23228 -0.328361 0
M  V30 20524 C 1865.85 -5.72489 1.4836 0
M  V30 20525 H 1864.78 -0.753284 0.0328415 0
M  V30 20526 H 1867.43 -1.66981 0.760903 0
M  V30 20527 H 1865.81 -3.91348 -0.605201 0
M  V30 20528 H 1866.98 -4.02032 2.25181 0
M  V30 20529 H 1865.3 -3.70763 1.89535 0
M  V30 20530 H 1867.89 -5.33485 -0.360274 0
M  V30 20531 H 1868.24 -3.93779 -1.35068 0
M  V30 20532 H 1868.77 -3.96276 0.347909 0
M  V30 20533 H 1865.51 -6.06634 2.48346 0
M  V30 20534 H 1865.03 -5.94772 0.774989 0
M  V30 20535 H 1866.71 -6.35652 1.20648 0
M  V30 20536 N 1866.84 -0.344893 -1.5378 0
M  V30 20537 C 1868.07 0.252193 -2.05055 0
M  V30 20538 C 1868.48 1.44657 -1.21947 0
M  V30 20539 O 1867.82 1.82018 -0.248012 0
M  V30 20540 C 1867.88 0.729619 -3.52018 0
M  V30 20541 C 1867.55 -0.345284 -4.55694 0
M  V30 20542 C 1868.54 -1.18843 -5.06135 0
M  V30 20543 C 1866.23 -0.499596 -4.99809 0
M  V30 20544 C 1868.22 -2.17141 -5.99273 0
M  V30 20545 C 1865.91 -1.48598 -5.92758 0
M  V30 20546 C 1866.91 -2.32033 -6.42378 0
M  V30 20547 O 1866.6 -3.28992 -7.33498 0
M  V30 20548 H 1866.33 0.0522523 -0.673978 0
M  V30 20549 H 1868.88 -0.495473 -1.99334 0
M  V30 20550 H 1867.11 1.52855 -3.55207 0
M  V30 20551 H 1868.8 1.2474 -3.86257 0
M  V30 20552 H 1869.57 -1.0803 -4.72816 0
M  V30 20553 H 1865.45 0.14 -4.60787 0
M  V30 20554 H 1868.99 -2.82303 -6.37927 0
M  V30 20555 H 1864.89 -1.59466 -6.25493 0
M  V30 20556 H 1865.66 -3.24479 -7.51436 0
M  V30 20557 N 1868.32 1.57428 -0.0735454 0
M  V30 20558 C 1869.28 2.11699 0.878419 0
M  V30 20559 C 1870.28 1.0414 1.22521 0
M  V30 20560 O 1871.47 1.30121 1.1582 0
M  V30 20561 C 1868.6 2.61979 2.18129 0
M  V30 20562 H 1869.8 2.97118 0.40755 0
M  V30 20563 H 1867.35 1.55315 0.175183 0
M  V30 20564 H 1868.08 1.80018 2.69748 0
M  V30 20565 H 1867.87 3.40599 1.94254 0
M  V30 20566 H 1869.36 3.04035 2.86273 0
M  V30 20567 N 1869.8 -0.200022 1.56326 0
M  V30 20568 C 1870.76 -1.23155 1.93302 0
M  V30 20569 C 1871.76 -1.38696 0.81364 0
M  V30 20570 O 1872.95 -1.36592 1.08112 0
M  V30 20571 C 1870.08 -2.60177 2.20274 0
M  V30 20572 H 1871.27 -0.915616 2.85581 0
M  V30 20573 H 1868.83 -0.44134 1.4994 0
M  V30 20574 H 1869.56 -2.96833 1.30617 0
M  V30 20575 H 1869.35 -2.50269 3.01841 0
M  V30 20576 H 1870.84 -3.34572 2.49903 0
M  V30 20577 N 1871.27 -1.50505 -0.467553 0
M  V30 20578 C 1872.52 -1.6191 -1.22118 0
M  V30 20579 C 1872.85 -0.320112 -1.91544 0
M  V30 20580 O 1872.13 0.678631 -1.82277 0
M  V30 20581 C 1872.41 -2.80184 -2.26206 0
M  V30 20582 C 1872.26 -4.19975 -1.61062 0
M  V30 20583 C 1873.58 -2.94011 -3.27484 0
M  V30 20584 H 1870.7 -0.589289 -0.442615 0
M  V30 20585 H 1873.34 -1.82902 -0.514484 0
M  V30 20586 H 1871.49 -2.62417 -2.86478 0
M  V30 20587 H 1873.17 -4.4934 -1.04359 0
M  V30 20588 H 1871.41 -4.24069 -0.91365 0
M  V30 20589 H 1872.08 -4.98667 -2.36718 0
M  V30 20590 H 1874.56 -3.10288 -2.77238 0
M  V30 20591 H 1873.43 -3.78384 -3.97639 0
M  V30 20592 H 1873.69 -2.04777 -3.91815 0
M  V30 20593 N 1872.75 0.720973 -1.40142 0
M  V30 20594 C 1874.03 1.47356 -1.28629 0
M  V30 20595 C 1874.41 2.10873 0.0978138 0
M  V30 20596 O 1873.76 1.99717 1.1102 0
M  V30 20597 C 1873.97 2.51364 -2.4211 0
M  V30 20598 C 1875.32 3.17348 -2.82091 0
M  V30 20599 O 1876.34 2.61682 -2.41663 0
M  V30 20600 O 1875.2 4.1811 -3.51918 0
M  V30 20601 H 1872.29 0.655019 -0.504855 0
M  V30 20602 H 1874.84 0.753605 -1.52049 0
M  V30 20603 H 1873.61 2.02907 -3.34581 0
M  V30 20604 H 1873.23 3.30901 -2.20432 0
M  V30 20605 N 1874.23 1.25549 0.952634 0
M  V30 20606 C 1875.46 1.13262 1.73743 0
M  V30 20607 C 1875.88 -0.309507 1.85536 0
M  V30 20608 O 1875.24 -1.22422 1.33726 0
M  V30 20609 C 1875.29 1.79395 3.12809 0
M  V30 20610 O 1874.39 1.07496 3.98144 0
M  V30 20611 H 1873.73 0.395314 0.5335 0
M  V30 20612 H 1876.26 1.66151 1.19394 0
M  V30 20613 H 1876.27 1.85761 3.63259 0
M  V30 20614 H 1874.95 2.84316 3.03542 0
M  V30 20615 H 1873.52 1.09025 3.56606 0
M  V30 20616 N 1875.71 -1.15554 1.07168 0
M  V30 20617 C 1876.94 -1.90182 0.81477 0
M  V30 20618 C 1877.35 -1.77914 -0.631829 0
M  V30 20619 O 1876.71 -1.1298 -1.43324 0
M  V30 20620 C 1876.76 -3.40593 1.21155 0
M  V30 20621 O 1876.48 -3.52504 2.60139 0
M  V30 20622 C 1877.98 -4.32248 0.983675 0
M  V30 20623 H 1875.2 -0.602804 0.294735 0
M  V30 20624 H 1877.75 -1.46419 1.42764 0
M  V30 20625 H 1875.9 -3.82026 0.643041 0
M  V30 20626 H 1876.31 -4.45839 2.76275 0
M  V30 20627 H 1877.79 -5.3621 1.31084 0
M  V30 20628 H 1878.27 -4.39127 -0.0801022 0
M  V30 20629 H 1878.87 -3.96556 1.537 0
M  V30 20630 N 1877.19 -0.855519 -1.32358 0
M  V30 20631 C 1878.1 -0.303696 -2.32626 0
M  V30 20632 C 1879.11 0.578927 -1.64087 0
M  V30 20633 O 1880.29 0.479091 -1.95619 0
M  V30 20634 C 1877.35 0.498152 -3.43103 0
M  V30 20635 C 1876.42 -0.410714 -4.27331 0
M  V30 20636 C 1875.65 0.35296 -5.32532 0
M  V30 20637 O 1875.87 1.58282 -5.47999 0
M  V30 20638 O 1874.81 -0.281689 -6.0124 0
M  V30 20639 H 1878.63 -1.13443 -2.81717 0
M  V30 20640 H 1876.22 -0.618479 -1.35997 0
M  V30 20641 H 1878.1 0.95324 -4.10477 0
M  V30 20642 H 1876.77 1.30567 -2.96199 0
M  V30 20643 H 1875.68 -0.913997 -3.62763 0
M  V30 20644 H 1877.01 -1.18344 -4.77761 0
M  V30 20645 N 1878.67 1.45167 -0.61354 0
M  V30 20646 C 1879.61 2.30575 0.101811 0
M  V30 20647 C 1880.58 1.42455 0.85416 0
M  V30 20648 O 1881.77 1.71378 0.838711 0
M  V30 20649 C 1878.91 3.27459 1.08926 0
M  V30 20650 C 1878.02 4.30682 0.337164 0
M  V30 20651 C 1877.16 5.1467 1.31486 0
M  V30 20652 C 1876.19 6.09616 0.550918 0
M  V30 20653 N 1875.33 6.86363 1.4782 0
M  V30 20654 H 1880.17 2.9121 -0.632495 0
M  V30 20655 H 1877.71 1.43494 -0.323705 0
M  V30 20656 H 1879.67 3.82101 1.67495 0
M  V30 20657 H 1878.3 2.68564 1.79091 0
M  V30 20658 H 1877.35 3.78653 -0.364144 0
M  V30 20659 H 1878.66 4.98129 -0.258629 0
M  V30 20660 H 1877.81 5.73742 1.97243 0
M  V30 20661 H 1876.55 4.47255 1.94458 0
M  V30 20662 H 1875.56 5.49668 -0.120251 0
M  V30 20663 H 1876.78 6.7906 -0.07384 0
M  V30 20664 H 1874.73 6.21632 2.09545 0
M  V30 20665 H 1874.65 7.50183 0.935989 0
M  V30 20666 H 1875.91 7.49972 2.12516 0
M  V30 20667 N 1880.14 0.353044 1.53595 0
M  V30 20668 C 1881.05 -0.507548 2.29044 0
M  V30 20669 C 1882.07 -1.10364 1.34521 0
M  V30 20670 O 1883.25 -1.11728 1.67567 0
M  V30 20671 C 1880.31 -1.63799 3.05566 0
M  V30 20672 C 1879.37 -1.07071 4.15733 0
M  V30 20673 C 1878.6 -2.14728 4.88597 0
M  V30 20674 O 1878.83 -3.35619 4.61211 0
M  V30 20675 O 1877.76 -1.78489 5.74826 0
M  V30 20676 H 1881.59 0.10606 3.03515 0
M  V30 20677 H 1879.17 0.117799 1.48935 0
M  V30 20678 H 1881.05 -2.2955 3.5339 0
M  V30 20679 H 1879.73 -2.23723 2.33944 0
M  V30 20680 H 1878.64 -0.37746 3.72191 0
M  V30 20681 H 1879.97 -0.516205 4.89486 0
M  V30 20682 N 1881.62 -1.57387 0.0818932 0
M  V30 20683 C 1882.55 -2.10294 -0.911539 0
M  V30 20684 C 1883.57 -1.03726 -1.25478 0
M  V30 20685 O 1884.76 -1.31212 -1.2102 0
M  V30 20686 C 1881.86 -2.55676 -2.22448 0
M  V30 20687 C 1881.03 -3.8593 -2.05857 0
M  V30 20688 C 1880.09 -4.17297 -3.20545 0
M  V30 20689 O 1879.11 -4.86734 -2.9509 0
M  V30 20690 N 1880.32 -3.71647 -4.45936 0
M  V30 20691 H 1883.08 -2.96153 -0.459757 0
M  V30 20692 H 1880.64 -1.61568 -0.103568 0
M  V30 20693 H 1882.63 -2.73715 -2.98098 0
M  V30 20694 H 1881.2 -1.749 -2.59092 0
M  V30 20695 H 1880.42 -3.7717 -1.14615 0
M  V30 20696 H 1881.71 -4.71169 -1.92034 0
M  V30 20697 H 1881.11 -3.15571 -4.69501 0
M  V30 20698 H 1879.67 -3.94866 -5.18579 0
M  V30 20699 N 1883.1 0.191729 -1.56429 0
M  V30 20700 C 1884.03 1.26174 -1.91345 0
M  V30 20701 C 1885.04 1.41536 -0.804451 0
M  V30 20702 O 1886.23 1.41902 -1.08287 0
M  V30 20703 C 1883.33 2.63341 -2.13319 0
M  V30 20704 C 1882.51 2.69543 -3.44479 0
M  V30 20705 C 1881.57 3.87929 -3.55524 0
M  V30 20706 O 1880.59 3.74875 -4.28319 0
M  V30 20707 N 1881.79 5.03527 -2.88861 0
M  V30 20708 H 1884.56 0.965364 -2.83727 0
M  V30 20709 H 1882.12 0.381628 -1.57338 0
M  V30 20710 H 1884.11 3.40971 -2.17993 0
M  V30 20711 H 1882.68 2.85452 -1.2742 0
M  V30 20712 H 1881.9 1.78161 -3.51642 0
M  V30 20713 H 1883.19 2.7068 -4.30824 0
M  V30 20714 H 1882.59 5.17032 -2.29553 0
M  V30 20715 H 1881.14 5.79092 -2.99159 0
M  V30 20716 N 1884.58 1.50751 0.459565 0
M  V30 20717 C 1885.99 1.55043 1.04012 0
M  V30 20718 C 1886.34 0.360701 1.92856 0
M  V30 20719 O 1885.46 -0.525112 2.09932 0
M  V30 20720 C 1886.06 2.80975 1.89311 0
M  V30 20721 C 1884.62 2.87911 2.42455 0
M  V30 20722 C 1883.77 2.49464 1.2109 0
M  V30 20723 H 1886.72 1.56849 0.24171 0
M  V30 20724 H 1886.74 2.63482 2.74514 0
M  V30 20725 H 1886.25 3.67547 1.24623 0
M  V30 20726 H 1884.35 2.05717 3.10663 0
M  V30 20727 H 1884.46 3.91067 2.76773 0
M  V30 20728 H 1882.83 2.0216 1.54931 0
M  V30 20729 H 1883.61 3.38357 0.580469 0
M  V30 20730 N 1886.06 -0.713531 1.40522 0
M  V30 20731 C 1886.97 -1.8577 1.43272 0
M  V30 20732 C 1887.98 -1.70936 0.325113 0
M  V30 20733 O 1889.16 -1.93165 0.570022 0
M  V30 20734 C 1886.22 -3.21587 1.29548 0
M  V30 20735 C 1885.28 -3.4866 2.50469 0
M  V30 20736 C 1884.52 -4.77998 2.3739 0
M  V30 20737 O 1884.74 -5.53234 1.38881 0
M  V30 20738 O 1883.67 -5.05453 3.26804 0
M  V30 20739 H 1887.5 -1.86406 2.39763 0
M  V30 20740 H 1885.08 -0.864226 1.21867 0
M  V30 20741 H 1886.97 -4.02709 1.2411 0
M  V30 20742 H 1885.64 -3.21674 0.36163 0
M  V30 20743 H 1884.55 -2.67539 2.61483 0
M  V30 20744 H 1885.88 -3.53372 3.42621 0
M  V30 20745 N 1887.53 -1.26053 -0.945962 0
M  V30 20746 C 1888.78 -1.11315 -1.69161 0
M  V30 20747 C 1889.11 0.34437 -1.91427 0
M  V30 20748 O 1888.36 1.26968 -1.48921 0
M  V30 20749 C 1888.66 -1.8222 -3.07459 0
M  V30 20750 C 1888.33 -3.32126 -3.04964 0
M  V30 20751 C 1886.99 -3.73019 -3.03991 0
M  V30 20752 C 1889.34 -4.2786 -2.97633 0
M  V30 20753 C 1886.67 -5.08041 -2.93446 0
M  V30 20754 C 1889.02 -5.62917 -2.88631 0
M  V30 20755 C 1887.69 -6.03127 -2.85998 0
M  V30 20756 H 1886.96 -0.407329 -0.619002 0
M  V30 20757 H 1889.6 -1.56435 -1.10454 0
M  V30 20758 H 1887.91 -1.29554 -3.69761 0
M  V30 20759 H 1889.61 -1.68261 -3.63991 0
M  V30 20760 H 1886.2 -2.99594 -3.06498 0
M  V30 20761 H 1890.38 -3.97252 -2.97497 0
M  V30 20762 H 1885.64 -5.38364 -2.89782 0
M  V30 20763 H 1889.81 -6.36784 -2.81921 0
M  V30 20764 H 1887.44 -7.07709 -2.77583 0
M  V30 20765 N 1889.01 1.14984 -1.07779 0
M  V30 20766 C 1889.92 2.23484 -0.713576 0
M  V30 20767 C 1890.94 1.71779 0.277104 0
M  V30 20768 O 1892.11 2.01026 0.122649 0
M  V30 20769 C 1889.18 3.46487 -0.121542 0
M  V30 20770 C 1888.24 4.13162 -1.16602 0
M  V30 20771 C 1887.47 5.30292 -0.602138 0
M  V30 20772 O 1887.7 5.67439 0.580436 0
M  V30 20773 O 1886.63 5.86585 -1.34912 0
M  V30 20774 H 1890.46 2.56978 -1.61852 0
M  V30 20775 H 1888.04 1.22791 -0.851038 0
M  V30 20776 H 1889.92 4.20896 0.206134 0
M  V30 20777 H 1888.6 3.14732 0.756659 0
M  V30 20778 H 1887.5 3.40655 -1.54612 0
M  V30 20779 H 1888.84 4.49007 -2.01627 0
M  V30 20780 N 1890.49 0.862526 1.31902 0
M  V30 20781 C 1891.71 0.483159 2.01694 0
M  V30 20782 C 1892.14 -0.914778 1.64358 0
M  V30 20783 O 1891.5 -1.60229 0.848308 0
M  V30 20784 C 1891.55 0.638911 3.54895 0
M  V30 20785 O 1890.65 -0.324962 4.11118 0
M  V30 20786 H 1889.99 0.193128 0.635293 0
M  V30 20787 H 1892.52 1.16389 1.6827 0
M  V30 20788 H 1892.53 0.529394 4.04551 0
M  V30 20789 H 1891.21 1.65828 3.81411 0
M  V30 20790 H 1889.78 -0.171025 3.72508 0
M  V30 20791 N 1891.97 -1.4484 0.62123 0
M  V30 20792 C 1892.92 -2.32377 -0.1019 0
M  V30 20793 C 1893.91 -1.4677 -0.845862 0
M  V30 20794 O 1895.12 -1.63174 -0.759882 0
M  V30 20795 H 1891.49 -0.75022 -0.0517143 0
M  V30 20796 H 1893.46 -2.91131 0.654623 0
M  V30 20797 C 1892.21 -3.30611 -1.07665 0
M  V30 20798 H 1891.53 -3.96487 -0.513612 0
M  V30 20799 H 1892.97 -3.94563 -1.5523 0
M  V30 20800 C 1891.43 -2.58795 -2.157 0
M  V30 20801 O 1891.96 -2.37947 -3.23642 0
M  V30 20802 N 1890.17 -2.187 -1.9136 0
M  V30 20803 H 1889.72 -2.35856 -1.03584 0
M  V30 20804 H 1889.67 -1.70975 -2.63847 0
M  V30 20805 N 1893.45 -0.361184 -1.53405 0
M  V30 20806 C 1894.67 0.233383 -2.06083 0
M  V30 20807 C 1895.1 1.42029 -1.23326 0
M  V30 20808 O 1894.45 1.79551 -0.251249 0
M  V30 20809 C 1894.5 0.609243 -3.55416 0
M  V30 20810 O 1893.61 1.70705 -3.75411 0
M  V30 20811 H 1892.95 0.035021 -0.663076 0
M  V30 20812 H 1895.48 -0.520514 -1.97868 0
M  V30 20813 H 1895.49 0.881483 -3.98364 0
M  V30 20814 H 1894.16 -0.25866 -4.15095 0
M  V30 20815 H 1892.74 1.4307 -3.44362 0
M  V30 20816 N 1894.92 1.57341 -0.0902386 0
M  V30 20817 C 1895.85 2.16782 0.86764 0
M  V30 20818 C 1896.84 1.09982 1.29761 0
M  V30 20819 O 1898.02 1.38099 1.36537 0
M  V30 20820 C 1895.15 2.74426 2.12856 0
M  V30 20821 C 1894.1 3.86555 1.83738 0
M  V30 20822 C 1893.43 4.3088 3.16617 0
M  V30 20823 C 1894.73 5.09971 1.12814 0
M  V30 20824 H 1896.42 2.97075 0.372417 0
M  V30 20825 H 1893.97 1.42899 0.177689 0
M  V30 20826 H 1895.92 3.14659 2.80299 0
M  V30 20827 H 1894.65 1.9138 2.64653 0
M  V30 20828 H 1893.31 3.46853 1.18694 0
M  V30 20829 H 1892.95 3.44732 3.66291 0
M  V30 20830 H 1892.65 5.06477 2.97918 0
M  V30 20831 H 1894.18 4.73743 3.85227 0
M  V30 20832 H 1895.59 5.47404 1.70358 0
M  V30 20833 H 1893.99 5.90965 1.04311 0
M  V30 20834 H 1895.06 4.84775 0.110114 0
M  V30 20835 N 1896.4 -0.183431 1.56529 0
M  V30 20836 C 1897.65 -0.900214 1.80944 0
M  V30 20837 C 1897.97 -1.83302 0.665246 0
M  V30 20838 O 1897.24 -1.9334 -0.315697 0
M  V30 20839 H 1895.82 -0.335409 0.667465 0
M  V30 20840 H 1898.48 -0.186146 1.94009 0
M  V30 20841 H 1897.58 -1.48437 2.74541 0
M  V30 20842 N 1897.88 -1.50992 -0.451564 0
M  V30 20843 C 1899.11 -1.66499 -1.22317 0
M  V30 20844 C 1899.52 -0.355831 -1.85824 0
M  V30 20845 O 1898.86 0.674213 -1.7088 0
M  V30 20846 C 1898.92 -2.71315 -2.35857 0
M  V30 20847 C 1898.59 -4.14324 -1.92832 0
M  V30 20848 C 1899.58 -4.99567 -1.43976 0
M  V30 20849 C 1897.27 -4.60349 -2.00957 0
M  V30 20850 C 1899.26 -6.28889 -1.03813 0
M  V30 20851 C 1896.95 -5.89672 -1.60405 0
M  V30 20852 C 1897.95 -6.73769 -1.11913 0
M  V30 20853 O 1897.64 -8.00675 -0.719315 0
M  V30 20854 H 1897.37 -0.562243 -0.375312 0
M  V30 20855 H 1899.92 -1.9809 -0.54311 0
M  V30 20856 H 1898.15 -2.35009 -3.07096 0
M  V30 20857 H 1899.84 -2.75844 -2.97767 0
M  V30 20858 H 1900.61 -4.65217 -1.37105 0
M  V30 20859 H 1896.49 -3.95024 -2.37648 0
M  V30 20860 H 1900.03 -6.94481 -0.658932 0
M  V30 20861 H 1895.93 -6.23539 -1.66942 0
M  V30 20862 H 1896.7 -8.14112 -0.846434 0
M  V30 20863 N 1899.36 0.706069 -1.40899 0
M  V30 20864 C 1900.61 1.46164 -1.38993 0
M  V30 20865 C 1900.92 1.956 0.00145788 0
M  V30 20866 O 1902.13 2.71122 0.143137 0
M  V30 20867 C 1900.58 2.64252 -2.44334 0
M  V30 20868 C 1900.19 2.21646 -3.89329 0
M  V30 20869 C 1901.93 3.41941 -2.51549 0
M  V30 20870 C 1899.84 3.36629 -4.86245 0
M  V30 20871 H 1898.77 0.548985 -0.516847 0
M  V30 20872 H 1901.42 0.767528 -1.66677 0
M  V30 20873 H 1899.8 3.3588 -2.09764 0
M  V30 20874 H 1900.98 1.57376 -4.33093 0
M  V30 20875 H 1899.29 1.56978 -3.85677 0
M  V30 20876 H 1901.89 4.27518 -3.21142 0
M  V30 20877 H 1902.23 3.86409 -1.54899 0
M  V30 20878 H 1902.77 2.77363 -2.85158 0
M  V30 20879 H 1899.51 2.97183 -5.84262 0
M  V30 20880 H 1899.03 3.99784 -4.47139 0
M  V30 20881 H 1900.7 4.02559 -5.06513 0
M  V30 20882 N 1900.84 1.26553 0.939264 0
M  V30 20883 C 1902.07 1.14826 1.71752 0
M  V30 20884 C 1902.47 -0.298981 1.86823 0
M  V30 20885 O 1901.82 -1.21638 1.37659 0
M  V30 20886 C 1901.88 1.74655 3.14222 0
M  V30 20887 C 1901.54 3.23765 3.22529 0
M  V30 20888 C 1902.54 4.20557 3.0566 0
M  V30 20889 C 1900.23 3.64263 3.45858 0
M  V30 20890 C 1902.22 5.55825 3.1199 0
M  V30 20891 C 1899.91 4.99664 3.51823 0
M  V30 20892 C 1900.9 5.95254 3.34905 0
M  V30 20893 O 1900.59 7.28189 3.40583 0
M  V30 20894 H 1900.32 0.400613 0.544505 0
M  V30 20895 H 1902.88 1.67708 1.18589 0
M  V30 20896 H 1901.11 1.16238 3.68816 0
M  V30 20897 H 1902.8 1.57807 3.73967 0
M  V30 20898 H 1903.56 3.90608 2.8749 0
M  V30 20899 H 1899.44 2.90343 3.58081 0
M  V30 20900 H 1902.99 6.30414 2.98703 0
M  V30 20901 H 1898.88 5.29273 3.69514 0
M  V30 20902 H 1899.65 7.36486 3.57114 0
M  V30 20903 N 1902.31 -1.14411 1.08387 0
M  V30 20904 C 1903.56 -1.85444 0.813433 0
M  V30 20905 C 1903.89 -1.82932 -0.66078 0
M  V30 20906 O 1903.14 -1.25498 -1.50162 0
M  V30 20907 C 1903.44 -3.33681 1.2803 0
M  V30 20908 C 1903.11 -3.56382 2.76229 0
M  V30 20909 C 1901.77 -3.62286 3.16705 0
M  V30 20910 C 1904.12 -3.65224 3.71835 0
M  V30 20911 C 1901.45 -3.74554 4.51582 0
M  V30 20912 C 1903.8 -3.79017 5.06487 0
M  V30 20913 C 1902.47 -3.8317 5.46568 0
M  V30 20914 H 1901.74 -0.678588 0.297656 0
M  V30 20915 H 1904.38 -1.35144 1.35677 0
M  V30 20916 H 1902.69 -3.8626 0.656551 0
M  V30 20917 H 1904.39 -3.87068 1.04781 0
M  V30 20918 H 1900.98 -3.52435 2.43901 0
M  V30 20919 H 1905.16 -3.59952 3.41684 0
M  V30 20920 H 1900.42 -3.76032 4.82089 0
M  V30 20921 H 1904.59 -3.84801 5.80432 0
M  V30 20922 H 1902.22 -3.92429 6.51079 0
M  V30 20923 N 1903.79 -0.869509 -1.31443 0
M  V30 20924 C 1905.04 -0.480925 -1.97015 0
M  V30 20925 C 1905.37 0.964227 -1.68571 0
M  V30 20926 O 1904.65 1.67893 -0.981953 0
M  V30 20927 C 1904.93 -0.738064 -3.52455 0
M  V30 20928 C 1904.78 -2.23272 -3.90474 0
M  V30 20929 C 1906.1 -0.204237 -4.39626 0
M  V30 20930 H 1903.22 -0.176206 -0.715626 0
M  V30 20931 H 1905.86 -1.09066 -1.55578 0
M  V30 20932 H 1904.01 -0.21909 -3.87882 0
M  V30 20933 H 1905.68 -2.81891 -3.65151 0
M  V30 20934 H 1903.93 -2.70546 -3.39098 0
M  V30 20935 H 1904.6 -2.36328 -4.98852 0
M  V30 20936 H 1907.07 -0.648228 -4.1102 0
M  V30 20937 H 1905.95 -0.413608 -5.47339 0
M  V30 20938 H 1906.21 0.893807 -4.32971 0
M  V30 20939 N 1905.27 1.44508 -0.628902 0
M  V30 20940 C 1906.52 2.02365 -0.132699 0
M  V30 20941 C 1906.85 1.4934 1.24142 0
M  V30 20942 O 1906.12 0.676567 1.82354 0
M  V30 20943 C 1906.41 3.5991 -0.11694 0
M  V30 20944 C 1906.26 4.23223 -1.52324 0
M  V30 20945 C 1907.58 4.36527 0.559696 0
M  V30 20946 H 1904.7 0.735323 -0.049695 0
M  V30 20947 H 1907.34 1.72106 -0.80495 0
M  V30 20948 H 1905.49 3.8582 0.455515 0
M  V30 20949 H 1907.16 4.08427 -2.14441 0
M  V30 20950 H 1905.41 3.80803 -2.07777 0
M  V30 20951 H 1906.08 5.32225 -1.46427 0
M  V30 20952 H 1908.55 4.16036 0.0728971 0
M  V30 20953 H 1907.43 5.46238 0.539902 0
M  V30 20954 H 1907.69 4.10968 1.62965 0
M  V30 20955 N 1906.75 0.369315 1.53212 0
M  V30 20956 C 1908 -0.219209 2.0131 0
M  V30 20957 C 1908.32 -1.48469 1.25647 0
M  V30 20958 O 1907.58 -1.92734 0.339443 0
M  V30 20959 C 1907.88 -0.553392 3.5309 0
M  V30 20960 C 1907.54 0.618198 4.46642 0
M  V30 20961 C 1906.21 0.939656 4.71936 0
M  V30 20962 C 1908.56 1.40294 5.01963 0
M  V30 20963 C 1905.89 2.04776 5.49803 0
M  V30 20964 C 1908.24 2.50149 5.81041 0
M  V30 20965 C 1906.9 2.82826 6.0462 0
M  V30 20966 H 1906.17 -0.0802141 0.736646 0
M  V30 20967 H 1908.82 0.502547 1.84788 0
M  V30 20968 H 1907.12 -1.35621 3.67579 0
M  V30 20969 H 1908.82 -1.02106 3.87783 0
M  V30 20970 H 1905.41 0.35762 4.27105 0
M  V30 20971 H 1909.6 1.16784 4.82364 0
M  V30 20972 H 1904.85 2.30487 5.66291 0
M  V30 20973 H 1909.03 3.1137 6.22914 0
M  V30 20974 H 1906.65 3.68812 6.64742 0
M  V30 20975 N 1908.23 -1.57291 0.0985816 0
M  V30 20976 C 1909.48 -1.93654 -0.564011 0
M  V30 20977 C 1909.79 -0.982723 -1.69121 0
M  V30 20978 O 1911 -1.2402 -2.41519 0
M  V30 20979 C 1909.45 -3.441 -1.05466 0
M  V30 20980 C 1909.06 -4.47979 0.0429743 0
M  V30 20981 C 1910.8 -3.89418 -1.68979 0
M  V30 20982 C 1908.71 -5.89583 -0.463226 0
M  V30 20983 H 1907.64 -0.722858 -0.214457 0
M  V30 20984 H 1910.29 -1.82662 0.175145 0
M  V30 20985 H 1908.67 -3.50256 -1.84761 0
M  V30 20986 H 1909.85 -4.53471 0.818587 0
M  V30 20987 H 1908.16 -4.12291 0.583501 0
M  V30 20988 H 1910.76 -4.92615 -2.0793 0
M  V30 20989 H 1911.1 -3.28258 -2.56032 0
M  V30 20990 H 1911.64 -3.85978 -0.962602 0
M  V30 20991 H 1908.37 -6.54451 0.370767 0
M  V30 20992 H 1907.89 -5.87555 -1.20577 0
M  V30 20993 H 1909.57 -6.40266 -0.931072 0
M  V30 20994 N 1909.71 0.175127 -1.56624 0
M  V30 20995 C 1910.95 0.890653 -1.8097 0
M  V30 20996 C 1911.27 1.83577 -0.675199 0
M  V30 20997 O 1912.47 2.59338 -0.803492 0
M  V30 20998 C 1910.93 1.63427 -3.20655 0
M  V30 20999 C 1910.54 0.732982 -4.41963 0
M  V30 21000 C 1912.28 2.33825 -3.54297 0
M  V30 21001 C 1910.19 1.47661 -5.72669 0
M  V30 21002 H 1909.12 0.336324 -0.674835 0
M  V30 21003 H 1911.77 0.143627 -1.82937 0
M  V30 21004 H 1910.15 2.42591 -3.12994 0
M  V30 21005 H 1911.33 -0.0214223 -4.60795 0
M  V30 21006 H 1909.64 0.138848 -4.16168 0
M  V30 21007 H 1912.24 2.90048 -4.49195 0
M  V30 21008 H 1912.58 3.08979 -2.78994 0
M  V30 21009 H 1913.11 1.61608 -3.63494 0
M  V30 21010 H 1909.85 0.767472 -6.50992 0
M  V30 21011 H 1909.37 2.20444 -5.57821 0
M  V30 21012 H 1911.05 2.02512 -6.1449 0
M  V30 21013 N 1911.18 1.5123 0.44355 0
M  V30 21014 C 1912.43 1.6359 1.1935 0
M  V30 21015 C 1912.76 0.349172 1.9134 0
M  V30 21016 O 1912.01 -0.66645 1.84003 0
M  V30 21017 C 1912.31 2.78511 2.23978 0
M  V30 21018 C 1911.98 4.18013 1.69045 0
M  V30 21019 C 1910.64 4.55964 1.53786 0
M  V30 21020 C 1912.99 5.05088 1.28591 0
M  V30 21021 C 1910.32 5.78703 0.965374 0
M  V30 21022 C 1912.67 6.284 0.72774 0
M  V30 21023 C 1911.34 6.6513 0.562001 0
M  V30 21024 H 1910.61 0.59862 0.436733 0
M  V30 21025 H 1913.25 1.85245 0.485449 0
M  V30 21026 H 1911.56 2.51054 3.00798 0
M  V30 21027 H 1913.26 2.85275 2.81814 0
M  V30 21028 H 1909.85 3.88087 1.81896 0
M  V30 21029 H 1914.03 4.76378 1.39202 0
M  V30 21030 H 1909.29 6.05813 0.824671 0
M  V30 21031 H 1913.46 6.95217 0.405735 0
M  V30 21032 H 1911.09 7.60111 0.116266 0
M  V30 21033 N 1912.66 -0.698586 1.41271 0
M  V30 21034 C 1913.91 -1.45573 1.40189 0
M  V30 21035 C 1914.23 -1.94997 0.0108379 0
M  V30 21036 O 1913.5 -1.715 -0.946822 0
M  V30 21037 H 1912.08 -0.540134 0.516008 0
M  V30 21038 H 1914.74 -0.827048 1.76482 0
M  V30 21039 H 1913.84 -2.32036 2.08724 0
M  V30 21040 N 1914.14 -1.27049 -0.93254 0
M  V30 21041 C 1915.36 -1.16011 -1.71919 0
M  V30 21042 C 1915.79 0.279951 -1.86005 0
M  V30 21043 O 1915.15 1.20279 -1.35657 0
M  V30 21044 C 1915.2 -1.84349 -3.09916 0
M  V30 21045 O 1914.3 -1.13816 -3.96383 0
M  V30 21046 H 1913.64 -0.403752 -0.527144 0
M  V30 21047 H 1916.17 -1.6803 -1.16736 0
M  V30 21048 H 1916.18 -1.91516 -3.60258 0
M  V30 21049 H 1914.86 -2.89109 -2.9898 0
M  V30 21050 H 1913.43 -1.14684 -3.54827 0
M  V30 21051 N 1915.62 1.13835 -1.08993 0
M  V30 21052 C 1916.86 1.8501 -0.823256 0
M  V30 21053 C 1917.19 1.83279 0.65107 0
M  V30 21054 O 1916.45 1.26293 1.49495 0
M  V30 21055 C 1916.75 3.32997 -1.29798 0
M  V30 21056 C 1916.41 3.54912 -2.78115 0
M  V30 21057 C 1915.07 3.60602 -3.18622 0
M  V30 21058 C 1917.43 3.63247 -3.73766 0
M  V30 21059 C 1914.75 3.72154 -4.53562 0
M  V30 21060 C 1917.11 3.76326 -5.0849 0
M  V30 21061 C 1915.77 3.80267 -5.48592 0
M  V30 21062 H 1915.04 0.677 -0.301251 0
M  V30 21063 H 1917.69 1.34423 -1.36392 0
M  V30 21064 H 1915.99 3.85906 -0.677026 0
M  V30 21065 H 1917.69 3.86507 -1.06832 0
M  V30 21066 H 1914.28 3.51136 -2.45767 0
M  V30 21067 H 1918.46 3.58135 -3.43588 0
M  V30 21068 H 1913.72 3.7347 -4.84077 0
M  V30 21069 H 1917.89 3.81717 -5.82465 0
M  V30 21070 H 1915.52 3.8897 -6.53151 0
M  V30 21071 N 1917.1 0.876467 1.3098 0
M  V30 21072 C 1918.34 0.49064 1.96466 0
M  V30 21073 C 1918.67 -0.958443 1.69246 0
M  V30 21074 O 1917.93 -1.69096 0.985144 0
M  V30 21075 C 1918.22 0.70208 3.50436 0
M  V30 21076 C 1917.89 2.12494 3.9769 0
M  V30 21077 C 1916.55 2.51405 4.10303 0
M  V30 21078 C 1918.9 3.0526 4.22452 0
M  V30 21079 C 1916.23 3.82309 4.45035 0
M  V30 21080 C 1918.58 4.35686 4.5865 0
M  V30 21081 C 1917.25 4.74502 4.69472 0
M  V30 21082 H 1916.52 0.179538 0.718921 0
M  V30 21083 H 1919.17 1.1107 1.55999 0
M  V30 21084 H 1917.47 -0.00106996 3.918 0
M  V30 21085 H 1919.17 0.383279 3.99164 0
M  V30 21086 H 1915.76 1.81287 3.88372 0
M  V30 21087 H 1919.94 2.76422 4.12195 0
M  V30 21088 H 1915.2 4.12136 4.51612 0
M  V30 21089 H 1919.37 5.07612 4.76763 0
M  V30 21090 H 1917 5.75976 4.9614 0
M  V30 21091 N 1918.57 -1.44173 0.636557 0
M  V30 21092 C 1919.8 -2.06352 0.150456 0
M  V30 21093 C 1920.22 -1.47608 -1.17718 0
M  V30 21094 O 1919.57 -0.601003 -1.7232 0
M  V30 21095 C 1919.62 -3.61483 0.0353658 0
M  V30 21096 O 1919.35 -4.1804 1.3105 0
M  V30 21097 C 1920.85 -4.40707 -0.478789 0
M  V30 21098 H 1918.07 -0.665948 0.0821807 0
M  V30 21099 H 1920.61 -1.84953 0.872495 0
M  V30 21100 H 1918.77 -3.82125 -0.637142 0
M  V30 21101 H 1919.18 -5.11538 1.15886 0
M  V30 21102 H 1920.65 -5.49655 -0.508315 0
M  V30 21103 H 1921.13 -4.1254 -1.5069 0
M  V30 21104 H 1921.74 -4.24996 0.160654 0
M  V30 21105 N 1920.05 -0.377435 -1.53014 0
M  V30 21106 C 1920.98 0.455103 -2.29022 0
M  V30 21107 C 1921.96 1.07375 -1.31926 0
M  V30 21108 O 1923.15 1.08877 -1.60809 0
M  V30 21109 C 1920.28 1.58883 -3.08826 0
M  V30 21110 C 1919.23 1.09683 -4.13707 0
M  V30 21111 C 1918.56 2.32172 -4.81664 0
M  V30 21112 C 1919.86 0.173165 -5.22013 0
M  V30 21113 H 1921.55 -0.179053 -2.98864 0
M  V30 21114 H 1919.1 -0.0875549 -1.43734 0
M  V30 21115 H 1921.05 2.17798 -3.60752 0
M  V30 21116 H 1919.77 2.2504 -2.36695 0
M  V30 21117 H 1918.43 0.530291 -3.62744 0
M  V30 21118 H 1918.08 2.96811 -4.06094 0
M  V30 21119 H 1917.78 1.99919 -5.52545 0
M  V30 21120 H 1919.31 2.91751 -5.3639 0
M  V30 21121 H 1920.72 0.670145 -5.6937 0
M  V30 21122 H 1919.12 -0.0590463 -6.00071 0
M  V30 21123 H 1920.19 -0.781339 -4.78564 0
M  V30 21124 N 1921.53 1.57237 -0.106922 0
M  V30 21125 C 1922.48 2.15912 0.865145 0
M  V30 21126 C 1923.47 1.1051 1.2839 0
M  V30 21127 O 1924.68 1.28834 1.25705 0
M  V30 21128 H 1921.05 0.690837 0.297065 0
M  V30 21129 H 1923.02 2.96391 0.345677 0
M  V30 21130 C 1921.77 2.76355 2.11005 0
M  V30 21131 H 1921.1 3.57152 1.79674 0
M  V30 21132 H 1922.54 3.20963 2.77053 0
M  V30 21133 C 1921 1.72834 2.89188 0
M  V30 21134 O 1921.53 1.1744 3.84149 0
M  V30 21135 N 1919.73 1.43053 2.52951 0
M  V30 21136 H 1919.28 1.88289 1.75798 0
M  V30 21137 H 1919.24 0.740287 3.0556 0
M  V30 21138 N 1923.01 -0.166818 1.56715 0
M  V30 21139 C 1923.94 -1.2086 1.99787 0
M  V30 21140 C 1924.92 -1.45918 0.874178 0
M  V30 21141 O 1926.1 -1.57176 1.14058 0
M  V30 21142 C 1923.23 -2.54648 2.3616 0
M  V30 21143 C 1922.19 -2.44151 3.51532 0
M  V30 21144 C 1921.51 -3.82469 3.7366 0
M  V30 21145 C 1922.81 -1.9424 4.84838 0
M  V30 21146 H 1924.51 -0.850538 2.87065 0
M  V30 21147 H 1922.05 -0.407696 1.38108 0
M  V30 21148 H 1924.01 -3.27736 2.64891 0
M  V30 21149 H 1922.73 -2.92251 1.45797 0
M  V30 21150 H 1921.39 -1.73516 3.22936 0
M  V30 21151 H 1921.04 -4.17473 2.8058 0
M  V30 21152 H 1920.74 -3.76312 4.5129 0
M  V30 21153 H 1922.26 -4.57136 4.04796 0
M  V30 21154 H 1923.68 -2.57105 5.12416 0
M  V30 21155 H 1922.07 -1.99021 5.66137 0
M  V30 21156 H 1923.14 -0.89695 4.76532 0
M  V30 21157 N 1924.49 -1.51463 -0.435524 0
M  V30 21158 C 1925.73 -1.64221 -1.18481 0
M  V30 21159 C 1926.06 -0.359315 -1.91152 0
M  V30 21160 O 1925.32 0.656683 -1.84353 0
M  V30 21161 C 1925.62 -2.79695 -2.22498 0
M  V30 21162 C 1925.28 -4.18903 -1.66826 0
M  V30 21163 C 1923.94 -4.56773 -1.51366 0
M  V30 21164 C 1926.3 -5.05763 -1.2591 0
M  V30 21165 C 1923.62 -5.79207 -0.93467 0
M  V30 21166 C 1925.98 -6.28777 -0.694404 0
M  V30 21167 C 1924.64 -6.65419 -0.52672 0
M  V30 21168 H 1923.91 -0.600927 -0.433552 0
M  V30 21169 H 1926.56 -1.855 -0.475618 0
M  V30 21170 H 1924.86 -2.52646 -2.99462 0
M  V30 21171 H 1926.56 -2.86766 -2.80297 0
M  V30 21172 H 1923.15 -3.89046 -1.79835 0
M  V30 21173 H 1927.33 -4.7711 -1.36674 0
M  V30 21174 H 1922.59 -6.06242 -0.792531 0
M  V30 21175 H 1926.76 -6.95422 -0.36886 0
M  V30 21176 H 1924.39 -7.60162 -0.0759538 0
M  V30 21177 N 1925.96 0.691085 -1.4164 0
M  V30 21178 C 1927.21 1.44682 -1.40535 0
M  V30 21179 C 1927.53 1.9559 -0.0192882 0
M  V30 21180 O 1928.73 2.71259 0.114373 0
M  V30 21181 C 1927.19 2.61645 -2.47123 0
M  V30 21182 C 1926.8 2.17504 -3.91658 0
M  V30 21183 C 1928.54 3.39253 -2.55162 0
M  V30 21184 C 1926.45 3.31453 -4.89789 0
M  V30 21185 H 1925.38 0.543472 -0.522641 0
M  V30 21186 H 1928.03 0.749807 -1.67482 0
M  V30 21187 H 1926.41 3.33636 -2.13314 0
M  V30 21188 H 1927.58 1.52774 -4.34738 0
M  V30 21189 H 1925.9 1.52878 -3.87321 0
M  V30 21190 H 1928.5 4.24088 -3.25659 0
M  V30 21191 H 1928.84 3.84744 -1.58989 0
M  V30 21192 H 1929.37 2.74322 -2.88083 0
M  V30 21193 H 1926.11 2.9097 -5.87381 0
M  V30 21194 H 1925.63 3.95019 -4.51354 0
M  V30 21195 H 1927.31 3.97164 -5.10754 0
M  V30 21196 N 1927.44 1.27542 0.925789 0
M  V30 21197 C 1928.69 1.13767 1.67038 0
M  V30 21198 C 1929.01 -0.316603 1.92413 0
M  V30 21199 O 1928.28 -1.22124 1.53175 0
M  V30 21200 H 1926.86 0.41803 0.61908 0
M  V30 21201 H 1929.52 1.60097 1.11153 0
M  V30 21202 H 1928.62 1.66818 2.63777 0
M  V30 21203 N 1928.92 -1.13255 1.09595 0
M  V30 21204 C 1930.17 -1.84844 0.83429 0
M  V30 21205 C 1930.5 -1.83403 -0.638518 0
M  V30 21206 O 1929.77 -1.27337 -1.47022 0
M  V30 21207 C 1930.06 -3.32926 1.3723 0
M  V30 21208 C 1929.91 -3.42872 2.91134 0
M  V30 21209 C 1931.23 -4.28413 1.0075 0
M  V30 21210 H 1928.35 -0.671139 0.304534 0
M  V30 21211 H 1930.99 -1.32922 1.35764 0
M  V30 21212 H 1929.14 -3.77275 0.927149 0
M  V30 21213 H 1930.81 -3.07222 3.44111 0
M  V30 21214 H 1929.06 -2.83693 3.28178 0
M  V30 21215 H 1929.73 -4.47013 3.23857 0
M  V30 21216 H 1932.2 -3.92145 1.39146 0
M  V30 21217 H 1931.08 -5.30455 1.41098 0
M  V30 21218 H 1931.34 -4.4202 -0.0841095 0
M  V30 21219 N 1930.4 -0.883401 -1.30514 0
M  V30 21220 C 1931.65 -0.497118 -1.95478 0
M  V30 21221 C 1931.96 0.958235 -1.7052 0
M  V30 21222 O 1933.17 1.45129 -2.29455 0
M  V30 21223 C 1931.62 -0.838108 -3.50005 0
M  V30 21224 C 1931.23 -2.31113 -3.83785 0
M  V30 21225 C 1932.97 -0.520947 -4.21291 0
M  V30 21226 C 1930.88 -2.59383 -5.31483 0
M  V30 21227 H 1929.81 -0.182178 -0.731661 0
M  V30 21228 H 1932.46 -1.07816 -1.48486 0
M  V30 21229 H 1930.84 -0.186171 -3.95562 0
M  V30 21230 H 1932.02 -3.00725 -3.49144 0
M  V30 21231 H 1930.33 -2.59566 -3.25598 0
M  V30 21232 H 1932.93 -0.709216 -5.29976 0
M  V30 21233 H 1933.27 0.539542 -4.12789 0
M  V30 21234 H 1933.81 -1.13001 -3.81413 0
M  V30 21235 H 1930.55 -3.64166 -5.45035 0
M  V30 21236 H 1930.07 -1.94378 -5.6743 0
M  V30 21237 H 1931.74 -2.44803 -5.989 0
M  V30 21238 N 1931.88 1.43833 -0.644194 0
M  V30 21239 C 1933.13 2.01132 -0.151307 0
M  V30 21240 C 1933.44 1.51363 1.23889 0
M  V30 21241 O 1934.64 2.00876 1.8265 0
M  V30 21242 C 1933.1 3.59229 -0.219714 0
M  V30 21243 C 1932.71 4.17992 -1.61204 0
M  V30 21244 C 1934.45 4.2395 0.216034 0
M  V30 21245 C 1932.36 5.68354 -1.63486 0
M  V30 21246 H 1931.29 0.752149 -0.052802 0
M  V30 21247 H 1933.94 1.64904 -0.804907 0
M  V30 21248 H 1932.32 3.92815 0.501229 0
M  V30 21249 H 1933.5 3.95921 -2.35761 0
M  V30 21250 H 1931.81 3.65608 -1.99299 0
M  V30 21251 H 1934.41 5.34253 0.218703 0
M  V30 21252 H 1934.75 3.97222 1.24581 0
M  V30 21253 H 1935.28 3.95214 -0.452852 0
M  V30 21254 H 1932.02 5.99836 -2.64343 0
M  V30 21255 H 1931.54 5.92508 -0.93241 0
M  V30 21256 H 1933.22 6.3223 -1.37458 0
M  V30 21257 N 1933.35 0.385544 1.52811 0
M  V30 21258 C 1934.63 -0.255227 1.93928 0
M  V30 21259 C 1935.01 -1.64683 1.32071 0
M  V30 21260 O 1934.36 -2.23242 0.487363 0
M  V30 21261 C 1934.57 -0.285363 3.47831 0
M  V30 21262 C 1935.92 -0.516126 4.21451 0
M  V30 21263 O 1936.94 -0.365732 3.54317 0
M  V30 21264 O 1935.8 -0.810503 5.40456 0
M  V30 21265 H 1932.89 -0.157694 0.811826 0
M  V30 21266 H 1935.44 0.439779 1.63903 0
M  V30 21267 H 1934.21 0.68954 3.85177 0
M  V30 21268 H 1933.84 -1.02545 3.84149 0
M  V30 21269 N 1934.83 -1.57178 0.115259 0
M  V30 21270 C 1935.78 -2.16368 -0.853683 0
M  V30 21271 C 1936.77 -1.11189 -1.27802 0
M  V30 21272 O 1937.98 -1.29499 -1.2502 0
M  V30 21273 H 1934.36 -0.692403 -0.293397 0
M  V30 21274 H 1936.33 -2.9657 -0.329954 0
M  V30 21275 C 1935.08 -2.7747 -2.09537 0
M  V30 21276 H 1934.4 -3.581 -1.77777 0
M  V30 21277 H 1935.84 -3.22428 -2.75347 0
M  V30 21278 C 1934.3 -1.74366 -2.88268 0
M  V30 21279 O 1934.83 -1.19476 -3.83521 0
M  V30 21280 N 1933.03 -1.44392 -2.52189 0
M  V30 21281 H 1932.58 -1.89219 -1.74797 0
M  V30 21282 H 1932.54 -0.756482 -3.05163 0
M  V30 21283 N 1936.31 0.158505 -1.56801 0
M  V30 21284 C 1937.56 0.873038 -1.82714 0
M  V30 21285 C 1937.89 1.81683 -0.694361 0
M  V30 21286 O 1937.14 1.93108 0.31748 0
M  V30 21287 C 1937.44 1.69067 -3.14883 0
M  V30 21288 C 1937.11 0.894671 -4.41935 0
M  V30 21289 C 1935.77 0.675029 -4.76442 0
M  V30 21290 C 1938.12 0.337213 -5.20108 0
M  V30 21291 C 1935.45 -0.112965 -5.86591 0
M  V30 21292 C 1937.8 -0.43776 -6.31084 0
M  V30 21293 C 1936.46 -0.668085 -6.64148 0
M  V30 21294 H 1935.73 0.319467 -0.668597 0
M  V30 21295 H 1938.38 0.137273 -1.91007 0
M  V30 21296 H 1936.69 2.4962 -3.01988 0
M  V30 21297 H 1938.38 2.24679 -3.32145 0
M  V30 21298 H 1934.97 1.07592 -4.14876 0
M  V30 21299 H 1939.16 0.494212 -4.93833 0
M  V30 21300 H 1934.41 -0.301026 -6.10658 0
M  V30 21301 H 1938.59 -0.876909 -6.90857 0
M  V30 21302 H 1936.21 -1.28055 -7.49337 0
M  V30 21303 N 1937.79 1.51692 0.427485 0
M  V30 21304 C 1938.74 1.74303 1.54017 0
M  V30 21305 C 1939.73 0.609588 1.58052 0
M  V30 21306 O 1940.94 0.791207 1.61678 0
M  V30 21307 H 1937.31 0.550902 0.51187 0
M  V30 21308 H 1939.28 2.67556 1.32123 0
M  V30 21309 C 1938.03 1.89415 2.91577 0
M  V30 21310 H 1937.36 2.76041 2.89208 0
M  V30 21311 H 1938.8 2.09244 3.68772 0
M  V30 21312 C 1937.25 0.656462 3.30442 0
M  V30 21313 O 1937.78 -0.184283 4.01277 0
M  V30 21314 N 1935.99 0.497681 2.86307 0
M  V30 21315 H 1935.54 1.18293 2.28833 0
M  V30 21316 H 1935.5 -0.329176 3.12672 0
M  V30 21317 N 1939.27 -0.683564 1.42004 0
M  V30 21318 C 1940.2 -1.80902 1.40737 0
M  V30 21319 C 1941.21 -1.59865 0.307725 0
M  V30 21320 O 1942.4 -1.69146 0.570244 0
M  V30 21321 C 1939.5 -3.17867 1.17533 0
M  V30 21322 C 1938.67 -3.65829 2.39766 0
M  V30 21323 C 1937.73 -4.81499 2.12238 0
M  V30 21324 O 1936.76 -4.92495 2.85371 0
M  V30 21325 N 1937.96 -5.69592 1.12006 0
M  V30 21326 H 1940.73 -1.82478 2.37744 0
M  V30 21327 H 1938.29 -0.866335 1.36771 0
M  V30 21328 H 1940.28 -3.92891 0.970489 0
M  V30 21329 H 1938.85 -3.11244 0.290811 0
M  V30 21330 H 1938.07 -2.81579 2.75874 0
M  V30 21331 H 1939.36 -3.94615 3.2118 0
M  V30 21332 H 1938.76 -5.63351 0.515003 0
M  V30 21333 H 1937.31 -6.44465 0.975098 0
M  V30 21334 N 1940.75 -1.28031 -0.919012 0
M  V30 21335 C 1941.68 -1.07305 -2.0253 0
M  V30 21336 C 1942.69 -0.0264063 -1.62779 0
M  V30 21337 O 1943.88 -0.268902 -1.76463 0
M  V30 21338 C 1940.98 -0.607467 -3.33411 0
M  V30 21339 C 1940.15 -1.72834 -4.01805 0
M  V30 21340 C 1939.21 -1.25703 -5.10965 0
M  V30 21341 O 1938.24 -1.9583 -5.34452 0
M  V30 21342 N 1939.44 -0.117374 -5.80381 0
M  V30 21343 H 1942.2 -2.02575 -2.2087 0
M  V30 21344 H 1939.77 -1.19713 -1.08997 0
M  V30 21345 H 1941.76 -0.275875 -4.03759 0
M  V30 21346 H 1940.33 0.252241 -3.11581 0
M  V30 21347 H 1939.55 -2.22979 -3.25075 0
M  V30 21348 H 1940.84 -2.48038 -4.44246 0
M  V30 21349 H 1940.23 0.467747 -5.63763 0
M  V30 21350 H 1938.79 0.154978 -6.51616 0
M  V30 21351 N 1942.22 1.12672 -1.10194 0
M  V30 21352 C 1943.16 2.18045 -0.706344 0
M  V30 21353 C 1944.17 1.60779 0.25571 0
M  V30 21354 O 1945.36 1.78454 0.0405568 0
M  V30 21355 C 1942.46 3.38893 -0.021273 0
M  V30 21356 C 1941.63 4.25654 -1.00687 0
M  V30 21357 C 1940.69 5.2501 -0.353745 0
M  V30 21358 O 1939.72 5.60279 -1.00378 0
M  V30 21359 N 1940.92 5.73655 0.888851 0
M  V30 21360 H 1943.68 2.52596 -1.61293 0
M  V30 21361 H 1941.24 1.28071 -0.990431 0
M  V30 21362 H 1943.24 4.0244 0.427064 0
M  V30 21363 H 1941.81 3.02513 0.787681 0
M  V30 21364 H 1941.03 3.5876 -1.63354 0
M  V30 21365 H 1942.31 4.8047 -1.67411 0
M  V30 21366 H 1941.71 5.4716 1.43638 0
M  V30 21367 H 1940.27 6.39101 1.28038 0
M  V30 21368 N 1943.7 0.89031 1.30043 0
M  V30 21369 C 1944.65 0.35935 2.27985 0
M  V30 21370 C 1945.62 -0.5534 1.5661 0
M  V30 21371 O 1946.8 -0.480669 1.84646 0
M  V30 21372 C 1943.94 -0.41541 3.42591 0
M  V30 21373 C 1943.06 0.527163 4.28771 0
M  V30 21374 C 1942.19 -0.26372 5.30545 0
M  V30 21375 C 1941.23 0.673982 6.08378 0
M  V30 21376 N 1940.37 -0.081909 7.02052 0
M  V30 21377 H 1945.21 1.19969 2.72785 0
M  V30 21378 H 1942.74 0.602948 1.34175 0
M  V30 21379 H 1944.7 -0.880572 4.07801 0
M  V30 21380 H 1943.33 -1.22028 2.98846 0
M  V30 21381 H 1942.38 1.11083 3.6382 0
M  V30 21382 H 1943.7 1.24532 4.83004 0
M  V30 21383 H 1942.85 -0.7905 6.01528 0
M  V30 21384 H 1941.59 -1.01507 4.7702 0
M  V30 21385 H 1940.59 1.21234 5.36267 0
M  V30 21386 H 1941.82 1.42451 6.63991 0
M  V30 21387 H 1939.77 -0.815696 6.50909 0
M  V30 21388 H 1939.68 0.576521 7.53799 0
M  V30 21389 H 1940.95 -0.589258 7.7727 0
M  V30 21390 N 1945.18 -1.43489 0.651812 0
M  V30 21391 C 1946.13 -2.30764 -0.0406423 0
M  V30 21392 C 1947.1 -1.44669 -0.816091 0
M  V30 21393 O 1948.28 -1.73541 -0.792978 0
M  V30 21394 C 1945.42 -3.30232 -1.00206 0
M  V30 21395 C 1944.53 -4.31425 -0.222857 0
M  V30 21396 C 1943.67 -5.17975 -1.17794 0
M  V30 21397 C 1942.71 -6.10862 -0.389096 0
M  V30 21398 N 1941.85 -6.90041 -1.2957 0
M  V30 21399 H 1946.69 -2.89431 0.709482 0
M  V30 21400 H 1944.22 -1.42585 0.361636 0
M  V30 21401 H 1946.18 -3.86408 -1.57306 0
M  V30 21402 H 1944.81 -2.73217 -1.71907 0
M  V30 21403 H 1943.86 -3.77554 0.464409 0
M  V30 21404 H 1945.17 -4.97268 0.390608 0
M  V30 21405 H 1944.33 -5.7877 -1.81962 0
M  V30 21406 H 1943.07 -4.52254 -1.82532 0
M  V30 21407 H 1942.07 -5.49156 0.265943 0
M  V30 21408 H 1943.3 -6.78625 0.253855 0
M  V30 21409 H 1941.24 -6.2697 -1.9299 0
M  V30 21410 H 1941.16 -7.52401 -0.736762 0
M  V30 21411 H 1942.43 -7.55342 -1.92557 0
M  V30 21412 N 1946.66 -0.393643 -1.52605 0
M  V30 21413 C 1947.59 0.430786 -2.29492 0
M  V30 21414 C 1948.57 1.0597 -1.33058 0
M  V30 21415 O 1949.75 1.07165 -1.61955 0
M  V30 21416 C 1946.88 1.55599 -3.10494 0
M  V30 21417 C 1945.84 1.05289 -4.14847 0
M  V30 21418 C 1945.16 2.2705 -4.841 0
M  V30 21419 C 1946.46 0.117789 -5.22167 0
M  V30 21420 H 1948.16 -0.210741 -2.98657 0
M  V30 21421 H 1945.7 -0.102795 -1.43633 0
M  V30 21422 H 1947.66 2.1396 -3.63042 0
M  V30 21423 H 1946.38 2.22517 -2.39069 0
M  V30 21424 H 1945.04 0.491788 -3.63286 0
M  V30 21425 H 1944.69 2.92487 -4.09219 0
M  V30 21426 H 1944.39 1.94047 -5.54635 0
M  V30 21427 H 1945.91 2.86045 -5.39454 0
M  V30 21428 H 1947.33 0.609718 -5.70049 0
M  V30 21429 H 1945.72 -0.122689 -5.99975 0
M  V30 21430 H 1946.79 -0.832053 -4.77708 0
M  V30 21431 N 1948.14 1.57115 -0.123593 0
M  V30 21432 C 1949.38 1.94966 0.532239 0
M  V30 21433 C 1949.7 1.00808 1.66922 0
M  V30 21434 O 1948.97 0.0652202 1.95791 0
M  V30 21435 H 1947.55 0.719838 0.199607 0
M  V30 21436 H 1950.22 1.93936 -0.19361 0
M  V30 21437 H 1949.31 2.98115 0.923802 0
M  V30 21438 N 1949.61 -0.150187 1.56883 0
M  V30 21439 C 1950.86 -0.86163 1.82812 0
M  V30 21440 C 1951.18 -1.81849 0.703977 0
M  V30 21441 O 1950.45 -1.93966 -0.274616 0
M  V30 21442 H 1949.03 -0.321175 0.67443 0
M  V30 21443 H 1951.69 -0.144952 1.9436 0
M  V30 21444 H 1950.79 -1.4258 2.77628 0
M  V30 21445 N 1951.09 -1.51916 -0.419434 0
M  V30 21446 C 1952.02 -1.70735 -1.52912 0
M  V30 21447 C 1953.04 -0.587816 -1.51818 0
M  V30 21448 O 1954.23 -0.862677 -1.56269 0
M  V30 21449 C 1951.33 -1.72322 -2.91819 0
M  V30 21450 C 1950.5 -3.01148 -3.17221 0
M  V30 21451 C 1949.56 -2.94683 -4.35945 0
M  V30 21452 O 1948.58 -3.68606 -4.33726 0
M  V30 21453 N 1949.79 -2.11763 -5.40497 0
M  V30 21454 H 1952.55 -2.66468 -1.37167 0
M  V30 21455 H 1950.11 -1.50025 -0.608608 0
M  V30 21456 H 1952.1 -1.65542 -3.69294 0
M  V30 21457 H 1950.67 -0.841065 -3.01073 0
M  V30 21458 H 1949.89 -3.21657 -2.27883 0
M  V30 21459 H 1951.18 -3.8639 -3.31029 0
M  V30 21460 H 1950.58 -1.51114 -5.45143 0
M  V30 21461 H 1949.14 -2.10848 -6.16755 0
M  V30 21462 N 1952.57 0.676023 -1.42365 0
M  V30 21463 C 1953.85 1.43189 -1.33252 0
M  V30 21464 C 1954.23 2.11078 0.0306765 0
M  V30 21465 O 1953.58 2.03148 1.0461 0
M  V30 21466 C 1953.79 2.43534 -2.49984 0
M  V30 21467 C 1955.13 3.08213 -2.92044 0
M  V30 21468 O 1956.16 2.53861 -2.49866 0
M  V30 21469 O 1955.02 4.06702 -3.65042 0
M  V30 21470 H 1952.11 0.638626 -0.525438 0
M  V30 21471 H 1954.66 0.704851 -1.5437 0
M  V30 21472 H 1953.43 1.92159 -3.40867 0
M  V30 21473 H 1953.05 3.23721 -2.30847 0
M  V30 21474 N 1954.05 1.28517 0.912209 0
M  V30 21475 C 1955.3 1.15138 1.65609 0
M  V30 21476 C 1955.61 -0.299022 1.93301 0
M  V30 21477 O 1956.82 -0.55395 2.65789 0
M  V30 21478 C 1955.27 2.01287 2.98348 0
M  V30 21479 C 1954.88 3.51076 2.78297 0
M  V30 21480 C 1956.62 1.96599 3.7623 0
M  V30 21481 C 1954.53 4.29371 4.06687 0
M  V30 21482 H 1953.46 0.42731 0.621226 0
M  V30 21483 H 1956.11 1.5306 1.01217 0
M  V30 21484 H 1954.49 1.56222 3.63883 0
M  V30 21485 H 1955.67 4.04109 2.21434 0
M  V30 21486 H 1953.98 3.57306 2.13826 0
M  V30 21487 H 1956.58 2.52362 4.71399 0
M  V30 21488 H 1956.92 0.943087 4.05477 0
M  V30 21489 H 1957.46 2.39641 3.17517 0
M  V30 21490 H 1954.2 5.32248 3.82612 0
M  V30 21491 H 1953.72 3.81112 4.63156 0
M  V30 21492 H 1955.39 4.39372 4.74933 0
M  V30 21493 N 1955.53 -1.12086 1.1079 0
M  V30 21494 C 1956.77 -1.83677 0.852585 0
M  V30 21495 C 1957.1 -1.84292 -0.621829 0
M  V30 21496 O 1956.36 -1.28655 -1.47466 0
M  V30 21497 C 1956.66 -3.3089 1.35079 0
M  V30 21498 C 1956.32 -3.50443 2.83726 0
M  V30 21499 C 1954.98 -3.55487 3.24318 0
M  V30 21500 C 1957.34 -3.57254 3.79498 0
M  V30 21501 C 1954.66 -3.64891 4.59425 0
M  V30 21502 C 1957.02 -3.68189 5.14412 0
M  V30 21503 C 1955.68 -3.71491 5.54573 0
M  V30 21504 H 1954.95 -0.672122 0.311983 0
M  V30 21505 H 1957.6 -1.32236 1.38513 0
M  V30 21506 H 1955.9 -3.8478 0.738335 0
M  V30 21507 H 1957.6 -3.84759 1.12967 0
M  V30 21508 H 1954.19 -3.47182 2.51322 0
M  V30 21509 H 1958.37 -3.52624 3.49242 0
M  V30 21510 H 1953.63 -3.65721 4.89957 0
M  V30 21511 H 1957.8 -3.72402 5.88464 0
M  V30 21512 H 1955.43 -3.7853 6.59256 0
M  V30 21513 N 1957 -0.897194 -1.29569 0
M  V30 21514 C 1957.94 -0.317616 -2.25979 0
M  V30 21515 C 1958.92 0.568783 -1.52327 0
M  V30 21516 O 1960.1 0.516152 -1.81296 0
M  V30 21517 C 1957.23 0.547511 -3.34245 0
M  V30 21518 C 1956.27 -0.271227 -4.25637 0
M  V30 21519 S 1957.11 -1.6674 -5.08879 0
M  V30 21520 C 1958.26 -0.809125 -6.20648 0
M  V30 21521 H 1958.49 -1.1348 -2.7479 0
M  V30 21522 H 1956.03 -0.697379 -1.37753 0
M  V30 21523 H 1957.99 1.04088 -3.97084 0
M  V30 21524 H 1956.65 1.33891 -2.84134 0
M  V30 21525 H 1955.84 0.389522 -5.02493 0
M  V30 21526 H 1955.44 -0.697651 -3.67435 0
M  V30 21527 H 1957.73 -0.0314136 -6.77493 0
M  V30 21528 H 1958.68 -1.54968 -6.90934 0
M  V30 21529 H 1959.08 -0.36462 -5.63321 0
M  V30 21530 N 1958.48 1.43142 -0.659413 0
M  V30 21531 C 1959.71 2.06087 -0.183265 0
M  V30 21532 C 1960.13 1.49462 1.15354 0
M  V30 21533 O 1959.48 0.628341 1.71342 0
M  V30 21534 C 1959.53 3.61381 -0.0928701 0
M  V30 21535 O 1959.25 4.15902 -1.37684 0
M  V30 21536 C 1960.76 4.41413 0.408616 0
M  V30 21537 H 1957.98 0.664557 -0.092765 0
M  V30 21538 H 1960.52 1.83542 -0.901809 0
M  V30 21539 H 1958.67 3.8309 0.576268 0
M  V30 21540 H 1959.09 5.09629 -1.24009 0
M  V30 21541 H 1960.56 5.50394 0.420806 0
M  V30 21542 H 1961.04 4.14885 1.44108 0
M  V30 21543 H 1961.65 4.24687 -0.228247 0
M  V30 21544 N 1959.96 0.40173 1.52394 0
M  V30 21545 C 1960.87 -0.434422 2.30543 0
M  V30 21546 C 1961.89 -1.06028 1.37964 0
M  V30 21547 O 1963.06 -1.0634 1.71037 0
M  V30 21548 C 1960.13 -1.53995 3.10623 0
M  V30 21549 C 1959.19 -0.93791 4.18929 0
M  V30 21550 C 1958.42 -1.99075 4.95182 0
M  V30 21551 O 1958.64 -3.20777 4.71655 0
M  V30 21552 O 1957.58 -1.60111 5.80214 0
M  V30 21553 H 1961.4 0.202567 3.03024 0
M  V30 21554 H 1958.99 0.165122 1.48485 0
M  V30 21555 H 1960.87 -2.18191 3.60514 0
M  V30 21556 H 1959.55 -2.16167 2.40943 0
M  V30 21557 H 1958.45 -0.25886 3.73203 0
M  V30 21558 H 1959.79 -0.360217 4.9088 0
M  V30 21559 N 1961.44 -1.57047 0.131923 0
M  V30 21560 C 1962.35 -2.19545 -0.826862 0
M  V30 21561 C 1963.36 -1.17532 -1.28305 0
M  V30 21562 O 1964.54 -1.50052 -1.34337 0
M  V30 21563 C 1961.61 -2.79284 -2.0543 0
M  V30 21564 C 1960.67 -3.96375 -1.64879 0
M  V30 21565 C 1959.9 -4.53256 -2.81771 0
M  V30 21566 O 1960.12 -4.09022 -3.97564 0
M  V30 21567 O 1959.06 -5.43748 -2.58111 0
M  V30 21568 H 1962.88 -3.01957 -0.324926 0
M  V30 21569 H 1960.47 -1.49102 -0.0943495 0
M  V30 21570 H 1962.35 -3.17312 -2.77292 0
M  V30 21571 H 1961.02 -1.99895 -2.54605 0
M  V30 21572 H 1959.93 -3.63092 -0.900848 0
M  V30 21573 H 1961.26 -4.77238 -1.20434 0
M  V30 21574 N 1962.92 0.141865 -1.5696 0
M  V30 21575 C 1963.85 1.20022 -1.95262 0
M  V30 21576 C 1964.86 1.38905 -0.849072 0
M  V30 21577 O 1966.05 1.38385 -1.12747 0
M  V30 21578 C 1963.15 2.56421 -2.21589 0
M  V30 21579 C 1962.32 2.58447 -3.52879 0
M  V30 21580 C 1961.38 3.76422 -3.67686 0
M  V30 21581 O 1960.41 3.61059 -4.40028 0
M  V30 21582 N 1961.61 4.94082 -3.04734 0
M  V30 21583 H 1964.38 0.87461 -2.86654 0
M  V30 21584 H 1961.94 0.331379 -1.58472 0
M  V30 21585 H 1963.93 3.33863 -2.28731 0
M  V30 21586 H 1962.5 2.81254 -1.36437 0
M  V30 21587 H 1961.72 1.66884 -3.57132 0
M  V30 21588 H 1963.01 2.56837 -4.39218 0
M  V30 21589 H 1962.4 5.09467 -2.45886 0
M  V30 21590 H 1960.96 5.69281 -3.1743 0
M  V30 21591 N 1964.39 1.52136 0.411372 0
M  V30 21592 C 1965.34 1.75318 1.50107 0
M  V30 21593 C 1966.31 0.595552 1.55056 0
M  V30 21594 O 1967.5 0.832859 1.71663 0
M  V30 21595 C 1964.64 1.9077 2.87578 0
M  V30 21596 C 1963.75 3.18411 2.91956 0
M  V30 21597 C 1962.88 3.24307 4.20712 0
M  V30 21598 C 1961.92 4.4616 4.19056 0
M  V30 21599 N 1961.06 4.49461 5.39379 0
M  V30 21600 H 1965.9 2.68323 1.29642 0
M  V30 21601 H 1963.44 1.32958 0.629326 0
M  V30 21602 H 1965.4 1.97711 3.67377 0
M  V30 21603 H 1964.03 1.01148 3.06543 0
M  V30 21604 H 1963.08 3.20652 2.04661 0
M  V30 21605 H 1964.39 4.08245 2.86597 0
M  V30 21606 H 1963.54 3.30308 5.08902 0
M  V30 21607 H 1962.28 2.32408 4.28763 0
M  V30 21608 H 1961.29 4.40308 3.29255 0
M  V30 21609 H 1962.51 5.39351 4.12646 0
M  V30 21610 H 1960.46 3.60444 5.48102 0
M  V30 21611 H 1960.38 5.33136 5.36005 0
M  V30 21612 H 1961.64 4.59688 6.29529 0
M  V30 21613 N 1965.87 -0.668464 1.42721 0
M  V30 21614 C 1966.82 -1.78184 1.46694 0
M  V30 21615 C 1967.79 -1.63023 0.318213 0
M  V30 21616 O 1968.98 -1.83486 0.523198 0
M  V30 21617 C 1966.12 -3.16254 1.3812 0
M  V30 21618 C 1965.23 -3.42657 2.63078 0
M  V30 21619 C 1964.36 -4.7049 2.46602 0
M  V30 21620 C 1963.4 -4.89948 3.66902 0
M  V30 21621 N 1962.54 -6.09027 3.49329 0
M  V30 21622 H 1967.38 -1.74123 2.41837 0
M  V30 21623 H 1964.92 -0.849937 1.2006 0
M  V30 21624 H 1966.87 -3.96051 1.31146 0
M  V30 21625 H 1965.5 -3.19423 0.46569 0
M  V30 21626 H 1964.56 -2.57068 2.80393 0
M  V30 21627 H 1965.87 -3.52926 3.52484 0
M  V30 21628 H 1965.02 -5.58388 2.37249 0
M  V30 21629 H 1963.76 -4.62515 1.54696 0
M  V30 21630 H 1962.77 -4.0049 3.7668 0
M  V30 21631 H 1963.99 -4.99764 4.59797 0
M  V30 21632 H 1961.94 -6.02213 2.60146 0
M  V30 21633 H 1961.85 -6.20186 4.32326 0
M  V30 21634 H 1963.12 -6.99587 3.438 0
M  V30 21635 N 1967.35 -1.28999 -0.905381 0
M  V30 21636 C 1968.58 -1.19339 -1.68647 0
M  V30 21637 C 1968.99 0.249343 -1.8755 0
M  V30 21638 O 1968.33 1.17945 -1.40836 0
M  V30 21639 C 1968.39 -1.82925 -3.09481 0
M  V30 21640 C 1968.06 -3.32203 -3.13832 0
M  V30 21641 C 1969.06 -4.28513 -2.94402 0
M  V30 21642 C 1966.74 -3.73305 -3.36078 0
M  V30 21643 C 1968.73 -5.63901 -2.97144 0
M  V30 21644 C 1966.42 -5.08816 -3.38452 0
M  V30 21645 C 1967.42 -6.03924 -3.19006 0
M  V30 21646 O 1967.11 -7.36963 -3.21156 0
M  V30 21647 H 1966.84 -0.414909 -0.533692 0
M  V30 21648 H 1969.39 -1.70793 -1.14101 0
M  V30 21649 H 1967.62 -1.25976 -3.65605 0
M  V30 21650 H 1969.31 -1.67667 -3.69652 0
M  V30 21651 H 1970.08 -3.98093 -2.77033 0
M  V30 21652 H 1965.96 -2.99735 -3.50257 0
M  V30 21653 H 1969.5 -6.38112 -2.81884 0
M  V30 21654 H 1965.4 -5.38884 -3.55351 0
M  V30 21655 H 1966.17 -7.45696 -3.37461 0
M  V30 21656 N 1968.83 1.11497 -1.11383 0
M  V30 21657 C 1970.06 1.86756 -0.88351 0
M  V30 21658 C 1970.47 1.80404 0.570169 0
M  V30 21659 O 1969.81 1.18298 1.40539 0
M  V30 21660 C 1969.87 3.3647 -1.26603 0
M  V30 21661 C 1969.54 3.6659 -2.72876 0
M  V30 21662 C 1970.53 3.64121 -3.71095 0
M  V30 21663 C 1968.22 3.95614 -3.09507 0
M  V30 21664 C 1970.21 3.90253 -5.03966 0
M  V30 21665 C 1967.9 4.21404 -4.42563 0
M  V30 21666 C 1968.9 4.18712 -5.39601 0
M  V30 21667 O 1968.59 4.43855 -6.7026 0
M  V30 21668 H 1968.32 0.597446 -0.316283 0
M  V30 21669 H 1970.87 1.41938 -1.48469 0
M  V30 21670 H 1969.1 3.8189 -0.608003 0
M  V30 21671 H 1970.79 3.93092 -1.01162 0
M  V30 21672 H 1971.56 3.41749 -3.4414 0
M  V30 21673 H 1967.44 3.96846 -2.34594 0
M  V30 21674 H 1970.98 3.88067 -5.79698 0
M  V30 21675 H 1966.88 4.43252 -4.69252 0
M  V30 21676 H 1967.64 4.61425 -6.76039 0
M  V30 21677 N 1970.31 0.904053 1.29092 0
M  V30 21678 C 1971.26 0.375028 2.29557 0
M  V30 21679 C 1972.25 -0.528146 1.60956 0
M  V30 21680 O 1973.46 -0.410465 1.75257 0
M  V30 21681 H 1969.83 0.102657 0.74496 0
M  V30 21682 H 1971.8 1.23564 2.71615 0
M  V30 21683 C 1970.55 -0.37845 3.45634 0
M  V30 21684 H 1969.87 0.307303 3.98617 0
M  V30 21685 H 1971.31 -0.713405 4.17955 0
M  V30 21686 C 1969.77 -1.58274 2.97407 0
M  V30 21687 O 1970.3 -2.68199 2.99052 0
M  V30 21688 N 1968.51 -1.4264 2.53184 0
M  V30 21689 H 1968.06 -0.532104 2.52044 0
M  V30 21690 H 1968.01 -2.23348 2.21276 0
M  V30 21691 N 1971.79 -1.4279 0.666995 0
M  V30 21692 C 1972.75 -2.29199 -0.00688445 0
M  V30 21693 C 1973.75 -1.42924 -0.736835 0
M  V30 21694 O 1974.94 -1.64401 -0.576011 0
M  V30 21695 C 1972.07 -3.25268 -1.02046 0
M  V30 21696 H 1973.26 -2.90278 0.753571 0
M  V30 21697 H 1970.82 -1.50299 0.428933 0
M  V30 21698 H 1971.55 -2.69112 -1.80967 0
M  V30 21699 H 1971.34 -3.88892 -0.500533 0
M  V30 21700 H 1972.83 -3.9009 -1.49063 0
M  V30 21701 N 1973.26 -0.409806 -1.52179 0
M  V30 21702 C 1974.2 0.459953 -2.23517 0
M  V30 21703 C 1975.17 1.04743 -1.24369 0
M  V30 21704 O 1976.36 1.09517 -1.53422 0
M  V30 21705 C 1973.49 1.6385 -2.9643 0
M  V30 21706 C 1972.53 1.17434 -4.10014 0
M  V30 21707 S 1973.36 0.138933 -5.3532 0
M  V30 21708 C 1974.52 1.32279 -6.11762 0
M  V30 21709 H 1974.75 -0.145775 -2.96942 0
M  V30 21710 H 1972.29 -0.19411 -1.53175 0
M  V30 21711 H 1974.24 2.31429 -3.39044 0
M  V30 21712 H 1972.91 2.21557 -2.22646 0
M  V30 21713 H 1972.1 2.05487 -4.60208 0
M  V30 21714 H 1971.7 0.577187 -3.69519 0
M  V30 21715 H 1973.99 2.24626 -6.39179 0
M  V30 21716 H 1974.94 0.861371 -7.02841 0
M  V30 21717 H 1975.34 1.54889 -5.42835 0
M  V30 21718 N 1974.74 1.56975 -0.14025 0
M  V30 21719 C 1975.69 2.16418 0.802003 0
M  V30 21720 C 1976.66 1.09512 1.24885 0
M  V30 21721 O 1977.84 1.37522 1.32259 0
M  V30 21722 C 1974.98 2.78465 2.03841 0
M  V30 21723 C 1974.1 3.99743 1.63798 0
M  V30 21724 C 1973.23 4.4981 2.82567 0
M  V30 21725 C 1972.27 5.63569 2.38865 0
M  V30 21726 N 1971.41 6.08285 3.5062 0
M  V30 21727 H 1976.25 2.96602 0.288284 0
M  V30 21728 H 1973.78 1.46519 0.130587 0
M  V30 21729 H 1975.74 3.12581 2.76314 0
M  V30 21730 H 1974.37 2.00936 2.52635 0
M  V30 21731 H 1973.42 3.71651 0.811169 0
M  V30 21732 H 1974.74 4.82177 1.27697 0
M  V30 21733 H 1973.89 4.85945 3.63238 0
M  V30 21734 H 1972.63 3.66369 3.21908 0
M  V30 21735 H 1971.63 5.27017 1.56632 0
M  V30 21736 H 1972.86 6.48791 2.00617 0
M  V30 21737 H 1970.81 5.2778 3.89595 0
M  V30 21738 H 1970.72 6.85628 3.18512 0
M  V30 21739 H 1971.99 6.49063 4.31668 0
M  V30 21740 N 1976.22 -0.133539 1.57033 0
M  V30 21741 C 1977.17 -1.16445 1.99272 0
M  V30 21742 C 1978.14 -1.41954 0.862458 0
M  V30 21743 O 1979.32 -1.54063 1.12557 0
M  V30 21744 C 1976.46 -2.48958 2.38985 0
M  V30 21745 C 1975.57 -2.30509 3.65362 0
M  V30 21746 C 1974.71 -3.56151 3.94119 0
M  V30 21747 C 1973.75 -3.32796 5.13725 0
M  V30 21748 N 1972.89 -4.50603 5.38425 0
M  V30 21749 H 1977.73 -0.797257 2.87137 0
M  V30 21750 H 1975.26 -0.382194 1.42048 0
M  V30 21751 H 1977.22 -3.26242 2.60043 0
M  V30 21752 H 1975.85 -2.83599 1.54181 0
M  V30 21753 H 1974.9 -1.44214 3.52004 0
M  V30 21754 H 1976.21 -2.0922 4.52801 0
M  V30 21755 H 1975.37 -4.41858 4.15748 0
M  V30 21756 H 1974.11 -3.80458 3.05128 0
M  V30 21757 H 1973.11 -2.45478 4.91956 0
M  V30 21758 H 1974.34 -3.09875 6.0428 0
M  V30 21759 H 1972.28 -4.75058 4.5239 0
M  V30 21760 H 1972.2 -4.32365 6.20158 0
M  V30 21761 H 1973.47 -5.37486 5.64561 0
M  V30 21762 N 1977.7 -1.52352 -0.403298 0
M  V30 21763 C 1978.63 -1.79074 -1.49849 0
M  V30 21764 C 1979.61 -0.642006 -1.57519 0
M  V30 21765 O 1980.79 -0.888182 -1.72699 0
M  V30 21766 C 1977.92 -1.9467 -2.87612 0
M  V30 21767 C 1976.88 -3.10295 -2.9479 0
M  V30 21768 C 1976.2 -3.11122 -4.34864 0
M  V30 21769 C 1977.5 -4.49643 -2.65741 0
M  V30 21770 H 1979.2 -2.70783 -1.27737 0
M  V30 21771 H 1976.74 -1.30298 -0.613064 0
M  V30 21772 H 1978.7 -2.11947 -3.64221 0
M  V30 21773 H 1977.42 -0.996377 -3.1103 0
M  V30 21774 H 1976.08 -2.92778 -2.20627 0
M  V30 21775 H 1975.73 -2.13801 -4.553 0
M  V30 21776 H 1975.43 -3.88786 -4.4059 0
M  V30 21777 H 1976.95 -3.30536 -5.13399 0
M  V30 21778 H 1978.37 -4.67335 -3.3207 0
M  V30 21779 H 1976.76 -5.29268 -2.82835 0
M  V30 21780 H 1977.83 -4.57339 -1.61149 0
M  V30 21781 N 1979.18 0.660885 -1.43074 0
M  V30 21782 C 1980.42 1.41805 -1.43999 0
M  V30 21783 C 1980.74 1.949 -0.0625341 0
M  V30 21784 O 1980.01 1.7395 0.901019 0
M  V30 21785 H 1978.59 0.526263 -0.530147 0
M  V30 21786 H 1981.26 0.779967 -1.78613 0
M  V30 21787 H 1980.35 2.2642 -2.14803 0
M  V30 21788 N 1980.65 1.29477 0.898527 0
M  V30 21789 C 1981.88 1.20529 1.68783 0
M  V30 21790 C 1982.3 -0.230536 1.86682 0
M  V30 21791 O 1981.66 -1.1664 1.38798 0
M  V30 21792 C 1981.71 1.92501 3.04919 0
M  V30 21793 O 1980.81 1.24286 3.93226 0
M  V30 21794 H 1980.16 0.417586 0.516254 0
M  V30 21795 H 1982.69 1.71066 1.1224 0
M  V30 21796 H 1982.7 2.01001 3.55053 0
M  V30 21797 H 1981.37 2.96934 2.9121 0
M  V30 21798 H 1979.95 1.24052 3.51661 0
M  V30 21799 N 1982.13 -1.10905 1.11972 0
M  V30 21800 C 1983.08 -2.17107 0.783135 0
M  V30 21801 C 1984.05 -1.6424 -0.24791 0
M  V30 21802 O 1985.23 -1.90399 -0.123577 0
M  V30 21803 C 1982.37 -3.44274 0.238574 0
M  V30 21804 C 1981.49 -4.11119 1.32685 0
M  V30 21805 C 1980.62 -5.25989 0.742236 0
M  V30 21806 C 1979.66 -5.84728 1.80997 0
M  V30 21807 N 1978.8 -6.90983 1.24444 0
M  V30 21808 H 1983.64 -2.45243 1.69292 0
M  V30 21809 H 1981.18 -1.20386 0.845323 0
M  V30 21810 H 1983.13 -4.17091 -0.0951679 0
M  V30 21811 H 1981.76 -3.16505 -0.634384 0
M  V30 21812 H 1980.82 -3.3632 1.77745 0
M  V30 21813 H 1982.13 -4.50824 2.13445 0
M  V30 21814 H 1981.28 -6.05638 0.358877 0
M  V30 21815 H 1980.02 -4.87604 -0.096622 0
M  V30 21816 H 1979.03 -5.03753 2.20258 0
M  V30 21817 H 1980.25 -6.25178 2.65196 0
M  V30 21818 H 1978.2 -6.54607 0.427323 0
M  V30 21819 H 1978.11 -7.29374 1.98869 0
M  V30 21820 H 1979.38 -7.74424 0.888154 0
M  V30 21821 N 1983.61 -0.910886 -1.2861 0
M  V30 21822 C 1984.56 -0.395575 -2.27385 0
M  V30 21823 C 1985.53 0.528415 -1.57471 0
M  V30 21824 O 1986.71 0.451232 -1.85388 0
M  V30 21825 C 1983.85 0.360855 -3.43208 0
M  V30 21826 C 1982.97 -0.59531 -4.27879 0
M  V30 21827 C 1982.1 0.179282 -5.30897 0
M  V30 21828 C 1981.14 -0.770684 -6.07229 0
M  V30 21829 N 1980.28 -0.0297918 -7.02094 0
M  V30 21830 H 1985.12 -1.24293 -2.70842 0
M  V30 21831 H 1982.65 -0.624218 -1.33199 0
M  V30 21832 H 1984.61 0.815583 -4.0915 0
M  V30 21833 H 1983.24 1.17258 -3.0075 0
M  V30 21834 H 1982.29 -1.16857 -3.62006 0
M  V30 21835 H 1983.61 -1.32201 -4.80962 0
M  V30 21836 H 1982.76 0.694702 -6.0271 0
M  V30 21837 H 1981.5 0.93905 -4.78574 0
M  V30 21838 H 1980.5 -1.29751 -5.3427 0
M  V30 21839 H 1981.73 -1.52996 -6.61641 0
M  V30 21840 H 1979.67 0.712039 -6.52124 0
M  V30 21841 H 1979.59 -0.69637 -7.52786 0
M  V30 21842 H 1980.86 0.465527 -7.78109 0
M  V30 21843 N 1985.09 1.42434 -0.674558 0
M  V30 21844 C 1986.5 1.84678 -0.274015 0
M  V30 21845 C 1986.85 1.56464 1.18378 0
M  V30 21846 O 1985.98 1.02434 1.90621 0
M  V30 21847 C 1986.57 3.3523 -0.490545 0
M  V30 21848 C 1985.13 3.76124 -0.144124 0
M  V30 21849 C 1984.28 2.66013 -0.783107 0
M  V30 21850 H 1987.23 1.32284 -0.876737 0
M  V30 21851 H 1987.25 3.79628 0.257403 0
M  V30 21852 H 1986.76 3.55733 -1.55163 0
M  V30 21853 H 1984.86 3.61228 0.913523 0
M  V30 21854 H 1984.97 4.75521 -0.584478 0
M  V30 21855 H 1983.34 2.53796 -0.214457 0
M  V30 21856 H 1984.12 2.89339 -1.84764 0
M  V30 21857 N 1986.57 0.417871 1.51959 0
M  V30 21858 C 1987.5 -0.438814 2.2496 0
M  V30 21859 C 1988.51 -1.00283 1.28246 0
M  V30 21860 O 1989.7 -0.900288 1.54133 0
M  V30 21861 C 1986.8 -1.62371 2.97471 0
M  V30 21862 C 1985.97 -1.18204 4.21125 0
M  V30 21863 C 1985.03 -2.23484 4.76384 0
M  V30 21864 O 1984.06 -1.83715 5.38737 0
M  V30 21865 N 1985.26 -3.55751 4.58717 0
M  V30 21866 H 1988.03 0.18676 2.99118 0
M  V30 21867 H 1985.59 0.245711 1.60025 0
M  V30 21868 H 1987.58 -2.32385 3.3133 0
M  V30 21869 H 1986.15 -2.15503 2.26445 0
M  V30 21870 H 1985.37 -0.309696 3.92982 0
M  V30 21871 H 1986.66 -0.86403 5.0141 0
M  V30 21872 H 1986.05 -3.90806 4.09008 0
M  V30 21873 H 1984.61 -4.21715 4.96991 0
M  V30 21874 N 1988.04 -1.56898 0.148573 0
M  V30 21875 C 1988.99 -2.1684 -0.790514 0
M  V30 21876 C 1989.96 -1.10173 -1.24303 0
M  V30 21877 O 1991.15 -1.38221 -1.31527 0
M  V30 21878 C 1988.29 -2.79542 -2.02361 0
M  V30 21879 C 1987.4 -4.00606 -1.61676 0
M  V30 21880 C 1986.53 -4.51303 -2.80178 0
M  V30 21881 C 1985.57 -5.64828 -2.35873 0
M  V30 21882 N 1984.71 -6.10136 -3.47389 0
M  V30 21883 H 1989.55 -2.96751 -0.27255 0
M  V30 21884 H 1987.09 -1.46586 -0.122814 0
M  V30 21885 H 1989.05 -3.14042 -2.74652 0
M  V30 21886 H 1987.68 -2.02273 -2.51566 0
M  V30 21887 H 1986.73 -3.72076 -0.791448 0
M  V30 21888 H 1988.04 -4.82848 -1.25138 0
M  V30 21889 H 1987.19 -4.87865 -3.60656 0
M  V30 21890 H 1985.93 -3.68071 -3.19961 0
M  V30 21891 H 1984.94 -5.2784 -1.53835 0
M  V30 21892 H 1986.16 -6.49846 -1.97174 0
M  V30 21893 H 1984.11 -5.29839 -3.8679 0
M  V30 21894 H 1984.03 -6.87308 -3.14871 0
M  V30 21895 H 1985.29 -6.51344 -4.28219 0
M  V30 21896 N 1989.52 0.125209 -1.57102 0
M  V30 21897 C 1990.93 0.683017 -1.73758 0
M  V30 21898 C 1991.28 1.80615 -0.766324 0
M  V30 21899 O 1990.41 2.16311 0.0621742 0
M  V30 21900 C 1991 1.24576 -3.15066 0
M  V30 21901 C 1989.56 1.74992 -3.33249 0
M  V30 21902 C 1988.71 0.647107 -2.69644 0
M  V30 21903 H 1991.66 -0.100657 -1.5838 0
M  V30 21904 H 1991.68 2.11547 -3.16272 0
M  V30 21905 H 1991.19 0.4281 -3.85732 0
M  V30 21906 H 1989.3 2.59255 -2.67615 0
M  V30 21907 H 1989.41 1.86364 -4.41368 0
M  V30 21908 H 1987.77 1.07918 -2.30707 0
M  V30 21909 H 1988.56 -0.159469 -3.42929 0
M  V30 21910 N 1991 1.52564 0.395213 0
M  V30 21911 C 1992.25 1.6653 1.13801 0
M  V30 21912 C 1992.56 0.408362 1.9129 0
M  V30 21913 O 1993.77 0.428049 2.68104 0
M  V30 21914 C 1992.22 2.94273 2.07199 0
M  V30 21915 C 1991.83 4.27125 1.35162 0
M  V30 21916 C 1993.58 3.17604 2.81652 0
M  V30 21917 C 1991.48 5.4598 2.27289 0
M  V30 21918 H 1990.41 0.620392 0.428521 0
M  V30 21919 H 1993.06 1.79058 0.401302 0
M  V30 21920 H 1991.45 2.75477 2.8448 0
M  V30 21921 H 1992.62 4.56452 0.631492 0
M  V30 21922 H 1990.94 4.10006 0.726934 0
M  V30 21923 H 1993.53 4.03582 3.5075 0
M  V30 21924 H 1993.88 2.32415 3.45382 0
M  V30 21925 H 1994.41 3.36938 2.11466 0
M  V30 21926 H 1991.15 6.33557 1.68184 0
M  V30 21927 H 1990.67 5.20972 2.97235 0
M  V30 21928 H 1992.35 5.79609 2.8751 0
M  V30 21929 N 1992.48 -0.653289 1.43422 0
M  V30 21930 C 1993.89 -1.23446 1.40064 0
M  V30 21931 C 1994.24 -1.95921 0.104677 0
M  V30 21932 O 1993.37 -2.01233 -0.79588 0
M  V30 21933 C 1993.96 -2.24523 2.53722 0
M  V30 21934 C 1992.52 -2.78117 2.53629 0
M  V30 21935 C 1991.67 -1.52759 2.3143 0
M  V30 21936 H 1994.62 -0.445312 1.52324 0
M  V30 21937 H 1994.64 -3.06696 2.25207 0
M  V30 21938 H 1994.15 -1.71746 3.4803 0
M  V30 21939 H 1992.25 -3.34957 1.632 0
M  V30 21940 H 1992.36 -3.25667 3.51394 0
M  V30 21941 H 1990.73 -1.80104 1.80096 0
M  V30 21942 H 1991.51 -1.01917 3.27823 0
M  V30 21943 N 1993.96 -1.29952 -0.891648 0
M  V30 21944 C 1995.37 -1.08138 -1.17381 0
M  V30 21945 C 1995.57 0.162165 -2.00846 0
M  V30 21946 O 1994.63 0.857667 -2.37488 0
M  V30 21947 C 1995.94 -2.34125 -1.88695 0
M  V30 21948 C 1997.49 -2.39524 -2.01487 0
M  V30 21949 C 1997.96 -3.65336 -2.76213 0
M  V30 21950 N 1999.46 -3.66105 -2.83762 0
M  V30 21951 C 2000.19 -4.6014 -3.42139 0
M  V30 21952 N 1999.69 -5.64513 -4.01617 0
M  V30 21953 N 2001.48 -4.47695 -3.3989 0
M  V30 21954 H 1993.63 -2.09742 -0.334958 0
M  V30 21955 H 1995.89 -0.924239 -0.210916 0
M  V30 21956 H 1995.6 -3.24839 -1.34805 0
M  V30 21957 H 1995.47 -2.42258 -2.89121 0
M  V30 21958 H 1997.86 -1.49293 -2.5455 0
M  V30 21959 H 1997.94 -2.35371 -1.0017 0
M  V30 21960 H 1997.59 -4.55922 -2.23824 0
M  V30 21961 H 1997.52 -3.66749 -3.77893 0
M  V30 21962 H 2000.01 -2.90643 -2.41526 0
M  V30 21963 H 2000.32 -6.32376 -4.44207 0
M  V30 21964 H 1998.66 -5.68313 -4.00056 0
M  V30 21965 H 2001.86 -3.65343 -2.92647 0
M  V30 21966 H 2002.03 -5.21162 -3.85089 0
M  V30 21967 N 1995.44 1.1031 -1.12559 0
M  V30 21968 C 1996.85 1.63801 -0.895891 0
M  V30 21969 C 1997.2 1.87753 0.569511 0
M  V30 21970 O 1996.32 1.62046 1.43423 0
M  V30 21971 C 1996.92 2.9757 -1.6198 0
M  V30 21972 C 1995.48 3.47922 -1.43622 0
M  V30 21973 C 1994.62 2.22506 -1.65489 0
M  V30 21974 H 1997.57 0.937927 -1.28018 0
M  V30 21975 H 1997.6 3.65099 -1.07159 0
M  V30 21976 H 1997.11 2.80105 -2.68631 0
M  V30 21977 H 1995.21 3.70529 -0.392328 0
M  V30 21978 H 1995.32 4.25953 -2.1932 0
M  V30 21979 H 1993.69 2.30712 -1.07908 0
M  V30 21980 H 1994.47 2.07571 -2.7344 0
M  V30 21981 N 1996.91 0.917694 1.28125 0
M  V30 21982 C 1997.84 0.426179 2.29578 0
M  V30 21983 C 1998.82 -0.508289 1.62328 0
M  V30 21984 O 2000.01 -0.415181 1.8971 0
M  V30 21985 C 1997.14 -0.331007 3.45719 0
M  V30 21986 C 1996.09 0.51469 4.24894 0
M  V30 21987 C 1995.42 -0.371069 5.33411 0
M  V30 21988 C 1996.72 1.774 4.9125 0
M  V30 21989 H 1998.41 1.27403 2.7094 0
M  V30 21990 H 1995.96 0.614065 1.30251 0
M  V30 21991 H 1997.91 -0.68573 4.15783 0
M  V30 21992 H 1996.64 -1.2128 3.03247 0
M  V30 21993 H 1995.3 0.851986 3.56562 0
M  V30 21994 H 1994.94 -1.25152 4.87182 0
M  V30 21995 H 1994.64 0.19121 5.87289 0
M  V30 21996 H 1996.17 -0.721587 6.06321 0
M  V30 21997 H 1997.58 1.48795 5.53654 0
M  V30 21998 H 1995.98 2.27899 5.55141 0
M  V30 21999 H 1997.05 2.49947 4.15517 0
M  V30 22000 N 1998.39 -1.42074 0.682102 0
M  V30 22001 C 1999.34 -2.326 -0.00324978 0
M  V30 22002 C 2000.33 -1.50226 -0.782851 0
M  V30 22003 O 2001.54 -1.6625 -0.689991 0
M  V30 22004 H 1997.91 -0.751738 -0.0198484 0
M  V30 22005 H 1999.89 -2.88093 0.777513 0
M  V30 22006 C 1998.63 -3.3488 -0.935455 0
M  V30 22007 H 1997.96 -3.98309 -0.344986 0
M  V30 22008 H 1999.4 -4.00791 -1.38355 0
M  V30 22009 C 1997.86 -2.67711 -2.0453 0
M  V30 22010 O 1998.39 -2.5146 -3.13258 0
M  V30 22011 N 1996.59 -2.2662 -1.81912 0
M  V30 22012 H 1996.14 -2.40037 -0.934876 0
M  V30 22013 H 1996.1 -1.82011 -2.56358 0
M  V30 22014 N 1999.87 -0.425924 -1.51735 0
M  V30 22015 C 2000.82 0.391248 -2.2746 0
M  V30 22016 C 2001.79 1.02669 -1.30569 0
M  V30 22017 O 2002.97 1.04777 -1.59457 0
M  V30 22018 C 2000.11 1.4928 -3.11142 0
M  V30 22019 C 1999.22 0.876622 -4.23012 0
M  V30 22020 C 1998.36 1.95227 -4.94024 0
M  V30 22021 C 1997.4 1.31392 -5.97832 0
M  V30 22022 N 1996.54 2.33043 -6.62296 0
M  V30 22023 H 2001.38 -0.26089 -2.96856 0
M  V30 22024 H 1998.91 -0.1405 -1.46427 0
M  V30 22025 H 2000.87 2.14262 -3.57977 0
M  V30 22026 H 1999.5 2.11473 -2.43884 0
M  V30 22027 H 1998.55 0.115399 -3.80225 0
M  V30 22028 H 1999.86 0.370471 -4.97422 0
M  V30 22029 H 1999.02 2.67897 -5.44349 0
M  V30 22030 H 1997.76 2.49212 -4.19219 0
M  V30 22031 H 1996.76 0.572626 -5.4681 0
M  V30 22032 H 1997.99 0.781544 -6.74588 0
M  V30 22033 H 1995.93 2.86129 -5.9031 0
M  V30 22034 H 1995.85 1.87287 -7.32434 0
M  V30 22035 H 1997.12 3.05231 -7.17255 0
M  V30 22036 N 2001.35 1.56817 -0.156891 0
M  V30 22037 C 2002.59 1.98331 0.494366 0
M  V30 22038 C 2002.95 1.04015 1.61384 0
M  V30 22039 O 2004.15 1.34612 2.32665 0
M  V30 22040 C 2002.42 3.43748 0.978364 0
M  V30 22041 S 2003.98 4.07289 1.63283 0
M  V30 22042 H 2000.8 0.692874 0.159519 0
M  V30 22043 H 2003.4 1.93883 -0.250945 0
M  V30 22044 H 2002.11 4.10115 0.15298 0
M  V30 22045 H 2001.64 3.51932 1.75806 0
M  V30 22046 H 2003.65 4.01152 2.92047 0
M  V30 22047 N 2002.83 -0.116876 1.57166 0
M  V30 22048 C 2003.76 -1.16901 1.97147 0
M  V30 22049 C 2004.77 -1.37537 0.871063 0
M  V30 22050 O 2005.96 -1.36574 1.14934 0
M  V30 22051 C 2003.06 -2.52863 2.2564 0
M  V30 22052 C 2002.23 -2.528 3.56946 0
M  V30 22053 C 2001.29 -3.70525 3.73628 0
M  V30 22054 O 2000.32 -3.54013 4.45717 0
M  V30 22055 N 2001.52 -4.89172 3.12556 0
M  V30 22056 H 2004.28 -0.828895 2.88009 0
M  V30 22057 H 2001.85 -0.306125 1.5898 0
M  V30 22058 H 2003.84 -3.30182 2.34013 0
M  V30 22059 H 2002.41 -2.79048 1.40894 0
M  V30 22060 H 2001.63 -1.61181 3.59742 0
M  V30 22061 H 2002.92 -2.49817 4.43248 0
M  V30 22062 H 2002.31 -5.05491 2.5396 0
M  V30 22063 H 2000.87 -5.64159 3.26447 0
M  V30 22064 N 2004.3 -1.52772 -0.387116 0
M  V30 22065 C 2005.55 -1.67576 -1.12973 0
M  V30 22066 C 2005.87 -0.419122 -1.90443 0
M  V30 22067 O 2005.14 0.566514 -1.8753 0
M  V30 22068 H 2003.72 -0.617716 -0.420043 0
M  V30 22069 H 2006.38 -1.89892 -0.43896 0
M  V30 22070 H 2005.48 -2.52704 -1.83158 0
M  V30 22071 N 2005.78 0.645673 -1.43767 0
M  V30 22072 C 2006.71 1.76974 -1.52324 0
M  V30 22073 C 2007.69 1.65862 -0.377316 0
M  V30 22074 O 2008.88 1.84843 -0.595532 0
M  V30 22075 C 2006.01 3.1544 -1.4531 0
M  V30 22076 C 2004.96 3.41324 -2.58229 0
M  V30 22077 C 2004.29 4.79669 -2.36267 0
M  V30 22078 C 2005.59 3.35321 -4.00446 0
M  V30 22079 H 2007.28 1.70069 -2.46408 0
M  V30 22080 H 2004.83 0.816784 -1.18594 0
M  V30 22081 H 2006.78 3.93838 -1.49899 0
M  V30 22082 H 2005.5 3.23093 -0.477344 0
M  V30 22083 H 2004.16 2.653 -2.53005 0
M  V30 22084 H 2003.81 4.84007 -1.36918 0
M  V30 22085 H 2003.51 4.97947 -3.11966 0
M  V30 22086 H 2005.04 5.60315 -2.42652 0
M  V30 22087 H 2006.45 4.03644 -4.07117 0
M  V30 22088 H 2004.85 3.65135 -4.76231 0
M  V30 22089 H 2005.92 2.33373 -4.25047 0
M  V30 22090 N 2007.26 1.30423 0.884744 0
M  V30 22091 C 2008.51 1.19435 1.63899 0
M  V30 22092 C 2008.84 -0.25033 1.9258 0
M  V30 22093 O 2008.11 -1.17904 1.5469 0
M  V30 22094 C 2008.4 2.02357 2.97865 0
M  V30 22095 C 2008.25 3.55046 2.76156 0
M  V30 22096 C 2009.57 1.86156 3.98791 0
M  V30 22097 H 2006.69 0.435234 0.594761 0
M  V30 22098 H 2009.33 1.60058 1.0238 0
M  V30 22099 H 2007.48 1.67842 3.50373 0
M  V30 22100 H 2009.15 3.99622 2.30434 0
M  V30 22101 H 2007.39 3.79218 2.10657 0
M  V30 22102 H 2008.07 4.08356 3.71415 0
M  V30 22103 H 2010.54 2.16332 3.55443 0
M  V30 22104 H 2009.42 2.46501 4.90437 0
M  V30 22105 H 2009.68 0.820775 4.34414 0
M  V30 22106 N 2008.74 -1.09711 1.13142 0
M  V30 22107 C 2009.98 -1.81827 0.891354 0
M  V30 22108 C 2010.31 -1.8557 -0.582598 0
M  V30 22109 O 2009.57 -1.31754 -1.44704 0
M  V30 22110 C 2009.87 -3.27951 1.42067 0
M  V30 22111 C 2009.53 -3.44346 2.91096 0
M  V30 22112 C 2008.19 -3.48528 3.31786 0
M  V30 22113 C 2010.55 -3.49124 3.86991 0
M  V30 22114 C 2007.87 -3.55064 4.67061 0
M  V30 22115 C 2010.23 -3.57194 5.22106 0
M  V30 22116 C 2008.89 -3.59644 5.62328 0
M  V30 22117 H 2008.16 -0.665353 0.32617 0
M  V30 22118 H 2010.81 -1.29268 1.41287 0
M  V30 22119 H 2009.11 -3.83128 0.819786 0
M  V30 22120 H 2010.81 -3.82276 1.21103 0
M  V30 22121 H 2007.4 -3.41773 2.58629 0
M  V30 22122 H 2011.58 -3.45136 3.56643 0
M  V30 22123 H 2006.84 -3.55246 4.97604 0
M  V30 22124 H 2011.01 -3.59836 5.9623 0
M  V30 22125 H 2008.64 -3.64461 6.67137 0
M  V30 22126 N 2010.22 -0.924476 -1.27637 0
M  V30 22127 C 2011.49 -0.481742 -1.89575 0
M  V30 22128 C 2011.87 1.04002 -1.83703 0
M  V30 22129 O 2011.22 1.89277 -1.28009 0
M  V30 22130 C 2011.43 -1.02419 -3.33633 0
M  V30 22131 C 2012.78 -1.08274 -4.10563 0
M  V30 22132 O 2013.8 -0.97359 -3.42636 0
M  V30 22133 O 2012.66 -1.25042 -5.32003 0
M  V30 22134 H 2009.76 -0.15444 -0.812451 0
M  V30 22135 H 2012.3 -1.01596 -1.35928 0
M  V30 22136 H 2011.07 -2.06808 -3.32184 0
M  V30 22137 H 2010.7 -0.471435 -3.94795 0
M  V30 22138 N 2011.69 1.41711 -0.689627 0
M  V30 22139 C 2012.94 2.00548 -0.215219 0
M  V30 22140 C 2013.26 1.55228 1.19011 0
M  V30 22141 O 2014.46 2.06585 1.76167 0
M  V30 22142 C 2012.92 3.58348 -0.333888 0
M  V30 22143 C 2012.53 4.12652 -1.74421 0
M  V30 22144 C 2014.27 4.24423 0.0810486 0
M  V30 22145 C 2012.18 5.62865 -1.81485 0
M  V30 22146 H 2011.11 0.750088 -0.0767043 0
M  V30 22147 H 2013.76 1.6226 -0.856963 0
M  V30 22148 H 2012.14 3.94211 0.376004 0
M  V30 22149 H 2013.31 3.8822 -2.48238 0
M  V30 22150 H 2011.63 3.59082 -2.1083 0
M  V30 22151 H 2014.23 5.34678 0.0486243 0
M  V30 22152 H 2014.57 4.00984 1.1188 0
M  V30 22153 H 2015.1 3.93573 -0.578357 0
M  V30 22154 H 2011.84 5.91122 -2.83292 0
M  V30 22155 H 2011.36 5.89242 -1.12044 0
M  V30 22156 H 2013.04 6.27536 -1.57503 0
M  V30 22157 N 2013.17 0.433965 1.51507 0
M  V30 22158 C 2014.42 -0.133827 2.02358 0
M  V30 22159 C 2014.75 -1.42654 1.3177 0
M  V30 22160 O 2014.03 -1.89651 0.431588 0
M  V30 22161 C 2014.31 -0.356052 3.58335 0
M  V30 22162 C 2014.16 0.955077 4.39543 0
M  V30 22163 C 2015.48 -1.12732 4.25417 0
M  V30 22164 H 2012.6 -0.0471634 0.735489 0
M  V30 22165 H 2015.24 0.572301 1.81176 0
M  V30 22166 H 2013.39 -0.957541 3.76515 0
M  V30 22167 H 2015.06 1.59029 4.33021 0
M  V30 22168 H 2013.31 1.56044 4.04762 0
M  V30 22169 H 2013.98 0.753671 5.46831 0
M  V30 22170 H 2016.45 -0.617852 4.11487 0
M  V30 22171 H 2015.33 -1.25157 5.34441 0
M  V30 22172 H 2015.59 -2.15452 3.86048 0
M  V30 22173 N 2014.65 -1.56732 0.165206 0
M  V30 22174 C 2015.88 -2.01069 -0.487749 0
M  V30 22175 C 2016.29 -1.04541 -1.57215 0
M  V30 22176 O 2015.65 -0.0452829 -1.82444 0
M  V30 22177 C 2015.7 -3.45249 -1.07169 0
M  V30 22178 O 2015.42 -4.38089 -0.0305845 0
M  V30 22179 C 2016.92 -4.04956 -1.80348 0
M  V30 22180 H 2014.14 -0.659179 -0.125394 0
M  V30 22181 H 2016.69 -2.02774 0.26514 0
M  V30 22182 H 2014.84 -3.44338 -1.77511 0
M  V30 22183 H 2015.26 -5.22471 -0.460866 0
M  V30 22184 H 2016.73 -5.07783 -2.16474 0
M  V30 22185 H 2017.21 -3.467 -2.69621 0
M  V30 22186 H 2017.81 -4.09552 -1.14662 0
M  V30 22187 N 2016.13 0.10854 -1.57226 0
M  V30 22188 C 2017.35 0.832276 -1.89968 0
M  V30 22189 C 2017.78 1.72143 -0.758179 0
M  V30 22190 O 2017.14 1.78952 0.290864 0
M  V30 22191 C 2017.18 1.63287 -3.21512 0
M  V30 22192 O 2016.29 2.74071 -3.08154 0
M  V30 22193 H 2015.63 0.229508 -0.623075 0
M  V30 22194 H 2018.16 0.0877974 -2.04412 0
M  V30 22195 H 2018.17 2.01992 -3.5449 0
M  V30 22196 H 2016.84 0.98022 -4.04184 0
M  V30 22197 H 2015.42 2.38492 -2.86664 0
M  V30 22198 N 2017.61 1.52975 0.379009 0
M  V30 22199 C 2018.54 1.74729 1.48332 0
M  V30 22200 C 2019.55 0.627862 1.50206 0
M  V30 22201 O 2020.74 0.903805 1.53927 0
M  V30 22202 C 2017.84 1.79998 2.87148 0
M  V30 22203 C 2017.01 3.09452 3.09125 0
M  V30 22204 C 2016.07 3.06138 4.27979 0
M  V30 22205 O 2015.1 3.79976 4.23801 0
M  V30 22206 N 2016.3 2.26019 5.34692 0
M  V30 22207 H 2019.07 2.70011 1.30054 0
M  V30 22208 H 2016.63 1.51586 0.568617 0
M  V30 22209 H 2018.62 1.75275 3.64775 0
M  V30 22210 H 2017.19 0.920593 2.98737 0
M  V30 22211 H 2016.41 3.27586 2.19274 0
M  V30 22212 H 2017.7 3.9503 3.20669 0
M  V30 22213 H 2017.09 1.65515 5.40945 0
M  V30 22214 H 2015.65 2.27126 6.10948 0
M  V30 22215 N 2019.08 -0.63804 1.44107 0
M  V30 22216 C 2020.33 -1.39366 1.45808 0
M  V30 22217 C 2020.65 -1.95384 0.091867 0
M  V30 22218 O 2021.85 -2.71497 -0.0136182 0
M  V30 22219 C 2020.31 -2.52293 2.56663 0
M  V30 22220 C 2019.92 -2.02818 3.99461 0
M  V30 22221 C 2021.66 -3.29549 2.67577 0
M  V30 22222 C 2019.57 -3.13047 5.01753 0
M  V30 22223 H 2018.5 -0.5237 0.542452 0
M  V30 22224 H 2021.15 -0.687131 1.70149 0
M  V30 22225 H 2019.53 -3.25489 2.2555 0
M  V30 22226 H 2020.7 -1.36533 4.40108 0
M  V30 22227 H 2019.02 -1.38398 3.92728 0
M  V30 22228 H 2021.62 -4.11709 3.41174 0
M  V30 22229 H 2021.96 -3.78579 1.73159 0
M  V30 22230 H 2022.49 -2.63441 2.98066 0
M  V30 22231 H 2019.23 -2.68969 5.97776 0
M  V30 22232 H 2018.75 -3.77995 4.65704 0
M  V30 22233 H 2020.43 -3.77934 5.25142 0
M  V30 22234 N 2020.56 -1.3089 -0.877815 0
M  V30 22235 C 2021.81 -1.20125 -1.63022 0
M  V30 22236 C 2022.14 0.242414 -1.92983 0
M  V30 22237 O 2021.39 1.18896 -1.55442 0
M  V30 22238 C 2021.69 -1.98261 -2.97367 0
M  V30 22239 C 2021.36 -3.47825 -2.8693 0
M  V30 22240 C 2020.02 -3.88608 -2.8379 0
M  V30 22241 C 2022.37 -4.43035 -2.74535 0
M  V30 22242 C 2019.7 -5.22882 -2.66104 0
M  V30 22243 C 2022.05 -5.77425 -2.58386 0
M  V30 22244 C 2020.72 -6.17439 -2.53625 0
M  V30 22245 H 2019.99 -0.439569 -0.59654 0
M  V30 22246 H 2022.63 -1.6207 -1.02007 0
M  V30 22247 H 2020.94 -1.48972 -3.62373 0
M  V30 22248 H 2022.63 -1.87319 -3.5456 0
M  V30 22249 H 2019.22 -3.1542 -2.90187 0
M  V30 22250 H 2023.41 -4.12463 -2.76021 0
M  V30 22251 H 2018.66 -5.52968 -2.60837 0
M  V30 22252 H 2022.84 -6.50833 -2.4777 0
M  V30 22253 H 2020.47 -7.21428 -2.39679 0
M  V30 22254 N 2022.04 1.0911 -1.13723 0
M  V30 22255 C 2023.32 1.77949 -0.812014 0
M  V30 22256 C 2023.7 1.99302 0.695832 0
M  V30 22257 O 2023.05 1.59704 1.63422 0
M  V30 22258 C 2023.26 3.10028 -1.60262 0
M  V30 22259 C 2024.6 3.84681 -1.79738 0
M  V30 22260 O 2025.63 3.19789 -1.56887 0
M  V30 22261 O 2024.49 5.01185 -2.17888 0
M  V30 22262 H 2021.58 0.7719 -0.296816 0
M  V30 22263 H 2024.13 1.15637 -1.24202 0
M  V30 22264 H 2022.9 2.8999 -2.62719 0
M  V30 22265 H 2022.52 3.80065 -1.16776 0
M  V30 22266 N 2023.52 0.931232 1.27145 0
M  V30 22267 C 2024.77 0.569326 1.93498 0
M  V30 22268 C 2025.08 -0.894288 1.73959 0
M  V30 22269 O 2026.29 -1.36513 2.34684 0
M  V30 22270 C 2024.74 0.967432 3.46654 0
M  V30 22271 C 2024.35 2.45197 3.74943 0
M  V30 22272 C 2026.09 0.676947 4.19068 0
M  V30 22273 C 2024 2.7893 5.2149 0
M  V30 22274 H 2022.93 0.209208 0.724395 0
M  V30 22275 H 2025.58 1.13252 1.44382 0
M  V30 22276 H 2023.96 0.332853 3.94599 0
M  V30 22277 H 2025.14 3.13476 3.37742 0
M  V30 22278 H 2023.45 2.71472 3.1574 0
M  V30 22279 H 2026.05 0.905425 5.26978 0
M  V30 22280 H 2026.39 -0.385967 4.14507 0
M  V30 22281 H 2026.93 1.27079 3.76956 0
M  V30 22282 H 2023.67 3.84144 5.31144 0
M  V30 22283 H 2023.19 2.15304 5.59825 0
M  V30 22284 H 2024.86 2.66862 5.89401 0
M  V30 22285 N 2025 -1.41343 0.697132 0
M  V30 22286 C 2026.25 -2.00432 0.225852 0
M  V30 22287 C 2026.56 -1.55857 -1.18186 0
M  V30 22288 O 2027.77 -2.07516 -1.75069 0
M  V30 22289 C 2026.22 -3.58166 0.352888 0
M  V30 22290 C 2025.83 -4.11721 1.76607 0
M  V30 22291 C 2027.57 -4.2446 -0.0585393 0
M  V30 22292 C 2025.48 -5.61895 1.84467 0
M  V30 22293 H 2024.41 -0.749671 0.0806811 0
M  V30 22294 H 2027.06 -1.61804 0.865556 0
M  V30 22295 H 2025.44 -3.94405 -0.355093 0
M  V30 22296 H 2026.62 -3.86898 2.50293 0
M  V30 22297 H 2024.93 -3.57959 2.12731 0
M  V30 22298 H 2027.53 -5.34696 -0.0202684 0
M  V30 22299 H 2027.87 -4.01572 -1.09752 0
M  V30 22300 H 2028.41 -3.93261 0.599221 0
M  V30 22301 H 2025.14 -5.89612 2.86423 0
M  V30 22302 H 2024.66 -5.8864 1.15167 0
M  V30 22303 H 2026.34 -6.26692 1.60828 0
M  V30 22304 N 2026.48 -0.441993 -1.51275 0
M  V30 22305 C 2027.72 0.124439 -2.01316 0
M  V30 22306 C 2028.04 1.43376 -1.33051 0
M  V30 22307 O 2029.24 2.08342 -1.74086 0
M  V30 22308 C 2027.7 0.272307 -3.58868 0
M  V30 22309 C 2027.31 -1.02686 -4.36073 0
M  V30 22310 C 2029.05 0.792259 -4.17041 0
M  V30 22311 C 2026.96 -0.844378 -5.85341 0
M  V30 22312 H 2025.89 0.0502803 -0.752322 0
M  V30 22313 H 2028.54 -0.572465 -1.74342 0
M  V30 22314 H 2026.92 1.03232 -3.82308 0
M  V30 22315 H 2028.1 -1.79557 -4.24377 0
M  V30 22316 H 2026.41 -1.4757 -3.89374 0
M  V30 22317 H 2029.01 0.94535 -5.26277 0
M  V30 22318 H 2029.35 1.77595 -3.76518 0
M  V30 22319 H 2029.88 0.0904292 -3.97697 0
M  V30 22320 H 2026.62 -1.80058 -6.30285 0
M  V30 22321 H 2026.14 -0.115549 -5.99689 0
M  V30 22322 H 2027.82 -0.499412 -6.4507 0
M  V30 22323 N 2027.95 1.56642 -0.173515 0
M  V30 22324 C 2029.2 1.96124 0.470974 0
M  V30 22325 C 2029.52 1.06229 1.6424 0
M  V30 22326 O 2030.72 1.35402 2.35327 0
M  V30 22327 C 2029.18 3.4874 0.889284 0
M  V30 22328 C 2028.79 4.47264 -0.256662 0
M  V30 22329 C 2030.53 3.97037 1.50207 0
M  V30 22330 C 2028.44 5.91122 0.181401 0
M  V30 22331 H 2027.37 0.732267 0.179724 0
M  V30 22332 H 2030.02 1.81619 -0.262096 0
M  V30 22333 H 2028.4 3.58672 1.6784 0
M  V30 22334 H 2029.57 4.49049 -1.03401 0
M  V30 22335 H 2027.89 4.09038 -0.779546 0
M  V30 22336 H 2030.49 5.01974 1.8419 0
M  V30 22337 H 2030.83 3.401 2.40078 0
M  V30 22338 H 2031.36 3.90131 0.777351 0
M  V30 22339 H 2028.1 6.51936 -0.682591 0
M  V30 22340 H 2027.62 5.92639 0.924063 0
M  V30 22341 H 2029.3 6.43979 0.624532 0
M  V30 22342 N 2029.43 -0.1002 1.57281 0
M  V30 22343 C 2030.66 -0.82219 1.90407 0
M  V30 22344 C 2031.08 -1.71739 0.767297 0
M  V30 22345 O 2030.44 -1.79103 -0.281369 0
M  V30 22346 C 2030.49 -1.61579 3.22373 0
M  V30 22347 O 2029.59 -2.72433 3.09603 0
M  V30 22348 H 2028.93 -0.2262 0.624283 0
M  V30 22349 H 2031.46 -0.0769557 2.04455 0
M  V30 22350 H 2031.47 -2.00109 3.55556 0
M  V30 22351 H 2030.15 -0.958772 4.04698 0
M  V30 22352 H 2028.72 -2.36968 2.87925 0
M  V30 22353 N 2030.91 -1.53174 -0.370891 0
M  V30 22354 C 2031.84 -1.82213 -1.46017 0
M  V30 22355 C 2032.82 -0.675274 -1.56122 0
M  V30 22356 O 2034.01 -0.924614 -1.70776 0
M  V30 22357 C 2031.14 -2.00727 -2.83419 0
M  V30 22358 C 2030.09 -3.16478 -2.88141 0
M  V30 22359 C 2029.42 -3.20276 -4.28167 0
M  V30 22360 C 2030.72 -4.55179 -2.56143 0
M  V30 22361 H 2032.41 -2.73432 -1.21965 0
M  V30 22362 H 2029.96 -1.31569 -0.585288 0
M  V30 22363 H 2031.91 -2.19625 -3.59643 0
M  V30 22364 H 2030.63 -1.06213 -3.08847 0
M  V30 22365 H 2029.29 -2.97392 -2.14367 0
M  V30 22366 H 2028.94 -2.2341 -4.50663 0
M  V30 22367 H 2028.64 -3.98044 -4.32244 0
M  V30 22368 H 2030.16 -3.41352 -5.06272 0
M  V30 22369 H 2031.58 -4.74274 -3.22082 0
M  V30 22370 H 2029.97 -5.35148 -2.71544 0
M  V30 22371 H 2031.04 -4.60654 -1.51412 0
M  V30 22372 N 2032.39 0.630389 -1.44443 0
M  V30 22373 C 2033.64 1.38591 -1.46545 0
M  V30 22374 C 2033.95 1.95333 -0.102227 0
M  V30 22375 O 2035.16 2.715 -0.000780135 0
M  V30 22376 C 2033.61 2.50929 -2.57998 0
M  V30 22377 C 2033.22 2.00697 -4.00531 0
M  V30 22378 C 2034.96 3.28126 -2.69321 0
M  V30 22379 C 2032.87 3.10381 -5.03406 0
M  V30 22380 H 2031.8 0.520816 -0.545221 0
M  V30 22381 H 2034.45 0.678097 -1.70511 0
M  V30 22382 H 2032.83 3.24288 -2.27273 0
M  V30 22383 H 2034.01 1.34197 -4.40826 0
M  V30 22384 H 2032.32 1.36313 -3.93456 0
M  V30 22385 H 2034.92 4.09894 -3.43353 0
M  V30 22386 H 2035.26 3.77655 -1.75164 0
M  V30 22387 H 2035.8 2.61857 -2.99459 0
M  V30 22388 H 2032.53 2.65795 -5.99194 0
M  V30 22389 H 2032.05 3.7552 -4.67702 0
M  V30 22390 H 2033.73 3.75144 -5.27139 0
M  V30 22391 N 2033.87 1.31354 0.870861 0
M  V30 22392 C 2035.11 1.20348 1.61862 0
M  V30 22393 C 2035.43 -0.237373 1.94154 0
M  V30 22394 O 2036.63 -0.469111 2.67417 0
M  V30 22395 C 2035.09 2.10677 2.91793 0
M  V30 22396 C 2034.7 3.59752 2.66987 0
M  V30 22397 C 2036.44 2.08469 3.69785 0
M  V30 22398 C 2034.35 4.42092 3.92821 0
M  V30 22399 H 2033.28 0.446857 0.607317 0
M  V30 22400 H 2035.93 1.56203 0.962965 0
M  V30 22401 H 2034.31 1.6772 3.58728 0
M  V30 22402 H 2035.49 4.10949 2.08465 0
M  V30 22403 H 2033.8 3.63927 2.02351 0
M  V30 22404 H 2036.4 2.67232 4.63132 0
M  V30 22405 H 2036.74 1.07161 4.02271 0
M  V30 22406 H 2037.27 2.49621 3.09732 0
M  V30 22407 H 2034.01 5.44151 3.65486 0
M  V30 22408 H 2033.53 3.95654 4.50797 0
M  V30 22409 H 2035.21 4.54259 4.60714 0
M  V30 22410 N 2035.34 -1.08505 1.143 0
M  V30 22411 C 2036.27 -2.1741 0.851769 0
M  V30 22412 C 2037.25 -1.69004 -0.192818 0
M  V30 22413 O 2038.44 -1.94136 -0.0497098 0
M  V30 22414 C 2035.57 -3.45754 0.327364 0
M  V30 22415 C 2034.52 -4.07547 1.30728 0
M  V30 22416 C 2033.85 -5.30829 0.642225 0
M  V30 22417 C 2035.15 -4.48945 2.66919 0
M  V30 22418 H 2036.84 -2.42029 1.76245 0
M  V30 22419 H 2034.39 -1.16322 0.848834 0
M  V30 22420 H 2036.34 -4.21253 0.111237 0
M  V30 22421 H 2035.07 -3.20686 -0.618737 0
M  V30 22422 H 2033.73 -3.34077 1.50956 0
M  V30 22423 H 2033.37 -5.02046 -0.309652 0
M  V30 22424 H 2033.07 -5.73128 1.29608 0
M  V30 22425 H 2034.6 -6.09044 0.435598 0
M  V30 22426 H 2036.01 -5.15626 2.50604 0
M  V30 22427 H 2034.41 -5.02158 3.28568 0
M  V30 22428 H 2035.48 -3.60882 3.23871 0
M  V30 22429 N 2036.82 -0.937962 -1.26649 0
M  V30 22430 C 2037.77 -0.435759 -2.28482 0
M  V30 22431 C 2038.76 0.485286 -1.623 0
M  V30 22432 O 2039.97 0.363854 -1.76284 0
M  V30 22433 H 2036.34 -0.122373 -0.741976 0
M  V30 22434 H 2038.32 -1.30722 -2.68243 0
M  V30 22435 C 2037.06 0.286679 -3.46516 0
M  V30 22436 H 2036.39 -0.412881 -3.97662 0
M  V30 22437 H 2037.83 0.602341 -4.197 0
M  V30 22438 C 2036.29 1.50334 -3.01499 0
M  V30 22439 O 2036.82 2.60176 -3.06058 0
M  V30 22440 N 2035.02 1.35877 -2.56877 0
M  V30 22441 H 2034.57 0.465092 -2.53367 0
M  V30 22442 H 2034.53 2.17403 -2.27119 0
M  V30 22443 N 2038.3 1.40971 -0.704618 0
M  V30 22444 C 2039.23 2.28199 0.00567613 0
M  V30 22445 C 2040.21 1.42735 0.778814 0
M  V30 22446 O 2041.39 1.72157 0.767746 0
M  V30 22447 C 2038.52 3.2312 1.01544 0
M  V30 22448 C 2037.57 4.25187 0.334405 0
M  V30 22449 S 2038.4 5.27366 -0.929779 0
M  V30 22450 C 2039.56 6.25851 0.0781563 0
M  V30 22451 H 2039.79 2.88093 -0.734128 0
M  V30 22452 H 2037.32 1.46243 -0.495225 0
M  V30 22453 H 2039.28 3.78337 1.59284 0
M  V30 22454 H 2037.94 2.62304 1.72787 0
M  V30 22455 H 2037.13 4.91909 1.09736 0
M  V30 22456 H 2036.74 3.73613 -0.170159 0
M  V30 22457 H 2039.03 6.71107 0.928545 0
M  V30 22458 H 2039.97 7.05919 -0.555377 0
M  V30 22459 H 2040.38 5.62806 0.436978 0
M  V30 22460 N 2039.78 0.45001 1.51039 0
M  V30 22461 C 2041.03 -0.113761 2.01379 0
M  V30 22462 C 2041.34 -1.42669 1.33809 0
M  V30 22463 O 2042.55 -2.07416 1.75188 0
M  V30 22464 C 2041 -0.253272 3.59008 0
M  V30 22465 C 2040.61 1.04997 4.35522 0
M  V30 22466 C 2042.35 -0.770131 4.17456 0
M  V30 22467 C 2040.26 0.875408 5.84885 0
M  V30 22468 H 2039.19 -0.0462899 0.752578 0
M  V30 22469 H 2041.84 0.581702 1.74036 0
M  V30 22470 H 2040.22 -1.01203 3.8285 0
M  V30 22471 H 2041.4 1.81805 4.23419 0
M  V30 22472 H 2039.71 1.49632 3.88586 0
M  V30 22473 H 2042.31 -0.917427 5.26771 0
M  V30 22474 H 2042.65 -1.75596 3.77454 0
M  V30 22475 H 2043.19 -0.0693371 3.9774 0
M  V30 22476 H 2039.93 1.83398 6.29321 0
M  V30 22477 H 2039.45 0.14735 5.99619 0
M  V30 22478 H 2041.12 0.533614 6.44796 0
M  V30 22479 N 2041.26 -1.56548 0.18182 0
M  V30 22480 C 2042.48 -2.02015 -0.469543 0
M  V30 22481 C 2042.91 -1.06119 -1.55307 0
M  V30 22482 O 2042.26 -0.0424595 -1.8125 0
M  V30 22483 C 2042.31 -3.46016 -1.01515 0
M  V30 22484 O 2041.42 -3.53215 -2.12869 0
M  V30 22485 H 2040.76 -0.65461 -0.111273 0
M  V30 22486 H 2043.29 -2.02552 0.288798 0
M  V30 22487 H 2043.3 -3.85537 -1.33511 0
M  V30 22488 H 2041.97 -4.15308 -0.22188 0
M  V30 22489 H 2040.55 -3.2556 -1.81838 0
M  V30 22490 N 2042.73 0.0918577 -1.57332 0
M  V30 22491 C 2043.67 1.14242 -1.97545 0
M  V30 22492 C 2044.65 1.38665 -0.849166 0
M  V30 22493 O 2045.83 1.52371 -1.10974 0
M  V30 22494 C 2042.96 2.49094 -2.29499 0
M  V30 22495 C 2042 2.40932 -3.51929 0
M  V30 22496 S 2042.84 1.82272 -5.03525 0
M  V30 22497 C 2043.99 3.18742 -5.3866 0
M  V30 22498 H 2044.22 0.799633 -2.86344 0
M  V30 22499 H 2041.76 0.299658 -1.51464 0
M  V30 22500 H 2043.72 3.26674 -2.48585 0
M  V30 22501 H 2042.38 2.80541 -1.41264 0
M  V30 22502 H 2041.57 3.40331 -3.7174 0
M  V30 22503 H 2041.17 1.71483 -3.3237 0
M  V30 22504 H 2043.46 4.15022 -5.35503 0
M  V30 22505 H 2044.41 3.03732 -6.3965 0
M  V30 22506 H 2044.81 3.18423 -4.66119 0
M  V30 22507 N 2044.21 1.53368 0.362763 0
M  V30 22508 C 2045.15 1.74792 1.46707 0
M  V30 22509 C 2046.12 0.596367 1.51269 0
M  V30 22510 O 2047.31 0.829291 1.69278 0
M  V30 22511 C 2044.43 1.82926 2.85054 0
M  V30 22512 C 2043.48 3.04921 2.98204 0
M  V30 22513 S 2044.31 4.64381 2.66666 0
M  V30 22514 C 2045.47 4.75367 4.07157 0
M  V30 22515 H 2045.7 2.68184 1.28314 0
M  V30 22516 H 2043.24 1.43993 0.557272 0
M  V30 22517 H 2045.19 1.88297 3.64766 0
M  V30 22518 H 2043.85 0.905801 3.00756 0
M  V30 22519 H 2043.05 3.0723 3.99532 0
M  V30 22520 H 2042.65 2.97676 2.26418 0
M  V30 22521 H 2044.94 4.55595 5.01437 0
M  V30 22522 H 2045.88 5.77432 4.09852 0
M  V30 22523 H 2046.29 4.03977 3.94288 0
M  V30 22524 N 2045.69 -0.62272 1.44776 0
M  V30 22525 C 2046.65 -1.71618 1.5192 0
M  V30 22526 C 2047.65 -1.55738 0.400303 0
M  V30 22527 O 2048.84 -1.6108 0.66324 0
M  V30 22528 C 2045.98 -3.10771 1.40122 0
M  V30 22529 H 2047.17 -1.66655 2.49332 0
M  V30 22530 H 2044.72 -0.837126 1.31992 0
M  V30 22531 H 2045.46 -3.21323 0.438374 0
M  V30 22532 H 2045.24 -3.23705 2.21264 0
M  V30 22533 H 2046.73 -3.90448 1.48122 0
M  V30 22534 N 2047.17 -1.31814 -0.863883 0
M  V30 22535 C 2048.08 -1.21951 -2.00412 0
M  V30 22536 C 2049.09 -0.13497 -1.73476 0
M  V30 22537 O 2050.27 -0.35392 -1.98266 0
M  V30 22538 C 2047.34 -0.933599 -3.33893 0
M  V30 22539 C 2046.4 -2.10565 -3.74113 0
M  V30 22540 C 2045.63 -1.83329 -5.01225 0
M  V30 22541 O 2045.85 -0.77136 -5.6516 0
M  V30 22542 O 2044.79 -2.69178 -5.38356 0
M  V30 22543 H 2048.61 -2.17786 -2.11667 0
M  V30 22544 H 2046.2 -1.11613 -0.993126 0
M  V30 22545 H 2048.08 -0.790251 -4.13924 0
M  V30 22546 H 2046.75 -0.00533113 -3.237 0
M  V30 22547 H 2045.66 -2.30443 -2.94698 0
M  V30 22548 H 2046.99 -3.01639 -3.88941 0
M  V30 22549 N 2048.65 1.07897 -1.14873 0
M  V30 22550 C 2049.87 1.84657 -0.944281 0
M  V30 22551 C 2050.3 1.8127 0.50226 0
M  V30 22552 O 2049.65 1.20159 1.35763 0
M  V30 22553 C 2049.7 3.29889 -1.45622 0
M  V30 22554 O 2048.81 4.07217 -0.651748 0
M  V30 22555 H 2048.15 0.571994 -0.337222 0
M  V30 22556 H 2050.68 1.36151 -1.52723 0
M  V30 22557 H 2050.69 3.80727 -1.46665 0
M  V30 22558 H 2049.36 3.31668 -2.50936 0
M  V30 22559 H 2047.94 3.66069 -0.710491 0
M  V30 22560 N 2050.12 0.944665 1.2615 0
M  V30 22561 C 2051.35 0.61007 1.97387 0
M  V30 22562 C 2051.76 -0.819956 1.70509 0
M  V30 22563 O 2051.11 -1.55879 0.971982 0
M  V30 22564 C 2051.17 0.776673 3.5101 0
M  V30 22565 C 2050.83 2.18198 4.01545 0
M  V30 22566 C 2051.83 3.15777 4.13014 0
M  V30 22567 C 2049.51 2.5035 4.35466 0
M  V30 22568 C 2051.51 4.43607 4.57703 0
M  V30 22569 C 2049.19 3.7841 4.79842 0
M  V30 22570 C 2050.19 4.74852 4.90922 0
M  V30 22571 O 2049.88 6.00632 5.34319 0
M  V30 22572 H 2049.61 0.228468 0.636222 0
M  V30 22573 H 2052.17 1.26867 1.61536 0
M  V30 22574 H 2050.4 0.0609398 3.86652 0
M  V30 22575 H 2052.09 0.44462 4.03457 0
M  V30 22576 H 2052.85 2.92263 3.8705 0
M  V30 22577 H 2048.73 1.76017 4.26074 0
M  V30 22578 H 2052.27 5.18885 4.66266 0
M  V30 22579 H 2048.17 4.01736 5.05251 0
M  V30 22580 H 2048.94 6.03864 5.52531 0
M  V30 22581 N 2051.6 -1.40596 0.712085 0
M  V30 22582 C 2052.55 -2.32554 0.0460888 0
M  V30 22583 C 2053.54 -1.51853 -0.750809 0
M  V30 22584 O 2054.75 -1.67676 -0.654572 0
M  V30 22585 H 2051.13 -0.75199 -0.00389841 0
M  V30 22586 H 2053.1 -2.86378 0.838447 0
M  V30 22587 C 2051.85 -3.36789 -0.864212 0
M  V30 22588 H 2051.17 -3.98951 -0.260421 0
M  V30 22589 H 2052.61 -4.03636 -1.29823 0
M  V30 22590 C 2051.07 -2.71989 -1.98805 0
M  V30 22591 O 2051.6 -2.58048 -3.07854 0
M  V30 22592 N 2049.8 -2.30427 -1.77064 0
M  V30 22593 H 2049.35 -2.41966 -0.88375 0
M  V30 22594 H 2049.31 -1.87408 -2.52439 0
M  V30 22595 N 2053.08 -0.458013 -1.50798 0
M  V30 22596 C 2054.01 0.379016 -2.26044 0
M  V30 22597 C 2055.03 0.96848 -1.3086 0
M  V30 22598 O 2056.21 0.859106 -1.56466 0
M  V30 22599 C 2053.31 1.54427 -3.01671 0
M  V30 22600 C 2052.49 1.06997 -4.24111 0
M  V30 22601 C 2051.55 2.10775 -4.82142 0
M  V30 22602 O 2050.57 1.69367 -5.43418 0
M  V30 22603 N 2051.77 3.43464 -4.67988 0
M  V30 22604 H 2054.54 -0.266 -2.98517 0
M  V30 22605 H 2052.1 -0.288052 -1.59317 0
M  V30 22606 H 2054.09 2.23518 -3.37375 0
M  V30 22607 H 2052.66 2.09423 -2.32079 0
M  V30 22608 H 2051.88 0.205395 -3.93665 0
M  V30 22609 H 2053.17 0.730786 -5.03525 0
M  V30 22610 H 2052.57 3.79824 -4.19226 0
M  V30 22611 H 2051.13 4.0839 -5.07997 0
M  V30 22612 N 2054.56 1.56449 -0.190119 0
M  V30 22613 C 2055.97 1.83879 0.323353 0
M  V30 22614 C 2056.32 1.11062 1.6174 0
M  V30 22615 O 2055.45 0.369789 2.13217 0
M  V30 22616 C 2056.04 3.33562 0.593453 0
M  V30 22617 C 2054.6 3.6142 1.05131 0
M  V30 22618 C 2053.75 2.77129 0.0972331 0
M  V30 22619 H 2056.7 1.53205 -0.414009 0
M  V30 22620 H 2056.72 3.52062 1.44335 0
M  V30 22621 H 2056.23 3.86532 -0.348543 0
M  V30 22622 H 2054.33 3.13879 2.00776 0
M  V30 22623 H 2054.45 4.69638 0.947464 0
M  V30 22624 H 2052.81 2.47576 0.598181 0
M  V30 22625 H 2053.59 3.32887 -0.839117 0
M  V30 22626 N 2056.04 -0.0835127 1.57379 0
M  V30 22627 C 2056.98 -1.10046 2.02875 0
M  V30 22628 C 2057.95 -1.39138 0.907183 0
M  V30 22629 O 2059.14 -1.50405 1.17401 0
M  V30 22630 C 2056.28 -2.41229 2.46784 0
M  V30 22631 C 2055.39 -2.18769 3.72511 0
M  V30 22632 C 2054.53 -3.43432 4.05251 0
M  V30 22633 C 2053.57 -3.16284 5.24052 0
M  V30 22634 N 2052.7 -4.33246 5.52488 0
M  V30 22635 H 2057.54 -0.705503 2.89528 0
M  V30 22636 H 2055.08 -0.336809 1.43192 0
M  V30 22637 H 2057.04 -3.17803 2.7029 0
M  V30 22638 H 2055.67 -2.7855 1.63125 0
M  V30 22639 H 2054.72 -1.32942 3.56414 0
M  V30 22640 H 2056.03 -1.94708 4.59228 0
M  V30 22641 H 2055.19 -4.28408 4.29595 0
M  V30 22642 H 2053.93 -3.70558 3.17078 0
M  V30 22643 H 2052.93 -2.29703 4.99516 0
M  V30 22644 H 2054.16 -2.90493 6.13833 0
M  V30 22645 H 2052.1 -4.60425 4.67274 0
M  V30 22646 H 2052.02 -4.12417 6.336 0
M  V30 22647 H 2053.29 -5.19253 5.81375 0
M  V30 22648 N 2057.52 -1.53558 -0.354624 0
M  V30 22649 C 2058.48 -1.80084 -1.41783 0
M  V30 22650 C 2059.48 -0.671552 -1.46105 0
M  V30 22651 O 2060.67 -0.939801 -1.46674 0
M  V30 22652 C 2057.8 -1.93284 -2.8081 0
M  V30 22653 H 2058.99 -2.75049 -1.19532 0
M  V30 22654 H 2056.55 -1.44802 -0.588388 0
M  V30 22655 H 2057.28 -1.00423 -3.0836 0
M  V30 22656 H 2057.07 -2.75432 -2.7907 0
M  V30 22657 H 2058.56 -2.15361 -3.57784 0
M  V30 22658 N 2058.99 0.615033 -1.45104 0
M  V30 22659 C 2059.93 1.73963 -1.47689 0
M  V30 22660 C 2060.9 1.59132 -0.334015 0
M  V30 22661 O 2062.09 1.80796 -0.533407 0
M  V30 22662 C 2059.22 3.11713 -1.32487 0
M  V30 22663 C 2058.26 3.45152 -2.50544 0
M  V30 22664 S 2059.09 3.40825 -4.13035 0
M  V30 22665 C 2060.25 4.81168 -4.00285 0
M  V30 22666 H 2060.48 1.71506 -2.42843 0
M  V30 22667 H 2058.02 0.791046 -1.32596 0
M  V30 22668 H 2059.97 3.91196 -1.24403 0
M  V30 22669 H 2058.64 3.11692 -0.388156 0
M  V30 22670 H 2057.83 4.4543 -2.35813 0
M  V30 22671 H 2057.43 2.73168 -2.55451 0
M  V30 22672 H 2059.72 5.70792 -3.6497 0
M  V30 22673 H 2060.67 5.00955 -5.0045 0
M  V30 22674 H 2061.07 4.56499 -3.32067 0
M  V30 22675 N 2060.47 1.3227 0.85688 0
M  V30 22676 C 2061.42 1.2102 1.96527 0
M  V30 22677 C 2062.39 0.0928848 1.6584 0
M  V30 22678 O 2063.57 0.268043 1.88908 0
M  V30 22679 C 2060.71 0.936943 3.32138 0
M  V30 22680 C 2059.83 2.13883 3.75337 0
M  V30 22681 C 2058.96 1.80125 4.99728 0
M  V30 22682 C 2058 2.96647 5.35413 0
M  V30 22683 N 2057.14 2.62997 6.50982 0
M  V30 22684 H 2061.98 2.15827 2.05481 0
M  V30 22685 H 2059.51 1.07346 1.00575 0
M  V30 22686 H 2061.47 0.759018 4.10237 0
M  V30 22687 H 2060.1 0.025663 3.2279 0
M  V30 22688 H 2059.15 2.4271 2.92909 0
M  V30 22689 H 2060.47 3.01052 3.97705 0
M  V30 22690 H 2059.62 1.58871 5.8553 0
M  V30 22691 H 2058.36 0.901662 4.79293 0
M  V30 22692 H 2057.36 3.18535 4.48124 0
M  V30 22693 H 2058.59 3.87335 5.57807 0
M  V30 22694 H 2056.54 1.75576 6.32067 0
M  V30 22695 H 2056.45 3.43696 6.73357 0
M  V30 22696 H 2057.72 2.45168 7.39941 0
M  V30 22697 N 2061.95 -1.07287 1.15444 0
M  V30 22698 C 2063.17 -1.84153 0.954061 0
M  V30 22699 C 2063.6 -1.81534 -0.492639 0
M  V30 22700 O 2062.96 -1.20877 -1.35124 0
M  V30 22701 C 2063.01 -3.29112 1.4737 0
M  V30 22702 O 2062.11 -4.06866 0.673335 0
M  V30 22703 H 2061.45 -0.570198 0.34025 0
M  V30 22704 H 2063.98 -1.35339 1.53442 0
M  V30 22705 H 2063.99 -3.79944 1.48682 0
M  V30 22706 H 2062.67 -3.30333 2.52691 0
M  V30 22707 H 2061.24 -3.65687 0.729894 0
M  V30 22708 N 2063.43 -0.951342 -1.25647 0
M  V30 22709 C 2064.68 -0.600038 -1.92568 0
M  V30 22710 C 2064.99 0.866499 -1.7536 0
M  V30 22711 O 2066.2 1.32762 -2.36826 0
M  V30 22712 C 2064.65 -1.02246 -3.45071 0
M  V30 22713 C 2064.26 -2.51131 -3.70995 0
M  V30 22714 C 2066 -0.743532 -4.17938 0
M  V30 22715 C 2063.91 -2.87191 -5.16987 0
M  V30 22716 H 2062.84 -0.220706 -0.720975 0
M  V30 22717 H 2065.49 -1.15535 -1.42562 0
M  V30 22718 H 2063.87 -0.395588 -3.94019 0
M  V30 22719 H 2065.05 -3.18809 -3.32712 0
M  V30 22720 H 2063.36 -2.76461 -3.11381 0
M  V30 22721 H 2065.96 -0.989148 -5.25471 0
M  V30 22722 H 2066.3 0.319973 -4.15069 0
M  V30 22723 H 2066.84 -1.3306 -3.74887 0
M  V30 22724 H 2063.57 -3.92545 -5.24965 0
M  V30 22725 H 2063.09 -2.24183 -5.56329 0
M  V30 22726 H 2064.77 -2.76205 -5.85081 0
M  V30 22727 N 2064.91 1.40216 -0.719531 0
M  V30 22728 C 2065.84 2.33348 -0.08432 0
M  V30 22729 C 2066.82 1.53101 0.741225 0
M  V30 22730 O 2068 1.81553 0.68935 0
M  V30 22731 C 2065.13 3.37106 0.835256 0
M  V30 22732 C 2064.09 4.27845 0.115036 0
M  V30 22733 C 2063.41 5.22174 1.15059 0
M  V30 22734 C 2064.71 5.1198 -1.03314 0
M  V30 22735 H 2066.41 2.86716 -0.862219 0
M  V30 22736 H 2063.95 1.37858 -0.416073 0
M  V30 22737 H 2065.9 4.012 1.28905 0
M  V30 22738 H 2064.63 2.82142 1.6451 0
M  V30 22739 H 2063.29 3.6521 -0.318975 0
M  V30 22740 H 2062.94 4.63513 1.95359 0
M  V30 22741 H 2062.64 5.83727 0.673556 0
M  V30 22742 H 2064.16 5.89144 1.60441 0
M  V30 22743 H 2065.57 5.69505 -0.658522 0
M  V30 22744 H 2063.97 5.82596 -1.4388 0
M  V30 22745 H 2065.04 4.47725 -1.86199 0
M  V30 22746 N 2066.38 0.466004 1.50553 0
M  V30 22747 C 2067.66 -0.152071 1.95008 0
M  V30 22748 C 2068.04 -1.57451 1.40614 0
M  V30 22749 O 2067.39 -2.20345 0.605014 0
M  V30 22750 C 2067.6 -0.100584 3.48855 0
M  V30 22751 C 2068.95 -0.291998 4.23595 0
M  V30 22752 O 2069.97 -0.177401 3.55758 0
M  V30 22753 O 2068.83 -0.52288 5.43993 0
M  V30 22754 H 2065.92 -0.114439 0.819044 0
M  V30 22755 H 2068.47 0.526042 1.61341 0
M  V30 22756 H 2067.24 0.892745 3.8098 0
M  V30 22757 H 2066.86 -0.820375 3.89044 0
M  V30 22758 N 2067.86 -1.56346 0.198413 0
M  V30 22759 C 2068.81 -2.15862 -0.734002 0
M  V30 22760 C 2069.8 -1.10032 -1.17396 0
M  V30 22761 O 2070.99 -1.36085 -1.13181 0
M  V30 22762 C 2068.12 -2.8241 -1.95191 0
M  V30 22763 C 2067.2 -3.95436 -1.53269 0
M  V30 22764 N 2067.59 -4.99032 -0.824642 0
M  V30 22765 C 2065.89 -4.07098 -1.82174 0
M  V30 22766 C 2066.59 -5.78449 -0.614107 0
M  V30 22767 N 2065.57 -5.30995 -1.16384 0
M  V30 22768 H 2069.37 -2.93321 -0.184355 0
M  V30 22769 H 2066.88 -1.624 -0.00124749 0
M  V30 22770 H 2068.88 -3.23443 -2.6304 0
M  V30 22771 H 2067.54 -2.0644 -2.50624 0
M  V30 22772 H 2068.55 -5.15673 -0.479757 0
M  V30 22773 H 2065.23 -3.42258 -2.39093 0
M  V30 22774 H 2066.62 -6.7188 -0.0521937 0
M  V30 22775 N 2069.34 0.0751653 -1.57421 0
M  V30 22776 C 2070.27 1.09007 -2.06494 0
M  V30 22777 C 2071.25 1.40573 -0.957766 0
M  V30 22778 O 2072.44 1.50259 -1.23028 0
M  V30 22779 C 2069.57 2.40446 -2.50605 0
M  V30 22780 C 2068.52 2.2324 -3.65168 0
M  V30 22781 C 2067.85 3.60033 -3.95323 0
M  V30 22782 C 2069.15 1.65642 -4.95338 0
M  V30 22783 H 2070.84 0.681725 -2.91535 0
M  V30 22784 H 2068.39 0.326481 -1.4025 0
M  V30 22785 H 2070.34 3.11734 -2.83548 0
M  V30 22786 H 2069.06 2.83254 -1.62588 0
M  V30 22787 H 2067.72 1.54393 -3.32503 0
M  V30 22788 H 2067.37 4.00404 -3.04443 0
M  V30 22789 H 2067.07 3.4936 -4.72463 0
M  V30 22790 H 2068.59 4.32757 -4.30759 0
M  V30 22791 H 2070.01 2.26793 -5.26534 0
M  V30 22792 H 2068.41 1.65675 -5.76777 0
M  V30 22793 H 2069.48 0.617593 -4.80951 0
M  V30 22794 N 2070.82 1.53744 0.346476 0
M  V30 22795 C 2071.77 1.82222 1.44561 0
M  V30 22796 C 2072.76 0.69251 1.54598 0
M  V30 22797 O 2073.97 0.875797 1.57257 0
M  V30 22798 H 2070.34 0.577261 0.481948 0
M  V30 22799 H 2072.31 2.74183 1.17755 0
M  V30 22800 C 2071.06 2.04604 2.81127 0
M  V30 22801 H 2070.38 2.90983 2.74169 0
M  V30 22802 H 2071.82 2.28497 3.57162 0
M  V30 22803 C 2070.28 0.830699 3.26498 0
M  V30 22804 O 2070.81 0.0286844 4.0169 0
M  V30 22805 N 2069.02 0.648746 2.83266 0
M  V30 22806 H 2068.57 1.30257 2.22241 0
M  V30 22807 H 2068.52 -0.162972 3.13977 0
M  V30 22808 N 2072.3 -0.607329 1.45428 0
M  V30 22809 C 2073.54 -1.36639 1.5067 0
M  V30 22810 C 2073.9 -1.91842 0.146461 0
M  V30 22811 O 2073.19 -1.72123 -0.84167 0
M  V30 22812 C 2073.38 -2.53276 2.52163 0
M  V30 22813 C 2073.21 -2.09494 3.97922 0
M  V30 22814 C 2071.98 -1.95655 4.65883 0
M  V30 22815 C 2074.18 -1.66947 4.8645 0
M  V30 22816 N 2072.16 -1.45687 5.96363 0
M  V30 22817 C 2073.53 -1.28396 6.0656 0
M  V30 22818 C 2075.59 -1.54541 4.73309 0
M  V30 22819 C 2074.29 -0.78677 7.14984 0
M  V30 22820 C 2076.32 -1.06227 5.81782 0
M  V30 22821 C 2075.68 -0.686398 7.01048 0
M  V30 22822 H 2071.78 -0.493901 0.606288 0
M  V30 22823 H 2074.36 -0.694251 1.81902 0
M  V30 22824 H 2072.53 -3.18085 2.22883 0
M  V30 22825 H 2074.27 -3.20157 2.47552 0
M  V30 22826 H 2071.02 -2.16848 4.21039 0
M  V30 22827 H 2071.45 -1.22934 6.65745 0
M  V30 22828 H 2076.09 -1.82226 3.81515 0
M  V30 22829 H 2073.81 -0.497468 8.06567 0
M  V30 22830 H 2077.39 -0.970533 5.73648 0
M  V30 22831 H 2076.27 -0.318291 7.83554 0
M  V30 22832 N 2073.77 -1.32722 -0.849853 0
M  V30 22833 C 2075.02 -1.23739 -1.60675 0
M  V30 22834 C 2075.35 0.199183 -1.93176 0
M  V30 22835 O 2074.63 1.13761 -1.57761 0
M  V30 22836 C 2074.91 -2.10183 -2.92395 0
M  V30 22837 C 2074.76 -3.62243 -2.66646 0
M  V30 22838 C 2076.08 -1.96664 -3.93715 0
M  V30 22839 H 2073.2 -0.45085 -0.583013 0
M  V30 22840 H 2075.84 -1.62716 -0.980999 0
M  V30 22841 H 2073.99 -1.77072 -3.458 0
M  V30 22842 H 2075.67 -4.05591 -2.19758 0
M  V30 22843 H 2073.91 -3.8467 -2.00529 0
M  V30 22844 H 2074.58 -4.1806 -3.60458 0
M  V30 22845 H 2077.06 -2.25679 -3.49583 0
M  V30 22846 H 2075.93 -2.59417 -4.83729 0
M  V30 22847 H 2076.19 -0.935664 -4.32085 0
M  V30 22848 N 2075.25 1.06673 -1.16011 0
M  V30 22849 C 2076.5 1.794 -0.939249 0
M  V30 22850 C 2076.83 1.87049 0.533193 0
M  V30 22851 O 2076.08 1.35544 1.4116 0
M  V30 22852 C 2076.38 3.24069 -1.50712 0
M  V30 22853 C 2076.05 3.36507 -3.00123 0
M  V30 22854 C 2074.71 3.39609 -3.4091 0
M  V30 22855 C 2077.06 3.38741 -3.96111 0
M  V30 22856 C 2074.39 3.42556 -4.76311 0
M  V30 22857 C 2076.74 3.43226 -5.31393 0
M  V30 22858 C 2075.41 3.44608 -5.71665 0
M  V30 22859 H 2074.68 0.656471 -0.343696 0
M  V30 22860 H 2077.32 1.25476 -1.44665 0
M  V30 22861 H 2075.63 3.80819 -0.921077 0
M  V30 22862 H 2077.32 3.78931 -1.31196 0
M  V30 22863 H 2073.91 3.34796 -2.676 0
M  V30 22864 H 2078.1 3.35559 -3.65669 0
M  V30 22865 H 2073.35 3.41928 -5.06848 0
M  V30 22866 H 2077.53 3.43902 -6.05561 0
M  V30 22867 H 2075.16 3.46645 -6.76566 0
M  V30 22868 N 2076.73 0.957992 1.25141 0
M  V30 22869 C 2077.98 0.615503 1.93234 0
M  V30 22870 C 2078.31 -0.845811 1.74813 0
M  V30 22871 O 2077.58 -1.60729 1.09528 0
M  V30 22872 C 2077.87 0.979109 3.46533 0
M  V30 22873 C 2077.72 2.4964 3.74165 0
M  V30 22874 C 2079.04 0.506601 4.37175 0
M  V30 22875 H 2076.16 0.225085 0.701787 0
M  V30 22876 H 2078.8 1.19525 1.47695 0
M  V30 22877 H 2076.95 0.485773 3.85451 0
M  V30 22878 H 2078.62 3.06376 3.44865 0
M  V30 22879 H 2076.87 2.93263 3.19655 0
M  V30 22880 H 2077.54 2.70132 4.81386 0
M  V30 22881 H 2080.01 0.929831 4.05578 0
M  V30 22882 H 2078.89 0.789676 5.4319 0
M  V30 22883 H 2079.15 -0.59342 4.38099 0
M  V30 22884 N 2078.21 -1.39832 0.726957 0
M  V30 22885 C 2079.45 -2.00971 0.271788 0
M  V30 22886 C 2079.79 -1.57537 -1.13559 0
M  V30 22887 O 2079.06 -0.800579 -1.7726 0
M  V30 22888 C 2079.35 -3.5825 0.364596 0
M  V30 22889 C 2079.2 -4.11724 1.81117 0
M  V30 22890 C 2080.52 -4.39345 -0.257652 0
M  V30 22891 H 2077.64 -0.730152 0.100232 0
M  V30 22892 H 2080.28 -1.66152 0.921599 0
M  V30 22893 H 2078.43 -3.88042 -0.18865 0
M  V30 22894 H 2080.1 -3.92684 2.42068 0
M  V30 22895 H 2078.34 -3.65585 2.33516 0
M  V30 22896 H 2079.01 -5.20873 1.82743 0
M  V30 22897 H 2081.49 -4.1555 0.213875 0
M  V30 22898 H 2080.37 -5.4866 -0.162327 0
M  V30 22899 H 2080.63 -4.21218 -1.34267 0
M  V30 22900 N 2079.69 -0.473982 -1.50304 0
M  V30 22901 C 2080.94 0.0817089 -2.01534 0
M  V30 22902 C 2081.25 1.40522 -1.36062 0
M  V30 22903 O 2082.45 2.04602 -1.78466 0
M  V30 22904 C 2080.91 0.196125 -3.59365 0
M  V30 22905 C 2080.52 -1.11913 -4.33797 0
M  V30 22906 C 2082.26 0.70362 -4.18628 0
M  V30 22907 C 2080.17 -0.968348 -5.83418 0
M  V30 22908 H 2079.1 0.0343111 -0.753219 0
M  V30 22909 H 2081.75 -0.609316 -1.73088 0
M  V30 22910 H 2080.13 0.950997 -3.84411 0
M  V30 22911 H 2081.31 -1.88518 -4.20473 0
M  V30 22912 H 2079.62 -1.55796 -3.86156 0
M  V30 22913 H 2082.22 0.833506 -5.28164 0
M  V30 22914 H 2082.56 1.69569 -3.802 0
M  V30 22915 H 2083.09 0.00605141 -3.978 0
M  V30 22916 H 2079.83 -1.93387 -6.26324 0
M  V30 22917 H 2079.35 -0.242725 -5.99309 0
M  V30 22918 H 2081.03 -0.636128 -6.43865 0
M  V30 22919 N 2081.16 1.56239 -0.206702 0
M  V30 22920 C 2082.41 1.97904 0.428991 0
M  V30 22921 C 2082.74 1.09394 1.6082 0
M  V30 22922 O 2081.99 0.135573 1.9523 0
M  V30 22923 C 2082.29 3.45345 0.920411 0
M  V30 22924 C 2081.96 4.50661 -0.146675 0
M  V30 22925 C 2080.62 4.79185 -0.439852 0
M  V30 22926 C 2082.97 5.13903 -0.869114 0
M  V30 22927 C 2080.3 5.68237 -1.46024 0
M  V30 22928 C 2082.65 6.04058 -1.87874 0
M  V30 22929 C 2081.32 6.30933 -2.17899 0
M  V30 22930 H 2080.59 0.724181 0.156979 0
M  V30 22931 H 2083.23 1.89038 -0.306106 0
M  V30 22932 H 2081.54 3.5134 1.734 0
M  V30 22933 H 2083.24 3.74945 1.42187 0
M  V30 22934 H 2079.83 4.28501 0.0919915 0
M  V30 22935 H 2084.01 4.91947 -0.655848 0
M  V30 22936 H 2079.27 5.87329 -1.69866 0
M  V30 22937 H 2083.44 6.52117 -2.44369 0
M  V30 22938 H 2081.07 6.99735 -2.9711 0
M  V30 22939 N 2082.64 -0.0668159 1.57458 0
M  V30 22940 C 2083.87 -0.777815 1.91723 0
M  V30 22941 C 2084.29 -1.70866 0.803128 0
M  V30 22942 O 2083.64 -1.8113 -0.223207 0
M  V30 22943 C 2083.69 -1.56722 3.25761 0
M  V30 22944 O 2083.41 -0.673779 4.32888 0
M  V30 22945 C 2084.92 -2.37877 3.74071 0
M  V30 22946 H 2082.14 -0.220863 0.633609 0
M  V30 22947 H 2084.68 -0.0355987 2.04469 0
M  V30 22948 H 2082.83 -2.26166 3.14527 0
M  V30 22949 H 2083.25 -1.22335 5.10034 0
M  V30 22950 H 2084.72 -2.88716 4.70476 0
M  V30 22951 H 2085.2 -3.17625 3.03334 0
M  V30 22952 H 2085.81 -1.73579 3.88266 0
M  V30 22953 N 2084.12 -1.53926 -0.338317 0
M  V30 22954 C 2085.05 -1.85269 -1.42119 0
M  V30 22955 C 2086.03 -0.708238 -1.54654 0
M  V30 22956 O 2087.22 -0.960631 -1.68777 0
M  V30 22957 C 2084.35 -2.06693 -2.79097 0
M  V30 22958 C 2083.3 -3.22519 -2.81364 0
M  V30 22959 C 2082.63 -3.29286 -4.21277 0
M  V30 22960 C 2083.93 -4.6051 -2.46431 0
M  V30 22961 H 2085.62 -2.75957 -1.16137 0
M  V30 22962 H 2083.17 -1.32781 -0.557249 0
M  V30 22963 H 2085.12 -2.27204 -3.54903 0
M  V30 22964 H 2083.84 -1.1274 -3.06524 0
M  V30 22965 H 2082.5 -3.01872 -2.08011 0
M  V30 22966 H 2082.15 -2.32919 -4.45823 0
M  V30 22967 H 2081.85 -4.07123 -4.23704 0
M  V30 22968 H 2083.38 -3.52014 -4.98918 0
M  V30 22969 H 2084.79 -4.80999 -3.1195 0
M  V30 22970 H 2083.19 -5.40788 -2.60132 0
M  V30 22971 H 2084.26 -4.63762 -1.41607 0
M  V30 22972 N 2085.6 0.599608 -1.45748 0
M  V30 22973 C 2086.51 1.73797 -1.57581 0
M  V30 22974 C 2087.53 1.67812 -0.45992 0
M  V30 22975 O 2088.7 1.88024 -0.721718 0
M  V30 22976 C 2085.77 3.10276 -1.54693 0
M  V30 22977 C 2084.83 3.27654 -2.77383 0
M  V30 22978 C 2084.06 4.57622 -2.74623 0
M  V30 22979 O 2084.28 5.40449 -1.82404 0
M  V30 22980 O 2083.22 4.77885 -3.65937 0
M  V30 22981 H 2087.04 1.66764 -2.53818 0
M  V30 22982 H 2084.63 0.764651 -1.28349 0
M  V30 22983 H 2086.51 3.91573 -1.55719 0
M  V30 22984 H 2085.19 3.17783 -0.616105 0
M  V30 22985 H 2084.09 2.45914 -2.81917 0
M  V30 22986 H 2085.43 3.25028 -3.69618 0
M  V30 22987 N 2087.08 1.33171 0.842803 0
M  V30 22988 C 2088.32 1.25734 1.61153 0
M  V30 22989 C 2088.68 -0.175326 1.91198 0
M  V30 22990 O 2089.88 -0.37361 2.66191 0
M  V30 22991 C 2088.15 2.10432 2.88882 0
M  V30 22992 S 2089.71 2.20144 3.79582 0
M  V30 22993 H 2086.53 0.44738 0.552605 0
M  V30 22994 H 2089.13 1.68159 0.997142 0
M  V30 22995 H 2087.84 3.13563 2.64776 0
M  V30 22996 H 2087.37 1.68829 3.55331 0
M  V30 22997 H 2089.38 1.35962 4.77209 0
M  V30 22998 N 2088.56 -1.06056 1.16576 0
M  V30 22999 C 2089.49 -2.15554 0.897693 0
M  V30 23000 C 2090.47 -1.69375 -0.156927 0
M  V30 23001 O 2091.65 -1.94198 -0.00851939 0
M  V30 23002 C 2088.78 -3.44982 0.40063 0
M  V30 23003 C 2087.74 -4.04682 1.39343 0
M  V30 23004 C 2087.06 -5.29347 0.754677 0
M  V30 23005 C 2088.36 -4.43182 2.76381 0
M  V30 23006 H 2090.06 -2.38236 1.81339 0
M  V30 23007 H 2087.6 -1.14495 0.873316 0
M  V30 23008 H 2089.55 -4.20922 0.200566 0
M  V30 23009 H 2088.28 -3.21926 -0.550576 0
M  V30 23010 H 2086.94 -3.308 1.58009 0
M  V30 23011 H 2086.59 -5.0259 -0.203091 0
M  V30 23012 H 2086.29 -5.7025 1.41735 0
M  V30 23013 H 2087.81 -6.07983 0.564687 0
M  V30 23014 H 2089.22 -5.10195 2.61485 0
M  V30 23015 H 2087.62 -4.95076 3.39146 0
M  V30 23016 H 2088.69 -3.53931 3.31453 0
M  V30 23017 N 2090.03 -0.964615 -1.24631 0
M  V30 23018 C 2091.28 -0.620429 -1.91921 0
M  V30 23019 C 2091.6 0.847851 -1.76269 0
M  V30 23020 O 2092.8 1.30243 -2.38221 0
M  V30 23021 C 2091.26 -1.059 -3.43967 0
M  V30 23022 C 2090.87 -2.55052 -3.6831 0
M  V30 23023 C 2092.61 -0.787818 -4.17126 0
M  V30 23024 C 2090.52 -2.92658 -5.13912 0
M  V30 23025 H 2089.45 -0.22834 -0.718594 0
M  V30 23026 H 2092.1 -1.17041 -1.41328 0
M  V30 23027 H 2090.48 -0.437357 -3.93577 0
M  V30 23028 H 2091.65 -3.2232 -3.29312 0
M  V30 23029 H 2089.97 -2.79748 -3.08432 0
M  V30 23030 H 2092.57 -1.04483 -5.24392 0
M  V30 23031 H 2092.91 0.275932 -4.15385 0
M  V30 23032 H 2093.44 -1.37028 -3.73454 0
M  V30 23033 H 2090.18 -3.98091 -5.20772 0
M  V30 23034 H 2089.7 -2.30071 -5.5392 0
M  V30 23035 H 2091.38 -2.82395 -5.82119 0
M  V30 23036 N 2091.51 1.39445 -0.734362 0
M  V30 23037 C 2092.46 2.30609 -0.093969 0
M  V30 23038 C 2093.43 1.49181 0.730356 0
M  V30 23039 O 2094.61 1.77869 0.69045 0
M  V30 23040 C 2091.75 3.35512 0.807817 0
M  V30 23041 C 2090.87 4.3199 -0.0290549 0
M  V30 23042 C 2090 5.23961 0.873946 0
M  V30 23043 C 2089.04 6.12091 0.0322837 0
M  V30 23044 N 2088.18 6.96421 0.891182 0
M  V30 23045 H 2093.02 2.84802 -0.877022 0
M  V30 23046 H 2090.55 1.40234 -0.444152 0
M  V30 23047 H 2092.51 3.94922 1.34509 0
M  V30 23048 H 2091.14 2.82775 1.55685 0
M  V30 23049 H 2090.19 3.74205 -0.683744 0
M  V30 23050 H 2091.51 4.94145 -0.679865 0
M  V30 23051 H 2090.66 5.88394 1.47909 0
M  V30 23052 H 2089.4 4.62127 1.55854 0
M  V30 23053 H 2088.4 5.46672 -0.585665 0
M  V30 23054 H 2089.63 6.75991 -0.649081 0
M  V30 23055 H 2087.58 6.37155 1.56108 0
M  V30 23056 H 2087.49 7.55417 0.296837 0
M  V30 23057 H 2088.76 7.65284 1.48191 0
M  V30 23058 N 2092.99 0.481946 1.5005 0
M  V30 23059 C 2094.24 -0.0710199 2.01575 0
M  V30 23060 C 2094.55 -1.39798 1.36806 0
M  V30 23061 O 2095.76 -2.03653 1.79549 0
M  V30 23062 C 2094.21 -0.177064 3.59464 0
M  V30 23063 C 2093.82 1.14212 4.33197 0
M  V30 23064 C 2095.57 -0.681409 4.18995 0
M  V30 23065 C 2093.47 0.999274 5.82897 0
M  V30 23066 H 2092.4 -0.0303162 0.75339 0
M  V30 23067 H 2095.05 0.618487 1.72763 0
M  V30 23068 H 2093.44 -0.930598 3.8491 0
M  V30 23069 H 2094.61 1.90745 4.19467 0
M  V30 23070 H 2092.92 1.57841 3.85325 0
M  V30 23071 H 2095.52 -0.805484 5.28598 0
M  V30 23072 H 2095.86 -1.6755 3.81094 0
M  V30 23073 H 2096.4 0.015045 3.97797 0
M  V30 23074 H 2093.14 1.96706 6.2529 0
M  V30 23075 H 2092.66 0.274505 5.99172 0
M  V30 23076 H 2094.34 0.670265 6.43519 0
M  V30 23077 N 2094.47 -1.56127 0.214985 0
M  V30 23078 C 2095.71 -1.98129 -0.41849 0
M  V30 23079 C 2096.04 -1.10246 -1.60238 0
M  V30 23080 O 2095.3 -0.145925 -1.95155 0
M  V30 23081 C 2095.6 -3.45828 -0.902084 0
M  V30 23082 C 2095.26 -4.50577 0.170573 0
M  V30 23083 C 2093.92 -4.78945 0.465258 0
M  V30 23084 C 2096.28 -5.13434 0.896355 0
M  V30 23085 C 2093.6 -5.67455 1.49036 0
M  V30 23086 C 2095.96 -6.03053 1.91074 0
M  V30 23087 C 2094.62 -6.29768 2.21242 0
M  V30 23088 H 2093.89 -0.725004 -0.153136 0
M  V30 23089 H 2096.54 -1.88873 0.316127 0
M  V30 23090 H 2094.84 -3.52255 -1.71534 0
M  V30 23091 H 2096.54 -3.75694 -1.40196 0
M  V30 23092 H 2093.13 -4.28544 -0.0692657 0
M  V30 23093 H 2097.31 -4.91593 0.681928 0
M  V30 23094 H 2092.57 -5.8642 1.72978 0
M  V30 23095 H 2096.74 -6.50812 2.47824 0
M  V30 23096 H 2094.37 -6.9815 3.00817 0
M  V30 23097 N 2095.95 0.0584645 -1.57492 0
M  V30 23098 C 2096.91 1.05251 -2.03605 0
M  V30 23099 C 2097.91 1.30807 -0.935209 0
M  V30 23100 O 2099.1 1.26304 -1.19971 0
M  V30 23101 C 2096.23 2.39288 -2.42804 0
M  V30 23102 H 2097.42 0.654779 -2.92665 0
M  V30 23103 H 2094.98 0.304552 -1.53304 0
M  V30 23104 H 2095.71 2.83868 -1.56811 0
M  V30 23105 H 2095.5 2.22077 -3.23147 0
M  V30 23106 H 2096.99 3.10713 -2.79011 0
M  V30 23107 N 2097.42 1.54103 0.330149 0
M  V30 23108 C 2098.35 1.8602 1.41134 0
M  V30 23109 C 2099.33 0.716429 1.54277 0
M  V30 23110 O 2100.52 0.969568 1.68265 0
M  V30 23111 C 2097.65 2.08171 2.77997 0
M  V30 23112 C 2096.6 3.24007 2.79649 0
M  V30 23113 C 2095.93 3.31516 4.19525 0
M  V30 23114 C 2097.23 4.6181 2.43985 0
M  V30 23115 H 2098.92 2.76569 1.14672 0
M  V30 23116 H 2096.47 1.33074 0.550199 0
M  V30 23117 H 2098.42 2.29083 3.53694 0
M  V30 23118 H 2097.15 1.14364 3.05922 0
M  V30 23119 H 2095.81 3.02971 2.06407 0
M  V30 23120 H 2095.45 2.3528 4.44581 0
M  V30 23121 H 2095.15 4.09364 4.21538 0
M  V30 23122 H 2096.68 3.54655 4.97044 0
M  V30 23123 H 2098.09 4.82647 3.09395 0
M  V30 23124 H 2096.49 5.4216 2.5726 0
M  V30 23125 H 2097.56 4.64507 1.39146 0
M  V30 23126 N 2098.9 -0.59187 1.46064 0
M  V30 23127 C 2100.32 -0.914287 1.30816 0
M  V30 23128 C 2100.52 -1.99645 0.272804 0
M  V30 23129 O 2099.57 -2.50363 -0.327818 0
M  V30 23130 C 2100.89 -1.34032 2.69176 0
M  V30 23131 C 2102.44 -1.45367 2.77196 0
M  V30 23132 C 2102.91 -1.9134 4.16117 0
M  V30 23133 N 2104.4 -1.98548 4.18489 0
M  V30 23134 C 2105.14 -2.35376 5.22863 0
M  V30 23135 N 2104.63 -2.7106 6.37572 0
M  V30 23136 N 2106.43 -2.35851 5.10226 0
M  V30 23137 H 2098.58 0.123139 2.12043 0
M  V30 23138 H 2100.84 -0.00757695 0.94797 0
M  V30 23139 H 2100.55 -0.619238 3.46206 0
M  V30 23140 H 2100.42 -2.3037 2.98679 0
M  V30 23141 H 2102.81 -2.16563 2.0046 0
M  V30 23142 H 2102.89 -0.473031 2.51388 0
M  V30 23143 H 2102.53 -1.20726 4.93343 0
M  V30 23144 H 2102.46 -2.90346 4.39325 0
M  V30 23145 H 2104.95 -1.73498 3.35719 0
M  V30 23146 H 2105.27 -2.98088 7.12996 0
M  V30 23147 H 2103.61 -2.68719 6.40948 0
M  V30 23148 H 2106.8 -2.07389 4.19651 0
M  V30 23149 H 2106.97 -2.64224 5.91684 0
M  V30 23150 N 2100.38 -1.33616 -0.835729 0
M  V30 23151 C 2101.31 -1.19968 -1.95296 0
M  V30 23152 C 2102.33 -0.129874 -1.62281 0
M  V30 23153 O 2103.51 -0.380581 -1.74396 0
M  V30 23154 C 2100.61 -0.818275 -3.28873 0
M  V30 23155 C 2099.79 -1.98038 -3.9 0
M  V30 23156 C 2098.85 -1.57944 -5.01936 0
M  V30 23157 O 2097.87 -2.29423 -5.20916 0
M  V30 23158 N 2099.07 -0.486237 -5.7846 0
M  V30 23159 H 2101.84 -2.16212 -2.0754 0
M  V30 23160 H 2099.4 -1.26403 -1.01163 0
M  V30 23161 H 2101.39 -0.532092 -4.01187 0
M  V30 23162 H 2099.96 0.053577 -3.12554 0
M  V30 23163 H 2099.18 -2.43201 -3.10237 0
M  V30 23164 H 2100.47 -2.75789 -4.27572 0
M  V30 23165 H 2099.87 0.108268 -5.65596 0
M  V30 23166 H 2098.43 -0.259739 -6.51282 0
M  V30 23167 N 2101.86 1.05436 -1.17136 0
M  V30 23168 C 2103.09 1.8181 -0.981263 0
M  V30 23169 C 2103.5 1.83173 0.473739 0
M  V30 23170 O 2102.84 1.25581 1.34071 0
M  V30 23171 C 2102.9 3.29286 -1.44261 0
M  V30 23172 C 2102.57 3.5161 -2.91924 0
M  V30 23173 C 2103.56 3.43938 -3.89875 0
M  V30 23174 C 2101.25 3.78652 -3.30043 0
M  V30 23175 C 2103.24 3.6299 -5.23944 0
M  V30 23176 C 2100.93 3.97352 -4.64278 0
M  V30 23177 C 2101.93 3.8952 -5.61038 0
M  V30 23178 O 2101.61 4.07702 -6.92845 0
M  V30 23179 H 2101.35 0.57984 -0.347507 0
M  V30 23180 H 2103.9 1.33868 -1.55784 0
M  V30 23181 H 2102.13 3.78131 -0.80958 0
M  V30 23182 H 2103.82 3.87177 -1.21857 0
M  V30 23183 H 2104.59 3.23027 -3.61772 0
M  V30 23184 H 2100.46 3.83853 -2.553 0
M  V30 23185 H 2104.01 3.56793 -5.99454 0
M  V30 23186 H 2099.91 4.17755 -4.92088 0
M  V30 23187 H 2100.67 4.24941 -6.99548 0
M  V30 23188 N 2103.34 0.971211 1.24118 0
M  V30 23189 C 2104.57 0.651802 1.96049 0
M  V30 23190 C 2104.97 -0.783604 1.7221 0
M  V30 23191 O 2104.32 -1.53782 1.00483 0
M  V30 23192 C 2104.38 0.850953 3.49284 0
M  V30 23193 C 2104.04 2.26667 3.96826 0
M  V30 23194 C 2105.04 3.24467 4.06223 0
M  V30 23195 C 2102.73 2.5953 4.30057 0
M  V30 23196 C 2104.72 4.53215 4.4819 0
M  V30 23197 C 2102.41 3.88503 4.71708 0
M  V30 23198 C 2103.4 4.85158 4.8074 0
M  V30 23199 O 2103.09 6.1183 5.21459 0
M  V30 23200 H 2102.82 0.241912 0.631233 0
M  V30 23201 H 2105.38 1.30265 1.58809 0
M  V30 23202 H 2103.61 0.142941 3.86436 0
M  V30 23203 H 2105.3 0.530099 4.02424 0
M  V30 23204 H 2106.06 3.00407 3.80763 0
M  V30 23205 H 2101.94 1.85015 4.22245 0
M  V30 23206 H 2105.49 5.28659 4.55155 0
M  V30 23207 H 2101.38 4.12363 4.96616 0
M  V30 23208 H 2102.15 6.15448 5.39598 0
M  V30 23209 N 2104.81 -1.39054 0.741747 0
M  V30 23210 C 2106.06 -2.00374 0.292655 0
M  V30 23211 C 2106.39 -1.58866 -1.12214 0
M  V30 23212 O 2105.64 -0.811946 -1.78062 0
M  V30 23213 C 2105.94 -3.55684 0.349795 0
M  V30 23214 C 2105.61 -4.16865 1.71856 0
M  V30 23215 C 2104.27 -4.33289 2.09318 0
M  V30 23216 C 2106.62 -4.50738 2.61696 0
M  V30 23217 C 2103.95 -4.80878 3.36115 0
M  V30 23218 C 2106.3 -4.99738 3.87872 0
M  V30 23219 C 2104.97 -5.14369 4.25418 0
M  V30 23220 H 2104.24 -0.733221 0.10709 0
M  V30 23221 H 2106.88 -1.6628 0.949911 0
M  V30 23222 H 2105.19 -3.89844 -0.391034 0
M  V30 23223 H 2106.89 -4.00997 -0.0159237 0
M  V30 23224 H 2103.48 -4.04488 1.41731 0
M  V30 23225 H 2107.66 -4.37661 2.34022 0
M  V30 23226 H 2102.92 -4.90391 3.6514 0
M  V30 23227 H 2107.09 -5.24919 4.57638 0
M  V30 23228 H 2104.72 -5.51005 5.23734 0
M  V30 23229 N 2106.29 -0.489897 -1.49792 0
M  V30 23230 C 2107.52 0.0556798 -2.06825 0
M  V30 23231 C 2107.94 1.31825 -1.35158 0
M  V30 23232 O 2107.29 1.77446 -0.426503 0
M  V30 23233 C 2107.34 0.324604 -3.6004 0
M  V30 23234 O 2107.06 -0.887904 -4.29008 0
M  V30 23235 C 2108.57 0.91506 -4.33753 0
M  V30 23236 H 2105.79 -0.0154889 -0.670821 0
M  V30 23237 H 2108.33 -0.684073 -1.92719 0
M  V30 23238 H 2106.48 1.01432 -3.73885 0
M  V30 23239 H 2106.9 -0.643954 -5.20532 0
M  V30 23240 H 2108.37 1.05288 -5.41866 0
M  V30 23241 H 2108.85 1.91003 -3.95493 0
M  V30 23242 H 2109.46 0.263155 -4.24485 0
M  V30 23243 N 2107.77 1.56011 -0.223262 0
M  V30 23244 C 2108.72 2.21735 0.702604 0
M  V30 23245 C 2109.71 1.19729 1.19839 0
M  V30 23246 O 2110.92 1.37804 1.15802 0
M  V30 23247 H 2107.29 0.71097 0.245002 0
M  V30 23248 H 2109.26 2.98139 0.124869 0
M  V30 23249 C 2108.01 2.91245 1.89925 0
M  V30 23250 H 2107.34 3.69496 1.52686 0
M  V30 23251 H 2108.78 3.4063 2.52482 0
M  V30 23252 C 2107.24 1.9381 2.75571 0
M  V30 23253 O 2107.77 1.45612 3.74379 0
M  V30 23254 N 2105.97 1.61422 2.41643 0
M  V30 23255 H 2105.52 2.00811 1.61347 0
M  V30 23256 H 2105.48 0.964905 2.99227 0
M  V30 23257 N 2109.25 -0.0501116 1.5752 0
M  V30 23258 C 2110.5 -0.743624 1.87922 0
M  V30 23259 C 2110.82 -1.77004 0.818202 0
M  V30 23260 O 2110.09 -1.95319 -0.150705 0
M  V30 23261 H 2108.67 -0.277634 0.69349 0
M  V30 23262 H 2111.33 -0.0210527 1.94889 0
M  V30 23263 H 2110.43 -1.24635 2.86134 0
M  V30 23264 N 2110.73 -1.54276 -0.321972 0
M  V30 23265 C 2111.97 -1.73749 -1.0575 0
M  V30 23266 C 2112.33 -0.505864 -1.85631 0
M  V30 23267 O 2111.62 0.501725 -1.84914 0
M  V30 23268 C 2111.81 -2.95429 -2.01138 0
M  V30 23269 C 2111.64 -4.30307 -1.30636 0
M  V30 23270 C 2110.41 -4.94435 -1.0422 0
M  V30 23271 C 2112.61 -5.09214 -0.721468 0
M  V30 23272 N 2110.59 -6.13141 -0.305263 0
M  V30 23273 C 2111.96 -6.19891 -0.116217 0
M  V30 23274 C 2114.02 -4.93969 -0.624439 0
M  V30 23275 C 2112.72 -7.16985 0.57665 0
M  V30 23276 C 2114.75 -5.91375 0.0547291 0
M  V30 23277 C 2114.11 -7.01405 0.648918 0
M  V30 23278 H 2110.21 -0.688601 -0.370611 0
M  V30 23279 H 2112.79 -1.91735 -0.338501 0
M  V30 23280 H 2110.96 -2.78905 -2.70308 0
M  V30 23281 H 2112.7 -3.03522 -2.67687 0
M  V30 23282 H 2109.45 -4.54396 -1.33495 0
M  V30 23283 H 2109.88 -6.76982 0.0491112 0
M  V30 23284 H 2114.52 -4.09048 -1.06954 0
M  V30 23285 H 2112.24 -8.01463 1.03358 0
M  V30 23286 H 2115.82 -5.81656 0.129465 0
M  V30 23287 H 2114.7 -7.75481 1.16611 0
M  V30 23288 N 2112.2 0.584116 -1.46376 0
M  V30 23289 C 2113.15 1.71437 -1.57201 0
M  V30 23290 C 2114.15 1.6357 -0.440579 0
M  V30 23291 O 2115.35 1.6908 -0.617397 0
M  V30 23292 H 2111.73 0.56679 -0.49422 0
M  V30 23293 H 2113.7 1.59438 -2.52234 0
M  V30 23294 C 2112.45 3.09824 -1.57812 0
M  V30 23295 H 2111.77 3.16547 -2.44209 0
M  V30 23296 H 2113.21 3.88672 -1.69441 0
M  V30 23297 C 2111.67 3.35503 -0.306515 0
M  V30 23298 O 2112.2 3.97136 0.60384 0
M  V30 23299 N 2110.41 2.89946 -0.194866 0
M  V30 23300 H 2109.95 2.39971 -0.936579 0
M  V30 23301 H 2109.91 3.075 0.655069 0
M  V30 23302 N 2113.68 1.34058 0.828631 0
M  V30 23303 C 2114.61 1.278 1.95421 0
M  V30 23304 C 2115.59 0.156548 1.69378 0
M  V30 23305 O 2116.78 0.347987 1.91057 0
M  V30 23306 C 2113.91 1.02688 3.31772 0
M  V30 23307 C 2112.86 2.11238 3.7224 0
M  V30 23308 C 2112.19 1.71324 5.0651 0
M  V30 23309 C 2113.49 3.53014 3.84939 0
M  V30 23310 H 2115.18 2.21977 2.00914 0
M  V30 23311 H 2112.73 1.06859 0.965253 0
M  V30 23312 H 2114.68 0.969571 4.10094 0
M  V30 23313 H 2113.41 0.0495214 3.26562 0
M  V30 23314 H 2112.07 2.16029 2.96188 0
M  V30 23315 H 2111.71 0.722632 4.97782 0
M  V30 23316 H 2111.41 2.43972 5.34557 0
M  V30 23317 H 2112.94 1.67077 5.87297 0
M  V30 23318 H 2114.35 3.50667 4.53547 0
M  V30 23319 H 2112.75 4.24235 4.24434 0
M  V30 23320 H 2113.82 3.90772 2.87098 0
M  V30 23321 N 2115.16 -1.04814 1.17694 0
M  V30 23322 C 2116.41 -1.77883 0.967671 0
M  V30 23323 C 2116.74 -1.87874 -0.503367 0
M  V30 23324 O 2115.99 -1.37773 -1.38986 0
M  V30 23325 C 2116.29 -3.2163 1.55849 0
M  V30 23326 C 2115.96 -3.3169 3.05439 0
M  V30 23327 C 2114.62 -3.34142 3.46269 0
M  V30 23328 C 2116.97 -3.32397 4.0145 0
M  V30 23329 C 2114.3 -3.34935 4.81701 0
M  V30 23330 C 2116.65 -3.34729 5.36786 0
M  V30 23331 C 2115.31 -3.3547 5.77076 0
M  V30 23332 H 2114.58 -0.65092 0.354096 0
M  V30 23333 H 2117.23 -1.23159 1.46643 0
M  V30 23334 H 2115.54 -3.79306 0.981546 0
M  V30 23335 H 2117.23 -3.76796 1.37208 0
M  V30 23336 H 2113.82 -3.30496 2.72892 0
M  V30 23337 H 2118.01 -3.29699 3.70961 0
M  V30 23338 H 2113.26 -3.33822 5.12224 0
M  V30 23339 H 2117.44 -3.34224 6.10956 0
M  V30 23340 H 2115.06 -3.35838 6.81995 0
M  V30 23341 N 2116.64 -0.977779 -1.23601 0
M  V30 23342 C 2117.92 -0.561714 -1.87361 0
M  V30 23343 C 2118.3 0.961166 -1.87949 0
M  V30 23344 O 2117.64 1.83678 -1.35922 0
M  V30 23345 C 2117.85 -1.16478 -3.28989 0
M  V30 23346 C 2119.2 -1.2559 -4.05601 0
M  V30 23347 O 2120.23 -1.11804 -3.38199 0
M  V30 23348 O 2119.09 -1.47493 -5.2622 0
M  V30 23349 H 2116.18 -0.18876 -0.80517 0
M  V30 23350 H 2118.73 -1.07269 -1.31497 0
M  V30 23351 H 2117.5 -2.20711 -3.23114 0
M  V30 23352 H 2117.12 -0.638457 -3.9244 0
M  V30 23353 N 2118.12 1.38658 -0.749111 0
M  V30 23354 C 2119.36 2.02064 -0.308144 0
M  V30 23355 C 2119.72 1.58175 1.08834 0
M  V30 23356 O 2120.92 2.13879 1.62817 0
M  V30 23357 C 2119.19 3.54901 -0.421933 0
M  V30 23358 S 2120.75 4.38755 -0.0628878 0
M  V30 23359 H 2117.57 0.700831 -0.119821 0
M  V30 23360 H 2120.17 1.69236 -0.978742 0
M  V30 23361 H 2118.88 3.84333 -1.43933 0
M  V30 23362 H 2118.41 3.925 0.266002 0
M  V30 23363 H 2120.42 4.82715 1.14894 0
M  V30 23364 N 2119.6 0.497834 1.49531 0
M  V30 23365 C 2120.84 -0.0478795 2.02743 0
M  V30 23366 C 2121.17 -1.36937 1.37702 0
M  V30 23367 O 2120.45 -1.8765 0.511637 0
M  V30 23368 C 2120.73 -0.203749 3.59523 0
M  V30 23369 C 2120.59 1.14064 4.35097 0
M  V30 23370 C 2121.9 -0.945869 4.29815 0
M  V30 23371 H 2119.02 -0.0159264 0.736828 0
M  V30 23372 H 2121.67 0.648629 1.78586 0
M  V30 23373 H 2119.82 -0.796987 3.80237 0
M  V30 23374 H 2121.49 1.77252 4.25887 0
M  V30 23375 H 2119.73 1.73071 3.9778 0
M  V30 23376 H 2120.4 0.984923 5.43142 0
M  V30 23377 H 2122.88 -0.44277 4.13738 0
M  V30 23378 H 2121.75 -1.02377 5.39268 0
M  V30 23379 H 2122.01 -1.98884 3.94839 0
M  V30 23380 N 2121.07 -1.5589 0.231532 0
M  V30 23381 C 2122.32 -1.98855 -0.398041 0
M  V30 23382 C 2122.65 -1.11925 -1.58702 0
M  V30 23383 O 2121.93 -0.179155 -1.93673 0
M  V30 23384 C 2122.21 -3.50572 -0.822893 0
M  V30 23385 C 2122.06 -4.48272 0.370417 0
M  V30 23386 C 2123.38 -4.0696 -1.67547 0
M  V30 23387 H 2120.5 -0.722953 -0.143207 0
M  V30 23388 H 2123.14 -1.87116 0.329767 0
M  V30 23389 H 2121.29 -3.60706 -1.44303 0
M  V30 23390 H 2122.97 -4.50137 1.0087 0
M  V30 23391 H 2121.21 -4.2173 1.01617 0
M  V30 23392 H 2121.88 -5.51992 0.0300558 0
M  V30 23393 H 2124.36 -3.99831 -1.15214 0
M  V30 23394 H 2123.23 -5.13412 -1.94162 0
M  V30 23395 H 2123.49 -3.5446 -2.64217 0
M  V30 23396 N 2122.55 0.0417572 -1.57545 0
M  V30 23397 C 2123.8 0.736189 -1.88966 0
M  V30 23398 C 2124.13 1.75678 -0.827697 0
M  V30 23399 O 2123.41 1.93851 0.158734 0
M  V30 23400 C 2123.69 1.4172 -3.3104 0
M  V30 23401 C 2123.54 0.410987 -4.47918 0
M  V30 23402 C 2124.86 2.3545 -3.71822 0
M  V30 23403 H 2121.98 0.266166 -0.687259 0
M  V30 23404 H 2124.62 -0.000952352 -1.9 0
M  V30 23405 H 2122.77 2.04552 -3.30289 0
M  V30 23406 H 2124.44 -0.214433 -4.60801 0
M  V30 23407 H 2122.69 -0.270954 -4.32953 0
M  V30 23408 H 2123.36 0.925718 -5.44182 0
M  V30 23409 H 2125.83 1.82673 -3.73858 0
M  V30 23410 H 2124.71 2.80087 -4.72062 0
M  V30 23411 H 2124.97 3.21575 -3.03384 0
M  V30 23412 N 2124.03 1.54445 0.313786 0
M  V30 23413 C 2124.96 1.87506 1.39153 0
M  V30 23414 C 2125.94 0.732752 1.53508 0
M  V30 23415 O 2127.13 0.98736 1.67227 0
M  V30 23416 C 2124.26 2.11107 2.75773 0
M  V30 23417 C 2123.21 3.26954 2.76197 0
M  V30 23418 C 2122.54 3.35947 4.15985 0
M  V30 23419 C 2123.84 4.64372 2.39073 0
M  V30 23420 H 2125.53 2.7777 1.11732 0
M  V30 23421 H 2123.08 1.33651 0.536054 0
M  V30 23422 H 2125.03 2.32821 3.51244 0
M  V30 23423 H 2123.75 1.17602 3.04692 0
M  V30 23424 H 2122.41 3.05144 2.03182 0
M  V30 23425 H 2122.06 2.39982 4.42061 0
M  V30 23426 H 2121.76 4.13812 4.17173 0
M  V30 23427 H 2123.28 3.59906 4.93254 0
M  V30 23428 H 2124.7 4.85901 3.04258 0
M  V30 23429 H 2123.09 5.44858 2.51496 0
M  V30 23430 H 2124.16 4.65956 1.34211 0
M  V30 23431 N 2125.51 -0.576345 1.46683 0
M  V30 23432 C 2126.44 -1.69505 1.60594 0
M  V30 23433 C 2127.42 -1.63873 0.456022 0
M  V30 23434 O 2128.6 -1.81791 0.683045 0
M  V30 23435 C 2125.73 -3.08148 1.60194 0
M  V30 23436 C 2124.69 -3.28615 2.7422 0
M  V30 23437 C 2124.01 -4.6785 2.58884 0
M  V30 23438 C 2125.31 -3.15834 4.15989 0
M  V30 23439 H 2127.01 -1.58119 2.54241 0
M  V30 23440 H 2124.55 -0.759271 1.22356 0
M  V30 23441 H 2126.51 -3.86237 1.68519 0
M  V30 23442 H 2125.23 -3.20447 0.630952 0
M  V30 23443 H 2123.89 -2.52927 2.65375 0
M  V30 23444 H 2123.54 -4.76923 1.59854 0
M  V30 23445 H 2123.24 -4.82495 3.35368 0
M  V30 23446 H 2124.76 -5.48099 2.69109 0
M  V30 23447 H 2126.18 -3.83761 4.25911 0
M  V30 23448 H 2124.57 -3.41998 4.9311 0
M  V30 23449 H 2125.64 -2.12828 4.35698 0
M  V30 23450 N 2126.99 -1.34495 -0.82151 0
M  V30 23451 C 2128.21 -1.30164 -1.61468 0
M  V30 23452 C 2128.64 0.121303 -1.87708 0
M  V30 23453 O 2127.99 1.08349 -1.45362 0
M  V30 23454 C 2128.04 -2.09951 -2.93177 0
M  V30 23455 O 2127.15 -1.47 -3.85311 0
M  V30 23456 H 2126.49 -0.446975 -0.491029 0
M  V30 23457 H 2129.02 -1.77318 -1.02075 0
M  V30 23458 H 2129.03 -2.21359 -3.4273 0
M  V30 23459 H 2127.7 -3.13407 -2.73402 0
M  V30 23460 H 2126.28 -1.44343 -3.4383 0
M  V30 23461 N 2128.46 1.04188 -1.18248 0
M  V30 23462 C 2129.71 1.76764 -0.971464 0
M  V30 23463 C 2130.03 1.89102 0.49997 0
M  V30 23464 O 2131.23 2.58519 0.829468 0
M  V30 23465 C 2129.69 3.17801 -1.68909 0
M  V30 23466 C 2129.3 3.1356 -3.19975 0
M  V30 23467 C 2131.04 3.94763 -1.56084 0
M  V30 23468 C 2128.95 4.49449 -3.84382 0
M  V30 23469 H 2127.88 0.662591 -0.359847 0
M  V30 23470 H 2130.53 1.16702 -1.41608 0
M  V30 23471 H 2128.91 3.78252 -1.17224 0
M  V30 23472 H 2130.08 2.62568 -3.78675 0
M  V30 23473 H 2128.4 2.50097 -3.32927 0
M  V30 23474 H 2131 4.95253 -2.01566 0
M  V30 23475 H 2131.34 4.13128 -0.512919 0
M  V30 23476 H 2131.87 3.40885 -2.05043 0
M  V30 23477 H 2128.61 4.36289 -4.89216 0
M  V30 23478 H 2128.13 5.00549 -3.3047 0
M  V30 23479 H 2129.81 5.18367 -3.87175 0
M  V30 23480 N 2129.94 0.98432 1.23081 0
M  V30 23481 C 2131.19 0.656352 1.91885 0
M  V30 23482 C 2131.52 -0.808541 1.76568 0
M  V30 23483 O 2130.8 -1.5837 1.12912 0
M  V30 23484 C 2131.08 1.05239 3.44379 0
M  V30 23485 C 2130.93 2.57521 3.68786 0
M  V30 23486 C 2132.25 0.599218 4.36002 0
M  V30 23487 H 2129.37 0.23992 0.696855 0
M  V30 23488 H 2132.01 1.22631 1.45127 0
M  V30 23489 H 2130.16 0.567423 3.84334 0
M  V30 23490 H 2131.83 3.13622 3.38288 0
M  V30 23491 H 2130.08 2.99978 3.13362 0
M  V30 23492 H 2130.75 2.80282 4.75548 0
M  V30 23493 H 2133.22 1.01565 4.03514 0
M  V30 23494 H 2132.1 0.904717 5.41393 0
M  V30 23495 H 2132.36 -0.500359 4.39259 0
M  V30 23496 N 2131.42 -1.38259 0.756453 0
M  V30 23497 C 2132.65 -2.04861 0.323535 0
M  V30 23498 C 2133.07 -1.56679 -1.04083 0
M  V30 23499 O 2132.43 -0.72007 -1.66387 0
M  V30 23500 C 2132.48 -3.58812 0.358692 0
M  V30 23501 O 2131.58 -4.07304 -0.646296 0
M  V30 23502 H 2130.92 -0.64848 0.142723 0
M  V30 23503 H 2133.45 -1.76877 1.02838 0
M  V30 23504 H 2133.46 -4.07456 0.210579 0
M  V30 23505 H 2132.14 -3.93238 1.35413 0
M  V30 23506 H 2130.71 -3.7002 -0.462561 0
M  V30 23507 N 2132.9 -0.505757 -1.49264 0
M  V30 23508 C 2134.13 0.0337401 -2.06872 0
M  V30 23509 C 2134.54 1.30384 -1.36548 0
M  V30 23510 O 2133.9 1.76984 -0.4453 0
M  V30 23511 C 2133.95 0.286399 -3.60364 0
M  V30 23512 O 2133.67 -0.933356 -4.28042 0
M  V30 23513 C 2135.17 0.869003 -4.34699 0
M  V30 23514 H 2132.39 -0.022603 -0.670619 0
M  V30 23515 H 2134.94 -0.704475 -1.91983 0
M  V30 23516 H 2133.09 0.974605 -3.7494 0
M  V30 23517 H 2133.5 -0.699127 -5.1982 0
M  V30 23518 H 2134.98 0.995347 -5.42952 0
M  V30 23519 H 2135.46 1.86798 -3.97496 0
M  V30 23520 H 2136.06 0.218118 -4.2474 0
M  V30 23521 N 2134.38 1.55765 -0.239796 0
M  V30 23522 C 2135.31 2.17095 0.703207 0
M  V30 23523 C 2136.29 1.12083 1.17797 0
M  V30 23524 O 2137.47 1.40434 1.2574 0
M  V30 23525 C 2134.6 2.76592 1.95486 0
M  V30 23526 C 2133.64 3.94595 1.61855 0
M  V30 23527 S 2134.48 5.30537 0.727373 0
M  V30 23528 C 2135.63 5.93483 1.98818 0
M  V30 23529 H 2135.87 2.96742 0.181988 0
M  V30 23530 H 2133.4 1.54381 -0.0243142 0
M  V30 23531 H 2135.36 3.11508 2.67345 0
M  V30 23532 H 2134.02 1.96904 2.4472 0
M  V30 23533 H 2133.21 4.34791 2.54898 0
M  V30 23534 H 2132.81 3.6092 0.98045 0
M  V30 23535 H 2135.11 6.10567 2.93622 0
M  V30 23536 H 2136.05 6.89088 1.62983 0
M  V30 23537 H 2136.46 5.22486 2.13703 0
M  V30 23538 N 2135.85 -0.0334016 1.57565 0
M  V30 23539 C 2137.1 -0.724102 1.88254 0
M  V30 23540 C 2137.42 -1.76752 0.837737 0
M  V30 23541 O 2138.62 -2.51051 1.03372 0
M  V30 23542 C 2137.08 -1.33894 3.34067 0
M  V30 23543 C 2136.69 -0.332091 4.46767 0
M  V30 23544 C 2138.43 -2.00977 3.7391 0
M  V30 23545 C 2136.34 -0.955024 5.83638 0
M  V30 23546 H 2135.27 -0.274201 0.702375 0
M  V30 23547 H 2137.92 0.0216608 1.83487 0
M  V30 23548 H 2136.3 -2.13426 3.33565 0
M  V30 23549 H 2137.47 0.436205 4.58731 0
M  V30 23550 H 2135.79 0.236407 4.15728 0
M  V30 23551 H 2138.39 -2.48428 4.73485 0
M  V30 23552 H 2138.73 -2.82605 3.05679 0
M  V30 23553 H 2139.26 -1.28225 3.76568 0
M  V30 23554 H 2136 -0.178244 6.55258 0
M  V30 23555 H 2135.52 -1.69326 5.75403 0
M  V30 23556 H 2137.2 -1.46364 6.30227 0
M  V30 23557 N 2137.33 -1.54609 -0.305591 0
M  V30 23558 C 2138.56 -1.77981 -1.06479 0
M  V30 23559 C 2138.98 -0.535455 -1.80318 0
M  V30 23560 O 2138.34 0.513813 -1.73867 0
M  V30 23561 C 2138.39 -2.984 -2.0246 0
M  V30 23562 O 2137.49 -2.71203 -3.10681 0
M  V30 23563 H 2136.83 -0.589228 -0.306114 0
M  V30 23564 H 2139.36 -2.0168 -0.344411 0
M  V30 23565 H 2139.37 -3.26244 -2.45008 0
M  V30 23566 H 2138.05 -3.8863 -1.48121 0
M  V30 23567 H 2136.63 -2.54362 -2.7268 0
M  V30 23568 N 2138.81 0.568558 -1.46987 0
M  V30 23569 C 2140.04 1.35191 -1.56624 0
M  V30 23570 C 2140.45 1.87602 -0.212353 0
M  V30 23571 O 2139.81 1.64388 0.792639 0
M  V30 23572 C 2139.86 2.52969 -2.58242 0
M  V30 23573 O 2139.58 2.02726 -3.88373 0
M  V30 23574 C 2141.08 3.45334 -2.77955 0
M  V30 23575 H 2138.3 0.412505 -0.529227 0
M  V30 23576 H 2140.85 0.689847 -1.92513 0
M  V30 23577 H 2139 3.15136 -2.25318 0
M  V30 23578 H 2139.42 2.79532 -4.43804 0
M  V30 23579 H 2140.89 4.2442 -3.52947 0
M  V30 23580 H 2141.37 3.98165 -1.85368 0
M  V30 23581 H 2141.97 2.88992 -3.12032 0
M  V30 23582 N 2140.29 1.34929 0.814366 0
M  V30 23583 C 2141.22 1.29866 1.94055 0
M  V30 23584 C 2142.2 0.174504 1.69203 0
M  V30 23585 O 2143.38 0.368232 1.90677 0
M  V30 23586 C 2140.51 1.06201 3.30664 0
M  V30 23587 C 2139.47 2.15174 3.69978 0
M  V30 23588 C 2138.79 1.76686 5.04664 0
M  V30 23589 C 2140.09 3.57077 3.81174 0
M  V30 23590 H 2141.79 2.24095 1.98549 0
M  V30 23591 H 2139.33 1.07877 0.953865 0
M  V30 23592 H 2141.29 1.01301 4.09043 0
M  V30 23593 H 2140.01 0.0841549 3.26492 0
M  V30 23594 H 2138.67 2.19158 2.9388 0
M  V30 23595 H 2138.32 0.775388 4.96988 0
M  V30 23596 H 2138.02 2.49628 5.3194 0
M  V30 23597 H 2139.54 1.73297 5.85492 0
M  V30 23598 H 2140.96 3.55458 4.49803 0
M  V30 23599 H 2139.35 4.28713 4.19911 0
M  V30 23600 H 2140.42 3.93795 2.82937 0
M  V30 23601 N 2141.77 -1.0356 1.18799 0
M  V30 23602 C 2142.68 -2.15173 0.934763 0
M  V30 23603 C 2143.69 -1.73695 -0.102902 0
M  V30 23604 O 2144.87 -2.0124 0.0801886 0
M  V30 23605 C 2141.93 -3.43507 0.469463 0
M  V30 23606 C 2140.99 -3.99337 1.57571 0
M  V30 23607 C 2140.23 -5.21546 1.13251 0
M  V30 23608 O 2140.45 -5.704 -0.0066957 0
M  V30 23609 O 2139.38 -5.70039 1.93233 0
M  V30 23610 H 2143.21 -2.39393 1.86881 0
M  V30 23611 H 2140.8 -1.13608 0.970239 0
M  V30 23612 H 2142.68 -4.20834 0.218298 0
M  V30 23613 H 2141.35 -3.20747 -0.436226 0
M  V30 23614 H 2140.26 -3.23375 1.88095 0
M  V30 23615 H 2141.59 -4.26448 2.45771 0
M  V30 23616 N 2143.25 -0.990834 -1.22557 0
M  V30 23617 C 2144.19 -0.532274 -2.26428 0
M  V30 23618 C 2145.19 0.416012 -1.64212 0
M  V30 23619 O 2146.39 0.288758 -1.77669 0
M  V30 23620 H 2142.77 -0.153732 -0.736118 0
M  V30 23621 H 2144.74 -1.41981 -2.62457 0
M  V30 23622 C 2143.49 0.139451 -3.4742 0
M  V30 23623 H 2142.81 -0.581172 -3.95553 0
M  V30 23624 H 2144.25 0.42379 -4.21877 0
M  V30 23625 C 2142.71 1.37411 -3.07604 0
M  V30 23626 O 2143.24 2.4696 -3.16818 0
M  V30 23627 N 2141.45 1.2486 -2.62409 0
M  V30 23628 H 2140.99 0.357212 -2.55111 0
M  V30 23629 H 2140.95 2.07575 -2.36136 0
M  V30 23630 N 2144.72 1.37856 -0.763775 0
M  V30 23631 C 2145.66 2.28969 -0.102965 0
M  V30 23632 C 2146.67 1.48246 0.672832 0
M  V30 23633 O 2147.86 1.70992 0.51224 0
M  V30 23634 C 2144.96 3.27329 0.877995 0
M  V30 23635 C 2144.13 4.37116 0.157698 0
M  V30 23636 C 2143.19 5.156 1.05087 0
M  V30 23637 O 2142.22 5.66842 0.517604 0
M  V30 23638 N 2143.42 5.29559 2.37797 0
M  V30 23639 H 2146.18 2.8632 -0.885499 0
M  V30 23640 H 2143.74 1.49747 -0.615433 0
M  V30 23641 H 2145.74 3.76715 1.47877 0
M  V30 23642 H 2144.31 2.70804 1.56154 0
M  V30 23643 H 2143.53 3.89231 -0.623902 0
M  V30 23644 H 2144.81 5.07661 -0.34033 0
M  V30 23645 H 2144.21 4.89496 2.83566 0
M  V30 23646 H 2142.77 5.82282 2.929 0
M  V30 23647 N 2146.2 0.513665 1.48994 0
M  V30 23648 C 2147.11 -0.262214 2.3313 0
M  V30 23649 C 2148.13 -0.955024 1.45449 0
M  V30 23650 O 2149.3 -0.933603 1.78454 0
M  V30 23651 C 2146.37 -1.30529 3.2119 0
M  V30 23652 C 2145.43 -0.624574 4.24732 0
M  V30 23653 C 2144.66 -1.61795 5.08584 0
M  V30 23654 O 2144.89 -2.84907 4.9415 0
M  V30 23655 O 2143.82 -1.16631 5.90492 0
M  V30 23656 H 2147.65 0.426785 3.00686 0
M  V30 23657 H 2145.23 0.274809 1.46851 0
M  V30 23658 H 2147.11 -1.90848 3.75706 0
M  V30 23659 H 2145.79 -1.97699 2.56314 0
M  V30 23660 H 2144.69 0.0186867 3.74095 0
M  V30 23661 H 2146.03 0.00489798 4.922 0
M  V30 23662 N 2147.68 -1.55636 0.248053 0
M  V30 23663 C 2148.63 -2.18088 -0.664956 0
M  V30 23664 C 2149.61 -1.13711 -1.13836 0
M  V30 23665 O 2150.81 -1.39617 -1.08794 0
M  V30 23666 C 2147.93 -2.88477 -1.86107 0
M  V30 23667 C 2147.02 -4.00112 -1.40611 0
M  V30 23668 N 2147.41 -5.01403 -0.665461 0
M  V30 23669 C 2145.71 -4.12688 -1.6913 0
M  V30 23670 C 2146.41 -5.8011 -0.429767 0
M  V30 23671 N 2145.39 -5.34429 -0.994315 0
M  V30 23672 H 2149.19 -2.93759 -0.0909433 0
M  V30 23673 H 2146.7 -1.62322 0.0504194 0
M  V30 23674 H 2148.7 -3.31648 -2.52617 0
M  V30 23675 H 2147.36 -2.14309 -2.4393 0
M  V30 23676 H 2148.37 -5.16938 -0.315457 0
M  V30 23677 H 2145.05 -3.49692 -2.28083 0
M  V30 23678 H 2146.44 -6.71706 0.161586 0
M  V30 23679 N 2149.16 0.0250451 -1.5758 0
M  V30 23680 C 2150.41 0.714108 -1.88636 0
M  V30 23681 C 2150.72 1.76305 -0.847099 0
M  V30 23682 O 2151.93 2.50499 -1.04702 0
M  V30 23683 C 2150.38 1.3212 -3.34772 0
M  V30 23684 C 2149.99 0.308393 -4.46937 0
M  V30 23685 C 2151.73 1.98991 -3.74971 0
M  V30 23686 C 2149.64 0.924059 -5.84136 0
M  V30 23687 H 2148.57 0.270472 -0.703819 0
M  V30 23688 H 2151.22 -0.0313912 -1.83473 0
M  V30 23689 H 2149.6 2.11654 -3.34692 0
M  V30 23690 H 2150.78 -0.460527 -4.58493 0
M  V30 23691 H 2149.09 -0.258451 -4.15597 0
M  V30 23692 H 2151.69 2.45913 -4.74796 0
M  V30 23693 H 2152.03 2.8098 -3.07174 0
M  V30 23694 H 2152.57 1.26226 -3.77242 0
M  V30 23695 H 2149.3 0.143492 -6.55343 0
M  V30 23696 H 2148.82 1.66272 -5.76293 0
M  V30 23697 H 2150.5 1.4302 -6.30995 0
M  V30 23698 N 2150.64 1.54769 0.297388 0
M  V30 23699 C 2152.05 1.65183 0.87014 0
M  V30 23700 C 2152.4 0.562844 1.87953 0
M  V30 23701 O 2151.52 -0.299913 2.14312 0
M  V30 23702 C 2152.12 2.99437 1.58501 0
M  V30 23703 C 2150.68 3.1196 2.10612 0
M  V30 23704 C 2149.82 2.60882 0.94 0
M  V30 23705 H 2152.77 1.58526 0.0743014 0
M  V30 23706 H 2152.8 2.91063 2.45077 0
M  V30 23707 H 2152.31 3.78675 0.850115 0
M  V30 23708 H 2150.41 2.3745 2.87138 0
M  V30 23709 H 2150.52 4.1817 2.33817 0
M  V30 23710 H 2148.89 2.17426 1.32658 0
M  V30 23711 H 2149.67 3.42601 0.219 0
M  V30 23712 N 2152.11 -0.560755 1.47286 0
M  V30 23713 C 2153.36 -1.31809 1.53729 0
M  V30 23714 C 2153.69 -1.93489 0.198079 0
M  V30 23715 O 2152.94 -1.78211 -0.808664 0
M  V30 23716 C 2153.24 -2.45125 2.60093 0
M  V30 23717 C 2152.91 -2.01298 4.03472 0
M  V30 23718 C 2151.57 -1.89062 4.42503 0
M  V30 23719 C 2153.92 -1.67796 4.93451 0
M  V30 23720 C 2151.25 -1.41613 5.69353 0
M  V30 23721 C 2153.6 -1.21819 6.2076 0
M  V30 23722 C 2152.27 -1.08176 6.58676 0
M  V30 23723 H 2151.54 -0.482323 0.562535 0
M  V30 23724 H 2154.18 -0.629194 1.80868 0
M  V30 23725 H 2152.49 -3.19555 2.26697 0
M  V30 23726 H 2154.19 -3.03313 2.62302 0
M  V30 23727 H 2150.78 -2.11764 3.72631 0
M  V30 23728 H 2154.96 -1.76124 4.63998 0
M  V30 23729 H 2150.22 -1.29712 5.97482 0
M  V30 23730 H 2154.39 -0.949566 6.89896 0
M  V30 23731 H 2152.02 -0.711868 7.5686 0
M  V30 23732 N 2153.59 -1.35359 -0.807199 0
M  V30 23733 C 2155 -1.25624 -1.38114 0
M  V30 23734 C 2155.35 0.11163 -1.95882 0
M  V30 23735 O 2154.48 1.01256 -1.91249 0
M  V30 23736 C 2155.07 -2.27464 -2.51088 0
M  V30 23737 C 2153.63 -2.21472 -3.04347 0
M  V30 23738 C 2152.78 -2.13208 -1.77307 0
M  V30 23739 H 2155.73 -1.46496 -0.610285 0
M  V30 23740 H 2155.75 -1.90077 -3.29623 0
M  V30 23741 H 2155.26 -3.27009 -2.09014 0
M  V30 23742 H 2153.36 -1.25336 -3.50887 0
M  V30 23743 H 2153.48 -3.13409 -3.6237 0
M  V30 23744 H 2151.84 -1.59176 -1.98834 0
M  V30 23745 H 2152.62 -3.14611 -1.37385 0
M  V30 23746 N 2155.07 1.02928 -1.19346 0
M  V30 23747 C 2156.48 1.57772 -0.998248 0
M  V30 23748 C 2156.83 1.90994 0.448955 0
M  V30 23749 O 2155.96 1.70839 1.32827 0
M  V30 23750 C 2156.55 2.86666 -1.80577 0
M  V30 23751 C 2155.11 3.38084 -1.65457 0
M  V30 23752 C 2154.26 2.11531 -1.79304 0
M  V30 23753 H 2157.21 0.854614 -1.33724 0
M  V30 23754 H 2157.23 3.57545 -1.30161 0
M  V30 23755 H 2156.74 2.62455 -2.85901 0
M  V30 23756 H 2154.84 3.67284 -0.627176 0
M  V30 23757 H 2154.96 4.11143 -2.45965 0
M  V30 23758 H 2153.32 2.23382 -1.22362 0
M  V30 23759 H 2154.1 1.89761 -2.86087 0
M  V30 23760 N 2156.55 0.997319 1.2203 0
M  V30 23761 C 2157.78 0.694247 1.94905 0
M  V30 23762 C 2158.19 -0.741849 1.73615 0
M  V30 23763 O 2157.55 -1.50108 1.03796 0
M  V30 23764 C 2157.6 0.996196 3.47503 0
M  V30 23765 O 2157.32 2.37587 3.68082 0
M  V30 23766 C 2158.82 0.711446 4.37554 0
M  V30 23767 H 2156.04 0.256462 0.620055 0
M  V30 23768 H 2158.58 1.33329 1.5506 0
M  V30 23769 H 2156.74 0.402886 3.85299 0
M  V30 23770 H 2157.15 2.47854 4.62243 0
M  V30 23771 H 2158.63 0.972956 5.43358 0
M  V30 23772 H 2159.1 -0.35455 4.37767 0
M  V30 23773 H 2159.71 1.28601 4.05391 0
M  V30 23774 N 2158.03 -1.37449 0.771075 0
M  V30 23775 C 2158.96 -2.32874 0.170867 0
M  V30 23776 C 2159.94 -1.55746 -0.683892 0
M  V30 23777 O 2161.12 -1.83987 -0.621492 0
M  V30 23778 C 2158.25 -3.39974 -0.709566 0
M  V30 23779 C 2157.21 -4.27978 0.0438353 0
M  V30 23780 C 2156.53 -5.26084 -0.955998 0
M  V30 23781 C 2157.83 -5.07793 1.22245 0
M  V30 23782 H 2159.53 -2.83319 0.968038 0
M  V30 23783 H 2157.07 -1.36219 0.466952 0
M  V30 23784 H 2159.03 -4.05708 -1.13926 0
M  V30 23785 H 2157.75 -2.88053 -1.53925 0
M  V30 23786 H 2156.41 -3.63774 0.454301 0
M  V30 23787 H 2156.06 -4.70444 -1.78021 0
M  V30 23788 H 2155.76 -5.85824 -0.456445 0
M  V30 23789 H 2157.28 -5.94693 -1.38465 0
M  V30 23790 H 2158.69 -5.66669 0.869436 0
M  V30 23791 H 2157.09 -5.76855 1.65404 0
M  V30 23792 H 2158.16 -4.40506 2.02688 0
M  V30 23793 N 2159.5 -0.52156 -1.4872 0
M  V30 23794 C 2160.75 0.0155956 -2.02494 0
M  V30 23795 C 2161.08 1.35077 -1.39944 0
M  V30 23796 O 2160.33 1.88342 -0.531596 0
M  V30 23797 C 2160.63 0.195406 -3.56865 0
M  V30 23798 C 2160.3 -1.06435 -4.38158 0
M  V30 23799 C 2158.96 -1.40962 -4.6009 0
M  V30 23800 C 2161.31 -1.90076 -4.85305 0
M  V30 23801 C 2158.64 -2.59043 -5.26416 0
M  V30 23802 C 2160.99 -3.07328 -5.5293 0
M  V30 23803 C 2159.66 -3.42211 -5.73104 0
M  V30 23804 H 2158.93 0.00570684 -0.740978 0
M  V30 23805 H 2161.57 -0.68588 -1.78796 0
M  V30 23806 H 2159.88 0.979581 -3.79357 0
M  V30 23807 H 2161.58 0.625805 -3.96087 0
M  V30 23808 H 2158.17 -0.785439 -4.21342 0
M  V30 23809 H 2162.35 -1.64713 -4.6817 0
M  V30 23810 H 2157.61 -2.86282 -5.40234 0
M  V30 23811 H 2161.78 -3.72451 -5.88433 0
M  V30 23812 H 2159.41 -4.33809 -6.24271 0
M  V30 23813 N 2160.98 1.55502 -0.256304 0
M  V30 23814 C 2162.4 1.59297 0.0983236 0
M  V30 23815 C 2162.6 1.27351 1.56154 0
M  V30 23816 O 2161.65 1.02533 2.30745 0
M  V30 23817 C 2162.97 2.9958 -0.259346 0
M  V30 23818 C 2164.52 3.12332 -0.204415 0
M  V30 23819 C 2164.99 4.5485 -0.536252 0
M  V30 23820 N 2166.48 4.60632 -0.487101 0
M  V30 23821 C 2167.22 5.68901 -0.716903 0
M  V30 23822 N 2166.71 6.85393 -1.01033 0
M  V30 23823 N 2168.51 5.58364 -0.646972 0
M  V30 23824 H 2160.66 1.74536 -1.21042 0
M  V30 23825 H 2162.92 0.812935 -0.487689 0
M  V30 23826 H 2162.63 3.27727 -1.27624 0
M  V30 23827 H 2162.5 3.74976 0.409004 0
M  V30 23828 H 2164.89 2.8396 0.803168 0
M  V30 23829 H 2164.97 2.3919 -0.906752 0
M  V30 23830 H 2164.61 4.83944 -1.54143 0
M  V30 23831 H 2164.54 5.26265 0.187668 0
M  V30 23832 H 2167.03 3.76938 -0.269421 0
M  V30 23833 H 2167.35 7.63848 -1.17285 0
M  V30 23834 H 2165.69 6.87055 -1.0479 0
M  V30 23835 H 2168.88 4.66233 -0.417713 0
M  V30 23836 H 2169.05 6.42669 -0.829457 0
M  V30 23837 N 2162.46 -0.0166879 1.57591 0
M  V30 23838 C 2163.71 -0.704094 1.89012 0
M  V30 23839 C 2164.02 -1.75854 0.856437 0
M  V30 23840 O 2165.23 -2.4994 1.06029 0
M  V30 23841 C 2163.68 -1.30343 3.35468 0
M  V30 23842 C 2163.29 -0.284687 4.47095 0
M  V30 23843 C 2165.04 -1.96999 3.76021 0
M  V30 23844 C 2162.94 -0.893068 5.84618 0
M  V30 23845 H 2161.87 -0.266736 0.705243 0
M  V30 23846 H 2164.52 0.0411208 1.83454 0
M  V30 23847 H 2162.91 -2.09876 3.3581 0
M  V30 23848 H 2164.08 0.484835 4.58242 0
M  V30 23849 H 2162.4 0.280487 4.15454 0
M  V30 23850 H 2164.99 -2.43392 4.76093 0
M  V30 23851 H 2165.34 -2.79347 3.0866 0
M  V30 23852 H 2165.87 -1.24224 3.77906 0
M  V30 23853 H 2162.61 -0.108736 6.5541 0
M  V30 23854 H 2162.13 -1.63214 5.77167 0
M  V30 23855 H 2163.81 -1.39672 6.31744 0
M  V30 23856 N 2163.94 -1.54924 -0.289176 0
M  V30 23857 C 2165.18 -1.75025 -1.0244 0
M  V30 23858 C 2165.52 -0.540906 -1.86515 0
M  V30 23859 O 2164.79 0.461833 -1.88937 0
M  V30 23860 C 2165.08 -3.04611 -1.92052 0
M  V30 23861 C 2164.93 -4.35869 -1.11079 0
M  V30 23862 C 2166.25 -3.30134 -2.91032 0
M  V30 23863 H 2163.37 -0.636806 -0.371008 0
M  V30 23864 H 2166.01 -1.87647 -0.298076 0
M  V30 23865 H 2164.16 -2.93981 -2.53983 0
M  V30 23866 H 2165.83 -4.58434 -0.513434 0
M  V30 23867 H 2164.07 -4.31822 -0.41379 0
M  V30 23868 H 2164.74 -5.22832 -1.7706 0
M  V30 23869 H 2167.22 -3.40451 -2.39233 0
M  V30 23870 H 2166.1 -4.221 -3.50889 0
M  V30 23871 H 2166.36 -2.48995 -3.65314 0
M  V30 23872 N 2165.42 0.552936 -1.47582 0
M  V30 23873 C 2166.83 0.879282 -1.33195 0
M  V30 23874 C 2167.03 1.98851 -0.32564 0
M  V30 23875 O 2166.09 2.51144 0.261323 0
M  V30 23876 C 2167.4 1.26848 -2.72635 0
M  V30 23877 C 2168.95 1.37967 -2.80952 0
M  V30 23878 C 2169.42 1.8024 -4.21043 0
M  V30 23879 N 2170.92 1.87383 -4.23606 0
M  V30 23880 C 2171.65 2.2143 -5.2892 0
M  V30 23881 N 2171.15 2.54061 -6.44535 0
M  V30 23882 N 2172.94 2.2224 -5.163 0
M  V30 23883 H 2165.09 -0.179315 -2.11642 0
M  V30 23884 H 2167.35 -0.0175595 -0.947837 0
M  V30 23885 H 2167.06 0.52723 -3.47726 0
M  V30 23886 H 2166.93 2.22371 -3.04682 0
M  V30 23887 H 2169.32 2.11172 -2.06132 0
M  V30 23888 H 2169.4 0.406213 -2.52554 0
M  V30 23889 H 2169.05 1.07603 -4.96371 0
M  V30 23890 H 2168.98 2.78596 -4.46869 0
M  V30 23891 H 2171.47 1.64536 -3.40201 0
M  V30 23892 H 2171.78 2.79079 -7.20649 0
M  V30 23893 H 2170.12 2.51631 -6.47848 0
M  V30 23894 H 2173.32 1.9619 -4.25002 0
M  V30 23895 H 2173.49 2.48444 -5.98481 0
M  V30 23896 N 2166.89 1.35785 0.800009 0
M  V30 23897 C 2167.82 1.31917 1.92666 0
M  V30 23898 C 2168.81 0.19244 1.69008 0
M  V30 23899 O 2169.99 0.388435 1.90276 0
M  V30 23900 C 2167.12 1.09703 3.29519 0
M  V30 23901 C 2166.07 2.19086 3.67675 0
M  V30 23902 C 2165.4 1.82029 5.02762 0
M  V30 23903 C 2166.7 3.611 3.77365 0
M  V30 23904 H 2168.39 2.26189 1.96161 0
M  V30 23905 H 2165.94 1.08882 0.94237 0
M  V30 23906 H 2167.89 1.05634 4.07945 0
M  V30 23907 H 2166.62 0.118779 3.26384 0
M  V30 23908 H 2165.28 2.22263 2.91539 0
M  V30 23909 H 2164.92 0.828056 4.96137 0
M  V30 23910 H 2164.62 2.55256 5.29262 0
M  V30 23911 H 2166.15 1.79497 5.83621 0
M  V30 23912 H 2167.56 3.60209 4.46007 0
M  V30 23913 H 2165.96 4.33143 4.1534 0
M  V30 23914 H 2167.03 3.96774 2.78744 0
M  V30 23915 N 2168.37 -1.02294 1.19891 0
M  V30 23916 C 2169.34 -2.08864 0.943854 0
M  V30 23917 C 2170.34 -1.6061 -0.0780656 0
M  V30 23918 O 2171.53 -1.73488 0.157319 0
M  V30 23919 C 2168.66 -3.38306 0.419714 0
M  V30 23920 H 2169.85 -2.32924 1.88909 0
M  V30 23921 H 2167.4 -1.18996 1.01339 0
M  V30 23922 H 2168.14 -3.19918 -0.531286 0
M  V30 23923 H 2167.92 -3.74653 1.15661 0
M  V30 23924 H 2169.41 -4.16786 0.26055 0
M  V30 23925 N 2169.85 -1.00378 -1.21499 0
M  V30 23926 C 2171.27 -0.71638 -1.42619 0
M  V30 23927 C 2171.47 0.70891 -1.88618 0
M  V30 23928 O 2170.52 1.47842 -2.04693 0
M  V30 23929 C 2171.84 -1.7312 -2.45866 0
M  V30 23930 C 2173.38 -1.74788 -2.5965 0
M  V30 23931 C 2173.86 -2.75162 -3.66128 0
M  V30 23932 N 2175.35 -2.73823 -3.73598 0
M  V30 23933 C 2176.08 -3.48149 -4.55609 0
M  V30 23934 N 2175.58 -4.32111 -5.41527 0
M  V30 23935 N 2177.37 -3.36805 -4.50021 0
M  V30 23936 H 2169.52 -1.92412 -0.899518 0
M  V30 23937 H 2171.79 -0.830441 -0.457244 0
M  V30 23938 H 2171.49 -2.75165 -2.19036 0
M  V30 23939 H 2171.37 -1.53287 -3.44649 0
M  V30 23940 H 2173.75 -0.734346 -2.85817 0
M  V30 23941 H 2173.84 -1.98693 -1.61105 0
M  V30 23942 H 2173.48 -3.76671 -3.40707 0
M  V30 23943 H 2173.41 -2.48523 -4.64267 0
M  V30 23944 H 2175.9 -2.12907 -3.12216 0
M  V30 23945 H 2176.21 -4.85624 -6.01156 0
M  V30 23946 H 2174.56 -4.36194 -5.41073 0
M  V30 23947 H 2177.75 -2.70643 -3.81929 0
M  V30 23948 H 2177.92 -3.94986 -5.13702 0
M  V30 23949 N 2171.33 1.37038 -0.778354 0
M  V30 23950 C 2172.58 1.98774 -0.342325 0
M  V30 23951 C 2172.89 1.62483 1.08898 0
M  V30 23952 O 2174.1 2.1737 1.62673 0
M  V30 23953 C 2172.55 3.55499 -0.561108 0
M  V30 23954 C 2172.16 4.00724 -2.00311 0
M  V30 23955 C 2173.9 4.24079 -0.189032 0
M  V30 23956 C 2171.81 5.50184 -2.16914 0
M  V30 23957 H 2170.74 0.743692 -0.124252 0
M  V30 23958 H 2173.39 1.56482 -0.95842 0
M  V30 23959 H 2171.77 3.95804 0.12454 0
M  V30 23960 H 2172.95 3.71647 -2.72425 0
M  V30 23961 H 2171.26 3.44947 -2.33239 0
M  V30 23962 H 2173.86 5.33905 -0.291509 0
M  V30 23963 H 2174.2 4.07288 0.861526 0
M  V30 23964 H 2174.74 3.89098 -0.827484 0
M  V30 23965 H 2171.48 5.71909 -3.20312 0
M  V30 23966 H 2171 5.80924 -1.49291 0
M  V30 23967 H 2172.67 6.16249 -1.97093 0
M  V30 23968 N 2172.81 0.529439 1.48441 0
M  V30 23969 C 2174.06 -0.00484705 2.02099 0
M  V30 23970 C 2174.38 -1.34819 1.40886 0
M  V30 23971 O 2173.65 -1.873 0.574052 0
M  V30 23972 H 2172.23 -0.00477953 0.746985 0
M  V30 23973 H 2174.89 0.693148 1.82158 0
M  V30 23974 H 2173.98 -0.113574 3.11893 0
M  V30 23975 N 2174.29 -1.55364 0.264547 0
M  V30 23976 C 2175.7 -1.59347 -0.0898743 0
M  V30 23977 C 2175.9 -1.28177 -1.55476 0
M  V30 23978 O 2174.96 -1.03755 -2.30198 0
M  V30 23979 C 2176.27 -2.99438 0.27523 0
M  V30 23980 C 2177.82 -3.12219 0.220976 0
M  V30 23981 C 2178.29 -4.54559 0.560366 0
M  V30 23982 N 2179.78 -4.60367 0.511522 0
M  V30 23983 C 2180.52 -5.68513 0.747063 0
M  V30 23984 N 2180.02 -6.84848 1.04666 0
M  V30 23985 N 2181.81 -5.58013 0.676574 0
M  V30 23986 H 2173.96 -1.73891 1.21966 0
M  V30 23987 H 2176.22 -0.810337 0.491994 0
M  V30 23988 H 2175.93 -3.27046 1.2936 0
M  V30 23989 H 2175.8 -3.75188 -0.389113 0
M  V30 23990 H 2178.19 -2.84382 -0.788097 0
M  V30 23991 H 2178.27 -2.38705 0.919424 0
M  V30 23992 H 2177.91 -4.8312 1.56708 0
M  V30 23993 H 2177.84 -5.26358 -0.159757 0
M  V30 23994 H 2180.34 -3.7679 0.289407 0
M  V30 23995 H 2180.65 -7.63216 1.21334 0
M  V30 23996 H 2178.99 -6.86489 1.08433 0
M  V30 23997 H 2182.18 -4.66004 0.442433 0
M  V30 23998 H 2182.36 -6.42221 0.863527 0
M  V30 23999 N 2175.76 0.00833021 -1.57598 0
M  V30 24000 C 2177.01 0.69406 -1.89382 0
M  V30 24001 C 2177.33 1.75397 -0.865751 0
M  V30 24002 O 2178.53 2.49374 -1.07353 0
M  V30 24003 C 2176.99 1.28562 -3.36154 0
M  V30 24004 C 2176.6 0.260972 -4.47239 0
M  V30 24005 C 2178.34 1.95003 -3.7706 0
M  V30 24006 C 2176.25 0.862051 -5.85083 0
M  V30 24007 H 2175.18 0.262992 -0.706648 0
M  V30 24008 H 2177.83 -0.0508492 -1.8343 0
M  V30 24009 H 2176.21 2.08092 -3.36918 0
M  V30 24010 H 2177.38 -0.50913 -4.57979 0
M  V30 24011 H 2175.7 -0.302516 -4.153 0
M  V30 24012 H 2178.3 2.40863 -4.77377 0
M  V30 24013 H 2178.64 2.77706 -3.10137 0
M  V30 24014 H 2179.17 1.22218 -3.7856 0
M  V30 24015 H 2175.91 0.0739761 -6.55458 0
M  V30 24016 H 2175.43 1.60151 -5.78024 0
M  V30 24017 H 2177.11 1.3632 -6.32476 0
M  V30 24018 N 2177.24 1.55075 0.280956 0
M  V30 24019 C 2178.17 1.90416 1.35145 0
M  V30 24020 C 2179.15 0.765149 1.51919 0
M  V30 24021 O 2180.34 1.02261 1.65095 0
M  V30 24022 C 2177.47 2.16909 2.71233 0
M  V30 24023 C 2176.42 3.32739 2.692 0
M  V30 24024 C 2175.75 3.44695 4.08766 0
M  V30 24025 C 2177.05 4.69338 2.2917 0
M  V30 24026 H 2178.74 2.80078 1.05815 0
M  V30 24027 H 2176.29 1.34758 0.507584 0
M  V30 24028 H 2178.24 2.40219 3.46226 0
M  V30 24029 H 2176.96 1.24039 3.02129 0
M  V30 24030 H 2175.62 3.09385 1.96664 0
M  V30 24031 H 2175.27 2.49305 4.36871 0
M  V30 24032 H 2174.97 4.22568 4.08301 0
M  V30 24033 H 2176.5 3.70288 4.85509 0
M  V30 24034 H 2177.91 4.92246 2.93883 0
M  V30 24035 H 2176.31 5.5007 2.39882 0
M  V30 24036 H 2177.38 4.68698 1.24297 0
M  V30 24037 N 2178.72 -0.545102 1.47873 0
M  V30 24038 C 2180.14 -0.872206 1.33659 0
M  V30 24039 C 2180.34 -1.98676 0.336181 0
M  V30 24040 O 2179.39 -2.51279 -0.248001 0
M  V30 24041 C 2180.7 -1.254 2.73304 0
M  V30 24042 C 2182.25 -1.36475 2.8168 0
M  V30 24043 C 2182.73 -1.78005 4.21993 0
M  V30 24044 N 2184.22 -1.85134 4.24593 0
M  V30 24045 C 2184.95 -2.18622 5.30087 0
M  V30 24046 N 2184.45 -2.50639 6.45873 0
M  V30 24047 N 2186.24 -2.19499 5.17471 0
M  V30 24048 H 2178.39 0.190536 2.11544 0
M  V30 24049 H 2180.66 0.0225858 0.947731 0
M  V30 24050 H 2180.36 -0.508782 3.48 0
M  V30 24051 H 2180.24 -2.20752 3.05857 0
M  V30 24052 H 2182.62 -2.10076 2.07249 0
M  V30 24053 H 2182.7 -0.392814 2.52766 0
M  V30 24054 H 2182.35 -1.04969 4.96935 0
M  V30 24055 H 2182.28 -2.76222 4.4834 0
M  V30 24056 H 2184.77 -1.62729 3.41068 0
M  V30 24057 H 2185.08 -2.75253 7.22119 0
M  V30 24058 H 2183.43 -2.48192 6.49173 0
M  V30 24059 H 2186.62 -1.93934 4.26037 0
M  V30 24060 H 2186.79 -2.45267 5.9979 0
M  V30 24061 N 2180.2 -1.36208 -0.792797 0
M  V30 24062 C 2181.13 -1.32936 -1.91964 0
M  V30 24063 C 2182.11 -0.2014 -1.68903 0
M  V30 24064 O 2183.29 -0.39852 -1.90067 0
M  V30 24065 C 2180.42 -1.11449 -3.28932 0
M  V30 24066 C 2179.38 -2.21033 -3.66508 0
M  V30 24067 C 2178.7 -1.84693 -5.01789 0
M  V30 24068 C 2180 -3.63096 -3.75444 0
M  V30 24069 H 2181.7 -2.27226 -1.94958 0
M  V30 24070 H 2179.24 -1.09381 -0.936582 0
M  V30 24071 H 2181.2 -1.07796 -4.07379 0
M  V30 24072 H 2179.92 -0.136086 -3.26316 0
M  V30 24073 H 2178.58 -2.23806 -2.90356 0
M  V30 24074 H 2178.23 -0.854356 -4.95691 0
M  V30 24075 H 2177.93 -2.58059 -5.27901 0
M  V30 24076 H 2179.45 -1.8259 -5.82661 0
M  V30 24077 H 2180.87 -3.62569 -4.44091 0
M  V30 24078 H 2179.26 -4.35339 -4.13037 0
M  V30 24079 H 2180.33 -3.98247 -2.76636 0
M  V30 24080 N 2181.68 1.01656 -1.20431 0
M  V30 24081 C 2182.92 1.75515 -1.016 0
M  V30 24082 C 2183.25 1.88896 0.450791 0
M  V30 24083 O 2182.53 1.4148 1.33468 0
M  V30 24084 C 2182.81 3.17433 -1.70024 0
M  V30 24085 C 2182.67 3.11847 -3.24147 0
M  V30 24086 C 2183.98 4.16105 -1.43334 0
M  V30 24087 H 2181.1 0.637102 -0.370501 0
M  V30 24088 H 2183.75 1.18591 -1.48446 0
M  V30 24089 H 2181.9 3.66035 -1.30195 0
M  V30 24090 H 2183.57 2.71049 -3.7327 0
M  V30 24091 H 2181.81 2.49242 -3.55051 0
M  V30 24092 H 2182.48 4.12169 -3.6718 0
M  V30 24093 H 2184.96 3.76159 -1.77887 0
M  V30 24094 H 2183.83 5.13571 -1.93741 0
M  V30 24095 H 2184.09 4.40624 -0.360952 0
M  V30 24096 N 2183.15 1.01021 1.20965 0
M  V30 24097 C 2184.57 0.723934 1.42237 0
M  V30 24098 C 2184.77 -0.698897 1.88991 0
M  V30 24099 O 2183.83 -1.46754 2.05474 0
M  V30 24100 C 2185.14 1.74422 2.44944 0
M  V30 24101 C 2186.69 1.76162 2.5872 0
M  V30 24102 C 2187.16 2.771 3.64664 0
M  V30 24103 N 2188.65 2.758 3.72141 0
M  V30 24104 C 2189.39 3.5056 4.53757 0
M  V30 24105 N 2188.88 4.34977 5.39228 0
M  V30 24106 N 2190.68 3.39187 4.48229 0
M  V30 24107 H 2182.83 1.92886 0.889301 0
M  V30 24108 H 2185.09 0.832854 0.452834 0
M  V30 24109 H 2184.8 2.76323 2.17574 0
M  V30 24110 H 2184.67 1.55112 3.43831 0
M  V30 24111 H 2187.06 0.749493 2.85424 0
M  V30 24112 H 2187.14 1.99544 1.60049 0
M  V30 24113 H 2186.78 3.78473 3.38705 0
M  V30 24114 H 2186.71 2.50982 4.62942 0
M  V30 24115 H 2189.2 2.1456 3.11083 0
M  V30 24116 H 2189.52 4.88805 5.98573 0
M  V30 24117 H 2187.86 4.39057 5.38752 0
M  V30 24118 H 2191.05 2.72665 3.80488 0
M  V30 24119 H 2191.23 3.97705 5.116 0
M  V30 24120 N 2184.63 -1.36623 0.78561 0
M  V30 24121 C 2185.59 -2.28433 0.187388 0
M  V30 24122 C 2186.59 -1.48655 -0.613055 0
M  V30 24123 O 2187.78 -1.68691 -0.434608 0
M  V30 24124 C 2184.92 -3.32746 -0.741121 0
M  V30 24125 H 2186.11 -2.82847 0.996872 0
M  V30 24126 H 2183.66 -1.46123 0.554769 0
M  V30 24127 H 2184.4 -2.83481 -1.57509 0
M  V30 24128 H 2184.18 -3.91735 -0.169144 0
M  V30 24129 H 2185.67 -4.01319 -1.15467 0
M  V30 24130 N 2186.11 -0.537304 -1.48158 0
M  V30 24131 C 2187.07 0.210784 -2.28229 0
M  V30 24132 C 2188.07 0.861078 -1.35802 0
M  V30 24133 O 2189.26 0.72 -1.58624 0
M  V30 24134 C 2186.39 1.30581 -3.14899 0
M  V30 24135 H 2187.59 -0.492311 -2.95832 0
M  V30 24136 H 2185.14 -0.293505 -1.53519 0
M  V30 24137 H 2185.88 2.04194 -2.51943 0
M  V30 24138 H 2185.66 0.844559 -3.82896 0
M  V30 24139 H 2187.15 1.8318 -3.7528 0
M  V30 24140 N 2187.59 1.55221 -0.272782 0
M  V30 24141 C 2189 1.59392 0.0814225 0
M  V30 24142 C 2189.2 1.29 1.54794 0
M  V30 24143 O 2188.26 1.04975 2.29644 0
M  V30 24144 C 2189.57 2.99288 -0.291106 0
M  V30 24145 C 2191.12 3.12097 -0.23753 0
M  V30 24146 C 2191.6 4.54255 -0.584464 0
M  V30 24147 N 2193.09 4.60089 -0.53593 0
M  V30 24148 C 2193.82 5.68108 -0.777202 0
M  V30 24149 N 2193.32 6.84283 -1.08297 0
M  V30 24150 N 2195.11 5.57647 -0.706157 0
M  V30 24151 H 2187.26 1.73242 -1.22886 0
M  V30 24152 H 2189.53 0.807717 -0.496284 0
M  V30 24153 H 2189.23 3.26355 -1.31093 0
M  V30 24154 H 2189.11 3.75389 0.36921 0
M  V30 24155 H 2191.49 2.84796 0.773005 0
M  V30 24156 H 2191.57 2.38214 -0.93207 0
M  V30 24157 H 2191.22 4.82282 -1.59267 0
M  V30 24158 H 2191.15 5.26435 0.13184 0
M  V30 24159 H 2193.64 3.76631 -0.309385 0
M  V30 24160 H 2193.95 7.62561 -1.2538 0
M  V30 24161 H 2192.3 6.85904 -1.12072 0
M  V30 24162 H 2195.49 4.65763 -0.46714 0
M  V30 24163 H 2195.66 6.41754 -0.897574 0
M  V30 24164 N 2189.07 2.77022e-05 1.576 0
M  V30 24165 C 2190.31 -0.683462 1.90193 0
M  V30 24166 C 2190.64 -1.74311 0.8741 0
M  V30 24167 O 2189.91 -1.957 -0.0884894 0
M  V30 24168 H 2188.49 -0.25543 0.701972 0
M  V30 24169 H 2191.15 0.0409602 1.94857 0
M  V30 24170 H 2190.24 -1.15469 2.89954 0
M  V30 24171 N 2190.54 -1.55222 -0.272728 0
M  V30 24172 C 2191.79 -1.75047 -1.00208 0
M  V30 24173 C 2192.11 -0.559079 -1.8744 0
M  V30 24174 O 2193.31 -0.639745 -2.63855 0
M  V30 24175 C 2191.77 -3.09808 -1.83159 0
M  V30 24176 C 2191.38 -4.36514 -1.00793 0
M  V30 24177 C 2193.12 -3.38981 -2.55523 0
M  V30 24178 C 2191.03 -5.62315 -1.83184 0
M  V30 24179 H 2189.96 -0.652482 -0.377866 0
M  V30 24180 H 2192.61 -1.81681 -0.257744 0
M  V30 24181 H 2190.99 -2.97212 -2.61689 0
M  V30 24182 H 2192.16 -4.60027 -0.266774 0
M  V30 24183 H 2190.48 -4.14486 -0.398824 0
M  V30 24184 H 2193.08 -4.30178 -3.17571 0
M  V30 24185 H 2193.42 -2.59126 -3.25821 0
M  V30 24186 H 2193.95 -3.52676 -1.84022 0
M  V30 24187 H 2190.69 -6.44918 -1.17306 0
M  V30 24188 H 2190.21 -5.42944 -2.54896 0
M  V30 24189 H 2191.89 -6.00624 -2.40542 0
M  V30 24190 N 2192.02 0.537252 -1.4816 0
M  V30 24191 C 2193.44 0.865105 -1.3412 0
M  V30 24192 C 2193.64 1.98495 -0.346713 0
M  V30 24193 O 2192.69 2.51407 0.234671 0
M  V30 24194 C 2194.01 1.23949 -2.73965 0
M  V30 24195 C 2195.56 1.34979 -2.824 0
M  V30 24196 C 2196.03 1.75764 -4.22931 0
M  V30 24197 N 2197.52 1.8288 -4.25569 0
M  V30 24198 C 2198.26 2.15808 -5.31239 0
M  V30 24199 N 2197.75 2.4721 -6.47193 0
M  V30 24200 N 2199.55 2.16752 -5.18628 0
M  V30 24201 H 2191.7 -0.201752 -2.1144 0
M  V30 24202 H 2193.96 -0.0276116 -0.947598 0
M  V30 24203 H 2193.67 0.49032 -3.48265 0
M  V30 24204 H 2193.54 2.19126 -3.07023 0
M  V30 24205 H 2195.93 2.08974 -2.0836 0
M  V30 24206 H 2196.01 0.379404 -2.52971 0
M  V30 24207 H 2195.65 1.02332 -4.97484 0
M  V30 24208 H 2195.58 2.7384 -4.49799 0
M  V30 24209 H 2198.07 1.60918 -3.41927 0
M  V30 24210 H 2198.39 2.7142 -7.23568 0
M  V30 24211 H 2196.73 2.44746 -6.5048 0
M  V30 24212 H 2199.92 1.91672 -4.27059 0
M  V30 24213 H 2200.09 2.42082 -6.01082 0
M  V30 24214 N 2193.5 1.36626 0.785562 0
M  V30 24215 C 2194.73 1.34233 1.57446 0
M  V30 24216 C 2195.14 -0.0755322 1.88649 0
M  V30 24217 O 2194.5 -1.03351 1.50416 0
M  V30 24218 C 2194.55 2.1675 2.89312 0
M  V30 24219 O 2194.27 3.5301 2.59452 0
M  V30 24220 C 2195.77 2.22181 3.83602 0
M  V30 24221 H 2192.99 0.460309 0.488218 0
M  V30 24222 H 2195.54 1.79777 0.974701 0
M  V30 24223 H 2193.69 1.74751 3.45747 0
M  V30 24224 H 2194.11 3.96111 3.43797 0
M  V30 24225 H 2195.58 2.84268 4.73176 0
M  V30 24226 H 2196.06 1.22634 4.21732 0
M  V30 24227 H 2196.66 2.64433 3.331 0
M  V30 24228 N 2194.98 -1.01016 1.20969 0
M  V30 24229 C 2195.91 -2.11553 0.988309 0
M  V30 24230 C 2196.89 -1.69888 -0.084948 0
M  V30 24231 O 2198.07 -1.9406 0.0738543 0
M  V30 24232 C 2195.2 -3.42972 0.546588 0
M  V30 24233 C 2194.16 -3.98408 1.56382 0
M  V30 24234 C 2193.48 -5.2567 0.978512 0
M  V30 24235 C 2194.78 -4.31061 2.9493 0
M  V30 24236 H 2196.48 -2.30331 1.9128 0
M  V30 24237 H 2194.02 -1.10688 0.921092 0
M  V30 24238 H 2195.98 -4.19693 0.378913 0
M  V30 24239 H 2194.7 -3.23971 -0.413541 0
M  V30 24240 H 2193.36 -3.23801 1.71897 0
M  V30 24241 H 2193.01 -5.02999 0.0102572 0
M  V30 24242 H 2192.71 -5.63725 1.65794 0
M  V30 24243 H 2194.23 -6.05041 0.822046 0
M  V30 24244 H 2195.65 -4.98645 2.82889 0
M  V30 24245 H 2194.04 -4.80246 3.59838 0
M  V30 24246 H 2195.11 -3.39555 3.46166 0
M  V30 24247 N 2196.46 -1.01661 -1.20428 0
M  V30 24248 C 2197.39 -0.607265 -2.25465 0
M  V30 24249 C 2198.37 0.377687 -1.65854 0
M  V30 24250 O 2199.55 0.263115 -1.92409 0
M  V30 24251 C 2196.68 0.0552339 -3.47256 0
M  V30 24252 C 2195.64 -0.850705 -4.1946 0
M  V30 24253 C 2194.96 -0.0539799 -5.34673 0
M  V30 24254 C 2196.26 -2.15876 -4.75599 0
M  V30 24255 H 2197.96 -1.48531 -2.5996 0
M  V30 24256 H 2195.5 -0.715627 -1.24959 0
M  V30 24257 H 2197.46 0.353159 -4.19918 0
M  V30 24258 H 2196.18 0.967991 -3.11925 0
M  V30 24259 H 2194.84 -1.13263 -3.48665 0
M  V30 24260 H 2194.49 0.860427 -4.95586 0
M  V30 24261 H 2194.19 -0.657295 -5.83912 0
M  V30 24262 H 2195.71 0.237491 -6.10138 0
M  V30 24263 H 2197.12 -1.9232 -5.40079 0
M  V30 24264 H 2195.52 -2.71293 -5.35276 0
M  V30 24265 H 2196.59 -2.82176 -3.94341 0
M  V30 24266 N 2197.93 1.36205 -0.792844 0
M  V30 24267 C 2199.18 1.9915 -0.366821 0
M  V30 24268 C 2199.51 1.62921 1.0624 0
M  V30 24269 O 2198.76 0.877473 1.74925 0
M  V30 24270 C 2199.06 3.54141 -0.481564 0
M  V30 24271 C 2198.73 4.10199 -1.87209 0
M  V30 24272 C 2197.39 4.25222 -2.25255 0
M  V30 24273 C 2199.74 4.40715 -2.78245 0
M  V30 24274 C 2197.07 4.68072 -3.53731 0
M  V30 24275 C 2199.42 4.84998 -4.06152 0
M  V30 24276 C 2198.09 4.98226 -4.44215 0
M  V30 24277 H 2197.36 0.728741 -0.134229 0
M  V30 24278 H 2200 1.6264 -1.01097 0
M  V30 24279 H 2198.31 3.91026 0.246077 0
M  V30 24280 H 2200.01 4.0078 -0.132915 0
M  V30 24281 H 2196.6 3.98949 -1.56646 0
M  V30 24282 H 2200.78 4.28674 -2.50104 0
M  V30 24283 H 2196.04 4.76501 -3.83088 0
M  V30 24284 H 2200.21 5.07573 -4.76805 0
M  V30 24285 H 2197.84 5.31187 -5.43823 0
M  V30 24286 N 2199.41 0.545154 1.47871 0
M  V30 24287 C 2200.38 -0.198677 2.28337 0
M  V30 24288 C 2201.38 -0.853864 1.36256 0
M  V30 24289 O 2202.57 -0.711578 1.59004 0
M  V30 24290 C 2199.7 -1.2891 3.15587 0
M  V30 24291 H 2200.89 0.507993 2.95566 0
M  V30 24292 H 2198.44 0.301643 1.53362 0
M  V30 24293 H 2199.18 -2.02855 2.53023 0
M  V30 24294 H 2198.96 -0.824241 3.83339 0
M  V30 24295 H 2200.45 -1.81187 3.76246 0
M  V30 24296 N 2200.89 -1.55074 0.28101 0
M  V30 24297 C 2201.82 -2.25728 -0.597429 0
M  V30 24298 C 2202.8 -1.24954 -1.15415 0
M  V30 24299 O 2203.99 -1.53686 -1.1872 0
M  V30 24300 C 2201.12 -2.98286 -1.77884 0
M  V30 24301 C 2200.07 -4.06038 -1.35339 0
M  V30 24302 C 2199.4 -4.66203 -2.61838 0
M  V30 24303 C 2200.7 -5.19908 -0.499263 0
M  V30 24304 H 2202.39 -2.99399 -0.00819002 0
M  V30 24305 H 2199.94 -1.44 -0.00249909 0
M  V30 24306 H 2201.89 -3.46426 -2.39931 0
M  V30 24307 H 2200.61 -2.22159 -2.39401 0
M  V30 24308 H 2199.27 -3.58718 -0.756093 0
M  V30 24309 H 2198.92 -3.86738 -3.21625 0
M  V30 24310 H 2198.62 -5.38962 -2.3408 0
M  V30 24311 H 2200.14 -5.17095 -3.24723 0
M  V30 24312 H 2201.56 -5.64065 -1.02488 0
M  V30 24313 H 2199.96 -5.99266 -0.316319 0
M  V30 24314 H 2201.03 -4.82513 0.480544 0
M  V30 24315 N 2202.37 -0.00838561 -1.57598 0
M  V30 24316 C 2203.3 1.01448 -2.0441 0
M  V30 24317 C 2204.28 1.32984 -0.935632 0
M  V30 24318 O 2205.46 1.45005 -1.2044 0
M  V30 24319 C 2202.59 2.33995 -2.44876 0
M  V30 24320 C 2201.64 2.18063 -3.66539 0
M  V30 24321 S 2202.47 1.49881 -5.14097 0
M  V30 24322 C 2203.63 2.8384 -5.5784 0
M  V30 24323 H 2203.86 0.61591 -2.9085 0
M  V30 24324 H 2201.39 0.202726 -1.53063 0
M  V30 24325 H 2203.35 3.10203 -2.68857 0
M  V30 24326 H 2202.01 2.70989 -1.5882 0
M  V30 24327 H 2201.2 3.16001 -3.92631 0
M  V30 24328 H 2200.81 1.49998 -3.42603 0
M  V30 24329 H 2203.1 3.80126 -5.60813 0
M  V30 24330 H 2204.04 2.62438 -6.57672 0
M  V30 24331 H 2204.45 2.88135 -4.85426 0
M  V30 24332 N 2203.85 1.55365 0.264492 0
M  V30 24333 C 2204.78 1.83768 1.35294 0
M  V30 24334 C 2205.76 0.691361 1.4717 0
M  V30 24335 O 2206.94 0.935267 1.63661 0
M  V30 24336 C 2204.07 2.00684 2.72844 0
M  V30 24337 C 2203.12 3.23268 2.78208 0
M  V30 24338 S 2203.95 4.804 2.36593 0
M  V30 24339 C 2205.1 5.00298 3.76101 0
M  V30 24340 H 2205.34 2.75802 1.10998 0
M  V30 24341 H 2202.87 1.47245 0.46457 0
M  V30 24342 H 2204.83 2.11114 3.52053 0
M  V30 24343 H 2203.49 1.09524 2.94386 0
M  V30 24344 H 2202.68 3.32017 3.79185 0
M  V30 24345 H 2202.28 3.11473 2.07028 0
M  V30 24346 H 2204.58 4.86562 4.71448 0
M  V30 24347 H 2205.52 6.02328 3.72299 0
M  V30 24348 H 2205.93 4.28234 3.67799 0
M  V30 24349 N 2205.33 -0.529387 1.48443 0
M  V30 24350 C 2206.55 -1.31468 1.60409 0
M  V30 24351 C 2206.98 -1.86227 0.264771 0
M  V30 24352 O 2206.33 -1.64433 -0.763639 0
M  V30 24353 C 2206.38 -2.44096 2.65423 0
M  V30 24354 O 2205.49 -3.47149 2.22624 0
M  V30 24355 H 2204.83 -0.389348 0.53787 0
M  V30 24356 H 2207.36 -0.636931 1.94433 0
M  V30 24357 H 2207.37 -2.90274 2.86715 0
M  V30 24358 H 2206.04 -2.03601 3.62656 0
M  V30 24359 H 2204.62 -3.07086 2.11548 0
M  V30 24360 N 2206.8 -1.37041 -0.778305 0
M  V30 24361 C 2207.73 -1.34965 -1.90543 0
M  V30 24362 C 2208.71 -0.219304 -1.6868 0
M  V30 24363 O 2209.9 -0.418657 -1.89634 0
M  V30 24364 C 2207.03 -1.14931 -3.27732 0
M  V30 24365 C 2205.98 -2.24908 -3.64143 0
M  V30 24366 C 2205.31 -1.90004 -4.99802 0
M  V30 24367 C 2206.61 -3.67058 -3.71572 0
M  V30 24368 H 2208.3 -2.29281 -1.92537 0
M  V30 24369 H 2205.85 -1.10368 -0.924928 0
M  V30 24370 H 2207.8 -1.12111 -4.06213 0
M  V30 24371 H 2206.53 -0.170689 -3.26154 0
M  V30 24372 H 2205.19 -2.26873 -2.87966 0
M  V30 24373 H 2204.83 -0.906883 -4.94757 0
M  V30 24374 H 2204.53 -2.63644 -5.25134 0
M  V30 24375 H 2206.06 -1.88759 -5.80691 0
M  V30 24376 H 2207.47 -3.67259 -4.4022 0
M  V30 24377 H 2205.87 -4.39695 -4.08397 0
M  V30 24378 H 2206.94 -4.01158 -2.72397 0
M  V30 24379 N 2208.28 1.00373 -1.21503 0
M  V30 24380 C 2209.69 1.55619 -1.03149 0
M  V30 24381 C 2210.04 1.91904 0.408341 0
M  V30 24382 O 2209.17 1.73618 1.29174 0
M  V30 24383 C 2209.76 2.82771 -1.86617 0
M  V30 24384 C 2208.32 3.34498 -1.72591 0
M  V30 24385 C 2207.47 2.0768 -1.83751 0
M  V30 24386 H 2210.42 0.826057 -1.35506 0
M  V30 24387 H 2210.44 3.54703 -1.37716 0
M  V30 24388 H 2209.95 2.56331 -2.91403 0
M  V30 24389 H 2208.05 3.65871 -0.704941 0
M  V30 24390 H 2208.17 4.05833 -2.5463 0
M  V30 24391 H 2206.53 2.20736 -1.27073 0
M  V30 24392 H 2207.31 1.8365 -2.90048 0
M  V30 24393 N 2209.76 1.02298 1.19887 0
M  V30 24394 C 2210.98 0.735271 1.93929 0
M  V30 24395 C 2211.41 -0.698751 1.7464 0
M  V30 24396 O 2210.77 -1.48165 1.04483 0
M  V30 24397 C 2210.82 1.08423 3.43914 0
M  V30 24398 O 2209.92 0.199519 4.11917 0
M  V30 24399 H 2209.26 0.272207 0.60564 0
M  V30 24400 H 2211.79 1.36807 1.52135 0
M  V30 24401 H 2211.8 1.03863 3.94559 0
M  V30 24402 H 2210.48 2.12901 3.57276 0
M  V30 24403 H 2209.05 0.303201 3.71665 0
M  V30 24404 N 2211.24 -1.35782 0.800057 0
M  V30 24405 C 2212.17 -2.32459 0.220225 0
M  V30 24406 C 2213.15 -1.57162 -0.650702 0
M  V30 24407 O 2214.33 -1.85264 -0.582326 0
M  V30 24408 C 2211.46 -3.41403 -0.637293 0
M  V30 24409 C 2210.42 -4.27788 0.134606 0
M  V30 24410 C 2209.74 -5.27994 -0.844192 0
M  V30 24411 C 2211.04 -5.05086 1.32988 0
M  V30 24412 H 2212.74 -2.81201 1.02792 0
M  V30 24413 H 2210.28 -1.35198 0.495741 0
M  V30 24414 H 2212.24 -4.08033 -1.05295 0
M  V30 24415 H 2210.96 -2.91253 -1.4778 0
M  V30 24416 H 2209.62 -3.62729 0.53136 0
M  V30 24417 H 2209.27 -4.74114 -1.68002 0
M  V30 24418 H 2208.97 -5.86661 -0.332081 0
M  V30 24419 H 2210.49 -5.97496 -1.25819 0
M  V30 24420 H 2211.91 -5.64697 0.989439 0
M  V30 24421 H 2210.3 -5.73217 1.77603 0
M  V30 24422 H 2211.37 -4.36108 2.11986 0
M  V30 24423 N 2212.72 -0.552988 -1.4758 0
M  V30 24424 C 2213.96 -0.0273599 -2.02482 0
M  V30 24425 C 2214.29 1.32078 -1.42778 0
M  V30 24426 O 2213.55 1.87172 -0.571426 0
M  V30 24427 C 2213.84 0.119666 -3.572 0
M  V30 24428 C 2213.51 -1.15705 -4.35802 0
M  V30 24429 C 2212.17 -1.50689 -4.56997 0
M  V30 24430 C 2214.52 -2.00327 -4.81164 0
M  V30 24431 C 2211.85 -2.70151 -5.20803 0
M  V30 24432 C 2214.2 -3.18988 -5.46287 0
M  V30 24433 C 2212.87 -3.5429 -5.65716 0
M  V30 24434 H 2212.14 -0.0100117 -0.740932 0
M  V30 24435 H 2214.79 -0.723651 -1.77301 0
M  V30 24436 H 2213.09 0.898893 -3.81349 0
M  V30 24437 H 2214.79 0.541648 -3.97325 0
M  V30 24438 H 2211.38 -0.874635 -4.19581 0
M  V30 24439 H 2215.56 -1.74607 -4.64571 0
M  V30 24440 H 2210.82 -2.97677 -5.3404 0
M  V30 24441 H 2214.99 -3.84849 -5.804 0
M  V30 24442 H 2212.62 -4.46953 -6.14929 0
M  V30 24443 N 2214.19 1.54923 -0.28923 0
M  V30 24444 C 2215.14 2.24515 0.607926 0
M  V30 24445 C 2216.14 1.24704 1.14653 0
M  V30 24446 O 2217.34 1.42591 1.09853 0
M  V30 24447 H 2213.72 0.720721 0.214627 0
M  V30 24448 H 2215.69 2.984 -0.00169428 0
M  V30 24449 C 2214.44 2.99039 1.77401 0
M  V30 24450 H 2213.76 3.75639 1.36877 0
M  V30 24451 H 2215.2 3.51032 2.37807 0
M  V30 24452 C 2213.66 2.05323 2.67103 0
M  V30 24453 O 2214.19 1.6136 3.67867 0
M  V30 24454 N 2212.39 1.71526 2.34579 0
M  V30 24455 H 2211.94 2.07473 1.52685 0
M  V30 24456 H 2211.9 1.09095 2.94865 0
M  V30 24457 N 2215.67 0.0167433 1.57591 0
M  V30 24458 C 2216.92 -0.663843 1.90463 0
M  V30 24459 C 2217.23 -1.73997 0.893546 0
M  V30 24460 O 2218.44 -2.47635 1.11307 0
M  V30 24461 C 2216.9 -1.23198 3.38157 0
M  V30 24462 C 2216.5 -0.189787 4.47598 0
M  V30 24463 C 2218.25 -1.88979 3.80115 0
M  V30 24464 C 2216.15 -0.768861 5.86381 0
M  V30 24465 H 2215.08 -0.251716 0.710742 0
M  V30 24466 H 2217.74 0.0800249 1.83325 0
M  V30 24467 H 2216.12 -2.02706 3.40186 0
M  V30 24468 H 2217.29 0.581926 4.57111 0
M  V30 24469 H 2215.61 0.368548 4.14766 0
M  V30 24470 H 2218.2 -2.33238 4.81149 0
M  V30 24471 H 2218.55 -2.72737 3.14516 0
M  V30 24472 H 2219.08 -1.1618 3.80456 0
M  V30 24473 H 2215.82 0.030311 6.55493 0
M  V30 24474 H 2215.34 -1.50935 5.80499 0
M  V30 24475 H 2217.02 -1.2624 6.34565 0
M  V30 24476 N 2217.15 -1.55503 -0.256249 0
M  V30 24477 C 2218.4 -1.76547 -0.983641 0
M  V30 24478 C 2218.72 -0.579015 -1.86205 0
M  V30 24479 O 2217.99 0.405543 -1.91656 0
M  V30 24480 H 2216.57 -0.651093 -0.36618 0
M  V30 24481 H 2219.23 -1.92929 -0.276445 0
M  V30 24482 H 2218.33 -2.67318 -1.61082 0
M  V30 24483 N 2218.63 0.521507 -1.48721 0
M  V30 24484 C 2219.56 1.63428 -1.66774 0
M  V30 24485 C 2220.54 1.62068 -0.516528 0
M  V30 24486 O 2221.72 1.79131 -0.750045 0
M  V30 24487 C 2218.85 3.0199 -1.71521 0
M  V30 24488 C 2217.81 3.18211 -2.86227 0
M  V30 24489 C 2217.13 4.57919 -2.76069 0
M  V30 24490 C 2218.43 3.00177 -4.27424 0
M  V30 24491 H 2220.13 1.48574 -2.59935 0
M  V30 24492 H 2217.67 0.713336 -1.2509 0
M  V30 24493 H 2219.63 3.79717 -1.82738 0
M  V30 24494 H 2218.35 3.17885 -0.749449 0
M  V30 24495 H 2217.01 2.42903 -2.74579 0
M  V30 24496 H 2216.66 4.70662 -1.77445 0
M  V30 24497 H 2216.36 4.69716 -3.53045 0
M  V30 24498 H 2217.88 5.37734 -2.89266 0
M  V30 24499 H 2219.3 3.67689 -4.39861 0
M  V30 24500 H 2217.69 3.23461 -5.05463 0
M  V30 24501 H 2218.76 1.96511 -4.43296 0
M  V30 24502 N 2220.11 1.37452 0.771027 0
M  V30 24503 C 2221.04 1.35974 1.89825 0
M  V30 24504 C 2222.02 0.228246 1.68562 0
M  V30 24505 O 2223.2 0.428708 1.89409 0
M  V30 24506 C 2220.33 1.16668 3.27118 0
M  V30 24507 C 2219.29 2.26836 3.62946 0
M  V30 24508 C 2218.61 1.92652 4.98788 0
M  V30 24509 C 2219.91 3.69023 3.6962 0
M  V30 24510 H 2221.61 2.30299 1.91319 0
M  V30 24511 H 2219.15 1.10857 0.919062 0
M  V30 24512 H 2221.11 1.14263 4.05613 0
M  V30 24513 H 2219.83 0.187983 3.26059 0
M  V30 24514 H 2218.49 2.28397 2.86759 0
M  V30 24515 H 2218.14 0.933108 4.94269 0
M  V30 24516 H 2217.84 2.66425 5.23729 0
M  V30 24517 H 2219.36 1.91836 5.79682 0
M  V30 24518 H 2220.77 3.69588 4.38266 0
M  V30 24519 H 2219.17 4.41855 4.06059 0
M  V30 24520 H 2220.24 4.02597 2.70266 0
M  V30 24521 N 2221.58 -0.997276 1.22033 0
M  V30 24522 C 2222.51 -2.10493 1.01069 0
M  V30 24523 C 2223.5 -1.69968 -0.0669243 0
M  V30 24524 O 2224.68 -1.9397 0.0944328 0
M  V30 24525 C 2221.81 -3.42373 0.582934 0
M  V30 24526 C 2220.76 -3.96727 1.60599 0
M  V30 24527 C 2220.09 -5.24603 1.03421 0
M  V30 24528 C 2221.39 -4.27909 2.99485 0
M  V30 24529 H 2223.08 -2.28289 1.93712 0
M  V30 24530 H 2220.63 -1.09705 0.93278 0
M  V30 24531 H 2222.58 -4.19268 0.423406 0
M  V30 24532 H 2221.31 -3.24392 -0.379156 0
M  V30 24533 H 2219.97 -3.21959 1.75322 0
M  V30 24534 H 2219.61 -5.0296 0.0636064 0
M  V30 24535 H 2219.31 -5.61935 1.71764 0
M  V30 24536 H 2220.84 -6.04135 0.886172 0
M  V30 24537 H 2222.25 -4.95617 2.88161 0
M  V30 24538 H 2220.65 -4.76403 3.64912 0
M  V30 24539 H 2221.72 -3.35864 3.49748 0
M  V30 24540 N 2223.06 -1.02932 -1.19343 0
M  V30 24541 C 2224.31 -0.726041 -1.89037 0
M  V30 24542 C 2224.64 0.745395 -1.7965 0
M  V30 24543 O 2223.89 1.55853 -1.18357 0
M  V30 24544 C 2224.19 -1.12325 -3.3929 0
M  V30 24545 C 2223.86 -2.59304 -3.6888 0
M  V30 24546 C 2222.52 -2.9946 -3.76666 0
M  V30 24547 C 2224.87 -3.54393 -3.82172 0
M  V30 24548 C 2222.2 -4.33618 -3.95212 0
M  V30 24549 C 2224.55 -4.88255 -4.02231 0
M  V30 24550 C 2223.22 -5.28099 -4.0825 0
M  V30 24551 H 2222.49 -0.265677 -0.691735 0
M  V30 24552 H 2225.13 -1.29225 -1.41326 0
M  V30 24553 H 2223.44 -0.475653 -3.88902 0
M  V30 24554 H 2225.13 -0.866106 -3.91535 0
M  V30 24555 H 2221.72 -2.27195 -3.63429 0
M  V30 24556 H 2225.91 -3.24521 -3.75499 0
M  V30 24557 H 2221.16 -4.64023 -3.98111 0
M  V30 24558 H 2225.34 -5.6185 -4.11458 0
M  V30 24559 H 2222.97 -6.32064 -4.22373 0
M  V30 24560 N 2224.54 1.35356 -0.807246 0
M  V30 24561 C 2225.47 2.32339 -0.23255 0
M  V30 24562 C 2226.45 1.57505 0.642358 0
M  V30 24563 O 2227.64 1.8557 0.572493 0
M  V30 24564 C 2224.77 3.41736 0.619178 0
M  V30 24565 C 2223.72 4.27711 -0.157291 0
M  V30 24566 C 2223.05 5.28434 0.81618 0
M  V30 24567 C 2224.35 5.04373 -1.35665 0
M  V30 24568 H 2226.04 2.80652 -1.04281 0
M  V30 24569 H 2223.59 1.34933 -0.502904 0
M  V30 24570 H 2225.54 4.08586 1.03129 0
M  V30 24571 H 2224.26 2.92033 1.46233 0
M  V30 24572 H 2222.92 3.62442 -0.550589 0
M  V30 24573 H 2222.57 4.74998 1.65486 0
M  V30 24574 H 2222.27 5.86829 0.300964 0
M  V30 24575 H 2223.79 5.98155 1.22649 0
M  V30 24576 H 2225.21 5.64165 -1.01937 0
M  V30 24577 H 2223.61 5.72267 -1.8064 0
M  V30 24578 H 2224.68 4.34977 -2.14296 0
M  V30 24579 N 2226.02 0.560807 1.47284 0
M  V30 24580 C 2227.27 0.0359304 2.01668 0
M  V30 24581 C 2227.58 -1.3235 1.44024 0
M  V30 24582 O 2228.79 -1.93849 1.90091 0
M  V30 24583 C 2227.24 0.0137292 3.59897 0
M  V30 24584 C 2226.85 1.37014 4.26534 0
M  V30 24585 C 2228.59 -0.458351 4.22018 0
M  V30 24586 C 2226.5 1.30685 5.7678 0
M  V30 24587 H 2225.43 0.00966204 0.753938 0
M  V30 24588 H 2228.08 0.709195 1.69241 0
M  V30 24589 H 2226.46 -0.725257 3.89302 0
M  V30 24590 H 2227.64 2.12712 4.08767 0
M  V30 24591 H 2225.95 1.78045 3.76416 0
M  V30 24592 H 2228.55 -0.524154 5.32125 0
M  V30 24593 H 2228.89 -1.47113 3.8944 0
M  V30 24594 H 2229.43 0.225887 3.97158 0
M  V30 24595 H 2226.17 2.29575 6.13984 0
M  V30 24596 H 2225.69 0.591727 5.96874 0
M  V30 24597 H 2227.36 1.01044 6.39061 0
M  V30 24598 N 2227.5 -1.54768 0.297442 0
M  V30 24599 C 2228.43 -2.19555 -0.622149 0
M  V30 24600 C 2229.41 -1.16378 -1.13556 0
M  V30 24601 O 2230.59 -1.45004 -1.20442 0
M  V30 24602 C 2227.72 -2.83657 -1.85085 0
M  V30 24603 C 2226.76 -4.0033 -1.47099 0
M  V30 24604 S 2227.6 -5.32871 -0.529967 0
M  V30 24605 C 2228.75 -6.00453 -1.76654 0
M  V30 24606 H 2228.99 -2.97213 -0.0717284 0
M  V30 24607 H 2226.52 -1.54184 0.0815949 0
M  V30 24608 H 2228.48 -3.21215 -2.55599 0
M  V30 24609 H 2227.14 -2.05851 -2.37243 0
M  V30 24610 H 2226.33 -4.43951 -2.38586 0
M  V30 24611 H 2225.93 -3.6431 -0.845821 0
M  V30 24612 H 2228.23 -6.21044 -2.70759 0
M  V30 24613 H 2229.17 -6.94662 -1.37296 0
M  V30 24614 H 2229.58 -5.30057 -1.94164 0
M  V30 24615 N 2228.97 -0.0251005 -1.5758 0
M  V30 24616 C 2230.22 0.65441 -1.91634 0
M  V30 24617 C 2230.55 1.72365 -0.901133 0
M  V30 24618 O 2229.8 1.9549 0.0905304 0
M  V30 24619 C 2230.1 1.31262 -3.32423 0
M  V30 24620 C 2229.77 0.374144 -4.49345 0
M  V30 24621 C 2228.43 0.115826 -4.81061 0
M  V30 24622 C 2230.78 -0.270524 -5.20497 0
M  V30 24623 C 2228.11 -0.795032 -5.81288 0
M  V30 24624 C 2230.46 -1.16941 -6.21697 0
M  V30 24625 C 2229.13 -1.43666 -6.51856 0
M  V30 24626 H 2228.4 0.239466 -0.70124 0
M  V30 24627 H 2231.04 -0.086007 -1.91307 0
M  V30 24628 H 2229.35 2.12769 -3.28993 0
M  V30 24629 H 2231.05 1.84488 -3.56041 0
M  V30 24630 H 2227.64 0.585655 -4.2458 0
M  V30 24631 H 2231.82 -0.0840066 -4.96229 0
M  V30 24632 H 2227.08 -1.00983 -6.03003 0
M  V30 24633 H 2231.25 -1.67516 -6.75952 0
M  V30 24634 H 2228.88 -2.14412 -7.29336 0
M  V30 24635 N 2230.45 1.55637 0.247999 0
M  V30 24636 C 2231.7 1.76619 0.974103 0
M  V30 24637 C 2232.01 0.588829 1.86527 0
M  V30 24638 O 2233.22 0.681641 2.62804 0
M  V30 24639 C 2231.68 3.12682 1.78207 0
M  V30 24640 C 2231.28 4.38063 0.938353 0
M  V30 24641 C 2233.03 3.43004 2.50098 0
M  V30 24642 C 2230.94 5.65158 1.74215 0
M  V30 24643 H 2229.87 0.658411 0.367438 0
M  V30 24644 H 2232.52 1.82068 0.228808 0
M  V30 24645 H 2230.9 3.01337 2.56928 0
M  V30 24646 H 2232.07 4.60393 0.193554 0
M  V30 24647 H 2230.39 4.15068 0.332832 0
M  V30 24648 H 2232.98 4.35176 3.10687 0
M  V30 24649 H 2233.33 2.64277 3.21657 0
M  V30 24650 H 2233.86 3.55559 1.78388 0
M  V30 24651 H 2230.6 6.46703 1.07031 0
M  V30 24652 H 2230.12 5.46931 2.46226 0
M  V30 24653 H 2231.8 6.04374 2.30956 0
M  V30 24654 N 2231.93 -0.513613 1.48996 0
M  V30 24655 C 2233.16 -1.29097 1.61299 0
M  V30 24656 C 2233.57 -1.87136 0.278689 0
M  V30 24657 O 2232.91 -1.67946 -0.744295 0
M  V30 24658 C 2232.97 -2.46874 2.6133 0
M  V30 24659 C 2232.64 -2.098 4.05996 0
M  V30 24660 C 2233.64 -1.6451 4.93186 0
M  V30 24661 C 2231.32 -2.19821 4.51646 0
M  V30 24662 C 2233.31 -1.29729 6.24059 0
M  V30 24663 C 2231 -1.84651 5.82535 0
M  V30 24664 C 2232 -1.39678 6.68565 0
M  V30 24665 O 2231.69 -1.04978 7.97016 0
M  V30 24666 H 2231.42 -0.39824 0.546243 0
M  V30 24667 H 2233.97 -0.624556 1.95674 0
M  V30 24668 H 2232.2 -3.16551 2.2211 0
M  V30 24669 H 2233.89 -3.08918 2.63295 0
M  V30 24670 H 2234.66 -1.56225 4.5915 0
M  V30 24671 H 2230.54 -2.53779 3.8486 0
M  V30 24672 H 2234.08 -0.945537 6.91162 0
M  V30 24673 H 2229.98 -1.92583 6.16102 0
M  V30 24674 H 2230.75 -1.18235 8.09915 0
M  V30 24675 N 2233.41 -1.37859 -0.763727 0
M  V30 24676 C 2234.37 -1.34084 -1.85887 0
M  V30 24677 C 2235.37 -0.243305 -1.58949 0
M  V30 24678 O 2236.56 -0.499619 -1.66882 0
M  V30 24679 C 2233.69 -1.08495 -3.23174 0
M  V30 24680 H 2234.89 -2.31506 -1.90644 0
M  V30 24681 H 2232.44 -1.23004 -0.964345 0
M  V30 24682 H 2233.18 -0.116375 -3.24091 0
M  V30 24683 H 2232.96 -1.87946 -3.4412 0
M  V30 24684 H 2234.45 -1.08524 -4.03252 0
M  V30 24685 N 2234.89 0.990791 -1.22561 0
M  V30 24686 C 2236.14 1.72485 -1.04556 0
M  V30 24687 C 2236.45 1.91053 0.419316 0
M  V30 24688 O 2237.66 2.61804 0.719075 0
M  V30 24689 C 2236.11 3.10351 -1.82236 0
M  V30 24690 C 2235.72 2.99707 -3.32986 0
M  V30 24691 C 2237.46 3.87788 -1.72687 0
M  V30 24692 C 2235.37 4.32741 -4.03099 0
M  V30 24693 H 2234.3 0.646732 -0.387626 0
M  V30 24694 H 2236.95 1.10591 -1.46431 0
M  V30 24695 H 2235.33 3.7294 -1.33161 0
M  V30 24696 H 2236.51 2.46271 -3.89471 0
M  V30 24697 H 2234.82 2.35752 -3.43235 0
M  V30 24698 H 2237.42 4.86258 -2.2239 0
M  V30 24699 H 2237.76 4.10581 -0.687679 0
M  V30 24700 H 2238.3 3.31881 -2.19316 0
M  V30 24701 H 2235.03 4.15147 -5.0728 0
M  V30 24702 H 2234.55 4.86082 -3.51403 0
M  V30 24703 H 2236.23 5.01479 -4.08813 0
M  V30 24704 N 2236.37 1.03564 1.18795 0
M  V30 24705 C 2237.3 0.643058 2.24471 0
M  V30 24706 C 2238.28 -0.351253 1.66434 0
M  V30 24707 O 2239.46 -0.232471 1.92804 0
M  V30 24708 C 2236.59 1.85533e-05 3.473 0
M  V30 24709 C 2235.55 0.91733 4.18054 0
M  V30 24710 C 2234.87 0.139035 5.34519 0
M  V30 24711 C 2236.17 2.23415 4.72105 0
M  V30 24712 H 2237.87 1.52648 2.57564 0
M  V30 24713 H 2235.41 0.735416 1.23805 0
M  V30 24714 H 2237.36 -0.286309 4.20426 0
M  V30 24715 H 2236.09 -0.918243 3.13426 0
M  V30 24716 H 2234.75 1.18796 3.46818 0
M  V30 24717 H 2234.4 -0.781475 4.96892 0
M  V30 24718 H 2234.1 0.750107 5.82793 0
M  V30 24719 H 2235.62 -0.140393 6.10439 0
M  V30 24720 H 2237.03 2.00888 5.36951 0
M  V30 24721 H 2235.43 2.79774 5.30892 0
M  V30 24722 H 2236.5 2.88414 3.89802 0
M  V30 24723 N 2237.84 -1.34926 0.814413 0
M  V30 24724 C 2239.09 -1.98149 0.397671 0
M  V30 24725 C 2239.41 -1.6491 -1.04066 0
M  V30 24726 O 2238.68 -0.93551 -1.72119 0
M  V30 24727 H 2237.26 -0.732978 0.144056 0
M  V30 24728 H 2239.92 -1.64708 1.04198 0
M  V30 24729 H 2239.02 -3.07909 0.509743 0
M  V30 24730 N 2239.32 -0.56861 -1.46985 0
M  V30 24731 C 2240.25 0.220739 -2.2713 0
M  V30 24732 C 2241.23 0.909881 -1.34759 0
M  V30 24733 O 2242.42 0.926594 -1.64154 0
M  V30 24734 C 2239.54 1.31547 -3.12111 0
M  V30 24735 C 2238.59 0.733674 -4.20142 0
M  V30 24736 S 2239.42 -0.428573 -5.33782 0
M  V30 24737 C 2240.58 0.667701 -6.22328 0
M  V30 24738 H 2240.81 -0.459319 -2.9373 0
M  V30 24739 H 2238.34 -0.355181 -1.50259 0
M  V30 24740 H 2240.3 1.94235 -3.61639 0
M  V30 24741 H 2238.96 1.96741 -2.4485 0
M  V30 24742 H 2238.16 1.55612 -4.79376 0
M  V30 24743 H 2237.76 0.182746 -3.73553 0
M  V30 24744 H 2240.05 1.55696 -6.59367 0
M  V30 24745 H 2240.99 0.112456 -7.08011 0
M  V30 24746 H 2241.4 0.965503 -5.56182 0
M  V30 24747 N 2240.8 1.54608 -0.305646 0
M  V30 24748 C 2241.75 2.25147 0.584079 0
M  V30 24749 C 2242.74 1.25913 1.13324 0
M  V30 24750 O 2243.95 1.43749 1.08334 0
M  V30 24751 H 2240.32 0.722957 0.206971 0
M  V30 24752 H 2242.29 2.98381 -0.0333435 0
M  V30 24753 C 2241.04 3.00904 1.74219 0
M  V30 24754 H 2240.37 3.7707 1.32885 0
M  V30 24755 H 2241.81 3.53535 2.34071 0
M  V30 24756 C 2240.26 2.08144 2.6491 0
M  V30 24757 O 2240.79 1.65252 3.66135 0
M  V30 24758 N 2239 1.74004 2.32747 0
M  V30 24759 H 2238.55 2.09081 1.50476 0
M  V30 24760 H 2238.51 1.12216 2.93692 0
M  V30 24761 N 2242.28 0.033457 1.57564 0
M  V30 24762 C 2243.52 -0.639383 1.93089 0
M  V30 24763 C 2243.88 -1.69486 0.910619 0
M  V30 24764 O 2243.17 -1.91462 -0.0727388 0
M  V30 24765 C 2243.37 -1.29498 3.33114 0
M  V30 24766 C 2243.19 -0.304526 4.48668 0
M  V30 24767 C 2241.96 0.0971665 5.05207 0
M  V30 24768 C 2244.16 0.442935 5.12389 0
M  V30 24769 N 2242.14 1.08233 6.04284 0
M  V30 24770 C 2243.52 1.28172 6.06607 0
M  V30 24771 C 2245.57 0.503167 4.95351 0
M  V30 24772 C 2244.27 2.17531 6.85619 0
M  V30 24773 C 2246.3 1.38411 5.74975 0
M  V30 24774 C 2245.66 2.21066 6.68812 0
M  V30 24775 H 2241.76 -0.206148 0.754339 0
M  V30 24776 H 2244.34 0.101647 1.94434 0
M  V30 24777 H 2242.52 -2.00612 3.3258 0
M  V30 24778 H 2244.25 -1.92519 3.55975 0
M  V30 24779 H 2241 -0.278171 4.72782 0
M  V30 24780 H 2241.43 1.57128 6.58513 0
M  V30 24781 H 2246.07 -0.12162 4.22625 0
M  V30 24782 H 2243.79 2.81063 7.57647 0
M  V30 24783 H 2247.37 1.43506 5.63824 0
M  V30 24784 H 2246.25 2.88129 7.2935 0
M  V30 24785 N 2243.76 -1.55766 -0.239741 0
M  V30 24786 C 2245 -1.77932 -0.96677 0
M  V30 24787 C 2245.33 -0.599047 -1.85045 0
M  V30 24788 O 2244.59 0.417362 -1.91198 0
M  V30 24789 C 2244.88 -3.05676 -1.85195 0
M  V30 24790 C 2244.55 -4.36691 -1.12303 0
M  V30 24791 C 2243.21 -4.72292 -0.921606 0
M  V30 24792 C 2245.56 -5.17654 -0.606928 0
M  V30 24793 C 2242.89 -5.86386 -0.191893 0
M  V30 24794 C 2245.24 -6.32505 0.109352 0
M  V30 24795 C 2243.91 -6.66722 0.32219 0
M  V30 24796 H 2243.18 -0.651099 -0.353766 0
M  V30 24797 H 2245.83 -1.90036 -0.236307 0
M  V30 24798 H 2244.13 -2.88614 -2.6497 0
M  V30 24799 H 2245.83 -3.20026 -2.41629 0
M  V30 24800 H 2242.42 -4.08727 -1.28997 0
M  V30 24801 H 2246.6 -4.90599 -0.750067 0
M  V30 24802 H 2241.86 -6.11398 -0.0165874 0
M  V30 24803 H 2246.03 -6.94479 0.516859 0
M  V30 24804 H 2243.66 -7.54977 0.889573 0
M  V30 24805 N 2245.23 0.505704 -1.49266 0
M  V30 24806 C 2246.46 1.28899 -1.6248 0
M  V30 24807 C 2246.88 1.85782 -0.294365 0
M  V30 24808 O 2246.24 1.65627 0.737383 0
M  V30 24809 C 2246.29 2.39843 -2.69273 0
M  V30 24810 O 2245.39 3.43563 -2.28119 0
M  V30 24811 H 2244.73 0.380741 -0.543996 0
M  V30 24812 H 2247.26 0.605918 -1.95422 0
M  V30 24813 H 2247.27 2.85676 -2.91296 0
M  V30 24814 H 2245.95 1.97806 -3.65849 0
M  V30 24815 H 2244.53 3.03682 -2.16407 0
M  V30 24816 N 2246.71 1.38262 0.756405 0
M  V30 24817 C 2247.66 1.35264 1.87009 0
M  V30 24818 C 2248.63 0.215645 1.64694 0
M  V30 24819 O 2249.81 0.407432 1.86399 0
M  V30 24820 C 2246.95 1.18073 3.24273 0
M  V30 24821 C 2246.07 2.41136 3.58438 0
M  V30 24822 C 2245.2 2.16697 4.8499 0
M  V30 24823 C 2244.24 3.35546 5.11933 0
M  V30 24824 N 2243.38 3.10561 6.2968 0
M  V30 24825 H 2248.22 2.30475 1.88906 0
M  V30 24826 H 2245.76 1.1451 0.923353 0
M  V30 24827 H 2247.71 1.06123 4.03477 0
M  V30 24828 H 2246.34 0.26503 3.2171 0
M  V30 24829 H 2245.4 2.63769 2.74099 0
M  V30 24830 H 2246.71 3.29724 3.74278 0
M  V30 24831 H 2245.86 2.01867 5.72132 0
M  V30 24832 H 2244.6 1.25471 4.71284 0
M  V30 24833 H 2243.61 3.50898 4.23262 0
M  V30 24834 H 2244.83 4.27645 5.27539 0
M  V30 24835 H 2242.78 2.21978 6.17302 0
M  V30 24836 H 2242.69 3.92697 6.46007 0
M  V30 24837 H 2243.96 2.99379 7.19717 0
M  V30 24838 N 2248.19 -0.984277 1.23084 0
M  V30 24839 C 2249.44 -1.72759 1.06217 0
M  V30 24840 C 2249.77 -1.90024 -0.40055 0
M  V30 24841 O 2249.04 -1.44969 -1.2967 0
M  V30 24842 C 2249.33 -3.12814 1.7838 0
M  V30 24843 C 2249.18 -3.03143 3.32301 0
M  V30 24844 C 2250.5 -4.12159 1.54316 0
M  V30 24845 H 2247.62 -0.627054 0.387262 0
M  V30 24846 H 2250.26 -1.14614 1.51538 0
M  V30 24847 H 2248.41 -3.62454 1.39854 0
M  V30 24848 H 2250.08 -2.61057 3.80325 0
M  V30 24849 H 2248.33 -2.39741 3.61534 0
M  V30 24850 H 2249 -4.02289 3.77979 0
M  V30 24851 H 2251.47 -3.7131 1.87797 0
M  V30 24852 H 2250.35 -5.08254 2.0729 0
M  V30 24853 H 2250.61 -4.39512 0.477649 0
M  V30 24854 N 2249.67 -1.04192 -1.18244 0
M  V30 24855 C 2250.62 -0.627831 -2.23967 0
M  V30 24856 C 2251.61 0.345989 -1.65829 0
M  V30 24857 O 2252.82 0.213143 -1.78734 0
M  V30 24858 H 2249.19 -0.184815 -0.728936 0
M  V30 24859 H 2251.16 -1.52985 -2.56199 0
M  V30 24860 C 2249.91 -0.00802703 -3.47699 0
M  V30 24861 H 2249.23 -0.748416 -3.92732 0
M  V30 24862 H 2250.67 0.244476 -4.23295 0
M  V30 24863 C 2249.13 1.2424 -3.13155 0
M  V30 24864 O 2249.66 2.33301 -3.27007 0
M  V30 24865 N 2247.87 1.13618 -2.67469 0
M  V30 24866 H 2247.42 0.248689 -2.56397 0
M  V30 24867 H 2247.37 1.97372 -2.44727 0
M  V30 24868 N 2251.15 1.34492 -0.821557 0
M  V30 24869 C 2252.56 1.80739 -0.467988 0
M  V30 24870 C 2252.91 1.68117 1.01148 0
M  V30 24871 O 2252.03 1.22039 1.78705 0
M  V30 24872 C 2252.63 3.28153 -0.842684 0
M  V30 24873 C 2251.19 3.72484 -0.541504 0
M  V30 24874 C 2250.33 2.56227 -1.06033 0
M  V30 24875 H 2253.29 1.22259 -1.01185 0
M  V30 24876 H 2253.31 3.8022 -0.145943 0
M  V30 24877 H 2252.82 3.37308 -1.91951 0
M  V30 24878 H 2250.92 3.68869 0.52597 0
M  V30 24879 H 2251.03 4.66662 -1.08461 0
M  V30 24880 H 2249.4 2.50099 -0.481936 0
M  V30 24881 H 2250.18 2.68153 -2.14357 0
M  V30 24882 N 2252.62 0.576397 1.46681 0
M  V30 24883 C 2253.53 -0.1631 2.34032 0
M  V30 24884 C 2254.55 -0.892475 1.49368 0
M  V30 24885 O 2255.73 -0.857074 1.82253 0
M  V30 24886 C 2252.79 -1.16789 3.26437 0
M  V30 24887 C 2251.85 -0.443869 4.26999 0
M  V30 24888 C 2251.09 -1.40079 5.14989 0
M  V30 24889 O 2251.31 -2.63692 5.05789 0
M  V30 24890 O 2250.24 -0.914812 5.94907 0
M  V30 24891 H 2254.07 0.553932 2.98606 0
M  V30 24892 H 2251.65 0.336846 1.45553 0
M  V30 24893 H 2253.54 -1.74741 3.83462 0
M  V30 24894 H 2252.21 -1.8665 2.64468 0
M  V30 24895 H 2251.12 0.177336 3.73679 0
M  V30 24896 H 2252.45 0.213652 4.91736 0
M  V30 24897 N 2254.1 -1.54444 0.313841 0
M  V30 24898 C 2255.33 -2.05268 -0.296645 0
M  V30 24899 C 2255.75 -1.189 -1.45755 0
M  V30 24900 O 2255.11 -0.195917 -1.80238 0
M  V30 24901 C 2255.16 -3.53375 -0.718248 0
M  V30 24902 O 2254.26 -3.69985 -1.82168 0
M  V30 24903 H 2253.6 -0.661685 -0.0553944 0
M  V30 24904 H 2256.13 -1.99375 0.459422 0
M  V30 24905 H 2256.14 -3.95465 -1.00357 0
M  V30 24906 H 2254.82 -4.15694 0.130894 0
M  V30 24907 H 2253.4 -3.398 -1.53592 0
M  V30 24908 N 2255.58 -0.0418125 -1.57545 0
M  V30 24909 C 2256.83 0.632796 -1.91938 0
M  V30 24910 C 2257.15 1.71933 -0.920008 0
M  V30 24911 O 2256.42 1.95866 0.0365719 0
M  V30 24912 H 2255 0.236729 -0.708497 0
M  V30 24913 H 2257.66 -0.0926087 -1.9468 0
M  V30 24914 H 2256.76 1.07741 -2.92913 0
M  V30 24915 N 2257.06 1.55891 0.231477 0
M  V30 24916 C 2258.31 1.77642 0.955315 0
M  V30 24917 C 2258.62 0.608579 1.85892 0
M  V30 24918 O 2259.83 0.709476 2.62066 0
M  V30 24919 C 2258.28 3.14555 1.74881 0
M  V30 24920 C 2257.89 4.39033 0.891838 0
M  V30 24921 C 2259.63 3.45637 2.46445 0
M  V30 24922 C 2257.54 5.66974 1.68211 0
M  V30 24923 H 2256.47 0.662271 0.360434 0
M  V30 24924 H 2259.12 1.823 0.209484 0
M  V30 24925 H 2257.5 3.04045 2.53717 0
M  V30 24926 H 2258.68 4.60573 0.144712 0
M  V30 24927 H 2256.99 4.15397 0.28879 0
M  V30 24928 H 2259.59 4.38447 3.06053 0
M  V30 24929 H 2259.93 2.67674 3.18836 0
M  V30 24930 H 2260.47 3.57431 1.74607 0
M  V30 24931 H 2257.21 6.47802 1.00166 0
M  V30 24932 H 2256.73 5.49511 2.40411 0
M  V30 24933 H 2258.4 6.0679 2.24533 0
M  V30 24934 N 2258.54 -0.497781 1.49532 0
M  V30 24935 C 2259.81 -1.25912 1.49685 0
M  V30 24936 C 2260.19 -2.09883 0.226376 0
M  V30 24937 O 2259.54 -2.14367 -0.791152 0
M  V30 24938 C 2259.75 -2.11308 2.77759 0
M  V30 24939 C 2261.1 -2.70389 3.27376 0
M  V30 24940 O 2262.12 -2.21573 2.78898 0
M  V30 24941 O 2260.98 -3.59265 4.11814 0
M  V30 24942 H 2258.08 -0.56995 0.599238 0
M  V30 24943 H 2260.62 -0.511788 1.61799 0
M  V30 24944 H 2259.39 -1.49257 3.61715 0
M  V30 24945 H 2259.02 -2.93228 2.6852 0
M  V30 24946 N 2260.01 -1.38661 -0.749062 0
M  V30 24947 C 2261.29 -1.25634 -1.49918 0
M  V30 24948 C 2261.67 0.14028 -2.10633 0
M  V30 24949 O 2261.02 1.15021 -1.97439 0
M  V30 24950 C 2261.23 -2.36997 -2.56191 0
M  V30 24951 C 2262.58 -2.7564 -3.22967 0
M  V30 24952 O 2263.6 -2.36342 -2.66498 0
M  V30 24953 O 2262.46 -3.43423 -4.25116 0
M  V30 24954 H 2259.55 -0.491555 -0.665058 0
M  V30 24955 H 2262.1 -1.505 -0.784086 0
M  V30 24956 H 2260.87 -3.30425 -2.09606 0
M  V30 24957 H 2260.5 -2.1372 -3.35275 0
M  V30 24958 N 2261.49 0.977736 -1.23605 0
M  V30 24959 C 2262.74 1.71366 -1.0638 0
M  V30 24960 C 2263.06 1.91487 0.399028 0
M  V30 24961 O 2264.26 2.62552 0.691266 0
M  V30 24962 C 2262.72 3.08401 -1.85518 0
M  V30 24963 C 2262.33 2.96158 -3.36146 0
M  V30 24964 C 2264.07 3.85935 -1.7679 0
M  V30 24965 C 2261.98 4.28442 -4.07666 0
M  V30 24966 H 2260.91 0.642584 -0.394463 0
M  V30 24967 H 2263.56 1.09031 -1.47595 0
M  V30 24968 H 2261.94 3.71506 -1.37109 0
M  V30 24969 H 2263.11 2.42126 -3.92061 0
M  V30 24970 H 2261.43 2.32098 -3.45716 0
M  V30 24971 H 2264.03 4.83872 -2.27535 0
M  V30 24972 H 2264.37 4.09828 -0.731188 0
M  V30 24973 H 2264.9 3.29537 -2.22824 0
M  V30 24974 H 2261.64 4.09743 -5.11655 0
M  V30 24975 H 2261.16 4.82328 -3.56539 0
M  V30 24976 H 2262.84 4.97115 -4.14108 0
M  V30 24977 N 2262.97 1.04818 1.1769 0
M  V30 24978 C 2264.22 0.756023 1.87858 0
M  V30 24979 C 2264.55 -0.71672 1.80813 0
M  V30 24980 O 2263.8 -1.5395 1.20821 0
M  V30 24981 C 2264.1 1.17709 3.3746 0
M  V30 24982 C 2263.77 2.65139 3.64708 0
M  V30 24983 C 2262.43 3.05415 3.71854 0
M  V30 24984 C 2264.78 3.60428 3.76485 0
M  V30 24985 C 2262.11 4.3985 3.88264 0
M  V30 24986 C 2264.46 4.94592 3.94413 0
M  V30 24987 C 2263.12 5.34527 3.99797 0
M  V30 24988 H 2262.39 0.276648 0.68742 0
M  V30 24989 H 2265.04 1.31457 1.39252 0
M  V30 24990 H 2263.35 0.537463 3.88096 0
M  V30 24991 H 2265.04 0.928286 3.90107 0
M  V30 24992 H 2261.63 2.32948 3.59768 0
M  V30 24993 H 2265.82 3.30454 3.70289 0
M  V30 24994 H 2261.07 4.70298 3.90678 0
M  V30 24995 H 2265.25 5.68325 4.02467 0
M  V30 24996 H 2262.87 6.38704 4.12264 0
M  V30 24997 N 2264.45 -1.34055 0.828678 0
M  V30 24998 C 2265.4 -2.31327 0.243014 0
M  V30 24999 C 2266.39 -1.57669 -0.619412 0
M  V30 25000 O 2267.6 -1.72621 -0.51011 0
M  V30 25001 H 2263.97 -0.749615 0.0598471 0
M  V30 25002 H 2265.94 -2.78242 1.07814 0
M  V30 25003 C 2264.69 -3.42901 -0.575673 0
M  V30 25004 H 2264.02 -3.99723 0.0786284 0
M  V30 25005 H 2265.46 -4.13186 -0.951475 0
M  V30 25006 C 2263.91 -2.8786 -1.75039 0
M  V30 25007 O 2264.44 -2.8321 -2.84877 0
M  V30 25008 N 2262.65 -2.44604 -1.56898 0
M  V30 25009 H 2262.2 -2.48585 -0.675503 0
M  V30 25010 H 2262.16 -2.08128 -2.35648 0
M  V30 25011 N 2265.93 -0.584167 -1.46374 0
M  V30 25012 C 2267.17 -0.070303 -2.02378 0
M  V30 25013 C 2267.5 1.2902 -1.45548 0
M  V30 25014 O 2266.76 1.85917 -0.610999 0
M  V30 25015 C 2267.06 0.0438714 -3.57373 0
M  V30 25016 C 2266.72 -1.24923 -4.3325 0
M  V30 25017 C 2265.38 -1.60349 -4.53698 0
M  V30 25018 C 2267.74 -2.10488 -4.76806 0
M  V30 25019 C 2265.06 -2.81137 -5.14955 0
M  V30 25020 C 2267.42 -3.30503 -5.39398 0
M  V30 25021 C 2266.08 -3.6621 -5.58074 0
M  V30 25022 H 2265.35 -0.0257257 -0.740553 0
M  V30 25023 H 2268 -0.761096 -1.75726 0
M  V30 25024 H 2266.3 0.817801 -3.8317 0
M  V30 25025 H 2268 0.457248 -3.98385 0
M  V30 25026 H 2264.59 -0.963437 -4.17631 0
M  V30 25027 H 2268.77 -1.84422 -4.60763 0
M  V30 25028 H 2264.03 -3.08938 -5.27605 0
M  V30 25029 H 2268.2 -3.97073 -5.72107 0
M  V30 25030 H 2265.83 -4.59896 -6.0531 0
M  V30 25031 N 2267.41 1.54275 -0.322027 0
M  V30 25032 C 2268.35 2.24282 0.544624 0
M  V30 25033 C 2269.32 1.23305 1.11288 0
M  V30 25034 O 2270.51 1.51983 1.15351 0
M  V30 25035 C 2267.65 3.00301 1.7004 0
M  V30 25036 C 2266.76 4.16092 1.16152 0
M  V30 25037 C 2265.9 4.79645 2.28285 0
M  V30 25038 C 2264.93 5.87543 1.71638 0
M  V30 25039 N 2264.07 6.44964 2.77427 0
M  V30 25040 H 2268.91 2.97942 -0.0589431 0
M  V30 25041 H 2266.45 1.47043 -0.0408604 0
M  V30 25042 H 2268.41 3.4262 2.38048 0
M  V30 25043 H 2267.04 2.28979 2.27527 0
M  V30 25044 H 2266.09 3.78567 0.373025 0
M  V30 25045 H 2267.4 4.93764 0.707 0
M  V30 25046 H 2266.55 5.24925 3.04201 0
M  V30 25047 H 2265.29 4.01351 2.77072 0
M  V30 25048 H 2264.3 5.41667 0.942187 0
M  V30 25049 H 2265.52 6.67733 1.23729 0
M  V30 25050 H 2263.47 5.69544 3.25509 0
M  V30 25051 H 2263.39 7.18044 2.36534 0
M  V30 25052 H 2264.65 6.949 3.53177 0
M  V30 25053 N 2268.88 0.0501669 1.5752 0
M  V30 25054 C 2270.11 -0.633457 1.96964 0
M  V30 25055 C 2270.53 -1.64438 0.92766 0
M  V30 25056 O 2269.88 -1.82287 -0.0882344 0
M  V30 25057 C 2269.93 -1.32126 3.36489 0
M  V30 25058 O 2269.66 -0.350817 4.36693 0
M  V30 25059 C 2271.16 -2.09474 3.90686 0
M  V30 25060 H 2268.38 -0.173255 0.648247 0
M  V30 25061 H 2270.92 0.116169 2.0417 0
M  V30 25062 H 2269.08 -2.02212 3.30437 0
M  V30 25063 H 2269.49 -0.841644 5.17703 0
M  V30 25064 H 2270.96 -2.53021 4.90596 0
M  V30 25065 H 2271.44 -2.94249 3.26059 0
M  V30 25066 H 2272.05 -1.443 4.00072 0
M  V30 25067 N 2270.36 -1.56011 -0.223207 0
M  V30 25068 C 2271.61 -1.78947 -0.947844 0
M  V30 25069 C 2271.94 -0.61864 -1.84399 0
M  V30 25070 O 2271.19 0.397059 -1.9163 0
M  V30 25071 C 2271.49 -3.07623 -1.81942 0
M  V30 25072 C 2271.16 -4.37857 -1.07665 0
M  V30 25073 C 2269.82 -4.73243 -0.871461 0
M  V30 25074 C 2272.17 -5.18269 -0.55199 0
M  V30 25075 C 2269.5 -5.86557 -0.129688 0
M  V30 25076 C 2271.85 -6.32354 0.176431 0
M  V30 25077 C 2270.51 -6.66343 0.392887 0
M  V30 25078 H 2269.78 -0.654815 -0.346841 0
M  V30 25079 H 2272.43 -1.90276 -0.216137 0
M  V30 25080 H 2270.74 -2.91408 -2.61894 0
M  V30 25081 H 2272.43 -3.2257 -2.38221 0
M  V30 25082 H 2269.02 -4.10072 -1.24655 0
M  V30 25083 H 2273.21 -4.91367 -0.69799 0
M  V30 25084 H 2268.46 -6.11381 0.0482604 0
M  V30 25085 H 2272.64 -6.93892 0.590489 0
M  V30 25086 H 2270.26 -7.53991 0.969598 0
M  V30 25087 N 2271.84 0.489844 -1.49794 0
M  V30 25088 C 2272.8 1.57243 -1.66755 0
M  V30 25089 C 2273.8 1.51501 -0.538894 0
M  V30 25090 O 2274.99 1.54454 -0.805572 0
M  V30 25091 C 2272.12 2.96893 -1.67533 0
M  V30 25092 H 2273.32 1.4353 -2.63323 0
M  V30 25093 H 2270.87 0.71489 -1.38993 0
M  V30 25094 H 2271.61 3.16072 -0.725893 0
M  V30 25095 H 2271.39 3.02469 -2.49509 0
M  V30 25096 H 2272.88 3.75526 -1.82674 0
M  V30 25097 N 2273.32 1.39056 0.741698 0
M  V30 25098 C 2274.54 1.39357 1.53605 0
M  V30 25099 C 2274.97 -0.0116574 1.88096 0
M  V30 25100 O 2274.33 -0.996898 1.51432 0
M  V30 25101 C 2274.37 2.26687 2.80438 0
M  V30 25102 O 2273.48 1.69215 3.76085 0
M  V30 25103 H 2272.82 0.474843 0.464134 0
M  V30 25104 H 2275.35 1.82968 0.915633 0
M  V30 25105 H 2275.36 2.40965 3.29241 0
M  V30 25106 H 2274.03 3.28814 2.54665 0
M  V30 25107 H 2272.61 1.64144 3.3483 0
M  V30 25108 N 2274.8 -0.971167 1.24121 0
M  V30 25109 C 2276.02 -1.75405 1.1067 0
M  V30 25110 C 2276.45 -1.85056 -0.337016 0
M  V30 25111 O 2275.8 -1.31894 -1.24393 0
M  V30 25112 C 2275.85 -3.15438 1.74732 0
M  V30 25113 O 2274.96 -3.99696 1.01573 0
M  V30 25114 H 2274.3 -0.53931 0.387351 0
M  V30 25115 H 2276.83 -1.21847 1.6436 0
M  V30 25116 H 2276.84 -3.65976 1.80348 0
M  V30 25117 H 2275.51 -3.07729 2.79778 0
M  V30 25118 H 2274.09 -3.58185 1.03719 0
M  V30 25119 N 2276.27 -1.05441 -1.17133 0
M  V30 25120 C 2277.21 -0.601894 -2.20119 0
M  V30 25121 C 2278.19 0.370826 -1.58315 0
M  V30 25122 O 2279.37 0.281849 -1.86381 0
M  V30 25123 C 2276.5 0.118808 -3.38492 0
M  V30 25124 C 2275.54 -0.809316 -4.18751 0
M  V30 25125 S 2276.38 -2.29986 -4.83598 0
M  V30 25126 C 2277.53 -1.5904 -6.05357 0
M  V30 25127 H 2277.76 -1.47442 -2.58163 0
M  V30 25128 H 2275.3 -0.866595 -1.27787 0
M  V30 25129 H 2277.26 0.528423 -4.07085 0
M  V30 25130 H 2275.92 0.967412 -2.98831 0
M  V30 25131 H 2275.11 -0.251468 -5.03372 0
M  V30 25132 H 2274.71 -1.15841 -3.55608 0
M  V30 25133 H 2277 -0.891135 -6.71614 0
M  V30 25134 H 2277.95 -2.41419 -6.65675 0
M  V30 25135 H 2278.35 -1.07672 -5.54136 0
M  V30 25136 N 2277.75 1.33613 -0.835776 0
M  V30 25137 C 2278.68 2.31794 -0.28178 0
M  V30 25138 C 2279.66 1.58832 0.608805 0
M  V30 25139 O 2280.85 1.86742 0.533002 0
M  V30 25140 C 2277.98 3.42972 0.546552 0
M  V30 25141 C 2276.93 4.27281 -0.247979 0
M  V30 25142 C 2276.26 5.30046 0.703907 0
M  V30 25143 C 2277.56 5.01382 -1.46333 0
M  V30 25144 H 2279.25 2.78377 -1.10211 0
M  V30 25145 H 2276.8 1.33836 -0.531412 0
M  V30 25146 H 2278.75 4.10681 0.944395 0
M  V30 25147 H 2277.48 2.95069 1.40006 0
M  V30 25148 H 2276.13 3.61192 -0.627345 0
M  V30 25149 H 2275.78 4.78402 1.55373 0
M  V30 25150 H 2275.48 5.87335 0.176421 0
M  V30 25151 H 2277.01 6.00622 1.09933 0
M  V30 25152 H 2278.42 5.61875 -1.13881 0
M  V30 25153 H 2276.82 5.68306 -1.92738 0
M  V30 25154 H 2277.89 4.30334 -2.23474 0
M  V30 25155 N 2279.23 0.591922 1.46062 0
M  V30 25156 C 2280.47 0.0838373 2.04228 0
M  V30 25157 C 2280.83 -1.25584 1.45233 0
M  V30 25158 O 2282.04 -1.85371 1.94656 0
M  V30 25159 C 2280.31 0.028691 3.57388 0
M  V30 25160 S 2281.87 -0.42048 4.36781 0
M  V30 25161 H 2278.68 0.0419444 0.709762 0
M  V30 25162 H 2281.29 0.786497 1.78982 0
M  V30 25163 H 2279.99 1.0075 3.97841 0
M  V30 25164 H 2279.52 -0.696452 3.87186 0
M  V30 25165 H 2281.54 -1.67333 4.67134 0
M  V30 25166 N 2280.71 -1.54102 0.330204 0
M  V30 25167 C 2281.64 -2.27514 -0.525313 0
M  V30 25168 C 2282.62 -1.28562 -1.11381 0
M  V30 25169 O 2283.8 -1.57385 -1.1377 0
M  V30 25170 C 2280.93 -3.03794 -1.68305 0
M  V30 25171 C 2279.89 -4.10139 -1.22353 0
M  V30 25172 C 2279.21 -4.74297 -2.46873 0
M  V30 25173 C 2280.51 -5.21234 -0.333605 0
M  V30 25174 H 2282.21 -2.99273 0.0870656 0
M  V30 25175 H 2279.75 -1.43935 0.0433146 0
M  V30 25176 H 2281.71 -3.53884 -2.28788 0
M  V30 25177 H 2280.43 -2.29663 -2.32212 0
M  V30 25178 H 2279.09 -3.60942 -0.641586 0
M  V30 25179 H 2278.74 -3.96775 -3.09159 0
M  V30 25180 H 2278.44 -5.46136 -2.16815 0
M  V30 25181 H 2279.96 -5.27164 -3.08107 0
M  V30 25182 H 2281.38 -5.6704 -0.844913 0
M  V30 25183 H 2279.77 -5.99969 -0.125507 0
M  V30 25184 H 2280.84 -4.8074 0.633808 0
M  V30 25185 N 2282.19 -0.0585199 -1.57491 0
M  V30 25186 C 2283.43 0.613615 -1.92979 0
M  V30 25187 C 2283.76 1.70415 -0.937491 0
M  V30 25188 O 2283.02 1.95639 0.0490436 0
M  V30 25189 C 2283.32 1.24182 -3.35132 0
M  V30 25190 C 2282.98 0.278747 -4.50038 0
M  V30 25191 C 2281.64 0.0137601 -4.81198 0
M  V30 25192 C 2284 -0.380868 -5.19807 0
M  V30 25193 C 2281.32 -0.918153 -5.79471 0
M  V30 25194 C 2283.68 -1.30102 -6.19077 0
M  V30 25195 C 2282.34 -1.57461 -6.48662 0
M  V30 25196 H 2281.61 0.224537 -0.706161 0
M  V30 25197 H 2284.26 -0.126567 -1.91081 0
M  V30 25198 H 2282.56 2.05743 -3.33432 0
M  V30 25199 H 2284.26 1.76894 -3.59874 0
M  V30 25200 H 2280.85 0.495464 -4.25727 0
M  V30 25201 H 2285.03 -0.189245 -4.95939 0
M  V30 25202 H 2280.29 -1.13751 -6.00725 0
M  V30 25203 H 2284.46 -1.81816 -6.72247 0
M  V30 25204 H 2282.09 -2.29834 -7.24624 0
M  V30 25205 N 2283.66 1.56128 0.21493 0
M  V30 25206 C 2284.6 1.89451 1.29 0
M  V30 25207 C 2285.61 0.783351 1.42715 0
M  V30 25208 O 2286.8 1.06168 1.43494 0
M  V30 25209 C 2283.9 2.09386 2.66478 0
M  V30 25210 C 2283.07 3.40439 2.74627 0
M  V30 25211 C 2282.13 3.49726 3.93164 0
M  V30 25212 O 2281.16 4.22707 3.81193 0
M  V30 25213 N 2282.36 2.81355 5.0776 0
M  V30 25214 H 2285.12 2.82262 1.00738 0
M  V30 25215 H 2282.68 1.56754 0.404943 0
M  V30 25216 H 2284.68 2.12908 3.44169 0
M  V30 25217 H 2283.25 1.23168 2.87312 0
M  V30 25218 H 2282.47 3.48959 1.83362 0
M  V30 25219 H 2283.75 4.26759 2.77046 0
M  V30 25220 H 2283.15 2.21853 5.20383 0
M  V30 25221 H 2281.71 2.90529 5.83469 0
M  V30 25222 N 2285.14 -0.481893 1.50052 0
M  V30 25223 C 2286.39 -1.23147 1.59743 0
M  V30 25224 C 2286.7 -1.93314 0.298197 0
M  V30 25225 O 2287.91 -2.70115 0.273883 0
M  V30 25226 C 2286.37 -2.23703 2.8193 0
M  V30 25227 C 2285.97 -1.59389 4.18688 0
M  V30 25228 C 2287.72 -2.9937 3.00962 0
M  V30 25229 C 2285.63 -2.58168 5.32074 0
M  V30 25230 H 2284.56 -0.46333 0.594846 0
M  V30 25231 H 2287.21 -0.503138 1.76467 0
M  V30 25232 H 2285.59 -2.99782 2.58741 0
M  V30 25233 H 2286.76 -0.891732 4.52089 0
M  V30 25234 H 2285.08 -0.960432 4.05172 0
M  V30 25235 H 2287.67 -3.73277 3.82843 0
M  V30 25236 H 2288.02 -3.58119 2.12265 0
M  V30 25237 H 2288.55 -2.30406 3.24281 0
M  V30 25238 H 2285.29 -2.04173 6.22891 0
M  V30 25239 H 2284.81 -3.26568 5.03104 0
M  V30 25240 H 2286.49 -3.20216 5.62202 0
M  V30 25241 N 2286.62 -1.39448 -0.734313 0
M  V30 25242 C 2287.85 -1.4017 -1.52864 0
M  V30 25243 C 2288.27 0.00168206 -1.881 0
M  V30 25244 O 2287.63 0.988853 -1.51959 0
M  V30 25245 C 2287.68 -2.28171 -2.79231 0
M  V30 25246 O 2286.78 -1.71207 -3.75182 0
M  V30 25247 H 2286.12 -0.477298 -0.461609 0
M  V30 25248 H 2288.65 -1.83451 -0.905916 0
M  V30 25249 H 2288.66 -2.42708 -3.27959 0
M  V30 25250 H 2287.34 -3.3016 -2.52917 0
M  V30 25251 H 2285.91 -1.65918 -3.33955 0
M  V30 25252 N 2288.1 0.964571 -1.24635 0
M  V30 25253 C 2289.33 1.74283 -1.11504 0
M  V30 25254 C 2289.74 1.85856 0.332133 0
M  V30 25255 O 2289.1 1.34913 1.22901 0
M  V30 25256 C 2289.15 3.16172 -1.75264 0
M  V30 25257 O 2288.87 3.05176 -3.14323 0
M  V30 25258 C 2290.37 4.10321 -1.67784 0
M  V30 25259 H 2287.59 0.546439 -0.389417 0
M  V30 25260 H 2290.14 1.2108 -1.64803 0
M  V30 25261 H 2288.29 3.66351 -1.2596 0
M  V30 25262 H 2288.7 3.94612 -3.45517 0
M  V30 25263 H 2290.18 5.07527 -2.17073 0
M  V30 25264 H 2290.66 4.34517 -0.639661 0
M  V30 25265 H 2291.26 3.66054 -2.16529 0
M  V30 25266 N 2289.58 1.0606 1.16572 0
M  V30 25267 C 2290.8 0.796596 1.91492 0
M  V30 25268 C 2291.23 -0.642837 1.76774 0
M  V30 25269 O 2290.58 -1.44766 1.09144 0
M  V30 25270 C 2290.63 1.19309 3.40291 0
M  V30 25271 O 2289.74 0.330466 4.11074 0
M  V30 25272 H 2289.08 0.291337 0.596673 0
M  V30 25273 H 2291.61 1.41578 1.47706 0
M  V30 25274 H 2291.62 1.16363 3.91055 0
M  V30 25275 H 2290.29 2.24159 3.50322 0
M  V30 25276 H 2288.87 0.42129 3.70513 0
M  V30 25277 N 2291.06 -1.33168 0.84285 0
M  V30 25278 C 2292.02 -2.27432 0.284105 0
M  V30 25279 C 2293.02 -1.51121 -0.549454 0
M  V30 25280 O 2294.21 -1.70383 -0.362669 0
M  V30 25281 C 2291.34 -3.3559 -0.599325 0
M  V30 25282 H 2292.53 -2.78364 1.11594 0
M  V30 25283 H 2290.09 -1.43639 0.616246 0
M  V30 25284 H 2290.82 -2.89906 -1.45344 0
M  V30 25285 H 2290.61 -3.921 -0.00284374 0
M  V30 25286 H 2292.1 -4.05855 -0.983417 0
M  V30 25287 N 2292.53 -0.599659 -1.45746 0
M  V30 25288 C 2293.78 -0.0915827 -2.01892 0
M  V30 25289 C 2294.1 1.27944 -1.47158 0
M  V30 25290 O 2293.37 1.84348 -0.662762 0
M  V30 25291 H 2291.95 -0.0308655 -0.746362 0
M  V30 25292 H 2294.61 -0.779268 -1.78643 0
M  V30 25293 H 2293.71 -0.0353635 -3.1208 0
M  V30 25294 N 2294.01 1.53925 -0.338371 0
M  V30 25295 C 2295.26 2.01823 0.252807 0
M  V30 25296 C 2295.61 1.222 1.4861 0
M  V30 25297 O 2294.91 0.299925 1.89238 0
M  V30 25298 C 2295.1 3.51903 0.624418 0
M  V30 25299 C 2294.93 4.46056 -0.571313 0
M  V30 25300 C 2293.7 4.93732 -1.07502 0
M  V30 25301 C 2295.9 4.94073 -1.42815 0
M  V30 25302 N 2293.88 5.71824 -2.23362 0
M  V30 25303 C 2295.25 5.70237 -2.43372 0
M  V30 25304 C 2297.3 4.7619 -1.4542 0
M  V30 25305 C 2296.01 6.3042 -3.46357 0
M  V30 25306 C 2298.03 5.3722 -2.47283 0
M  V30 25307 C 2297.4 6.13247 -3.46566 0
M  V30 25308 H 2293.49 0.779996 0.0559532 0
M  V30 25309 H 2296.08 1.88772 -0.476765 0
M  V30 25310 H 2294.25 3.65169 1.3231 0
M  V30 25311 H 2295.98 3.86551 1.19834 0
M  V30 25312 H 2292.74 4.69202 -0.64393 0
M  V30 25313 H 2293.16 6.15543 -2.81845 0
M  V30 25314 H 2297.8 4.16961 -0.700244 0
M  V30 25315 H 2295.52 6.88761 -4.2265 0
M  V30 25316 H 2299.11 5.25292 -2.50119 0
M  V30 25317 H 2297.99 6.59631 -4.24095 0
M  V30 25318 N 2295.49 0.0668712 1.57458 0
M  V30 25319 C 2296.77 -0.6441 1.84691 0
M  V30 25320 C 2297.15 -1.88091 0.958376 0
M  V30 25321 O 2296.49 -2.28488 0.0233981 0
M  V30 25322 C 2296.7 -0.986451 3.34769 0
M  V30 25323 C 2298.05 -1.36205 4.02161 0
M  V30 25324 O 2299.08 -1.07833 3.39486 0
M  V30 25325 O 2297.94 -1.89218 5.12698 0
M  V30 25326 H 2295.03 -0.319424 0.762822 0
M  V30 25327 H 2297.58 0.0974284 1.6942 0
M  V30 25328 H 2296.35 -0.107814 3.91151 0
M  V30 25329 H 2295.97 -1.78491 3.55284 0
M  V30 25330 N 2296.97 -1.56239 -0.206647 0
M  V30 25331 C 2298.19 -1.84392 -0.949442 0
M  V30 25332 C 2298.62 -0.649047 -1.76547 0
M  V30 25333 O 2297.98 0.4022 -1.76782 0
M  V30 25334 C 2298.02 -3.10672 -1.83073 0
M  V30 25335 O 2297.13 -2.90412 -2.92805 0
M  V30 25336 H 2296.47 -0.607503 -0.268022 0
M  V30 25337 H 2299 -2.03462 -0.215453 0
M  V30 25338 H 2299.01 -3.41165 -2.23764 0
M  V30 25339 H 2297.68 -3.97263 -1.23105 0
M  V30 25340 H 2296.26 -2.71189 -2.55951 0
M  V30 25341 N 2298.45 0.473929 -1.50305 0
M  V30 25342 C 2299.38 1.58039 -1.71889 0
M  V30 25343 C 2300.36 1.60343 -0.567827 0
M  V30 25344 O 2301.54 1.76654 -0.806654 0
M  V30 25345 C 2298.67 2.9638 -1.81041 0
M  V30 25346 C 2297.63 3.08943 -2.96206 0
M  V30 25347 C 2296.95 4.48904 -2.90498 0
M  V30 25348 C 2298.25 2.86427 -4.36757 0
M  V30 25349 H 2299.95 1.4023 -2.6453 0
M  V30 25350 H 2297.49 0.673178 -1.27296 0
M  V30 25351 H 2299.44 3.73711 -1.94726 0
M  V30 25352 H 2298.17 3.1534 -0.850202 0
M  V30 25353 H 2296.83 2.34045 -2.82168 0
M  V30 25354 H 2296.48 4.64778 -1.92329 0
M  V30 25355 H 2296.18 4.58246 -3.6781 0
M  V30 25356 H 2297.7 5.28259 -3.06227 0
M  V30 25357 H 2299.11 3.53509 -4.51336 0
M  V30 25358 H 2297.51 3.07216 -5.15498 0
M  V30 25359 H 2298.58 1.82308 -4.49324 0
M  V30 25360 N 2299.92 1.39835 0.726907 0
M  V30 25361 C 2300.85 1.41944 1.85403 0
M  V30 25362 C 2301.83 0.281757 1.6775 0
M  V30 25363 O 2303.02 0.48875 1.87949 0
M  V30 25364 C 2300.15 1.27015 3.2324 0
M  V30 25365 C 2299.1 2.38268 3.55545 0
M  V30 25366 C 2298.43 2.08423 4.92406 0
M  V30 25367 C 2299.73 3.80595 3.57693 0
M  V30 25368 H 2301.42 2.36269 1.83895 0
M  V30 25369 H 2298.97 1.13725 0.883329 0
M  V30 25370 H 2300.92 1.2711 4.01772 0
M  V30 25371 H 2299.65 0.291621 3.25295 0
M  V30 25372 H 2298.31 2.37404 2.79347 0
M  V30 25373 H 2297.95 1.08988 4.9105 0
M  V30 25374 H 2297.65 2.82952 5.14987 0
M  V30 25375 H 2299.18 2.10181 5.73285 0
M  V30 25376 H 2300.59 3.83344 4.26286 0
M  V30 25377 H 2298.99 4.5455 3.91796 0
M  V30 25378 H 2300.06 4.10992 2.5732 0
M  V30 25379 N 2301.4 -0.957948 1.25144 0
M  V30 25380 C 2302.63 -1.74221 1.12524 0
M  V30 25381 C 2303.05 -1.85403 -0.317369 0
M  V30 25382 O 2302.41 -1.33206 -1.22988 0
M  V30 25383 C 2302.46 -3.13567 1.78068 0
M  V30 25384 O 2301.56 -3.98596 1.05807 0
M  V30 25385 H 2300.9 -0.535171 0.393049 0
M  V30 25386 H 2303.43 -1.20097 1.65644 0
M  V30 25387 H 2303.44 -3.64043 1.84219 0
M  V30 25388 H 2302.12 -3.04744 2.83026 0
M  V30 25389 H 2300.69 -3.57065 1.07512 0
M  V30 25390 N 2302.88 -1.06677 -1.16008 0
M  V30 25391 C 2304.29 -0.809595 -1.68233 0
M  V30 25392 C 2304.64 0.666271 -1.84541 0
M  V30 25393 O 2303.77 1.51647 -1.54377 0
M  V30 25394 C 2304.36 -1.46304 -3.05582 0
M  V30 25395 C 2302.92 -1.25355 -3.54913 0
M  V30 25396 C 2302.07 -1.53707 -2.30801 0
M  V30 25397 H 2305.02 -1.22973 -1.00316 0
M  V30 25398 H 2305.04 -0.880496 -3.70172 0
M  V30 25399 H 2304.55 -2.53718 -2.93681 0
M  V30 25400 H 2302.65 -0.199327 -3.72066 0
M  V30 25401 H 2302.77 -1.96897 -4.3677 0
M  V30 25402 H 2301.13 -0.95778 -2.36006 0
M  V30 25403 H 2301.91 -2.62288 -2.21494 0
M  V30 25404 N 2304.36 1.32719 -0.8499 0
M  V30 25405 C 2305.29 2.26977 -0.235943 0
M  V30 25406 C 2306.27 1.50178 0.623329 0
M  V30 25407 O 2307.45 1.79317 0.581175 0
M  V30 25408 C 2304.58 3.32054 0.667654 0
M  V30 25409 C 2303.63 4.26338 -0.117605 0
M  V30 25410 S 2304.46 5.1456 -1.48286 0
M  V30 25411 C 2305.61 6.23162 -0.58485 0
M  V30 25412 H 2305.85 2.78703 -1.035 0
M  V30 25413 H 2303.38 1.40178 -0.647264 0
M  V30 25414 H 2305.34 3.93074 1.18336 0
M  V30 25415 H 2304 2.79122 1.44047 0
M  V30 25416 H 2303.19 5.00762 0.570422 0
M  V30 25417 H 2302.79 3.69712 -0.564733 0
M  V30 25418 H 2305.09 6.77166 0.212849 0
M  V30 25419 H 2306.03 6.96072 -1.29959 0
M  V30 25420 H 2306.44 5.6427 -0.161301 0
M  V30 25421 N 2305.84 0.60738 1.45426 0
M  V30 25422 C 2306.77 -0.0988942 2.3329 0
M  V30 25423 C 2307.75 -0.858981 1.46818 0
M  V30 25424 O 2308.93 -0.829573 1.7559 0
M  V30 25425 C 2306.06 -1.09699 3.2952 0
M  V30 25426 C 2305.02 -0.450131 4.25626 0
M  V30 25427 C 2304.34 -1.55646 5.11545 0
M  V30 25428 C 2305.64 0.628546 5.18504 0
M  V30 25429 H 2307.34 0.634767 2.92594 0
M  V30 25430 H 2304.88 0.306706 1.40696 0
M  V30 25431 H 2306.84 -1.59964 3.89858 0
M  V30 25432 H 2305.56 -1.86124 2.68375 0
M  V30 25433 H 2304.22 0.0316531 3.66586 0
M  V30 25434 H 2303.87 -2.31099 4.46769 0
M  V30 25435 H 2303.57 -1.12915 5.76649 0
M  V30 25436 H 2305.09 -2.06138 5.74752 0
M  V30 25437 H 2306.5 0.209978 5.72915 0
M  V30 25438 H 2304.9 0.977593 5.92084 0
M  V30 25439 H 2305.97 1.50522 4.60946 0
M  V30 25440 N 2307.31 -1.53743 0.34653 0
M  V30 25441 C 2308.73 -1.59599 -0.00528169 0
M  V30 25442 C 2308.93 -1.36239 -1.48463 0
M  V30 25443 O 2307.99 -1.15812 -2.24374 0
M  V30 25444 C 2309.3 -2.97558 0.433568 0
M  V30 25445 C 2310.85 -3.10609 0.386165 0
M  V30 25446 C 2311.32 -4.5095 0.80053 0
M  V30 25447 N 2312.81 -4.57008 0.754834 0
M  V30 25448 C 2313.55 -5.63753 1.04737 0
M  V30 25449 N 2313.04 -6.78337 1.40821 0
M  V30 25450 N 2314.84 -5.53642 0.971414 0
M  V30 25451 H 2306.99 -1.67182 1.31012 0
M  V30 25452 H 2309.25 -0.783118 0.534256 0
M  V30 25453 H 2308.96 -3.19729 1.46515 0
M  V30 25454 H 2308.83 -3.76723 -0.189687 0
M  V30 25455 H 2311.22 -2.8816 -0.636245 0
M  V30 25456 H 2311.3 -2.33496 1.04466 0
M  V30 25457 H 2310.94 -4.74134 1.82096 0
M  V30 25458 H 2310.87 -5.26464 0.119479 0
M  V30 25459 H 2313.36 -3.74726 0.488728 0
M  V30 25460 H 2313.68 -7.55711 1.6162 0
M  V30 25461 H 2312.02 -6.79776 1.44669 0
M  V30 25462 H 2315.21 -4.63004 0.688829 0
M  V30 25463 H 2315.39 -6.3674 1.20274 0
M  V30 25464 N 2308.79 -0.0752207 -1.5742 0
M  V30 25465 C 2310.02 0.60548 -1.98365 0
M  V30 25466 C 2310.44 1.62147 -0.953412 0
M  V30 25467 O 2309.8 1.81121 0.0805734 0
M  V30 25468 C 2309.85 1.2475 -3.38334 0
M  V30 25469 O 2308.95 2.36336 -3.37963 0
M  V30 25470 H 2308.29 0.155417 -0.645555 0
M  V30 25471 H 2310.82 -0.15075 -2.04044 0
M  V30 25472 H 2310.83 1.59353 -3.75594 0
M  V30 25473 H 2309.51 0.503056 -4.12846 0
M  V30 25474 H 2308.09 2.03501 -3.12477 0
M  V30 25475 N 2310.27 1.56347 0.198358 0
M  V30 25476 C 2311.22 1.94286 1.24585 0
M  V30 25477 C 2312.19 0.803022 1.45399 0
M  V30 25478 O 2313.37 1.0609 1.58586 0
M  V30 25479 C 2310.51 2.28486 2.58627 0
M  V30 25480 C 2309.63 3.55518 2.4542 0
M  V30 25481 C 2308.76 3.79055 3.72143 0
M  V30 25482 C 2307.8 4.99524 3.53754 0
M  V30 25483 N 2306.94 5.19332 4.72482 0
M  V30 25484 H 2311.78 2.83595 0.915307 0
M  V30 25485 H 2309.31 1.40346 0.440604 0
M  V30 25486 H 2311.27 2.4633 3.36715 0
M  V30 25487 H 2309.9 1.42322 2.89731 0
M  V30 25488 H 2308.95 3.45739 1.58646 0
M  V30 25489 H 2310.27 4.43762 2.27764 0
M  V30 25490 H 2309.42 3.97121 4.58672 0
M  V30 25491 H 2308.16 2.89135 3.92749 0
M  V30 25492 H 2307.16 4.81384 2.65611 0
M  V30 25493 H 2308.39 5.9095 3.34597 0
M  V30 25494 H 2306.33 4.32359 4.93358 0
M  V30 25495 H 2306.25 6.01749 4.57639 0
M  V30 25496 H 2307.52 5.41853 5.60371 0
M  V30 25497 N 2311.75 -0.465951 1.50554 0
M  V30 25498 C 2312.66 -1.58904 1.72588 0
M  V30 25499 C 2313.67 -1.62989 0.609138 0
M  V30 25500 O 2314.85 -1.80763 0.888072 0
M  V30 25501 C 2311.92 -2.95088 1.82 0
M  V30 25502 C 2310.98 -3.0135 3.05756 0
M  V30 25503 C 2310.21 -4.31038 3.14709 0
M  V30 25504 O 2310.43 -5.21831 2.30322 0
M  V30 25505 O 2309.37 -4.42997 4.07476 0
M  V30 25506 H 2313.19 -1.43235 2.67801 0
M  V30 25507 H 2310.78 -0.645989 1.34712 0
M  V30 25508 H 2312.66 -3.75963 1.90341 0
M  V30 25509 H 2311.33 -3.10945 0.899714 0
M  V30 25510 H 2310.24 -2.19534 3.02912 0
M  V30 25511 H 2311.57 -2.9043 3.9738 0
M  V30 25512 N 2313.23 -1.40218 -0.719481 0
M  V30 25513 C 2314.45 -1.41783 -1.51368 0
M  V30 25514 C 2314.88 -0.0182685 -1.88091 0
M  V30 25515 O 2314.23 0.97268 -1.52999 0
M  V30 25516 C 2314.28 -2.3112 -2.76796 0
M  V30 25517 O 2313.39 -1.75177 -3.73345 0
M  V30 25518 H 2312.73 -0.482167 -0.456521 0
M  V30 25519 H 2315.26 -1.84402 -0.886408 0
M  V30 25520 H 2315.27 -2.46172 -3.25366 0
M  V30 25521 H 2313.94 -3.32824 -2.49401 0
M  V30 25522 H 2312.52 -1.6945 -3.32176 0
M  V30 25523 N 2314.7 0.951297 -1.25651 0
M  V30 25524 C 2315.94 1.71111 -1.11805 0
M  V30 25525 C 2316.31 1.8906 0.334725 0
M  V30 25526 O 2317.51 2.6213 0.595075 0
M  V30 25527 C 2315.78 3.0548 -1.85517 0
M  V30 25528 S 2317.34 3.96674 -1.87604 0
M  V30 25529 H 2314.16 0.588108 -0.399562 0
M  V30 25530 H 2316.76 1.13438 -1.59224 0
M  V30 25531 H 2315.46 2.90089 -2.90304 0
M  V30 25532 H 2314.99 3.68214 -1.38499 0
M  V30 25533 H 2317.01 4.86914 -0.955475 0
M  V30 25534 N 2316.18 1.07291 1.1544 0
M  V30 25535 C 2317.13 0.686991 2.22223 0
M  V30 25536 C 2318.12 -0.301901 1.66688 0
M  V30 25537 O 2319.33 -0.16568 1.79236 0
M  V30 25538 H 2315.71 0.204077 0.723779 0
M  V30 25539 H 2317.68 1.59724 2.52053 0
M  V30 25540 C 2316.43 0.10021 3.47556 0
M  V30 25541 H 2315.75 0.852279 3.9061 0
M  V30 25542 H 2317.19 -0.132161 4.23794 0
M  V30 25543 C 2315.65 -1.15894 3.16339 0
M  V30 25544 O 2316.18 -2.24549 3.33078 0
M  V30 25545 N 2314.38 -1.06486 2.70387 0
M  V30 25546 H 2313.93 -0.180623 2.56966 0
M  V30 25547 H 2313.89 -1.90815 2.49874 0
M  V30 25548 N 2317.66 -1.32267 0.856927 0
M  V30 25549 C 2318.89 -2.01897 0.474605 0
M  V30 25550 C 2319.31 -1.63968 -0.921738 0
M  V30 25551 O 2318.67 -0.841509 -1.60587 0
M  V30 25552 C 2318.72 -3.55162 0.623861 0
M  V30 25553 O 2317.82 -4.10976 -0.342387 0
M  V30 25554 H 2317.16 -0.636106 0.190433 0
M  V30 25555 H 2319.69 -1.68762 1.15675 0
M  V30 25556 H 2319.7 -4.04772 0.51224 0
M  V30 25557 H 2318.38 -3.8211 1.64209 0
M  V30 25558 H 2316.95 -3.72432 -0.186814 0
M  V30 25559 N 2319.14 -0.615084 -1.45102 0
M  V30 25560 C 2320.36 -0.118025 -2.07064 0
M  V30 25561 C 2320.79 1.1916 -1.45542 0
M  V30 25562 O 2320.15 1.72728 -0.550885 0
M  V30 25563 C 2320.19 0.000225002 -3.606 0
M  V30 25564 O 2319.3 1.04849 -3.98849 0
M  V30 25565 H 2318.64 -0.0774697 -0.659465 0
M  V30 25566 H 2321.17 -0.847218 -1.86235 0
M  V30 25567 H 2321.18 0.196019 -4.07529 0
M  V30 25568 H 2319.85 -0.956003 -4.04763 0
M  V30 25569 H 2318.43 0.828555 -3.63579 0
M  V30 25570 N 2320.62 1.53557 -0.354678 0
M  V30 25571 C 2321.84 2.05982 0.242117 0
M  V30 25572 C 2322.27 1.22723 1.42551 0
M  V30 25573 O 2321.63 0.243635 1.79656 0
M  V30 25574 C 2321.67 3.55155 0.624304 0
M  V30 25575 O 2320.78 3.74684 1.72295 0
M  V30 25576 H 2320.12 0.662921 0.0378315 0
M  V30 25577 H 2322.65 1.98087 -0.512121 0
M  V30 25578 H 2322.66 3.97987 0.898363 0
M  V30 25579 H 2321.33 4.15201 -0.241062 0
M  V30 25580 H 2319.91 3.43753 1.44529 0
M  V30 25581 N 2322.1 0.083568 1.57378 0
M  V30 25582 C 2323.01 -0.893982 2.16899 0
M  V30 25583 C 2324.02 -1.31859 1.13531 0
M  V30 25584 O 2325.2 -1.38887 1.4585 0
M  V30 25585 C 2322.26 -2.13921 2.72835 0
M  V30 25586 C 2321.32 -1.7699 3.91118 0
M  V30 25587 C 2320.56 -2.95576 4.44377 0
M  V30 25588 O 2320.78 -4.09954 3.96603 0
M  V30 25589 O 2319.71 -2.7471 5.35554 0
M  V30 25590 H 2323.54 -0.417626 3.00815 0
M  V30 25591 H 2321.12 -0.140155 1.48741 0
M  V30 25592 H 2323.01 -2.86919 3.08635 0
M  V30 25593 H 2321.68 -2.60631 1.91972 0
M  V30 25594 H 2320.59 -1.01208 3.6015 0
M  V30 25595 H 2321.92 -1.35052 4.73309 0
M  V30 25596 N 2323.57 -1.5645 -0.190064 0
M  V30 25597 C 2324.52 -1.9584 -1.25498 0
M  V30 25598 C 2325.52 -0.844511 -1.46848 0
M  V30 25599 O 2326.72 -1.02954 -1.4765 0
M  V30 25600 H 2323.1 -0.622813 -0.421436 0
M  V30 25601 H 2325.07 -2.84637 -0.895771 0
M  V30 25602 C 2323.82 -2.31845 -2.5912 0
M  V30 25603 H 2323.14 -3.17087 -2.43508 0
M  V30 25604 H 2324.58 -2.63266 -3.32366 0
M  V30 25605 C 2323.04 -1.15492 -3.16486 0
M  V30 25606 O 2323.57 -0.432605 -3.99364 0
M  V30 25607 N 2321.77 -0.930397 -2.75303 0
M  V30 25608 H 2321.32 -1.51952 -2.08011 0
M  V30 25609 H 2321.28 -0.153689 -3.14024 0
M  V30 25610 N 2325.05 0.45796 -1.50799 0
M  V30 25611 C 2326.29 1.21876 -1.6409 0
M  V30 25612 C 2326.66 1.88968 -0.339881 0
M  V30 25613 O 2327.86 2.66533 -0.348348 0
M  V30 25614 C 2326.13 2.22455 -2.7973 0
M  V30 25615 S 2327.69 3.07298 -3.13231 0
M  V30 25616 H 2324.5 0.4136 -0.578322 0
M  V30 25617 H 2327.11 0.513612 -1.88633 0
M  V30 25618 H 2325.81 1.71769 -3.72725 0
M  V30 25619 H 2325.34 2.97579 -2.57313 0
M  V30 25620 H 2327.36 4.23809 -2.5807 0
M  V30 25621 N 2326.53 1.40598 0.712035 0
M  V30 25622 C 2327.48 1.37622 1.81781 0
M  V30 25623 C 2328.46 0.25319 1.58895 0
M  V30 25624 O 2329.66 0.492577 1.70008 0
M  V30 25625 C 2326.78 1.24468 3.19942 0
M  V30 25626 C 2325.87 2.41566 3.48578 0
M  V30 25627 N 2326.26 3.67047 3.48009 0
M  V30 25628 C 2324.56 2.35023 3.79052 0
M  V30 25629 C 2325.26 4.44616 3.75089 0
M  V30 25630 N 2324.24 3.74504 3.94015 0
M  V30 25631 H 2328.04 2.32578 1.79679 0
M  V30 25632 H 2325.55 1.3442 0.911316 0
M  V30 25633 H 2327.55 1.20418 3.99131 0
M  V30 25634 H 2326.21 0.304819 3.23266 0
M  V30 25635 H 2327.22 4.00159 3.28775 0
M  V30 25636 H 2323.9 1.49422 3.89845 0
M  V30 25637 H 2325.29 5.53486 3.80924 0
M  V30 25638 N 2328.01 -0.94462 1.26153 0
M  V30 25639 C 2328.94 -2.06017 1.09906 0
M  V30 25640 C 2329.92 -1.70099 0.00522528 0
M  V30 25641 O 2331.1 -1.93395 0.176617 0
M  V30 25642 C 2328.23 -3.39592 0.727622 0
M  V30 25643 C 2327.19 -3.89558 1.77281 0
M  V30 25644 C 2326.51 -5.19744 1.25578 0
M  V30 25645 C 2327.81 -4.14822 3.17365 0
M  V30 25646 H 2329.51 -2.19868 2.03221 0
M  V30 25647 H 2327.05 -1.0565 0.97847 0
M  V30 25648 H 2329.01 -4.17094 0.60085 0
M  V30 25649 H 2327.73 -3.25708 -0.241229 0
M  V30 25650 H 2326.39 -3.14234 1.88819 0
M  V30 25651 H 2326.04 -5.02237 0.276872 0
M  V30 25652 H 2325.74 -5.54144 1.95443 0
M  V30 25653 H 2327.26 -5.99833 1.14161 0
M  V30 25654 H 2328.68 -4.82949 3.08923 0
M  V30 25655 H 2327.07 -4.60497 3.84789 0
M  V30 25656 H 2328.14 -3.20728 3.63678 0
M  V30 25657 N 2329.49 -1.07901 -1.1487 0
M  V30 25658 C 2330.9 -0.827392 -1.67365 0
M  V30 25659 C 2331.25 0.64666 -1.85237 0
M  V30 25660 O 2330.37 1.50001 -1.55976 0
M  V30 25661 C 2330.97 -1.49537 -3.04013 0
M  V30 25662 C 2329.53 -1.29112 -3.53563 0
M  V30 25663 C 2328.67 -1.56147 -2.29158 0
M  V30 25664 H 2331.62 -1.2403 -0.990061 0
M  V30 25665 H 2331.65 -0.919708 -3.69218 0
M  V30 25666 H 2331.16 -2.56819 -2.90974 0
M  V30 25667 H 2329.26 -0.238778 -3.71834 0
M  V30 25668 H 2329.37 -2.01519 -4.34657 0
M  V30 25669 H 2327.74 -0.982758 -2.34976 0
M  V30 25670 H 2328.52 -2.64623 -2.187 0
M  V30 25671 N 2330.96 1.31811 -0.863929 0
M  V30 25672 C 2332.21 1.96536 -0.470938 0
M  V30 25673 C 2332.53 1.68658 0.978741 0
M  V30 25674 O 2331.8 0.998746 1.68529 0
M  V30 25675 H 2330.38 0.727127 -0.171161 0
M  V30 25676 H 2333.04 1.60727 -1.10239 0
M  V30 25677 H 2332.14 3.05805 -0.62367 0
M  V30 25678 N 2332.44 0.62277 1.44773 0
M  V30 25679 C 2333.69 0.121432 2.01334 0
M  V30 25680 C 2334 -1.26123 1.49507 0
M  V30 25681 O 2335.21 -1.85612 1.98142 0
M  V30 25682 C 2333.67 0.166362 3.59515 0
M  V30 25683 C 2333.27 1.54981 4.20339 0
M  V30 25684 C 2335.02 -0.278946 4.23583 0
M  V30 25685 C 2332.92 1.55031 5.70718 0
M  V30 25686 H 2331.85 0.0416304 0.75285 0
M  V30 25687 H 2334.51 0.780338 1.66081 0
M  V30 25688 H 2332.89 -0.559488 3.92028 0
M  V30 25689 H 2334.06 2.29858 3.99377 0
M  V30 25690 H 2332.38 1.93849 3.68526 0
M  V30 25691 H 2334.97 -0.29799 5.33869 0
M  V30 25692 H 2335.32 -1.30464 3.95329 0
M  V30 25693 H 2335.85 0.394132 3.95843 0
M  V30 25694 H 2332.59 2.55409 6.03694 0
M  V30 25695 H 2332.11 0.844349 5.93827 0
M  V30 25696 H 2333.79 1.28058 6.342 0
M  V30 25697 N 2333.92 -1.53367 0.362817 0
M  V30 25698 C 2334.88 -2.24274 -0.472639 0
M  V30 25699 C 2335.88 -1.24963 -1.01198 0
M  V30 25700 O 2337.07 -1.4926 -0.898168 0
M  V30 25701 C 2334.2 -2.97734 -1.66034 0
M  V30 25702 H 2335.4 -2.99536 0.147782 0
M  V30 25703 H 2332.95 -1.5588 0.114461 0
M  V30 25704 H 2333.69 -2.26708 -2.31892 0
M  V30 25705 H 2333.47 -3.70598 -1.28059 0
M  V30 25706 H 2334.96 -3.51645 -2.25246 0
M  V30 25707 N 2335.4 -0.091913 -1.57332 0
M  V30 25708 C 2336.63 0.581013 -1.98575 0
M  V30 25709 C 2337.04 1.61921 -0.970931 0
M  V30 25710 O 2336.4 1.82456 0.0398733 0
M  V30 25711 C 2336.45 1.23158 -3.39874 0
M  V30 25712 O 2336.17 0.234912 -4.3747 0
M  V30 25713 C 2337.67 1.99042 -3.96103 0
M  V30 25714 H 2334.89 0.156007 -0.652612 0
M  V30 25715 H 2337.44 -0.170261 -2.0379 0
M  V30 25716 H 2335.59 1.9338 -3.35683 0
M  V30 25717 H 2336 0.704089 -5.19753 0
M  V30 25718 H 2337.48 2.39925 -4.97132 0
M  V30 25719 H 2337.96 2.85501 -3.33745 0
M  V30 25720 H 2338.56 1.33642 -4.03757 0
M  V30 25721 N 2336.88 1.56548 0.181765 0
M  V30 25722 C 2338.1 1.85879 0.919987 0
M  V30 25723 C 2338.53 0.677052 1.75493 0
M  V30 25724 O 2337.88 -0.374025 1.774 0
M  V30 25725 C 2337.93 3.13545 1.78107 0
M  V30 25726 O 2337.04 2.95034 2.88147 0
M  V30 25727 H 2336.38 0.61169 0.258323 0
M  V30 25728 H 2338.91 2.03779 0.183056 0
M  V30 25729 H 2338.92 3.44682 2.18308 0
M  V30 25730 H 2337.59 3.99171 1.1677 0
M  V30 25731 H 2336.17 2.75226 2.51604 0
M  V30 25732 N 2338.35 -0.449957 1.5104 0
M  V30 25733 C 2339.58 -1.2214 1.6663 0
M  V30 25734 C 2339.99 -1.85786 0.357809 0
M  V30 25735 O 2339.34 -1.70952 -0.672394 0
M  V30 25736 C 2339.4 -2.35568 2.71566 0
M  V30 25737 C 2339.06 -1.92391 4.14529 0
M  V30 25738 C 2340.06 -1.43444 4.9972 0
M  V30 25739 C 2337.74 -2.00467 4.60563 0
M  V30 25740 C 2339.74 -1.03144 6.28999 0
M  V30 25741 C 2337.42 -1.59778 5.89843 0
M  V30 25742 C 2338.42 -1.11196 6.73887 0
M  V30 25743 O 2338.11 -0.710794 8.00751 0
M  V30 25744 H 2337.84 -0.374714 0.562642 0
M  V30 25745 H 2340.4 -0.541001 1.98147 0
M  V30 25746 H 2338.63 -3.06845 2.35336 0
M  V30 25747 H 2340.32 -2.97473 2.76161 0
M  V30 25748 H 2341.08 -1.3661 4.65363 0
M  V30 25749 H 2336.96 -2.37228 3.95277 0
M  V30 25750 H 2340.5 -0.651541 6.94551 0
M  V30 25751 H 2336.4 -1.66278 6.23716 0
M  V30 25752 H 2337.17 -0.83777 8.14201 0
M  V30 25753 N 2339.83 -1.40974 -0.704569 0
M  V30 25754 C 2341.08 -1.39847 -1.46455 0
M  V30 25755 C 2341.41 -0.00451012 -1.94499 0
M  V30 25756 O 2340.66 0.982027 -1.69277 0
M  V30 25757 C 2340.96 -2.34404 -2.69796 0
M  V30 25758 C 2340.63 -3.81433 -2.40458 0
M  V30 25759 C 2339.29 -4.21488 -2.32167 0
M  V30 25760 C 2341.64 -4.743 -2.16077 0
M  V30 25761 C 2338.97 -5.5243 -1.97579 0
M  V30 25762 C 2341.32 -6.05552 -1.83 0
M  V30 25763 C 2339.99 -6.44638 -1.73199 0
M  V30 25764 H 2339.26 -0.511735 -0.535918 0
M  V30 25765 H 2341.9 -1.73708 -0.806093 0
M  V30 25766 H 2340.21 -1.93765 -3.40532 0
M  V30 25767 H 2341.9 -2.30809 -3.27915 0
M  V30 25768 H 2338.49 -3.49703 -2.47801 0
M  V30 25769 H 2342.68 -4.44164 -2.21433 0
M  V30 25770 H 2337.93 -5.81605 -1.88537 0
M  V30 25771 H 2342.11 -6.77019 -1.63152 0
M  V30 25772 H 2339.74 -7.46016 -1.46166 0
M  V30 25773 N 2341.31 0.937917 -1.26653 0
M  V30 25774 C 2342.56 1.68698 -1.12556 0
M  V30 25775 C 2342.89 1.9138 0.329748 0
M  V30 25776 O 2342.16 1.49682 1.242 0
M  V30 25777 C 2342.45 3.05978 -1.89867 0
M  V30 25778 C 2342.3 2.90601 -3.43323 0
M  V30 25779 C 2343.62 4.06147 -1.69506 0
M  V30 25780 H 2340.74 0.612249 -0.410268 0
M  V30 25781 H 2343.38 1.0891 -1.55687 0
M  V30 25782 H 2341.53 3.57014 -1.5321 0
M  V30 25783 H 2343.2 2.46762 -3.89752 0
M  V30 25784 H 2341.45 2.26158 -3.70183 0
M  V30 25785 H 2342.12 3.87983 -3.92649 0
M  V30 25786 H 2344.59 3.64085 -2.01449 0
M  V30 25787 H 2343.47 5.0021 -2.2601 0
M  V30 25788 H 2343.73 4.37437 -0.640442 0
M  V30 25789 N 2342.79 1.08509 1.14296 0
M  V30 25790 C 2344.01 0.837035 1.89759 0
M  V30 25791 C 2344.44 -0.605196 1.78098 0
M  V30 25792 O 2343.8 -1.42418 1.1219 0
M  V30 25793 C 2343.84 1.26501 3.37683 0
M  V30 25794 O 2342.95 0.417587 4.1028 0
M  V30 25795 H 2342.29 0.303927 0.590359 0
M  V30 25796 H 2344.82 1.44679 1.44669 0
M  V30 25797 H 2344.83 1.24632 3.88498 0
M  V30 25798 H 2343.5 2.3154 3.45488 0
M  V30 25799 H 2342.08 0.499786 3.69536 0
M  V30 25800 N 2344.27 -1.31351 0.870907 0
M  V30 25801 C 2345.5 -2.00556 0.496085 0
M  V30 25802 C 2345.9 -1.65536 -0.916212 0
M  V30 25803 O 2345.25 -0.881163 -1.61187 0
M  V30 25804 C 2345.31 -3.5488 0.57448 0
M  V30 25805 C 2344.97 -4.13377 1.94856 0
M  V30 25806 C 2345.97 -4.30412 2.91618 0
M  V30 25807 C 2343.66 -4.49082 2.25013 0
M  V30 25808 C 2345.65 -4.82345 4.1668 0
M  V30 25809 C 2343.34 -5.00716 3.50324 0
M  V30 25810 C 2344.33 -5.17298 4.45973 0
M  V30 25811 O 2344.02 -5.67823 5.69062 0
M  V30 25812 H 2343.75 -0.648256 0.191676 0
M  V30 25813 H 2346.31 -1.68533 1.17412 0
M  V30 25814 H 2344.54 -3.86367 -0.160482 0
M  V30 25815 H 2346.23 -4.05341 0.21295 0
M  V30 25816 H 2346.99 -4.03144 2.69629 0
M  V30 25817 H 2342.87 -4.35451 1.5134 0
M  V30 25818 H 2346.42 -4.95203 4.91345 0
M  V30 25819 H 2342.31 -5.27418 3.72157 0
M  V30 25820 H 2343.08 -5.86191 5.71247 0
M  V30 25821 N 2345.74 -0.630439 -1.44441 0
M  V30 25822 C 2346.99 -0.132108 -2.01267 0
M  V30 25823 C 2347.31 1.25328 -1.50174 0
M  V30 25824 O 2348.51 1.84559 -1.99124 0
M  V30 25825 C 2346.97 -0.185425 -3.59422 0
M  V30 25826 C 2346.58 -1.57208 -4.19511 0
M  V30 25827 C 2348.32 0.256479 -4.23724 0
M  V30 25828 C 2346.23 -1.58055 -5.69888 0
M  V30 25829 H 2345.16 -0.0456224 -0.752618 0
M  V30 25830 H 2347.81 -0.789135 -1.65665 0
M  V30 25831 H 2346.19 0.53869 -3.92319 0
M  V30 25832 H 2347.36 -2.31973 -3.98152 0
M  V30 25833 H 2345.68 -1.95801 -3.67493 0
M  V30 25834 H 2348.28 0.269673 -5.3402 0
M  V30 25835 H 2348.62 1.28365 -3.96015 0
M  V30 25836 H 2349.15 -0.415119 -3.95628 0
M  V30 25837 H 2345.89 -2.58607 -6.02331 0
M  V30 25838 H 2345.41 -0.875829 -5.93371 0
M  V30 25839 H 2347.09 -1.31419 -6.33512 0
M  V30 25840 N 2347.22 1.53172 -0.370945 0
M  V30 25841 C 2348.47 2.00516 0.218214 0
M  V30 25842 C 2348.78 1.26218 1.49427 0
M  V30 25843 O 2349.99 1.64178 2.16236 0
M  V30 25844 C 2348.45 3.57207 0.439417 0
M  V30 25845 C 2348.05 4.40388 -0.822321 0
M  V30 25846 C 2349.8 4.12892 0.985939 0
M  V30 25847 C 2347.71 5.88643 -0.570407 0
M  V30 25848 H 2346.64 0.749157 0.0853201 0
M  V30 25849 H 2349.29 1.76823 -0.490514 0
M  V30 25850 H 2347.67 3.77076 1.20954 0
M  V30 25851 H 2348.84 4.32291 -1.59565 0
M  V30 25852 H 2347.16 3.95834 -1.29245 0
M  V30 25853 H 2349.75 5.21294 1.18982 0
M  V30 25854 H 2350.1 3.67823 1.94966 0
M  V30 25855 H 2350.63 3.96842 0.27585 0
M  V30 25856 H 2347.37 6.37998 -1.50461 0
M  V30 25857 H 2346.89 5.99575 0.164322 0
M  V30 25858 H 2348.57 6.46697 -0.197954 0
M  V30 25859 N 2348.7 0.100255 1.57281 0
M  V30 25860 C 2349.95 -0.56195 1.93714 0
M  V30 25861 C 2350.26 -1.69016 0.984522 0
M  V30 25862 O 2351.47 -2.41387 1.24277 0
M  V30 25863 C 2349.92 -1.051 3.44212 0
M  V30 25864 C 2349.53 0.0477415 4.47975 0
M  V30 25865 C 2351.28 -1.68564 3.89598 0
M  V30 25866 C 2349.18 -0.456952 5.89632 0
M  V30 25867 H 2348.11 -0.213688 0.723086 0
M  V30 25868 H 2350.76 0.177089 1.82643 0
M  V30 25869 H 2349.15 -1.84388 3.50452 0
M  V30 25870 H 2350.32 0.823412 4.53383 0
M  V30 25871 H 2348.64 0.587888 4.12229 0
M  V30 25872 H 2351.23 -2.07406 4.92836 0
M  V30 25873 H 2351.58 -2.55682 3.28531 0
M  V30 25874 H 2352.11 -0.958494 3.8608 0
M  V30 25875 H 2348.85 0.377731 6.54411 0
M  V30 25876 H 2348.37 -1.19951 5.87683 0
M  V30 25877 H 2350.05 -0.924258 6.40364 0
M  V30 25878 N 2350.18 -1.56643 -0.17346 0
M  V30 25879 C 2351.4 -1.86364 -0.910116 0
M  V30 25880 C 2351.83 -0.686349 -1.75131 0
M  V30 25881 O 2351.19 0.364612 -1.77596 0
M  V30 25882 C 2351.24 -3.14485 -1.76442 0
M  V30 25883 O 2350.34 -2.96558 -2.86579 0
M  V30 25884 H 2349.68 -0.613052 -0.255076 0
M  V30 25885 H 2352.21 -2.03874 -0.172247 0
M  V30 25886 H 2352.22 -3.45835 -2.16477 0
M  V30 25887 H 2350.9 -3.99785 -1.14651 0
M  V30 25888 H 2349.47 -2.76557 -2.50141 0
M  V30 25889 N 2351.66 0.44194 -1.51277 0
M  V30 25890 C 2352.9 1.19176 -1.63717 0
M  V30 25891 C 2353.23 1.91303 -0.351208 0
M  V30 25892 O 2352.49 1.84073 0.664492 0
M  V30 25893 C 2352.79 2.23681 -2.7875 0
M  V30 25894 C 2352.45 1.686 -4.18192 0
M  V30 25895 C 2351.11 1.533 -4.56128 0
M  V30 25896 C 2353.47 1.28053 -5.05225 0
M  V30 25897 C 2350.79 0.959215 -5.78806 0
M  V30 25898 C 2353.15 0.721052 -6.28477 0
M  V30 25899 C 2351.81 0.554923 -6.65189 0
M  V30 25900 H 2351.08 0.436095 -0.599084 0
M  V30 25901 H 2353.73 0.483477 -1.85296 0
M  V30 25902 H 2352.03 3.0053 -2.51374 0
M  V30 25903 H 2353.73 2.8151 -2.85575 0
M  V30 25904 H 2350.32 1.81483 -3.88281 0
M  V30 25905 H 2354.5 1.38695 -4.76526 0
M  V30 25906 H 2349.76 0.818223 -6.059 0
M  V30 25907 H 2353.93 0.398336 -6.9526 0
M  V30 25908 H 2351.56 0.108177 -7.60123 0
M  V30 25909 N 2353.14 1.41345 0.697083 0
M  V30 25910 C 2354.07 1.45845 1.8235 0
M  V30 25911 C 2355.05 0.317276 1.67115 0
M  V30 25912 O 2356.23 0.528507 1.8687 0
M  V30 25913 C 2353.36 1.33843 3.20474 0
M  V30 25914 C 2352.32 2.45756 3.50411 0
M  V30 25915 C 2351.64 2.18821 4.87874 0
M  V30 25916 C 2352.94 3.88097 3.4954 0
M  V30 25917 H 2354.64 2.40116 1.78842 0
M  V30 25918 H 2352.18 1.15573 0.859007 0
M  V30 25919 H 2354.13 1.35603 3.98986 0
M  V30 25920 H 2352.86 0.360555 3.24604 0
M  V30 25921 H 2351.52 2.43276 2.74249 0
M  V30 25922 H 2351.17 1.1938 4.88628 0
M  V30 25923 H 2350.87 2.93812 5.0887 0
M  V30 25924 H 2352.39 2.22294 5.68698 0
M  V30 25925 H 2353.8 3.923 4.18059 0
M  V30 25926 H 2352.2 4.62758 3.82067 0
M  V30 25927 H 2353.27 4.16357 2.48545 0
M  V30 25928 N 2354.61 -0.931187 1.27148 0
M  V30 25929 C 2355.86 -1.673 1.12667 0
M  V30 25930 C 2356.18 -1.92836 -0.327685 0
M  V30 25931 O 2357.38 -2.64937 -0.593345 0
M  V30 25932 C 2355.84 -3.01303 1.96836 0
M  V30 25933 C 2355.45 -2.83478 3.46906 0
M  V30 25934 C 2357.19 -3.79107 1.90992 0
M  V30 25935 C 2355.1 -4.13016 4.23287 0
M  V30 25936 H 2354.03 -0.627501 0.418041 0
M  V30 25937 H 2356.68 -1.03478 1.5154 0
M  V30 25938 H 2355.06 -3.66162 1.50803 0
M  V30 25939 H 2356.23 -2.27408 4.00777 0
M  V30 25940 H 2354.55 -2.19107 3.54092 0
M  V30 25941 H 2357.15 -4.75094 2.45337 0
M  V30 25942 H 2357.49 -4.06832 0.88279 0
M  V30 25943 H 2358.02 -3.2104 2.34901 0
M  V30 25944 H 2354.76 -3.90471 5.2651 0
M  V30 25945 H 2354.28 -4.68763 3.74194 0
M  V30 25946 H 2355.96 -4.81403 4.32273 0
M  V30 25947 N 2356.09 -1.09114 -1.13719 0
M  V30 25948 C 2357.34 -0.826447 -1.85196 0
M  V30 25949 C 2357.67 0.646287 -1.8313 0
M  V30 25950 O 2356.95 1.47561 -1.26712 0
M  V30 25951 C 2357.23 -1.35818 -3.33505 0
M  V30 25952 C 2357.08 -2.89678 -3.44103 0
M  V30 25953 C 2358.4 -0.989332 -4.28836 0
M  V30 25954 H 2355.52 -0.301686 -0.672424 0
M  V30 25955 H 2358.16 -1.35199 -1.33496 0
M  V30 25956 H 2356.31 -0.911148 -3.77664 0
M  V30 25957 H 2357.98 -3.42806 -3.08678 0
M  V30 25958 H 2356.23 -3.26972 -2.85082 0
M  V30 25959 H 2356.9 -3.21959 -4.48382 0
M  V30 25960 H 2359.37 -1.37482 -3.92731 0
M  V30 25961 H 2358.25 -1.38848 -5.31049 0
M  V30 25962 H 2358.51 0.102846 -4.4198 0
M  V30 25963 N 2357.57 1.30887 -0.877861 0
M  V30 25964 C 2358.82 1.96705 -0.49346 0
M  V30 25965 C 2359.15 1.69182 0.953474 0
M  V30 25966 O 2358.42 0.992624 1.67264 0
M  V30 25967 C 2358.71 3.51978 -0.760491 0
M  V30 25968 C 2358.56 3.89044 -2.25753 0
M  V30 25969 C 2359.88 4.39487 -0.232226 0
M  V30 25970 H 2357 0.714489 -0.180759 0
M  V30 25971 H 2359.64 1.5488 -1.10055 0
M  V30 25972 H 2357.79 3.87734 -0.243783 0
M  V30 25973 H 2359.46 3.63349 -2.8421 0
M  V30 25974 H 2357.7 3.37368 -2.727 0
M  V30 25975 H 2358.38 4.97337 -2.395 0
M  V30 25976 H 2360.85 4.10599 -0.674386 0
M  V30 25977 H 2359.73 5.47065 -0.448451 0
M  V30 25978 H 2359.99 4.33531 0.86622 0
M  V30 25979 N 2359.05 0.638091 1.44105 0
M  V30 25980 C 2360 -0.074774 2.3248 0
M  V30 25981 C 2360.99 -0.828676 1.47748 0
M  V30 25982 O 2362.2 -0.740788 1.6405 0
M  V30 25983 H 2358.57 -0.0429554 0.750772 0
M  V30 25984 H 2360.54 0.688555 2.90347 0
M  V30 25985 C 2359.29 -1.03799 3.31845 0
M  V30 25986 H 2358.61 -0.467305 3.9706 0
M  V30 25987 H 2360.05 -1.50615 3.96347 0
M  V30 25988 C 2358.51 -2.12665 2.61295 0
M  V30 25989 O 2359.04 -3.20843 2.41708 0
M  V30 25990 N 2357.25 -1.88795 2.20918 0
M  V30 25991 H 2356.8 -1.00825 2.37049 0
M  V30 25992 H 2356.75 -2.61833 1.74042 0
M  V30 25993 N 2360.53 -1.52973 0.379063 0
M  V30 25994 C 2361.46 -2.22545 -0.504893 0
M  V30 25995 C 2362.44 -1.22233 -1.07228 0
M  V30 25996 O 2363.62 -1.51184 -1.12586 0
M  V30 25997 C 2360.75 -2.93069 -1.69789 0
M  V30 25998 C 2359.79 -4.07565 -1.25671 0
M  V30 25999 S 2360.63 -5.34931 -0.246758 0
M  V30 26000 C 2361.78 -6.08973 -1.44577 0
M  V30 26001 H 2362.02 -2.97176 0.0859188 0
M  V30 26002 H 2359.55 -1.53535 0.16321 0
M  V30 26003 H 2361.51 -3.34313 -2.38213 0
M  V30 26004 H 2360.17 -2.18137 -2.25998 0
M  V30 26005 H 2359.36 -4.55974 -2.14717 0
M  V30 26006 H 2358.96 -3.68281 -0.651519 0
M  V30 26007 H 2361.25 -6.34523 -2.37458 0
M  V30 26008 H 2362.2 -7.00963 -1.0028 0
M  V30 26009 H 2362.61 -5.39604 -1.65794 0
M  V30 26010 N 2362 -0.108595 -1.57225 0
M  V30 26011 C 2363.23 0.559107 -1.98891 0
M  V30 26012 C 2363.64 1.6142 -0.986918 0
M  V30 26013 O 2362.98 1.83676 0.0298382 0
M  V30 26014 C 2363.05 1.25309 -3.36954 0
M  V30 26015 C 2362.71 0.347168 -4.55679 0
M  V30 26016 C 2363.71 -0.410087 -5.1828 0
M  V30 26017 C 2361.39 0.261279 -5.0162 0
M  V30 26018 C 2363.39 -1.24107 -6.25201 0
M  V30 26019 C 2361.07 -0.573345 -6.08404 0
M  V30 26020 C 2362.07 -1.32316 -6.70061 0
M  V30 26021 O 2361.76 -2.14394 -7.74784 0
M  V30 26022 H 2361.49 0.153481 -0.658346 0
M  V30 26023 H 2364.05 -0.18862 -2.04532 0
M  V30 26024 H 2362.28 2.04767 -3.28036 0
M  V30 26025 H 2363.96 1.81666 -3.62977 0
M  V30 26026 H 2364.73 -0.353542 -4.8371 0
M  V30 26027 H 2360.61 0.834577 -4.53383 0
M  V30 26028 H 2364.15 -1.82681 -6.73256 0
M  V30 26029 H 2360.05 -0.631321 -6.42405 0
M  V30 26030 H 2360.82 -2.07223 -7.91834 0
M  V30 26031 N 2363.48 1.56732 0.16515 0
M  V30 26032 C 2364.73 1.81534 0.879111 0
M  V30 26033 C 2365.04 0.686874 1.83143 0
M  V30 26034 O 2366.25 0.819989 2.58821 0
M  V30 26035 C 2364.71 3.21689 1.61382 0
M  V30 26036 C 2364.31 4.42421 0.704826 0
M  V30 26037 C 2366.06 3.55778 2.31564 0
M  V30 26038 C 2363.96 5.73598 1.44012 0
M  V30 26039 H 2362.89 0.676963 0.332021 0
M  V30 26040 H 2365.55 1.83025 0.131976 0
M  V30 26041 H 2363.93 3.14533 2.40593 0
M  V30 26042 H 2365.1 4.60772 -0.0507625 0
M  V30 26043 H 2363.42 4.16248 0.112346 0
M  V30 26044 H 2366.01 4.51033 2.87182 0
M  V30 26045 H 2366.36 2.80956 3.07196 0
M  V30 26046 H 2366.89 3.64515 1.5929 0
M  V30 26047 H 2363.63 6.51467 0.726005 0
M  V30 26048 H 2363.15 5.59213 2.16888 0
M  V30 26049 H 2364.83 6.15767 1.98595 0
M  V30 26050 N 2364.96 -0.433911 1.51509 0
M  V30 26051 C 2365.92 -1.50946 1.72476 0
M  V30 26052 C 2366.92 -1.49397 0.594751 0
M  V30 26053 O 2368.11 -1.51358 0.862342 0
M  V30 26054 C 2365.24 -2.90471 1.78437 0
M  V30 26055 H 2366.44 -1.33658 2.68469 0
M  V30 26056 H 2363.99 -0.662811 1.4155 0
M  V30 26057 H 2364.73 -3.1316 0.8427 0
M  V30 26058 H 2364.51 -2.93 2.60563 0
M  V30 26059 H 2366 -3.68488 1.96485 0
M  V30 26060 N 2366.44 -1.41713 -0.689577 0
M  V30 26061 C 2367.68 -1.41602 -1.45179 0
M  V30 26062 C 2368.02 -0.0270422 -1.94181 0
M  V30 26063 O 2367.29 0.946235 -1.69931 0
M  V30 26064 C 2367.58 -2.42791 -2.65941 0
M  V30 26065 C 2367.43 -3.9082 -2.22665 0
M  V30 26066 C 2368.75 -2.41158 -3.68145 0
M  V30 26067 H 2365.87 -0.515651 -0.526567 0
M  V30 26068 H 2368.51 -1.73029 -0.784917 0
M  V30 26069 H 2366.66 -2.16122 -3.22837 0
M  V30 26070 H 2368.33 -4.28415 -1.7105 0
M  V30 26071 H 2366.57 -4.05397 -1.54387 0
M  V30 26072 H 2367.24 -4.57178 -3.09342 0
M  V30 26073 H 2369.72 -2.64839 -3.20935 0
M  V30 26074 H 2368.6 -3.13963 -4.50242 0
M  V30 26075 H 2368.86 -1.43228 -4.18256 0
M  V30 26076 N 2367.92 0.924431 -1.2764 0
M  V30 26077 C 2369.17 1.667 -1.13552 0
M  V30 26078 C 2369.48 1.93007 0.317453 0
M  V30 26079 O 2370.68 2.65248 0.579287 0
M  V30 26080 C 2369.14 3.00255 -1.98431 0
M  V30 26081 C 2368.75 2.81635 -3.48405 0
M  V30 26082 C 2370.49 3.78089 -1.93 0
M  V30 26083 C 2368.4 4.10766 -4.25471 0
M  V30 26084 H 2367.33 0.625276 -0.421362 0
M  V30 26085 H 2369.98 1.02673 -1.52087 0
M  V30 26086 H 2368.36 3.65357 -1.52743 0
M  V30 26087 H 2369.54 2.2528 -4.01977 0
M  V30 26088 H 2367.85 2.17226 -3.55249 0
M  V30 26089 H 2370.45 4.73786 -2.47853 0
M  V30 26090 H 2370.79 4.06358 -0.904352 0
M  V30 26091 H 2371.32 3.19789 -2.366 0
M  V30 26092 H 2368.06 3.87674 -5.28573 0
M  V30 26093 H 2367.58 4.66772 -3.76675 0
M  V30 26094 H 2369.26 4.79104 -4.3482 0
M  V30 26095 N 2369.39 1.09715 1.13139 0
M  V30 26096 C 2370.32 0.761141 2.20746 0
M  V30 26097 C 2371.31 -0.262537 1.68062 0
M  V30 26098 O 2372.49 -0.129943 1.93765 0
M  V30 26099 C 2369.62 0.184115 3.46812 0
M  V30 26100 C 2368.57 1.13764 4.12604 0
M  V30 26101 C 2367.9 0.422176 5.33031 0
M  V30 26102 C 2369.2 2.48127 4.59598 0
M  V30 26103 H 2370.89 1.66086 2.4911 0
M  V30 26104 H 2368.44 0.800008 1.19732 0
M  V30 26105 H 2370.39 -0.0630474 4.21353 0
M  V30 26106 H 2369.12 -0.750812 3.17853 0
M  V30 26107 H 2367.78 1.37013 3.40034 0
M  V30 26108 H 2367.42 -0.516984 5.00336 0
M  V30 26109 H 2367.12 1.05798 5.77997 0
M  V30 26110 H 2368.65 0.183385 6.10325 0
M  V30 26111 H 2370.06 2.29068 5.25548 0
M  V30 26112 H 2368.46 3.07523 5.15315 0
M  V30 26113 H 2369.53 3.08671 3.73965 0
M  V30 26114 N 2370.87 -1.30419 0.88479 0
M  V30 26115 C 2371.78 -2.31892 0.355439 0
M  V30 26116 C 2372.8 -1.65336 -0.542232 0
M  V30 26117 O 2373.97 -1.96637 -0.435397 0
M  V30 26118 C 2371.04 -3.44127 -0.421601 0
M  V30 26119 C 2370.1 -4.2631 0.505801 0
M  V30 26120 C 2369.33 -5.33186 -0.234249 0
M  V30 26121 O 2369.56 -5.51389 -1.46035 0
M  V30 26122 O 2368.49 -6.00464 0.415548 0
M  V30 26123 H 2372.32 -2.7912 1.1969 0
M  V30 26124 H 2369.9 -1.34586 0.64862 0
M  V30 26125 H 2371.78 -4.12498 -0.861568 0
M  V30 26126 H 2370.46 -2.99034 -1.23936 0
M  V30 26127 H 2369.37 -3.60637 0.994577 0
M  V30 26128 H 2370.7 -4.75006 1.28957 0
M  V30 26129 N 2372.35 -0.645724 -1.43764 0
M  V30 26130 C 2373.3 0.062444 -2.32516 0
M  V30 26131 C 2374.29 0.820829 -1.48185 0
M  V30 26132 O 2375.5 0.732077 -1.6444 0
M  V30 26133 H 2371.87 0.0389732 -0.750989 0
M  V30 26134 H 2373.84 -0.703943 -2.89978 0
M  V30 26135 C 2372.59 1.02038 -3.32391 0
M  V30 26136 H 2371.92 0.446242 -3.97302 0
M  V30 26137 H 2373.36 1.4851 -3.97141 0
M  V30 26138 C 2371.82 2.11276 -2.62419 0
M  V30 26139 O 2372.35 3.19556 -2.43406 0
M  V30 26140 N 2370.55 1.8762 -2.21917 0
M  V30 26141 H 2370.1 0.995661 -2.3758 0
M  V30 26142 H 2370.06 2.60907 -1.75428 0
M  V30 26143 N 2373.83 1.5277 -0.38717 0
M  V30 26144 C 2375.08 2.01552 0.1957 0
M  V30 26145 C 2375.4 1.27371 1.46993 0
M  V30 26146 O 2374.66 0.361913 1.92324 0
M  V30 26147 C 2374.96 3.53711 0.512147 0
M  V30 26148 C 2374.62 4.4589 -0.670281 0
M  V30 26149 C 2373.29 4.70808 -0.994669 0
M  V30 26150 C 2375.64 5.00292 -1.46143 0
M  V30 26151 C 2372.97 5.47376 -2.11179 0
M  V30 26152 C 2375.32 5.78082 -2.56913 0
M  V30 26153 C 2373.98 6.01278 -2.89863 0
M  V30 26154 H 2373.25 0.737532 0.0716117 0
M  V30 26155 H 2375.9 1.84189 -0.524079 0
M  V30 26156 H 2374.2 3.69136 1.31322 0
M  V30 26157 H 2375.9 3.88948 0.975736 0
M  V30 26158 H 2372.49 4.26659 -0.407441 0
M  V30 26159 H 2376.67 4.80968 -1.22405 0
M  V30 26160 H 2371.93 5.63563 -2.3708 0
M  V30 26161 H 2376.1 6.19238 -3.18619 0
M  V30 26162 H 2373.73 6.60392 -3.76545 0
M  V30 26163 N 2375.31 0.116931 1.57166 0
M  V30 26164 C 2376.25 -0.85138 2.16458 0
M  V30 26165 C 2377.25 -1.27684 1.11325 0
M  V30 26166 O 2378.45 -1.24882 1.29632 0
M  V30 26167 H 2374.83 -0.29266 0.692715 0
M  V30 26168 H 2376.8 -0.326797 2.96605 0
M  V30 26169 C 2375.55 -2.09241 2.77693 0
M  V30 26170 H 2374.87 -1.77396 3.58289 0
M  V30 26171 H 2376.31 -2.75004 3.22721 0
M  V30 26172 C 2374.77 -2.88082 1.74672 0
M  V30 26173 O 2375.3 -3.83394 1.19884 0
M  V30 26174 N 2373.51 -2.52035 1.44661 0
M  V30 26175 H 2373.05 -1.74596 1.89405 0
M  V30 26176 H 2373.01 -3.05083 0.759729 0
M  V30 26177 N 2376.78 -1.56818 -0.156836 0
M  V30 26178 C 2378.01 -1.86956 -0.886283 0
M  V30 26179 C 2378.43 -0.704006 -1.75183 0
M  V30 26180 O 2377.78 0.326521 -1.79555 0
M  V30 26181 C 2377.84 -3.16257 -1.75112 0
M  V30 26182 O 2377.56 -4.28321 -0.920461 0
M  V30 26183 C 2379.06 -3.59842 -2.58899 0
M  V30 26184 H 2376.28 -0.619928 -0.256769 0
M  V30 26185 H 2378.82 -2.0393 -0.152579 0
M  V30 26186 H 2376.98 -3.01066 -2.43799 0
M  V30 26187 H 2377.39 -5.02195 -1.51329 0
M  V30 26188 H 2378.86 -4.53178 -3.15172 0
M  V30 26189 H 2379.34 -2.84655 -3.34467 0
M  V30 26190 H 2379.95 -3.77693 -1.95519 0
M  V30 26191 N 2378.26 0.425871 -1.51737 0
M  V30 26192 C 2379.23 1.50029 -1.73274 0
M  V30 26193 C 2380.23 1.49079 -0.602665 0
M  V30 26194 O 2381.42 1.50899 -0.870357 0
M  V30 26195 C 2378.55 2.8952 -1.79975 0
M  V30 26196 H 2379.74 1.32232 -2.69174 0
M  V30 26197 H 2377.29 0.655295 -1.419 0
M  V30 26198 H 2378.03 3.12708 -0.859296 0
M  V30 26199 H 2377.81 2.91614 -2.62114 0
M  V30 26200 H 2379.3 3.67441 -1.98437 0
M  V30 26201 N 2379.74 1.42077 0.682052 0
M  V30 26202 C 2380.97 1.45542 1.47055 0
M  V30 26203 C 2381.38 0.064611 1.88689 0
M  V30 26204 O 2380.74 -0.919087 1.57668 0
M  V30 26205 C 2380.79 2.37613 2.72437 0
M  V30 26206 O 2380.51 3.71283 2.32552 0
M  V30 26207 C 2382.01 2.50024 3.66064 0
M  V30 26208 H 2379.23 0.495255 0.452728 0
M  V30 26209 H 2381.78 1.86512 0.838662 0
M  V30 26210 H 2379.93 1.99916 3.31832 0
M  V30 26211 H 2380.35 4.20521 3.13468 0
M  V30 26212 H 2381.82 3.18584 4.50786 0
M  V30 26213 H 2382.3 1.53579 4.11473 0
M  V30 26214 H 2382.9 2.88413 3.12567 0
M  V30 26215 N 2381.22 -0.917649 1.28129 0
M  V30 26216 C 2382.13 -2.05284 1.1356 0
M  V30 26217 C 2383.15 -1.73885 0.063122 0
M  V30 26218 O 2384.32 -1.9956 0.271634 0
M  V30 26219 C 2381.39 -3.37468 0.794735 0
M  V30 26220 C 2380.45 -3.825 1.94916 0
M  V30 26221 C 2379.68 -5.08377 1.62446 0
M  V30 26222 O 2379.9 -5.67867 0.537005 0
M  V30 26223 O 2378.84 -5.49026 2.46686 0
M  V30 26224 H 2382.66 -2.20491 2.08848 0
M  V30 26225 H 2380.25 -1.03843 1.07411 0
M  V30 26226 H 2382.13 -4.16838 0.618417 0
M  V30 26227 H 2380.81 -3.23445 -0.128524 0
M  V30 26228 H 2379.71 -3.03974 2.1806 0
M  V30 26229 H 2381.05 -4.01081 2.85298 0
M  V30 26230 N 2382.7 -1.10314 -1.12555 0
M  V30 26231 C 2383.61 -0.763181 -2.21839 0
M  V30 26232 C 2384.62 0.23877 -1.72354 0
M  V30 26233 O 2385.8 0.0778393 -2.0125 0
M  V30 26234 C 2382.86 -0.198693 -3.4613 0
M  V30 26235 C 2381.93 -1.25776 -4.10462 0
M  V30 26236 C 2381.16 -0.720113 -5.28819 0
M  V30 26237 O 2381.38 0.453893 -5.68591 0
M  V30 26238 O 2380.32 -1.47945 -5.83435 0
M  V30 26239 H 2384.14 -1.67536 -2.53309 0
M  V30 26240 H 2381.73 -0.878179 -1.20865 0
M  V30 26241 H 2383.61 0.112326 -4.2125 0
M  V30 26242 H 2382.28 0.686363 -3.1634 0
M  V30 26243 H 2381.19 -1.62162 -3.37127 0
M  V30 26244 H 2382.52 -2.11579 -4.44404 0
M  V30 26245 N 2384.18 1.29948 -0.891694 0
M  V30 26246 C 2385.4 2.00567 -0.527967 0
M  V30 26247 C 2385.83 1.66355 0.87794 0
M  V30 26248 O 2385.18 0.88379 1.583 0
M  V30 26249 C 2385.23 3.53383 -0.717807 0
M  V30 26250 O 2384.34 4.1174 0.233304 0
M  V30 26251 H 2383.68 0.630834 -0.207231 0
M  V30 26252 H 2386.21 1.65636 -1.20108 0
M  V30 26253 H 2386.22 4.03271 -0.619378 0
M  V30 26254 H 2384.89 3.77622 -1.74282 0
M  V30 26255 H 2383.47 3.72796 0.0880051 0
M  V30 26256 N 2385.65 0.653339 1.4342 0
M  V30 26257 C 2386.56 -0.0388153 2.34568 0
M  V30 26258 C 2387.58 -0.812043 1.53889 0
M  V30 26259 O 2388.76 -0.759261 1.8654 0
M  V30 26260 C 2385.82 -0.99321 3.32169 0
M  V30 26261 C 2384.88 -0.216902 4.28752 0
M  V30 26262 C 2384.11 -1.12584 5.2169 0
M  V30 26263 O 2384.34 -2.3651 5.19056 0
M  V30 26264 O 2383.27 -0.598179 5.9892 0
M  V30 26265 H 2387.1 0.711438 2.95249 0
M  V30 26266 H 2384.68 0.413527 1.43563 0
M  V30 26267 H 2386.56 -1.54169 3.92186 0
M  V30 26268 H 2385.24 -1.72369 2.7399 0
M  V30 26269 H 2384.15 0.375166 3.72214 0
M  V30 26270 H 2385.48 0.474011 4.89912 0
M  V30 26271 N 2387.13 -1.52563 0.395266 0
M  V30 26272 C 2388.41 -1.94086 -0.242873 0
M  V30 26273 C 2388.79 -1.33116 -1.63839 0
M  V30 26274 O 2388.14 -0.501568 -2.22927 0
M  V30 26275 C 2388.35 -3.48006 -0.263209 0
M  V30 26276 C 2389.69 -4.21772 -0.48928 0
M  V30 26277 O 2390.72 -3.54543 -0.343163 0
M  V30 26278 O 2389.58 -5.40961 -0.776074 0
M  V30 26279 H 2386.67 -0.812814 -0.152522 0
M  V30 26280 H 2389.22 -1.63619 0.450206 0
M  V30 26281 H 2387.99 -3.8473 0.714052 0
M  V30 26282 H 2387.61 -3.84794 -1.00096 0
M  V30 26283 N 2388.61 -0.125265 -1.57101 0
M  V30 26284 C 2390.02 0.39911 -1.82384 0
M  V30 26285 C 2390.37 1.66194 -1.04279 0
M  V30 26286 O 2389.5 2.14564 -0.281307 0
M  V30 26287 C 2390.09 0.730873 -3.30823 0
M  V30 26288 C 2388.65 1.19986 -3.56764 0
M  V30 26289 C 2387.8 0.211744 -2.7649 0
M  V30 26290 H 2390.75 -0.350304 -1.54786 0
M  V30 26291 H 2390.77 1.58769 -3.45793 0
M  V30 26292 H 2390.28 -0.188413 -3.87642 0
M  V30 26293 H 2388.38 2.13583 -3.05308 0
M  V30 26294 H 2388.5 1.14085 -4.65319 0
M  V30 26295 H 2386.86 0.700042 -2.44891 0
M  V30 26296 H 2387.64 -0.70075 -3.36072 0
M  V30 26297 N 2390.09 1.56899 0.148518 0
M  V30 26298 C 2391.02 2.01184 1.18521 0
M  V30 26299 C 2392 0.891148 1.44888 0
M  V30 26300 O 2393.18 1.15885 1.55834 0
M  V30 26301 C 2390.31 2.39116 2.51874 0
M  V30 26302 C 2389.27 3.54357 2.40031 0
M  V30 26303 C 2388.59 3.78098 3.78082 0
M  V30 26304 C 2389.89 4.87072 1.88568 0
M  V30 26305 H 2391.59 2.88038 0.816979 0
M  V30 26306 H 2389.13 1.38574 0.39155 0
M  V30 26307 H 2391.09 2.68698 3.24622 0
M  V30 26308 H 2389.81 1.49198 2.9053 0
M  V30 26309 H 2388.47 3.24939 1.69736 0
M  V30 26310 H 2388.12 2.85433 4.1417 0
M  V30 26311 H 2387.82 4.55651 3.7102 0
M  V30 26312 H 2389.34 4.10103 4.5238 0
M  V30 26313 H 2390.76 5.15381 2.51108 0
M  V30 26314 H 2389.15 5.68421 1.924 0
M  V30 26315 H 2390.22 4.77546 0.841276 0
M  V30 26316 N 2391.57 -0.417818 1.51961 0
M  V30 26317 C 2392.81 -1.16326 1.65265 0
M  V30 26318 C 2393.13 -1.91248 0.380667 0
M  V30 26319 O 2392.4 -1.8635 -0.604181 0
M  V30 26320 H 2390.98 -0.432403 0.609128 0
M  V30 26321 H 2393.65 -0.477129 1.8897 0
M  V30 26322 H 2392.74 -1.88212 2.48963 0
M  V30 26323 N 2393.04 -1.42436 -0.674508 0
M  V30 26324 C 2393.95 -1.4834 -1.81748 0
M  V30 26325 C 2394.97 -0.372129 -1.69974 0
M  V30 26326 O 2396.15 -0.623074 -1.9152 0
M  V30 26327 C 2393.21 -1.38367 -3.17892 0
M  V30 26328 C 2392.27 -2.59988 -3.41621 0
M  V30 26329 C 2391.5 -2.50481 -4.71269 0
M  V30 26330 O 2391.73 -1.54084 -5.49194 0
M  V30 26331 O 2390.66 -3.40619 -4.96248 0
M  V30 26332 H 2394.49 -2.44813 -1.79723 0
M  V30 26333 H 2392.07 -1.24204 -0.83029 0
M  V30 26334 H 2393.95 -1.35168 -3.99133 0
M  V30 26335 H 2392.63 -0.450201 -3.20554 0
M  V30 26336 H 2391.54 -2.68762 -2.60227 0
M  V30 26337 H 2392.87 -3.52235 -3.43789 0
M  V30 26338 N 2394.52 0.910841 -1.28614 0
M  V30 26339 C 2395.8 1.63977 -1.06635 0
M  V30 26340 C 2396.18 2.07404 0.393314 0
M  V30 26341 O 2395.53 1.82125 1.37996 0
M  V30 26342 C 2395.74 2.82906 -2.04365 0
M  V30 26343 C 2397.08 3.53856 -2.34672 0
M  V30 26344 O 2398.11 2.93059 -2.02472 0
M  V30 26345 O 2396.97 4.63434 -2.89639 0
M  V30 26346 H 2394.06 0.719492 -0.40775 0
M  V30 26347 H 2396.61 0.95989 -1.39944 0
M  V30 26348 H 2395.38 2.47931 -3.02731 0
M  V30 26349 H 2395 3.58606 -1.7172 0
M  V30 26350 N 2396 1.10909 1.11969 0
M  V30 26351 C 2397.28 0.766464 1.79957 0
M  V30 26352 C 2397.66 -0.746328 1.97467 0
M  V30 26353 O 2397.01 -1.67434 1.55494 0
M  V30 26354 C 2397.22 1.5232 3.14006 0
M  V30 26355 C 2398.56 1.6989 3.89131 0
M  V30 26356 O 2399.59 1.48698 3.23678 0
M  V30 26357 O 2398.45 2.05063 5.06568 0
M  V30 26358 H 2395.54 0.277076 0.779203 0
M  V30 26359 H 2398.09 1.21219 1.1876 0
M  V30 26360 H 2396.86 2.55254 2.96583 0
M  V30 26361 H 2396.48 1.07065 3.82914 0
M  V30 26362 N 2397.48 -1.29474 0.898573 0
M  V30 26363 C 2398.73 -1.95605 0.523916 0
M  V30 26364 C 2399.05 -1.70848 -0.929578 0
M  V30 26365 O 2398.31 -1.0137 -1.67399 0
M  V30 26366 C 2398.61 -3.49194 0.761459 0
M  V30 26367 C 2398.27 -3.94026 2.19214 0
M  V30 26368 C 2396.94 -4.05977 2.58333 0
M  V30 26369 C 2399.29 -4.1721 3.12386 0
M  V30 26370 C 2396.62 -4.38482 3.89808 0
M  V30 26371 C 2398.97 -4.51189 4.43408 0
M  V30 26372 C 2397.63 -4.61351 4.82402 0
M  V30 26373 H 2396.9 -0.71577 0.191714 0
M  V30 26374 H 2399.55 -1.54092 1.13702 0
M  V30 26375 H 2397.85 -3.91745 0.065431 0
M  V30 26376 H 2399.55 -3.98456 0.450974 0
M  V30 26377 H 2396.14 -3.85239 1.87853 0
M  V30 26378 H 2400.32 -4.07444 2.83378 0
M  V30 26379 H 2395.58 -4.44552 4.19742 0
M  V30 26380 H 2399.75 -4.68078 5.15631 0
M  V30 26381 H 2397.38 -4.86293 5.84315 0
M  V30 26382 N 2398.96 -0.660936 -1.43071 0
M  V30 26383 C 2400.23 -0.107052 -1.95307 0
M  V30 26384 C 2400.61 1.37481 -1.60194 0
M  V30 26385 O 2399.96 2.10413 -0.890986 0
M  V30 26386 C 2400.17 -0.361463 -3.47123 0
M  V30 26387 C 2401.52 -0.27053 -4.23737 0
M  V30 26388 O 2402.54 -0.294445 -3.54981 0
M  V30 26389 O 2401.4 -0.200833 -5.46131 0
M  V30 26390 H 2398.5 0.00516275 -0.826984 0
M  V30 26391 H 2401.04 -0.734708 -1.52971 0
M  V30 26392 H 2399.81 -1.38854 -3.65835 0
M  V30 26393 H 2399.44 0.298883 -3.96475 0
M  V30 26394 N 2400.43 1.52351 -0.403352 0
M  V30 26395 C 2401.68 2.00934 0.175632 0
M  V30 26396 C 2402 1.29359 1.46716 0
M  V30 26397 O 2403.2 1.68727 2.12705 0
M  V30 26398 C 2401.66 3.58059 0.363549 0
M  V30 26399 C 2401.27 4.38545 -0.915549 0
M  V30 26400 C 2403.01 4.1489 0.898137 0
M  V30 26401 C 2400.92 5.873 -0.695139 0
M  V30 26402 H 2399.85 0.750798 0.0694102 0
M  V30 26403 H 2402.5 1.75742 -0.52791 0
M  V30 26404 H 2400.88 3.79557 1.12928 0
M  V30 26405 H 2402.05 4.28809 -1.68698 0
M  V30 26406 H 2400.37 3.93004 -1.37612 0
M  V30 26407 H 2402.97 5.237 1.07898 0
M  V30 26408 H 2403.31 3.71876 1.8712 0
M  V30 26409 H 2403.84 3.97338 0.191612 0
M  V30 26410 H 2400.58 6.34663 -1.6396 0
M  V30 26411 H 2400.1 5.99789 0.0371062 0
M  V30 26412 H 2401.78 6.46132 -0.335084 0
M  V30 26413 N 2401.91 0.133594 1.57033 0
M  V30 26414 C 2403.16 -0.520843 1.95687 0
M  V30 26415 C 2403.49 -1.65748 1.01773 0
M  V30 26416 O 2402.74 -1.9565 0.0443539 0
M  V30 26417 C 2403.04 -1.08051 3.40676 0
M  V30 26418 C 2402.71 -0.0637107 4.50855 0
M  V30 26419 C 2401.37 0.215841 4.80716 0
M  V30 26420 C 2403.72 0.628441 5.17397 0
M  V30 26421 C 2401.05 1.19358 5.74431 0
M  V30 26422 C 2403.4 1.59491 6.12165 0
M  V30 26423 C 2402.07 1.8823 6.40411 0
M  V30 26424 H 2401.34 -0.19059 0.71607 0
M  V30 26425 H 2403.98 0.21759 1.9026 0
M  V30 26426 H 2402.29 -1.896 3.42869 0
M  V30 26427 H 2403.98 -1.59522 3.67904 0
M  V30 26428 H 2400.57 -0.29178 4.27606 0
M  V30 26429 H 2404.76 0.425649 4.94471 0
M  V30 26430 H 2400.01 1.42283 5.94614 0
M  V30 26431 H 2404.19 2.13683 6.62807 0
M  V30 26432 H 2401.82 2.64145 7.12833 0
M  V30 26433 N 2403.39 -1.56975 -0.140195 0
M  V30 26434 C 2404.62 -1.87613 -0.865148 0
M  V30 26435 C 2405.03 -0.720581 -1.74941 0
M  V30 26436 O 2404.37 0.31853 -1.80917 0
M  V30 26437 C 2404.43 -3.13034 -1.76776 0
M  V30 26438 C 2404.1 -4.44537 -1.05998 0
M  V30 26439 C 2405.09 -5.18275 -0.410676 0
M  V30 26440 C 2402.78 -4.91257 -1.04746 0
M  V30 26441 C 2404.77 -6.36942 0.241684 0
M  V30 26442 C 2402.46 -6.09846 -0.391287 0
M  V30 26443 C 2403.46 -6.82534 0.252149 0
M  V30 26444 O 2403.15 -7.9887 0.897897 0
M  V30 26445 H 2402.88 -0.625988 -0.255177 0
M  V30 26446 H 2405.43 -2.04952 -0.135617 0
M  V30 26447 H 2403.66 -2.91722 -2.53841 0
M  V30 26448 H 2405.35 -3.29863 -2.36527 0
M  V30 26449 H 2406.12 -4.83246 -0.41211 0
M  V30 26450 H 2402 -4.34599 -1.5377 0
M  V30 26451 H 2405.54 -6.93616 0.744497 0
M  V30 26452 H 2401.44 -6.44336 -0.387543 0
M  V30 26453 H 2402.21 -8.14579 0.800245 0
M  V30 26454 N 2404.87 0.409753 -1.5218 0
M  V30 26455 C 2405.78 1.52389 -1.78367 0
M  V30 26456 C 2406.79 1.60616 -0.669211 0
M  V30 26457 O 2407.97 1.77342 -0.954549 0
M  V30 26458 C 2405.04 2.8813 -1.92827 0
M  V30 26459 C 2404.1 2.89794 -3.1673 0
M  V30 26460 C 2403.33 4.19061 -3.3049 0
M  V30 26461 O 2403.55 5.12924 -2.49531 0
M  V30 26462 O 2402.49 4.27569 -4.23637 0
M  V30 26463 H 2406.31 1.33197 -2.72933 0
M  V30 26464 H 2403.9 0.595546 -1.37017 0
M  V30 26465 H 2405.78 3.6864 -2.04164 0
M  V30 26466 H 2404.45 3.07392 -1.0145 0
M  V30 26467 H 2403.36 2.0814 -3.10851 0
M  V30 26468 H 2404.69 2.75482 -4.07886 0
M  V30 26469 N 2406.35 1.42792 0.666944 0
M  V30 26470 C 2407.59 1.43893 1.42908 0
M  V30 26471 C 2407.93 0.0579313 1.94114 0
M  V30 26472 O 2407.2 -0.91908 1.71415 0
M  V30 26473 C 2407.48 2.46991 2.62044 0
M  V30 26474 C 2407.34 3.94313 2.16419 0
M  V30 26475 C 2408.66 2.46984 3.64262 0
M  V30 26476 H 2405.77 0.523963 0.518297 0
M  V30 26477 H 2408.42 1.74256 0.75729 0
M  V30 26478 H 2406.57 2.21231 3.19357 0
M  V30 26479 H 2408.24 4.31082 1.64213 0
M  V30 26480 H 2406.48 4.07802 1.47918 0
M  V30 26481 H 2407.15 4.62041 3.02029 0
M  V30 26482 H 2409.63 2.69911 3.16681 0
M  V30 26483 H 2408.5 3.21087 4.45191 0
M  V30 26484 H 2408.77 1.49864 4.15924 0
M  V30 26485 N 2407.82 -0.904008 1.29095 0
M  V30 26486 C 2409.07 -1.65674 1.17999 0
M  V30 26487 C 2409.43 -1.90541 -0.266782 0
M  V30 26488 O 2408.72 -1.50167 -1.18997 0
M  V30 26489 C 2408.91 -3.01301 1.9223 0
M  V30 26490 C 2408.74 -2.89672 3.43977 0
M  V30 26491 C 2407.51 -2.90672 4.13326 0
M  V30 26492 C 2409.71 -2.6702 4.39551 0
M  V30 26493 N 2407.69 -2.69733 5.51468 0
M  V30 26494 C 2409.06 -2.5502 5.65124 0
M  V30 26495 C 2411.12 -2.52094 4.29364 0
M  V30 26496 C 2409.82 -2.29614 6.81667 0
M  V30 26497 C 2411.85 -2.28069 5.45654 0
M  V30 26498 C 2411.21 -2.16831 6.70197 0
M  V30 26499 H 2407.31 -0.612029 0.48677 0
M  V30 26500 H 2409.89 -1.06685 1.62869 0
M  V30 26501 H 2408.06 -3.58358 1.49779 0
M  V30 26502 H 2409.79 -3.65653 1.73436 0
M  V30 26503 H 2406.55 -3.01794 3.64989 0
M  V30 26504 H 2406.97 -2.62329 6.24109 0
M  V30 26505 H 2411.62 -2.59528 3.33774 0
M  V30 26506 H 2409.33 -2.20918 7.77316 0
M  V30 26507 H 2412.92 -2.1737 5.39668 0
M  V30 26508 H 2411.8 -1.98497 7.58662 0
M  V30 26509 N 2409.3 -1.11501 -1.11379 0
M  V30 26510 C 2410.21 -0.786667 -2.21017 0
M  V30 26511 C 2411.23 0.220477 -1.72598 0
M  V30 26512 O 2412.4 0.0564897 -2.01321 0
M  V30 26513 C 2409.47 -0.235394 -3.459 0
M  V30 26514 C 2408.53 -1.30122 -4.09105 0
M  V30 26515 C 2407.76 -0.776161 -5.28026 0
M  V30 26516 O 2407.99 0.393561 -5.69041 0
M  V30 26517 O 2406.92 -1.54125 -5.81833 0
M  V30 26518 H 2410.75 -1.70213 -2.51518 0
M  V30 26519 H 2408.33 -0.890949 -1.19927 0
M  V30 26520 H 2410.21 0.067641 -4.21346 0
M  V30 26521 H 2408.89 0.652773 -3.1705 0
M  V30 26522 H 2407.8 -1.65728 -3.35388 0
M  V30 26523 H 2409.13 -2.1628 -4.42135 0
M  V30 26524 N 2410.78 1.28995 -0.905426 0
M  V30 26525 C 2411.73 2.2755 -0.385932 0
M  V30 26526 C 2412.7 1.57245 0.535085 0
M  V30 26527 O 2413.88 1.85195 0.459087 0
M  V30 26528 C 2411.02 3.43052 0.3754 0
M  V30 26529 C 2410.14 4.28127 -0.577167 0
M  V30 26530 C 2409.27 5.30817 0.201785 0
M  V30 26531 C 2408.31 6.0755 -0.744936 0
M  V30 26532 N 2407.45 7.021 -2.91531e-05 0
M  V30 26533 H 2412.29 2.71366 -1.23144 0
M  V30 26534 H 2409.82 1.33462 -0.618566 0
M  V30 26535 H 2411.78 4.08801 0.83292 0
M  V30 26536 H 2410.41 3.0025 1.18532 0
M  V30 26537 H 2409.46 3.62499 -1.15321 0
M  V30 26538 H 2410.78 4.81518 -1.30161 0
M  V30 26539 H 2409.93 6.0241 0.720245 0
M  V30 26540 H 2408.67 4.78172 0.959329 0
M  V30 26541 H 2407.67 5.34816 -1.27485 0
M  V30 26542 H 2408.9 6.62284 -1.5019 0
M  V30 26543 H 2406.85 6.51817 0.739676 0
M  V30 26544 H 2406.76 7.53074 -0.664453 0
M  V30 26545 H 2408.03 7.77904 0.498507 0
M  V30 26546 N 2412.26 0.668514 1.42719 0
M  V30 26547 C 2413.51 0.188176 2.01624 0
M  V30 26548 C 2413.83 -1.20315 1.52822 0
M  V30 26549 O 2413.09 -1.82039 0.718355 0
M  V30 26550 C 2413.39 0.164562 3.57021 0
M  V30 26551 C 2413.05 1.4997 4.25229 0
M  V30 26552 C 2411.72 1.86528 4.43577 0
M  V30 26553 C 2414.07 2.37929 4.63723 0
M  V30 26554 C 2411.4 3.10682 4.97688 0
M  V30 26555 C 2413.75 3.6139 5.19211 0
M  V30 26556 C 2412.41 3.98125 5.35773 0
M  V30 26557 H 2411.68 0.0688583 0.737794 0
M  V30 26558 H 2414.33 0.862255 1.7099 0
M  V30 26559 H 2412.63 -0.593011 3.87286 0
M  V30 26560 H 2414.33 -0.224201 4.00373 0
M  V30 26561 H 2410.92 1.20529 4.11304 0
M  V30 26562 H 2415.11 2.10972 4.49227 0
M  V30 26563 H 2410.36 3.39173 5.08696 0
M  V30 26564 H 2414.54 4.29753 5.47983 0
M  V30 26565 H 2412.16 4.94405 5.77467 0
M  V30 26566 N 2413.74 -1.52135 0.411426 0
M  V30 26567 C 2415.01 -1.94333 -0.222274 0
M  V30 26568 C 2415.39 -1.34847 -1.62418 0
M  V30 26569 O 2414.74 -0.525184 -2.22383 0
M  V30 26570 C 2414.95 -3.48266 -0.226284 0
M  V30 26571 C 2416.3 -4.22267 -0.444518 0
M  V30 26572 O 2417.32 -3.54887 -0.30554 0
M  V30 26573 O 2416.18 -5.41754 -0.718654 0
M  V30 26574 H 2413.28 -0.814386 -0.143892 0
M  V30 26575 H 2415.82 -1.63132 0.467535 0
M  V30 26576 H 2414.6 -3.83951 0.754818 0
M  V30 26577 H 2414.22 -3.85834 -0.960096 0
M  V30 26578 N 2415.22 -0.14192 -1.5696 0
M  V30 26579 C 2416.63 0.379743 -1.82797 0
M  V30 26580 C 2416.98 1.65078 -1.06036 0
M  V30 26581 O 2416.1 2.14253 -0.304049 0
M  V30 26582 C 2416.7 0.695744 -3.31579 0
M  V30 26583 C 2415.26 1.16195 -3.58016 0
M  V30 26584 C 2414.4 0.182406 -2.76699 0
M  V30 26585 H 2417.35 -0.366702 -1.54405 0
M  V30 26586 H 2417.38 1.55093 -3.47457 0
M  V30 26587 H 2416.89 -0.229517 -3.87421 0
M  V30 26588 H 2414.99 2.10333 -3.07556 0
M  V30 26589 H 2415.1 1.09143 -4.66502 0
M  V30 26590 H 2413.47 0.674029 -2.4562 0
M  V30 26591 H 2414.25 -0.736356 -3.3531 0
M  V30 26592 N 2416.69 1.57047 0.131868 0
M  V30 26593 C 2417.6 2.02678 1.18147 0
M  V30 26594 C 2418.62 0.94485 1.46112 0
M  V30 26595 O 2419.8 1.25544 1.57483 0
M  V30 26596 C 2416.86 2.41107 2.49135 0
M  V30 26597 C 2415.92 3.63322 2.28682 0
M  V30 26598 C 2415.15 3.99909 3.53424 0
M  V30 26599 O 2415.38 3.36981 4.60217 0
M  V30 26600 O 2414.31 4.9308 3.45189 0
M  V30 26601 H 2418.14 2.92307 0.824017 0
M  V30 26602 H 2415.72 1.45439 0.341719 0
M  V30 26603 H 2417.6 2.66617 3.26333 0
M  V30 26604 H 2416.28 1.54629 2.84379 0
M  V30 26605 H 2415.19 3.4298 1.49384 0
M  V30 26606 H 2416.52 4.50466 1.98347 0
M  V30 26607 N 2418.17 -0.401677 1.52395 0
M  V30 26608 C 2419.13 -1.47254 1.75639 0
M  V30 26609 C 2420.13 -1.48101 0.626306 0
M  V30 26610 O 2421.32 -1.49495 0.894253 0
M  V30 26611 C 2418.46 -2.8662 1.84558 0
M  V30 26612 H 2419.65 -1.27933 2.71244 0
M  V30 26613 H 2417.2 -0.632637 1.42924 0
M  V30 26614 H 2417.94 -3.11302 0.908937 0
M  V30 26615 H 2417.72 -2.87407 2.6672 0
M  V30 26616 H 2419.21 -3.64237 2.04257 0
M  V30 26617 N 2419.65 -1.43144 -0.659362 0
M  V30 26618 C 2420.88 -1.47863 -1.44721 0
M  V30 26619 C 2421.29 -0.0946217 -1.88563 0
M  V30 26620 O 2420.65 0.893887 -1.5911 0
M  V30 26621 C 2420.7 -2.41918 -2.68623 0
M  V30 26622 O 2420.42 -3.74936 -2.26616 0
M  V30 26623 C 2421.92 -2.55816 -3.6204 0
M  V30 26624 H 2419.14 -0.502395 -0.444792 0
M  V30 26625 H 2421.69 -1.87823 -0.808883 0
M  V30 26626 H 2419.84 -2.0517 -3.28609 0
M  V30 26627 H 2420.26 -4.25455 -3.06738 0
M  V30 26628 H 2421.73 -3.25715 -4.45661 0
M  V30 26629 H 2422.21 -1.60106 -4.08978 0
M  V30 26630 H 2422.81 -2.93349 -3.07939 0
M  V30 26631 N 2421.13 0.897149 -1.29572 0
M  V30 26632 C 2422.06 2.00679 -1.10727 0
M  V30 26633 C 2423.07 1.6271 -0.0540312 0
M  V30 26634 O 2424.26 1.75981 -0.298814 0
M  V30 26635 C 2421.36 3.32332 -0.66397 0
M  V30 26636 C 2420.53 3.98813 -1.79629 0
M  V30 26637 C 2419.59 5.08758 -1.34358 0
M  V30 26638 O 2418.62 5.31051 -2.04873 0
M  V30 26639 N 2419.82 5.80098 -0.215866 0
M  V30 26640 H 2422.59 2.174 -2.06295 0
M  V30 26641 H 2420.15 1.06949 -1.21546 0
M  V30 26642 H 2422.14 4.03232 -0.344366 0
M  V30 26643 H 2420.71 3.11964 0.19932 0
M  V30 26644 H 2419.93 3.21244 -2.28465 0
M  V30 26645 H 2421.22 4.39972 -2.55543 0
M  V30 26646 H 2420.62 5.64476 0.371992 0
M  V30 26647 H 2419.17 6.51785 0.0443562 0
M  V30 26648 N 2422.61 1.1209 1.10786 0
M  V30 26649 C 2423.85 0.873963 1.82669 0
M  V30 26650 C 2424.18 -0.600279 1.85005 0
M  V30 26651 O 2423.44 -1.45955 1.30367 0
M  V30 26652 C 2423.73 1.38932 3.29291 0
M  V30 26653 C 2423.4 2.87797 3.47108 0
M  V30 26654 C 2422.06 3.28445 3.51678 0
M  V30 26655 C 2424.41 3.83641 3.52801 0
M  V30 26656 C 2421.74 4.63652 3.59505 0
M  V30 26657 C 2424.09 5.18674 3.6216 0
M  V30 26658 C 2422.76 5.5887 3.64993 0
M  V30 26659 H 2422.03 0.319806 0.668435 0
M  V30 26660 H 2424.68 1.40047 1.3061 0
M  V30 26661 H 2422.98 0.78319 3.83892 0
M  V30 26662 H 2424.68 1.1745 3.83414 0
M  V30 26663 H 2421.27 2.55356 3.44225 0
M  V30 26664 H 2425.45 3.53334 3.48524 0
M  V30 26665 H 2420.71 4.94192 3.59978 0
M  V30 26666 H 2424.88 5.9277 3.65509 0
M  V30 26667 H 2422.51 6.63629 3.70811 0
M  V30 26668 N 2424.08 -1.28513 0.912254 0
M  V30 26669 C 2425.33 -1.94322 0.540538 0
M  V30 26670 C 2425.65 -1.72613 -0.920014 0
M  V30 26671 O 2426.85 -2.32631 -1.39982 0
M  V30 26672 C 2425.31 -3.48052 0.915865 0
M  V30 26673 C 2424.92 -3.78542 2.39604 0
M  V30 26674 C 2426.66 -4.20026 0.614662 0
M  V30 26675 C 2424.57 -5.25574 2.71157 0
M  V30 26676 H 2423.5 -0.727421 0.198431 0
M  V30 26677 H 2426.15 -1.46047 1.11097 0
M  V30 26678 H 2424.53 -3.95049 0.274238 0
M  V30 26679 H 2425.7 -3.42358 3.08428 0
M  V30 26680 H 2424.02 -3.19736 2.66755 0
M  V30 26681 H 2426.62 -5.28264 0.827094 0
M  V30 26682 H 2426.96 -4.13888 -0.447458 0
M  V30 26683 H 2427.49 -3.78801 1.21469 0
M  V30 26684 H 2424.23 -5.36788 3.76217 0
M  V30 26685 H 2423.75 -5.6296 2.0697 0
M  V30 26686 H 2425.43 -5.93298 2.58083 0
M  V30 26687 N 2425.56 -0.676073 -1.42362 0
M  V30 26688 C 2426.51 0.00146847 -2.308 0
M  V30 26689 C 2427.48 0.791418 -1.46034 0
M  V30 26690 O 2428.66 0.763409 -1.74862 0
M  V30 26691 C 2425.8 0.945861 -3.31885 0
M  V30 26692 C 2424.92 0.149599 -4.31741 0
M  V30 26693 C 2424.05 1.08986 -5.199 0
M  V30 26694 C 2423.09 0.285357 -6.11434 0
M  V30 26695 N 2422.23 1.17839 -6.9214 0
M  V30 26696 H 2427.07 -0.758505 -2.88185 0
M  V30 26697 H 2424.61 -0.385785 -1.41951 0
M  V30 26698 H 2426.56 1.50724 -3.89022 0
M  V30 26699 H 2425.19 1.67245 -2.76096 0
M  V30 26700 H 2424.25 -0.528425 -3.76712 0
M  V30 26701 H 2425.56 -0.474954 -4.96534 0
M  V30 26702 H 2424.71 1.72113 -5.81775 0
M  V30 26703 H 2423.45 1.74829 -4.55287 0
M  V30 26704 H 2422.46 -0.359114 -5.48626 0
M  V30 26705 H 2423.68 -0.369002 -6.78097 0
M  V30 26706 H 2421.63 1.82321 -6.30155 0
M  V30 26707 H 2421.54 0.60895 -7.53543 0
M  V30 26708 H 2422.81 1.79709 -7.58502 0
M  V30 26709 N 2427.04 1.51915 -0.419488 0
M  V30 26710 C 2428.27 2.06041 0.151879 0
M  V30 26711 C 2428.68 1.28858 1.38537 0
M  V30 26712 O 2428.02 0.336495 1.80592 0
M  V30 26713 C 2428.08 3.55158 0.557056 0
M  V30 26714 C 2427.75 4.53467 -0.567134 0
M  V30 26715 C 2428.74 4.99736 -1.43388 0
M  V30 26716 C 2426.43 4.96778 -0.74278 0
M  V30 26717 C 2428.42 5.87969 -2.46112 0
M  V30 26718 C 2426.11 5.84805 -1.77332 0
M  V30 26719 C 2427.11 6.30296 -2.63089 0
M  V30 26720 O 2426.8 7.16579 -3.64376 0
M  V30 26721 H 2426.53 0.675724 0.0193174 0
M  V30 26722 H 2429.08 1.96681 -0.592107 0
M  V30 26723 H 2427.31 3.6224 1.35348 0
M  V30 26724 H 2429 3.91882 1.05753 0
M  V30 26725 H 2429.77 4.66984 -1.30963 0
M  V30 26726 H 2425.65 4.60922 -0.0849117 0
M  V30 26727 H 2429.19 6.23398 -3.13082 0
M  V30 26728 H 2425.09 6.1697 -1.89784 0
M  V30 26729 H 2425.86 7.34715 -3.60744 0
M  V30 26730 N 2428.52 0.150242 1.56882 0
M  V30 26731 C 2429.74 -0.510148 2.01028 0
M  V30 26732 C 2430.17 -1.57414 1.02969 0
M  V30 26733 O 2429.53 -1.81299 0.00593344 0
M  V30 26734 C 2429.57 -1.08466 3.439 0
M  V30 26735 O 2428.68 -2.19942 3.48854 0
M  V30 26736 H 2428.02 -0.124439 0.652235 0
M  V30 26737 H 2430.55 0.24793 2.03092 0
M  V30 26738 H 2430.56 -1.41252 3.82769 0
M  V30 26739 H 2429.23 -0.305509 4.14776 0
M  V30 26740 H 2427.81 -1.8836 3.21831 0
M  V30 26741 N 2430 -1.57115 -0.123538 0
M  V30 26742 C 2430.96 -1.99078 -1.1358 0
M  V30 26743 C 2431.96 -0.88032 -1.34562 0
M  V30 26744 O 2433.15 -1.14646 -1.31156 0
M  V30 26745 C 2430.28 -2.32702 -2.49124 0
M  V30 26746 H 2431.47 -2.89707 -0.775236 0
M  V30 26747 H 2429.03 -1.51914 -0.367683 0
M  V30 26748 H 2429.76 -1.44939 -2.90109 0
M  V30 26749 H 2429.55 -3.13688 -2.35249 0
M  V30 26750 H 2431.04 -2.65924 -3.21985 0
M  V30 26751 N 2431.47 0.393589 -1.52606 0
M  V30 26752 C 2432.4 1.48705 -1.80025 0
M  V30 26753 C 2433.39 1.57107 -0.652023 0
M  V30 26754 O 2434.57 1.7213 -0.899161 0
M  V30 26755 C 2431.7 2.86367 -1.96497 0
M  V30 26756 C 2430.65 2.92808 -3.12166 0
M  V30 26757 C 2429.98 4.32874 -3.13885 0
M  V30 26758 C 2431.28 2.62872 -4.51326 0
M  V30 26759 H 2432.97 1.2601 -2.71591 0
M  V30 26760 H 2430.52 0.604755 -1.30686 0
M  V30 26761 H 2432.47 3.62864 -2.14261 0
M  V30 26762 H 2431.2 3.1039 -1.01616 0
M  V30 26763 H 2429.86 2.18759 -2.94177 0
M  V30 26764 H 2429.5 4.5393 -2.16695 0
M  V30 26765 H 2429.2 4.38105 -3.91583 0
M  V30 26766 H 2430.73 5.11284 -3.33798 0
M  V30 26767 H 2432.14 3.29088 -4.6944 0
M  V30 26768 H 2430.54 2.79459 -5.31058 0
M  V30 26769 H 2431.61 1.58234 -4.58356 0
M  V30 26770 N 2432.95 1.43492 0.651762 0
M  V30 26771 C 2434.18 1.48843 1.44431 0
M  V30 26772 C 2434.6 0.107988 1.8779 0
M  V30 26773 O 2433.96 -0.898574 1.57465 0
M  V30 26774 C 2434.01 2.44063 2.65453 0
M  V30 26775 O 2433.11 1.9279 3.64562 0
M  V30 26776 H 2432.45 0.503399 0.432996 0
M  V30 26777 H 2434.98 1.88421 0.797418 0
M  V30 26778 H 2434.99 2.61416 3.1325 0
M  V30 26779 H 2433.67 3.44344 2.33238 0
M  V30 26780 H 2432.25 1.85106 3.23713 0
M  V30 26781 N 2434.43 -0.890264 1.30046 0
M  V30 26782 C 2435.71 -1.6226 1.0923 0
M  V30 26783 C 2436.09 -2.08003 -0.360268 0
M  V30 26784 O 2435.44 -1.84297 -1.35081 0
M  V30 26785 C 2435.65 -2.79619 2.0884 0
M  V30 26786 C 2436.99 -3.50078 2.40272 0
M  V30 26787 O 2438.02 -2.898 2.07109 0
M  V30 26788 O 2436.88 -4.58768 2.96975 0
M  V30 26789 H 2433.97 -0.712914 0.419145 0
M  V30 26790 H 2436.52 -0.937504 1.41453 0
M  V30 26791 H 2435.29 -2.43083 3.06637 0
M  V30 26792 H 2434.91 -3.55828 1.77403 0
M  V30 26793 N 2435.91 -1.12676 -1.1019 0
M  V30 26794 C 2437.16 -0.883638 -1.82203 0
M  V30 26795 C 2437.48 0.590459 -1.85321 0
M  V30 26796 O 2436.74 1.45261 -1.3114 0
M  V30 26797 C 2437.04 -1.40676 -3.2855 0
M  V30 26798 C 2436.7 -2.89633 -3.45577 0
M  V30 26799 C 2435.37 -3.30305 -3.49931 0
M  V30 26800 C 2437.72 -3.85507 -3.50762 0
M  V30 26801 C 2435.05 -4.65552 -3.57041 0
M  V30 26802 C 2437.4 -5.20587 -3.59404 0
M  V30 26803 C 2436.06 -5.60798 -3.62024 0
M  V30 26804 H 2435.33 -0.323346 -0.66673 0
M  V30 26805 H 2437.98 -1.40738 -1.29866 0
M  V30 26806 H 2436.28 -0.803538 -3.83472 0
M  V30 26807 H 2437.98 -1.19482 -3.82786 0
M  V30 26808 H 2434.57 -2.57178 -3.42866 0
M  V30 26809 H 2438.75 -3.55177 -3.46645 0
M  V30 26810 H 2434.01 -4.96094 -3.57353 0
M  V30 26811 H 2438.18 -5.947 -3.62361 0
M  V30 26812 H 2435.81 -6.65586 -3.67286 0
M  V30 26813 N 2437.39 1.28028 -0.919057 0
M  V30 26814 C 2438.35 2.25389 -0.416221 0
M  V30 26815 C 2439.35 1.54068 0.460411 0
M  V30 26816 O 2440.54 1.72208 0.262714 0
M  V30 26817 C 2437.67 3.38514 0.402647 0
M  V30 26818 H 2438.86 2.71385 -1.27634 0
M  V30 26819 H 2436.42 1.39802 -0.698943 0
M  V30 26820 H 2437.15 2.97887 1.28194 0
M  V30 26821 H 2436.94 3.91449 -0.225767 0
M  V30 26822 H 2438.43 4.10899 0.745118 0
M  V30 26823 N 2438.86 0.683613 1.42002 0
M  V30 26824 C 2440.14 0.13811 1.95112 0
M  V30 26825 C 2440.52 -1.34915 1.62361 0
M  V30 26826 O 2439.87 -2.08969 0.924348 0
M  V30 26827 C 2440.08 0.416642 3.46504 0
M  V30 26828 C 2441.43 0.337908 4.23253 0
M  V30 26829 O 2442.45 0.350882 3.54468 0
M  V30 26830 O 2441.31 0.287692 5.45742 0
M  V30 26831 H 2438.4 0.0079945 0.826961 0
M  V30 26832 H 2440.95 0.758951 1.51783 0
M  V30 26833 H 2439.72 1.44657 3.6358 0
M  V30 26834 H 2439.35 -0.23577 3.969 0
M  V30 26835 N 2440.34 -1.5169 0.427538 0
M  V30 26836 C 2441.31 -2.26077 -0.377092 0
M  V30 26837 C 2442.31 -1.29142 -0.958066 0
M  V30 26838 O 2443.5 -1.52935 -0.834053 0
M  V30 26839 C 2440.63 -3.04508 -1.53256 0
M  V30 26840 H 2441.82 -2.98639 0.274693 0
M  V30 26841 H 2439.37 -1.55255 0.180472 0
M  V30 26842 H 2440.11 -2.36339 -2.22068 0
M  V30 26843 H 2439.89 -3.75696 -1.12226 0
M  V30 26844 H 2441.38 -3.60882 -2.10129 0
M  V30 26845 N 2441.82 -0.15856 -1.568 0
M  V30 26846 C 2442.75 0.77257 -2.20349 0
M  V30 26847 C 2443.73 1.24857 -1.1552 0
M  V30 26848 O 2444.92 1.30404 -1.43905 0
M  V30 26849 C 2442.05 2.00724 -2.83421 0
M  V30 26850 C 2441 1.66758 -3.94177 0
M  V30 26851 C 2440.33 2.97584 -4.44238 0
M  V30 26852 C 2441.63 0.905357 -5.14393 0
M  V30 26853 H 2443.32 0.242906 -2.98413 0
M  V30 26854 H 2440.87 0.115393 -1.43537 0
M  V30 26855 H 2442.82 2.66354 -3.26548 0
M  V30 26856 H 2441.54 2.56082 -2.02705 0
M  V30 26857 H 2440.2 1.03502 -3.51686 0
M  V30 26858 H 2439.85 3.50957 -3.60331 0
M  V30 26859 H 2439.55 2.75617 -5.1895 0
M  V30 26860 H 2441.08 3.64266 -4.90044 0
M  V30 26861 H 2442.49 1.46398 -5.54293 0
M  V30 26862 H 2440.89 0.785195 -5.94941 0
M  V30 26863 H 2441.96 -0.100753 -4.84795 0
M  V30 26864 N 2443.3 1.57178 0.115204 0
M  V30 26865 C 2444.71 1.74189 0.671939 0
M  V30 26866 C 2445.06 0.777809 1.80124 0
M  V30 26867 O 2444.19 -0.0483996 2.16346 0
M  V30 26868 C 2444.78 3.15852 1.22567 0
M  V30 26869 C 2443.34 3.34356 1.72866 0
M  V30 26870 C 2442.49 2.7005 0.629924 0
M  V30 26871 H 2445.44 1.58313 -0.11074 0
M  V30 26872 H 2445.46 3.17613 2.09529 0
M  V30 26873 H 2444.97 3.85996 0.40353 0
M  V30 26874 H 2443.07 2.6926 2.57545 0
M  V30 26875 H 2443.19 4.42545 1.83549 0
M  V30 26876 H 2441.55 2.3139 1.06446 0
M  V30 26877 H 2442.33 3.42821 -0.181302 0
M  V30 26878 N 2444.78 -0.38549 1.52813 0
M  V30 26879 C 2445.69 -1.49532 1.80769 0
M  V30 26880 C 2446.7 -1.59531 0.694679 0
M  V30 26881 O 2447.88 -1.75801 0.982642 0
M  V30 26882 C 2444.94 -2.85026 1.97386 0
M  V30 26883 C 2444.01 -2.84719 3.213 0
M  V30 26884 C 2443.24 -4.1375 3.37115 0
M  V30 26885 O 2443.46 -5.08889 2.57659 0
M  V30 26886 O 2442.4 -4.20775 4.30386 0
M  V30 26887 H 2446.22 -1.28838 2.75017 0
M  V30 26888 H 2443.81 -0.573673 1.37947 0
M  V30 26889 H 2445.69 -3.65345 2.10003 0
M  V30 26890 H 2444.36 -3.05739 1.06327 0
M  V30 26891 H 2443.27 -2.03168 3.14123 0
M  V30 26892 H 2444.6 -2.68958 4.12217 0
M  V30 26893 N 2446.26 -1.43835 -0.644143 0
M  V30 26894 C 2447.67 -1.40847 -1.22552 0
M  V30 26895 C 2448.02 -0.11715 -1.9585 0
M  V30 26896 O 2447.14 0.78305 -2.01736 0
M  V30 26897 C 2447.74 -2.55147 -2.22903 0
M  V30 26898 C 2446.3 -2.55395 -2.76497 0
M  V30 26899 C 2445.44 -2.32398 -1.51282 0
M  V30 26900 H 2448.39 -1.52605 -0.435604 0
M  V30 26901 H 2448.42 -2.27155 -3.05255 0
M  V30 26902 H 2447.93 -3.49116 -1.69527 0
M  V30 26903 H 2446.03 -1.6533 -3.33911 0
M  V30 26904 H 2446.14 -3.5346 -3.23423 0
M  V30 26905 H 2444.51 -1.8124 -1.78953 0
M  V30 26906 H 2445.29 -3.28465 -0.998279 0
M  V30 26907 N 2447.73 0.883355 -1.30517 0
M  V30 26908 C 2448.66 2.00538 -1.1961 0
M  V30 26909 C 2449.64 1.69881 -0.0863759 0
M  V30 26910 O 2450.83 1.92332 -0.268687 0
M  V30 26911 C 2447.96 3.35734 -0.888817 0
M  V30 26912 C 2446.91 3.80656 -1.95665 0
M  V30 26913 C 2446.24 5.13161 -1.50233 0
M  V30 26914 C 2447.54 3.99207 -3.36795 0
M  V30 26915 H 2449.23 2.09921 -2.13479 0
M  V30 26916 H 2446.78 1.00861 -1.02776 0
M  V30 26917 H 2448.73 4.13753 -0.799167 0
M  V30 26918 H 2447.46 3.26488 0.0855552 0
M  V30 26919 H 2446.12 3.04867 -2.03597 0
M  V30 26920 H 2445.76 5.00344 -0.51618 0
M  V30 26921 H 2445.46 5.44188 -2.21659 0
M  V30 26922 H 2446.99 5.93703 -1.4265 0
M  V30 26923 H 2448.4 4.6766 -3.31613 0
M  V30 26924 H 2446.8 4.41614 -4.06322 0
M  V30 26925 H 2447.87 3.03011 -3.78566 0
M  V30 26926 N 2449.21 1.13259 1.09591 0
M  V30 26927 C 2450.63 0.870447 1.33774 0
M  V30 26928 C 2450.83 -0.494891 1.95328 0
M  V30 26929 O 2449.88 -1.24177 2.19855 0
M  V30 26930 C 2451.2 1.99373 2.25102 0
M  V30 26931 C 2452.74 2.02562 2.38616 0
M  V30 26932 C 2453.22 3.14148 3.33279 0
M  V30 26933 N 2454.71 3.13647 3.40851 0
M  V30 26934 C 2455.45 3.96628 4.14094 0
M  V30 26935 N 2454.94 4.89619 4.90148 0
M  V30 26936 N 2456.73 3.84733 4.09801 0
M  V30 26937 H 2448.89 2.01217 0.680101 0
M  V30 26938 H 2451.15 0.876113 0.362118 0
M  V30 26939 H 2450.85 2.97804 1.87098 0
M  V30 26940 H 2450.73 1.90641 3.25478 0
M  V30 26941 H 2453.12 1.04745 2.75885 0
M  V30 26942 H 2453.2 2.15367 1.38025 0
M  V30 26943 H 2452.84 4.12203 2.96734 0
M  V30 26944 H 2452.77 2.98581 4.3377 0
M  V30 26945 H 2455.26 2.46287 2.8662 0
M  V30 26946 H 2455.57 5.49427 5.43461 0
M  V30 26947 H 2453.92 4.93626 4.89243 0
M  V30 26948 H 2457.11 3.11414 3.49484 0
M  V30 26949 H 2457.28 4.49632 4.66621 0
M  V30 26950 N 2450.69 -1.27539 0.925834 0
M  V30 26951 C 2451.94 -1.94738 0.566126 0
M  V30 26952 C 2452.27 -1.72604 -0.890026 0
M  V30 26953 O 2451.54 -1.05402 -1.63465 0
M  V30 26954 C 2451.83 -3.48913 0.890601 0
M  V30 26955 C 2451.68 -3.80398 2.40037 0
M  V30 26956 C 2453 -4.38322 0.395178 0
M  V30 26957 H 2450.12 -0.707288 0.207152 0
M  V30 26958 H 2452.76 -1.50689 1.15727 0
M  V30 26959 H 2450.91 -3.86562 0.38752 0
M  V30 26960 H 2452.58 -3.5255 2.975 0
M  V30 26961 H 2450.82 -3.27015 2.85033 0
M  V30 26962 H 2451.5 -4.88105 2.57793 0
M  V30 26963 H 2453.97 -4.07813 0.826312 0
M  V30 26964 H 2452.85 -5.45024 0.651181 0
M  V30 26965 H 2453.11 -4.36447 -0.704721 0
M  V30 26966 N 2452.17 -0.691135 -1.41637 0
M  V30 26967 C 2453.13 -0.0320188 -2.29178 0
M  V30 26968 C 2454.13 0.71247 -1.44154 0
M  V30 26969 O 2455.32 0.548024 -1.65355 0
M  V30 26970 C 2452.45 0.965104 -3.26953 0
M  V30 26971 H 2453.65 -0.802732 -2.88957 0
M  V30 26972 H 2451.2 -0.454382 -1.4955 0
M  V30 26973 H 2451.93 1.76374 -2.72145 0
M  V30 26974 H 2451.72 0.434454 -3.89686 0
M  V30 26975 H 2453.21 1.42421 -3.92563 0
M  V30 26976 N 2453.65 1.51461 -0.435577 0
M  V30 26977 C 2454.59 2.27704 0.376757 0
M  V30 26978 C 2455.56 1.3122 1.01835 0
M  V30 26979 O 2456.75 1.60121 1.03759 0
M  V30 26980 C 2453.89 3.12087 1.47296 0
M  V30 26981 C 2453 4.23562 0.849669 0
M  V30 26982 C 2452.14 4.95257 1.92077 0
M  V30 26983 C 2451.17 5.98656 1.27582 0
M  V30 26984 N 2450.31 6.63766 2.28821 0
M  V30 26985 H 2455.15 2.96684 -0.279787 0
M  V30 26986 H 2452.69 1.46335 -0.149821 0
M  V30 26987 H 2454.65 3.59334 2.11978 0
M  V30 26988 H 2453.28 2.45225 2.09915 0
M  V30 26989 H 2452.33 3.80291 0.091186 0
M  V30 26990 H 2453.64 4.97648 0.33879 0
M  V30 26991 H 2452.79 5.46044 2.64425 0
M  V30 26992 H 2451.53 4.20798 2.46537 0
M  V30 26993 H 2450.54 5.47163 0.537796 0
M  V30 26994 H 2451.76 6.75072 0.738574 0
M  V30 26995 H 2449.71 5.9212 2.82365 0
M  V30 26996 H 2449.63 7.33612 1.8262 0
M  V30 26997 H 2450.89 7.19184 3.00658 0
M  V30 26998 N 2455.12 0.166873 1.56714 0
M  V30 26999 C 2456.54 -0.350614 1.83378 0
M  V30 27000 C 2456.89 -1.6337 1.08649 0
M  V30 27001 O 2456.01 -2.13743 0.338096 0
M  V30 27002 C 2456.61 -0.642905 3.32644 0
M  V30 27003 C 2455.17 -1.10485 3.5982 0
M  V30 27004 C 2454.31 -0.138363 2.76955 0
M  V30 27005 H 2457.26 0.39122 1.53802 0
M  V30 27006 H 2457.28 -1.49545 3.49881 0
M  V30 27007 H 2456.8 0.291123 3.87007 0
M  V30 27008 H 2454.9 -2.05413 3.10864 0
M  V30 27009 H 2455.01 -1.01708 4.6818 0
M  V30 27010 H 2453.37 -0.634868 2.46661 0
M  V30 27011 H 2454.16 0.789608 3.34096 0
M  V30 27012 N 2456.6 -1.57237 -0.106866 0
M  V30 27013 C 2457.55 -2.02217 -1.1494 0
M  V30 27014 C 2458.54 -0.921165 -1.42165 0
M  V30 27015 O 2459.75 -1.10636 -1.41985 0
M  V30 27016 H 2456.13 -0.644276 -0.38783 0
M  V30 27017 H 2458.1 -2.88986 -0.743632 0
M  V30 27018 C 2456.85 -2.45255 -2.46466 0
M  V30 27019 H 2456.17 -3.29549 -2.26358 0
M  V30 27020 H 2457.61 -2.80514 -3.17944 0
M  V30 27021 C 2456.07 -1.32105 -3.09919 0
M  V30 27022 O 2456.6 -0.643691 -3.96509 0
M  V30 27023 N 2454.8 -1.07502 -2.69985 0
M  V30 27024 H 2454.35 -1.62764 -1.99664 0
M  V30 27025 H 2454.31 -0.319931 -3.12768 0
M  V30 27026 N 2458.08 0.377381 -1.53015 0
M  V30 27027 C 2459.03 1.46165 -1.78618 0
M  V30 27028 C 2460 1.53691 -0.629944 0
M  V30 27029 O 2461.18 1.69765 -0.870891 0
M  V30 27030 C 2458.32 2.83257 -1.97128 0
M  V30 27031 C 2457.44 2.84791 -3.24836 0
M  V30 27032 C 2456.57 4.13383 -3.33598 0
M  V30 27033 C 2455.61 4.09013 -4.55384 0
M  V30 27034 N 2454.75 5.29233 -4.61364 0
M  V30 27035 H 2459.59 1.23632 -2.71144 0
M  V30 27036 H 2457.12 0.599553 -1.34327 0
M  V30 27037 H 2459.08 3.62882 -2.05846 0
M  V30 27038 H 2457.71 3.04214 -1.07951 0
M  V30 27039 H 2456.76 1.97468 -3.25132 0
M  V30 27040 H 2458.08 2.77432 -4.14527 0
M  V30 27041 H 2457.23 5.01418 -3.41562 0
M  V30 27042 H 2455.97 4.23479 -2.41902 0
M  V30 27043 H 2454.97 3.19366 -4.47533 0
M  V30 27044 H 2456.2 4.00529 -5.48409 0
M  V30 27045 H 2454.14 5.39937 -3.72564 0
M  V30 27046 H 2454.06 5.23996 -5.44944 0
M  V30 27047 H 2455.33 6.19133 -4.73597 0
M  V30 27048 N 2459.56 1.44175 0.636506 0
M  V30 27049 C 2460.79 1.49929 1.42144 0
M  V30 27050 C 2461.2 0.121096 1.88812 0
M  V30 27051 O 2460.54 -0.882239 1.61128 0
M  V30 27052 C 2460.6 2.39753 2.67879 0
M  V30 27053 C 2460.27 3.87014 2.43042 0
M  V30 27054 C 2461.26 4.77688 2.05208 0
M  V30 27055 C 2458.95 4.31665 2.56848 0
M  V30 27056 C 2460.94 6.11012 1.81501 0
M  V30 27057 C 2458.63 5.65038 2.32756 0
M  V30 27058 C 2459.63 6.5453 1.9514 0
M  V30 27059 O 2459.31 7.85435 1.71312 0
M  V30 27060 H 2459.05 0.510997 0.442558 0
M  V30 27061 H 2461.6 1.89761 0.786125 0
M  V30 27062 H 2459.83 1.94838 3.34028 0
M  V30 27063 H 2461.52 2.36518 3.2987 0
M  V30 27064 H 2462.29 4.44465 1.94103 0
M  V30 27065 H 2458.16 3.62271 2.85098 0
M  V30 27066 H 2461.71 6.80824 1.52065 0
M  V30 27067 H 2457.61 5.97824 2.43469 0
M  V30 27068 H 2458.37 7.97179 1.85602 0
M  V30 27069 N 2461.04 -0.876421 1.30983 0
M  V30 27070 C 2461.97 -1.98892 1.13906 0
M  V30 27071 C 2462.98 -1.62604 0.0799101 0
M  V30 27072 O 2464.17 -1.75483 0.326773 0
M  V30 27073 C 2461.27 -3.31234 0.716757 0
M  V30 27074 C 2460.44 -3.95905 1.85951 0
M  V30 27075 C 2459.5 -5.06556 1.42434 0
M  V30 27076 O 2458.53 -5.27725 2.13296 0
M  V30 27077 N 2459.73 -5.79682 0.308127 0
M  V30 27078 H 2462.5 -2.1409 2.09727 0
M  V30 27079 H 2460.06 -1.05002 1.23232 0
M  V30 27080 H 2462.05 -4.02633 0.408473 0
M  V30 27081 H 2460.62 -3.12242 -0.149664 0
M  V30 27082 H 2459.84 -3.17569 2.33546 0
M  V30 27083 H 2461.13 -4.35851 2.6251 0
M  V30 27084 H 2460.52 -5.64996 -0.282141 0
M  V30 27085 H 2459.08 -6.51773 0.0593428 0
M  V30 27086 N 2462.51 -1.13839 -1.08989 0
M  V30 27087 C 2463.76 -0.902914 -1.81256 0
M  V30 27088 C 2464.09 0.57077 -1.85937 0
M  V30 27089 O 2463.34 1.43862 -1.32673 0
M  V30 27090 C 2463.64 -1.44153 -3.27039 0
M  V30 27091 C 2463.31 -2.93282 -3.42485 0
M  V30 27092 C 2461.97 -3.33998 -3.46408 0
M  V30 27093 C 2464.32 -3.89206 -3.46653 0
M  V30 27094 C 2461.65 -4.69313 -3.52083 0
M  V30 27095 C 2464 -5.2437 -3.53863 0
M  V30 27096 C 2462.67 -5.64606 -3.56056 0
M  V30 27097 H 2461.94 -0.3304 -0.663262 0
M  V30 27098 H 2464.58 -1.42107 -1.28366 0
M  V30 27099 H 2462.89 -0.844165 -3.82598 0
M  V30 27100 H 2464.59 -1.23535 -3.81497 0
M  V30 27101 H 2461.18 -2.608 -3.40119 0
M  V30 27102 H 2465.36 -3.58834 -3.42859 0
M  V30 27103 H 2460.62 -4.99856 -3.52071 0
M  V30 27104 H 2464.79 -5.9851 -3.56033 0
M  V30 27105 H 2462.42 -6.69444 -3.60206 0
M  V30 27106 N 2463.99 1.27046 -0.932584 0
M  V30 27107 C 2464.92 2.29065 -0.452942 0
M  V30 27108 C 2465.9 1.6291 0.48931 0
M  V30 27109 O 2467.09 1.90182 0.393013 0
M  V30 27110 C 2464.22 3.46082 0.290637 0
M  V30 27111 C 2463.17 4.24264 -0.564242 0
M  V30 27112 C 2462.5 5.33808 0.308793 0
M  V30 27113 C 2463.8 4.89146 -1.83121 0
M  V30 27114 H 2465.49 2.69435 -1.30557 0
M  V30 27115 H 2463.04 1.29525 -0.629224 0
M  V30 27116 H 2464.99 4.16555 0.63716 0
M  V30 27117 H 2463.72 3.04642 1.17733 0
M  V30 27118 H 2462.37 3.55544 -0.89354 0
M  V30 27119 H 2462.02 4.88609 1.19458 0
M  V30 27120 H 2461.72 5.87026 -0.259736 0
M  V30 27121 H 2463.25 6.07122 0.650777 0
M  V30 27122 H 2464.66 5.5188 -1.55246 0
M  V30 27123 H 2463.06 5.52444 -2.34363 0
M  V30 27124 H 2464.13 4.12572 -2.5478 0
M  V30 27125 N 2465.47 0.698636 1.41269 0
M  V30 27126 C 2466.72 0.231243 2.01477 0
M  V30 27127 C 2467.05 -1.1671 1.55217 0
M  V30 27128 O 2466.32 -1.78837 0.764703 0
M  V30 27129 C 2466.61 0.292344 3.58911 0
M  V30 27130 C 2466.46 1.72785 4.15289 0
M  V30 27131 C 2467.78 -0.346117 4.38737 0
M  V30 27132 H 2464.9 0.0855006 0.732024 0
M  V30 27133 H 2467.54 0.887936 1.67975 0
M  V30 27134 H 2465.69 -0.266792 3.87583 0
M  V30 27135 H 2467.36 2.34107 3.97482 0
M  V30 27136 H 2465.61 2.26103 3.70216 0
M  V30 27137 H 2466.28 1.72211 5.24449 0
M  V30 27138 H 2468.75 0.130108 4.15897 0
M  V30 27139 H 2467.63 -0.272836 5.48222 0
M  V30 27140 H 2467.89 -1.42727 4.18427 0
M  V30 27141 N 2466.95 -1.51228 0.443603 0
M  V30 27142 C 2467.88 -2.24486 -0.41005 0
M  V30 27143 C 2468.86 -1.26671 -1.01947 0
M  V30 27144 O 2470.04 -1.55823 -1.06072 0
M  V30 27145 C 2467.17 -3.00006 -1.57206 0
M  V30 27146 C 2466.22 -4.12528 -1.08272 0
M  V30 27147 S 2467.05 -5.35496 -0.0196535 0
M  V30 27148 C 2468.21 -6.14557 -1.18619 0
M  V30 27149 H 2468.44 -2.96544 0.211884 0
M  V30 27150 H 2465.97 -1.52705 0.228182 0
M  V30 27151 H 2467.93 -3.44115 -2.23819 0
M  V30 27152 H 2466.59 -2.27526 -2.16543 0
M  V30 27153 H 2465.78 -4.64671 -1.95185 0
M  V30 27154 H 2465.39 -3.70713 -0.494732 0
M  V30 27155 H 2467.68 -6.44024 -2.10332 0
M  V30 27156 H 2468.62 -7.04586 -0.704596 0
M  V30 27157 H 2469.03 -5.4615 -1.42759 0
M  V30 27158 N 2468.43 -0.175182 -1.56623 0
M  V30 27159 C 2469.7 0.51534 -1.88689 0
M  V30 27160 C 2470.08 1.81042 -1.08567 0
M  V30 27161 O 2469.43 2.27784 -0.180743 0
M  V30 27162 C 2469.64 0.753492 -3.40769 0
M  V30 27163 C 2470.99 1.08177 -4.10588 0
M  V30 27164 O 2472.01 0.8419 -3.46108 0
M  V30 27165 O 2470.87 1.5345 -5.24514 0
M  V30 27166 H 2467.97 0.266116 -0.783014 0
M  V30 27167 H 2470.51 -0.213907 -1.68346 0
M  V30 27168 H 2469.28 -0.161898 -3.90965 0
M  V30 27169 H 2468.91 1.53592 -3.66736 0
M  V30 27170 N 2469.91 1.57292 0.0985263 0
M  V30 27171 C 2470.84 2.04853 1.1206 0
M  V30 27172 C 2471.82 0.936792 1.4198 0
M  V30 27173 O 2473 1.20784 1.52069 0
M  V30 27174 C 2470.13 2.47008 2.4414 0
M  V30 27175 C 2469.09 3.61814 2.28636 0
M  V30 27176 C 2468.41 3.89935 3.65862 0
M  V30 27177 C 2469.71 4.92825 1.72977 0
M  V30 27178 H 2471.41 2.90491 0.724928 0
M  V30 27179 H 2468.95 1.3975 0.347266 0
M  V30 27180 H 2470.9 2.78889 3.15909 0
M  V30 27181 H 2469.63 1.58365 2.85636 0
M  V30 27182 H 2468.29 3.30174 1.59312 0
M  V30 27183 H 2467.94 2.98465 4.0488 0
M  V30 27184 H 2467.64 4.67224 3.56336 0
M  V30 27185 H 2469.16 4.24288 4.39104 0
M  V30 27186 H 2470.57 5.23109 2.34584 0
M  V30 27187 H 2468.97 5.74254 1.74219 0
M  V30 27188 H 2470.04 4.79981 0.688922 0
M  V30 27189 N 2471.38 -0.369261 1.53213 0
M  V30 27190 C 2472.79 -0.946248 1.60944 0
M  V30 27191 C 2473.15 -1.90374 0.474554 0
M  V30 27192 O 2472.27 -2.12679 -0.399559 0
M  V30 27193 C 2472.87 -1.72297 2.91718 0
M  V30 27194 C 2471.42 -2.24936 3.01796 0
M  V30 27195 C 2470.57 -1.06067 2.56213 0
M  V30 27196 H 2473.52 -0.14817 1.58007 0
M  V30 27197 H 2473.54 -2.58388 2.79313 0
M  V30 27198 H 2473.06 -1.02583 3.74297 0
M  V30 27199 H 2471.16 -2.97902 2.23797 0
M  V30 27200 H 2471.27 -2.53069 4.06808 0
M  V30 27201 H 2469.63 -1.42656 2.11001 0
M  V30 27202 H 2470.42 -0.378579 3.41206 0
M  V30 27203 N 2472.86 -1.4451 -0.628851 0
M  V30 27204 C 2473.79 -1.46022 -1.75365 0
M  V30 27205 C 2474.77 -0.318815 -1.59444 0
M  V30 27206 O 2475.96 -0.516131 -1.81296 0
M  V30 27207 C 2473.08 -1.29506 -3.12963 0
M  V30 27208 C 2472.13 -2.47239 -3.47527 0
M  V30 27209 S 2472.96 -4.09764 -3.44751 0
M  V30 27210 C 2474.12 -3.95676 -4.84966 0
M  V30 27211 H 2474.35 -2.41196 -1.73816 0
M  V30 27212 H 2471.88 -1.31836 -0.803663 0
M  V30 27213 H 2473.84 -1.20664 -3.92365 0
M  V30 27214 H 2472.5 -0.358396 -3.12049 0
M  V30 27215 H 2471.7 -2.31552 -4.4766 0
M  V30 27216 H 2471.3 -2.52832 -2.75593 0
M  V30 27217 H 2473.59 -3.59506 -5.74249 0
M  V30 27218 H 2474.53 -4.95647 -5.05707 0
M  V30 27219 H 2474.94 -3.27696 -4.59647 0
M  V30 27220 N 2474.34 0.869463 -1.31446 0
M  V30 27221 C 2475.59 1.62494 -1.2134 0
M  V30 27222 C 2475.92 1.92859 0.227838 0
M  V30 27223 O 2475.19 1.56055 1.16091 0
M  V30 27224 C 2475.48 2.95483 -2.05819 0
M  V30 27225 C 2475.33 2.71994 -3.58245 0
M  V30 27226 C 2476.65 3.96591 -1.90797 0
M  V30 27227 H 2473.77 0.589641 -0.442145 0
M  V30 27228 H 2476.41 1.00505 -1.61241 0
M  V30 27229 H 2474.56 3.48391 -1.71919 0
M  V30 27230 H 2476.23 2.25755 -4.02284 0
M  V30 27231 H 2474.47 2.06217 -3.8165 0
M  V30 27232 H 2475.15 3.66624 -4.12663 0
M  V30 27233 H 2477.62 3.52894 -2.20465 0
M  V30 27234 H 2476.5 4.87527 -2.52208 0
M  V30 27235 H 2476.76 4.33427 -0.871417 0
M  V30 27236 N 2475.82 1.14415 1.08383 0
M  V30 27237 C 2477.04 0.936445 1.85055 0
M  V30 27238 C 2477.47 -0.509939 1.81056 0
M  V30 27239 O 2476.83 -1.36271 1.19582 0
M  V30 27240 C 2476.87 1.44223 3.30503 0
M  V30 27241 O 2475.98 0.63448 4.0749 0
M  V30 27242 H 2475.32 0.334794 0.573419 0
M  V30 27243 H 2477.85 1.52144 1.36797 0
M  V30 27244 H 2477.86 1.4505 3.81346 0
M  V30 27245 H 2476.53 2.49528 3.32729 0
M  V30 27246 H 2475.11 0.694967 3.66367 0
M  V30 27247 N 2477.3 -1.26549 0.939309 0
M  V30 27248 C 2478.21 -2.30176 0.453473 0
M  V30 27249 C 2479.22 -1.67487 -0.47162 0
M  V30 27250 O 2480.4 -1.98307 -0.351605 0
M  V30 27251 C 2477.46 -3.45606 -0.275265 0
M  V30 27252 C 2476.52 -4.23781 0.686159 0
M  V30 27253 C 2475.76 -5.33699 -0.00789613 0
M  V30 27254 O 2475.98 -5.57087 -1.22518 0
M  V30 27255 O 2474.91 -5.98161 0.669851 0
M  V30 27256 H 2478.74 -2.73792 1.31421 0
M  V30 27257 H 2476.32 -1.31713 0.705119 0
M  V30 27258 H 2478.21 -4.15781 -0.685838 0
M  V30 27259 H 2476.88 -3.04022 -1.11142 0
M  V30 27260 H 2475.79 -3.56094 1.14664 0
M  V30 27261 H 2477.12 -4.69109 1.48987 0
M  V30 27262 N 2478.77 -0.706118 -1.40896 0
M  V30 27263 C 2480.05 -0.169133 -1.94867 0
M  V30 27264 C 2480.43 1.32315 -1.64487 0
M  V30 27265 O 2479.78 2.07472 -0.957476 0
M  V30 27266 C 2479.99 -0.471715 -3.45797 0
M  V30 27267 C 2481.34 -0.405202 -4.22662 0
M  V30 27268 O 2482.36 -0.40723 -3.53864 0
M  V30 27269 O 2481.22 -0.374479 -5.45215 0
M  V30 27270 H 2478.31 -0.0211497 -0.82673 0
M  V30 27271 H 2480.86 -0.783002 -1.50556 0
M  V30 27272 H 2479.63 -1.50423 -3.61232 0
M  V30 27273 H 2479.25 0.172596 -3.97225 0
M  V30 27274 N 2480.25 1.50991 -0.451617 0
M  V30 27275 C 2481.67 1.59256 -0.104675 0
M  V30 27276 C 2481.87 1.46142 1.38725 0
M  V30 27277 O 2480.92 1.30993 2.15863 0
M  V30 27278 C 2482.24 2.93864 -0.63752 0
M  V30 27279 C 2483.78 3.07211 -0.59922 0
M  V30 27280 C 2484.26 4.44364 -1.10928 0
M  V30 27281 N 2485.75 4.50723 -1.06786 0
M  V30 27282 C 2486.49 5.55199 -1.43324 0
M  V30 27283 N 2485.98 6.67025 -1.87216 0
M  V30 27284 N 2487.77 5.45635 -1.3505 0
M  V30 27285 H 2479.93 1.57759 -1.42217 0
M  V30 27286 H 2482.19 0.744454 -0.586934 0
M  V30 27287 H 2481.89 3.08876 -1.68192 0
M  V30 27288 H 2481.77 3.77135 -0.0702802 0
M  V30 27289 H 2484.16 2.91858 0.436226 0
M  V30 27290 H 2484.24 2.25745 -1.20303 0
M  V30 27291 H 2483.88 4.60464 -2.14326 0
M  V30 27292 H 2483.81 5.24391 -0.481865 0
M  V30 27293 H 2486.3 3.70469 -0.745708 0
M  V30 27294 H 2486.61 7.42782 -2.13295 0
M  V30 27295 H 2484.96 6.68195 -1.91154 0
M  V30 27296 H 2488.15 4.57159 -1.00615 0
M  V30 27297 H 2488.32 6.26942 -1.63852 0
M  V30 27298 N 2481.73 0.183486 1.56528 0
M  V30 27299 C 2482.66 -0.737417 2.2155 0
M  V30 27300 C 2483.64 -1.23003 1.17492 0
M  V30 27301 O 2484.83 -1.28098 1.45961 0
M  V30 27302 C 2481.96 -1.96189 2.86578 0
M  V30 27303 C 2480.91 -1.60466 3.9678 0
M  V30 27304 C 2480.24 -2.90479 4.48917 0
M  V30 27305 C 2481.54 -0.823406 5.15769 0
M  V30 27306 H 2483.23 -0.195401 2.98762 0
M  V30 27307 H 2480.78 -0.0925433 1.43702 0
M  V30 27308 H 2482.73 -2.61125 3.30744 0
M  V30 27309 H 2481.45 -2.52825 2.06754 0
M  V30 27310 H 2480.11 -0.978935 3.53288 0
M  V30 27311 H 2479.76 -3.4518 3.65869 0
M  V30 27312 H 2479.46 -2.67326 5.23269 0
M  V30 27313 H 2480.98 -3.56423 4.95777 0
M  V30 27314 H 2482.4 -1.37561 5.56552 0
M  V30 27315 H 2480.79 -0.690446 5.96115 0
M  V30 27316 H 2481.86 0.177867 4.84574 0
M  V30 27317 N 2483.21 -1.57342 -0.0901833 0
M  V30 27318 C 2484.16 -1.98846 -1.11554 0
M  V30 27319 C 2485.14 -0.867648 -1.35502 0
M  V30 27320 O 2486.33 -1.1315 -1.36111 0
M  V30 27321 C 2483.46 -2.42055 -2.43442 0
M  V30 27322 C 2482.55 -3.60832 -2.22847 0
M  V30 27323 N 2482.94 -4.75609 -1.72132 0
M  V30 27324 C 2481.24 -3.67025 -2.53394 0
M  V30 27325 C 2481.94 -5.57534 -1.65923 0
M  V30 27326 N 2480.91 -5.00846 -2.11314 0
M  V30 27327 H 2484.72 -2.85034 -0.716448 0
M  V30 27328 H 2482.23 -1.59651 -0.297539 0
M  V30 27329 H 2484.23 -2.7002 -3.1764 0
M  V30 27330 H 2482.89 -1.57246 -2.84084 0
M  V30 27331 H 2483.9 -4.98263 -1.41259 0
M  V30 27332 H 2480.58 -2.92889 -2.97527 0
M  V30 27333 H 2481.97 -6.59649 -1.27722 0
M  V30 27334 N 2484.69 0.36113 -1.53407 0
M  V30 27335 C 2485.93 1.11194 -1.71509 0
M  V30 27336 C 2486.29 1.86424 -0.45937 0
M  V30 27337 O 2487.49 2.63778 -0.517148 0
M  V30 27338 C 2485.76 2.04215 -2.93311 0
M  V30 27339 S 2487.32 2.86755 -3.3214 0
M  V30 27340 H 2484.14 0.375984 -0.603454 0
M  V30 27341 H 2486.74 0.392609 -1.91517 0
M  V30 27342 H 2485.45 1.47717 -3.82894 0
M  V30 27343 H 2484.98 2.80613 -2.75717 0
M  V30 27344 H 2486.99 4.06539 -2.845 0
M  V30 27345 N 2486.16 1.44842 0.621179 0
M  V30 27346 C 2487.1 1.4695 1.74588 0
M  V30 27347 C 2488.08 0.327266 1.59273 0
M  V30 27348 O 2489.26 0.525738 1.8102 0
M  V30 27349 C 2486.39 1.31164 3.12272 0
M  V30 27350 C 2485.43 2.49078 3.46211 0
M  V30 27351 S 2486.27 4.11587 3.42573 0
M  V30 27352 C 2487.42 3.98242 4.8286 0
M  V30 27353 H 2487.65 2.42114 1.72534 0
M  V30 27354 H 2485.19 1.3226 0.79666 0
M  V30 27355 H 2487.15 1.22744 3.9172 0
M  V30 27356 H 2485.81 0.374939 3.11854 0
M  V30 27357 H 2485 2.33923 4.46426 0
M  V30 27358 H 2484.6 2.5429 2.74249 0
M  V30 27359 H 2486.89 3.62547 5.72334 0
M  V30 27360 H 2487.84 4.98322 5.03072 0
M  V30 27361 H 2488.24 3.30129 4.57903 0
M  V30 27362 N 2487.64 -0.862479 1.31905 0
M  V30 27363 C 2488.92 -1.59906 1.12647 0
M  V30 27364 C 2489.3 -2.0872 -0.316067 0
M  V30 27365 O 2488.65 -1.87121 -1.31142 0
M  V30 27366 C 2488.86 -2.75126 2.14724 0
M  V30 27367 C 2490.21 -3.44903 2.47644 0
M  V30 27368 O 2491.23 -2.85342 2.1321 0
M  V30 27369 O 2490.09 -4.52365 3.0664 0
M  V30 27370 H 2487.18 -0.703863 0.434172 0
M  V30 27371 H 2489.73 -0.907289 1.4341 0
M  V30 27372 H 2488.5 -2.36524 3.11724 0
M  V30 27373 H 2488.12 -3.51985 1.84911 0
M  V30 27374 N 2489.12 -1.14988 -1.07775 0
M  V30 27375 C 2490.37 -0.916649 -1.79668 0
M  V30 27376 C 2490.68 0.557884 -1.87475 0
M  V30 27377 O 2491.89 0.908572 -2.55846 0
M  V30 27378 C 2490.34 -1.59057 -3.22845 0
M  V30 27379 C 2489.95 -3.10181 -3.23251 0
M  V30 27380 C 2491.7 -1.43871 -3.99376 0
M  V30 27381 C 2489.6 -3.7038 -4.61056 0
M  V30 27382 H 2488.53 -0.339301 -0.673343 0
M  V30 27383 H 2491.18 -1.37953 -1.21001 0
M  V30 27384 H 2489.57 -1.05537 -3.81678 0
M  V30 27385 H 2490.74 -3.70422 -2.74088 0
M  V30 27386 H 2489.06 -3.25079 -2.60217 0
M  V30 27387 H 2491.65 -1.86241 -5.01217 0
M  V30 27388 H 2492 -0.385637 -4.1451 0
M  V30 27389 H 2492.53 -1.94463 -3.47029 0
M  V30 27390 H 2489.27 -4.75568 -4.51126 0
M  V30 27391 H 2488.79 -3.14922 -5.10475 0
M  V30 27392 H 2490.47 -3.71052 -5.30028 0
M  V30 27393 N 2490.6 1.26049 -0.946007 0
M  V30 27394 C 2491.53 2.28572 -0.477212 0
M  V30 27395 C 2492.51 1.6342 0.472003 0
M  V30 27396 O 2493.69 1.90588 0.372819 0
M  V30 27397 C 2490.82 3.46371 0.253914 0
M  V30 27398 C 2489.78 4.23642 -0.60921 0
M  V30 27399 C 2489.1 5.34105 0.252158 0
M  V30 27400 C 2490.4 4.87176 -1.88299 0
M  V30 27401 H 2492.1 2.68035 -1.33407 0
M  V30 27402 H 2489.64 1.28851 -0.642926 0
M  V30 27403 H 2491.6 4.17208 0.592942 0
M  V30 27404 H 2490.32 3.05873 1.14495 0
M  V30 27405 H 2488.98 3.54576 -0.9312 0
M  V30 27406 H 2488.63 4.89848 1.14269 0
M  V30 27407 H 2488.33 5.86717 -0.321983 0
M  V30 27408 H 2489.85 6.07778 0.586347 0
M  V30 27409 H 2491.27 5.50202 -1.61091 0
M  V30 27410 H 2489.66 5.49927 -2.40209 0
M  V30 27411 H 2490.73 4.09846 -2.59141 0
M  V30 27412 N 2492.08 0.71358 1.4052 0
M  V30 27413 C 2493.32 0.252225 2.00923 0
M  V30 27414 C 2493.65 -1.15392 1.56573 0
M  V30 27415 O 2492.91 -1.79661 0.775906 0
M  V30 27416 C 2493.21 0.278062 3.56317 0
M  V30 27417 C 2492.87 1.63422 4.20243 0
M  V30 27418 C 2491.53 2.00546 4.37418 0
M  V30 27419 C 2493.89 2.52562 4.55919 0
M  V30 27420 C 2491.21 3.26359 4.87552 0
M  V30 27421 C 2493.57 3.77725 5.07451 0
M  V30 27422 C 2492.23 4.14968 5.22836 0
M  V30 27423 H 2491.5 0.0922958 0.73523 0
M  V30 27424 H 2494.15 0.916217 1.6816 0
M  V30 27425 H 2492.45 -0.469499 3.88977 0
M  V30 27426 H 2494.15 -0.0967115 4.00883 0
M  V30 27427 H 2490.74 1.33553 4.07261 0
M  V30 27428 H 2494.92 2.25157 4.42287 0
M  V30 27429 H 2490.18 3.55185 4.97648 0
M  V30 27430 H 2494.35 4.46969 5.34033 0
M  V30 27431 H 2491.98 5.12526 5.61445 0
M  V30 27432 N 2493.55 -1.50749 0.459618 0
M  V30 27433 C 2494.52 -2.26826 -0.329053 0
M  V30 27434 C 2495.52 -1.31145 -0.930458 0
M  V30 27435 O 2496.71 -1.5467 -0.801426 0
M  V30 27436 C 2493.84 -3.07691 -1.46763 0
M  V30 27437 H 2495.03 -2.97989 0.337977 0
M  V30 27438 H 2492.59 -1.54837 0.213363 0
M  V30 27439 H 2493.32 -2.40996 -2.17005 0
M  V30 27440 H 2493.11 -3.77992 -1.04231 0
M  V30 27441 H 2494.6 -3.65258 -2.02427 0
M  V30 27442 N 2495.03 -0.191784 -1.56429 0
M  V30 27443 C 2496.28 0.447856 -1.97485 0
M  V30 27444 C 2496.61 1.61857 -1.07855 0
M  V30 27445 O 2495.86 1.9535 -0.116938 0
M  V30 27446 C 2496.16 0.953323 -3.44451 0
M  V30 27447 C 2495.83 -0.103665 -4.50781 0
M  V30 27448 C 2494.49 -0.394107 -4.79583 0
M  V30 27449 C 2496.84 -0.820037 -5.14708 0
M  V30 27450 C 2494.17 -1.40595 -5.69605 0
M  V30 27451 C 2496.52 -1.82101 -6.05823 0
M  V30 27452 C 2495.19 -2.11868 -6.32983 0
M  V30 27453 H 2494.46 0.163882 -0.72265 0
M  V30 27454 H 2497.1 -0.288054 -1.89321 0
M  V30 27455 H 2495.41 1.76744 -3.49669 0
M  V30 27456 H 2497.1 1.45758 -3.73571 0
M  V30 27457 H 2493.69 0.132876 -4.28394 0
M  V30 27458 H 2497.88 -0.608875 -4.92551 0
M  V30 27459 H 2493.13 -1.64253 -5.88923 0
M  V30 27460 H 2497.31 -2.38135 -6.54419 0
M  V30 27461 H 2494.94 -2.9042 -7.02539 0
M  V30 27462 N 2496.51 1.57387 0.0818378 0
M  V30 27463 C 2497.74 1.90972 0.796074 0
M  V30 27464 C 2498.15 0.786787 1.71625 0
M  V30 27465 O 2497.51 -0.240481 1.80909 0
M  V30 27466 C 2497.56 3.24251 1.59823 0
M  V30 27467 O 2497.28 4.32225 0.715056 0
M  V30 27468 C 2498.78 3.71785 2.41436 0
M  V30 27469 H 2496 0.631473 0.226899 0
M  V30 27470 H 2498.55 2.04426 0.055108 0
M  V30 27471 H 2496.7 3.12355 2.29157 0
M  V30 27472 H 2497.12 5.08843 1.27196 0
M  V30 27473 H 2498.59 4.67699 2.93192 0
M  V30 27474 H 2499.07 3.00289 3.20505 0
M  V30 27475 H 2499.67 3.86592 1.77276 0
M  V30 27476 N 2497.99 -0.35299 1.53596 0
M  V30 27477 C 2498.95 -1.41591 1.80235 0
M  V30 27478 C 2499.95 -1.46034 0.673107 0
M  V30 27479 O 2501.14 -1.46574 0.941361 0
M  V30 27480 C 2498.27 -2.80604 1.93583 0
M  V30 27481 H 2499.47 -1.19239 2.75177 0
M  V30 27482 H 2497.02 -0.586846 1.44865 0
M  V30 27483 H 2497.75 -3.08253 1.00751 0
M  V30 27484 H 2497.54 -2.78776 2.75728 0
M  V30 27485 H 2499.03 -3.57555 2.15742 0
M  V30 27486 N 2499.47 -1.45169 -0.613489 0
M  V30 27487 C 2500.88 -1.29445 -0.933606 0
M  V30 27488 C 2501.08 -0.243137 -2.00028 0
M  V30 27489 O 2500.14 0.364948 -2.49849 0
M  V30 27490 C 2501.45 -2.67157 -1.38013 0
M  V30 27491 C 2503 -2.75007 -1.49466 0
M  V30 27492 C 2503.48 -4.1323 -1.97496 0
M  V30 27493 N 2504.97 -4.15495 -2.04739 0
M  V30 27494 C 2505.7 -5.19311 -2.43112 0
M  V30 27495 N 2505.2 -6.33478 -2.80495 0
M  V30 27496 N 2506.99 -5.06669 -2.43399 0
M  V30 27497 H 2499.14 -2.12202 0.091647 0
M  V30 27498 H 2501.4 -0.947753 -0.0216488 0
M  V30 27499 H 2501.11 -3.45248 -0.670564 0
M  V30 27500 H 2500.98 -2.95226 -2.34779 0
M  V30 27501 H 2503.37 -1.97223 -2.19515 0
M  V30 27502 H 2503.45 -2.50658 -0.510298 0
M  V30 27503 H 2503.1 -4.91497 -1.28036 0
M  V30 27504 H 2503.03 -4.34967 -2.96836 0
M  V30 27505 H 2505.52 -3.33106 -1.78462 0
M  V30 27506 H 2505.83 -7.08492 -3.08639 0
M  V30 27507 H 2504.18 -6.36889 -2.78205 0
M  V30 27508 H 2507.37 -4.16526 -2.13596 0
M  V30 27509 H 2507.54 -5.87696 -2.72979 0
M  V30 27510 N 2500.95 0.855472 -1.32361 0
M  V30 27511 C 2502.19 1.61198 -1.23057 0
M  V30 27512 C 2502.52 1.9309 0.20737 0
M  V30 27513 O 2501.8 1.57278 1.14429 0
M  V30 27514 C 2502.08 2.93284 -2.08942 0
M  V30 27515 C 2501.94 2.68179 -3.6111 0
M  V30 27516 C 2503.25 3.94545 -1.94993 0
M  V30 27517 H 2500.37 0.584919 -0.448374 0
M  V30 27518 H 2503.02 0.987888 -1.62298 0
M  V30 27519 H 2501.17 3.46548 -1.75605 0
M  V30 27520 H 2502.84 2.21475 -4.04656 0
M  V30 27521 H 2501.08 2.02158 -3.83816 0
M  V30 27522 H 2501.75 3.62227 -4.16528 0
M  V30 27523 H 2504.23 3.50536 -2.24196 0
M  V30 27524 H 2503.1 4.84824 -2.57364 0
M  V30 27525 H 2503.36 4.32478 -0.917339 0
M  V30 27526 N 2502.42 1.15558 1.07164 0
M  V30 27527 C 2503.35 0.877084 2.16401 0
M  V30 27528 C 2504.33 -0.173082 1.69217 0
M  V30 27529 O 2505.52 -0.0270498 1.94181 0
M  V30 27530 C 2502.65 0.367693 3.45348 0
M  V30 27531 C 2501.6 1.35475 4.05993 0
M  V30 27532 C 2500.93 0.704131 5.30043 0
M  V30 27533 C 2502.23 2.7214 4.45799 0
M  V30 27534 H 2503.92 1.79057 2.39956 0
M  V30 27535 H 2501.47 0.862351 1.15323 0
M  V30 27536 H 2503.42 0.160391 4.21095 0
M  V30 27537 H 2502.15 -0.58127 3.21386 0
M  V30 27538 H 2500.81 1.54845 3.32293 0
M  V30 27539 H 2500.45 -0.25104 5.02373 0
M  V30 27540 H 2500.15 1.36287 5.71576 0
M  V30 27541 H 2501.68 0.506647 6.08494 0
M  V30 27542 H 2503.09 2.56604 5.12667 0
M  V30 27543 H 2501.49 3.34406 4.9829 0
M  V30 27544 H 2502.56 3.2806 3.57078 0
M  V30 27545 N 2503.9 -1.25546 0.952678 0
M  V30 27546 C 2505.15 -1.92825 0.605209 0
M  V30 27547 C 2505.47 -1.75 -0.860231 0
M  V30 27548 O 2504.74 -1.11247 -1.61248 0
M  V30 27549 H 2503.32 -0.713608 0.220844 0
M  V30 27550 H 2505.98 -1.52751 1.2105 0
M  V30 27551 H 2505.08 -3.00782 0.832851 0
M  V30 27552 N 2505.38 -0.721022 -1.40139 0
M  V30 27553 C 2506.63 -0.262358 -2.0039 0
M  V30 27554 C 2506.95 1.15012 -1.57471 0
M  V30 27555 O 2506.22 1.78068 -0.816614 0
M  V30 27556 H 2504.8 -0.094009 -0.741061 0
M  V30 27557 H 2507.46 -0.927866 -1.71396 0
M  V30 27558 H 2506.56 -0.299726 -3.10657 0
M  V30 27559 N 2506.86 1.50503 -0.467606 0
M  V30 27560 C 2508.08 2.0721 0.0886579 0
M  V30 27561 C 2508.51 1.32959 1.33055 0
M  V30 27562 O 2507.87 0.376228 1.77353 0
M  V30 27563 C 2507.91 3.58807 0.359139 0
M  V30 27564 O 2507.02 3.86432 1.44027 0
M  V30 27565 H 2506.36 0.663901 -0.0114466 0
M  V30 27566 H 2508.89 1.93743 -0.657647 0
M  V30 27567 H 2508.9 4.03554 0.600671 0
M  V30 27568 H 2507.57 4.12269 -0.548383 0
M  V30 27569 H 2506.15 3.53526 1.18632 0
M  V30 27570 N 2508.34 0.200077 1.56325 0
M  V30 27571 C 2509.61 -0.485256 1.89485 0
M  V30 27572 C 2509.99 -1.79292 1.11434 0
M  V30 27573 O 2509.34 -2.27468 0.216959 0
M  V30 27574 C 2509.55 -0.699183 3.41925 0
M  V30 27575 C 2510.9 -1.01631 4.12258 0
M  V30 27576 O 2511.92 -0.786731 3.47403 0
M  V30 27577 O 2510.78 -1.45086 5.26889 0
M  V30 27578 H 2507.88 -0.253625 0.787149 0
M  V30 27579 H 2510.42 0.240662 1.67985 0
M  V30 27580 H 2509.19 0.224077 3.90658 0
M  V30 27581 H 2508.82 -1.47738 3.69133 0
M  V30 27582 N 2509.81 -1.57429 -0.0734901 0
M  V30 27583 C 2511.06 -1.86797 -0.77144 0
M  V30 27584 C 2511.38 -0.791835 -1.78199 0
M  V30 27585 O 2510.65 0.179684 -1.95074 0
M  V30 27586 H 2509.23 -0.689292 -0.287898 0
M  V30 27587 H 2511.89 -1.94836 -0.0499818 0
M  V30 27588 H 2510.99 -2.84252 -1.28869 0
M  V30 27589 N 2511.29 0.344839 -1.53781 0
M  V30 27590 C 2512.22 1.42903 -1.84665 0
M  V30 27591 C 2513.2 1.54953 -0.701675 0
M  V30 27592 O 2514.39 1.69182 -0.953467 0
M  V30 27593 C 2511.52 2.79971 -2.05508 0
M  V30 27594 C 2510.47 2.82728 -3.21323 0
M  V30 27595 C 2509.8 4.22669 -3.27498 0
M  V30 27596 C 2511.1 2.48381 -4.59461 0
M  V30 27597 H 2512.79 1.17306 -2.75463 0
M  V30 27598 H 2510.34 0.562872 -1.32543 0
M  V30 27599 H 2512.29 3.55863 -2.25697 0
M  V30 27600 H 2511.01 3.07 -1.1144 0
M  V30 27601 H 2509.67 2.09289 -3.00988 0
M  V30 27602 H 2509.32 4.46806 -2.31027 0
M  V30 27603 H 2509.02 4.25426 -4.05323 0
M  V30 27604 H 2510.55 5.00405 -3.49895 0
M  V30 27605 H 2511.96 3.13986 -4.79672 0
M  V30 27606 H 2510.36 2.62422 -5.3968 0
M  V30 27607 H 2511.43 1.43572 -4.63158 0
M  V30 27608 N 2512.77 1.45492 0.605781 0
M  V30 27609 C 2514.05 1.40078 1.3652 0
M  V30 27610 C 2514.43 0.0723115 2.10976 0
M  V30 27611 O 2513.77 -0.945771 2.08008 0
M  V30 27612 C 2513.98 2.61565 2.31051 0
M  V30 27613 C 2515.33 3.06729 2.93602 0
M  V30 27614 O 2516.36 2.61951 2.41372 0
M  V30 27615 O 2515.22 3.84444 3.88414 0
M  V30 27616 H 2512.31 0.555961 0.612238 0
M  V30 27617 H 2514.86 1.57624 0.628719 0
M  V30 27618 H 2513.63 3.49834 1.75305 0
M  V30 27619 H 2513.25 2.46362 3.12076 0
M  V30 27620 N 2514.25 -0.848441 1.32813 0
M  V30 27621 C 2515.47 -1.64058 1.26885 0
M  V30 27622 C 2515.9 -1.87426 -0.159097 0
M  V30 27623 O 2515.26 -1.4315 -1.11256 0
M  V30 27624 C 2515.3 -2.97347 2.04002 0
M  V30 27625 O 2514.41 -3.88195 1.39207 0
M  V30 27626 H 2513.75 -0.499935 0.436991 0
M  V30 27627 H 2516.28 -1.05627 1.75226 0
M  V30 27628 H 2516.29 -3.47121 2.14409 0
M  V30 27629 H 2514.96 -2.79661 3.07835 0
M  V30 27630 H 2513.54 -3.46669 1.37387 0
M  V30 27631 N 2515.73 -1.16125 -1.06549 0
M  V30 27632 C 2516.66 -0.808958 -2.1338 0
M  V30 27633 C 2517.64 0.218241 -1.61129 0
M  V30 27634 O 2518.82 0.102919 -1.88219 0
M  V30 27635 C 2515.95 -0.204362 -3.38083 0
M  V30 27636 C 2514.99 -1.20476 -4.09131 0
M  V30 27637 S 2515.83 -2.75032 -4.59475 0
M  V30 27638 C 2516.98 -2.16015 -5.87442 0
M  V30 27639 H 2517.22 -1.71378 -2.42934 0
M  V30 27640 H 2514.75 -0.984449 -1.18945 0
M  V30 27641 H 2516.71 0.138009 -4.10268 0
M  V30 27642 H 2515.37 0.67818 -3.06691 0
M  V30 27643 H 2514.56 -0.730107 -4.98684 0
M  V30 27644 H 2514.16 -1.49208 -3.42947 0
M  V30 27645 H 2516.46 -1.52722 -6.60062 0
M  V30 27646 H 2517.4 -3.03768 -6.39633 0
M  V30 27647 H 2517.81 -1.59999 -5.41351 0
M  V30 27648 N 2517.2 1.25039 -0.959323 0
M  V30 27649 C 2518.15 2.25709 -0.482097 0
M  V30 27650 C 2519.12 1.59373 0.467911 0
M  V30 27651 O 2520.31 1.86975 0.380126 0
M  V30 27652 C 2517.45 3.44336 0.229562 0
M  V30 27653 C 2516.56 4.25294 -0.758231 0
M  V30 27654 C 2515.69 5.31195 -0.0235337 0
M  V30 27655 C 2514.73 6.03844 -1.00195 0
M  V30 27656 N 2513.87 7.01468 -0.297814 0
M  V30 27657 H 2518.71 2.65899 -1.34543 0
M  V30 27658 H 2516.25 1.30719 -0.674615 0
M  V30 27659 H 2518.21 4.11966 0.658784 0
M  V30 27660 H 2516.84 3.05007 1.05691 0
M  V30 27661 H 2515.89 3.57281 -1.30592 0
M  V30 27662 H 2517.2 4.75564 -1.50467 0
M  V30 27663 H 2516.35 6.04922 0.464095 0
M  V30 27664 H 2515.09 4.8181 0.755657 0
M  V30 27665 H 2514.1 5.28927 -1.50053 0
M  V30 27666 H 2515.32 6.55318 -1.78145 0
M  V30 27667 H 2513.27 6.54367 0.462553 0
M  V30 27668 H 2513.19 7.49579 -0.98326 0
M  V30 27669 H 2514.45 7.79319 0.168123 0
M  V30 27670 N 2518.68 0.728444 1.39755 0
M  V30 27671 C 2519.65 0.09277 2.29012 0
M  V30 27672 C 2520.65 -0.674 1.45993 0
M  V30 27673 O 2521.84 -0.50399 1.6675 0
M  V30 27674 C 2518.97 -0.878079 3.29397 0
M  V30 27675 H 2520.16 0.879061 2.86727 0
M  V30 27676 H 2517.71 0.493873 1.48292 0
M  V30 27677 H 2518.45 -1.69096 2.76725 0
M  V30 27678 H 2518.23 -0.330983 3.90701 0
M  V30 27679 H 2519.72 -1.31963 3.96201 0
M  V30 27680 N 2520.16 -1.50253 0.475581 0
M  V30 27681 C 2521.09 -2.25305 -0.362341 0
M  V30 27682 C 2522.07 -1.28805 -0.992371 0
M  V30 27683 O 2523.26 -1.58038 -1.02743 0
M  V30 27684 C 2520.38 -3.03274 -1.50807 0
M  V30 27685 C 2519.43 -4.14732 -0.994971 0
M  V30 27686 S 2520.26 -5.35418 0.0939377 0
M  V30 27687 C 2521.42 -6.16935 -1.05556 0
M  V30 27688 H 2521.65 -2.96028 0.274738 0
M  V30 27689 H 2519.18 -1.52186 0.260522 0
M  V30 27690 H 2521.14 -3.48785 -2.1647 0
M  V30 27691 H 2519.8 -2.32068 -2.11668 0
M  V30 27692 H 2519 -4.68706 -1.85284 0
M  V30 27693 H 2518.6 -3.71679 -0.415987 0
M  V30 27694 H 2520.89 -6.4834 -1.96624 0
M  V30 27695 H 2521.83 -7.05922 -0.554985 0
M  V30 27696 H 2522.24 -5.49056 -1.31142 0
M  V30 27697 N 2521.64 -0.208365 -1.56217 0
M  V30 27698 C 2522.57 0.746804 -2.15634 0
M  V30 27699 C 2523.55 1.20032 -1.09687 0
M  V30 27700 O 2524.73 1.28544 -1.37872 0
M  V30 27701 C 2521.86 2.01018 -2.72597 0
M  V30 27702 C 2520.91 1.69772 -3.91254 0
M  V30 27703 S 2521.74 0.834116 -5.28964 0
M  V30 27704 C 2522.9 2.10735 -5.89357 0
M  V30 27705 H 2523.13 0.241737 -2.96316 0
M  V30 27706 H 2520.66 0.0067947 -1.54399 0
M  V30 27707 H 2522.62 2.73567 -3.06058 0
M  V30 27708 H 2521.28 2.48637 -1.91933 0
M  V30 27709 H 2520.47 2.63607 -4.29567 0
M  V30 27710 H 2520.08 1.05297 -3.58871 0
M  V30 27711 H 2522.37 3.05864 -6.04527 0
M  V30 27712 H 2523.31 1.76833 -6.85664 0
M  V30 27713 H 2523.72 2.24187 -5.18074 0
M  V30 27714 N 2523.12 1.57465 0.0651402 0
M  V30 27715 C 2524.03 2.07507 1.09444 0
M  V30 27716 C 2525.04 1.00597 1.41973 0
M  V30 27717 O 2526.22 1.3211 1.52016 0
M  V30 27718 C 2523.28 2.51457 2.38684 0
M  V30 27719 C 2522.34 3.72695 2.13066 0
M  V30 27720 C 2521.58 4.14539 3.36144 0
M  V30 27721 O 2521.8 3.56197 4.45511 0
M  V30 27722 O 2520.73 5.07277 3.23965 0
M  V30 27723 H 2524.56 2.95539 0.699298 0
M  V30 27724 H 2522.15 1.46758 0.279726 0
M  V30 27725 H 2524.03 2.80218 3.14732 0
M  V30 27726 H 2522.7 1.66551 2.77565 0
M  V30 27727 H 2521.61 3.49007 1.34703 0
M  V30 27728 H 2522.94 4.58473 1.79062 0
M  V30 27729 N 2524.59 -0.336679 1.53962 0
M  V30 27730 C 2525.5 -1.43705 1.85435 0
M  V30 27731 C 2526.52 -1.5724 0.745081 0
M  V30 27732 O 2527.7 -1.72586 1.03807 0
M  V30 27733 C 2524.76 -2.78602 2.06354 0
M  V30 27734 C 2523.82 -2.74353 3.30196 0
M  V30 27735 C 2523.06 -4.02815 3.50108 0
M  V30 27736 O 2523.28 -5.00434 2.73719 0
M  V30 27737 O 2522.21 -4.0687 4.43554 0
M  V30 27738 H 2526.04 -1.20023 2.78977 0
M  V30 27739 H 2523.62 -0.529496 1.39702 0
M  V30 27740 H 2525.51 -3.58479 2.21519 0
M  V30 27741 H 2524.18 -3.02201 1.16 0
M  V30 27742 H 2523.09 -1.93072 3.20428 0
M  V30 27743 H 2524.42 -2.55707 4.20565 0
M  V30 27744 N 2526.07 -1.45812 -0.598057 0
M  V30 27745 C 2527.02 -1.5521 -1.70817 0
M  V30 27746 C 2527.99 -0.397348 -1.61277 0
M  V30 27747 O 2529.17 -0.612069 -1.80716 0
M  V30 27748 C 2526.31 -1.53381 -3.09141 0
M  V30 27749 C 2525.43 -2.79478 -3.29418 0
M  V30 27750 C 2524.56 -2.69256 -4.57902 0
M  V30 27751 C 2523.6 -3.90363 -4.7147 0
M  V30 27752 N 2522.74 -3.78618 -5.91264 0
M  V30 27753 H 2527.58 -2.50042 -1.62121 0
M  V30 27754 H 2525.12 -1.24063 -0.790367 0
M  V30 27755 H 2527.07 -1.50307 -3.89183 0
M  V30 27756 H 2525.7 -0.620932 -3.16772 0
M  V30 27757 H 2524.76 -2.92598 -2.43086 0
M  V30 27758 H 2526.07 -3.69278 -3.35314 0
M  V30 27759 H 2525.22 -2.64202 -5.46152 0
M  V30 27760 H 2523.96 -1.77071 -4.5442 0
M  V30 27761 H 2522.97 -3.95765 -3.81641 0
M  V30 27762 H 2524.19 -4.83625 -4.76743 0
M  V30 27763 H 2522.14 -2.89209 -5.88807 0
M  V30 27764 H 2522.05 -4.6206 -5.98361 0
M  V30 27765 H 2523.32 -3.77513 -6.81985 0
M  V30 27766 N 2527.55 0.841385 -1.33261 0
M  V30 27767 C 2528.8 1.59647 -1.24575 0
M  V30 27768 C 2529.13 1.93579 0.189103 0
M  V30 27769 O 2528.38 1.58662 1.14564 0
M  V30 27770 C 2528.68 2.91787 -2.06386 0
M  V30 27771 C 2528.35 2.77229 -3.55605 0
M  V30 27772 C 2527.01 2.72966 -3.96287 0
M  V30 27773 C 2529.36 2.62213 -4.50437 0
M  V30 27774 C 2526.69 2.51583 -5.30022 0
M  V30 27775 C 2529.04 2.42364 -5.84331 0
M  V30 27776 C 2527.7 2.36502 -6.24198 0
M  V30 27777 H 2526.97 0.584192 -0.455852 0
M  V30 27778 H 2529.62 0.974987 -1.64822 0
M  V30 27779 H 2527.93 3.58127 -1.58909 0
M  V30 27780 H 2529.62 3.49259 -1.97025 0
M  V30 27781 H 2526.21 2.81378 -3.23302 0
M  V30 27782 H 2530.4 2.64542 -4.19918 0
M  V30 27783 H 2525.65 2.45489 -5.59951 0
M  V30 27784 H 2529.83 2.29728 -6.57418 0
M  V30 27785 H 2527.45 2.19693 -7.27763 0
M  V30 27786 N 2529.03 1.16688 1.05932 0
M  V30 27787 C 2529.96 0.820262 2.12948 0
M  V30 27788 C 2530.94 -0.209693 1.61242 0
M  V30 27789 O 2532.12 -0.0929357 1.88271 0
M  V30 27790 C 2529.25 0.222289 3.3797 0
M  V30 27791 C 2528.3 1.22644 4.08486 0
M  V30 27792 S 2529.13 2.77465 4.5801 0
M  V30 27793 C 2530.29 2.19127 5.86288 0
M  V30 27794 H 2530.52 1.72664 2.42022 0
M  V30 27795 H 2528.05 0.990743 1.18421 0
M  V30 27796 H 2530.01 -0.116249 4.10335 0
M  V30 27797 H 2528.67 -0.661906 3.07047 0
M  V30 27798 H 2527.86 0.756543 4.9829 0
M  V30 27799 H 2527.47 1.51025 3.42151 0
M  V30 27800 H 2529.76 1.5622 6.59243 0
M  V30 27801 H 2530.7 3.07155 6.38013 0
M  V30 27802 H 2531.11 1.62868 5.40495 0
M  V30 27803 N 2530.51 -1.24529 0.96594 0
M  V30 27804 C 2531.42 -2.29162 0.502194 0
M  V30 27805 C 2532.43 -1.68449 -0.435987 0
M  V30 27806 O 2533.61 -1.99008 -0.309462 0
M  V30 27807 C 2530.67 -3.46112 -0.201895 0
M  V30 27808 C 2529.74 -4.2223 0.775895 0
M  V30 27809 C 2528.97 -5.33596 0.105311 0
M  V30 27810 O 2529.19 -5.5956 -1.10674 0
M  V30 27811 O 2528.13 -5.96606 0.796579 0
M  V30 27812 H 2531.95 -2.70943 1.37199 0
M  V30 27813 H 2529.54 -1.30188 0.732898 0
M  V30 27814 H 2531.42 -4.17143 -0.59749 0
M  V30 27815 H 2530.09 -3.06311 -1.04668 0
M  V30 27816 H 2529 -3.53582 1.22191 0
M  V30 27817 H 2530.33 -4.65844 1.58904 0
M  V30 27818 N 2531.99 -0.735845 -1.39367 0
M  V30 27819 C 2532.95 -0.104914 -2.2896 0
M  V30 27820 C 2533.95 0.666248 -1.46348 0
M  V30 27821 O 2535.14 0.49514 -1.67015 0
M  V30 27822 C 2532.27 0.860598 -3.29858 0
M  V30 27823 H 2533.46 -0.894255 -2.86257 0
M  V30 27824 H 2531.02 -0.50173 -1.48028 0
M  V30 27825 H 2531.75 1.67626 -2.77618 0
M  V30 27826 H 2531.54 0.310258 -3.90871 0
M  V30 27827 H 2533.03 1.2986 -3.96896 0
M  V30 27828 N 2533.46 1.49999 -0.483543 0
M  V30 27829 C 2534.41 2.30416 0.31802 0
M  V30 27830 C 2535.41 1.38249 0.978963 0
M  V30 27831 O 2536.61 1.55382 0.908645 0
M  V30 27832 H 2532.99 0.742135 0.121406 0
M  V30 27833 H 2534.96 2.95965 -0.380455 0
M  V30 27834 C 2533.71 3.19138 1.38008 0
M  V30 27835 H 2533.03 3.89975 0.880883 0
M  V30 27836 H 2534.47 3.78379 1.91326 0
M  V30 27837 C 2532.93 2.37567 2.3888 0
M  V30 27838 O 2533.46 2.0675 3.44409 0
M  V30 27839 N 2531.66 1.99914 2.10909 0
M  V30 27840 H 2531.21 2.25176 1.25114 0
M  V30 27841 H 2531.17 1.45641 2.78632 0
M  V30 27842 N 2534.94 0.216646 1.56104 0
M  V30 27843 C 2536.35 -0.292096 1.84401 0
M  V30 27844 C 2536.7 -1.59831 1.13791 0
M  V30 27845 O 2535.83 -2.12559 0.405925 0
M  V30 27846 C 2536.42 -0.536751 3.34521 0
M  V30 27847 C 2534.98 -0.989813 3.63152 0
M  V30 27848 C 2534.13 -0.0501815 2.77255 0
M  V30 27849 H 2537.08 0.439953 1.5248 0
M  V30 27850 H 2537.1 -1.38338 3.54461 0
M  V30 27851 H 2536.61 0.414099 3.85884 0
M  V30 27852 H 2534.71 -1.95419 3.17241 0
M  V30 27853 H 2534.83 -0.867615 4.71179 0
M  V30 27854 H 2533.19 -0.556073 2.48556 0
M  V30 27855 H 2533.97 0.895498 3.31415 0
M  V30 27856 N 2536.42 -1.57498 -0.0567885 0
M  V30 27857 C 2537.35 -2.07752 -1.06589 0
M  V30 27858 C 2538.33 -0.974106 -1.39446 0
M  V30 27859 O 2539.52 -1.24773 -1.48813 0
M  V30 27860 C 2536.65 -2.53394 -2.37505 0
M  V30 27861 C 2535.6 -3.67749 -2.18963 0
M  V30 27862 C 2534.93 -3.99498 -3.55395 0
M  V30 27863 C 2536.23 -4.97238 -1.5985 0
M  V30 27864 H 2537.92 -2.92311 -0.647655 0
M  V30 27865 H 2535.47 -1.40622 -0.310091 0
M  V30 27866 H 2537.42 -2.87167 -3.08404 0
M  V30 27867 H 2536.14 -1.65883 -2.81337 0
M  V30 27868 H 2534.8 -3.34282 -1.50502 0
M  V30 27869 H 2534.45 -3.09095 -3.96824 0
M  V30 27870 H 2534.15 -4.76508 -3.43823 0
M  V30 27871 H 2535.67 -4.3578 -4.27701 0
M  V30 27872 H 2537.09 -5.29145 -2.20632 0
M  V30 27873 H 2535.48 -5.78671 -1.58932 0
M  V30 27874 H 2536.55 -4.81639 -0.561421 0
M  V30 27875 N 2537.9 0.328509 -1.54138 0
M  V30 27876 C 2538.84 1.40408 -1.83178 0
M  V30 27877 C 2539.81 1.51609 -0.678521 0
M  V30 27878 O 2541 1.66908 -0.924459 0
M  V30 27879 C 2538.14 2.76842 -2.0604 0
M  V30 27880 C 2537.25 2.74312 -3.33732 0
M  V30 27881 C 2536.39 4.02561 -3.46581 0
M  V30 27882 C 2535.43 3.94319 -4.68166 0
M  V30 27883 N 2534.56 5.14287 -4.77968 0
M  V30 27884 H 2539.4 1.14944 -2.7494 0
M  V30 27885 H 2536.94 0.556514 -1.36167 0
M  V30 27886 H 2538.9 3.5615 -2.17286 0
M  V30 27887 H 2537.53 3.00626 -1.17575 0
M  V30 27888 H 2536.58 1.87024 -3.31249 0
M  V30 27889 H 2537.89 2.64103 -4.23144 0
M  V30 27890 H 2537.05 4.90298 -3.57342 0
M  V30 27891 H 2535.79 4.15569 -2.55252 0
M  V30 27892 H 2534.79 3.04966 -4.57467 0
M  V30 27893 H 2536.02 3.8288 -5.60874 0
M  V30 27894 H 2533.96 5.27811 -3.89553 0
M  V30 27895 H 2533.88 5.06394 -5.61338 0
M  V30 27896 H 2535.15 6.03753 -4.93055 0
M  V30 27897 N 2539.38 1.46127 0.590316 0
M  V30 27898 C 2540.32 1.56114 1.69992 0
M  V30 27899 C 2541.29 0.405895 1.61064 0
M  V30 27900 O 2542.48 0.621645 1.80389 0
M  V30 27901 C 2539.62 1.55018 3.08323 0
M  V30 27902 C 2538.73 2.81221 3.27931 0
M  V30 27903 C 2537.87 2.71681 4.56468 0
M  V30 27904 C 2536.9 3.92857 4.69393 0
M  V30 27905 N 2536.04 3.81749 5.89247 0
M  V30 27906 H 2540.88 2.50898 1.60792 0
M  V30 27907 H 2538.42 1.2448 0.783777 0
M  V30 27908 H 2540.38 1.52369 3.88381 0
M  V30 27909 H 2539.01 0.637722 3.16438 0
M  V30 27910 H 2538.06 2.93883 2.4153 0
M  V30 27911 H 2539.37 3.71051 3.33351 0
M  V30 27912 H 2538.52 2.67095 5.44743 0
M  V30 27913 H 2537.26 1.79478 4.53474 0
M  V30 27914 H 2536.27 3.97784 3.79537 0
M  V30 27915 H 2537.49 4.86147 4.74171 0
M  V30 27916 H 2535.44 2.92327 5.87265 0
M  V30 27917 H 2535.36 4.65227 5.95902 0
M  V30 27918 H 2536.62 3.81124 6.79974 0
M  V30 27919 N 2540.85 -0.834306 1.33705 0
M  V30 27920 C 2541.78 -1.95961 1.26971 0
M  V30 27921 C 2542.76 -1.69443 0.149366 0
M  V30 27922 O 2543.95 -1.91203 0.339885 0
M  V30 27923 C 2541.08 -3.32204 1.01281 0
M  V30 27924 C 2540.03 -3.73132 2.09658 0
M  V30 27925 C 2539.36 -5.07232 1.69175 0
M  V30 27926 C 2540.66 -3.86432 3.51379 0
M  V30 27927 H 2542.35 -2.01854 2.21123 0
M  V30 27928 H 2539.9 -0.969775 1.06449 0
M  V30 27929 H 2541.85 -4.10502 0.952178 0
M  V30 27930 H 2540.58 -3.26581 0.0356777 0
M  V30 27931 H 2539.24 -2.97101 2.14771 0
M  V30 27932 H 2538.88 -4.98084 0.701524 0
M  V30 27933 H 2538.58 -5.35587 2.41704 0
M  V30 27934 H 2540.11 -5.88 1.64586 0
M  V30 27935 H 2541.52 -4.5503 3.48742 0
M  V30 27936 H 2539.92 -4.26229 4.22432 0
M  V30 27937 H 2540.99 -2.88752 3.89552 0
M  V30 27938 N 2542.33 -1.17248 -1.05312 0
M  V30 27939 C 2543.56 -0.983197 -1.81705 0
M  V30 27940 C 2543.97 0.471789 -1.83223 0
M  V30 27941 O 2543.31 1.33937 -1.25724 0
M  V30 27942 C 2543.37 -1.44611 -3.29132 0
M  V30 27943 C 2543.04 -2.92298 -3.51299 0
M  V30 27944 C 2544.04 -3.90241 -3.43523 0
M  V30 27945 C 2541.72 -3.30446 -3.783 0
M  V30 27946 C 2543.71 -5.2433 -3.62432 0
M  V30 27947 C 2541.4 -4.64701 -3.96858 0
M  V30 27948 C 2542.4 -5.61452 -3.88923 0
M  V30 27949 O 2542.09 -6.93279 -4.06964 0
M  V30 27950 H 2541.82 -0.348124 -0.57947 0
M  V30 27951 H 2544.37 -1.55926 -1.33702 0
M  V30 27952 H 2542.6 -0.813603 -3.78044 0
M  V30 27953 H 2544.29 -1.22269 -3.87047 0
M  V30 27954 H 2545.06 -3.62115 -3.22642 0
M  V30 27955 H 2540.94 -2.55708 -3.83581 0
M  V30 27956 H 2544.48 -5.99833 -3.56155 0
M  V30 27957 H 2540.38 -4.92533 -4.17231 0
M  V30 27958 H 2541.15 -7 -4.24196 0
M  V30 27959 N 2543.81 1.24015 -0.972531 0
M  V30 27960 C 2544.72 2.28892 -0.51434 0
M  V30 27961 C 2545.74 1.68678 0.427048 0
M  V30 27962 O 2546.91 1.9917 0.298904 0
M  V30 27963 C 2543.98 3.46214 0.183537 0
M  V30 27964 C 2543.04 4.21813 -0.798276 0
M  V30 27965 C 2542.27 5.33533 -0.133608 0
M  V30 27966 O 2542.49 5.60139 1.07704 0
M  V30 27967 O 2541.43 5.96175 -0.828208 0
M  V30 27968 H 2545.25 2.70212 -1.38633 0
M  V30 27969 H 2542.84 1.29798 -0.739792 0
M  V30 27970 H 2544.72 4.17454 0.57536 0
M  V30 27971 H 2543.4 3.06862 1.03042 0
M  V30 27972 H 2542.3 3.52929 -1.24065 0
M  V30 27973 H 2543.64 4.64994 -1.61372 0
M  V30 27974 N 2545.29 0.743226 1.38974 0
M  V30 27975 C 2546.7 0.363764 1.83122 0
M  V30 27976 C 2547.05 -1.10606 1.62052 0
M  V30 27977 O 2546.18 -1.85398 1.1161 0
M  V30 27978 C 2546.77 0.653467 3.32438 0
M  V30 27979 C 2545.33 0.327404 3.74973 0
M  V30 27980 C 2544.48 0.911921 2.61876 0
M  V30 27981 H 2547.43 0.940214 1.2785 0
M  V30 27982 H 2547.45 -0.0719362 3.80432 0
M  V30 27983 H 2546.96 1.72329 3.47742 0
M  V30 27984 H 2545.06 -0.73625 3.65254 0
M  V30 27985 H 2545.17 0.815714 4.72105 0
M  V30 27986 H 2543.54 0.337988 2.52447 0
M  V30 27987 H 2544.32 1.98656 2.79983 0
M  V30 27988 N 2546.77 -1.4974 0.491491 0
M  V30 27989 C 2548.02 -2.01616 -0.0581834 0
M  V30 27990 C 2548.33 -1.37693 -1.38925 0
M  V30 27991 O 2549.53 -1.80842 -2.02506 0
M  V30 27992 C 2547.99 -3.5957 -0.154172 0
M  V30 27993 C 2547.6 -4.32461 1.16968 0
M  V30 27994 C 2549.34 -4.19421 -0.654717 0
M  V30 27995 C 2547.25 -5.82249 1.03637 0
M  V30 27996 H 2546.18 -0.753568 -0.0255184 0
M  V30 27997 H 2548.83 -1.72365 0.629475 0
M  V30 27998 H 2547.21 -3.85495 -0.90607 0
M  V30 27999 H 2548.39 -4.18244 1.93412 0
M  V30 28000 H 2546.7 -3.84312 1.60292 0
M  V30 28001 H 2549.3 -5.291 -0.77181 0
M  V30 28002 H 2549.64 -3.82153 -1.6512 0
M  V30 28003 H 2550.17 -3.9778 0.040374 0
M  V30 28004 H 2546.91 -6.24024 2.00683 0
M  V30 28005 H 2546.43 -5.98985 0.312651 0
M  V30 28006 H 2548.11 -6.43079 0.711227 0
M  V30 28007 N 2548.24 -0.224922 -1.55987 0
M  V30 28008 C 2549.49 0.406467 -1.98685 0
M  V30 28009 C 2549.82 1.59175 -1.11251 0
M  V30 28010 O 2549.1 1.93747 -0.170943 0
M  V30 28011 C 2549.38 0.837747 -3.5022 0
M  V30 28012 C 2549.23 -0.351411 -4.48425 0
M  V30 28013 C 2550.55 1.6927 -4.06246 0
M  V30 28014 H 2547.67 0.146271 -0.722339 0
M  V30 28015 H 2550.31 -0.321832 -1.87254 0
M  V30 28016 H 2548.46 1.45831 -3.60091 0
M  V30 28017 H 2550.14 -0.989605 -4.5056 0
M  V30 28018 H 2548.38 -0.998281 -4.22157 0
M  V30 28019 H 2549.05 -0.00665608 -5.52 0
M  V30 28020 H 2551.53 1.16907 -3.99339 0
M  V30 28021 H 2550.4 1.96337 -5.12585 0
M  V30 28022 H 2550.66 2.65717 -3.53337 0
M  V30 28023 N 2549.72 1.57526 0.0484352 0
M  V30 28024 C 2550.95 1.92618 0.755387 0
M  V30 28025 C 2551.37 0.823014 1.69917 0
M  V30 28026 O 2550.72 -0.202053 1.81378 0
M  V30 28027 C 2550.77 3.27568 1.52909 0
M  V30 28028 O 2550.49 4.33645 0.623213 0
M  V30 28029 C 2552 3.76822 2.33495 0
M  V30 28030 H 2549.22 0.636144 0.213453 0
M  V30 28031 H 2551.76 2.04497 0.0117339 0
M  V30 28032 H 2549.91 3.17145 2.2248 0
M  V30 28033 H 2550.33 5.11427 1.16374 0
M  V30 28034 H 2551.8 4.73813 2.83205 0
M  V30 28035 H 2552.28 3.0702 3.14063 0
M  V30 28036 H 2552.89 3.90265 1.69036 0
M  V30 28037 N 2551.2 -0.32033 1.5431 0
M  V30 28038 C 2552.43 -1.07735 1.76638 0
M  V30 28039 C 2552.84 -1.81597 0.516522 0
M  V30 28040 O 2552.2 -1.75144 -0.512911 0
M  V30 28041 C 2552.25 -2.07293 2.96162 0
M  V30 28042 O 2551.97 -1.36431 4.16315 0
M  V30 28043 C 2553.47 -2.95188 3.30725 0
M  V30 28044 H 2550.69 -0.320328 0.589602 0
M  V30 28045 H 2553.24 -0.365475 2.01208 0
M  V30 28046 H 2551.39 -2.74011 2.73856 0
M  V30 28047 H 2551.81 -2.03129 4.83569 0
M  V30 28048 H 2553.28 -3.60933 4.17649 0
M  V30 28049 H 2553.76 -3.62459 2.48033 0
M  V30 28050 H 2554.36 -2.34028 3.55121 0
M  V30 28051 N 2552.68 -1.46438 -0.582558 0
M  V30 28052 C 2553.91 -1.55327 -1.36679 0
M  V30 28053 C 2554.32 -0.194442 -1.87796 0
M  V30 28054 O 2553.68 0.80829 -1.63624 0
M  V30 28055 C 2553.73 -2.55817 -2.55421 0
M  V30 28056 O 2553.45 -3.86421 -2.06423 0
M  V30 28057 C 2554.95 -2.74647 -3.47971 0
M  V30 28058 H 2552.17 -0.525266 -0.417536 0
M  V30 28059 H 2554.72 -1.91846 -0.708185 0
M  V30 28060 H 2552.87 -2.22301 -3.17272 0
M  V30 28061 H 2553.28 -4.41116 -2.83754 0
M  V30 28062 H 2554.76 -3.48881 -4.27769 0
M  V30 28063 H 2555.24 -1.8156 -3.99916 0
M  V30 28064 H 2555.84 -3.0926 -2.91956 0
M  V30 28065 N 2554.16 0.827204 -1.34146 0
M  V30 28066 C 2555.1 1.93782 -1.25367 0
M  V30 28067 C 2556.07 1.65592 -0.129803 0
M  V30 28068 O 2557.26 1.88264 -0.310057 0
M  V30 28069 C 2554.4 3.29968 -1.0107 0
M  V30 28070 C 2553.51 3.7048 -2.22191 0
M  V30 28071 C 2552.65 4.95592 -1.91212 0
M  V30 28072 C 2551.69 5.28672 -3.085 0
M  V30 28073 N 2550.82 6.44962 -2.77432 0
M  V30 28074 H 2555.66 2.00623 -2.20351 0
M  V30 28075 H 2553.2 0.981589 -1.09559 0
M  V30 28076 H 2555.16 4.08445 -0.850211 0
M  V30 28077 H 2553.79 3.22653 -0.0975593 0
M  V30 28078 H 2552.84 2.8743 -2.49175 0
M  V30 28079 H 2554.15 3.909 -3.09837 0
M  V30 28080 H 2553.31 5.81845 -1.71875 0
M  V30 28081 H 2552.04 4.77165 -1.0082 0
M  V30 28082 H 2551.05 4.40918 -3.28438 0
M  V30 28083 H 2552.27 5.4904 -3.99664 0
M  V30 28084 H 2550.22 6.27999 -1.89612 0
M  V30 28085 H 2550.14 6.65534 -3.5861 0
M  V30 28086 H 2551.41 7.34296 -2.61589 0
M  V30 28087 N 2555.63 1.17805 1.04688 0
M  V30 28088 C 2557.05 0.926402 1.29961 0
M  V30 28089 C 2557.25 -0.411601 1.97251 0
M  V30 28090 O 2556.31 -1.1474 2.24924 0
M  V30 28091 C 2557.62 2.08741 2.16444 0
M  V30 28092 C 2559.17 2.125 2.2981 0
M  V30 28093 C 2559.64 3.28001 3.19655 0
M  V30 28094 N 2561.13 3.27822 3.27242 0
M  V30 28095 C 2561.87 4.13834 3.96899 0
M  V30 28096 N 2561.36 5.09967 4.68941 0
M  V30 28097 N 2563.16 4.01768 3.93115 0
M  V30 28098 H 2555.31 2.03921 0.594146 0
M  V30 28099 H 2557.57 0.890684 0.324633 0
M  V30 28100 H 2557.28 3.05472 1.74299 0
M  V30 28101 H 2557.15 2.04274 3.17099 0
M  V30 28102 H 2559.54 1.16352 2.71194 0
M  V30 28103 H 2559.62 2.21027 1.28766 0
M  V30 28104 H 2559.26 4.24418 2.78984 0
M  V30 28105 H 2559.19 3.1671 4.20716 0
M  V30 28106 H 2561.68 2.58222 2.75916 0
M  V30 28107 H 2562 5.71983 5.19669 0
M  V30 28108 H 2560.34 5.13932 4.67866 0
M  V30 28109 H 2563.53 3.25956 3.35962 0
M  V30 28110 H 2563.71 4.69018 4.47131 0
M  V30 28111 N 2557.11 -1.23497 0.979094 0
M  V30 28112 C 2558.06 -2.24913 0.517944 0
M  V30 28113 C 2559.03 -1.60097 -0.442496 0
M  V30 28114 O 2560.21 -1.87556 -0.350332 0
M  V30 28115 C 2557.35 -3.44657 -0.174753 0
M  V30 28116 C 2556.47 -4.24034 0.825795 0
M  V30 28117 C 2555.6 -5.3109 0.108039 0
M  V30 28118 C 2554.64 -6.02173 1.09789 0
M  V30 28119 N 2553.78 -7.00906 0.409374 0
M  V30 28120 H 2558.62 -2.63725 1.38756 0
M  V30 28121 H 2556.16 -1.29629 0.695326 0
M  V30 28122 H 2558.11 -4.12962 -0.59316 0
M  V30 28123 H 2556.74 -3.0665 -1.00825 0
M  V30 28124 H 2555.8 -3.55158 1.3626 0
M  V30 28125 H 2557.11 -4.7311 1.58013 0
M  V30 28126 H 2556.26 -6.05584 -0.367798 0
M  V30 28127 H 2555 -4.82951 -0.678909 0
M  V30 28128 H 2554.01 -5.26473 1.58449 0
M  V30 28129 H 2555.23 -6.52401 1.88548 0
M  V30 28130 H 2553.18 -6.5502 -0.35839 0
M  V30 28131 H 2553.09 -7.47919 1.10239 0
M  V30 28132 H 2554.36 -7.79488 -0.0441187 0
M  V30 28133 N 2558.59 -0.750586 -1.38578 0
M  V30 28134 C 2559.5 -0.122866 -2.34278 0
M  V30 28135 C 2560.52 0.704103 -1.59118 0
M  V30 28136 O 2561.69 0.628954 -1.91327 0
M  V30 28137 C 2558.76 0.762027 -3.38222 0
M  V30 28138 C 2557.82 -0.0789714 -4.29227 0
M  V30 28139 C 2557.05 0.763781 -5.28206 0
M  V30 28140 O 2557.28 2.00192 -5.34116 0
M  V30 28141 O 2556.21 0.184174 -6.01618 0
M  V30 28142 H 2560.04 -0.913139 -2.89647 0
M  V30 28143 H 2557.62 -0.511442 -1.40373 0
M  V30 28144 H 2559.5 1.26786 -4.01875 0
M  V30 28145 H 2558.18 1.53085 -2.85214 0
M  V30 28146 H 2557.08 -0.630686 -3.68745 0
M  V30 28147 H 2558.42 -0.810375 -4.85483 0
M  V30 28148 N 2560.07 1.49477 -0.499425 0
M  V30 28149 C 2560.98 2.32869 0.284448 0
M  V30 28150 C 2562 1.44531 0.968859 0
M  V30 28151 O 2563.17 1.77555 0.950589 0
M  V30 28152 C 2560.24 3.1993 1.33588 0
M  V30 28153 C 2559.3 4.24117 0.665075 0
M  V30 28154 C 2558.53 5.07017 1.66641 0
M  V30 28155 O 2558.75 4.91409 2.89609 0
M  V30 28156 O 2557.69 5.89352 1.2226 0
M  V30 28157 H 2561.51 3.0108 -0.398073 0
M  V30 28158 H 2559.1 1.47106 -0.260784 0
M  V30 28159 H 2560.98 3.73868 1.94424 0
M  V30 28160 H 2559.66 2.54416 2.00136 0
M  V30 28161 H 2558.56 3.74096 0.0170112 0
M  V30 28162 H 2559.9 4.92182 0.042069 0
M  V30 28163 N 2561.55 0.233191 1.55865 0
M  V30 28164 C 2562.46 -0.683178 2.24432 0
M  V30 28165 C 2563.47 -1.20438 1.25582 0
M  V30 28166 O 2564.65 -1.24353 1.58424 0
M  V30 28167 C 2561.71 -1.86942 2.91982 0
M  V30 28168 C 2560.78 -1.38905 4.06207 0
M  V30 28169 C 2560.01 -2.51875 4.70526 0
M  V30 28170 O 2560.23 -3.70286 4.33872 0
M  V30 28171 O 2559.17 -2.22413 5.593 0
M  V30 28172 H 2562.99 -0.129006 3.03426 0
M  V30 28173 H 2560.58 0.00225456 1.494 0
M  V30 28174 H 2562.46 -2.56195 3.34577 0
M  V30 28175 H 2561.13 -2.41147 2.15939 0
M  V30 28176 H 2560.04 -0.664195 3.68157 0
M  V30 28177 H 2561.37 -0.893243 4.84027 0
M  V30 28178 N 2563.03 -1.57549 -0.0400806 0
M  V30 28179 C 2564.44 -1.54621 -0.395529 0
M  V30 28180 C 2564.64 -0.95783 -1.77279 0
M  V30 28181 O 2563.7 -0.574074 -2.45887 0
M  V30 28182 C 2565.01 -2.99124 -0.307482 0
M  V30 28183 C 2566.56 -3.10619 -0.38537 0
M  V30 28184 C 2567.03 -4.56832 -0.326892 0
M  V30 28185 N 2568.52 -4.61589 -0.386021 0
M  V30 28186 C 2569.26 -5.72247 -0.36349 0
M  V30 28187 N 2568.76 -6.92176 -0.293899 0
M  V30 28188 N 2570.55 -5.60585 -0.412405 0
M  V30 28189 H 2562.7 -1.9415 0.861359 0
M  V30 28190 H 2564.96 -0.890015 0.326461 0
M  V30 28191 H 2564.67 -3.45855 0.638522 0
M  V30 28192 H 2564.54 -3.60638 -1.10545 0
M  V30 28193 H 2566.93 -2.63842 -1.3218 0
M  V30 28194 H 2567.01 -2.51957 0.441755 0
M  V30 28195 H 2566.65 -5.04274 0.605827 0
M  V30 28196 H 2566.58 -5.13393 -1.17198 0
M  V30 28197 H 2569.08 -3.75297 -0.442766 0
M  V30 28198 H 2569.39 -7.72287 -0.281504 0
M  V30 28199 H 2567.73 -6.94513 -0.26011 0
M  V30 28200 H 2570.92 -4.65788 -0.464687 0
M  V30 28201 H 2571.1 -6.46817 -0.391378 0
M  V30 28202 N 2564.5 0.312142 -1.54478 0
M  V30 28203 C 2565.75 1.04665 -1.72886 0
M  V30 28204 C 2566.07 1.88172 -0.51151 0
M  V30 28205 O 2565.34 1.9007 0.474373 0
M  V30 28206 H 2563.92 0.389414 -0.637468 0
M  V30 28207 H 2566.58 0.345818 -1.91807 0
M  V30 28208 H 2565.68 1.70615 -2.61337 0
M  V30 28209 N 2565.98 1.46745 0.574784 0
M  V30 28210 C 2566.94 1.57481 1.66531 0
M  V30 28211 C 2567.94 0.45129 1.54337 0
M  V30 28212 O 2569.13 0.715841 1.58812 0
M  V30 28213 C 2566.27 1.50264 3.05996 0
M  V30 28214 H 2567.46 2.54676 1.58367 0
M  V30 28215 H 2565.01 1.34673 0.793278 0
M  V30 28216 H 2565.75 0.543781 3.19708 0
M  V30 28217 H 2565.53 2.31787 3.16255 0
M  V30 28218 H 2567.02 1.60879 3.85367 0
M  V30 28219 N 2567.46 -0.820078 1.34583 0
M  V30 28220 C 2568.42 -1.91273 1.26283 0
M  V30 28221 C 2569.42 -1.59819 0.177372 0
M  V30 28222 O 2570.61 -1.68805 0.430186 0
M  V30 28223 C 2567.74 -3.27384 0.950385 0
M  V30 28224 H 2568.94 -2.00054 2.23425 0
M  V30 28225 H 2566.49 -1.01438 1.18912 0
M  V30 28226 H 2567.23 -3.24295 -0.0177368 0
M  V30 28227 H 2567.01 -3.51598 1.73556 0
M  V30 28228 H 2568.5 -4.07395 0.917564 0
M  V30 28229 N 2568.94 -1.18359 -1.04062 0
M  V30 28230 C 2570.19 -0.973344 -1.7666 0
M  V30 28231 C 2570.5 0.497958 -1.89155 0
M  V30 28232 O 2571.71 0.826716 -2.58607 0
M  V30 28233 C 2570.16 -1.69247 -3.17622 0
M  V30 28234 C 2569.77 -3.20308 -3.1322 0
M  V30 28235 C 2571.51 -1.56504 -3.94597 0
M  V30 28236 C 2569.42 -3.8486 -4.49039 0
M  V30 28237 H 2568.35 -0.360552 -0.662207 0
M  V30 28238 H 2571 -1.41733 -1.16551 0
M  V30 28239 H 2569.38 -1.17626 -3.78127 0
M  V30 28240 H 2570.56 -3.78954 -2.62165 0
M  V30 28241 H 2568.87 -3.33193 -2.49743 0
M  V30 28242 H 2571.47 -2.02093 -4.95038 0
M  V30 28243 H 2571.81 -0.517315 -4.13073 0
M  V30 28244 H 2572.35 -2.05405 -3.40666 0
M  V30 28245 H 2569.08 -4.8968 -4.35768 0
M  V30 28246 H 2568.6 -3.31003 -5.00197 0
M  V30 28247 H 2570.28 -3.87727 -5.17955 0
M  V30 28248 N 2570.42 1.22976 -0.98563 0
M  V30 28249 C 2571.66 1.9084 -0.652914 0
M  V30 28250 C 2571.98 1.77683 0.817811 0
M  V30 28251 O 2573.18 2.40397 1.26181 0
M  V30 28252 C 2571.64 3.4212 -1.11723 0
M  V30 28253 C 2571.25 3.63928 -2.61267 0
M  V30 28254 C 2572.99 4.15728 -0.858503 0
M  V30 28255 C 2570.9 5.0887 -3.01339 0
M  V30 28256 H 2569.83 0.714614 -0.240504 0
M  V30 28257 H 2572.48 1.39322 -1.19423 0
M  V30 28258 H 2570.86 3.92778 -0.504096 0
M  V30 28259 H 2572.04 3.23794 -3.27863 0
M  V30 28260 H 2570.35 3.03639 -2.84943 0
M  V30 28261 H 2572.95 5.22544 -1.13368 0
M  V30 28262 H 2573.29 4.15793 0.205388 0
M  V30 28263 H 2573.82 3.71075 -1.43347 0
M  V30 28264 H 2570.56 5.1394 -4.06873 0
M  V30 28265 H 2570.08 5.49935 -2.3944 0
M  V30 28266 H 2571.76 5.77242 -2.92235 0
M  V30 28267 N 2571.89 0.757924 1.38178 0
M  V30 28268 C 2572.83 0.0932579 2.2901 0
M  V30 28269 C 2573.84 -0.67911 1.47959 0
M  V30 28270 O 2575.03 -0.519483 1.70774 0
M  V30 28271 C 2572.13 -0.891863 3.26954 0
M  V30 28272 C 2571.3 -0.176226 4.37045 0
M  V30 28273 C 2570.36 -1.07272 5.1515 0
M  V30 28274 O 2569.39 -0.541629 5.66617 0
M  V30 28275 N 2570.59 -2.4004 5.28546 0
M  V30 28276 H 2573.35 0.873354 2.86693 0
M  V30 28277 H 2570.91 0.60908 1.50006 0
M  V30 28278 H 2572.91 -1.49473 3.76085 0
M  V30 28279 H 2571.48 -1.57301 2.70139 0
M  V30 28280 H 2570.7 0.607397 3.89492 0
M  V30 28281 H 2571.98 0.318807 5.078 0
M  V30 28282 H 2571.38 -2.85639 4.8829 0
M  V30 28283 H 2569.94 -2.95366 5.81036 0
M  V30 28284 N 2573.37 -1.4921 0.507345 0
M  V30 28285 C 2574.32 -2.29242 -0.267687 0
M  V30 28286 C 2575.29 -1.3593 -0.954585 0
M  V30 28287 O 2576.47 -1.64889 -0.960017 0
M  V30 28288 C 2573.61 -3.18759 -1.32238 0
M  V30 28289 C 2572.73 -4.27133 -0.646615 0
M  V30 28290 C 2571.86 -5.03858 -1.68229 0
M  V30 28291 C 2570.9 -6.04061 -0.988744 0
M  V30 28292 N 2570.04 -6.73927 -1.96891 0
M  V30 28293 H 2574.88 -2.95011 0.42102 0
M  V30 28294 H 2572.42 -1.45454 0.219469 0
M  V30 28295 H 2574.37 -3.69039 -1.94592 0
M  V30 28296 H 2573 -2.54961 -1.97976 0
M  V30 28297 H 2572.06 -3.80293 0.0903594 0
M  V30 28298 H 2573.37 -4.98698 -0.10097 0
M  V30 28299 H 2572.52 -5.58038 -2.38072 0
M  V30 28300 H 2571.26 -4.32081 -2.2618 0
M  V30 28301 H 2570.27 -5.49106 -0.276125 0
M  V30 28302 H 2571.49 -6.77827 -0.415648 0
M  V30 28303 H 2569.44 -6.04918 -2.53792 0
M  V30 28304 H 2569.35 -7.41489 -1.4741 0
M  V30 28305 H 2570.62 -7.32709 -2.66003 0
M  V30 28306 N 2574.85 -0.241454 -1.55739 0
M  V30 28307 C 2575.81 0.647025 -2.19878 0
M  V30 28308 C 2576.81 1.10684 -1.16644 0
M  V30 28309 O 2578 1.01243 -1.41759 0
M  V30 28310 C 2575.14 1.88866 -2.838 0
M  V30 28311 H 2576.33 0.0875213 -2.99772 0
M  V30 28312 H 2573.88 0.00810826 -1.56298 0
M  V30 28313 H 2574.62 2.48953 -2.07829 0
M  V30 28314 H 2574.4 1.56722 -3.59417 0
M  V30 28315 H 2575.89 2.52123 -3.32902 0
M  V30 28316 N 2576.33 1.57568 0.0317248 0
M  V30 28317 C 2577.58 1.89151 0.723071 0
M  V30 28318 C 2577.9 0.838408 1.75502 0
M  V30 28319 O 2577.16 -0.160948 1.95037 0
M  V30 28320 C 2577.46 3.27475 1.43161 0
M  V30 28321 C 2577.12 4.47704 0.535893 0
M  V30 28322 C 2575.79 4.8033 0.289178 0
M  V30 28323 C 2578.14 5.21134 -0.0827041 0
M  V30 28324 C 2575.47 5.83777 -0.584956 0
M  V30 28325 C 2577.82 6.25509 -0.944524 0
M  V30 28326 C 2576.48 6.56612 -1.20073 0
M  V30 28327 H 2575.75 0.692151 0.26459 0
M  V30 28328 H 2578.4 1.91492 -0.0169833 0
M  V30 28329 H 2576.7 3.21109 2.24492 0
M  V30 28330 H 2578.4 3.49159 1.97203 0
M  V30 28331 H 2574.99 4.22193 0.738339 0
M  V30 28332 H 2579.17 4.96209 0.094943 0
M  V30 28333 H 2574.43 6.06251 -0.791787 0
M  V30 28334 H 2578.6 6.81552 -1.43038 0
M  V30 28335 H 2576.23 7.36592 -1.8798 0
M  V30 28336 N 2577.81 -0.303946 1.54641 0
M  V30 28337 C 2579.22 -0.649437 1.45789 0
M  V30 28338 C 2579.42 -1.90841 0.646693 0
M  V30 28339 O 2578.48 -2.52035 0.153227 0
M  V30 28340 C 2579.79 -0.805176 2.8972 0
M  V30 28341 C 2581.34 -0.901252 2.99744 0
M  V30 28342 C 2581.81 -1.08901 4.44865 0
M  V30 28343 N 2583.31 -1.15529 4.48561 0
M  V30 28344 C 2584.04 -1.31881 5.58028 0
M  V30 28345 N 2583.54 -1.45149 6.77424 0
M  V30 28346 N 2585.33 -1.34745 5.45711 0
M  V30 28347 H 2577.48 0.523273 2.05853 0
M  V30 28348 H 2579.74 0.172447 0.932183 0
M  V30 28349 H 2579.45 0.0489726 3.51666 0
M  V30 28350 H 2579.32 -1.69507 3.36967 0
M  V30 28351 H 2581.71 -1.74589 2.37913 0
M  V30 28352 H 2581.79 0.0125981 2.55797 0
M  V30 28353 H 2581.44 -0.249152 5.07289 0
M  V30 28354 H 2581.37 -2.01704 4.86439 0
M  V30 28355 H 2583.86 -1.06639 3.62542 0
M  V30 28356 H 2584.17 -1.57373 7.56607 0
M  V30 28357 H 2582.51 -1.42211 6.80295 0
M  V30 28358 H 2585.71 -1.23988 4.51381 0
M  V30 28359 H 2585.88 -1.47146 6.31072 0
M  V30 28360 N 2579.28 -1.47047 -0.566994 0
M  V30 28361 C 2580.23 -1.58798 -1.67486 0
M  V30 28362 C 2581.2 -0.431468 -1.60398 0
M  V30 28363 O 2582.39 -0.650264 -1.79377 0
M  V30 28364 C 2579.53 -1.59904 -3.05818 0
M  V30 28365 C 2578.64 -2.86403 -3.23415 0
M  V30 28366 C 2577.77 -2.78908 -4.52088 0
M  V30 28367 C 2576.81 -4.00275 -4.63083 0
M  V30 28368 N 2575.95 -3.91075 -5.831 0
M  V30 28369 H 2580.79 -2.53424 -1.5678 0
M  V30 28370 H 2578.33 -1.25711 -0.763874 0
M  V30 28371 H 2580.29 -1.58529 -3.85907 0
M  V30 28372 H 2578.92 -0.687984 -3.15383 0
M  V30 28373 H 2577.97 -2.97688 -2.36824 0
M  V30 28374 H 2579.28 -3.76307 -3.27405 0
M  V30 28375 H 2578.43 -2.75727 -5.40425 0
M  V30 28376 H 2577.17 -1.8667 -4.50561 0
M  V30 28377 H 2576.18 -4.03771 -3.7316 0
M  V30 28378 H 2577.4 -4.93629 -4.66377 0
M  V30 28379 H 2575.35 -3.01633 -5.8254 0
M  V30 28380 H 2575.27 -4.74649 -5.88426 0
M  V30 28381 H 2576.53 -3.91894 -6.73824 0
M  V30 28382 N 2580.76 0.812929 -1.35016 0
M  V30 28383 C 2581.99 1.59886 -1.30844 0
M  V30 28384 C 2582.4 1.88835 0.117542 0
M  V30 28385 O 2581.74 1.48741 1.07805 0
M  V30 28386 C 2581.81 2.95928 -2.04125 0
M  V30 28387 C 2581.47 2.89826 -3.53341 0
M  V30 28388 C 2582.47 2.63707 -4.48057 0
M  V30 28389 C 2580.15 3.09143 -3.95899 0
M  V30 28390 C 2582.15 2.56971 -5.83305 0
M  V30 28391 C 2579.83 3.02031 -5.31244 0
M  V30 28392 C 2580.83 2.7598 -6.24759 0
M  V30 28393 O 2580.52 2.68819 -7.57622 0
M  V30 28394 H 2580.25 0.503362 -0.451224 0
M  V30 28395 H 2582.8 1.01874 -1.78356 0
M  V30 28396 H 2581.03 3.55898 -1.51241 0
M  V30 28397 H 2582.72 3.57018 -1.93113 0
M  V30 28398 H 2583.49 2.48508 -4.16496 0
M  V30 28399 H 2579.37 3.28433 -3.23501 0
M  V30 28400 H 2582.91 2.36558 -6.56267 0
M  V30 28401 H 2578.81 3.16786 -5.62421 0
M  V30 28402 H 2579.58 2.84474 -7.67474 0
M  V30 28403 N 2582.24 1.18909 1.03433 0
M  V30 28404 C 2583.17 0.865247 2.1116 0
M  V30 28405 C 2584.15 -0.175444 1.61651 0
M  V30 28406 O 2585.34 -0.0529798 1.88426 0
M  V30 28407 C 2582.46 0.293927 3.37422 0
M  V30 28408 C 2581.51 1.31281 4.05793 0
M  V30 28409 S 2582.34 2.87118 4.52022 0
M  V30 28410 C 2583.5 2.31514 5.81508 0
M  V30 28411 H 2583.73 1.77758 2.38305 0
M  V30 28412 H 2581.26 1.01564 1.16293 0
M  V30 28413 H 2583.22 -0.029185 4.1049 0
M  V30 28414 H 2581.88 -0.596628 3.08382 0
M  V30 28415 H 2581.08 0.862067 4.96573 0
M  V30 28416 H 2580.68 1.58248 3.38871 0
M  V30 28417 H 2582.97 1.70169 6.55781 0
M  V30 28418 H 2583.91 3.2062 6.31355 0
M  V30 28419 H 2584.32 1.74296 5.36918 0
M  V30 28420 N 2583.72 -1.22452 0.992137 0
M  V30 28421 C 2584.65 -2.22949 0.48674 0
M  V30 28422 C 2585.63 -1.56175 -0.452562 0
M  V30 28423 O 2586.81 -1.84665 -0.378284 0
M  V30 28424 C 2583.94 -3.37417 -0.294477 0
M  V30 28425 C 2582.99 -4.2239 0.590702 0
M  V30 28426 S 2583.82 -4.94892 2.04555 0
M  V30 28427 C 2584.98 -6.12801 1.2738 0
M  V30 28428 H 2585.21 -2.65473 1.33833 0
M  V30 28429 H 2582.74 -1.32116 0.799046 0
M  V30 28430 H 2584.7 -4.0379 -0.73917 0
M  V30 28431 H 2583.36 -2.93402 -1.12133 0
M  V30 28432 H 2582.55 -5.03999 -0.0103489 0
M  V30 28433 H 2582.16 -3.61145 0.972127 0
M  V30 28434 H 2584.45 -6.75336 0.541062 0
M  V30 28435 H 2585.39 -6.77316 2.06514 0
M  V30 28436 H 2585.8 -5.58981 0.787423 0
M  V30 28437 N 2585.2 -0.765242 -1.37774 0
M  V30 28438 C 2586.14 -0.145315 -2.30342 0
M  V30 28439 C 2587.11 0.696944 -1.50771 0
M  V30 28440 O 2588.3 0.650658 -1.79363 0
M  V30 28441 C 2585.44 0.73288 -3.37228 0
M  V30 28442 C 2584.55 -0.125275 -4.31818 0
M  V30 28443 C 2583.69 0.757014 -5.25778 0
M  V30 28444 C 2582.73 -0.10407 -6.12012 0
M  V30 28445 N 2581.86 0.73583 -6.98233 0
M  V30 28446 H 2586.7 -0.940245 -2.82778 0
M  V30 28447 H 2584.24 -0.47528 -1.3921 0
M  V30 28448 H 2586.2 1.25679 -3.9782 0
M  V30 28449 H 2584.83 1.49348 -2.86173 0
M  V30 28450 H 2583.88 -0.76693 -3.72589 0
M  V30 28451 H 2585.19 -0.789769 -4.92508 0
M  V30 28452 H 2584.35 1.34765 -5.91543 0
M  V30 28453 H 2583.08 1.45521 -4.65484 0
M  V30 28454 H 2582.09 -0.707293 -5.45232 0
M  V30 28455 H 2583.31 -0.7995 -6.74377 0
M  V30 28456 H 2581.26 1.41876 -6.40474 0
M  V30 28457 H 2581.18 0.128491 -7.55891 0
M  V30 28458 H 2582.45 1.31107 -7.68395 0
M  V30 28459 N 2586.67 1.48939 -0.515251 0
M  V30 28460 C 2587.92 2.02786 0.0242152 0
M  V30 28461 C 2588.25 1.39291 1.35321 0
M  V30 28462 O 2587.53 0.533502 1.8704 0
M  V30 28463 C 2587.81 3.59736 0.161777 0
M  V30 28464 C 2587.66 4.33736 -1.19134 0
M  V30 28465 C 2588.98 4.3089 0.895644 0
M  V30 28466 H 2586.1 0.736964 0.00732618 0
M  V30 28467 H 2588.74 1.77816 -0.669426 0
M  V30 28468 H 2586.89 3.81141 0.752557 0
M  V30 28469 H 2588.57 4.23789 -1.8221 0
M  V30 28470 H 2586.81 3.95733 -1.77702 0
M  V30 28471 H 2587.48 5.41956 -1.04824 0
M  V30 28472 H 2589.96 4.14226 0.394455 0
M  V30 28473 H 2588.83 5.40426 0.960764 0
M  V30 28474 H 2589.09 3.97133 1.94263 0
M  V30 28475 N 2588.15 0.249709 1.55609 0
M  V30 28476 C 2589.38 -0.378316 2.03412 0
M  V30 28477 C 2589.8 -1.51333 1.12889 0
M  V30 28478 O 2589.15 -1.81932 0.143865 0
M  V30 28479 C 2589.2 -0.883448 3.50539 0
M  V30 28480 O 2588.93 0.206337 4.37614 0
M  V30 28481 C 2590.43 -1.58188 4.14115 0
M  V30 28482 H 2587.65 -0.0895683 0.664995 0
M  V30 28483 H 2590.19 0.374393 2.01044 0
M  V30 28484 H 2588.35 -1.58633 3.53432 0
M  V30 28485 H 2588.76 -0.17769 5.24199 0
M  V30 28486 H 2590.23 -1.88701 5.18745 0
M  V30 28487 H 2590.71 -2.50481 3.60772 0
M  V30 28488 H 2591.32 -0.9235 4.15152 0
M  V30 28489 N 2589.63 -1.57583 -0.0233682 0
M  V30 28490 C 2590.58 -2.06929 -1.02221 0
M  V30 28491 C 2591.55 -0.959641 -1.35573 0
M  V30 28492 O 2592.73 -1.23058 -1.45813 0
M  V30 28493 C 2589.87 -2.55814 -2.31632 0
M  V30 28494 C 2588.99 -3.80591 -2.04388 0
M  V30 28495 C 2588.12 -4.18067 -3.2771 0
M  V30 28496 C 2587.16 -5.35745 -2.96046 0
M  V30 28497 N 2586.3 -5.68625 -4.11837 0
M  V30 28498 H 2591.14 -2.92011 -0.594453 0
M  V30 28499 H 2588.67 -1.44374 -0.281896 0
M  V30 28500 H 2590.63 -2.82226 -3.07253 0
M  V30 28501 H 2589.26 -1.73641 -2.72119 0
M  V30 28502 H 2588.31 -3.61229 -1.19238 0
M  V30 28503 H 2589.63 -4.66327 -1.77034 0
M  V30 28504 H 2588.78 -4.45637 -4.11695 0
M  V30 28505 H 2587.52 -3.30994 -3.58182 0
M  V30 28506 H 2586.52 -5.07922 -2.10465 0
M  V30 28507 H 2587.75 -6.24476 -2.66846 0
M  V30 28508 H 2585.7 -4.84511 -4.4225 0
M  V30 28509 H 2585.61 -6.48883 -3.87927 0
M  V30 28510 H 2586.88 -6.00775 -4.96678 0
M  V30 28511 N 2591.11 0.29574 -1.548 0
M  V30 28512 C 2592.36 1.02825 -1.73987 0
M  V30 28513 C 2592.68 1.87619 -0.531439 0
M  V30 28514 O 2591.95 1.90562 0.454187 0
M  V30 28515 H 2590.53 0.382631 -0.641563 0
M  V30 28516 H 2593.19 0.325455 -1.92163 0
M  V30 28517 H 2592.29 1.67833 -2.63132 0
M  V30 28518 N 2592.59 1.47346 0.559187 0
M  V30 28519 C 2593.86 1.4435 1.31994 0
M  V30 28520 C 2594.24 0.139395 2.10639 0
M  V30 28521 O 2593.59 -0.879116 2.10912 0
M  V30 28522 C 2593.8 2.68783 2.22613 0
M  V30 28523 C 2595.15 3.15915 2.83695 0
M  V30 28524 O 2596.17 2.69497 2.32916 0
M  V30 28525 O 2595.03 3.96606 3.75986 0
M  V30 28526 H 2592.13 0.575158 0.594241 0
M  V30 28527 H 2594.67 1.59544 0.578254 0
M  V30 28528 H 2593.45 3.55234 1.64087 0
M  V30 28529 H 2593.07 2.56166 3.04081 0
M  V30 28530 N 2594.07 -0.805758 1.35445 0
M  V30 28531 C 2595 -1.92575 1.24288 0
M  V30 28532 C 2596.01 -1.61952 0.16599 0
M  V30 28533 O 2597.2 -1.73505 0.419334 0
M  V30 28534 C 2594.3 -3.26969 0.89133 0
M  V30 28535 C 2593.47 -3.85492 2.06676 0
M  V30 28536 C 2592.53 -4.98294 1.69086 0
M  V30 28537 O 2591.56 -5.15677 2.40969 0
M  V30 28538 N 2592.76 -5.77233 0.614971 0
M  V30 28539 H 2595.52 -2.02672 2.20781 0
M  V30 28540 H 2593.09 -0.98322 1.28625 0
M  V30 28541 H 2595.08 -3.99902 0.621326 0
M  V30 28542 H 2593.65 -3.12596 0.016059 0
M  V30 28543 H 2592.87 -3.04742 2.50052 0
M  V30 28544 H 2594.16 -4.21323 2.85245 0
M  V30 28545 H 2593.55 -5.65697 0.0177474 0
M  V30 28546 H 2592.11 -6.50542 0.40475 0
M  V30 28547 N 2595.54 -1.19456 -1.02801 0
M  V30 28548 C 2596.79 -0.995753 -1.75867 0
M  V30 28549 C 2597.11 0.47451 -1.89139 0
M  V30 28550 O 2596.38 1.34363 -1.4256 0
M  V30 28551 H 2594.96 -0.365446 -0.651504 0
M  V30 28552 H 2597.62 -1.50365 -1.24001 0
M  V30 28553 H 2596.72 -1.44452 -2.76659 0
M  V30 28554 N 2597.02 1.21924 -0.998617 0
M  V30 28555 C 2598.3 1.86381 -0.593434 0
M  V30 28556 C 2598.68 1.89553 0.929127 0
M  V30 28557 O 2598.03 1.3902 1.81344 0
M  V30 28558 C 2598.24 3.26965 -1.22045 0
M  V30 28559 C 2599.58 4.03411 -1.32456 0
M  V30 28560 O 2600.61 3.36252 -1.17528 0
M  V30 28561 O 2599.47 5.23641 -1.56404 0
M  V30 28562 H 2596.56 0.80185 -0.202399 0
M  V30 28563 H 2599.11 1.29657 -1.09486 0
M  V30 28564 H 2597.88 3.19321 -2.26163 0
M  V30 28565 H 2597.5 3.913 -0.704975 0
M  V30 28566 N 2598.5 0.772537 1.37367 0
M  V30 28567 C 2599.43 0.117542 2.28898 0
M  V30 28568 C 2600.44 -0.663379 1.48671 0
M  V30 28569 O 2601.63 -0.501341 1.71315 0
M  V30 28570 C 2598.73 -0.857135 3.27882 0
M  V30 28571 C 2597.91 -0.129861 4.37207 0
M  V30 28572 C 2596.97 -1.01802 5.16258 0
M  V30 28573 O 2595.99 -0.481501 5.6716 0
M  V30 28574 N 2597.19 -2.3442 5.31063 0
M  V30 28575 H 2599.96 0.903712 2.8575 0
M  V30 28576 H 2597.52 0.624956 1.49352 0
M  V30 28577 H 2599.51 -1.45475 3.77649 0
M  V30 28578 H 2598.08 -1.54427 2.71792 0
M  V30 28579 H 2597.3 0.648673 3.88826 0
M  V30 28580 H 2598.59 0.372648 5.07434 0
M  V30 28581 H 2597.99 -2.80444 4.91292 0
M  V30 28582 H 2596.54 -2.89187 5.84136 0
M  V30 28583 N 2599.98 -1.48664 0.523142 0
M  V30 28584 C 2600.93 -2.31178 -0.256818 0
M  V30 28585 C 2601.92 -1.40796 -0.941965 0
M  V30 28586 O 2603.13 -1.57737 -0.867129 0
M  V30 28587 H 2599.5 -0.745093 -0.101687 0
M  V30 28588 H 2601.47 -2.94852 0.458791 0
M  V30 28589 C 2600.22 -3.22685 -1.29498 0
M  V30 28590 H 2599.54 -3.92173 -0.777179 0
M  V30 28591 H 2600.98 -3.83318 -1.81226 0
M  V30 28592 C 2599.44 -2.43817 -2.32497 0
M  V30 28593 O 2599.97 -2.15808 -3.38806 0
M  V30 28594 N 2598.18 -2.05436 -2.05534 0
M  V30 28595 H 2597.73 -2.28414 -1.191 0
M  V30 28596 H 2597.68 -1.52977 -2.74673 0
M  V30 28597 N 2601.46 -0.257958 -1.55475 0
M  V30 28598 C 2602.73 0.414596 -1.91156 0
M  V30 28599 C 2603.11 1.75033 -1.18011 0
M  V30 28600 O 2602.46 2.26506 -0.301232 0
M  V30 28601 C 2602.67 0.571799 -3.44284 0
M  V30 28602 C 2604.02 0.862605 -4.15745 0
M  V30 28603 O 2605.04 0.657252 -3.50084 0
M  V30 28604 O 2603.9 1.25431 -5.31911 0
M  V30 28605 H 2601 0.224236 -0.79602 0
M  V30 28606 H 2603.54 -0.302843 -1.66976 0
M  V30 28607 H 2602.31 -0.368912 -3.89557 0
M  V30 28608 H 2601.94 1.33936 -3.74362 0
M  V30 28609 N 2602.93 1.57593 0.0150108 0
M  V30 28610 C 2603.86 2.10505 1.01044 0
M  V30 28611 C 2604.85 1.01074 1.36814 0
M  V30 28612 O 2606.03 1.28675 1.45452 0
M  V30 28613 C 2603.16 2.59602 2.30703 0
M  V30 28614 C 2602.11 3.73425 2.09136 0
M  V30 28615 C 2601.44 4.0878 3.44678 0
M  V30 28616 C 2602.74 5.01301 1.4661 0
M  V30 28617 H 2604.43 2.93926 0.569926 0
M  V30 28618 H 2601.98 1.41394 0.272699 0
M  V30 28619 H 2603.93 2.95243 3.00682 0
M  V30 28620 H 2602.66 1.73284 2.7684 0
M  V30 28621 H 2601.32 3.38155 1.41586 0
M  V30 28622 H 2600.96 3.19507 3.8849 0
M  V30 28623 H 2600.66 4.85456 3.31068 0
M  V30 28624 H 2602.19 4.46967 4.15996 0
M  V30 28625 H 2603.6 5.34809 2.06525 0
M  V30 28626 H 2602 5.82682 1.43534 0
M  V30 28627 H 2603.07 4.82958 0.433526 0
M  V30 28628 N 2604.41 -0.287527 1.54955 0
M  V30 28629 C 2605.32 -1.37733 1.89913 0
M  V30 28630 C 2606.34 -1.5479 0.794729 0
M  V30 28631 O 2607.51 -1.69196 1.09246 0
M  V30 28632 C 2604.58 -2.71896 2.15113 0
M  V30 28633 C 2603.64 -2.63709 3.38757 0
M  V30 28634 C 2602.87 -3.91473 3.62746 0
M  V30 28635 O 2603.1 -4.91473 2.89501 0
M  V30 28636 O 2602.03 -3.92553 4.56274 0
M  V30 28637 H 2605.86 -1.11087 2.82654 0
M  V30 28638 H 2603.44 -0.484782 1.41316 0
M  V30 28639 H 2605.32 -3.5125 2.32812 0
M  V30 28640 H 2604 -2.98358 1.25556 0
M  V30 28641 H 2602.91 -1.8278 3.26408 0
M  V30 28642 H 2604.24 -2.42198 4.28487 0
M  V30 28643 N 2605.89 -1.47641 -0.551365 0
M  V30 28644 C 2606.84 -1.60981 -1.67893 0
M  V30 28645 C 2607.83 -0.476905 -1.62548 0
M  V30 28646 O 2609.04 -0.654907 -1.67663 0
M  V30 28647 H 2605.41 -0.506722 -0.555641 0
M  V30 28648 H 2607.38 -2.55723 -1.53779 0
M  V30 28649 C 2606.13 -1.64674 -3.06232 0
M  V30 28650 H 2605.46 -2.512 -3.11028 0
M  V30 28651 H 2606.9 -1.78056 -3.84801 0
M  V30 28652 C 2605.36 -0.381173 -3.34737 0
M  V30 28653 O 2605.89 0.515226 -3.98382 0
M  V30 28654 N 2604.09 -0.259405 -2.8944 0
M  V30 28655 H 2603.64 -0.989802 -2.37825 0
M  V30 28656 H 2603.6 0.58641 -3.08883 0
M  V30 28657 N 2607.37 0.798563 -1.3587 0
M  V30 28658 C 2608.62 1.55296 -1.29335 0
M  V30 28659 C 2608.94 1.94568 0.129695 0
M  V30 28660 O 2608.21 1.64231 1.06793 0
M  V30 28661 H 2606.79 0.575911 -0.475747 0
M  V30 28662 H 2609.45 0.952063 -1.70064 0
M  V30 28663 H 2608.55 2.46472 -1.91462 0
M  V30 28664 N 2608.85 1.19999 1.02166 0
M  V30 28665 C 2610.26 1.00827 1.57133 0
M  V30 28666 C 2610.61 -0.436784 1.91276 0
M  V30 28667 O 2609.73 -1.31737 1.71681 0
M  V30 28668 C 2610.33 1.82398 2.85511 0
M  V30 28669 C 2608.89 1.67607 3.37024 0
M  V30 28670 C 2608.03 1.80648 2.10385 0
M  V30 28671 H 2610.99 1.34265 0.846082 0
M  V30 28672 H 2611.01 1.32435 3.56709 0
M  V30 28673 H 2610.52 2.87566 2.60629 0
M  V30 28674 H 2608.62 0.65055 3.66877 0
M  V30 28675 H 2608.73 2.48578 4.09568 0
M  V30 28676 H 2607.1 1.23782 2.22599 0
M  V30 28677 H 2607.88 2.87289 1.87935 0
M  V30 28678 N 2610.32 -1.21392 1.00507 0
M  V30 28679 C 2611.27 -2.21597 0.536542 0
M  V30 28680 C 2612.26 -1.558 -0.401886 0
M  V30 28681 O 2613.45 -1.75542 -0.226726 0
M  V30 28682 C 2610.58 -3.43033 -0.135386 0
M  V30 28683 C 2609.67 -4.16017 0.824065 0
M  V30 28684 N 2610.06 -4.65566 1.97691 0
M  V30 28685 C 2608.35 -4.41348 0.642464 0
M  V30 28686 C 2609.06 -5.21349 2.58012 0
M  V30 28687 N 2608.03 -5.10726 1.86171 0
M  V30 28688 H 2611.83 -2.57561 1.41561 0
M  V30 28689 H 2609.35 -1.372 0.868902 0
M  V30 28690 H 2611.34 -4.14028 -0.488511 0
M  V30 28691 H 2610 -3.08578 -1.01044 0
M  V30 28692 H 2611.02 -4.61143 2.35728 0
M  V30 28693 H 2607.69 -4.17088 -0.185504 0
M  V30 28694 H 2609.08 -5.70142 3.5551 0
M  V30 28695 N 2611.8 -0.779811 -1.36955 0
M  V30 28696 C 2613.03 -0.35826 -2.04282 0
M  V30 28697 C 2613.45 1.01408 -1.58423 0
M  V30 28698 O 2612.81 1.65141 -0.748208 0
M  V30 28699 C 2612.86 -0.419542 -3.58151 0
M  V30 28700 O 2611.96 0.57707 -4.08343 0
M  V30 28701 H 2611.3 -0.15371 -0.645964 0
M  V30 28702 H 2613.83 -1.05825 -1.75106 0
M  V30 28703 H 2613.84 -0.279707 -4.0704 0
M  V30 28704 H 2612.52 -1.42068 -3.90883 0
M  V30 28705 H 2611.1 0.39969 -3.70752 0
M  V30 28706 N 2613.28 1.48384 -0.531019 0
M  V30 28707 C 2614.69 1.86479 -0.0908232 0
M  V30 28708 C 2615.04 1.44047 1.3321 0
M  V30 28709 O 2614.17 0.831651 1.99781 0
M  V30 28710 C 2614.76 3.38431 -0.158046 0
M  V30 28711 C 2613.32 3.75715 0.22696 0
M  V30 28712 C 2612.47 2.72431 -0.517348 0
M  V30 28713 H 2615.42 1.40274 -0.74221 0
M  V30 28714 H 2615.44 3.75248 0.629987 0
M  V30 28715 H 2614.95 3.69284 -1.19378 0
M  V30 28716 H 2613.05 3.50476 1.2648 0
M  V30 28717 H 2613.17 4.78966 -0.113372 0
M  V30 28718 H 2611.53 2.54674 0.0365079 0
M  V30 28719 H 2612.31 3.06127 -1.55374 0
M  V30 28720 N 2614.76 0.2662 1.55336 0
M  V30 28721 C 2615.69 -0.618941 2.25147 0
M  V30 28722 C 2616.67 -1.16602 1.23847 0
M  V30 28723 O 2617.85 -1.20181 1.52546 0
M  V30 28724 C 2614.98 -1.80723 2.96575 0
M  V30 28725 C 2613.94 -1.39208 4.04729 0
M  V30 28726 C 2613.26 -2.66275 4.63683 0
M  V30 28727 C 2614.56 -0.548851 5.19408 0
M  V30 28728 H 2616.26 -0.036759 2.99377 0
M  V30 28729 H 2613.8 -0.0162398 1.43991 0
M  V30 28730 H 2615.76 -2.43226 3.44121 0
M  V30 28731 H 2614.48 -2.4151 2.19865 0
M  V30 28732 H 2613.14 -0.790288 3.5798 0
M  V30 28733 H 2612.79 -3.25301 3.83651 0
M  V30 28734 H 2612.49 -2.39213 5.36704 0
M  V30 28735 H 2614.01 -3.29642 5.13973 0
M  V30 28736 H 2615.43 -1.07866 5.63061 0
M  V30 28737 H 2613.82 -0.373488 5.98937 0
M  V30 28738 H 2614.89 0.434479 4.8295 0
M  V30 28739 N 2616.24 -1.57599 -0.0066531 0
M  V30 28740 C 2617.17 -2.04841 -1.02824 0
M  V30 28741 C 2618.18 -0.965136 -1.31107 0
M  V30 28742 O 2619.37 -1.24206 -1.282 0
M  V30 28743 C 2616.47 -2.42775 -2.3646 0
M  V30 28744 C 2615.64 -3.73755 -2.27213 0
M  V30 28745 C 2614.7 -3.98631 -3.43482 0
M  V30 28746 O 2613.73 -4.69388 -3.21968 0
M  V30 28747 N 2614.93 -3.46008 -4.6611 0
M  V30 28748 H 2617.7 -2.93102 -0.625404 0
M  V30 28749 H 2615.26 -1.60731 -0.19417 0
M  V30 28750 H 2617.25 -2.56536 -3.13004 0
M  V30 28751 H 2615.82 -1.60068 -2.68509 0
M  V30 28752 H 2615.04 -3.70135 -1.35623 0
M  V30 28753 H 2616.33 -4.59637 -2.182 0
M  V30 28754 H 2615.72 -2.88697 -4.86488 0
M  V30 28755 H 2614.28 -3.6511 -5.39942 0
M  V30 28756 N 2617.72 0.279305 -1.55105 0
M  V30 28757 C 2618.94 1.03014 -1.79432 0
M  V30 28758 C 2619.36 1.80164 -0.564488 0
M  V30 28759 O 2618.72 1.76442 0.466295 0
M  V30 28760 C 2618.77 1.99368 -3.01553 0
M  V30 28761 O 2618.49 1.25345 -4.19786 0
M  V30 28762 C 2619.99 2.86315 -3.38435 0
M  V30 28763 H 2617.21 0.304584 -0.597888 0
M  V30 28764 H 2619.75 0.312 -2.02106 0
M  V30 28765 H 2617.91 2.66654 -2.81024 0
M  V30 28766 H 2618.32 1.90237 -4.88784 0
M  V30 28767 H 2619.8 3.49733 -4.27072 0
M  V30 28768 H 2620.27 3.55755 -2.57555 0
M  V30 28769 H 2620.88 2.2453 -3.61201 0
M  V30 28770 N 2619.19 1.47931 0.543528 0
M  V30 28771 C 2620.12 1.6433 1.65885 0
M  V30 28772 C 2621.1 0.492412 1.62817 0
M  V30 28773 O 2622.29 0.72337 1.80225 0
M  V30 28774 C 2619.42 1.67019 3.04503 0
M  V30 28775 C 2618.37 2.81472 3.22425 0
M  V30 28776 C 2617.7 2.69241 4.61967 0
M  V30 28777 C 2619 4.22921 3.06489 0
M  V30 28778 H 2620.69 2.577 1.52417 0
M  V30 28779 H 2618.24 1.24017 0.731827 0
M  V30 28780 H 2620.19 1.77081 3.82388 0
M  V30 28781 H 2618.92 0.702176 3.18962 0
M  V30 28782 H 2617.58 2.70943 2.46953 0
M  V30 28783 H 2617.22 1.70438 4.73244 0
M  V30 28784 H 2616.92 3.46033 4.74905 0
M  V30 28785 H 2618.45 2.81251 5.41969 0
M  V30 28786 H 2619.86 4.34354 3.74178 0
M  V30 28787 H 2618.26 5.00606 3.30929 0
M  V30 28788 H 2619.33 4.4033 2.0307 0
M  V30 28789 N 2620.67 -0.791347 1.36292 0
M  V30 28790 C 2621.91 -1.56236 1.31794 0
M  V30 28791 C 2622.28 -1.91728 -0.102204 0
M  V30 28792 O 2623.48 -2.67423 -0.271712 0
M  V30 28793 C 2621.75 -2.80638 2.21308 0
M  V30 28794 S 2623.31 -3.709 2.34475 0
M  V30 28795 H 2620.12 -0.535122 0.468151 0
M  V30 28796 H 2622.73 -0.932216 1.71843 0
M  V30 28797 H 2621.43 -2.52612 3.23443 0
M  V30 28798 H 2620.96 -3.48626 1.82272 0
M  V30 28799 H 2622.98 -4.71671 1.54082 0
M  V30 28800 N 2622.15 -1.2054 -1.01528 0
M  V30 28801 C 2623.1 -0.952272 -2.12213 0
M  V30 28802 C 2624.09 0.0968438 -1.69123 0
M  V30 28803 O 2625.3 -0.0536323 -1.7992 0
M  V30 28804 H 2621.67 -0.290625 -0.693571 0
M  V30 28805 H 2623.64 -1.89205 -2.30746 0
M  V30 28806 C 2622.39 -0.522347 -3.43754 0
M  V30 28807 H 2621.72 -1.32121 -3.77338 0
M  V30 28808 H 2623.16 -0.384464 -4.22253 0
M  V30 28809 C 2621.61 0.765431 -3.2809 0
M  V30 28810 O 2622.14 1.82354 -3.57924 0
M  V30 28811 N 2620.35 0.727962 -2.81334 0
M  V30 28812 H 2619.9 -0.133377 -2.57254 0
M  V30 28813 H 2619.86 1.58994 -2.71235 0
M  V30 28814 N 2623.63 1.20858 -1.01149 0
M  V30 28815 C 2624.88 1.89718 -0.69652 0
M  V30 28816 C 2625.2 1.78905 0.775756 0
M  V30 28817 O 2624.47 1.18814 1.55757 0
M  V30 28818 H 2623.05 0.702259 -0.25464 0
M  V30 28819 H 2625.71 1.46802 -1.282 0
M  V30 28820 H 2624.8 2.96466 -0.97541 0
M  V30 28821 N 2625.11 0.787064 1.3654 0
M  V30 28822 C 2626.38 0.282458 1.9355 0
M  V30 28823 C 2626.76 -1.225 1.71922 0
M  V30 28824 O 2626.11 -2.01537 1.07681 0
M  V30 28825 C 2626.32 0.672522 3.42459 0
M  V30 28826 C 2627.67 0.650936 4.19581 0
M  V30 28827 O 2628.69 0.612851 3.50888 0
M  V30 28828 O 2627.55 0.691718 5.42105 0
M  V30 28829 H 2624.65 0.0693144 0.82409 0
M  V30 28830 H 2627.19 0.869449 1.45735 0
M  V30 28831 H 2625.96 1.71228 3.51848 0
M  V30 28832 H 2625.59 0.059291 3.97556 0
M  V30 28833 N 2626.58 -1.48101 0.53888 0
M  V30 28834 C 2627.51 -2.32575 -0.207613 0
M  V30 28835 C 2628.49 -1.42651 -0.926534 0
M  V30 28836 O 2629.68 -1.71529 -0.91058 0
M  V30 28837 C 2626.81 -3.24044 -1.24951 0
M  V30 28838 C 2625.76 -4.23063 -0.648189 0
M  V30 28839 C 2625.09 -5.03728 -1.79339 0
M  V30 28840 C 2626.39 -5.20872 0.385988 0
M  V30 28841 H 2628.08 -2.95236 0.497586 0
M  V30 28842 H 2625.63 -1.41973 0.24074 0
M  V30 28843 H 2627.58 -3.81972 -1.77976 0
M  V30 28844 H 2626.31 -2.59401 -1.98441 0
M  V30 28845 H 2624.97 -3.66335 -0.139388 0
M  V30 28846 H 2624.61 -4.35502 -2.51688 0
M  V30 28847 H 2624.31 -5.70754 -1.39692 0
M  V30 28848 H 2625.84 -5.6451 -2.32725 0
M  V30 28849 H 2627.25 -5.73271 -0.0575062 0
M  V30 28850 H 2625.65 -5.95999 0.700332 0
M  V30 28851 H 2626.72 -4.67466 1.28856 0
M  V30 28852 N 2628.06 -0.274434 -1.55192 0
M  V30 28853 C 2629.29 0.348788 -2.04446 0
M  V30 28854 C 2629.71 1.48733 -1.15152 0
M  V30 28855 O 2629.07 1.80679 -0.149984 0
M  V30 28856 C 2629.12 0.807947 -3.51432 0
M  V30 28857 O 2628.22 1.91525 -3.65229 0
M  V30 28858 H 2627.56 0.072216 -0.660061 0
M  V30 28859 H 2630.09 -0.408533 -2.0048 0
M  V30 28860 H 2630.1 1.10388 -3.92783 0
M  V30 28861 H 2628.78 -0.0250596 -4.15892 0
M  V30 28862 H 2627.35 1.6219 -3.35781 0
M  V30 28863 N 2629.54 1.576 -0.00170483 0
M  V30 28864 C 2630.76 1.95325 0.697355 0
M  V30 28865 C 2631.19 0.876735 1.66418 0
M  V30 28866 O 2630.55 -0.164976 1.80548 0
M  V30 28867 C 2630.6 3.32146 1.40397 0
M  V30 28868 O 2629.7 3.2657 2.51844 0
M  V30 28869 H 2629.04 0.637603 0.185362 0
M  V30 28870 H 2631.57 2.04525 -0.0554025 0
M  V30 28871 H 2631.58 3.67751 1.76701 0
M  V30 28872 H 2630.26 4.1005 0.695095 0
M  V30 28873 H 2628.83 3.02644 2.17856 0
M  V30 28874 N 2631.02 -0.271076 1.55251 0
M  V30 28875 C 2632.26 -1.00242 1.75948 0
M  V30 28876 C 2632.59 -1.86214 0.561644 0
M  V30 28877 O 2631.85 -1.90318 -0.455799 0
M  V30 28878 C 2632.15 -1.91316 3.01882 0
M  V30 28879 C 2631.81 -1.21078 4.3434 0
M  V30 28880 C 2630.47 -1.01657 4.70339 0
M  V30 28881 C 2632.83 -0.7111 5.16326 0
M  V30 28882 C 2630.15 -0.309997 5.8588 0
M  V30 28883 C 2632.51 -0.0181045 6.32597 0
M  V30 28884 C 2631.17 0.187797 6.67236 0
M  V30 28885 H 2630.44 -0.366812 0.64384 0
M  V30 28886 H 2633.09 -0.274546 1.89522 0
M  V30 28887 H 2631.39 -2.70731 2.83217 0
M  V30 28888 H 2633.09 -2.48028 3.15092 0
M  V30 28889 H 2629.68 -1.37206 4.06045 0
M  V30 28890 H 2633.86 -0.848758 4.88989 0
M  V30 28891 H 2629.12 -0.139766 6.1124 0
M  V30 28892 H 2633.29 0.376833 6.9538 0
M  V30 28893 H 2630.92 0.737283 7.56616 0
M  V30 28894 N 2632.5 -1.48217 -0.535675 0
M  V30 28895 C 2633.74 -1.55636 -1.28925 0
M  V30 28896 C 2634.07 -0.229548 -1.93644 0
M  V30 28897 O 2633.34 0.748428 -1.8104 0
M  V30 28898 H 2631.92 -0.573351 -0.47883 0
M  V30 28899 H 2634.58 -1.84647 -0.623821 0
M  V30 28900 H 2633.67 -2.3344 -2.07153 0
M  V30 28901 N 2633.97 0.784108 -1.3671 0
M  V30 28902 C 2635.22 1.54449 -1.31429 0
M  V30 28903 C 2635.55 1.93917 0.104726 0
M  V30 28904 O 2634.83 1.63122 1.05931 0
M  V30 28905 C 2635.11 2.81796 -2.24194 0
M  V30 28906 C 2634.96 2.4866 -3.74817 0
M  V30 28907 C 2636.28 3.83654 -2.15633 0
M  V30 28908 H 2633.4 0.560329 -0.478749 0
M  V30 28909 H 2636.04 0.900468 -1.67307 0
M  V30 28910 H 2634.19 3.36752 -1.93728 0
M  V30 28911 H 2635.87 1.99714 -4.15827 0
M  V30 28912 H 2634.11 1.81528 -3.93992 0
M  V30 28913 H 2634.78 3.39638 -4.35144 0
M  V30 28914 H 2637.26 3.38159 -2.42461 0
M  V30 28915 H 2636.13 4.70501 -2.82702 0
M  V30 28916 H 2636.39 4.27007 -1.1453 0
M  V30 28917 N 2635.45 1.21076 1.00888 0
M  V30 28918 C 2636.42 0.968165 2.07748 0
M  V30 28919 C 2637.42 -0.0593163 1.60691 0
M  V30 28920 O 2638.61 0.177555 1.73293 0
M  V30 28921 C 2635.74 0.459168 3.37794 0
M  V30 28922 H 2636.93 1.91614 2.30703 0
M  V30 28923 H 2634.48 1.02721 1.17805 0
M  V30 28924 H 2635.22 -0.493914 3.20517 0
M  V30 28925 H 2635 1.20025 3.73278 0
M  V30 28926 H 2636.49 0.309173 4.16454 0
M  V30 28927 N 2636.93 -1.2032 1.01789 0
M  V30 28928 C 2637.88 -2.23152 0.589236 0
M  V30 28929 C 2638.85 -1.61424 -0.391339 0
M  V30 28930 O 2640.03 -1.88576 -0.290485 0
M  V30 28931 C 2637.17 -3.45039 -0.065014 0
M  V30 28932 C 2636.29 -4.21192 0.960281 0
M  V30 28933 C 2635.42 -5.30478 0.276947 0
M  V30 28934 C 2634.46 -5.98376 1.28891 0
M  V30 28935 N 2633.6 -6.99248 0.632154 0
M  V30 28936 H 2638.44 -2.59177 1.47076 0
M  V30 28937 H 2635.97 -1.27351 0.736214 0
M  V30 28938 H 2637.93 -4.1464 -0.461479 0
M  V30 28939 H 2636.56 -3.09702 -0.910179 0
M  V30 28940 H 2635.61 -3.50644 1.4749 0
M  V30 28941 H 2636.93 -4.67844 1.72985 0
M  V30 28942 H 2636.08 -6.06448 -0.17495 0
M  V30 28943 H 2634.82 -4.84867 -0.524918 0
M  V30 28944 H 2633.82 -5.21166 1.75118 0
M  V30 28945 H 2635.05 -6.46072 2.09208 0
M  V30 28946 H 2632.99 -6.55829 -0.149819 0
M  V30 28947 H 2632.91 -7.44034 1.33977 0
M  V30 28948 H 2634.18 -7.79233 0.203892 0
M  V30 28949 N 2638.41 -0.794293 -1.3612 0
M  V30 28950 C 2639.66 -0.368211 -1.98717 0
M  V30 28951 C 2639.98 1.06503 -1.63347 0
M  V30 28952 O 2639.25 1.73489 -0.909856 0
M  V30 28953 H 2637.83 -0.133159 -0.735036 0
M  V30 28954 H 2640.49 -1.01741 -1.66237 0
M  V30 28955 H 2639.59 -0.463977 -3.08632 0
M  V30 28956 N 2639.89 1.47813 -0.546727 0
M  V30 28957 C 2640.83 2.29872 0.206814 0
M  V30 28958 C 2641.8 1.38413 0.918211 0
M  V30 28959 O 2642.99 1.67376 0.915962 0
M  V30 28960 C 2640.13 3.22153 1.2374 0
M  V30 28961 C 2639.24 4.28698 0.533141 0
M  V30 28962 C 2638.38 5.08141 1.54811 0
M  V30 28963 C 2637.42 6.06471 0.82824 0
M  V30 28964 N 2636.55 6.78911 1.78954 0
M  V30 28965 H 2641.39 2.93791 -0.499089 0
M  V30 28966 H 2638.93 1.44821 -0.257956 0
M  V30 28967 H 2640.89 3.74068 1.84739 0
M  V30 28968 H 2639.52 2.60121 1.91147 0
M  V30 28969 H 2638.57 3.79919 -0.191156 0
M  V30 28970 H 2639.88 4.9879 -0.0312863 0
M  V30 28971 H 2639.04 5.64154 2.23193 0
M  V30 28972 H 2637.77 4.37926 2.14644 0
M  V30 28973 H 2636.78 5.49645 0.130442 0
M  V30 28974 H 2638 6.78691 0.235788 0
M  V30 28975 H 2635.95 6.11434 2.37665 0
M  V30 28976 H 2635.87 7.45137 1.27699 0
M  V30 28977 H 2637.14 7.39504 2.46483 0
M  V30 28978 N 2641.36 0.28266 1.55044 0
M  V30 28979 C 2642.61 -0.332446 2.00057 0
M  V30 28980 C 2642.94 -1.54937 1.17082 0
M  V30 28981 O 2642.22 -1.92979 0.242734 0
M  V30 28982 C 2642.5 -0.707188 3.53088 0
M  V30 28983 C 2642.35 0.517599 4.46812 0
M  V30 28984 C 2643.67 -1.54076 4.12248 0
M  V30 28985 H 2640.79 -0.119361 0.72727 0
M  V30 28986 H 2643.43 0.391108 1.85931 0
M  V30 28987 H 2641.58 -1.32366 3.65256 0
M  V30 28988 H 2643.26 1.15615 4.46577 0
M  V30 28989 H 2641.5 1.15427 4.18161 0
M  V30 28990 H 2642.17 0.211523 5.51595 0
M  V30 28991 H 2644.65 -1.02006 4.03403 0
M  V30 28992 H 2643.52 -1.77177 5.19519 0
M  V30 28993 H 2643.78 -2.5242 3.62955 0
M  V30 28994 N 2642.84 -1.57597 0.0100627 0
M  V30 28995 C 2643.79 -2.05538 -0.986822 0
M  V30 28996 C 2644.78 -0.952065 -1.29709 0
M  V30 28997 O 2645.97 -1.21577 -1.28639 0
M  V30 28998 C 2643.1 -2.57047 -2.27555 0
M  V30 28999 C 2642.18 -3.74274 -1.99448 0
M  V30 29000 N 2642.57 -4.85593 -1.41537 0
M  V30 29001 C 2640.87 -3.82397 -2.2954 0
M  V30 29002 C 2641.57 -5.66958 -1.3013 0
M  V30 29003 N 2640.55 -5.13271 -1.79035 0
M  V30 29004 H 2644.35 -2.89013 -0.533727 0
M  V30 29005 H 2641.87 -1.6122 -0.195404 0
M  V30 29006 H 2643.86 -2.89674 -2.99824 0
M  V30 29007 H 2642.52 -1.74995 -2.73509 0
M  V30 29008 H 2643.53 -5.06238 -1.09286 0
M  V30 29009 H 2640.21 -3.11217 -2.78298 0
M  V30 29010 H 2641.6 -6.66436 -0.85512 0
M  V30 29011 N 2644.32 0.262839 -1.55393 0
M  V30 29012 C 2645.56 1.00061 -1.78233 0
M  V30 29013 C 2645.92 1.83125 -0.576998 0
M  V30 29014 O 2647.13 2.59956 -0.683854 0
M  V30 29015 C 2645.4 1.85148 -3.05704 0
M  V30 29016 S 2646.96 2.65052 -3.49704 0
M  V30 29017 H 2643.77 0.336845 -0.626144 0
M  V30 29018 H 2646.38 0.270016 -1.93626 0
M  V30 29019 H 2645.08 1.23068 -3.91513 0
M  V30 29020 H 2644.61 2.6251 -2.93005 0
M  V30 29021 H 2646.63 3.87623 -3.09779 0
M  V30 29022 N 2645.8 1.48499 0.527807 0
M  V30 29023 C 2647.08 1.47117 1.28902 0
M  V30 29024 C 2647.46 0.184044 2.10296 0
M  V30 29025 O 2646.8 -0.834181 2.12729 0
M  V30 29026 C 2647.01 2.73445 2.16861 0
M  V30 29027 C 2648.36 3.21861 2.7693 0
M  V30 29028 O 2649.39 2.74377 2.27147 0
M  V30 29029 O 2648.24 4.04492 3.67489 0
M  V30 29030 H 2645.34 0.587633 0.581907 0
M  V30 29031 H 2647.88 1.60735 0.544282 0
M  V30 29032 H 2646.66 3.58635 1.56515 0
M  V30 29033 H 2646.28 2.62558 2.98578 0
M  V30 29034 O 2647.32 -0.672815 1.46818 0
M  V30 29035 H 2648.01 -1.32558 1.41238 0
M  V30 END ATOM
M  V30 BEGIN BOND
M  V30 END BOND
M  V30 END CTAB
M  END
$$$$
