drugbank_target|P0CG04 Ig lambda-1 chain C regions (DB03088)
 OpenBabel12092120533D

  0  0  0     0  0            999 V3000
M  V30 BEGIN CTAB
M  V30 COUNTS 1580 1600 0 0 0
M  V30 BEGIN ATOM
M  V30 1 H -0.908 1.98254 -0.117106 0
M  V30 2 N 0 1.576 0 0
M  V30 3 C 1.248 1.90191 0.683495 0
M  V30 4 C 1.569 0.874069 1.74313 0
M  V30 5 O 0.839 -0.0885238 1.957 0
M  V30 6 H -0.581 0.701967 0.255443 0
M  V30 7 H 2.081 1.94857 -0.040926 0
M  V30 8 H 1.177 2.89952 1.15474 0
M  V30 9 N 1.4781 -0.272755 1.55222 0
M  V30 10 C 2.4101 -1.35946 1.8453 0
M  V30 11 C 3.4231 -1.45525 0.729818 0
M  V30 12 O 4.6121 -1.47337 1.00767 0
M  V30 13 C 1.7121 -2.74069 1.99347 0
M  V30 14 C 0.8851 -2.87079 3.30007 0
M  V30 15 C -0.0559 -4.05879 3.34886 0
M  V30 16 O -1.0299 -3.96626 4.08261 0
M  V30 17 N 0.1721 -5.17857 2.62307 0
M  V30 18 H 2.9371 -1.11149 2.78327 0
M  V30 19 H 0.4981 -0.462869 1.55142 0
M  V30 20 H 2.4901 -3.51838 1.99981 0
M  V30 21 H 1.0601 -2.91688 1.12415 0
M  V30 22 H 0.2801 -1.96193 3.41909 0
M  V30 23 H 1.5681 -2.92701 4.16177 0
M  V30 24 H 0.9661 -5.28261 2.02377 0
M  V30 25 H -0.4769 -5.93855 2.68663 0
M  V30 26 N 2.9562 -1.48159 -0.537278 0
M  V30 27 C 4.3672 -1.49429 -1.11928 0
M  V30 28 C 4.7182 -0.26 -1.9447 0
M  V30 29 O 3.8432 0.633489 -2.0692 0
M  V30 30 C 4.4382 -2.70758 -2.03656 0
M  V30 31 C 2.9972 -2.74923 -2.57088 0
M  V30 32 C 2.1442 -2.42835 -1.3389 0
M  V30 33 H 5.0952 -1.55381 -0.322886 0
M  V30 34 H 5.1162 -2.48861 -2.87834 0
M  V30 35 H 4.6282 -3.60575 -1.43553 0
M  V30 36 H 2.7292 -1.89296 -3.20933 0
M  V30 37 H 2.8422 -3.76157 -2.9672 0
M  V30 38 H 1.2062 -1.93836 -1.65226 0
M  V30 39 H 1.9892 -3.34884 -0.755504 0
M  V30 40 N 4.4343 0.785586 -1.36625 0
M  V30 41 C 5.3813 1.89838 -1.31264 0
M  V30 42 C 6.3513 1.65115 -0.180633 0
M  V30 43 O 7.5363 1.87222 -0.36777 0
M  V30 44 C 4.6763 3.26706 -1.11163 0
M  V30 45 C 3.7893 3.63476 -2.33472 0
M  V30 46 C 2.9243 4.89481 -2.06353 0
M  V30 47 C 1.9633 5.18941 -3.24602 0
M  V30 48 N 1.1003 6.36131 -2.97123 0
M  V30 49 H 5.9403 1.93756 -2.26413 0
M  V30 50 H 3.4773 0.947454 -1.12524 0
M  V30 51 H 5.4353 4.05639 -0.975337 0
M  V30 52 H 4.0653 3.222 -0.196674 0
M  V30 53 H 3.1173 2.79636 -2.57891 0
M  V30 54 H 4.4293 3.81193 -3.21704 0
M  V30 55 H 3.5833 5.76288 -1.89675 0
M  V30 56 H 2.3223 4.73841 -1.15437 0
M  V30 57 H 1.3273 4.30615 -3.41834 0
M  V30 58 H 2.5523 5.36498 -4.16349 0
M  V30 59 H 0.4983 6.21875 -2.08823 0
M  V30 60 H 0.4153 6.54198 -3.78894 0
M  V30 61 H 1.6833 7.2591 -2.84033 0
M  V30 62 N 5.9124 1.20967 1.01018 0
M  V30 63 C 6.8754 0.965918 2.07853 0
M  V30 64 C 7.8754 -0.0610545 1.60684 0
M  V30 65 O 9.0654 0.175681 1.73312 0
M  V30 66 C 6.1974 0.455513 3.37843 0
M  V30 67 H 7.3904 1.91365 2.3091 0
M  V30 68 H 4.9434 1.02594 1.17916 0
M  V30 69 H 5.6784 -0.497381 3.20463 0
M  V30 70 H 5.4634 1.19622 3.73407 0
M  V30 71 H 6.9534 0.304667 4.16487 0
M  V30 72 N 7.3905 -1.2043 1.01659 0
M  V30 73 C 8.3385 -2.25249 0.580143 0
M  V30 74 C 9.3325 -1.65057 -0.381115 0
M  V30 75 O 10.5385 -1.78241 -0.251039 0
M  V30 76 H 6.9135 -0.732695 0.169299 0
M  V30 77 H 8.8845 -2.59389 1.47512 0
M  V30 78 C 7.6335 -3.47638 -0.065788 0
M  V30 79 H 6.9565 -3.94233 0.664874 0
M  V30 80 H 8.3965 -4.2268 -0.334282 0
M  V30 81 C 6.8555 -3.10447 -1.3086 0
M  V30 82 O 7.3855 -3.21981 -2.4019 0
M  V30 83 N 5.5915 -2.64996 -1.1927 0
M  V30 84 H 5.1385 -2.55811 -0.303064 0
M  V30 85 H 5.0965 -2.40482 -2.02523 0
M  V30 86 N 8.8686 -0.792821 -1.36206 0
M  V30 87 C 10.2796 -0.429513 -1.81692 0
M  V30 88 C 10.6306 1.04695 -1.65932 0
M  V30 89 O 9.7556 1.81256 -1.18218 0
M  V30 90 C 10.3506 -0.772831 -3.29868 0
M  V30 91 C 8.9096 -0.462307 -3.7355 0
M  V30 92 C 8.0566 -1.00569 -2.5842 0
M  V30 93 H 11.0076 -0.985672 -1.24379 0
M  V30 94 H 11.0286 -0.0651928 -3.80444 0
M  V30 95 H 10.5406 -1.84747 -3.41307 0
M  V30 96 H 8.6416 0.604158 -3.67669 0
M  V30 97 H 8.7546 -0.985299 -4.68859 0
M  V30 98 H 7.1186 -0.428734 -2.51066 0
M  V30 99 H 7.9016 -2.08616 -2.72643 0
M  V30 100 N 10.3467 1.47872 -0.545128 0
M  V30 101 C 11.5747 2.06889 -0.021084 0
M  V30 102 C 11.9897 1.39955 1.2672 0
M  V30 103 O 11.3467 0.492036 1.75742 0
M  V30 104 C 11.3977 3.60996 0.190817 0
M  V30 105 O 11.1187 4.25419 -1.04644 0
M  V30 106 C 12.6197 4.36849 0.753521 0
M  V30 107 H 9.8397 0.669785 -0.0403635 0
M  V30 108 H 12.3837 1.90049 -0.755095 0
M  V30 109 H 10.5387 3.77391 0.87492 0
M  V30 110 H 10.9527 5.17785 -0.836611 0
M  V30 111 H 12.4267 5.45399 0.851139 0
M  V30 112 H 12.9037 4.02306 1.762 0
M  V30 113 H 13.5097 4.25169 0.105503 0
M  V30 114 N 11.8248 0.280983 1.55075 0
M  V30 115 C 13.0708 -0.33461 2.00021 0
M  V30 116 C 13.4038 -1.55063 1.16915 0
M  V30 117 O 12.6788 -1.93006 0.240646 0
M  V30 118 C 12.9618 -0.711007 3.53011 0
M  V30 119 C 12.8148 0.512766 4.46868 0
M  V30 120 C 14.1338 -1.54522 4.12081 0
M  V30 121 H 11.2528 -0.120147 0.727141 0
M  V30 122 H 13.8948 0.389097 1.85973 0
M  V30 123 H 12.0448 -1.32761 3.65112 0
M  V30 124 H 13.7168 1.15131 4.46702 0
M  V30 125 H 11.9598 1.14975 4.18286 0
M  V30 126 H 12.6308 0.205556 5.51617 0
M  V30 127 H 15.1068 -1.02442 4.03293 0
M  V30 128 H 13.9828 -1.77739 5.19327 0
M  V30 129 H 14.2438 -2.52813 3.62682 0
M  V30 130 N 13.3029 -1.57598 0.00835791 0
M  V30 131 C 14.5309 -1.95214 -0.68549 0
M  V30 132 C 14.9459 -0.883706 -1.66841 0
M  V30 133 O 14.3029 0.136565 -1.81988 0
M  V30 134 C 14.3539 -3.32865 -1.41007 0
M  V30 135 O 14.0749 -4.35609 -0.466552 0
M  V30 136 C 15.5759 -3.84991 -2.19765 0
M  V30 137 H 12.7959 -0.643422 -0.190392 0
M  V30 138 H 15.3399 -2.04406 0.0619607 0
M  V30 139 H 13.4949 -3.24956 -2.10908 0
M  V30 140 H 13.9089 -5.15288 -0.978699 0
M  V30 141 H 15.3829 -4.8371 -2.65948 0
M  V30 142 H 15.8599 -3.18137 -3.02796 0
M  V30 143 H 16.4659 -3.96103 -1.54864 0
M  V30 144 N 14.781 0.264519 -1.55364 0
M  V30 145 C 15.711 1.33121 -1.91836 0
M  V30 146 C 16.692 1.51101 -0.781192 0
M  V30 147 O 17.877 1.64003 -1.04003 0
M  V30 148 C 15.007 2.68921 -2.19769 0
M  V30 149 C 13.961 2.65661 -3.35571 0
M  V30 150 C 13.287 4.05093 -3.49004 0
M  V30 151 C 14.587 2.24187 -4.71739 0
M  V30 152 H 16.281 1.02844 -2.81182 0
M  V30 153 H 13.827 0.493286 -1.35287 0
M  V30 154 H 15.78 3.43663 -2.43872 0
M  V30 155 H 14.504 3.00799 -1.27231 0
M  V30 156 H 13.163 1.93377 -3.1145 0
M  V30 157 H 12.811 4.34206 -2.53917 0
M  V30 158 H 12.511 4.03804 -4.26868 0
M  V30 159 H 14.035 4.81561 -3.75408 0
M  V30 160 H 15.449 2.88654 -4.9533 0
M  V30 161 H 13.846 2.34044 -5.52579 0
M  V30 162 H 14.916 1.19327 -4.69988 0
M  V30 163 N 16.2591 1.48442 0.529413 0
M  V30 164 C 17.5061 1.56488 1.28521 0
M  V30 165 C 17.8341 0.239042 1.93025 0
M  V30 166 O 17.0891 -0.770713 1.79885 0
M  V30 167 C 17.3881 2.6523 2.39558 0
M  V30 168 C 17.0541 4.07648 1.92702 0
M  V30 169 C 15.7161 4.46411 1.79641 0
M  V30 170 C 18.0681 4.96896 1.573 0
M  V30 171 C 15.3961 5.72226 1.29514 0
M  V30 172 C 17.7481 6.23202 1.08636 0
M  V30 173 C 16.4121 6.60821 0.941919 0
M  V30 174 H 15.6821 0.572631 0.470292 0
M  V30 175 H 18.3291 1.82161 0.59072 0
M  V30 176 H 16.6341 2.33419 3.14679 0
M  V30 177 H 18.3311 2.68671 2.97686 0
M  V30 178 H 14.9211 3.77036 2.03819 0
M  V30 179 H 19.1051 4.67626 1.66251 0
M  V30 180 H 14.3611 6.00097 1.17019 0
M  V30 181 H 18.5351 6.91753 0.803136 0
M  V30 182 H 16.1621 7.58198 0.5513 0
M  V30 183 N 17.7372 -0.778329 1.37039 0
M  V30 184 C 19.1482 -1.35421 1.28523 0
M  V30 185 C 19.4992 -1.96075 -0.0700901 0
M  V30 186 O 18.6242 -1.93352 -0.971801 0
M  V30 187 C 19.2192 -2.46211 2.32735 0
M  V30 188 C 17.7782 -2.99585 2.27873 0
M  V30 189 C 16.9252 -1.72748 2.16918 0
M  V30 190 H 19.8762 -0.5791 1.47757 0
M  V30 191 H 19.8972 -3.2552 1.9702 0
M  V30 192 H 19.4092 -2.02036 3.31365 0
M  V30 193 H 17.5102 -3.48152 1.32745 0
M  V30 194 H 17.6232 -3.55646 3.21018 0
M  V30 195 H 15.9872 -1.95416 1.63354 0
M  V30 196 H 16.7702 -1.30686 3.17452 0
M  V30 197 N 19.2153 -1.21501 -1.00376 0
M  V30 198 C 20.6263 -1.03146 -1.55621 0
M  V30 199 C 20.9773 0.408375 -1.91903 0
M  V30 200 O 20.1023 1.29177 -1.73616 0
M  V30 201 C 20.6973 -1.86612 -2.82775 0
M  V30 202 C 19.2563 -1.72586 -3.34501 0
M  V30 203 C 18.4033 -1.83747 -2.07683 0
M  V30 204 H 21.3543 -1.35505 -0.826081 0
M  V30 205 H 21.3753 -1.3771 -3.54706 0
M  V30 206 H 20.8873 -2.91399 -2.56336 0
M  V30 207 H 18.9883 -0.704877 -3.65872 0
M  V30 208 H 19.1013 -2.54623 -4.05837 0
M  V30 209 H 17.4653 -1.27069 -2.20739 0
M  V30 210 H 18.2483 -2.90044 -1.83655 0
M  V30 211 N 20.6934 1.19889 -1.02296 0
M  V30 212 C 21.9184 1.9393 -0.735237 0
M  V30 213 C 22.3434 1.74639 0.698782 0
M  V30 214 O 21.7014 1.04481 1.48167 0
M  V30 215 C 21.7494 3.43916 -1.08417 0
M  V30 216 O 20.8534 4.11917 -0.199446 0
M  V30 217 H 20.1944 0.605645 -0.272196 0
M  V30 218 H 22.7244 1.52137 -1.36804 0
M  V30 219 H 22.7344 3.9456 -1.03856 0
M  V30 220 H 21.4094 3.5728 -2.12894 0
M  V30 221 H 19.9864 3.71666 -0.303136 0
M  V30 222 N 22.1715 0.800033 1.35784 0
M  V30 223 C 23.3965 0.388511 2.03729 0
M  V30 224 C 23.8215 -0.990481 1.5991 0
M  V30 225 O 23.1795 -1.64013 0.772612 0
M  V30 226 C 23.2275 0.4726 3.5749 0
M  V30 227 O 22.3315 -0.51646 4.09153 0
M  V30 228 H 21.6725 0.163271 0.643614 0
M  V30 229 H 24.2025 1.0841 1.73518 0
M  V30 230 H 24.2125 0.34003 4.06581 0
M  V30 231 H 22.8875 1.47848 3.88734 0
M  V30 232 H 21.4645 -0.344673 3.71304 0
M  V30 233 N 23.6496 -1.47581 0.552962 0
M  V30 234 C 24.5596 -2.33743 -0.200353 0
M  V30 235 C 25.5756 -1.47928 -0.916151 0
M  V30 236 O 26.7516 -1.80865 -0.885993 0
M  V30 237 C 23.8166 -3.24536 -1.21973 0
M  V30 238 C 22.8776 -4.26238 -0.511819 0
M  V30 239 C 22.1106 -5.12693 -1.48263 0
M  V30 240 O 22.3336 -5.01525 -2.71714 0
M  V30 241 O 21.2676 -5.93375 -1.00945 0
M  V30 242 H 25.0936 -2.9945 0.506304 0
M  V30 243 H 22.6786 -1.46071 0.313622 0
M  V30 244 H 24.5606 -3.80631 -1.80827 0
M  V30 245 H 23.2356 -2.61462 -1.90839 0
M  V30 246 H 22.1426 -3.73914 0.117799 0
M  V30 247 H 23.4756 -4.92014 0.135308 0
M  V30 248 N 25.1277 -0.289203 -1.54924 0
M  V30 249 C 26.0377 0.601863 -2.26748 0
M  V30 250 C 27.0537 1.15834 -1.2984 0
M  V30 251 O 28.2297 1.18564 -1.62802 0
M  V30 252 C 25.2947 1.76299 -2.98529 0
M  V30 253 C 24.3557 1.24178 -4.10948 0
M  V30 254 C 23.5887 2.34757 -4.79296 0
M  V30 255 O 23.8117 3.54411 -4.46933 0
M  V30 256 O 22.7457 2.02115 -5.66951 0
M  V30 257 H 26.5717 0.0195879 -3.03694 0
M  V30 258 H 24.1567 -0.0560868 -1.49295 0
M  V30 259 H 26.0387 2.43973 -3.43592 0
M  V30 260 H 24.7137 2.33209 -2.24488 0
M  V30 261 H 23.6207 0.531104 -3.70311 0
M  V30 262 H 24.9537 0.718252 -4.86931 0
M  V30 263 N 26.6058 1.57591 -0.0167156 0
M  V30 264 C 27.5358 2.12496 0.967858 0
M  V30 265 C 28.5168 1.03807 1.34752 0
M  V30 266 O 29.7018 1.31577 1.42833 0
M  V30 267 C 26.8318 2.64194 2.25431 0
M  V30 268 C 25.7858 3.77559 2.01576 0
M  V30 269 C 25.1118 4.15636 3.36379 0
M  V30 270 C 26.4118 5.04151 1.36489 0
M  V30 271 H 28.1058 2.95013 0.510643 0
M  V30 272 H 25.6518 1.41915 0.244181 0
M  V30 273 H 27.6048 3.01236 2.94678 0
M  V30 274 H 26.3288 1.78821 2.73296 0
M  V30 275 H 24.9878 3.40937 1.34751 0
M  V30 276 H 24.6358 3.27263 3.81979 0
M  V30 277 H 24.3358 4.92022 3.21229 0
M  V30 278 H 25.8598 4.5525 4.06915 0
M  V30 279 H 27.2738 5.38857 1.95718 0
M  V30 280 H 25.6708 5.85453 1.31776 0
M  V30 281 H 26.7408 4.83733 0.336219 0
M  V30 282 N 28.0839 -0.256276 1.55502 0
M  V30 283 C 29.0159 -1.33981 1.85962 0
M  V30 284 C 30.0289 -1.44743 0.745212 0
M  V30 285 O 31.2179 -1.4626 1.02324 0
M  V30 286 C 28.3179 -2.7194 2.02242 0
M  V30 287 C 27.4909 -2.83562 3.33033 0
M  V30 288 C 26.5499 -4.02304 3.39172 0
M  V30 289 O 25.5759 -3.92273 4.12444 0
M  V30 290 N 26.7779 -5.15045 2.67784 0
M  V30 291 H 29.5429 -1.08191 2.7949 0
M  V30 292 H 27.1039 -0.446388 1.55624 0
M  V30 293 H 29.0959 -3.49697 2.03701 0
M  V30 294 H 27.6659 -2.90479 1.15502 0
M  V30 295 H 26.8859 -1.92555 3.43971 0
M  V30 296 H 28.1739 -2.88271 4.19258 0
M  V30 297 H 27.5719 -5.26085 2.07968 0
M  V30 298 H 26.1289 -5.90972 2.74947 0
M  V30 299 N 29.562 -1.4872 -0.521534 0
M  V30 300 C 30.525 -1.63379 -1.60748 0
M  V30 301 C 31.525 -0.50661 -1.52611 0
M  V30 302 O 32.715 -0.772601 -1.5613 0
M  V30 303 C 29.847 -1.61192 -3.00383 0
M  V30 304 H 31.04 -2.60217 -1.49087 0
M  V30 305 H 28.593 -1.37444 -0.744235 0
M  V30 306 H 29.328 -0.65863 -3.17541 0
M  V30 307 H 29.113 -2.43032 -3.07698 0
M  V30 308 H 30.603 -1.7466 -3.7932 0
M  V30 309 N 31.0401 0.771051 -1.3745 0
M  V30 310 C 31.9881 1.90574 -1.33358 0
M  V30 311 C 32.9821 1.67936 -0.22224 0
M  V30 312 O 34.1881 1.75717 -0.390304 0
M  V30 313 H 30.5631 0.626714 -0.415612 0
M  V30 314 H 32.5341 1.91142 -2.29144 0
M  V30 315 C 31.2831 3.27845 -1.15813 0
M  V30 316 H 30.6061 3.45842 -2.00583 0
M  V30 317 H 32.0461 4.07538 -1.17 0
M  V30 318 C 30.5051 3.36625 0.136165 0
M  V30 319 O 31.0351 3.85785 1.11949 0
M  V30 320 N 29.2411 2.89997 0.187099 0
M  V30 321 H 28.7881 2.50182 -0.613753 0
M  V30 322 H 28.7461 2.96252 1.05272 0
M  V30 323 N 32.5182 1.22032 0.997298 0
M  V30 324 C 33.4652 0.986467 2.08656 0
M  V30 325 C 34.4352 -0.0902671 1.65855 0
M  V30 326 O 35.6202 0.0584294 1.90711 0
M  V30 327 C 32.7602 0.565569 3.40434 0
M  V30 328 C 31.8732 1.71259 3.96604 0
M  V30 329 C 31.0082 1.24011 5.16522 0
M  V30 330 C 30.0472 2.35896 5.64818 0
M  V30 331 N 29.1842 1.89726 6.7598 0
M  V30 332 H 34.0242 1.91892 2.27994 0
M  V30 333 H 31.5612 0.956199 1.11782 0
M  V30 334 H 33.5192 0.302738 4.161 0
M  V30 335 H 32.1492 -0.329879 3.2111 0
M  V30 336 H 31.2012 2.08986 3.17851 0
M  V30 337 H 32.5132 2.55436 4.28432 0
M  V30 338 H 31.6672 0.934395 5.99461 0
M  V30 339 H 30.4062 0.368487 4.86306 0
M  V30 340 H 29.4112 2.67261 4.8047 0
M  V30 341 H 30.6362 3.23567 5.97061 0
M  V30 342 H 28.5822 1.0492 6.47555 0
M  V30 343 H 28.4992 2.67471 7.07103 0
M  V30 344 H 29.7672 1.62211 7.62435 0
M  V30 345 N 33.9963 -1.19345 1.0293 0
M  V30 346 C 34.9593 -2.20793 0.615069 0
M  V30 347 C 35.9593 -1.57553 -0.321533 0
M  V30 348 O 37.1493 -1.73862 -0.108483 0
M  V30 349 C 34.2813 -3.40754 -0.0999222 0
M  V30 350 H 35.4743 -2.58955 1.51269 0
M  V30 351 H 33.0273 -1.3303 0.820534 0
M  V30 352 H 33.7623 -3.0811 -1.01187 0
M  V30 353 H 33.5473 -3.87889 0.57309 0
M  V30 354 H 35.0373 -4.15898 -0.376645 0
M  V30 355 N 35.4744 -0.807222 -1.35358 0
M  V30 356 C 36.7024 -0.400377 -2.02989 0
M  V30 357 C 37.1174 0.988859 -1.60832 0
M  V30 358 O 36.4744 1.63729 -0.806175 0
M  V30 359 C 36.5254 -0.474867 -3.58368 0
M  V30 360 O 36.2464 -1.80933 -3.98992 0
M  V30 361 C 37.7474 -0.0609112 -4.43258 0
M  V30 362 H 34.9674 -0.162587 -0.651004 0
M  V30 363 H 37.5114 -1.09102 -1.72965 0
M  V30 364 H 35.6664 0.167534 -3.87038 0
M  V30 365 H 36.0804 -1.77256 -4.9364 0
M  V30 366 H 37.5544 -0.164145 -5.51756 0
M  V30 367 H 38.0314 0.993831 -4.27808 0
M  V30 368 H 38.6374 -0.676492 -4.19885 0
M  V30 369 N 36.9525 1.47285 -0.560781 0
M  V30 370 C 37.8825 2.32857 0.173105 0
M  V30 371 C 38.8635 1.44009 0.905281 0
M  V30 372 O 40.0485 1.7286 0.885046 0
M  V30 373 C 37.1785 3.25861 1.20133 0
M  V30 374 C 36.1325 4.23978 0.585388 0
M  V30 375 C 35.4585 5.06332 1.7185 0
M  V30 376 C 36.7585 5.20242 -0.463178 0
M  V30 377 H 38.4525 2.94466 -0.541307 0
M  V30 378 H 35.9985 1.41601 -0.261764 0
M  V30 379 H 37.9515 3.84569 1.72293 0
M  V30 380 H 36.6755 2.62315 1.94573 0
M  V30 381 H 35.3345 3.66501 0.085054 0
M  V30 382 H 34.9825 4.39186 2.45203 0
M  V30 383 H 34.6825 5.72762 1.31213 0
M  V30 384 H 36.2065 5.67899 2.24329 0
M  V30 385 H 37.6205 5.73293 -0.027502 0
M  V30 386 H 36.0175 5.94896 -0.788627 0
M  V30 387 H 37.0875 4.65504 -1.35773 0
M  V30 388 N 38.4306 0.297415 1.54768 0
M  V30 389 C 39.6766 -0.313376 2.00364 0
M  V30 390 C 40.0096 -1.53815 1.18553 0
M  V30 391 O 39.2846 -1.92739 0.261103 0
M  V30 392 C 39.5676 -0.673525 3.53745 0
M  V30 393 C 39.4206 0.560133 4.46299 0
M  V30 394 C 40.7396 -1.50143 4.13697 0
M  V30 395 H 37.8586 -0.112428 0.728374 0
M  V30 396 H 40.5006 0.4088 1.8555 0
M  V30 397 H 38.6506 -1.28881 3.665 0
M  V30 398 H 40.3226 1.19863 4.45455 0
M  V30 399 H 38.5656 1.19405 4.17043 0
M  V30 400 H 39.2366 0.26405 5.51368 0
M  V30 401 H 41.7126 -0.981588 4.04356 0
M  V30 402 H 40.5886 -1.72221 5.21182 0
M  V30 403 H 40.8496 -2.48952 3.65343 0
M  V30 404 N 39.9087 -1.5758 0.0250728 0
M  V30 405 C 41.1487 -1.93497 -0.65865 0
M  V30 406 C 41.5127 -0.901409 -1.69525 0
M  V30 407 O 42.7137 -1.14664 -2.43116 0
M  V30 408 C 40.9847 -3.34352 -1.26267 0
M  V30 409 S 42.5437 -3.92191 -1.96803 0
M  V30 410 H 39.3617 -0.67709 -0.216958 0
M  V30 411 H 41.9637 -1.95303 0.0877692 0
M  V30 412 H 40.6677 -4.07395 -0.495741 0
M  V30 413 H 40.1987 -3.3598 -2.04648 0
M  V30 414 H 42.2137 -3.75298 -3.24601 0
M  V30 415 N 41.3868 0.248026 -1.55636 0
M  V30 416 C 42.3168 1.31079 -1.93237 0
M  V30 417 C 43.2978 1.50264 -0.797174 0
M  V30 418 O 44.4828 1.62891 -1.05737 0
M  V30 419 C 41.6128 2.66575 -2.22609 0
M  V30 420 C 40.5668 2.62087 -3.3837 0
M  V30 421 C 39.8928 4.01369 -3.53281 0
M  V30 422 C 41.1928 2.19171 -4.7409 0
M  V30 423 H 42.8868 0.998556 -2.82257 0
M  V30 424 H 40.4328 0.47891 -1.35803 0
M  V30 425 H 42.3858 3.41057 -2.47503 0
M  V30 426 H 41.1098 2.99432 -1.30414 0
M  V30 427 H 39.7688 1.90063 -3.13483 0
M  V30 428 H 39.4168 4.31489 -2.58508 0
M  V30 429 H 39.1168 3.99254 -4.31127 0
M  V30 430 H 40.6408 4.77552 -3.80495 0
M  V30 431 H 42.0548 2.83384 -4.98363 0
M  V30 432 H 40.4518 2.2817 -5.5503 0
M  V30 433 H 41.5218 1.14336 -4.71227 0
M  V30 434 N 42.8649 1.48995 0.513639 0
M  V30 435 C 44.1139 1.57093 1.2651 0
M  V30 436 C 44.4269 0.257091 1.93903 0
M  V30 437 O 45.6329 0.216478 2.70636 0
M  V30 438 C 44.0889 2.77118 2.29638 0
M  V30 439 C 43.6969 4.15209 1.68241 0
M  V30 440 C 45.4409 2.94538 3.05692 0
M  V30 441 C 43.3479 5.26474 2.69406 0
M  V30 442 H 42.2779 0.584876 0.475854 0
M  V30 443 H 44.9289 1.7536 0.540487 0
M  V30 444 H 43.3109 2.52319 3.05207 0
M  V30 445 H 44.4849 4.50094 0.987505 0
M  V30 446 H 42.7999 4.03042 1.04623 0
M  V30 447 H 45.3969 3.74832 3.8132 0
M  V30 448 H 45.7399 2.04614 3.62545 0
M  V30 449 H 46.2729 3.19316 2.37238 0
M  V30 450 H 43.0119 6.18417 2.17351 0
M  V30 451 H 42.5319 4.96058 3.37175 0
M  V30 452 H 44.2109 5.55277 3.32078 0
M  V30 453 N 44.343 -0.763751 1.37857 0
M  V30 454 C 45.568 -1.55805 1.36893 0
M  V30 455 C 45.993 -1.88054 -0.0416135 0
M  V30 456 O 45.351 -1.49825 -1.02089 0
M  V30 457 C 45.399 -2.84012 2.22192 0
M  V30 458 O 44.503 -3.78732 1.63204 0
M  V30 459 H 43.844 -0.471638 0.46739 0
M  V30 460 H 46.374 -0.944657 1.81487 0
M  V30 461 H 46.384 -3.33037 2.35691 0
M  V30 462 H 45.059 -2.59869 3.24716 0
M  V30 463 H 43.636 -3.37402 1.58791 0
M  V30 464 N 45.8211 -1.22559 -0.990812 0
M  V30 465 C 47.0981 -0.959875 -1.70428 0
M  V30 466 C 47.4781 0.524455 -2.04481 0
M  V30 467 O 46.8261 1.49302 -1.72977 0
M  V30 468 C 47.0361 -1.85955 -2.95333 0
M  V30 469 C 48.3841 -2.11687 -3.68068 0
M  V30 470 O 49.4081 -1.8342 -3.05345 0
M  V30 471 O 48.2671 -2.59572 -4.80921 0
M  V30 472 H 45.3611 -0.361154 -0.743974 0
M  V30 473 H 47.9071 -1.33554 -1.04697 0
M  V30 474 H 46.6791 -2.86346 -2.66687 0
M  V30 475 H 46.3021 -1.4856 -3.68803 0
M  V30 476 N 47.2992 1.18797 -1.03562 0
M  V30 477 C 48.5462 1.8865 -0.736023 0
M  V30 478 C 48.8742 1.80041 0.735889 0
M  V30 479 O 48.1292 1.19179 1.55225 0
M  V30 480 C 48.4282 3.38692 -1.14117 0
M  V30 481 C 48.0942 3.67504 -2.6125 0
M  V30 482 C 46.7562 3.75078 -3.01447 0
M  V30 483 C 49.1082 3.80293 -3.56408 0
M  V30 484 C 46.4362 3.92915 -4.35701 0
M  V30 485 C 48.7882 3.99645 -4.90374 0
M  V30 486 C 47.4522 4.05453 -5.30249 0
M  V30 487 H 46.7222 0.690321 -0.26933 0
M  V30 488 H 49.3692 1.40641 -1.29971 0
M  V30 489 H 47.6742 3.88645 -0.496202 0
M  V30 490 H 49.3712 3.91072 -0.886789 0
M  V30 491 H 45.9612 3.62223 -2.29113 0
M  V30 492 H 50.1452 3.73779 -3.26501 0
M  V30 493 H 45.4012 3.95653 -4.66121 0
M  V30 494 H 49.5752 4.08482 -5.64017 0
M  V30 495 H 47.2022 4.19027 -6.34288 0
M  V30 496 N 48.7773 0.814389 1.34928 0
M  V30 497 C 50.0073 0.41054 2.0248 0
M  V30 498 C 50.4153 -0.985625 1.61499 0
M  V30 499 O 49.7583 -1.64781 0.811976 0
M  V30 500 C 49.8203 0.423384 3.56998 0
M  V30 501 C 49.4843 1.77141 4.21272 0
M  V30 502 C 50.4813 2.73093 4.42398 0
M  V30 503 C 48.1663 2.05755 4.58225 0
M  V30 504 C 50.1603 3.95838 4.9959 0
M  V30 505 C 47.8473 3.28762 5.1513 0
M  V30 506 C 48.8453 4.23621 5.35755 0
M  V30 507 O 48.5333 5.44456 5.91458 0
M  V30 508 H 48.2653 0.163997 0.655806 0
M  V30 509 H 50.8193 1.10155 1.73364 0
M  V30 510 H 49.0493 -0.324276 3.85338 0
M  V30 511 H 50.7383 0.0407683 4.0588 0
M  V30 512 H 51.5043 2.5228 4.14222 0
M  V30 513 H 47.3833 1.32727 4.4148 0
M  V30 514 H 50.9273 4.69891 5.15605 0
M  V30 515 H 46.8243 3.49443 5.42734 0
M  V30 516 H 47.5923 5.4586 6.09901 0
M  V30 517 N 50.2554 -1.46986 0.568584 0
M  V30 518 C 51.6664 -1.86188 0.138219 0
M  V30 519 C 52.0174 -1.47388 -1.29504 0
M  V30 520 O 51.1424 -0.88219 -1.97602 0
M  V30 521 C 51.7374 -3.3792 0.244065 0
M  V30 522 C 50.2964 -3.76171 -0.131335 0
M  V30 523 C 49.4434 -2.71027 0.586465 0
M  V30 524 H 52.3944 -1.38342 0.777645 0
M  V30 525 H 52.4154 -3.76729 -0.534351 0
M  V30 526 H 51.9274 -3.66128 1.28731 0
M  V30 527 H 50.0284 -3.5358 -1.17526 0
M  V30 528 H 50.1414 -4.78523 0.235146 0
M  V30 529 H 48.5054 -2.54684 0.0282722 0
M  V30 530 H 49.2884 -3.02077 1.63109 0
M  V30 531 N 51.7335 -0.305618 -1.54608 0
M  V30 532 C 52.9815 0.301701 -1.99835 0
M  V30 533 C 53.3025 1.54054 -1.19551 0
M  V30 534 O 52.5725 1.93702 -0.292658 0
M  V30 535 H 51.1525 0.114468 -0.738178 0
M  V30 536 H 53.8145 -0.418016 -1.90364 0
M  V30 537 H 52.9105 0.570548 -3.06841 0
M  V30 538 N 53.2116 1.57565 -0.0334293 0
M  V30 539 C 54.1746 2.09393 0.932048 0
M  V30 540 C 55.1746 1.00986 1.25134 0
M  V30 541 O 56.3646 1.27129 1.19096 0
M  V30 542 C 53.4966 2.56338 2.2473 0
M  V30 543 H 54.6896 2.95984 0.483085 0
M  V30 544 H 52.2426 1.54819 0.21468 0
M  V30 545 H 52.9776 1.7309 2.74245 0
M  V30 546 H 52.7626 3.35542 2.02865 0
M  V30 547 H 54.2526 2.96646 2.93923 0
M  V30 548 N 54.6897 -0.239769 1.55765 0
M  V30 549 C 55.9357 -0.968234 1.78194 0
M  V30 550 C 56.2687 -1.84701 0.599938 0
M  V30 551 O 55.5437 -1.9031 -0.401524 0
M  V30 552 C 55.8267 -1.8227 3.10564 0
M  V30 553 C 55.6797 -0.971633 4.3918 0
M  V30 554 C 56.9987 -2.80388 3.39221 0
M  V30 555 H 54.1177 -0.350572 0.648281 0
M  V30 556 H 56.7597 -0.238259 1.885 0
M  V30 557 H 54.9097 -2.44507 3.01908 0
M  V30 558 H 56.5817 -0.367408 4.59835 0
M  V30 559 H 54.8247 -0.276276 4.32919 0
M  V30 560 H 55.4957 -1.60346 5.28198 0
M  V30 561 H 57.9717 -2.28287 3.47885 0
M  V30 562 H 56.8477 -3.3729 4.33044 0
M  V30 563 H 57.1087 -3.57212 2.60484 0
M  V30 564 N 56.1678 -1.49265 -0.50573 0
M  V30 565 C 57.3958 -1.62215 -1.28429 0
M  V30 566 C 57.8108 -0.291697 -1.86533 0
M  V30 567 O 57.1678 0.722233 -1.67601 0
M  V30 568 C 57.2188 -2.68735 -2.41793 0
M  V30 569 O 56.9398 -3.96619 -1.86078 0
M  V30 570 C 58.4408 -2.92346 -3.3324 0
M  V30 571 H 55.6608 -0.546239 -0.389697 0
M  V30 572 H 58.2048 -1.95265 -0.607609 0
M  V30 573 H 56.3598 -2.38476 -3.053 0
M  V30 574 H 56.7738 -4.55256 -2.60465 0
M  V30 575 H 58.2478 -3.70623 -4.09075 0
M  V30 576 H 58.7248 -2.02081 -3.89948 0
M  V30 577 H 59.3308 -3.24003 -2.75503 0
M  V30 578 N 57.6459 0.756429 -1.3826 0
M  V30 579 C 58.8919 1.51772 -1.34511 0
M  V30 580 C 59.2249 1.94089 0.0656691 0
M  V30 581 O 58.4999 1.65221 1.02626 0
M  V30 582 C 58.7829 2.77226 -2.29821 0
M  V30 583 C 58.6359 2.41065 -3.79747 0
M  V30 584 C 59.9549 3.79236 -2.23312 0
M  V30 585 H 57.0739 0.550578 -0.489931 0
M  V30 586 H 59.7159 0.866607 -1.69086 0
M  V30 587 H 57.8659 3.32784 -2.00467 0
M  V30 588 H 59.5379 1.91303 -4.19763 0
M  V30 589 H 57.7809 1.7356 -3.97567 0
M  V30 590 H 58.4519 3.3081 -4.41892 0
M  V30 591 H 60.9279 3.3321 -2.49219 0
M  V30 592 H 59.8039 4.64714 -2.92116 0
M  V30 593 H 60.0649 4.24615 -1.23102 0
M  V30 594 N 59.124 1.23083 0.984299 0
M  V30 595 C 60.087 1.00979 2.05757 0
M  V30 596 C 61.087 -0.0269573 1.60777 0
M  V30 597 O 62.277 0.212403 1.729 0
M  V30 598 C 59.409 0.527072 3.36801 0
M  V30 599 H 60.602 1.9622 2.26799 0
M  V30 600 H 58.155 1.05072 1.15714 0
M  V30 601 H 58.89 -0.429294 3.21446 0
M  V30 602 H 58.675 1.27515 3.70786 0
M  V30 603 H 60.165 0.392942 4.15747 0
M  V30 604 N 60.6021 -1.18246 1.0419 0
M  V30 605 C 61.8481 -1.88793 0.75689 0
M  V30 606 C 62.2031 -1.78909 -0.707767 0
M  V30 607 O 61.4961 -1.1794 -1.50999 0
M  V30 608 C 61.6901 -3.38082 1.15911 0
M  V30 609 C 61.5191 -3.62496 2.66133 0
M  V30 610 C 60.2891 -3.7979 3.33298 0
M  V30 611 C 62.4871 -3.62976 3.64353 0
M  V30 612 N 60.4691 -3.91955 4.72487 0
M  V30 613 C 61.8401 -3.80869 4.89222 0
M  V30 614 C 63.8951 -3.46071 3.57965 0
M  V30 615 C 62.5981 -3.83608 6.08471 0
M  V30 616 C 64.6241 -3.50093 4.76643 0
M  V30 617 C 63.9861 -3.68484 6.00332 0
M  V30 618 H 60.0851 -0.709406 0.32904 0
M  V30 619 H 62.6691 -1.42022 1.33183 0
M  V30 620 H 60.8401 -3.83544 0.612238 0
M  V30 621 H 62.5721 -3.96202 0.824989 0
M  V30 622 H 59.3271 -3.79224 2.83701 0
M  V30 623 H 59.7511 -4.01857 5.44831 0
M  V30 624 H 64.3931 -3.30797 2.63311 0
M  V30 625 H 62.1111 -3.97669 7.0348 0
M  V30 626 H 65.6971 -3.38285 4.73344 0
M  V30 627 H 64.5771 -3.71488 6.90627 0
M  V30 628 N 62.0802 -0.821533 -1.34494 0
M  V30 629 C 63.0272 -0.240397 -2.29545 0
M  V30 630 C 63.9972 0.634031 -1.53523 0
M  V30 631 O 65.1822 0.575966 -1.81899 0
M  V30 632 C 62.3222 0.592869 -3.39969 0
M  V30 633 C 61.4352 -0.30365 -4.30932 0
M  V30 634 C 60.5702 0.539049 -5.28458 0
M  V30 635 C 59.6092 -0.356942 -6.11058 0
M  V30 636 N 58.7462 0.446603 -7.00678 0
M  V30 637 H 63.5862 -1.05632 -2.7865 0
M  V30 638 H 61.1232 -0.532413 -1.37127 0
M  V30 639 H 63.0812 1.09129 -4.02675 0
M  V30 640 H 61.7112 1.37392 -2.92102 0
M  V30 641 H 60.7632 -0.920276 -3.691 0
M  V30 642 H 62.0752 -0.992661 -4.88823 0
M  V30 643 H 61.2292 1.102 -5.96608 0
M  V30 644 H 59.9682 1.26157 -4.71101 0
M  V30 645 H 58.9732 -0.932047 -5.41842 0
M  V30 646 H 60.1982 -1.07755 -6.70497 0
M  V30 647 H 58.1442 1.15282 -6.45791 0
M  V30 648 H 58.0612 -0.184048 -7.55776 0
M  V30 649 H 59.3292 0.992352 -7.73158 0
M  V30 650 N 63.5583 1.46682 -0.576371 0
M  V30 651 C 64.5213 2.28707 0.150239 0
M  V30 652 C 65.5213 1.38035 0.824794 0
M  V30 653 O 66.7113 1.60476 0.677719 0
M  V30 654 C 63.8433 3.18248 1.22192 0
M  V30 655 H 65.0363 2.94423 -0.570521 0
M  V30 656 H 62.5893 1.52688 -0.334078 0
M  V30 657 H 63.3243 2.57265 1.97447 0
M  V30 658 H 63.1093 3.85 0.742812 0
M  V30 659 H 64.5993 3.80001 1.73172 0
M  V30 660 N 65.0364 0.313813 1.54444 0
M  V30 661 C 66.3134 -0.345447 1.92525 0
M  V30 662 C 66.6934 -1.70667 1.24242 0
M  V30 663 O 66.0414 -2.25273 0.382654 0
M  V30 664 C 66.2514 -0.44737 3.46121 0
M  V30 665 C 67.5994 -0.712238 4.18584 0
M  V30 666 O 68.6234 -0.530678 3.52225 0
M  V30 667 O 67.4824 -1.06183 5.36085 0
M  V30 668 H 64.5764 -0.195407 0.803583 0
M  V30 669 H 67.1224 0.362813 1.65776 0
M  V30 670 H 65.8944 0.509043 3.87975 0
M  V30 671 H 65.5174 -1.20359 3.78945 0
M  V30 672 N 66.5145 -1.57545 0.0417849 0
M  V30 673 C 67.7625 -1.91937 -0.632829 0
M  V30 674 C 68.0835 -0.919978 -1.71934 0
M  V30 675 O 67.3535 0.0366064 -1.95866 0
M  V30 676 H 65.9335 -0.708493 -0.236742 0
M  V30 677 H 68.5955 -1.9468 0.0925745 0
M  V30 678 H 67.6915 -2.92912 -1.07746 0
M  V30 679 N 67.9926 0.231505 -1.5589 0
M  V30 680 C 69.2176 0.978689 -1.82856 0
M  V30 681 C 69.6426 1.77559 -0.620846 0
M  V30 682 O 69.0006 1.76119 0.430305 0
M  V30 683 C 69.0486 1.87997 -3.07716 0
M  V30 684 O 68.1526 2.97393 -2.85712 0
M  V30 685 H 67.4936 0.277663 -0.603158 0
M  V30 686 H 70.0236 0.24783 -2.03093 0
M  V30 687 H 70.0336 2.2917 -3.37558 0
M  V30 688 H 68.7086 1.29417 -3.95252 0
M  V30 689 H 67.2856 2.60238 -2.67078 0
M  V30 690 N 69.4707 1.49531 0.497807 0
M  V30 691 C 70.8817 1.52344 1.07927 0
M  V30 692 C 71.2327 0.311469 1.93712 0
M  V30 693 O 70.3577 -0.578405 2.08527 0
M  V30 694 C 70.9527 2.76062 1.96405 0
M  V30 695 C 69.5117 2.81643 2.49709 0
M  V30 696 C 68.6587 2.46299 1.27404 0
M  V30 697 H 71.6097 1.56182 0.281576 0
M  V30 698 H 71.6307 2.56405 2.81135 0
M  V30 699 H 71.1427 3.64254 1.33943 0
M  V30 700 H 69.2437 1.97739 3.15801 0
M  V30 701 H 69.3567 3.83891 2.86643 0
M  V30 702 H 67.7207 1.98148 1.60029 0
M  V30 703 H 68.5037 3.36769 0.66645 0
M  V30 704 N 70.9488 -0.749086 1.3866 0
M  V30 705 C 72.1948 -1.51056 1.35314 0
M  V30 706 C 72.5278 -1.94121 -0.0553751 0
M  V30 707 O 71.8028 -1.65763 -1.01749 0
M  V30 708 C 72.0858 -2.76003 2.31288 0
M  V30 709 C 71.9388 -2.39047 3.8102 0
M  V30 710 C 73.2578 -3.78046 2.2532 0
M  V30 711 H 70.3768 -0.547972 0.492844 0
M  V30 712 H 73.0188 -0.857628 1.69543 0
M  V30 713 H 71.1688 -3.31716 2.02229 0
M  V30 714 H 72.8408 -1.89074 4.20771 0
M  V30 715 H 71.0838 -1.71449 3.98482 0
M  V30 716 H 71.7548 -3.28462 4.4364 0
M  V30 717 H 74.2308 -3.31884 2.50983 0
M  V30 718 H 73.1068 -4.63159 2.94576 0
M  V30 719 H 73.3678 -4.23957 1.25352 0
M  V30 720 N 72.4269 -1.23603 -0.977757 0
M  V30 721 C 73.3739 -1.01954 -2.07061 0
M  V30 722 C 74.3439 0.0638697 -1.65977 0
M  V30 723 O 75.5289 -0.0887624 -1.90593 0
M  V30 724 C 72.6689 -0.619658 -3.39491 0
M  V30 725 C 71.7819 -1.77547 -3.93829 0
M  V30 726 C 70.9169 -1.32212 -5.14484 0
M  V30 727 C 69.9559 -2.44852 -5.60994 0
M  V30 728 N 69.0929 -2.00456 -6.72876 0
M  V30 729 H 73.9329 -1.95495 -2.24913 0
M  V30 730 H 71.4699 -0.973861 -1.10247 0
M  V30 731 H 73.4279 -0.368898 -4.15566 0
M  V30 732 H 72.0579 0.278752 -3.21594 0
M  V30 733 H 71.1099 -2.14016 -3.14486 0
M  V30 734 H 72.4219 -2.62219 -4.24314 0
M  V30 735 H 71.5759 -1.02965 -5.97899 0
M  V30 736 H 70.3149 -0.445808 -4.85658 0
M  V30 737 H 69.3199 -2.74871 -4.76157 0
M  V30 738 H 70.5449 -3.33024 -5.91837 0
M  V30 739 H 68.4909 -1.15208 -6.45804 0
M  V30 740 H 68.4079 -2.78687 -7.02759 0
M  V30 741 H 69.6759 -1.7432 -7.59758 0
M  V30 742 N 73.905 1.17692 -1.04816 0
M  V30 743 C 74.868 2.19787 -0.650117 0
M  V30 744 C 75.868 1.58044 0.296427 0
M  V30 745 O 77.058 1.74012 0.0808097 0
M  V30 746 C 74.19 3.40869 0.0456987 0
M  V30 747 H 75.383 2.56516 -1.5537 0
M  V30 748 H 72.936 1.31708 -0.841594 0
M  V30 749 H 73.671 3.09681 0.962726 0
M  V30 750 H 73.456 3.86928 -0.634727 0
M  V30 751 H 74.946 4.16445 0.310432 0
M  V30 752 N 75.3831 0.828654 1.34056 0
M  V30 753 C 76.6311 0.41863 1.97717 0
M  V30 754 C 76.9521 -1.02314 1.66002 0
M  V30 755 O 76.2221 -1.71119 0.953683 0
M  V30 756 H 74.8021 0.151809 0.731412 0
M  V30 757 H 77.4641 1.05936 1.63596 0
M  V30 758 H 76.5601 0.542318 3.07352 0
M  V30 759 N 76.8612 -1.46375 0.584142 0
M  V30 760 C 78.1072 -2.02678 0.0703716 0
M  V30 761 C 78.4402 -1.4545 -1.28678 0
M  V30 762 O 77.7152 -0.62014 -1.84349 0
M  V30 763 C 77.9982 -3.60099 0.00614674 0
M  V30 764 C 77.8512 -4.27709 1.3923 0
M  V30 765 C 79.1702 -4.34598 -0.693742 0
M  V30 766 H 76.2892 -0.736504 0.027047 0
M  V30 767 H 78.9312 -1.74501 0.751615 0
M  V30 768 H 77.0812 -3.84236 -0.574009 0
M  V30 769 H 78.7532 -4.14832 2.01773 0
M  V30 770 H 76.9962 -3.87016 1.95962 0
M  V30 771 H 77.6672 -5.36478 1.29982 0
M  V30 772 H 80.1432 -4.15615 -0.200869 0
M  V30 773 H 79.0192 -5.44318 -0.707714 0
M  V30 774 H 79.2802 -4.05759 -1.75533 0
M  V30 775 N 78.3393 -0.321999 -1.54275 0
M  V30 776 C 79.2493 0.553631 -2.27974 0
M  V30 777 C 80.2653 1.13054 -1.32268 0
M  V30 778 O 81.4413 1.15084 -1.6528 0
M  V30 779 C 78.5063 1.69927 -3.02201 0
M  V30 780 C 77.5673 1.15433 -4.1349 0
M  V30 781 C 76.8003 2.24537 -4.84168 0
M  V30 782 O 77.0233 3.44852 -4.5435 0
M  V30 783 O 75.9573 1.90044 -5.7111 0
M  V30 784 H 79.7833 -0.0448345 -3.03667 0
M  V30 785 H 77.3683 -0.0877418 -1.49142 0
M  V30 786 H 79.2503 2.3663 -3.48689 0
M  V30 787 H 77.9253 2.28395 -2.29385 0
M  V30 788 H 76.8323 0.452436 -3.71354 0
M  V30 789 H 78.1653 0.614805 -4.88345 0
M  V30 790 N 79.8174 1.5752 -0.0501392 0
M  V30 791 C 81.0454 1.96963 0.633492 0
M  V30 792 C 81.4604 0.927631 1.6444 0
M  V30 793 O 80.8174 -0.0882665 1.82286 0
M  V30 794 C 80.8684 3.36487 1.32132 0
M  V30 795 O 80.5894 4.36693 0.350894 0
M  V30 796 C 82.0904 3.90682 2.09481 0
M  V30 797 H 79.3104 0.648244 0.173266 0
M  V30 798 H 81.8544 2.0417 -0.116134 0
M  V30 799 H 80.0094 3.30434 2.02218 0
M  V30 800 H 80.4234 5.17702 0.841735 0
M  V30 801 H 81.8974 4.90591 2.5303 0
M  V30 802 H 82.3744 3.26053 2.94255 0
M  V30 803 H 82.9804 4.00069 1.44307 0
M  V30 804 N 81.2955 -0.223234 1.56011 0
M  V30 805 C 82.5235 -0.964812 1.83027 0
M  V30 806 C 82.9385 -1.78013 0.62904 0
M  V30 807 O 82.2955 -1.78008 -0.402414 0
M  V30 808 C 82.3465 -1.88373 3.08542 0
M  V30 809 O 82.0675 -1.10137 4.2403 0
M  V30 810 C 83.5685 -2.73934 3.48533 0
M  V30 811 H 80.7885 -0.282842 0.608475 0
M  V30 812 H 83.3325 -0.238971 2.03099 0
M  V30 813 H 81.4875 -2.56354 2.9045 0
M  V30 814 H 81.9015 -1.72501 4.95322 0
M  V30 815 H 83.3755 -3.34117 4.39397 0
M  V30 816 H 83.8525 -3.46244 2.70207 0
M  V30 817 H 84.4585 -2.11369 3.69057 0
M  V30 818 N 82.7736 -1.49793 -0.48987 0
M  V30 819 C 83.7206 -1.67281 -1.59014 0
M  V30 820 C 84.6906 -0.514177 -1.57941 0
M  V30 821 O 85.8756 -0.742533 -1.75759 0
M  V30 822 C 83.0156 -1.75569 -2.97102 0
M  V30 823 C 82.1286 -3.0281 -3.08107 0
M  V30 824 C 81.2636 -3.02008 -4.36995 0
M  V30 825 C 80.3026 -4.23782 -4.41673 0
M  V30 826 N 79.4396 -4.20826 -5.62005 0
M  V30 827 H 84.2796 -2.61224 -1.43409 0
M  V30 828 H 81.8166 -1.29508 -0.697565 0
M  V30 829 H 83.7746 -1.78354 -3.77155 0
M  V30 830 H 82.4046 -0.850827 -3.11385 0
M  V30 831 H 81.4566 -3.09584 -2.21047 0
M  V30 832 H 82.7686 -3.92801 -3.07423 0
M  V30 833 H 81.9226 -3.03418 -5.25378 0
M  V30 834 H 80.6616 -2.09815 -4.4026 0
M  V30 835 H 79.6666 -4.22604 -3.5169 0
M  V30 836 H 80.8916 -5.17181 -4.40115 0
M  V30 837 H 78.8376 -3.31476 -5.66091 0
M  V30 838 H 78.7546 -5.04564 -5.62984 0
M  V30 839 H 80.0226 -4.26355 -6.52565 0
M  V30 840 N 84.2517 0.741722 -1.39055 0
M  V30 841 C 85.6627 1.31966 -1.32068 0
M  V30 842 C 86.0137 1.96192 0.0180797 0
M  V30 843 O 85.1387 1.95861 0.920196 0
M  V30 844 C 85.7337 2.39954 -2.39181 0
M  V30 845 C 84.2927 2.93438 -2.35735 0
M  V30 846 C 83.4397 1.66936 -2.21422 0
M  V30 847 H 86.3907 0.539721 -1.4924 0
M  V30 848 H 86.4117 3.20182 -2.05581 0
M  V30 849 H 85.9237 1.9318 -3.36605 0
M  V30 850 H 84.0247 3.4451 -1.41929 0
M  V30 851 H 84.1377 3.4701 -3.30335 0
M  V30 852 H 82.5017 1.91016 -1.68478 0
M  V30 853 H 83.2847 1.22224 -3.20806 0
M  V30 854 N 85.7298 1.2412 0.971189 0
M  V30 855 C 86.9548 1.10667 1.75407 0
M  V30 856 C 87.3798 -0.337048 1.85056 0
M  V30 857 O 86.7378 -1.24396 1.31892 0
M  V30 858 C 86.7858 1.74726 3.15441 0
M  V30 859 O 85.8898 1.01566 3.99697 0
M  V30 860 H 85.2308 0.387341 0.539317 0
M  V30 861 H 87.7608 1.64358 1.2185 0
M  V30 862 H 87.7708 1.80341 3.6598 0
M  V30 863 H 86.4458 2.79773 3.07734 0
M  V30 864 H 85.0228 1.03713 3.58187 0
M  V30 865 N 87.2079 -1.17134 1.05439 0
M  V30 866 C 88.1549 -2.21235 0.657539 0
M  V30 867 C 89.1249 -1.62551 -0.341543 0
M  V30 868 O 90.3099 -1.89379 -0.232393 0
M  V30 869 C 87.4499 -3.45076 0.0410575 0
M  V30 870 C 86.5629 -4.18042 1.08927 0
M  V30 871 C 85.6979 -5.29376 0.439848 0
M  V30 872 C 84.7369 -5.94132 1.4722 0
M  V30 873 N 83.8739 -6.96975 0.846756 0
M  V30 874 H 88.7139 -2.54534 1.54972 0
M  V30 875 H 86.2509 -1.25028 0.775006 0
M  V30 876 H 88.2089 -4.15862 -0.33383 0
M  V30 877 H 86.8389 -3.12353 -0.814568 0
M  V30 878 H 85.8909 -3.45945 1.58196 0
M  V30 879 H 87.2029 -4.62306 1.87282 0
M  V30 880 H 86.3569 -6.06699 0.0115125 0
M  V30 881 H 85.0959 -4.86251 -0.375656 0
M  V30 882 H 84.1009 -5.15538 1.91052 0
M  V30 883 H 85.3259 -6.39337 2.28965 0
M  V30 884 H 83.2719 -6.5598 0.0518075 0
M  V30 885 H 83.1889 -7.39565 1.5678 0
M  V30 886 H 84.4569 -7.78239 0.443277 0
M  V30 887 N 88.686 -0.835752 -1.33615 0
M  V30 888 C 89.618 -0.224151 -2.28101 0
M  V30 889 C 90.631 0.593331 -1.51603 0
M  V30 890 O 91.82 0.420911 -1.73466 0
M  V30 891 C 88.92 0.703309 -3.31522 0
M  V30 892 C 88.093 -0.0741528 -4.37337 0
M  V30 893 C 87.152 0.776176 -5.20444 0
M  V30 894 O 86.178 0.216506 -5.68788 0
M  V30 895 N 87.38 2.09401 -5.41416 0
M  V30 896 H 90.145 -1.03598 -2.81225 0
M  V30 897 H 87.706 -0.69392 -1.46275 0
M  V30 898 H 89.698 1.27707 -3.84022 0
M  V30 899 H 88.268 1.41585 -2.78698 0
M  V30 900 H 87.488 -0.82928 -3.85378 0
M  V30 901 H 88.776 -0.608863 -5.05144 0
M  V30 902 H 88.174 2.57229 -5.03835 0
M  V30 903 H 86.731 2.61633 -5.96985 0
M  V30 904 N 90.1641 1.46063 -0.591896 0
M  V30 905 C 91.3891 2.07226 -0.0850314 0
M  V30 906 C 91.8141 1.43625 1.21463 0
M  V30 907 O 91.1721 0.523305 1.73583 0
M  V30 908 C 91.2201 3.60554 0.0576567 0
M  V30 909 O 90.3241 3.97128 1.11188 0
M  V30 910 H 89.6651 0.660615 -0.0669568 0
M  V30 911 H 92.1951 1.8756 -0.81745 0
M  V30 912 H 92.2051 4.07165 0.2609 0
M  V30 913 H 90.8801 4.06235 -0.891416 0
M  V30 914 H 89.4571 3.62213 0.886356 0
M  V30 915 N 91.6422 0.330177 1.54103 0
M  V30 916 C 92.5902 -0.548226 2.26047 0
M  V30 917 C 93.5842 -1.11309 1.27698 0
M  V30 918 O 94.7902 -1.06036 1.45452 0
M  V30 919 H 91.1652 -0.195456 0.726155 0
M  V30 920 H 93.1362 0.0807567 2.98291 0
M  V30 921 C 91.8852 -1.69415 3.03634 0
M  V30 922 H 91.2082 -1.26876 3.79134 0
M  V30 923 H 92.6482 -2.28423 3.5721 0
M  V30 924 C 91.1072 -2.61569 2.12328 0
M  V30 925 O 91.6372 -3.63462 1.7105 0
M  V30 926 N 89.8432 -2.29952 1.77681 0
M  V30 927 H 89.3902 -1.47134 2.11446 0
M  V30 928 H 89.3482 -2.91871 1.16869 0
M  V30 929 N 93.1203 -1.57491 0.0584922 0
M  V30 930 C 94.0683 -2.13148 -0.931168 0
M  V30 931 C 95.0623 -1.06507 -1.31729 0
M  V30 932 O 96.2683 -1.24906 -1.29609 0
M  V30 933 H 92.6433 -0.68137 -0.31818 0
M  V30 934 H 94.6143 -2.95187 -0.436707 0
M  V30 935 C 93.3633 -2.69732 -2.19408 0
M  V30 936 H 92.6863 -3.51454 -1.90578 0
M  V30 937 H 94.1263 -3.12287 -2.86798 0
M  V30 938 C 92.5853 -1.63855 -2.94369 0
M  V30 939 O 93.1153 -1.05565 -3.87581 0
M  V30 940 N 91.3213 -1.35202 -2.57233 0
M  V30 941 H 90.8683 -1.82791 -1.81508 0
M  V30 942 H 90.8263 -0.645922 -3.07693 0
M  V30 943 N 94.5984 0.214957 -1.56127 0
M  V30 944 C 95.5454 1.26642 -1.92952 0
M  V30 945 C 96.5154 1.46244 -0.78753 0
M  V30 946 O 97.7004 1.59704 -1.04399 0
M  V30 947 C 94.8404 2.6104 -2.25726 0
M  V30 948 C 93.9534 2.49183 -3.52891 0
M  V30 949 C 93.0884 3.76149 -3.7508 0
M  V30 950 C 92.1274 3.59041 -4.95738 0
M  V30 951 N 91.2644 4.77972 -5.14283 0
M  V30 952 H 96.1044 0.945384 -2.82607 0
M  V30 953 H 93.6414 0.455489 -1.3987 0
M  V30 954 H 95.5994 3.39313 -2.42739 0
M  V30 955 H 94.2294 2.91227 -1.39236 0
M  V30 956 H 93.2814 1.6231 -3.44034 0
M  V30 957 H 94.5934 2.32466 -4.41318 0
M  V30 958 H 93.7474 4.62865 -3.92226 0
M  V30 959 H 92.4864 3.95799 -2.84947 0
M  V30 960 H 91.4914 2.7071 -4.78535 0
M  V30 961 H 92.7164 3.40856 -5.87362 0
M  V30 962 H 90.6624 4.97923 -4.27093 0
M  V30 963 H 90.5794 4.64006 -5.96853 0
M  V30 964 H 91.8474 5.66096 -5.35869 0
M  V30 965 N 96.0765 1.50051 0.48192 0
M  V30 966 C 97.3065 1.63999 1.2565 0
M  V30 967 C 97.7145 0.318288 1.86504 0
M  V30 968 O 97.0575 -0.708534 1.69486 0
M  V30 969 C 97.1195 2.66504 2.4128 0
M  V30 970 C 96.7835 4.10352 2.01148 0
M  V30 971 C 97.7805 4.96562 1.54021 0
M  V30 972 C 95.4655 4.56203 2.10199 0
M  V30 973 C 97.4595 6.26668 1.16473 0
M  V30 974 C 95.1465 5.86318 1.72264 0
M  V30 975 C 96.1445 6.71375 1.25477 0
M  V30 976 O 95.8325 7.99062 0.880626 0
M  V30 977 H 95.5645 0.55456 0.386574 0
M  V30 978 H 98.1185 1.96954 0.582944 0
M  V30 979 H 96.3485 2.28769 3.11772 0
M  V30 980 H 98.0375 2.69783 3.03268 0
M  V30 981 H 98.8035 4.62358 1.46458 0
M  V30 982 H 94.6825 3.90152 2.45566 0
M  V30 983 H 98.2265 6.93011 0.798841 0
M  V30 984 H 94.1235 6.20046 1.79482 0
M  V30 985 H 94.8915 8.12239 1.01043 0
M  V30 986 N 97.5546 -0.734337 1.39446 0
M  V30 987 C 98.5176 -1.83004 1.37994 0
M  V30 988 C 99.5176 -1.58397 0.276938 0
M  V30 989 O 100.708 -1.65785 0.534875 0
M  V30 990 C 97.8396 -3.20802 1.1532 0
M  V30 991 H 99.0326 -1.85694 2.35494 0
M  V30 992 H 96.5856 -0.938059 1.25021 0
M  V30 993 H 97.3206 -3.23772 0.185036 0
M  V30 994 H 97.1056 -3.4006 1.95197 0
M  V30 995 H 98.5956 -4.00862 1.17046 0
M  V30 996 N 99.0327 -1.24633 -0.964593 0
M  V30 997 C 99.9957 -1.0424 -2.04124 0
M  V30 998 C 100.996 0.00137563 -1.608 0
M  V30 999 O 102.186 -0.239883 -1.7254 0
M  V30 1000 C 99.3177 -0.580588 -3.3592 0
M  V30 1001 H 100.511 -1.99803 -2.23649 0
M  V30 1002 H 98.0637 -1.06899 -1.14027 0
M  V30 1003 H 98.7987 0.3781 -3.22088 0
M  V30 1004 H 98.5837 -1.33398 -3.6871 0
M  V30 1005 H 100.074 -0.459034 -4.15069 0
M  V30 1006 N 100.511 1.16574 -1.06058 0
M  V30 1007 C 101.736 1.91493 -0.796562 0
M  V30 1008 C 102.161 1.76773 0.642868 0
M  V30 1009 O 101.519 1.09142 1.44768 0
M  V30 1010 C 101.567 3.40293 -1.19303 0
M  V30 1011 O 100.671 4.11074 -0.330394 0
M  V30 1012 H 100.012 0.596678 -0.291326 0
M  V30 1013 H 102.542 1.47708 -1.41575 0
M  V30 1014 H 102.552 3.91057 -1.16356 0
M  V30 1015 H 101.227 3.50326 -2.24153 0
M  V30 1016 H 99.8038 3.70513 -0.421225 0
M  V30 1017 N 101.989 0.842826 1.3317 0
M  V30 1018 C 103.214 0.453129 2.02389 0
M  V30 1019 C 103.639 -0.939105 1.6298 0
M  V30 1020 O 102.997 -1.61472 0.8244 0
M  V30 1021 C 103.045 0.586094 3.55805 0
M  V30 1022 O 102.149 -0.386029 4.10589 0
M  V30 1023 H 101.49 0.183664 0.638094 0
M  V30 1024 H 104.02 1.13875 1.69981 0
M  V30 1025 H 104.03 0.469209 4.05293 0
M  V30 1026 H 102.705 1.6014 3.83833 0
M  V30 1027 H 101.282 -0.226371 3.72212 0
M  V30 1028 N 103.467 -1.45747 0.599634 0
M  V30 1029 C 104.697 -2.06369 0.0977132 0
M  V30 1030 C 105.105 -1.44624 -1.21985 0
M  V30 1031 O 104.448 -0.551831 -1.75216 0
M  V30 1032 C 104.51 -3.59284 -0.124673 0
M  V30 1033 C 104.174 -4.43318 1.10987 0
M  V30 1034 C 105.171 -4.78796 2.02609 0
M  V30 1035 C 102.856 -4.84194 1.33647 0
M  V30 1036 C 104.85 -5.53997 3.15224 0
M  V30 1037 C 102.537 -5.5915 2.46565 0
M  V30 1038 C 103.535 -5.93968 3.37182 0
M  V30 1039 O 103.223 -6.67405 4.48136 0
M  V30 1040 H 102.955 -0.673122 0.0623153 0
M  V30 1041 H 105.509 -1.88104 0.824981 0
M  V30 1042 H 103.739 -3.75919 -0.906745 0
M  V30 1043 H 105.428 -4.01775 -0.577201 0
M  V30 1044 H 106.194 -4.47781 1.86325 0
M  V30 1045 H 102.073 -4.56534 0.64016 0
M  V30 1046 H 105.617 -5.81091 3.85978 0
M  V30 1047 H 101.514 -5.89579 2.62805 0
M  V30 1048 H 102.282 -6.85847 4.46717 0
M  V30 1049 N 104.945 -0.338344 -1.53925 0
M  V30 1050 C 105.875 0.51328 -2.27789 0
M  V30 1051 C 106.856 1.107 -1.29149 0
M  V30 1052 O 108.041 1.12937 -1.57984 0
M  V30 1053 C 105.171 1.66697 -3.04679 0
M  V30 1054 C 104.125 1.20183 -4.1078 0
M  V30 1055 C 103.451 2.44363 -4.75595 0
M  V30 1056 C 104.751 0.30605 -5.21403 0
M  V30 1057 H 106.445 -0.102883 -2.99223 0
M  V30 1058 H 103.991 -0.0509219 -1.4391 0
M  V30 1059 H 105.944 2.26915 -3.55088 0
M  V30 1060 H 104.668 2.30995 -2.30887 0
M  V30 1061 H 103.327 0.622499 -3.61276 0
M  V30 1062 H 102.975 3.07057 -3.98403 0
M  V30 1063 H 102.675 2.13925 -5.47275 0
M  V30 1064 H 104.199 3.05317 -5.28786 0
M  V30 1065 H 105.613 0.814929 -5.67478 0
M  V30 1066 H 104.01 0.0937929 -6.00027 0
M  V30 1067 H 105.08 -0.65921 -4.80398 0
M  V30 1068 N 106.423 1.57458 -0.0668435 0
M  V30 1069 C 107.648 1.9804 0.616027 0
M  V30 1070 C 108.073 0.944771 1.62652 0
M  V30 1071 O 107.431 -0.0902094 1.81075 0
M  V30 1072 C 107.479 3.37665 1.26549 0
M  V30 1073 O 106.583 3.36701 2.38131 0
M  V30 1074 H 105.924 0.644719 0.158849 0
M  V30 1075 H 108.454 2.04121 -0.139891 0
M  V30 1076 H 108.464 3.7474 1.6135 0
M  V30 1077 H 107.139 4.12573 0.525016 0
M  V30 1078 H 105.716 3.1139 2.0516 0
M  V30 1079 N 107.901 -0.206675 1.56239 0
M  V30 1080 C 108.831 -1.25909 1.96645 0
M  V30 1081 C 109.812 -1.48097 0.836734 0
M  V30 1082 O 110.997 -1.6003 1.10019 0
M  V30 1083 C 108.127 -2.6058 2.29599 0
M  V30 1084 C 107.081 -2.53024 3.452 0
M  V30 1085 C 106.407 -3.91861 3.63798 0
M  V30 1086 C 107.707 -2.06524 4.79734 0
M  V30 1087 H 109.401 -0.923369 2.84806 0
M  V30 1088 H 106.947 -0.442735 1.37025 0
M  V30 1089 H 108.9 -3.34375 2.56459 0
M  V30 1090 H 107.624 -2.95869 1.38307 0
M  V30 1091 H 106.283 -1.81684 3.18412 0
M  V30 1092 H 105.931 -4.24483 2.69857 0
M  V30 1093 H 105.631 -3.87683 4.4156 0
M  V30 1094 H 107.155 -4.67296 3.93022 0
M  V30 1095 H 108.569 -2.70072 5.05702 0
M  V30 1096 H 106.966 -2.13374 5.60885 0
M  V30 1097 H 108.036 -1.01802 4.74093 0
M  V30 1098 N 109.379 -1.50304 -0.473955 0
M  V30 1099 C 110.607 -1.64902 -1.24959 0
M  V30 1100 C 111.022 -0.331198 -1.85872 0
M  V30 1101 O 110.379 0.68652 -1.69095 0
M  V30 1102 C 110.43 -2.73803 -2.36038 0
M  V30 1103 O 110.151 -4.00477 -1.77624 0
M  V30 1104 C 111.652 -2.99349 -3.26964 0
M  V30 1105 H 108.872 -0.554383 -0.378022 0
M  V30 1106 H 111.416 -1.9651 -0.566054 0
M  V30 1107 H 109.571 -2.44898 -3.00173 0
M  V30 1108 H 109.985 -4.60678 -2.5075 0
M  V30 1109 H 111.459 -3.79217 -4.01121 0
M  V30 1110 H 111.936 -2.10307 -3.85574 0
M  V30 1111 H 112.542 -3.29774 -2.68569 0
M  V30 1112 N 110.857 0.726932 -1.39834 0
M  V30 1113 C 112.268 1.30558 -1.3346 0
M  V30 1114 C 112.619 1.962 -0.00273003 0
M  V30 1115 O 111.744 1.96826 0.899371 0
M  V30 1116 C 112.339 2.37404 -2.41713 0
M  V30 1117 C 110.898 2.90921 -2.38835 0
M  V30 1118 C 110.045 1.64578 -2.2318 0
M  V30 1119 H 112.996 0.523862 -1.49804 0
M  V30 1120 H 113.017 3.17984 -2.08966 0
M  V30 1121 H 112.529 1.89599 -3.38635 0
M  V30 1122 H 110.63 3.42985 -1.45575 0
M  V30 1123 H 110.743 3.43487 -3.33997 0
M  V30 1124 H 109.107 1.89219 -1.70494 0
M  V30 1125 H 109.89 1.18814 -3.22084 0
M  V30 1126 N 112.336 1.25143 0.95797 0
M  V30 1127 C 113.246 1.06968 2.08794 0
M  V30 1128 C 114.262 0.00773911 1.73998 0
M  V30 1129 O 115.438 0.207972 2.00323 0
M  V30 1130 C 112.503 0.68691 3.39827 0
M  V30 1131 C 111.564 1.82641 3.88511 0
M  V30 1132 C 110.797 1.46181 5.1329 0
M  V30 1133 O 111.02 0.355971 5.69288 0
M  V30 1134 O 109.954 2.29085 5.566 0
M  V30 1135 H 113.78 2.01723 2.27027 0
M  V30 1136 H 111.365 1.04051 1.07209 0
M  V30 1137 H 113.247 0.485417 4.18595 0
M  V30 1138 H 111.922 -0.231417 3.22872 0
M  V30 1139 H 110.829 2.08274 3.10762 0
M  V30 1140 H 112.162 2.72386 4.09959 0
M  V30 1141 N 113.814 -1.1601 1.06675 0
M  V30 1142 C 114.746 -2.20115 0.638921 0
M  V30 1143 C 115.759 -1.59916 -0.305057 0
M  V30 1144 O 116.948 -1.78245 -0.0954446 0
M  V30 1145 C 114.048 -3.38798 -0.0830083 0
M  V30 1146 C 113.221 -4.2855 0.875426 0
M  V30 1147 C 112.28 -5.25849 0.192042 0
M  V30 1148 O 111.306 -5.63102 0.830921 0
M  V30 1149 N 112.508 -5.70648 -1.06493 0
M  V30 1150 H 115.273 -2.57439 1.53444 0
M  V30 1151 H 112.834 -1.31057 0.950557 0
M  V30 1152 H 114.826 -4.00936 -0.550685 0
M  V30 1153 H 113.396 -2.99947 -0.880386 0
M  V30 1154 H 112.616 -3.63617 1.52238 0
M  V30 1155 H 113.904 -4.85393 1.52548 0
M  V30 1156 H 113.302 -5.42482 -1.60405 0
M  V30 1157 H 111.859 -6.34859 -1.47641 0
M  V30 1158 N 115.292 -0.849877 -1.32721 0
M  V30 1159 C 116.538 -0.460855 -1.9811 0
M  V30 1160 C 116.893 0.971716 -1.66059 0
M  V30 1161 O 116.186 1.67184 -0.935944 0
M  V30 1162 C 116.38 -0.631272 -3.51781 0
M  V30 1163 C 116.209 -2.07886 -3.98765 0
M  V30 1164 C 114.979 -2.71637 -4.26077 0
M  V30 1165 C 117.177 -3.04889 -4.14182 0
M  V30 1166 N 115.159 -4.07356 -4.59276 0
M  V30 1167 C 116.53 -4.25583 -4.50865 0
M  V30 1168 C 118.585 -3.01148 -3.96503 0
M  V30 1169 C 117.288 -5.43027 -4.71714 0
M  V30 1170 C 119.314 -4.17832 -4.18533 0
M  V30 1171 C 118.676 -5.37284 -4.55528 0
M  V30 1172 H 114.775 -0.217283 -0.751207 0
M  V30 1173 H 117.359 -1.10026 -1.60631 0
M  V30 1174 H 115.53 -0.0215966 -3.88394 0
M  V30 1175 H 117.262 -0.212614 -4.04141 0
M  V30 1176 H 114.017 -2.22705 -4.17971 0
M  V30 1177 H 114.441 -4.77351 -4.80068 0
M  V30 1178 H 119.083 -2.0992 -3.67006 0
M  V30 1179 H 116.801 -6.34791 -5.00066 0
M  V30 1180 H 120.387 -4.16368 -4.06361 0
M  V30 1181 H 119.267 -6.26071 -4.72234 0
M  V30 1182 N 116.77 1.45427 -0.607355 0
M  V30 1183 C 117.717 2.3053 0.111625 0
M  V30 1184 C 118.687 1.4209 0.860216 0
M  V30 1185 O 119.872 1.71019 0.845998 0
M  V30 1186 C 117.012 3.26992 1.10319 0
M  V30 1187 C 116.125 4.30535 0.355493 0
M  V30 1188 C 115.26 5.14105 1.33676 0
M  V30 1189 C 114.299 6.09376 0.576862 0
M  V30 1190 N 113.436 6.85727 1.5074 0
M  V30 1191 H 118.276 2.91477 -0.620093 0
M  V30 1192 H 115.813 1.43631 -0.317594 0
M  V30 1193 H 117.771 3.81385 1.6912 0
M  V30 1194 H 116.401 2.67799 1.80232 0
M  V30 1195 H 115.453 3.78805 -0.348023 0
M  V30 1196 H 116.765 4.98235 -0.237423 0
M  V30 1197 H 115.919 5.72897 1.99684 0
M  V30 1198 H 114.658 4.46423 1.9636 0
M  V30 1199 H 113.663 5.49715 -0.0968519 0
M  V30 1200 H 114.888 6.79085 -0.0449341 0
M  V30 1201 H 112.834 6.20735 2.12189 0
M  V30 1202 H 112.751 7.49778 0.967913 0
M  V30 1203 H 114.019 7.4906 2.15706 0
M  V30 1204 N 118.248 0.346503 1.53744 0
M  V30 1205 C 119.473 -0.253074 2.0585 0
M  V30 1206 C 119.898 -1.43202 1.21962 0
M  V30 1207 O 119.256 -1.79783 0.234073 0
M  V30 1208 C 119.304 -0.643193 3.54817 0
M  V30 1209 O 118.408 -1.74286 3.73762 0
M  V30 1210 H 117.749 -0.0413583 0.662711 0
M  V30 1211 H 120.279 0.501574 1.98357 0
M  V30 1212 H 120.289 -0.919526 3.97503 0
M  V30 1213 H 118.964 0.218966 4.15323 0
M  V30 1214 H 117.541 -1.46356 3.42979 0
M  V30 1215 N 119.726 -1.57421 0.075193 0
M  V30 1216 C 120.676 -2.09441 -0.901025 0
M  V30 1217 C 121.66 -1.00486 -1.25663 0
M  V30 1218 O 122.852 -1.2679 -1.23504 0
M  V30 1219 C 119.981 -2.66233 -2.16737 0
M  V30 1220 C 119.067 -3.82198 -1.83808 0
M  V30 1221 N 119.458 -4.91028 -1.21345 0
M  V30 1222 C 117.756 -3.91558 -2.13538 0
M  V30 1223 C 118.457 -5.71852 -1.06585 0
M  V30 1224 N 117.433 -5.20233 -1.57667 0
M  V30 1225 H 121.235 -2.90972 -0.413815 0
M  V30 1226 H 118.749 -1.6189 -0.128601 0
M  V30 1227 H 120.746 -3.01819 -2.87595 0
M  V30 1228 H 119.406 -1.8615 -2.66042 0
M  V30 1229 H 120.417 -5.10323 -0.88268 0
M  V30 1230 H 117.094 -3.22454 -2.65197 0
M  V30 1231 H 118.484 -6.69401 -0.578933 0
M  V30 1232 N 121.204 0.198386 -1.56346 0
M  V30 1233 C 122.62 0.549085 -1.49857 0
M  V30 1234 C 122.82 1.86016 -0.774611 0
M  V30 1235 O 121.876 2.50416 -0.323776 0
M  V30 1236 C 123.189 0.606868 -2.94512 0
M  V30 1237 C 124.737 0.695925 -3.05165 0
M  V30 1238 C 125.212 0.784848 -4.51225 0
M  V30 1239 N 126.703 0.848463 -4.55363 0
M  V30 1240 C 127.438 0.937378 -5.65686 0
M  V30 1241 N 126.934 0.9888 -6.85707 0
M  V30 1242 N 128.727 0.974312 -5.53592 0
M  V30 1243 H 120.878 -0.661655 -2.01831 0
M  V30 1244 H 123.141 -0.235261 -0.918344 0
M  V30 1245 H 122.847 -0.28732 -3.50524 0
M  V30 1246 H 122.721 1.46268 -3.47686 0
M  V30 1247 H 125.108 1.58055 -2.49204 0
M  V30 1248 H 125.189 -0.186022 -2.55123 0
M  V30 1249 H 124.833 -0.0954072 -5.0781 0
M  V30 1250 H 124.763 1.68255 -4.98997 0
M  V30 1251 H 127.254 0.818103 -3.68938 0
M  V30 1252 H 127.567 1.05707 -7.65536 0
M  V30 1253 H 125.912 0.957534 -6.88372 0
M  V30 1254 H 129.103 0.930954 -4.58749 0
M  V30 1255 H 129.276 1.04015 -6.39597 0
M  V30 1256 N 122.682 1.50554 0.465978 0
M  V30 1257 C 123.907 1.65838 1.24549 0
M  V30 1258 C 124.332 0.343486 1.84937 0
M  V30 1259 O 123.69 -0.69324 1.67523 0
M  V30 1260 C 123.738 2.75533 2.32624 0
M  V30 1261 O 122.842 2.37142 3.37398 0
M  V30 1262 H 122.183 0.553893 0.366194 0
M  V30 1263 H 124.713 1.96959 0.553927 0
M  V30 1264 H 124.723 2.98763 2.77857 0
M  V30 1265 H 123.398 3.70962 1.88043 0
M  V30 1266 H 121.975 2.24377 2.97841 0
M  V30 1267 N 124.16 -0.719506 1.40217 0
M  V30 1268 C 125.39 -1.50646 1.41384 0
M  V30 1269 C 125.798 -1.89197 0.0107743 0
M  V30 1270 O 125.141 -1.55709 -0.974708 0
M  V30 1271 C 125.203 -2.81405 2.23722 0
M  V30 1272 C 124.867 -2.65199 3.72181 0
M  V30 1273 C 125.864 -2.32717 4.64907 0
M  V30 1274 C 123.549 -2.81586 4.1595 0
M  V30 1275 C 125.543 -2.16827 5.99387 0
M  V30 1276 C 123.23 -2.65313 5.50502 0
M  V30 1277 C 124.228 -2.32981 6.42035 0
M  V30 1278 O 123.916 -2.16827 7.74107 0
M  V30 1279 H 123.648 -0.471606 0.484318 0
M  V30 1280 H 126.202 -0.895456 1.84853 0
M  V30 1281 H 124.432 -3.44823 1.75026 0
M  V30 1282 H 126.121 -3.43102 2.16878 0
M  V30 1283 H 126.887 -2.19694 4.32388 0
M  V30 1284 H 122.766 -3.0574 3.45027 0
M  V30 1285 H 126.31 -1.91513 6.70797 0
M  V30 1286 H 122.207 -2.7792 5.82607 0
M  V30 1287 H 122.975 -2.31778 7.84998 0
M  V30 1288 N 125.638 -1.25649 -0.95132 0
M  V30 1289 C 126.863 -1.13443 -1.73624 0
M  V30 1290 C 127.288 0.307565 -1.85568 0
M  V30 1291 O 126.646 1.22282 -1.33854 0
M  V30 1292 C 126.694 -1.79723 -3.12621 0
M  V30 1293 O 125.798 -1.07912 -3.98031 0
M  V30 1294 H 125.139 -0.395872 -0.533086 0
M  V30 1295 H 127.669 -1.66276 -1.1922 0
M  V30 1296 H 127.679 -1.86141 -3.63064 0
M  V30 1297 H 126.354 -2.84633 -3.03244 0
M  V30 1298 H 124.931 -1.09398 -3.56492 0
M  V30 1299 N 127.117 1.15442 -1.07289 0
M  V30 1300 C 128.357 1.8788 -0.805012 0
M  V30 1301 C 128.721 1.80413 0.656907 0
M  V30 1302 O 129.922 2.47874 1.0398 0
M  V30 1303 C 128.193 3.3298 -1.29843 0
M  V30 1304 S 129.752 4.23158 -1.16114 0
M  V30 1305 H 126.57 0.64839 -0.291739 0
M  V30 1306 H 129.172 1.39285 -1.37186 0
M  V30 1307 H 127.876 3.35958 -2.35712 0
M  V30 1308 H 127.407 3.86629 -0.726767 0
M  V30 1309 H 129.422 4.96103 -0.0982778 0
M  V30 1310 N 128.595 0.856903 1.32268 0
M  V30 1311 C 129.527 0.260412 2.27716 0
M  V30 1312 C 130.54 -0.569137 1.52528 0
M  V30 1313 O 131.729 -0.39326 1.74114 0
M  V30 1314 C 128.829 -0.650477 3.32599 0
M  V30 1315 C 128.002 0.14372 4.37164 0
M  V30 1316 C 127.061 -0.69328 5.21613 0
M  V30 1317 O 126.087 -0.12599 5.69061 0
M  V30 1318 N 127.289 -2.00761 5.44679 0
M  V30 1319 H 130.054 1.08059 2.79541 0
M  V30 1320 H 127.615 0.717103 1.45152 0
M  V30 1321 H 129.607 -1.21581 3.86005 0
M  V30 1322 H 128.177 -1.37133 2.80915 0
M  V30 1323 H 127.397 0.890486 3.8401 0
M  V30 1324 H 128.685 0.68915 5.04111 0
M  V30 1325 H 128.083 -2.49181 5.07863 0
M  V30 1326 H 126.64 -2.52103 6.01072 0
M  V30 1327 N 130.073 -1.45103 0.615059 0
M  V30 1328 C 131.319 -2.02483 0.113347 0
M  V30 1329 C 131.652 -1.48146 -1.25564 0
M  V30 1330 O 130.927 -0.659104 -1.82992 0
M  V30 1331 C 131.21 -3.60005 0.0825278 0
M  V30 1332 C 131.063 -4.2466 1.48271 0
M  V30 1333 C 132.382 -4.35972 -0.601401 0
M  V30 1334 H 129.501 -0.735764 0.0426632 0
M  V30 1335 H 132.143 -1.72868 0.788461 0
M  V30 1336 H 130.293 -3.85367 -0.492378 0
M  V30 1337 H 131.965 -4.10458 2.10527 0
M  V30 1338 H 130.208 -3.82772 2.04127 0
M  V30 1339 H 130.879 -5.336 1.41332 0
M  V30 1340 H 133.355 -4.15947 -0.112666 0
M  V30 1341 H 132.231 -5.45697 -0.592097 0
M  V30 1342 H 132.492 -4.09391 -1.66887 0
M  V30 1343 N 131.551 -0.354651 -1.53558 0
M  V30 1344 C 132.779 0.239515 -2.05509 0
M  V30 1345 C 133.194 1.4333 -1.2289 0
M  V30 1346 O 132.551 1.80538 -0.266899 0
M  V30 1347 C 132.602 0.643719 -3.55723 0
M  V30 1348 O 132.323 -0.502602 -4.35207 0
M  V30 1349 C 133.824 1.29743 -4.23889 0
M  V30 1350 H 131.044 0.0442697 -0.669538 0
M  V30 1351 H 133.588 -0.509856 -1.98042 0
M  V30 1352 H 131.743 1.34302 -3.63376 0
M  V30 1353 H 132.157 -0.178172 -5.24197 0
M  V30 1354 H 133.631 1.53091 -5.30346 0
M  V30 1355 H 134.108 2.25441 -3.76926 0
M  V30 1356 H 134.714 0.639865 -4.20459 0
M  V30 1357 N 133.029 1.57378 -0.0835403 0
M  V30 1358 C 133.979 2.09916 0.889905 0
M  V30 1359 C 134.963 1.01151 1.25129 0
M  V30 1360 O 136.155 1.27443 1.2283 0
M  V30 1361 C 133.284 2.67379 2.15322 0
M  V30 1362 C 132.37 3.83167 1.81779 0
M  V30 1363 N 132.761 4.91665 1.18739 0
M  V30 1364 C 131.059 3.92685 2.11459 0
M  V30 1365 C 131.76 5.72409 1.0355 0
M  V30 1366 N 130.736 5.21062 1.54906 0
M  V30 1367 H 134.538 2.91188 0.398378 0
M  V30 1368 H 132.052 1.61956 0.120013 0
M  V30 1369 H 134.049 3.0334 2.8599 0
M  V30 1370 H 132.709 1.87558 2.65051 0
M  V30 1371 H 133.72 5.10784 0.855604 0
M  V30 1372 H 130.397 3.23856 2.63483 0
M  V30 1373 H 131.787 6.69699 0.543425 0
M  V30 1374 N 134.507 -0.190092 1.56449 0
M  V30 1375 C 135.417 -1.25591 1.98152 0
M  V30 1376 C 136.433 -1.49519 0.889944 0
M  V30 1377 O 137.609 -1.62036 1.19609 0
M  V30 1378 C 134.674 -2.57916 2.3169 0
M  V30 1379 C 133.735 -2.42015 3.5458 0
M  V30 1380 C 132.968 -3.6803 3.8651 0
M  V30 1381 O 133.191 -4.72413 3.1966 0
M  V30 1382 O 132.125 -3.6326 4.79923 0
M  V30 1383 H 135.951 -0.931988 2.89046 0
M  V30 1384 H 133.536 -0.395488 1.4407 0
M  V30 1385 H 135.418 -3.36008 2.54316 0
M  V30 1386 H 134.093 -2.89925 1.43963 0
M  V30 1387 H 133 -1.62017 3.37196 0
M  V30 1388 H 134.333 -2.14937 4.4279 0
M  V30 1389 N 135.985 -1.50799 -0.457987 0
M  V30 1390 C 137.233 -1.62121 -1.2067 0
M  V30 1391 C 137.554 -0.329793 -1.92191 0
M  V30 1392 O 136.824 0.653409 -1.84682 0
M  V30 1393 H 135.404 -0.597441 -0.448411 0
M  V30 1394 H 138.066 -1.87637 -0.527096 0
M  V30 1395 H 137.162 -2.43882 -1.94751 0
M  V30 1396 N 137.463 0.71206 -1.40597 0
M  V30 1397 C 138.688 1.50617 -1.42581 0
M  V30 1398 C 139.113 1.88079 -0.0282102 0
M  V30 1399 O 138.471 1.53511 0.964579 0
M  V30 1400 C 138.519 2.7557 -2.3258 0
M  V30 1401 O 137.623 3.72414 -1.77148 0
M  V30 1402 H 136.964 0.453966 -0.484573 0
M  V30 1403 H 139.494 0.876649 -1.84868 0
M  V30 1404 H 139.504 3.2406 -2.47889 0
M  V30 1405 H 138.179 2.47639 -3.34138 0
M  V30 1406 H 136.756 3.31276 -1.71204 0
M  V30 1407 N 138.941 1.26152 0.944643 0
M  V30 1408 C 140.169 1.14259 1.72489 0
M  V30 1409 C 140.584 -0.302555 1.8636 0
M  V30 1410 O 139.941 -1.20741 1.36849 0
M  V30 1411 C 139.992 1.80266 3.13347 0
M  V30 1412 O 139.713 3.19133 3.00143 0
M  V30 1413 C 141.214 1.74283 4.07603 0
M  V30 1414 H 138.434 0.398051 0.540181 0
M  V30 1415 H 140.978 1.66706 1.18446 0
M  V30 1416 H 139.133 1.31766 3.64303 0
M  V30 1417 H 139.547 3.51744 3.89071 0
M  V30 1418 H 141.021 2.25111 5.04013 0
M  V30 1419 H 141.498 0.708631 4.33446 0
M  V30 1420 H 142.104 2.22319 3.62567 0
M  V30 1421 N 140.419 -1.14872 1.07899 0
M  V30 1422 C 141.665 -1.86064 0.806725 0
M  V30 1423 C 141.998 -1.82434 -0.665706 0
M  V30 1424 O 141.273 -1.25138 -1.48899 0
M  V30 1425 C 141.556 -3.34929 1.32267 0
M  V30 1426 C 141.409 -3.47161 2.86006 0
M  V30 1427 C 142.728 -4.29863 0.943717 0
M  V30 1428 H 139.847 -0.675591 0.294526 0
M  V30 1429 H 142.489 -1.34925 1.33773 0
M  V30 1430 H 140.639 -3.78611 0.870974 0
M  V30 1431 H 142.311 -3.12302 3.39507 0
M  V30 1432 H 140.554 -2.88539 3.23925 0
M  V30 1433 H 141.225 -4.51777 3.17177 0
M  V30 1434 H 143.701 -3.9417 1.33302 0
M  V30 1435 H 142.577 -5.32494 1.33198 0
M  V30 1436 H 142.838 -4.41846 -0.149796 0
M  V30 1437 N 141.898 -0.863906 -1.31812 0
M  V30 1438 C 142.808 -0.318461 -2.32428 0
M  V30 1439 C 143.824 0.568496 -1.64451 0
M  V30 1440 O 145 0.46666 -1.95919 0
M  V30 1441 C 142.065 0.476355 -3.43412 0
M  V30 1442 C 141.126 -0.43784 -4.27061 0
M  V30 1443 C 140.359 0.319138 -5.32745 0
M  V30 1444 O 140.582 1.54799 -5.48993 0
M  V30 1445 O 139.516 -0.319861 -6.01049 0
M  V30 1446 H 143.342 -1.15229 -2.80991 0
M  V30 1447 H 140.927 -0.627103 -1.35602 0
M  V30 1448 H 142.809 0.927156 -4.11074 0
M  V30 1449 H 141.484 1.28683 -2.97022 0
M  V30 1450 H 140.391 -0.937013 -3.62175 0
M  V30 1451 H 141.724 -1.21375 -4.77 0
M  V30 1452 N 143.376 1.44774 -0.622745 0
M  V30 1453 C 144.323 2.30635 0.0871679 0
M  V30 1454 C 145.293 1.42994 0.845097 0
M  V30 1455 O 146.478 1.71907 0.827812 0
M  V30 1456 C 143.618 3.28144 1.06844 0
M  V30 1457 C 142.731 4.30888 0.309809 0
M  V30 1458 C 141.866 5.15494 1.28215 0
M  V30 1459 C 140.905 6.09953 0.512198 0
M  V30 1460 N 140.042 6.87287 1.43458 0
M  V30 1461 H 144.882 2.90803 -0.650974 0
M  V30 1462 H 142.419 1.43286 -0.33281 0
M  V30 1463 H 144.377 3.83157 1.65066 0
M  V30 1464 H 143.007 2.69695 1.77382 0
M  V30 1465 H 142.059 3.78414 -0.388181 0
M  V30 1466 H 143.371 4.97955 -0.290254 0
M  V30 1467 H 142.525 5.74983 1.93596 0
M  V30 1468 H 141.264 4.48481 1.91614 0
M  V30 1469 H 140.269 5.49581 -0.155151 0
M  V30 1470 H 141.494 6.78999 -0.116958 0
M  V30 1471 H 139.44 6.2295 2.05594 0
M  V30 1472 H 139.357 7.50763 0.888335 0
M  V30 1473 H 140.625 7.51306 2.07749 0
M  V30 1474 N 144.854 0.36279 1.53368 0
M  V30 1475 C 146.082 -0.228613 2.05633 0
M  V30 1476 C 146.497 -1.42676 1.23649 0
M  V30 1477 O 145.854 -1.80394 0.27647 0
M  V30 1478 C 145.905 -0.624845 3.56059 0
M  V30 1479 O 145.626 0.525675 4.34935 0
M  V30 1480 C 147.127 -1.27493 4.24571 0
M  V30 1481 H 144.347 -0.0407183 0.669763 0
M  V30 1482 H 146.891 0.520352 1.97769 0
M  V30 1483 H 145.046 -1.32373 3.64083 0
M  V30 1484 H 145.46 0.205969 5.24095 0
M  V30 1485 H 146.934 -1.50277 5.31151 0
M  V30 1486 H 147.411 -2.23439 3.78116 0
M  V30 1487 H 148.017 -0.617558 4.20792 0
M  V30 1488 N 146.332 -1.57332 0.0918853 0
M  V30 1489 C 147.578 -1.94524 -0.573425 0
M  V30 1490 C 147.911 -0.973578 -1.68033 0
M  V30 1491 O 147.186 -0.00609226 -1.94499 0
M  V30 1492 C 147.469 -3.41858 -1.13161 0
M  V30 1493 C 147.322 -4.4979 -0.0299747 0
M  V30 1494 C 148.641 -3.90435 -2.03098 0
M  V30 1495 H 145.76 -0.70734 -0.206975 0
M  V30 1496 H 148.402 -1.89309 0.161942 0
M  V30 1497 H 146.552 -3.46433 -1.7583 0
M  V30 1498 H 148.224 -4.57327 0.604112 0
M  V30 1499 H 146.467 -4.291 0.636833 0
M  V30 1500 H 147.138 -5.50069 -0.461287 0
M  V30 1501 H 149.614 -3.87992 -1.50338 0
M  V30 1502 H 148.49 -4.94097 -2.39081 0
M  V30 1503 H 148.751 -3.29541 -2.94712 0
M  V30 1504 N 147.81 0.181792 -1.56548 0
M  V30 1505 C 148.773 1.20894 -1.94724 0
M  V30 1506 C 149.773 1.37738 -0.829747 0
M  V30 1507 O 150.963 1.35323 -1.09697 0
M  V30 1508 C 148.095 2.57593 -2.23291 0
M  V30 1509 H 149.288 0.882275 -2.86629 0
M  V30 1510 H 146.841 0.423838 -1.50444 0
M  V30 1511 H 147.576 2.95291 -1.34067 0
M  V30 1512 H 147.361 2.46735 -3.04736 0
M  V30 1513 H 148.851 3.31637 -2.53785 0
M  V30 1514 N 149.288 1.51039 0.449983 0
M  V30 1515 C 150.699 1.557 1.03026 0
M  V30 1516 C 151.05 0.372939 1.92623 0
M  V30 1517 O 150.175 -0.511771 2.10261 0
M  V30 1518 C 150.77 2.82171 1.87523 0
M  V30 1519 C 149.329 2.89444 2.40622 0
M  V30 1520 C 148.476 2.50228 1.19504 0
M  V30 1521 H 151.427 1.56999 0.231745 0
M  V30 1522 H 151.448 2.65219 2.72835 0
M  V30 1523 H 150.96 3.68331 1.22286 0
M  V30 1524 H 149.061 2.07685 3.0935 0
M  V30 1525 H 149.174 3.92816 2.74285 0
M  V30 1526 H 147.538 2.03139 1.53644 0
M  V30 1527 H 148.321 3.38719 0.558972 0
M  V30 1528 N 150.766 -0.704594 1.40972 0
M  V30 1529 C 151.994 -1.49354 1.43182 0
M  V30 1530 C 152.409 -1.88768 0.0345508 0
M  V30 1531 O 151.766 -1.56184 -0.944081 0
M  V30 1532 C 151.817 -2.76187 2.33244 0
M  V30 1533 O 151.538 -2.38436 3.67532 0
M  V30 1534 C 153.039 -3.7 2.44162 0
M  V30 1535 H 150.259 -0.460559 0.487982 0
M  V30 1536 H 152.803 -0.868261 1.85153 0
M  V30 1537 H 150.958 -3.34974 1.94606 0
M  V30 1538 H 151.372 -3.20126 4.15475 0
M  V30 1539 H 152.846 -4.55803 3.11364 0
M  V30 1540 H 153.323 -4.13867 1.47006 0
M  V30 1541 H 153.929 -3.17121 2.83398 0
M  V30 1542 N 152.244 -1.26651 -0.937939 0
M  V30 1543 C 153.154 -1.10276 -2.07066 0
M  V30 1544 C 154.17 -0.0354197 -1.73964 0
M  V30 1545 O 155.346 -0.239816 -1.99967 0
M  V30 1546 C 152.411 -0.740887 -3.38691 0
M  V30 1547 C 151.472 -1.88799 -3.85556 0
M  V30 1548 C 150.705 -1.54329 -5.10899 0
M  V30 1549 O 150.928 -0.446494 -5.6865 0
M  V30 1550 O 149.862 -2.37911 -5.52885 0
M  V30 1551 H 153.688 -2.05309 -2.23789 0
M  V30 1552 H 151.273 -1.05743 -1.0554 0
M  V30 1553 H 153.155 -0.55195 -4.1777 0
M  V30 1554 H 151.83 0.180022 -3.23199 0
M  V30 1555 H 150.737 -2.13191 -3.07409 0
M  V30 1556 H 152.07 -2.78874 -4.05574 0
M  V30 1557 N 153.722 1.14298 -1.08507 0
M  V30 1558 C 154.962 1.87016 -0.824894 0
M  V30 1559 C 155.326 1.81099 0.637735 0
M  V30 1560 O 156.527 2.48963 1.01345 0
M  V30 1561 C 154.798 3.31584 -1.33368 0
M  V30 1562 S 156.357 4.21903 -1.20596 0
M  V30 1563 H 153.175 0.645259 -0.2986 0
M  V30 1564 H 155.777 1.37822 -1.38656 0
M  V30 1565 H 154.481 3.33439 -2.39262 0
M  V30 1566 H 154.012 3.85836 -0.767734 0
M  V30 1567 H 156.027 4.95971 -0.150891 0
M  V30 1568 N 155.201 0.870884 1.31352 0
M  V30 1569 C 156.426 0.495957 2.01383 0
M  V30 1570 C 156.851 -0.904324 1.64935 0
M  V30 1571 O 156.209 -1.59687 0.858466 0
M  V30 1572 C 156.257 0.661433 3.54482 0
M  V30 1573 O 155.361 -0.298851 4.11316 0
M  V30 1574 H 154.702 0.197158 0.634054 0
M  V30 1575 H 157.232 1.17455 1.67527 0
M  V30 1576 H 157.242 0.555072 4.04207 0
M  V30 1577 H 155.917 1.68246 3.8035 0
M  V30 1578 H 154.494 -0.147368 3.72609 0
M  V30 1579 O 156.718 -1.41941 0.770395 0
M  V30 1580 H 157.409 -1.908 0.333941 0
M  V30 END ATOM
M  V30 BEGIN BOND
M  V30 END BOND
M  V30 END CTAB
M  END
$$$$
