drugbank_target|P9WJI5 Arylamine N-acetyltransferase (DB00244)
 OpenBabel12092120533D

  0  0  0     0  0            999 V3000
M  V30 BEGIN CTAB
M  V30 COUNTS 4362 4412 0 0 0
M  V30 BEGIN ATOM
M  V30 1 H -0.908 1.98254 -0.117106 0
M  V30 2 N 0 1.576 0 0
M  V30 3 C 0.933 2.03868 1.02534 0
M  V30 4 C 1.911 0.928543 1.3348 0
M  V30 5 O 3.095 1.19667 1.45644 0
M  V30 6 C 0.222 2.43627 2.35294 0
M  V30 7 C -0.732 3.65373 2.2001 0
M  V30 8 S 0.101 5.13292 1.52614 0
M  V30 9 C 1.257 5.56322 2.86805 0
M  V30 10 H 1.49 2.90518 0.631377 0
M  V30 11 H -0.977 1.52953 0.210867 0
M  V30 12 H 0.981 2.67203 3.11629 0
M  V30 13 H -0.358 1.57376 2.7183 0
M  V30 14 H -1.165 3.90944 3.18086 0
M  V30 15 H -1.563 3.418 1.51819 0
M  V30 16 H 0.729 5.58782 3.83104 0
M  V30 17 H 1.672 6.56266 2.65933 0
M  V30 18 H 2.08 4.83886 2.90714 0
M  V30 19 N 1.4781 -0.272755 1.55222 0
M  V30 20 C 2.4411 -1.32041 1.87344 0
M  V30 21 C 3.4411 -1.42342 0.74803 0
M  V30 22 O 4.6311 -1.41488 1.0162 0
M  V30 23 C 1.7631 -2.70173 2.07893 0
M  V30 24 H 2.9561 -1.04789 2.80997 0
M  V30 25 H 0.5091 -0.51083 1.47717 0
M  V30 26 H 1.2441 -3.02605 1.16622 0
M  V30 27 H 1.0291 -2.64082 2.89833 0
M  V30 28 H 2.5191 -3.45869 2.34017 0
M  V30 29 N 2.9562 -1.48159 -0.537278 0
M  V30 30 C 3.8862 -1.65029 -1.6519 0
M  V30 31 C 4.8672 -0.499281 -1.62607 0
M  V30 32 O 6.0522 -0.730972 -1.79918 0
M  V30 33 C 3.1822 -1.68303 -3.03795 0
M  V30 34 C 2.1362 -2.8283 -3.21234 0
M  V30 35 C 1.4622 -2.71189 -4.60826 0
M  V30 36 C 2.7622 -4.24211 -3.04701 0
M  V30 37 H 4.4562 -2.58341 -1.51328 0
M  V30 38 H 2.0022 -1.24325 -0.726585 0
M  V30 39 H 3.9552 -1.78693 -3.81637 0
M  V30 40 H 2.6792 -0.715635 -3.18663 0
M  V30 41 H 1.3382 -2.71983 -2.45807 0
M  V30 42 H 0.9862 -1.72435 -4.7252 0
M  V30 43 H 0.6862 -3.48035 -4.7344 0
M  V30 44 H 2.2102 -2.83537 -5.40777 0
M  V30 45 H 3.6242 -4.3593 -3.72341 0
M  V30 46 H 2.0212 -5.01998 -3.28813 0
M  V30 47 H 3.0912 -4.41184 -2.01209 0
M  V30 48 N 4.4343 0.785586 -1.36625 0
M  V30 49 C 5.7113 1.53198 -1.21613 0
M  V30 50 C 6.0913 2.10187 0.196113 0
M  V30 51 O 5.4393 1.94318 1.20219 0
M  V30 52 C 5.6493 2.62388 -2.30116 0
M  V30 53 C 6.9973 3.30167 -2.66974 0
M  V30 54 O 8.0213 2.72674 -2.29188 0
M  V30 55 O 6.8803 4.34077 -3.32023 0
M  V30 56 H 3.9743 0.677865 -0.473738 0
M  V30 57 H 6.5203 0.823739 -1.48367 0
M  V30 58 H 5.2923 2.18299 -3.24748 0
M  V30 59 H 4.9153 3.40827 -2.0475 0
M  V30 60 N 5.9124 1.20967 1.01018 0
M  V30 61 C 6.8424 0.988272 2.11555 0
M  V30 62 C 7.8234 -0.0849778 1.69888 0
M  V30 63 O 9.0084 0.0738202 1.9406 0
M  V30 64 C 6.1384 0.546528 3.42973 0
M  V30 65 C 5.0924 1.56375 3.9841 0
M  V30 66 C 4.4184 0.97842 5.25672 0
M  V30 67 C 5.7184 2.94922 4.31066 0
M  V30 68 H 7.4124 1.91276 2.30334 0
M  V30 69 H 4.9584 0.921073 1.1069 0
M  V30 70 H 6.9114 0.378839 4.19694 0
M  V30 71 H 5.6354 -0.413598 3.23971 0
M  V30 72 H 4.2944 1.71891 3.23804 0
M  V30 73 H 3.9424 0.0101688 5.02999 0
M  V30 74 H 3.6424 1.65784 5.63728 0
M  V30 75 H 5.1664 0.821939 6.05043 0
M  V30 76 H 6.5804 2.8288 4.9865 0
M  V30 77 H 4.9774 3.5983 4.80253 0
M  V30 78 H 6.0474 3.4616 3.39561 0
M  V30 79 N 7.3905 -1.2043 1.01659 0
M  V30 80 C 8.6185 -1.93777 0.725132 0
M  V30 81 C 9.0335 -1.74772 -0.714166 0
M  V30 82 O 8.3905 -1.06169 -1.4844 0
M  V30 83 C 8.4415 -3.45876 1.05129 0
M  V30 84 O 8.1625 -3.6426 2.43406 0
M  V30 85 C 9.6635 -4.36368 0.780891 0
M  V30 86 H 6.8835 -0.615901 0.266284 0
M  V30 87 H 9.4275 -1.52922 1.35776 0
M  V30 88 H 7.5825 -3.8461 0.464065 0
M  V30 89 H 7.9965 -4.58246 2.55169 0
M  V30 90 H 9.4705 -5.41743 1.05918 0
M  V30 91 H 9.9475 -4.38275 -0.284937 0
M  V30 92 H 10.5535 -4.03296 1.35027 0
M  V30 93 N 8.8686 -0.792821 -1.36206 0
M  V30 94 C 9.8316 -0.199459 -2.2833 0
M  V30 95 C 10.8316 0.605189 -1.48977 0
M  V30 96 O 12.0216 0.425685 -1.68919 0
M  V30 97 C 9.1536 0.723523 -3.33134 0
M  V30 98 H 10.3466 -1.01181 -2.82316 0
M  V30 99 H 7.8996 -0.562485 -1.45828 0
M  V30 100 H 8.6346 1.56008 -2.84309 0
M  V30 101 H 8.4196 0.148436 -3.91819 0
M  V30 102 H 9.9096 1.13344 -4.01924 0
M  V30 103 N 10.3467 1.47872 -0.545128 0
M  V30 104 C 11.5767 2.06589 -0.0210534 0
M  V30 105 C 11.9847 1.39997 1.27269 0
M  V30 106 O 11.3277 0.486421 1.77143 0
M  V30 107 C 11.3897 3.58574 0.257933 0
M  V30 108 C 11.0537 4.47132 -0.944573 0
M  V30 109 C 12.0507 4.85986 -1.84699 0
M  V30 110 C 9.7357 4.88821 -1.15584 0
M  V30 111 C 11.7297 5.65314 -2.94446 0
M  V30 112 C 9.4167 5.67916 -2.25642 0
M  V30 113 C 10.4147 6.06073 -3.14905 0
M  V30 114 O 10.1027 6.83578 -4.23057 0
M  V30 115 H 9.8347 0.674971 -0.0372899 0
M  V30 116 H 12.3887 1.91037 -0.754599 0
M  V30 117 H 10.6187 3.72295 1.04564 0
M  V30 118 H 12.3077 3.99356 0.72592 0
M  V30 119 H 13.0737 4.54388 -1.69577 0
M  V30 120 H 8.9527 4.58595 -0.470279 0
M  V30 121 H 12.4967 5.95016 -3.64145 0
M  V30 122 H 8.3937 5.98927 -2.40742 0
M  V30 123 H 9.1617 7.01954 -4.20954 0
M  V30 124 N 11.8248 0.280983 1.55075 0
M  V30 125 C 13.0718 -0.334115 1.99725 0
M  V30 126 C 13.3998 -1.5542 1.1694 0
M  V30 127 O 12.6548 -1.94361 0.228531 0
M  V30 128 C 12.9538 -0.754656 3.49342 0
M  V30 129 C 12.6198 0.361445 4.49449 0
M  V30 130 C 11.2818 0.667893 4.76542 0
M  V30 131 C 13.6338 1.11322 5.09173 0
M  V30 132 C 10.9618 1.7296 5.60626 0
M  V30 133 C 13.3138 2.1647 5.9441 0
M  V30 134 C 11.9778 2.47742 6.19822 0
M  V30 135 H 11.2478 -0.122261 0.730844 0
M  V30 136 H 13.8948 0.395917 1.87363 0
M  V30 137 H 12.1998 -1.56446 3.5921 0
M  V30 138 H 13.8968 -1.24142 3.813 0
M  V30 139 H 10.4868 0.112481 4.28452 0
M  V30 140 H 14.6708 0.88973 4.8826 0
M  V30 141 H 9.9268 1.97684 5.78559 0
M  V30 142 H 14.1008 2.75193 6.3972 0
M  V30 143 H 11.7278 3.30145 6.84769 0
M  V30 144 N 13.3029 -1.57598 0.00835791 0
M  V30 145 C 14.5799 -1.82172 -0.712235 0
M  V30 146 C 14.9599 -0.887873 -1.9152 0
M  V30 147 O 14.3079 0.06146 -2.28417 0
M  V30 148 C 14.5179 -3.30875 -1.11008 0
M  V30 149 C 15.8659 -3.96826 -1.51044 0
M  V30 150 O 16.8899 -3.35248 -1.20364 0
M  V30 151 O 15.7489 -5.05318 -2.08125 0
M  V30 152 H 12.8429 -0.750435 -0.347529 0
M  V30 153 H 15.3889 -1.69665 0.0344523 0
M  V30 154 H 14.1609 -3.90481 -0.252982 0
M  V30 155 H 13.7839 -3.48412 -1.9156 0
M  V30 156 N 14.781 0.264519 -1.55364 0
M  V30 157 C 16.197 0.61215 -1.47394 0
M  V30 158 C 16.397 1.89134 -0.695018 0
M  V30 159 O 15.453 2.51563 -0.217275 0
M  V30 160 C 16.766 0.731235 -2.91674 0
M  V30 161 C 18.314 0.82473 -3.01939 0
M  V30 162 C 18.789 0.975522 -4.4749 0
M  V30 163 N 20.28 1.04083 -4.51354 0
M  V30 164 C 21.015 1.17646 -5.61201 0
M  V30 165 N 20.511 1.27874 -6.80896 0
M  V30 166 N 22.304 1.20823 -5.48961 0
M  V30 167 H 14.455 -0.575456 -2.04456 0
M  V30 168 H 16.718 -0.196099 -0.927496 0
M  V30 169 H 16.424 -0.138392 -3.51428 0
M  V30 170 H 16.298 1.60883 -3.41169 0
M  V30 171 H 18.685 1.68482 -2.42276 0
M  V30 172 H 18.766 -0.0776479 -2.55682 0
M  V30 173 H 18.41 0.120058 -5.07758 0
M  V30 174 H 18.34 1.89268 -4.91412 0
M  V30 175 H 20.831 0.973846 -3.65136 0
M  V30 176 H 21.144 1.38081 -7.60364 0
M  V30 177 H 19.489 1.24863 -6.83692 0
M  V30 178 H 22.68 1.12469 -4.54388 0
M  V30 179 H 22.853 1.31049 -6.3461 0
M  V30 180 N 16.2591 1.48442 0.529413 0
M  V30 181 C 17.5081 1.55742 1.28169 0
M  V30 182 C 17.8211 0.236511 1.94165 0
M  V30 183 O 19.0271 0.187761 2.7085 0
M  V30 184 C 17.4831 2.74667 2.32564 0
M  V30 185 C 17.0911 4.13402 1.72636 0
M  V30 186 C 18.8351 2.9128 3.08798 0
M  V30 187 C 16.7421 5.23587 2.74975 0
M  V30 188 H 15.6721 0.579796 0.48203 0
M  V30 189 H 18.3231 1.74776 0.559056 0
M  V30 190 H 16.7051 2.49067 3.07866 0
M  V30 191 H 17.8791 4.49022 1.03519 0
M  V30 192 H 16.1941 4.0191 1.08892 0
M  V30 193 H 18.7911 3.70767 3.85274 0
M  V30 194 H 19.1341 2.00757 3.64695 0
M  V30 195 H 19.6671 3.16782 2.40611 0
M  V30 196 H 16.4061 6.16076 2.23897 0
M  V30 197 H 15.9261 4.92454 3.42417 0
M  V30 198 H 17.6051 5.51724 3.37949 0
M  V30 199 N 17.7372 -0.778329 1.37039 0
M  V30 200 C 18.6852 -1.91278 1.32345 0
M  V30 201 C 19.6792 -1.68051 0.213331 0
M  V30 202 O 20.8852 -1.75922 0.38098 0
M  V30 203 H 17.2602 -0.628909 0.412283 0
M  V30 204 H 19.2312 -1.92355 2.28127 0
M  V30 205 C 17.9802 -3.28455 1.14073 0
M  V30 206 H 17.3032 -3.46901 1.98746 0
M  V30 207 H 18.7432 -4.08152 1.14837 0
M  V30 208 C 17.2022 -3.36548 -0.154015 0
M  V30 209 O 17.7322 -3.85186 -1.13993 0
M  V30 210 N 15.9382 -2.89894 -0.202475 0
M  V30 211 H 15.4852 -2.50504 0.600476 0
M  V30 212 H 15.4432 -2.9569 -1.06841 0
M  V30 213 N 19.2153 -1.21501 -1.00376 0
M  V30 214 C 20.4453 -1.05746 -1.77486 0
M  V30 215 C 20.8533 0.395655 -1.85017 0
M  V30 216 O 20.1963 1.28626 -1.31152 0
M  V30 217 C 20.2583 -1.58092 -3.22873 0
M  V30 218 C 19.9223 -3.06568 -3.38917 0
M  V30 219 C 20.9193 -4.04106 -3.271 0
M  V30 220 C 18.6043 -3.45799 -3.64319 0
M  V30 221 C 20.5983 -5.38862 -3.40451 0
M  V30 222 C 18.2853 -4.80707 -3.77311 0
M  V30 223 C 19.2833 -5.77047 -3.65384 0
M  V30 224 O 18.9713 -7.09507 -3.77961 0
M  V30 225 H 18.7033 -0.371778 -0.564586 0
M  V30 226 H 21.2573 -1.61319 -1.27143 0
M  V30 227 H 19.4873 -0.969163 -3.74358 0
M  V30 228 H 21.1763 -1.38162 -3.81662 0
M  V30 229 H 21.9423 -3.75141 -3.07399 0
M  V30 230 H 17.8213 -2.71344 -3.72684 0
M  V30 231 H 21.3653 -6.14041 -3.31058 0
M  V30 232 H 17.2623 -5.09357 -3.96517 0
M  V30 233 H 18.0303 -7.16935 -3.94901 0
M  V30 234 N 20.6934 1.19889 -1.02296 0
M  V30 235 C 22.1094 1.41462 -0.738954 0
M  V30 236 C 22.3094 1.89721 0.678846 0
M  V30 237 O 21.3654 2.07016 1.4457 0
M  V30 238 C 22.6784 2.43083 -1.77005 0
M  V30 239 C 24.2264 2.5684 -1.78892 0
M  V30 240 C 24.7014 3.61709 -2.80945 0
M  V30 241 N 26.1924 3.69199 -2.79725 0
M  V30 242 C 26.9274 4.50019 -3.55345 0
M  V30 243 N 26.4234 5.34592 -4.40662 0
M  V30 244 N 28.2164 4.44612 -3.43914 0
M  V30 245 H 20.3674 0.868827 -1.93817 0
M  V30 246 H 22.6304 0.44399 -0.837602 0
M  V30 247 H 22.3364 2.14636 -2.78612 0
M  V30 248 H 22.2104 3.4217 -1.58744 0
M  V30 249 H 24.5974 2.84614 -0.779674 0
M  V30 250 H 24.6784 1.57927 -2.01228 0
M  V30 251 H 24.3224 3.34678 -3.82038 0
M  V30 252 H 24.2524 4.60259 -2.5587 0
M  V30 253 H 26.7434 3.08794 -2.17842 0
M  V30 254 H 27.0564 5.93363 -4.95116 0
M  V30 255 H 25.4014 5.34073 -4.44737 0
M  V30 256 H 28.5924 3.7758 -2.76679 0
M  V30 257 H 28.7654 5.0736 -4.031 0
M  V30 258 N 22.1715 0.800033 1.35784 0
M  V30 259 C 23.4195 0.376597 1.9856 0
M  V30 260 C 23.7405 -1.05812 1.63795 0
M  V30 261 O 23.0105 -1.73103 0.917171 0
M  V30 262 H 21.5905 0.136261 0.734467 0
M  V30 263 H 24.2525 1.02442 1.65806 0
M  V30 264 H 23.3485 0.477002 3.08433 0
M  V30 265 N 23.6496 -1.47581 0.552962 0
M  V30 266 C 24.6126 -2.28439 -0.186605 0
M  V30 267 C 25.6126 -1.36706 -0.84665 0
M  V30 268 O 26.8026 -1.59378 -0.703164 0
M  V30 269 C 23.9346 -3.16264 -1.2724 0
M  V30 270 H 25.1276 -2.95294 0.523609 0
M  V30 271 H 22.6806 -1.532 0.309745 0
M  V30 272 H 23.4156 -2.54091 -2.01514 0
M  V30 273 H 23.2006 -3.83769 -0.803968 0
M  V30 274 H 24.6906 -3.77198 -1.79196 0
M  V30 275 N 25.1277 -0.289203 -1.54924 0
M  V30 276 C 26.3557 0.326463 -2.04308 0
M  V30 277 C 26.7707 1.48413 -1.16701 0
M  V30 278 O 26.1277 1.81507 -0.190087 0
M  V30 279 C 26.1787 0.794014 -3.52672 0
M  V30 280 O 25.8997 -0.317564 -4.36948 0
M  V30 281 C 27.4007 1.47605 -4.18004 0
M  V30 282 H 24.6207 0.0726272 -0.667058 0
M  V30 283 H 27.1647 -0.425401 -2.00026 0
M  V30 284 H 25.3197 1.49593 -3.57352 0
M  V30 285 H 25.7337 0.0443186 -5.24481 0
M  V30 286 H 27.2077 1.75447 -5.23376 0
M  V30 287 H 27.6847 2.41224 -3.67025 0
M  V30 288 H 28.2907 0.81762 -4.17367 0
M  V30 289 N 26.6058 1.57591 -0.0167156 0
M  V30 290 C 27.8828 1.82547 0.702564 0
M  V30 291 C 28.2628 0.898018 1.91047 0
M  V30 292 O 27.6108 -0.0493456 2.28447 0
M  V30 293 C 27.8208 3.31459 1.09251 0
M  V30 294 C 29.1688 3.97622 1.48937 0
M  V30 295 O 30.1928 3.35881 1.18584 0
M  V30 296 O 29.0518 5.06415 2.05442 0
M  V30 297 H 26.1458 0.752268 0.343544 0
M  V30 298 H 28.6918 1.69644 -0.0434495 0
M  V30 299 H 27.4638 3.9061 0.23227 0
M  V30 300 H 27.0868 3.49422 1.89709 0
M  V30 301 N 28.0839 -0.256276 1.55502 0
M  V30 302 C 29.4949 -0.826068 1.67431 0
M  V30 303 C 29.8459 -1.86396 0.612446 0
M  V30 304 O 28.9709 -2.15031 -0.243025 0
M  V30 305 C 29.5659 -1.50512 3.03532 0
M  V30 306 C 28.1249 -2.02273 3.17431 0
M  V30 307 C 27.2719 -0.870548 2.63281 0
M  V30 308 H 30.2229 -0.0322728 1.58667 0
M  V30 309 H 30.2439 -2.37279 2.97454 0
M  V30 310 H 29.7559 -0.749484 3.80794 0
M  V30 311 H 27.8569 -2.80746 2.44974 0
M  V30 312 H 27.9699 -2.22655 4.24219 0
M  V30 313 H 26.3339 -1.26851 2.20864 0
M  V30 314 H 27.1169 -0.128149 3.43061 0
M  V30 315 N 29.562 -1.4872 -0.521534 0
M  V30 316 C 30.79 -1.60843 -1.30142 0
M  V30 317 C 31.205 -0.271897 -1.86832 0
M  V30 318 O 30.562 0.739969 -1.66825 0
M  V30 319 C 30.613 -2.66155 -2.4463 0
M  V30 320 O 30.334 -3.94623 -1.90275 0
M  V30 321 C 31.835 -2.88795 -3.36322 0
M  V30 322 H 29.055 -0.542075 -0.395468 0
M  V30 323 H 31.599 -1.94609 -0.628285 0
M  V30 324 H 29.754 -2.35224 -3.07812 0
M  V30 325 H 30.168 -4.52468 -2.65279 0
M  V30 326 H 31.642 -3.66264 -4.12983 0
M  V30 327 H 32.119 -1.97934 -3.9207 0
M  V30 328 H 32.725 -3.21063 -2.78924 0
M  V30 329 N 31.0401 0.771051 -1.3745 0
M  V30 330 C 31.9701 1.89827 -1.3597 0
M  V30 331 C 32.9511 1.68562 -0.228216 0
M  V30 332 O 34.1361 1.8941 -0.428675 0
M  V30 333 C 31.2661 3.2712 -1.16662 0
M  V30 334 C 30.2201 3.6295 -2.2683 0
M  V30 335 C 29.5461 4.98791 -1.92644 0
M  V30 336 C 30.8461 3.69627 -3.69017 0
M  V30 337 H 32.5401 1.91323 -2.30295 0
M  V30 338 H 30.0861 0.919082 -1.10855 0
M  V30 339 H 32.0391 4.05615 -1.14256 0
M  V30 340 H 30.7631 3.26059 -0.187926 0
M  V30 341 H 29.4221 2.86763 -2.28392 0
M  V30 342 H 29.0701 4.94271 -0.933021 0
M  V30 343 H 28.7701 5.23733 -2.66416 0
M  V30 344 H 30.2941 5.79685 -1.91826 0
M  V30 345 H 31.7081 4.38273 -3.69581 0
M  V30 346 H 30.1051 4.06067 -4.41848 0
M  V30 347 H 31.1751 2.70273 -4.02592 0
M  V30 348 N 32.5182 1.22032 0.997298 0
M  V30 349 C 33.7952 0.950823 1.70935 0
M  V30 350 C 34.1752 -0.535292 2.042 0
M  V30 351 O 33.5232 -1.50217 1.72183 0
M  V30 352 C 33.7332 1.84386 2.96315 0
M  V30 353 C 35.0812 2.09732 3.69185 0
M  V30 354 O 36.1052 1.81798 3.06314 0
M  V30 355 O 34.9642 2.57018 4.82291 0
M  V30 356 H 32.0582 0.357204 0.745878 0
M  V30 357 H 34.6042 1.32997 1.05404 0
M  V30 358 H 33.3762 2.84928 2.68201 0
M  V30 359 H 32.9992 1.46602 3.69586 0
M  V30 360 N 33.9963 -1.19345 1.0293 0
M  V30 361 C 35.2423 -1.89318 0.727083 0
M  V30 362 C 35.5753 -1.79446 -0.742483 0
M  V30 363 O 34.8503 -1.1871 -1.54072 0
M  V30 364 C 35.1333 -3.40238 1.17942 0
M  V30 365 C 34.9863 -3.58979 2.71024 0
M  V30 366 C 36.3053 -4.33479 0.760548 0
M  V30 367 H 33.4243 -0.687475 0.265606 0
M  V30 368 H 36.0663 -1.40477 1.2793 0
M  V30 369 H 34.2163 -3.81964 0.709608 0
M  V30 370 H 35.8883 -3.26421 3.25955 0
M  V30 371 H 34.1313 -3.02018 3.11396 0
M  V30 372 H 34.8023 -4.64823 2.9773 0
M  V30 373 H 37.2783 -3.99469 1.16464 0
M  V30 374 H 36.1543 -5.37664 1.10493 0
M  V30 375 H 36.4153 -4.40813 -0.337063 0
M  V30 376 N 35.4744 -0.807222 -1.35358 0
M  V30 377 C 36.4044 -0.232509 -2.3234 0
M  V30 378 C 37.3854 0.642386 -1.57504 0
M  V30 379 O 38.5704 0.572526 -1.85569 0
M  V30 380 C 35.7004 0.619238 -3.41735 0
M  V30 381 C 34.6544 -0.157215 -4.27711 0
M  V30 382 C 33.9804 0.816273 -5.28433 0
M  V30 383 C 35.2804 -1.35656 -5.04376 0
M  V30 384 H 36.9744 -1.04276 -2.80654 0
M  V30 385 H 34.5204 -0.50288 -1.34934 0
M  V30 386 H 36.4734 1.03137 -4.08584 0
M  V30 387 H 35.1974 1.46239 -2.92031 0
M  V30 388 H 33.8564 -0.550525 -3.62443 0
M  V30 389 H 33.5044 1.65494 -4.74996 0
M  V30 390 H 33.2044 0.301067 -5.86828 0
M  V30 391 H 34.7284 1.22659 -5.98153 0
M  V30 392 H 36.1424 -1.01927 -5.64166 0
M  V30 393 H 34.5394 -1.8063 -5.7227 0
M  V30 394 H 35.6094 -2.14288 -4.34981 0
M  V30 395 N 36.9525 1.47285 -0.560781 0
M  V30 396 C 37.8845 2.28118 0.222438 0
M  V30 397 C 38.8975 1.37219 0.876056 0
M  V30 398 O 40.0865 1.62011 0.749307 0
M  V30 399 C 37.1865 3.1159 1.33285 0
M  V30 400 C 36.3595 4.30473 0.77534 0
M  V30 401 C 35.4185 4.95513 1.77069 0
M  V30 402 O 34.4445 5.53792 1.31539 0
M  V30 403 N 35.6465 4.90531 3.10418 0
M  V30 404 H 38.4115 2.95976 -0.470958 0
M  V30 405 H 35.9725 1.56955 -0.39709 0
M  V30 406 H 37.9645 3.51967 1.99752 0
M  V30 407 H 36.5345 2.45951 1.92943 0
M  V30 408 H 35.7545 3.94144 -0.0662113 0
M  V30 409 H 37.0425 5.07362 0.382272 0
M  V30 410 H 36.4405 4.44389 3.5005 0
M  V30 411 H 34.9975 5.34917 3.72434 0
M  V30 412 N 38.4306 0.297415 1.54768 0
M  V30 413 C 39.7076 -0.365847 1.92148 0
M  V30 414 C 40.0876 -1.71975 1.22424 0
M  V30 415 O 39.4356 -2.25666 0.358739 0
M  V30 416 C 39.6456 -0.484056 3.45627 0
M  V30 417 C 40.9936 -0.756594 4.17805 0
M  V30 418 O 42.0176 -0.568007 3.51642 0
M  V30 419 O 40.8766 -1.11863 5.34929 0
M  V30 420 H 37.9706 -0.203919 0.801465 0
M  V30 421 H 40.5166 0.34521 1.66152 0
M  V30 422 H 39.2886 0.467865 3.88493 0
M  V30 423 H 38.9116 -1.24372 3.77647 0
M  V30 424 N 39.9087 -1.5758 0.0250728 0
M  V30 425 C 40.8387 -2.13007 -0.956575 0
M  V30 426 C 41.8197 -1.0452 -1.342 0
M  V30 427 O 43.0047 -1.32332 -1.42133 0
M  V30 428 C 40.1347 -2.65386 -2.24026 0
M  V30 429 C 39.0887 -3.78623 -1.99571 0
M  V30 430 C 38.4147 -4.17414 -3.3417 0
M  V30 431 C 39.7147 -5.04867 -1.33814 0
M  V30 432 H 41.4087 -2.9528 -0.494991 0
M  V30 433 H 38.9547 -1.42042 -0.236651 0
M  V30 434 H 40.9077 -3.02794 -2.93076 0
M  V30 435 H 39.6317 -1.80268 -2.72343 0
M  V30 436 H 38.2907 -3.41646 -1.32941 0
M  V30 437 H 37.9387 -3.29284 -3.80238 0
M  V30 438 H 37.6387 -4.93719 -3.18615 0
M  V30 439 H 39.1627 -4.57402 -4.04495 0
M  V30 440 H 40.5767 -5.39888 -1.92857 0
M  V30 441 H 38.9737 -5.86144 -1.28669 0
M  V30 442 H 40.0437 -4.83904 -0.310561 0
M  V30 443 N 41.3868 0.248026 -1.55636 0
M  V30 444 C 42.6328 0.97767 -1.77678 0
M  V30 445 C 42.9658 1.85016 -0.590135 0
M  V30 446 O 42.2408 1.90095 0.411611 0
M  V30 447 C 42.5238 1.83914 -3.09593 0
M  V30 448 C 42.3768 0.99491 -4.38659 0
M  V30 449 C 43.6958 2.82183 -3.37729 0
M  V30 450 H 40.8148 0.354005 -0.646413 0
M  V30 451 H 43.4568 0.248253 -1.88371 0
M  V30 452 H 41.6068 2.46104 -3.00608 0
M  V30 453 H 43.2788 0.391789 -4.59633 0
M  V30 454 H 41.5218 0.299231 -4.32767 0
M  V30 455 H 42.1928 1.63145 -5.2734 0
M  V30 456 H 44.6688 2.30129 -3.4667 0
M  V30 457 H 43.5448 3.39582 -4.31249 0
M  V30 458 H 43.8058 3.58588 -2.58586 0
M  V30 459 N 42.8649 1.48995 0.513639 0
M  V30 460 C 44.0929 1.61531 1.29288 0
M  V30 461 C 44.5079 0.281801 1.86685 0
M  V30 462 O 43.8649 -0.731111 1.67215 0
M  V30 463 C 43.9159 2.67449 2.43215 0
M  V30 464 O 43.6369 3.95626 1.88179 0
M  V30 465 C 45.1379 2.90575 3.34785 0
M  V30 466 H 42.3579 0.544165 0.392588 0
M  V30 467 H 44.9019 1.9494 0.617956 0
M  V30 468 H 43.0569 2.36853 3.0656 0
M  V30 469 H 43.4709 4.53868 2.62876 0
M  V30 470 H 44.9449 3.68449 4.11035 0
M  V30 471 H 45.4219 2.00011 3.91015 0
M  V30 472 H 46.0279 3.22538 2.77218 0
M  V30 473 N 44.343 -0.763751 1.37857 0
M  V30 474 C 45.589 -1.52483 1.33704 0
M  V30 475 C 45.922 -1.94051 -0.0759612 0
M  V30 476 O 45.197 -1.64675 -1.03501 0
M  V30 477 C 45.48 -2.78441 2.28348 0
M  V30 478 C 45.333 -2.43075 3.78463 0
M  V30 479 C 46.652 -3.80415 2.21298 0
M  V30 480 H 43.771 -0.553169 0.487005 0
M  V30 481 H 46.413 -0.875562 1.68624 0
M  V30 482 H 44.563 -3.33842 1.987 0
M  V30 483 H 46.235 -1.93527 4.18742 0
M  V30 484 H 44.478 -1.75666 3.96641 0
M  V30 485 H 45.149 -3.33149 4.40132 0
M  V30 486 H 47.625 -3.34527 2.47449 0
M  V30 487 H 46.501 -4.66257 2.89647 0
M  V30 488 H 46.762 -4.25262 1.20849 0
M  V30 489 N 45.8211 -1.22559 -0.990812 0
M  V30 490 C 46.7711 -0.964807 -2.0658 0
M  V30 491 C 47.7551 0.0853472 -1.60673 0
M  V30 492 O 48.9471 -0.125443 -1.76555 0
M  V30 493 C 46.0761 -0.546707 -3.38919 0
M  V30 494 C 45.1621 -1.6317 -3.91454 0
M  V30 495 N 45.5531 -2.85985 -4.17189 0
M  V30 496 C 43.8511 -1.50387 -4.19881 0
M  V30 497 C 44.5521 -3.56159 -4.59919 0
M  V30 498 N 43.5281 -2.83637 -4.63736 0
M  V30 499 H 47.3301 -1.89769 -2.24421 0
M  V30 500 H 44.8441 -1.12343 -1.17273 0
M  V30 501 H 46.8411 -0.34119 -4.15502 0
M  V30 502 H 45.5011 0.379254 -3.22478 0
M  V30 503 H 46.5121 -3.22392 -4.05319 0
M  V30 504 H 43.1891 -0.644254 -4.12499 0
M  V30 505 H 44.5791 -4.6139 -4.88435 0
M  V30 506 N 47.2992 1.18797 -1.03562 0
M  V30 507 C 48.5242 1.9314 -0.755764 0
M  V30 508 C 48.9492 1.7537 0.68022 0
M  V30 509 O 48.3072 1.06046 1.47051 0
M  V30 510 C 48.3552 3.42747 -1.12058 0
M  V30 511 O 47.4592 4.11683 -0.243124 0
M  V30 512 H 46.8002 0.602724 -0.278604 0
M  V30 513 H 49.3302 1.50678 -1.3841 0
M  V30 514 H 49.3402 3.93437 -1.08035 0
M  V30 515 H 48.0152 3.55002 -2.16672 0
M  V30 516 H 46.5922 3.71323 -0.342539 0
M  V30 517 N 48.7773 0.814389 1.34928 0
M  V30 518 C 50.1933 0.499084 1.51596 0
M  V30 519 C 50.3933 -0.978319 1.76157 0
M  V30 520 O 49.4493 -1.76309 1.80752 0
M  V30 521 C 50.7623 1.35121 2.68631 0
M  V30 522 C 52.3103 1.34746 2.82511 0
M  V30 523 C 52.7853 2.18388 4.0258 0
M  V30 524 N 54.2763 2.15966 4.09772 0
M  V30 525 C 55.0113 2.77437 5.01813 0
M  V30 526 N 54.5073 3.47866 5.99134 0
M  V30 527 N 56.3003 2.67037 4.94619 0
M  V30 528 H 48.4513 1.7711 1.17243 0
M  V30 529 H 50.7143 0.754256 0.574284 0
M  V30 530 H 50.4203 2.40001 2.57085 0
M  V30 531 H 50.2943 1.00991 3.63429 0
M  V30 532 H 52.6813 0.30648 2.93504 0
M  V30 533 H 52.7623 1.72869 1.88547 0
M  V30 534 H 52.4063 3.2253 3.92347 0
M  V30 535 H 52.3363 1.77621 4.9574 0
M  V30 536 H 54.8273 1.64729 3.40107 0
M  V30 537 H 55.1403 3.92038 6.65977 0
M  V30 538 H 53.4853 3.51972 5.99284 0
M  V30 539 H 56.6763 2.11597 4.17546 0
M  V30 540 H 56.8493 3.15232 5.66156 0
M  V30 541 N 50.2554 -1.46986 0.568584 0
M  V30 542 C 51.4834 -2.0683 0.0539956 0
M  V30 543 C 51.8984 -1.41953 -1.24478 0
M  V30 544 O 51.2554 -0.519933 -1.74937 0
M  V30 545 C 51.3064 -3.61254 -0.133362 0
M  V30 546 O 51.0274 -4.237 1.11399 0
M  V30 547 C 52.5284 -4.37992 -0.683927 0
M  V30 548 H 49.7484 -0.669058 0.0510141 0
M  V30 549 H 52.2924 -1.88824 0.785234 0
M  V30 550 H 50.4474 -3.78735 -0.81477 0
M  V30 551 H 50.8614 -5.16388 0.91888 0
M  V30 552 H 52.3354 -5.46684 -0.764263 0
M  V30 553 H 52.8124 -4.05058 -1.69778 0
M  V30 554 H 53.4184 -4.25283 -0.0378494 0
M  V30 555 N 51.7335 -0.305618 -1.54608 0
M  V30 556 C 52.9825 0.303098 -1.9941 0
M  V30 557 C 53.2955 1.54648 -1.19764 0
M  V30 558 O 54.5015 2.23007 -1.54855 0
M  V30 559 C 52.9575 0.590588 -3.55021 0
M  V30 560 C 52.5655 -0.634719 -4.43481 0
M  V30 561 C 54.3095 1.16025 -4.08336 0
M  V30 562 C 52.2165 -0.320126 -5.90533 0
M  V30 563 H 51.1465 0.117031 -0.744862 0
M  V30 564 H 53.7975 -0.415045 -1.78745 0
M  V30 565 H 52.1795 1.36845 -3.71604 0
M  V30 566 H 53.3535 -1.41079 -4.38672 0
M  V30 567 H 51.6685 -1.12333 -4.00962 0
M  V30 568 H 54.2655 1.40994 -5.15776 0
M  V30 569 H 54.6085 2.10397 -3.5922 0
M  V30 570 H 55.1415 0.443985 -3.95315 0
M  V30 571 H 51.8805 -1.23254 -6.43808 0
M  V30 572 H 51.4005 0.418579 -5.98338 0
M  V30 573 H 53.0795 0.0766241 -6.46955 0
M  V30 574 N 53.2116 1.57565 -0.0334293 0
M  V30 575 C 54.6226 1.79746 0.504798 0
M  V30 576 C 54.9736 0.944091 1.71992 0
M  V30 577 O 54.0986 0.155694 2.15839 0
M  V30 578 C 54.6936 3.25997 0.922567 0
M  V30 579 C 53.2526 3.49159 1.40588 0
M  V30 580 C 52.3996 2.74785 0.372633 0
M  V30 581 H 55.3506 1.56565 -0.259436 0
M  V30 582 H 55.3716 3.35945 1.78666 0
M  V30 583 H 54.8836 3.88081 0.0379825 0
M  V30 584 H 52.9846 2.92332 2.31025 0
M  V30 585 H 53.0976 4.57873 1.41028 0
M  V30 586 H 51.4616 2.40391 0.841672 0
M  V30 587 H 52.2446 3.39587 -0.503559 0
M  V30 588 N 54.6897 -0.239769 1.55765 0
M  V30 589 C 55.9367 -0.966801 1.7793 0
M  V30 590 C 56.2647 -1.85046 0.599015 0
M  V30 591 O 55.5197 -1.91197 -0.417395 0
M  V30 592 C 55.8187 -1.852 3.05672 0
M  V30 593 C 55.4847 -1.1231 4.36689 0
M  V30 594 C 54.1467 -0.921689 4.72291 0
M  V30 595 C 56.4987 -0.607019 5.17653 0
M  V30 596 C 53.8267 -0.191996 5.86386 0
M  V30 597 C 56.1787 0.109241 6.32506 0
M  V30 598 C 54.8427 0.322073 6.66723 0
M  V30 599 H 54.1127 -0.353778 0.651093 0
M  V30 600 H 56.7597 -0.23634 1.90036 0
M  V30 601 H 55.0647 -2.64975 2.8861 0
M  V30 602 H 56.7617 -2.41635 3.20021 0
M  V30 603 H 53.3517 -1.29004 4.08725 0
M  V30 604 H 57.5357 -0.750153 4.90598 0
M  V30 605 H 52.7917 -0.0166949 6.11398 0
M  V30 606 H 56.9657 0.516737 6.9448 0
M  V30 607 H 54.5927 0.88944 7.54979 0
M  V30 608 N 56.1678 -1.49265 -0.50573 0
M  V30 609 C 57.0778 -1.68312 -1.63427 0
M  V30 610 C 58.0938 -0.565682 -1.64548 0
M  V30 611 O 59.2698 -0.839801 -1.83055 0
M  V30 612 C 56.3348 -1.74107 -2.99813 0
M  V30 613 C 55.3958 -2.97653 -3.09356 0
M  V30 614 C 54.6288 -3.03163 -4.39236 0
M  V30 615 O 54.8518 -2.16396 -5.27758 0
M  V30 616 O 53.7858 -3.9558 -4.53652 0
M  V30 617 H 57.6118 -2.63907 -1.50289 0
M  V30 618 H 55.1968 -1.32951 -0.681502 0
M  V30 619 H 57.0788 -1.803 -3.80881 0
M  V30 620 H 55.7538 -0.816901 -3.13223 0
M  V30 621 H 54.6608 -2.96981 -2.27493 0
M  V30 622 H 55.9938 -3.89535 -3.00871 0
M  V30 623 N 57.6459 0.756429 -1.3826 0
M  V30 624 C 58.5939 1.89149 -1.35372 0
M  V30 625 C 59.5879 1.67691 -0.24004 0
M  V30 626 O 60.7939 1.75294 -0.408919 0
M  V30 627 H 57.1689 0.622271 -0.422236 0
M  V30 628 H 59.1399 1.88701 -2.31159 0
M  V30 629 C 57.8889 3.26599 -1.19284 0
M  V30 630 H 57.2119 3.43695 -2.0424 0
M  V30 631 H 58.6519 4.06274 -1.21316 0
M  V30 632 C 57.1109 3.3675 0.100454 0
M  V30 633 O 57.6409 3.86951 1.07851 0
M  V30 634 N 55.8469 2.90179 0.15633 0
M  V30 635 H 55.3939 2.49517 -0.640253 0
M  V30 636 H 55.3519 2.97352 1.02123 0
M  V30 637 N 59.124 1.23083 0.984299 0
M  V30 638 C 60.054 1.03292 2.09411 0
M  V30 639 C 61.035 -0.048923 1.7003 0
M  V30 640 O 62.22 0.114967 1.93859 0
M  V30 641 C 59.35 0.619155 3.41736 0
M  V30 642 C 58.304 1.64791 3.95004 0
M  V30 643 C 57.63 1.0897 5.23478 0
M  V30 644 C 58.93 3.03999 4.24714 0
M  V30 645 H 60.624 1.96119 2.26225 0
M  V30 646 H 58.17 0.944344 1.08711 0
M  V30 647 H 60.123 0.467777 4.18796 0
M  V30 648 H 58.847 -0.344786 3.24775 0
M  V30 649 H 57.506 1.78721 3.20085 0
M  V30 650 H 57.154 0.11686 5.02864 0
M  V30 651 H 56.854 1.77704 5.60085 0
M  V30 652 H 58.378 0.950093 6.03163 0
M  V30 653 H 59.792 2.93393 4.92538 0
M  V30 654 H 58.189 3.69936 4.72512 0
M  V30 655 H 59.259 3.53285 3.32142 0
M  V30 656 N 60.6021 -1.18246 1.0419 0
M  V30 657 C 61.8791 -1.84121 0.660208 0
M  V30 658 C 62.2591 -1.92778 -0.860221 0
M  V30 659 O 61.6071 -1.45464 -1.76217 0
M  V30 660 C 61.8171 -3.22355 1.33747 0
M  V30 661 C 63.1651 -3.98376 1.46906 0
M  V30 662 O 64.1891 -3.31799 1.29568 0
M  V30 663 O 63.0481 -5.17665 1.75171 0
M  V30 664 H 60.1421 -0.794036 0.231161 0
M  V30 665 H 62.6881 -1.25628 1.14087 0
M  V30 666 H 61.4601 -3.10964 2.37522 0
M  V30 667 H 61.0831 -3.88506 0.845515 0
M  V30 668 N 62.0802 -0.821533 -1.34494 0
M  V30 669 C 63.4912 -0.467956 -1.8074 0
M  V30 670 C 63.8422 1.01151 -1.68116 0
M  V30 671 O 62.9672 1.78707 -1.22036 0
M  V30 672 C 63.5622 -0.842627 -3.28154 0
M  V30 673 C 62.1212 -0.541439 -3.72485 0
M  V30 674 C 61.2682 -1.06028 -2.56229 0
M  V30 675 H 64.2192 -1.01183 -1.22261 0
M  V30 676 H 64.2402 -0.145876 -3.8022 0
M  V30 677 H 63.7522 -1.91945 -3.37311 0
M  V30 678 H 61.8532 0.526034 -3.68868 0
M  V30 679 H 61.9662 -1.08453 -4.66663 0
M  V30 680 H 60.3302 -0.481892 -2.501 0
M  V30 681 H 61.1132 -2.14352 -2.68157 0
M  V30 682 N 63.5583 1.46682 -0.576371 0
M  V30 683 C 64.4883 2.33028 0.148397 0
M  V30 684 C 65.4693 1.44961 0.889956 0
M  V30 685 O 66.6543 1.73789 0.866662 0
M  V30 686 C 63.7843 3.27117 1.1667 0
M  V30 687 C 62.7383 4.24575 0.540386 0
M  V30 688 C 62.0643 5.08126 1.6647 0
M  V30 689 C 63.3643 5.19722 -0.518331 0
M  V30 690 H 65.0583 2.93875 -0.572509 0
M  V30 691 H 62.6043 1.41315 -0.276768 0
M  V30 692 H 64.5573 3.86374 1.68204 0
M  V30 693 H 63.2813 2.64364 1.9178 0
M  V30 694 H 61.9403 3.66571 0.0461769 0
M  V30 695 H 61.5883 4.41762 2.40531 0
M  V30 696 H 61.2883 5.74122 1.25131 0
M  V30 697 H 62.8123 5.70246 2.18293 0
M  V30 698 H 64.2263 5.73232 -0.0883058 0
M  V30 699 H 62.6233 5.94026 -0.851679 0
M  V30 700 H 63.6933 4.64037 -1.40703 0
M  V30 701 N 65.0364 0.313813 1.54444 0
M  V30 702 C 65.9664 -0.549454 2.26943 0
M  V30 703 C 66.9474 -1.12741 1.27372 0
M  V30 704 O 68.1324 -1.15436 1.56167 0
M  V30 705 C 65.2624 -1.71523 3.01989 0
M  V30 706 C 64.2164 -1.26703 4.08816 0
M  V30 707 C 63.5424 -2.51898 4.71647 0
M  V30 708 C 64.8424 -0.388962 5.2085 0
M  V30 709 H 66.5364 0.0552661 2.99349 0
M  V30 710 H 64.0824 0.0280207 1.43973 0
M  V30 711 H 66.0354 -2.32535 3.51433 0
M  V30 712 H 64.7594 -2.34639 2.27183 0
M  V30 713 H 63.4184 -0.679896 3.6024 0
M  V30 714 H 63.0664 -3.13356 3.93468 0
M  V30 715 H 62.7664 -2.22605 5.43802 0
M  V30 716 H 64.2904 -3.1369 5.23861 0
M  V30 717 H 65.7044 -0.905107 5.6611 0
M  V30 718 H 64.1014 -0.18924 5.99802 0
M  V30 719 H 65.1714 0.582699 4.81386 0
M  V30 720 N 66.5145 -1.57545 0.0417849 0
M  V30 721 C 67.7625 -1.91937 -0.632829 0
M  V30 722 C 68.0835 -0.919978 -1.71934 0
M  V30 723 O 67.3535 0.0366064 -1.95866 0
M  V30 724 H 65.9335 -0.708493 -0.236742 0
M  V30 725 H 68.5955 -1.9468 0.0925745 0
M  V30 726 H 67.6915 -2.92912 -1.07746 0
M  V30 727 N 67.9926 0.231505 -1.5589 0
M  V30 728 C 69.2386 0.95877 -1.78705 0
M  V30 729 C 69.5716 1.8438 -0.609725 0
M  V30 730 O 68.8466 1.90521 0.391426 0
M  V30 731 C 69.1296 1.8062 -3.11526 0
M  V30 732 C 68.9826 0.948328 -4.39689 0
M  V30 733 C 70.3016 2.78585 -3.40703 0
M  V30 734 H 67.4206 0.347129 -0.650131 0
M  V30 735 H 70.0626 0.228259 -1.88624 0
M  V30 736 H 68.2126 2.42902 -3.03201 0
M  V30 737 H 69.8846 0.343016 -4.60023 0
M  V30 738 H 68.1276 0.253314 -4.3306 0
M  V30 739 H 68.7986 1.57543 -5.29041 0
M  V30 740 H 71.2746 2.26439 -3.49091 0
M  V30 741 H 70.1506 3.34988 -4.34826 0
M  V30 742 H 70.4116 3.55825 -2.62375 0
M  V30 743 N 69.4707 1.49531 0.497807 0
M  V30 744 C 70.8817 1.52344 1.07927 0
M  V30 745 C 71.2327 0.311469 1.93712 0
M  V30 746 O 70.3577 -0.578405 2.08527 0
M  V30 747 C 70.9527 2.76062 1.96405 0
M  V30 748 C 69.5117 2.81643 2.49709 0
M  V30 749 C 68.6587 2.46299 1.27404 0
M  V30 750 H 71.6097 1.56182 0.281576 0
M  V30 751 H 71.6307 2.56405 2.81135 0
M  V30 752 H 71.1427 3.64254 1.33943 0
M  V30 753 H 69.2437 1.97739 3.15801 0
M  V30 754 H 69.3567 3.83891 2.86643 0
M  V30 755 H 67.7207 1.98148 1.60029 0
M  V30 756 H 68.5037 3.36769 0.66645 0
M  V30 757 N 70.9488 -0.749086 1.3866 0
M  V30 758 C 72.1948 -1.51056 1.35314 0
M  V30 759 C 72.5278 -1.94121 -0.0553751 0
M  V30 760 O 71.8028 -1.65763 -1.01749 0
M  V30 761 C 72.0858 -2.76003 2.31288 0
M  V30 762 C 71.9388 -2.39047 3.8102 0
M  V30 763 C 73.2578 -3.78046 2.2532 0
M  V30 764 H 70.3768 -0.547972 0.492844 0
M  V30 765 H 73.0188 -0.857628 1.69543 0
M  V30 766 H 71.1688 -3.31716 2.02229 0
M  V30 767 H 72.8408 -1.89074 4.20771 0
M  V30 768 H 71.0838 -1.71449 3.98482 0
M  V30 769 H 71.7548 -3.28462 4.4364 0
M  V30 770 H 74.2308 -3.31884 2.50983 0
M  V30 771 H 73.1068 -4.63159 2.94576 0
M  V30 772 H 73.3678 -4.23957 1.25352 0
M  V30 773 N 72.4269 -1.23603 -0.977757 0
M  V30 774 C 73.7039 -0.977897 -1.69401 0
M  V30 775 C 74.0839 0.502738 -2.05026 0
M  V30 776 O 73.4319 1.47459 -1.74551 0
M  V30 777 C 73.6419 -1.89077 -2.93345 0
M  V30 778 C 74.9899 -2.15579 -3.65802 0
M  V30 779 O 76.0139 -1.86648 -3.03383 0
M  V30 780 O 74.8729 -2.64658 -4.78141 0
M  V30 781 H 71.9669 -0.369025 -0.740101 0
M  V30 782 H 74.5129 -1.34657 -1.03274 0
M  V30 783 H 73.2849 -2.89158 -2.63634 0
M  V30 784 H 72.9079 -1.52463 -3.67207 0
M  V30 785 N 73.905 1.17692 -1.04816 0
M  V30 786 C 75.182 1.83768 -0.669963 0
M  V30 787 C 75.562 1.93232 0.849986 0
M  V30 788 O 74.91 1.46397 1.75443 0
M  V30 789 C 75.12 3.21641 -1.35455 0
M  V30 790 C 76.468 3.97592 -1.49017 0
M  V30 791 O 77.492 3.31107 -1.31326 0
M  V30 792 O 76.351 5.16729 -1.77914 0
M  V30 793 H 73.445 0.792799 -0.235368 0
M  V30 794 H 75.991 1.25021 -1.14751 0
M  V30 795 H 74.763 3.097 -2.39168 0
M  V30 796 H 74.386 3.88052 -0.866107 0
M  V30 797 N 75.3831 0.828654 1.34056 0
M  V30 798 C 76.3131 0.269443 2.3194 0
M  V30 799 C 77.2941 -0.617247 1.58506 0
M  V30 800 O 78.4791 -0.542931 1.86456 0
M  V30 801 C 75.6091 -0.564793 3.42677 0
M  V30 802 C 74.5631 0.225241 4.27407 0
M  V30 803 C 73.8891 -0.7321 5.29664 0
M  V30 804 C 75.1891 1.43663 5.02154 0
M  V30 805 H 76.8831 1.08728 2.7896 0
M  V30 806 H 74.4291 0.524283 1.34117 0
M  V30 807 H 76.3821 -0.966233 4.10173 0
M  V30 808 H 75.1061 -1.41574 2.9432 0
M  V30 809 H 73.7651 0.608117 3.61521 0
M  V30 810 H 73.4131 -1.57916 4.77568 0
M  V30 811 H 73.1131 -0.20767 5.87233 0
M  V30 812 H 74.6371 -1.13128 6.00029 0
M  V30 813 H 76.0511 1.1089 5.62473 0
M  V30 814 H 74.4481 1.89711 5.69324 0
M  V30 815 H 75.5181 2.21181 4.31517 0
M  V30 816 N 76.8612 -1.46375 0.584142 0
M  V30 817 C 78.0862 -2.07268 0.0740405 0
M  V30 818 C 78.5112 -1.42979 -1.22223 0
M  V30 819 O 77.8692 -0.514092 -1.73859 0
M  V30 820 C 77.9172 -3.60518 -0.0767769 0
M  V30 821 O 77.0212 -3.96533 -1.13292 0
M  V30 822 H 76.3622 -0.660961 0.0634524 0
M  V30 823 H 78.8922 -1.87991 0.807492 0
M  V30 824 H 78.9022 -4.07021 -0.282489 0
M  V30 825 H 77.5772 -4.06702 0.86986 0
M  V30 826 H 76.1542 -3.61738 -0.905553 0
M  V30 827 N 78.3393 -0.321999 -1.54275 0
M  V30 828 C 79.7503 0.166384 -1.85957 0
M  V30 829 C 80.1013 1.51747 -1.24367 0
M  V30 830 O 79.2263 2.09317 -0.549124 0
M  V30 831 C 79.8213 0.308681 -3.37391 0
M  V30 832 C 78.3803 0.741286 -3.69028 0
M  V30 833 C 77.5273 -0.137937 -2.76957 0
M  V30 834 H 80.4783 -0.542335 -1.49146 0
M  V30 835 H 80.4993 1.13984 -3.63026 0
M  V30 836 H 80.0113 -0.674809 -3.82188 0
M  V30 837 H 78.1123 1.73458 -3.29762 0
M  V30 838 H 78.2253 0.546118 -4.75977 0
M  V30 839 H 76.5893 0.386251 -2.51754 0
M  V30 840 H 77.3723 -1.11816 -3.2458 0
M  V30 841 N 79.8174 1.5752 -0.0501392 0
M  V30 842 C 80.7494 2.08413 0.95376 0
M  V30 843 C 81.7624 1.01175 1.27544 0
M  V30 844 O 82.9514 1.28744 1.23641 0
M  V30 845 C 80.0514 2.51138 2.27559 0
M  V30 846 C 79.2244 3.817 2.13598 0
M  V30 847 C 78.2834 4.10749 3.28895 0
M  V30 848 O 77.3094 4.80685 3.04845 0
M  V30 849 N 78.5114 3.62579 4.5334 0
M  V30 850 H 81.2764 2.95165 0.519383 0
M  V30 851 H 78.8374 1.61327 0.136127 0
M  V30 852 H 80.8294 2.67648 3.03557 0
M  V30 853 H 79.3994 1.6964 2.62567 0
M  V30 854 H 78.6194 3.74782 1.22197 0
M  V30 855 H 79.9074 4.67201 2.01496 0
M  V30 856 H 79.3054 3.06039 4.75769 0
M  V30 857 H 77.8624 3.84329 5.26436 0
M  V30 858 N 81.2955 -0.223234 1.56011 0
M  V30 859 C 82.2585 -1.26014 1.9145 0
M  V30 860 C 83.2585 -1.3989 0.792937 0
M  V30 861 O 84.4485 -1.38184 1.0607 0
M  V30 862 C 81.5805 -2.63422 2.16383 0
M  V30 863 H 82.7735 -0.95796 2.84189 0
M  V30 864 H 80.3265 -0.463576 1.49267 0
M  V30 865 H 81.0615 -2.98741 1.2619 0
M  V30 866 H 80.8465 -2.54728 2.98088 0
M  V30 867 H 82.3365 -3.38249 2.44903 0
M  V30 868 N 82.7736 -1.49793 -0.48987 0
M  V30 869 C 83.7036 -1.70201 -1.59856 0
M  V30 870 C 84.6846 -0.55076 -1.60937 0
M  V30 871 O 85.8696 -0.787841 -1.77501 0
M  V30 872 C 82.9996 -1.77882 -2.98287 0
M  V30 873 C 81.9536 -2.92907 -3.12073 0
M  V30 874 C 81.2796 -2.85712 -4.51965 0
M  V30 875 C 82.5796 -4.3369 -2.91051 0
M  V30 876 H 84.2736 -2.63025 -1.43032 0
M  V30 877 H 81.8196 -1.26574 -0.686664 0
M  V30 878 H 83.7726 -1.90744 -3.75759 0
M  V30 879 H 82.4966 -0.816653 -3.16225 0
M  V30 880 H 81.1556 -2.79665 -2.37029 0
M  V30 881 H 80.8036 -1.8738 -4.66795 0
M  V30 882 H 80.5036 -3.62921 -4.62128 0
M  V30 883 H 82.0276 -3.00598 -5.31482 0
M  V30 884 H 83.4416 -4.47555 -3.58284 0
M  V30 885 H 81.8386 -5.12205 -3.12675 0
M  V30 886 H 82.9086 -4.47362 -1.87071 0
M  V30 887 N 84.2517 0.741722 -1.39055 0
M  V30 888 C 85.2147 1.83733 -1.37021 0
M  V30 889 C 86.2147 1.58542 -0.268534 0
M  V30 890 O 87.4047 1.66067 -0.526076 0
M  V30 891 C 84.5367 3.2141 -1.13617 0
M  V30 892 H 85.7297 1.86941 -2.34506 0
M  V30 893 H 83.2827 0.944676 -1.24521 0
M  V30 894 H 84.0177 3.23865 -0.167863 0
M  V30 895 H 83.8027 3.4109 -1.93391 0
M  V30 896 H 85.2927 4.01477 -1.14918 0
M  V30 897 N 85.7298 1.2412 0.971189 0
M  V30 898 C 87.0068 0.986867 1.6888 0
M  V30 899 C 87.3868 -0.491857 2.0529 0
M  V30 900 O 86.7348 -1.46531 1.75331 0
M  V30 901 C 86.9448 1.9063 2.92338 0
M  V30 902 C 88.2928 2.17515 3.64654 0
M  V30 903 O 89.3168 1.88254 3.02388 0
M  V30 904 O 88.1758 2.6719 4.7673 0
M  V30 905 H 85.2698 0.372944 0.738134 0
M  V30 906 H 87.8158 1.35203 1.02559 0
M  V30 907 H 86.5878 2.90552 2.62097 0
M  V30 908 H 86.2108 1.54408 3.66393 0
M  V30 909 N 87.2079 -1.17134 1.05439 0
M  V30 910 C 88.1549 -2.21235 0.657539 0
M  V30 911 C 89.1249 -1.62551 -0.341543 0
M  V30 912 O 90.3099 -1.89379 -0.232393 0
M  V30 913 C 87.4499 -3.45076 0.0410575 0
M  V30 914 C 86.5629 -4.18042 1.08927 0
M  V30 915 C 85.6979 -5.29376 0.439848 0
M  V30 916 C 84.7369 -5.94132 1.4722 0
M  V30 917 N 83.8739 -6.96975 0.846756 0
M  V30 918 H 88.7139 -2.54534 1.54972 0
M  V30 919 H 86.2509 -1.25028 0.775006 0
M  V30 920 H 88.2089 -4.15862 -0.33383 0
M  V30 921 H 86.8389 -3.12353 -0.814568 0
M  V30 922 H 85.8909 -3.45945 1.58196 0
M  V30 923 H 87.2029 -4.62306 1.87282 0
M  V30 924 H 86.3569 -6.06699 0.0115125 0
M  V30 925 H 85.0959 -4.86251 -0.375656 0
M  V30 926 H 84.1009 -5.15538 1.91052 0
M  V30 927 H 85.3259 -6.39337 2.28965 0
M  V30 928 H 83.2719 -6.5598 0.0518075 0
M  V30 929 H 83.1889 -7.39565 1.5678 0
M  V30 930 H 84.4569 -7.78239 0.443277 0
M  V30 931 N 88.686 -0.835752 -1.33615 0
M  V30 932 C 89.616 -0.281739 -2.31794 0
M  V30 933 C 90.597 0.608833 -1.58831 0
M  V30 934 O 91.782 0.533035 -1.86741 0
M  V30 935 C 88.912 0.546612 -3.42971 0
M  V30 936 C 87.866 -0.247904 -4.27281 0
M  V30 937 C 87.192 0.704001 -5.30045 0
M  V30 938 C 88.492 -1.46324 -5.01385 0
M  V30 939 H 90.186 -1.10206 -2.78379 0
M  V30 940 H 87.732 -0.531388 -1.33837 0
M  V30 941 H 89.685 0.944467 -4.1068 0
M  V30 942 H 88.409 1.40011 -2.95067 0
M  V30 943 H 87.068 -0.627281 -3.61194 0
M  V30 944 H 86.716 1.55381 -4.78399 0
M  V30 945 H 86.416 0.176524 -5.87335 0
M  V30 946 H 87.94 1.09944 -6.0062 0
M  V30 947 H 89.354 -1.13871 -5.61877 0
M  V30 948 H 87.751 -1.92728 -5.6831 0
M  V30 949 H 88.821 -2.23467 -4.30338 0
M  V30 950 N 90.1641 1.46063 -0.591896 0
M  V30 951 C 91.4101 2.02638 -0.0811191 0
M  V30 952 C 91.7431 1.4613 1.27905 0
M  V30 953 O 91.0181 0.629908 1.84017 0
M  V30 954 C 91.3011 3.60091 -0.0252436 0
M  V30 955 C 91.1541 4.26965 -1.41496 0
M  V30 956 C 92.4731 4.3496 0.670685 0
M  V30 957 H 89.5921 0.73635 -0.0309524 0
M  V30 958 H 92.2341 1.741 -0.760859 0
M  V30 959 H 90.3841 3.84535 0.553624 0
M  V30 960 H 92.0561 4.13756 -2.0397 0
M  V30 961 H 90.2991 3.85971 -1.98011 0
M  V30 962 H 90.9701 5.35781 -1.32825 0
M  V30 963 H 93.4461 4.15716 0.178825 0
M  V30 964 H 92.3221 5.44686 0.678837 0
M  V30 965 H 92.5831 4.06685 1.73379 0
M  V30 966 N 91.6422 0.330177 1.54103 0
M  V30 967 C 92.5722 -0.525353 2.27513 0
M  V30 968 C 93.5532 -1.11383 1.2856 0
M  V30 969 O 94.7382 -1.13773 1.57383 0
M  V30 970 C 91.8682 -1.6831 3.03791 0
M  V30 971 C 90.8222 -1.2236 4.10137 0
M  V30 972 C 90.1482 -2.46882 4.74293 0
M  V30 973 C 91.4482 -0.333697 5.21233 0
M  V30 974 H 93.1422 0.087013 2.99274 0
M  V30 975 H 90.6882 0.0432893 1.43935 0
M  V30 976 H 92.6412 -2.28795 3.5388 0
M  V30 977 H 91.3652 -2.32216 2.29659 0
M  V30 978 H 90.0242 -0.64165 3.60941 0
M  V30 979 H 89.6722 -3.09165 3.96769 0
M  V30 980 H 89.3722 -2.16825 5.46133 0
M  V30 981 H 90.8962 -3.08117 5.27159 0
M  V30 982 H 92.3102 -0.845013 5.67038 0
M  V30 983 H 90.7072 -0.125612 5.99969 0
M  V30 984 H 91.7772 0.633724 4.80741 0
M  V30 985 N 93.1203 -1.57491 0.0584922 0
M  V30 986 C 94.5363 -1.56792 -0.298091 0
M  V30 987 C 94.7363 -1.06679 -1.70944 0
M  V30 988 O 93.7923 -0.726672 -2.41818 0
M  V30 989 C 95.1053 -3.00461 -0.119879 0
M  V30 990 C 96.6533 -3.1242 -0.190428 0
M  V30 991 C 97.1283 -4.57982 -0.0406567 0
M  V30 992 N 98.6193 -4.63099 -0.0966958 0
M  V30 993 C 99.3543 -5.734 -0.00502943 0
M  V30 994 N 98.8503 -6.9266 0.139402 0
M  V30 995 N 100.643 -5.62067 -0.0611391 0
M  V30 996 H 92.7943 -1.88386 0.98105 0
M  V30 997 H 95.0573 -0.867865 0.381463 0
M  V30 998 H 94.7633 -3.41187 0.85349 0
M  V30 999 H 94.6373 -3.66843 -0.877833 0
M  V30 1000 H 97.0243 -2.71589 -1.15427 0
M  V30 1001 H 97.1053 -2.48702 0.598405 0
M  V30 1002 H 96.7493 -4.995 0.919897 0
M  V30 1003 H 96.6793 -5.19715 -0.848727 0
M  V30 1004 H 99.1703 -3.77331 -0.207277 0
M  V30 1005 H 99.4833 -7.72536 0.201855 0
M  V30 1006 H 97.8283 -6.94781 0.174586 0
M  V30 1007 H 101.019 -4.67782 -0.172583 0
M  V30 1008 H 101.192 -6.47999 0.0137562 0
M  V30 1009 N 94.5984 0.214957 -1.56127 0
M  V30 1010 C 96.0144 0.564948 -1.49267 0
M  V30 1011 C 96.2144 1.86827 -0.754838 0
M  V30 1012 O 95.2704 2.50745 -0.297198 0
M  V30 1013 C 96.5834 0.638071 -2.93852 0
M  V30 1014 C 98.1314 0.728253 -3.0441 0
M  V30 1015 C 98.6064 0.832663 -4.50367 0
M  V30 1016 N 100.097 0.896712 -4.54437 0
M  V30 1017 C 100.832 0.997324 -5.6466 0
M  V30 1018 N 100.328 1.06147 -6.8462 0
M  V30 1019 N 102.121 1.03297 -5.52527 0
M  V30 1020 H 94.2724 -0.640211 -2.02522 0
M  V30 1021 H 96.5354 -0.225507 -0.920788 0
M  V30 1022 H 96.2414 -0.250126 -3.50809 0
M  V30 1023 H 96.1154 1.49947 -3.46115 0
M  V30 1024 H 98.5024 1.60689 -2.47514 0
M  V30 1025 H 98.5834 -0.158952 -2.55306 0
M  V30 1026 H 98.2274 -0.0415417 -5.07883 0
M  V30 1027 H 98.1574 1.73538 -4.97184 0
M  V30 1028 H 100.648 0.857188 -3.6805 0
M  V30 1029 H 100.961 1.1382 -7.64372 0
M  V30 1030 H 99.3064 1.03049 -6.87318 0
M  V30 1031 H 102.497 0.979558 -4.57736 0
M  V30 1032 H 102.67 1.10793 -6.38458 0
M  V30 1033 N 96.0765 1.50051 0.48192 0
M  V30 1034 C 97.4925 1.37237 0.814756 0
M  V30 1035 C 97.6925 0.420109 1.97072 0
M  V30 1036 O 96.7485 -0.141246 2.52105 0
M  V30 1037 C 98.0615 2.78375 1.13701 0
M  V30 1038 C 99.6095 2.87213 1.2441 0
M  V30 1039 C 100.084 4.29161 1.59954 0
M  V30 1040 N 101.575 4.32061 1.66967 0
M  V30 1041 C 102.31 5.38879 1.95952 0
M  V30 1042 N 101.806 6.55918 2.23031 0
M  V30 1043 N 103.599 5.26312 1.97363 0
M  V30 1044 H 95.7505 2.10546 -0.28005 0
M  V30 1045 H 98.0135 0.945921 -0.0627454 0
M  V30 1046 H 97.7195 3.49845 0.360787 0
M  V30 1047 H 97.5935 3.14941 2.07586 0
M  V30 1048 H 99.9805 2.15969 2.01101 0
M  V30 1049 H 100.061 2.54204 0.285299 0
M  V30 1050 H 99.7055 5.00938 0.838067 0
M  V30 1051 H 99.6355 4.59648 2.56966 0
M  V30 1052 H 102.126 3.47661 1.48123 0
M  V30 1053 H 102.439 7.33139 2.44391 0
M  V30 1054 H 100.784 6.59112 2.20447 0
M  V30 1055 H 103.975 4.33876 1.75697 0
M  V30 1056 H 104.148 6.09649 2.19618 0
M  V30 1057 N 97.5546 -0.734337 1.39446 0
M  V30 1058 C 98.8026 -1.49096 1.36436 0
M  V30 1059 C 99.1236 -1.94961 -0.0388255 0
M  V30 1060 O 98.3936 -1.69033 -0.990191 0
M  V30 1061 H 96.9736 -0.5531 0.502085 0
M  V30 1062 H 99.6356 -0.871725 1.74319 0
M  V30 1063 H 98.7316 -2.37276 2.02747 0
M  V30 1064 N 99.0327 -1.24633 -0.964593 0
M  V30 1065 C 100.281 -1.08573 -1.70459 0
M  V30 1066 C 100.602 0.375655 -1.91347 0
M  V30 1067 O 99.8717 1.26779 -1.49345 0
M  V30 1068 H 98.4517 -0.398784 -0.631649 0
M  V30 1069 H 101.114 -1.56601 -1.16026 0
M  V30 1070 H 100.21 -1.58623 -2.68785 0
M  V30 1071 N 100.511 1.16574 -1.06058 0
M  V30 1072 C 101.741 1.90675 -0.795397 0
M  V30 1073 C 102.149 1.77547 0.653735 0
M  V30 1074 O 101.492 1.11611 1.45907 0
M  V30 1075 C 101.554 3.42011 -1.10764 0
M  V30 1076 C 101.218 3.78924 -2.55471 0
M  V30 1077 C 102.215 3.81042 -3.53699 0
M  V30 1078 C 99.8998 4.09626 -2.90708 0
M  V30 1079 C 101.894 4.13346 -4.85205 0
M  V30 1080 C 99.5808 4.41597 -4.22416 0
M  V30 1081 C 100.579 4.43436 -5.19474 0
M  V30 1082 O 100.267 4.74649 -6.48817 0
M  V30 1083 H 99.9988 0.611554 -0.288058 0
M  V30 1084 H 102.553 1.48711 -1.41683 0
M  V30 1085 H 100.783 3.84312 -0.429128 0
M  V30 1086 H 102.472 3.97384 -0.827077 0
M  V30 1087 H 103.238 3.57437 -3.27817 0
M  V30 1088 H 99.1168 4.07361 -2.15819 0
M  V30 1089 H 102.661 4.14696 -5.60957 0
M  V30 1090 H 98.5578 4.64667 -4.48056 0
M  V30 1091 H 99.3258 4.9247 -6.5377 0
M  V30 1092 N 101.989 0.842826 1.3317 0
M  V30 1093 C 103.229 0.446574 1.99462 0
M  V30 1094 C 103.593 -0.976818 1.65295 0
M  V30 1095 O 104.794 -1.477 2.24584 0
M  V30 1096 C 103.065 0.665353 3.51152 0
M  V30 1097 S 104.624 0.364911 4.3728 0
M  V30 1098 H 101.442 0.167803 0.690915 0
M  V30 1099 H 104.044 1.09297 1.62094 0
M  V30 1100 H 102.748 1.7006 3.73507 0
M  V30 1101 H 102.279 0.00494568 3.934 0
M  V30 1102 H 104.294 -0.813761 4.89482 0
M  V30 1103 N 103.467 -1.45747 0.599634 0
M  V30 1104 C 104.714 -2.02292 0.0917284 0
M  V30 1105 C 105.042 -1.46906 -1.27472 0
M  V30 1106 O 104.297 -0.630652 -1.8526 0
M  V30 1107 C 104.596 -3.57399 -0.00602758 0
M  V30 1108 C 104.262 -4.31902 1.29503 0
M  V30 1109 C 102.924 -4.51974 1.65144 0
M  V30 1110 C 105.276 -4.74551 2.15525 0
M  V30 1111 C 102.604 -5.11949 2.86574 0
M  V30 1112 C 104.956 -5.35868 3.36196 0
M  V30 1113 C 103.62 -5.54165 3.72099 0
M  V30 1114 H 102.89 -0.740239 0.0335658 0
M  V30 1115 H 105.537 -1.7491 0.779661 0
M  V30 1116 H 103.842 -3.84014 -0.777183 0
M  V30 1117 H 105.539 -3.98846 -0.415038 0
M  V30 1118 H 102.129 -4.16588 1.00761 0
M  V30 1119 H 106.313 -4.58784 1.8929 0
M  V30 1120 H 101.569 -5.24305 3.14507 0
M  V30 1121 H 105.743 -5.6787 4.03109 0
M  V30 1122 H 103.37 -6.00406 4.6628 0
M  V30 1123 N 104.945 -0.338344 -1.53925 0
M  V30 1124 C 105.855 0.529421 -2.28548 0
M  V30 1125 C 106.871 1.11645 -1.3346 0
M  V30 1126 O 108.047 1.13325 -1.66492 0
M  V30 1127 C 105.112 1.66713 -3.03987 0
M  V30 1128 C 104.173 1.11041 -4.14691 0
M  V30 1129 C 103.406 2.19389 -4.86522 0
M  V30 1130 O 103.629 3.40013 -4.57982 0
M  V30 1131 O 102.563 1.83976 -5.73094 0
M  V30 1132 H 106.389 -0.0770399 -3.03602 0
M  V30 1133 H 103.974 -0.103555 -1.49041 0
M  V30 1134 H 105.856 2.32918 -3.5118 0
M  V30 1135 H 104.531 2.25949 -2.31794 0
M  V30 1136 H 103.438 0.413024 -3.71813 0
M  V30 1137 H 104.771 0.562975 -4.8897 0
M  V30 1138 N 106.423 1.57458 -0.0668435 0
M  V30 1139 C 107.373 2.0896 0.912119 0
M  V30 1140 C 108.357 0.998186 1.26195 0
M  V30 1141 O 109.549 1.26133 1.24175 0
M  V30 1142 C 106.678 2.6508 2.18145 0
M  V30 1143 C 105.764 3.81218 1.85832 0
M  V30 1144 N 106.155 4.90378 1.23948 0
M  V30 1145 C 104.453 3.9042 2.15612 0
M  V30 1146 C 105.154 5.71279 1.09616 0
M  V30 1147 N 104.13 5.19389 1.60423 0
M  V30 1148 H 107.932 2.90749 0.42924 0
M  V30 1149 H 105.446 1.6182 0.137184 0
M  V30 1150 H 107.443 3.0029 2.89192 0
M  V30 1151 H 106.103 1.84736 2.67025 0
M  V30 1152 H 107.114 5.09847 0.909731 0
M  V30 1153 H 103.791 3.21043 2.66903 0
M  V30 1154 H 105.181 6.69085 0.614425 0
M  V30 1155 N 107.901 -0.206675 1.56239 0
M  V30 1156 C 108.849 -1.27571 1.94495 0
M  V30 1157 C 109.843 -1.47737 0.828862 0
M  V30 1158 O 111.049 -1.48735 1.0138 0
M  V30 1159 H 107.424 -0.428029 0.6183 0
M  V30 1160 H 109.395 -0.925961 2.8367 0
M  V30 1161 C 108.144 -2.61568 2.29079 0
M  V30 1162 H 107.467 -2.46863 3.14482 0
M  V30 1163 H 108.907 -3.35144 2.5972 0
M  V30 1164 C 107.366 -3.17695 1.12123 0
M  V30 1165 O 107.896 -3.99801 0.390153 0
M  V30 1166 N 106.102 -2.76276 0.901097 0
M  V30 1167 H 105.649 -2.09613 1.49733 0
M  V30 1168 H 105.607 -3.1417 0.120319 0
M  V30 1169 N 109.379 -1.50304 -0.473955 0
M  V30 1170 C 110.627 -1.60832 -1.22382 0
M  V30 1171 C 110.948 -0.30939 -1.9253 0
M  V30 1172 O 110.218 0.67296 -1.83978 0
M  V30 1173 H 108.798 -0.592652 -0.454723 0
M  V30 1174 H 111.46 -1.87068 -0.546968 0
M  V30 1175 H 110.556 -2.41803 -1.97327 0
M  V30 1176 N 110.857 0.726932 -1.39834 0
M  V30 1177 C 111.787 1.85405 -1.41941 0
M  V30 1178 C 112.768 1.67751 -0.281728 0
M  V30 1179 O 113.953 1.8795 -0.488717 0
M  V30 1180 C 111.083 3.23243 -1.2701 0
M  V30 1181 C 110.037 3.55549 -2.38262 0
M  V30 1182 C 109.363 4.9241 -2.08415 0
M  V30 1183 C 110.663 3.577 -3.80589 0
M  V30 1184 H 112.357 1.83899 -2.36266 0
M  V30 1185 H 109.903 0.883349 -1.13723 0
M  V30 1186 H 111.856 4.01775 -1.27103 0
M  V30 1187 H 110.58 3.25296 -0.291564 0
M  V30 1188 H 109.239 2.79351 -2.37399 0
M  V30 1189 H 108.887 4.91052 -1.0898 0
M  V30 1190 H 108.587 5.14992 -2.82943 0
M  V30 1191 H 110.111 5.73289 -2.10171 0
M  V30 1192 H 111.525 4.26293 -3.83337 0
M  V30 1193 H 109.922 3.91804 -4.54543 0
M  V30 1194 H 110.992 2.57328 -4.10987 0
M  V30 1195 N 112.336 1.25143 0.95797 0
M  V30 1196 C 113.269 0.995565 2.05338 0
M  V30 1197 C 114.247 -0.0740423 1.62431 0
M  V30 1198 O 115.431 0.0649212 1.88388 0
M  V30 1199 C 112.558 0.504298 3.34925 0
M  V30 1200 C 111.604 1.56393 3.96792 0
M  V30 1201 S 112.437 3.14815 4.33188 0
M  V30 1202 C 113.593 2.67415 5.65898 0
M  V30 1203 H 113.826 1.92309 2.26726 0
M  V30 1204 H 111.359 1.08635 1.09716 0
M  V30 1205 H 113.317 0.227497 4.09869 0
M  V30 1206 H 111.978 -0.402671 3.11508 0
M  V30 1207 H 111.171 1.17082 4.90212 0
M  V30 1208 H 110.773 1.79124 3.28315 0
M  V30 1209 H 113.065 2.10833 6.4386 0
M  V30 1210 H 114.008 3.59463 6.10076 0
M  V30 1211 H 114.416 2.07521 5.24972 0
M  V30 1212 N 113.814 -1.1601 1.06675 0
M  V30 1213 C 115.062 -1.86264 0.784229 0
M  V30 1214 C 115.383 -1.82328 -0.691488 0
M  V30 1215 O 114.653 -1.25947 -1.50047 0
M  V30 1216 H 113.233 -0.689621 0.28711 0
M  V30 1217 H 115.895 -1.40664 1.34906 0
M  V30 1218 H 114.991 -2.91595 1.11259 0
M  V30 1219 N 115.292 -0.849877 -1.32721 0
M  V30 1220 C 116.522 -0.46408 -2.0132 0
M  V30 1221 C 116.93 0.94246 -1.64056 0
M  V30 1222 O 116.273 1.6257 -0.855379 0
M  V30 1223 C 116.335 -0.517887 -3.5575 0
M  V30 1224 C 115.999 -1.88248 -4.16427 0
M  V30 1225 C 116.996 -2.84726 -4.35002 0
M  V30 1226 C 114.681 -2.17832 -4.52609 0
M  V30 1227 C 116.675 -4.08945 -4.8892 0
M  V30 1228 C 114.362 -3.42304 -5.06232 0
M  V30 1229 C 115.36 -4.37677 -5.24335 0
M  V30 1230 O 115.048 -5.59946 -5.76815 0
M  V30 1231 H 114.78 -0.181327 -0.651227 0
M  V30 1232 H 117.334 -1.14713 -1.70382 0
M  V30 1233 H 115.564 0.221997 -3.86062 0
M  V30 1234 H 117.253 -0.148366 -4.05629 0
M  V30 1235 H 118.019 -2.63174 -4.07388 0
M  V30 1236 H 113.898 -1.44385 -4.37806 0
M  V30 1237 H 117.442 -4.83396 -5.02966 0
M  V30 1238 H 113.339 -3.63709 -5.33278 0
M  V30 1239 H 114.107 -5.61838 -5.95214 0
M  V30 1240 N 116.77 1.45427 -0.607355 0
M  V30 1241 C 118.016 2.0254 -0.102607 0
M  V30 1242 C 118.349 1.47478 1.26348 0
M  V30 1243 O 117.624 0.64939 1.83339 0
M  V30 1244 C 117.907 3.60044 -0.0634347 0
M  V30 1245 C 117.76 4.2544 -1.46017 0
M  V30 1246 C 119.079 4.35646 0.624514 0
M  V30 1247 H 116.198 0.73598 -0.0387607 0
M  V30 1248 H 118.84 1.73284 -0.779282 0
M  V30 1249 H 116.99 3.85101 0.512808 0
M  V30 1250 H 118.662 4.11569 -2.08347 0
M  V30 1251 H 116.905 3.83849 -2.02094 0
M  V30 1252 H 117.576 5.34342 -1.385 0
M  V30 1253 H 120.052 4.15882 0.134723 0
M  V30 1254 H 118.928 5.45376 0.621028 0
M  V30 1255 H 119.189 4.08501 1.69055 0
M  V30 1256 N 118.248 0.346503 1.53744 0
M  V30 1257 C 119.178 -0.501193 2.28058 0
M  V30 1258 C 120.159 -1.10014 1.29734 0
M  V30 1259 O 121.344 -1.12097 1.58581 0
M  V30 1260 C 118.474 -1.65078 3.05559 0
M  V30 1261 C 117.428 -1.18003 4.11411 0
M  V30 1262 C 116.754 -2.41837 4.76884 0
M  V30 1263 C 118.054 -0.278394 5.21558 0
M  V30 1264 H 119.748 0.11875 2.99164 0
M  V30 1265 H 117.294 0.0585531 1.43881 0
M  V30 1266 H 119.247 -2.25028 3.56287 0
M  V30 1267 H 117.971 -2.29767 2.32109 0
M  V30 1268 H 116.63 -0.603331 3.61601 0
M  V30 1269 H 116.278 -3.0494 4.00026 0
M  V30 1270 H 115.978 -2.1102 5.48402 0
M  V30 1271 H 117.502 -3.02508 5.30397 0
M  V30 1272 H 118.916 -0.784823 5.67903 0
M  V30 1273 H 117.313 -0.0619707 6.00068 0
M  V30 1274 H 118.383 0.684677 4.80042 0
M  V30 1275 N 119.726 -1.57421 0.075193 0
M  V30 1276 C 120.689 -2.11791 -0.876203 0
M  V30 1277 C 121.689 -1.04268 -1.22412 0
M  V30 1278 O 122.879 -1.30242 -1.15684 0
M  V30 1279 C 120.011 -2.62207 -2.17854 0
M  V30 1280 H 121.204 -2.9716 -0.40444 0
M  V30 1281 H 118.757 -1.55333 -0.173557 0
M  V30 1282 H 119.492 -1.803 -2.6956 0
M  V30 1283 H 119.277 -3.40802 -1.93897 0
M  V30 1284 H 120.767 -3.04335 -2.85955 0
M  V30 1285 N 121.204 0.198386 -1.56346 0
M  V30 1286 C 122.114 1.2664 -1.97483 0
M  V30 1287 C 123.13 1.49989 -0.882002 0
M  V30 1288 O 124.306 1.62668 -1.18748 0
M  V30 1289 C 121.371 2.59141 -2.30319 0
M  V30 1290 C 120.432 2.43892 -3.53292 0
M  V30 1291 C 119.665 3.70074 -3.84553 0
M  V30 1292 O 119.888 4.74101 -3.1715 0
M  V30 1293 O 118.822 3.658 -4.7799 0
M  V30 1294 H 122.648 0.947304 -2.88548 0
M  V30 1295 H 120.233 0.403123 -1.43859 0
M  V30 1296 H 122.115 3.37352 -2.5253 0
M  V30 1297 H 120.79 2.90684 -1.42423 0
M  V30 1298 H 119.697 1.63803 -3.36332 0
M  V30 1299 H 121.03 2.17282 -4.41644 0
M  V30 1300 N 122.682 1.50554 0.465978 0
M  V30 1301 C 123.612 1.72722 1.57128 0
M  V30 1302 C 124.593 0.576294 1.6004 0
M  V30 1303 O 125.778 0.81598 1.76225 0
M  V30 1304 C 122.908 1.82605 2.95419 0
M  V30 1305 C 121.862 2.97835 3.07373 0
M  V30 1306 C 121.188 2.92867 4.47363 0
M  V30 1307 C 122.488 4.38265 2.84114 0
M  V30 1308 H 124.182 2.65267 1.38829 0
M  V30 1309 H 121.728 1.2765 0.666441 0
M  V30 1310 H 123.681 1.96698 3.72677 0
M  V30 1311 H 122.405 0.866858 3.14886 0
M  V30 1312 H 121.064 2.83401 2.3255 0
M  V30 1313 H 120.712 1.94783 4.63755 0
M  V30 1314 H 120.412 3.70227 4.56296 0
M  V30 1315 H 121.936 3.09015 5.26633 0
M  V30 1316 H 123.35 4.53198 3.51118 0
M  V30 1317 H 121.747 5.17115 3.04487 0
M  V30 1318 H 122.817 4.50281 1.7993 0
M  V30 1319 N 124.16 -0.719506 1.40217 0
M  V30 1320 C 125.408 -1.47641 1.3801 0
M  V30 1321 C 125.729 -1.94992 -0.018145 0
M  V30 1322 O 124.999 -1.70073 -0.972207 0
M  V30 1323 H 123.579 -0.547744 0.507923 0
M  V30 1324 H 126.241 -0.853187 1.75233 0
M  V30 1325 H 125.337 -2.35112 2.05253 0
M  V30 1326 N 125.638 -1.25649 -0.95132 0
M  V30 1327 C 126.868 -1.13179 -1.72841 0
M  V30 1328 C 127.276 0.316827 -1.86528 0
M  V30 1329 O 126.619 1.22948 -1.3649 0
M  V30 1330 C 126.681 -1.71644 -3.15878 0
M  V30 1331 C 126.345 -3.20667 -3.25609 0
M  V30 1332 C 127.342 -4.17616 -3.09666 0
M  V30 1333 C 125.027 -3.6094 -3.49324 0
M  V30 1334 C 127.021 -5.52817 -3.17289 0
M  V30 1335 C 124.708 -4.96278 -3.56584 0
M  V30 1336 C 125.706 -5.92025 -3.40581 0
M  V30 1337 O 125.394 -7.24899 -3.47528 0
M  V30 1338 H 125.126 -0.395389 -0.54831 0
M  V30 1339 H 127.68 -1.66566 -1.20187 0
M  V30 1340 H 125.91 -1.12707 -3.69911 0
M  V30 1341 H 127.599 -1.54225 -3.75459 0
M  V30 1342 H 128.365 -3.87842 -2.91211 0
M  V30 1343 H 124.244 -2.86907 -3.6084 0
M  V30 1344 H 127.788 -6.2753 -3.04716 0
M  V30 1345 H 123.685 -5.25716 -3.74556 0
M  V30 1346 H 124.453 -7.33039 -3.64138 0
M  V30 1347 N 127.117 1.15442 -1.07289 0
M  V30 1348 C 128.533 1.38201 -0.798288 0
M  V30 1349 C 128.733 1.92429 0.597769 0
M  V30 1350 O 127.789 2.12962 1.3566 0
M  V30 1351 C 129.102 2.35357 -1.87156 0
M  V30 1352 C 130.65 2.49021 -1.89624 0
M  V30 1353 C 131.125 3.49468 -2.96034 0
M  V30 1354 N 132.616 3.57003 -2.95132 0
M  V30 1355 C 133.351 4.34543 -3.74112 0
M  V30 1356 N 132.847 5.15421 -4.6294 0
M  V30 1357 N 134.64 4.29625 -3.62462 0
M  V30 1358 H 126.791 0.78584 -1.97328 0
M  V30 1359 H 129.054 0.408065 -0.855679 0
M  V30 1360 H 128.76 2.02626 -2.87464 0
M  V30 1361 H 128.634 3.35129 -1.73114 0
M  V30 1362 H 131.021 2.81051 -0.899687 0
M  V30 1363 H 131.102 1.4925 -2.07745 0
M  V30 1364 H 130.746 3.18173 -3.95889 0
M  V30 1365 H 130.676 4.48992 -2.75161 0
M  V30 1366 H 133.167 2.99276 -2.30743 0
M  V30 1367 H 133.48 5.7183 -5.19837 0
M  V30 1368 H 131.825 5.14729 -4.66989 0
M  V30 1369 H 135.016 3.65505 -2.92444 0
M  V30 1370 H 135.189 4.89807 -4.24256 0
M  V30 1371 N 128.595 0.856903 1.32268 0
M  V30 1372 C 129.841 0.462069 1.97466 0
M  V30 1373 C 130.174 -0.980298 1.67642 0
M  V30 1374 O 129.449 -1.68824 0.965858 0
M  V30 1375 C 129.732 0.704336 3.53145 0
M  V30 1376 C 129.585 2.19529 3.9259 0
M  V30 1377 C 130.904 0.1622 4.39801 0
M  V30 1378 H 128.023 0.169357 0.717278 0
M  V30 1379 H 130.665 1.07574 1.56614 0
M  V30 1380 H 128.815 0.181999 3.88073 0
M  V30 1381 H 130.487 2.78387 3.67829 0
M  V30 1382 H 128.73 2.67292 3.41668 0
M  V30 1383 H 129.401 2.31549 5.01088 0
M  V30 1384 H 131.877 0.608905 4.11621 0
M  V30 1385 H 130.753 0.361265 5.4771 0
M  V30 1386 H 131.014 -0.935158 4.32096 0
M  V30 1387 N 130.073 -1.45103 0.615059 0
M  V30 1388 C 131.489 -1.57137 0.279322 0
M  V30 1389 C 131.689 -1.60523 -1.21797 0
M  V30 1390 O 130.745 -1.53956 -2.00134 0
M  V30 1391 C 132.058 -2.85062 0.957083 0
M  V30 1392 C 133.606 -2.98749 0.933706 0
M  V30 1393 C 134.081 -4.29455 1.59162 0
M  V30 1394 N 135.572 -4.36231 1.55746 0
M  V30 1395 C 136.307 -5.36051 2.0356 0
M  V30 1396 N 135.803 -6.42367 2.59494 0
M  V30 1397 N 137.596 -5.27456 1.94284 0
M  V30 1398 H 129.747 -1.41148 1.58717 0
M  V30 1399 H 132.01 -0.675331 0.665306 0
M  V30 1400 H 131.716 -2.88488 2.01166 0
M  V30 1401 H 131.59 -3.7407 0.48494 0
M  V30 1402 H 133.977 -2.94886 -0.112347 0
M  V30 1403 H 134.058 -2.11132 1.44419 0
M  V30 1404 H 133.702 -4.34077 2.63704 0
M  V30 1405 H 133.632 -5.15901 1.0561 0
M  V30 1406 H 136.123 -3.60011 1.14893 0
M  V30 1407 H 136.436 -7.14793 2.93752 0
M  V30 1408 H 134.781 -6.43097 2.63537 0
M  V30 1409 H 137.972 -4.43308 1.5032 0
M  V30 1410 H 138.145 -6.05099 2.3186 0
M  V30 1411 N 131.551 -0.354651 -1.53558 0
M  V30 1412 C 132.967 -0.00315426 -1.596 0
M  V30 1413 C 133.167 1.47741 -1.37021 0
M  V30 1414 O 132.223 2.23759 -1.16996 0
M  V30 1415 C 133.536 -0.44929 -2.97325 0
M  V30 1416 C 135.084 -0.402578 -3.104 0
M  V30 1417 C 135.559 -0.824355 -4.5052 0
M  V30 1418 N 137.05 -0.778979 -4.56603 0
M  V30 1419 C 137.785 -1.07715 -5.63192 0
M  V30 1420 N 137.281 -1.44405 -6.77583 0
M  V30 1421 N 139.074 -1.00066 -5.53121 0
M  V30 1422 H 131.225 -1.31893 -1.66487 0
M  V30 1423 H 133.488 -0.538388 -0.780284 0
M  V30 1424 H 133.194 -1.48202 -3.1895 0
M  V30 1425 H 133.068 0.169772 -3.76818 0
M  V30 1426 H 135.455 0.621004 -2.88492 0
M  V30 1427 H 135.536 -1.05699 -2.32941 0
M  V30 1428 H 135.18 -1.846 -4.73165 0
M  V30 1429 H 135.11 -0.147304 -5.26394 0
M  V30 1430 H 137.601 -0.508528 -3.74463 0
M  V30 1431 H 137.914 -1.65612 -7.54846 0
M  V30 1432 H 136.259 -1.4826 -6.79002 0
M  V30 1433 H 139.45 -0.713293 -4.62633 0
M  V30 1434 H 139.623 -1.23638 -6.36096 0
M  V30 1435 N 133.029 1.57378 -0.0835403 0
M  V30 1436 C 134.276 1.9393 0.58287 0
M  V30 1437 C 134.604 0.964455 1.68904 0
M  V30 1438 O 133.859 -0.0179474 1.95692 0
M  V30 1439 C 134.158 3.37063 1.1884 0
M  V30 1440 C 133.824 4.50424 0.207194 0
M  V30 1441 C 132.486 4.81159 -0.0627115 0
M  V30 1442 C 134.838 5.19136 -0.463426 0
M  V30 1443 C 132.166 5.77939 -1.01012 0
M  V30 1444 C 134.518 6.16931 -1.39924 0
M  V30 1445 C 133.182 6.46078 -1.67749 0
M  V30 1446 H 132.452 0.70964 0.213287 0
M  V30 1447 H 135.099 1.90856 -0.156916 0
M  V30 1448 H 133.404 3.3666 2.00418 0
M  V30 1449 H 135.101 3.6264 1.71153 0
M  V30 1450 H 131.691 4.2646 0.427747 0
M  V30 1451 H 135.875 4.95576 -0.268034 0
M  V30 1452 H 131.131 5.98842 -1.23283 0
M  V30 1453 H 135.305 6.69273 -1.92476 0
M  V30 1454 H 132.932 7.2088 -2.41321 0
M  V30 1455 N 134.507 -0.190092 1.56449 0
M  V30 1456 C 135.47 -1.21925 1.9408 0
M  V30 1457 C 136.47 -1.38176 0.822431 0
M  V30 1458 O 137.66 -1.35903 1.08977 0
M  V30 1459 C 134.792 -2.58773 2.21922 0
M  V30 1460 H 135.985 -0.897464 2.86157 0
M  V30 1461 H 133.538 -0.43181 1.50217 0
M  V30 1462 H 134.273 -2.95998 1.32499 0
M  V30 1463 H 134.058 -2.48348 3.03424 0
M  V30 1464 H 135.548 -3.32978 2.52022 0
M  V30 1465 N 135.985 -1.50799 -0.457987 0
M  V30 1466 C 136.948 -1.7005 -1.53674 0
M  V30 1467 C 137.948 -0.570881 -1.50325 0
M  V30 1468 O 139.138 -0.838126 -1.52712 0
M  V30 1469 C 136.27 -1.73788 -2.93276 0
M  V30 1470 H 137.463 -2.66306 -1.37917 0
M  V30 1471 H 135.016 -1.40477 -0.685271 0
M  V30 1472 H 135.751 -0.792717 -3.14462 0
M  V30 1473 H 135.536 -2.55864 -2.97113 0
M  V30 1474 H 137.026 -1.90591 -3.71571 0
M  V30 1475 N 137.463 0.71206 -1.40597 0
M  V30 1476 C 138.879 1.02058 -1.22704 0
M  V30 1477 C 139.079 2.01228 -0.104729 0
M  V30 1478 O 138.135 2.4674 0.53624 0
M  V30 1479 C 139.448 1.56094 -2.57012 0
M  V30 1480 C 140.996 1.6806 -2.64054 0
M  V30 1481 C 141.471 2.25501 -3.9864 0
M  V30 1482 N 142.962 2.32882 -4.004 0
M  V30 1483 C 143.697 2.78317 -5.01325 0
M  V30 1484 N 143.193 3.23478 -6.12645 0
M  V30 1485 N 144.986 2.77733 -4.88693 0
M  V30 1486 H 137.137 0.0547896 -2.12329 0
M  V30 1487 H 139.4 0.0869027 -0.944008 0
M  V30 1488 H 139.106 0.906865 -3.39807 0
M  V30 1489 H 138.98 2.54564 -2.78347 0
M  V30 1490 H 141.367 2.32583 -1.81629 0
M  V30 1491 H 141.448 0.681802 -2.46546 0
M  V30 1492 H 141.092 1.61598 -4.81506 0
M  V30 1493 H 141.022 3.26102 -4.13479 0
M  V30 1494 H 143.513 2.00991 -3.20017 0
M  V30 1495 H 143.826 3.56725 -6.85542 0
M  V30 1496 H 142.171 3.21429 -6.16205 0
M  V30 1497 H 145.362 2.4179 -4.00818 0
M  V30 1498 H 145.535 3.12826 -5.67489 0
M  V30 1499 N 138.941 1.26152 0.944643 0
M  V30 1500 C 140.187 1.11657 1.69294 0
M  V30 1501 C 140.52 -0.339926 1.91202 0
M  V30 1502 O 139.795 -1.24994 1.49019 0
M  V30 1503 C 140.078 1.88236 3.06984 0
M  V30 1504 C 139.931 3.41772 2.92424 0
M  V30 1505 C 141.25 1.67343 4.07043 0
M  V30 1506 H 138.369 0.407004 0.614424 0
M  V30 1507 H 141.011 1.55106 1.09737 0
M  V30 1508 H 139.161 1.51308 3.57824 0
M  V30 1509 H 140.833 3.88433 2.48832 0
M  V30 1510 H 139.076 3.68974 2.28124 0
M  V30 1511 H 139.747 3.90579 3.90067 0
M  V30 1512 H 142.223 1.99509 3.65151 0
M  V30 1513 H 141.099 2.23346 5.01406 0
M  V30 1514 H 141.36 0.617158 4.37771 0
M  V30 1515 N 140.419 -1.14872 1.07899 0
M  V30 1516 C 141.665 -1.86064 0.806725 0
M  V30 1517 C 141.998 -1.82434 -0.665706 0
M  V30 1518 O 141.273 -1.25138 -1.48899 0
M  V30 1519 C 141.556 -3.34929 1.32267 0
M  V30 1520 C 141.409 -3.47161 2.86006 0
M  V30 1521 C 142.728 -4.29863 0.943717 0
M  V30 1522 H 139.847 -0.675591 0.294526 0
M  V30 1523 H 142.489 -1.34925 1.33773 0
M  V30 1524 H 140.639 -3.78611 0.870974 0
M  V30 1525 H 142.311 -3.12302 3.39507 0
M  V30 1526 H 140.554 -2.88539 3.23925 0
M  V30 1527 H 141.225 -4.51777 3.17177 0
M  V30 1528 H 143.701 -3.9417 1.33302 0
M  V30 1529 H 142.577 -5.32494 1.33198 0
M  V30 1530 H 142.838 -4.41846 -0.149796 0
M  V30 1531 N 141.898 -0.863906 -1.31812 0
M  V30 1532 C 143.144 -0.481841 -1.9761 0
M  V30 1533 C 143.499 0.954048 -1.6708 0
M  V30 1534 O 142.792 1.66182 -0.953624 0
M  V30 1535 C 142.986 -0.668547 -3.51091 0
M  V30 1536 C 142.815 -2.12103 -3.96538 0
M  V30 1537 C 141.585 -2.76141 -4.23171 0
M  V30 1538 C 143.783 -3.09265 -4.10925 0
M  V30 1539 N 141.765 -4.12205 -4.54929 0
M  V30 1540 C 143.136 -4.30341 -4.46326 0
M  V30 1541 C 145.191 -3.05337 -3.93286 0
M  V30 1542 C 143.894 -5.48 -4.65928 0
M  V30 1543 C 145.92 -4.22248 -4.14078 0
M  V30 1544 C 145.282 -5.42085 -4.49804 0
M  V30 1545 H 141.381 -0.225238 -0.74886 0
M  V30 1546 H 143.965 -1.11723 -1.59455 0
M  V30 1547 H 142.136 -0.0627898 -3.88349 0
M  V30 1548 H 143.868 -0.255467 -4.03893 0
M  V30 1549 H 140.623 -2.27125 -4.15585 0
M  V30 1550 H 141.047 -4.82416 -4.74978 0
M  V30 1551 H 145.689 -2.138 -3.64759 0
M  V30 1552 H 143.407 -6.40059 -4.93305 0
M  V30 1553 H 146.993 -4.20654 -4.01922 0
M  V30 1554 H 145.873 -6.31044 -4.65567 0
M  V30 1555 N 143.376 1.44774 -0.622745 0
M  V30 1556 C 144.323 2.30635 0.0871679 0
M  V30 1557 C 145.293 1.42994 0.845097 0
M  V30 1558 O 146.478 1.71907 0.827812 0
M  V30 1559 C 143.618 3.28144 1.06844 0
M  V30 1560 C 142.731 4.30888 0.309809 0
M  V30 1561 C 141.866 5.15494 1.28215 0
M  V30 1562 C 140.905 6.09953 0.512198 0
M  V30 1563 N 140.042 6.87287 1.43458 0
M  V30 1564 H 144.882 2.90803 -0.650974 0
M  V30 1565 H 142.419 1.43286 -0.33281 0
M  V30 1566 H 144.377 3.83157 1.65066 0
M  V30 1567 H 143.007 2.69695 1.77382 0
M  V30 1568 H 142.059 3.78414 -0.388181 0
M  V30 1569 H 143.371 4.97955 -0.290254 0
M  V30 1570 H 142.525 5.74983 1.93596 0
M  V30 1571 H 141.264 4.48481 1.91614 0
M  V30 1572 H 140.269 5.49581 -0.155151 0
M  V30 1573 H 141.494 6.78999 -0.116958 0
M  V30 1574 H 139.44 6.2295 2.05594 0
M  V30 1575 H 139.357 7.50763 0.888335 0
M  V30 1576 H 140.625 7.51306 2.07749 0
M  V30 1577 N 144.854 0.36279 1.53368 0
M  V30 1578 C 145.784 -0.476976 2.28576 0
M  V30 1579 C 146.765 -1.08631 1.30894 0
M  V30 1580 O 147.95 -1.10409 1.59761 0
M  V30 1581 C 145.08 -1.61828 3.07293 0
M  V30 1582 C 144.034 -1.13633 4.1264 0
M  V30 1583 C 143.36 -2.36766 4.79423 0
M  V30 1584 C 144.66 -0.223061 5.21823 0
M  V30 1585 H 146.354 0.150474 2.99022 0
M  V30 1586 H 143.9 0.0738103 1.43811 0
M  V30 1587 H 145.853 -2.21237 3.58653 0
M  V30 1588 H 144.577 -2.27292 2.34533 0
M  V30 1589 H 143.236 -0.564945 3.62221 0
M  V30 1590 H 142.884 -3.0068 4.03238 0
M  V30 1591 H 142.584 -2.05192 5.50609 0
M  V30 1592 H 144.108 -2.96865 5.33576 0
M  V30 1593 H 145.522 -0.724545 5.68703 0
M  V30 1594 H 143.919 0.001678 6.001 0
M  V30 1595 H 144.989 0.735553 4.79289 0
M  V30 1596 N 146.332 -1.57332 0.0918853 0
M  V30 1597 C 147.295 -2.12708 -0.85369 0
M  V30 1598 C 148.295 -1.05561 -1.213 0
M  V30 1599 O 149.485 -1.31461 -1.14296 0
M  V30 1600 C 146.617 -2.64503 -2.15061 0
M  V30 1601 H 147.81 -2.97573 -0.3729 0
M  V30 1602 H 145.363 -1.55509 -0.157072 0
M  V30 1603 H 146.098 -1.83149 -2.67632 0
M  V30 1604 H 145.883 -3.4284 -1.90272 0
M  V30 1605 H 147.373 -3.07351 -2.82711 0
M  V30 1606 N 147.81 0.181792 -1.56548 0
M  V30 1607 C 149.221 0.745244 -1.71181 0
M  V30 1608 C 149.572 1.83262 -0.70068 0
M  V30 1609 O 148.697 2.15946 0.140154 0
M  V30 1610 C 149.292 1.35859 -3.10367 0
M  V30 1611 C 147.851 1.86898 -3.2672 0
M  V30 1612 C 146.998 0.743942 -2.67134 0
M  V30 1613 H 149.949 -0.0434661 -1.5864 0
M  V30 1614 H 149.97 2.22817 -3.08436 0
M  V30 1615 H 149.482 0.566948 -3.83937 0
M  V30 1616 H 147.583 2.68738 -2.5809 0
M  V30 1617 H 147.696 2.02162 -4.34359 0
M  V30 1618 H 146.06 1.16169 -2.26665 0
M  V30 1619 H 146.843 -0.035676 -3.43281 0
M  V30 1620 N 149.288 1.51039 0.449983 0
M  V30 1621 C 150.565 1.53612 1.21089 0
M  V30 1622 C 150.945 0.292997 2.09057 0
M  V30 1623 O 150.293 -0.72259 2.16774 0
M  V30 1624 C 150.503 2.84337 2.0237 0
M  V30 1625 C 151.851 3.35807 2.59843 0
M  V30 1626 O 152.875 2.85802 2.12593 0
M  V30 1627 O 151.734 4.23029 3.45989 0
M  V30 1628 H 148.828 0.617057 0.550608 0
M  V30 1629 H 151.374 1.63344 0.460082 0
M  V30 1630 H 150.146 3.66278 1.37681 0
M  V30 1631 H 149.769 2.77708 2.84542 0
M  V30 1632 N 150.766 -0.704594 1.40972 0
M  V30 1633 C 151.729 -1.80035 1.41845 0
M  V30 1634 C 152.729 -1.57774 0.310474 0
M  V30 1635 O 153.919 -1.64613 0.56992 0
M  V30 1636 C 151.051 -3.18284 1.22098 0
M  V30 1637 H 152.244 -1.80658 2.3938 0
M  V30 1638 H 149.797 -0.911329 1.26982 0
M  V30 1639 H 150.532 -3.23306 0.253672 0
M  V30 1640 H 150.317 -3.35843 2.02366 0
M  V30 1641 H 151.807 -3.98289 1.25522 0
M  V30 1642 N 152.244 -1.26651 -0.937939 0
M  V30 1643 C 153.655 -1.1125 -1.49934 0
M  V30 1644 C 154.006 0.306077 -1.93798 0
M  V30 1645 O 153.131 1.19792 -1.80219 0
M  V30 1646 C 153.726 -2.01339 -2.72485 0
M  V30 1647 C 152.285 -1.90074 -3.24883 0
M  V30 1648 C 151.432 -1.94498 -1.97651 0
M  V30 1649 H 154.383 -1.39693 -0.753091 0
M  V30 1650 H 154.404 -1.56319 -3.46907 0
M  V30 1651 H 153.916 -3.04577 -2.40529 0
M  V30 1652 H 152.017 -0.897827 -3.61621 0
M  V30 1653 H 152.13 -2.75778 -3.9177 0
M  V30 1654 H 150.494 -1.38591 -2.13693 0
M  V30 1655 H 151.277 -2.99372 -1.68022 0
M  V30 1656 N 153.722 1.14298 -1.08507 0
M  V30 1657 C 154.652 2.21542 -0.737646 0
M  V30 1658 C 155.633 1.67773 0.280377 0
M  V30 1659 O 156.818 1.93616 0.150521 0
M  V30 1660 C 153.948 3.46988 -0.147259 0
M  V30 1661 C 152.902 4.13789 -1.09374 0
M  V30 1662 C 152.228 5.33449 -0.365524 0
M  V30 1663 C 153.528 4.62208 -2.4323 0
M  V30 1664 H 155.222 2.5086 -1.6343 0
M  V30 1665 H 152.768 1.20576 -0.787243 0
M  V30 1666 H 154.721 4.21262 0.107808 0
M  V30 1667 H 153.445 3.17037 0.784538 0
M  V30 1668 H 152.104 3.4147 -1.33393 0
M  V30 1669 H 151.752 4.99759 0.57011 0
M  V30 1670 H 151.452 5.79088 -0.996512 0
M  V30 1671 H 152.976 6.10485 -0.118534 0
M  V30 1672 H 154.39 5.27952 -2.23472 0
M  V30 1673 H 152.787 5.18553 -3.02031 0
M  V30 1674 H 153.857 3.77224 -3.04681 0
M  V30 1675 N 155.201 0.870884 1.31352 0
M  V30 1676 C 156.612 0.534714 1.78879 0
M  V30 1677 C 156.963 -0.948423 1.71754 0
M  V30 1678 O 156.088 -1.74055 1.28584 0
M  V30 1679 C 156.683 0.963839 3.24801 0
M  V30 1680 C 155.242 0.679311 3.70219 0
M  V30 1681 C 154.389 1.15465 2.52117 0
M  V30 1682 H 157.34 1.05651 1.18421 0
M  V30 1683 H 157.361 0.286892 3.79417 0
M  V30 1684 H 156.873 2.04332 3.29955 0
M  V30 1685 H 154.974 -0.388769 3.70566 0
M  V30 1686 H 155.087 1.25698 4.62317 0
M  V30 1687 H 153.451 0.574383 2.48139 0
M  V30 1688 H 154.234 2.24157 2.60016 0
M  V30 1689 N 156.679 -1.44442 0.630414 0
M  V30 1690 C 158.09 -1.85434 0.217063 0
M  V30 1691 C 158.441 -1.52748 -1.23136 0
M  V30 1692 O 157.566 -0.965205 -1.93682 0
M  V30 1693 C 158.161 -3.36581 0.387168 0
M  V30 1694 C 156.72 -3.76389 0.0283297 0
M  V30 1695 C 155.867 -2.68296 0.700889 0
M  V30 1696 H 158.818 -1.34919 0.83562 0
M  V30 1697 H 158.839 -3.78657 -0.374086 0
M  V30 1698 H 158.351 -3.60339 1.44144 0
M  V30 1699 H 156.452 -3.58246 -1.02423 0
M  V30 1700 H 156.565 -4.77095 0.437892 0
M  V30 1701 H 154.929 -2.54335 0.136267 0
M  V30 1702 H 155.712 -2.94887 1.75774 0
M  V30 1703 N 158.157 -0.370918 -1.53173 0
M  V30 1704 C 159.089 0.507823 -2.23503 0
M  V30 1705 C 160.102 1.04182 -1.251 0
M  V30 1706 O 161.291 0.947286 -1.5129 0
M  V30 1707 C 158.391 1.71447 -2.92334 0
M  V30 1708 C 157.564 1.31105 -4.17289 0
M  V30 1709 C 156.623 2.38035 -4.69282 0
M  V30 1710 O 155.649 2.00204 -5.32829 0
M  V30 1711 N 156.851 3.69697 -4.47554 0
M  V30 1712 H 159.616 -0.0946382 -2.99551 0
M  V30 1713 H 157.177 -0.196358 -1.60705 0
M  V30 1714 H 159.169 2.42469 -3.24023 0
M  V30 1715 H 157.739 2.22368 -2.19707 0
M  V30 1716 H 156.959 0.430462 -3.91843 0
M  V30 1717 H 158.247 1.0179 -4.98514 0
M  V30 1718 H 157.645 4.03205 -3.9679 0
M  V30 1719 H 156.202 4.36807 -4.8378 0
M  V30 1720 N 159.635 1.57281 -0.100228 0
M  V30 1721 C 160.863 1.98879 0.570509 0
M  V30 1722 C 161.278 0.979476 1.61405 0
M  V30 1723 O 160.635 -0.0302288 1.82475 0
M  V30 1724 C 160.686 3.4052 1.2136 0
M  V30 1725 O 160.407 4.37588 0.211786 0
M  V30 1726 C 161.908 3.97149 1.96945 0
M  V30 1727 H 159.128 0.653428 0.152555 0
M  V30 1728 H 161.672 2.03697 -0.18103 0
M  V30 1729 H 159.827 3.367 1.91603 0
M  V30 1730 H 160.241 5.20118 0.676607 0
M  V30 1731 H 161.715 4.98393 2.37294 0
M  V30 1732 H 162.192 3.3525 2.83733 0
M  V30 1733 H 162.798 4.04458 1.31506 0
M  V30 1734 N 161.113 -0.173488 1.56642 0
M  V30 1735 C 162.063 -1.21941 1.92651 0
M  V30 1736 C 163.047 -1.39912 0.794577 0
M  V30 1737 O 164.239 -1.41919 1.05773 0
M  V30 1738 C 161.368 -2.55935 2.28806 0
M  V30 1739 C 160.454 -2.41667 3.48508 0
M  V30 1740 N 160.845 -1.9711 4.65813 0
M  V30 1741 C 159.143 -2.72499 3.53072 0
M  V30 1742 C 159.844 -1.95253 5.47952 0
M  V30 1743 N 158.82 -2.37575 4.88937 0
M  V30 1744 H 162.622 -0.866581 2.80834 0
M  V30 1745 H 160.136 -0.381776 1.57849 0
M  V30 1746 H 162.133 -3.31511 2.52797 0
M  V30 1747 H 160.793 -2.92022 1.41961 0
M  V30 1748 H 161.804 -1.67481 4.90072 0
M  V30 1749 H 158.481 -3.12639 2.767 0
M  V30 1750 H 159.871 -1.6252 6.51948 0
M  V30 1751 N 162.591 -1.51276 -0.441967 0
M  V30 1752 C 163.819 -1.67516 -1.21434 0
M  V30 1753 C 164.234 -0.37055 -1.85128 0
M  V30 1754 O 163.591 0.650498 -1.70513 0
M  V30 1755 C 163.642 -2.78748 -2.30177 0
M  V30 1756 O 163.363 -4.04154 -1.69089 0
M  V30 1757 C 164.864 -3.06217 -3.20541 0
M  V30 1758 H 162.084 -0.562276 -0.366178 0
M  V30 1759 H 164.628 -1.97666 -0.524244 0
M  V30 1760 H 162.783 -2.5121 -2.94911 0
M  V30 1761 H 163.197 -4.65894 -2.40922 0
M  V30 1762 H 164.671 -3.8764 -3.92987 0
M  V30 1763 H 165.148 -2.18439 -3.81026 0
M  V30 1764 H 165.754 -3.35397 -2.61513 0
M  V30 1765 N 164.069 0.697108 -1.41344 0
M  V30 1766 C 164.999 1.82353 -1.45841 0
M  V30 1767 C 165.98 1.67115 -0.317247 0
M  V30 1768 O 167.165 1.86871 -0.528474 0
M  V30 1769 C 164.295 3.20476 -1.33838 0
M  V30 1770 C 163.249 3.50415 -2.4575 0
M  V30 1771 C 162.575 4.87878 -2.18813 0
M  V30 1772 C 163.875 3.49546 -3.88091 0
M  V30 1773 H 165.569 1.78846 -2.40113 0
M  V30 1774 H 163.115 0.859028 -1.15571 0
M  V30 1775 H 165.068 3.98988 -1.35596 0
M  V30 1776 H 163.792 3.24604 -0.360498 0
M  V30 1777 H 162.451 2.74253 -2.43271 0
M  V30 1778 H 162.099 4.8863 -1.19371 0
M  V30 1779 H 161.799 5.08875 -2.93803 0
M  V30 1780 H 163.323 5.68702 -2.22284 0
M  V30 1781 H 164.737 4.18066 -3.92293 0
M  V30 1782 H 163.134 3.82075 -4.62751 0
M  V30 1783 H 164.204 2.48552 -4.16353 0
M  V30 1784 N 165.547 1.27147 0.931209 0
M  V30 1785 C 166.477 1.12081 2.04842 0
M  V30 1786 C 167.458 0.0232364 1.70084 0
M  V30 1787 O 168.643 0.197085 1.93197 0
M  V30 1788 C 165.773 0.76354 3.38803 0
M  V30 1789 C 164.727 1.81396 3.87659 0
M  V30 1790 C 164.053 1.31075 5.18385 0
M  V30 1791 C 165.353 3.21739 4.11438 0
M  V30 1792 H 167.047 2.05537 2.17703 0
M  V30 1793 H 164.593 0.989603 1.04608 0
M  V30 1794 H 166.546 0.644982 4.16435 0
M  V30 1795 H 165.27 -0.206727 3.25945 0
M  V30 1796 H 163.929 1.92136 3.12217 0
M  V30 1797 H 163.577 0.330037 5.01916 0
M  V30 1798 H 163.277 2.013 5.52044 0
M  V30 1799 H 164.801 1.20506 5.98591 0
M  V30 1800 H 166.215 3.14019 4.79651 0
M  V30 1801 H 164.612 3.89644 4.56397 0
M  V30 1802 H 165.682 3.67054 3.16859 0
M  V30 1803 N 167.025 -1.13721 1.09112 0
M  V30 1804 C 168.273 -1.84559 0.823562 0
M  V30 1805 C 168.594 -1.83754 -0.652658 0
M  V30 1806 O 167.864 -1.29102 -1.47342 0
M  V30 1807 H 166.444 -0.683376 0.301673 0
M  V30 1808 H 169.106 -1.37771 1.37859 0
M  V30 1809 H 168.202 -2.8917 1.17419 0
M  V30 1810 N 168.503 -0.877838 -1.30888 0
M  V30 1811 C 169.749 -0.493426 -1.96706 0
M  V30 1812 C 170.082 0.953504 -1.6918 0
M  V30 1813 O 169.357 1.67266 -0.992594 0
M  V30 1814 C 169.64 -0.760429 -3.51979 0
M  V30 1815 C 169.493 -2.25747 -3.89048 0
M  V30 1816 C 170.812 -0.232148 -4.39487 0
M  V30 1817 H 167.931 -0.180746 -0.714493 0
M  V30 1818 H 170.573 -1.10052 -1.54882 0
M  V30 1819 H 168.723 -0.243715 -3.87735 0
M  V30 1820 H 170.395 -2.84204 -3.63354 0
M  V30 1821 H 168.638 -2.72694 -3.37373 0
M  V30 1822 H 169.309 -2.39491 -4.97341 0
M  V30 1823 H 171.785 -0.674314 -4.106 0
M  V30 1824 H 170.661 -0.448355 -5.47066 0
M  V30 1825 H 170.922 0.866297 -4.33529 0
M  V30 1826 N 169.982 1.44106 -0.638065 0
M  V30 1827 C 171.21 2.06336 -0.152615 0
M  V30 1828 C 171.625 1.47731 1.17563 0
M  V30 1829 O 170.982 0.602806 1.72257 0
M  V30 1830 C 171.033 3.61479 -0.0391491 0
M  V30 1831 O 170.754 4.17903 -1.31487 0
M  V30 1832 C 172.255 4.40757 0.474176 0
M  V30 1833 H 169.475 0.665862 -0.0828776 0
M  V30 1834 H 172.019 1.84862 -0.87443 0
M  V30 1835 H 170.174 3.82191 0.633142 0
M  V30 1836 H 170.588 5.11416 -1.16421 0
M  V30 1837 H 172.062 5.49707 0.502562 0
M  V30 1838 H 172.539 4.12697 1.50258 0
M  V30 1839 H 173.145 4.24979 -0.165102 0
M  V30 1840 N 171.46 0.379036 1.52974 0
M  V30 1841 C 172.707 -0.206421 2.01445 0
M  V30 1842 C 173.035 -1.47668 1.26587 0
M  V30 1843 O 172.29 -1.92514 0.351675 0
M  V30 1844 C 172.589 -0.53096 3.53434 0
M  V30 1845 C 172.255 0.646546 4.46241 0
M  V30 1846 C 170.917 0.969604 4.7133 0
M  V30 1847 C 173.269 1.43479 5.01062 0
M  V30 1848 C 170.597 2.08263 5.48492 0
M  V30 1849 C 172.949 2.53834 5.7944 0
M  V30 1850 C 171.613 2.86659 6.02812 0
M  V30 1851 H 170.883 -0.0755349 0.73714 0
M  V30 1852 H 173.53 0.514271 1.84465 0
M  V30 1853 H 171.835 -1.33285 3.68432 0
M  V30 1854 H 173.532 -0.996417 3.88423 0
M  V30 1855 H 170.122 0.384734 4.2687 0
M  V30 1856 H 174.306 1.19844 4.81613 0
M  V30 1857 H 169.562 2.34078 5.64816 0
M  V30 1858 H 173.736 3.15319 6.20924 0
M  V30 1859 H 171.363 3.73026 6.62387 0
M  V30 1860 N 172.938 -1.57226 0.108567 0
M  V30 1861 C 174.349 -1.8195 -0.418464 0
M  V30 1862 C 174.7 -1.02508 -1.67292 0
M  V30 1863 O 173.825 -0.258496 -2.14851 0
M  V30 1864 C 174.42 -3.30028 -0.765979 0
M  V30 1865 C 172.979 -3.55469 -1.23769 0
M  V30 1866 C 172.126 -2.7625 -0.241106 0
M  V30 1867 H 175.077 -1.55149 0.33384 0
M  V30 1868 H 175.098 -3.44086 -1.62434 0
M  V30 1869 H 174.61 -3.87821 0.147219 0
M  V30 1870 H 172.711 -3.03022 -2.16814 0
M  V30 1871 H 172.824 -4.6408 -1.19022 0
M  V30 1872 H 171.188 -2.44133 -0.72602 0
M  V30 1873 H 171.971 -3.36797 0.665007 0
M  V30 1874 N 174.416 0.165178 -1.56732 0
M  V30 1875 C 175.664 0.879068 -1.8198 0
M  V30 1876 C 175.985 1.82514 -0.686561 0
M  V30 1877 O 175.255 1.93694 0.293146 0
M  V30 1878 H 173.835 0.327608 -0.671329 0
M  V30 1879 H 176.497 0.163526 -1.94213 0
M  V30 1880 H 175.593 1.45228 -2.76252 0
M  V30 1881 N 175.894 1.51508 0.433938 0
M  V30 1882 C 177.119 1.68443 1.21003 0
M  V30 1883 C 177.544 0.382636 1.84167 0
M  V30 1884 O 176.902 -0.65755 1.68956 0
M  V30 1885 C 176.95 2.80405 2.26727 0
M  V30 1886 O 176.054 2.44245 3.32292 0
M  V30 1887 H 175.395 0.561536 0.354363 0
M  V30 1888 H 177.925 1.9809 0.512024 0
M  V30 1889 H 177.935 3.0459 2.71457 0
M  V30 1890 H 176.61 3.74867 1.80132 0
M  V30 1891 H 175.187 2.30644 2.93015 0
M  V30 1892 N 177.372 -0.689602 1.41712 0
M  V30 1893 C 178.62 -1.4468 1.4111 0
M  V30 1894 C 178.941 -1.94986 0.0232196 0
M  V30 1895 O 178.211 -1.72097 -0.935913 0
M  V30 1896 H 176.791 -0.536847 0.519427 0
M  V30 1897 H 179.453 -0.815825 1.77004 0
M  V30 1898 H 178.549 -2.30706 2.10193 0
M  V30 1899 N 178.85 -1.27639 -0.924453 0
M  V30 1900 C 180.098 -1.13941 -1.66918 0
M  V30 1901 C 180.419 0.314589 -1.92446 0
M  V30 1902 O 179.689 1.21964 -1.53303 0
M  V30 1903 H 178.269 -0.418678 -0.618642 0
M  V30 1904 H 180.931 -1.60213 -1.10985 0
M  V30 1905 H 180.027 -1.67094 -2.63602 0
M  V30 1906 N 180.328 1.1314 -1.09713 0
M  V30 1907 C 181.568 1.8613 -0.844683 0
M  V30 1908 C 181.932 1.81765 0.618491 0
M  V30 1909 O 183.133 2.50024 0.98699 0
M  V30 1910 C 181.404 3.30151 -1.36877 0
M  V30 1911 S 182.963 4.206 -1.25064 0
M  V30 1912 H 179.781 0.642056 -0.305427 0
M  V30 1913 H 182.383 1.36343 -1.4011 0
M  V30 1914 H 181.087 3.30883 -2.42786 0
M  V30 1915 H 180.618 3.85 -0.808614 0
M  V30 1916 H 182.633 4.95783 -0.203486 0
M  V30 1917 N 181.806 0.884767 1.30421 0
M  V30 1918 C 183.036 0.517293 2.00019 0
M  V30 1919 C 183.444 -0.898632 1.66497 0
M  V30 1920 O 182.787 -1.60245 0.898181 0
M  V30 1921 C 182.849 0.612025 3.54252 0
M  V30 1922 C 182.513 1.99222 4.1129 0
M  V30 1923 C 183.51 2.9616 4.273 0
M  V30 1924 C 181.195 2.29755 4.46674 0
M  V30 1925 C 183.189 4.21764 4.77906 0
M  V30 1926 C 180.876 3.55606 4.96979 0
M  V30 1927 C 181.874 4.51425 5.12547 0
M  V30 1928 O 181.562 5.75043 5.61766 0
M  V30 1929 H 181.294 0.198529 0.64619 0
M  V30 1930 H 183.848 1.1919 1.67281 0
M  V30 1931 H 182.078 -0.119561 3.86515 0
M  V30 1932 H 183.767 0.255859 4.05093 0
M  V30 1933 H 184.533 2.73882 4.00267 0
M  V30 1934 H 180.412 1.55942 4.33824 0
M  V30 1935 H 183.956 4.96561 4.89972 0
M  V30 1936 H 179.853 3.7772 5.23448 0
M  V30 1937 H 180.621 5.77422 5.80109 0
M  V30 1938 N 183.284 -1.43765 0.645699 0
M  V30 1939 C 184.214 -2.33471 -0.0370477 0
M  V30 1940 C 185.195 -1.49042 -0.819779 0
M  V30 1941 O 186.38 -1.77726 -0.782758 0
M  V30 1942 C 183.51 -3.32311 -1.0093 0
M  V30 1943 C 182.464 -4.2667 -0.337201 0
M  V30 1944 C 181.79 -5.1549 -1.42037 0
M  V30 1945 C 183.09 -5.16657 0.765706 0
M  V30 1946 H 184.784 -2.90809 0.712069 0
M  V30 1947 H 182.33 -1.39834 0.343876 0
M  V30 1948 H 184.283 -3.9396 -1.49578 0
M  V30 1949 H 183.007 -2.73213 -1.78948 0
M  V30 1950 H 181.666 -3.66374 0.128771 0
M  V30 1951 H 181.314 -4.52735 -2.1918 0
M  V30 1952 H 181.014 -5.79438 -0.975966 0
M  V30 1953 H 182.538 -5.80012 -1.90838 0
M  V30 1954 H 183.952 -5.72158 0.361702 0
M  V30 1955 H 182.349 -5.89286 1.13413 0
M  V30 1956 H 183.419 -4.56796 1.62683 0
M  V30 1957 N 184.763 -0.387143 -1.52771 0
M  V30 1958 C 186.009 0.196025 -2.0185 0
M  V30 1959 C 186.342 1.46641 -1.27319 0
M  V30 1960 O 185.617 1.90889 -0.373032 0
M  V30 1961 C 185.9 0.466136 -3.5707 0
M  V30 1962 C 185.753 -0.819385 -4.42274 0
M  V30 1963 C 187.072 1.25768 -4.21747 0
M  V30 1964 H 184.191 0.0697708 -0.73369 0
M  V30 1965 H 186.833 -0.516286 -1.82851 0
M  V30 1966 H 184.983 1.07293 -3.7339 0
M  V30 1967 H 186.655 -1.4563 -4.37709 0
M  V30 1968 H 184.898 -1.43517 -4.09372 0
M  V30 1969 H 185.569 -0.585065 -5.48891 0
M  V30 1970 H 188.045 0.744167 -4.09391 0
M  V30 1971 H 186.921 1.41541 -5.30337 0
M  V30 1972 H 187.182 2.27228 -3.79236 0
M  V30 1973 N 186.241 1.57166 -0.116904 0
M  V30 1974 C 187.518 1.86645 0.585049 0
M  V30 1975 C 187.898 1.0177 1.84949 0
M  V30 1976 O 187.246 0.0960379 2.28298 0
M  V30 1977 C 187.456 3.37736 0.879507 0
M  V30 1978 C 188.804 4.06289 1.23348 0
M  V30 1979 O 189.828 3.42743 0.969836 0
M  V30 1980 O 188.687 5.18455 1.7282 0
M  V30 1981 H 185.781 0.772593 0.295007 0
M  V30 1982 H 188.327 1.69025 -0.151249 0
M  V30 1983 H 187.099 3.91296 -0.0166136 0
M  V30 1984 H 186.722 3.6078 1.67103 0
M  V30 1985 N 187.719 -0.156864 1.56817 0
M  V30 1986 C 188.965 -0.872416 1.83076 0
M  V30 1987 C 189.298 -1.81261 0.697001 0
M  V30 1988 O 188.573 -1.92171 -0.30008 0
M  V30 1989 C 188.856 -1.65551 3.19789 0
M  V30 1990 C 188.709 -0.737467 4.43713 0
M  V30 1991 C 190.028 -2.62012 3.53606 0
M  V30 1992 H 187.147 -0.315715 0.665953 0
M  V30 1993 H 189.789 -0.138004 1.89498 0
M  V30 1994 H 187.939 -2.28159 3.14445 0
M  V30 1995 H 189.611 -0.123143 4.61136 0
M  V30 1996 H 187.854 -0.0464067 4.33775 0
M  V30 1997 H 188.525 -1.32122 5.35955 0
M  V30 1998 H 191.001 -2.09525 3.59497 0
M  V30 1999 H 189.877 -3.13861 4.50314 0
M  V30 2000 H 190.138 -3.42902 2.79053 0
M  V30 2001 N 189.197 -1.51736 -0.425897 0
M  V30 2002 C 190.445 -1.64644 -1.17204 0
M  V30 2003 C 190.766 -0.370486 -1.91448 0
M  V30 2004 O 190.036 0.614088 -1.86026 0
M  V30 2005 H 188.616 -0.606819 -0.435638 0
M  V30 2006 H 191.278 -1.88713 -0.487177 0
M  V30 2007 H 190.374 -2.47958 -1.89534 0
M  V30 2008 N 190.675 0.682077 -1.42076 0
M  V30 2009 C 191.922 1.44215 -1.42156 0
M  V30 2010 C 192.25 1.94468 -0.0354186 0
M  V30 2011 O 191.505 1.70816 0.955002 0
M  V30 2012 C 191.804 2.66036 -2.38662 0
M  V30 2013 C 191.47 2.34366 -3.85206 0
M  V30 2014 C 190.132 2.25439 -4.25124 0
M  V30 2015 C 192.484 2.08513 -4.77673 0
M  V30 2016 C 189.812 1.88775 -5.55501 0
M  V30 2017 C 192.164 1.73354 -6.08384 0
M  V30 2018 C 190.828 1.62933 -6.47309 0
M  V30 2019 H 190.098 0.527718 -0.520187 0
M  V30 2020 H 192.745 0.778387 -1.74967 0
M  V30 2021 H 191.05 3.3741 -1.99152 0
M  V30 2022 H 192.747 3.24205 -2.35991 0
M  V30 2023 H 189.337 2.42213 -3.53597 0
M  V30 2024 H 193.521 2.14346 -4.47626 0
M  V30 2025 H 188.777 1.7927 -5.84527 0
M  V30 2026 H 192.951 1.52373 -6.79526 0
M  V30 2027 H 190.578 1.34292 -7.48244 0
M  V30 2028 N 192.153 1.28127 0.917671 0
M  V30 2029 C 193.401 1.14825 1.66312 0
M  V30 2030 C 193.722 -0.304379 1.9261 0
M  V30 2031 O 192.992 -1.21149 1.53947 0
M  V30 2032 H 191.572 0.421953 0.616413 0
M  V30 2033 H 194.234 1.608 1.10134 0
M  V30 2034 H 193.33 1.68489 2.62712 0
M  V30 2035 N 193.631 -1.12557 1.10312 0
M  V30 2036 C 194.879 -1.83675 0.843091 0
M  V30 2037 C 195.2 -1.84435 -0.633131 0
M  V30 2038 O 194.47 -1.30657 -1.45964 0
M  V30 2039 H 193.05 -0.680138 0.308904 0
M  V30 2040 H 195.712 -1.36301 1.39313 0
M  V30 2041 H 194.808 -2.87908 1.2048 0
M  V30 2042 N 195.109 -0.891671 -1.2995 0
M  V30 2043 C 196.041 -0.320695 -2.26945 0
M  V30 2044 C 197.054 0.528497 -1.53983 0
M  V30 2045 O 198.243 0.346959 -1.75096 0
M  V30 2046 C 195.343 0.562066 -3.34207 0
M  V30 2047 C 194.516 -0.259576 -4.36629 0
M  V30 2048 C 193.575 0.554739 -5.23268 0
M  V30 2049 O 192.601 -0.0249311 -5.69195 0
M  V30 2050 N 193.803 1.8625 -5.4981 0
M  V30 2051 H 196.568 -1.15432 -2.76578 0
M  V30 2052 H 194.129 -0.755336 -1.432 0
M  V30 2053 H 196.121 1.11304 -3.89093 0
M  V30 2054 H 194.691 1.29637 -2.84452 0
M  V30 2055 H 193.911 -0.991986 -3.81514 0
M  V30 2056 H 195.199 -0.822564 -5.02107 0
M  V30 2057 H 194.597 2.35628 -5.14292 0
M  V30 2058 H 193.154 2.36078 -6.07545 0
M  V30 2059 N 196.587 1.43421 -0.653314 0
M  V30 2060 C 197.815 2.06163 -0.174491 0
M  V30 2061 C 198.23 1.48969 1.1599 0
M  V30 2062 O 197.587 0.621042 1.71608 0
M  V30 2063 C 197.638 3.61417 -0.0774865 0
M  V30 2064 O 197.359 4.16485 -1.35912 0
M  V30 2065 C 198.86 4.41235 0.427402 0
M  V30 2066 H 196.08 0.664946 -0.0899353 0
M  V30 2067 H 198.624 1.83924 -0.893988 0
M  V30 2068 H 196.779 3.82841 0.59257 0
M  V30 2069 H 197.193 5.10153 -1.21839 0
M  V30 2070 H 198.667 5.5021 0.44423 0
M  V30 2071 H 199.144 4.14268 1.45873 0
M  V30 2072 H 199.75 4.2478 -0.210167 0
M  V30 2073 N 198.065 0.39524 1.52563 0
M  V30 2074 C 199.476 -0.0774719 1.86539 0
M  V30 2075 C 199.827 -1.45641 1.31466 0
M  V30 2076 O 198.952 -2.06459 0.648367 0
M  V30 2077 C 199.547 -0.147356 3.38479 0
M  V30 2078 C 198.106 -0.564373 3.72145 0
M  V30 2079 C 197.253 0.269919 2.75983 0
M  V30 2080 H 200.204 0.612876 1.46388 0
M  V30 2081 H 200.225 -0.965343 3.68051 0
M  V30 2082 H 199.737 0.856387 3.78534 0
M  V30 2083 H 197.838 -1.57527 3.37663 0
M  V30 2084 H 197.951 -0.318402 4.78041 0
M  V30 2085 H 196.315 -0.265696 2.5331 0
M  V30 2086 H 197.098 1.27175 3.18875 0
M  V30 2087 N 199.544 -1.57102 0.125237 0
M  V30 2088 C 200.772 -1.99761 -0.538797 0
M  V30 2089 C 201.187 -1.00503 -1.59827 0
M  V30 2090 O 200.544 0.00119474 -1.825 0
M  V30 2091 C 200.595 -3.42408 -1.15927 0
M  V30 2092 O 200.316 -4.37869 -0.142143 0
M  V30 2093 C 201.817 -4.00232 -1.90602 0
M  V30 2094 H 199.037 -0.655772 -0.14214 0
M  V30 2095 H 201.581 -2.03383 0.213413 0
M  V30 2096 H 199.736 -3.39706 -1.86223 0
M  V30 2097 H 200.15 -5.21128 -0.593775 0
M  V30 2098 H 201.624 -5.02105 -2.29335 0
M  V30 2099 H 202.101 -3.39721 -2.78363 0
M  V30 2100 H 202.707 -4.06499 -1.25055 0
M  V30 2101 N 201.022 0.148545 -1.56898 0
M  V30 2102 C 202.247 0.880385 -1.87787 0
M  V30 2103 C 202.672 1.74018 -0.714093 0
M  V30 2104 O 202.03 1.78153 0.336343 0
M  V30 2105 C 202.078 1.71422 -3.17249 0
M  V30 2106 O 201.182 2.8183 -3.01074 0
M  V30 2107 H 200.523 0.245301 -0.617028 0
M  V30 2108 H 203.053 0.139826 -2.04122 0
M  V30 2109 H 203.063 2.10954 -3.49231 0
M  V30 2110 H 201.738 1.08284 -4.01556 0
M  V30 2111 H 200.315 2.45715 -2.80497 0
M  V30 2112 N 202.5 1.5196 0.417844 0
M  V30 2113 C 203.911 1.57851 0.997 0
M  V30 2114 C 204.262 0.413714 1.91789 0
M  V30 2115 O 203.387 -0.467057 2.113 0
M  V30 2116 C 203.982 2.86085 1.81496 0
M  V30 2117 C 202.541 2.94483 2.34428 0
M  V30 2118 C 201.688 2.52707 1.14169 0
M  V30 2119 H 204.639 1.57455 0.198392 0
M  V30 2120 H 204.66 2.70947 2.67148 0
M  V30 2121 H 204.172 3.70842 1.14446 0
M  V30 2122 H 202.273 2.142 3.04875 0
M  V30 2123 H 202.386 3.98546 2.65891 0
M  V30 2124 H 200.75 2.06353 1.49301 0
M  V30 2125 H 201.533 3.39828 0.486999 0
M  V30 2126 N 203.978 -0.674533 1.42435 0
M  V30 2127 C 204.908 -1.80009 1.48724 0
M  V30 2128 C 205.889 -1.6659 0.343793 0
M  V30 2129 O 207.074 -1.86007 0.558137 0
M  V30 2130 C 204.204 -3.18306 1.38919 0
M  V30 2131 C 203.158 -3.46461 2.51294 0
M  V30 2132 C 202.484 -4.84335 2.26547 0
M  V30 2133 C 203.784 -3.43328 3.93603 0
M  V30 2134 H 205.478 -1.75004 2.42928 0
M  V30 2135 H 203.024 -0.840533 1.16923 0
M  V30 2136 H 204.977 -3.9678 1.41927 0
M  V30 2137 H 203.701 -3.2399 0.412094 0
M  V30 2138 H 202.36 -2.70348 2.47604 0
M  V30 2139 H 202.008 -4.86669 1.2713 0
M  V30 2140 H 201.708 -5.04136 3.01861 0
M  V30 2141 H 203.232 -5.65094 2.31304 0
M  V30 2142 H 204.646 -4.11772 3.98894 0
M  V30 2143 H 203.043 -3.74664 4.68771 0
M  V30 2144 H 204.113 -2.41897 4.20255 0
M  V30 2145 N 205.456 -1.28612 -0.910864 0
M  V30 2146 C 206.872 -1.06381 -1.18976 0
M  V30 2147 C 207.072 0.191998 -2.00583 0
M  V30 2148 O 206.128 0.892869 -2.36187 0
M  V30 2149 C 207.441 -2.31295 -1.92154 0
M  V30 2150 C 208.989 -2.36503 -2.05025 0
M  V30 2151 C 209.464 -3.61191 -2.81612 0
M  V30 2152 N 210.955 -3.61847 -2.89172 0
M  V30 2153 C 211.69 -4.55004 -3.4894 0
M  V30 2154 N 211.186 -5.58482 -4.09963 0
M  V30 2155 N 212.979 -4.42594 -3.46506 0
M  V30 2156 H 205.13 -2.09221 -0.366094 0
M  V30 2157 H 207.393 -0.921003 -0.224629 0
M  V30 2158 H 207.099 -3.228 -1.39618 0
M  V30 2159 H 206.973 -2.37934 -2.9269 0
M  V30 2160 H 209.36 -1.45494 -2.5674 0
M  V30 2161 H 209.441 -2.33857 -1.03657 0
M  V30 2162 H 209.085 -4.52545 -2.30576 0
M  V30 2163 H 209.015 -3.61092 -3.83302 0
M  V30 2164 H 211.506 -2.87022 -2.45819 0
M  V30 2165 H 211.819 -6.25704 -4.53557 0
M  V30 2166 H 210.164 -5.62305 -4.08459 0
M  V30 2167 H 213.355 -3.60953 -2.98045 0
M  V30 2168 H 213.528 -5.15381 -3.92793 0
M  V30 2169 N 206.934 1.1197 -1.10907 0
M  V30 2170 C 207.864 2.19928 -0.784473 0
M  V30 2171 C 208.845 1.6833 0.244726 0
M  V30 2172 O 210.03 1.93892 0.109418 0
M  V30 2173 C 207.16 3.46597 -0.220827 0
M  V30 2174 C 206.114 4.11376 -1.18127 0
M  V30 2175 C 205.44 5.32554 -0.478594 0
M  V30 2176 C 206.74 4.56945 -2.52979 0
M  V30 2177 H 208.434 2.47337 -1.68715 0
M  V30 2178 H 205.98 1.18879 -0.812642 0
M  V30 2179 H 207.933 4.21396 0.0184278 0
M  V30 2180 H 206.657 3.1863 0.717113 0
M  V30 2181 H 205.316 3.38564 -1.40606 0
M  V30 2182 H 204.964 5.00856 0.463976 0
M  V30 2183 H 204.664 5.76844 -1.11912 0
M  V30 2184 H 206.188 6.10096 -0.248 0
M  V30 2185 H 207.602 5.23093 -2.3462 0
M  V30 2186 H 205.999 5.1203 -3.12962 0
M  V30 2187 H 207.069 3.70676 -3.12614 0
M  V30 2188 N 208.412 0.89855 1.29475 0
M  V30 2189 C 209.322 0.379974 2.31502 0
M  V30 2190 C 210.338 -0.524695 1.659 0
M  V30 2191 O 211.514 -0.414551 1.97087 0
M  V30 2192 C 208.579 -0.385138 3.44554 0
M  V30 2193 C 207.64 0.550914 4.2575 0
M  V30 2194 C 206.873 -0.177778 5.33404 0
M  V30 2195 O 207.096 -1.40189 5.52904 0
M  V30 2196 O 206.03 0.479106 5.9999 0
M  V30 2197 H 209.856 1.22639 2.77837 0
M  V30 2198 H 207.441 0.662834 1.33891 0
M  V30 2199 H 209.323 -0.817841 4.13388 0
M  V30 2200 H 207.998 -1.20763 3.0033 0
M  V30 2201 H 206.905 1.03271 3.59564 0
M  V30 2202 H 208.238 1.33979 4.73614 0
M  V30 2203 N 209.89 -1.43072 0.660911 0
M  V30 2204 C 211.118 -2.06067 0.185422 0
M  V30 2205 C 211.533 -1.49582 -1.15198 0
M  V30 2206 O 210.89 -0.630134 -1.71276 0
M  V30 2207 C 210.941 -3.61371 0.0966523 0
M  V30 2208 O 210.662 -4.15758 1.38119 0
M  V30 2209 C 212.163 -4.41455 -0.403996 0
M  V30 2210 H 209.383 -0.664459 0.0934604 0
M  V30 2211 H 211.927 -1.83447 0.90373 0
M  V30 2212 H 210.082 -3.8315 -0.572259 0
M  V30 2213 H 210.496 -5.09499 1.24542 0
M  V30 2214 H 211.97 -5.50437 -0.415045 0
M  V30 2215 H 212.447 -4.15036 -1.43674 0
M  V30 2216 H 213.053 -4.24663 0.232691 0
M  V30 2217 N 211.368 -0.403325 -1.52352 0
M  V30 2218 C 212.616 0.174003 -2.0135 0
M  V30 2219 C 212.937 1.46139 -1.29106 0
M  V30 2220 O 212.207 1.91448 -0.415253 0
M  V30 2221 H 210.787 0.0672911 -0.743963 0
M  V30 2222 H 213.449 -0.538235 -1.87321 0
M  V30 2223 H 212.545 0.374254 -3.09848 0
M  V30 2224 N 212.846 1.57033 -0.133567 0
M  V30 2225 C 213.809 2.14897 0.796995 0
M  V30 2226 C 214.809 1.0874 1.18458 0
M  V30 2227 O 215.999 1.34446 1.1077 0
M  V30 2228 C 213.131 2.70112 2.07973 0
M  V30 2229 H 214.324 2.98457 0.293873 0
M  V30 2230 H 211.877 1.55871 0.115787 0
M  V30 2231 H 212.612 1.9018 2.62682 0
M  V30 2232 H 212.397 3.47764 1.81115 0
M  V30 2233 H 213.887 3.14738 2.74462 0
M  V30 2234 N 214.325 -0.140222 1.56975 0
M  V30 2235 C 215.571 -0.852949 1.83991 0
M  V30 2236 C 215.904 -1.80512 0.716187 0
M  V30 2237 O 215.179 -1.92479 -0.279681 0
M  V30 2238 C 215.462 -1.6215 3.21527 0
M  V30 2239 C 215.315 -0.690363 4.4447 0
M  V30 2240 C 216.634 -2.58247 3.56366 0
M  V30 2241 H 213.753 -0.308634 0.669264 0
M  V30 2242 H 216.395 -0.117898 1.89634 0
M  V30 2243 H 214.545 -2.24812 3.16847 0
M  V30 2244 H 216.217 -0.0742264 4.6124 0
M  V30 2245 H 214.46 -0.000396433 4.338 0
M  V30 2246 H 215.131 -1.2643 5.37326 0
M  V30 2247 H 217.607 -2.05701 3.61699 0
M  V30 2248 H 216.483 -3.09067 4.53617 0
M  V30 2249 H 216.744 -3.39923 2.82674 0
M  V30 2250 N 215.803 -1.52179 -0.40978 0
M  V30 2251 C 216.735 -1.71703 -1.51825 0
M  V30 2252 C 217.748 -0.597445 -1.51441 0
M  V30 2253 O 218.937 -0.872582 -1.55719 0
M  V30 2254 C 216.037 -1.74171 -2.90719 0
M  V30 2255 C 215.21 -3.03156 -3.15302 0
M  V30 2256 C 214.269 -2.97445 -4.34065 0
M  V30 2257 O 213.295 -3.71352 -4.31377 0
M  V30 2258 N 214.497 -2.15191 -5.39141 0
M  V30 2259 H 217.262 -2.67334 -1.35472 0
M  V30 2260 H 214.823 -1.50409 -0.599069 0
M  V30 2261 H 216.815 -1.67884 -3.68235 0
M  V30 2262 H 215.385 -0.860166 -3.00533 0
M  V30 2263 H 214.605 -3.23097 -2.25836 0
M  V30 2264 H 215.893 -3.88484 -3.28569 0
M  V30 2265 H 215.291 -1.54573 -5.44173 0
M  V30 2266 H 213.848 -2.1476 -6.15403 0
M  V30 2267 N 217.281 0.66697 -1.42791 0
M  V30 2268 C 218.692 1.2478 -1.38877 0
M  V30 2269 C 219.043 1.96012 -0.0859426 0
M  V30 2270 O 218.168 2.00463 0.815081 0
M  V30 2271 C 218.763 2.26938 -2.51564 0
M  V30 2272 C 217.322 2.80529 -2.50959 0
M  V30 2273 C 216.469 1.54965 -2.29959 0
M  V30 2274 H 219.42 0.459853 -1.51892 0
M  V30 2275 H 219.441 3.08834 -2.22265 0
M  V30 2276 H 218.953 1.75065 -3.46372 0
M  V30 2277 H 217.054 3.36502 -1.59991 0
M  V30 2278 H 217.167 3.29012 -3.48265 0
M  V30 2279 H 215.531 1.81817 -1.78366 0
M  V30 2280 H 216.314 1.05047 -3.26833 0
M  V30 2281 N 218.759 1.29093 0.90403 0
M  V30 2282 C 219.987 1.19689 1.68766 0
M  V30 2283 C 220.402 -0.243113 1.87228 0
M  V30 2284 O 219.759 -1.16326 1.40621 0
M  V30 2285 C 219.81 1.90144 3.07453 0
M  V30 2286 O 219.531 3.2852 2.89838 0
M  V30 2287 C 221.032 1.87162 4.01852 0
M  V30 2288 H 218.252 0.415035 0.527244 0
M  V30 2289 H 220.796 1.7039 1.13082 0
M  V30 2290 H 218.951 1.43289 3.59926 0
M  V30 2291 H 219.365 3.63944 3.77684 0
M  V30 2292 H 220.839 2.41032 4.96596 0
M  V30 2293 H 221.316 0.84617 4.30972 0
M  V30 2294 H 221.922 2.33741 3.5531 0
M  V30 2295 N 220.237 -1.11381 1.11499 0
M  V30 2296 C 221.465 -1.86934 0.88675 0
M  V30 2297 C 221.88 -1.80195 -0.563476 0
M  V30 2298 O 221.237 -1.18367 -1.38908 0
M  V30 2299 C 221.288 -3.35722 1.34064 0
M  V30 2300 O 221.009 -3.4232 2.73401 0
M  V30 2301 C 222.51 -4.2818 1.14791 0
M  V30 2302 H 219.73 -0.591117 0.317523 0
M  V30 2303 H 222.274 -1.40865 1.48248 0
M  V30 2304 H 220.429 -3.79294 0.788355 0
M  V30 2305 H 220.843 -4.34971 2.93087 0
M  V30 2306 H 222.317 -5.30817 1.5145 0
M  V30 2307 H 222.794 -4.39113 0.0875279 0
M  V30 2308 H 223.4 -3.90402 1.68721 0
M  V30 2309 N 221.715 -0.905404 -1.28997 0
M  V30 2310 C 222.665 -0.358713 -2.25161 0
M  V30 2311 C 223.649 0.524449 -1.52113 0
M  V30 2312 O 224.841 0.365534 -1.73184 0
M  V30 2313 C 221.97 0.407609 -3.40872 0
M  V30 2314 C 221.056 -0.490797 -4.21251 0
M  V30 2315 N 221.447 -1.60061 -4.79806 0
M  V30 2316 C 219.745 -0.289636 -4.45059 0
M  V30 2317 C 220.446 -2.15757 -5.40207 0
M  V30 2318 N 219.422 -1.44988 -5.23908 0
M  V30 2319 H 223.224 -1.20642 -2.67998 0
M  V30 2320 H 220.738 -0.757103 -1.43672 0
M  V30 2321 H 222.735 0.816046 -4.08835 0
M  V30 2322 H 221.395 1.25251 -2.9957 0
M  V30 2323 H 222.406 -1.98329 -4.7842 0
M  V30 2324 H 219.083 0.51643 -4.14294 0
M  V30 2325 H 220.473 -3.09069 -5.96595 0
M  V30 2326 N 223.193 1.4272 -0.668489 0
M  V30 2327 C 224.103 2.34596 0.0139753 0
M  V30 2328 C 225.119 1.5474 0.795703 0
M  V30 2329 O 226.295 1.87334 0.739466 0
M  V30 2330 C 223.36 3.33202 0.957982 0
M  V30 2331 C 222.421 4.28957 0.17149 0
M  V30 2332 C 221.654 5.22853 1.07053 0
M  V30 2333 O 221.877 5.21531 2.31001 0
M  V30 2334 O 220.811 5.9952 0.534727 0
M  V30 2335 H 224.637 2.9448 -0.742661 0
M  V30 2336 H 222.222 1.43117 -0.428705 0
M  V30 2337 H 224.104 3.93796 1.50008 0
M  V30 2338 H 222.779 2.758 1.69458 0
M  V30 2339 H 221.686 3.71796 -0.414558 0
M  V30 2340 H 223.019 4.89383 -0.52586 0
M  V30 2341 N 224.671 0.411399 1.52136 0
M  V30 2342 C 226.082 -0.0576826 1.86611 0
M  V30 2343 C 226.433 -1.44238 1.33003 0
M  V30 2344 O 225.558 -2.05759 0.670228 0
M  V30 2345 C 226.153 -0.111448 3.38617 0
M  V30 2346 C 224.712 -0.52487 3.72723 0
M  V30 2347 C 223.859 0.299176 2.75681 0
M  V30 2348 H 226.81 0.628368 1.4573 0
M  V30 2349 H 226.831 -0.926252 3.69054 0
M  V30 2350 H 226.343 0.896488 3.77604 0
M  V30 2351 H 224.444 -1.53936 3.39315 0
M  V30 2352 H 224.557 -0.267681 4.78352 0
M  V30 2353 H 222.921 -0.238814 2.53578 0
M  V30 2354 H 223.704 1.3055 3.17508 0
M  V30 2355 N 226.149 -1.5696 0.141893 0
M  V30 2356 C 227.379 -2.00031 -0.516828 0
M  V30 2357 C 227.787 -1.02091 -1.59293 0
M  V30 2358 O 227.13 -0.00909657 -1.83698 0
M  V30 2359 C 227.192 -3.39534 -1.1814 0
M  V30 2360 C 226.856 -4.56313 -0.250513 0
M  V30 2361 C 227.853 -5.17295 0.519839 0
M  V30 2362 C 225.538 -5.02061 -0.154907 0
M  V30 2363 C 227.532 -6.2243 1.3733 0
M  V30 2364 C 225.219 -6.07053 0.702161 0
M  V30 2365 C 226.217 -6.67106 1.46487 0
M  V30 2366 O 225.905 -7.70066 2.30767 0
M  V30 2367 H 225.637 -0.661451 -0.139493 0
M  V30 2368 H 228.191 -2.04086 0.231926 0
M  V30 2369 H 226.421 -3.32302 -1.97769 0
M  V30 2370 H 228.11 -3.66745 -1.73933 0
M  V30 2371 H 228.876 -4.82852 0.45598 0
M  V30 2372 H 224.755 -4.5505 -0.7383 0
M  V30 2373 H 228.299 -6.69233 1.96909 0
M  V30 2374 H 224.196 -6.40923 0.76733 0
M  V30 2375 H 224.964 -7.87264 2.23959 0
M  V30 2376 N 227.627 0.131896 -1.57047 0
M  V30 2377 C 229.043 0.485031 -1.52051 0
M  V30 2378 C 229.243 1.82563 -0.85281 0
M  V30 2379 O 228.299 2.48817 -0.429694 0
M  V30 2380 C 229.612 0.481409 -2.96821 0
M  V30 2381 C 231.16 0.565868 -3.07842 0
M  V30 2382 C 231.635 0.592762 -4.54148 0
M  V30 2383 N 233.126 0.654564 -4.58552 0
M  V30 2384 C 233.861 0.696608 -5.69153 0
M  V30 2385 N 233.357 0.697078 -6.89284 0
M  V30 2386 N 235.15 0.738639 -5.57226 0
M  V30 2387 H 227.301 -0.746664 -1.98843 0
M  V30 2388 H 229.564 -0.273999 -0.90754 0
M  V30 2389 H 229.27 -0.435731 -3.4899 0
M  V30 2390 H 229.144 1.3139 -3.53577 0
M  V30 2391 H 231.531 1.47343 -2.55684 0
M  V30 2392 H 231.612 -0.29406 -2.54104 0
M  V30 2393 H 231.256 -0.310701 -5.06949 0
M  V30 2394 H 231.186 1.46939 -5.05684 0
M  V30 2395 H 233.677 0.660887 -3.72076 0
M  V30 2396 H 233.99 0.731426 -7.69331 0
M  V30 2397 H 232.335 0.66471 -6.91814 0
M  V30 2398 H 235.526 0.735545 -4.62285 0
M  V30 2399 H 235.699 0.767938 -6.43434 0
M  V30 2400 N 229.106 1.52395 0.401703 0
M  V30 2401 C 230.036 1.79231 1.49661 0
M  V30 2402 C 231.017 0.643654 1.57452 0
M  V30 2403 O 232.202 0.889989 1.72606 0
M  V30 2404 C 229.332 1.94971 2.87409 0
M  V30 2405 C 228.286 3.10604 2.94465 0
M  V30 2406 C 227.612 3.11577 4.34538 0
M  V30 2407 C 228.912 4.49921 2.6527 0
M  V30 2408 H 230.606 2.70917 1.27454 0
M  V30 2409 H 228.152 1.30362 0.6117 0
M  V30 2410 H 230.105 2.12328 3.63999 0
M  V30 2411 H 228.829 0.999632 3.10926 0
M  V30 2412 H 227.488 2.93009 2.20321 0
M  V30 2413 H 227.136 2.14277 4.55076 0
M  V30 2414 H 226.836 3.89247 4.40183 0
M  V30 2415 H 228.36 3.31073 5.13053 0
M  V30 2416 H 229.774 4.67683 3.31581 0
M  V30 2417 H 228.171 5.29564 2.82281 0
M  V30 2418 H 229.241 4.57507 1.60671 0
M  V30 2419 N 230.584 -0.659388 1.43143 0
M  V30 2420 C 231.494 -1.80167 1.50256 0
M  V30 2421 C 232.51 -1.69571 0.390106 0
M  V30 2422 O 233.686 -1.90849 0.643319 0
M  V30 2423 C 230.751 -3.16409 1.41725 0
M  V30 2424 C 229.812 -3.38848 2.63591 0
M  V30 2425 C 229.045 -4.68591 2.55458 0
M  V30 2426 O 229.268 -5.47532 1.59891 0
M  V30 2427 O 228.202 -4.92614 3.45854 0
M  V30 2428 H 232.028 -1.77121 2.46702 0
M  V30 2429 H 229.613 -0.817092 1.25076 0
M  V30 2430 H 231.495 -3.9768 1.39387 0
M  V30 2431 H 230.17 -3.20059 0.484118 0
M  V30 2432 H 229.077 -2.57366 2.71502 0
M  V30 2433 H 230.41 -3.4004 3.55856 0
M  V30 2434 N 232.062 -1.29571 -0.897171 0
M  V30 2435 C 233.339 -1.08365 -1.62839 0
M  V30 2436 C 233.719 0.371331 -2.07808 0
M  V30 2437 O 233.067 1.3606 -1.83576 0
M  V30 2438 C 233.277 -2.0735 -2.80726 0
M  V30 2439 C 234.625 -2.38406 -3.51351 0
M  V30 2440 O 235.649 -2.05564 -2.90898 0
M  V30 2441 O 234.508 -2.9453 -4.60341 0
M  V30 2442 H 231.602 -0.415345 -0.715134 0
M  V30 2443 H 234.148 -1.40952 -0.945018 0
M  V30 2444 H 232.92 -3.05339 -2.44711 0
M  V30 2445 H 232.543 -1.75507 -3.56767 0
M  V30 2446 N 233.54 1.10788 -1.12088 0
M  V30 2447 C 234.956 1.34691 -0.856186 0
M  V30 2448 C 235.156 1.94791 0.515615 0
M  V30 2449 O 234.212 2.18524 1.26505 0
M  V30 2450 C 235.525 2.27208 -1.9697 0
M  V30 2451 C 237.073 2.40755 -2.00016 0
M  V30 2452 C 237.548 3.36598 -3.1059 0
M  V30 2453 N 239.039 3.44164 -3.10008 0
M  V30 2454 C 239.774 4.18284 -3.92206 0
M  V30 2455 N 239.27 4.95322 -4.84384 0
M  V30 2456 N 241.063 4.13865 -3.80357 0
M  V30 2457 H 233.214 0.70144 -2.00483 0
M  V30 2458 H 235.477 0.371405 -0.872217 0
M  V30 2459 H 235.183 1.90251 -2.958 0
M  V30 2460 H 235.057 3.27485 -1.87172 0
M  V30 2461 H 237.444 2.76982 -1.01808 0
M  V30 2462 H 237.525 1.40305 -2.13888 0
M  V30 2463 H 237.169 3.01096 -4.09028 0
M  V30 2464 H 237.099 4.36918 -2.93956 0
M  V30 2465 H 239.59 2.8922 -2.43228 0
M  V30 2466 H 239.903 5.49267 -5.43623 0
M  V30 2467 H 238.248 4.94459 -4.884 0
M  V30 2468 H 241.439 3.52773 -3.07683 0
M  V30 2469 H 241.612 4.71372 -4.44649 0
M  V30 2470 N 235.018 0.912232 1.28515 0
M  V30 2471 C 236.264 0.545405 1.95328 0
M  V30 2472 C 236.597 -0.908313 1.71649 0
M  V30 2473 O 235.872 -1.64575 1.03659 0
M  V30 2474 C 236.155 0.853483 3.4984 0
M  V30 2475 C 236.008 2.35982 3.82926 0
M  V30 2476 C 237.327 0.348589 4.38717 0
M  V30 2477 H 234.446 0.199626 0.709449 0
M  V30 2478 H 237.088 1.1412 1.5191 0
M  V30 2479 H 235.238 0.34643 3.86952 0
M  V30 2480 H 236.91 2.93738 3.55691 0
M  V30 2481 H 235.153 2.81543 3.30024 0
M  V30 2482 H 235.824 2.52593 4.90816 0
M  V30 2483 H 238.3 0.78294 4.08668 0
M  V30 2484 H 237.176 0.593242 5.45685 0
M  V30 2485 H 237.437 -0.751049 4.35674 0
M  V30 2486 N 236.496 -1.42363 0.676048 0
M  V30 2487 C 237.773 -1.95183 0.127726 0
M  V30 2488 C 238.153 -1.61641 -1.35777 0
M  V30 2489 O 237.501 -0.913216 -2.09458 0
M  V30 2490 C 237.711 -3.46721 0.398199 0
M  V30 2491 C 239.059 -4.23427 0.315383 0
M  V30 2492 O 240.083 -3.54649 0.332016 0
M  V30 2493 O 238.942 -5.45888 0.25865 0
M  V30 2494 H 236.036 -0.826992 0.00359427 0
M  V30 2495 H 238.582 -1.52184 0.750864 0
M  V30 2496 H 237.354 -3.64344 1.4272 0
M  V30 2497 H 236.977 -3.96769 -0.256885 0
M  V30 2498 N 237.974 -0.419461 -1.51915 0
M  V30 2499 C 239.222 0.152637 -2.01523 0
M  V30 2500 C 239.543 1.44762 -1.30649 0
M  V30 2501 O 238.813 1.90997 -0.435535 0
M  V30 2502 H 237.393 0.0593966 -0.744635 0
M  V30 2503 H 240.055 -0.558073 -1.86739 0
M  V30 2504 H 239.151 0.341369 -3.10227 0
M  V30 2505 N 239.452 1.56882 -0.150215 0
M  V30 2506 C 240.699 1.96228 0.500093 0
M  V30 2507 C 241.027 1.03522 1.64661 0
M  V30 2508 O 240.282 0.0650683 1.95592 0
M  V30 2509 C 240.581 3.41801 1.04437 0
M  V30 2510 C 240.247 4.50897 0.0159671 0
M  V30 2511 C 238.909 4.8046 -0.266731 0
M  V30 2512 C 241.261 5.16703 -0.683192 0
M  V30 2513 C 238.589 5.73135 -1.25434 0
M  V30 2514 C 240.941 6.10441 -1.65964 0
M  V30 2515 C 239.605 6.38382 -1.95 0
M  V30 2516 H 238.875 0.718048 0.182997 0
M  V30 2517 H 241.522 1.90019 -0.237724 0
M  V30 2518 H 239.827 3.44857 1.85959 0
M  V30 2519 H 241.524 3.69573 1.55618 0
M  V30 2520 H 238.114 4.27891 0.246485 0
M  V30 2521 H 242.298 4.93993 -0.477983 0
M  V30 2522 H 237.554 5.93074 -1.48571 0
M  V30 2523 H 241.728 6.60507 -2.20689 0
M  V30 2524 H 239.355 7.09996 -2.71679 0
M  V30 2525 N 240.93 -0.123565 1.57115 0
M  V30 2526 C 242.176 -0.833386 1.84885 0
M  V30 2527 C 242.509 -1.79742 0.735292 0
M  V30 2528 O 241.784 -1.92764 -0.25925 0
M  V30 2529 C 242.067 -1.5873 3.23228 0
M  V30 2530 C 241.92 -0.643183 4.45178 0
M  V30 2531 C 243.239 -2.54453 3.59085 0
M  V30 2532 H 240.358 -0.301518 0.6725 0
M  V30 2533 H 243 -0.097778 1.89748 0
M  V30 2534 H 241.15 -2.21438 3.19214 0
M  V30 2535 H 242.822 -0.0253015 4.61293 0
M  V30 2536 H 241.065 0.0456139 4.33776 0
M  V30 2537 H 241.736 -1.20724 5.38637 0
M  V30 2538 H 244.212 -2.01853 3.63861 0
M  V30 2539 H 243.088 -3.04238 4.5687 0
M  V30 2540 H 243.349 -3.36906 2.86264 0
M  V30 2541 N 242.408 -1.52605 -0.393616 0
M  V30 2542 C 243.338 -1.80022 -1.48709 0
M  V30 2543 C 244.319 -0.651995 -1.57108 0
M  V30 2544 O 245.504 -0.89913 -1.72132 0
M  V30 2545 C 242.634 -1.96492 -2.86371 0
M  V30 2546 C 241.588 -3.12161 -2.92813 0
M  V30 2547 C 240.914 -3.13877 -4.3288 0
M  V30 2548 C 242.214 -4.51322 -2.6288 0
M  V30 2549 H 243.908 -2.71589 -1.26015 0
M  V30 2550 H 241.454 -1.30684 -0.604778 0
M  V30 2551 H 243.407 -2.14255 -3.62867 0
M  V30 2552 H 242.131 -1.01611 -3.10391 0
M  V30 2553 H 240.79 -2.94173 -2.18764 0
M  V30 2554 H 240.438 -2.16687 -4.53933 0
M  V30 2555 H 240.138 -3.91576 -4.38112 0
M  V30 2556 H 241.662 -3.33789 -5.1129 0
M  V30 2557 H 243.076 -4.69435 -3.29096 0
M  V30 2558 H 241.473 -5.31053 -2.79468 0
M  V30 2559 H 242.543 -4.58353 -1.58242 0
M  V30 2560 N 243.887 0.651787 -1.4349 0
M  V30 2561 C 244.819 1.77725 -1.44729 0
M  V30 2562 C 245.832 1.59141 -0.343231 0
M  V30 2563 O 247.021 1.67835 -0.607751 0
M  V30 2564 C 244.121 3.15172 -1.24579 0
M  V30 2565 C 243.294 3.60402 -2.47849 0
M  V30 2566 C 242.353 4.76656 -2.22902 0
M  V30 2567 O 241.379 4.86022 -2.96263 0
M  V30 2568 N 242.581 5.66958 -1.24656 0
M  V30 2569 H 245.346 1.77141 -2.41746 0
M  V30 2570 H 242.907 0.835678 -1.38665 0
M  V30 2571 H 244.899 3.90634 -1.0577 0
M  V30 2572 H 243.469 3.1052 -0.360015 0
M  V30 2573 H 242.689 2.75369 -2.82073 0
M  V30 2574 H 243.977 3.87368 -3.29884 0
M  V30 2575 H 243.375 5.62065 -0.640265 0
M  V30 2576 H 241.932 6.42135 -1.1183 0
M  V30 2577 N 245.365 1.30045 0.890287 0
M  V30 2578 C 246.328 1.15963 1.977 0
M  V30 2579 C 247.328 0.0923777 1.60534 0
M  V30 2580 O 248.518 0.340071 1.70848 0
M  V30 2581 C 245.65 0.775451 3.31963 0
M  V30 2582 H 246.843 2.12502 2.11619 0
M  V30 2583 H 244.396 1.13366 1.07601 0
M  V30 2584 H 245.131 -0.189671 3.23745 0
M  V30 2585 H 244.916 1.54668 3.60306 0
M  V30 2586 H 246.406 0.700251 4.11687 0
M  V30 2587 N 246.843 -1.10192 1.12674 0
M  V30 2588 C 247.776 -2.15847 0.740625 0
M  V30 2589 C 248.754 -1.60352 -0.269421 0
M  V30 2590 O 249.938 -1.87796 -0.16278 0
M  V30 2591 C 247.065 -3.38562 0.096641 0
M  V30 2592 C 246.111 -4.12758 1.07391 0
M  V30 2593 S 246.944 -4.67997 2.60267 0
M  V30 2594 C 248.1 -5.94021 1.97206 0
M  V30 2595 H 248.333 -2.48266 1.63558 0
M  V30 2596 H 245.866 -1.22019 0.946087 0
M  V30 2597 H 247.824 -4.09621 -0.268535 0
M  V30 2598 H 246.485 -3.04377 -0.775462 0
M  V30 2599 H 245.678 -5.00755 0.570997 0
M  V30 2600 H 245.28 -3.47523 1.38216 0
M  V30 2601 H 247.572 -6.64589 1.31634 0
M  V30 2602 H 248.515 -6.48979 2.83253 0
M  V30 2603 H 248.923 -5.46169 1.42686 0
M  V30 2604 N 248.321 -0.919034 -1.28029 0
M  V30 2605 C 249.567 -0.555757 -1.95036 0
M  V30 2606 C 249.9 0.899198 -1.72128 0
M  V30 2607 O 249.175 1.64023 -1.04531 0
M  V30 2608 C 249.458 -0.872024 -3.49382 0
M  V30 2609 C 249.311 -2.3801 -3.81669 0
M  V30 2610 C 250.63 -0.37185 -4.38526 0
M  V30 2611 H 247.749 -0.203386 -0.708381 0
M  V30 2612 H 250.391 -1.14924 -1.51303 0
M  V30 2613 H 248.541 -0.366946 -3.86763 0
M  V30 2614 H 250.213 -2.9562 -3.54128 0
M  V30 2615 H 248.456 -2.83289 -3.28526 0
M  V30 2616 H 249.127 -2.55192 -4.8947 0
M  V30 2617 H 251.603 -0.804602 -4.08247 0
M  V30 2618 H 250.479 -0.622173 -5.45362 0
M  V30 2619 H 250.74 0.727934 -4.36066 0
M  V30 2620 N 249.799 1.42003 -0.683588 0
M  V30 2621 C 251.215 1.55625 -0.353976 0
M  V30 2622 C 251.415 1.66151 1.14 0
M  V30 2623 O 250.471 1.63329 1.92561 0
M  V30 2624 C 251.784 2.80171 -1.092 0
M  V30 2625 C 253.332 2.93954 -1.07518 0
M  V30 2626 C 253.807 4.21372 -1.79471 0
M  V30 2627 N 255.298 4.28303 -1.76381 0
M  V30 2628 C 256.033 5.25729 -2.28904 0
M  V30 2629 N 255.529 6.29254 -2.89846 0
M  V30 2630 N 257.322 5.17586 -2.19228 0
M  V30 2631 H 249.473 1.33415 -1.6527 0
M  V30 2632 H 251.736 0.64282 -0.696769 0
M  V30 2633 H 251.442 2.78561 -2.14701 0
M  V30 2634 H 251.316 3.7133 -0.662862 0
M  V30 2635 H 253.703 2.95086 -0.028475 0
M  V30 2636 H 253.784 2.04002 -1.54328 0
M  V30 2637 H 253.428 4.21001 -2.84114 0
M  V30 2638 H 253.358 5.10275 -1.30104 0
M  V30 2639 H 255.849 3.54119 -1.31939 0
M  V30 2640 H 256.162 6.99964 -3.27522 0
M  V30 2641 H 254.507 6.29791 -2.93919 0
M  V30 2642 H 257.698 4.35631 -1.71299 0
M  V30 2643 H 257.871 5.93348 -2.60466 0
M  V30 2644 N 251.277 0.427512 1.51691 0
M  V30 2645 C 252.554 -0.201684 1.94557 0
M  V30 2646 C 252.934 -1.60981 1.36559 0
M  V30 2647 O 252.282 -2.21814 0.548702 0
M  V30 2648 C 252.492 -0.189394 3.48486 0
M  V30 2649 C 253.84 -0.39978 4.22714 0
M  V30 2650 O 254.864 -0.267945 3.55191 0
M  V30 2651 O 253.723 -0.661249 5.42485 0
M  V30 2652 H 250.817 -0.135261 0.815864 0
M  V30 2653 H 253.363 0.484782 1.62628 0
M  V30 2654 H 252.135 0.795431 3.8313 0
M  V30 2655 H 251.758 -0.919187 3.86829 0
M  V30 2656 N 252.755 -1.56801 0.158532 0
M  V30 2657 C 253.983 -2.00859 -0.496303 0
M  V30 2658 C 254.398 -1.03871 -1.57659 0
M  V30 2659 O 253.755 -0.0375165 -1.82461 0
M  V30 2660 C 253.806 -3.4479 -1.08638 0
M  V30 2661 O 253.527 -4.38072 -0.0492322 0
M  V30 2662 C 255.028 -4.04185 -1.8207 0
M  V30 2663 H 252.248 -0.65864 -0.128199 0
M  V30 2664 H 254.792 -2.02885 0.256506 0
M  V30 2665 H 252.947 -3.43579 -1.78975 0
M  V30 2666 H 253.361 -5.2227 -0.483102 0
M  V30 2667 H 254.835 -5.06857 -2.18633 0
M  V30 2668 H 255.312 -3.45549 -2.71095 0
M  V30 2669 H 255.918 -4.0906 -1.16405 0
M  V30 2670 N 254.233 0.115231 -1.57178 0
M  V30 2671 C 255.479 0.818565 -1.86202 0
M  V30 2672 C 255.834 1.77316 -0.746785 0
M  V30 2673 O 255.127 1.89923 0.25291 0
M  V30 2674 C 255.321 1.60324 -3.19423 0
M  V30 2675 C 255.15 0.726138 -4.43799 0
M  V30 2676 C 253.92 0.379535 -5.03873 0
M  V30 2677 C 256.118 0.0420774 -5.14283 0
M  V30 2678 N 254.1 -0.507841 -6.11796 0
M  V30 2679 C 255.471 -0.704152 -6.15988 0
M  V30 2680 C 257.526 -0.0339486 -4.97888 0
M  V30 2681 C 256.229 -1.51927 -7.03072 0
M  V30 2682 C 258.255 -0.835906 -5.85463 0
M  V30 2683 C 257.617 -1.57031 -6.86673 0
M  V30 2684 H 253.716 0.276343 -0.731545 0
M  V30 2685 H 256.3 0.0821032 -1.94527 0
M  V30 2686 H 254.471 2.31072 -3.12186 0
M  V30 2687 H 256.203 2.2522 -3.36241 0
M  V30 2688 H 252.958 0.722634 -4.68054 0
M  V30 2689 H 253.382 -0.94349 -6.70393 0
M  V30 2690 H 258.024 0.519496 -4.19596 0
M  V30 2691 H 255.742 -2.08386 -7.80769 0
M  V30 2692 H 259.328 -0.89714 -5.74841 0
M  V30 2693 H 258.208 -2.18088 -7.53264 0
M  V30 2694 N 255.711 1.52812 0.385517 0
M  V30 2695 C 256.643 1.74096 1.49074 0
M  V30 2696 C 257.656 0.621462 1.50472 0
M  V30 2697 O 258.845 0.897245 1.54311 0
M  V30 2698 C 255.945 1.78774 2.87911 0
M  V30 2699 C 255.118 3.08134 3.10439 0
M  V30 2700 C 254.177 3.04313 4.29278 0
M  V30 2701 O 253.203 3.78168 4.25415 0
M  V30 2702 N 254.405 2.23741 5.35649 0
M  V30 2703 H 257.17 2.69455 1.31202 0
M  V30 2704 H 254.731 1.51343 0.575065 0
M  V30 2705 H 256.723 1.73721 3.65518 0
M  V30 2706 H 255.293 0.907869 2.99126 0
M  V30 2707 H 254.513 3.26649 2.20667 0
M  V30 2708 H 255.801 3.93662 3.22347 0
M  V30 2709 H 255.199 1.63211 5.41645 0
M  V30 2710 H 253.756 2.24524 6.11909 0
M  V30 2711 N 257.189 -0.644168 1.43834 0
M  V30 2712 C 258.417 -1.43147 1.49387 0
M  V30 2713 C 258.832 -1.88452 0.114583 0
M  V30 2714 O 258.189 -1.60047 -0.876989 0
M  V30 2715 C 258.24 -2.66046 2.44748 0
M  V30 2716 O 257.961 -2.22633 3.77314 0
M  V30 2717 C 259.462 -3.59311 2.59635 0
M  V30 2718 H 256.682 -0.439447 0.507077 0
M  V30 2719 H 259.226 -0.78895 1.88669 0
M  V30 2720 H 257.381 -3.26418 2.08638 0
M  V30 2721 H 257.795 -3.02216 4.28679 0
M  V30 2722 H 259.269 -4.42187 3.30416 0
M  V30 2723 H 259.746 -4.07259 1.64427 0
M  V30 2724 H 260.352 -3.04816 2.96593 0
M  V30 2725 N 258.668 -1.30515 -0.883378 0
M  V30 2726 C 259.598 -1.19607 -2.00541 0
M  V30 2727 C 260.579 -0.086346 -1.69881 0
M  V30 2728 O 261.764 -0.268654 -1.92333 0
M  V30 2729 C 258.894 -0.888758 -3.35736 0
M  V30 2730 C 257.848 -1.95659 -3.8066 0
M  V30 2731 C 257.174 -1.50224 -5.13164 0
M  V30 2732 C 258.474 -3.36788 -3.99213 0
M  V30 2733 H 260.168 -2.13476 -2.09925 0
M  V30 2734 H 257.714 -1.02775 -1.00863 0
M  V30 2735 H 259.667 -0.799094 -4.13754 0
M  V30 2736 H 258.391 0.0856125 -3.26488 0
M  V30 2737 H 257.05 -2.03591 -3.04871 0
M  V30 2738 H 256.698 -0.516092 -5.00345 0
M  V30 2739 H 256.398 -2.2165 -5.44192 0
M  V30 2740 H 257.922 -1.42639 -5.93706 0
M  V30 2741 H 259.336 -3.31605 -4.67665 0
M  V30 2742 H 257.733 -4.06314 -4.41621 0
M  V30 2743 H 258.803 -3.78561 -3.03017 0
M  V30 2744 N 260.146 1.09593 -1.13257 0
M  V30 2745 C 261.376 1.85231 -0.915049 0
M  V30 2746 C 261.784 1.81345 0.539498 0
M  V30 2747 O 261.127 1.20664 1.38513 0
M  V30 2748 C 261.189 3.34275 -1.3229 0
M  V30 2749 C 260.853 3.6191 -2.79052 0
M  V30 2750 C 261.85 3.57777 -3.77216 0
M  V30 2751 C 259.535 3.90309 -3.16171 0
M  V30 2752 C 261.529 3.81652 -5.1051 0
M  V30 2753 C 259.216 4.13839 -4.49644 0
M  V30 2754 C 260.214 4.09502 -5.46623 0
M  V30 2755 O 259.902 4.32426 -6.77689 0
M  V30 2756 H 259.634 0.591997 -0.326367 0
M  V30 2757 H 262.188 1.394 -1.50854 0
M  V30 2758 H 260.418 3.80805 -0.672667 0
M  V30 2759 H 262.107 3.9132 -1.07812 0
M  V30 2760 H 262.873 3.35865 -3.49885 0
M  V30 2761 H 258.752 3.92811 -2.41289 0
M  V30 2762 H 262.296 3.78182 -5.86195 0
M  V30 2763 H 258.193 4.35232 -4.767 0
M  V30 2764 H 258.961 4.49896 -6.83766 0
M  V30 2765 N 261.624 0.925811 1.2754 0
M  V30 2766 C 262.534 0.428993 2.30644 0
M  V30 2767 C 263.55 -0.489387 1.66976 0
M  V30 2768 O 264.726 -0.372653 1.97922 0
M  V30 2769 C 261.791 -0.311967 3.45294 0
M  V30 2770 C 260.852 0.641098 4.24486 0
M  V30 2771 C 260.085 -0.0645955 5.33661 0
M  V30 2772 O 260.308 -1.28429 5.55754 0
M  V30 2773 O 259.242 0.606265 5.98839 0
M  V30 2774 H 263.068 1.28504 2.75173 0
M  V30 2775 H 260.653 0.691086 1.32455 0
M  V30 2776 H 262.535 -0.729972 4.15029 0
M  V30 2777 H 261.21 -1.14365 3.02824 0
M  V30 2778 H 260.117 1.10874 3.57292 0
M  V30 2779 H 261.45 1.43995 4.70666 0
M  V30 2780 N 263.102 -1.41638 0.69111 0
M  V30 2781 C 264.349 -2.01299 0.220193 0
M  V30 2782 C 264.677 -1.54715 -1.17871 0
M  V30 2783 O 263.932 -0.747193 -1.80874 0
M  V30 2784 C 264.231 -3.56714 0.221277 0
M  V30 2785 C 263.897 -4.22792 1.56709 0
M  V30 2786 C 262.559 -4.40557 1.93554 0
M  V30 2787 C 264.911 -4.59883 2.45268 0
M  V30 2788 C 262.239 -4.92688 3.18552 0
M  V30 2789 C 264.591 -5.13403 3.69595 0
M  V30 2790 C 263.255 -5.29379 4.06589 0
M  V30 2791 H 262.525 -0.736606 0.0805743 0
M  V30 2792 H 265.172 -1.69598 0.889319 0
M  V30 2793 H 263.477 -3.8818 -0.531391 0
M  V30 2794 H 265.174 -4.00678 -0.160547 0
M  V30 2795 H 261.764 -4.09336 1.2705 0
M  V30 2796 H 265.948 -4.45817 2.18084 0
M  V30 2797 H 261.204 -5.03242 3.47214 0
M  V30 2798 H 265.378 -5.41084 4.38407 0
M  V30 2799 H 263.005 -5.69537 5.03519 0
M  V30 2800 N 264.58 -0.43555 -1.51462 0
M  V30 2801 C 265.808 0.130242 -2.0649 0
M  V30 2802 C 266.223 1.36614 -1.30315 0
M  V30 2803 O 265.58 1.78869 -0.362223 0
M  V30 2804 C 265.631 0.454253 -3.58635 0
M  V30 2805 O 265.352 -0.73259 -4.31931 0
M  V30 2806 C 266.853 1.07091 -4.3017 0
M  V30 2807 H 264.073 0.00871669 -0.670943 0
M  V30 2808 H 266.617 -0.614117 -1.95061 0
M  V30 2809 H 264.772 1.14851 -3.69984 0
M  V30 2810 H 265.186 -0.455787 -5.22516 0
M  V30 2811 H 266.66 1.24764 -5.37716 0
M  V30 2812 H 267.137 2.05144 -3.88346 0
M  V30 2813 H 267.743 0.416089 -4.2326 0
M  V30 2814 N 266.058 1.56714 -0.166846 0
M  V30 2815 C 267.286 2.0112 0.485644 0
M  V30 2816 C 267.701 1.04705 1.57106 0
M  V30 2817 O 267.058 0.0471923 1.82439 0
M  V30 2818 C 267.109 3.45361 1.06808 0
M  V30 2819 O 266.83 4.38092 0.0259995 0
M  V30 2820 C 268.331 4.05145 1.79924 0
M  V30 2821 H 265.551 0.65931 0.124704 0
M  V30 2822 H 268.095 2.02746 -0.267262 0
M  V30 2823 H 266.25 3.44524 1.7715 0
M  V30 2824 H 266.664 5.22519 0.455398 0
M  V30 2825 H 268.138 5.08009 2.15942 0
M  V30 2826 H 268.615 3.46982 2.69258 0
M  V30 2827 H 269.221 4.09672 1.14234 0
M  V30 2828 N 267.536 -0.106894 1.57237 0
M  V30 2829 C 268.468 -1.15646 1.97885 0
M  V30 2830 C 269.481 -1.36981 0.879779 0
M  V30 2831 O 270.67 -1.35841 1.15799 0
M  V30 2832 C 267.77 -2.51425 2.27241 0
M  V30 2833 C 266.943 -2.50529 3.58545 0
M  V30 2834 C 266.002 -3.68145 3.75973 0
M  V30 2835 O 265.028 -3.51176 4.47956 0
M  V30 2836 N 266.23 -4.87177 3.15656 0
M  V30 2837 H 268.995 -0.81059 2.8853 0
M  V30 2838 H 266.556 -0.296024 1.59171 0
M  V30 2839 H 268.548 -3.28689 2.36105 0
M  V30 2840 H 267.118 -2.78147 1.42663 0
M  V30 2841 H 266.338 -1.58894 3.60758 0
M  V30 2842 H 267.626 -2.46997 4.44826 0
M  V30 2843 H 267.024 -5.03868 2.57165 0
M  V30 2844 H 265.581 -5.62075 3.30023 0
M  V30 2845 N 269.014 -1.53014 -0.377408 0
M  V30 2846 C 270.242 -1.72515 -1.14219 0
M  V30 2847 C 270.657 -0.448735 -1.8339 0
M  V30 2848 O 270.014 0.577592 -1.73119 0
M  V30 2849 C 270.065 -2.8826 -2.18148 0
M  V30 2850 O 269.786 -4.10962 -1.51795 0
M  V30 2851 C 271.287 -3.19536 -3.07264 0
M  V30 2852 H 268.507 -0.577301 -0.342001 0
M  V30 2853 H 271.051 -1.99712 -0.439935 0
M  V30 2854 H 269.206 -2.63492 -2.83991 0
M  V30 2855 H 269.62 -4.75693 -2.20945 0
M  V30 2856 H 271.094 -4.03959 -3.76193 0
M  V30 2857 H 271.571 -2.34403 -3.71419 0
M  V30 2858 H 272.177 -3.46186 -2.47053 0
M  V30 2859 N 270.492 0.636531 -1.44174 0
M  V30 2860 C 271.908 0.954104 -1.27941 0
M  V30 2861 C 272.108 2.0039 -0.211248 0
M  V30 2862 O 271.164 2.49236 0.404695 0
M  V30 2863 C 272.477 1.4225 -2.64925 0
M  V30 2864 C 274.025 1.53827 -2.72592 0
M  V30 2865 C 274.5 2.04053 -4.10032 0
M  V30 2866 N 275.991 2.11331 -4.12182 0
M  V30 2867 C 276.726 2.51352 -5.15374 0
M  V30 2868 N 276.222 2.90549 -6.2893 0
M  V30 2869 N 278.015 2.51438 -5.02728 0
M  V30 2870 H 270.166 -0.0578386 -2.12321 0
M  V30 2871 H 272.429 0.0367406 -0.947288 0
M  V30 2872 H 272.135 0.725466 -3.44136 0
M  V30 2873 H 272.009 2.39451 -2.9145 0
M  V30 2874 H 274.396 2.22628 -1.93702 0
M  V30 2875 H 274.477 0.550154 -2.49814 0
M  V30 2876 H 274.121 1.35848 -4.89395 0
M  V30 2877 H 274.051 3.03726 -4.30184 0
M  V30 2878 H 276.542 1.83745 -3.30222 0
M  V30 2879 H 276.855 3.19884 -7.03487 0
M  V30 2880 H 275.2 2.88313 -6.32377 0
M  V30 2881 H 278.391 2.20203 -4.13072 0
M  V30 2882 H 278.564 2.82304 -5.83274 0
M  V30 2883 N 271.97 1.30982 0.876444 0
M  V30 2884 C 273.381 1.18277 1.44456 0
M  V30 2885 C 273.732 -0.213265 1.95037 0
M  V30 2886 O 272.857 -1.11057 1.85729 0
M  V30 2887 C 273.452 2.1411 2.62569 0
M  V30 2888 C 272.011 2.05358 3.15444 0
M  V30 2889 C 271.158 2.03706 1.88146 0
M  V30 2890 H 274.109 1.43127 0.685584 0
M  V30 2891 H 274.13 1.72692 3.39054 0
M  V30 2892 H 273.642 3.15706 2.25724 0
M  V30 2893 H 271.743 1.06934 3.56926 0
M  V30 2894 H 271.856 2.94156 3.78166 0
M  V30 2895 H 270.22 1.48629 2.06837 0
M  V30 2896 H 271.003 3.07047 1.53547 0
M  V30 2897 N 273.449 -1.08991 1.13837 0
M  V30 2898 C 274.381 -2.15606 0.777612 0
M  V30 2899 C 275.394 -1.61533 -0.202739 0
M  V30 2900 O 276.583 -1.78491 0.0181055 0
M  V30 2901 C 273.683 -3.3864 0.132623 0
M  V30 2902 C 272.856 -4.22115 1.1462 0
M  V30 2903 C 271.915 -5.23564 0.526074 0
M  V30 2904 O 270.941 -5.56678 1.18735 0
M  V30 2905 N 272.143 -5.76266 -0.699866 0
M  V30 2906 H 274.908 -2.47159 1.69506 0
M  V30 2907 H 272.469 -1.24747 1.03198 0
M  V30 2908 H 274.461 -4.03626 -0.29459 0
M  V30 2909 H 273.031 -3.04938 -0.687849 0
M  V30 2910 H 272.251 -3.53199 1.75055 0
M  V30 2911 H 273.539 -4.74709 1.83109 0
M  V30 2912 H 272.937 -5.51585 -1.25581 0
M  V30 2913 H 271.494 -6.42963 -1.06968 0
M  V30 2914 N 274.927 -0.932562 -1.27047 0
M  V30 2915 C 276.176 -0.571351 -1.93439 0
M  V30 2916 C 276.489 0.892467 -1.74053 0
M  V30 2917 O 277.695 1.36267 -2.34826 0
M  V30 2918 C 276.151 -0.97106 -3.46552 0
M  V30 2919 C 275.759 -2.4559 -3.74686 0
M  V30 2920 C 277.503 -0.681333 -4.18997 0
M  V30 2921 C 275.41 -2.79475 -5.21198 0
M  V30 2922 H 274.34 -0.209966 -0.724176 0
M  V30 2923 H 276.991 -1.13403 -1.44263 0
M  V30 2924 H 275.373 -0.336983 -3.94564 0
M  V30 2925 H 276.547 -3.13829 -3.37414 0
M  V30 2926 H 274.862 -2.71802 -3.15456 0
M  V30 2927 H 277.459 -0.910939 -5.26883 0
M  V30 2928 H 277.802 0.381628 -4.14547 0
M  V30 2929 H 278.335 -1.27473 -3.76823 0
M  V30 2930 H 275.074 -3.847 -5.30741 0
M  V30 2931 H 274.594 -2.1589 -5.596 0
M  V30 2932 H 276.273 -2.67478 -5.89122 0
M  V30 2933 N 276.405 1.4127 -0.698611 0
M  V30 2934 C 277.682 1.94955 -0.158762 0
M  V30 2935 C 278.062 1.63781 1.33188 0
M  V30 2936 O 277.41 0.946423 2.07979 0
M  V30 2937 C 277.62 3.46044 -0.453309 0
M  V30 2938 C 278.968 4.22872 -0.382707 0
M  V30 2939 O 279.992 3.54076 -0.388396 0
M  V30 2940 O 278.851 5.45407 -0.345463 0
M  V30 2941 H 275.945 0.82683 -0.0167505 0
M  V30 2942 H 278.491 1.50971 -0.77498 0
M  V30 2943 H 277.263 3.62028 -1.48498 0
M  V30 2944 H 276.886 3.97128 0.19373 0
M  V30 2945 N 277.883 0.443576 1.51229 0
M  V30 2946 C 278.813 -0.355142 2.30783 0
M  V30 2947 C 279.794 -1.0154 1.36468 0
M  V30 2948 O 280.979 -1.01785 1.65389 0
M  V30 2949 C 278.109 -1.45312 3.15439 0
M  V30 2950 C 277.063 -0.916002 4.18083 0
M  V30 2951 C 276.389 -2.1102 4.91299 0
M  V30 2952 C 277.689 0.0538602 5.22272 0
M  V30 2953 H 279.383 0.308767 2.97804 0
M  V30 2954 H 276.929 0.149937 1.43217 0
M  V30 2955 H 278.882 -2.01914 3.69876 0
M  V30 2956 H 277.606 -2.14541 2.46252 0
M  V30 2957 H 276.265 -0.372145 3.64706 0
M  V30 2958 H 275.913 -2.78882 4.18609 0
M  V30 2959 H 275.613 -1.75717 5.60712 0
M  V30 2960 H 277.137 -2.68164 5.48562 0
M  V30 2961 H 278.551 -0.422069 5.71744 0
M  V30 2962 H 276.948 0.319776 5.99247 0
M  V30 2963 H 278.018 0.98858 4.74716 0
M  V30 2964 N 279.361 -1.56624 0.175154 0
M  V30 2965 C 280.308 -2.18149 -0.753634 0
M  V30 2966 C 281.278 -1.12265 -1.22417 0
M  V30 2967 O 282.463 -1.40432 -1.29165 0
M  V30 2968 C 279.603 -2.82933 -1.97592 0
M  V30 2969 C 278.716 -4.03289 -1.5486 0
M  V30 2970 C 277.851 -4.55988 -2.72485 0
M  V30 2971 C 276.89 -5.68746 -2.26262 0
M  V30 2972 N 276.027 -6.15938 -3.36994 0
M  V30 2973 H 280.867 -2.9717 -0.222195 0
M  V30 2974 H 278.404 -1.46774 -0.0979422 0
M  V30 2975 H 280.362 -3.18653 -2.69288 0
M  V30 2976 H 278.992 -2.06509 -2.481 0
M  V30 2977 H 278.044 -3.73364 -0.728246 0
M  V30 2978 H 279.356 -4.849 -1.16933 0
M  V30 2979 H 278.51 -4.9391 -3.52332 0
M  V30 2980 H 277.249 -3.73443 -3.13674 0
M  V30 2981 H 276.254 -5.30372 -1.44863 0
M  V30 2982 H 277.479 -6.53095 -1.86127 0
M  V30 2983 H 275.425 -5.36321 -3.77751 0
M  V30 2984 H 275.342 -6.92548 -3.03172 0
M  V30 2985 H 276.61 -6.58511 -4.17114 0
M  V30 2986 N 280.839 0.0985539 -1.57292 0
M  V30 2987 C 282.085 0.803867 -1.86188 0
M  V30 2988 C 282.418 1.78549 -0.763794 0
M  V30 2989 O 281.693 1.93153 0.22855 0
M  V30 2990 C 281.976 1.53568 -3.25713 0
M  V30 2991 C 281.829 0.572277 -4.46145 0
M  V30 2992 C 283.148 2.48708 -3.63087 0
M  V30 2993 H 280.267 0.290781 -0.677211 0
M  V30 2994 H 282.909 0.0675783 -1.8988 0
M  V30 2995 H 281.059 2.16332 -3.22696 0
M  V30 2996 H 282.731 -0.0480894 -4.61275 0
M  V30 2997 H 280.974 -0.114618 -4.33649 0
M  V30 2998 H 281.645 1.12139 -5.40489 0
M  V30 2999 H 284.121 1.96039 -3.67026 0
M  V30 3000 H 282.997 2.96932 -4.61652 0
M  V30 3001 H 283.258 3.32309 -2.91588 0
M  V30 3002 N 282.317 1.53212 0.369288 0
M  V30 3003 C 283.28 1.7872 1.43498 0
M  V30 3004 C 284.28 0.657554 1.46741 0
M  V30 3005 O 285.47 0.925736 1.47566 0
M  V30 3006 C 282.602 1.90591 2.82645 0
M  V30 3007 H 283.795 2.73894 1.22156 0
M  V30 3008 H 281.348 1.44233 0.602203 0
M  V30 3009 H 282.083 0.974709 3.09306 0
M  V30 3010 H 281.868 2.72751 2.8169 0
M  V30 3011 H 283.358 2.11931 3.59826 0
M  V30 3012 N 283.795 -0.628877 1.44509 0
M  V30 3013 C 285.02 -1.42048 1.5112 0
M  V30 3014 C 285.445 -1.87594 0.137818 0
M  V30 3015 O 284.803 -1.58873 -0.873437 0
M  V30 3016 C 284.851 -2.61541 2.48251 0
M  V30 3017 O 283.955 -3.61453 1.98559 0
M  V30 3018 H 283.296 -0.424942 0.510216 0
M  V30 3019 H 285.826 -0.767374 1.89664 0
M  V30 3020 H 285.836 -3.09057 2.66361 0
M  V30 3021 H 284.511 -2.27736 3.48007 0
M  V30 3022 H 283.088 -3.20731 1.90227 0
M  V30 3023 N 285.273 -1.31445 -0.869486 0
M  V30 3024 C 286.519 -1.22347 -1.62489 0
M  V30 3025 C 286.874 0.216204 -1.91181 0
M  V30 3026 O 286.167 1.14977 -1.53268 0
M  V30 3027 C 286.361 -2.00145 -2.96102 0
M  V30 3028 C 286.19 -3.51531 -2.80456 0
M  V30 3029 C 284.96 -4.20882 -2.79618 0
M  V30 3030 C 287.158 -4.46471 -2.5528 0
M  V30 3031 N 285.14 -5.58421 -2.55027 0
M  V30 3032 C 286.511 -5.71682 -2.39957 0
M  V30 3033 C 288.566 -4.35892 -2.40629 0
M  V30 3034 C 287.269 -6.87511 -2.11472 0
M  V30 3035 C 289.295 -5.51505 -2.13532 0
M  V30 3036 C 288.657 -6.75707 -1.98998 0
M  V30 3037 H 284.756 -0.502815 -0.598917 0
M  V30 3038 H 287.34 -1.65639 -1.02332 0
M  V30 3039 H 285.511 -1.59221 -3.54264 0
M  V30 3040 H 287.243 -1.83063 -3.60929 0
M  V30 3041 H 283.998 -3.72857 -2.92018 0
M  V30 3042 H 284.422 -6.30841 -2.45701 0
M  V30 3043 H 289.064 -3.40533 -2.50593 0
M  V30 3044 H 286.782 -7.82897 -2.00245 0
M  V30 3045 H 290.368 -5.45238 -2.02995 0
M  V30 3046 H 289.248 -7.63655 -1.78326 0
M  V30 3047 N 286.751 1.08385 -1.14413 0
M  V30 3048 C 287.981 1.8425 -0.934644 0
M  V30 3049 C 288.389 1.81907 0.520234 0
M  V30 3050 O 287.732 1.22126 1.37226 0
M  V30 3051 C 287.794 3.32853 -1.35828 0
M  V30 3052 C 287.458 3.5893 -2.82875 0
M  V30 3053 C 288.455 3.53756 -3.80989 0
M  V30 3054 C 286.14 3.86934 -3.20293 0
M  V30 3055 C 288.134 3.76216 -5.14529 0
M  V30 3056 C 285.821 4.09047 -4.54008 0
M  V30 3057 C 286.819 4.03682 -5.50936 0
M  V30 3058 O 286.507 4.25214 -6.82238 0
M  V30 3059 H 286.239 0.588502 -0.332628 0
M  V30 3060 H 288.793 1.37792 -1.52324 0
M  V30 3061 H 287.023 3.8007 -0.713019 0
M  V30 3062 H 288.712 3.90154 -1.11957 0
M  V30 3063 H 289.478 3.32135 -3.53428 0
M  V30 3064 H 285.357 3.9023 -2.45442 0
M  V30 3065 H 288.901 3.71943 -5.90173 0
M  V30 3066 H 284.798 4.30151 -4.8129 0
M  V30 3067 H 285.566 4.42619 -6.88499 0
M  V30 3068 N 288.23 0.939286 1.26551 0
M  V30 3069 C 289.193 0.451987 2.24699 0
M  V30 3070 C 290.193 -0.435869 1.5478 0
M  V30 3071 O 291.383 -0.235314 1.72603 0
M  V30 3072 C 288.515 -0.348801 3.39111 0
M  V30 3073 H 289.708 1.3193 2.69322 0
M  V30 3074 H 287.261 0.721072 1.38673 0
M  V30 3075 H 287.996 -1.23444 2.99887 0
M  V30 3076 H 287.781 0.287945 3.91041 0
M  V30 3077 H 289.271 -0.679726 4.12031 0
M  V30 3078 N 289.708 -1.40897 0.706093 0
M  V30 3079 C 290.933 -2.05895 0.249435 0
M  V30 3080 C 291.358 -1.52823 -1.09666 0
M  V30 3081 O 290.716 -0.659589 -1.68876 0
M  V30 3082 C 290.764 -3.59872 0.22904 0
M  V30 3083 O 289.868 -4.04708 -0.792784 0
M  V30 3084 H 289.209 -0.653206 0.119241 0
M  V30 3085 H 291.739 -1.80471 0.96391 0
M  V30 3086 H 291.749 -4.07951 0.0634791 0
M  V30 3087 H 290.424 -3.97866 1.21141 0
M  V30 3088 H 289.001 -3.68111 -0.59572 0
M  V30 3089 N 291.186 -0.45159 -1.50991 0
M  V30 3090 C 292.414 0.108334 -2.06616 0
M  V30 3091 C 292.829 1.35224 -1.31757 0
M  V30 3092 O 292.186 1.78475 -0.381174 0
M  V30 3093 C 292.237 0.41619 -3.59096 0
M  V30 3094 O 291.958 -0.778361 -4.3113 0
M  V30 3095 C 293.459 1.02523 -4.31282 0
M  V30 3096 H 290.679 0.00159995 -0.670998 0
M  V30 3097 H 293.223 -0.634771 -1.94399 0
M  V30 3098 H 291.378 1.10921 -3.71181 0
M  V30 3099 H 291.792 -0.511181 -5.22003 0
M  V30 3100 H 293.266 1.19053 -5.39009 0
M  V30 3101 H 293.743 2.01013 -3.905 0
M  V30 3102 H 294.349 0.371173 -4.23677 0
M  V30 3103 N 292.664 1.56529 -0.183458 0
M  V30 3104 C 293.614 2.1515 0.754605 0
M  V30 3105 C 294.598 1.08904 1.18443 0
M  V30 3106 O 295.79 1.34997 1.14476 0
M  V30 3107 C 292.919 2.80531 1.97881 0
M  V30 3108 C 292.005 3.93952 1.57043 0
M  V30 3109 N 292.396 4.98221 0.87231 0
M  V30 3110 C 290.694 4.05338 1.86057 0
M  V30 3111 C 291.395 5.77836 0.669377 0
M  V30 3112 N 290.371 5.29858 1.21454 0
M  V30 3113 H 294.173 2.93132 0.212387 0
M  V30 3114 H 291.687 1.62391 0.0167725 0
M  V30 3115 H 293.684 3.20914 2.6612 0
M  V30 3116 H 292.344 2.04035 2.52586 0
M  V30 3117 H 293.355 5.15191 0.529033 0
M  V30 3118 H 290.032 3.39957 2.42354 0
M  V30 3119 H 291.422 6.71799 0.116422 0
M  V30 3120 N 294.142 -0.090211 1.57342 0
M  V30 3121 C 295.553 -0.644173 1.75235 0
M  V30 3122 C 295.904 -1.78865 0.806335 0
M  V30 3123 O 295.029 -2.16395 -0.0140128 0
M  V30 3124 C 295.624 -1.17532 3.1776 0
M  V30 3125 C 294.183 -1.67531 3.37061 0
M  V30 3126 C 293.33 -0.58693 2.71017 0
M  V30 3127 H 296.281 0.135884 1.58117 0
M  V30 3128 H 296.302 -2.04455 3.20902 0
M  V30 3129 H 295.814 -0.342138 3.86589 0
M  V30 3130 H 293.915 -2.53234 2.73319 0
M  V30 3131 H 294.028 -1.76493 4.45406 0
M  V30 3132 H 292.392 -1.02756 2.33052 0
M  V30 3133 H 293.175 0.235758 3.4249 0
M  V30 3134 N 295.62 -1.53406 -0.361157 0
M  V30 3135 C 296.583 -1.79479 -1.42548 0
M  V30 3136 C 297.583 -0.665327 -1.4639 0
M  V30 3137 O 298.773 -0.933549 -1.47073 0
M  V30 3138 C 295.905 -1.92087 -2.8163 0
M  V30 3139 H 297.098 -2.74538 -1.20701 0
M  V30 3140 H 294.651 -1.4455 -0.594546 0
M  V30 3141 H 295.386 -0.991099 -3.08784 0
M  V30 3142 H 295.171 -2.74241 -2.80239 0
M  V30 3143 H 296.661 -2.13836 -3.58697 0
M  V30 3144 N 297.098 0.621204 -1.44841 0
M  V30 3145 C 298.323 1.41244 -1.51871 0
M  V30 3146 C 298.748 1.87519 -0.147764 0
M  V30 3147 O 298.106 1.59334 0.865 0
M  V30 3148 C 298.154 2.60221 -2.49634 0
M  V30 3149 O 297.258 3.60395 -2.00473 0
M  V30 3150 H 296.599 0.42223 -0.512463 0
M  V30 3151 H 299.129 0.757305 -1.90069 0
M  V30 3152 H 299.139 3.0764 -2.67996 0
M  V30 3153 H 297.814 2.25887 -3.4921 0
M  V30 3154 H 296.391 3.19717 -1.91925 0
M  V30 3155 N 298.576 1.31904 0.862503 0
M  V30 3156 C 299.523 1.20182 1.9704 0
M  V30 3157 C 300.493 0.0858247 1.65878 0
M  V30 3158 O 301.678 0.26 1.8902 0
M  V30 3159 C 298.818 0.922797 3.32533 0
M  V30 3160 C 297.931 2.12284 3.76244 0
M  V30 3161 C 297.066 1.77996 5.00491 0
M  V30 3162 C 296.105 2.94366 5.36671 0
M  V30 3163 N 295.242 2.60223 6.52095 0
M  V30 3164 H 300.082 2.14951 2.06398 0
M  V30 3165 H 297.619 1.06917 1.01031 0
M  V30 3166 H 299.577 0.741548 4.10557 0
M  V30 3167 H 298.207 0.0119227 3.22798 0
M  V30 3168 H 297.259 2.41461 2.9394 0
M  V30 3169 H 298.571 2.99357 3.98982 0
M  V30 3170 H 297.725 1.56377 5.862 0
M  V30 3171 H 296.464 0.881252 4.79672 0
M  V30 3172 H 295.469 3.16625 4.49476 0
M  V30 3173 H 296.694 3.84957 5.59451 0
M  V30 3174 H 294.64 1.72884 6.32809 0
M  V30 3175 H 294.557 3.40827 6.74814 0
M  V30 3176 H 295.825 2.42016 7.40978 0
M  V30 3177 N 300.054 -1.07777 1.14986 0
M  V30 3178 C 301.301 -1.8029 0.922056 0
M  V30 3179 C 301.629 -1.86531 -0.55105 0
M  V30 3180 O 300.884 -1.34189 -1.42449 0
M  V30 3181 C 301.183 -3.25495 1.47608 0
M  V30 3182 C 300.849 -3.39361 2.96893 0
M  V30 3183 C 299.511 -3.42852 3.37647 0
M  V30 3184 C 301.863 -3.42512 3.92854 0
M  V30 3185 C 299.191 -3.47094 4.73015 0
M  V30 3186 C 301.543 -3.4829 5.28088 0
M  V30 3187 C 300.207 -3.50058 5.68345 0
M  V30 3188 H 299.477 -0.659727 0.337404 0
M  V30 3189 H 302.124 -1.26854 1.43459 0
M  V30 3190 H 300.429 -3.81683 0.88463 0
M  V30 3191 H 302.126 -3.80168 1.27568 0
M  V30 3192 H 298.716 -3.37339 2.64387 0
M  V30 3193 H 302.9 -3.3904 3.62444 0
M  V30 3194 H 298.156 -3.46758 5.03556 0
M  V30 3195 H 302.33 -3.49675 6.02246 0
M  V30 3196 H 299.957 -3.53097 6.73221 0
M  V30 3197 N 301.532 -0.945985 -1.26051 0
M  V30 3198 C 302.778 -0.597002 -1.93814 0
M  V30 3199 C 303.111 0.862484 -1.73997 0
M  V30 3200 O 302.386 1.61769 -1.07986 0
M  V30 3201 C 302.669 -0.945937 -3.47454 0
M  V30 3202 C 302.522 -2.46052 -3.76535 0
M  V30 3203 C 303.841 -0.464785 -4.37639 0
M  V30 3204 H 300.96 -0.218366 -0.703907 0
M  V30 3205 H 303.602 -1.18107 -1.48831 0
M  V30 3206 H 301.752 -0.448902 -3.85898 0
M  V30 3207 H 303.424 -3.03065 -3.47778 0
M  V30 3208 H 301.667 -2.90194 -3.22444 0
M  V30 3209 H 302.338 -2.65517 -4.83947 0
M  V30 3210 H 304.814 -0.891016 -4.06448 0
M  V30 3211 H 303.69 -0.737712 -5.4392 0
M  V30 3212 H 303.951 0.635274 -4.37512 0
M  V30 3213 N 303.011 1.40521 -0.713556 0
M  V30 3214 C 304.239 2.05237 -0.261775 0
M  V30 3215 C 304.654 1.53755 1.09567 0
M  V30 3216 O 304.011 0.693268 1.6882 0
M  V30 3217 C 304.062 3.60763 -0.230706 0
M  V30 3218 O 303.783 4.10345 -1.53455 0
M  V30 3219 C 305.284 4.42651 0.239874 0
M  V30 3220 H 302.504 0.660533 -0.118057 0
M  V30 3221 H 305.048 1.79967 -0.971192 0
M  V30 3222 H 303.203 3.8501 0.429661 0
M  V30 3223 H 303.617 5.04526 -1.43366 0
M  V30 3224 H 305.091 5.51599 0.210468 0
M  V30 3225 H 305.568 4.20082 1.28171 0
M  V30 3226 H 306.174 4.23507 -0.390142 0
M  V30 3227 N 304.489 0.459591 1.5075 0
M  V30 3228 C 305.737 -0.0991532 2.01857 0
M  V30 3229 C 306.058 -1.41247 1.34441 0
M  V30 3230 O 305.328 -1.89775 0.486022 0
M  V30 3231 H 303.908 -0.039633 0.745948 0
M  V30 3232 H 306.57 0.607387 1.85194 0
M  V30 3233 H 305.666 -0.258998 3.11023 0
M  V30 3234 N 305.967 -1.56429 0.191757 0
M  V30 3235 C 306.897 -2.21937 -0.725696 0
M  V30 3236 C 307.878 -1.1814 -1.2238 0
M  V30 3237 O 309.063 -1.46636 -1.27325 0
M  V30 3238 C 306.193 -2.87611 -1.94672 0
M  V30 3239 C 305.147 -3.97623 -1.58366 0
M  V30 3240 C 304.473 -4.50446 -2.88102 0
M  V30 3241 C 305.773 -5.16197 -0.796133 0
M  V30 3242 H 307.467 -2.98861 -0.179606 0
M  V30 3243 H 305.013 -1.43749 -0.0849464 0
M  V30 3244 H 306.966 -3.3212 -2.59373 0
M  V30 3245 H 305.69 -2.08087 -2.51728 0
M  V30 3246 H 304.349 -3.53801 -0.960247 0
M  V30 3247 H 303.997 -3.67688 -3.43241 0
M  V30 3248 H 303.697 -5.24675 -2.64556 0
M  V30 3249 H 305.221 -4.97654 -3.53798 0
M  V30 3250 H 306.635 -5.57271 -1.34618 0
M  V30 3251 H 305.032 -5.96471 -0.658928 0
M  V30 3252 H 306.102 -4.84473 0.203478 0
M  V30 3253 N 307.445 0.0818655 -1.57387 0
M  V30 3254 C 308.673 0.796108 -1.9097 0
M  V30 3255 C 309.088 1.71626 -0.786757 0
M  V30 3256 O 308.445 1.80908 0.240513 0
M  V30 3257 C 308.496 1.59829 -3.24248 0
M  V30 3258 O 308.217 0.715131 -4.32224 0
M  V30 3259 C 309.718 2.41442 -3.7178 0
M  V30 3260 H 306.938 0.22691 -0.631469 0
M  V30 3261 H 309.482 0.0551439 -2.04426 0
M  V30 3262 H 307.637 2.29163 -3.12351 0
M  V30 3263 H 308.051 1.27205 -5.08841 0
M  V30 3264 H 309.525 2.932 -4.67694 0
M  V30 3265 H 310.002 3.2051 -3.00283 0
M  V30 3266 H 310.608 1.77283 -3.86589 0
M  V30 3267 N 308.923 1.53595 0.353017 0
M  V30 3268 C 309.886 1.80232 1.41594 0
M  V30 3269 C 310.886 0.673081 1.46035 0
M  V30 3270 O 312.076 0.941335 1.46576 0
M  V30 3271 C 309.208 1.93578 2.80607 0
M  V30 3272 H 310.401 2.75174 1.19244 0
M  V30 3273 H 307.954 1.44864 0.586872 0
M  V30 3274 H 308.689 1.00746 3.08254 0
M  V30 3275 H 308.474 2.75724 2.78781 0
M  V30 3276 H 309.964 2.15735 3.57558 0
M  V30 3277 N 310.401 -0.613514 1.45168 0
M  V30 3278 C 311.364 -1.7065 1.53007 0
M  V30 3279 C 312.364 -1.5548 0.410184 0
M  V30 3280 O 313.554 -1.60656 0.673455 0
M  V30 3281 C 310.686 -3.09875 1.42093 0
M  V30 3282 H 311.879 -1.65068 2.50385 0
M  V30 3283 H 309.432 -0.828728 1.32521 0
M  V30 3284 H 310.167 -3.21039 0.458769 0
M  V30 3285 H 309.952 -3.22293 2.23315 0
M  V30 3286 H 311.442 -3.895 1.50598 0
M  V30 3287 N 311.879 -1.3236 -0.855495 0
M  V30 3288 C 313.125 -1.23054 -1.612 0
M  V30 3289 C 313.458 0.207404 -1.93089 0
M  V30 3290 O 312.733 1.14432 -1.57275 0
M  V30 3291 C 313.016 -2.08937 -2.93287 0
M  V30 3292 C 312.869 -3.61105 -2.68185 0
M  V30 3293 C 314.188 -1.94986 -3.94549 0
M  V30 3294 H 311.307 -0.448364 -0.584926 0
M  V30 3295 H 313.949 -1.62297 -0.987917 0
M  V30 3296 H 312.099 -1.75599 -3.46551 0
M  V30 3297 H 313.771 -4.04652 -2.21483 0
M  V30 3298 H 312.014 -3.83813 -2.02164 0
M  V30 3299 H 312.685 -4.16522 -3.62234 0
M  V30 3300 H 315.161 -2.24189 -3.5054 0
M  V30 3301 H 314.037 -2.57356 -4.84829 0
M  V30 3302 H 314.298 -0.917263 -4.3248 0
M  V30 3303 N 313.357 1.07166 -1.15556 0
M  V30 3304 C 314.606 1.79181 -0.926132 0
M  V30 3305 C 314.919 1.87768 0.547967 0
M  V30 3306 O 316.125 2.56323 0.895036 0
M  V30 3307 C 314.581 3.22 -1.60761 0
M  V30 3308 C 314.189 3.21607 -3.11886 0
M  V30 3309 C 315.933 3.9861 -1.4598 0
M  V30 3310 C 313.84 4.59092 -3.72812 0
M  V30 3311 H 312.77 0.67154 -0.342856 0
M  V30 3312 H 315.421 1.2027 -1.3859 0
M  V30 3313 H 313.803 3.81115 -1.07553 0
M  V30 3314 H 314.977 2.72127 -3.71865 0
M  V30 3315 H 313.292 2.58495 -3.2645 0
M  V30 3316 H 315.889 5.00225 -1.88888 0
M  V30 3317 H 316.232 4.143 -0.407541 0
M  V30 3318 H 316.765 3.45996 -1.96295 0
M  V30 3319 H 313.504 4.48606 -4.77946 0
M  V30 3320 H 313.024 5.08803 -3.17616 0
M  V30 3321 H 314.703 5.28059 -3.73848 0
M  V30 3322 N 314.835 0.952656 1.25548 0
M  V30 3323 C 316.063 0.623496 1.97282 0
M  V30 3324 C 316.478 -0.803987 1.70826 0
M  V30 3325 O 315.835 -1.53755 0.983147 0
M  V30 3326 C 315.886 0.870209 3.5087 0
M  V30 3327 O 315.607 2.24156 3.76412 0
M  V30 3328 C 317.108 0.553164 4.39835 0
M  V30 3329 H 314.328 0.233931 0.628902 0
M  V30 3330 H 316.872 1.27649 1.59768 0
M  V30 3331 H 315.027 0.263652 3.86502 0
M  V30 3332 H 315.441 2.31021 4.70882 0
M  V30 3333 H 316.915 0.776342 5.46513 0
M  V30 3334 H 317.392 -0.512215 4.36203 0
M  V30 3335 H 317.998 1.13896 4.09766 0
M  V30 3336 N 316.313 -1.40141 0.720998 0
M  V30 3337 C 317.59 -1.94677 0.189757 0
M  V30 3338 C 317.97 -1.65879 -1.30566 0
M  V30 3339 O 317.318 -0.979391 -2.06447 0
M  V30 3340 C 317.528 -3.45279 0.508304 0
M  V30 3341 C 318.876 -4.22209 0.449934 0
M  V30 3342 O 319.9 -3.53413 0.444677 0
M  V30 3343 O 318.759 -5.44788 0.432189 0
M  V30 3344 H 315.853 -0.826459 0.0299026 0
M  V30 3345 H 318.399 -1.49719 0.7989 0
M  V30 3346 H 317.171 -3.59619 1.54239 0
M  V30 3347 H 316.794 -3.97386 -0.130525 0
M  V30 3348 N 317.792 -0.46758 -1.50504 0
M  V30 3349 C 319.069 0.15003 -1.95024 0
M  V30 3350 C 319.449 1.57304 -1.40779 0
M  V30 3351 O 318.797 2.20281 -0.607319 0
M  V30 3352 C 319.007 0.0969324 -3.48865 0
M  V30 3353 C 320.355 0.287565 -4.23625 0
M  V30 3354 O 321.379 0.173678 -3.55776 0
M  V30 3355 O 320.238 0.517186 -5.44047 0
M  V30 3356 H 317.332 0.113582 -0.819163 0
M  V30 3357 H 319.878 -0.52773 -1.61286 0
M  V30 3358 H 318.65 -0.896732 -3.80886 0
M  V30 3359 H 318.273 0.816303 -3.8913 0
M  V30 3360 N 319.27 1.56325 -0.20005 0
M  V30 3361 C 320.233 2.18084 0.705132 0
M  V30 3362 C 321.233 1.13666 1.1374 0
M  V30 3363 O 322.423 1.39023 1.04968 0
M  V30 3364 C 319.555 2.78689 1.96329 0
M  V30 3365 H 320.748 2.99435 0.167023 0
M  V30 3366 H 318.301 1.56221 0.0495725 0
M  V30 3367 H 319.036 2.0115 2.5438 0
M  V30 3368 H 318.821 3.55133 1.66202 0
M  V30 3369 H 320.311 3.26096 2.60866 0
M  V30 3370 N 320.748 -0.0735177 1.57428 0
M  V30 3371 C 322.164 -0.428264 1.53747 0
M  V30 3372 C 322.364 -1.79272 0.91998 0
M  V30 3373 O 321.42 -2.47051 0.521745 0
M  V30 3374 C 322.733 -0.370914 2.98404 0
M  V30 3375 C 324.281 -0.451224 3.0973 0
M  V30 3376 C 324.756 -0.4238 4.56035 0
M  V30 3377 N 326.247 -0.483925 4.60665 0
M  V30 3378 C 326.982 -0.484891 5.71346 0
M  V30 3379 N 326.478 -0.440775 6.91396 0
M  V30 3380 N 328.271 -0.531319 5.59583 0
M  V30 3381 H 320.422 0.819949 1.95935 0
M  V30 3382 H 322.685 0.307493 0.896745 0
M  V30 3383 H 322.391 0.564956 3.47133 0
M  V30 3384 H 322.265 -1.18176 3.5821 0
M  V30 3385 H 324.652 -1.37752 2.60976 0
M  V30 3386 H 324.733 0.388167 2.52838 0
M  V30 3387 H 324.377 0.498638 5.05446 0
M  V30 3388 H 324.307 -1.2807 5.10789 0
M  V30 3389 H 326.798 -0.522338 3.74273 0
M  V30 3390 H 327.111 -0.44539 7.71515 0
M  V30 3391 H 325.456 -0.40749 6.93804 0
M  V30 3392 H 328.647 -0.563464 4.64696 0
M  V30 3393 H 328.82 -0.528603 6.4584 0
M  V30 3394 N 322.226 -1.5378 -0.344866 0
M  V30 3395 C 323.472 -1.72158 -1.0832 0
M  V30 3396 C 323.827 -0.478218 -1.86362 0
M  V30 3397 O 323.12 0.529152 -1.84148 0
M  V30 3398 C 323.314 -2.92407 -2.05506 0
M  V30 3399 C 323.143 -4.28318 -1.37017 0
M  V30 3400 C 321.913 -4.92832 -1.11558 0
M  V30 3401 C 324.111 -5.08086 -0.797071 0
M  V30 3402 N 322.093 -6.12619 -0.396358 0
M  V30 3403 C 323.464 -6.1965 -0.208336 0
M  V30 3404 C 325.519 -4.92986 -0.697787 0
M  V30 3405 C 324.222 -7.17763 0.470023 0
M  V30 3406 C 326.248 -5.91391 -0.033171 0
M  V30 3407 C 325.61 -7.02292 0.544599 0
M  V30 3408 H 321.709 -0.683017 -0.380805 0
M  V30 3409 H 324.293 -1.91211 -0.366961 0
M  V30 3410 H 322.464 -2.74857 -2.74423 0
M  V30 3411 H 324.196 -2.9951 -2.72169 0
M  V30 3412 H 320.951 -4.52362 -1.40234 0
M  V30 3413 H 321.375 -6.7698 -0.0515119 0
M  V30 3414 H 326.017 -4.07414 -1.13022 0
M  V30 3415 H 323.735 -8.0291 0.914351 0
M  V30 3416 H 327.321 -5.81784 0.0430009 0
M  V30 3417 H 326.201 -7.77129 1.05073 0
M  V30 3418 N 323.704 0.605807 -1.45491 0
M  V30 3419 C 324.652 1.73754 -1.54636 0
M  V30 3420 C 325.646 1.64207 -0.416219 0
M  V30 3421 O 326.852 1.69979 -0.592199 0
M  V30 3422 H 323.227 0.574073 -0.485741 0
M  V30 3423 H 325.198 1.63169 -2.49837 0
M  V30 3424 C 323.947 3.12135 -1.53189 0
M  V30 3425 H 323.27 3.20141 -2.39478 0
M  V30 3426 H 324.71 3.91147 -1.63645 0
M  V30 3427 C 323.169 3.35921 -0.256616 0
M  V30 3428 O 323.699 3.96194 0.662798 0
M  V30 3429 N 321.905 2.90204 -0.151751 0
M  V30 3430 H 321.452 2.41336 -0.90081 0
M  V30 3431 H 321.41 3.06492 0.700699 0
M  V30 3432 N 325.182 1.32811 0.848464 0
M  V30 3433 C 326.112 1.24882 1.97299 0
M  V30 3434 C 327.093 0.131357 1.69592 0
M  V30 3435 O 328.278 0.319553 1.91553 0
M  V30 3436 C 325.408 0.97746 3.33261 0
M  V30 3437 C 324.362 2.05682 3.75338 0
M  V30 3438 C 323.688 1.63777 5.09 0
M  V30 3439 C 324.988 3.47254 3.90144 0
M  V30 3440 H 326.682 2.18966 2.04191 0
M  V30 3441 H 324.228 1.05413 0.981029 0
M  V30 3442 H 326.181 0.908513 4.1149 0
M  V30 3443 H 324.905 0.000980011 3.266 0
M  V30 3444 H 323.564 2.11603 2.99366 0
M  V30 3445 H 323.212 0.648569 4.98801 0
M  V30 3446 H 322.912 2.36 5.38124 0
M  V30 3447 H 324.436 1.5833 5.89715 0
M  V30 3448 H 325.85 3.43888 4.58709 0
M  V30 3449 H 324.247 4.1788 4.30693 0
M  V30 3450 H 325.317 3.86462 2.92874 0
M  V30 3451 N 326.66 -1.06551 1.16123 0
M  V30 3452 C 327.885 -1.83544 0.965735 0
M  V30 3453 C 328.31 -1.81843 -0.481102 0
M  V30 3454 O 327.668 -1.21732 -1.34354 0
M  V30 3455 C 327.716 -3.28169 1.49457 0
M  V30 3456 O 326.82 -4.0643 0.699157 0
M  V30 3457 H 326.161 -0.568026 0.343864 0
M  V30 3458 H 328.691 -1.34362 1.54299 0
M  V30 3459 H 328.701 -3.78992 1.51092 0
M  V30 3460 H 327.376 -3.28722 2.54784 0
M  V30 3461 H 325.953 -3.65216 0.7531 0
M  V30 3462 N 328.138 -0.959301 -1.25041 0
M  V30 3463 C 329.386 -0.615393 -1.92503 0
M  V30 3464 C 329.707 0.850969 -1.75452 0
M  V30 3465 O 328.977 1.60658 -1.12098 0
M  V30 3466 H 327.557 -0.224613 -0.712431 0
M  V30 3467 H 330.219 -1.21855 -1.5211 0
M  V30 3468 H 329.315 -0.848738 -3.00338 0
M  V30 3469 N 329.616 1.39756 -0.72842 0
M  V30 3470 C 331.032 1.5442 -0.403308 0
M  V30 3471 C 331.232 1.69694 1.08656 0
M  V30 3472 O 330.288 1.69373 1.87267 0
M  V30 3473 C 331.601 2.76555 -1.18058 0
M  V30 3474 C 333.149 2.90384 -1.16815 0
M  V30 3475 C 333.624 4.15449 -1.92785 0
M  V30 3476 N 335.115 4.22475 -1.89918 0
M  V30 3477 C 335.85 5.1818 -2.45514 0
M  V30 3478 N 335.346 6.19714 -3.09719 0
M  V30 3479 N 337.139 5.1035 -2.35584 0
M  V30 3480 H 329.29 1.28089 -1.69431 0
M  V30 3481 H 331.553 0.620327 -0.716867 0
M  V30 3482 H 331.259 2.7159 -2.23455 0
M  V30 3483 H 331.133 3.69033 -0.780662 0
M  V30 3484 H 333.52 2.94846 -0.12234 0
M  V30 3485 H 333.601 1.98988 -1.6074 0
M  V30 3486 H 333.245 4.11749 -2.97364 0
M  V30 3487 H 333.175 5.05877 -1.46272 0
M  V30 3488 H 335.666 3.49743 -1.43138 0
M  V30 3489 H 335.979 6.8919 -3.49625 0
M  V30 3490 H 334.324 6.20121 -3.13807 0
M  V30 3491 H 337.515 4.2996 -1.85072 0
M  V30 3492 H 337.688 5.84761 -2.79211 0
M  V30 3493 N 331.094 0.475555 1.50254 0
M  V30 3494 C 332.371 -0.139685 1.95101 0
M  V30 3495 C 332.751 -1.56555 1.41611 0
M  V30 3496 O 332.099 -2.19956 0.618993 0
M  V30 3497 C 332.309 -0.0784298 3.48912 0
M  V30 3498 C 333.657 -0.265095 4.23772 0
M  V30 3499 O 334.681 -0.154808 3.55863 0
M  V30 3500 O 333.54 -0.488327 5.44314 0
M  V30 3501 H 330.634 -0.109236 0.819754 0
M  V30 3502 H 333.18 0.536276 1.61004 0
M  V30 3503 H 331.952 0.916918 3.80405 0
M  V30 3504 H 331.575 -0.795655 3.89558 0
M  V30 3505 N 332.573 -1.56217 0.208337 0
M  V30 3506 C 333.503 -2.22694 -0.702116 0
M  V30 3507 C 334.484 -1.19432 -1.2112 0
M  V30 3508 O 335.669 -1.47978 -1.25762 0
M  V30 3509 C 332.799 -2.8966 -1.9161 0
M  V30 3510 C 331.753 -3.9928 -1.5414 0
M  V30 3511 C 331.079 -4.53476 -2.83308 0
M  V30 3512 C 332.379 -5.17012 -0.741339 0
M  V30 3513 H 334.073 -2.99034 -0.147898 0
M  V30 3514 H 331.619 -1.43831 -0.0696951 0
M  V30 3515 H 333.572 -3.34852 -2.55836 0
M  V30 3516 H 332.296 -2.10746 -2.49507 0
M  V30 3517 H 330.955 -3.54799 -0.922668 0
M  V30 3518 H 330.603 -3.71308 -3.39322 0
M  V30 3519 H 330.303 -5.27451 -2.58976 0
M  V30 3520 H 331.827 -5.01378 -3.485 0
M  V30 3521 H 333.241 -5.58667 -1.28699 0
M  V30 3522 H 331.638 -5.97137 -0.595627 0
M  V30 3523 H 332.708 -4.8423 0.254851 0
M  V30 3524 N 334.051 0.0651679 -1.57465 0
M  V30 3525 C 335.014 1.06117 -2.03155 0
M  V30 3526 C 336.014 1.31204 -0.929632 0
M  V30 3527 O 337.204 1.26813 -1.19432 0
M  V30 3528 C 334.336 2.4032 -2.41783 0
M  V30 3529 H 335.529 0.667231 -2.92383 0
M  V30 3530 H 333.082 0.311075 -1.53173 0
M  V30 3531 H 333.817 2.84532 -1.55601 0
M  V30 3532 H 333.602 2.23451 -3.22199 0
M  V30 3533 H 335.092 3.11898 -2.77685 0
M  V30 3534 N 335.529 1.53961 0.336706 0
M  V30 3535 C 336.775 1.7179 1.07777 0
M  V30 3536 C 337.108 0.483263 1.88091 0
M  V30 3537 O 336.383 -0.519747 1.87427 0
M  V30 3538 C 336.666 2.98558 2.01334 0
M  V30 3539 C 336.519 4.32245 1.24437 0
M  V30 3540 C 337.838 3.21023 3.01052 0
M  V30 3541 H 334.957 0.625089 0.390426 0
M  V30 3542 H 337.599 1.86641 0.35567 0
M  V30 3543 H 335.749 2.86028 2.62908 0
M  V30 3544 H 337.421 4.56637 0.654243 0
M  V30 3545 H 335.664 4.30344 0.546458 0
M  V30 3546 H 336.335 5.17137 1.93063 0
M  V30 3547 H 338.811 3.32929 2.49595 0
M  V30 3548 H 337.687 4.11104 3.6371 0
M  V30 3549 H 337.948 2.37637 3.72802 0
M  V30 3550 N 337.007 -0.598083 1.45811 0
M  V30 3551 C 337.957 -1.70272 1.51629 0
M  V30 3552 C 338.941 -1.56382 0.378629 0
M  V30 3553 O 340.133 -1.65557 0.626087 0
M  V30 3554 C 337.262 -3.09042 1.49493 0
M  V30 3555 C 336.348 -3.28284 2.68496 0
M  V30 3556 N 336.739 -3.17748 3.93535 0
M  V30 3557 C 335.037 -3.59182 2.64394 0
M  V30 3558 C 335.738 -3.38579 4.7301 0
M  V30 3559 N 334.714 -3.63016 4.04624 0
M  V30 3560 H 338.516 -1.60634 2.46118 0
M  V30 3561 H 336.03 -0.801642 1.41235 0
M  V30 3562 H 338.027 -3.88302 1.51747 0
M  V30 3563 H 336.687 -3.19823 0.560683 0
M  V30 3564 H 337.698 -2.95944 4.25014 0
M  V30 3565 H 334.375 -3.76742 1.79922 0
M  V30 3566 H 335.765 -3.35747 5.82 0
M  V30 3567 N 338.485 -1.33259 -0.841409 0
M  V30 3568 C 339.901 -1.12538 -1.13169 0
M  V30 3569 C 340.101 0.0854037 -2.01319 0
M  V30 3570 O 339.157 0.766417 -2.40587 0
M  V30 3571 C 340.47 -2.41156 -1.79623 0
M  V30 3572 C 342.018 -2.47038 -1.922 0
M  V30 3573 C 342.493 -3.7561 -2.6207 0
M  V30 3574 N 343.984 -3.76667 -2.69585 0
M  V30 3575 C 344.719 -4.72861 -3.2433 0
M  V30 3576 N 344.215 -5.79428 -3.79783 0
M  V30 3577 N 346.008 -4.6034 -3.22558 0
M  V30 3578 H 338.159 -2.10868 -0.254676 0
M  V30 3579 H 340.422 -0.931615 -0.175493 0
M  V30 3580 H 340.128 -3.29747 -1.22311 0
M  V30 3581 H 340.002 -2.53114 -2.79666 0
M  V30 3582 H 342.389 -1.58898 -2.48667 0
M  V30 3583 H 342.47 -2.39022 -0.911148 0
M  V30 3584 H 342.114 -4.64131 -2.06263 0
M  V30 3585 H 342.044 -3.80902 -3.63622 0
M  V30 3586 H 344.535 -2.99648 -2.30259 0
M  V30 3587 H 344.848 -6.48867 -4.19752 0
M  V30 3588 H 343.193 -5.83166 -3.78078 0
M  V30 3589 H 346.384 -3.76244 -2.78492 0
M  V30 3590 H 346.557 -5.35478 -3.64921 0
M  V30 3591 N 339.963 1.05934 -1.16686 0
M  V30 3592 C 340.926 2.11669 -0.879144 0
M  V30 3593 C 341.926 1.60294 0.127445 0
M  V30 3594 O 343.116 1.7389 -0.103865 0
M  V30 3595 C 340.248 3.39438 -0.315425 0
M  V30 3596 H 341.441 2.38626 -1.81653 0
M  V30 3597 H 338.994 1.22058 -0.976299 0
M  V30 3598 H 339.729 3.18132 0.629468 0
M  V30 3599 H 339.514 3.78034 -1.04079 0
M  V30 3600 H 341.004 4.17391 -0.132189 0
M  V30 3601 N 341.441 0.965919 1.2453 0
M  V30 3602 C 342.689 0.625593 1.92174 0
M  V30 3603 C 343.01 -0.841652 1.75901 0
M  V30 3604 O 342.28 -1.60061 1.12948 0
M  V30 3605 H 340.86 0.228388 0.71123 0
M  V30 3606 H 343.522 1.2266 1.51461 0
M  V30 3607 H 342.618 0.864653 2.99884 0
M  V30 3608 N 342.919 -1.39368 0.735821 0
M  V30 3609 C 344.167 -2.00101 0.283562 0
M  V30 3610 C 344.488 -1.5868 -1.13338 0
M  V30 3611 O 343.758 -0.835423 -1.77193 0
M  V30 3612 H 342.338 -0.740024 0.101851 0
M  V30 3613 H 345 -1.70404 0.945962 0
M  V30 3614 H 344.096 -3.10323 0.332604 0
M  V30 3615 N 344.397 -0.483516 -1.5 0
M  V30 3616 C 345.625 0.0644831 -2.06799 0
M  V30 3617 C 346.04 1.32399 -1.34596 0
M  V30 3618 O 345.397 1.77626 -0.418946 0
M  V30 3619 C 345.448 0.339927 -3.59898 0
M  V30 3620 O 345.169 -0.869635 -4.29382 0
M  V30 3621 C 346.67 0.933515 -4.33359 0
M  V30 3622 H 343.89 -0.0126333 -0.670881 0
M  V30 3623 H 346.434 -0.675864 -1.93009 0
M  V30 3624 H 344.589 1.03022 -3.7345 0
M  V30 3625 H 345.003 -0.62179 -5.20801 0
M  V30 3626 H 346.477 1.07593 -5.41413 0
M  V30 3627 H 346.954 1.92685 -3.94676 0
M  V30 3628 H 347.56 0.281221 -4.24369 0
M  V30 3629 N 345.875 1.56104 -0.216619 0
M  V30 3630 C 346.785 2.23694 0.706982 0
M  V30 3631 C 347.801 1.24295 1.21765 0
M  V30 3632 O 348.977 1.57094 1.2603 0
M  V30 3633 C 346.042 2.8998 1.90033 0
M  V30 3634 C 345.103 4.04708 1.43213 0
M  V30 3635 C 344.336 4.67824 2.56859 0
M  V30 3636 O 344.559 4.29913 3.74874 0
M  V30 3637 O 343.493 5.56905 2.28343 0
M  V30 3638 H 347.319 3.03272 0.161235 0
M  V30 3639 H 344.904 1.49394 0.0136177 0
M  V30 3640 H 346.786 3.31837 2.59735 0
M  V30 3641 H 345.461 2.13365 2.43428 0
M  V30 3642 H 344.368 3.6743 0.70327 0
M  V30 3643 H 345.701 4.83051 0.944615 0
M  V30 3644 N 347.353 -0.0568162 1.57498 0
M  V30 3645 C 348.3 -1.06591 2.04712 0
M  V30 3646 C 349.27 -1.3758 0.930644 0
M  V30 3647 O 350.455 -1.48392 1.19935 0
M  V30 3648 C 347.595 -2.3701 2.50839 0
M  V30 3649 C 346.708 -2.12421 3.76167 0
M  V30 3650 C 345.843 -3.36511 4.11015 0
M  V30 3651 C 344.882 -3.07353 5.2934 0
M  V30 3652 N 344.019 -4.23816 5.59754 0
M  V30 3653 H 348.859 -0.65631 2.90683 0
M  V30 3654 H 346.396 -0.312481 1.43743 0
M  V30 3655 H 348.354 -3.13175 2.7564 0
M  V30 3656 H 346.984 -2.75744 1.67825 0
M  V30 3657 H 346.036 -1.2688 3.58616 0
M  V30 3658 H 347.348 -1.86894 4.62463 0
M  V30 3659 H 346.502 -4.21062 4.36797 0
M  V30 3660 H 345.241 -3.65128 3.23315 0
M  V30 3661 H 344.246 -2.212 5.03339 0
M  V30 3662 H 345.471 -2.80043 6.1867 0
M  V30 3663 H 343.417 -4.52436 4.75014 0
M  V30 3664 H 343.334 -4.01614 6.40501 0
M  V30 3665 H 344.602 -5.0932 5.90096 0
M  V30 3666 N 348.832 -1.54138 -0.328536 0
M  V30 3667 C 350.081 -1.71318 -1.06456 0
M  V30 3668 C 350.394 -0.491109 -1.89334 0
M  V30 3669 O 351.6 -0.54416 -2.65991 0
M  V30 3670 C 350.056 -3.03 -1.94214 0
M  V30 3671 C 349.664 -4.32595 -1.16471 0
M  V30 3672 C 351.408 -3.29544 -2.67583 0
M  V30 3673 C 349.315 -5.55341 -2.03347 0
M  V30 3674 H 348.245 -0.638429 -0.401155 0
M  V30 3675 H 350.896 -1.80633 -0.323106 0
M  V30 3676 H 349.278 -2.87579 -2.72239 0
M  V30 3677 H 350.452 -4.58766 -0.432525 0
M  V30 3678 H 348.767 -4.12777 -0.548063 0
M  V30 3679 H 351.364 -4.18444 -3.3288 0
M  V30 3680 H 351.707 -2.47206 -3.34955 0
M  V30 3681 H 352.24 -3.45809 -1.96623 0
M  V30 3682 H 348.979 -6.40268 -1.40491 0
M  V30 3683 H 348.499 -5.33397 -2.74313 0
M  V30 3684 H 350.178 -5.91557 -2.62049 0
M  V30 3685 N 350.31 0.590341 -1.46126 0
M  V30 3686 C 351.726 0.912917 -1.30912 0
M  V30 3687 C 351.926 1.99616 -0.274893 0
M  V30 3688 O 350.982 2.50397 0.325197 0
M  V30 3689 C 352.295 1.3375 -2.69317 0
M  V30 3690 C 353.843 1.45077 -2.77348 0
M  V30 3691 C 354.318 1.90904 -4.16317 0
M  V30 3692 N 355.809 1.9811 -4.18696 0
M  V30 3693 C 356.544 2.34828 -5.23109 0
M  V30 3694 N 356.04 2.70393 -6.37856 0
M  V30 3695 N 357.833 2.35317 -5.10473 0
M  V30 3696 H 349.984 -0.125358 -2.1203 0
M  V30 3697 H 352.247 0.00658481 -0.947977 0
M  V30 3698 H 351.953 0.615614 -3.4627 0
M  V30 3699 H 351.827 2.30058 -2.9892 0
M  V30 3700 H 354.214 2.16353 -2.00687 0
M  V30 3701 H 354.295 0.4704 -2.51438 0
M  V30 3702 H 353.939 1.20209 -4.9347 0
M  V30 3703 H 353.869 2.89886 -4.39629 0
M  V30 3704 H 356.36 1.73146 -3.359 0
M  V30 3705 H 356.673 2.97341 -7.13308 0
M  V30 3706 H 355.018 2.68048 -6.41229 0
M  V30 3707 H 358.209 2.0695 -4.19868 0
M  V30 3708 H 358.382 2.63605 -5.9196 0
M  V30 3709 N 351.788 1.33704 0.83433 0
M  V30 3710 C 352.718 1.26967 1.95963 0
M  V30 3711 C 353.699 0.149337 1.69443 0
M  V30 3712 O 354.884 0.339852 1.91203 0
M  V30 3713 C 352.014 1.01275 3.32206 0
M  V30 3714 C 350.968 2.09652 3.73136 0
M  V30 3715 C 350.294 1.69166 5.07235 0
M  V30 3716 C 351.594 3.51372 3.86439 0
M  V30 3717 H 353.288 2.2112 2.01857 0
M  V30 3718 H 350.834 1.06447 0.969793 0
M  V30 3719 H 352.787 0.952106 4.10503 0
M  V30 3720 H 351.511 0.0356203 3.26581 0
M  V30 3721 H 350.17 2.14766 2.97104 0
M  V30 3722 H 349.818 0.701437 4.98085 0
M  V30 3723 H 349.518 2.41694 5.35591 0
M  V30 3724 H 351.042 1.64576 5.88003 0
M  V30 3725 H 352.456 3.48734 4.55036 0
M  V30 3726 H 350.853 4.22425 4.26236 0
M  V30 3727 H 351.923 3.89546 2.88759 0
M  V30 3728 N 353.266 -1.05314 1.17247 0
M  V30 3729 C 354.229 -2.112 0.890357 0
M  V30 3730 C 355.229 -1.60359 -0.118943 0
M  V30 3731 O 356.419 -1.73833 0.113086 0
M  V30 3732 C 353.551 -3.39266 0.333422 0
M  V30 3733 H 354.744 -2.37659 1.82916 0
M  V30 3734 H 352.297 -1.21538 0.982758 0
M  V30 3735 H 353.032 -3.18462 -0.612587 0
M  V30 3736 H 352.817 -3.77477 1.06082 0
M  V30 3737 H 354.307 -4.17315 0.154322 0
M  V30 3738 N 354.744 -0.972509 -1.24016 0
M  V30 3739 C 356.021 -0.553733 -1.87598 0
M  V30 3740 C 356.401 0.969158 -1.87538 0
M  V30 3741 O 355.749 1.84255 -1.35139 0
M  V30 3742 C 355.959 -1.15076 -3.29482 0
M  V30 3743 C 357.307 -1.23862 -4.06132 0
M  V30 3744 O 358.331 -1.10363 -3.38672 0
M  V30 3745 O 357.19 -1.45252 -5.26844 0
M  V30 3746 H 354.284 -0.185331 -0.805966 0
M  V30 3747 H 356.83 -1.06709 -1.31952 0
M  V30 3748 H 355.602 -2.19333 -3.2405 0
M  V30 3749 H 355.225 -0.621746 -3.92709 0
M  V30 3750 N 356.222 1.38976 -0.743202 0
M  V30 3751 C 357.185 2.28901 -0.117014 0
M  V30 3752 C 358.185 1.46698 0.658503 0
M  V30 3753 O 359.375 1.67274 0.486305 0
M  V30 3754 C 356.507 3.30309 0.84315 0
M  V30 3755 H 357.7 2.8578 -0.909373 0
M  V30 3756 H 355.253 1.47761 -0.509547 0
M  V30 3757 H 355.988 2.785 1.66157 0
M  V30 3758 H 355.773 3.91029 0.289594 0
M  V30 3759 H 357.263 3.97577 1.2776 0
M  V30 3760 N 357.7 0.491464 1.49741 0
M  V30 3761 C 358.663 -0.280906 2.27472 0
M  V30 3762 C 359.663 -0.902454 1.33088 0
M  V30 3763 O 360.853 -0.768465 1.56334 0
M  V30 3764 C 357.985 -1.40209 3.10732 0
M  V30 3765 H 359.178 0.401056 2.97206 0
M  V30 3766 H 356.731 0.246131 1.5435 0
M  V30 3767 H 357.466 -2.11849 2.45541 0
M  V30 3768 H 357.251 -0.961969 3.80117 0
M  V30 3769 H 358.741 -1.9464 3.69466 0
M  V30 3770 N 359.178 -1.55987 0.224894 0
M  V30 3771 C 360.141 -2.19178 -0.670348 0
M  V30 3772 C 361.141 -1.15461 -1.11917 0
M  V30 3773 O 362.331 -1.40675 -1.02743 0
M  V30 3774 C 359.463 -2.81777 -1.9187 0
M  V30 3775 H 360.656 -2.99662 -0.119364 0
M  V30 3776 H 358.209 -1.5628 -0.0247128 0
M  V30 3777 H 358.944 -2.05172 -2.51147 0
M  V30 3778 H 358.729 -3.57732 -1.60531 0
M  V30 3779 H 360.219 -3.30205 -2.55645 0
M  V30 3780 N 360.656 0.0484629 -1.57525 0
M  V30 3781 C 361.902 0.744226 -1.88651 0
M  V30 3782 C 362.235 1.76029 -0.820212 0
M  V30 3783 O 361.51 1.93782 0.166985 0
M  V30 3784 C 361.793 1.43128 -3.30434 0
M  V30 3785 C 361.646 0.43005 -4.47739 0
M  V30 3786 C 362.965 2.37031 -3.70816 0
M  V30 3787 H 360.084 0.269089 -0.68612 0
M  V30 3788 H 362.726 0.00713532 -1.89999 0
M  V30 3789 H 360.876 2.05956 -3.29415 0
M  V30 3790 H 362.548 -0.194816 -4.60888 0
M  V30 3791 H 360.791 -0.252522 -4.33064 0
M  V30 3792 H 361.462 0.948874 -5.43783 0
M  V30 3793 H 363.938 1.84263 -3.73077 0
M  V30 3794 H 362.814 2.82094 -4.70865 0
M  V30 3795 H 363.075 3.22864 -3.02012 0
M  V30 3796 N 362.134 1.5431 0.320358 0
M  V30 3797 C 363.38 1.72924 1.05949 0
M  V30 3798 C 363.713 0.503185 1.87568 0
M  V30 3799 O 362.988 -0.499839 1.87968 0
M  V30 3800 C 363.271 3.00676 1.98156 0
M  V30 3801 C 363.124 4.3354 1.19845 0
M  V30 3802 C 364.443 3.24198 2.9763 0
M  V30 3803 H 361.562 0.629195 0.383774 0
M  V30 3804 H 364.204 1.87008 0.335854 0
M  V30 3805 H 362.354 2.888 2.59859 0
M  V30 3806 H 364.026 4.57305 0.605773 0
M  V30 3807 H 362.269 4.309 0.500784 0
M  V30 3808 H 362.94 5.19156 1.87567 0
M  V30 3809 H 365.416 3.35557 2.4605 0
M  V30 3810 H 364.292 4.14938 3.59329 0
M  V30 3811 H 364.553 2.41577 3.7026 0
M  V30 3812 N 363.613 -0.582584 1.46437 0
M  V30 3813 C 364.89 -1.34276 1.4223 0
M  V30 3814 C 365.27 -2.10835 0.10583 0
M  V30 3815 O 364.618 -2.09485 -0.912596 0
M  V30 3816 C 364.828 -2.26865 2.65204 0
M  V30 3817 C 366.176 -2.88691 3.11356 0
M  V30 3818 O 367.2 -2.37178 2.65753 0
M  V30 3819 O 366.059 -3.82255 3.90568 0
M  V30 3820 H 363.153 -0.603326 0.565621 0
M  V30 3821 H 365.699 -0.603591 1.58603 0
M  V30 3822 H 364.471 -1.69724 3.52576 0
M  V30 3823 H 364.094 -3.08122 2.5129 0
M  V30 3824 N 365.091 -1.34144 -0.827227 0
M  V30 3825 C 366.319 -1.29325 -1.61501 0
M  V30 3826 C 366.734 0.13354 -1.88327 0
M  V30 3827 O 366.091 1.0793 -1.47164 0
M  V30 3828 C 366.142 -2.07746 -2.95844 0
M  V30 3829 O 365.863 -3.4486 -2.70191 0
M  V30 3830 C 367.364 -2.10273 -3.90256 0
M  V30 3831 H 364.584 -0.445069 -0.50215 0
M  V30 3832 H 367.128 -1.76693 -1.02955 0
M  V30 3833 H 365.283 -1.6403 -3.5096 0
M  V30 3834 H 365.697 -3.85345 -3.55822 0
M  V30 3835 H 367.171 -2.69575 -4.81698 0
M  V30 3836 H 367.648 -1.096 -4.25305 0
M  V30 3837 H 368.254 -2.54059 -3.41078 0
M  V30 3838 N 366.569 1.04691 -1.17803 0
M  V30 3839 C 367.499 2.14494 -0.92275 0
M  V30 3840 C 368.48 1.69546 0.137179 0
M  V30 3841 O 369.665 1.94195 -0.0141108 0
M  V30 3842 C 366.795 3.44491 -0.440803 0
M  V30 3843 C 365.749 4.03031 -1.4405 0
M  V30 3844 C 365.075 5.28432 -0.81631 0
M  V30 3845 C 366.375 4.39932 -2.81527 0
M  V30 3846 H 368.069 2.36107 -1.84103 0
M  V30 3847 H 365.615 1.1347 -0.886599 0
M  V30 3848 H 367.568 4.2066 -0.249602 0
M  V30 3849 H 366.292 3.22546 0.513025 0
M  V30 3850 H 364.951 3.28937 -1.61853 0
M  V30 3851 H 364.599 5.02792 0.144511 0
M  V30 3852 H 364.299 5.68559 -1.48371 0
M  V30 3853 H 365.823 6.07284 -0.635496 0
M  V30 3854 H 367.237 5.07113 -2.67412 0
M  V30 3855 H 365.634 4.9109 -3.44892 0
M  V30 3856 H 366.704 3.50045 -3.35554 0
M  V30 3857 N 368.047 0.979072 1.23499 0
M  V30 3858 C 369.272 0.664845 1.96455 0
M  V30 3859 C 369.697 -0.761287 1.72006 0
M  V30 3860 O 369.055 -1.51837 0.990713 0
M  V30 3861 C 369.103 0.959479 3.47601 0
M  V30 3862 O 368.207 0.0508168 4.12369 0
M  V30 3863 H 367.548 0.250185 0.615064 0
M  V30 3864 H 370.078 1.31231 1.5697 0
M  V30 3865 H 370.088 0.895642 3.98048 0
M  V30 3866 H 368.763 1.99876 3.64723 0
M  V30 3867 H 367.34 0.16895 3.72517 0
M  V30 3868 N 369.525 -1.3858 0.750561 0
M  V30 3869 C 370.435 -2.34278 0.122825 0
M  V30 3870 C 371.451 -1.59116 -0.704131 0
M  V30 3871 O 372.627 -1.91326 -0.628987 0
M  V30 3872 C 369.692 -3.38221 -0.762086 0
M  V30 3873 C 368.753 -4.29227 0.078896 0
M  V30 3874 C 367.986 -5.28205 -0.763874 0
M  V30 3875 O 368.209 -5.34112 -2.00201 0
M  V30 3876 O 367.143 -6.01618 -0.18428 0
M  V30 3877 H 370.969 -2.89649 0.913088 0
M  V30 3878 H 368.554 -1.40374 0.511417 0
M  V30 3879 H 370.436 -4.01872 -1.26793 0
M  V30 3880 H 369.111 -2.85211 -1.5309 0
M  V30 3881 H 368.018 -3.68747 0.630621 0
M  V30 3882 H 369.351 -4.85484 0.810289 0
M  V30 3883 N 371.003 -0.499398 -1.49478 0
M  V30 3884 C 372.419 -0.155261 -1.58843 0
M  V30 3885 C 372.619 1.34008 -1.50479 0
M  V30 3886 O 371.675 2.11589 -1.37791 0
M  V30 3887 C 372.988 -0.730636 -2.91689 0
M  V30 3888 C 374.536 -0.696599 -3.0515 0
M  V30 3889 C 375.011 -1.25001 -4.40612 0
M  V30 3890 N 376.502 -1.21064 -4.47099 0
M  V30 3891 C 377.237 -1.60905 -5.50361 0
M  V30 3892 N 376.733 -2.08331 -6.60735 0
M  V30 3893 N 378.526 -1.52331 -5.41065 0
M  V30 3894 H 370.677 -1.47162 -1.53158 0
M  V30 3895 H 372.94 -0.610309 -0.725415 0
M  V30 3896 H 372.646 -1.77928 -3.03372 0
M  V30 3897 H 372.52 -0.190161 -3.7672 0
M  V30 3898 H 374.907 0.343204 -2.93097 0
M  V30 3899 H 374.988 -1.2742 -2.21806 0
M  V30 3900 H 374.632 -2.28859 -4.53416 0
M  V30 3901 H 374.562 -0.64836 -5.22593 0
M  V30 3902 H 377.053 -0.863128 -3.67911 0
M  V30 3903 H 377.366 -2.36805 -7.35624 0
M  V30 3904 H 375.711 -2.12304 -6.6178 0
M  V30 3905 H 378.902 -1.151 -4.53729 0
M  V30 3906 H 379.075 -1.83704 -6.21415 0
M  V30 3907 N 372.481 1.55866 -0.233164 0
M  V30 3908 C 373.728 1.98603 0.395374 0
M  V30 3909 C 374.056 1.12105 1.58942 0
M  V30 3910 O 373.311 0.168656 1.94972 0
M  V30 3911 C 373.61 3.46856 0.861724 0
M  V30 3912 C 373.276 4.50348 -0.223066 0
M  V30 3913 C 371.938 4.78371 -0.521038 0
M  V30 3914 C 374.29 5.12355 -0.956124 0
M  V30 3915 C 371.618 5.6568 -1.55638 0
M  V30 3916 C 373.97 6.00786 -1.98089 0
M  V30 3917 C 372.634 6.27148 -2.28565 0
M  V30 3918 H 371.904 0.726739 0.144677 0
M  V30 3919 H 374.551 1.88491 -0.338114 0
M  V30 3920 H 372.856 3.5423 1.67418 0
M  V30 3921 H 374.553 3.77302 1.35809 0
M  V30 3922 H 371.143 4.28596 0.0193234 0
M  V30 3923 H 375.327 4.90765 -0.739166 0
M  V30 3924 H 370.583 5.84365 -1.798 0
M  V30 3925 H 374.757 6.4788 -2.55391 0
M  V30 3926 H 372.384 6.94597 -3.08932 0
M  V30 3927 N 373.959 -0.0401083 1.57549 0
M  V30 3928 C 375.207 -0.731677 1.8839 0
M  V30 3929 C 375.528 -1.76481 0.829425 0
M  V30 3930 O 374.798 -1.95411 -0.1383 0
M  V30 3931 H 373.378 -0.273225 0.695239 0
M  V30 3932 H 376.04 -0.00867725 1.94898 0
M  V30 3933 H 375.136 -1.22816 2.86919 0
M  V30 3934 N 375.437 -1.54477 -0.31217 0
M  V30 3935 C 376.686 -1.72438 -1.04633 0
M  V30 3936 C 376.999 -0.511163 -1.88803 0
M  V30 3937 O 378.205 -0.572341 -2.65399 0
M  V30 3938 C 376.661 -3.05043 -1.9099 0
M  V30 3939 C 376.269 -4.33806 -1.11877 0
M  V30 3940 C 378.013 -3.32364 -2.64073 0
M  V30 3941 C 375.92 -5.57467 -1.97445 0
M  V30 3942 H 374.85 -0.642647 -0.394361 0
M  V30 3943 H 377.501 -1.80966 -0.303929 0
M  V30 3944 H 375.883 -2.90451 -2.69173 0
M  V30 3945 H 377.057 -4.59199 -0.383843 0
M  V30 3946 H 375.372 -4.13336 -0.504252 0
M  V30 3947 H 377.969 -4.21951 -3.28423 0
M  V30 3948 H 378.312 -2.50745 -3.32314 0
M  V30 3949 H 378.845 -3.47875 -1.92944 0
M  V30 3950 H 375.584 -6.41722 -1.33692 0
M  V30 3951 H 375.104 -5.36277 -2.6864 0
M  V30 3952 H 376.783 -5.94303 -2.5576 0
M  V30 3953 N 376.915 0.57481 -1.46744 0
M  V30 3954 C 377.863 1.70435 -1.58286 0
M  V30 3955 C 378.857 1.63287 -0.450956 0
M  V30 3956 O 380.063 1.68685 -0.628121 0
M  V30 3957 H 376.438 0.56364 -0.497809 0
M  V30 3958 H 378.409 1.57833 -2.53242 0
M  V30 3959 C 377.158 3.08815 -1.59776 0
M  V30 3960 H 376.481 3.1499 -2.46214 0
M  V30 3961 H 377.921 3.87588 -1.71905 0
M  V30 3962 C 376.38 3.35301 -0.327812 0
M  V30 3963 O 376.91 3.97511 0.57861 0
M  V30 3964 N 375.116 2.89816 -0.213274 0
M  V30 3965 H 374.663 2.39371 -0.951798 0
M  V30 3966 H 374.621 3.0791 0.63553 0
M  V30 3967 N 378.394 1.34581 0.820102 0
M  V30 3968 C 379.64 1.27285 1.57881 0
M  V30 3969 C 379.973 -0.156137 1.93571 0
M  V30 3970 O 379.248 -1.10222 1.60254 0
M  V30 3971 C 379.531 2.16639 2.87645 0
M  V30 3972 C 379.384 3.68088 2.58517 0
M  V30 3973 C 380.703 2.05378 3.8924 0
M  V30 3974 H 377.822 0.463714 0.572833 0
M  V30 3975 H 380.464 1.64859 0.944539 0
M  V30 3976 H 378.614 1.84725 3.41773 0
M  V30 3977 H 380.286 4.10382 2.10676 0
M  V30 3978 H 378.529 3.89038 1.91917 0
M  V30 3979 H 379.2 4.2598 3.51063 0
M  V30 3980 H 381.676 2.33404 3.44473 0
M  V30 3981 H 380.552 2.7012 4.77835 0
M  V30 3982 H 380.813 1.0316 4.29896 0
M  V30 3983 N 379.872 -1.04064 1.18357 0
M  V30 3984 C 380.835 -2.10243 0.912707 0
M  V30 3985 C 381.835 -1.60477 -0.101928 0
M  V30 3986 O 383.025 -1.73703 0.131517 0
M  V30 3987 C 380.157 -3.38893 0.369387 0
M  V30 3988 H 381.35 -2.35706 1.85426 0
M  V30 3989 H 378.903 -1.20489 0.995594 0
M  V30 3990 H 379.638 -3.19094 -0.578776 0
M  V30 3991 H 379.423 -3.76331 1.1008 0
M  V30 3992 H 380.913 -4.17128 0.198575 0
M  V30 3993 N 381.35 -0.985608 -1.22978 0
M  V30 3994 C 382.627 -0.573599 -1.87001 0
M  V30 3995 C 383.007 0.949213 -1.88555 0
M  V30 3996 O 382.355 1.82811 -1.37086 0
M  V30 3997 C 382.565 -1.18564 -3.28243 0
M  V30 3998 C 383.913 -1.28163 -4.04796 0
M  V30 3999 O 384.937 -1.13949 -3.37482 0
M  V30 4000 O 383.796 -1.50832 -5.25273 0
M  V30 4001 H 380.89 -0.193868 -0.803955 0
M  V30 4002 H 383.436 -1.08102 -1.30813 0
M  V30 4003 H 382.208 -2.22758 -3.21706 0
M  V30 4004 H 381.831 -0.663363 -3.92027 0
M  V30 4005 N 382.828 1.3818 -0.7579 0
M  V30 4006 C 384.077 1.99261 -0.312744 0
M  V30 4007 C 384.39 1.60846 1.11301 0
M  V30 4008 O 385.596 2.14929 1.65885 0
M  V30 4009 C 384.052 3.56294 -0.50821 0
M  V30 4010 C 383.66 4.03657 -1.94333 0
M  V30 4011 C 385.404 4.24313 -0.125982 0
M  V30 4012 C 383.311 5.53347 -2.08712 0
M  V30 4013 H 382.241 0.745456 -0.113185 0
M  V30 4014 H 384.892 1.57889 -0.935056 0
M  V30 4015 H 383.274 3.95575 0.183353 0
M  V30 4016 H 384.448 3.75655 -2.66871 0
M  V30 4017 H 382.763 3.48376 -2.28086 0
M  V30 4018 H 385.36 5.34279 -0.212125 0
M  V30 4019 H 385.703 4.05962 0.921964 0
M  V30 4020 H 386.236 3.90285 -0.769563 0
M  V30 4021 H 382.975 5.76607 -3.11777 0
M  V30 4022 H 382.495 5.83078 -1.4064 0
M  V30 4023 H 384.174 6.19111 -1.87912 0
M  V30 4024 N 384.306 0.507319 1.49211 0
M  V30 4025 C 385.554 -0.0348839 2.0207 0
M  V30 4026 C 385.875 -1.36898 1.38866 0
M  V30 4027 O 385.145 -1.88133 0.546151 0
M  V30 4028 H 383.725 -0.0158812 0.746831 0
M  V30 4029 H 386.387 0.665998 1.83168 0
M  V30 4030 H 385.483 -0.159917 3.1169 0
M  V30 4031 N 385.784 -1.5574 0.241426 0
M  V30 4032 C 386.694 -2.2479 -0.671305 0
M  V30 4033 C 387.71 -1.26217 -1.19772 0
M  V30 4034 O 388.886 -1.59079 -1.23514 0
M  V30 4035 C 385.951 -2.92966 -1.85396 0
M  V30 4036 C 385.012 -4.06935 -1.36756 0
M  V30 4037 C 384.245 -4.71851 -2.49384 0
M  V30 4038 O 384.468 -4.35823 -3.67987 0
M  V30 4039 O 383.402 -5.60467 -2.19454 0
M  V30 4040 H 387.228 -3.0349 -0.112966 0
M  V30 4041 H 384.813 -1.49397 0.0101513 0
M  V30 4042 H 386.695 -3.35927 -2.54423 0
M  V30 4043 H 385.37 -2.17211 -2.40002 0
M  V30 4044 H 384.277 -3.68503 -0.644726 0
M  V30 4045 H 385.61 -4.84492 -0.867647 0
M  V30 4046 N 387.262 0.0317525 -1.57568 0
M  V30 4047 C 388.678 0.38735 -1.54828 0
M  V30 4048 C 388.878 1.7677 -0.967187 0
M  V30 4049 O 387.934 2.45581 -0.587063 0
M  V30 4050 C 389.247 0.291667 -2.99282 0
M  V30 4051 C 390.795 0.368946 -3.10818 0
M  V30 4052 C 391.27 0.302741 -4.56998 0
M  V30 4053 N 392.761 0.361617 -4.61786 0
M  V30 4054 C 393.496 0.333238 -5.72431 0
M  V30 4055 N 392.992 0.257308 -6.92322 0
M  V30 4056 N 394.785 0.382769 -5.60795 0
M  V30 4057 H 386.936 -0.871609 -1.93692 0
M  V30 4058 H 389.199 -0.331161 -0.888277 0
M  V30 4059 H 388.905 -0.656794 -3.45513 0
M  V30 4060 H 388.779 1.08638 -3.61217 0
M  V30 4061 H 391.166 1.30784 -2.64536 0
M  V30 4062 H 391.247 -0.455066 -2.5172 0
M  V30 4063 H 390.891 -0.632473 -5.03947 0
M  V30 4064 H 390.821 1.14482 -5.14005 0
M  V30 4065 H 393.312 0.422923 -3.75526 0
M  V30 4066 H 393.625 0.24068 -7.72425 0
M  V30 4067 H 391.97 0.223396 -6.94641 0
M  V30 4068 H 395.161 0.44006 -4.66027 0
M  V30 4069 H 395.334 0.357184 -6.47015 0
M  V30 4070 N 388.74 1.54641 0.303973 0
M  V30 4071 C 389.988 1.73437 1.0375 0
M  V30 4072 C 390.309 0.521449 1.87899 0
M  V30 4073 O 389.579 -0.46432 1.90318 0
M  V30 4074 H 388.159 0.639518 0.386039 0
M  V30 4075 H 390.821 1.91988 0.335675 0
M  V30 4076 H 389.917 2.62235 1.69231 0
M  V30 4077 N 390.218 -0.567019 1.47046 0
M  V30 4078 C 391.181 -1.65696 1.58359 0
M  V30 4079 C 392.181 -1.54097 0.459441 0
M  V30 4080 O 393.371 -1.58432 0.724225 0
M  V30 4081 C 390.503 -3.05197 1.51879 0
M  V30 4082 H 391.696 -1.57019 2.5551 0
M  V30 4083 H 389.249 -0.786148 1.3509 0
M  V30 4084 H 389.984 -3.19417 0.560673 0
M  V30 4085 H 389.769 -3.15025 2.33455 0
M  V30 4086 H 391.259 -3.84511 1.62913 0
M  V30 4087 N 391.696 -1.35014 -0.812953 0
M  V30 4088 C 392.626 -1.30069 -1.93919 0
M  V30 4089 C 393.607 -0.176275 -1.69184 0
M  V30 4090 O 394.792 -0.370227 -1.90638 0
M  V30 4091 C 391.922 -1.06547 -3.30552 0
M  V30 4092 C 390.876 -2.15561 -3.69753 0
M  V30 4093 C 390.202 -1.77214 -5.04479 0
M  V30 4094 C 391.502 -3.57476 -3.808 0
M  V30 4095 H 393.196 -2.24303 -1.98314 0
M  V30 4096 H 390.742 -1.07977 -0.952736 0
M  V30 4097 H 392.695 -1.01729 -4.08937 0
M  V30 4098 H 391.419 -0.0875719 -3.26483 0
M  V30 4099 H 390.078 -2.19466 -2.9365 0
M  V30 4100 H 389.726 -0.780589 -4.96906 0
M  V30 4101 H 389.426 -2.50184 -5.31678 0
M  V30 4102 H 390.95 -1.7391 -5.8531 0
M  V30 4103 H 392.364 -3.55929 -4.4943 0
M  V30 4104 H 390.761 -4.29152 -4.19462 0
M  V30 4105 H 391.831 -3.94091 -2.82525 0
M  V30 4106 N 393.175 1.03435 -1.18907 0
M  V30 4107 C 394.085 2.15075 -0.937015 0
M  V30 4108 C 395.101 1.73706 0.101085 0
M  V30 4109 O 396.277 2.01232 -0.0822948 0
M  V30 4110 C 393.342 3.43458 -0.473057 0
M  V30 4111 C 392.403 3.99172 -1.57989 0
M  V30 4112 C 391.636 5.21427 -1.13797 0
M  V30 4113 O 391.859 5.704 0.000725941 0
M  V30 4114 O 390.793 5.69837 -1.9383 0
M  V30 4115 H 394.619 2.39198 -1.87131 0
M  V30 4116 H 392.204 1.13506 -0.971427 0
M  V30 4117 H 394.086 4.20811 -0.222702 0
M  V30 4118 H 392.761 3.20793 0.432869 0
M  V30 4119 H 391.668 3.23178 -1.88433 0
M  V30 4120 H 393.001 4.2619 -2.46217 0
M  V30 4121 N 394.653 0.992116 1.22453 0
M  V30 4122 C 395.881 0.685944 1.95198 0
M  V30 4123 C 396.296 -0.749233 1.73297 0
M  V30 4124 O 395.653 -1.50549 1.03156 0
M  V30 4125 C 395.704 0.981395 3.47924 0
M  V30 4126 O 395.425 2.36018 3.6909 0
M  V30 4127 C 396.926 0.692815 4.37853 0
M  V30 4128 H 394.146 0.253821 0.621141 0
M  V30 4129 H 396.69 1.32668 1.55626 0
M  V30 4130 H 394.845 0.386481 3.85467 0
M  V30 4131 H 395.259 2.45884 4.63294 0
M  V30 4132 H 396.733 0.949818 5.43767 0
M  V30 4133 H 397.21 -0.373181 4.37612 0
M  V30 4134 H 397.816 1.26874 4.05935 0
M  V30 4135 N 396.131 -1.37776 0.765217 0
M  V30 4136 C 397.547 -1.53297 0.444108 0
M  V30 4137 C 397.747 -1.72515 -1.04119 0
M  V30 4138 O 396.803 -1.74278 -1.82711 0
M  V30 4139 C 398.116 -2.73328 1.25349 0
M  V30 4140 C 399.664 -2.87185 1.24473 0
M  V30 4141 C 400.139 -4.10191 2.03733 0
M  V30 4142 N 401.63 -4.17291 2.01053 0
M  V30 4143 C 402.365 -5.11488 2.59166 0
M  V30 4144 N 401.861 -6.11285 3.26041 0
M  V30 4145 N 403.654 -5.03924 2.49032 0
M  V30 4146 H 395.805 -1.23552 1.72768 0
M  V30 4147 H 398.068 -0.601103 0.733062 0
M  V30 4148 H 397.774 -2.6557 2.30577 0
M  V30 4149 H 397.648 -3.66834 0.87823 0
M  V30 4150 H 400.035 -2.94418 0.20047 0
M  V30 4151 H 400.116 -1.94657 1.65959 0
M  V30 4152 H 399.76 -4.0372 3.08176 0
M  V30 4153 H 399.69 -5.01821 1.59633 0
M  V30 4154 H 402.181 -3.45825 1.5236 0
M  V30 4155 H 402.494 -6.79678 3.67774 0
M  V30 4156 H 400.839 -6.11583 3.30138 0
M  V30 4157 H 404.03 -4.24902 1.96407 0
M  V30 4158 H 404.203 -5.77152 2.94617 0
M  V30 4159 N 397.609 -0.515225 -1.4894 0
M  V30 4160 C 398.858 0.0261361 -2.01683 0
M  V30 4161 C 399.171 1.36719 -1.39883 0
M  V30 4162 O 400.377 1.99606 -1.84037 0
M  V30 4163 C 398.833 0.0970111 -3.59769 0
M  V30 4164 C 398.441 -1.23825 -4.30548 0
M  V30 4165 C 400.185 0.587981 -4.20408 0
M  V30 4166 C 398.092 -1.12877 -5.80528 0
M  V30 4167 H 397.022 0.0135398 -0.753878 0
M  V30 4168 H 399.673 -0.656787 -1.71343 0
M  V30 4169 H 398.055 0.844694 -3.86886 0
M  V30 4170 H 399.229 -2.00034 -4.15118 0
M  V30 4171 H 397.544 -1.66379 -3.81716 0
M  V30 4172 H 400.141 0.68763 -5.3026 0
M  V30 4173 H 400.484 1.59026 -3.84729 0
M  V30 4174 H 401.017 -0.103582 -3.97665 0
M  V30 4175 H 397.756 -2.10575 -6.20756 0
M  V30 4176 H 397.276 -0.407799 -5.98412 0
M  V30 4177 H 398.955 -0.813332 -6.41868 0
M  V30 4178 N 399.087 1.5561 -0.249682 0
M  V30 4179 C 400.364 1.90932 0.424761 0
M  V30 4180 C 400.744 1.17078 1.75658 0
M  V30 4181 O 400.092 0.289176 2.26663 0
M  V30 4182 C 400.302 3.43975 0.590109 0
M  V30 4183 C 401.65 4.15281 0.884714 0
M  V30 4184 O 402.674 3.49729 0.67587 0
M  V30 4185 O 401.533 5.31236 1.28259 0
M  V30 4186 H 398.627 0.794815 0.228468 0
M  V30 4187 H 401.173 1.67135 -0.293954 0
M  V30 4188 H 399.945 3.89748 -0.34818 0
M  V30 4189 H 399.568 3.73644 1.35926 0
M  V30 4190 N 400.565 -0.0233959 1.57583 0
M  V30 4191 C 401.475 -1.03907 2.10334 0
M  V30 4192 C 402.491 -1.39257 1.04323 0
M  V30 4193 O 403.667 -1.48462 1.36091 0
M  V30 4194 C 400.732 -2.31938 2.57693 0
M  V30 4195 C 399.793 -2.03117 3.78209 0
M  V30 4196 C 399.026 -3.25043 4.233 0
M  V30 4197 O 399.249 -4.35916 3.67876 0
M  V30 4198 O 398.183 -3.10411 5.15683 0
M  V30 4199 H 402.009 -0.620748 2.97288 0
M  V30 4200 H 399.594 -0.240743 1.47448 0
M  V30 4201 H 401.476 -3.07196 2.88458 0
M  V30 4202 H 400.151 -2.73055 1.73847 0
M  V30 4203 H 399.058 -1.25408 3.52454 0
M  V30 4204 H 400.391 -1.66852 4.63056 0
M  V30 4205 N 402.043 -1.548 -0.295768 0
M  V30 4206 C 402.973 -1.89115 -1.36959 0
M  V30 4207 C 403.954 -0.75059 -1.52644 0
M  V30 4208 O 405.139 -1.00678 -1.66065 0
M  V30 4209 C 402.269 -2.14307 -2.73295 0
M  V30 4210 C 401.223 -3.30151 -2.72368 0
M  V30 4211 C 400.549 -3.40772 -4.12042 0
M  V30 4212 C 401.849 -4.67126 -2.33646 0
M  V30 4213 H 403.543 -2.79053 -1.08488 0
M  V30 4214 H 401.089 -1.34266 -0.520443 0
M  V30 4215 H 403.042 -2.36898 -3.48507 0
M  V30 4216 H 401.766 -1.21145 -3.03301 0
M  V30 4217 H 400.425 -3.0749 -1.99613 0
M  V30 4218 H 400.073 -2.45117 -4.39234 0
M  V30 4219 H 399.773 -4.18645 -4.12322 0
M  V30 4220 H 401.297 -3.6563 -4.89027 0
M  V30 4221 H 402.711 -4.89414 -2.98575 0
M  V30 4222 H 401.108 -5.47751 -2.45129 0
M  V30 4223 H 402.178 -4.67489 -1.28772 0
M  V30 4224 N 403.521 0.559213 -1.47345 0
M  V30 4225 C 404.451 1.67622 -1.62558 0
M  V30 4226 C 405.432 1.63331 -0.475087 0
M  V30 4227 O 406.617 1.80983 -0.704182 0
M  V30 4228 C 403.747 3.0626 -1.63774 0
M  V30 4229 C 402.701 3.25397 -2.7803 0
M  V30 4230 C 402.027 4.64801 -2.64318 0
M  V30 4231 C 403.327 3.10965 -4.19641 0
M  V30 4232 H 405.021 1.55146 -2.56067 0
M  V30 4233 H 402.567 0.744961 -1.23233 0
M  V30 4234 H 404.52 3.84247 -1.73008 0
M  V30 4235 H 403.244 3.1969 -0.66825 0
M  V30 4236 H 401.903 2.49817 -2.68304 0
M  V30 4237 H 401.551 4.75028 -1.65401 0
M  V30 4238 H 401.251 4.78555 -3.40968 0
M  V30 4239 H 402.775 5.44926 -2.75478 0
M  V30 4240 H 404.189 3.78772 -4.30354 0
M  V30 4241 H 402.586 3.36229 -4.97062 0
M  V30 4242 H 403.656 2.07736 -4.38148 0
M  V30 4243 N 404.999 1.35443 0.805782 0
M  V30 4244 C 405.962 1.28301 1.89925 0
M  V30 4245 C 406.962 0.194285 1.59622 0
M  V30 4246 O 408.152 0.448036 1.6834 0
M  V30 4247 C 405.284 0.984997 3.2636 0
M  V30 4248 H 406.477 2.2553 1.97677 0
M  V30 4249 H 404.03 1.19979 1.00173 0
M  V30 4250 H 404.765 0.016603 3.24296 0
M  V30 4251 H 404.55 1.77269 3.4974 0
M  V30 4252 H 406.04 0.960651 4.064 0
M  V30 4253 N 406.477 -1.02803 1.19454 0
M  V30 4254 C 407.893 -1.28473 0.946937 0
M  V30 4255 C 408.093 -1.97881 -0.380202 0
M  V30 4256 O 407.149 -2.26719 -1.11151 0
M  V30 4257 C 408.462 -2.13099 2.12154 0
M  V30 4258 C 410.01 -2.26404 2.16126 0
M  V30 4259 C 410.485 -3.14402 3.33039 0
M  V30 4260 N 411.976 -3.21991 3.32981 0
M  V30 4261 C 412.711 -3.90272 4.20089 0
M  V30 4262 N 412.207 -4.60777 5.17355 0
M  V30 4263 N 414 -3.8668 4.07964 0
M  V30 4264 H 406.151 -0.561665 2.04839 0
M  V30 4265 H 408.414 -0.310438 0.89573 0
M  V30 4266 H 408.12 -1.69422 3.08203 0
M  V30 4267 H 407.994 -3.13813 2.09287 0
M  V30 4268 H 410.381 -2.69311 1.20647 0
M  V30 4269 H 410.462 -1.25237 2.23045 0
M  V30 4270 H 410.106 -2.72204 4.28798 0
M  V30 4271 H 410.036 -4.1563 3.23356 0
M  V30 4272 H 412.527 -2.71778 2.62574 0
M  V30 4273 H 412.84 -5.10513 5.80169 0
M  V30 4274 H 411.185 -4.5964 5.21302 0
M  V30 4275 H 414.376 -3.30739 3.31254 0
M  V30 4276 H 414.549 -4.39621 4.76064 0
M  V30 4277 N 407.956 -0.998596 -1.21925 0
M  V30 4278 C 408.888 -0.511879 -2.23411 0
M  V30 4279 C 409.901 0.396094 -1.57908 0
M  V30 4280 O 411.09 0.197316 -1.77406 0
M  V30 4281 C 408.19 0.276802 -3.37768 0
M  V30 4282 C 407.363 -0.628687 -4.32858 0
M  V30 4283 C 406.422 0.109272 -5.26087 0
M  V30 4284 O 405.448 -0.507237 -5.66935 0
M  V30 4285 N 406.65 1.38983 -5.63617 0
M  V30 4286 H 409.415 -1.38457 -2.658 0
M  V30 4287 H 406.976 -0.873981 -1.36283 0
M  V30 4288 H 408.968 0.77928 -3.97126 0
M  V30 4289 H 407.538 1.05063 -2.94415 0
M  V30 4290 H 406.758 -1.31175 -3.71735 0
M  V30 4291 H 408.046 -1.24514 -4.93329 0
M  V30 4292 H 407.444 1.91194 -5.32411 0
M  V30 4293 H 406.001 1.83739 -6.25367 0
M  V30 4294 N 409.434 1.37368 -0.772513 0
M  V30 4295 C 410.845 1.8231 -0.402493 0
M  V30 4296 C 411.196 1.6436 1.07146 0
M  V30 4297 O 410.321 1.15514 1.82991 0
M  V30 4298 C 410.916 3.30979 -0.723776 0
M  V30 4299 C 409.475 3.74195 -0.406802 0
M  V30 4300 C 408.622 2.59885 -0.967218 0
M  V30 4301 H 411.573 1.25829 -0.967099 0
M  V30 4302 H 411.594 3.80499 -0.00870832 0
M  V30 4303 H 411.106 3.44011 -1.7966 0
M  V30 4304 H 409.207 3.66732 0.658673 0
M  V30 4305 H 409.32 4.7027 -0.915588 0
M  V30 4306 H 407.684 2.51674 -0.391416 0
M  V30 4307 H 408.467 2.7571 -2.04546 0
M  V30 4308 N 410.912 0.523116 1.48665 0
M  V30 4309 C 412.16 -0.0134497 2.02096 0
M  V30 4310 C 412.481 -1.35418 1.40311 0
M  V30 4311 O 411.751 -1.87543 0.566074 0
M  V30 4312 H 410.331 -0.00795915 0.746958 0
M  V30 4313 H 412.993 0.685388 1.82451 0
M  V30 4314 H 412.089 -0.126849 3.11842 0
M  V30 4315 N 412.39 -1.55475 0.257931 0
M  V30 4316 C 413.353 -2.20551 -0.623706 0
M  V30 4317 C 414.353 -1.17809 -1.09443 0
M  V30 4318 O 415.543 -1.42823 -0.997362 0
M  V30 4319 C 412.675 -2.85784 -1.8585 0
M  V30 4320 H 413.868 -2.99848 -0.0557743 0
M  V30 4321 H 411.421 -1.56298 0.0084422 0
M  V30 4322 H 412.156 -2.10453 -2.46739 0
M  V30 4323 H 411.941 -3.61057 -1.52907 0
M  V30 4324 H 413.431 -3.35553 -2.48584 0
M  V30 4325 N 413.868 0.0150385 -1.57593 0
M  V30 4326 C 415.145 0.7392 -1.81094 0
M  V30 4327 C 415.525 1.92817 -0.859344 0
M  V30 4328 O 414.873 2.28301 0.095362 0
M  V30 4329 C 415.083 1.15907 -3.29191 0
M  V30 4330 C 416.431 1.56918 -3.9454 0
M  V30 4331 O 417.455 1.25328 -3.33424 0
M  V30 4332 O 416.314 2.15604 -5.02173 0
M  V30 4333 H 413.408 0.358631 -0.745193 0
M  V30 4334 H 415.954 -0.00926156 -1.69697 0
M  V30 4335 H 414.726 0.310921 -3.90063 0
M  V30 4336 H 414.349 1.96711 -3.45529 0
M  V30 4337 N 415.346 1.54954 0.287554 0
M  V30 4338 C 416.309 1.86076 1.33823 0
M  V30 4339 C 417.309 0.734414 1.43049 0
M  V30 4340 O 418.499 1.00266 1.42452 0
M  V30 4341 C 415.631 2.05305 2.72144 0
M  V30 4342 H 416.824 2.79984 1.07465 0
M  V30 4343 H 414.377 1.47223 0.524902 0
M  V30 4344 H 415.112 1.1373 3.03704 0
M  V30 4345 H 414.897 2.873 2.66836 0
M  V30 4346 H 416.387 2.30706 3.48087 0
M  V30 4347 N 416.824 -0.551391 1.4764 0
M  V30 4348 C 418.235 -1.13349 1.48354 0
M  V30 4349 C 418.586 -1.94709 0.241432 0
M  V30 4350 O 417.711 -2.06306 -0.653205 0
M  V30 4351 C 418.306 -2.0623 2.68802 0
M  V30 4352 C 416.865 -2.597 2.72457 0
M  V30 4353 C 416.012 -1.36201 2.41546 0
M  V30 4354 H 418.963 -0.337698 1.55065 0
M  V30 4355 H 418.984 -2.90196 2.46103 0
M  V30 4356 H 418.496 -1.46987 3.59188 0
M  V30 4357 H 416.597 -3.22724 1.86225 0
M  V30 4358 H 416.71 -3.00296 3.73308 0
M  V30 4359 H 415.074 -1.67068 1.9225 0
M  V30 4360 H 415.857 -0.787425 3.34147 0
M  V30 4361 O 418.341 -1.45728 -0.696113 0
M  V30 4362 H 419.032 -1.39109 -1.3479 0
M  V30 END ATOM
M  V30 BEGIN BOND
M  V30 END BOND
M  V30 END CTAB
M  END
$$$$
