drugbank_target|Q9X022 Alcohol dehydrogenase, iron-containing (DB03461)
 OpenBabel12092120283D

  0  0  0     0  0            999 V3000
M  V30 BEGIN CTAB
M  V30 COUNTS 5653 5709 0 0 0
M  V30 BEGIN ATOM
M  V30 1 H -0.908 1.98254 -0.117106 0
M  V30 2 N 0 1.576 0 0
M  V30 3 C 0.933 2.03868 1.02534 0
M  V30 4 C 1.911 0.928543 1.3348 0
M  V30 5 O 3.095 1.19667 1.45644 0
M  V30 6 C 0.222 2.43627 2.35294 0
M  V30 7 C -0.732 3.65373 2.2001 0
M  V30 8 S 0.101 5.13292 1.52614 0
M  V30 9 C 1.257 5.56322 2.86805 0
M  V30 10 H 1.49 2.90518 0.631377 0
M  V30 11 H -0.977 1.52953 0.210867 0
M  V30 12 H 0.981 2.67203 3.11629 0
M  V30 13 H -0.358 1.57376 2.7183 0
M  V30 14 H -1.165 3.90944 3.18086 0
M  V30 15 H -1.563 3.418 1.51819 0
M  V30 16 H 0.729 5.58782 3.83104 0
M  V30 17 H 1.672 6.56266 2.65933 0
M  V30 18 H 2.08 4.83886 2.90714 0
M  V30 19 N 1.4781 -0.272755 1.55222 0
M  V30 20 C 2.7241 -1.00172 1.77023 0
M  V30 21 C 3.0791 -1.83928 0.564633 0
M  V30 22 O 2.3721 -1.86416 -0.442674 0
M  V30 23 C 2.5661 -1.91642 3.01675 0
M  V30 24 C 2.3951 -1.16888 4.34243 0
M  V30 25 C 1.1651 -0.884464 4.97499 0
M  V30 26 C 3.3631 -0.55919 5.11251 0
M  V30 27 N 1.3451 -0.11015 6.13801 0
M  V30 28 C 2.7161 0.0809469 6.19947 0
M  V30 29 C 4.7711 -0.467058 4.95705 0
M  V30 30 C 3.4741 0.804335 7.14789 0
M  V30 31 C 5.5001 0.242739 5.90902 0
M  V30 32 C 4.8621 0.871613 6.98987 0
M  V30 33 H 0.9611 -0.348529 0.700037 0
M  V30 34 H 3.5451 -0.277365 1.92714 0
M  V30 35 H 1.7161 -2.61303 2.87359 0
M  V30 36 H 3.4481 -2.57901 3.1188 0
M  V30 37 H 0.2031 -1.18979 4.58411 0
M  V30 38 H 0.6271 0.264344 6.76484 0
M  V30 39 H 5.2691 -0.93894 4.12242 0
M  V30 40 H 2.9871 1.2879 7.97771 0
M  V30 41 H 6.5731 0.314347 5.8095 0
M  V30 42 H 5.4531 1.4121 7.71381 0
M  V30 43 N 2.9562 -1.48159 -0.537278 0
M  V30 44 C 3.8662 -1.64807 -1.6696 0
M  V30 45 C 4.8822 -0.530651 -1.65711 0
M  V30 46 O 6.0582 -0.800784 -1.84796 0
M  V30 47 C 3.1232 -1.67708 -3.03438 0
M  V30 48 C 2.1842 -2.91025 -3.156 0
M  V30 49 C 1.4172 -2.93778 -4.45567 0
M  V30 50 O 1.6402 -2.05153 -5.3223 0
M  V30 51 O 0.5742 -3.85868 -4.61941 0
M  V30 52 H 4.4002 -2.6066 -1.55853 0
M  V30 53 H 1.9852 -1.31475 -0.709549 0
M  V30 54 H 3.8672 -1.7218 -3.84619 0
M  V30 55 H 2.5422 -0.750278 -3.14885 0
M  V30 56 H 1.4492 -2.92089 -2.33741 0
M  V30 57 H 2.7822 -3.83065 -3.09066 0
M  V30 58 N 4.4343 0.785586 -1.36625 0
M  V30 59 C 5.6813 1.54362 -1.31067 0
M  V30 60 C 6.0093 1.94195 0.10893 0
M  V30 61 O 5.2643 1.63262 1.07908 0
M  V30 62 C 5.5633 2.83007 -2.1827 0
M  V30 63 C 5.2293 2.62294 -3.6676 0
M  V30 64 C 3.8913 2.56353 -4.0723 0
M  V30 65 C 6.2433 2.43371 -4.6089 0
M  V30 66 C 3.5713 2.29461 -5.39967 0
M  V30 67 C 5.9233 2.18005 -5.93849 0
M  V30 68 C 4.5873 2.105 -6.3344 0
M  V30 69 H 3.8573 0.564851 -0.479609 0
M  V30 70 H 6.5043 0.906028 -1.68711 0
M  V30 71 H 4.8093 3.51253 -1.73576 0
M  V30 72 H 6.5063 3.40817 -2.11292 0
M  V30 73 H 3.0963 2.67774 -3.34656 0
M  V30 74 H 7.2803 2.46959 -4.30494 0
M  V30 75 H 2.5363 2.22135 -5.69619 0
M  V30 76 H 6.7103 2.02359 -6.66351 0
M  V30 77 H 4.3373 1.89425 -7.36222 0
M  V30 78 N 5.9124 1.20967 1.01018 0
M  V30 79 C 7.1424 1.04803 1.78044 0
M  V30 80 C 7.5504 -0.405462 1.84804 0
M  V30 81 O 6.8934 -1.2932 1.30468 0
M  V30 82 C 6.9554 1.56377 3.23707 0
M  V30 83 C 6.6194 3.04767 3.40538 0
M  V30 84 C 7.6164 4.02366 3.29239 0
M  V30 85 C 5.3014 3.43862 3.66147 0
M  V30 86 C 7.2954 5.37049 3.43304 0
M  V30 87 C 4.9824 4.78699 3.79855 0
M  V30 88 C 5.9804 5.75101 3.68439 0
M  V30 89 O 5.6684 7.07493 3.81719 0
M  V30 90 H 5.4004 0.368778 0.56655 0
M  V30 91 H 7.9544 1.60642 1.27997 0
M  V30 92 H 6.1844 0.949297 3.74867 0
M  V30 93 H 7.8734 1.36136 3.8239 0
M  V30 94 H 8.6394 3.73506 3.09384 0
M  V30 95 H 4.5184 2.69364 3.74118 0
M  V30 96 H 8.0624 6.12277 3.34309 0
M  V30 97 H 3.9594 5.07247 3.99213 0
M  V30 98 H 4.7274 7.1483 3.98697 0
M  V30 99 N 7.3905 -1.2043 1.01659 0
M  V30 100 C 8.3235 -2.21924 0.531521 0
M  V30 101 C 9.3015 -1.57054 -0.421032 0
M  V30 102 O 10.4855 -1.85389 -0.341035 0
M  V30 103 C 7.6125 -3.37942 -0.226496 0
M  V30 104 C 6.6585 -4.21115 0.67561 0
M  V30 105 S 7.4915 -4.90674 2.14475 0
M  V30 106 C 8.6475 -6.10113 1.3969 0
M  V30 107 H 8.8805 -2.62725 1.3915 0
M  V30 108 H 6.4135 -1.30481 0.825479 0
M  V30 109 H 8.3715 -4.05196 -0.657738 0
M  V30 110 H 7.0325 -2.956 -1.06205 0
M  V30 111 H 6.2255 -5.03918 0.091108 0
M  V30 112 H 5.8275 -3.59115 1.04463 0
M  V30 113 H 8.1195 -6.7411 0.676897 0
M  V30 114 H 9.0625 -6.73022 2.20107 0
M  V30 115 H 9.4705 -5.57283 0.899786 0
M  V30 116 N 8.8686 -0.792821 -1.36206 0
M  V30 117 C 10.2796 -0.429513 -1.81692 0
M  V30 118 C 10.6306 1.04695 -1.65932 0
M  V30 119 O 9.7556 1.81256 -1.18218 0
M  V30 120 C 10.3506 -0.772831 -3.29868 0
M  V30 121 C 8.9096 -0.462307 -3.7355 0
M  V30 122 C 8.0566 -1.00569 -2.5842 0
M  V30 123 H 11.0076 -0.985672 -1.24379 0
M  V30 124 H 11.0286 -0.0651928 -3.80444 0
M  V30 125 H 10.5406 -1.84747 -3.41307 0
M  V30 126 H 8.6416 0.604158 -3.67669 0
M  V30 127 H 8.7546 -0.985299 -4.68859 0
M  V30 128 H 7.1186 -0.428734 -2.51066 0
M  V30 129 H 7.9016 -2.08616 -2.72643 0
M  V30 130 N 10.3467 1.47872 -0.545128 0
M  V30 131 C 11.5747 2.06889 -0.021084 0
M  V30 132 C 11.9897 1.39955 1.2672 0
M  V30 133 O 11.3467 0.492036 1.75742 0
M  V30 134 C 11.3977 3.60996 0.190817 0
M  V30 135 O 11.1187 4.25419 -1.04644 0
M  V30 136 C 12.6197 4.36849 0.753521 0
M  V30 137 H 9.8397 0.669785 -0.0403635 0
M  V30 138 H 12.3837 1.90049 -0.755095 0
M  V30 139 H 10.5387 3.77391 0.87492 0
M  V30 140 H 10.9527 5.17785 -0.836611 0
M  V30 141 H 12.4267 5.45399 0.851139 0
M  V30 142 H 12.9037 4.02306 1.762 0
M  V30 143 H 13.5097 4.25169 0.105503 0
M  V30 144 N 11.8248 0.280983 1.55075 0
M  V30 145 C 13.1018 -0.386207 1.91749 0
M  V30 146 C 13.4818 -1.73264 1.20594 0
M  V30 147 O 12.8298 -2.26034 0.334784 0
M  V30 148 C 13.0398 -0.520687 3.45094 0
M  V30 149 C 14.3878 -0.800865 4.16979 0
M  V30 150 O 15.4118 -0.605271 3.5102 0
M  V30 151 O 14.2708 -1.1753 5.33712 0
M  V30 152 H 11.3648 -0.212408 0.799257 0
M  V30 153 H 13.9108 0.327568 1.66509 0
M  V30 154 H 12.6828 0.426633 3.88967 0
M  V30 155 H 12.3058 -1.2837 3.76307 0
M  V30 156 N 13.3029 -1.57598 0.00835791 0
M  V30 157 C 14.5489 -1.91211 -0.675732 0
M  V30 158 C 14.8819 -0.883139 -1.72958 0
M  V30 159 O 14.1569 0.097016 -1.94258 0
M  V30 160 C 14.4399 -3.35379 -1.31123 0
M  V30 161 C 14.2929 -4.48999 -0.268356 0
M  V30 162 C 15.6119 -3.7912 -2.23508 0
M  V30 163 H 12.7309 -0.695374 -0.244179 0
M  V30 164 H 15.3729 -1.89901 0.0613655 0
M  V30 165 H 13.5229 -3.36626 -1.93946 0
M  V30 166 H 15.1949 -4.59887 0.360844 0
M  V30 167 H 13.4379 -4.31873 0.408482 0
M  V30 168 H 14.1089 -5.46851 -0.752218 0
M  V30 169 H 16.5849 -3.79477 -1.70693 0
M  V30 170 H 15.4609 -4.80729 -2.64936 0
M  V30 171 H 15.7219 -3.13455 -3.11766 0
M  V30 172 N 14.781 0.264519 -1.55364 0
M  V30 173 C 16.028 0.994986 -1.7637 0
M  V30 174 C 16.356 1.85976 -0.5695 0
M  V30 175 O 15.611 1.90509 0.44776 0
M  V30 176 C 15.91 1.9004 -3.02687 0
M  V30 177 C 15.576 1.19243 -4.34847 0
M  V30 178 C 14.238 0.996709 -4.70764 0
M  V30 179 C 16.59 0.689296 -5.16622 0
M  V30 180 C 13.918 0.285261 -5.86006 0
M  V30 181 C 16.27 -0.00860079 -6.32599 0
M  V30 182 C 14.934 -0.215963 -6.67151 0
M  V30 183 H 14.204 0.364091 -0.645383 0
M  V30 184 H 16.851 0.266543 -1.89636 0
M  V30 185 H 15.156 2.69533 -2.84357 0
M  V30 186 H 16.853 2.46695 -3.16137 0
M  V30 187 H 13.443 1.3549 -4.06621 0
M  V30 188 H 17.627 0.828108 -4.89342 0
M  V30 189 H 12.883 0.113961 -6.11294 0
M  V30 190 H 17.057 -0.406186 -6.95214 0
M  V30 191 H 14.684 -0.769217 -7.56298 0
M  V30 192 N 16.2591 1.48442 0.529413 0
M  V30 193 C 17.5061 1.56488 1.28521 0
M  V30 194 C 17.8341 0.239042 1.93025 0
M  V30 195 O 17.0891 -0.770713 1.79885 0
M  V30 196 C 17.3881 2.6523 2.39558 0
M  V30 197 C 17.0541 4.07648 1.92702 0
M  V30 198 C 15.7161 4.46411 1.79641 0
M  V30 199 C 18.0681 4.96896 1.573 0
M  V30 200 C 15.3961 5.72226 1.29514 0
M  V30 201 C 17.7481 6.23202 1.08636 0
M  V30 202 C 16.4121 6.60821 0.941919 0
M  V30 203 H 15.6821 0.572631 0.470292 0
M  V30 204 H 18.3291 1.82161 0.59072 0
M  V30 205 H 16.6341 2.33419 3.14679 0
M  V30 206 H 18.3311 2.68671 2.97686 0
M  V30 207 H 14.9211 3.77036 2.03819 0
M  V30 208 H 19.1051 4.67626 1.66251 0
M  V30 209 H 14.3611 6.00097 1.17019 0
M  V30 210 H 18.5351 6.91753 0.803136 0
M  V30 211 H 16.1621 7.58198 0.5513 0
M  V30 212 N 17.7372 -0.778329 1.37039 0
M  V30 213 C 18.9852 -1.53361 1.31623 0
M  V30 214 C 19.3062 -1.94739 -0.100831 0
M  V30 215 O 18.5762 -1.65797 -1.04347 0
M  V30 216 H 17.1562 -0.568794 0.484234 0
M  V30 217 H 19.8182 -0.926742 1.71457 0
M  V30 218 H 18.9142 -2.43606 1.95096 0
M  V30 219 N 19.2153 -1.21501 -1.00376 0
M  V30 220 C 20.1253 -0.991447 -2.12621 0
M  V30 221 C 21.1413 0.0568446 -1.73907 0
M  V30 222 O 22.3173 -0.13348 -2.00957 0
M  V30 223 C 19.3823 -0.560312 -3.42142 0
M  V30 224 C 18.4433 -1.68096 -3.95022 0
M  V30 225 C 17.6763 -1.2703 -5.18362 0
M  V30 226 O 17.8993 -0.144438 -5.70217 0
M  V30 227 O 16.8333 -2.08269 -5.64719 0
M  V30 228 H 20.6593 -1.93158 -2.34358 0
M  V30 229 H 18.2443 -0.999999 -1.10997 0
M  V30 230 H 20.1263 -0.329724 -4.20108 0
M  V30 231 H 18.8013 0.351089 -3.2179 0
M  V30 232 H 17.7083 -1.96597 -3.18278 0
M  V30 233 H 19.0413 -2.56983 -4.19786 0
M  V30 234 N 20.6934 1.19889 -1.02296 0
M  V30 235 C 21.6404 2.22901 -0.598651 0
M  V30 236 C 22.6104 1.61588 0.384521 0
M  V30 237 O 23.7954 1.88697 0.282522 0
M  V30 238 C 20.9354 3.45063 0.0504476 0
M  V30 239 C 20.0484 4.20783 -0.978053 0
M  V30 240 C 19.1834 5.30356 -0.299338 0
M  V30 241 C 18.2224 5.97826 -1.31416 0
M  V30 242 N 17.3594 6.98975 -0.661667 0
M  V30 243 H 22.1994 2.58554 -1.48169 0
M  V30 244 H 19.7364 1.27039 -0.741584 0
M  V30 245 H 21.6944 4.14831 0.443971 0
M  V30 246 H 20.3244 3.10084 0.897097 0
M  V30 247 H 19.3764 3.50018 -1.48969 0
M  V30 248 H 20.6884 4.67109 -1.74958 0
M  V30 249 H 19.8424 6.06516 0.149347 0
M  V30 250 H 18.5814 4.85084 0.504445 0
M  V30 251 H 17.5864 5.20422 -1.77317 0
M  V30 252 H 18.8114 6.45183 -2.11933 0
M  V30 253 H 16.7574 6.55886 0.122132 0
M  V30 254 H 16.6744 7.43461 -1.37117 0
M  V30 255 H 17.9424 7.7914 -0.236785 0
M  V30 256 N 22.1715 0.800033 1.35784 0
M  V30 257 C 23.4205 0.37387 1.98205 0
M  V30 258 C 23.7335 -1.06302 1.64193 0
M  V30 259 O 24.9395 -1.59198 2.19928 0
M  V30 260 C 23.3955 0.617532 3.54562 0
M  V30 261 C 23.0035 2.06654 3.9749 0
M  V30 262 C 24.7475 0.256401 4.23725 0
M  V30 263 C 22.6545 2.2563 5.46667 0
M  V30 264 H 21.5845 0.136055 0.741623 0
M  V30 265 H 24.2355 0.983166 1.54939 0
M  V30 266 H 22.6175 -0.0616248 3.95952 0
M  V30 267 H 23.7915 2.78296 3.67271 0
M  V30 268 H 22.1065 2.38691 3.41197 0
M  V30 269 H 24.7035 0.376318 5.33374 0
M  V30 270 H 25.0465 -0.796692 4.08606 0
M  V30 271 H 25.5795 0.889214 3.87734 0
M  V30 272 H 22.3185 3.2936 5.66747 0
M  V30 273 H 21.8385 1.58504 5.78478 0
M  V30 274 H 23.5175 2.06861 6.1304 0
M  V30 275 N 23.6496 -1.47581 0.552962 0
M  V30 276 C 24.5796 -2.32762 -0.185451 0
M  V30 277 C 25.5606 -1.43527 -0.912905 0
M  V30 278 O 26.7456 -1.72388 -0.894201 0
M  V30 279 C 23.8756 -3.25219 -1.21859 0
M  V30 280 C 22.8296 -4.23661 -0.607864 0
M  V30 281 C 22.1556 -5.05413 -1.74533 0
M  V30 282 C 23.4556 -5.20481 0.435582 0
M  V30 283 H 25.1496 -2.94749 0.525684 0
M  V30 284 H 22.6956 -1.41738 0.254251 0
M  V30 285 H 24.6486 -3.8365 -1.7433 0
M  V30 286 H 23.3726 -2.61279 -1.95961 0
M  V30 287 H 22.0316 -3.66451 -0.104489 0
M  V30 288 H 21.6796 -4.3788 -2.47529 0
M  V30 289 H 21.3796 -5.72059 -1.34249 0
M  V30 290 H 22.9036 -5.66701 -2.27338 0
M  V30 291 H 24.3176 -5.733 -0.00290157 0
M  V30 292 H 22.7146 -5.95305 0.757067 0
M  V30 293 H 23.7846 -4.66217 1.33303 0
M  V30 294 N 25.1277 -0.289203 -1.54924 0
M  V30 295 C 26.0377 0.601863 -2.26748 0
M  V30 296 C 27.0537 1.15834 -1.2984 0
M  V30 297 O 28.2297 1.18564 -1.62802 0
M  V30 298 C 25.2947 1.76299 -2.98529 0
M  V30 299 C 24.3557 1.24178 -4.10948 0
M  V30 300 C 23.5887 2.34757 -4.79296 0
M  V30 301 O 23.8117 3.54411 -4.46933 0
M  V30 302 O 22.7457 2.02115 -5.66951 0
M  V30 303 H 26.5717 0.0195879 -3.03694 0
M  V30 304 H 24.1567 -0.0560868 -1.49295 0
M  V30 305 H 26.0387 2.43973 -3.43592 0
M  V30 306 H 24.7137 2.33209 -2.24488 0
M  V30 307 H 23.6207 0.531104 -3.70311 0
M  V30 308 H 24.9537 0.718252 -4.86931 0
M  V30 309 N 26.6058 1.57591 -0.0167156 0
M  V30 310 C 27.5528 2.09462 0.969251 0
M  V30 311 C 28.5228 0.99381 1.33089 0
M  V30 312 O 29.7078 1.26726 1.42636 0
M  V30 313 C 26.8478 2.61622 2.25051 0
M  V30 314 C 25.9608 3.85666 1.94642 0
M  V30 315 C 25.0958 4.26266 3.16972 0
M  V30 316 C 24.1348 5.43101 2.82326 0
M  V30 317 N 23.2718 5.78915 3.97243 0
M  V30 318 H 28.1118 2.93428 0.519997 0
M  V30 319 H 25.6488 1.45044 0.245087 0
M  V30 320 H 27.6068 2.89949 2.99976 0
M  V30 321 H 26.2368 1.80505 2.67615 0
M  V30 322 H 25.2888 3.64145 1.10013 0
M  V30 323 H 26.6008 4.70678 1.65117 0
M  V30 324 H 25.7548 4.55963 4.00228 0
M  V30 325 H 24.4938 3.39996 3.49648 0
M  V30 326 H 23.4988 5.1311 1.97479 0
M  V30 327 H 24.7238 6.3106 2.50879 0
M  V30 328 H 22.6698 4.95602 4.29785 0
M  V30 329 H 22.5868 6.58539 3.71299 0
M  V30 330 H 23.8548 6.13212 4.81239 0
M  V30 331 N 28.0839 -0.256276 1.55502 0
M  V30 332 C 29.4999 -0.604325 1.47716 0
M  V30 333 C 29.6999 -1.88763 0.705039 0
M  V30 334 O 28.7559 -2.51445 0.230613 0
M  V30 335 C 30.0689 -0.715756 2.92057 0
M  V30 336 C 31.6169 -0.808706 3.02372 0
M  V30 337 C 32.0919 -0.951777 4.48001 0
M  V30 338 N 33.5829 -1.01688 4.519 0
M  V30 339 C 34.3179 -1.14668 5.61817 0
M  V30 340 N 33.8139 -1.24261 6.81565 0
M  V30 341 N 35.6069 -1.1791 5.49594 0
M  V30 342 H 27.7579 0.586291 2.04148 0
M  V30 343 H 30.0209 0.201015 0.926443 0
M  V30 344 H 29.7269 0.157027 3.51349 0
M  V30 345 H 29.6009 -1.59071 3.42018 0
M  V30 346 H 31.9879 -1.67195 2.43166 0
M  V30 347 H 32.0689 0.0912063 2.55637 0
M  V30 348 H 31.7129 -0.0931291 5.07815 0
M  V30 349 H 31.6429 -1.86659 4.92408 0
M  V30 350 H 34.1339 -0.954468 3.65648 0
M  V30 351 H 34.4469 -1.34046 7.61086 0
M  V30 352 H 32.7919 -1.21236 6.84344 0
M  V30 353 H 35.9829 -1.10057 4.54978 0
M  V30 354 H 36.1559 -1.27681 6.35296 0
M  V30 355 N 29.562 -1.4872 -0.521534 0
M  V30 356 C 30.81 -1.56857 -1.27437 0
M  V30 357 C 31.131 -0.247982 -1.93417 0
M  V30 358 O 30.401 0.731151 -1.81744 0
M  V30 359 H 28.981 -0.577885 -0.473347 0
M  V30 360 H 31.643 -1.85233 -0.606205 0
M  V30 361 H 30.739 -2.35402 -2.0492 0
M  V30 362 N 31.0401 0.771051 -1.3745 0
M  V30 363 C 31.9881 1.90574 -1.33358 0
M  V30 364 C 32.9821 1.67936 -0.22224 0
M  V30 365 O 34.1881 1.75717 -0.390304 0
M  V30 366 H 30.5631 0.626714 -0.415612 0
M  V30 367 H 32.5341 1.91142 -2.29144 0
M  V30 368 C 31.2831 3.27845 -1.15813 0
M  V30 369 H 30.6061 3.45842 -2.00583 0
M  V30 370 H 32.0461 4.07538 -1.17 0
M  V30 371 C 30.5051 3.36625 0.136165 0
M  V30 372 O 31.0351 3.85785 1.11949 0
M  V30 373 N 29.2411 2.89997 0.187099 0
M  V30 374 H 28.7881 2.50182 -0.613753 0
M  V30 375 H 28.7461 2.96252 1.05272 0
M  V30 376 N 32.5182 1.22032 0.997298 0
M  V30 377 C 33.7672 1.03637 1.73038 0
M  V30 378 C 34.0802 -0.429475 1.90827 0
M  V30 379 O 35.2862 -0.732995 2.61418 0
M  V30 380 C 33.7422 1.80582 3.11317 0
M  V30 381 C 33.3502 3.31387 3.01474 0
M  V30 382 C 35.0942 1.70621 3.88701 0
M  V30 383 C 33.0012 4.00791 4.3488 0
M  V30 384 H 31.9312 0.384179 0.648785 0
M  V30 385 H 34.5822 1.4584 1.11368 0
M  V30 386 H 32.9642 1.31175 3.73643 0
M  V30 387 H 34.1382 3.88155 2.4834 0
M  V30 388 H 32.4532 3.41976 2.37575 0
M  V30 389 H 35.0502 2.19799 4.87434 0
M  V30 390 H 35.3932 0.665823 4.10941 0
M  V30 391 H 35.9262 2.17547 3.33044 0
M  V30 392 H 32.6652 5.05064 4.1784 0
M  V30 393 H 32.1852 3.48811 4.87945 0
M  V30 394 H 33.8642 4.06139 5.03647 0
M  V30 395 N 33.9963 -1.19345 1.0293 0
M  V30 396 C 35.2453 -1.88363 0.721256 0
M  V30 397 C 35.5583 -1.80514 -0.753254 0
M  V30 398 O 36.7643 -2.44788 -1.17436 0
M  V30 399 C 35.2203 -3.37872 1.23978 0
M  V30 400 C 34.8283 -3.54278 2.74211 0
M  V30 401 C 36.5723 -4.12365 1.00775 0
M  V30 402 C 34.4793 -4.97682 3.19479 0
M  V30 403 H 33.4093 -0.705484 0.266098 0
M  V30 404 H 36.0603 -1.34928 1.24365 0
M  V30 405 H 34.4423 -3.90707 0.6453 0
M  V30 406 H 35.6163 -3.11769 3.39318 0
M  V30 407 H 33.9313 -2.93174 2.95699 0
M  V30 408 H 36.5283 -5.18119 1.32123 0
M  V30 409 H 36.8713 -4.16263 -0.0554308 0
M  V30 410 H 37.4043 -3.65668 1.56625 0
M  V30 411 H 34.1433 -4.98945 4.25128 0
M  V30 412 H 33.6633 -5.4095 2.591 0
M  V30 413 H 35.3423 -5.66337 3.12845 0
M  V30 414 N 35.4744 -0.807222 -1.35358 0
M  V30 415 C 36.7514 -0.311126 -1.9311 0
M  V30 416 C 37.1314 1.19937 -1.73719 0
M  V30 417 O 36.4794 1.99918 -1.10657 0
M  V30 418 C 36.6894 -0.723226 -3.41424 0
M  V30 419 C 38.0374 -0.713078 -4.18569 0
M  V30 420 O 39.0614 -0.664811 -3.49941 0
M  V30 421 O 37.9204 -0.772022 -5.41019 0
M  V30 422 H 35.0144 -0.081526 -0.822972 0
M  V30 423 H 37.5604 -0.890962 -1.4443 0
M  V30 424 H 36.3324 -1.76426 -3.4927 0
M  V30 425 H 35.9554 -0.118232 -3.97424 0
M  V30 426 N 36.9525 1.47285 -0.560781 0
M  V30 427 C 37.8825 2.32857 0.173105 0
M  V30 428 C 38.8635 1.44009 0.905281 0
M  V30 429 O 40.0485 1.7286 0.885046 0
M  V30 430 C 37.1785 3.25861 1.20133 0
M  V30 431 C 36.1325 4.23978 0.585388 0
M  V30 432 C 35.4585 5.06332 1.7185 0
M  V30 433 C 36.7585 5.20242 -0.463178 0
M  V30 434 H 38.4525 2.94466 -0.541307 0
M  V30 435 H 35.9985 1.41601 -0.261764 0
M  V30 436 H 37.9515 3.84569 1.72293 0
M  V30 437 H 36.6755 2.62315 1.94573 0
M  V30 438 H 35.3345 3.66501 0.085054 0
M  V30 439 H 34.9825 4.39186 2.45203 0
M  V30 440 H 34.6825 5.72762 1.31213 0
M  V30 441 H 36.2065 5.67899 2.24329 0
M  V30 442 H 37.6205 5.73293 -0.027502 0
M  V30 443 H 36.0175 5.94896 -0.788627 0
M  V30 444 H 37.0875 4.65504 -1.35773 0
M  V30 445 N 38.4306 0.297415 1.54768 0
M  V30 446 C 39.3606 -0.573494 2.26348 0
M  V30 447 C 40.3416 -1.14085 1.26169 0
M  V30 448 O 41.5266 -1.17086 1.54934 0
M  V30 449 C 38.6566 -1.74716 3.00153 0
M  V30 450 C 37.6106 -1.31032 4.07449 0
M  V30 451 C 36.9366 -2.56887 4.68949 0
M  V30 452 C 38.2366 -0.444183 5.20408 0
M  V30 453 H 39.9306 0.0235131 2.99391 0
M  V30 454 H 37.4766 0.0127488 1.43994 0
M  V30 455 H 39.4296 -2.3625 3.48947 0
M  V30 456 H 38.1536 -2.37035 2.24682 0
M  V30 457 H 36.8126 -0.718066 3.59499 0
M  V30 458 H 36.4606 -3.17512 3.90122 0
M  V30 459 H 36.1606 -2.2836 5.41411 0
M  V30 460 H 37.6846 -3.19229 5.20505 0
M  V30 461 H 39.0986 -0.9651 5.65118 0
M  V30 462 H 37.4956 -0.252846 5.99567 0
M  V30 463 H 38.5656 0.531609 4.81977 0
M  V30 464 N 39.9087 -1.5758 0.0250728 0
M  V30 465 C 41.1567 -1.91255 -0.653151 0
M  V30 466 C 41.4777 -0.901691 -1.729 0
M  V30 467 O 40.7477 0.0573785 -1.95816 0
M  V30 468 H 39.3277 -0.705942 -0.244243 0
M  V30 469 H 41.9897 -1.94767 0.0719209 0
M  V30 470 H 41.0857 -2.91752 -1.10847 0
M  V30 471 N 41.3868 0.248026 -1.55636 0
M  V30 472 C 42.3338 1.30707 -1.90222 0
M  V30 473 C 43.3038 1.47881 -0.756332 0
M  V30 474 O 44.4888 1.61883 -1.00988 0
M  V30 475 C 41.6288 2.65769 -2.20138 0
M  V30 476 C 40.7418 2.56612 -3.47526 0
M  V30 477 C 39.8768 3.8402 -3.67017 0
M  V30 478 C 38.9158 3.69476 -4.8801 0
M  V30 479 N 38.0528 4.88774 -5.04029 0
M  V30 480 H 42.8928 1.00512 -2.80538 0
M  V30 481 H 40.4298 0.485055 -1.38873 0
M  V30 482 H 42.3878 3.44386 -2.35487 0
M  V30 483 H 41.0178 2.94115 -1.33027 0
M  V30 484 H 40.0698 1.69571 -3.40514 0
M  V30 485 H 41.3818 2.41774 -4.36287 0
M  V30 486 H 40.5358 4.7108 -3.8232 0
M  V30 487 H 39.2748 4.01754 -2.76487 0
M  V30 488 H 38.2798 2.80799 -4.72686 0
M  V30 489 H 39.5048 3.53238 -5.8 0
M  V30 490 H 37.4508 5.0687 -4.16435 0
M  V30 491 H 37.3678 4.76562 -5.86877 0
M  V30 492 H 38.6358 5.77335 -5.23741 0
M  V30 493 N 42.8649 1.48995 0.513639 0
M  V30 494 C 44.2809 1.35478 0.843682 0
M  V30 495 C 44.4809 0.378213 1.97919 0
M  V30 496 O 43.5369 -0.194689 2.51748 0
M  V30 497 C 44.8499 2.75901 1.1958 0
M  V30 498 C 46.3979 2.84509 1.30474 0
M  V30 499 C 46.8729 4.25671 1.69021 0
M  V30 500 N 48.3639 4.28422 1.76094 0
M  V30 501 C 49.0989 5.34601 2.07338 0
M  V30 502 N 48.5949 6.5104 2.36894 0
M  V30 503 N 50.3879 5.22007 2.08483 0
M  V30 504 H 42.5389 2.11092 -0.235328 0
M  V30 505 H 44.8019 0.947039 -0.0426669 0
M  V30 506 H 44.5079 3.49001 0.434913 0
M  V30 507 H 44.3819 3.10467 2.1422 0
M  V30 508 H 46.7689 2.11655 2.05637 0
M  V30 509 H 46.8499 2.53542 0.339155 0
M  V30 510 H 46.4939 4.99048 0.944135 0
M  V30 511 H 46.4239 4.54094 2.66658 0
M  V30 512 H 48.9149 3.44441 1.55464 0
M  V30 513 H 49.2279 7.2779 2.59887 0
M  V30 514 H 47.5729 6.54287 2.34378 0
M  V30 515 H 50.7639 4.30051 1.84861 0
M  V30 516 H 50.9369 6.04854 2.325 0
M  V30 517 N 44.343 -0.763751 1.37857 0
M  V30 518 C 45.306 -1.85889 1.34081 0
M  V30 519 C 46.306 -1.58949 0.243277 0
M  V30 520 O 47.496 -1.66882 0.499589 0
M  V30 521 C 44.628 -3.23176 1.08489 0
M  V30 522 H 45.821 -1.90648 2.31502 0
M  V30 523 H 43.374 -0.964367 1.23003 0
M  V30 524 H 44.109 -3.24091 0.116318 0
M  V30 525 H 43.894 -3.44124 1.8794 0
M  V30 526 H 45.384 -4.03254 1.08517 0
M  V30 527 N 45.8211 -1.22559 -0.990812 0
M  V30 528 C 46.7511 -1.0218 -2.09956 0
M  V30 529 C 47.7321 0.0579394 -1.70001 0
M  V30 530 O 48.9171 -0.104684 -1.93918 0
M  V30 531 C 46.0471 -0.601023 -3.4206 0
M  V30 532 C 45.0011 -1.62694 -3.95872 0
M  V30 533 C 44.3271 -1.06193 -5.24049 0
M  V30 534 C 45.6271 -3.01743 -4.2632 0
M  V30 535 H 47.3211 -1.94916 -2.27262 0
M  V30 536 H 44.8671 -0.938566 -1.09211 0
M  V30 537 H 46.8201 -0.445561 -4.19038 0
M  V30 538 H 45.5441 0.362005 -3.24588 0
M  V30 539 H 44.2031 -1.77021 -3.21028 0
M  V30 540 H 43.8511 -0.0901903 -5.02919 0
M  V30 541 H 43.5511 -1.74732 -5.61019 0
M  V30 542 H 45.0751 -0.918092 -6.03658 0
M  V30 543 H 46.4891 -2.90777 -4.94087 0
M  V30 544 H 44.8861 -3.67425 -4.74467 0
M  V30 545 H 45.9561 -3.51518 -3.34011 0
M  V30 546 N 47.2992 1.18797 -1.03562 0
M  V30 547 C 48.5452 1.8893 -0.737113 0
M  V30 548 C 48.8782 1.79837 0.732956 0
M  V30 549 O 48.1532 1.19525 1.5344 0
M  V30 550 C 48.4362 3.39607 -1.19745 0
M  V30 551 C 48.2892 3.57537 -2.72924 0
M  V30 552 C 49.6082 4.33069 -0.783526 0
M  V30 553 H 46.7272 0.686057 -0.269249 0
M  V30 554 H 49.3692 1.39797 -1.28673 0
M  V30 555 H 47.5192 3.81583 -0.729855 0
M  V30 556 H 49.1912 3.24688 -3.27682 0
M  V30 557 H 47.4342 3.00363 -3.12993 0
M  V30 558 H 48.1052 4.63238 -3.00191 0
M  V30 559 H 50.5812 3.98846 -1.18581 0
M  V30 560 H 49.4572 5.3707 -1.13343 0
M  V30 561 H 49.7182 4.40986 0.313681 0
M  V30 562 N 48.7773 0.814389 1.34928 0
M  V30 563 C 50.0233 0.399013 1.98836 0
M  V30 564 C 50.3563 -1.03314 1.64438 0
M  V30 565 O 49.6313 -1.71811 0.911659 0
M  V30 566 C 49.9143 0.591629 3.55207 0
M  V30 567 C 49.7673 2.06928 3.99376 0
M  V30 568 C 51.0863 0.022199 4.40094 0
M  V30 569 H 48.2053 0.146451 0.722303 0
M  V30 570 H 50.8473 1.02537 1.59957 0
M  V30 571 H 48.9973 0.0584441 3.88456 0
M  V30 572 H 50.6693 2.66544 3.76499 0
M  V30 573 H 48.9123 2.56287 3.49999 0
M  V30 574 H 49.5833 2.1549 5.08201 0
M  V30 575 H 52.0593 0.477643 4.13349 0
M  V30 576 H 50.9353 0.186832 5.48582 0
M  V30 577 H 51.1963 -1.07215 4.28902 0
M  V30 578 N 50.2554 -1.46986 0.568584 0
M  V30 579 C 51.4834 -2.0683 0.0539956 0
M  V30 580 C 51.8984 -1.41953 -1.24478 0
M  V30 581 O 51.2554 -0.519933 -1.74937 0
M  V30 582 C 51.3064 -3.61254 -0.133362 0
M  V30 583 O 51.0274 -4.237 1.11399 0
M  V30 584 C 52.5284 -4.37992 -0.683927 0
M  V30 585 H 49.7484 -0.669058 0.0510141 0
M  V30 586 H 52.2924 -1.88824 0.785234 0
M  V30 587 H 50.4474 -3.78735 -0.81477 0
M  V30 588 H 50.8614 -5.16388 0.91888 0
M  V30 589 H 52.3354 -5.46684 -0.764263 0
M  V30 590 H 52.8124 -4.05058 -1.69778 0
M  V30 591 H 53.4184 -4.25283 -0.0378494 0
M  V30 592 N 51.7335 -0.305618 -1.54608 0
M  V30 593 C 52.9815 0.301701 -1.99835 0
M  V30 594 C 53.3025 1.54054 -1.19551 0
M  V30 595 O 52.5725 1.93702 -0.292658 0
M  V30 596 H 51.1525 0.114468 -0.738178 0
M  V30 597 H 53.8145 -0.418016 -1.90364 0
M  V30 598 H 52.9105 0.570548 -3.06841 0
M  V30 599 N 53.2116 1.57565 -0.0334293 0
M  V30 600 C 54.1586 2.10478 0.946981 0
M  V30 601 C 55.1286 1.00787 1.32027 0
M  V30 602 O 56.3136 1.28232 1.41284 0
M  V30 603 C 53.4536 2.63994 2.22263 0
M  V30 604 C 52.5666 3.87709 1.90541 0
M  V30 605 C 51.7016 4.29604 3.12433 0
M  V30 606 C 50.7406 5.46065 2.76549 0
M  V30 607 N 49.8776 5.83096 3.9108 0
M  V30 608 H 54.7176 2.93963 0.488846 0
M  V30 609 H 52.2546 1.45296 0.22969 0
M  V30 610 H 54.2126 2.93114 2.96884 0
M  V30 611 H 52.8426 1.83333 2.65685 0
M  V30 612 H 51.8946 3.65291 1.06144 0
M  V30 613 H 53.2066 4.72403 1.60116 0
M  V30 614 H 52.3606 4.60182 3.9537 0
M  V30 615 H 51.0996 3.43685 3.46023 0
M  V30 616 H 50.1046 5.15176 1.92026 0
M  V30 617 H 51.3296 6.33685 2.44171 0
M  V30 618 H 49.2756 5.00132 4.24504 0
M  V30 619 H 49.1926 6.6244 3.64293 0
M  V30 620 H 50.4606 6.18282 4.74708 0
M  V30 621 N 54.6897 -0.239769 1.55765 0
M  V30 622 C 55.9147 -0.988373 1.82335 0
M  V30 623 C 56.3397 -1.77886 0.611421 0
M  V30 624 O 55.6977 -1.75889 -0.439639 0
M  V30 625 C 55.7457 -1.89627 3.06715 0
M  V30 626 O 54.8497 -2.98904 2.84131 0
M  V30 627 H 54.1907 -0.280858 0.601677 0
M  V30 628 H 56.7207 -0.258597 2.02959 0
M  V30 629 H 56.7307 -2.30957 3.36338 0
M  V30 630 H 55.4057 -1.31511 3.9456 0
M  V30 631 H 53.9827 -2.61651 2.65694 0
M  V30 632 N 56.1678 -1.49265 -0.50573 0
M  V30 633 C 57.3928 -1.62478 -1.28902 0
M  V30 634 C 57.8178 -0.294332 -1.85783 0
M  V30 635 O 57.1758 0.737412 -1.65626 0
M  V30 636 C 57.2238 -2.69268 -2.39848 0
M  V30 637 O 56.3278 -2.28113 -3.43567 0
M  V30 638 H 55.6688 -0.54399 -0.380751 0
M  V30 639 H 58.1988 -1.95421 -0.605952 0
M  V30 640 H 58.2088 -2.91291 -2.85681 0
M  V30 641 H 56.8838 -3.65846 -1.97812 0
M  V30 642 H 55.4608 -2.16401 -3.03685 0
M  V30 643 N 57.6459 0.756429 -1.3826 0
M  V30 644 C 58.8709 1.55077 -1.37717 0
M  V30 645 C 59.2959 1.88073 0.03164 0
M  V30 646 O 58.6539 1.50364 1.01293 0
M  V30 647 C 58.7019 2.8283 -2.23695 0
M  V30 648 O 57.8059 3.77862 -1.6521 0
M  V30 649 H 57.1469 0.469152 -0.469885 0
M  V30 650 H 59.6769 0.935019 -1.81985 0
M  V30 651 H 59.6869 3.31783 -2.37453 0
M  V30 652 H 58.3619 2.58144 -3.2609 0
M  V30 653 H 56.9389 3.36555 -1.60578 0
M  V30 654 N 59.124 1.23083 0.984299 0
M  V30 655 C 60.071 1.00854 2.07598 0
M  V30 656 C 61.041 -0.0726709 1.65941 0
M  V30 657 O 62.226 0.0786535 1.90638 0
M  V30 658 C 59.366 0.601645 3.39815 0
M  V30 659 C 58.479 1.75456 3.94765 0
M  V30 660 C 57.614 1.29482 5.15177 0
M  V30 661 C 56.653 2.41873 5.62284 0
M  V30 662 N 55.79 1.96885 6.73929 0
M  V30 663 H 60.63 1.943 2.25946 0
M  V30 664 H 58.167 0.968001 1.10762 0
M  V30 665 H 60.125 0.346854 4.15756 0
M  V30 666 H 58.755 -0.295803 3.21442 0
M  V30 667 H 57.807 2.12346 3.15616 0
M  V30 668 H 59.119 2.59965 4.25699 0
M  V30 669 H 58.273 0.997923 5.98437 0
M  V30 670 H 57.012 0.420046 4.85888 0
M  V30 671 H 56.017 2.72342 4.77608 0
M  V30 672 H 57.242 3.29881 5.93595 0
M  V30 673 H 55.188 1.11782 6.46406 0
M  V30 674 H 55.105 2.74956 7.04227 0
M  V30 675 H 56.373 1.70289 7.60672 0
M  V30 676 N 60.6021 -1.18246 1.0419 0
M  V30 677 C 61.5491 -2.2192 0.634037 0
M  V30 678 C 62.5191 -1.62179 -0.358765 0
M  V30 679 O 63.7041 -1.89122 -0.252466 0
M  V30 680 C 60.8441 -3.451 0.00445535 0
M  V30 681 C 59.9571 -4.19174 1.04487 0
M  V30 682 C 59.0921 -5.29813 0.383676 0
M  V30 683 C 58.1311 -5.9566 1.4091 0
M  V30 684 N 57.2681 -6.97834 0.772784 0
M  V30 685 H 62.1081 -2.56164 1.52263 0
M  V30 686 H 59.6451 -1.25843 0.761701 0
M  V30 687 H 61.6031 -4.15485 -0.377919 0
M  V30 688 H 60.2331 -3.11472 -0.847652 0
M  V30 689 H 59.2851 -3.47604 1.54518 0
M  V30 690 H 60.5971 -4.64267 1.82368 0
M  V30 691 H 59.7511 -6.06677 -0.0528366 0
M  V30 692 H 58.4901 -4.85825 -0.427208 0
M  V30 693 H 57.4951 -5.17535 1.85574 0
M  V30 694 H 58.7201 -6.4173 2.22171 0
M  V30 695 H 56.6661 -6.55998 -0.0177708 0
M  V30 696 H 56.5831 -7.41186 1.48928 0
M  V30 697 H 57.8511 -7.78665 0.36071 0
M  V30 698 N 62.0802 -0.821533 -1.34494 0
M  V30 699 C 63.0282 -0.230702 -2.31453 0
M  V30 700 C 64.0222 0.627793 -1.57338 0
M  V30 701 O 65.2282 0.519288 -1.72347 0
M  V30 702 H 61.6032 -0.0558577 -0.749923 0
M  V30 703 H 63.5742 -1.06332 -2.78812 0
M  V30 704 C 62.3232 0.59391 -3.4259 0
M  V30 705 H 61.6462 -0.0573588 -3.99759 0
M  V30 706 H 63.0862 0.973446 -4.12674 0
M  V30 707 C 61.5452 1.76568 -2.86924 0
M  V30 708 O 62.0752 2.8638 -2.81691 0
M  V30 709 N 60.2812 1.58198 -2.43766 0
M  V30 710 H 59.8282 0.68872 -2.48222 0
M  V30 711 H 59.7862 2.36752 -2.06871 0
M  V30 712 N 63.5583 1.46682 -0.576371 0
M  V30 713 C 64.8063 2.02013 -0.0594163 0
M  V30 714 C 65.1273 1.45101 1.30271 0
M  V30 715 O 64.3973 0.633317 1.8538 0
M  V30 716 H 62.9773 0.746759 -0.0189745 0
M  V30 717 H 65.6393 1.79862 -0.750717 0
M  V30 718 H 64.7353 3.12097 0.014345 0
M  V30 719 N 65.0364 0.313813 1.54444 0
M  V30 720 C 66.2614 -0.296681 2.05267 0
M  V30 721 C 66.6864 -1.45757 1.18897 0
M  V30 722 O 66.0444 -1.80239 0.195886 0
M  V30 723 C 66.0924 -0.71831 3.53373 0
M  V30 724 O 65.1964 -1.82175 3.69981 0
M  V30 725 H 64.5374 -0.0554061 0.661684 0
M  V30 726 H 67.0674 0.459387 1.99376 0
M  V30 727 H 67.0774 -1.00364 3.95463 0
M  V30 728 H 65.7524 0.130821 4.15694 0
M  V30 729 H 64.3294 -1.53598 3.39797 0
M  V30 730 N 66.5145 -1.57545 0.0417849 0
M  V30 731 C 67.4445 -2.14009 -0.933929 0
M  V30 732 C 68.4255 -1.05938 -1.33083 0
M  V30 733 O 69.6105 -1.33833 -1.40721 0
M  V30 734 C 66.7405 -2.67747 -2.21199 0
M  V30 735 C 65.6945 -3.80718 -1.95544 0
M  V30 736 C 65.0205 -4.20935 -3.29724 0
M  V30 737 C 66.3205 -5.06258 -1.28452 0
M  V30 738 H 68.0145 -2.95788 -0.463645 0
M  V30 739 H 65.5605 -1.42285 -0.221573 0
M  V30 740 H 67.5135 -3.05886 -2.89848 0
M  V30 741 H 66.2375 -1.83147 -2.70416 0
M  V30 742 H 64.8965 -3.43037 -1.2931 0
M  V30 743 H 64.5445 -3.33298 -3.76724 0
M  V30 744 H 64.2445 -4.9707 -3.13361 0
M  V30 745 H 65.7685 -4.61666 -3.9962 0
M  V30 746 H 67.1825 -5.41903 -1.8712 0
M  V30 747 H 65.5795 -5.87475 -1.22445 0
M  V30 748 H 66.6495 -4.84207 -0.259219 0
M  V30 749 N 67.9926 0.231505 -1.5589 0
M  V30 750 C 69.2696 0.981096 -1.69215 0
M  V30 751 C 69.6496 2.02799 -0.586164 0
M  V30 752 O 68.9976 2.24823 0.408253 0
M  V30 753 C 69.2076 1.60054 -3.10135 0
M  V30 754 C 70.5556 2.09658 -3.69227 0
M  V30 755 O 71.5796 1.69967 -3.13033 0
M  V30 756 O 70.4386 2.8258 -4.67772 0
M  V30 757 H 67.5326 0.457653 -0.688827 0
M  V30 758 H 70.0786 0.224073 -1.68214 0
M  V30 759 H 68.8506 0.844105 -3.82087 0
M  V30 760 H 68.4736 2.42336 -3.15212 0
M  V30 761 N 69.4707 1.49531 0.497807 0
M  V30 762 C 70.7477 1.49682 1.25915 0
M  V30 763 C 71.1277 0.226339 2.09883 0
M  V30 764 O 70.4757 -0.791189 2.14365 0
M  V30 765 C 70.6857 2.77755 2.11313 0
M  V30 766 C 72.0337 3.27371 2.70395 0
M  V30 767 O 73.0577 2.78894 2.21578 0
M  V30 768 O 71.9167 4.11808 3.59272 0
M  V30 769 H 69.0107 0.599228 0.56996 0
M  V30 770 H 71.5567 1.61798 0.511816 0
M  V30 771 H 70.3287 3.61713 1.49264 0
M  V30 772 H 69.9517 2.68515 2.93233 0
M  V30 773 N 70.9488 -0.749086 1.3866 0
M  V30 774 C 71.8788 -1.8764 1.38973 0
M  V30 775 C 72.8598 -1.68178 0.255004 0
M  V30 776 O 74.0448 -1.88704 0.458754 0
M  V30 777 C 71.1748 -3.25222 1.21851 0
M  V30 778 C 70.1288 -3.59295 2.32575 0
M  V30 779 C 69.4548 -4.95663 2.00555 0
M  V30 780 C 70.7548 -3.63709 3.7485 0
M  V30 781 H 72.4488 -1.87635 2.3331 0
M  V30 782 H 69.9948 -0.901329 1.12303 0
M  V30 783 H 71.9478 -4.03746 1.20695 0
M  V30 784 H 70.6718 -3.25719 0.239775 0
M  V30 785 H 69.3308 -2.83093 2.32925 0
M  V30 786 H 68.9788 -4.92724 1.01154 0
M  V30 787 H 68.6788 -5.19429 2.74714 0
M  V30 788 H 70.2028 -5.7656 2.01024 0
M  V30 789 H 71.6168 -4.32338 3.76506 0
M  V30 790 H 70.0138 -3.98986 4.48252 0
M  V30 791 H 71.0838 -2.63834 4.06841 0
M  V30 792 N 72.4269 -1.23603 -0.977757 0
M  V30 793 C 73.3739 -1.01954 -2.07061 0
M  V30 794 C 74.3439 0.0638697 -1.65977 0
M  V30 795 O 75.5289 -0.0887624 -1.90593 0
M  V30 796 C 72.6689 -0.619658 -3.39491 0
M  V30 797 C 71.7819 -1.77547 -3.93829 0
M  V30 798 C 70.9169 -1.32212 -5.14484 0
M  V30 799 C 69.9559 -2.44852 -5.60994 0
M  V30 800 N 69.0929 -2.00456 -6.72876 0
M  V30 801 H 73.9329 -1.95495 -2.24913 0
M  V30 802 H 71.4699 -0.973861 -1.10247 0
M  V30 803 H 73.4279 -0.368898 -4.15566 0
M  V30 804 H 72.0579 0.278752 -3.21594 0
M  V30 805 H 71.1099 -2.14016 -3.14486 0
M  V30 806 H 72.4219 -2.62219 -4.24314 0
M  V30 807 H 71.5759 -1.02965 -5.97899 0
M  V30 808 H 70.3149 -0.445808 -4.85658 0
M  V30 809 H 69.3199 -2.74871 -4.76157 0
M  V30 810 H 70.5449 -3.33024 -5.91837 0
M  V30 811 H 68.4909 -1.15208 -6.45804 0
M  V30 812 H 68.4079 -2.78687 -7.02759 0
M  V30 813 H 69.6759 -1.7432 -7.59758 0
M  V30 814 N 73.905 1.17692 -1.04816 0
M  V30 815 C 74.852 2.21581 -0.645797 0
M  V30 816 C 75.822 1.62367 0.350159 0
M  V30 817 O 77.007 1.89254 0.242433 0
M  V30 818 C 74.147 3.45092 -0.0227568 0
M  V30 819 C 73.26 4.18613 -1.06709 0
M  V30 820 C 72.395 5.29602 -0.411767 0
M  V30 821 C 71.434 5.94904 -1.44067 0
M  V30 822 N 70.571 6.97414 -0.809781 0
M  V30 823 H 75.411 2.55353 -1.5362 0
M  V30 824 H 72.948 1.25438 -0.768364 0
M  V30 825 H 74.906 4.15679 0.35588 0
M  V30 826 H 73.536 3.11917 0.831122 0
M  V30 827 H 72.588 3.46779 -1.5636 0
M  V30 828 H 73.9 4.63293 -1.84827 0
M  V30 829 H 73.054 6.06696 0.0206623 0
M  V30 830 H 71.793 4.86045 0.401438 0
M  V30 831 H 70.798 5.16544 -1.88316 0
M  V30 832 H 72.023 6.40542 -2.25571 0
M  V30 833 H 69.969 6.55998 -0.0170186 0
M  V30 834 H 69.886 7.40386 -1.52856 0
M  V30 835 H 71.154 7.78463 -0.401999 0
M  V30 836 N 75.3831 0.828654 1.34056 0
M  V30 837 C 76.3131 0.269443 2.3194 0
M  V30 838 C 77.2941 -0.617247 1.58506 0
M  V30 839 O 78.4791 -0.542931 1.86456 0
M  V30 840 C 75.6091 -0.564793 3.42677 0
M  V30 841 C 74.5631 0.225241 4.27407 0
M  V30 842 C 73.8891 -0.7321 5.29664 0
M  V30 843 C 75.1891 1.43663 5.02154 0
M  V30 844 H 76.8831 1.08728 2.7896 0
M  V30 845 H 74.4291 0.524283 1.34117 0
M  V30 846 H 76.3821 -0.966233 4.10173 0
M  V30 847 H 75.1061 -1.41574 2.9432 0
M  V30 848 H 73.7651 0.608117 3.61521 0
M  V30 849 H 73.4131 -1.57916 4.77568 0
M  V30 850 H 73.1131 -0.20767 5.87233 0
M  V30 851 H 74.6371 -1.13128 6.00029 0
M  V30 852 H 76.0511 1.1089 5.62473 0
M  V30 853 H 74.4481 1.89711 5.69324 0
M  V30 854 H 75.5181 2.21181 4.31517 0
M  V30 855 N 76.8612 -1.46375 0.584142 0
M  V30 856 C 77.7912 -2.33103 -0.136037 0
M  V30 857 C 78.7722 -1.45431 -0.882255 0
M  V30 858 O 79.9572 -1.74246 -0.857434 0
M  V30 859 C 77.0872 -3.27731 -1.14933 0
M  V30 860 C 76.0412 -4.24855 -0.517862 0
M  V30 861 C 75.3672 -5.09001 -1.63773 0
M  V30 862 C 76.6672 -5.19439 0.545886 0
M  V30 863 H 78.3612 -2.93568 0.588086 0
M  V30 864 H 75.9072 -1.41166 0.284259 0
M  V30 865 H 77.8602 -3.87261 -1.66153 0
M  V30 866 H 76.5842 -2.65377 -1.90375 0
M  V30 867 H 75.2432 -3.6659 -0.0267361 0
M  V30 868 H 74.8912 -4.43031 -2.38185 0
M  V30 869 H 74.5912 -5.74777 -1.22085 0
M  V30 870 H 76.1152 -5.71396 -2.15266 0
M  V30 871 H 77.5292 -5.73177 0.118704 0
M  V30 872 H 75.9262 -5.93566 0.88317 0
M  V30 873 H 76.9962 -4.63285 1.43162 0
M  V30 874 N 78.3393 -0.321999 -1.54275 0
M  V30 875 C 79.6163 0.335232 -1.92706 0
M  V30 876 C 79.9963 1.70006 -1.25145 0
M  V30 877 O 79.3443 2.25067 -0.394596 0
M  V30 878 C 79.5543 0.429008 -3.46353 0
M  V30 879 C 80.9023 0.690029 -4.18956 0
M  V30 880 O 81.9263 0.511992 -3.52501 0
M  V30 881 O 80.7853 1.03338 -5.36641 0
M  V30 882 H 77.8793 0.191143 -0.804608 0
M  V30 883 H 80.4253 -0.3716 -1.65581 0
M  V30 884 H 79.1973 -0.529611 -3.87699 0
M  V30 885 H 78.8203 1.18348 -3.79578 0
M  V30 886 N 79.8174 1.5752 -0.0501392 0
M  V30 887 C 80.7274 2.14952 0.939827 0
M  V30 888 C 81.7434 1.10706 1.34239 0
M  V30 889 O 82.9194 1.42869 1.41952 0
M  V30 890 C 79.9844 2.68232 2.19665 0
M  V30 891 C 79.0454 3.87272 1.85253 0
M  V30 892 C 78.2784 4.38002 3.04943 0
M  V30 893 O 78.5014 3.87811 4.18281 0
M  V30 894 O 77.4354 5.29602 2.86017 0
M  V30 895 H 81.2614 2.9986 0.481392 0
M  V30 896 H 78.8464 1.4841 0.171699 0
M  V30 897 H 80.7284 3.02475 2.93406 0
M  V30 898 H 79.4034 1.86395 2.64648 0
M  V30 899 H 78.3104 3.5792 1.0883 0
M  V30 900 H 79.6434 4.70336 1.4507 0
M  V30 901 N 81.2955 -0.223234 1.56011 0
M  V30 902 C 82.5235 -0.964812 1.83027 0
M  V30 903 C 82.9385 -1.78013 0.62904 0
M  V30 904 O 82.2955 -1.78008 -0.402414 0
M  V30 905 C 82.3465 -1.88373 3.08542 0
M  V30 906 O 82.0675 -1.10137 4.2403 0
M  V30 907 C 83.5685 -2.73934 3.48533 0
M  V30 908 H 80.7885 -0.282842 0.608475 0
M  V30 909 H 83.3325 -0.238971 2.03099 0
M  V30 910 H 81.4875 -2.56354 2.9045 0
M  V30 911 H 81.9015 -1.72501 4.95322 0
M  V30 912 H 83.3755 -3.34117 4.39397 0
M  V30 913 H 83.8525 -3.46244 2.70207 0
M  V30 914 H 84.4585 -2.11369 3.69057 0
M  V30 915 N 82.7736 -1.49793 -0.48987 0
M  V30 916 C 83.6836 -1.70036 -1.61632 0
M  V30 917 C 84.6996 -0.583102 -1.63939 0
M  V30 918 O 85.8756 -0.859169 -1.82154 0
M  V30 919 C 82.9406 -1.77277 -2.97949 0
M  V30 920 C 82.0016 -3.00918 -3.06181 0
M  V30 921 C 81.2346 -3.07804 -4.35996 0
M  V30 922 O 81.4576 -2.21982 -5.25433 0
M  V30 923 O 80.3916 -4.00369 -4.49431 0
M  V30 924 H 84.2176 -2.65486 -1.47482 0
M  V30 925 H 81.8026 -1.33666 -0.667362 0
M  V30 926 H 83.6846 -1.84329 -3.78947 0
M  V30 927 H 82.3596 -0.850076 -3.12339 0
M  V30 928 H 81.2666 -2.99377 -2.2433 0
M  V30 929 H 82.5996 -3.92704 -2.96723 0
M  V30 930 N 84.2517 0.741722 -1.39055 0
M  V30 931 C 85.5007 1.49656 -1.35225 0
M  V30 932 C 85.8137 1.95533 0.0512708 0
M  V30 933 O 87.0197 2.7067 0.212138 0
M  V30 934 C 85.4757 2.70389 -2.37525 0
M  V30 935 C 85.0837 2.31489 -3.83558 0
M  V30 936 C 86.8277 3.48236 -2.42759 0
M  V30 937 C 84.7347 3.48903 -4.77515 0
M  V30 938 H 83.6647 0.56197 -0.502699 0
M  V30 939 H 86.3157 0.809727 -1.64668 0
M  V30 940 H 84.6977 3.41113 -2.01142 0
M  V30 941 H 85.8717 1.68354 -4.28945 0
M  V30 942 H 84.1867 1.66749 -3.81554 0
M  V30 943 H 86.7837 4.35558 -3.1015 0
M  V30 944 H 87.1267 3.90229 -1.45008 0
M  V30 945 H 87.6597 2.84535 -2.78002 0
M  V30 946 H 84.3987 3.11966 -5.76504 0
M  V30 947 H 83.9187 4.11041 -4.36813 0
M  V30 948 H 85.5977 4.15328 -4.96096 0
M  V30 949 N 85.7298 1.2412 0.971189 0
M  V30 950 C 86.9548 1.10667 1.75407 0
M  V30 951 C 87.3798 -0.337048 1.85056 0
M  V30 952 O 86.7378 -1.24396 1.31892 0
M  V30 953 C 86.7858 1.74726 3.15441 0
M  V30 954 O 85.8898 1.01566 3.99697 0
M  V30 955 H 85.2308 0.387341 0.539317 0
M  V30 956 H 87.7608 1.64358 1.2185 0
M  V30 957 H 87.7708 1.80341 3.6598 0
M  V30 958 H 86.4458 2.79773 3.07734 0
M  V30 959 H 85.0228 1.03713 3.58187 0
M  V30 960 N 87.2079 -1.17134 1.05439 0
M  V30 961 C 88.4379 -1.91094 0.785274 0
M  V30 962 C 88.8459 -1.77198 -0.663142 0
M  V30 963 O 88.1889 -1.10835 -1.46497 0
M  V30 964 C 88.2509 -3.42594 1.08949 0
M  V30 965 C 87.9149 -3.80274 2.53458 0
M  V30 966 C 88.9119 -3.82912 3.51673 0
M  V30 967 C 86.5969 -4.11162 2.88532 0
M  V30 968 C 88.5909 -4.15913 4.83006 0
M  V30 969 C 86.2779 -4.43831 4.20068 0
M  V30 970 C 87.2759 -4.46185 5.17115 0
M  V30 971 O 86.9639 -4.78083 6.46291 0
M  V30 972 H 86.6959 -0.613073 0.284811 0
M  V30 973 H 89.2499 -1.49461 1.40893 0
M  V30 974 H 87.4799 -3.84534 0.408741 0
M  V30 975 H 89.1689 -3.97817 0.805991 0
M  V30 976 H 89.9349 -3.5917 3.25917 0
M  V30 977 H 85.8139 -4.085 2.13656 0
M  V30 978 H 89.3579 -4.17665 5.5875 0
M  V30 979 H 85.2549 -4.67037 4.45586 0
M  V30 980 H 86.0229 -4.9593 6.51149 0
M  V30 981 N 88.686 -0.835752 -1.33615 0
M  V30 982 C 89.596 -0.269088 -2.33052 0
M  V30 983 C 90.612 0.603251 -1.63208 0
M  V30 984 O 91.788 0.508112 -1.94885 0
M  V30 985 C 88.853 0.549091 -3.42324 0
M  V30 986 C 87.914 -0.347156 -4.27894 0
M  V30 987 C 87.147 0.43207 -5.31948 0
M  V30 988 O 87.37 1.66409 -5.45586 0
M  V30 989 O 86.304 -0.192298 -6.01593 0
M  V30 990 H 90.13 -1.09243 -2.83372 0
M  V30 991 H 87.715 -0.598198 -1.36901 0
M  V30 992 H 89.597 1.01414 -4.09015 0
M  V30 993 H 88.272 1.34955 -2.94226 0
M  V30 994 H 87.179 -0.859979 -3.64081 0
M  V30 995 H 88.512 -1.1123 -4.79467 0
M  V30 996 N 90.1641 1.46063 -0.591896 0
M  V30 997 C 91.4131 2.01547 -0.0786637 0
M  V30 998 C 91.7261 1.46796 1.29268 0
M  V30 999 O 92.9321 1.94157 1.89777 0
M  V30 1000 C 91.3881 3.59787 -0.0900024 0
M  V30 1001 C 90.9961 4.23534 -1.46023 0
M  V30 1002 C 92.7401 4.22895 0.368806 0
M  V30 1003 C 90.6471 5.73881 -1.4288 0
M  V30 1004 H 89.5771 0.753564 -0.0256388 0
M  V30 1005 H 92.2281 1.677 -0.744905 0
M  V30 1006 H 90.6101 3.90752 0.642586 0
M  V30 1007 H 91.7841 4.04167 -2.21328 0
M  V30 1008 H 90.0991 3.72558 -1.85982 0
M  V30 1009 H 92.6961 5.33116 0.411258 0
M  V30 1010 H 93.0391 3.9247 1.38827 0
M  V30 1011 H 93.5721 3.9659 -0.31001 0
M  V30 1012 H 90.3111 6.0898 -2.42536 0
M  V30 1013 H 89.8311 5.95486 -0.718095 0
M  V30 1014 H 91.5101 6.36776 -1.14565 0
M  V30 1015 N 91.6422 0.330177 1.54103 0
M  V30 1016 C 92.8892 -0.270405 2.00686 0
M  V30 1017 C 93.2172 -1.51621 1.21825 0
M  V30 1018 O 92.4722 -1.93536 0.29025 0
M  V30 1019 C 92.7712 -0.643134 3.51566 0
M  V30 1020 C 92.4372 0.504251 4.48072 0
M  V30 1021 C 91.0992 0.819163 4.74176 0
M  V30 1022 C 93.4512 1.27465 5.05373 0
M  V30 1023 C 90.7792 1.90708 5.5484 0
M  V30 1024 C 93.1312 2.35271 5.87223 0
M  V30 1025 C 91.7952 2.67336 6.11627 0
M  V30 1026 H 91.0652 -0.0989482 0.734364 0
M  V30 1027 H 93.7122 0.455324 1.86008 0
M  V30 1028 H 92.0172 -1.44938 3.64006 0
M  V30 1029 H 93.7142 -1.11949 3.85056 0
M  V30 1030 H 90.3042 0.248733 4.27878 0
M  V30 1031 H 94.4882 1.04462 4.85182 0
M  V30 1032 H 89.7442 2.15991 5.71977 0
M  V30 1033 H 93.9182 2.95405 6.30641 0
M  V30 1034 H 91.5452 3.51763 6.73919 0
M  V30 1035 N 93.1203 -1.57491 0.0584922 0
M  V30 1036 C 94.3973 -1.84346 -0.653918 0
M  V30 1037 C 94.7773 -0.948355 -1.88599 0
M  V30 1038 O 94.1253 -0.0112403 -2.28497 0
M  V30 1039 C 94.3353 -3.34239 -1.00425 0
M  V30 1040 C 95.6833 -4.01431 -1.38342 0
M  V30 1041 O 96.7073 -3.38907 -1.09637 0
M  V30 1042 O 95.5663 -5.11683 -1.91943 0
M  V30 1043 H 92.6603 -0.761112 -0.323478 0
M  V30 1044 H 95.2063 -1.6947 0.0884125 0
M  V30 1045 H 93.9783 -3.91089 -0.128625 0
M  V30 1046 H 93.6013 -3.54329 -1.80378 0
M  V30 1047 N 94.5984 0.214957 -1.56127 0
M  V30 1048 C 95.5084 1.28727 -1.96129 0
M  V30 1049 C 96.5244 1.50916 -0.866044 0
M  V30 1050 O 97.7004 1.63918 -1.17016 0
M  V30 1051 C 94.7654 2.61569 -2.27558 0
M  V30 1052 C 93.8264 2.47625 -3.50685 0
M  V30 1053 C 93.0594 3.74132 -3.80606 0
M  V30 1054 O 93.2824 4.77438 -3.12104 0
M  V30 1055 O 92.2164 3.70849 -4.74083 0
M  V30 1056 H 96.0424 0.977855 -2.87527 0
M  V30 1057 H 93.6274 0.418358 -1.43423 0
M  V30 1058 H 95.5094 3.40012 -2.48938 0
M  V30 1059 H 94.1844 2.92178 -1.39332 0
M  V30 1060 H 93.0914 1.67361 -3.34576 0
M  V30 1061 H 94.4244 2.21954 -4.39315 0
M  V30 1062 N 96.0765 1.50051 0.48192 0
M  V30 1063 C 97.3225 1.60736 1.2366 0
M  V30 1064 C 97.6555 0.301786 1.91841 0
M  V30 1065 O 96.9305 -0.696025 1.8162 0
M  V30 1066 C 97.2135 2.78009 2.28874 0
M  V30 1067 C 97.0665 4.18416 1.65069 0
M  V30 1068 C 98.3855 2.90867 3.30279 0
M  V30 1069 H 95.5045 0.585031 0.448228 0
M  V30 1070 H 98.1465 1.82402 0.531946 0
M  V30 1071 H 96.2965 2.59667 2.88973 0
M  V30 1072 H 97.9685 4.48322 1.0865 0
M  V30 1073 H 96.2115 4.23177 0.954148 0
M  V30 1074 H 96.8825 4.96381 2.41474 0
M  V30 1075 H 99.3585 3.07623 2.80191 0
M  V30 1076 H 98.2345 3.74566 4.01238 0
M  V30 1077 H 98.4955 2.01021 3.93755 0
M  V30 1078 N 97.5546 -0.734337 1.39446 0
M  V30 1079 C 98.4646 -1.87879 1.40495 0
M  V30 1080 C 99.4806 -1.714 0.299672 0
M  V30 1081 O 100.657 -1.93991 0.541249 0
M  V30 1082 C 97.7216 -3.23477 1.24754 0
M  V30 1083 C 96.7826 -3.52344 2.45259 0
M  V30 1084 C 96.0156 -4.81473 2.30259 0
M  V30 1085 O 96.2386 -5.55237 1.30643 0
M  V30 1086 O 95.1726 -5.10254 3.19256 0
M  V30 1087 H 98.9986 -1.89949 2.36966 0
M  V30 1088 H 96.5836 -0.882243 1.20569 0
M  V30 1089 H 98.4656 -4.04509 1.18111 0
M  V30 1090 H 97.1406 -3.22176 0.313781 0
M  V30 1091 H 96.0476 -2.71396 2.57478 0
M  V30 1092 H 97.3806 -3.58426 3.37331 0
M  V30 1093 N 99.0327 -1.24633 -0.964593 0
M  V30 1094 C 99.9427 -1.05859 -2.09359 0
M  V30 1095 C 100.959 0.00148855 -1.74 0
M  V30 1096 O 102.135 -0.197346 -2.00431 0
M  V30 1097 C 99.1997 -0.668879 -3.40187 0
M  V30 1098 C 98.2607 -1.80578 -3.89474 0
M  V30 1099 C 97.4937 -1.43457 -5.14058 0
M  V30 1100 O 97.7167 -0.325775 -5.69469 0
M  V30 1101 O 96.6507 -2.2613 -5.57807 0
M  V30 1102 H 100.477 -2.00516 -2.28094 0
M  V30 1103 H 98.0617 -1.03481 -1.0776 0
M  V30 1104 H 99.9437 -0.463211 -4.18846 0
M  V30 1105 H 98.6187 0.248536 -3.22744 0
M  V30 1106 H 97.5257 -2.06623 -3.11862 0
M  V30 1107 H 98.8587 -2.70208 -4.11398 0
M  V30 1108 N 100.511 1.16574 -1.06058 0
M  V30 1109 C 101.459 2.22941 -0.663343 0
M  V30 1110 C 102.453 1.66358 0.319593 0
M  V30 1111 O 103.659 1.7905 0.184713 0
M  V30 1112 H 100.034 0.725907 -0.196376 0
M  V30 1113 H 102.005 2.53736 -1.57037 0
M  V30 1114 C 100.754 3.47642 -0.0632808 0
M  V30 1115 H 100.077 3.91493 -0.810733 0
M  V30 1116 H 101.517 4.2363 0.177177 0
M  V30 1117 C 99.9758 3.1509 1.19248 0
M  V30 1118 O 100.506 3.30673 2.28075 0
M  V30 1119 N 98.7118 2.6924 1.09353 0
M  V30 1120 H 98.2588 2.5676 0.207912 0
M  V30 1121 H 98.2168 2.47833 1.93458 0
M  V30 1122 N 101.989 0.842826 1.3317 0
M  V30 1123 C 103.4 0.496651 1.79973 0
M  V30 1124 C 103.751 -0.984641 1.69703 0
M  V30 1125 O 102.876 -1.76743 1.24863 0
M  V30 1126 C 103.471 0.894727 3.26772 0
M  V30 1127 C 102.03 0.600629 3.71577 0
M  V30 1128 C 101.177 1.10091 2.5451 0
M  V30 1129 H 104.128 1.03116 1.20635 0
M  V30 1130 H 104.149 0.206347 3.7994 0
M  V30 1131 H 103.661 1.97287 3.34215 0
M  V30 1132 H 101.762 -0.467284 3.69658 0
M  V30 1133 H 101.875 1.15863 4.64879 0
M  V30 1134 H 100.239 0.52162 2.49301 0
M  V30 1135 H 101.022 2.18591 2.64713 0
M  V30 1136 N 103.467 -1.45747 0.599634 0
M  V30 1137 C 104.692 -2.07178 0.0960198 0
M  V30 1138 C 105.117 -1.44268 -1.207 0
M  V30 1139 O 104.475 -0.532503 -1.73303 0
M  V30 1140 C 104.523 -3.60579 -0.0385348 0
M  V30 1141 O 103.627 -3.97713 -1.0908 0
M  V30 1142 H 102.968 -0.660251 0.0704593 0
M  V30 1143 H 105.498 -1.87124 0.827385 0
M  V30 1144 H 105.508 -4.07298 -0.239304 0
M  V30 1145 H 104.183 -4.05756 0.912947 0
M  V30 1146 H 102.76 -3.62678 -0.867135 0
M  V30 1147 N 104.945 -0.338344 -1.53925 0
M  V30 1148 C 106.192 0.259758 -2.00827 0
M  V30 1149 C 106.52 1.50973 -1.22628 0
M  V30 1150 O 105.775 1.93379 -0.300509 0
M  V30 1151 C 106.074 0.62448 -3.51902 0
M  V30 1152 C 105.74 -0.528006 -4.47798 0
M  V30 1153 C 104.402 -0.844298 -4.73735 0
M  V30 1154 C 106.754 -1.30143 -5.0469 0
M  V30 1155 C 104.082 -1.93648 -5.53821 0
M  V30 1156 C 106.434 -2.38382 -5.85967 0
M  V30 1157 C 105.098 -2.70576 -6.10201 0
M  V30 1158 H 104.368 0.0950523 -0.734878 0
M  V30 1159 H 107.015 -0.465182 -1.85764 0
M  V30 1160 H 105.32 1.43006 -3.64769 0
M  V30 1161 H 107.017 1.09905 -3.85645 0
M  V30 1162 H 103.607 -0.271421 -4.2774 0
M  V30 1163 H 107.791 -1.07033 -4.84621 0
M  V30 1164 H 103.047 -2.19021 -5.70824 0
M  V30 1165 H 107.221 -2.98746 -6.29066 0
M  V30 1166 H 104.848 -3.55333 -6.72044 0
M  V30 1167 N 106.423 1.57458 -0.0668435 0
M  V30 1168 C 107.7 1.8469 0.644132 0
M  V30 1169 C 108.08 0.958343 1.88093 0
M  V30 1170 O 107.428 0.0233579 2.28488 0
M  V30 1171 C 107.638 3.34767 0.986509 0
M  V30 1172 C 108.986 4.02159 1.36212 0
M  V30 1173 O 110.01 3.39484 1.07839 0
M  V30 1174 O 108.869 5.12694 1.89227 0
M  V30 1175 H 105.963 0.762816 0.319437 0
M  V30 1176 H 108.509 1.6942 -0.0973986 0
M  V30 1177 H 107.281 3.91151 0.107883 0
M  V30 1178 H 106.904 3.55281 1.78497 0
M  V30 1179 N 107.901 -0.206675 1.56239 0
M  V30 1180 C 108.849 -1.27571 1.94495 0
M  V30 1181 C 109.843 -1.47737 0.828862 0
M  V30 1182 O 111.049 -1.48735 1.0138 0
M  V30 1183 H 107.424 -0.428029 0.6183 0
M  V30 1184 H 109.395 -0.925961 2.8367 0
M  V30 1185 C 108.144 -2.61568 2.29079 0
M  V30 1186 H 107.467 -2.46863 3.14482 0
M  V30 1187 H 108.907 -3.35144 2.5972 0
M  V30 1188 C 107.366 -3.17695 1.12123 0
M  V30 1189 O 107.896 -3.99801 0.390153 0
M  V30 1190 N 106.102 -2.76276 0.901097 0
M  V30 1191 H 105.649 -2.09613 1.49733 0
M  V30 1192 H 105.607 -3.1417 0.120319 0
M  V30 1193 N 109.379 -1.50304 -0.473955 0
M  V30 1194 C 110.625 -1.61389 -1.22806 0
M  V30 1195 C 110.958 -0.311955 -1.91678 0
M  V30 1196 O 110.233 0.686384 -1.81986 0
M  V30 1197 C 110.516 -2.79219 -2.27396 0
M  V30 1198 C 110.369 -4.19286 -1.62848 0
M  V30 1199 C 111.688 -2.92614 -3.28732 0
M  V30 1200 H 108.807 -0.587399 -0.445119 0
M  V30 1201 H 111.449 -1.82681 -0.522265 0
M  V30 1202 H 109.599 -2.61195 -2.87592 0
M  V30 1203 H 111.271 -4.48892 -1.06271 0
M  V30 1204 H 109.514 -4.23677 -0.931693 0
M  V30 1205 H 110.185 -4.97655 -2.38838 0
M  V30 1206 H 112.661 -3.09105 -2.78556 0
M  V30 1207 H 111.537 -3.76688 -3.99246 0
M  V30 1208 H 111.798 -2.03107 -3.92683 0
M  V30 1209 N 110.857 0.726932 -1.39834 0
M  V30 1210 C 111.79 1.8501 -1.33592 0
M  V30 1211 C 112.768 1.61262 -0.208191 0
M  V30 1212 O 113.952 1.84422 -0.389981 0
M  V30 1213 C 111.079 3.21143 -1.07633 0
M  V30 1214 C 110.125 3.63737 -2.22705 0
M  V30 1215 S 110.958 3.72167 -3.85035 0
M  V30 1216 C 112.114 5.11077 -3.61318 0
M  V30 1217 H 112.347 1.90022 -2.28646 0
M  V30 1218 H 109.88 0.892595 -1.25985 0
M  V30 1219 H 111.838 3.99747 -0.933415 0
M  V30 1220 H 110.499 3.13776 -0.142526 0
M  V30 1221 H 109.692 4.62551 -2.00155 0
M  V30 1222 H 109.294 2.9236 -2.33242 0
M  V30 1223 H 111.586 5.97656 -3.19083 0
M  V30 1224 H 112.529 5.38658 -4.59623 0
M  V30 1225 H 112.937 4.81135 -2.95245 0
M  V30 1226 N 112.336 1.25143 0.95797 0
M  V30 1227 C 113.283 1.05235 2.05412 0
M  V30 1228 C 114.253 -0.0374561 1.66058 0
M  V30 1229 O 115.438 0.119073 1.90428 0
M  V30 1230 C 112.578 0.673589 3.38462 0
M  V30 1231 C 111.691 1.8379 3.90954 0
M  V30 1232 C 110.826 1.40381 5.12315 0
M  V30 1233 C 109.865 2.53746 5.57027 0
M  V30 1234 N 109.002 2.11136 6.69601 0
M  V30 1235 H 113.842 1.99048 2.21774 0
M  V30 1236 H 111.379 0.991277 1.08683 0
M  V30 1237 H 113.337 0.434964 4.14926 0
M  V30 1238 H 111.967 -0.227554 3.21997 0
M  V30 1239 H 111.019 2.18992 3.11041 0
M  V30 1240 H 112.331 2.68937 4.20089 0
M  V30 1241 H 111.485 1.12464 5.96185 0
M  V30 1242 H 110.224 0.523015 4.84887 0
M  V30 1243 H 109.229 2.82412 4.71724 0
M  V30 1244 H 110.454 3.42398 5.86464 0
M  V30 1245 H 108.4 1.25468 6.4389 0
M  V30 1246 H 108.317 2.89832 6.98236 0
M  V30 1247 H 109.585 1.86385 7.56889 0
M  V30 1248 N 113.814 -1.1601 1.06675 0
M  V30 1249 C 114.777 -2.18724 0.685001 0
M  V30 1250 C 115.777 -1.58496 -0.271246 0
M  V30 1251 O 116.967 -1.74119 -0.0531156 0
M  V30 1252 C 114.099 -3.40899 0.00853648 0
M  V30 1253 H 115.292 -2.54011 1.59431 0
M  V30 1254 H 112.845 -1.30352 0.862441 0
M  V30 1255 H 113.58 -3.11173 -0.913337 0
M  V30 1256 H 113.365 -3.8587 0.696204 0
M  V30 1257 H 114.855 -4.16886 -0.24414 0
M  V30 1258 N 115.292 -0.849877 -1.32721 0
M  V30 1259 C 116.538 -0.451591 -1.97708 0
M  V30 1260 C 116.871 0.989175 -1.6712 0
M  V30 1261 O 116.146 1.69334 -0.956891 0
M  V30 1262 C 116.429 -0.685598 -3.53513 0
M  V30 1263 C 116.282 -2.17444 -3.93749 0
M  V30 1264 C 117.601 -0.138874 -4.39881 0
M  V30 1265 H 114.72 -0.16555 -0.718166 0
M  V30 1266 H 117.362 -1.06742 -1.57182 0
M  V30 1267 H 115.512 -0.161416 -3.88165 0
M  V30 1268 H 117.184 -2.76433 -3.693 0
M  V30 1269 H 115.427 -2.65476 -3.43081 0
M  V30 1270 H 116.098 -2.28888 -5.02309 0
M  V30 1271 H 118.574 -0.587068 -4.11938 0
M  V30 1272 H 117.45 -0.332213 -5.47894 0
M  V30 1273 H 117.711 0.95806 -4.31594 0
M  V30 1274 N 116.77 1.45427 -0.607355 0
M  V30 1275 C 117.68 2.34325 0.113463 0
M  V30 1276 C 118.696 1.51226 0.860617 0
M  V30 1277 O 119.872 1.84029 0.818255 0
M  V30 1278 C 116.937 3.28839 1.09844 0
M  V30 1279 C 115.998 4.27844 0.353271 0
M  V30 1280 C 115.231 5.17842 1.29133 0
M  V30 1281 O 115.454 5.11264 2.52913 0
M  V30 1282 O 114.388 5.96713 0.788523 0
M  V30 1283 H 118.214 2.97364 -0.617094 0
M  V30 1284 H 115.799 1.44807 -0.367619 0
M  V30 1285 H 117.681 3.8708 1.66575 0
M  V30 1286 H 116.356 2.68365 1.81003 0
M  V30 1287 H 115.263 3.7322 -0.256494 0
M  V30 1288 H 116.596 4.91173 -0.317822 0
M  V30 1289 N 118.248 0.346503 1.53744 0
M  V30 1290 C 119.664 -0.00530975 1.59599 0
M  V30 1291 C 119.864 -1.48465 1.36236 0
M  V30 1292 O 118.92 -2.24376 1.15808 0
M  V30 1293 C 120.233 0.433516 2.97559 0
M  V30 1294 C 121.781 0.386111 3.10609 0
M  V30 1295 C 122.256 0.800451 4.50951 0
M  V30 1296 N 123.747 0.754753 4.5701 0
M  V30 1297 C 124.482 1.04727 5.63755 0
M  V30 1298 N 123.978 1.4081 6.7834 0
M  V30 1299 N 125.771 0.971316 5.53644 0
M  V30 1300 H 117.922 1.31009 1.67184 0
M  V30 1301 H 120.185 0.534242 0.783128 0
M  V30 1302 H 119.891 1.46509 3.19731 0
M  V30 1303 H 119.765 -0.189753 3.76722 0
M  V30 1304 H 122.152 -0.636295 2.88158 0
M  V30 1305 H 122.233 1.04462 2.33498 0
M  V30 1306 H 121.877 1.82088 4.74137 0
M  V30 1307 H 121.807 0.119386 5.26465 0
M  V30 1308 H 124.298 0.488662 3.74727 0
M  V30 1309 H 124.611 1.61607 7.55714 0
M  V30 1310 H 122.956 1.44657 6.79779 0
M  V30 1311 H 126.147 0.688748 4.63005 0
M  V30 1312 H 126.32 1.20263 6.36742 0
M  V30 1313 N 119.726 -1.57421 0.075193 0
M  V30 1314 C 120.956 -1.97659 -0.601203 0
M  V30 1315 C 121.364 -0.952427 -1.63479 0
M  V30 1316 O 120.707 0.0688241 -1.83571 0
M  V30 1317 C 120.769 -3.34218 -1.32434 0
M  V30 1318 C 120.433 -4.5484 -0.443826 0
M  V30 1319 C 121.43 -5.19034 0.299969 0
M  V30 1320 C 119.115 -5.00952 -0.367709 0
M  V30 1321 C 121.109 -6.27695 1.10807 0
M  V30 1322 C 118.796 -6.09484 0.444058 0
M  V30 1323 C 119.794 -6.72719 1.18061 0
M  V30 1324 O 119.482 -7.79161 1.97898 0
M  V30 1325 H 119.214 -0.65494 -0.167422 0
M  V30 1326 H 121.768 -2.04886 0.145157 0
M  V30 1327 H 119.998 -3.23615 -2.11685 0
M  V30 1328 H 121.687 -3.59038 -1.89331 0
M  V30 1329 H 122.453 -4.84351 0.250776 0
M  V30 1330 H 118.332 -4.51509 -0.930638 0
M  V30 1331 H 121.876 -6.76982 1.68347 0
M  V30 1332 H 117.773 -6.43601 0.494803 0
M  V30 1333 H 118.541 -7.96055 1.90367 0
M  V30 1334 N 121.204 0.198386 -1.56346 0
M  V30 1335 C 122.62 0.549085 -1.49857 0
M  V30 1336 C 122.82 1.86016 -0.774611 0
M  V30 1337 O 121.876 2.50416 -0.323776 0
M  V30 1338 C 123.189 0.606868 -2.94512 0
M  V30 1339 C 124.737 0.695925 -3.05165 0
M  V30 1340 C 125.212 0.784848 -4.51225 0
M  V30 1341 N 126.703 0.848463 -4.55363 0
M  V30 1342 C 127.438 0.937378 -5.65686 0
M  V30 1343 N 126.934 0.9888 -6.85707 0
M  V30 1344 N 128.727 0.974312 -5.53592 0
M  V30 1345 H 120.878 -0.661655 -2.01831 0
M  V30 1346 H 123.141 -0.235261 -0.918344 0
M  V30 1347 H 122.847 -0.28732 -3.50524 0
M  V30 1348 H 122.721 1.46268 -3.47686 0
M  V30 1349 H 125.108 1.58055 -2.49204 0
M  V30 1350 H 125.189 -0.186022 -2.55123 0
M  V30 1351 H 124.833 -0.0954072 -5.0781 0
M  V30 1352 H 124.763 1.68255 -4.98997 0
M  V30 1353 H 127.254 0.818103 -3.68938 0
M  V30 1354 H 127.567 1.05707 -7.65536 0
M  V30 1355 H 125.912 0.957534 -6.88372 0
M  V30 1356 H 129.103 0.930954 -4.58749 0
M  V30 1357 H 129.276 1.04015 -6.39597 0
M  V30 1358 N 122.682 1.50554 0.465978 0
M  V30 1359 C 123.63 1.70324 1.58406 0
M  V30 1360 C 124.624 0.569139 1.59553 0
M  V30 1361 O 125.83 0.749776 1.63641 0
M  V30 1362 H 122.205 0.537688 0.525734 0
M  V30 1363 H 124.176 2.64104 1.38894 0
M  V30 1364 C 122.925 1.81928 2.96307 0
M  V30 1365 H 122.248 2.68586 2.96144 0
M  V30 1366 H 123.688 1.99784 3.73982 0
M  V30 1367 C 122.147 0.572095 3.32007 0
M  V30 1368 O 122.677 -0.286416 4.00678 0
M  V30 1369 N 120.883 0.424606 2.87481 0
M  V30 1370 H 120.43 1.12427 2.31771 0
M  V30 1371 H 120.388 -0.408697 3.11732 0
M  V30 1372 N 124.16 -0.719506 1.40217 0
M  V30 1373 C 125.437 -1.47221 1.28784 0
M  V30 1374 C 125.817 -2.10883 -0.0956067 0
M  V30 1375 O 125.165 -1.99833 -1.10811 0
M  V30 1376 C 125.375 -2.5111 2.42373 0
M  V30 1377 C 126.723 -3.17053 2.82423 0
M  V30 1378 O 127.747 -2.61429 2.41937 0
M  V30 1379 O 126.606 -4.17742 3.52355 0
M  V30 1380 H 123.7 -0.654491 0.50554 0
M  V30 1381 H 126.246 -0.752014 1.52128 0
M  V30 1382 H 125.018 -2.02556 3.34793 0
M  V30 1383 H 124.641 -3.3067 2.20778 0
M  V30 1384 N 125.638 -1.25649 -0.95132 0
M  V30 1385 C 126.863 -1.13443 -1.73624 0
M  V30 1386 C 127.288 0.307565 -1.85568 0
M  V30 1387 O 126.646 1.22282 -1.33854 0
M  V30 1388 C 126.694 -1.79723 -3.12621 0
M  V30 1389 O 125.798 -1.07912 -3.98031 0
M  V30 1390 H 125.139 -0.395872 -0.533086 0
M  V30 1391 H 127.669 -1.66276 -1.1922 0
M  V30 1392 H 127.679 -1.86141 -3.63064 0
M  V30 1393 H 126.354 -2.84633 -3.03244 0
M  V30 1394 H 124.931 -1.09398 -3.56492 0
M  V30 1395 N 127.117 1.15442 -1.07289 0
M  V30 1396 C 128.364 1.86213 -0.795668 0
M  V30 1397 C 128.692 1.82291 0.678238 0
M  V30 1398 O 127.947 1.24057 1.51355 0
M  V30 1399 C 128.246 3.3489 -1.24834 0
M  V30 1400 C 127.912 3.59007 -2.72809 0
M  V30 1401 C 126.574 3.65298 -3.13227 0
M  V30 1402 C 128.926 3.68762 -3.68326 0
M  V30 1403 C 126.254 3.78854 -4.4798 0
M  V30 1404 C 128.606 3.83842 -5.0284 0
M  V30 1405 C 127.27 3.88378 -5.4288 0
M  V30 1406 H 126.54 0.681403 -0.291155 0
M  V30 1407 H 129.187 1.36435 -1.34379 0
M  V30 1408 H 127.492 3.8687 -0.619595 0
M  V30 1409 H 129.189 3.88052 -1.01076 0
M  V30 1410 H 125.779 3.5475 -2.40521 0
M  V30 1411 H 129.963 3.63202 -3.38227 0
M  V30 1412 H 125.219 3.80623 -4.78472 0
M  V30 1413 H 129.393 3.90332 -5.76727 0
M  V30 1414 H 127.02 3.98635 -6.47298 0
M  V30 1415 N 128.595 0.856903 1.32268 0
M  V30 1416 C 129.872 0.382583 1.91822 0
M  V30 1417 C 130.252 -1.13407 1.78051 0
M  V30 1418 O 129.6 -1.95673 1.18001 0
M  V30 1419 C 129.81 0.849446 3.38505 0
M  V30 1420 C 131.158 0.867936 4.15634 0
M  V30 1421 O 132.182 0.794232 3.47232 0
M  V30 1422 O 131.041 0.972286 5.37781 0
M  V30 1423 H 128.135 0.112014 0.819379 0
M  V30 1424 H 130.681 0.943952 1.41024 0
M  V30 1425 H 129.453 1.89267 3.42482 0
M  V30 1426 H 129.076 0.265652 3.96712 0
M  V30 1427 N 130.073 -1.45103 0.615059 0
M  V30 1428 C 131.32 -2.02183 0.113179 0
M  V30 1429 C 131.648 -1.48249 -1.25906 0
M  V30 1430 O 130.903 -0.650265 -1.84581 0
M  V30 1431 C 131.202 -3.57386 0.0318797 0
M  V30 1432 C 130.868 -4.30505 1.34077 0
M  V30 1433 C 129.53 -4.50197 1.69929 0
M  V30 1434 C 131.882 -4.72238 2.20546 0
M  V30 1435 C 129.21 -5.08881 2.91988 0
M  V30 1436 C 131.562 -5.32272 3.41861 0
M  V30 1437 C 130.226 -5.50187 3.77956 0
M  V30 1438 H 129.496 -0.739842 0.0414151 0
M  V30 1439 H 132.143 -1.74073 0.798168 0
M  V30 1440 H 130.448 -3.84817 -0.736409 0
M  V30 1441 H 132.145 -3.99264 -0.372712 0
M  V30 1442 H 128.735 -4.15496 1.05173 0
M  V30 1443 H 132.919 -4.56751 1.94146 0
M  V30 1444 H 128.175 -5.20939 3.2005 0
M  V30 1445 H 132.349 -5.63563 4.09109 0
M  V30 1446 H 129.976 -5.95427 4.72622 0
M  V30 1447 N 131.551 -0.354651 -1.53558 0
M  V30 1448 C 132.797 0.238797 -2.01389 0
M  V30 1449 C 133.13 1.49309 -1.2418 0
M  V30 1450 O 132.405 1.91638 -0.332457 0
M  V30 1451 C 132.688 0.541771 -3.56001 0
M  V30 1452 C 132.541 -0.725388 -4.43912 0
M  V30 1453 C 133.86 1.34685 -4.18984 0
M  V30 1454 H 130.979 0.0853177 -0.732045 0
M  V30 1455 H 133.621 -0.477384 -1.83905 0
M  V30 1456 H 131.771 1.15189 -3.71031 0
M  V30 1457 H 133.443 -1.36313 -4.407 0
M  V30 1458 H 131.686 -1.34801 -4.12324 0
M  V30 1459 H 132.357 -0.468505 -5.50008 0
M  V30 1460 H 134.833 0.830837 -4.07721 0
M  V30 1461 H 133.709 1.52759 -5.27215 0
M  V30 1462 H 133.97 2.35221 -3.74331 0
M  V30 1463 N 133.029 1.57378 -0.0835403 0
M  V30 1464 C 134.275 1.94217 0.583733 0
M  V30 1465 C 134.608 0.964653 1.68547 0
M  V30 1466 O 133.883 -0.00422258 1.945 0
M  V30 1467 C 134.166 3.41253 1.14972 0
M  V30 1468 C 134.019 4.49768 0.0538277 0
M  V30 1469 C 135.338 3.89352 2.05166 0
M  V30 1470 H 132.457 0.706233 0.210724 0
M  V30 1471 H 135.099 1.89392 -0.1519 0
M  V30 1472 H 133.249 3.45496 1.77665 0
M  V30 1473 H 134.921 4.57641 -0.579851 0
M  V30 1474 H 133.164 4.29432 -0.614068 0
M  V30 1475 H 133.835 5.49817 0.490452 0
M  V30 1476 H 136.311 3.87189 1.52393 0
M  V30 1477 H 135.187 4.92822 2.41698 0
M  V30 1478 H 135.448 3.27973 2.96456 0
M  V30 1479 N 134.507 -0.190092 1.56449 0
M  V30 1480 C 135.755 -0.907908 1.80559 0
M  V30 1481 C 136.076 -1.83583 0.657438 0
M  V30 1482 O 135.346 -1.93203 -0.323924 0
M  V30 1483 H 133.926 -0.338247 0.666032 0
M  V30 1484 H 136.588 -0.194403 1.93928 0
M  V30 1485 H 135.684 -1.49604 2.73907 0
M  V30 1486 N 135.985 -1.50799 -0.457987 0
M  V30 1487 C 136.915 -1.73553 -1.5621 0
M  V30 1488 C 137.896 -0.584774 -1.59732 0
M  V30 1489 O 139.081 -0.825314 -1.7579 0
M  V30 1490 C 136.211 -1.84169 -2.94447 0
M  V30 1491 C 135.165 -2.99461 -3.0579 0
M  V30 1492 C 134.491 -2.95235 -4.45803 0
M  V30 1493 C 135.791 -4.39766 -2.81786 0
M  V30 1494 H 137.485 -2.66 -1.37421 0
M  V30 1495 H 135.031 -1.28002 -0.659662 0
M  V30 1496 H 136.984 -1.98672 -3.71628 0
M  V30 1497 H 135.708 -0.883545 -3.14422 0
M  V30 1498 H 134.367 -2.8463 -2.31044 0
M  V30 1499 H 134.015 -1.97239 -4.62715 0
M  V30 1500 H 133.715 -3.72642 -4.54326 0
M  V30 1501 H 135.239 -3.11803 -5.24987 0
M  V30 1502 H 136.653 -4.55054 -3.4871 0
M  V30 1503 H 135.05 -5.18722 -3.0174 0
M  V30 1504 H 136.12 -4.51229 -1.7754 0
M  V30 1505 N 137.463 0.71206 -1.40597 0
M  V30 1506 C 138.711 1.46907 -1.38791 0
M  V30 1507 C 139.032 1.94998 0.00780391 0
M  V30 1508 O 138.302 1.70587 0.963174 0
M  V30 1509 H 136.882 0.545043 -0.51082 0
M  V30 1510 H 139.544 0.843882 -1.75683 0
M  V30 1511 H 138.64 2.34021 -2.06496 0
M  V30 1512 N 138.941 1.26152 0.944643 0
M  V30 1513 C 140.189 1.11271 1.6871 0
M  V30 1514 C 140.51 -0.345166 1.91921 0
M  V30 1515 O 139.78 -1.24387 1.51343 0
M  V30 1516 H 138.36 0.408783 0.625224 0
M  V30 1517 H 141.022 1.58427 1.1352 0
M  V30 1518 H 140.118 1.62879 2.66227 0
M  V30 1519 N 140.419 -1.14872 1.07899 0
M  V30 1520 C 141.667 -1.85422 0.803941 0
M  V30 1521 C 141.988 -1.83051 -0.67211 0
M  V30 1522 O 141.258 -1.27532 -1.48703 0
M  V30 1523 H 139.838 -0.686537 0.294408 0
M  V30 1524 H 142.5 -1.39226 1.3639 0
M  V30 1525 H 141.596 -2.90399 1.14346 0
M  V30 1526 N 141.898 -0.863906 -1.31812 0
M  V30 1527 C 143.123 -0.48527 -2.01643 0
M  V30 1528 C 143.548 0.913058 -1.64453 0
M  V30 1529 O 142.906 1.6014 -0.849985 0
M  V30 1530 C 142.954 -0.642625 -3.54828 0
M  V30 1531 O 142.058 0.320659 -4.11151 0
M  V30 1532 H 141.399 -0.193793 -0.635091 0
M  V30 1533 H 143.929 -1.16565 -1.68148 0
M  V30 1534 H 143.939 -0.533628 -4.04495 0
M  V30 1535 H 142.614 -1.66227 -3.81237 0
M  V30 1536 H 141.191 0.167126 -3.72525 0
M  V30 1537 N 143.376 1.44774 -0.622745 0
M  V30 1538 C 144.787 1.85546 -0.207226 0
M  V30 1539 C 145.138 1.52093 1.23944 0
M  V30 1540 O 144.263 0.95492 1.94191 0
M  V30 1541 C 144.858 3.36781 -0.369313 0
M  V30 1542 C 143.417 3.76399 -0.00836847 0
M  V30 1543 C 142.564 2.68664 -0.686651 0
M  V30 1544 H 145.515 1.3536 -0.828454 0
M  V30 1545 H 145.536 3.78453 0.394162 0
M  V30 1546 H 145.048 3.61098 -1.42231 0
M  V30 1547 H 143.149 3.57698 1.04322 0
M  V30 1548 H 143.262 4.7732 -0.412584 0
M  V30 1549 H 141.626 2.54404 -0.122777 0
M  V30 1550 H 142.409 2.95815 -1.74208 0
M  V30 1551 N 144.854 0.36279 1.53368 0
M  V30 1552 C 145.787 -0.528507 2.21996 0
M  V30 1553 C 146.765 -1.0852 1.21087 0
M  V30 1554 O 147.949 -1.14186 1.4998 0
M  V30 1555 C 145.076 -1.72893 2.91249 0
M  V30 1556 C 144.122 -1.29994 4.06207 0
M  V30 1557 S 144.955 -0.303575 5.34639 0
M  V30 1558 C 146.111 -1.51039 6.07403 0
M  V30 1559 H 146.344 0.0543423 2.9725 0
M  V30 1560 H 143.877 0.146889 1.537 0
M  V30 1561 H 145.835 -2.41751 3.31763 0
M  V30 1562 H 144.496 -2.28303 2.15724 0
M  V30 1563 H 143.689 -2.19549 4.53667 0
M  V30 1564 H 143.291 -0.690608 3.67569 0
M  V30 1565 H 145.583 -2.44186 6.31965 0
M  V30 1566 H 146.526 -1.07721 6.99858 0
M  V30 1567 H 146.934 -1.71518 5.37812 0
M  V30 1568 N 146.332 -1.57332 0.0918853 0
M  V30 1569 C 147.609 -1.85691 -0.614668 0
M  V30 1570 C 147.989 -0.988146 -1.86545 0
M  V30 1571 O 147.337 -0.0597055 -2.28422 0
M  V30 1572 C 147.547 -3.36294 -0.933126 0
M  V30 1573 C 148.895 -4.04275 -1.29796 0
M  V30 1574 O 149.919 -3.41157 -1.02424 0
M  V30 1575 O 148.778 -5.1564 -1.81047 0
M  V30 1576 H 145.872 -0.767802 -0.307261 0
M  V30 1577 H 148.418 -1.69244 0.12434 0
M  V30 1578 H 147.19 -3.91273 -0.0456404 0
M  V30 1579 H 146.813 -3.58076 -1.72822 0
M  V30 1580 N 147.81 0.181792 -1.56548 0
M  V30 1581 C 149.057 0.900097 -1.81396 0
M  V30 1582 C 149.385 1.82695 -0.667281 0
M  V30 1583 O 148.64 1.92614 0.346146 0
M  V30 1584 C 148.939 1.73728 -3.12335 0
M  V30 1585 C 148.605 0.960255 -4.40556 0
M  V30 1586 C 147.267 0.745766 -4.75386 0
M  V30 1587 C 149.619 0.414477 -5.19549 0
M  V30 1588 C 146.947 -0.0257694 -5.86694 0
M  V30 1589 C 149.299 -0.343916 -6.31664 0
M  V30 1590 C 147.963 -0.569301 -6.65068 0
M  V30 1591 H 147.233 0.329369 -0.663775 0
M  V30 1592 H 149.88 0.165647 -1.90782 0
M  V30 1593 H 148.185 2.54081 -2.98245 0
M  V30 1594 H 149.882 2.29591 -3.28769 0
M  V30 1595 H 146.472 1.13746 -4.13231 0
M  V30 1596 H 150.656 0.567554 -4.93044 0
M  V30 1597 H 145.912 -0.210233 -6.11038 0
M  V30 1598 H 150.086 -0.774133 -6.92084 0
M  V30 1599 H 147.713 -1.16903 -7.51158 0
M  V30 1600 N 149.288 1.51039 0.449983 0
M  V30 1601 C 150.251 1.70863 1.5277 0
M  V30 1602 C 151.251 0.578846 1.5002 0
M  V30 1603 O 152.441 0.846213 1.52266 0
M  V30 1604 C 149.573 1.75341 2.9235 0
M  V30 1605 H 150.766 2.67034 1.36502 0
M  V30 1606 H 148.319 1.40838 0.677812 0
M  V30 1607 H 149.054 0.809383 3.14037 0
M  V30 1608 H 148.839 2.57436 2.95752 0
M  V30 1609 H 150.329 1.92559 3.70555 0
M  V30 1610 N 150.766 -0.704594 1.40972 0
M  V30 1611 C 151.713 -1.81862 1.42109 0
M  V30 1612 C 152.683 -1.63781 0.276593 0
M  V30 1613 O 153.868 -1.84759 0.4763 0
M  V30 1614 C 151.008 -3.19669 1.30022 0
M  V30 1615 C 150.121 -3.49246 2.54267 0
M  V30 1616 C 149.256 -4.76618 2.3454 0
M  V30 1617 C 148.295 -4.99133 3.54306 0
M  V30 1618 N 147.432 -6.17726 3.33706 0
M  V30 1619 H 152.272 -1.80226 2.37324 0
M  V30 1620 H 149.809 -0.880238 1.17857 0
M  V30 1621 H 151.767 -3.99263 1.21018 0
M  V30 1622 H 150.397 -3.20506 0.384192 0
M  V30 1623 H 149.449 -2.64125 2.73756 0
M  V30 1624 H 150.761 -3.61788 3.43381 0
M  V30 1625 H 149.915 -5.64249 2.22952 0
M  V30 1626 H 148.654 -4.66305 1.42867 0
M  V30 1627 H 147.659 -4.09953 3.66359 0
M  V30 1628 H 148.884 -5.11311 4.4692 0
M  V30 1629 H 146.83 -6.08642 2.44725 0
M  V30 1630 H 146.747 -6.30995 4.16391 0
M  V30 1631 H 148.015 -7.08115 3.25873 0
M  V30 1632 N 152.244 -1.26651 -0.937939 0
M  V30 1633 C 153.207 -1.08546 -2.01867 0
M  V30 1634 C 154.207 -0.0327327 -1.60767 0
M  V30 1635 O 155.397 -0.276427 -1.71993 0
M  V30 1636 C 152.529 -0.651711 -3.34613 0
M  V30 1637 H 153.722 -2.04502 -2.1936 0
M  V30 1638 H 151.275 -1.09294 -1.11734 0
M  V30 1639 H 152.01 0.309696 -3.22818 0
M  V30 1640 H 151.795 -1.41189 -3.65798 0
M  V30 1641 H 153.285 -0.546973 -4.14002 0
M  V30 1642 N 153.722 1.14298 -1.08507 0
M  V30 1643 C 154.968 1.85633 -0.816581 0
M  V30 1644 C 155.301 1.82784 0.656021 0
M  V30 1645 O 154.576 1.25926 1.48233 0
M  V30 1646 C 154.859 3.34223 -1.34041 0
M  V30 1647 C 154.712 3.45639 -2.87843 0
M  V30 1648 C 156.031 4.29356 -0.9665 0
M  V30 1649 H 153.15 0.67402 -0.298104 0
M  V30 1650 H 155.792 1.34214 -1.34487 0
M  V30 1651 H 153.942 3.78144 -0.89104 0
M  V30 1652 H 155.614 3.10498 -3.41158 0
M  V30 1653 H 153.857 2.86817 -3.25451 0
M  V30 1654 H 154.528 4.50089 -3.19569 0
M  V30 1655 H 157.004 3.93457 -1.35391 0
M  V30 1656 H 155.88 5.3178 -1.3602 0
M  V30 1657 H 156.141 4.41919 0.126362 0
M  V30 1658 N 155.201 0.870884 1.31352 0
M  V30 1659 C 156.164 0.332243 2.26779 0
M  V30 1660 C 157.164 -0.517302 1.52252 0
M  V30 1661 O 158.354 -0.326477 1.71113 0
M  V30 1662 C 155.486 -0.528066 3.36785 0
M  V30 1663 H 156.679 1.17469 2.75937 0
M  V30 1664 H 154.232 0.64655 1.423 0
M  V30 1665 H 154.967 -1.39167 2.92922 0
M  V30 1666 H 154.752 0.0802582 3.92018 0
M  V30 1667 H 156.242 -0.897179 4.07849 0
M  V30 1668 N 156.679 -1.44442 0.630414 0
M  V30 1669 C 157.925 -2.02351 0.134816 0
M  V30 1670 C 158.258 -1.4947 -1.23986 0
M  V30 1671 O 157.533 -0.678475 -1.82283 0
M  V30 1672 C 157.816 -3.59898 0.120707 0
M  V30 1673 C 157.669 -4.23063 1.52767 0
M  V30 1674 C 158.988 -4.36585 -0.555127 0
M  V30 1675 H 156.107 -0.73527 0.0504646 0
M  V30 1676 H 158.749 -1.72022 0.806751 0
M  V30 1677 H 156.899 -3.85868 -0.451477 0
M  V30 1678 H 158.571 -4.08202 2.14869 0
M  V30 1679 H 156.814 -3.80586 2.08175 0
M  V30 1680 H 157.485 -5.32071 1.46984 0
M  V30 1681 H 159.961 -4.16044 -0.0685429 0
M  V30 1682 H 158.837 -5.46294 -0.534185 0
M  V30 1683 H 159.098 -4.11138 -1.62535 0
M  V30 1684 N 158.157 -0.370918 -1.53173 0
M  V30 1685 C 159.087 0.464847 -2.28826 0
M  V30 1686 C 160.068 1.07936 -1.31468 0
M  V30 1687 O 161.253 1.0956 -1.60344 0
M  V30 1688 C 158.383 1.60196 -3.08147 0
M  V30 1689 C 157.337 1.11443 -4.13237 0
M  V30 1690 C 156.663 2.3422 -4.80672 0
M  V30 1691 C 157.963 0.195384 -5.21934 0
M  V30 1692 H 159.657 -0.166329 -2.98938 0
M  V30 1693 H 157.203 -0.0814359 -1.4377 0
M  V30 1694 H 159.156 2.19332 -3.59822 0
M  V30 1695 H 157.88 2.26045 -2.35735 0
M  V30 1696 H 156.539 0.545727 -3.62515 0
M  V30 1697 H 156.187 2.98537 -4.04827 0
M  V30 1698 H 155.887 2.02269 -5.51689 0
M  V30 1699 H 157.411 2.94032 -5.35143 0
M  V30 1700 H 158.825 0.694375 -5.69079 0
M  V30 1701 H 157.222 -0.0335027 -6.00091 0
M  V30 1702 H 158.292 -0.760961 -4.78892 0
M  V30 1703 N 159.635 1.57281 -0.100228 0
M  V30 1704 C 160.565 2.17328 0.853857 0
M  V30 1705 C 161.546 1.10804 1.2906 0
M  V30 1706 O 162.731 1.38963 1.35657 0
M  V30 1707 C 159.861 2.75772 2.11109 0
M  V30 1708 C 158.815 3.87713 1.81279 0
M  V30 1709 C 158.141 4.32882 3.13874 0
M  V30 1710 C 159.441 5.10677 1.09574 0
M  V30 1711 H 161.135 2.97305 0.353545 0
M  V30 1712 H 158.681 1.43009 0.168612 0
M  V30 1713 H 160.634 3.16433 2.78296 0
M  V30 1714 H 159.358 1.93057 2.63432 0
M  V30 1715 H 158.017 3.476 1.16489 0
M  V30 1716 H 157.665 3.47051 3.64095 0
M  V30 1717 H 157.365 5.08358 2.94696 0
M  V30 1718 H 158.889 4.7618 3.82211 0
M  V30 1719 H 160.303 5.48474 1.66879 0
M  V30 1720 H 158.7 5.91615 1.00557 0
M  V30 1721 H 159.77 4.84835 0.0793299 0
M  V30 1722 N 161.113 -0.173488 1.56642 0
M  V30 1723 C 162.06 -1.21482 1.96242 0
M  V30 1724 C 163.03 -1.44104 0.826027 0
M  V30 1725 O 164.215 -1.5688 1.08597 0
M  V30 1726 C 161.355 -2.54964 2.32567 0
M  V30 1727 C 160.468 -2.39739 3.59373 0
M  V30 1728 C 159.603 -3.66072 3.84921 0
M  V30 1729 C 158.642 -3.45771 5.05083 0
M  V30 1730 N 157.779 -4.64169 5.26775 0
M  V30 1731 H 162.619 -0.870123 2.85014 0
M  V30 1732 H 160.156 -0.418245 1.41029 0
M  V30 1733 H 162.114 -3.32758 2.5165 0
M  V30 1734 H 160.744 -2.87433 1.46908 0
M  V30 1735 H 159.796 -1.53131 3.48217 0
M  V30 1736 H 161.108 -2.20683 4.47326 0
M  V30 1737 H 160.262 -4.52303 4.0436 0
M  V30 1738 H 159.001 -3.88105 2.9534 0
M  V30 1739 H 158.006 -2.57927 4.85545 0
M  V30 1740 H 159.231 -3.25163 5.96193 0
M  V30 1741 H 157.177 -4.86425 4.40144 0
M  V30 1742 H 157.094 -4.48019 6.08946 0
M  V30 1743 H 158.362 -5.51689 5.5069 0
M  V30 1744 N 162.591 -1.51276 -0.441967 0
M  V30 1745 C 163.501 -1.75092 -1.56141 0
M  V30 1746 C 164.517 -0.634963 -1.62001 0
M  V30 1747 O 165.693 -0.916686 -1.79329 0
M  V30 1748 C 162.758 -1.86666 -2.92158 0
M  V30 1749 C 161.819 -3.10506 -2.96453 0
M  V30 1750 C 161.052 -3.21519 -4.25982 0
M  V30 1751 O 161.275 -2.38586 -5.18105 0
M  V30 1752 O 160.209 -4.14465 -4.36466 0
M  V30 1753 H 164.035 -2.70044 -1.38961 0
M  V30 1754 H 161.62 -1.35722 -0.624499 0
M  V30 1755 H 163.502 -1.96292 -3.72891 0
M  V30 1756 H 162.177 -0.949014 -3.09476 0
M  V30 1757 H 161.084 -3.06363 -2.14692 0
M  V30 1758 H 162.417 -4.01945 -2.84079 0
M  V30 1759 N 164.069 0.697108 -1.41344 0
M  V30 1760 C 165.016 1.81106 -1.43071 0
M  V30 1761 C 165.986 1.63632 -0.285275 0
M  V30 1762 O 167.171 1.84504 -0.486091 0
M  V30 1763 C 164.311 3.18975 -1.31715 0
M  V30 1764 C 163.424 3.47892 -2.56115 0
M  V30 1765 C 162.559 4.75367 -2.37064 0
M  V30 1766 C 161.598 4.97247 -3.56948 0
M  V30 1767 N 160.735 6.15947 -3.36977 0
M  V30 1768 H 165.575 1.78965 -2.38276 0
M  V30 1769 H 163.112 0.873975 -1.18322 0
M  V30 1770 H 165.07 3.98615 -1.23133 0
M  V30 1771 H 163.7 3.20297 -0.401183 0
M  V30 1772 H 162.752 2.62669 -2.75153 0
M  V30 1773 H 164.064 3.59962 -3.45295 0
M  V30 1774 H 163.218 5.63059 -2.25941 0
M  V30 1775 H 161.957 4.65541 -1.45338 0
M  V30 1776 H 160.962 4.08004 -3.68527 0
M  V30 1777 H 162.187 5.08934 -4.49626 0
M  V30 1778 H 160.133 6.07336 -2.47949 0
M  V30 1779 H 160.05 6.28777 -4.19732 0
M  V30 1780 H 161.318 7.06377 -3.29623 0
M  V30 1781 N 165.547 1.27147 0.931209 0
M  V30 1782 C 166.824 1.0401 1.65654 0
M  V30 1783 C 167.204 -0.426297 2.06751 0
M  V30 1784 O 166.552 -1.40879 1.79904 0
M  V30 1785 C 166.762 1.99834 2.86125 0
M  V30 1786 C 168.11 2.29007 3.57549 0
M  V30 1787 O 169.134 1.97779 2.96246 0
M  V30 1788 O 167.993 2.82222 4.67989 0
M  V30 1789 H 165.087 0.396239 0.725895 0
M  V30 1790 H 167.633 1.38397 0.982056 0
M  V30 1791 H 166.405 2.98744 2.52721 0
M  V30 1792 H 166.028 1.65987 3.61295 0
M  V30 1793 N 167.025 -1.13721 1.09112 0
M  V30 1794 C 167.955 -2.21148 0.749385 0
M  V30 1795 C 168.936 -1.6792 -0.271475 0
M  V30 1796 O 170.121 -1.93693 -0.140251 0
M  V30 1797 C 167.251 -3.46905 0.165659 0
M  V30 1798 C 166.205 -4.13203 1.11567 0
M  V30 1799 C 165.531 -5.33248 0.393809 0
M  V30 1800 C 166.831 -4.60912 2.45678 0
M  V30 1801 H 168.525 -2.4999 1.64758 0
M  V30 1802 H 166.071 -1.20156 0.793626 0
M  V30 1803 H 168.024 -4.21313 -0.085466 0
M  V30 1804 H 166.748 -3.17449 -0.767714 0
M  V30 1805 H 165.407 -3.40758 1.35202 0
M  V30 1806 H 165.055 -5.00054 -0.543599 0
M  V30 1807 H 164.755 -5.78552 1.02721 0
M  V30 1808 H 166.279 -6.10413 0.150908 0
M  V30 1809 H 167.693 -5.26759 2.26269 0
M  V30 1810 H 166.09 -5.16944 3.04776 0
M  V30 1811 H 167.16 -3.75603 3.06677 0
M  V30 1812 N 168.503 -0.877838 -1.30888 0
M  V30 1813 C 169.728 -0.506629 -2.01117 0
M  V30 1814 C 170.153 0.895564 -1.65412 0
M  V30 1815 O 169.511 1.5923 -0.866922 0
M  V30 1816 C 169.559 -0.680223 -3.54126 0
M  V30 1817 O 168.663 0.277033 -4.11468 0
M  V30 1818 H 168.004 -0.200518 -0.633 0
M  V30 1819 H 170.534 -1.18342 -1.66902 0
M  V30 1820 H 170.544 -0.5765 -4.03907 0
M  V30 1821 H 169.219 -1.70261 -3.79452 0
M  V30 1822 H 167.796 0.127606 -3.72682 0
M  V30 1823 N 169.982 1.44106 -0.638065 0
M  V30 1824 C 171.228 2.02277 -0.145546 0
M  V30 1825 C 171.561 1.50125 1.23191 0
M  V30 1826 O 170.836 0.688133 1.8192 0
M  V30 1827 C 171.119 3.59829 -0.139791 0
M  V30 1828 C 170.972 4.22247 -1.55008 0
M  V30 1829 C 172.291 4.36873 0.531966 0
M  V30 1830 H 169.41 0.734992 -0.0543632 0
M  V30 1831 H 172.052 1.71592 -0.815863 0
M  V30 1832 H 170.202 3.86102 0.431007 0
M  V30 1833 H 171.874 4.07057 -2.1703 0
M  V30 1834 H 170.117 3.79476 -2.10191 0
M  V30 1835 H 170.788 5.31284 -1.49804 0
M  V30 1836 H 173.264 4.16074 0.0464781 0
M  V30 1837 H 172.14 5.4657 0.505206 0
M  V30 1838 H 172.401 4.11995 1.60352 0
M  V30 1839 N 171.46 0.379036 1.52974 0
M  V30 1840 C 172.37 -0.468639 2.29872 0
M  V30 1841 C 173.386 -1.08067 1.36373 0
M  V30 1842 O 174.562 -1.08871 1.69438 0
M  V30 1843 C 171.627 -1.58594 3.083 0
M  V30 1844 C 170.688 -1.00007 4.17489 0
M  V30 1845 C 169.921 -2.06413 4.92168 0
M  V30 1846 O 170.144 -3.27751 4.66835 0
M  V30 1847 O 169.078 -1.68717 5.7777 0
M  V30 1848 H 172.904 0.157508 3.03291 0
M  V30 1849 H 170.489 0.143035 1.48714 0
M  V30 1850 H 172.371 -2.23525 3.57232 0
M  V30 1851 H 171.046 -2.19724 2.37703 0
M  V30 1852 H 169.953 -0.314299 3.72777 0
M  V30 1853 H 171.286 -0.433135 4.90291 0
M  V30 1854 N 172.938 -1.57226 0.108567 0
M  V30 1855 C 174.215 -1.86333 -0.594939 0
M  V30 1856 C 174.595 -1.00788 -1.85486 0
M  V30 1857 O 173.943 -0.0839293 -2.28346 0
M  V30 1858 C 174.153 -3.37265 -0.897405 0
M  V30 1859 C 175.501 -4.05629 -1.25501 0
M  V30 1860 O 176.525 -3.42224 -0.987998 0
M  V30 1861 O 175.384 -5.17531 -1.75567 0
M  V30 1862 H 172.478 -0.771018 -0.2991 0
M  V30 1863 H 175.024 -1.69102 0.142283 0
M  V30 1864 H 173.796 -3.913 -0.00413806 0
M  V30 1865 H 173.419 -3.59889 -1.69014 0
M  V30 1866 N 174.416 0.165178 -1.56732 0
M  V30 1867 C 175.346 1.20651 -1.99914 0
M  V30 1868 C 176.327 1.45827 -0.875705 0
M  V30 1869 O 177.512 1.57057 -1.14223 0
M  V30 1870 C 174.642 2.54401 -2.36427 0
M  V30 1871 C 173.596 2.43782 -3.51787 0
M  V30 1872 C 172.922 3.82078 -3.7406 0
M  V30 1873 C 174.222 1.93732 -4.85041 0
M  V30 1874 H 175.916 0.847534 -2.87154 0
M  V30 1875 H 173.462 0.40625 -1.38151 0
M  V30 1876 H 175.415 3.27458 -2.65234 0
M  V30 1877 H 174.139 2.92098 -1.46103 0
M  V30 1878 H 172.798 1.73178 -3.23117 0
M  V30 1879 H 172.446 4.17179 -2.81017 0
M  V30 1880 H 172.146 3.7584 -4.51684 0
M  V30 1881 H 173.67 4.56712 -4.05274 0
M  V30 1882 H 175.084 2.56569 -5.12684 0
M  V30 1883 H 173.481 1.98428 -5.66345 0
M  V30 1884 H 174.551 0.891962 -4.76626 0
M  V30 1885 N 175.894 1.51508 0.433938 0
M  V30 1886 C 177.124 1.67914 1.20369 0
M  V30 1887 C 177.532 0.377461 1.85397 0
M  V30 1888 O 176.875 -0.654255 1.71654 0
M  V30 1889 C 176.937 2.74045 2.32679 0
M  V30 1890 C 176.601 4.16543 1.87991 0
M  V30 1891 C 177.598 5.01211 1.38145 0
M  V30 1892 C 175.283 4.6266 1.95579 0
M  V30 1893 C 177.277 6.30056 0.964774 0
M  V30 1894 C 174.964 5.91501 1.53523 0
M  V30 1895 C 175.962 6.75027 1.04055 0
M  V30 1896 O 175.65 8.01459 0.625964 0
M  V30 1897 H 175.382 0.566578 0.368735 0
M  V30 1898 H 177.936 1.98709 0.51999 0
M  V30 1899 H 176.166 2.38572 3.04336 0
M  V30 1900 H 177.855 2.79295 2.94532 0
M  V30 1901 H 178.621 4.66783 1.31675 0
M  V30 1902 H 174.5 3.97767 2.33029 0
M  V30 1903 H 178.044 6.95202 0.57796 0
M  V30 1904 H 173.941 6.25442 1.59665 0
M  V30 1905 H 174.709 8.15043 0.751509 0
M  V30 1906 N 177.372 -0.689602 1.41712 0
M  V30 1907 C 178.649 -1.44457 1.31877 0
M  V30 1908 C 179.029 -2.11039 -0.0508537 0
M  V30 1909 O 178.377 -2.02138 -1.06547 0
M  V30 1910 C 178.587 -2.45913 2.47645 0
M  V30 1911 C 179.935 -3.10991 2.89084 0
M  V30 1912 O 180.959 -2.56238 2.47428 0
M  V30 1913 O 179.818 -4.10174 3.61137 0
M  V30 1914 H 176.912 -0.64362 0.519309 0
M  V30 1915 H 179.458 -0.719576 1.53689 0
M  V30 1916 H 178.23 -1.95409 3.39015 0
M  V30 1917 H 177.853 -3.25913 2.27742 0
M  V30 1918 N 178.85 -1.27639 -0.924453 0
M  V30 1919 C 180.266 -1.05113 -1.20097 0
M  V30 1920 C 180.466 0.213262 -2.00368 0
M  V30 1921 O 179.522 0.91787 -2.35226 0
M  V30 1922 C 180.835 -2.29244 -1.94596 0
M  V30 1923 C 182.383 -2.34315 -2.07522 0
M  V30 1924 C 182.858 -3.58183 -2.85427 0
M  V30 1925 N 184.349 -3.5876 -2.92994 0
M  V30 1926 C 185.084 -4.51277 -3.53746 0
M  V30 1927 N 184.58 -5.54102 -4.15863 0
M  V30 1928 N 186.373 -4.38894 -3.51181 0
M  V30 1929 H 178.524 -2.08821 -0.388264 0
M  V30 1930 H 180.787 -0.918568 -0.234385 0
M  V30 1931 H 180.493 -3.21301 -1.43034 0
M  V30 1932 H 180.367 -2.34816 -2.95197 0
M  V30 1933 H 182.754 -1.42762 -2.58269 0
M  V30 1934 H 182.835 -2.32744 -1.06131 0
M  V30 1935 H 182.479 -4.50074 -2.35363 0
M  V30 1936 H 182.409 -3.57006 -3.8711 0
M  V30 1937 H 184.9 -2.84398 -2.4885 0
M  V30 1938 H 185.213 -6.20859 -4.60168 0
M  V30 1939 H 183.558 -5.57941 -4.144 0
M  V30 1940 H 186.749 -3.57772 -3.01856 0
M  V30 1941 H 186.922 -5.11186 -3.98237 0
M  V30 1942 N 180.328 1.1314 -1.09713 0
M  V30 1943 C 181.238 2.22242 -0.751367 0
M  V30 1944 C 182.254 1.72224 0.247938 0
M  V30 1945 O 183.43 2.01205 0.0885463 0
M  V30 1946 C 180.495 3.46231 -0.180274 0
M  V30 1947 C 179.556 4.11125 -1.2359 0
M  V30 1948 C 178.789 5.29195 -0.691966 0
M  V30 1949 O 179.012 5.68342 0.48414 0
M  V30 1950 O 177.946 5.84214 -1.44838 0
M  V30 1951 H 181.772 2.54197 -1.66186 0
M  V30 1952 H 179.357 1.21331 -0.871735 0
M  V30 1953 H 181.239 4.21185 0.134739 0
M  V30 1954 H 179.914 3.1597 0.703185 0
M  V30 1955 H 178.821 3.37985 -1.60366 0
M  V30 1956 H 180.154 4.45524 -2.09211 0
M  V30 1957 N 181.806 0.884767 1.30421 0
M  V30 1958 C 182.753 0.349642 2.28136 0
M  V30 1959 C 183.723 -0.560061 1.56373 0
M  V30 1960 O 184.908 -0.488524 1.8444 0
M  V30 1961 C 182.048 -0.42999 3.42411 0
M  V30 1962 C 181.161 0.508907 4.28992 0
M  V30 1963 C 180.296 -0.286301 5.30428 0
M  V30 1964 C 179.335 0.648079 6.08659 0
M  V30 1965 N 178.472 -0.111792 7.02011 0
M  V30 1966 H 183.312 1.18807 2.73293 0
M  V30 1967 H 180.849 0.597231 1.3443 0
M  V30 1968 H 182.807 -0.897923 4.07423 0
M  V30 1969 H 181.437 -1.23299 2.98324 0
M  V30 1970 H 180.489 1.09533 3.64289 0
M  V30 1971 H 181.801 1.22475 4.8353 0
M  V30 1972 H 180.955 -0.816098 6.01186 0
M  V30 1973 H 179.694 -1.03536 4.76583 0
M  V30 1974 H 178.699 1.18951 5.36778 0
M  V30 1975 H 179.924 1.39623 6.64592 0
M  V30 1976 H 177.87 -0.843395 6.50556 0
M  V30 1977 H 177.787 0.544429 7.54037 0
M  V30 1978 H 179.055 -0.622339 7.77012 0
M  V30 1979 N 183.284 -1.43765 0.645699 0
M  V30 1980 C 184.53 -2.02197 0.156271 0
M  V30 1981 C 184.863 -1.50776 -1.22393 0
M  V30 1982 O 184.138 -0.697771 -1.81553 0
M  V30 1983 C 184.421 -3.59749 0.158872 0
M  V30 1984 C 184.274 -4.21419 1.57245 0
M  V30 1985 C 185.593 -4.37149 -0.50879 0
M  V30 1986 H 182.712 -0.734694 0.0582602 0
M  V30 1987 H 185.354 -1.71157 0.824951 0
M  V30 1988 H 183.504 -3.86325 -0.410525 0
M  V30 1989 H 185.176 -4.059 2.19186 0
M  V30 1990 H 183.419 -3.78356 2.122 0
M  V30 1991 H 184.09 -5.30482 1.52619 0
M  V30 1992 H 186.566 -4.16093 -0.024412 0
M  V30 1993 H 185.442 -5.4683 -0.476213 0
M  V30 1994 H 185.703 -4.12839 -1.58165 0
M  V30 1995 N 184.763 -0.387143 -1.52771 0
M  V30 1996 C 185.71 0.449048 -2.26389 0
M  V30 1997 C 186.68 1.05961 -1.27912 0
M  V30 1998 O 187.865 1.08804 -1.56737 0
M  V30 1999 C 185.005 1.57155 -3.0724 0
M  V30 2000 C 184.118 0.984066 -4.20643 0
M  V30 2001 C 183.253 2.07745 -4.88892 0
M  V30 2002 C 182.292 1.46574 -5.94292 0
M  V30 2003 N 181.429 2.49834 -6.56146 0
M  V30 2004 H 186.269 -0.185205 -2.97424 0
M  V30 2005 H 183.806 -0.103164 -1.46738 0
M  V30 2006 H 185.764 2.23309 -3.52405 0
M  V30 2007 H 184.394 2.17615 -2.38419 0
M  V30 2008 H 183.446 0.212193 -3.79808 0
M  V30 2009 H 184.758 0.497029 -4.96318 0
M  V30 2010 H 183.912 2.81673 -5.3735 0
M  V30 2011 H 182.651 2.59807 -4.12737 0
M  V30 2012 H 181.656 0.711696 -5.45174 0
M  V30 2013 H 182.881 0.953088 -6.72379 0
M  V30 2014 H 180.827 3.0107 -5.82832 0
M  V30 2015 H 180.744 2.05879 -7.27427 0
M  V30 2016 H 182.012 3.23399 -7.09249 0
M  V30 2017 N 186.241 1.57166 -0.116904 0
M  V30 2018 C 187.191 2.11756 0.845178 0
M  V30 2019 C 188.175 1.03783 1.22955 0
M  V30 2020 O 189.367 1.3002 1.20099 0
M  V30 2021 C 186.496 2.71886 2.09602 0
M  V30 2022 C 185.582 3.86937 1.7361 0
M  V30 2023 N 185.973 4.94073 1.08284 0
M  V30 2024 C 184.271 3.97082 2.03082 0
M  V30 2025 C 184.972 5.74477 0.913855 0
M  V30 2026 N 183.948 5.2423 1.43818 0
M  V30 2027 H 187.75 2.91967 0.336523 0
M  V30 2028 H 185.264 1.62174 0.0856332 0
M  V30 2029 H 187.261 3.09338 2.79492 0
M  V30 2030 H 185.921 1.93138 2.61013 0
M  V30 2031 H 186.932 5.12483 0.747067 0
M  V30 2032 H 183.609 3.29372 2.56554 0
M  V30 2033 H 184.999 6.70701 0.40125 0
M  V30 2034 N 187.719 -0.156864 1.56817 0
M  V30 2035 C 188.965 -0.867645 1.83966 0
M  V30 2036 C 189.32 -1.79233 0.699511 0
M  V30 2037 O 188.613 -1.89186 -0.303176 0
M  V30 2038 C 188.807 -1.68737 3.1506 0
M  V30 2039 C 188.636 -0.843548 4.41718 0
M  V30 2040 C 187.406 -0.512994 5.02689 0
M  V30 2041 C 189.604 -0.178416 5.1399 0
M  V30 2042 N 187.586 0.345456 6.12927 0
M  V30 2043 C 188.957 0.540586 6.17639 0
M  V30 2044 C 191.012 -0.0980696 4.97803 0
M  V30 2045 C 189.715 1.33233 7.06853 0
M  V30 2046 C 191.741 0.680387 5.87473 0
M  V30 2047 C 191.103 1.3877 6.90596 0
M  V30 2048 H 187.202 -0.295642 0.723961 0
M  V30 2049 H 189.786 -0.13365 1.94241 0
M  V30 2050 H 187.957 -2.39268 3.0595 0
M  V30 2051 H 189.689 -2.34056 3.30151 0
M  V30 2052 H 186.444 -0.846476 4.65974 0
M  V30 2053 H 186.868 0.765415 6.72659 0
M  V30 2054 H 191.51 -0.630562 4.18071 0
M  V30 2055 H 189.228 1.87612 7.8602 0
M  V30 2056 H 192.814 0.744415 5.77018 0
M  V30 2057 H 191.694 1.9804 7.58782 0
M  V30 2058 N 189.197 -1.51736 -0.425897 0
M  V30 2059 C 190.127 -1.76827 -1.52494 0
M  V30 2060 C 191.108 -0.618524 -1.58456 0
M  V30 2061 O 192.293 -0.862416 -1.74 0
M  V30 2062 C 189.423 -1.90374 -2.90474 0
M  V30 2063 C 188.377 -3.0588 -2.99369 0
M  V30 2064 C 187.703 -3.04625 -4.3944 0
M  V30 2065 C 189.003 -4.45644 -2.72394 0
M  V30 2066 H 190.697 -2.68855 -1.31748 0
M  V30 2067 H 188.243 -1.29372 -0.632362 0
M  V30 2068 H 190.196 -2.0651 -3.6733 0
M  V30 2069 H 188.92 -0.95004 -3.12477 0
M  V30 2070 H 187.579 -2.89467 -2.24954 0
M  V30 2071 H 187.227 -2.0701 -4.58428 0
M  V30 2072 H 186.927 -3.82195 -4.46319 0
M  V30 2073 H 188.451 -3.22869 -5.18255 0
M  V30 2074 H 189.865 -4.62348 -3.38979 0
M  V30 2075 H 188.262 -5.25006 -2.9067 0
M  V30 2076 H 189.332 -4.54893 -1.67929 0
M  V30 2077 N 190.675 0.682077 -1.42076 0
M  V30 2078 C 192.086 1.26246 -1.37546 0
M  V30 2079 C 192.437 1.96092 -0.0651481 0
M  V30 2080 O 191.562 1.99587 0.836297 0
M  V30 2081 C 192.157 2.29594 -2.49143 0
M  V30 2082 C 190.716 2.83175 -2.47969 0
M  V30 2083 C 189.863 1.57395 -2.28303 0
M  V30 2084 H 192.814 0.475937 -1.51395 0
M  V30 2085 H 192.835 3.11175 -2.18976 0
M  V30 2086 H 192.347 1.78729 -3.44496 0
M  V30 2087 H 190.448 3.3818 -1.56413 0
M  V30 2088 H 190.561 3.32687 -3.44755 0
M  V30 2089 H 188.925 1.83699 -1.76428 0
M  V30 2090 H 189.708 1.08507 -3.25701 0
M  V30 2091 N 192.153 1.28127 0.917671 0
M  V30 2092 C 193.399 1.15223 1.66888 0
M  V30 2093 C 193.732 -0.299293 1.9188 0
M  V30 2094 O 193.007 -1.21805 1.51637 0
M  V30 2095 C 193.29 1.94706 3.02922 0
M  V30 2096 C 193.143 3.47898 2.85109 0
M  V30 2097 C 194.462 1.75939 4.03402 0
M  V30 2098 H 191.581 0.419946 0.605652 0
M  V30 2099 H 194.223 1.57398 1.06423 0
M  V30 2100 H 192.373 1.58864 3.54534 0
M  V30 2101 H 194.045 3.93624 2.40537 0
M  V30 2102 H 192.288 3.7373 2.20246 0
M  V30 2103 H 192.959 3.98765 3.81694 0
M  V30 2104 H 195.435 2.07209 3.60837 0
M  V30 2105 H 194.311 2.33931 4.96556 0
M  V30 2106 H 194.572 0.709877 4.36364 0
M  V30 2107 N 193.631 -1.12557 1.10312 0
M  V30 2108 C 194.877 -1.84311 0.846011 0
M  V30 2109 C 195.21 -1.83805 -0.626859 0
M  V30 2110 O 194.485 -1.28268 -1.46211 0
M  V30 2111 C 194.768 -3.32048 1.39341 0
M  V30 2112 C 194.621 -3.41016 2.93305 0
M  V30 2113 C 195.94 -4.27764 1.03468 0
M  V30 2114 H 193.059 -0.669192 0.30879 0
M  V30 2115 H 195.701 -1.32057 1.36605 0
M  V30 2116 H 193.851 -3.76678 0.951087 0
M  V30 2117 H 195.523 -3.05031 3.46055 0
M  V30 2118 H 193.766 -2.81603 3.29973 0
M  V30 2119 H 194.437 -4.44948 3.26689 0
M  V30 2120 H 196.913 -3.91253 1.41633 0
M  V30 2121 H 195.789 -5.29549 1.44463 0
M  V30 2122 H 196.05 -4.42064 -0.0560404 0
M  V30 2123 N 195.109 -0.891671 -1.2995 0
M  V30 2124 C 196.019 -0.367691 -2.31701 0
M  V30 2125 C 197.035 0.533486 -1.6562 0
M  V30 2126 O 198.211 0.424997 -1.96865 0
M  V30 2127 C 195.276 0.403406 -3.44345 0
M  V30 2128 C 194.337 -0.528328 -4.26037 0
M  V30 2129 C 193.57 0.206063 -5.33302 0
M  V30 2130 O 193.793 1.43119 -5.52153 0
M  V30 2131 O 192.727 -0.447281 -6.00236 0
M  V30 2132 H 196.553 -1.21163 -2.78484 0
M  V30 2133 H 194.138 -0.655725 -1.34241 0
M  V30 2134 H 196.02 0.839753 -4.12948 0
M  V30 2135 H 194.695 1.22354 -2.99685 0
M  V30 2136 H 193.602 -1.01362 -3.60106 0
M  V30 2137 H 194.935 -1.31465 -4.74318 0
M  V30 2138 N 196.587 1.43421 -0.653314 0
M  V30 2139 C 197.836 2.01032 -0.164076 0
M  V30 2140 C 198.149 1.52147 1.22926 0
M  V30 2141 O 199.355 2.02031 1.81371 0
M  V30 2142 C 197.811 3.59082 -0.24252 0
M  V30 2143 C 197.419 4.1696 -1.63855 0
M  V30 2144 C 199.163 4.24079 0.18911 0
M  V30 2145 C 197.07 5.67304 -1.67092 0
M  V30 2146 H 196 0.751798 -0.0575769 0
M  V30 2147 H 198.651 1.6439 -0.815362 0
M  V30 2148 H 197.033 3.93125 0.476276 0
M  V30 2149 H 198.207 3.94416 -2.38271 0
M  V30 2150 H 196.522 3.64335 -2.01616 0
M  V30 2151 H 199.119 5.34381 0.184775 0
M  V30 2152 H 199.462 3.98005 1.22056 0
M  V30 2153 H 199.995 3.94918 -0.477938 0
M  V30 2154 H 196.734 5.98145 -2.68146 0
M  V30 2155 H 196.254 5.91904 -0.970014 0
M  V30 2156 H 197.933 6.31344 -1.4147 0
M  V30 2157 N 198.065 0.39524 1.52563 0
M  V30 2158 C 199.476 -0.0774719 1.86539 0
M  V30 2159 C 199.827 -1.45641 1.31466 0
M  V30 2160 O 198.952 -2.06459 0.648367 0
M  V30 2161 C 199.547 -0.147356 3.38479 0
M  V30 2162 C 198.106 -0.564373 3.72145 0
M  V30 2163 C 197.253 0.269919 2.75983 0
M  V30 2164 H 200.204 0.612876 1.46388 0
M  V30 2165 H 200.225 -0.965343 3.68051 0
M  V30 2166 H 199.737 0.856387 3.78534 0
M  V30 2167 H 197.838 -1.57527 3.37663 0
M  V30 2168 H 197.951 -0.318402 4.78041 0
M  V30 2169 H 196.315 -0.265696 2.5331 0
M  V30 2170 H 197.098 1.27175 3.18875 0
M  V30 2171 N 199.544 -1.57102 0.125237 0
M  V30 2172 C 200.772 -1.99761 -0.538797 0
M  V30 2173 C 201.187 -1.00503 -1.59827 0
M  V30 2174 O 200.544 0.00119474 -1.825 0
M  V30 2175 C 200.595 -3.42408 -1.15927 0
M  V30 2176 O 200.316 -4.37869 -0.142143 0
M  V30 2177 C 201.817 -4.00232 -1.90602 0
M  V30 2178 H 199.037 -0.655772 -0.14214 0
M  V30 2179 H 201.581 -2.03383 0.213413 0
M  V30 2180 H 199.736 -3.39706 -1.86223 0
M  V30 2181 H 200.15 -5.21128 -0.593775 0
M  V30 2182 H 201.624 -5.02105 -2.29335 0
M  V30 2183 H 202.101 -3.39721 -2.78363 0
M  V30 2184 H 202.707 -4.06499 -1.25055 0
M  V30 2185 N 201.022 0.148545 -1.56898 0
M  V30 2186 C 202.25 0.876389 -1.87422 0
M  V30 2187 C 202.665 1.74809 -0.713256 0
M  V30 2188 O 202.022 1.79725 0.317025 0
M  V30 2189 C 202.073 1.73438 -3.17178 0
M  V30 2190 O 201.794 0.897809 -4.28802 0
M  V30 2191 C 203.295 2.56993 -3.61205 0
M  V30 2192 H 200.515 0.253489 -0.621277 0
M  V30 2193 H 203.059 0.141798 -2.04008 0
M  V30 2194 H 201.214 2.42205 -3.0235 0
M  V30 2195 H 201.628 1.48672 -5.02988 0
M  V30 2196 H 203.102 3.12773 -4.54838 0
M  V30 2197 H 203.579 3.32958 -2.86419 0
M  V30 2198 H 204.185 1.9352 -3.78722 0
M  V30 2199 N 202.5 1.5196 0.417844 0
M  V30 2200 C 203.463 1.74065 1.49111 0
M  V30 2201 C 204.463 0.610537 1.48758 0
M  V30 2202 O 205.653 0.87832 1.50437 0
M  V30 2203 C 202.785 1.81502 2.88565 0
M  V30 2204 H 203.978 2.69869 1.30807 0
M  V30 2205 H 201.531 1.42244 0.647785 0
M  V30 2206 H 202.266 0.875813 3.1225 0
M  V30 2207 H 202.051 2.63651 2.90225 0
M  V30 2208 H 203.541 2.00376 3.66387 0
M  V30 2209 N 203.978 -0.674533 1.42435 0
M  V30 2210 C 205.226 -1.43175 1.42637 0
M  V30 2211 C 205.547 -1.94951 0.0438992 0
M  V30 2212 O 204.817 -1.7308 -0.917607 0
M  V30 2213 H 203.397 -0.531307 0.525092 0
M  V30 2214 H 206.059 -0.797006 1.77859 0
M  V30 2215 H 205.155 -2.28463 2.12629 0
M  V30 2216 N 205.456 -1.28612 -0.910864 0
M  V30 2217 C 206.684 -1.18792 -1.69399 0
M  V30 2218 C 207.099 0.253039 -1.87097 0
M  V30 2219 O 206.456 1.17071 -1.40003 0
M  V30 2220 C 206.507 -1.88511 -3.08457 0
M  V30 2221 O 206.228 -3.26979 -2.91576 0
M  V30 2222 C 207.729 -1.85029 -4.02839 0
M  V30 2223 H 204.949 -0.412233 -0.529438 0
M  V30 2224 H 207.493 -1.69788 -1.13984 0
M  V30 2225 H 205.648 -1.41379 -3.60681 0
M  V30 2226 H 206.062 -3.61936 -3.79608 0
M  V30 2227 H 207.536 -2.38395 -4.97867 0
M  V30 2228 H 208.013 -0.823303 -4.31414 0
M  V30 2229 H 208.619 -2.31853 -3.56545 0
M  V30 2230 N 206.934 1.1197 -1.10907 0
M  V30 2231 C 208.182 1.83225 -0.852819 0
M  V30 2232 C 208.503 1.84769 0.623341 0
M  V30 2233 O 207.773 1.3143 1.45269 0
M  V30 2234 H 206.353 0.67849 -0.312507 0
M  V30 2235 H 209.015 1.3556 -1.40033 0
M  V30 2236 H 208.111 2.87265 -1.22005 0
M  V30 2237 N 208.412 0.89855 1.29475 0
M  V30 2238 C 209.637 0.538561 2.00285 0
M  V30 2239 C 210.062 -0.869135 1.66816 0
M  V30 2240 O 209.42 -1.57831 0.892145 0
M  V30 2241 C 209.468 0.736475 3.52999 0
M  V30 2242 O 208.572 -0.211537 4.11857 0
M  V30 2243 H 207.913 0.210563 0.62973 0
M  V30 2244 H 210.443 1.20982 1.64998 0
M  V30 2245 H 210.453 0.640685 4.02938 0
M  V30 2246 H 209.128 1.76276 3.76696 0
M  V30 2247 H 207.705 -0.0682991 3.72837 0
M  V30 2248 N 209.89 -1.43072 0.660911 0
M  V30 2249 C 210.8 -2.34585 -0.0264163 0
M  V30 2250 C 211.816 -1.54316 -0.803898 0
M  V30 2251 O 212.992 -1.86939 -0.749391 0
M  V30 2252 C 210.057 -3.32689 -0.975639 0
M  V30 2253 C 209.118 -4.2886 -0.194236 0
M  V30 2254 C 208.351 -5.22278 -1.09825 0
M  V30 2255 O 208.574 -5.20299 -2.33763 0
M  V30 2256 O 207.508 -5.99228 -0.566513 0
M  V30 2257 H 211.334 -2.94869 0.727034 0
M  V30 2258 H 208.919 -1.43342 0.42111 0
M  V30 2259 H 210.801 -3.92995 -1.52094 0
M  V30 2260 H 209.476 -2.74898 -1.70918 0
M  V30 2261 H 208.383 -3.72011 0.394835 0
M  V30 2262 H 209.716 -4.89655 0.499899 0
M  V30 2263 N 211.368 -0.403325 -1.52352 0
M  V30 2264 C 212.614 0.174605 -2.02047 0
M  V30 2265 C 212.947 1.45282 -1.28867 0
M  V30 2266 O 212.222 1.90483 -0.393257 0
M  V30 2267 C 212.505 0.428238 -3.57545 0
M  V30 2268 C 212.358 -0.866248 -4.4138 0
M  V30 2269 C 213.677 1.21287 -4.23057 0
M  V30 2270 H 210.796 0.0619851 -0.734389 0
M  V30 2271 H 213.438 -0.53565 -1.82293 0
M  V30 2272 H 211.588 1.03327 -3.74507 0
M  V30 2273 H 213.26 -1.50265 -4.3614 0
M  V30 2274 H 211.503 -1.47851 -4.07827 0
M  V30 2275 H 212.174 -0.643249 -5.48239 0
M  V30 2276 H 214.65 0.700703 -4.10158 0
M  V30 2277 H 213.526 1.35909 -5.31808 0
M  V30 2278 H 213.787 2.23193 -3.81625 0
M  V30 2279 N 212.846 1.57033 -0.133567 0
M  V30 2280 C 214.074 2.00044 0.528195 0
M  V30 2281 C 214.489 1.01349 1.59291 0
M  V30 2282 O 213.846 0.00848369 1.82498 0
M  V30 2283 C 213.897 3.43018 1.1411 0
M  V30 2284 O 213.618 4.37939 0.11892 0
M  V30 2285 C 215.119 4.01237 1.88477 0
M  V30 2286 H 212.339 0.656517 0.138661 0
M  V30 2287 H 214.883 2.03267 -0.224196 0
M  V30 2288 H 213.038 3.40688 1.84418 0
M  V30 2289 H 213.452 5.21436 0.56613 0
M  V30 2290 H 214.926 5.03314 2.26669 0
M  V30 2291 H 215.403 3.41193 2.76558 0
M  V30 2292 H 216.009 4.07156 1.22898 0
M  V30 2293 N 214.325 -0.140222 1.56975 0
M  V30 2294 C 215.736 -0.699596 1.73097 0
M  V30 2295 C 216.087 -1.8134 0.749022 0
M  V30 2296 O 215.212 -2.16241 -0.0828503 0
M  V30 2297 C 215.807 -1.27582 3.1386 0
M  V30 2298 C 214.366 -1.78169 3.31561 0
M  V30 2299 C 213.513 -0.672855 2.69013 0
M  V30 2300 H 216.464 0.0855115 1.58469 0
M  V30 2301 H 216.485 -2.14561 3.14235 0
M  V30 2302 H 215.997 -0.464955 3.85305 0
M  V30 2303 H 214.098 -2.61801 2.65124 0
M  V30 2304 H 214.211 -1.90574 4.39566 0
M  V30 2305 H 212.575 -1.10118 2.29665 0
M  V30 2306 H 213.358 0.126679 3.43066 0
M  V30 2307 N 215.803 -1.52179 -0.40978 0
M  V30 2308 C 217.033 -1.69807 -1.17682 0
M  V30 2309 C 217.441 -0.406908 -1.84773 0
M  V30 2310 O 216.784 0.626863 -1.72673 0
M  V30 2311 C 216.846 -2.77712 -2.2829 0
M  V30 2312 C 216.51 -4.19481 -1.81341 0
M  V30 2313 C 217.507 -5.03345 -1.30154 0
M  V30 2314 C 215.192 -4.65713 -1.88194 0
M  V30 2315 C 217.186 -6.31511 -0.864416 0
M  V30 2316 C 214.873 -5.93869 -1.44093 0
M  V30 2317 C 215.871 -6.76597 -0.933023 0
M  V30 2318 O 215.559 -8.02354 -0.49838 0
M  V30 2319 H 215.291 -0.572372 -0.359675 0
M  V30 2320 H 217.845 -1.99511 -0.488311 0
M  V30 2321 H 216.075 -2.43383 -3.00502 0
M  V30 2322 H 217.764 -2.83946 -2.90051 0
M  V30 2323 H 218.53 -4.68819 -1.24232 0
M  V30 2324 H 214.409 -4.01424 -2.26671 0
M  V30 2325 H 217.953 -6.96033 -0.467286 0
M  V30 2326 H 213.85 -6.27903 -1.49694 0
M  V30 2327 H 214.618 -8.16135 -0.621747 0
M  V30 2328 N 217.281 0.66697 -1.42791 0
M  V30 2329 C 218.506 1.46004 -1.47301 0
M  V30 2330 C 218.931 1.87894 -0.0880317 0
M  V30 2331 O 218.289 1.56502 0.915253 0
M  V30 2332 C 218.337 2.68031 -2.41229 0
M  V30 2333 O 217.441 3.6659 -1.88906 0
M  V30 2334 H 216.782 0.43832 -0.49877 0
M  V30 2335 H 219.312 0.817391 -1.87563 0
M  V30 2336 H 219.322 3.1601 -2.58073 0
M  V30 2337 H 217.997 2.36883 -3.41847 0
M  V30 2338 H 216.574 3.25661 -1.81656 0
M  V30 2339 N 218.759 1.29093 0.90403 0
M  V30 2340 C 220.008 1.16187 1.64874 0
M  V30 2341 C 220.321 -0.286742 1.93487 0
M  V30 2342 O 221.527 -0.537062 2.66135 0
M  V30 2343 C 219.983 2.03177 2.97064 0
M  V30 2344 C 219.591 3.52836 2.76062 0
M  V30 2345 C 221.335 1.98984 3.74974 0
M  V30 2346 C 219.242 4.31945 4.03952 0
M  V30 2347 H 218.172 0.431246 0.618501 0
M  V30 2348 H 220.823 1.53699 1.00243 0
M  V30 2349 H 219.205 1.5853 3.62883 0
M  V30 2350 H 220.379 4.05507 2.18863 0
M  V30 2351 H 218.694 3.58656 2.11553 0
M  V30 2352 H 221.291 2.55351 4.69787 0
M  V30 2353 H 221.634 0.968815 4.0487 0
M  V30 2354 H 222.167 2.41652 3.15989 0
M  V30 2355 H 218.906 5.34667 3.79225 0
M  V30 2356 H 218.426 3.84045 4.60727 0
M  V30 2357 H 220.105 4.42379 4.72133 0
M  V30 2358 N 220.237 -1.11381 1.11499 0
M  V30 2359 C 221.167 -2.19509 0.796125 0
M  V30 2360 C 222.148 -1.68458 -0.235796 0
M  V30 2361 O 223.333 -1.93947 -0.0991344 0
M  V30 2362 C 220.463 -3.46475 0.239205 0
M  V30 2363 C 219.417 -4.10744 1.20307 0
M  V30 2364 C 218.743 -5.32293 0.50683 0
M  V30 2365 C 220.043 -4.55597 2.55399 0
M  V30 2366 H 221.737 -2.46439 1.70024 0
M  V30 2367 H 219.283 -1.18446 0.818935 0
M  V30 2368 H 221.236 -4.214 0.00392006 0
M  V30 2369 H 219.96 -3.19006 -0.700206 0
M  V30 2370 H 218.619 -3.37813 1.42399 0
M  V30 2371 H 218.267 -5.01095 -0.437408 0
M  V30 2372 H 217.967 -5.76243 1.1497 0
M  V30 2373 H 219.491 -6.09956 0.280351 0
M  V30 2374 H 220.905 -5.21841 2.37391 0
M  V30 2375 H 219.302 -5.10363 3.15673 0
M  V30 2376 H 220.372 -3.69013 3.14575 0
M  V30 2377 N 221.715 -0.905404 -1.28997 0
M  V30 2378 C 222.943 -0.549846 -1.9946 0
M  V30 2379 C 223.358 0.866834 -1.67724 0
M  V30 2380 O 222.715 1.57298 -0.925404 0
M  V30 2381 C 222.766 -0.739387 -3.53858 0
M  V30 2382 O 222.487 -2.10031 -3.84472 0
M  V30 2383 C 223.988 -0.389541 -4.41585 0
M  V30 2384 H 221.208 -0.210429 -0.637151 0
M  V30 2385 H 223.752 -1.21632 -1.64396 0
M  V30 2386 H 221.907 -0.120023 -3.87214 0
M  V30 2387 H 222.321 -2.13385 -4.79132 0
M  V30 2388 H 223.795 -0.572972 -5.49018 0
M  V30 2389 H 224.272 0.673756 -4.34001 0
M  V30 2390 H 224.878 -0.986089 -4.1371 0
M  V30 2391 N 223.193 1.4272 -0.668489 0
M  V30 2392 C 224.47 1.95248 -0.117373 0
M  V30 2393 C 224.85 1.60919 1.36632 0
M  V30 2394 O 224.198 0.902095 2.09939 0
M  V30 2395 C 224.408 3.46927 -0.379806 0
M  V30 2396 C 225.756 4.23588 -0.292923 0
M  V30 2397 O 226.78 3.5482 -0.313204 0
M  V30 2398 O 225.639 5.46017 -0.229697 0
M  V30 2399 H 222.733 0.827 0.00079152 0
M  V30 2400 H 225.279 1.52581 -0.742783 0
M  V30 2401 H 224.051 3.65096 -1.40786 0
M  V30 2402 H 223.674 3.96627 0.277923 0
M  V30 2403 N 224.671 0.411399 1.52136 0
M  V30 2404 C 226.082 -0.0576826 1.86611 0
M  V30 2405 C 226.433 -1.44238 1.33003 0
M  V30 2406 O 225.558 -2.05759 0.670228 0
M  V30 2407 C 226.153 -0.111448 3.38617 0
M  V30 2408 C 224.712 -0.52487 3.72723 0
M  V30 2409 C 223.859 0.299176 2.75681 0
M  V30 2410 H 226.81 0.628368 1.4573 0
M  V30 2411 H 226.831 -0.926252 3.69054 0
M  V30 2412 H 226.343 0.896488 3.77604 0
M  V30 2413 H 224.444 -1.53936 3.39315 0
M  V30 2414 H 224.557 -0.267681 4.78352 0
M  V30 2415 H 222.921 -0.238814 2.53578 0
M  V30 2416 H 223.704 1.3055 3.17508 0
M  V30 2417 N 226.149 -1.5696 0.141893 0
M  V30 2418 C 227.059 -2.20066 -0.812905 0
M  V30 2419 C 228.075 -1.18344 -1.27557 0
M  V30 2420 O 229.251 -1.50902 -1.33381 0
M  V30 2421 C 226.316 -2.80583 -2.03652 0
M  V30 2422 C 225.377 -3.97414 -1.62359 0
M  V30 2423 C 224.61 -4.55036 -2.78887 0
M  V30 2424 O 224.833 -4.11538 -3.94959 0
M  V30 2425 O 223.767 -5.45376 -2.54653 0
M  V30 2426 H 227.593 -3.02157 -0.305746 0
M  V30 2427 H 225.178 -1.49159 -0.0848799 0
M  V30 2428 H 227.06 -3.19067 -2.75272 0
M  V30 2429 H 225.735 -2.01508 -2.5333 0
M  V30 2430 H 224.642 -3.63656 -0.877775 0
M  V30 2431 H 225.975 -4.77994 -1.17401 0
M  V30 2432 N 227.627 0.131896 -1.57047 0
M  V30 2433 C 228.875 0.840269 -1.83804 0
M  V30 2434 C 229.196 1.81017 -0.72512 0
M  V30 2435 O 228.466 1.94272 0.251995 0
M  V30 2436 H 227.046 0.313294 -0.678127 0
M  V30 2437 H 229.708 0.122294 -1.94516 0
M  V30 2438 H 228.804 1.39335 -2.79271 0
M  V30 2439 N 229.106 1.52395 0.401703 0
M  V30 2440 C 230.054 1.7689 1.51039 0
M  V30 2441 C 231.048 0.636298 1.56996 0
M  V30 2442 O 232.254 0.818507 1.60314 0
M  V30 2443 H 228.629 0.559502 0.502456 0
M  V30 2444 H 230.6 2.69757 1.27568 0
M  V30 2445 C 229.349 1.94331 2.88324 0
M  V30 2446 H 228.672 2.80905 2.84486 0
M  V30 2447 H 230.112 2.15466 3.65172 0
M  V30 2448 C 228.571 0.712396 3.29282 0
M  V30 2449 O 229.101 -0.116218 4.01532 0
M  V30 2450 N 227.307 0.546154 2.85422 0
M  V30 2451 H 226.854 1.22156 2.26794 0
M  V30 2452 H 226.812 -0.276113 3.13185 0
M  V30 2453 N 230.584 -0.659388 1.43143 0
M  V30 2454 C 231.531 -1.77249 1.47822 0
M  V30 2455 C 232.501 -1.62818 0.328558 0
M  V30 2456 O 233.686 -1.83151 0.534838 0
M  V30 2457 C 230.826 -3.15371 1.40126 0
M  V30 2458 C 229.939 -3.4098 2.65249 0
M  V30 2459 C 229.074 -4.68915 2.49584 0
M  V30 2460 C 228.113 -4.87608 3.70006 0
M  V30 2461 N 227.25 -6.06796 3.53189 0
M  V30 2462 H 232.09 -1.72584 2.42938 0
M  V30 2463 H 229.627 -0.842297 1.20598 0
M  V30 2464 H 231.585 -3.9521 1.33659 0
M  V30 2465 H 230.215 -3.19121 0.485964 0
M  V30 2466 H 229.267 -2.55282 2.8202 0
M  V30 2467 H 230.579 -3.50681 3.54717 0
M  V30 2468 H 229.733 -5.56871 2.4079 0
M  V30 2469 H 228.472 -4.61524 1.5763 0
M  V30 2470 H 227.477 -3.9809 3.79215 0
M  V30 2471 H 228.702 -4.96834 4.62961 0
M  V30 2472 H 226.648 -6.00549 2.63965 0
M  V30 2473 H 226.565 -6.17428 4.36255 0
M  V30 2474 H 227.833 -6.9739 3.48236 0
M  V30 2475 N 232.062 -1.29571 -0.897171 0
M  V30 2476 C 233.478 -1.07637 -1.17841 0
M  V30 2477 C 233.678 0.170713 -2.00776 0
M  V30 2478 O 232.734 0.867768 -2.3712 0
M  V30 2479 C 234.047 -2.3332 -1.8969 0
M  V30 2480 C 235.595 -2.38664 -2.02505 0
M  V30 2481 C 236.07 -3.64157 -2.77765 0
M  V30 2482 N 237.561 -3.64894 -2.85318 0
M  V30 2483 C 238.296 -4.58679 -3.44094 0
M  V30 2484 N 237.792 -5.62799 -4.04017 0
M  V30 2485 N 239.585 -4.46245 -3.41793 0
M  V30 2486 H 231.736 -2.09598 -0.343883 0
M  V30 2487 H 233.999 -0.923333 -0.214848 0
M  V30 2488 H 233.705 -3.24262 -1.36187 0
M  V30 2489 H 233.579 -2.41025 -2.9015 0
M  V30 2490 H 235.966 -1.48208 -2.55183 0
M  V30 2491 H 236.047 -2.34943 -1.01171 0
M  V30 2492 H 235.691 -4.54965 -2.25763 0
M  V30 2493 H 235.621 -3.65137 -3.7945 0
M  V30 2494 H 238.112 -2.89613 -2.42761 0
M  V30 2495 H 238.425 -6.3048 -4.46895 0
M  V30 2496 H 236.77 -5.66605 -4.02472 0
M  V30 2497 H 239.961 -3.64094 -2.94199 0
M  V30 2498 H 240.134 -5.19518 -3.87304 0
M  V30 2499 N 233.54 1.10788 -1.12088 0
M  V30 2500 C 234.788 1.8231 -0.872205 0
M  V30 2501 C 235.109 1.85419 0.603709 0
M  V30 2502 O 234.379 1.32963 1.43867 0
M  V30 2503 H 232.959 0.675137 -0.319686 0
M  V30 2504 H 235.621 1.34068 -1.41463 0
M  V30 2505 H 234.717 2.85955 -1.25045 0
M  V30 2506 N 235.018 0.912232 1.28515 0
M  V30 2507 C 236.258 0.551677 1.96814 0
M  V30 2508 C 236.622 -0.887825 1.7024 0
M  V30 2509 O 237.823 -1.35588 2.32098 0
M  V30 2510 C 236.094 0.850555 3.47132 0
M  V30 2511 S 237.653 0.59619 4.34731 0
M  V30 2512 H 234.471 0.204191 0.681049 0
M  V30 2513 H 237.073 1.17736 1.56072 0
M  V30 2514 H 235.777 1.8962 3.63968 0
M  V30 2515 H 235.308 0.213471 3.9282 0
M  V30 2516 H 237.323 -0.553154 4.93107 0
M  V30 2517 N 236.496 -1.42363 0.676048 0
M  V30 2518 C 237.724 -2.05859 0.207268 0
M  V30 2519 C 238.139 -1.50796 -1.13605 0
M  V30 2520 O 237.496 -0.648265 -1.70598 0
M  V30 2521 C 237.547 -3.61248 0.134975 0
M  V30 2522 O 237.268 -4.1427 1.42521 0
M  V30 2523 C 238.769 -4.41859 -0.357151 0
M  V30 2524 H 235.989 -0.663431 0.100503 0
M  V30 2525 H 238.533 -1.82479 0.923136 0
M  V30 2526 H 236.688 -3.83735 -0.531588 0
M  V30 2527 H 237.102 -5.0815 1.29939 0
M  V30 2528 H 238.576 -5.50847 -0.356641 0
M  V30 2529 H 239.053 -4.16536 -1.39264 0
M  V30 2530 H 239.659 -4.24392 0.27772 0
M  V30 2531 N 237.974 -0.419461 -1.51915 0
M  V30 2532 C 238.904 0.391813 -2.30189 0
M  V30 2533 C 239.885 1.03699 -1.34836 0
M  V30 2534 O 241.07 1.04403 -1.63748 0
M  V30 2535 C 238.2 1.50312 -3.13087 0
M  V30 2536 C 237.154 0.9824 -4.16573 0
M  V30 2537 C 236.48 2.18809 -4.8788 0
M  V30 2538 C 237.78 0.0292356 -5.22292 0
M  V30 2539 H 239.474 -0.26135 -2.98257 0
M  V30 2540 H 237.02 -0.127134 -1.43438 0
M  V30 2541 H 238.973 2.07773 -3.66617 0
M  V30 2542 H 237.697 2.18431 -2.42807 0
M  V30 2543 H 236.356 0.430119 -3.64068 0
M  V30 2544 H 236.004 2.85507 -4.14119 0
M  V30 2545 H 235.704 1.84615 -5.57845 0
M  V30 2546 H 237.228 2.76858 -5.44226 0
M  V30 2547 H 238.642 0.512976 -5.71 0
M  V30 2548 H 237.039 -0.2244 -5.9968 0
M  V30 2549 H 238.109 -0.912931 -4.76228 0
M  V30 2550 N 239.452 1.56882 -0.150215 0
M  V30 2551 C 240.385 2.12712 0.826358 0
M  V30 2552 C 241.363 1.05154 1.24022 0
M  V30 2553 O 242.547 1.33004 1.33575 0
M  V30 2554 C 239.674 2.64945 2.11002 0
M  V30 2555 C 238.72 3.8468 1.84183 0
M  V30 2556 S 239.553 5.25502 1.02995 0
M  V30 2557 C 240.709 5.81125 2.32474 0
M  V30 2558 H 240.942 2.95214 0.351598 0
M  V30 2559 H 238.475 1.54267 0.0641211 0
M  V30 2560 H 240.433 2.95689 2.84742 0
M  V30 2561 H 239.094 1.82568 2.55593 0
M  V30 2562 H 238.287 4.19482 2.79375 0
M  V30 2563 H 237.889 3.54714 1.1855 0
M  V30 2564 H 240.181 5.92753 3.281 0
M  V30 2565 H 241.124 6.78625 2.02171 0
M  V30 2566 H 241.532 5.09392 2.43269 0
M  V30 2567 N 240.93 -0.123565 1.57115 0
M  V30 2568 C 242.177 -0.832153 1.84612 0
M  V30 2569 C 242.505 -1.80093 0.734627 0
M  V30 2570 O 241.76 -1.93766 -0.27442 0
M  V30 2571 C 242.059 -1.62016 3.18568 0
M  V30 2572 C 241.725 -0.796084 4.43817 0
M  V30 2573 C 240.387 -0.568816 4.77826 0
M  V30 2574 C 242.739 -0.221364 5.2073 0
M  V30 2575 C 240.067 0.243499 5.86194 0
M  V30 2576 C 242.419 0.578117 6.29953 0
M  V30 2577 C 241.083 0.815744 6.62497 0
M  V30 2578 H 240.353 -0.304507 0.675542 0
M  V30 2579 H 243 -0.0947248 1.91266 0
M  V30 2580 H 241.305 -2.42837 3.0747 0
M  V30 2581 H 243.002 -2.17231 3.37064 0
M  V30 2582 H 239.592 -0.983307 4.17168 0
M  V30 2583 H 243.776 -0.384173 4.94811 0
M  V30 2584 H 239.032 0.436871 6.09837 0
M  V30 2585 H 243.206 1.03046 6.88734 0
M  V30 2586 H 240.833 1.44701 7.46301 0
M  V30 2587 N 242.408 -1.52605 -0.393616 0
M  V30 2588 C 243.819 -1.59417 -0.971761 0
M  V30 2589 C 244.17 -0.444173 -1.91106 0
M  V30 2590 O 243.295 0.433382 -2.12016 0
M  V30 2591 C 243.89 -2.88936 -1.76921 0
M  V30 2592 C 242.449 -2.98175 -2.29714 0
M  V30 2593 C 241.596 -2.54491 -1.10135 0
M  V30 2594 H 244.547 -1.57751 -0.173317 0
M  V30 2595 H 244.568 -2.75163 -2.62804 0
M  V30 2596 H 244.08 -3.72616 -1.08532 0
M  V30 2597 H 242.181 -2.19024 -3.01429 0
M  V30 2598 H 242.294 -4.02726 -2.59517 0
M  V30 2599 H 240.658 -2.08702 -1.45999 0
M  V30 2600 H 241.441 -3.4056 -0.432874 0
M  V30 2601 N 243.887 0.651787 -1.4349 0
M  V30 2602 C 245.133 1.41376 -1.45398 0
M  V30 2603 C 245.466 1.94041 -0.0784823 0
M  V30 2604 O 244.741 1.72379 0.900878 0
M  V30 2605 C 245.024 2.59414 -2.49752 0
M  V30 2606 C 244.877 2.12232 -3.96582 0
M  V30 2607 C 246.196 3.61626 -2.50827 0
M  V30 2608 H 243.315 0.512719 -0.529422 0
M  V30 2609 H 245.957 0.738796 -1.75048 0
M  V30 2610 H 244.107 3.16997 -2.246 0
M  V30 2611 H 245.779 1.59639 -4.32797 0
M  V30 2612 H 244.022 1.43592 -4.09346 0
M  V30 2613 H 244.693 2.9712 -4.65214 0
M  V30 2614 H 247.169 3.13805 -2.7325 0
M  V30 2615 H 246.045 4.41766 -3.25783 0
M  V30 2616 H 246.306 4.14314 -1.5426 0
M  V30 2617 N 245.365 1.30045 0.890287 0
M  V30 2618 C 246.595 1.21296 1.67245 0
M  V30 2619 C 247.003 -0.227471 1.87828 0
M  V30 2620 O 246.346 -1.16296 1.422 0
M  V30 2621 C 246.408 1.86519 3.07329 0
M  V30 2622 C 246.072 3.35837 3.09939 0
M  V30 2623 C 247.069 4.31915 2.89389 0
M  V30 2624 C 244.754 3.77196 3.31706 0
M  V30 2625 C 246.748 5.67325 2.90552 0
M  V30 2626 C 244.435 5.12725 3.32499 0
M  V30 2627 C 245.433 6.076 3.11947 0
M  V30 2628 O 245.121 7.40655 3.12547 0
M  V30 2629 H 244.853 0.4211 0.528821 0
M  V30 2630 H 247.407 1.72111 1.12103 0
M  V30 2631 H 245.637 1.30228 3.64112 0
M  V30 2632 H 247.326 1.71963 3.67673 0
M  V30 2633 H 248.092 4.01294 2.72375 0
M  V30 2634 H 243.971 3.03796 3.4674 0
M  V30 2635 H 247.515 6.41354 2.74429 0
M  V30 2636 H 243.412 5.42988 3.49047 0
M  V30 2637 H 244.18 7.49577 3.28749 0
M  V30 2638 N 246.843 -1.10192 1.12674 0
M  V30 2639 C 247.806 -2.14786 0.799979 0
M  V30 2640 C 248.806 -1.59711 -0.18685 0
M  V30 2641 O 249.996 -1.74156 0.0392558 0
M  V30 2642 C 247.128 -3.40374 0.189228 0
M  V30 2643 H 248.321 -2.45203 1.72671 0
M  V30 2644 H 245.874 -1.25597 0.930326 0
M  V30 2645 H 246.609 -3.15577 -0.747107 0
M  V30 2646 H 246.394 -3.81637 0.899766 0
M  V30 2647 H 247.884 -4.17594 -0.0228143 0
M  V30 2648 N 248.321 -0.919034 -1.28029 0
M  V30 2649 C 249.568 -0.554934 -1.94748 0
M  V30 2650 C 249.896 0.90231 -1.72304 0
M  V30 2651 O 249.151 1.65767 -1.04018 0
M  V30 2652 C 249.45 -0.816855 -3.4794 0
M  V30 2653 C 249.116 -2.25448 -3.90492 0
M  V30 2654 C 247.778 -2.64752 -4.01821 0
M  V30 2655 C 250.13 -3.18977 -4.12193 0
M  V30 2656 C 247.458 -3.96727 -4.32232 0
M  V30 2657 C 249.81 -4.50523 -4.44086 0
M  V30 2658 C 248.474 -4.89673 -4.53626 0
M  V30 2659 H 247.744 -0.203065 -0.712633 0
M  V30 2660 H 250.391 -1.16136 -1.52265 0
M  V30 2661 H 248.696 -0.127677 -3.91592 0
M  V30 2662 H 250.393 -0.514238 -3.97689 0
M  V30 2663 H 246.983 -1.93952 -3.82205 0
M  V30 2664 H 251.167 -2.89817 -4.02889 0
M  V30 2665 H 246.423 -4.26754 -4.37825 0
M  V30 2666 H 250.597 -5.23005 -4.59825 0
M  V30 2667 H 248.224 -5.91969 -4.76946 0
M  V30 2668 N 249.799 1.42003 -0.683588 0
M  V30 2669 C 250.729 2.33487 -0.024866 0
M  V30 2670 C 251.71 1.51163 0.779975 0
M  V30 2671 O 252.895 1.79739 0.735362 0
M  V30 2672 C 250.025 3.3487 0.920836 0
M  V30 2673 C 248.979 4.27414 0.223958 0
M  V30 2674 C 248.305 5.19074 1.2832 0
M  V30 2675 C 249.605 5.14445 -0.90242 0
M  V30 2676 H 251.299 2.88819 -0.788921 0
M  V30 2677 H 248.845 1.38873 -0.38083 0
M  V30 2678 H 250.798 3.97787 1.39081 0
M  V30 2679 H 249.522 2.77861 1.71642 0
M  V30 2680 H 248.181 3.65904 -0.225864 0
M  V30 2681 H 247.829 4.58387 2.071 0
M  V30 2682 H 247.529 5.81822 0.821995 0
M  V30 2683 H 249.053 5.84867 1.75392 0
M  V30 2684 H 250.467 5.70998 -0.513272 0
M  V30 2685 H 248.864 5.86072 -1.28997 0
M  V30 2686 H 249.934 4.52322 -1.74737 0
M  V30 2687 N 251.277 0.427512 1.51691 0
M  V30 2688 C 252.554 -0.201684 1.94557 0
M  V30 2689 C 252.934 -1.60981 1.36559 0
M  V30 2690 O 252.282 -2.21814 0.548702 0
M  V30 2691 C 252.492 -0.189394 3.48486 0
M  V30 2692 C 253.84 -0.39978 4.22714 0
M  V30 2693 O 254.864 -0.267945 3.55191 0
M  V30 2694 O 253.723 -0.661249 5.42485 0
M  V30 2695 H 250.817 -0.135261 0.815864 0
M  V30 2696 H 253.363 0.484782 1.62628 0
M  V30 2697 H 252.135 0.795431 3.8313 0
M  V30 2698 H 251.758 -0.919187 3.86829 0
M  V30 2699 N 252.755 -1.56801 0.158532 0
M  V30 2700 C 254.166 -1.83189 -0.360366 0
M  V30 2701 C 254.517 -1.07778 -1.63946 0
M  V30 2702 O 253.642 -0.326718 -2.13919 0
M  V30 2703 C 254.237 -3.32297 -0.660595 0
M  V30 2704 C 252.796 -3.59227 -1.12398 0
M  V30 2705 C 251.943 -2.76877 -0.153097 0
M  V30 2706 H 254.894 -1.54008 0.383031 0
M  V30 2707 H 254.915 -3.4908 -1.51405 0
M  V30 2708 H 254.427 -3.87156 0.270527 0
M  V30 2709 H 252.528 -3.09766 -2.07064 0
M  V30 2710 H 252.641 -4.67632 -1.04197 0
M  V30 2711 H 251.005 -2.46319 -0.647983 0
M  V30 2712 H 251.788 -3.34511 0.77182 0
M  V30 2713 N 254.233 0.115231 -1.57178 0
M  V30 2714 C 255.649 0.468877 -1.52557 0
M  V30 2715 C 255.849 1.81649 -0.872125 0
M  V30 2716 O 254.905 2.48347 -0.45606 0
M  V30 2717 C 256.218 0.4499 -2.97315 0
M  V30 2718 C 257.766 0.533185 -3.08425 0
M  V30 2719 C 258.241 0.54456 -4.54751 0
M  V30 2720 N 259.732 0.605892 -4.5922 0
M  V30 2721 C 260.467 0.636203 -5.6986 0
M  V30 2722 N 259.963 0.623931 -6.89985 0
M  V30 2723 N 261.756 0.679496 -5.57978 0
M  V30 2724 H 253.907 -0.767712 -1.9804 0
M  V30 2725 H 256.17 -0.283609 -0.904583 0
M  V30 2726 H 255.876 -0.472721 -3.48509 0
M  V30 2727 H 255.75 1.27632 -3.5495 0
M  V30 2728 H 258.137 1.44623 -2.57232 0
M  V30 2729 H 258.218 -0.320995 -2.53778 0
M  V30 2730 H 257.862 -0.364452 -5.06591 0
M  V30 2731 H 257.792 1.41568 -5.07214 0
M  V30 2732 H 260.283 0.621386 -3.72756 0
M  V30 2733 H 260.596 0.649787 -7.70063 0
M  V30 2734 H 258.941 0.591296 -6.9248 0
M  V30 2735 H 262.132 0.686472 -4.63039 0
M  V30 2736 H 262.305 0.69965 -6.44212 0
M  V30 2737 N 255.711 1.52812 0.385517 0
M  V30 2738 C 256.941 1.71658 1.14966 0
M  V30 2739 C 257.349 0.436253 1.84102 0
M  V30 2740 O 256.692 -0.599313 1.73649 0
M  V30 2741 C 256.754 2.81309 2.23843 0
M  V30 2742 C 256.418 4.22313 1.74644 0
M  V30 2743 C 257.415 5.05352 1.22129 0
M  V30 2744 C 255.1 4.68648 1.80761 0
M  V30 2745 C 257.094 6.32807 0.763838 0
M  V30 2746 C 254.781 5.96086 1.34627 0
M  V30 2747 C 255.779 6.77996 0.825264 0
M  V30 2748 O 255.467 8.03045 0.370669 0
M  V30 2749 H 255.199 0.578022 0.350523 0
M  V30 2750 H 257.753 2.00263 0.456509 0
M  V30 2751 H 255.983 2.48133 2.96592 0
M  V30 2752 H 257.672 2.88524 2.85497 0
M  V30 2753 H 258.438 4.70736 1.16758 0
M  V30 2754 H 254.317 4.04979 2.20256 0
M  V30 2755 H 257.861 6.96689 0.356494 0
M  V30 2756 H 253.758 6.30205 1.39686 0
M  V30 2757 H 254.526 8.17021 0.491829 0
M  V30 2758 N 257.189 -0.644168 1.43834 0
M  V30 2759 C 258.417 -1.43147 1.49387 0
M  V30 2760 C 258.832 -1.88452 0.114583 0
M  V30 2761 O 258.189 -1.60047 -0.876989 0
M  V30 2762 C 258.24 -2.66046 2.44748 0
M  V30 2763 O 257.961 -2.22633 3.77314 0
M  V30 2764 C 259.462 -3.59311 2.59635 0
M  V30 2765 H 256.682 -0.439447 0.507077 0
M  V30 2766 H 259.226 -0.78895 1.88669 0
M  V30 2767 H 257.381 -3.26418 2.08638 0
M  V30 2768 H 257.795 -3.02216 4.28679 0
M  V30 2769 H 259.269 -4.42187 3.30416 0
M  V30 2770 H 259.746 -4.07259 1.64427 0
M  V30 2771 H 260.352 -3.04816 2.96593 0
M  V30 2772 N 258.668 -1.30515 -0.883378 0
M  V30 2773 C 259.898 -1.22182 -1.66599 0
M  V30 2774 C 260.306 0.217507 -1.87946 0
M  V30 2775 O 259.649 1.1554 -1.42815 0
M  V30 2776 C 259.711 -1.88146 -3.06335 0
M  V30 2777 C 259.375 -3.37476 -3.08154 0
M  V30 2778 C 260.372 -4.33443 -2.87094 0
M  V30 2779 C 258.057 -3.7895 -3.29701 0
M  V30 2780 C 260.051 -5.68858 -2.8754 0
M  V30 2781 C 257.738 -5.14482 -3.29776 0
M  V30 2782 C 258.736 -6.09246 -3.0872 0
M  V30 2783 O 258.424 -7.42302 -3.08615 0
M  V30 2784 H 258.156 -0.423898 -0.52658 0
M  V30 2785 H 260.71 -1.72703 -1.11188 0
M  V30 2786 H 258.94 -1.32157 -3.63416 0
M  V30 2787 H 260.629 -1.7391 -3.66756 0
M  V30 2788 H 261.395 -4.02733 -2.70243 0
M  V30 2789 H 257.274 -3.05631 -3.45124 0
M  V30 2790 H 260.818 -6.428 -2.71024 0
M  V30 2791 H 256.715 -5.44832 -3.46163 0
M  V30 2792 H 257.483 -7.5131 -3.24769 0
M  V30 2793 N 260.146 1.09593 -1.13257 0
M  V30 2794 C 261.371 1.8604 -0.916732 0
M  V30 2795 C 261.796 1.80504 0.529146 0
M  V30 2796 O 261.154 1.18127 1.37534 0
M  V30 2797 C 261.202 3.32017 -1.40703 0
M  V30 2798 O 260.306 4.08141 -0.591153 0
M  V30 2799 H 259.647 0.576943 -0.328683 0
M  V30 2800 H 262.177 1.38405 -1.50682 0
M  V30 2801 H 262.187 3.82865 -1.4099 0
M  V30 2802 H 260.862 3.35361 -2.45979 0
M  V30 2803 H 259.439 3.67084 -0.656005 0
M  V30 2804 N 261.624 0.925811 1.2754 0
M  V30 2805 C 262.557 0.367836 2.25216 0
M  V30 2806 C 263.535 -0.534738 1.53556 0
M  V30 2807 O 264.719 -0.475672 1.824 0
M  V30 2808 C 261.846 -0.47298 3.35381 0
M  V30 2809 C 260.892 0.365898 4.24928 0
M  V30 2810 S 261.725 1.78025 5.05042 0
M  V30 2811 C 262.881 0.947068 6.18693 0
M  V30 2812 H 263.114 1.19568 2.72196 0
M  V30 2813 H 260.647 0.727867 1.36167 0
M  V30 2814 H 262.605 -0.952242 3.99303 0
M  V30 2815 H 261.266 -1.27533 2.87044 0
M  V30 2816 H 260.459 -0.277582 5.03235 0
M  V30 2817 H 260.061 0.779261 3.65792 0
M  V30 2818 H 262.353 0.182201 6.77255 0
M  V30 2819 H 263.296 1.70309 6.87314 0
M  V30 2820 H 263.704 0.489913 5.6237 0
M  V30 2821 N 263.102 -1.41638 0.69111 0
M  V30 2822 C 264.327 -2.06148 0.227583 0
M  V30 2823 C 264.752 -1.51652 -1.11281 0
M  V30 2824 O 264.11 -0.64164 -1.69566 0
M  V30 2825 C 264.158 -3.60095 0.190858 0
M  V30 2826 O 263.262 -4.03845 -0.835664 0
M  V30 2827 H 262.603 -0.654434 0.112306 0
M  V30 2828 H 265.133 -1.81484 0.944714 0
M  V30 2829 H 265.143 -4.07995 0.020207 0
M  V30 2830 H 263.818 -3.99129 1.16915 0
M  V30 2831 H 262.395 -3.67458 -0.63473 0
M  V30 2832 N 264.58 -0.43555 -1.51462 0
M  V30 2833 C 265.857 0.191364 -1.94662 0
M  V30 2834 C 266.237 1.60254 -1.37411 0
M  V30 2835 O 265.585 2.2152 -0.560458 0
M  V30 2836 C 265.795 0.17091 -3.48581 0
M  V30 2837 C 267.143 0.377357 -4.2292 0
M  V30 2838 O 268.167 0.249104 -3.55328 0
M  V30 2839 O 267.026 0.63247 -5.42828 0
M  V30 2840 H 264.12 0.130932 -0.816569 0
M  V30 2841 H 266.666 -0.4934 -1.62369 0
M  V30 2842 H 265.438 -0.815738 -3.82703 0
M  V30 2843 H 265.061 0.898659 -3.87311 0
M  V30 2844 N 266.058 1.56714 -0.166846 0
M  V30 2845 C 266.968 2.21331 0.777791 0
M  V30 2846 C 267.984 1.20358 1.25658 0
M  V30 2847 O 269.16 1.53005 1.30964 0
M  V30 2848 C 266.225 2.83787 1.99163 0
M  V30 2849 C 265.286 3.99947 1.56016 0
M  V30 2850 C 264.519 4.59415 2.71613 0
M  V30 2851 O 264.742 4.17769 3.88362 0
M  V30 2852 O 263.676 5.49359 2.45945 0
M  V30 2853 H 267.502 3.02605 0.257636 0
M  V30 2854 H 265.087 1.49275 0.0611393 0
M  V30 2855 H 266.969 3.23405 2.70161 0
M  V30 2856 H 265.644 2.05513 2.50092 0
M  V30 2857 H 264.551 3.65007 0.819809 0
M  V30 2858 H 265.884 4.79801 1.09782 0
M  V30 2859 N 267.536 -0.106894 1.57237 0
M  V30 2860 C 268.466 -1.13148 2.04254 0
M  V30 2861 C 269.447 -1.42476 0.929224 0
M  V30 2862 O 270.632 -1.52709 1.19973 0
M  V30 2863 C 267.762 -2.4545 2.45706 0
M  V30 2864 C 266.716 -2.30558 3.60592 0
M  V30 2865 C 266.042 -3.67931 3.87983 0
M  V30 2866 C 267.342 -1.75597 4.91897 0
M  V30 2867 H 269.036 -0.740374 2.90101 0
M  V30 2868 H 266.582 -0.354696 1.39563 0
M  V30 2869 H 268.535 -3.17389 2.77205 0
M  V30 2870 H 267.259 -2.86475 1.56843 0
M  V30 2871 H 265.918 -1.61067 3.29322 0
M  V30 2872 H 265.566 -4.06462 2.96306 0
M  V30 2873 H 265.266 -3.58817 4.65322 0
M  V30 2874 H 266.79 -4.41356 4.21945 0
M  V30 2875 H 268.204 -2.37364 5.21854 0
M  V30 2876 H 266.601 -1.77272 5.73319 0
M  V30 2877 H 267.671 -0.714451 4.79608 0
M  V30 2878 N 269.014 -1.53014 -0.377408 0
M  V30 2879 C 270.242 -1.72515 -1.14219 0
M  V30 2880 C 270.657 -0.448735 -1.8339 0
M  V30 2881 O 270.014 0.577592 -1.73119 0
M  V30 2882 C 270.065 -2.8826 -2.18148 0
M  V30 2883 O 269.786 -4.10962 -1.51795 0
M  V30 2884 C 271.287 -3.19536 -3.07264 0
M  V30 2885 H 268.507 -0.577301 -0.342001 0
M  V30 2886 H 271.051 -1.99712 -0.439935 0
M  V30 2887 H 269.206 -2.63492 -2.83991 0
M  V30 2888 H 269.62 -4.75693 -2.20945 0
M  V30 2889 H 271.094 -4.03959 -3.76193 0
M  V30 2890 H 271.571 -2.34403 -3.71419 0
M  V30 2891 H 272.177 -3.46186 -2.47053 0
M  V30 2892 N 270.492 0.636531 -1.44174 0
M  V30 2893 C 271.422 1.76003 -1.53444 0
M  V30 2894 C 272.403 1.65619 -0.387841 0
M  V30 2895 O 273.588 1.84461 -0.607257 0
M  V30 2896 C 270.718 3.14511 -1.4731 0
M  V30 2897 C 269.672 3.39677 -2.60391 0
M  V30 2898 C 268.998 4.78159 -2.39308 0
M  V30 2899 C 270.298 3.32772 -4.02567 0
M  V30 2900 H 271.992 1.68501 -2.47483 0
M  V30 2901 H 269.538 0.809237 -1.19111 0
M  V30 2902 H 271.491 3.92878 -1.52397 0
M  V30 2903 H 270.215 3.22783 -0.49785 0
M  V30 2904 H 268.874 2.63688 -2.54684 0
M  V30 2905 H 268.522 4.83128 -1.39988 0
M  V30 2906 H 268.222 4.95956 -3.15122 0
M  V30 2907 H 269.746 5.58762 -2.46205 0
M  V30 2908 H 271.16 4.01051 -4.09672 0
M  V30 2909 H 269.557 3.62104 -4.7854 0
M  V30 2910 H 270.627 2.30669 -4.2652 0
M  V30 2911 N 271.97 1.30982 0.876444 0
M  V30 2912 C 273.195 1.23373 1.66715 0
M  V30 2913 C 273.62 -0.19885 1.87046 0
M  V30 2914 O 272.978 -1.1427 1.40756 0
M  V30 2915 C 273.026 1.97644 3.01611 0
M  V30 2916 O 272.13 1.30935 3.91062 0
M  V30 2917 H 271.471 0.426279 0.509099 0
M  V30 2918 H 274.001 1.72944 1.09323 0
M  V30 2919 H 274.011 2.06992 3.51594 0
M  V30 2920 H 272.686 3.01829 2.86133 0
M  V30 2921 H 271.263 1.29996 3.49507 0
M  V30 2922 N 273.449 -1.08991 1.13837 0
M  V30 2923 C 274.677 -1.85011 0.926202 0
M  V30 2924 C 275.092 -1.8135 -0.525127 0
M  V30 2925 O 274.449 -1.21287 -1.36366 0
M  V30 2926 C 274.5 -3.32802 1.41155 0
M  V30 2927 O 274.221 -3.36444 2.80601 0
M  V30 2928 C 275.722 -4.25649 1.23847 0
M  V30 2929 H 272.942 -0.584249 0.32999 0
M  V30 2930 H 275.486 -1.37688 1.51202 0
M  V30 2931 H 273.641 -3.77536 0.868631 0
M  V30 2932 H 274.055 -4.28657 3.02248 0
M  V30 2933 H 275.529 -5.27485 1.62675 0
M  V30 2934 H 276.006 -4.38828 0.18065 0
M  V30 2935 H 276.612 -3.86735 1.76964 0
M  V30 2936 N 274.927 -0.932562 -1.27047 0
M  V30 2937 C 276.175 -0.574422 -1.93765 0
M  V30 2938 C 276.496 0.887993 -1.73608 0
M  V30 2939 O 275.766 1.62999 -1.08665 0
M  V30 2940 H 274.346 -0.209451 -0.717035 0
M  V30 2941 H 277.008 -1.18601 -1.5466 0
M  V30 2942 H 276.104 -0.784841 -3.02071 0
M  V30 2943 N 276.405 1.4127 -0.698611 0
M  V30 2944 C 277.651 2.01478 -0.231207 0
M  V30 2945 C 277.984 1.55215 1.16713 0
M  V30 2946 O 277.259 0.764672 1.78838 0
M  V30 2947 C 277.542 3.58912 -0.292281 0
M  V30 2948 C 277.395 4.15293 -1.72778 0
M  V30 2949 C 278.714 4.38736 0.346194 0
M  V30 2950 H 275.833 0.732025 -0.0854878 0
M  V30 2951 H 278.475 1.67977 -0.887906 0
M  V30 2952 H 276.625 3.87582 0.26686 0
M  V30 2953 H 278.297 3.97486 -2.341 0
M  V30 2954 H 276.54 3.7022 -2.26096 0
M  V30 2955 H 277.211 5.24452 -1.72202 0
M  V30 2956 H 279.687 4.15897 -0.130035 0
M  V30 2957 H 278.563 5.48221 0.272932 0
M  V30 2958 H 278.824 4.18425 1.42734 0
M  V30 2959 N 277.883 0.443576 1.51229 0
M  V30 2960 C 279.16 -0.181038 1.9476 0
M  V30 2961 C 279.54 -1.59523 1.38259 0
M  V30 2962 O 278.888 -2.2122 0.572198 0
M  V30 2963 C 279.098 -0.152422 3.48667 0
M  V30 2964 C 280.446 -0.354923 4.23114 0
M  V30 2965 O 281.47 -0.230257 3.55455 0
M  V30 2966 O 280.329 -0.603674 5.43156 0
M  V30 2967 H 277.423 -0.1266 0.817252 0
M  V30 2968 H 279.969 0.502004 1.62105 0
M  V30 2969 H 278.741 0.836022 3.82265 0
M  V30 2970 H 278.364 -0.878107 3.87782 0
M  V30 2971 N 279.361 -1.56624 0.175154 0
M  V30 2972 C 280.324 -2.16934 -0.739738 0
M  V30 2973 C 281.324 -1.11842 -1.15533 0
M  V30 2974 O 282.514 -1.37335 -1.07167 0
M  V30 2975 C 279.646 -2.75531 -2.00738 0
M  V30 2976 H 280.839 -2.99131 -0.214639 0
M  V30 2977 H 278.392 -1.56123 -0.0744197 0
M  V30 2978 H 279.127 -1.97078 -2.57548 0
M  V30 2979 H 278.912 -3.52444 -1.71831 0
M  V30 2980 H 280.402 -3.21904 -2.66021 0
M  V30 2981 N 280.839 0.0985539 -1.57292 0
M  V30 2982 C 281.769 1.12064 -2.04851 0
M  V30 2983 C 282.75 1.41981 -0.936767 0
M  V30 2984 O 283.935 1.52071 -1.20781 0
M  V30 2985 C 281.065 2.44144 -2.47004 0
M  V30 2986 C 280.019 2.28643 -3.6181 0
M  V30 2987 C 279.345 3.65869 -3.89929 0
M  V30 2988 C 280.645 1.72986 -4.92822 0
M  V30 2989 H 282.339 0.724979 -2.9049 0
M  V30 2990 H 279.885 0.34729 -1.39749 0
M  V30 2991 H 281.838 3.15914 -2.78884 0
M  V30 2992 H 280.562 2.85639 -1.5836 0
M  V30 2993 H 279.221 1.59318 -3.30172 0
M  V30 2994 H 278.869 4.04885 -2.98458 0
M  V30 2995 H 278.569 3.56344 -4.67218 0
M  V30 2996 H 280.093 4.39112 -4.2428 0
M  V30 2997 H 281.507 2.34593 -5.23105 0
M  V30 2998 H 279.904 1.74229 -5.74251 0
M  V30 2999 H 280.974 0.689007 -4.7998 0
M  V30 3000 N 282.317 1.53212 0.369288 0
M  V30 3001 C 283.542 1.73423 1.1375 0
M  V30 3002 C 283.967 0.460404 1.82378 0
M  V30 3003 O 283.325 -0.585298 1.71592 0
M  V30 3004 C 283.373 2.89769 2.1463 0
M  V30 3005 O 282.477 2.58119 3.21634 0
M  V30 3006 H 281.818 0.576061 0.330227 0
M  V30 3007 H 284.348 2.00083 0.427547 0
M  V30 3008 H 284.358 3.15829 2.58294 0
M  V30 3009 H 283.033 3.8217 1.64071 0
M  V30 3010 H 281.61 2.42864 2.82969 0
M  V30 3011 N 283.795 -0.628877 1.44509 0
M  V30 3012 C 284.745 -1.7345 1.47983 0
M  V30 3013 C 285.729 -1.5715 0.345373 0
M  V30 3014 O 286.921 -1.66848 0.590829 0
M  V30 3015 C 284.05 -3.12143 1.42904 0
M  V30 3016 C 283.136 -3.33906 2.61472 0
M  V30 3017 N 283.527 -3.26024 3.86706 0
M  V30 3018 C 281.825 -3.64709 2.56716 0
M  V30 3019 C 282.526 -3.48536 4.65722 0
M  V30 3020 N 281.502 -3.71517 3.96832 0
M  V30 3021 H 285.304 -1.65818 2.42655 0
M  V30 3022 H 282.818 -0.831419 1.39503 0
M  V30 3023 H 284.815 -3.91433 1.43476 0
M  V30 3024 H 283.475 -3.2094 0.492717 0
M  V30 3025 H 284.486 -3.04893 4.18641 0
M  V30 3026 H 281.163 -3.80473 1.71891 0
M  V30 3027 H 282.553 -3.48016 5.74747 0
M  V30 3028 N 285.273 -1.31445 -0.869486 0
M  V30 3029 C 286.236 -1.19094 -1.9583 0
M  V30 3030 C 287.236 -0.117906 -1.60367 0
M  V30 3031 O 288.426 -0.367208 -1.70286 0
M  V30 3032 C 285.558 -0.828165 -3.30688 0
M  V30 3033 H 286.751 -2.15842 -2.08212 0
M  V30 3034 H 284.304 -1.15063 -1.05784 0
M  V30 3035 H 285.039 0.138142 -3.24006 0
M  V30 3036 H 284.824 -1.6038 -3.578 0
M  V30 3037 H 286.314 -0.765658 -4.10521 0
M  V30 3038 N 286.751 1.08385 -1.14413 0
M  V30 3039 C 287.997 1.81044 -0.913834 0
M  V30 3040 C 288.33 1.86004 0.558209 0
M  V30 3041 O 287.605 1.33606 1.4135 0
M  V30 3042 C 287.888 3.26648 -1.51569 0
M  V30 3043 C 287.741 3.29895 -3.0576 0
M  V30 3044 C 289.06 4.23629 -1.19273 0
M  V30 3045 H 286.179 0.65727 -0.333414 0
M  V30 3046 H 288.821 1.26896 -1.41412 0
M  V30 3047 H 286.971 3.72889 -1.09023 0
M  V30 3048 H 288.643 2.91977 -3.57137 0
M  V30 3049 H 286.886 2.69163 -3.40197 0
M  V30 3050 H 287.557 4.32516 -3.42977 0
M  V30 3051 H 290.033 3.85727 -1.56057 0
M  V30 3052 H 288.909 5.23822 -1.64017 0
M  V30 3053 H 289.17 4.41968 -0.108068 0
M  V30 3054 N 288.23 0.939286 1.26551 0
M  V30 3055 C 289.14 0.453432 2.30176 0
M  V30 3056 C 290.156 -0.471649 1.67486 0
M  V30 3057 O 291.332 -0.35164 1.98306 0
M  V30 3058 C 288.397 -0.275326 3.45605 0
M  V30 3059 C 287.458 0.686084 4.23782 0
M  V30 3060 C 286.691 -0.00798994 5.33699 0
M  V30 3061 O 286.914 -1.22528 5.57085 0
M  V30 3062 O 285.848 0.669746 5.98162 0
M  V30 3063 H 289.674 1.31416 2.73795 0
M  V30 3064 H 287.259 0.705095 1.31715 0
M  V30 3065 H 289.141 -0.685911 4.1578 0
M  V30 3066 H 287.816 -1.11147 3.0402 0
M  V30 3067 H 286.723 1.14658 3.56096 0
M  V30 3068 H 288.056 1.48979 4.69112 0
M  V30 3069 N 289.708 -1.40897 0.706093 0
M  V30 3070 C 290.956 -2.00657 0.241054 0
M  V30 3071 C 291.277 -1.56241 -1.16678 0
M  V30 3072 O 290.547 -0.79765 -1.78926 0
M  V30 3073 H 289.127 -0.742018 0.0861308 0
M  V30 3074 H 291.789 -1.72372 0.909604 0
M  V30 3075 H 290.885 -3.10958 0.266705 0
M  V30 3076 N 291.186 -0.45159 -1.50991 0
M  V30 3077 C 292.416 0.108177 -2.06317 0
M  V30 3078 C 292.824 1.35774 -1.31765 0
M  V30 3079 O 292.167 1.79838 -0.374694 0
M  V30 3080 C 292.229 0.481659 -3.56259 0
M  V30 3081 C 291.893 -0.663114 -4.52163 0
M  V30 3082 C 292.89 -1.53947 -4.96585 0
M  V30 3083 C 290.575 -0.8479 -4.95092 0
M  V30 3084 C 292.569 -2.58518 -5.82621 0
M  V30 3085 C 290.256 -1.89686 -5.80915 0
M  V30 3086 C 291.254 -2.76388 -6.24579 0
M  V30 3087 O 290.942 -3.79482 -7.08695 0
M  V30 3088 H 290.674 0.00499183 -0.675982 0
M  V30 3089 H 293.228 -0.633659 -1.95381 0
M  V30 3090 H 291.458 1.27641 -3.65027 0
M  V30 3091 H 293.147 0.974233 -3.94035 0
M  V30 3092 H 293.913 -1.4083 -4.64103 0
M  V30 3093 H 289.792 -0.18258 -4.60638 0
M  V30 3094 H 293.336 -3.26224 -6.16623 0
M  V30 3095 H 289.233 -2.02817 -6.12809 0
M  V30 3096 H 290.001 -3.76234 -7.26905 0
M  V30 3097 N 292.664 1.56529 -0.183458 0
M  V30 3098 C 293.594 2.21549 0.737456 0
M  V30 3099 C 294.575 1.17489 1.23005 0
M  V30 3100 O 295.76 1.45959 1.281 0
M  V30 3101 C 292.89 2.86575 1.96194 0
M  V30 3102 C 291.844 3.96778 1.60473 0
M  V30 3103 C 291.17 4.48911 2.90487 0
M  V30 3104 C 292.47 5.15767 0.823497 0
M  V30 3105 H 294.164 2.98761 0.195453 0
M  V30 3106 H 291.71 1.43702 0.0925686 0
M  V30 3107 H 293.663 3.30739 2.61131 0
M  V30 3108 H 292.387 2.06749 2.52828 0
M  V30 3109 H 291.046 3.53286 0.978997 0
M  V30 3110 H 290.694 3.65862 3.45186 0
M  V30 3111 H 290.394 5.23265 2.67335 0
M  V30 3112 H 291.918 4.95771 3.56432 0
M  V30 3113 H 293.332 5.56549 1.37571 0
M  V30 3114 H 291.729 5.96114 0.690551 0
M  V30 3115 H 292.799 4.84574 -0.177782 0
M  V30 3116 N 294.142 -0.090211 1.57342 0
M  V30 3117 C 295.367 -0.810082 1.90925 0
M  V30 3118 C 295.792 -1.71248 0.778187 0
M  V30 3119 O 295.15 -1.79278 -0.269991 0
M  V30 3120 C 295.198 -1.59529 3.23393 0
M  V30 3121 O 294.302 -2.70461 3.11327 0
M  V30 3122 H 293.643 -0.222231 0.625707 0
M  V30 3123 H 296.173 -0.0639716 2.045 0
M  V30 3124 H 296.183 -1.97847 3.5682 0
M  V30 3125 H 294.858 -0.933055 4.05299 0
M  V30 3126 H 293.435 -2.35135 2.89423 0
M  V30 3127 N 295.62 -1.53406 -0.361157 0
M  V30 3128 C 297.036 -1.43277 -0.703124 0
M  V30 3129 C 297.236 -0.575384 -1.9311 0
M  V30 3130 O 296.292 -0.0595362 -2.5243 0
M  V30 3131 C 297.605 -2.8653 -0.9122 0
M  V30 3132 C 299.153 -2.96191 -1.01193 0
M  V30 3133 C 299.628 -4.40514 -1.25345 0
M  V30 3134 N 301.119 -4.43962 -1.32105 0
M  V30 3135 C 301.854 -5.52746 -1.5251 0
M  V30 3136 N 301.35 -6.71567 -1.70203 0
M  V30 3137 N 303.143 -5.40331 -1.54916 0
M  V30 3138 H 295.294 -2.07654 0.446475 0
M  V30 3139 H 297.557 -0.937944 0.137715 0
M  V30 3140 H 297.263 -3.51605 -0.0816414 0
M  V30 3141 H 297.137 -3.30441 -1.81903 0
M  V30 3142 H 299.524 -2.31266 -1.83303 0
M  V30 3143 H 299.605 -2.55667 -0.0823929 0
M  V30 3144 H 299.249 -5.06014 -0.437346 0
M  V30 3145 H 299.179 -4.78614 -2.19627 0
M  V30 3146 H 301.67 -3.58332 -1.20028 0
M  V30 3147 H 301.983 -7.50241 -1.85359 0
M  V30 3148 H 300.328 -6.74545 -1.67373 0
M  V30 3149 H 303.519 -4.46465 -1.40663 0
M  V30 3150 H 303.692 -6.25173 -1.70477 0
M  V30 3151 N 297.098 0.621204 -1.44841 0
M  V30 3152 C 298.045 1.73267 -1.5247 0
M  V30 3153 C 299.015 1.6189 -0.371611 0
M  V30 3154 O 300.2 1.81668 -0.58321 0
M  V30 3155 C 297.34 3.11545 -1.48438 0
M  V30 3156 C 296.453 3.33827 -2.74196 0
M  V30 3157 C 295.588 4.62133 -2.61929 0
M  V30 3158 C 294.627 4.77627 -3.82804 0
M  V30 3159 N 293.764 5.97219 -3.69153 0
M  V30 3160 H 298.604 1.66082 -2.47428 0
M  V30 3161 H 296.141 0.810026 -1.22788 0
M  V30 3162 H 298.099 3.91528 -1.4409 0
M  V30 3163 H 296.729 3.1772 -0.570402 0
M  V30 3164 H 295.781 2.47715 -2.88689 0
M  V30 3165 H 297.093 3.41153 -3.6389 0
M  V30 3166 H 296.247 5.50291 -2.5547 0
M  V30 3167 H 294.986 4.57182 -1.69811 0
M  V30 3168 H 293.991 3.87896 -3.89637 0
M  V30 3169 H 295.216 4.84385 -4.75971 0
M  V30 3170 H 293.162 5.93339 -2.79794 0
M  V30 3171 H 293.079 6.05644 -4.52472 0
M  V30 3172 H 294.347 6.87912 -3.66603 0
M  V30 3173 N 298.576 1.31904 0.862503 0
M  V30 3174 C 299.801 1.25135 1.65397 0
M  V30 3175 C 300.226 -0.179 1.87246 0
M  V30 3176 O 299.584 -1.1277 1.4196 0
M  V30 3177 C 299.632 2.00832 2.99498 0
M  V30 3178 O 298.736 1.35075 3.89652 0
M  V30 3179 H 298.077 0.431655 0.504549 0
M  V30 3180 H 300.607 1.74094 1.07483 0
M  V30 3181 H 300.617 2.10709 3.49379 0
M  V30 3182 H 299.292 3.04847 2.82916 0
M  V30 3183 H 297.869 1.33696 3.48109 0
M  V30 3184 N 300.054 -1.07777 1.14986 0
M  V30 3185 C 301.282 -1.84018 0.945773 0
M  V30 3186 C 301.697 -1.81897 -0.505863 0
M  V30 3187 O 301.054 -1.22726 -1.35072 0
M  V30 3188 C 301.105 -3.31287 1.44677 0
M  V30 3189 O 300.826 -3.33449 2.84154 0
M  V30 3190 C 302.327 -4.24311 1.28355 0
M  V30 3191 H 299.547 -0.580716 0.336169 0
M  V30 3192 H 302.091 -1.36077 1.52654 0
M  V30 3193 H 300.246 -3.76594 0.908625 0
M  V30 3194 H 300.66 -4.25427 3.06777 0
M  V30 3195 H 302.134 -5.2573 1.68261 0
M  V30 3196 H 302.611 -4.38612 0.227184 0
M  V30 3197 H 303.217 -3.84836 1.81056 0
M  V30 3198 N 301.532 -0.945985 -1.26051 0
M  V30 3199 C 302.943 -0.638096 -1.75457 0
M  V30 3200 C 303.294 0.846672 -1.76991 0
M  V30 3201 O 302.419 1.66262 -1.38513 0
M  V30 3202 C 303.014 -1.15157 -3.18629 0
M  V30 3203 C 301.573 -0.894004 -3.65629 0
M  V30 3204 C 300.72 -1.29967 -2.44957 0
M  V30 3205 H 303.671 -1.12376 -1.1206 0
M  V30 3206 H 303.692 -0.507615 -3.77099 0
M  V30 3207 H 303.204 -2.23222 -3.1748 0
M  V30 3208 H 301.305 0.172057 -3.72203 0
M  V30 3209 H 301.418 -1.52439 -4.54202 0
M  V30 3210 H 299.782 -0.718078 -2.44368 0
M  V30 3211 H 300.565 -2.38935 -2.46505 0
M  V30 3212 N 303.011 1.40521 -0.713556 0
M  V30 3213 C 304.422 1.83853 -0.324807 0
M  V30 3214 C 304.773 1.59667 1.14021 0
M  V30 3215 O 303.898 1.07649 1.87725 0
M  V30 3216 C 304.493 3.33751 -0.582746 0
M  V30 3217 C 303.052 3.75584 -0.247727 0
M  V30 3218 C 302.199 2.63753 -0.856121 0
M  V30 3219 H 305.15 1.29817 -0.91286 0
M  V30 3220 H 305.171 3.80194 0.152682 0
M  V30 3221 H 304.683 3.51322 -1.64908 0
M  V30 3222 H 302.784 3.63608 0.813624 0
M  V30 3223 H 302.897 4.7373 -0.715307 0
M  V30 3224 H 301.261 2.53108 -0.28432 0
M  V30 3225 H 302.044 2.84137 -1.92668 0
M  V30 3226 N 304.489 0.459591 1.5075 0
M  V30 3227 C 305.714 -0.0996819 2.0716 0
M  V30 3228 C 306.139 -1.33761 1.32249 0
M  V30 3229 O 305.497 -1.77551 0.366786 0
M  V30 3230 C 305.545 -0.378226 3.58611 0
M  V30 3231 O 304.649 -1.46081 3.85661 0
M  V30 3232 H 303.99 0.00791392 0.663953 0
M  V30 3233 H 306.52 0.647329 1.9409 0
M  V30 3234 H 306.53 -0.622135 4.03229 0
M  V30 3235 H 305.205 0.526439 4.12555 0
M  V30 3236 H 303.782 -1.20511 3.5289 0
M  V30 3237 N 305.967 -1.56429 0.191757 0
M  V30 3238 C 307.244 -1.89224 -0.495332 0
M  V30 3239 C 307.624 -1.10478 -1.79883 0
M  V30 3240 O 306.972 -0.204852 -2.2758 0
M  V30 3241 C 307.182 -3.41548 -0.717367 0
M  V30 3242 C 308.53 -4.11711 -1.03823 0
M  V30 3243 O 309.554 -3.4698 -0.805204 0
M  V30 3244 O 308.413 -5.2611 -1.47887 0
M  V30 3245 H 305.507 -0.785788 -0.25781 0
M  V30 3246 H 308.053 -1.68111 0.231721 0
M  V30 3247 H 306.825 -3.90772 0.203287 0
M  V30 3248 H 306.448 -3.68342 -1.497 0
M  V30 3249 N 307.445 0.0818655 -1.57387 0
M  V30 3250 C 308.408 1.08265 -2.02018 0
M  V30 3251 C 309.408 1.32183 -0.915664 0
M  V30 3252 O 310.598 1.28073 -1.18081 0
M  V30 3253 C 307.73 2.42871 -2.39221 0
M  V30 3254 H 308.923 0.698204 -2.91659 0
M  V30 3255 H 306.476 0.327303 -1.52835 0
M  V30 3256 H 307.211 2.86167 -1.52575 0
M  V30 3257 H 306.996 2.26855 -3.19811 0
M  V30 3258 H 308.486 3.14826 -2.74362 0
M  V30 3259 N 308.923 1.53595 0.353017 0
M  V30 3260 C 309.853 1.83902 1.43883 0
M  V30 3261 C 310.834 0.693421 1.55324 0
M  V30 3262 O 312.019 0.944452 1.69687 0
M  V30 3263 C 309.149 2.04016 2.8106 0
M  V30 3264 C 308.103 3.19814 2.84434 0
M  V30 3265 C 307.429 3.25244 4.24406 0
M  V30 3266 C 308.729 4.58133 2.50822 0
M  V30 3267 H 310.423 2.74835 1.1877 0
M  V30 3268 H 307.969 1.32242 0.569917 0
M  V30 3269 H 309.922 2.238 3.57059 0
M  V30 3270 H 308.646 1.09804 3.07588 0
M  V30 3271 H 307.305 2.9987 2.10887 0
M  V30 3272 H 306.953 2.28646 4.48029 0
M  V30 3273 H 306.653 4.03054 4.27576 0
M  V30 3274 H 308.177 3.47228 5.0226 0
M  V30 3275 H 309.591 4.77995 3.16534 0
M  V30 3276 H 307.988 5.38276 2.6529 0
M  V30 3277 H 309.058 4.62387 1.46034 0
M  V30 3278 N 310.401 -0.613514 1.45168 0
M  V30 3279 C 311.364 -1.7065 1.53007 0
M  V30 3280 C 312.364 -1.5548 0.410184 0
M  V30 3281 O 313.554 -1.60656 0.673455 0
M  V30 3282 C 310.686 -3.09875 1.42093 0
M  V30 3283 H 311.879 -1.65068 2.50385 0
M  V30 3284 H 309.432 -0.828728 1.32521 0
M  V30 3285 H 310.167 -3.21039 0.458769 0
M  V30 3286 H 309.952 -3.22293 2.23315 0
M  V30 3287 H 311.442 -3.895 1.50598 0
M  V30 3288 N 311.879 -1.3236 -0.855495 0
M  V30 3289 C 313.128 -1.22226 -1.60448 0
M  V30 3290 C 313.441 0.214733 -1.94418 0
M  V30 3291 O 314.647 0.437917 -2.67945 0
M  V30 3292 C 313.103 -2.14063 -2.89318 0
M  V30 3293 C 312.711 -3.62839 -2.62777 0
M  V30 3294 C 314.455 -2.12764 -3.67331 0
M  V30 3295 C 312.362 -4.4664 -3.87643 0
M  V30 3296 H 311.292 -0.453904 -0.602069 0
M  V30 3297 H 313.943 -1.57314 -0.944698 0
M  V30 3298 H 312.325 -1.71889 -3.5675 0
M  V30 3299 H 313.499 -4.1335 -2.03662 0
M  V30 3300 H 311.814 -3.66261 -1.98096 0
M  V30 3301 H 314.411 -2.72611 -4.59987 0
M  V30 3302 H 314.754 -1.11841 -4.00995 0
M  V30 3303 H 315.287 -2.53214 -3.06802 0
M  V30 3304 H 312.026 -5.48373 -3.5912 0
M  V30 3305 H 311.546 -4.0088 -4.46156 0
M  V30 3306 H 313.225 -4.59597 -4.55389 0
M  V30 3307 N 313.357 1.07166 -1.15556 0
M  V30 3308 C 314.267 2.17947 -0.868116 0
M  V30 3309 C 315.283 1.73297 0.156297 0
M  V30 3310 O 316.459 2.01392 -0.0182327 0
M  V30 3311 C 313.524 3.44789 -0.36355 0
M  V30 3312 C 312.585 4.03996 -1.45209 0
M  V30 3313 C 311.818 5.24783 -0.971508 0
M  V30 3314 O 312.041 5.70109 0.182194 0
M  V30 3315 O 310.975 5.75715 -1.75603 0
M  V30 3316 H 314.801 2.4503 -1.79427 0
M  V30 3317 H 312.386 1.16539 -0.934824 0
M  V30 3318 H 314.268 4.21307 -0.0887113 0
M  V30 3319 H 312.943 3.19253 0.534708 0
M  V30 3320 H 311.85 3.29009 -1.78056 0
M  V30 3321 H 313.183 4.33808 -2.32533 0
M  V30 3322 N 314.835 0.952656 1.25548 0
M  V30 3323 C 315.798 0.475794 2.24207 0
M  V30 3324 C 316.798 -0.419428 1.55234 0
M  V30 3325 O 317.988 -0.216994 1.72843 0
M  V30 3326 C 315.12 -0.312814 3.39462 0
M  V30 3327 H 316.313 1.34779 2.67908 0
M  V30 3328 H 313.866 0.735739 1.37901 0
M  V30 3329 H 314.601 -1.20257 3.01179 0
M  V30 3330 H 314.386 0.329404 3.90714 0
M  V30 3331 H 315.876 -0.635986 4.12729 0
M  V30 3332 N 316.313 -1.40141 0.720998 0
M  V30 3333 C 317.246 -2.2819 0.020916 0
M  V30 3334 C 318.224 -1.43633 -0.762129 0
M  V30 3335 O 319.408 -1.7304 -0.747633 0
M  V30 3336 C 316.535 -3.24281 -0.977715 0
M  V30 3337 C 315.581 -4.25548 -0.284836 0
M  V30 3338 S 316.414 -5.26247 0.991169 0
M  V30 3339 C 317.57 -6.259 -0.0052214 0
M  V30 3340 H 317.803 -2.87218 0.767649 0
M  V30 3341 H 315.336 -1.45656 0.512233 0
M  V30 3342 H 317.294 -3.80167 -1.54865 0
M  V30 3343 H 315.955 -2.643 -1.69719 0
M  V30 3344 H 315.148 -4.93154 -1.03996 0
M  V30 3345 H 314.75 -3.73389 0.213684 0
M  V30 3346 H 317.042 -6.72143 -0.850279 0
M  V30 3347 H 317.985 -7.05224 0.637599 0
M  V30 3348 H 318.393 -5.63277 -0.371366 0
M  V30 3349 N 317.792 -0.46758 -1.50504 0
M  V30 3350 C 318.739 0.328413 -2.28452 0
M  V30 3351 C 319.709 0.990313 -1.33349 0
M  V30 3352 O 320.894 1.00343 -1.62284 0
M  V30 3353 C 318.034 1.40648 -3.15138 0
M  V30 3354 C 317.147 0.759709 -4.25267 0
M  V30 3355 C 316.282 1.81537 -4.99217 0
M  V30 3356 C 315.321 1.14866 -6.01226 0
M  V30 3357 N 314.458 2.14702 -6.68467 0
M  V30 3358 H 319.298 -0.342603 -2.96024 0
M  V30 3359 H 316.835 -0.180801 -1.45985 0
M  V30 3360 H 318.793 2.04315 -3.63746 0
M  V30 3361 H 317.423 2.04671 -2.49619 0
M  V30 3362 H 316.475 0.0105671 -3.80399 0
M  V30 3363 H 317.787 0.233243 -4.98254 0
M  V30 3364 H 316.941 2.52793 -5.51526 0
M  V30 3365 H 315.68 2.37564 -4.25928 0
M  V30 3366 H 314.685 0.42171 -5.4818 0
M  V30 3367 H 315.91 0.595334 -6.76485 0
M  V30 3368 H 313.856 2.69752 -5.97972 0
M  V30 3369 H 313.773 1.6703 -7.37317 0
M  V30 3370 H 315.041 2.85348 -7.25394 0
M  V30 3371 N 319.27 1.56325 -0.20005 0
M  V30 3372 C 320.519 1.96895 0.437652 0
M  V30 3373 C 320.832 1.08999 1.62415 0
M  V30 3374 O 322.038 1.39372 2.32997 0
M  V30 3375 C 320.494 3.50198 0.830025 0
M  V30 3376 C 320.102 4.46765 -0.332461 0
M  V30 3377 C 321.846 3.99526 1.43453 0
M  V30 3378 C 319.753 5.91344 0.0811468 0
M  V30 3379 H 318.683 0.735209 0.167282 0
M  V30 3380 H 321.334 1.81148 -0.292853 0
M  V30 3381 H 319.716 3.61467 1.61734 0
M  V30 3382 H 320.89 4.47231 -1.11 0
M  V30 3383 H 319.205 4.07657 -0.848789 0
M  V30 3384 H 321.802 5.05025 1.75652 0
M  V30 3385 H 322.145 3.44122 2.34277 0
M  V30 3386 H 322.678 3.91393 0.71109 0
M  V30 3387 H 319.417 6.50685 -0.793033 0
M  V30 3388 H 318.937 5.94121 0.823445 0
M  V30 3389 H 320.616 6.44945 0.515252 0
M  V30 3390 N 320.748 -0.0735177 1.57428 0
M  V30 3391 C 321.997 -0.771809 1.86349 0
M  V30 3392 C 322.31 -1.78828 0.792452 0
M  V30 3393 O 323.516 -2.53602 0.96945 0
M  V30 3394 C 321.972 -1.42358 3.30548 0
M  V30 3395 C 321.58 -0.445761 4.45777 0
M  V30 3396 C 323.324 -2.10434 3.6867 0
M  V30 3397 C 321.231 -1.10335 5.81016 0
M  V30 3398 H 320.161 -0.291999 0.695164 0
M  V30 3399 H 322.812 -0.0250749 1.83483 0
M  V30 3400 H 321.194 -2.21852 3.28021 0
M  V30 3401 H 322.368 0.319239 4.59693 0
M  V30 3402 H 320.683 0.130457 4.16196 0
M  V30 3403 H 323.28 -2.60405 4.67004 0
M  V30 3404 H 323.623 -2.90298 2.98383 0
M  V30 3405 H 324.156 -1.37773 3.7318 0
M  V30 3406 H 320.895 -0.345061 6.54591 0
M  V30 3407 H 320.415 -1.83925 5.70904 0
M  V30 3408 H 322.094 -1.62367 6.26295 0
M  V30 3409 N 322.226 -1.5378 -0.344866 0
M  V30 3410 C 323.176 -1.78057 -1.42407 0
M  V30 3411 C 324.16 -0.635732 -1.47808 0
M  V30 3412 O 325.352 -0.89508 -1.527 0
M  V30 3413 C 322.481 -1.99242 -2.79566 0
M  V30 3414 C 321.567 -3.19787 -2.78562 0
M  V30 3415 N 321.958 -4.41284 -2.47189 0
M  V30 3416 C 320.256 -3.2093 -3.0971 0
M  V30 3417 C 320.957 -5.23128 -2.54385 0
M  V30 3418 N 319.933 -4.59813 -2.89953 0
M  V30 3419 H 323.735 -2.69588 -1.17046 0
M  V30 3420 H 321.249 -1.52687 -0.553217 0
M  V30 3421 H 323.246 -2.14768 -3.57324 0
M  V30 3422 H 321.906 -1.08953 -3.05875 0
M  V30 3423 H 322.917 -4.68657 -2.20411 0
M  V30 3424 H 319.594 -2.40603 -3.41199 0
M  V30 3425 H 320.984 -6.30096 -2.333 0
M  V30 3426 N 323.704 0.605807 -1.45491 0
M  V30 3427 C 325.12 0.926751 -1.29936 0
M  V30 3428 C 325.32 1.99896 -0.253706 0
M  V30 3429 O 324.376 2.50038 0.351737 0
M  V30 3430 C 325.689 1.36599 -2.67883 0
M  V30 3431 C 327.237 1.4801 -2.75793 0
M  V30 3432 C 327.712 1.95309 -4.14268 0
M  V30 3433 N 329.203 2.0254 -4.16571 0
M  V30 3434 C 329.938 2.40363 -5.20589 0
M  V30 3435 N 329.434 2.77143 -6.34952 0
M  V30 3436 N 331.227 2.40718 -5.07948 0
M  V30 3437 H 323.378 -0.102862 -2.12151 0
M  V30 3438 H 325.641 0.016639 -0.947854 0
M  V30 3439 H 325.347 0.652306 -3.45598 0
M  V30 3440 H 325.221 2.33215 -2.96463 0
M  V30 3441 H 327.608 2.1847 -1.98381 0
M  V30 3442 H 327.689 0.497041 -2.50925 0
M  V30 3443 H 327.333 1.25436 -4.92167 0
M  V30 3444 H 327.263 2.94532 -4.3653 0
M  V30 3445 H 329.754 1.76699 -3.34045 0
M  V30 3446 H 330.067 3.0489 -7.10114 0
M  V30 3447 H 328.412 2.74834 -6.3835 0
M  V30 3448 H 331.603 2.11392 -4.1765 0
M  V30 3449 H 331.776 2.69869 -5.89131 0
M  V30 3450 N 325.182 1.32811 0.848464 0
M  V30 3451 C 326.13 1.22231 1.97895 0
M  V30 3452 C 327.124 0.125749 1.68933 0
M  V30 3453 O 328.33 0.289083 1.77663 0
M  V30 3454 H 324.705 0.379058 0.649476 0
M  V30 3455 H 326.676 2.17828 2.03945 0
M  V30 3456 C 325.425 0.968572 3.33937 0
M  V30 3457 H 324.748 1.80458 3.56756 0
M  V30 3458 H 326.188 0.934808 4.13567 0
M  V30 3459 C 324.647 -0.328628 3.35293 0
M  V30 3460 O 325.177 -1.33848 3.78745 0
M  V30 3461 N 323.383 -0.352788 2.88451 0
M  V30 3462 H 322.93 0.469541 2.53285 0
M  V30 3463 H 322.888 -1.22057 2.89741 0
M  V30 3464 N 326.66 -1.06551 1.16123 0
M  V30 3465 C 327.59 -2.15935 0.88851 0
M  V30 3466 C 328.571 -1.69306 -0.164135 0
M  V30 3467 O 329.756 -1.94193 -0.0167857 0
M  V30 3468 C 326.886 -3.45149 0.385942 0
M  V30 3469 C 325.84 -4.05271 1.3762 0
M  V30 3470 C 325.166 -5.29664 0.732137 0
M  V30 3471 C 326.466 -4.44355 2.74493 0
M  V30 3472 H 328.16 -2.39006 1.80323 0
M  V30 3473 H 325.706 -1.14866 0.868435 0
M  V30 3474 H 327.659 -4.21004 0.182647 0
M  V30 3475 H 326.383 -3.21689 -0.564274 0
M  V30 3476 H 325.042 -3.3147 1.56599 0
M  V30 3477 H 324.69 -5.02499 -0.224483 0
M  V30 3478 H 324.39 -5.70848 1.39307 0
M  V30 3479 H 325.914 -6.08218 0.538802 0
M  V30 3480 H 327.328 -5.11303 2.59311 0
M  V30 3481 H 325.725 -4.96515 3.37035 0
M  V30 3482 H 326.795 -3.55339 3.29943 0
M  V30 3483 N 328.138 -0.959301 -1.25041 0
M  V30 3484 C 329.549 -0.65667 -1.74771 0
M  V30 3485 C 329.9 0.827852 -1.77879 0
M  V30 3486 O 329.025 1.64783 -1.40269 0
M  V30 3487 C 329.62 -1.1853 -3.1739 0
M  V30 3488 C 328.179 -0.932734 -3.6466 0
M  V30 3489 C 327.326 -1.32558 -2.43564 0
M  V30 3490 H 330.277 -1.13558 -1.10862 0
M  V30 3491 H 330.298 -0.547582 -3.76539 0
M  V30 3492 H 329.81 -2.26576 -3.15095 0
M  V30 3493 H 327.911 0.13257 -3.72364 0
M  V30 3494 H 328.024 -1.57248 -4.52559 0
M  V30 3495 H 326.388 -0.743956 -2.43593 0
M  V30 3496 H 327.171 -2.41537 -2.43957 0
M  V30 3497 N 329.616 1.39756 -0.72842 0
M  V30 3498 C 330.563 2.30647 -0.0841519 0
M  V30 3499 C 331.533 1.48869 0.7367 0
M  V30 3500 O 332.718 1.77574 0.698015 0
M  V30 3501 C 329.858 3.35165 0.822091 0
M  V30 3502 C 328.971 4.31999 -0.0106663 0
M  V30 3503 C 328.106 5.23585 0.896241 0
M  V30 3504 C 327.145 6.12072 0.0583381 0
M  V30 3505 N 326.282 6.96035 0.920818 0
M  V30 3506 H 331.122 2.85173 -0.864891 0
M  V30 3507 H 328.659 1.40422 -0.438179 0
M  V30 3508 H 330.617 3.94345 1.36189 0
M  V30 3509 H 329.247 2.8211 1.56888 0
M  V30 3510 H 328.299 3.74492 -0.66781 0
M  V30 3511 H 329.611 4.9443 -0.658825 0
M  V30 3512 H 328.765 5.87759 1.50412 0
M  V30 3513 H 327.504 4.61459 1.57819 0
M  V30 3514 H 326.509 5.46916 -0.562389 0
M  V30 3515 H 327.734 6.76261 -0.6203 0
M  V30 3516 H 325.68 6.36485 1.58818 0
M  V30 3517 H 325.597 7.55284 0.32899 0
M  V30 3518 H 326.865 7.64646 1.51447 0
M  V30 3519 N 331.094 0.475555 1.50254 0
M  V30 3520 C 332.057 -0.305016 2.27161 0
M  V30 3521 C 333.057 -0.916519 1.32123 0
M  V30 3522 O 334.247 -0.785003 1.5551 0
M  V30 3523 C 331.379 -1.43496 3.09227 0
M  V30 3524 H 332.572 0.369511 2.97615 0
M  V30 3525 H 330.125 0.229747 1.54602 0
M  V30 3526 H 330.86 -2.14441 2.43281 0
M  V30 3527 H 330.645 -1.00223 3.79075 0
M  V30 3528 H 332.135 -1.98548 3.67381 0
M  V30 3529 N 332.573 -1.56217 0.208337 0
M  V30 3530 C 333.822 -1.97124 -0.427204 0
M  V30 3531 C 334.135 -1.09859 -1.61835 0
M  V30 3532 O 335.341 -1.40606 -2.32255 0
M  V30 3533 C 333.797 -3.50633 -0.811442 0
M  V30 3534 C 333.405 -4.46582 0.35615 0
M  V30 3535 C 335.149 -4.00282 -1.41332 0
M  V30 3536 C 333.056 -5.91379 -0.0497852 0
M  V30 3537 H 331.986 -0.736086 -0.163381 0
M  V30 3538 H 334.637 -1.8099 0.302456 0
M  V30 3539 H 333.019 -3.62319 -1.59815 0
M  V30 3540 H 334.193 -4.46636 1.1337 0
M  V30 3541 H 332.508 -4.07202 0.870396 0
M  V30 3542 H 335.105 -5.0595 -1.72972 0
M  V30 3543 H 335.448 -3.45359 -2.32449 0
M  V30 3544 H 335.981 -3.91764 -0.690323 0
M  V30 3545 H 332.72 -6.50255 0.827529 0
M  V30 3546 H 332.24 -5.94549 -0.791926 0
M  V30 3547 H 333.919 -6.45209 -0.481042 0
M  V30 3548 N 334.051 0.0651679 -1.57465 0
M  V30 3549 C 334.961 1.09448 -2.07505 0
M  V30 3550 C 335.977 1.41974 -1.00595 0
M  V30 3551 O 337.153 1.52018 -1.32107 0
M  V30 3552 C 334.218 2.38689 -2.51453 0
M  V30 3553 C 333.279 2.13073 -3.72691 0
M  V30 3554 C 332.512 3.36152 -4.14533 0
M  V30 3555 O 332.735 4.45517 -3.56189 0
M  V30 3556 O 331.669 3.23974 -5.07272 0
M  V30 3557 H 335.495 0.69935 -2.95538 0
M  V30 3558 H 333.08 0.279752 -1.46757 0
M  V30 3559 H 334.962 3.14736 -2.80212 0
M  V30 3560 H 333.637 2.77568 -1.66546 0
M  V30 3561 H 332.544 1.34709 -3.49005 0
M  V30 3562 H 333.877 1.79071 -4.5847 0
M  V30 3563 N 335.529 1.53961 0.336706 0
M  V30 3564 C 336.777 1.71197 1.07405 0
M  V30 3565 C 337.098 0.481475 1.88962 0
M  V30 3566 O 336.368 -0.504585 1.8929 0
M  V30 3567 H 334.948 0.631185 0.399517 0
M  V30 3568 H 337.61 1.91232 0.376323 0
M  V30 3569 H 336.706 2.58587 1.74755 0
M  V30 3570 N 337.007 -0.598083 1.45811 0
M  V30 3571 C 337.955 -1.72932 1.55555 0
M  V30 3572 C 338.949 -1.63984 0.424921 0
M  V30 3573 O 340.155 -1.69663 0.601205 0
M  V30 3574 H 336.53 -0.571489 0.488779 0
M  V30 3575 H 338.501 -1.61842 2.50699 0
M  V30 3576 C 337.25 -3.11318 1.54843 0
M  V30 3577 H 336.573 -3.18867 2.41172 0
M  V30 3578 H 338.013 -3.90274 1.65717 0
M  V30 3579 C 336.472 -3.3578 0.274427 0
M  V30 3580 O 337.002 -3.9654 -0.641778 0
M  V30 3581 N 335.208 -2.90119 0.167139 0
M  V30 3582 H 334.755 -2.40855 0.913596 0
M  V30 3583 H 334.713 -3.0686 -0.684435 0
M  V30 3584 N 338.485 -1.33259 -0.841409 0
M  V30 3585 C 339.901 -1.12538 -1.13169 0
M  V30 3586 C 340.101 0.0854037 -2.01319 0
M  V30 3587 O 339.157 0.766417 -2.40587 0
M  V30 3588 C 340.47 -2.41156 -1.79623 0
M  V30 3589 C 342.018 -2.47038 -1.922 0
M  V30 3590 C 342.493 -3.7561 -2.6207 0
M  V30 3591 N 343.984 -3.76667 -2.69585 0
M  V30 3592 C 344.719 -4.72861 -3.2433 0
M  V30 3593 N 344.215 -5.79428 -3.79783 0
M  V30 3594 N 346.008 -4.6034 -3.22558 0
M  V30 3595 H 338.159 -2.10868 -0.254676 0
M  V30 3596 H 340.422 -0.931615 -0.175493 0
M  V30 3597 H 340.128 -3.29747 -1.22311 0
M  V30 3598 H 340.002 -2.53114 -2.79666 0
M  V30 3599 H 342.389 -1.58898 -2.48667 0
M  V30 3600 H 342.47 -2.39022 -0.911148 0
M  V30 3601 H 342.114 -4.64131 -2.06263 0
M  V30 3602 H 342.044 -3.80902 -3.63622 0
M  V30 3603 H 344.535 -2.99648 -2.30259 0
M  V30 3604 H 344.848 -6.48867 -4.19752 0
M  V30 3605 H 343.193 -5.83166 -3.78078 0
M  V30 3606 H 346.384 -3.76244 -2.78492 0
M  V30 3607 H 346.557 -5.35478 -3.64921 0
M  V30 3608 N 339.963 1.05934 -1.16686 0
M  V30 3609 C 340.873 2.17014 -0.891183 0
M  V30 3610 C 341.889 1.73453 0.137907 0
M  V30 3611 O 343.065 2.01361 -0.039592 0
M  V30 3612 C 340.13 3.44384 -0.400099 0
M  V30 3613 C 339.191 4.02433 -1.49486 0
M  V30 3614 C 338.424 5.23723 -1.02711 0
M  V30 3615 O 338.647 5.7027 0.121716 0
M  V30 3616 O 337.581 5.7382 -1.81699 0
M  V30 3617 H 341.407 2.43113 -1.82015 0
M  V30 3618 H 338.992 1.15541 -0.947132 0
M  V30 3619 H 340.874 4.21189 -0.133392 0
M  V30 3620 H 339.549 3.19802 0.500817 0
M  V30 3621 H 338.456 3.27102 -1.81535 0
M  V30 3622 H 339.789 4.31317 -2.37121 0
M  V30 3623 N 341.441 0.965919 1.2453 0
M  V30 3624 C 342.404 0.499547 2.2369 0
M  V30 3625 C 343.404 -0.40294 1.5567 0
M  V30 3626 O 344.594 -0.19865 1.73064 0
M  V30 3627 C 341.726 -0.276792 3.39774 0
M  V30 3628 H 342.919 1.37613 2.66463 0
M  V30 3629 H 340.472 0.750324 1.37112 0
M  V30 3630 H 341.207 -1.17055 3.02438 0
M  V30 3631 H 340.992 0.370826 3.90343 0
M  V30 3632 H 342.482 -0.592175 4.1338 0
M  V30 3633 N 342.919 -1.39368 0.735821 0
M  V30 3634 C 344.335 -1.54204 0.411492 0
M  V30 3635 C 344.535 -1.70268 -1.07755 0
M  V30 3636 O 343.591 -1.70364 -1.86366 0
M  V30 3637 C 344.904 -2.75925 1.19523 0
M  V30 3638 C 346.452 -2.89761 1.18354 0
M  V30 3639 C 346.927 -4.14421 1.94986 0
M  V30 3640 N 348.418 -4.21462 1.92156 0
M  V30 3641 C 349.153 -5.16871 2.48258 0
M  V30 3642 N 348.649 -6.18063 3.13001 0
M  V30 3643 N 350.442 -5.09093 2.38287 0
M  V30 3644 H 342.593 -1.27189 1.70108 0
M  V30 3645 H 344.856 -0.616517 0.720147 0
M  V30 3646 H 344.562 -2.70401 2.24892 0
M  V30 3647 H 344.436 -3.68614 0.800222 0
M  V30 3648 H 346.823 -2.94777 0.137975 0
M  V30 3649 H 346.904 -1.98133 1.61793 0
M  V30 3650 H 346.548 -4.10166 2.99543 0
M  V30 3651 H 346.478 -5.05095 1.48953 0
M  V30 3652 H 348.969 -3.48979 1.44991 0
M  V30 3653 H 349.282 -6.87326 3.53275 0
M  V30 3654 H 347.627 -6.18448 3.17091 0
M  V30 3655 H 350.818 -4.28973 1.8735 0
M  V30 3656 H 350.991 -5.83272 2.82308 0
M  V30 3657 N 344.397 -0.483516 -1.5 0
M  V30 3658 C 345.344 0.304164 -2.28787 0
M  V30 3659 C 346.314 0.976114 -1.34392 0
M  V30 3660 O 347.499 0.986156 -1.63339 0
M  V30 3661 C 344.639 1.37298 -3.16612 0
M  V30 3662 C 343.752 0.714561 -4.26049 0
M  V30 3663 C 342.887 1.76232 -5.01114 0
M  V30 3664 C 341.926 1.08483 -6.0241 0
M  V30 3665 N 341.063 2.076 -6.70706 0
M  V30 3666 H 345.903 -0.373981 -2.95644 0
M  V30 3667 H 343.44 -0.196275 -1.45785 0
M  V30 3668 H 345.398 2.00445 -3.65893 0
M  V30 3669 H 344.028 2.02012 -2.51776 0
M  V30 3670 H 343.08 -0.0297798 -3.80388 0
M  V30 3671 H 344.392 0.180383 -4.98474 0
M  V30 3672 H 343.546 2.46929 -5.54176 0
M  V30 3673 H 342.285 2.33033 -4.28424 0
M  V30 3674 H 341.29 0.363545 -5.48597 0
M  V30 3675 H 342.515 0.523551 -6.77079 0
M  V30 3676 H 340.461 2.63394 -6.00799 0
M  V30 3677 H 340.378 1.59201 -7.39047 0
M  V30 3678 H 341.646 2.77639 -7.2838 0
M  V30 3679 N 345.875 1.56104 -0.216619 0
M  V30 3680 C 346.822 2.2007 0.695531 0
M  V30 3681 C 347.792 1.15471 1.19397 0
M  V30 3682 O 348.977 1.43807 1.25396 0
M  V30 3683 C 346.117 2.88073 1.90021 0
M  V30 3684 C 345.23 4.07253 1.44113 0
M  V30 3685 C 344.365 4.63052 2.603 0
M  V30 3686 C 343.404 5.74545 2.11103 0
M  V30 3687 N 342.541 6.24656 3.20545 0
M  V30 3688 H 347.381 2.97655 0.143327 0
M  V30 3689 H 344.918 1.46982 0.0589934 0
M  V30 3690 H 346.876 3.25681 2.60745 0
M  V30 3691 H 345.506 2.13015 2.42538 0
M  V30 3692 H 344.558 3.75164 0.628999 0
M  V30 3693 H 345.87 4.8783 1.04036 0
M  V30 3694 H 345.024 5.03078 3.39113 0
M  V30 3695 H 343.763 3.81628 3.03663 0
M  V30 3696 H 342.768 5.34027 1.3075 0
M  V30 3697 H 343.993 6.57801 1.68746 0
M  V30 3698 H 341.939 5.46148 3.63399 0
M  V30 3699 H 341.856 7.00343 2.84704 0
M  V30 3700 H 343.124 6.69338 3.99508 0
M  V30 3701 N 347.353 -0.0568162 1.57498 0
M  V30 3702 C 348.286 -1.09817 2.00039 0
M  V30 3703 C 349.264 -1.3674 0.879819 0
M  V30 3704 O 350.448 -1.49863 1.14338 0
M  V30 3705 C 347.575 -2.43924 2.34986 0
M  V30 3706 C 346.621 -2.33039 3.57204 0
M  V30 3707 S 347.454 -1.7102 5.07457 0
M  V30 3708 C 348.61 -3.06674 5.45621 0
M  V30 3709 H 348.843 -0.735701 2.88053 0
M  V30 3710 H 346.376 -0.265871 1.52094 0
M  V30 3711 H 348.334 -3.2106 2.55795 0
M  V30 3712 H 346.995 -2.77327 1.47474 0
M  V30 3713 H 346.188 -3.31973 3.79223 0
M  V30 3714 H 345.79 -1.64043 3.36104 0
M  V30 3715 H 348.082 -4.03 5.44608 0
M  V30 3716 H 349.025 -2.8942 6.46252 0
M  V30 3717 H 349.433 -3.07969 4.73091 0
M  V30 3718 N 348.832 -1.54138 -0.328536 0
M  V30 3719 C 350.079 -1.72105 -1.06706 0
M  V30 3720 C 350.407 -0.492111 -1.88171 0
M  V30 3721 O 349.662 0.526153 -1.88494 0
M  V30 3722 C 349.961 -2.9457 -2.02393 0
M  V30 3723 C 349.627 -4.29544 -1.37122 0
M  V30 3724 C 348.289 -4.6624 -1.19052 0
M  V30 3725 C 350.641 -5.1333 -0.902331 0
M  V30 3726 C 347.969 -5.84325 -0.527331 0
M  V30 3727 C 350.321 -6.32094 -0.252988 0
M  V30 3728 C 348.985 -6.67473 -0.0600901 0
M  V30 3729 H 348.255 -0.629775 -0.390466 0
M  V30 3730 H 350.902 -1.88372 -0.34473 0
M  V30 3731 H 349.207 -2.72969 -2.81061 0
M  V30 3732 H 350.904 -3.05665 -2.59557 0
M  V30 3733 H 347.494 -4.0067 -1.52188 0
M  V30 3734 H 351.678 -4.855 -1.02974 0
M  V30 3735 H 346.934 -6.103 -0.366634 0
M  V30 3736 H 351.108 -6.96299 0.118366 0
M  V30 3737 H 348.735 -7.58832 0.455828 0
M  V30 3738 N 350.31 0.590341 -1.46126 0
M  V30 3739 C 351.556 1.35082 -1.51264 0
M  V30 3740 C 351.889 1.93534 -0.160711 0
M  V30 3741 O 351.164 1.76045 0.826956 0
M  V30 3742 C 351.447 2.48588 -2.6053 0
M  V30 3743 C 351.3 1.95221 -4.05227 0
M  V30 3744 C 352.619 3.50662 -2.6594 0
M  V30 3745 H 349.738 0.489803 -0.550692 0
M  V30 3746 H 352.38 0.663887 -1.78024 0
M  V30 3747 H 350.53 3.07186 -2.37843 0
M  V30 3748 H 352.202 1.41139 -4.39178 0
M  V30 3749 H 350.445 1.26101 -4.15068 0
M  V30 3750 H 351.116 2.77121 -4.77397 0
M  V30 3751 H 353.592 3.01934 -2.86313 0
M  V30 3752 H 352.468 4.27551 -3.44226 0
M  V30 3753 H 352.729 4.07399 -1.71694 0
M  V30 3754 N 351.788 1.33704 0.83433 0
M  V30 3755 C 352.751 1.24244 1.92603 0
M  V30 3756 C 353.751 0.160383 1.59998 0
M  V30 3757 O 354.941 0.412228 1.69252 0
M  V30 3758 C 352.073 0.91555 3.28376 0
M  V30 3759 H 353.266 2.21287 2.02416 0
M  V30 3760 H 350.819 1.17827 1.02696 0
M  V30 3761 H 351.554 -0.0521886 3.24258 0
M  V30 3762 H 351.339 1.69811 3.53422 0
M  V30 3763 H 352.829 0.874231 4.08347 0
M  V30 3764 N 353.266 -1.05314 1.17247 0
M  V30 3765 C 354.491 -1.82509 0.985148 0
M  V30 3766 C 354.916 -1.82343 -0.461788 0
M  V30 3767 O 354.274 -1.23151 -1.33055 0
M  V30 3768 C 354.322 -3.26566 1.52929 0
M  V30 3769 O 353.426 -4.05666 0.742225 0
M  V30 3770 H 352.767 -0.564347 0.349869 0
M  V30 3771 H 355.297 -1.32718 1.55715 0
M  V30 3772 H 355.307 -3.77369 1.55103 0
M  V30 3773 H 353.982 -3.26001 2.58256 0
M  V30 3774 H 352.559 -3.64397 0.791794 0
M  V30 3775 N 354.744 -0.972509 -1.24016 0
M  V30 3776 C 355.984 -0.644951 -1.93958 0
M  V30 3777 C 356.348 0.80559 -1.74282 0
M  V30 3778 O 357.549 1.2436 -2.38302 0
M  V30 3779 C 355.82 -1.01521 -3.42678 0
M  V30 3780 S 357.379 -0.802927 -4.31391 0
M  V30 3781 H 354.197 -0.236452 -0.670531 0
M  V30 3782 H 356.799 -1.25048 -1.50277 0
M  V30 3783 H 355.503 -2.06769 -3.54506 0
M  V30 3784 H 355.034 -0.400648 -3.91355 0
M  V30 3785 H 357.049 0.317256 -4.95185 0
M  V30 3786 N 356.222 1.38976 -0.743202 0
M  V30 3787 C 357.152 2.33171 -0.123873 0
M  V30 3788 C 358.133 1.54336 0.71516 0
M  V30 3789 O 359.318 1.82696 0.658467 0
M  V30 3790 C 356.448 3.38474 0.777978 0
M  V30 3791 C 355.402 4.27979 0.0424758 0
M  V30 3792 C 354.728 5.2405 1.06189 0
M  V30 3793 C 356.028 5.10155 -1.1198 0
M  V30 3794 H 357.722 2.85213 -0.910709 0
M  V30 3795 H 355.268 1.37133 -0.439388 0
M  V30 3796 H 357.221 4.03328 1.22084 0
M  V30 3797 H 355.945 2.84891 1.59702 0
M  V30 3798 H 354.604 3.64616 -0.380853 0
M  V30 3799 H 354.252 4.66758 1.87472 0
M  V30 3800 H 353.952 5.84785 0.574485 0
M  V30 3801 H 355.476 5.9178 1.50428 0
M  V30 3802 H 356.89 5.68307 -0.75499 0
M  V30 3803 H 355.287 5.80073 -1.53738 0
M  V30 3804 H 356.357 4.44504 -1.93764 0
M  V30 3805 N 357.7 0.491464 1.49741 0
M  V30 3806 C 358.663 -0.280906 2.27472 0
M  V30 3807 C 359.663 -0.902454 1.33088 0
M  V30 3808 O 360.853 -0.768465 1.56334 0
M  V30 3809 C 357.985 -1.40209 3.10732 0
M  V30 3810 H 359.178 0.401056 2.97206 0
M  V30 3811 H 356.731 0.246131 1.5435 0
M  V30 3812 H 357.466 -2.11849 2.45541 0
M  V30 3813 H 357.251 -0.961969 3.80117 0
M  V30 3814 H 358.741 -1.9464 3.69466 0
M  V30 3815 N 359.178 -1.55987 0.224894 0
M  V30 3816 C 360.426 -1.97998 -0.405099 0
M  V30 3817 C 360.747 -1.11387 -1.60056 0
M  V30 3818 O 360.017 -0.191645 -1.9496 0
M  V30 3819 H 358.597 -0.731235 -0.152658 0
M  V30 3820 H 361.259 -1.92279 0.318567 0
M  V30 3821 H 360.355 -3.03463 -0.729167 0
M  V30 3822 N 360.656 0.0484629 -1.57525 0
M  V30 3823 C 361.589 1.08755 -2.00618 0
M  V30 3824 C 362.567 1.36272 -0.887058 0
M  V30 3825 O 363.751 1.49255 -1.15131 0
M  V30 3826 C 360.878 2.42675 -2.36277 0
M  V30 3827 C 359.924 2.31142 -3.58435 0
M  V30 3828 S 360.757 1.68326 -5.08357 0
M  V30 3829 C 361.913 3.03776 -5.47239 0
M  V30 3830 H 362.146 0.720415 -2.88439 0
M  V30 3831 H 359.679 0.257801 -1.52233 0
M  V30 3832 H 361.637 3.19699 -2.57494 0
M  V30 3833 H 360.298 2.76541 -1.48942 0
M  V30 3834 H 359.491 3.29957 -3.80978 0
M  V30 3835 H 359.093 1.62258 -3.36969 0
M  V30 3836 H 361.385 4.00106 -5.46737 0
M  V30 3837 H 362.328 2.85988 -6.47778 0
M  V30 3838 H 362.736 3.05456 -4.74718 0
M  V30 3839 N 362.134 1.5431 0.320358 0
M  V30 3840 C 363.38 1.72924 1.05949 0
M  V30 3841 C 363.713 0.503185 1.87568 0
M  V30 3842 O 362.988 -0.499839 1.87968 0
M  V30 3843 C 363.271 3.00676 1.98156 0
M  V30 3844 C 363.124 4.3354 1.19845 0
M  V30 3845 C 364.443 3.24198 2.9763 0
M  V30 3846 H 361.562 0.629195 0.383774 0
M  V30 3847 H 364.204 1.87008 0.335854 0
M  V30 3848 H 362.354 2.888 2.59859 0
M  V30 3849 H 364.026 4.57305 0.605773 0
M  V30 3850 H 362.269 4.309 0.500784 0
M  V30 3851 H 362.94 5.19156 1.87567 0
M  V30 3852 H 365.416 3.35557 2.4605 0
M  V30 3853 H 364.292 4.14938 3.59329 0
M  V30 3854 H 364.553 2.41577 3.7026 0
M  V30 3855 N 363.613 -0.582584 1.46437 0
M  V30 3856 C 364.862 -1.337 1.5102 0
M  V30 3857 C 365.175 -1.94891 0.166359 0
M  V30 3858 O 366.381 -2.71351 0.0899954 0
M  V30 3859 C 364.837 -2.42315 2.66104 0
M  V30 3860 C 364.445 -1.87427 4.06909 0
M  V30 3861 C 366.189 -3.19099 2.79958 0
M  V30 3862 C 364.096 -2.93672 5.13333 0
M  V30 3863 H 363.026 -0.502619 0.562041 0
M  V30 3864 H 365.677 -0.621701 1.72647 0
M  V30 3865 H 364.059 -3.16645 2.37807 0
M  V30 3866 H 365.233 -1.19639 4.44998 0
M  V30 3867 H 363.548 -1.2331 3.97723 0
M  V30 3868 H 366.145 -3.9839 3.56636 0
M  V30 3869 H 366.488 -3.71695 1.87479 0
M  V30 3870 H 367.021 -2.51875 3.07902 0
M  V30 3871 H 363.76 -2.45962 6.07604 0
M  V30 3872 H 363.28 -3.59948 4.79789 0
M  V30 3873 H 364.959 -3.5762 5.39182 0
M  V30 3874 N 365.091 -1.34144 -0.827227 0
M  V30 3875 C 366.054 -1.25264 -1.91942 0
M  V30 3876 C 367.054 -0.168866 -1.59911 0
M  V30 3877 O 368.244 -0.421198 -1.69031 0
M  V30 3878 C 365.376 -0.932952 -3.27885 0
M  V30 3879 H 366.569 -2.22357 -2.0124 0
M  V30 3880 H 364.122 -1.1837 -1.0207 0
M  V30 3881 H 364.857 0.0349917 -3.24281 0
M  V30 3882 H 364.642 -1.71682 -3.52516 0
M  V30 3883 H 366.132 -0.895874 -4.07877 0
M  V30 3884 N 366.569 1.04691 -1.17803 0
M  V30 3885 C 367.501 2.12571 -0.857097 0
M  V30 3886 C 368.514 1.62174 0.142647 0
M  V30 3887 O 369.703 1.78301 -0.0843387 0
M  V30 3888 C 366.803 3.37915 -0.258216 0
M  V30 3889 C 365.976 4.1757 -1.30207 0
M  V30 3890 C 365.035 5.2125 -0.720029 0
M  V30 3891 O 364.061 5.51888 -1.39314 0
M  V30 3892 N 365.263 5.78466 0.485507 0
M  V30 3893 H 368.028 2.40698 -1.78562 0
M  V30 3894 H 365.589 1.20831 -1.07757 0
M  V30 3895 H 367.581 4.04442 0.144584 0
M  V30 3896 H 366.151 3.07281 0.574199 0
M  V30 3897 H 365.371 3.46458 -1.88043 0
M  V30 3898 H 366.659 4.67586 -2.00601 0
M  V30 3899 H 366.057 5.55866 1.05022 0
M  V30 3900 H 364.614 6.4649 0.830307 0
M  V30 3901 N 368.047 0.979072 1.23499 0
M  V30 3902 C 369.275 0.665202 1.95915 0
M  V30 3903 C 369.69 -0.767571 1.72493 0
M  V30 3904 O 369.047 -1.51635 1.01554 0
M  V30 3905 C 369.098 0.944438 3.48945 0
M  V30 3906 O 368.819 2.3209 3.71572 0
M  V30 3907 C 370.32 0.646336 4.38563 0
M  V30 3908 H 367.54 0.247218 0.623798 0
M  V30 3909 H 370.084 1.31009 1.57025 0
M  V30 3910 H 368.239 0.345575 3.85856 0
M  V30 3911 H 368.653 2.40957 4.65876 0
M  V30 3912 H 370.127 0.892091 5.44744 0
M  V30 3913 H 370.604 -0.419575 4.37191 0
M  V30 3914 H 371.21 1.22562 4.07258 0
M  V30 3915 N 369.525 -1.3858 0.750561 0
M  V30 3916 C 370.773 -1.99789 0.30477 0
M  V30 3917 C 371.094 -1.59874 -1.11649 0
M  V30 3918 O 370.364 -0.85417 -1.76297 0
M  V30 3919 H 368.944 -0.738902 0.109694 0
M  V30 3920 H 371.606 -1.69391 0.963983 0
M  V30 3921 H 370.702 -3.09952 0.365499 0
M  V30 3922 N 371.003 -0.499398 -1.49478 0
M  V30 3923 C 372.231 0.0425456 -2.06856 0
M  V30 3924 C 372.646 1.30964 -1.35992 0
M  V30 3925 O 372.003 1.77172 -0.437762 0
M  V30 3926 C 372.054 0.301735 -3.60239 0
M  V30 3927 O 371.775 -0.915127 -4.28436 0
M  V30 3928 C 373.276 0.887499 -4.34325 0
M  V30 3929 H 370.496 -0.0197482 -0.670709 0
M  V30 3930 H 373.04 -0.696297 -1.92281 0
M  V30 3931 H 371.195 0.990556 -3.74522 0
M  V30 3932 H 371.609 -0.676993 -5.20113 0
M  V30 3933 H 373.083 1.01845 -5.42523 0
M  V30 3934 H 373.56 1.88488 -3.96698 0
M  V30 3935 H 374.166 0.236196 -4.24644 0
M  V30 3936 N 372.481 1.55866 -0.233164 0
M  V30 3937 C 373.709 2.02998 0.399905 0
M  V30 3938 C 374.124 1.11274 1.52524 0
M  V30 3939 O 373.481 0.124528 1.82075 0
M  V30 3940 C 373.532 3.4958 0.920639 0
M  V30 3941 O 373.253 4.37808 -0.159834 0
M  V30 3942 C 374.754 4.12411 1.62578 0
M  V30 3943 H 371.974 0.664006 0.0966281 0
M  V30 3944 H 374.518 2.0143 -0.353013 0
M  V30 3945 H 372.673 3.51727 1.62379 0
M  V30 3946 H 373.087 5.23981 0.23337 0
M  V30 3947 H 374.561 5.16711 1.94201 0
M  V30 3948 H 375.038 3.5809 2.54299 0
M  V30 3949 H 375.644 4.14148 0.967553 0
M  V30 3950 N 373.959 -0.0401083 1.57549 0
M  V30 3951 C 374.889 -1.04384 2.08869 0
M  V30 3952 C 375.87 -1.38407 0.988817 0
M  V30 3953 O 377.055 -1.47483 1.26342 0
M  V30 3954 C 374.185 -2.34808 2.55895 0
M  V30 3955 C 373.139 -2.15057 3.70047 0
M  V30 3956 C 372.465 -3.51145 4.03239 0
M  V30 3957 C 373.765 -1.54576 4.98902 0
M  V30 3958 H 375.459 -0.616666 2.92981 0
M  V30 3959 H 373.005 -0.295184 1.40942 0
M  V30 3960 H 374.958 -3.05346 2.90417 0
M  V30 3961 H 373.682 -2.79565 1.68853 0
M  V30 3962 H 372.341 -1.46954 3.35857 0
M  V30 3963 H 371.989 -3.93529 3.13279 0
M  V30 3964 H 371.689 -3.38758 4.80122 0
M  V30 3965 H 373.213 -4.23062 4.40285 0
M  V30 3966 H 374.627 -2.15017 5.31451 0
M  V30 3967 H 373.024 -1.52796 5.80322 0
M  V30 3968 H 374.094 -0.51039 4.82206 0
M  V30 3969 N 375.437 -1.54477 -0.31217 0
M  V30 3970 C 376.4 -1.83923 -1.36766 0
M  V30 3971 C 377.4 -0.711563 -1.44199 0
M  V30 3972 O 378.59 -0.979866 -1.44029 0
M  V30 3973 C 375.722 -2.0095 -2.75376 0
M  V30 3974 H 376.915 -2.78239 -1.11906 0
M  V30 3975 H 374.468 -1.46369 -0.548257 0
M  V30 3976 H 375.203 -1.08883 -3.05475 0
M  V30 3977 H 374.988 -2.83018 -2.71373 0
M  V30 3978 H 376.478 -2.2514 -3.51713 0
M  V30 3979 N 376.915 0.57481 -1.46744 0
M  V30 3980 C 377.865 1.67838 -1.54319 0
M  V30 3981 C 378.849 1.55759 -0.40346 0
M  V30 3982 O 380.041 1.6454 -0.652347 0
M  V30 3983 C 377.17 3.06624 -1.5439 0
M  V30 3984 C 376.256 3.23971 -2.73685 0
M  V30 3985 N 376.647 3.11447 -3.9854 0
M  V30 3986 C 374.945 3.5493 -2.70075 0
M  V30 3987 C 375.646 3.31011 -4.78337 0
M  V30 3988 N 374.622 3.56533 -4.10348 0
M  V30 3989 H 378.424 1.56698 -2.48642 0
M  V30 3990 H 375.938 0.779071 -1.42493 0
M  V30 3991 H 377.935 3.85839 -1.57905 0
M  V30 3992 H 376.595 3.1889 -0.611493 0
M  V30 3993 H 377.606 2.89145 -4.29669 0
M  V30 3994 H 374.283 3.73832 -1.85893 0
M  V30 3995 H 375.673 3.26445 -5.87268 0
M  V30 3996 N 378.394 1.34581 0.820102 0
M  V30 3997 C 379.357 1.2628 1.91275 0
M  V30 3998 C 380.357 0.177344 1.59819 0
M  V30 3999 O 381.547 0.430156 1.68806 0
M  V30 4000 C 378.679 0.950327 3.27386 0
M  V30 4001 H 379.872 2.23421 2.00057 0
M  V30 4002 H 377.425 1.1891 1.0144 0
M  V30 4003 H 378.16 -0.0177938 3.24295 0
M  V30 4004 H 377.945 1.73549 3.51601 0
M  V30 4005 H 379.435 0.917492 4.07396 0
M  V30 4006 N 379.872 -1.04064 1.18357 0
M  V30 4007 C 380.802 -2.14001 0.934113 0
M  V30 4008 C 381.783 -1.69616 -0.128186 0
M  V30 4009 O 382.968 -1.94185 0.0244093 0
M  V30 4010 C 380.098 -3.44253 0.459066 0
M  V30 4011 C 379.052 -4.02261 1.46185 0
M  V30 4012 C 378.378 -5.27992 0.844322 0
M  V30 4013 C 379.678 -4.38432 2.83856 0
M  V30 4014 H 381.372 -2.35127 1.85352 0
M  V30 4015 H 378.918 -1.12998 0.892604 0
M  V30 4016 H 380.871 -4.20522 0.271907 0
M  V30 4017 H 379.595 -3.22813 -0.495912 0
M  V30 4018 H 378.254 -3.28074 1.63595 0
M  V30 4019 H 377.902 -5.02862 -0.117845 0
M  V30 4020 H 377.602 -5.67765 1.51384 0
M  V30 4021 H 379.126 -6.06938 0.667693 0
M  V30 4022 H 380.54 -5.05688 2.70098 0
M  V30 4023 H 378.937 -4.89254 3.47491 0
M  V30 4024 H 380.007 -3.4826 3.37406 0
M  V30 4025 N 381.35 -0.985608 -1.22978 0
M  V30 4026 C 382.598 -0.656087 -1.91154 0
M  V30 4027 C 382.919 0.813561 -1.77218 0
M  V30 4028 O 382.189 1.58244 -1.1548 0
M  V30 4029 H 380.769 -0.239674 -0.707506 0
M  V30 4030 H 383.431 -1.25054 -1.49491 0
M  V30 4031 H 382.527 -0.912253 -2.9847 0
M  V30 4032 N 382.828 1.3818 -0.7579 0
M  V30 4033 C 384.058 2.04004 -0.326463 0
M  V30 4034 C 384.466 1.57286 1.05156 0
M  V30 4035 O 383.809 0.743144 1.67997 0
M  V30 4036 C 383.871 3.58444 -0.275402 0
M  V30 4037 C 383.535 4.28237 -1.59569 0
M  V30 4038 C 384.532 4.53312 -2.54566 0
M  V30 4039 C 382.217 4.66341 -1.86631 0
M  V30 4040 C 384.211 5.15531 -3.74842 0
M  V30 4041 C 381.898 5.28283 -3.0718 0
M  V30 4042 C 382.896 5.52814 -4.01106 0
M  V30 4043 O 382.584 6.13465 -5.19534 0
M  V30 4044 H 382.316 0.662026 -0.136739 0
M  V30 4045 H 384.87 1.7777 -1.02893 0
M  V30 4046 H 383.1 3.83667 0.483337 0
M  V30 4047 H 384.789 4.05701 0.127099 0
M  V30 4048 H 385.555 4.24299 -2.34936 0
M  V30 4049 H 381.434 4.46591 -1.14358 0
M  V30 4050 H 384.978 5.34594 -4.48168 0
M  V30 4051 H 380.875 5.56719 -3.26702 0
M  V30 4052 H 381.643 6.31951 -5.20173 0
M  V30 4053 N 384.306 0.507319 1.49211 0
M  V30 4054 C 385.717 0.0611118 1.866 0
M  V30 4055 C 386.068 -1.35488 1.41907 0
M  V30 4056 O 385.193 -2.0108 0.799726 0
M  V30 4057 C 385.788 0.104125 3.3864 0
M  V30 4058 C 384.347 -0.28677 3.75306 0
M  V30 4059 C 383.494 0.473893 2.73221 0
M  V30 4060 H 386.445 0.719775 1.41439 0
M  V30 4061 H 386.466 -0.689672 3.74198 0
M  V30 4062 H 385.978 1.13482 3.71138 0
M  V30 4063 H 384.079 -1.32046 3.48417 0
M  V30 4064 H 384.192 0.0370745 4.79086 0
M  V30 4065 H 382.556 -0.0770644 2.54583 0
M  V30 4066 H 383.339 1.50478 3.08563 0
M  V30 4067 N 385.784 -1.5574 0.241426 0
M  V30 4068 C 386.714 -2.24133 -0.654722 0
M  V30 4069 C 387.695 -1.21974 -1.1856 0
M  V30 4070 O 388.88 -1.50612 -1.22595 0
M  V30 4071 C 386.01 -2.93659 -1.85423 0
M  V30 4072 C 384.964 -4.0246 -1.45636 0
M  V30 4073 C 384.29 -4.59383 -2.73626 0
M  V30 4074 C 385.59 -5.18468 -0.631506 0
M  V30 4075 H 387.284 -2.99281 -0.0844353 0
M  V30 4076 H 384.83 -1.43947 -0.0391707 0
M  V30 4077 H 386.783 -3.40203 -2.48676 0
M  V30 4078 H 385.507 -2.15991 -2.44981 0
M  V30 4079 H 384.166 -3.56676 -0.847202 0
M  V30 4080 H 383.814 -3.78422 -3.3137 0
M  V30 4081 H 383.514 -5.32826 -2.4773 0
M  V30 4082 H 385.038 -5.08658 -3.37786 0
M  V30 4083 H 386.452 -5.61272 -1.1682 0
M  V30 4084 H 384.849 -5.98266 -0.468831 0
M  V30 4085 H 385.919 -4.8358 0.357506 0
M  V30 4086 N 387.262 0.0317525 -1.57568 0
M  V30 4087 C 388.49 0.734949 -1.93407 0
M  V30 4088 C 388.905 1.69036 -0.84096 0
M  V30 4089 O 388.262 1.81582 0.182836 0
M  V30 4090 C 388.313 1.49432 -3.29169 0
M  V30 4091 O 388.034 0.577261 -4.3428 0
M  V30 4092 C 389.535 2.29492 -3.79273 0
M  V30 4093 H 386.755 0.206706 -0.638368 0
M  V30 4094 H 389.299 -0.00992046 -2.04498 0
M  V30 4095 H 387.454 2.1911 -3.19483 0
M  V30 4096 H 387.868 1.10952 -5.1263 0
M  V30 4097 H 389.342 2.78172 -4.76785 0
M  V30 4098 H 389.819 3.10794 -3.10328 0
M  V30 4099 H 390.425 1.64894 -3.92033 0
M  V30 4100 N 388.74 1.54641 0.303973 0
M  V30 4101 C 389.968 1.77768 1.05858 0
M  V30 4102 C 390.383 0.535722 1.8104 0
M  V30 4103 O 389.74 -0.494337 1.75677 0
M  V30 4104 C 389.791 2.9834 2.04146 0
M  V30 4105 O 389.512 4.17736 1.32015 0
M  V30 4106 C 391.013 3.33832 2.91669 0
M  V30 4107 H 388.233 0.592961 0.314067 0
M  V30 4108 H 390.777 2.01583 0.344149 0
M  V30 4109 H 388.932 2.76742 2.71096 0
M  V30 4110 H 389.346 4.85693 1.97998 0
M  V30 4111 H 390.82 4.21448 3.56491 0
M  V30 4112 H 391.297 2.51857 3.59812 0
M  V30 4113 H 391.903 3.57579 2.30254 0
M  V30 4114 N 390.218 -0.567019 1.47046 0
M  V30 4115 C 391.128 -1.70247 1.6141 0
M  V30 4116 C 392.144 -1.66746 0.497157 0
M  V30 4117 O 393.32 -1.86371 0.763389 0
M  V30 4118 C 390.385 -3.06756 1.61561 0
M  V30 4119 C 389.446 -3.21399 2.84607 0
M  V30 4120 C 388.679 -4.51396 2.84741 0
M  V30 4121 O 388.902 -5.36255 1.94388 0
M  V30 4122 O 387.836 -4.69621 3.76483 0
M  V30 4123 H 391.662 -1.61073 2.57467 0
M  V30 4124 H 389.247 -0.735894 1.30019 0
M  V30 4125 H 391.129 -3.8801 1.64396 0
M  V30 4126 H 389.804 -3.16333 0.686684 0
M  V30 4127 H 388.711 -2.39579 2.8732 0
M  V30 4128 H 390.044 -3.16721 3.76761 0
M  V30 4129 N 391.696 -1.35014 -0.812953 0
M  V30 4130 C 392.643 -1.27412 -1.92444 0
M  V30 4131 C 393.613 -0.14733 -1.65445 0
M  V30 4132 O 394.798 -0.329974 -1.87925 0
M  V30 4133 C 391.938 -1.04558 -3.28879 0
M  V30 4134 C 391.051 -2.26101 -3.68106 0
M  V30 4135 C 390.186 -1.96449 -4.9354 0
M  V30 4136 C 389.225 -3.14081 -5.25376 0
M  V30 4137 N 388.362 -2.84246 -6.41988 0
M  V30 4138 H 393.202 -2.22463 -1.98278 0
M  V30 4139 H 390.739 -1.10593 -0.969933 0
M  V30 4140 H 392.697 -0.893413 -4.07522 0
M  V30 4141 H 391.327 -0.131719 -3.22531 0
M  V30 4142 H 390.379 -2.52204 -2.84775 0
M  V30 4143 H 391.691 -3.13959 -3.87597 0
M  V30 4144 H 390.845 -1.78026 -5.79993 0
M  V30 4145 H 389.584 -1.05867 -4.76071 0
M  V30 4146 H 388.589 -3.33089 -4.37415 0
M  V30 4147 H 389.814 -4.05455 -5.44778 0
M  V30 4148 H 387.76 -1.96252 -6.25956 0
M  V30 4149 H 387.677 -3.65637 -6.61699 0
M  V30 4150 H 388.945 -2.6935 -7.31485 0
M  V30 4151 N 393.175 1.03435 -1.18907 0
M  V30 4152 C 394.423 1.76394 -0.986382 0
M  V30 4153 C 394.744 1.88883 0.484567 0
M  V30 4154 O 394.014 1.41843 1.3512 0
M  V30 4155 H 392.594 0.65344 -0.361975 0
M  V30 4156 H 395.256 1.248 -1.49703 0
M  V30 4157 H 394.352 2.77424 -1.42978 0
M  V30 4158 N 394.653 0.992116 1.22453 0
M  V30 4159 C 395.902 0.662992 1.90492 0
M  V30 4160 C 396.215 -0.808407 1.78113 0
M  V30 4161 O 397.421 -1.24908 2.41061 0
M  V30 4162 C 395.877 1.1353 3.41524 0
M  V30 4163 C 395.485 2.63187 3.62542 0
M  V30 4164 C 397.229 0.880465 4.15269 0
M  V30 4165 C 395.136 3.04024 5.0727 0
M  V30 4166 H 394.066 0.244278 0.713333 0
M  V30 4167 H 396.717 1.20157 1.38688 0
M  V30 4168 H 395.099 0.52485 3.92506 0
M  V30 4169 H 396.273 3.2957 3.22056 0
M  V30 4170 H 394.588 2.86543 3.02129 0
M  V30 4171 H 397.185 1.16128 5.21937 0
M  V30 4172 H 397.528 -0.183408 4.15896 0
M  V30 4173 H 398.061 1.45307 3.70312 0
M  V30 4174 H 394.8 4.09584 5.11782 0
M  V30 4175 H 394.32 2.42343 5.48662 0
M  V30 4176 H 395.999 2.95282 5.75689 0
M  V30 4177 N 396.131 -1.37776 0.765217 0
M  V30 4178 C 397.078 -2.30342 0.145274 0
M  V30 4179 C 398.048 -1.5077 -0.696971 0
M  V30 4180 O 399.233 -1.79362 -0.650689 0
M  V30 4181 C 396.373 -3.37227 -0.732939 0
M  V30 4182 C 395.486 -4.31819 0.125199 0
M  V30 4183 C 394.621 -5.25777 -0.757107 0
M  V30 4184 C 393.66 -6.12012 0.103963 0
M  V30 4185 N 392.797 -6.98232 -0.735953 0
M  V30 4186 H 397.637 -2.8278 0.940195 0
M  V30 4187 H 395.174 -1.39211 0.475255 0
M  V30 4188 H 397.132 -3.97818 -1.25686 0
M  V30 4189 H 395.762 -2.86171 -1.49353 0
M  V30 4190 H 394.814 -3.7259 0.766865 0
M  V30 4191 H 396.126 -4.92509 0.789683 0
M  V30 4192 H 395.28 -5.91541 -1.34776 0
M  V30 4193 H 394.019 -4.65481 -1.45529 0
M  V30 4194 H 393.024 -5.45233 0.707197 0
M  V30 4195 H 394.249 -6.74379 0.799381 0
M  V30 4196 H 392.195 -6.40472 -1.41887 0
M  V30 4197 H 392.112 -7.55891 -0.128624 0
M  V30 4198 H 393.38 -7.68393 -1.31121 0
M  V30 4199 N 397.609 -0.515225 -1.4894 0
M  V30 4200 C 398.559 0.275113 -2.26334 0
M  V30 4201 C 399.543 0.923007 -1.31793 0
M  V30 4202 O 400.735 0.828254 -1.56426 0
M  V30 4203 C 397.864 1.33041 -3.16473 0
M  V30 4204 C 396.95 0.688051 -4.18481 0
M  V30 4205 N 397.341 -0.217638 -5.05332 0
M  V30 4206 C 395.639 0.94699 -4.3583 0
M  V30 4207 C 396.34 -0.58676 -5.78733 0
M  V30 4208 N 395.316 0.0486966 -5.43578 0
M  V30 4209 H 399.118 -0.421876 -2.90856 0
M  V30 4210 H 396.632 -0.332249 -1.58965 0
M  V30 4211 H 398.629 1.9102 -3.70563 0
M  V30 4212 H 397.289 2.02894 -2.53504 0
M  V30 4213 H 398.3 -0.589343 -5.14536 0
M  V30 4214 H 394.977 1.63719 -3.8406 0
M  V30 4215 H 396.367 -1.32855 -6.58634 0
M  V30 4216 N 399.087 1.5561 -0.249682 0
M  V30 4217 C 400.335 1.98618 0.373548 0
M  V30 4218 C 400.656 1.13919 1.58264 0
M  V30 4219 O 399.926 0.222637 1.94631 0
M  V30 4220 H 398.506 0.733571 0.141006 0
M  V30 4221 H 401.168 1.91748 -0.349117 0
M  V30 4222 H 400.264 3.04584 0.680796 0
M  V30 4223 N 400.565 -0.0233959 1.57583 0
M  V30 4224 C 401.512 -1.02224 2.06927 0
M  V30 4225 C 402.482 -1.35575 0.959617 0
M  V30 4226 O 403.667 -1.45815 1.23055 0
M  V30 4227 C 400.807 -2.31636 2.5581 0
M  V30 4228 C 399.92 -2.04394 3.80588 0
M  V30 4229 C 399.055 -3.27717 4.18061 0
M  V30 4230 C 398.094 -2.96056 5.3574 0
M  V30 4231 N 397.231 -4.11847 5.68618 0
M  V30 4232 H 402.071 -0.594504 2.9201 0
M  V30 4233 H 399.608 -0.281921 1.44373 0
M  V30 4234 H 401.566 -3.07258 2.82221 0
M  V30 4235 H 400.196 -2.72122 1.73636 0
M  V30 4236 H 399.248 -1.19244 3.61227 0
M  V30 4237 H 400.56 -1.77042 4.66323 0
M  V30 4238 H 399.714 -4.11702 4.4563 0
M  V30 4239 H 398.453 -3.58188 3.30988 0
M  V30 4240 H 397.458 -2.10474 5.07918 0
M  V30 4241 H 398.683 -2.66857 6.24471 0
M  V30 4242 H 396.629 -4.42258 4.84504 0
M  V30 4243 H 396.546 -3.87938 6.48876 0
M  V30 4244 H 397.814 -4.96689 6.00766 0
M  V30 4245 N 402.043 -1.548 -0.295768 0
M  V30 4246 C 403.006 -1.85363 -1.34808 0
M  V30 4247 C 404.006 -0.726817 -1.43436 0
M  V30 4248 O 405.196 -0.995088 -1.42981 0
M  V30 4249 C 402.328 -2.03859 -2.73229 0
M  V30 4250 H 403.521 -2.7941 -1.08949 0
M  V30 4251 H 401.074 -1.46942 -0.532702 0
M  V30 4252 H 401.809 -1.12117 -3.04303 0
M  V30 4253 H 401.594 -2.8588 -2.68356 0
M  V30 4254 H 403.084 -2.28857 -3.49305 0
M  V30 4255 N 403.521 0.559213 -1.47345 0
M  V30 4256 C 404.749 1.34194 -1.57479 0
M  V30 4257 C 405.164 1.87463 -0.224261 0
M  V30 4258 O 404.521 1.64888 0.782185 0
M  V30 4259 C 404.572 2.51324 -2.59843 0
M  V30 4260 O 404.293 2.00256 -3.89653 0
M  V30 4261 C 405.794 3.43563 -2.80142 0
M  V30 4262 H 403.014 0.409136 -0.531835 0
M  V30 4263 H 405.558 0.677609 -1.92947 0
M  V30 4264 H 403.713 3.13699 -2.27314 0
M  V30 4265 H 404.127 2.76708 -4.4557 0
M  V30 4266 H 405.601 4.2217 -3.55635 0
M  V30 4267 H 406.078 3.9698 -1.87892 0
M  V30 4268 H 406.684 2.87005 -3.1386 0
M  V30 4269 N 404.999 1.35443 0.805782 0
M  V30 4270 C 406.247 1.28507 1.55982 0
M  V30 4271 C 406.568 -0.140046 1.94496 0
M  V30 4272 O 405.838 -1.07666 1.63661 0
M  V30 4273 H 404.418 0.472676 0.578434 0
M  V30 4274 H 407.08 1.69555 0.961098 0
M  V30 4275 H 406.176 1.90148 2.47488 0
M  V30 4276 N 406.477 -1.02803 1.19454 0
M  V30 4277 C 407.41 -2.107 0.876396 0
M  V30 4278 C 408.388 -1.61741 -0.166897 0
M  V30 4279 O 409.572 -1.88451 -0.0430195 0
M  V30 4280 C 406.699 -3.37262 0.311758 0
M  V30 4281 C 405.745 -4.05093 1.33424 0
M  V30 4282 S 406.578 -4.50498 2.89503 0
M  V30 4283 C 407.734 -5.80277 2.34584 0
M  V30 4284 H 407.967 -2.37362 1.79016 0
M  V30 4285 H 405.5 -1.15755 1.02177 0
M  V30 4286 H 407.458 -4.10499 -0.00748752 0
M  V30 4287 H 406.119 -3.08693 -0.58032 0
M  V30 4288 H 405.312 -4.9611 0.888302 0
M  V30 4289 H 404.914 -3.3803 1.60037 0
M  V30 4290 H 407.206 -6.54873 1.73633 0
M  V30 4291 H 408.149 -6.29651 3.23952 0
M  V30 4292 H 408.557 -5.3599 1.77131 0
M  V30 4293 N 407.956 -0.998596 -1.21925 0
M  V30 4294 C 409.202 -0.678667 -1.91107 0
M  V30 4295 C 409.535 0.78791 -1.77498 0
M  V30 4296 O 408.81 1.57043 -1.1475 0
M  V30 4297 C 409.093 -1.09245 -3.43129 0
M  V30 4298 C 408.946 -2.61801 -3.6576 0
M  V30 4299 C 410.265 -0.649984 -4.35274 0
M  V30 4300 H 407.384 -0.248025 -0.694012 0
M  V30 4301 H 410.026 -1.24314 -1.43688 0
M  V30 4302 H 408.176 -0.612171 -3.83647 0
M  V30 4303 H 409.848 -3.17543 -3.34611 0
M  V30 4304 H 408.091 -3.03609 -3.09845 0
M  V30 4305 H 408.762 -2.85804 -4.7225 0
M  V30 4306 H 411.238 -1.0626 -4.02303 0
M  V30 4307 H 410.114 -0.967743 -5.40302 0
M  V30 4308 H 410.375 0.449139 -4.39813 0
M  V30 4309 N 409.434 1.37368 -0.772513 0
M  V30 4310 C 410.364 2.32856 -0.173304 0
M  V30 4311 C 411.345 1.55818 0.682262 0
M  V30 4312 O 412.53 1.84052 0.619566 0
M  V30 4313 C 409.66 3.40048 0.706007 0
M  V30 4314 C 408.614 4.27973 -0.0483144 0
M  V30 4315 C 407.94 5.26184 0.950491 0
M  V30 4316 C 409.24 5.07665 -1.22776 0
M  V30 4317 H 410.934 2.83217 -0.971002 0
M  V30 4318 H 408.48 1.3617 -0.468377 0
M  V30 4319 H 410.433 4.05827 1.13501 0
M  V30 4320 H 409.157 2.88214 1.53623 0
M  V30 4321 H 407.816 3.63726 -0.458107 0
M  V30 4322 H 407.464 4.7063 1.77529 0
M  V30 4323 H 407.164 5.85872 0.450314 0
M  V30 4324 H 408.688 5.94838 1.37842 0
M  V30 4325 H 410.102 5.66578 -0.875366 0
M  V30 4326 H 408.499 5.76681 -1.66007 0
M  V30 4327 H 409.569 4.40294 -2.03149 0
M  V30 4328 N 410.912 0.523116 1.48665 0
M  V30 4329 C 412.323 0.0808997 1.86525 0
M  V30 4330 C 412.674 -1.33975 1.43336 0
M  V30 4331 O 411.799 -2.00221 0.821009 0
M  V30 4332 C 412.394 0.140037 3.3851 0
M  V30 4333 C 410.953 -0.246948 3.75589 0
M  V30 4334 C 410.1 0.502845 2.72703 0
M  V30 4335 H 413.051 0.734736 1.40667 0
M  V30 4336 H 413.072 -0.649945 3.74908 0
M  V30 4337 H 412.584 1.17412 3.69914 0
M  V30 4338 H 410.685 -1.28343 3.49798 0
M  V30 4339 H 410.798 0.0878859 4.79019 0
M  V30 4340 H 409.162 -0.0500581 2.54651 0
M  V30 4341 H 409.945 1.53743 3.0695 0
M  V30 4342 N 412.39 -1.55475 0.257931 0
M  V30 4343 C 413.637 -1.99207 -0.363728 0
M  V30 4344 C 413.965 -1.1462 -1.57139 0
M  V30 4345 O 413.22 -0.199653 -1.94679 0
M  V30 4346 C 413.519 -3.48183 -0.806433 0
M  V30 4347 C 413.185 -4.49936 0.294684 0
M  V30 4348 C 411.847 -4.77481 0.597076 0
M  V30 4349 C 414.199 -5.10769 1.03751 0
M  V30 4350 C 411.527 -5.63132 1.64618 0
M  V30 4351 C 413.879 -5.97558 2.07622 0
M  V30 4352 C 412.543 -6.23432 2.38514 0
M  V30 4353 H 411.813 -0.728949 -0.133097 0
M  V30 4354 H 414.46 -1.8793 0.368059 0
M  V30 4355 H 412.765 -3.56848 -1.61761 0
M  V30 4356 H 414.462 -3.79415 -1.29789 0
M  V30 4357 H 411.052 -4.28572 0.0488649 0
M  V30 4358 H 415.236 -4.89527 0.817149 0
M  V30 4359 H 410.492 -5.8143 1.89074 0
M  V30 4360 H 414.666 -6.43735 2.65666 0
M  V30 4361 H 412.293 -6.89594 3.19943 0
M  V30 4362 N 413.868 0.0150385 -1.57593 0
M  V30 4363 C 415.114 0.704043 -1.90187 0
M  V30 4364 C 415.447 1.74249 -0.857366 0
M  V30 4365 O 414.722 1.94092 0.125843 0
M  V30 4366 C 415.005 1.36087 -3.33395 0
M  V30 4367 C 414.858 0.334981 -4.48551 0
M  V30 4368 C 416.177 2.29112 -3.7576 0
M  V30 4369 H 413.296 0.254475 -0.691673 0
M  V30 4370 H 415.938 -0.0331678 -1.89971 0
M  V30 4371 H 414.088 1.98922 -3.3371 0
M  V30 4372 H 415.76 -0.292534 -4.60372 0
M  V30 4373 H 414.003 -0.344325 -4.32431 0
M  V30 4374 H 414.674 0.833316 -5.45674 0
M  V30 4375 H 417.15 1.76308 -3.76902 0
M  V30 4376 H 416.026 2.72043 -4.76743 0
M  V30 4377 H 416.287 3.16385 -3.08793 0
M  V30 4378 N 415.346 1.54954 0.287554 0
M  V30 4379 C 416.279 1.81737 1.3801 0
M  V30 4380 C 417.257 0.669412 1.48181 0
M  V30 4381 O 418.441 0.910839 1.65033 0
M  V30 4382 C 415.568 1.96606 2.75796 0
M  V30 4383 C 414.614 3.19098 2.82982 0
M  V30 4384 S 415.447 4.7683 2.43707 0
M  V30 4385 C 416.603 4.94653 3.83496 0
M  V30 4386 H 416.836 2.74122 1.15085 0
M  V30 4387 H 414.369 1.46538 0.486403 0
M  V30 4388 H 416.327 2.05858 3.55152 0
M  V30 4389 H 414.988 1.05136 2.95982 0
M  V30 4390 H 414.181 3.26344 3.84077 0
M  V30 4391 H 413.783 3.08361 2.11635 0
M  V30 4392 H 416.075 4.79502 4.78628 0
M  V30 4393 H 417.018 5.96728 3.8121 0
M  V30 4394 H 417.426 4.2272 3.74123 0
M  V30 4395 N 416.824 -0.551391 1.4764 0
M  V30 4396 C 417.734 -1.68525 1.63207 0
M  V30 4397 C 418.75 -1.6621 0.514815 0
M  V30 4398 O 419.926 -1.85551 0.783113 0
M  V30 4399 C 416.991 -3.05025 1.64805 0
M  V30 4400 C 416.052 -3.18362 2.88 0
M  V30 4401 C 415.285 -4.4835 2.89513 0
M  V30 4402 O 415.508 -5.34163 2.00065 0
M  V30 4403 O 414.442 -4.65602 3.81443 0
M  V30 4404 H 418.268 -1.58333 2.59161 0
M  V30 4405 H 415.853 -0.722063 1.30792 0
M  V30 4406 H 417.735 -3.86245 1.68502 0
M  V30 4407 H 416.41 -3.15587 0.720197 0
M  V30 4408 H 415.317 -2.36518 2.89845 0
M  V30 4409 H 416.65 -3.12707 3.80099 0
M  V30 4410 N 418.302 -1.35869 -0.798587 0
M  V30 4411 C 419.548 -1.2978 -1.55836 0
M  V30 4412 C 419.881 0.125322 -1.93795 0
M  V30 4413 O 419.156 1.07658 -1.61987 0
M  V30 4414 C 419.439 -2.21188 -2.84162 0
M  V30 4415 C 419.292 -3.72155 -2.52628 0
M  V30 4416 C 420.611 -2.11545 -3.85923 0
M  V30 4417 H 417.73 -0.472769 -0.565383 0
M  V30 4418 H 420.372 -1.66341 -0.918192 0
M  V30 4419 H 418.522 -1.90139 -3.38791 0
M  V30 4420 H 420.194 -4.13682 -2.04121 0
M  V30 4421 H 418.437 -3.92042 -1.85704 0
M  V30 4422 H 419.108 -4.31511 -3.44242 0
M  V30 4423 H 421.584 -2.38855 -3.40716 0
M  V30 4424 H 420.46 -2.77688 -4.73477 0
M  V30 4425 H 420.721 -1.09987 -4.282 0
M  V30 4426 N 419.78 1.02168 -1.19998 0
M  V30 4427 C 420.713 2.10232 -0.887558 0
M  V30 4428 C 421.691 1.61827 0.158317 0
M  V30 4429 O 422.875 1.88471 0.0330249 0
M  V30 4430 C 420.002 3.37092 -0.32964 0
M  V30 4431 C 419.048 4.0438 -1.3557 0
M  V30 4432 S 419.881 4.48956 -2.91888 0
M  V30 4433 C 421.037 5.79024 -2.37658 0
M  V30 4434 H 421.27 2.36409 -1.80272 0
M  V30 4435 H 418.803 1.15211 -1.0279 0
M  V30 4436 H 420.761 4.10498 -0.0142824 0
M  V30 4437 H 419.422 3.08996 0.563941 0
M  V30 4438 H 418.615 4.95632 -0.9146 0
M  V30 4439 H 418.217 3.37176 -1.61828 0
M  V30 4440 H 420.509 6.53942 -1.77103 0
M  V30 4441 H 421.452 6.27924 -3.27287 0
M  V30 4442 H 421.86 5.35043 -1.79971 0
M  V30 4443 N 421.258 1.00505 1.21394 0
M  V30 4444 C 422.205 0.565496 2.23765 0
M  V30 4445 C 423.175 -0.408466 1.60999 0
M  V30 4446 O 424.36 -0.310503 1.88257 0
M  V30 4447 C 421.5 -0.101667 3.4495 0
M  V30 4448 C 420.613 0.915479 4.22188 0
M  V30 4449 C 419.748 0.220574 5.30742 0
M  V30 4450 C 418.787 1.22527 5.99711 0
M  V30 4451 N 417.924 0.557831 6.9988 0
M  V30 4452 H 422.764 1.44314 2.60725 0
M  V30 4453 H 420.301 0.722643 1.28126 0
M  V30 4454 H 422.259 -0.505504 4.14126 0
M  V30 4455 H 420.889 -0.94303 3.08718 0
M  V30 4456 H 419.941 1.43756 3.52191 0
M  V30 4457 H 421.253 1.68005 4.69655 0
M  V30 4458 H 420.407 -0.239368 6.06228 0
M  V30 4459 H 419.146 -0.576401 4.84282 0
M  V30 4460 H 418.151 1.69571 5.22997 0
M  V30 4461 H 419.376 2.02332 6.48258 0
M  V30 4462 H 417.322 -0.219486 6.55633 0
M  V30 4463 H 417.239 1.26065 7.45415 0
M  V30 4464 H 418.507 0.121095 7.79406 0
M  V30 4465 N 422.737 -1.36956 0.779787 0
M  V30 4466 C 423.647 -2.33965 0.172491 0
M  V30 4467 C 424.663 -1.60574 -0.670222 0
M  V30 4468 O 425.839 -1.92617 -0.588263 0
M  V30 4469 C 422.904 -3.39761 -0.690173 0
M  V30 4470 C 421.965 -4.28964 0.169924 0
M  V30 4471 C 421.198 -5.29707 -0.651662 0
M  V30 4472 O 421.421 -5.38238 -1.88827 0
M  V30 4473 O 420.355 -6.01873 -0.0566264 0
M  V30 4474 H 424.181 -2.87647 0.974321 0
M  V30 4475 H 421.766 -1.39258 0.541078 0
M  V30 4476 H 423.648 -4.04471 -1.1824 0
M  V30 4477 H 422.323 -2.88394 -1.47006 0
M  V30 4478 H 421.23 -3.67326 0.708696 0
M  V30 4479 H 422.563 -4.83656 0.913085 0
M  V30 4480 N 424.215 -0.530993 -1.48385 0
M  V30 4481 C 425.125 0.23503 -2.3342 0
M  V30 4482 C 426.141 0.93801 -1.46552 0
M  V30 4483 O 427.317 0.912745 -1.7953 0
M  V30 4484 C 424.382 1.26778 -3.22689 0
M  V30 4485 C 423.443 0.575038 -4.25431 0
M  V30 4486 C 422.676 1.55858 -5.10435 0
M  V30 4487 O 422.899 2.79129 -4.97437 0
M  V30 4488 O 421.833 1.09742 -5.91811 0
M  V30 4489 H 425.659 -0.461794 -3.00169 0
M  V30 4490 H 423.244 -0.291903 -1.46521 0
M  V30 4491 H 425.126 1.86457 -3.77904 0
M  V30 4492 H 423.801 1.94699 -2.586 0
M  V30 4493 H 422.708 -0.0622782 -3.74048 0
M  V30 4494 H 424.041 -0.062253 -4.92161 0
M  V30 4495 N 425.693 1.55336 -0.266172 0
M  V30 4496 C 426.942 1.98574 0.353749 0
M  V30 4497 C 427.255 1.15789 1.57646 0
M  V30 4498 O 428.461 1.49129 2.26876 0
M  V30 4499 C 426.917 3.53403 0.680747 0
M  V30 4500 C 426.525 4.44953 -0.52165 0
M  V30 4501 C 428.269 4.05251 1.26379 0
M  V30 4502 C 426.176 5.91156 -0.169736 0
M  V30 4503 H 425.106 0.741643 0.135949 0
M  V30 4504 H 427.757 1.79743 -0.369421 0
M  V30 4505 H 426.139 3.68001 1.46257 0
M  V30 4506 H 427.313 4.42121 -1.29869 0
M  V30 4507 H 425.628 4.03691 -1.02093 0
M  V30 4508 H 428.225 5.12021 1.54074 0
M  V30 4509 H 428.568 3.53749 2.19471 0
M  V30 4510 H 429.101 3.94057 0.544447 0
M  V30 4511 H 425.84 6.46736 -1.0683 0
M  V30 4512 H 425.36 5.97079 0.570717 0
M  V30 4513 H 427.039 6.4655 0.241245 0
M  V30 4514 N 427.171 -0.0066808 1.57599 0
M  V30 4515 C 428.582 -0.550379 1.78403 0
M  V30 4516 C 428.933 -1.74339 0.900014 0
M  V30 4517 O 428.058 -2.16166 0.100713 0
M  V30 4518 C 428.653 -1.00523 3.23544 0
M  V30 4519 C 427.212 -1.49428 3.45468 0
M  V30 4520 C 426.359 -0.442444 2.73748 0
M  V30 4521 H 429.31 0.219508 1.57175 0
M  V30 4522 H 429.331 -1.87157 3.31289 0
M  V30 4523 H 428.843 -0.136735 3.87859 0
M  V30 4524 H 426.944 -2.3839 2.86358 0
M  V30 4525 H 427.057 -1.52635 4.54136 0
M  V30 4526 H 425.421 -0.902578 2.38171 0
M  V30 4527 H 426.204 0.416973 3.40758 0
M  V30 4528 N 428.649 -1.55105 -0.279332 0
M  V30 4529 C 429.559 -1.90638 -1.36727 0
M  V30 4530 C 430.575 -0.802899 -1.54368 0
M  V30 4531 O 431.751 -1.10138 -1.68616 0
M  V30 4532 C 428.816 -2.16547 -2.70755 0
M  V30 4533 C 427.877 -3.40146 -2.61915 0
M  V30 4534 C 427.11 -3.6481 -3.8955 0
M  V30 4535 O 427.333 -2.92095 -4.89935 0
M  V30 4536 O 426.267 -4.58343 -3.90135 0
M  V30 4537 H 430.093 -2.83237 -1.09591 0
M  V30 4538 H 427.678 -1.4157 -0.477306 0
M  V30 4539 H 429.56 -2.34665 -3.50014 0
M  V30 4540 H 428.235 -1.27131 -2.9769 0
M  V30 4541 H 427.142 -3.2737 -1.81052 0
M  V30 4542 H 428.475 -4.29761 -2.3993 0
M  V30 4543 N 430.127 0.543554 -1.4793 0
M  V30 4544 C 431.074 1.64942 -1.6144 0
M  V30 4545 C 432.044 1.59692 -0.456903 0
M  V30 4546 O 433.229 1.78321 -0.678688 0
M  V30 4547 C 430.369 3.03238 -1.64744 0
M  V30 4548 C 429.482 3.18823 -2.91506 0
M  V30 4549 C 428.617 4.47599 -2.86057 0
M  V30 4550 C 427.656 4.56664 -4.07584 0
M  V30 4551 N 426.793 5.76811 -4.00292 0
M  V30 4552 H 431.633 1.52733 -2.55884 0
M  V30 4553 H 429.17 0.7438 -1.2691 0
M  V30 4554 H 431.128 3.83339 -1.64641 0
M  V30 4555 H 429.758 3.1425 -0.738017 0
M  V30 4556 H 428.81 2.32064 -3.01414 0
M  V30 4557 H 430.122 3.21384 -3.81463 0
M  V30 4558 H 429.276 5.35975 -2.84281 0
M  V30 4559 H 428.015 4.47538 -1.93807 0
M  V30 4560 H 427.02 3.66697 -4.09651 0
M  V30 4561 H 428.245 4.58474 -5.00978 0
M  V30 4562 H 426.191 5.77673 -3.10853 0
M  V30 4563 H 426.108 5.80808 -4.8394 0
M  V30 4564 H 427.376 6.67512 -4.02553 0
M  V30 4565 N 431.605 1.3629 0.791371 0
M  V30 4566 C 432.851 1.30605 1.55146 0
M  V30 4567 C 433.184 -0.115042 1.93859 0
M  V30 4568 O 432.459 -1.06798 1.62556 0
M  V30 4569 C 432.742 2.22692 2.82985 0
M  V30 4570 C 432.595 3.73489 2.50651 0
M  V30 4571 C 433.914 2.13588 3.84796 0
M  V30 4572 H 431.033 0.475761 0.562868 0
M  V30 4573 H 433.675 1.66825 0.909358 0
M  V30 4574 H 431.825 1.91933 3.37778 0
M  V30 4575 H 433.497 4.14758 2.01924 0
M  V30 4576 H 431.74 3.93021 1.83622 0
M  V30 4577 H 432.411 4.3333 3.41949 0
M  V30 4578 H 434.887 2.40659 3.39445 0
M  V30 4579 H 433.763 2.80195 4.71998 0
M  V30 4580 H 434.024 1.12256 4.27611 0
M  V30 4581 N 433.083 -1.0153 1.20538 0
M  V30 4582 C 434.36 -1.72327 0.925343 0
M  V30 4583 C 434.74 -2.03383 -0.565547 0
M  V30 4584 O 434.088 -1.69934 -1.52757 0
M  V30 4585 C 434.298 -2.9902 1.79967 0
M  V30 4586 C 435.646 -3.72258 2.04228 0
M  V30 4587 O 436.67 -3.08979 1.77231 0
M  V30 4588 O 435.529 -4.86053 2.4983 0
M  V30 4589 H 432.623 -0.751099 0.346092 0
M  V30 4590 H 435.169 -1.07366 1.31417 0
M  V30 4591 H 433.941 -2.72402 2.80915 0
M  V30 4592 H 433.564 -3.71721 1.41099 0
M  V30 4593 N 434.561 -1.01147 -1.20859 0
M  V30 4594 C 435.789 -0.716911 -1.94082 0
M  V30 4595 C 436.204 0.721568 -1.74467 0
M  V30 4596 O 435.561 1.48889 -1.05539 0
M  V30 4597 C 435.612 -1.03662 -3.46318 0
M  V30 4598 O 435.333 -2.4186 -3.65288 0
M  V30 4599 C 436.834 -0.762386 -4.36695 0
M  V30 4600 H 434.054 -0.26367 -0.617024 0
M  V30 4601 H 436.598 -1.35127 -1.53496 0
M  V30 4602 H 434.753 -0.447757 -3.84804 0
M  V30 4603 H 435.167 -2.53224 -4.59323 0
M  V30 4604 H 436.641 -1.03621 -5.42187 0
M  V30 4605 H 437.118 0.303514 -4.3815 0
M  V30 4606 H 437.724 -1.33316 -4.03865 0
M  V30 4607 N 436.039 1.36541 -0.78704 0
M  V30 4608 C 437.285 1.99599 -0.358872 0
M  V30 4609 C 437.618 1.62323 1.06606 0
M  V30 4610 O 436.893 0.876858 1.73613 0
M  V30 4611 C 437.176 3.56327 -0.519944 0
M  V30 4612 C 437.029 4.03464 -1.98839 0
M  V30 4613 C 438.348 4.4005 0.0664737 0
M  V30 4614 H 435.467 0.725107 -0.131869 0
M  V30 4615 H 438.109 1.6199 -0.992936 0
M  V30 4616 H 436.259 3.88495 0.0198321 0
M  V30 4617 H 437.931 3.81793 -2.58905 0
M  V30 4618 H 436.174 3.55092 -2.49183 0
M  V30 4619 H 436.845 5.12439 -2.05207 0
M  V30 4620 H 439.321 4.14228 -0.394267 0
M  V30 4621 H 438.197 5.48847 -0.0762682 0
M  V30 4622 H 438.458 4.26655 1.15835 0
M  V30 4623 N 437.518 0.538854 1.48102 0
M  V30 4624 C 438.466 -0.232325 2.31437 0
M  V30 4625 C 439.46 -0.927004 1.41785 0
M  V30 4626 O 440.666 -0.850378 1.58646 0
M  V30 4627 H 437.041 -0.0937916 0.746128 0
M  V30 4628 H 439.012 0.489986 2.9435 0
M  V30 4629 C 437.761 -1.26074 3.24038 0
M  V30 4630 H 437.084 -0.735609 3.92974 0
M  V30 4631 H 438.524 -1.77157 3.85216 0
M  V30 4632 C 436.983 -2.29902 2.46265 0
M  V30 4633 O 437.513 -3.36502 2.19384 0
M  V30 4634 N 435.719 -2.03348 2.07601 0
M  V30 4635 H 435.266 -1.16675 2.29662 0
M  V30 4636 H 435.224 -2.73038 1.55877 0
M  V30 4637 N 438.996 -1.55193 0.274407 0
M  V30 4638 C 439.946 -2.19184 -0.627882 0
M  V30 4639 C 440.93 -1.15625 -1.11892 0
M  V30 4640 O 442.122 -1.41441 -1.06411 0
M  V30 4641 C 439.251 -2.91591 -1.81189 0
M  V30 4642 C 438.337 -4.02438 -1.33807 0
M  V30 4643 N 438.728 -5.0246 -0.580349 0
M  V30 4644 C 437.026 -4.15496 -1.62109 0
M  V30 4645 C 437.727 -5.80756 -0.331344 0
M  V30 4646 N 436.703 -5.36038 -0.903556 0
M  V30 4647 H 440.505 -2.93871 -0.0411216 0
M  V30 4648 H 438.019 -1.62213 0.0779348 0
M  V30 4649 H 440.016 -3.35883 -2.46957 0
M  V30 4650 H 438.676 -2.18414 -2.40261 0
M  V30 4651 H 439.687 -5.17399 -0.227762 0
M  V30 4652 H 436.364 -3.53509 -2.22121 0
M  V30 4653 H 437.754 -6.71335 0.275454 0
M  V30 4654 N 440.474 -0.00167713 -1.576 0
M  V30 4655 C 441.723 0.682021 -1.89819 0
M  V30 4656 C 442.036 1.74844 -0.876871 0
M  V30 4657 O 443.242 2.48688 -1.08934 0
M  V30 4658 C 441.698 1.26425 -3.36964 0
M  V30 4659 C 441.306 0.232568 -4.47396 0
M  V30 4660 C 443.05 1.92604 -3.78291 0
M  V30 4661 C 440.957 0.824882 -5.85619 0
M  V30 4662 H 439.887 0.258499 -0.708304 0
M  V30 4663 H 442.538 -0.0624957 -1.83394 0
M  V30 4664 H 440.92 2.05949 -3.38232 0
M  V30 4665 H 442.094 -0.5382 -4.57646 0
M  V30 4666 H 440.409 -0.32888 -4.15099 0
M  V30 4667 H 443.006 2.37827 -4.78897 0
M  V30 4668 H 443.349 2.75732 -3.11894 0
M  V30 4669 H 443.882 1.19812 -3.79328 0
M  V30 4670 H 440.621 0.0323542 -6.55492 0
M  V30 4671 H 440.141 1.56477 -5.79029 0
M  V30 4672 H 441.82 1.32301 -6.33329 0
M  V30 4673 N 441.952 1.55251 0.271103 0
M  V30 4674 C 443.199 1.75946 1.00245 0
M  V30 4675 C 443.527 0.561611 1.86215 0
M  V30 4676 O 442.782 -0.455832 1.90317 0
M  V30 4677 C 443.081 3.01879 1.91321 0
M  V30 4678 C 442.747 4.34337 1.21086 0
M  V30 4679 C 441.409 4.70338 1.01666 0
M  V30 4680 C 443.761 5.16325 0.71119 0
M  V30 4681 C 441.089 5.8588 0.310099 0
M  V30 4682 C 443.441 6.32597 0.0182157 0
M  V30 4683 C 442.105 6.67236 -0.18768 0
M  V30 4684 H 441.375 0.643833 0.366824 0
M  V30 4685 H 444.022 1.89521 0.27458 0
M  V30 4686 H 442.327 2.83212 2.70736 0
M  V30 4687 H 444.024 3.15088 2.48033 0
M  V30 4688 H 440.614 4.06043 1.37213 0
M  V30 4689 H 444.798 4.88987 0.848844 0
M  V30 4690 H 440.054 6.1124 0.139873 0
M  V30 4691 H 444.228 6.9538 -0.376711 0
M  V30 4692 H 441.855 7.56618 -0.73715 0
M  V30 4693 N 443.43 -0.535701 1.48216 0
M  V30 4694 C 444.678 -1.28928 1.55634 0
M  V30 4695 C 444.999 -1.93645 0.229514 0
M  V30 4696 O 444.269 -1.81038 -0.74846 0
M  V30 4697 H 442.849 -0.47884 0.573342 0
M  V30 4698 H 445.511 -0.623853 1.84646 0
M  V30 4699 H 444.607 -2.07157 2.33436 0
M  V30 4700 N 444.908 -1.36708 -0.784132 0
M  V30 4701 C 446.156 -1.30972 -1.53918 0
M  V30 4702 C 446.477 0.109086 -1.94695 0
M  V30 4703 O 445.747 1.05048 -1.65353 0
M  V30 4704 H 444.327 -0.481819 -0.570841 0
M  V30 4705 H 446.989 -1.71063 -0.934002 0
M  V30 4706 H 446.085 -1.94061 -2.44431 0
M  V30 4707 N 446.386 1.0089 -1.21074 0
M  V30 4708 C 447.611 1.78727 -1.05221 0
M  V30 4709 C 448.036 1.83932 0.393795 0
M  V30 4710 O 447.394 1.28004 1.28393 0
M  V30 4711 C 447.442 3.20665 -1.64944 0
M  V30 4712 O 446.546 4.02632 -0.892273 0
M  V30 4713 H 445.887 0.550973 -0.370574 0
M  V30 4714 H 448.417 1.26847 -1.60534 0
M  V30 4715 H 448.427 3.71352 -1.69002 0
M  V30 4716 H 447.102 3.16191 -2.70177 0
M  V30 4717 H 445.679 3.61207 -0.926492 0
M  V30 4718 N 447.864 1.01787 1.20321 0
M  V30 4719 C 448.794 0.609625 2.25401 0
M  V30 4720 C 449.775 -0.375951 1.65893 0
M  V30 4721 O 450.96 -0.261101 1.92437 0
M  V30 4722 C 448.09 -0.0515995 3.47262 0
M  V30 4723 C 447.044 0.855095 4.19371 0
M  V30 4724 C 446.37 0.0595757 5.34667 0
M  V30 4725 C 447.67 2.16374 4.75373 0
M  V30 4726 H 449.364 1.48803 2.59804 0
M  V30 4727 H 446.91 0.716934 1.24884 0
M  V30 4728 H 448.863 -0.348764 4.19954 0
M  V30 4729 H 447.587 -0.964726 3.12027 0
M  V30 4730 H 446.246 1.13628 3.48546 0
M  V30 4731 H 445.894 -0.85524 4.95676 0
M  V30 4732 H 445.594 0.663406 5.83843 0
M  V30 4733 H 447.118 -0.231105 6.10162 0
M  V30 4734 H 448.532 1.92885 5.39878 0
M  V30 4735 H 446.929 2.71853 5.34991 0
M  V30 4736 H 447.999 2.82589 3.94045 0
M  V30 4737 N 449.342 -1.36122 0.79427 0
M  V30 4738 C 450.272 -2.32551 0.210328 0
M  V30 4739 C 451.253 -1.56884 -0.657386 0
M  V30 4740 O 452.438 -1.85014 -0.590207 0
M  V30 4741 C 449.568 -3.41128 -0.651819 0
M  V30 4742 C 448.522 -4.27842 0.116395 0
M  V30 4743 C 447.848 -5.2763 -0.86666 0
M  V30 4744 C 449.148 -5.05647 1.30837 0
M  V30 4745 H 450.842 -2.81636 1.01594 0
M  V30 4746 H 448.388 -1.35407 0.489981 0
M  V30 4747 H 450.341 -4.07581 -1.07031 0
M  V30 4748 H 449.065 -2.90622 -1.49019 0
M  V30 4749 H 447.724 -3.62952 0.515915 0
M  V30 4750 H 447.372 -4.73395 -1.70019 0
M  V30 4751 H 447.072 -5.86514 -0.35705 0
M  V30 4752 H 448.596 -5.96955 -1.28361 0
M  V30 4753 H 450.01 -5.65113 0.965393 0
M  V30 4754 H 448.407 -5.73967 1.75161 0
M  V30 4755 H 449.477 -4.37006 2.10128 0
M  V30 4756 N 450.82 -0.546701 -1.47814 0
M  V30 4757 C 451.767 0.206854 -2.29871 0
M  V30 4758 C 452.737 0.918235 -1.38411 0
M  V30 4759 O 453.922 0.915991 -1.67375 0
M  V30 4760 C 451.062 1.23746 -3.22151 0
M  V30 4761 C 450.175 0.533216 -4.28697 0
M  V30 4762 C 449.31 1.5482 -5.08138 0
M  V30 4763 C 448.349 0.828347 -6.06469 0
M  V30 4764 N 447.486 1.78966 -6.78908 0
M  V30 4765 H 452.326 -0.499037 -2.93792 0
M  V30 4766 H 449.863 -0.25793 -1.44821 0
M  V30 4767 H 451.821 1.84746 -3.74065 0
M  V30 4768 H 450.451 1.91151 -2.60117 0
M  V30 4769 H 449.503 -0.191089 -3.7992 0
M  V30 4770 H 450.815 -0.0311987 -4.9879 0
M  V30 4771 H 449.969 2.23202 -5.6415 0
M  V30 4772 H 448.708 2.14652 -4.37922 0
M  V30 4773 H 447.713 0.130539 -5.49645 0
M  V30 4774 H 448.938 0.235907 -6.7869 0
M  V30 4775 H 446.884 2.37675 -6.1143 0
M  V30 4776 H 446.801 1.27712 -7.45135 0
M  V30 4777 H 448.069 2.46496 -7.395 0
M  V30 4778 N 452.299 1.55045 -0.282633 0
M  V30 4779 C 453.546 1.9976 0.33199 0
M  V30 4780 C 453.874 1.17105 1.55295 0
M  V30 4781 O 453.129 0.230599 1.94337 0
M  V30 4782 C 453.428 3.49422 0.750938 0
M  V30 4783 C 453.094 4.4941 -0.366228 0
M  V30 4784 C 451.756 4.76471 -0.672964 0
M  V30 4785 C 454.108 5.09054 -1.11864 0
M  V30 4786 C 451.436 5.60442 -1.73556 0
M  V30 4787 C 453.788 5.9418 -2.17102 0
M  V30 4788 C 452.452 6.19558 -2.48402 0
M  V30 4789 H 451.722 0.730974 0.121484 0
M  V30 4790 H 454.369 1.8732 -0.39791 0
M  V30 4791 H 452.674 3.59377 1.56063 0
M  V30 4792 H 454.371 3.81432 1.23736 0
M  V30 4793 H 450.961 4.2844 -0.117041 0
M  V30 4794 H 455.145 4.88165 -0.894925 0
M  V30 4795 H 450.401 5.78349 -1.983 0
M  V30 4796 H 454.575 6.39427 -2.75873 0
M  V30 4797 H 452.202 6.84417 -3.30874 0
M  V30 4798 N 453.777 0.010035 1.57597 0
M  V30 4799 C 454.707 -0.976857 2.12084 0
M  V30 4800 C 455.688 -1.35191 1.03235 0
M  V30 4801 O 456.873 -1.43389 1.3097 0
M  V30 4802 C 454.003 -2.26548 2.63236 0
M  V30 4803 C 452.957 -2.03175 3.76701 0
M  V30 4804 C 452.283 -3.38138 4.14206 0
M  V30 4805 C 453.583 -1.38625 5.03568 0
M  V30 4806 H 455.277 -0.523145 2.94794 0
M  V30 4807 H 452.823 -0.250195 1.4181 0
M  V30 4808 H 454.776 -2.95952 2.99984 0
M  V30 4809 H 453.5 -2.74051 1.77661 0
M  V30 4810 H 452.159 -1.36195 3.40362 0
M  V30 4811 H 451.807 -3.83363 3.25641 0
M  V30 4812 H 451.507 -3.23312 4.90656 0
M  V30 4813 H 453.031 -4.08841 4.53521 0
M  V30 4814 H 454.445 -1.98 5.38023 0
M  V30 4815 H 452.842 -1.34256 5.84889 0
M  V30 4816 H 453.912 -0.356722 4.83586 0
M  V30 4817 N 455.255 -1.55392 -0.262866 0
M  V30 4818 C 456.202 -1.88966 -1.32516 0
M  V30 4819 C 457.172 -0.742187 -1.48596 0
M  V30 4820 O 458.357 -0.99439 -1.62839 0
M  V30 4821 C 455.497 -2.17592 -2.67858 0
M  V30 4822 C 454.61 -3.45061 -2.59917 0
M  V30 4823 C 453.745 -3.63336 -3.87505 0
M  V30 4824 C 452.784 -4.84462 -3.74116 0
M  V30 4825 N 451.921 -4.99342 -4.93561 0
M  V30 4826 H 456.761 -2.79566 -1.03184 0
M  V30 4827 H 454.298 -1.38404 -0.498285 0
M  V30 4828 H 456.256 -2.3219 -3.46617 0
M  V30 4829 H 454.886 -1.30215 -2.95371 0
M  V30 4830 H 453.938 -3.38881 -1.72812 0
M  V30 4831 H 455.25 -4.3396 -2.45926 0
M  V30 4832 H 454.404 -3.77807 -4.74707 0
M  V30 4833 H 453.143 -2.72641 -4.04374 0
M  V30 4834 H 452.148 -4.69985 -2.85297 0
M  V30 4835 H 453.373 -5.76603 -3.58757 0
M  V30 4836 H 451.319 -4.1158 -5.10821 0
M  V30 4837 H 451.236 -5.82303 -4.82141 0
M  V30 4838 H 452.504 -5.18208 -5.82306 0
M  V30 4839 N 456.733 0.527833 -1.48498 0
M  V30 4840 C 457.643 1.65907 -1.65867 0
M  V30 4841 C 458.659 1.6537 -0.541192 0
M  V30 4842 O 459.835 1.84282 -0.812534 0
M  V30 4843 C 456.9 3.02364 -1.69637 0
M  V30 4844 C 455.961 3.1374 -2.93028 0
M  V30 4845 C 455.194 4.43688 -2.96609 0
M  V30 4846 O 455.417 5.30913 -2.08538 0
M  V30 4847 O 454.351 4.59475 -3.88802 0
M  V30 4848 H 458.177 1.5419 -2.61647 0
M  V30 4849 H 455.762 0.701163 -1.31924 0
M  V30 4850 H 457.644 3.83515 -1.74625 0
M  V30 4851 H 456.319 3.14401 -0.770312 0
M  V30 4852 H 455.226 2.31877 -2.93571 0
M  V30 4853 H 456.559 3.06621 -3.85026 0
M  V30 4854 N 458.211 1.37122 0.776871 0
M  V30 4855 C 459.141 1.35164 1.90402 0
M  V30 4856 C 460.122 0.221069 1.68657 0
M  V30 4857 O 461.307 0.420642 1.8959 0
M  V30 4858 C 458.437 1.15274 3.27611 0
M  V30 4859 C 457.391 2.25289 3.63908 0
M  V30 4860 C 456.717 1.90527 4.99603 0
M  V30 4861 C 458.017 3.67446 3.71188 0
M  V30 4862 H 459.711 2.29482 1.92297 0
M  V30 4863 H 457.257 1.10465 0.923773 0
M  V30 4864 H 459.21 1.12536 4.06096 0
M  V30 4865 H 457.934 0.174102 3.26136 0
M  V30 4866 H 456.593 2.27174 2.87728 0
M  V30 4867 H 456.241 0.91206 4.94662 0
M  V30 4868 H 455.941 2.64193 5.24858 0
M  V30 4869 H 457.465 1.89367 5.80493 0
M  V30 4870 H 458.879 3.67719 4.39836 0
M  V30 4871 H 457.276 4.40123 4.07936 0
M  V30 4872 H 458.346 4.01443 2.71977 0
M  V30 4873 N 459.689 -1.00246 1.21608 0
M  V30 4874 C 460.937 -1.73717 1.0328 0
M  V30 4875 C 461.258 -1.90102 -0.434318 0
M  V30 4876 O 460.528 -1.45376 -1.31311 0
M  V30 4877 H 459.108 -0.643613 0.379172 0
M  V30 4878 H 461.77 -1.20787 1.52959 0
M  V30 4879 H 460.866 -2.73535 1.50283 0
M  V30 4880 N 461.167 -1.02423 -1.1978 0
M  V30 4881 C 462.097 -0.62157 -2.25075 0
M  V30 4882 C 463.078 0.367148 -1.6609 0
M  V30 4883 O 464.263 0.250892 -1.92573 0
M  V30 4884 C 461.393 0.0331826 -3.47284 0
M  V30 4885 C 460.347 -0.877323 -4.18912 0
M  V30 4886 C 459.673 -0.0879296 -5.34628 0
M  V30 4887 C 460.973 -2.18892 -4.74219 0
M  V30 4888 H 462.667 -1.50179 -2.59011 0
M  V30 4889 H 460.213 -0.723547 -1.24502 0
M  V30 4890 H 462.166 0.326488 -4.20133 0
M  V30 4891 H 460.89 0.948164 -3.12534 0
M  V30 4892 H 459.549 -1.15475 -3.47938 0
M  V30 4893 H 459.197 0.828941 -4.96123 0
M  V30 4894 H 458.897 -0.694359 -5.83483 0
M  V30 4895 H 460.421 0.198743 -6.10276 0
M  V30 4896 H 461.835 -1.95746 -5.38847 0
M  V30 4897 H 460.232 -2.74686 -5.33542 0
M  V30 4898 H 461.302 -2.84674 -3.92541 0
M  V30 4899 N 462.645 1.35699 -0.801477 0
M  V30 4900 C 463.875 2.02862 -0.3912 0
M  V30 4901 C 464.283 1.60552 1.00099 0
M  V30 4902 O 463.626 0.796215 1.65548 0
M  V30 4903 C 463.688 3.57386 -0.389299 0
M  V30 4904 C 463.352 4.22943 -1.73113 0
M  V30 4905 C 464.349 4.44984 -2.68859 0
M  V30 4906 C 462.034 4.60167 -2.01373 0
M  V30 4907 C 464.028 5.03345 -3.91053 0
M  V30 4908 C 461.715 5.18243 -3.23832 0
M  V30 4909 C 462.713 5.39773 -4.1849 0
M  V30 4910 O 462.401 5.96626 -5.38788 0
M  V30 4911 H 462.133 0.657341 -0.157732 0
M  V30 4912 H 464.687 1.74407 -1.08496 0
M  V30 4913 H 462.917 3.85011 0.361031 0
M  V30 4914 H 464.606 4.059 -0.0020365 0
M  V30 4915 H 465.372 4.1661 -2.48316 0
M  V30 4916 H 461.251 4.42726 -1.28508 0
M  V30 4917 H 464.795 5.20065 -4.64949 0
M  V30 4918 H 460.692 5.46044 -3.44248 0
M  V30 4919 H 461.46 6.15082 -5.40015 0
M  V30 4920 N 464.123 0.554532 1.47522 0
M  V30 4921 C 465.033 -0.197865 2.33764 0
M  V30 4922 C 466.049 -0.914576 1.48025 0
M  V30 4923 O 467.225 -0.884067 1.80959 0
M  V30 4924 C 464.29 -1.21628 3.24665 0
M  V30 4925 C 463.351 -0.507283 4.26292 0
M  V30 4926 C 462.584 -1.47718 5.1285 0
M  V30 4927 O 462.807 -2.7118 5.01814 0
M  V30 4928 O 461.741 -1.00313 5.93482 0
M  V30 4929 H 465.567 0.50949 2.99396 0
M  V30 4930 H 463.152 0.315176 1.46038 0
M  V30 4931 H 465.034 -1.80421 3.80823 0
M  V30 4932 H 463.709 -1.9056 2.61665 0
M  V30 4933 H 462.616 0.121778 3.73902 0
M  V30 4934 H 463.949 0.140544 4.91999 0
M  V30 4935 N 465.601 -1.54893 0.290851 0
M  V30 4936 C 466.548 -2.23138 -0.58974 0
M  V30 4937 C 467.518 -1.21036 -1.13752 0
M  V30 4938 O 468.703 -1.49626 -1.18392 0
M  V30 4939 C 465.843 -2.96811 -1.76061 0
M  V30 4940 C 464.956 -4.13665 -1.24519 0
M  V30 4941 C 464.091 -4.74944 -2.3791 0
M  V30 4942 C 463.13 -5.83963 -1.83451 0
M  V30 4943 N 462.267 -6.39239 -2.90376 0
M  V30 4944 H 467.107 -2.98 -0.00114915 0
M  V30 4945 H 464.644 -1.47096 0.0112006 0
M  V30 4946 H 466.602 -3.37751 -2.44909 0
M  V30 4947 H 465.232 -2.24344 -2.32098 0
M  V30 4948 H 464.284 -3.77737 -0.449288 0
M  V30 4949 H 465.596 -4.92238 -0.806424 0
M  V30 4950 H 464.75 -5.18684 -3.14724 0
M  V30 4951 H 463.489 -3.95682 -2.85109 0
M  V30 4952 H 462.494 -5.39657 -1.05122 0
M  V30 4953 H 463.719 -6.65103 -1.37169 0
M  V30 4954 H 461.665 -5.62864 -3.36927 0
M  V30 4955 H 461.582 -7.13129 -2.50965 0
M  V30 4956 H 462.85 -6.87637 -3.67118 0
M  V30 4957 N 467.08 -0.0183926 -1.57589 0
M  V30 4958 C 468.326 0.663543 -1.91638 0
M  V30 4959 C 468.659 1.72392 -0.894134 0
M  V30 4960 O 467.934 1.94316 0.0846449 0
M  V30 4961 C 468.217 1.28984 -3.36207 0
M  V30 4962 C 468.07 0.239761 -4.49161 0
M  V30 4963 C 469.389 2.2109 -3.80536 0
M  V30 4964 H 466.508 0.239746 -0.696915 0
M  V30 4965 H 469.15 -0.073456 -1.89858 0
M  V30 4966 H 467.3 1.91799 -3.37854 0
M  V30 4967 H 468.972 -0.390119 -4.59647 0
M  V30 4968 H 467.215 -0.435972 -4.31604 0
M  V30 4969 H 467.886 0.717383 -5.47319 0
M  V30 4970 H 470.362 1.68273 -3.80557 0
M  V30 4971 H 469.238 2.61869 -4.82406 0
M  V30 4972 H 469.499 3.09764 -3.15434 0
M  V30 4973 N 468.558 1.5553 0.254621 0
M  V30 4974 C 469.521 1.88872 1.29846 0
M  V30 4975 C 470.521 0.764591 1.41459 0
M  V30 4976 O 471.711 1.03265 1.40293 0
M  V30 4977 C 468.843 2.11032 2.67728 0
M  V30 4978 H 470.036 2.82201 1.01502 0
M  V30 4979 H 467.589 1.48303 0.493556 0
M  V30 4980 H 468.324 1.20146 3.01223 0
M  V30 4981 H 468.109 2.92895 2.60682 0
M  V30 4982 H 469.599 2.38038 3.43115 0
M  V30 4983 N 470.036 -0.519951 1.48776 0
M  V30 4984 C 471.282 -1.27711 1.57536 0
M  V30 4985 C 471.615 -1.92547 0.252866 0
M  V30 4986 O 470.89 -1.7979 -0.742021 0
M  V30 4987 C 471.173 -2.35875 2.72094 0
M  V30 4988 C 471.026 -1.75664 4.1408 0
M  V30 4989 C 472.345 -3.37575 2.82367 0
M  V30 4990 H 469.464 -0.462971 0.573434 0
M  V30 4991 H 472.106 -0.578194 1.80989 0
M  V30 4992 H 470.256 -2.95488 2.52228 0
M  V30 4993 H 471.928 -1.20025 4.45412 0
M  V30 4994 H 470.171 -1.06154 4.20611 0
M  V30 4995 H 470.842 -2.54029 4.90075 0
M  V30 4996 H 473.318 -2.87929 3.00393 0
M  V30 4997 H 472.194 -4.1064 3.64233 0
M  V30 4998 H 472.455 -3.98743 1.90936 0
M  V30 4999 N 471.514 -1.37532 -0.769588 0
M  V30 5000 C 472.739 -1.36231 -1.56384 0
M  V30 5001 C 473.164 0.0495849 -1.88035 0
M  V30 5002 O 472.522 1.02723 -1.49391 0
M  V30 5003 C 472.57 -2.20986 -2.84952 0
M  V30 5004 O 471.674 -1.61597 -3.79421 0
M  V30 5005 H 471.015 -0.465387 -0.473615 0
M  V30 5006 H 473.545 -1.81085 -0.952342 0
M  V30 5007 H 473.555 -2.34277 -3.34034 0
M  V30 5008 H 472.23 -3.23612 -2.61243 0
M  V30 5009 H 470.807 -1.57359 -3.38072 0
M  V30 5010 N 472.992 0.995999 -1.22138 0
M  V30 5011 C 474.217 1.77601 -1.0711 0
M  V30 5012 C 474.642 1.84339 0.374264 0
M  V30 5013 O 474 1.29359 1.27028 0
M  V30 5014 C 474.048 3.18897 -1.68336 0
M  V30 5015 O 473.152 4.01663 -0.934928 0
M  V30 5016 H 472.493 0.547011 -0.376397 0
M  V30 5017 H 475.023 1.25137 -1.6187 0
M  V30 5018 H 475.033 3.69539 -1.72931 0
M  V30 5019 H 473.708 3.13308 -2.73516 0
M  V30 5020 H 472.285 3.60204 -0.964751 0
M  V30 5021 N 474.47 1.03057 1.19235 0
M  V30 5022 C 475.38 0.622922 2.26179 0
M  V30 5023 C 476.396 -0.346113 1.70523 0
M  V30 5024 O 477.572 -0.203572 2.00369 0
M  V30 5025 C 474.637 -0.0182063 3.46695 0
M  V30 5026 C 473.698 0.998546 4.17526 0
M  V30 5027 C 472.931 0.387917 5.32288 0
M  V30 5028 O 473.154 -0.808668 5.64639 0
M  V30 5029 O 472.088 1.1116 5.91546 0
M  V30 5030 H 475.914 1.51363 2.63292 0
M  V30 5031 H 473.499 0.800856 1.26122 0
M  V30 5032 H 475.381 -0.375606 4.19723 0
M  V30 5033 H 474.056 -0.882895 3.11427 0
M  V30 5034 H 472.963 1.40756 3.4661 0
M  V30 5035 H 474.296 1.83366 4.56769 0
M  V30 5036 N 475.948 -1.35272 0.808662 0
M  V30 5037 C 476.858 -2.33546 0.222079 0
M  V30 5038 C 477.874 -1.6196 -0.636011 0
M  V30 5039 O 479.05 -1.93822 -0.547274 0
M  V30 5040 C 476.115 -3.41148 -0.61795 0
M  V30 5041 C 475.176 -4.28507 0.260875 0
M  V30 5042 C 474.409 -5.3097 -0.539156 0
M  V30 5043 O 474.632 -5.42123 -1.77367 0
M  V30 5044 O 473.566 -6.01858 0.0710526 0
M  V30 5045 H 477.392 -2.85515 1.03512 0
M  V30 5046 H 474.977 -1.38079 0.570495 0
M  V30 5047 H 476.859 -4.06889 -1.09634 0
M  V30 5048 H 475.534 -2.91447 -1.40855 0
M  V30 5049 H 474.441 -3.6574 0.786451 0
M  V30 5050 H 475.774 -4.81611 1.01547 0
M  V30 5051 N 477.426 -0.562348 -1.47226 0
M  V30 5052 C 478.356 0.170627 -2.32876 0
M  V30 5053 C 479.337 0.903748 -1.44106 0
M  V30 5054 O 480.522 0.883206 -1.72954 0
M  V30 5055 C 477.652 1.19786 -3.25989 0
M  V30 5056 C 476.606 0.580875 -4.2404 0
M  V30 5057 C 475.932 1.71311 -5.06514 0
M  V30 5058 C 477.232 -0.468714 -5.20193 0
M  V30 5059 H 478.926 -0.544441 -2.94408 0
M  V30 5060 H 476.472 -0.263271 -1.41573 0
M  V30 5061 H 478.425 1.71884 -3.84752 0
M  V30 5062 H 477.149 1.94294 -2.62521 0
M  V30 5063 H 475.808 0.0811538 -3.6651 0
M  V30 5064 H 475.456 2.44736 -4.39447 0
M  V30 5065 H 475.156 1.30604 -5.72902 0
M  V30 5066 H 476.68 2.23725 -5.68137 0
M  V30 5067 H 478.094 -0.0336028 -5.7329 0
M  V30 5068 H 476.491 -0.794957 -5.94811 0
M  V30 5069 H 477.561 -1.36269 -4.65359 0
M  V30 5070 N 478.904 1.54736 -0.299062 0
M  V30 5071 C 479.814 2.27127 0.587413 0
M  V30 5072 C 480.83 1.30575 1.15005 0
M  V30 5073 O 482.006 1.63554 1.17525 0
M  V30 5074 C 479.071 2.99645 1.74395 0
M  V30 5075 C 478.132 4.11731 1.21559 0
M  V30 5076 C 477.365 4.80781 2.317 0
M  V30 5077 O 477.588 4.4918 3.51558 0
M  V30 5078 O 476.522 5.68226 1.98501 0
M  V30 5079 H 480.348 3.037 0.000250109 0
M  V30 5080 H 477.933 1.49256 -0.0655919 0
M  V30 5081 H 479.815 3.45138 2.4178 0
M  V30 5082 H 478.49 2.25969 2.31775 0
M  V30 5083 H 477.397 3.70641 0.507514 0
M  V30 5084 H 478.73 4.87379 0.687233 0
M  V30 5085 N 480.382 0.0267497 1.57577 0
M  V30 5086 C 481.329 -0.955894 2.10075 0
M  V30 5087 C 482.299 -1.32453 1.00226 0
M  V30 5088 O 483.484 -1.41826 1.27632 0
M  V30 5089 C 480.624 -2.2338 2.6305 0
M  V30 5090 C 479.737 -1.92183 3.86898 0
M  V30 5091 C 478.872 -3.14251 4.28275 0
M  V30 5092 C 477.911 -2.78862 5.44888 0
M  V30 5093 N 477.048 -3.93548 5.81433 0
M  V30 5094 H 481.888 -0.501303 2.93753 0
M  V30 5095 H 479.425 -0.235847 1.45197 0
M  V30 5096 H 481.383 -2.98124 2.91853 0
M  V30 5097 H 480.013 -2.6646 1.82205 0
M  V30 5098 H 479.065 -1.07692 3.64838 0
M  V30 5099 H 480.377 -1.62117 4.7172 0
M  V30 5100 H 479.531 -3.97317 4.58502 0
M  V30 5101 H 478.27 -3.47476 3.42215 0
M  V30 5102 H 477.275 -1.94208 5.14357 0
M  V30 5103 H 478.5 -2.46855 6.32645 0
M  V30 5104 H 476.446 -4.2662 4.98328 0
M  V30 5105 H 476.363 -3.67098 6.6089 0
M  V30 5106 H 477.631 -4.77325 6.16264 0
M  V30 5107 N 481.861 -1.55662 -0.24637 0
M  V30 5108 C 483.107 -1.78698 -0.971525 0
M  V30 5109 C 483.462 -0.59577 -1.82944 0
M  V30 5110 O 482.755 0.41097 -1.87141 0
M  V30 5111 C 482.949 -3.04885 -1.86494 0
M  V30 5112 C 482.778 -4.36165 -1.09501 0
M  V30 5113 C 481.548 -4.98929 -0.799895 0
M  V30 5114 C 483.746 -5.12126 -0.472334 0
M  V30 5115 N 481.728 -6.139 -0.00595299 0
M  V30 5116 C 483.099 -6.1972 0.18616 0
M  V30 5117 C 485.154 -4.96426 -0.382854 0
M  V30 5118 C 483.857 -7.13321 0.925542 0
M  V30 5119 C 485.883 -5.90405 0.342999 0
M  V30 5120 C 485.245 -6.97407 0.990128 0
M  V30 5121 H 481.344 -0.705852 -0.336597 0
M  V30 5122 H 483.928 -1.93157 -0.244615 0
M  V30 5123 H 482.099 -2.91753 -2.56388 0
M  V30 5124 H 483.831 -3.16212 -2.5257 0
M  V30 5125 H 480.586 -4.60365 -1.11181 0
M  V30 5126 H 481.01 -6.75938 0.379127 0
M  V30 5127 H 485.652 -4.13777 -0.868834 0
M  V30 5128 H 483.37 -7.9547 1.42312 0
M  V30 5129 H 486.956 -5.80333 0.412907 0
M  V30 5130 H 485.836 -7.68874 1.54282 0
M  V30 5131 N 483.339 0.512053 -1.4905 0
M  V30 5132 C 484.585 1.26874 -1.58212 0
M  V30 5133 C 484.918 1.9241 -0.263073 0
M  V30 5134 O 484.193 1.80181 0.732476 0
M  V30 5135 C 484.476 2.34428 -2.73341 0
M  V30 5136 C 484.329 1.73466 -4.15006 0
M  V30 5137 C 485.648 3.36073 -2.84154 0
M  V30 5138 H 482.767 0.459924 -0.575881 0
M  V30 5139 H 485.409 0.568587 -1.81293 0
M  V30 5140 H 483.559 2.94146 -2.53792 0
M  V30 5141 H 485.231 1.17661 -4.46042 0
M  V30 5142 H 483.474 1.03921 -4.21168 0
M  V30 5143 H 484.145 2.51426 -4.91415 0
M  V30 5144 H 486.621 2.86332 -3.01916 0
M  V30 5145 H 485.497 4.08703 -3.66406 0
M  V30 5146 H 485.758 3.97725 -1.93048 0
M  V30 5147 N 484.817 1.37938 0.762283 0
M  V30 5148 C 485.727 1.36681 1.90671 0
M  V30 5149 C 486.743 0.265078 1.71969 0
M  V30 5150 O 487.919 0.502055 1.95042 0
M  V30 5151 C 484.984 1.18211 3.25925 0
M  V30 5152 C 484.045 2.3811 3.57214 0
M  V30 5153 C 483.278 2.20512 4.86014 0
M  V30 5154 O 483.501 1.19429 5.57757 0
M  V30 5155 O 482.435 3.08911 5.16583 0
M  V30 5156 H 486.261 2.33091 1.94685 0
M  V30 5157 H 483.846 1.18767 0.906356 0
M  V30 5158 H 485.728 1.09937 4.06807 0
M  V30 5159 H 484.403 0.248807 3.22742 0
M  V30 5160 H 483.31 2.51958 2.76529 0
M  V30 5161 H 484.643 3.30041 3.65149 0
M  V30 5162 N 486.295 -0.989507 1.22664 0
M  V30 5163 C 487.242 -2.08024 0.999733 0
M  V30 5164 C 488.212 -1.65909 -0.0797047 0
M  V30 5165 O 489.397 -1.90669 0.0705715 0
M  V30 5166 C 486.537 -3.40067 0.587234 0
M  V30 5167 C 485.65 -3.95505 1.73781 0
M  V30 5168 C 484.785 -5.15722 1.27297 0
M  V30 5169 C 483.824 -5.63305 2.39488 0
M  V30 5170 N 482.961 -6.74758 1.94026 0
M  V30 5171 H 487.801 -2.26768 1.9334 0
M  V30 5172 H 485.338 -1.11171 0.963297 0
M  V30 5173 H 487.296 -4.15899 0.329227 0
M  V30 5174 H 485.926 -3.21314 -0.309426 0
M  V30 5175 H 484.978 -3.16513 2.11006 0
M  V30 5176 H 486.29 -4.26797 2.58158 0
M  V30 5177 H 485.444 -5.98854 0.972546 0
M  V30 5178 H 484.183 -4.86061 0.399445 0
M  V30 5179 H 483.188 -4.78759 2.70315 0
M  V30 5180 H 484.413 -5.94988 3.27362 0
M  V30 5181 H 482.359 -6.46874 1.09041 0
M  V30 5182 H 482.276 -7.05386 2.71968 0
M  V30 5183 H 483.544 -7.61387 1.67062 0
M  V30 5184 N 487.773 -1.03688 -1.18687 0
M  V30 5185 C 489.021 -0.736572 -1.88199 0
M  V30 5186 C 489.342 0.737665 -1.80509 0
M  V30 5187 O 488.612 1.53204 -1.22088 0
M  V30 5188 H 487.192 -0.269466 -0.696704 0
M  V30 5189 H 489.854 -1.31282 -1.44052 0
M  V30 5190 H 488.95 -1.03802 -2.94332 0
M  V30 5191 N 489.251 1.34841 -0.815825 0
M  V30 5192 C 490.476 2.03261 -0.41226 0
M  V30 5193 C 490.901 1.61055 0.971751 0
M  V30 5194 O 490.259 0.7917 1.63101 0
M  V30 5195 C 490.307 3.56914 -0.514289 0
M  V30 5196 O 489.411 4.09728 0.468675 0
M  V30 5197 H 488.752 0.641664 -0.170771 0
M  V30 5198 H 491.282 1.72241 -1.10427 0
M  V30 5199 H 491.292 4.06156 -0.387457 0
M  V30 5200 H 489.967 3.86982 -1.52375 0
M  V30 5201 H 488.544 3.71681 0.301316 0
M  V30 5202 N 490.729 0.570148 1.46925 0
M  V30 5203 C 492.145 0.23087 1.57921 0
M  V30 5204 C 492.345 -1.26676 1.56702 0
M  V30 5205 O 491.401 -2.04774 1.47729 0
M  V30 5206 C 492.714 0.868973 2.8787 0
M  V30 5207 C 494.262 0.841397 3.01479 0
M  V30 5208 C 494.737 1.45881 4.34146 0
M  V30 5209 N 496.228 1.42258 4.40814 0
M  V30 5210 C 496.963 1.8698 5.42057 0
M  V30 5211 N 496.459 2.39618 6.50042 0
M  V30 5212 N 498.252 1.77972 5.33181 0
M  V30 5213 H 490.403 1.54301 1.45962 0
M  V30 5214 H 492.666 0.644224 0.69547 0
M  V30 5215 H 492.372 1.922 2.94537 0
M  V30 5216 H 492.246 0.369682 3.75384 0
M  V30 5217 H 494.633 -0.202973 2.94401 0
M  V30 5218 H 494.714 1.37858 2.15474 0
M  V30 5219 H 494.358 2.50231 4.4198 0
M  V30 5220 H 494.288 0.896958 5.18905 0
M  V30 5221 H 496.779 1.03768 3.63374 0
M  V30 5222 H 497.092 2.71633 7.23488 0
M  V30 5223 H 495.437 2.43636 6.50897 0
M  V30 5224 H 498.628 1.36617 4.4772 0
M  V30 5225 H 498.801 2.13143 6.11943 0
M  V30 5226 N 492.207 -1.54576 0.307264 0
M  V30 5227 C 493.17 -2.22423 -0.553224 0
M  V30 5228 C 494.17 -1.21231 -1.05639 0
M  V30 5229 O 495.36 -1.45923 -0.951419 0
M  V30 5230 C 492.492 -2.91552 -1.76664 0
M  V30 5231 H 493.685 -2.99874 0.0396484 0
M  V30 5232 H 491.238 -1.56192 0.0581629 0
M  V30 5233 H 491.973 -2.18196 -2.39918 0
M  V30 5234 H 491.758 -3.65738 -1.41343 0
M  V30 5235 H 493.248 -3.43292 -2.37783 0
M  V30 5236 N 493.685 -0.035106 -1.57561 0
M  V30 5237 C 494.632 0.94474 -2.10578 0
M  V30 5238 C 495.602 1.3192 -1.00927 0
M  V30 5239 O 496.787 1.41147 -1.28382 0
M  V30 5240 C 493.927 2.21982 -2.64231 0
M  V30 5241 C 493.04 1.90128 -3.87911 0
M  V30 5242 C 492.175 3.11975 -4.29936 0
M  V30 5243 C 491.214 2.75968 -5.46359 0
M  V30 5244 N 490.351 3.90459 -5.83512 0
M  V30 5245 H 495.191 0.485717 -2.94015 0
M  V30 5246 H 492.728 0.228143 -1.4532 0
M  V30 5247 H 494.686 2.96572 -2.9343 0
M  V30 5248 H 493.316 2.6549 -1.83616 0
M  V30 5249 H 492.368 1.05755 -3.65404 0
M  V30 5250 H 493.68 1.59613 -4.72573 0
M  V30 5251 H 492.834 3.9488 -4.60603 0
M  V30 5252 H 491.573 3.45657 -3.44053 0
M  V30 5253 H 490.578 1.91478 -5.1538 0
M  V30 5254 H 491.803 2.43497 -6.33945 0
M  V30 5255 H 489.749 4.23971 -5.00584 0
M  V30 5256 H 489.666 3.63588 -6.62827 0
M  V30 5257 H 490.934 4.7405 -6.18787 0
M  V30 5258 N 495.163 1.55791 0.238111 0
M  V30 5259 C 496.113 1.87444 1.29803 0
M  V30 5260 C 497.097 0.736043 1.43078 0
M  V30 5261 O 498.289 0.998146 1.46171 0
M  V30 5262 C 495.418 2.18028 2.65177 0
M  V30 5263 C 494.504 3.38217 2.55871 0
M  V30 5264 N 494.895 4.57264 2.16202 0
M  V30 5265 C 493.193 3.41502 2.86866 0
M  V30 5266 C 493.894 5.3941 2.17744 0
M  V30 5267 N 492.87 4.78695 2.57589 0
M  V30 5268 H 496.672 2.7701 0.981965 0
M  V30 5269 H 494.186 1.56135 0.44672 0
M  V30 5270 H 496.183 2.38873 3.4168 0
M  V30 5271 H 494.843 1.29765 2.97643 0
M  V30 5272 H 495.854 4.82727 1.87602 0
M  V30 5273 H 492.531 2.63536 3.23813 0
M  V30 5274 H 493.921 6.44671 1.89339 0
M  V30 5275 N 496.642 -0.504142 1.49319 0
M  V30 5276 C 497.572 -1.61473 1.68667 0
M  V30 5277 C 498.553 -1.61455 0.535378 0
M  V30 5278 O 499.738 -1.78245 0.770868 0
M  V30 5279 C 496.868 -2.99971 1.75028 0
M  V30 5280 C 495.822 -3.14854 2.89916 0
M  V30 5281 C 495.148 -4.54671 2.81387 0
M  V30 5282 C 496.448 -2.95176 4.30893 0
M  V30 5283 H 498.142 -1.45535 2.61648 0
M  V30 5284 H 495.688 -0.698711 1.25913 0
M  V30 5285 H 497.641 -3.77562 1.8715 0
M  V30 5286 H 496.365 -3.1699 0.786441 0
M  V30 5287 H 495.024 -2.39687 2.77391 0
M  V30 5288 H 494.672 -4.68562 1.82917 0
M  V30 5289 H 494.372 -4.6557 3.58494 0
M  V30 5290 H 495.896 -5.34327 2.95512 0
M  V30 5291 H 497.31 -3.62538 4.44116 0
M  V30 5292 H 495.707 -3.17549 5.09198 0
M  V30 5293 H 496.777 -1.91332 4.45556 0
M  V30 5294 N 498.12 -1.38341 -0.754957 0
M  V30 5295 C 499.067 -1.3546 -1.86867 0
M  V30 5296 C 500.037 -0.217369 -1.64672 0
M  V30 5297 O 501.222 -0.409383 -1.86356 0
M  V30 5298 C 498.362 -1.18413 -3.24149 0
M  V30 5299 C 497.475 -2.41511 -3.58185 0
M  V30 5300 C 496.61 -2.17205 -4.84763 0
M  V30 5301 C 495.649 -3.36081 -5.11582 0
M  V30 5302 N 494.786 -3.11219 -6.29354 0
M  V30 5303 H 499.626 -2.30672 -1.88664 0
M  V30 5304 H 497.163 -1.14607 -0.922154 0
M  V30 5305 H 499.121 -1.06545 -4.03366 0
M  V30 5306 H 497.751 -0.268397 -3.21682 0
M  V30 5307 H 496.803 -2.64056 -2.73822 0
M  V30 5308 H 498.115 -3.30115 -3.73932 0
M  V30 5309 H 497.269 -2.02465 -5.7192 0
M  V30 5310 H 496.008 -1.25964 -4.71152 0
M  V30 5311 H 495.013 -3.51341 -4.22894 0
M  V30 5312 H 496.238 -4.28196 -5.27091 0
M  V30 5313 H 494.184 -2.22624 -6.17069 0
M  V30 5314 H 494.101 -3.93373 -6.45596 0
M  V30 5315 H 495.369 -3.00132 -7.19403 0
M  V30 5316 N 499.598 0.982988 -1.23187 0
M  V30 5317 C 500.546 2.09616 -1.00817 0
M  V30 5318 C 501.54 1.6932 0.0519995 0
M  V30 5319 O 502.746 1.79715 -0.101284 0
M  V30 5320 H 499.121 0.685628 -0.308899 0
M  V30 5321 H 501.092 2.25652 -1.95253 0
M  V30 5322 C 499.841 3.42249 -0.613243 0
M  V30 5323 H 499.164 3.73705 -1.42073 0
M  V30 5324 H 500.604 4.21086 -0.496208 0
M  V30 5325 C 499.063 3.30002 0.678233 0
M  V30 5326 O 499.593 3.6263 1.72807 0
M  V30 5327 N 497.799 2.83164 0.653165 0
M  V30 5328 H 497.346 2.56811 -0.201492 0
M  V30 5329 H 497.304 2.75352 1.51752 0
M  V30 5330 N 501.076 1.04316 1.18135 0
M  V30 5331 C 502.304 0.768117 1.92113 0
M  V30 5332 C 502.719 -0.675057 1.76319 0
M  V30 5333 O 502.076 -1.46038 1.09449 0
M  V30 5334 C 502.127 1.12808 3.43448 0
M  V30 5335 O 501.848 2.5146 3.58747 0
M  V30 5336 C 503.349 0.8779 4.3452 0
M  V30 5337 H 500.569 0.279937 0.609817 0
M  V30 5338 H 503.113 1.39149 1.49859 0
M  V30 5339 H 501.268 0.549623 3.83481 0
M  V30 5340 H 501.682 2.65313 4.52448 0
M  V30 5341 H 503.156 1.17959 5.39249 0
M  V30 5342 H 503.633 -0.187239 4.38801 0
M  V30 5343 H 504.239 1.43977 4.00188 0
M  V30 5344 N 502.554 -1.34406 0.822964 0
M  V30 5345 C 503.965 -1.8069 0.469879 0
M  V30 5346 C 504.316 -1.68223 -1.00972 0
M  V30 5347 O 503.441 -1.22226 -1.78577 0
M  V30 5348 C 504.036 -3.28064 0.846118 0
M  V30 5349 C 502.595 -3.72428 0.545402 0
M  V30 5350 C 501.742 -2.56116 1.06301 0
M  V30 5351 H 504.693 -1.22153 1.01313 0
M  V30 5352 H 504.714 -3.80205 0.149922 0
M  V30 5353 H 504.226 -3.37107 1.92304 0
M  V30 5354 H 502.327 -3.68924 -0.522109 0
M  V30 5355 H 502.44 -4.66548 1.0895 0
M  V30 5356 H 500.804 -2.50048 0.484554 0
M  V30 5357 H 501.587 -2.67928 2.14638 0
M  V30 5358 N 504.032 -0.577932 -1.46621 0
M  V30 5359 C 505.28 -0.061566 -2.02006 0
M  V30 5360 C 505.601 1.30117 -1.4524 0
M  V30 5361 O 504.871 1.85313 -0.63529 0
M  V30 5362 H 503.451 -0.0197692 -0.746738 0
M  V30 5363 H 506.113 -0.752631 -1.79782 0
M  V30 5364 H 505.209 0.0110238 -3.12098 0
M  V30 5365 N 505.51 1.54411 -0.315457 0
M  V30 5366 C 506.738 2.04833 0.291738 0
M  V30 5367 C 507.153 1.19203 1.46411 0
M  V30 5368 O 506.51 0.220867 1.81159 0
M  V30 5369 C 506.561 3.53969 0.73404 0
M  V30 5370 O 506.282 4.36346 -0.391682 0
M  V30 5371 C 507.783 4.2045 1.40489 0
M  V30 5372 H 505.003 0.668195 0.0612947 0
M  V30 5373 H 507.547 1.99276 -0.45929 0
M  V30 5374 H 505.702 3.5984 1.43506 0
M  V30 5375 H 506.116 5.24481 -0.0447088 0
M  V30 5376 H 507.59 5.26278 1.66539 0
M  V30 5377 H 508.067 3.71067 2.3496 0
M  V30 5378 H 508.673 4.18694 0.746662 0
M  V30 5379 N 506.988 0.0434614 1.5754 0
M  V30 5380 C 508.235 -0.632035 1.92384 0
M  V30 5381 C 508.563 -1.71304 0.921157 0
M  V30 5382 O 507.818 -1.95583 -0.067744 0
M  V30 5383 C 508.117 -1.2738 3.3393 0
M  V30 5384 C 507.783 -0.321757 4.49751 0
M  V30 5385 C 506.445 -0.0597611 4.81163 0
M  V30 5386 C 508.797 0.331158 5.20147 0
M  V30 5387 C 506.125 0.862715 5.80322 0
M  V30 5388 C 508.477 1.24178 6.20292 0
M  V30 5389 C 507.141 1.51252 6.50138 0
M  V30 5390 H 506.411 -0.231278 0.703983 0
M  V30 5391 H 509.058 0.108294 1.91194 0
M  V30 5392 H 507.363 -2.08921 3.3145 0
M  V30 5393 H 509.06 -1.80326 3.58167 0
M  V30 5394 H 505.65 -0.53614 4.25233 0
M  V30 5395 H 509.834 0.141826 4.96097 0
M  V30 5396 H 505.09 1.08003 6.01785 0
M  V30 5397 H 509.264 1.75381 6.73954 0
M  V30 5398 H 506.891 2.22897 7.26788 0
M  V30 5399 N 508.466 -1.55915 -0.229846 0
M  V30 5400 C 509.694 -1.82617 -0.972562 0
M  V30 5401 C 510.109 -0.621488 -1.78278 0
M  V30 5402 O 509.466 0.409956 -1.77836 0
M  V30 5403 C 509.517 -3.0774 -1.89679 0
M  V30 5404 O 509.238 -4.23559 -1.11934 0
M  V30 5405 C 510.739 -3.47368 -2.75409 0
M  V30 5406 H 507.959 -0.60727 -0.285419 0
M  V30 5407 H 510.503 -2.02996 -0.247579 0
M  V30 5408 H 508.658 -2.89361 -2.57583 0
M  V30 5409 H 509.072 -4.94586 -1.74599 0
M  V30 5410 H 510.546 -4.37977 -3.35977 0
M  V30 5411 H 511.023 -2.68737 -3.47386 0
M  V30 5412 H 511.629 -3.68158 -2.12931 0
M  V30 5413 N 509.944 0.496216 -1.49584 0
M  V30 5414 C 511.355 1.07765 -1.52459 0
M  V30 5415 C 511.706 1.93679 -0.31353 0
M  V30 5416 O 510.831 2.08588 0.576186 0
M  V30 5417 C 511.426 1.96111 -2.76271 0
M  V30 5418 C 509.985 2.49409 -2.81908 0
M  V30 5419 C 509.132 1.27142 -2.46435 0
M  V30 5420 H 512.083 0.279914 -1.56212 0
M  V30 5421 H 512.104 2.80862 -2.56704 0
M  V30 5422 H 511.616 1.33555 -3.64396 0
M  V30 5423 H 509.717 3.1559 -1.98074 0
M  V30 5424 H 509.83 2.86234 -3.84196 0
M  V30 5425 H 508.194 1.59818 -1.98319 0
M  V30 5426 H 508.977 0.662866 -3.3684 0
M  V30 5427 N 511.423 1.38739 0.74761 0
M  V30 5428 C 512.333 1.38696 1.89211 0
M  V30 5429 C 513.349 0.283303 1.71678 0
M  V30 5430 O 514.525 0.522713 1.94498 0
M  V30 5431 C 511.59 1.21662 3.24653 0
M  V30 5432 C 510.651 2.41886 3.54669 0
M  V30 5433 C 509.884 2.25655 4.83648 0
M  V30 5434 O 510.107 1.25339 5.56459 0
M  V30 5435 O 509.041 3.14372 5.13277 0
M  V30 5436 H 512.867 2.35143 1.92202 0
M  V30 5437 H 510.452 1.19721 0.893708 0
M  V30 5438 H 512.334 1.14246 4.05618 0
M  V30 5439 H 511.009 0.283024 3.2246 0
M  V30 5440 H 509.916 2.54877 2.73841 0
M  V30 5441 H 511.249 3.33895 3.61628 0
M  V30 5442 N 512.901 -0.976442 1.23707 0
M  V30 5443 C 513.848 -2.06952 1.02174 0
M  V30 5444 C 514.818 -1.65984 -0.0621034 0
M  V30 5445 O 516.003 -1.90584 0.0907906 0
M  V30 5446 C 513.143 -3.39425 0.62327 0
M  V30 5447 C 512.256 -3.9364 1.77966 0
M  V30 5448 C 511.391 -5.14343 1.3276 0
M  V30 5449 C 510.43 -5.60733 2.45449 0
M  V30 5450 N 509.567 -6.72662 2.01172 0
M  V30 5451 H 514.407 -2.24704 1.95734 0
M  V30 5452 H 511.944 -1.10143 0.975034 0
M  V30 5453 H 513.902 -4.15526 0.37332 0
M  V30 5454 H 512.532 -3.21624 -0.275329 0
M  V30 5455 H 511.584 -3.14258 2.14351 0
M  V30 5456 H 512.896 -4.24035 2.62671 0
M  V30 5457 H 512.05 -5.97789 1.03601 0
M  V30 5458 H 510.789 -4.8561 0.450975 0
M  V30 5459 H 509.794 -4.75865 2.75378 0
M  V30 5460 H 511.019 -5.91483 3.33654 0
M  V30 5461 H 508.965 -6.45681 1.15895 0
M  V30 5462 H 508.882 -7.02462 2.79434 0
M  V30 5463 H 510.15 -7.59572 1.75129 0
M  V30 5464 N 514.379 -1.04941 -1.1758 0
M  V30 5465 C 515.628 -0.753124 -1.87112 0
M  V30 5466 C 515.941 0.722507 -1.81767 0
M  V30 5467 O 517.147 1.13265 -2.46746 0
M  V30 5468 C 515.603 -1.29695 -3.35719 0
M  V30 5469 C 515.211 -2.80184 -3.49572 0
M  V30 5470 C 516.955 -1.07759 -4.10595 0
M  V30 5471 C 514.862 -3.2788 -4.92187 0
M  V30 5472 H 513.792 -0.278034 -0.700866 0
M  V30 5473 H 516.443 -1.26637 -1.32798 0
M  V30 5474 H 514.825 -0.711522 -3.89555 0
M  V30 5475 H 515.999 -3.44561 -3.05965 0
M  V30 5476 H 514.314 -3.00632 -2.88113 0
M  V30 5477 H 516.911 -1.40899 -5.15802 0
M  V30 5478 H 517.254 -0.0152302 -4.16297 0
M  V30 5479 H 517.787 -1.62809 -3.62957 0
M  V30 5480 H 514.526 -4.33535 -4.91658 0
M  V30 5481 H 514.046 -2.68245 -5.36475 0
M  V30 5482 H 515.725 -3.22412 -5.60945 0
M  V30 5483 N 515.857 1.33968 -0.830081 0
M  V30 5484 C 517.273 1.51003 -0.516742 0
M  V30 5485 C 517.473 1.77286 0.957694 0
M  V30 5486 O 516.529 1.82797 1.74188 0
M  V30 5487 C 517.842 2.67036 -1.38247 0
M  V30 5488 C 519.39 2.80919 -1.38034 0
M  V30 5489 C 519.865 4.00004 -2.23071 0
M  V30 5490 N 521.356 4.07224 -2.20733 0
M  V30 5491 C 522.091 4.98541 -2.83275 0
M  V30 5492 N 521.587 5.95033 -3.54835 0
M  V30 5493 N 523.38 4.91469 -2.72791 0
M  V30 5494 H 515.531 1.15168 -1.78466 0
M  V30 5495 H 517.794 0.565443 -0.760906 0
M  V30 5496 H 517.5 2.54266 -2.42985 0
M  V30 5497 H 517.374 3.62226 -1.05225 0
M  V30 5498 H 519.761 2.93127 -0.340713 0
M  V30 5499 H 519.842 1.86517 -1.75057 0
M  V30 5500 H 519.486 3.88557 -3.27087 0
M  V30 5501 H 519.416 4.93634 -1.83394 0
M  V30 5502 H 521.907 3.38162 -1.68687 0
M  V30 5503 H 522.22 6.61357 -3.99784 0
M  V30 5504 H 520.565 5.95135 -3.58942 0
M  V30 5505 H 523.756 4.15048 -2.16456 0
M  V30 5506 H 523.929 5.62439 -3.21818 0
M  V30 5507 N 517.335 0.585699 1.46312 0
M  V30 5508 C 518.283 -0.158577 2.32059 0
M  V30 5509 C 519.277 -0.881427 1.44662 0
M  V30 5510 O 520.483 -0.799476 1.61271 0
M  V30 5511 H 516.858 -0.0700066 0.748734 0
M  V30 5512 H 518.829 0.583383 2.92642 0
M  V30 5513 C 517.578 -1.15701 3.27885 0
M  V30 5514 H 516.901 -0.610215 3.95116 0
M  V30 5515 H 518.341 -1.64812 3.90657 0
M  V30 5516 C 516.8 -2.21951 2.53455 0
M  V30 5517 O 517.33 -3.29352 2.29978 0
M  V30 5518 N 515.536 -1.9664 2.13965 0
M  V30 5519 H 515.083 -1.09309 2.33258 0
M  V30 5520 H 515.041 -2.6794 1.64485 0
M  V30 5521 N 518.813 -1.54241 0.323641 0
M  V30 5522 C 520.062 -1.9975 -0.279806 0
M  V30 5523 C 520.375 -1.2156 -1.5324 0
M  V30 5524 O 521.581 -1.57447 -2.21185 0
M  V30 5525 C 520.037 -3.55686 -0.549115 0
M  V30 5526 C 519.645 -4.4271 0.686432 0
M  V30 5527 C 521.389 -4.09663 -1.11251 0
M  V30 5528 C 519.296 -5.90119 0.389022 0
M  V30 5529 H 518.226 -0.746177 -0.10833 0
M  V30 5530 H 520.877 -1.78248 0.435877 0
M  V30 5531 H 519.259 -3.73176 -1.32499 0
M  V30 5532 H 520.433 -4.36996 1.46188 0
M  V30 5533 H 518.748 -3.99623 1.17005 0
M  V30 5534 H 521.345 -5.17386 -1.34965 0
M  V30 5535 H 521.688 -3.61651 -2.06191 0
M  V30 5536 H 522.221 -3.95806 -0.39782 0
M  V30 5537 H 518.96 -6.42326 1.30759 0
M  V30 5538 H 518.48 -5.98785 -0.348722 0
M  V30 5539 H 520.159 -6.47 -0.0011164 0
M  V30 5540 N 520.291 -0.0518155 -1.57515 0
M  V30 5541 C 521.521 0.63048 -1.96745 0
M  V30 5542 C 521.929 1.64875 -0.928054 0
M  V30 5543 O 521.272 1.83449 0.0960678 0
M  V30 5544 C 521.334 1.37381 -3.32215 0
M  V30 5545 C 520.998 0.511298 -4.54131 0
M  V30 5546 C 521.995 -0.222884 -5.19422 0
M  V30 5547 C 519.68 0.442035 -5.00351 0
M  V30 5548 C 521.674 -1.01476 -6.2927 0
M  V30 5549 C 519.361 -0.35353 -6.10077 0
M  V30 5550 C 520.359 -1.08062 -6.74397 0
M  V30 5551 O 520.047 -1.8631 -7.82013 0
M  V30 5552 H 519.779 0.177126 -0.652382 0
M  V30 5553 H 522.333 -0.114726 -2.05079 0
M  V30 5554 H 520.563 2.16466 -3.20436 0
M  V30 5555 H 522.252 1.9464 -3.56188 0
M  V30 5556 H 523.018 -0.178846 -4.8467 0
M  V30 5557 H 518.897 0.997562 -4.50077 0
M  V30 5558 H 522.441 -1.58279 -6.79407 0
M  V30 5559 H 518.338 -0.399205 -6.44264 0
M  V30 5560 H 519.106 -1.78528 -7.98793 0
M  V30 5561 N 521.769 1.56035 0.221574 0
M  V30 5562 C 523.185 1.49026 0.571271 0
M  V30 5563 C 523.385 0.746912 1.87146 0
M  V30 5564 O 522.441 0.286566 2.50869 0
M  V30 5565 C 523.754 2.93579 0.650522 0
M  V30 5566 C 525.302 3.04099 0.741151 0
M  V30 5567 C 525.777 4.5001 0.851747 0
M  V30 5568 N 527.268 4.54053 0.915968 0
M  V30 5569 C 528.003 5.64232 1.02125 0
M  V30 5570 N 527.499 6.84164 1.09049 0
M  V30 5571 N 529.292 5.52084 1.05639 0
M  V30 5572 H 521.443 2.02791 -0.63162 0
M  V30 5573 H 523.706 0.921736 -0.221602 0
M  V30 5574 H 523.412 3.50912 -0.235253 0
M  V30 5575 H 523.286 3.45476 1.51413 0
M  V30 5576 H 525.673 2.4683 1.61737 0
M  V30 5577 H 525.754 2.55371 -0.148128 0
M  V30 5578 H 525.398 5.07896 -0.0200117 0
M  V30 5579 H 525.328 4.96444 1.75644 0
M  V30 5580 H 527.819 3.67683 0.872782 0
M  V30 5581 H 528.132 7.63883 1.1706 0
M  V30 5582 H 526.477 6.86875 1.05962 0
M  V30 5583 H 529.668 4.57317 0.998953 0
M  V30 5584 H 529.841 6.37983 1.13498 0
M  V30 5585 N 523.247 -0.488276 1.49845 0
M  V30 5586 C 524.157 -1.61451 1.70207 0
M  V30 5587 C 525.173 -1.63877 0.584846 0
M  V30 5588 O 526.349 -1.82063 0.861107 0
M  V30 5589 C 523.414 -2.9776 1.77594 0
M  V30 5590 C 522.475 -3.05861 3.01243 0
M  V30 5591 C 521.708 -4.35668 3.08268 0
M  V30 5592 O 521.931 -5.25197 2.22541 0
M  V30 5593 O 520.865 -4.49005 4.00847 0
M  V30 5594 H 524.691 -1.47199 2.65643 0
M  V30 5595 H 522.276 -0.665939 1.33737 0
M  V30 5596 H 524.158 -3.7875 1.84732 0
M  V30 5597 H 522.833 -3.12248 0.8534 0
M  V30 5598 H 521.74 -2.24012 2.99616 0
M  V30 5599 H 523.073 -2.96304 3.9302 0
M  V30 5600 N 524.725 -1.39134 -0.740242 0
M  V30 5601 C 525.688 -1.37217 -1.83587 0
M  V30 5602 C 526.688 -0.270221 -1.58513 0
M  V30 5603 O 527.878 -0.527843 -1.6601 0
M  V30 5604 C 525.01 -1.13959 -3.21288 0
M  V30 5605 H 526.203 -2.34705 -1.86691 0
M  V30 5606 H 523.756 -1.24622 -0.94335 0
M  V30 5607 H 524.491 -0.17131 -3.23847 0
M  V30 5608 H 524.276 -1.93754 -3.40884 0
M  V30 5609 H 525.766 -1.15346 -4.01354 0
M  V30 5610 N 526.204 0.969867 -1.24223 0
M  V30 5611 C 527.134 2.08191 -1.05729 0
M  V30 5612 C 528.115 1.70075 0.0290765 0
M  V30 5613 O 529.3 1.93712 -0.137583 0
M  V30 5614 C 526.43 3.40991 -0.658995 0
M  V30 5615 C 525.384 3.93054 -1.69389 0
M  V30 5616 C 524.71 5.22171 -1.15072 0
M  V30 5617 C 526.01 4.21137 -3.08935 0
M  V30 5618 H 527.704 2.23921 -1.98746 0
M  V30 5619 H 525.25 1.07602 -0.956967 0
M  V30 5620 H 527.203 4.18221 -0.51662 0
M  V30 5621 H 525.927 3.25155 0.30686 0
M  V30 5622 H 524.586 3.17977 -1.82444 0
M  V30 5623 H 524.234 5.02694 -0.175539 0
M  V30 5624 H 523.934 5.57973 -1.84229 0
M  V30 5625 H 525.458 6.02013 -1.02042 0
M  V30 5626 H 526.872 4.8908 -2.99121 0
M  V30 5627 H 525.269 4.68163 -3.75425 0
M  V30 5628 H 526.339 3.27996 -3.57137 0
M  V30 5629 N 527.682 1.05563 1.17022 0
M  V30 5630 C 528.93 0.76642 1.87004 0
M  V30 5631 C 529.251 -0.708854 1.8166 0
M  V30 5632 O 528.521 -1.51242 1.2451 0
M  V30 5633 H 527.101 0.280516 0.692329 0
M  V30 5634 H 529.763 1.33557 1.41945 0
M  V30 5635 H 528.859 1.08472 2.92644 0
M  V30 5636 N 529.16 -1.33526 0.837174 0
M  V30 5637 C 530.406 -1.9813 0.432704 0
M  V30 5638 C 530.739 -1.66168 -1.00508 0
M  V30 5639 O 530.014 -0.94069 -1.70239 0
M  V30 5640 C 530.297 -3.54151 0.651834 0
M  V30 5641 C 530.15 -3.95806 2.13676 0
M  V30 5642 C 531.469 -4.39993 0.0968937 0
M  V30 5643 H 528.588 -0.719713 0.15869 0
M  V30 5644 H 531.23 -1.58193 1.05237 0
M  V30 5645 H 529.38 -3.88301 0.124369 0
M  V30 5646 H 531.052 -3.71921 2.72896 0
M  V30 5647 H 529.295 -3.45599 2.62191 0
M  V30 5648 H 529.966 -5.0447 2.24084 0
M  V30 5649 H 532.442 -4.12479 0.547733 0
M  V30 5650 H 531.318 -5.48186 0.279917 0
M  V30 5651 H 531.579 -4.3066 -0.9992 0
M  V30 5652 O 530.677 -0.734023 -1.43855 0
M  V30 5653 H 531.368 -0.285275 -1.91588 0
M  V30 END ATOM
M  V30 BEGIN BOND
M  V30 END BOND
M  V30 END CTAB
M  END
$$$$
