drugbank_target|Q16878 Cysteine dioxygenase type 1 (DB00151; DB00157)
 OpenBabel12092119343D

  0  0  0     0  0            999 V3000
M  V30 BEGIN CTAB
M  V30 COUNTS 3167 3205 0 0 0
M  V30 BEGIN ATOM
M  V30 1 H -0.908 1.98254 -0.117106 0
M  V30 2 N 0 1.576 0 0
M  V30 3 C 0.933 2.03868 1.02534 0
M  V30 4 C 1.911 0.928543 1.3348 0
M  V30 5 O 3.095 1.19667 1.45644 0
M  V30 6 C 0.222 2.43627 2.35294 0
M  V30 7 C -0.732 3.65373 2.2001 0
M  V30 8 S 0.101 5.13292 1.52614 0
M  V30 9 C 1.257 5.56322 2.86805 0
M  V30 10 H 1.49 2.90518 0.631377 0
M  V30 11 H -0.977 1.52953 0.210867 0
M  V30 12 H 0.981 2.67203 3.11629 0
M  V30 13 H -0.358 1.57376 2.7183 0
M  V30 14 H -1.165 3.90944 3.18086 0
M  V30 15 H -1.563 3.418 1.51819 0
M  V30 16 H 0.729 5.58782 3.83104 0
M  V30 17 H 1.672 6.56266 2.65933 0
M  V30 18 H 2.08 4.83886 2.90714 0
M  V30 19 N 1.4781 -0.272755 1.55222 0
M  V30 20 C 2.3881 -1.35918 1.91216 0
M  V30 21 C 3.4041 -1.54026 0.809436 0
M  V30 22 O 4.5801 -1.68148 1.10852 0
M  V30 23 C 1.6451 -2.69834 2.17693 0
M  V30 24 C 0.7061 -2.6047 3.41253 0
M  V30 25 C -0.0609 -3.88 3.66458 0
M  V30 26 O 0.1621 -4.88693 2.94169 0
M  V30 27 O -0.9039 -3.88189 4.59992 0
M  V30 28 H 2.9221 -1.0839 2.83699 0
M  V30 29 H 0.5071 -0.471301 1.41771 0
M  V30 30 H 2.3891 -3.49017 2.36147 0
M  V30 31 H 1.0641 -2.97148 1.28392 0
M  V30 32 H -0.0289 -1.79663 3.28134 0
M  V30 33 H 1.3041 -2.38106 4.30774 0
M  V30 34 N 2.9562 -1.48159 -0.537278 0
M  V30 35 C 3.8882 -1.58218 -1.65831 0
M  V30 36 C 4.9012 -0.466948 -1.5596 0
M  V30 37 O 6.0902 -0.73747 -1.62553 0
M  V30 38 C 3.1902 -1.48906 -3.04434 0
M  V30 39 C 2.3632 -2.75343 -3.3986 0
M  V30 40 C 1.4222 -2.59588 -4.57712 0
M  V30 41 O 0.4482 -3.33457 -4.61297 0
M  V30 42 N 1.6502 -1.68724 -5.55439 0
M  V30 43 H 4.4152 -2.54891 -1.57641 0
M  V30 44 H 1.9762 -1.4479 -0.724386 0
M  V30 45 H 3.9682 -1.36072 -3.81139 0
M  V30 46 H 2.5382 -0.602368 -3.06741 0
M  V30 47 H 1.7582 -3.02795 -2.52406 0
M  V30 48 H 3.0462 -3.5924 -3.60311 0
M  V30 49 H 2.4442 -1.07898 -5.55315 0
M  V30 50 H 1.0012 -1.61832 -6.3139 0
M  V30 51 N 4.4343 0.785586 -1.36625 0
M  V30 52 C 5.6623 1.57448 -1.3423 0
M  V30 53 C 6.0773 1.88649 0.0755653 0
M  V30 54 O 5.4343 1.50414 1.03354 0
M  V30 55 C 5.4853 2.89316 -2.16745 0
M  V30 56 O 5.2063 2.59459 -3.53005 0
M  V30 57 C 6.7073 3.83606 -2.22174 0
M  V30 58 H 3.9273 0.488226 -0.4603 0
M  V30 59 H 6.4713 0.974733 -1.79775 0
M  V30 60 H 4.6263 3.4575 -1.74745 0
M  V30 61 H 5.0403 3.43804 -3.96105 0
M  V30 62 H 6.5143 4.73181 -2.8426 0
M  V30 63 H 6.9913 4.21734 -1.22627 0
M  V30 64 H 7.5973 3.33104 -2.64427 0
M  V30 65 N 5.9124 1.20967 1.01018 0
M  V30 66 C 6.8224 0.980157 2.13143 0
M  V30 67 C 7.8384 -0.0660665 1.73875 0
M  V30 68 O 9.0144 0.122821 2.01025 0
M  V30 69 C 6.0794 0.54216 3.42435 0
M  V30 70 C 5.1404 1.65999 3.95908 0
M  V30 71 C 4.3734 1.2428 5.19028 0
M  V30 72 O 4.5964 0.114196 5.70286 0
M  V30 73 O 3.5304 2.05271 5.65816 0
M  V30 74 H 7.3564 1.91913 2.35379 0
M  V30 75 H 4.9414 0.994099 1.11526 0
M  V30 76 H 6.8234 0.30744 4.20277 0
M  V30 77 H 5.4984 -0.36815 3.216 0
M  V30 78 H 4.4054 1.94906 3.19316 0
M  V30 79 H 5.7384 2.54753 4.21143 0
M  V30 80 N 7.3905 -1.2043 1.01659 0
M  V30 81 C 8.6365 -1.90079 0.706963 0
M  V30 82 C 8.9695 -1.78648 -0.761474 0
M  V30 83 O 8.2445 -1.17069 -1.55323 0
M  V30 84 C 8.5275 -3.41469 1.14327 0
M  V30 85 C 8.3805 -3.61833 2.67201 0
M  V30 86 C 9.6995 -4.34261 0.714529 0
M  V30 87 H 6.8185 -0.690254 0.2583 0
M  V30 88 H 9.4605 -1.41826 1.26433 0
M  V30 89 H 7.6105 -3.82696 0.669056 0
M  V30 90 H 9.2825 -3.2986 3.22475 0
M  V30 91 H 7.5255 -3.05304 3.08175 0
M  V30 92 H 8.1965 -4.67955 2.92783 0
M  V30 93 H 10.6725 -4.00682 1.12221 0
M  V30 94 H 9.5485 -5.38806 1.04784 0
M  V30 95 H 9.8095 -4.40431 -0.383799 0
M  V30 96 N 8.8686 -0.792821 -1.36206 0
M  V30 97 C 9.7986 -0.207853 -2.32573 0
M  V30 98 C 10.7796 0.659055 -1.56813 0
M  V30 99 O 11.9646 0.592176 -1.84951 0
M  V30 100 C 9.0946 0.655449 -3.41059 0
M  V30 101 C 8.0486 -0.111842 -4.27854 0
M  V30 102 C 7.3746 0.872274 -5.27537 0
M  V30 103 C 8.6746 -1.30299 -5.05786 0
M  V30 104 H 10.3686 -1.01294 -2.81744 0
M  V30 105 H 7.9146 -0.48854 -1.3546 0
M  V30 106 H 9.8676 1.07464 -4.07467 0
M  V30 107 H 8.5916 1.49328 -2.90463 0
M  V30 108 H 7.2506 -0.512053 -3.63006 0
M  V30 109 H 6.8986 1.70523 -4.73214 0
M  V30 110 H 6.5986 0.363291 -5.86476 0
M  V30 111 H 8.1226 1.28996 -5.96818 0
M  V30 112 H 9.5366 -0.959379 -5.65216 0
M  V30 113 H 7.9336 -1.7455 -5.74154 0
M  V30 114 H 9.0036 -2.09663 -4.37229 0
M  V30 115 N 10.3467 1.47872 -0.545128 0
M  V30 116 C 11.2937 2.29849 0.2093 0
M  V30 117 C 12.2637 1.38313 0.919707 0
M  V30 118 O 13.4487 1.67277 0.917772 0
M  V30 119 C 10.5887 3.22019 1.24088 0
M  V30 120 C 9.7017 4.2864 0.537778 0
M  V30 121 C 8.8367 5.07973 1.5536 0
M  V30 122 C 7.8757 6.06381 0.8348 0
M  V30 123 N 7.0127 6.78717 1.79688 0
M  V30 124 H 11.8527 2.93845 -0.49591 0
M  V30 125 H 9.3897 1.44848 -0.256389 0
M  V30 126 H 11.3477 3.73868 1.85144 0
M  V30 127 H 9.9777 2.59914 1.91428 0
M  V30 128 H 9.0297 3.7994 -0.187046 0
M  V30 129 H 10.3417 4.98793 -0.0258907 0
M  V30 130 H 9.4957 5.63912 2.23803 0
M  V30 131 H 8.2347 4.37693 2.15118 0
M  V30 132 H 7.2397 5.49631 0.136388 0
M  V30 133 H 8.4647 6.78665 0.24313 0
M  V30 134 H 6.4107 6.11177 2.38326 0
M  V30 135 H 6.3277 7.44998 1.28505 0
M  V30 136 H 7.5957 7.39237 2.47282 0
M  V30 137 N 11.8248 0.280983 1.55075 0
M  V30 138 C 13.2358 -0.215629 1.85451 0
M  V30 139 C 13.5868 -1.54991 1.203 0
M  V30 140 O 12.7118 -2.10699 0.493435 0
M  V30 141 C 13.3068 -0.398026 3.36454 0
M  V30 142 C 11.8658 -0.838866 3.66933 0
M  V30 143 C 11.0128 0.064458 2.77225 0
M  V30 144 H 13.9638 0.502601 1.50531 0
M  V30 145 H 13.9848 -1.23569 3.59876 0
M  V30 146 H 13.4968 0.573241 3.83843 0
M  V30 147 H 11.5978 -1.8214 3.25048 0
M  V30 148 H 11.7108 -0.672123 4.74362 0
M  V30 149 H 10.0748 -0.452863 2.50642 0
M  V30 150 H 10.8578 1.03172 3.2743 0
M  V30 151 N 13.3029 -1.57598 0.00835791 0
M  V30 152 C 14.7189 -1.55764 -0.347822 0
M  V30 153 C 14.9189 -1.01186 -1.74252 0
M  V30 154 O 13.9749 -0.649371 -2.44007 0
M  V30 155 C 15.2879 -2.99927 -0.215407 0
M  V30 156 C 16.8359 -3.11656 -0.289725 0
M  V30 157 C 17.3109 -4.57621 -0.18634 0
M  V30 158 N 18.8019 -4.62557 -0.243978 0
M  V30 159 C 19.5369 -5.73094 -0.18745 0
M  V30 160 N 19.0329 -6.92753 -0.0810331 0
M  V30 161 N 20.8259 -5.61588 -0.239925 0
M  V30 162 H 12.9769 -1.91411 0.92062 0
M  V30 163 H 15.2399 -0.879562 0.353659 0
M  V30 164 H 14.9459 -3.43729 0.744512 0
M  V30 165 H 14.8199 -3.63865 -0.994097 0
M  V30 166 H 17.2069 -2.67779 -1.24009 0
M  V30 167 H 17.2879 -2.5048 0.51898 0
M  V30 168 H 16.9319 -5.02174 0.760519 0
M  V30 169 H 16.8619 -5.16752 -1.01364 0
M  V30 170 H 19.3529 -3.76481 -0.327217 0
M  V30 171 H 19.6659 -7.72787 -0.0440241 0
M  V30 172 H 18.0109 -6.94984 -0.0465419 0
M  V30 173 H 21.2019 -4.66996 -0.321317 0
M  V30 174 H 21.3749 -6.47714 -0.192407 0
M  V30 175 N 14.781 0.264519 -1.55364 0
M  V30 176 C 16.009 1.013 -1.80405 0
M  V30 177 C 16.424 1.79618 -0.581622 0
M  V30 178 O 15.781 1.76879 0.449468 0
M  V30 179 C 15.832 1.96487 -3.03439 0
M  V30 180 O 15.553 1.21341 -4.20961 0
M  V30 181 C 17.054 2.83079 -3.41147 0
M  V30 182 H 14.274 0.298875 -0.600762 0
M  V30 183 H 16.818 0.292736 -2.02394 0
M  V30 184 H 14.973 2.63965 -2.83551 0
M  V30 185 H 15.387 1.85573 -4.90574 0
M  V30 186 H 16.861 3.4565 -4.30384 0
M  V30 187 H 17.338 3.53286 -2.60932 0
M  V30 188 H 17.944 2.2108 -3.63323 0
M  V30 189 N 16.2591 1.48442 0.529413 0
M  V30 190 C 17.1891 1.65902 1.64313 0
M  V30 191 C 18.1701 0.507897 1.6234 0
M  V30 192 O 19.3551 0.740503 1.79528 0
M  V30 193 C 16.4851 1.69911 3.02898 0
M  V30 194 C 15.4391 2.8453 3.19729 0
M  V30 195 C 14.7651 2.73629 4.59381 0
M  V30 196 C 16.0651 4.25821 3.02447 0
M  V30 197 H 17.7591 2.5914 1.49955 0
M  V30 198 H 15.3051 1.24709 0.719982 0
M  V30 199 H 17.2581 1.80715 3.80684 0
M  V30 200 H 15.9821 0.732524 3.18279 0
M  V30 201 H 14.6411 2.73283 2.44361 0
M  V30 202 H 14.2891 1.74938 4.71599 0
M  V30 203 H 13.9891 3.50541 4.71588 0
M  V30 204 H 15.5131 2.86401 5.39265 0
M  V30 205 H 16.9271 4.37898 3.70024 0
M  V30 206 H 15.3241 5.03735 3.26146 0
M  V30 207 H 16.3941 4.42244 1.98867 0
M  V30 208 N 17.7372 -0.778329 1.37039 0
M  V30 209 C 18.7002 -1.87301 1.32102 0
M  V30 210 C 19.7002 -1.59198 0.226405 0
M  V30 211 O 20.8902 -1.67403 0.481861 0
M  V30 212 C 18.0222 -3.24309 1.05055 0
M  V30 213 H 19.2152 -1.93093 2.29467 0
M  V30 214 H 16.7682 -0.977358 1.21973 0
M  V30 215 H 17.5032 -3.24196 0.0819373 0
M  V30 216 H 17.2882 -3.46098 1.84279 0
M  V30 217 H 18.7782 -4.04382 1.04234 0
M  V30 218 N 19.2153 -1.21501 -1.00376 0
M  V30 219 C 20.4923 -0.941745 -1.71437 0
M  V30 220 C 20.8723 0.546114 -2.03914 0
M  V30 221 O 20.2203 1.51128 -1.71384 0
M  V30 222 C 20.4303 -1.82812 -2.97289 0
M  V30 223 C 21.7783 -2.07771 -3.70292 0
M  V30 224 O 22.8023 -1.80171 -3.07273 0
M  V30 225 O 21.6613 -2.54456 -4.83647 0
M  V30 226 H 18.7553 -0.353243 -0.747762 0
M  V30 227 H 21.3013 -1.32436 -1.06108 0
M  V30 228 H 20.0733 -2.83501 -2.69709 0
M  V30 229 H 19.6963 -1.4464 -3.70358 0
M  V30 230 N 20.6934 1.19889 -1.02296 0
M  V30 231 C 21.6234 2.25141 -0.619174 0
M  V30 232 C 22.6044 1.66051 0.368915 0
M  V30 233 O 23.7894 1.92546 0.252941 0
M  V30 234 C 20.9194 3.4728 0.0368783 0
M  V30 235 C 19.8734 4.19005 -0.872865 0
M  V30 236 C 19.1994 5.34637 -0.0822402 0
M  V30 237 C 20.4994 4.74452 -2.18387 0
M  V30 238 H 22.1934 2.59171 -1.49903 0
M  V30 239 H 19.7394 1.24579 -0.722222 0
M  V30 240 H 21.6924 4.20098 0.330958 0
M  V30 241 H 20.4164 3.12433 0.95149 0
M  V30 242 H 19.0754 3.48061 -1.15105 0
M  V30 243 H 18.7234 4.96034 0.83422 0
M  V30 244 H 18.4234 5.83557 -0.688149 0
M  V30 245 H 19.9474 6.10255 0.205238 0
M  V30 246 H 21.3614 5.39055 -1.95172 0
M  V30 247 H 19.7584 5.33834 -2.74119 0
M  V30 248 H 20.8284 3.92844 -2.84257 0
M  V30 249 N 22.1715 0.800033 1.35784 0
M  V30 250 C 23.4205 0.37387 1.98205 0
M  V30 251 C 23.7335 -1.06302 1.64193 0
M  V30 252 O 24.9395 -1.59198 2.19928 0
M  V30 253 C 23.3955 0.617532 3.54562 0
M  V30 254 C 23.0035 2.06654 3.9749 0
M  V30 255 C 24.7475 0.256401 4.23725 0
M  V30 256 C 22.6545 2.2563 5.46667 0
M  V30 257 H 21.5845 0.136055 0.741623 0
M  V30 258 H 24.2355 0.983166 1.54939 0
M  V30 259 H 22.6175 -0.0616248 3.95952 0
M  V30 260 H 23.7915 2.78296 3.67271 0
M  V30 261 H 22.1065 2.38691 3.41197 0
M  V30 262 H 24.7035 0.376318 5.33374 0
M  V30 263 H 25.0465 -0.796692 4.08606 0
M  V30 264 H 25.5795 0.889214 3.87734 0
M  V30 265 H 22.3185 3.2936 5.66747 0
M  V30 266 H 21.8385 1.58504 5.78478 0
M  V30 267 H 23.5175 2.06861 6.1304 0
M  V30 268 N 23.6496 -1.47581 0.552962 0
M  V30 269 C 25.0656 -1.5818 0.212424 0
M  V30 270 C 25.2656 -1.55213 -1.28496 0
M  V30 271 O 24.3216 -1.45329 -2.06484 0
M  V30 272 C 25.6346 -2.88865 0.835318 0
M  V30 273 C 27.1826 -3.0244 0.806156 0
M  V30 274 C 27.6576 -4.35819 1.40804 0
M  V30 275 N 29.1486 -4.42444 1.37103 0
M  V30 276 C 29.8836 -5.44202 1.80641 0
M  V30 277 N 29.3796 -6.52795 2.32015 0
M  V30 278 N 31.1726 -5.35222 1.71738 0
M  V30 279 H 23.3236 -1.47753 1.52587 0
M  V30 280 H 25.5866 -0.702941 0.636064 0
M  V30 281 H 25.2926 -2.9676 1.88749 0
M  V30 282 H 25.1666 -3.7579 0.325848 0
M  V30 283 H 27.5536 -2.94144 -0.237317 0
M  V30 284 H 27.6346 -2.17068 1.35334 0
M  V30 285 H 27.2786 -4.44871 2.45056 0
M  V30 286 H 27.2086 -5.19916 0.836338 0
M  V30 287 H 29.6996 -3.6456 0.995202 0
M  V30 288 H 30.0126 -7.26609 2.63171 0
M  V30 289 H 28.3576 -6.53696 2.36023 0
M  V30 290 H 31.5486 -4.49284 1.31382 0
M  V30 291 H 31.7216 -6.14389 2.05987 0
M  V30 292 N 25.1277 -0.289203 -1.54924 0
M  V30 293 C 26.3767 0.324231 -1.99077 0
M  V30 294 C 26.6897 1.5591 -1.18117 0
M  V30 295 O 27.8957 2.24637 -1.52481 0
M  V30 296 C 26.3517 0.628209 -3.54375 0
M  V30 297 C 25.9597 -0.587647 -4.44129 0
M  V30 298 C 27.7037 1.20349 -4.07083 0
M  V30 299 C 25.6107 -0.257475 -5.90839 0
M  V30 300 H 24.5407 0.124924 -0.743579 0
M  V30 301 H 27.1917 -0.396063 -1.79175 0
M  V30 302 H 25.5737 1.40778 -3.70132 0
M  V30 303 H 26.7477 -1.36418 -4.40144 0
M  V30 304 H 25.0627 -1.08074 -4.0213 0
M  V30 305 H 27.6597 1.46456 -5.14252 0
M  V30 306 H 28.0027 2.14195 -3.56968 0
M  V30 307 H 28.5357 0.485889 -3.94821 0
M  V30 308 H 25.2747 -1.16419 -6.45079 0
M  V30 309 H 24.7947 0.482018 -5.9786 0
M  V30 310 H 26.4737 0.145238 -6.46837 0
M  V30 311 N 26.6058 1.57591 -0.0167156 0
M  V30 312 C 27.5358 2.12496 0.967858 0
M  V30 313 C 28.5168 1.03807 1.34752 0
M  V30 314 O 29.7018 1.31577 1.42833 0
M  V30 315 C 26.8318 2.64194 2.25431 0
M  V30 316 C 25.7858 3.77559 2.01576 0
M  V30 317 C 25.1118 4.15636 3.36379 0
M  V30 318 C 26.4118 5.04151 1.36489 0
M  V30 319 H 28.1058 2.95013 0.510643 0
M  V30 320 H 25.6518 1.41915 0.244181 0
M  V30 321 H 27.6048 3.01236 2.94678 0
M  V30 322 H 26.3288 1.78821 2.73296 0
M  V30 323 H 24.9878 3.40937 1.34751 0
M  V30 324 H 24.6358 3.27263 3.81979 0
M  V30 325 H 24.3358 4.92022 3.21229 0
M  V30 326 H 25.8598 4.5525 4.06915 0
M  V30 327 H 27.2738 5.38857 1.95718 0
M  V30 328 H 25.6708 5.85453 1.31776 0
M  V30 329 H 26.7408 4.83733 0.336219 0
M  V30 330 N 28.0839 -0.256276 1.55502 0
M  V30 331 C 29.0339 -1.31981 1.85916 0
M  V30 332 C 30.0179 -1.43927 0.719296 0
M  V30 333 O 31.2099 -1.47326 0.981019 0
M  V30 334 C 28.3389 -2.67703 2.14918 0
M  V30 335 C 27.4249 -2.59801 3.35208 0
M  V30 336 N 27.8159 -2.21524 4.54709 0
M  V30 337 C 26.1139 -2.90832 3.38131 0
M  V30 338 C 26.8149 -2.24024 5.36832 0
M  V30 339 N 25.7909 -2.63158 4.75656 0
M  V30 340 H 29.5929 -1.01423 2.75845 0
M  V30 341 H 27.1069 -0.464911 1.55603 0
M  V30 342 H 29.1039 -3.44445 2.34869 0
M  V30 343 H 27.7639 -2.99137 1.26282 0
M  V30 344 H 28.7749 -1.93223 4.80505 0
M  V30 345 H 25.4519 -3.26867 2.59739 0
M  V30 346 H 26.8419 -1.9685 6.42417 0
M  V30 347 N 29.562 -1.4872 -0.521534 0
M  V30 348 C 30.494 -1.59968 -1.64143 0
M  V30 349 C 31.507 -0.483463 -1.55456 0
M  V30 350 O 32.696 -0.75467 -1.61762 0
M  V30 351 C 29.796 -1.52127 -3.02838 0
M  V30 352 C 28.969 -2.78932 -3.36921 0
M  V30 353 C 28.028 -2.64428 -4.54933 0
M  V30 354 O 27.054 -3.38331 -4.57735 0
M  V30 355 N 28.256 -1.74606 -5.53618 0
M  V30 356 H 31.021 -2.56548 -1.54929 0
M  V30 357 H 28.582 -1.45551 -0.708988 0
M  V30 358 H 30.574 -1.40106 -3.79674 0
M  V30 359 H 29.144 -0.634868 -3.06085 0
M  V30 360 H 28.364 -3.05455 -2.4918 0
M  V30 361 H 29.652 -3.63041 -3.56481 0
M  V30 362 H 29.05 -1.13782 -5.54139 0
M  V30 363 H 27.607 -1.6852 -6.29638 0
M  V30 364 N 31.0401 0.771051 -1.3745 0
M  V30 365 C 31.9701 1.89827 -1.3597 0
M  V30 366 C 32.9511 1.68562 -0.228216 0
M  V30 367 O 34.1361 1.8941 -0.428675 0
M  V30 368 C 31.2661 3.2712 -1.16662 0
M  V30 369 C 30.2201 3.6295 -2.2683 0
M  V30 370 C 29.5461 4.98791 -1.92644 0
M  V30 371 C 30.8461 3.69627 -3.69017 0
M  V30 372 H 32.5401 1.91323 -2.30295 0
M  V30 373 H 30.0861 0.919082 -1.10855 0
M  V30 374 H 32.0391 4.05615 -1.14256 0
M  V30 375 H 30.7631 3.26059 -0.187926 0
M  V30 376 H 29.4221 2.86763 -2.28392 0
M  V30 377 H 29.0701 4.94271 -0.933021 0
M  V30 378 H 28.7701 5.23733 -2.66416 0
M  V30 379 H 30.2941 5.79685 -1.91826 0
M  V30 380 H 31.7081 4.38273 -3.69581 0
M  V30 381 H 30.1051 4.06067 -4.41848 0
M  V30 382 H 31.1751 2.70273 -4.02592 0
M  V30 383 N 32.5182 1.22032 0.997298 0
M  V30 384 C 33.7652 1.04222 1.73621 0
M  V30 385 C 34.0932 -0.423264 1.89839 0
M  V30 386 O 33.3482 -1.3302 1.43542 0
M  V30 387 C 33.6472 1.69345 3.14733 0
M  V30 388 C 33.3132 3.19226 3.18442 0
M  V30 389 C 31.9752 3.60124 3.19161 0
M  V30 390 C 34.3272 4.15181 3.15078 0
M  V30 391 C 31.6552 4.95467 3.14212 0
M  V30 392 C 34.0072 5.50495 3.1167 0
M  V30 393 C 32.6712 5.90779 3.10703 0
M  V30 394 H 31.9412 0.381374 0.635323 0
M  V30 395 H 34.5882 1.51732 1.16831 0
M  V30 396 H 32.8932 1.14147 3.74803 0
M  V30 397 H 34.5902 1.53059 3.7064 0
M  V30 398 H 31.1802 2.86659 3.18629 0
M  V30 399 H 35.3642 3.84605 3.13676 0
M  V30 400 H 30.6202 5.25916 3.11805 0
M  V30 401 H 34.7942 6.24576 3.08022 0
M  V30 402 H 32.4212 6.9562 3.06622 0
M  V30 403 N 33.9963 -1.19345 1.0293 0
M  V30 404 C 34.9593 -2.20793 0.615069 0
M  V30 405 C 35.9593 -1.57553 -0.321533 0
M  V30 406 O 37.1493 -1.73862 -0.108483 0
M  V30 407 C 34.2813 -3.40754 -0.0999222 0
M  V30 408 H 35.4743 -2.58955 1.51269 0
M  V30 409 H 33.0273 -1.3303 0.820534 0
M  V30 410 H 33.7623 -3.0811 -1.01187 0
M  V30 411 H 33.5473 -3.87889 0.57309 0
M  V30 412 H 35.0373 -4.15898 -0.376645 0
M  V30 413 N 35.4744 -0.807222 -1.35358 0
M  V30 414 C 36.7224 -0.387122 -1.98358 0
M  V30 415 C 37.0434 1.04942 -1.64354 0
M  V30 416 O 36.3134 1.72615 -0.926339 0
M  V30 417 H 34.8934 -0.140154 -0.733734 0
M  V30 418 H 37.5554 -1.0332 -1.6526 0
M  V30 419 H 36.6514 -0.493352 -3.08176 0
M  V30 420 N 36.9525 1.47285 -0.560781 0
M  V30 421 C 38.2295 1.9558 0.0277798 0
M  V30 422 C 38.6095 1.5034 1.48192 0
M  V30 423 O 37.9575 0.743882 2.16052 0
M  V30 424 C 38.1675 3.48789 -0.121418 0
M  V30 425 C 39.5155 4.24594 0.0220912 0
M  V30 426 O 40.5395 3.56166 -0.0491439 0
M  V30 427 O 39.3985 5.46217 0.175958 0
M  V30 428 H 36.4925 0.824663 0.0621342 0
M  V30 429 H 39.0385 1.5767 -0.627556 0
M  V30 430 H 37.8105 3.74533 -1.13316 0
M  V30 431 H 37.4335 3.93473 0.571366 0
M  V30 432 N 38.4306 0.297415 1.54768 0
M  V30 433 C 39.3406 -0.58983 2.27064 0
M  V30 434 C 40.3566 -1.15144 1.30453 0
M  V30 435 O 41.5326 -1.17699 1.63428 0
M  V30 436 C 38.5976 -1.74714 2.9946 0
M  V30 437 C 37.6586 -1.21997 4.11601 0
M  V30 438 C 36.8916 -2.32212 4.80535 0
M  V30 439 O 37.1146 -3.52036 4.48806 0
M  V30 440 O 36.0486 -1.99106 5.68014 0
M  V30 441 H 39.8746 -0.00348199 3.037 0
M  V30 442 H 37.4596 0.0640035 1.49263 0
M  V30 443 H 39.3416 -2.42147 3.44881 0
M  V30 444 H 38.0166 -2.32016 2.25722 0
M  V30 445 H 36.9236 -0.511458 3.70587 0
M  V30 446 H 38.2566 -0.692419 4.87305 0
M  V30 447 N 39.9087 -1.5758 0.0250728 0
M  V30 448 C 41.1547 -1.91917 -0.655413 0
M  V30 449 C 41.4877 -0.901433 -1.72011 0
M  V30 450 O 40.7627 0.0764069 -1.9435 0
M  V30 451 C 41.0457 -3.36751 -1.27558 0
M  V30 452 C 40.8987 -4.49258 -0.220719 0
M  V30 453 C 42.2177 -3.81469 -2.19475 0
M  V30 454 H 39.3367 -0.697925 -0.23679 0
M  V30 455 H 41.9787 -1.89825 0.0815036 0
M  V30 456 H 40.1287 -3.38664 -1.90365 0
M  V30 457 H 41.8007 -4.59478 0.409601 0
M  V30 458 H 40.0437 -4.31415 0.454264 0
M  V30 459 H 40.7147 -5.47618 -0.694175 0
M  V30 460 H 43.1907 -3.81266 -1.66659 0
M  V30 461 H 42.0667 -4.83512 -2.59822 0
M  V30 462 H 42.3277 -3.16744 -3.08424 0
M  V30 463 N 41.3868 0.248026 -1.55636 0
M  V30 464 C 42.3348 1.32683 -1.91045 0
M  V30 465 C 43.3288 1.49883 -0.789401 0
M  V30 466 O 44.5348 1.51371 -0.974007 0
M  V30 467 H 40.9098 0.444272 -0.606734 0
M  V30 468 H 42.8808 1.00085 -2.81115 0
M  V30 469 C 41.6298 2.6755 -2.22064 0
M  V30 470 H 40.9528 2.55114 -3.07826 0
M  V30 471 H 42.3928 3.41912 -2.50743 0
M  V30 472 C 40.8518 3.20556 -1.0366 0
M  V30 473 O 41.3818 4.00695 -0.284016 0
M  V30 474 N 39.5878 2.78568 -0.82753 0
M  V30 475 H 39.1348 2.1351 -1.44123 0
M  V30 476 H 39.0928 3.14378 -0.0369803 0
M  V30 477 N 42.8649 1.48995 0.513639 0
M  V30 478 C 44.1109 1.58076 1.27042 0
M  V30 479 C 44.4439 0.261026 1.92438 0
M  V30 480 O 43.7189 -0.734393 1.80103 0
M  V30 481 C 44.0019 2.73091 2.34719 0
M  V30 482 C 43.8549 4.14821 1.73907 0
M  V30 483 C 45.1739 2.83796 3.36375 0
M  V30 484 H 42.2929 0.575391 0.460536 0
M  V30 485 H 44.9349 1.81232 0.570516 0
M  V30 486 H 43.0849 2.53479 2.94416 0
M  V30 487 H 44.7569 4.45917 1.18135 0
M  V30 488 H 42.9999 4.21058 1.0437 0
M  V30 489 H 43.6709 4.91147 2.51949 0
M  V30 490 H 46.1469 3.01611 2.86653 0
M  V30 491 H 45.0229 3.65971 4.09093 0
M  V30 492 H 45.2839 1.92624 3.9793 0
M  V30 493 N 44.343 -0.763751 1.37857 0
M  V30 494 C 45.253 -1.90817 1.36478 0
M  V30 495 C 46.269 -1.71997 0.263248 0
M  V30 496 O 47.445 -1.95095 0.499979 0
M  V30 497 C 44.51 -3.2605 1.17864 0
M  V30 498 C 43.571 -3.57467 2.3773 0
M  V30 499 C 42.804 -4.86249 2.19995 0
M  V30 500 O 43.027 -5.57884 1.18836 0
M  V30 501 O 41.961 -5.16911 3.08361 0
M  V30 502 H 45.787 -1.94933 2.32884 0
M  V30 503 H 43.372 -0.907619 1.1867 0
M  V30 504 H 45.254 -4.06924 1.09504 0
M  V30 505 H 43.929 -3.22769 0.245372 0
M  V30 506 H 42.836 -2.76796 2.51664 0
M  V30 507 H 44.169 -3.655 3.29652 0
M  V30 508 N 45.8211 -1.22559 -0.990812 0
M  V30 509 C 46.7311 -1.01394 -2.11557 0
M  V30 510 C 47.7471 0.0383962 -1.73958 0
M  V30 511 O 48.9231 -0.154787 -2.00804 0
M  V30 512 C 45.9881 -0.596569 -3.41529 0
M  V30 513 C 45.0491 -1.72276 -3.93217 0
M  V30 514 C 44.2821 -1.32521 -5.16985 0
M  V30 515 O 44.5051 -0.204909 -5.70032 0
M  V30 516 O 43.4391 -2.14247 -5.62478 0
M  V30 517 H 47.2651 -1.95633 -2.32296 0
M  V30 518 H 44.8501 -1.01172 -1.0993 0
M  V30 519 H 46.7321 -0.374263 -4.19735 0
M  V30 520 H 45.4071 0.316939 -3.22145 0
M  V30 521 H 44.3141 -1.99961 -3.16174 0
M  V30 522 H 45.6471 -2.61421 -4.17037 0
M  V30 523 N 47.2992 1.18797 -1.03562 0
M  V30 524 C 48.5452 1.8893 -0.737113 0
M  V30 525 C 48.8782 1.79837 0.732956 0
M  V30 526 O 48.1532 1.19525 1.5344 0
M  V30 527 C 48.4362 3.39607 -1.19745 0
M  V30 528 C 48.2892 3.57537 -2.72924 0
M  V30 529 C 49.6082 4.33069 -0.783526 0
M  V30 530 H 46.7272 0.686057 -0.269249 0
M  V30 531 H 49.3692 1.39797 -1.28673 0
M  V30 532 H 47.5192 3.81583 -0.729855 0
M  V30 533 H 49.1912 3.24688 -3.27682 0
M  V30 534 H 47.4342 3.00363 -3.12993 0
M  V30 535 H 48.1052 4.63238 -3.00191 0
M  V30 536 H 50.5812 3.98846 -1.18581 0
M  V30 537 H 49.4572 5.3707 -1.13343 0
M  V30 538 H 49.7182 4.40986 0.313681 0
M  V30 539 N 48.7773 0.814389 1.34928 0
M  V30 540 C 49.7093 0.187834 2.28429 0
M  V30 541 C 50.7223 -0.617374 1.5064 0
M  V30 542 O 51.9113 -0.448454 1.72775 0
M  V30 543 C 49.0113 -0.755962 3.30361 0
M  V30 544 C 48.1843 0.00456686 4.374 0
M  V30 545 C 47.2433 -0.858876 5.19143 0
M  V30 546 O 46.2693 -0.306968 5.68372 0
M  V30 547 N 47.4713 -2.17988 5.38016 0
M  V30 548 H 50.2363 0.991105 2.82838 0
M  V30 549 H 47.7973 0.670561 1.4736 0
M  V30 550 H 49.7893 -1.338 3.81942 0
M  V30 551 H 48.3593 -1.46001 2.7641 0
M  V30 552 H 47.5793 0.767865 3.86649 0
M  V30 553 H 48.8673 0.528422 5.06049 0
M  V30 554 H 48.2653 -2.65212 4.99679 0
M  V30 555 H 46.8223 -2.71098 5.92747 0
M  V30 556 N 50.2554 -1.46986 0.568584 0
M  V30 557 C 51.2184 -2.28624 -0.162366 0
M  V30 558 C 52.2184 -1.37596 -0.832103 0
M  V30 559 O 53.4084 -1.60115 -0.68622 0
M  V30 560 C 50.5404 -3.17596 -1.23878 0
M  V30 561 H 51.7334 -2.94722 0.554899 0
M  V30 562 H 49.2864 -1.52863 0.325976 0
M  V30 563 H 50.0214 -2.56214 -1.98808 0
M  V30 564 H 49.8064 -3.846 -0.763219 0
M  V30 565 H 51.2964 -3.79078 -1.75185 0
M  V30 566 N 51.7335 -0.305618 -1.54608 0
M  V30 567 C 52.9825 0.303098 -1.9941 0
M  V30 568 C 53.2955 1.54648 -1.19764 0
M  V30 569 O 54.5015 2.23007 -1.54855 0
M  V30 570 C 52.9575 0.590588 -3.55021 0
M  V30 571 C 52.5655 -0.634719 -4.43481 0
M  V30 572 C 54.3095 1.16025 -4.08336 0
M  V30 573 C 52.2165 -0.320126 -5.90533 0
M  V30 574 H 51.1465 0.117031 -0.744862 0
M  V30 575 H 53.7975 -0.415045 -1.78745 0
M  V30 576 H 52.1795 1.36845 -3.71604 0
M  V30 577 H 53.3535 -1.41079 -4.38672 0
M  V30 578 H 51.6685 -1.12333 -4.00962 0
M  V30 579 H 54.2655 1.40994 -5.15776 0
M  V30 580 H 54.6085 2.10397 -3.5922 0
M  V30 581 H 55.1415 0.443985 -3.95315 0
M  V30 582 H 51.8805 -1.23254 -6.43808 0
M  V30 583 H 51.4005 0.418579 -5.98338 0
M  V30 584 H 53.0795 0.0766241 -6.46955 0
M  V30 585 N 53.2116 1.57565 -0.0334293 0
M  V30 586 C 54.1446 2.05997 0.981866 0
M  V30 587 C 55.1226 0.956647 1.3148 0
M  V30 588 O 56.3066 1.22729 1.43073 0
M  V30 589 C 53.4336 2.48564 2.30074 0
M  V30 590 C 52.4796 3.69958 2.12211 0
M  V30 591 S 53.3126 5.16414 1.41692 0
M  V30 592 C 54.4686 5.6228 2.7494 0
M  V30 593 H 54.7016 2.91792 0.569612 0
M  V30 594 H 52.2346 1.53366 0.178376 0
M  V30 595 H 54.1926 2.73753 3.05892 0
M  V30 596 H 52.8536 1.63106 2.68431 0
M  V30 597 H 52.0466 3.97603 3.09722 0
M  V30 598 H 51.6486 3.44943 1.44535 0
M  V30 599 H 53.9406 5.66783 3.71165 0
M  V30 600 H 54.8836 6.61759 2.51953 0
M  V30 601 H 55.2916 4.89944 2.80384 0
M  V30 602 N 54.6897 -0.239769 1.55765 0
M  V30 603 C 55.5997 -1.31831 1.94056 0
M  V30 604 C 56.6157 -1.52275 0.841925 0
M  V30 605 O 57.7917 -1.65759 1.14394 0
M  V30 606 C 54.8567 -2.65156 2.23368 0
M  V30 607 C 53.9177 -2.53173 3.46701 0
M  V30 608 C 53.1507 -3.8014 3.74606 0
M  V30 609 O 53.3737 -4.82343 3.04469 0
M  V30 610 O 52.3077 -3.78344 4.68123 0
M  V30 611 H 56.1337 -1.02347 2.85935 0
M  V30 612 H 53.7187 -0.441123 1.42739 0
M  V30 613 H 55.6007 -3.43929 2.43497 0
M  V30 614 H 54.2757 -2.94358 1.34666 0
M  V30 615 H 53.1827 -1.72662 3.31871 0
M  V30 616 H 54.5157 -2.28915 4.35728 0
M  V30 617 N 56.1678 -1.49265 -0.50573 0
M  V30 618 C 57.1308 -1.65075 -1.59006 0
M  V30 619 C 58.1308 -0.522768 -1.52065 0
M  V30 620 O 59.3208 -0.789117 -1.55302 0
M  V30 621 C 56.4528 -1.64369 -2.98656 0
M  V30 622 H 57.6458 -2.61784 -1.46319 0
M  V30 623 H 55.1988 -1.38226 -0.729616 0
M  V30 624 H 55.9338 -0.692272 -3.16825 0
M  V30 625 H 55.7188 -2.46282 -3.05103 0
M  V30 626 H 57.2088 -1.78674 -3.77446 0
M  V30 627 N 57.6459 0.756429 -1.3826 0
M  V30 628 C 58.8759 1.54341 -1.3734 0
M  V30 629 C 59.2839 1.89159 0.0393917 0
M  V30 630 O 58.6269 1.5307 1.01565 0
M  V30 631 C 58.6889 2.87238 -2.16182 0
M  V30 632 C 58.3529 2.74973 -3.65019 0
M  V30 633 C 59.3499 2.44962 -4.58574 0
M  V30 634 C 57.0349 2.92515 -4.08338 0
M  V30 635 C 59.0289 2.32642 -5.93428 0
M  V30 636 C 56.7159 2.79815 -5.43274 0
M  V30 637 C 57.7139 2.49921 -6.35632 0
M  V30 638 O 57.4019 2.37275 -7.68086 0
M  V30 639 H 57.1339 0.484281 -0.471643 0
M  V30 640 H 59.6879 0.944152 -1.82414 0
M  V30 641 H 57.9179 3.49342 -1.65822 0
M  V30 642 H 59.6069 3.48731 -2.07705 0
M  V30 643 H 60.3729 2.31081 -4.26412 0
M  V30 644 H 56.2519 3.14781 -3.368 0
M  V30 645 H 59.7959 2.0923 -6.65484 0
M  V30 646 H 55.6929 2.93269 -5.75034 0
M  V30 647 H 56.4609 2.52509 -7.78577 0
M  V30 648 N 59.124 1.23083 0.984299 0
M  V30 649 C 60.034 1.02515 2.11016 0
M  V30 650 C 61.05 -0.0291702 1.73976 0
M  V30 651 O 62.226 0.165434 2.00719 0
M  V30 652 C 59.291 0.614673 3.41208 0
M  V30 653 C 58.352 1.74359 3.92297 0
M  V30 654 C 57.585 1.35261 5.16275 0
M  V30 655 O 57.808 0.235136 5.69915 0
M  V30 656 O 56.742 2.17227 5.61334 0
M  V30 657 H 60.568 1.96862 2.31255 0
M  V30 658 H 58.153 1.01753 1.09392 0
M  V30 659 H 60.035 0.396518 4.1953 0
M  V30 660 H 58.71 -0.299851 3.22308 0
M  V30 661 H 57.617 2.01635 3.1511 0
M  V30 662 H 58.95 2.63629 4.15645 0
M  V30 663 N 60.6021 -1.18246 1.0419 0
M  V30 664 C 61.8271 -1.92736 0.765996 0
M  V30 665 C 62.2521 -1.75728 -0.67091 0
M  V30 666 O 61.6101 -1.06825 -1.46486 0
M  V30 667 C 61.6581 -3.42148 1.13875 0
M  V30 668 O 60.7621 -4.11548 0.264954 0
M  V30 669 H 60.1031 -0.601238 0.281797 0
M  V30 670 H 62.6331 -1.49942 1.39207 0
M  V30 671 H 62.6431 -3.92858 1.1012 0
M  V30 672 H 61.3181 -3.53848 2.18551 0
M  V30 673 H 59.8951 -3.71137 0.362226 0
M  V30 674 N 62.0802 -0.821533 -1.34494 0
M  V30 675 C 63.3572 -0.33159 -1.92769 0
M  V30 676 C 63.7372 1.18088 -1.74981 0
M  V30 677 O 63.0852 1.98733 -1.12772 0
M  V30 678 C 63.2952 -0.759398 -3.40638 0
M  V30 679 C 64.6432 -0.757433 -4.1779 0
M  V30 680 O 65.6672 -0.70189 -3.49216 0
M  V30 681 O 64.5262 -0.829361 -5.4017 0
M  V30 682 H 61.6202 -0.0902502 -0.822061 0
M  V30 683 H 64.1662 -0.906231 -1.43477 0
M  V30 684 H 62.9382 -1.8012 -3.47379 0
M  V30 685 H 62.5612 -0.160378 -3.97276 0
M  V30 686 N 63.5583 1.46682 -0.576371 0
M  V30 687 C 64.9693 1.86112 -0.148091 0
M  V30 688 C 65.3203 1.48073 1.2872 0
M  V30 689 O 64.4453 0.892656 1.97131 0
M  V30 690 C 65.0403 3.37786 -0.261982 0
M  V30 691 C 63.5993 3.76235 0.111384 0
M  V30 692 C 62.7463 2.70713 -0.60083 0
M  V30 693 H 65.6973 1.37927 -0.78497 0
M  V30 694 H 65.7183 3.77007 0.514364 0
M  V30 695 H 65.2303 3.6544 -1.30671 0
M  V30 696 H 63.3313 3.54198 1.15649 0
M  V30 697 H 63.4443 4.78391 -0.26052 0
M  V30 698 H 61.8083 2.54666 -0.0417783 0
M  V30 699 H 62.5913 3.01208 -1.64708 0
M  V30 700 N 65.0364 0.313813 1.54444 0
M  V30 701 C 66.2644 -0.293918 2.04802 0
M  V30 702 C 66.6794 -1.46537 1.19047 0
M  V30 703 O 66.0364 -1.81182 0.218939 0
M  V30 704 C 66.0874 -0.737806 3.53891 0
M  V30 705 O 65.8084 0.387038 4.36387 0
M  V30 706 C 67.3094 -1.40936 4.203 0
M  V30 707 H 64.5294 -0.0620057 0.668129 0
M  V30 708 H 67.0734 0.457169 1.99324 0
M  V30 709 H 65.2284 -1.43889 3.59687 0
M  V30 710 H 65.6424 0.0391274 5.24485 0
M  V30 711 H 67.1164 -1.67099 5.26101 0
M  V30 712 H 67.5934 -2.35355 3.70816 0
M  V30 713 H 68.1994 -0.751117 4.18615 0
M  V30 714 N 66.5145 -1.57545 0.0417849 0
M  V30 715 C 67.4245 -2.14451 -0.951213 0
M  V30 716 C 68.4405 -1.09992 -1.34825 0
M  V30 717 O 69.6165 -1.42114 -1.42708 0
M  V30 718 C 66.6815 -2.67063 -2.21084 0
M  V30 719 C 65.7425 -3.86284 -1.87304 0
M  V30 720 C 64.9755 -4.36378 -3.07261 0
M  V30 721 O 65.1985 -3.85587 -4.20332 0
M  V30 722 O 64.1325 -5.28077 -2.88822 0
M  V30 723 H 67.9585 -2.99601 -0.497287 0
M  V30 724 H 65.5435 -1.48317 -0.179567 0
M  V30 725 H 67.4255 -3.00914 -2.95006 0
M  V30 726 H 66.1005 -1.84989 -2.65633 0
M  V30 727 H 65.0075 -3.57338 -1.10727 0
M  V30 728 H 66.3405 -4.6956 -1.47562 0
M  V30 729 N 67.9926 0.231505 -1.5589 0
M  V30 730 C 69.2386 0.954429 -1.79617 0
M  V30 731 C 69.5936 1.82367 -0.613199 0
M  V30 732 O 68.8866 1.87524 0.393094 0
M  V30 733 C 69.0806 1.83577 -3.0665 0
M  V30 734 C 68.9096 1.05334 -4.3719 0
M  V30 735 C 67.6796 0.75225 -4.99669 0
M  V30 736 C 69.8776 0.423444 -5.12554 0
M  V30 737 N 67.8596 -0.052627 -6.13877 0
M  V30 738 C 69.2306 -0.245287 -6.19515 0
M  V30 739 C 71.2856 0.335466 -4.96769 0
M  V30 740 C 69.9886 -0.993566 -7.12405 0
M  V30 741 C 72.0146 -0.399321 -5.9005 0
M  V30 742 C 71.3766 -1.05663 -6.9643 0
M  V30 743 H 67.4756 0.329846 -0.709031 0
M  V30 744 H 70.0596 0.226172 -1.93382 0
M  V30 745 H 68.2306 2.53592 -2.94186 0
M  V30 746 H 69.9626 2.49541 -3.18608 0
M  V30 747 H 66.7176 1.06783 -4.61405 0
M  V30 748 H 67.1416 -0.443609 -6.75545 0
M  V30 749 H 71.7836 0.829311 -4.14587 0
M  V30 750 H 69.5016 -1.49896 -7.94076 0
M  V30 751 H 73.0876 -0.468265 -5.79913 0
M  V30 752 H 71.9676 -1.61612 -7.67366 0
M  V30 753 N 69.4707 1.49531 0.497807 0
M  V30 754 C 70.4337 1.65916 1.58128 0
M  V30 755 C 71.4337 0.530825 1.51786 0
M  V30 756 O 72.6237 0.797342 1.54881 0
M  V30 757 C 69.7557 1.65951 2.9778 0
M  V30 758 H 70.9487 2.62556 1.44929 0
M  V30 759 H 68.5017 1.38611 0.722275 0
M  V30 760 H 69.2367 0.709065 3.16453 0
M  V30 761 H 69.0217 2.47897 3.03792 0
M  V30 762 H 70.5117 1.80673 3.76493 0
M  V30 763 N 70.9488 -0.749086 1.3866 0
M  V30 764 C 71.8818 -1.87111 1.30631 0
M  V30 765 C 72.8598 -1.61572 0.18251 0
M  V30 766 O 74.0438 -1.85019 0.360592 0
M  V30 767 C 71.1708 -3.22815 1.02511 0
M  V30 768 C 70.2168 -3.67234 2.1689 0
M  V30 769 S 71.0498 -3.78245 3.79066 0
M  V30 770 C 72.2058 -5.16761 3.53142 0
M  V30 771 H 72.4388 -1.93636 2.25594 0
M  V30 772 H 69.9718 -0.912525 1.24549 0
M  V30 773 H 71.9298 -4.01181 0.869701 0
M  V30 774 H 70.5908 -3.13964 0.0925884 0
M  V30 775 H 69.7838 -4.65677 1.92771 0
M  V30 776 H 69.3858 -2.96034 2.28561 0
M  V30 777 H 71.6778 -6.02656 3.09534 0
M  V30 778 H 72.6208 -5.45902 4.50995 0
M  V30 779 H 73.0288 -4.85771 2.87554 0
M  V30 780 N 72.4269 -1.23603 -0.977757 0
M  V30 781 C 73.6569 -1.09487 -1.75203 0
M  V30 782 C 74.0649 0.356321 -1.85814 0
M  V30 783 O 73.4079 1.25816 -1.33851 0
M  V30 784 C 73.4699 -1.64905 -3.19447 0
M  V30 785 C 73.1339 -3.13688 -3.32338 0
M  V30 786 C 74.1309 -4.10953 -3.18455 0
M  V30 787 C 71.8159 -3.53449 -3.56902 0
M  V30 788 C 73.8099 -5.45962 -3.28944 0
M  V30 789 C 71.4969 -4.88602 -3.6703 0
M  V30 790 C 72.4949 -5.84668 -3.53062 0
M  V30 791 O 72.1829 -7.17365 -3.62826 0
M  V30 792 H 71.9149 -0.38367 -0.556573 0
M  V30 793 H 74.4689 -1.6398 -1.23693 0
M  V30 794 H 72.6989 -1.04835 -3.72218 0
M  V30 795 H 74.3879 -1.46226 -3.78646 0
M  V30 796 H 75.1539 -3.81577 -2.99372 0
M  V30 797 H 71.0329 -2.79188 -3.66844 0
M  V30 798 H 74.5769 -6.20925 -3.17958 0
M  V30 799 H 70.4739 -5.17653 -3.85623 0
M  V30 800 H 71.2419 -7.2515 -3.79605 0
M  V30 801 N 73.905 1.17692 -1.04816 0
M  V30 802 C 74.868 2.19787 -0.650117 0
M  V30 803 C 75.868 1.58044 0.296427 0
M  V30 804 O 77.058 1.74012 0.0808097 0
M  V30 805 C 74.19 3.40869 0.0456987 0
M  V30 806 H 75.383 2.56516 -1.5537 0
M  V30 807 H 72.936 1.31708 -0.841594 0
M  V30 808 H 73.671 3.09681 0.962726 0
M  V30 809 H 73.456 3.86928 -0.634727 0
M  V30 810 H 74.946 4.16445 0.310432 0
M  V30 811 N 75.3831 0.828654 1.34056 0
M  V30 812 C 76.3301 0.252567 2.29414 0
M  V30 813 C 77.3001 -0.62588 1.53857 0
M  V30 814 O 78.4851 -0.566312 1.82202 0
M  V30 815 C 75.6251 -0.574831 3.40279 0
M  V30 816 C 74.7381 0.326499 4.30764 0
M  V30 817 C 73.8731 -0.511016 5.28736 0
M  V30 818 C 72.9121 0.389342 6.1086 0
M  V30 819 N 72.0491 -0.409439 7.00905 0
M  V30 820 H 76.8891 1.07108 2.78086 0
M  V30 821 H 74.4261 0.539677 1.36843 0
M  V30 822 H 76.3841 -1.06992 4.03248 0
M  V30 823 H 75.0141 -1.35841 2.92826 0
M  V30 824 H 74.0661 0.939837 3.68607 0
M  V30 825 H 75.3781 1.01857 4.88289 0
M  V30 826 H 74.5321 -1.07035 5.97184 0
M  V30 827 H 73.2711 -1.23657 4.71763 0
M  V30 828 H 72.2761 0.960769 5.4134 0
M  V30 829 H 73.5011 1.1131 6.69916 0
M  V30 830 H 71.4471 -1.11856 6.46393 0
M  V30 831 H 71.3641 0.224126 7.55668 0
M  V30 832 H 72.6321 -0.951336 7.73673 0
M  V30 833 N 76.8612 -1.46375 0.584142 0
M  V30 834 C 78.1082 -2.02378 0.0702675 0
M  V30 835 C 78.4362 -1.45545 -1.29023 0
M  V30 836 O 77.6912 -0.610967 -1.85918 0
M  V30 837 C 77.9902 -3.57373 -0.0439342 0
M  V30 838 C 77.6562 -4.33252 1.24915 0
M  V30 839 C 76.3182 -4.53701 1.60341 0
M  V30 840 C 78.6702 -4.7681 2.1048 0
M  V30 841 C 75.9982 -5.1496 2.81128 0
M  V30 842 C 78.3502 -5.39404 3.30494 0
M  V30 843 C 77.0142 -5.5808 3.66201 0
M  V30 844 H 76.2842 -0.740554 0.0257127 0
M  V30 845 H 78.9312 -1.75727 0.761065 0
M  V30 846 H 77.2362 -3.83169 -0.817869 0
M  V30 847 H 78.9332 -3.98384 -0.457318 0
M  V30 848 H 75.5232 -4.17633 0.963364 0
M  V30 849 H 79.7072 -4.60766 1.84414 0
M  V30 850 H 74.9632 -5.27611 3.08928 0
M  V30 851 H 79.1372 -5.72114 3.97063 0
M  V30 852 H 76.7642 -6.05318 4.59885 0
M  V30 853 N 78.3393 -0.321999 -1.54275 0
M  V30 854 C 79.6163 0.335232 -1.92706 0
M  V30 855 C 79.9963 1.70006 -1.25145 0
M  V30 856 O 79.3443 2.25067 -0.394596 0
M  V30 857 C 79.5543 0.429008 -3.46353 0
M  V30 858 C 80.9023 0.690029 -4.18956 0
M  V30 859 O 81.9263 0.511992 -3.52501 0
M  V30 860 O 80.7853 1.03338 -5.36641 0
M  V30 861 H 77.8793 0.191143 -0.804608 0
M  V30 862 H 80.4253 -0.3716 -1.65581 0
M  V30 863 H 79.1973 -0.529611 -3.87699 0
M  V30 864 H 78.8203 1.18348 -3.79578 0
M  V30 865 N 79.8174 1.5752 -0.0501392 0
M  V30 866 C 80.7494 2.08413 0.95376 0
M  V30 867 C 81.7624 1.01175 1.27544 0
M  V30 868 O 82.9514 1.28744 1.23641 0
M  V30 869 C 80.0514 2.51138 2.27559 0
M  V30 870 C 79.2244 3.817 2.13598 0
M  V30 871 C 78.2834 4.10749 3.28895 0
M  V30 872 O 77.3094 4.80685 3.04845 0
M  V30 873 N 78.5114 3.62579 4.5334 0
M  V30 874 H 81.2764 2.95165 0.519383 0
M  V30 875 H 78.8374 1.61327 0.136127 0
M  V30 876 H 80.8294 2.67648 3.03557 0
M  V30 877 H 79.3994 1.6964 2.62567 0
M  V30 878 H 78.6194 3.74782 1.22197 0
M  V30 879 H 79.9074 4.67201 2.01496 0
M  V30 880 H 79.3054 3.06039 4.75769 0
M  V30 881 H 77.8624 3.84329 5.26436 0
M  V30 882 N 81.2955 -0.223234 1.56011 0
M  V30 883 C 82.5255 -0.963413 1.82762 0
M  V30 884 C 82.9335 -1.78516 0.626804 0
M  V30 885 O 82.2765 -1.78974 -0.414014 0
M  V30 886 C 82.3385 -1.93126 3.0322 0
M  V30 887 C 82.0025 -1.2942 4.38291 0
M  V30 888 C 82.9995 -0.684916 5.15369 0
M  V30 889 C 80.6845 -1.30647 4.85012 0
M  V30 890 C 82.6785 -0.0963971 6.37327 0
M  V30 891 C 80.3655 -0.71411 6.06913 0
M  V30 892 C 81.3635 -0.110123 6.82911 0
M  V30 893 O 81.0515 0.47303 8.02507 0
M  V30 894 H 80.7835 -0.288011 0.611576 0
M  V30 895 H 83.3375 -0.244103 2.03944 0
M  V30 896 H 81.5675 -2.68952 2.77852 0
M  V30 897 H 83.2565 -2.53685 3.16857 0
M  V30 898 H 84.0225 -0.667774 4.80381 0
M  V30 899 H 79.9015 -1.76598 4.25833 0
M  V30 900 H 83.4455 0.375657 6.96588 0
M  V30 901 H 79.3425 -0.728659 6.41374 0
M  V30 902 H 80.1105 0.367186 8.17676 0
M  V30 903 N 82.7736 -1.49793 -0.48987 0
M  V30 904 C 84.1896 -1.36803 -0.822022 0
M  V30 905 C 84.3896 -0.409652 -1.97292 0
M  V30 906 O 83.4456 0.154614 -2.52026 0
M  V30 907 C 84.7586 -2.77768 -1.15175 0
M  V30 908 C 86.3066 -2.86549 -1.25931 0
M  V30 909 C 86.7816 -4.28306 -1.62228 0
M  V30 910 N 88.2726 -4.31169 -1.69256 0
M  V30 911 C 89.0076 -5.37832 -1.98807 0
M  V30 912 N 88.5036 -6.54726 -2.26507 0
M  V30 913 N 90.2966 -5.25258 -2.00152 0
M  V30 914 H 82.4476 -2.10691 0.268881 0
M  V30 915 H 84.7106 -0.946241 0.057728 0
M  V30 916 H 84.4166 -3.49648 -0.379335 0
M  V30 917 H 84.2906 -3.13836 -2.09253 0
M  V30 918 H 86.6776 -2.14899 -2.02243 0
M  V30 919 H 86.7586 -2.54049 -0.298776 0
M  V30 920 H 86.4026 -5.00486 -0.864622 0
M  V30 921 H 86.3326 -4.58279 -2.594 0
M  V30 922 H 88.8236 -3.4687 -1.49965 0
M  V30 923 H 89.1366 -7.31833 -2.48276 0
M  V30 924 H 87.4816 -6.57933 -2.23939 0
M  V30 925 H 90.6726 -4.32938 -1.77996 0
M  V30 926 H 90.8456 -6.08476 -2.22848 0
M  V30 927 N 84.2517 0.741722 -1.39055 0
M  V30 928 C 85.4817 1.52876 -1.3897 0
M  V30 929 C 85.8897 1.8919 0.0193266 0
M  V30 930 O 85.2327 1.54138 0.999356 0
M  V30 931 C 85.2947 2.84929 -2.19216 0
M  V30 932 C 84.9587 2.71086 -3.67915 0
M  V30 933 C 85.9557 2.40084 -4.61146 0
M  V30 934 C 83.6407 2.88168 -4.11418 0
M  V30 935 C 85.6347 2.26335 -5.95862 0
M  V30 936 C 83.3217 2.74037 -5.46211 0
M  V30 937 C 84.3197 2.43166 -6.38247 0
M  V30 938 O 84.0077 2.29115 -7.70559 0
M  V30 939 H 83.7397 0.479252 -0.476753 0
M  V30 940 H 86.2937 0.924751 -1.83405 0
M  V30 941 H 84.5237 3.47564 -1.69518 0
M  V30 942 H 86.2127 3.46509 -2.11392 0
M  V30 943 H 86.9787 2.26545 -4.28838 0
M  V30 944 H 82.8577 3.11191 -3.40119 0
M  V30 945 H 86.4017 2.0216 -6.67665 0
M  V30 946 H 82.2987 2.87153 -5.78112 0
M  V30 947 H 83.0667 2.44237 -7.81211 0
M  V30 948 N 85.7298 1.2412 0.971189 0
M  V30 949 C 86.9578 1.10575 1.74874 0
M  V30 950 C 87.3728 -0.342017 1.85676 0
M  V30 951 O 86.7298 -1.23617 1.34258 0
M  V30 952 C 86.7808 1.73579 3.171 0
M  V30 953 O 86.5018 3.12695 3.06844 0
M  V30 954 C 88.0028 1.65598 4.11208 0
M  V30 955 H 85.2228 0.386504 0.548503 0
M  V30 956 H 87.7668 1.64156 1.21955 0
M  V30 957 H 85.9218 1.24009 3.67016 0
M  V30 958 H 86.3358 3.43412 3.96445 0
M  V30 959 H 87.8098 2.1437 5.08674 0
M  V30 960 H 88.2868 0.616532 4.34851 0
M  V30 961 H 88.8928 2.14578 3.67201 0
M  V30 962 N 87.2079 -1.17134 1.05439 0
M  V30 963 C 88.6239 -1.39454 0.776201 0
M  V30 964 C 88.8239 -1.91454 -0.628307 0
M  V30 965 O 87.8799 -2.10777 -1.39031 0
M  V30 966 C 89.1929 -2.38305 1.83388 0
M  V30 967 C 90.7409 -2.52006 1.85639 0
M  V30 968 C 91.2159 -3.54133 2.90437 0
M  V30 969 N 92.7069 -3.61653 2.89415 0
M  V30 970 C 93.4419 -4.4044 3.67152 0
M  V30 971 N 92.9379 -5.22721 4.54681 0
M  V30 972 N 94.7309 -4.35337 3.55581 0
M  V30 973 H 86.8819 -0.817134 1.96053 0
M  V30 974 H 89.1449 -0.421626 0.849079 0
M  V30 975 H 88.8509 -2.07173 2.84204 0
M  V30 976 H 88.7249 -3.37841 1.67761 0
M  V30 977 H 91.1119 -2.82447 0.85486 0
M  V30 978 H 91.1929 -1.52537 2.05344 0
M  V30 979 H 90.8369 -3.24431 3.90777 0
M  V30 980 H 90.7669 -4.53313 2.67983 0
M  V30 981 H 93.2579 -3.02909 2.25952 0
M  V30 982 H 93.5709 -5.80027 5.10674 0
M  V30 983 H 91.9159 -5.22093 4.58741 0
M  V30 984 H 95.1069 -3.70112 2.86592 0
M  V30 985 H 95.2799 -4.96494 4.1641 0
M  V30 986 N 88.686 -0.835752 -1.33615 0
M  V30 987 C 89.634 -0.255238 -2.31195 0
M  V30 988 C 90.628 0.61107 -1.57995 0
M  V30 989 O 91.834 0.500979 -1.72888 0
M  V30 990 H 88.209 -0.0638085 -0.749288 0
M  V30 991 H 90.18 -1.09283 -2.77669 0
M  V30 992 C 88.929 0.55754 -3.43201 0
M  V30 993 H 88.252 -0.0997553 -3.99676 0
M  V30 994 H 89.692 0.929622 -4.13683 0
M  V30 995 C 88.151 1.73515 -2.88781 0
M  V30 996 O 88.681 2.83376 -2.84712 0
M  V30 997 N 86.887 1.55603 -2.4543 0
M  V30 998 H 86.434 0.662354 -2.48939 0
M  V30 999 H 86.392 2.34545 -2.09371 0
M  V30 1000 N 90.1641 1.46063 -0.591896 0
M  V30 1001 C 91.0941 2.33172 0.123673 0
M  V30 1002 C 92.0751 1.45897 0.87453 0
M  V30 1003 O 93.2601 1.74698 0.848181 0
M  V30 1004 C 90.3901 3.28336 1.13194 0
M  V30 1005 C 89.3441 4.25124 0.495324 0
M  V30 1006 C 88.6701 5.09863 1.61071 0
M  V30 1007 C 89.9701 5.19143 -0.573425 0
M  V30 1008 H 91.6641 2.93252 -0.603646 0
M  V30 1009 H 89.2101 1.41014 -0.291741 0
M  V30 1010 H 91.1631 3.88137 1.64097 0
M  V30 1011 H 89.8871 2.66383 1.88965 0
M  V30 1012 H 88.5461 3.66599 0.00729452 0
M  V30 1013 H 88.1941 4.44288 2.35832 0
M  V30 1014 H 87.8941 5.75417 1.19035 0
M  V30 1015 H 89.4181 5.72529 2.12233 0
M  V30 1016 H 90.8321 5.73106 -0.1491 0
M  V30 1017 H 89.2291 5.93089 -0.914636 0
M  V30 1018 H 90.2991 4.62519 -1.45617 0
M  V30 1019 N 91.6422 0.330177 1.54103 0
M  V30 1020 C 92.8882 -0.270806 2.00984 0
M  V30 1021 C 93.2212 -1.51265 1.21789 0
M  V30 1022 O 92.4962 -1.92142 0.301927 0
M  V30 1023 C 92.7792 -0.598339 3.55094 0
M  V30 1024 C 92.6322 0.654674 4.4501 0
M  V30 1025 C 93.9512 -1.41334 4.16789 0
M  V30 1026 H 91.0702 -0.0969531 0.730595 0
M  V30 1027 H 93.7122 0.448066 1.84641 0
M  V30 1028 H 91.8622 -1.21078 3.69151 0
M  V30 1029 H 93.5342 1.29285 4.42813 0
M  V30 1030 H 91.7772 1.28224 4.14416 0
M  V30 1031 H 92.4482 0.380944 5.50684 0
M  V30 1032 H 94.9242 -0.895597 4.06347 0
M  V30 1033 H 93.8002 -1.61127 5.24718 0
M  V30 1034 H 94.0612 -2.41146 3.70541 0
M  V30 1035 N 93.1203 -1.57491 0.0584922 0
M  V30 1036 C 94.3973 -1.84346 -0.653918 0
M  V30 1037 C 94.7773 -0.948355 -1.88599 0
M  V30 1038 O 94.1253 -0.0112403 -2.28497 0
M  V30 1039 C 94.3353 -3.34239 -1.00425 0
M  V30 1040 C 95.6833 -4.01431 -1.38342 0
M  V30 1041 O 96.7073 -3.38907 -1.09637 0
M  V30 1042 O 95.5663 -5.11683 -1.91943 0
M  V30 1043 H 92.6603 -0.761112 -0.323478 0
M  V30 1044 H 95.2063 -1.6947 0.0884125 0
M  V30 1045 H 93.9783 -3.91089 -0.128625 0
M  V30 1046 H 93.6013 -3.54329 -1.80378 0
M  V30 1047 N 94.5984 0.214957 -1.56127 0
M  V30 1048 C 95.5304 1.29004 -1.89448 0
M  V30 1049 C 96.5434 1.42716 -0.783326 0
M  V30 1050 O 97.7324 1.43496 -1.06166 0
M  V30 1051 C 94.8324 2.66482 -2.09381 0
M  V30 1052 C 94.0054 2.74633 -3.40434 0
M  V30 1053 C 93.0644 3.9317 -3.49719 0
M  V30 1054 O 92.0904 3.812 -4.227 0
M  V30 1055 N 93.2924 5.07765 -2.81346 0
M  V30 1056 H 96.0574 1.00743 -2.82261 0
M  V30 1057 H 93.6184 0.40497 -1.56753 0
M  V30 1058 H 95.6104 3.44173 -2.12901 0
M  V30 1059 H 94.1804 2.87314 -1.23163 0
M  V30 1060 H 93.4004 1.83368 -3.48955 0
M  V30 1061 H 94.6884 2.77054 -4.26754 0
M  V30 1062 H 94.0864 5.20386 -2.21843 0
M  V30 1063 H 92.6434 5.83474 -2.90519 0
M  V30 1064 N 96.0765 1.50051 0.48192 0
M  V30 1065 C 97.3245 1.60181 1.23234 0
M  V30 1066 C 97.6455 0.299176 1.92691 0
M  V30 1067 O 96.9155 -0.682708 1.83619 0
M  V30 1068 H 95.4955 0.590232 0.457859 0
M  V30 1069 H 98.1575 1.86775 0.556881 0
M  V30 1070 H 97.2535 2.40753 1.98607 0
M  V30 1071 N 97.5546 -0.734337 1.39446 0
M  V30 1072 C 98.5026 -1.86971 1.38364 0
M  V30 1073 C 99.4966 -1.67288 0.266687 0
M  V30 1074 O 100.703 -1.74621 0.436755 0
M  V30 1075 H 97.0776 -0.615474 0.432082 0
M  V30 1076 H 99.0486 -1.85 2.34132 0
M  V30 1077 C 97.7976 -3.2466 1.24465 0
M  V30 1078 H 97.1206 -3.40402 2.09682 0
M  V30 1079 H 98.5606 -4.04292 1.27764 0
M  V30 1080 C 97.0196 -3.36867 -0.0468674 0
M  V30 1081 O 97.5496 -3.88618 -1.01681 0
M  V30 1082 N 95.7556 -2.90391 -0.110145 0
M  V30 1083 H 95.3026 -2.48466 0.679868 0
M  V30 1084 H 95.2606 -2.98939 -0.973799 0
M  V30 1085 N 99.0327 -1.24633 -0.964593 0
M  V30 1086 C 100.281 -1.08573 -1.70459 0
M  V30 1087 C 100.602 0.375655 -1.91347 0
M  V30 1088 O 99.8717 1.26779 -1.49345 0
M  V30 1089 H 98.4517 -0.398784 -0.631649 0
M  V30 1090 H 101.114 -1.56601 -1.16026 0
M  V30 1091 H 100.21 -1.58623 -2.68785 0
M  V30 1092 N 100.511 1.16574 -1.06058 0
M  V30 1093 C 101.458 2.20883 -0.669263 0
M  V30 1094 C 102.428 1.62729 0.332918 0
M  V30 1095 O 103.613 1.895 0.222346 0
M  V30 1096 C 100.753 3.45049 -0.0593572 0
M  V30 1097 C 99.8658 4.17458 -1.11143 0
M  V30 1098 C 99.0008 5.29135 -0.467916 0
M  V30 1099 C 98.0398 5.93343 -1.50369 0
M  V30 1100 N 97.1768 6.96516 -0.883706 0
M  V30 1101 H 102.017 2.53709 -1.5632 0
M  V30 1102 H 99.5538 1.24616 -0.781625 0
M  V30 1103 H 101.512 4.16033 0.311771 0
M  V30 1104 H 100.142 3.12781 0.797992 0
M  V30 1105 H 99.1938 3.45101 -1.60029 0
M  V30 1106 H 100.506 4.61307 -1.89731 0
M  V30 1107 H 99.6598 6.06684 -0.0436871 0
M  V30 1108 H 98.3988 4.86443 0.349864 0
M  V30 1109 H 97.4038 5.14517 -1.93784 0
M  V30 1110 H 98.6288 6.38114 -2.32352 0
M  V30 1111 H 96.5748 6.55943 -0.086595 0
M  V30 1112 H 96.4918 7.38723 -1.607 0
M  V30 1113 H 97.7598 7.77993 -0.484543 0
M  V30 1114 N 101.989 0.842826 1.3317 0
M  V30 1115 C 103.236 0.440447 1.97652 0
M  V30 1116 C 103.564 -1.00123 1.6675 0
M  V30 1117 O 102.819 -1.7155 0.941761 0
M  V30 1118 C 103.118 0.612607 3.52111 0
M  V30 1119 C 102.784 2.02297 4.02972 0
M  V30 1120 C 101.446 2.40874 4.16573 0
M  V30 1121 C 103.798 2.94402 4.30089 0
M  V30 1122 C 101.126 3.70852 4.54627 0
M  V30 1123 C 103.478 4.23865 4.69597 0
M  V30 1124 C 102.142 4.62392 4.81404 0
M  V30 1125 H 101.412 0.161171 0.72326 0
M  V30 1126 H 104.059 1.07061 1.58777 0
M  V30 1127 H 102.364 -0.100849 3.9167 0
M  V30 1128 H 104.061 0.2815 4.00011 0
M  V30 1129 H 100.651 1.71338 3.92863 0
M  V30 1130 H 104.835 2.65835 4.19101 0
M  V30 1131 H 100.091 4.00501 4.61962 0
M  V30 1132 H 104.265 4.95306 4.89536 0
M  V30 1133 H 101.892 5.63154 5.10648 0
M  V30 1134 N 103.467 -1.45747 0.599634 0
M  V30 1135 C 104.415 -2.322 -0.136426 0
M  V30 1136 C 105.409 -1.45497 -0.867583 0
M  V30 1137 O 106.615 -1.62027 -0.78405 0
M  V30 1138 H 102.99 -0.749368 -0.0628588 0
M  V30 1139 H 104.961 -2.92072 0.611281 0
M  V30 1140 C 103.71 -3.28974 -1.12567 0
M  V30 1141 H 103.033 -3.9568 -0.572484 0
M  V30 1142 H 104.473 -3.92212 -1.61077 0
M  V30 1143 C 102.932 -2.55561 -2.19523 0
M  V30 1144 O 103.462 -2.33111 -3.27143 0
M  V30 1145 N 101.668 -2.15832 -1.94589 0
M  V30 1146 H 101.215 -2.3429 -1.07078 0
M  V30 1147 H 101.173 -1.67034 -2.66359 0
M  V30 1148 N 104.945 -0.338344 -1.53925 0
M  V30 1149 C 105.875 0.51328 -2.27789 0
M  V30 1150 C 106.856 1.107 -1.29149 0
M  V30 1151 O 108.041 1.12937 -1.57984 0
M  V30 1152 C 105.171 1.66697 -3.04679 0
M  V30 1153 C 104.125 1.20183 -4.1078 0
M  V30 1154 C 103.451 2.44363 -4.75595 0
M  V30 1155 C 104.751 0.30605 -5.21403 0
M  V30 1156 H 106.445 -0.102883 -2.99223 0
M  V30 1157 H 103.991 -0.0509219 -1.4391 0
M  V30 1158 H 105.944 2.26915 -3.55088 0
M  V30 1159 H 104.668 2.30995 -2.30887 0
M  V30 1160 H 103.327 0.622499 -3.61276 0
M  V30 1161 H 102.975 3.07057 -3.98403 0
M  V30 1162 H 102.675 2.13925 -5.47275 0
M  V30 1163 H 104.199 3.05317 -5.28786 0
M  V30 1164 H 105.613 0.814929 -5.67478 0
M  V30 1165 H 104.01 0.0937929 -6.00027 0
M  V30 1166 H 105.08 -0.65921 -4.80398 0
M  V30 1167 N 106.423 1.57458 -0.0668435 0
M  V30 1168 C 107.356 2.08033 0.93795 0
M  V30 1169 C 108.334 0.984321 1.29421 0
M  V30 1170 O 109.518 1.25736 1.40437 0
M  V30 1171 C 106.645 2.53388 2.24749 0
M  V30 1172 C 105.691 3.74376 2.04315 0
M  V30 1173 S 106.524 5.19303 1.30706 0
M  V30 1174 C 107.68 5.67986 2.62951 0
M  V30 1175 H 107.913 2.92935 0.50759 0
M  V30 1176 H 105.446 1.5371 0.145804 0
M  V30 1177 H 107.404 2.8018 3.00016 0
M  V30 1178 H 106.065 1.68763 2.64911 0
M  V30 1179 H 105.258 4.04083 3.01218 0
M  V30 1180 H 104.86 3.47931 1.37186 0
M  V30 1181 H 107.152 5.74528 3.5906 0
M  V30 1182 H 108.095 6.66955 2.3786 0
M  V30 1183 H 108.503 4.95781 2.69929 0
M  V30 1184 N 107.901 -0.206675 1.56239 0
M  V30 1185 C 109.15 -0.926964 1.79138 0
M  V30 1186 C 109.463 -1.84901 0.638043 0
M  V30 1187 O 110.669 -2.60906 0.751033 0
M  V30 1188 C 109.125 -1.6986 3.17294 0
M  V30 1189 C 108.733 -0.821956 4.40395 0
M  V30 1190 C 110.477 -2.40922 3.4951 0
M  V30 1191 C 108.384 -1.59179 5.69575 0
M  V30 1192 H 107.314 -0.349864 0.667915 0
M  V30 1193 H 109.965 -0.180487 1.8261 0
M  V30 1194 H 108.347 -2.48853 3.08039 0
M  V30 1195 H 109.521 -0.0715019 4.60745 0
M  V30 1196 H 107.836 -0.222741 4.15804 0
M  V30 1197 H 110.433 -2.99047 4.43255 0
M  V30 1198 H 110.776 -3.14542 2.72707 0
M  V30 1199 H 111.309 -1.68905 3.60161 0
M  V30 1200 H 108.048 -0.898589 6.49312 0
M  V30 1201 H 107.568 -2.31648 5.53262 0
M  V30 1202 H 109.247 -2.14862 6.10281 0
M  V30 1203 N 109.379 -1.50304 -0.473955 0
M  V30 1204 C 110.309 -1.71886 -1.58042 0
M  V30 1205 C 111.29 -0.567799 -1.60344 0
M  V30 1206 O 112.475 -0.806623 -1.76656 0
M  V30 1207 C 109.605 -1.81036 -2.96384 0
M  V30 1208 C 108.559 -2.962 -3.08949 0
M  V30 1209 C 107.885 -2.9049 -4.48909 0
M  V30 1210 C 109.185 -4.36752 -2.86434 0
M  V30 1211 H 110.879 -2.64527 -1.40234 0
M  V30 1212 H 108.425 -1.27295 -0.673201 0
M  V30 1213 H 110.378 -1.94719 -3.73714 0
M  V30 1214 H 109.102 -0.850147 -3.15341 0
M  V30 1215 H 107.761 -2.82164 -2.3405 0
M  V30 1216 H 107.409 -1.92321 -4.64781 0
M  V30 1217 H 107.109 -3.67802 -4.58253 0
M  V30 1218 H 108.633 -3.06218 -5.28264 0
M  V30 1219 H 110.047 -4.5133 -3.53517 0
M  V30 1220 H 108.444 -5.15493 -3.07225 0
M  V30 1221 H 109.514 -4.49321 -1.82316 0
M  V30 1222 N 110.857 0.726932 -1.39834 0
M  V30 1223 C 112.097 1.4992 -1.38936 0
M  V30 1224 C 112.461 1.91996 0.0126883 0
M  V30 1225 O 113.662 2.68399 0.146715 0
M  V30 1226 C 111.933 2.70013 -2.34153 0
M  V30 1227 S 113.492 3.59563 -2.51515 0
M  V30 1228 H 110.31 0.51271 -0.492595 0
M  V30 1229 H 112.912 0.85107 -1.76003 0
M  V30 1230 H 111.616 2.37254 -3.34871 0
M  V30 1231 H 111.147 3.39748 -1.98331 0
M  V30 1232 H 113.162 4.63973 -1.75909 0
M  V30 1233 N 112.336 1.25143 0.95797 0
M  V30 1234 C 113.582 1.10863 1.70531 0
M  V30 1235 C 113.937 -0.347391 1.89238 0
M  V30 1236 O 113.23 -1.25262 1.44983 0
M  V30 1237 C 113.424 1.79272 3.09187 0
M  V30 1238 C 113.253 3.31376 3.04006 0
M  V30 1239 C 112.023 4.0062 3.07948 0
M  V30 1240 C 114.221 4.27825 2.8543 0
M  V30 1241 N 112.203 5.39526 2.9289 0
M  V30 1242 C 113.574 5.53794 2.78769 0
M  V30 1243 C 115.629 4.1828 2.70085 0
M  V30 1244 C 114.332 6.7131 2.58331 0
M  V30 1245 C 116.358 5.35485 2.51017 0
M  V30 1246 C 115.72 6.60393 2.45073 0
M  V30 1247 H 111.819 0.460362 0.632132 0
M  V30 1248 H 114.403 1.58196 1.13499 0
M  V30 1249 H 112.574 1.34439 3.64391 0
M  V30 1250 H 114.306 1.57764 3.72683 0
M  V30 1251 H 111.061 3.51855 3.17009 0
M  V30 1252 H 111.485 6.12416 2.88574 0
M  V30 1253 H 116.127 3.22461 2.73457 0
M  V30 1254 H 113.845 7.67243 2.53701 0
M  V30 1255 H 117.431 5.29959 2.40073 0
M  V30 1256 H 116.311 7.49557 2.30509 0
M  V30 1257 N 113.814 -1.1601 1.06675 0
M  V30 1258 C 115.062 -1.86264 0.784229 0
M  V30 1259 C 115.383 -1.82328 -0.691488 0
M  V30 1260 O 114.653 -1.25947 -1.50047 0
M  V30 1261 H 113.233 -0.689621 0.28711 0
M  V30 1262 H 115.895 -1.40664 1.34906 0
M  V30 1263 H 114.991 -2.91595 1.11259 0
M  V30 1264 N 115.292 -0.849877 -1.32721 0
M  V30 1265 C 116.202 -0.293791 -2.32753 0
M  V30 1266 C 117.218 0.585906 -1.63839 0
M  V30 1267 O 118.394 0.487413 -1.95413 0
M  V30 1268 C 115.459 0.512752 -3.42887 0
M  V30 1269 C 114.52 -0.39252 -4.27502 0
M  V30 1270 C 113.753 0.375625 -5.32377 0
M  V30 1271 O 113.976 1.60613 -5.4732 0
M  V30 1272 O 112.91 -0.256094 -6.01355 0
M  V30 1273 H 116.736 -1.12242 -2.82197 0
M  V30 1274 H 114.321 -0.612685 -1.36259 0
M  V30 1275 H 116.203 0.970704 -4.10067 0
M  V30 1276 H 114.878 1.31826 -2.95641 0
M  V30 1277 H 113.785 -0.898547 -3.63149 0
M  V30 1278 H 115.118 -1.16309 -4.7826 0
M  V30 1279 N 116.77 1.45427 -0.607355 0
M  V30 1280 C 118.018 2.01841 -0.102253 0
M  V30 1281 C 118.339 1.47832 1.27164 0
M  V30 1282 O 117.609 0.672497 1.83995 0
M  V30 1283 H 116.189 0.746188 -0.0348101 0
M  V30 1284 H 118.851 1.78229 -0.7887 0
M  V30 1285 H 117.947 3.12057 -0.0518585 0
M  V30 1286 N 118.248 0.346503 1.53744 0
M  V30 1287 C 119.198 -0.524953 2.21874 0
M  V30 1288 C 120.182 -1.06376 1.20718 0
M  V30 1289 O 121.374 -0.996972 1.46251 0
M  V30 1290 C 118.503 -1.6739 2.99726 0
M  V30 1291 C 117.589 -1.14888 4.08242 0
M  V30 1292 N 117.98 -0.345329 5.0462 0
M  V30 1293 C 116.278 -1.4255 4.22606 0
M  V30 1294 C 116.979 -0.0600706 5.81669 0
M  V30 1295 N 115.955 -0.65252 5.39669 0
M  V30 1296 H 119.757 0.0960091 2.93743 0
M  V30 1297 H 117.271 0.15352 1.61673 0
M  V30 1298 H 119.268 -2.3102 3.47038 0
M  V30 1299 H 117.928 -2.29811 2.29384 0
M  V30 1300 H 118.939 0.0138439 5.17898 0
M  V30 1301 H 115.616 -2.05389 3.63486 0
M  V30 1302 H 117.006 0.588321 6.69319 0
M  V30 1303 N 119.726 -1.57421 0.075193 0
M  V30 1304 C 120.974 -1.93236 -0.591974 0
M  V30 1305 C 121.295 -0.956241 -1.69944 0
M  V30 1306 O 120.565 -0.00494792 -1.95899 0
M  V30 1307 H 119.145 -0.713355 -0.22166 0
M  V30 1308 H 121.807 -1.9444 0.133848 0
M  V30 1309 H 120.903 -2.95131 -1.01509 0
M  V30 1310 N 121.204 0.198386 -1.56346 0
M  V30 1311 C 122.429 0.939682 -1.84891 0
M  V30 1312 C 122.854 1.76202 -0.658369 0
M  V30 1313 O 122.212 1.76993 0.392851 0
M  V30 1314 C 122.26 1.81428 -3.11635 0
M  V30 1315 O 121.364 2.91265 -2.91956 0
M  V30 1316 H 120.705 0.264807 -0.608912 0
M  V30 1317 H 123.235 0.204695 -2.03573 0
M  V30 1318 H 123.245 2.21958 -3.42343 0
M  V30 1319 H 121.92 1.21004 -3.97908 0
M  V30 1320 H 120.497 2.54514 -2.72538 0
M  V30 1321 N 122.682 1.50554 0.465978 0
M  V30 1322 C 123.907 1.65838 1.24549 0
M  V30 1323 C 124.332 0.343486 1.84937 0
M  V30 1324 O 123.69 -0.69324 1.67523 0
M  V30 1325 C 123.738 2.75533 2.32624 0
M  V30 1326 O 122.842 2.37142 3.37398 0
M  V30 1327 H 122.183 0.553893 0.366194 0
M  V30 1328 H 124.713 1.96959 0.553927 0
M  V30 1329 H 124.723 2.98763 2.77857 0
M  V30 1330 H 123.398 3.70962 1.88043 0
M  V30 1331 H 121.975 2.24377 2.97841 0
M  V30 1332 N 124.16 -0.719506 1.40217 0
M  V30 1333 C 125.409 -1.47486 1.37589 0
M  V30 1334 C 125.722 -1.9559 -0.0201568 0
M  V30 1335 O 126.928 -2.70973 -0.169049 0
M  V30 1336 C 125.384 -2.66575 2.41796 0
M  V30 1337 C 124.992 -2.25358 3.87192 0
M  V30 1338 C 126.736 -3.4433 2.48269 0
M  V30 1339 C 124.643 -3.41262 4.83005 0
M  V30 1340 H 123.573 -0.553901 0.511576 0
M  V30 1341 H 126.224 -0.783427 1.65936 0
M  V30 1342 H 124.606 -3.3787 2.06543 0
M  V30 1343 H 125.78 -1.61509 4.31569 0
M  V30 1344 H 124.095 -1.60657 3.84159 0
M  V30 1345 H 126.692 -4.30569 3.17041 0
M  V30 1346 H 127.035 -3.87872 1.51198 0
M  V30 1347 H 127.568 -2.80076 2.82493 0
M  V30 1348 H 124.307 -3.02755 5.81394 0
M  V30 1349 H 123.827 -4.0404 4.43297 0
M  V30 1350 H 125.506 -4.07383 5.02641 0
M  V30 1351 N 125.638 -1.25649 -0.95132 0
M  V30 1352 C 126.588 -1.03004 -2.03406 0
M  V30 1353 C 127.572 0.034187 -1.60864 0
M  V30 1354 O 128.764 -0.181549 -1.76066 0
M  V30 1355 C 125.893 -0.654255 -3.37008 0
M  V30 1356 C 124.979 -1.75542 -3.86065 0
M  V30 1357 N 125.37 -2.99113 -4.07879 0
M  V30 1358 C 123.668 -1.63669 -4.14884 0
M  V30 1359 C 124.369 -3.70611 -4.48356 0
M  V30 1360 N 123.345 -2.98247 -4.54477 0
M  V30 1361 H 127.147 -1.96813 -2.1827 0
M  V30 1362 H 124.661 -1.16017 -1.13639 0
M  V30 1363 H 126.658 -0.473206 -4.14206 0
M  V30 1364 H 125.318 0.276468 -3.23521 0
M  V30 1365 H 126.329 -3.35124 -3.94857 0
M  V30 1366 H 123.006 -0.775161 -4.10241 0
M  V30 1367 H 124.396 -4.76695 -4.73509 0
M  V30 1368 N 127.117 1.15442 -1.07289 0
M  V30 1369 C 128.394 1.82306 -0.708792 0
M  V30 1370 C 128.774 1.94991 0.808807 0
M  V30 1371 O 128.122 1.50085 1.72298 0
M  V30 1372 C 128.332 3.18695 -1.42247 0
M  V30 1373 C 129.68 3.94341 -1.57417 0
M  V30 1374 O 130.704 3.28247 -1.38319 0
M  V30 1375 O 129.563 5.12839 -1.88834 0
M  V30 1376 H 126.657 0.787628 -0.252132 0
M  V30 1377 H 129.203 1.22559 -1.17377 0
M  V30 1378 H 127.975 3.04557 -2.45684 0
M  V30 1379 H 127.598 3.86128 -0.948223 0
M  V30 1380 N 128.595 0.856903 1.32268 0
M  V30 1381 C 129.545 0.274899 2.26337 0
M  V30 1382 C 130.529 -0.580543 1.50062 0
M  V30 1383 O 131.721 -0.429559 1.71708 0
M  V30 1384 C 128.85 -0.533841 3.39124 0
M  V30 1385 C 127.936 0.334114 4.22782 0
M  V30 1386 N 128.327 1.42143 4.85416 0
M  V30 1387 C 126.625 0.124256 4.45827 0
M  V30 1388 C 127.326 1.95559 5.47843 0
M  V30 1389 N 126.302 1.25444 5.28928 0
M  V30 1390 H 130.104 1.10612 2.72291 0
M  V30 1391 H 127.618 0.703258 1.46383 0
M  V30 1392 H 129.615 -0.96722 4.05525 0
M  V30 1393 H 128.275 -1.36283 2.94715 0
M  V30 1394 H 129.286 1.80436 4.85451 0
M  V30 1395 H 125.963 -0.669837 4.12092 0
M  V30 1396 H 127.353 2.86714 6.07655 0
M  V30 1397 N 130.073 -1.45103 0.615059 0
M  V30 1398 C 131.301 -2.06553 0.11977 0
M  V30 1399 C 131.716 -1.45842 -1.19898 0
M  V30 1400 O 131.073 -0.575325 -1.73194 0
M  V30 1401 C 131.124 -3.61495 -0.018364 0
M  V30 1402 O 130.845 -4.19942 1.24822 0
M  V30 1403 C 132.346 -4.39947 -0.544237 0
M  V30 1404 H 129.566 -0.667096 0.0722739 0
M  V30 1405 H 132.11 -1.8623 0.84491 0
M  V30 1406 H 130.265 -3.81135 -0.693865 0
M  V30 1407 H 130.679 -5.13204 1.0827 0
M  V30 1408 H 132.153 -5.48838 -0.589953 0
M  V30 1409 H 132.63 -4.10255 -1.56805 0
M  V30 1410 H 133.236 -4.25188 0.0974703 0
M  V30 1411 N 131.551 -0.354651 -1.53558 0
M  V30 1412 C 132.499 0.512195 -2.26891 0
M  V30 1413 C 133.493 1.09263 -1.29452 0
M  V30 1414 O 134.699 1.03709 -1.47121 0
M  V30 1415 H 131.074 0.183878 -0.729173 0
M  V30 1416 H 133.045 -0.128202 -2.98124 0
M  V30 1417 C 131.794 1.64563 -3.06291 0
M  V30 1418 H 131.117 1.20829 -3.81104 0
M  V30 1419 H 132.557 2.22711 -3.60799 0
M  V30 1420 C 131.016 2.58158 -2.16462 0
M  V30 1421 O 131.546 3.60695 -1.76811 0
M  V30 1422 N 129.752 2.27096 -1.81317 0
M  V30 1423 H 129.299 1.43751 -2.1376 0
M  V30 1424 H 129.257 2.89975 -1.21498 0
M  V30 1425 N 133.029 1.57378 -0.0835403 0
M  V30 1426 C 134.254 1.98682 0.594987 0
M  V30 1427 C 134.679 0.961969 1.61641 0
M  V30 1428 O 134.037 -0.0709989 1.81161 0
M  V30 1429 C 134.085 3.38988 1.2296 0
M  V30 1430 O 133.189 3.39208 2.34546 0
M  V30 1431 H 132.53 0.646368 0.152002 0
M  V30 1432 H 135.06 2.03961 -0.161533 0
M  V30 1433 H 135.07 3.76431 1.57366 0
M  V30 1434 H 133.745 4.13107 0.481228 0
M  V30 1435 H 132.322 3.13548 2.01846 0
M  V30 1436 N 134.507 -0.190092 1.56449 0
M  V30 1437 C 135.457 -1.23977 1.91347 0
M  V30 1438 C 136.441 -1.40747 0.779693 0
M  V30 1439 O 137.633 -1.43033 1.04262 0
M  V30 1440 C 134.762 -2.58347 2.26079 0
M  V30 1441 C 133.848 -2.4535 3.45925 0
M  V30 1442 N 134.239 -2.02039 4.63696 0
M  V30 1443 C 132.537 -2.76229 3.50162 0
M  V30 1444 C 133.238 -2.01053 5.4585 0
M  V30 1445 N 132.214 -2.42747 4.8639 0
M  V30 1446 H 136.016 -0.896318 2.79899 0
M  V30 1447 H 133.53 -0.398496 1.57435 0
M  V30 1448 H 135.527 -3.34173 2.49267 0
M  V30 1449 H 134.187 -2.93512 1.38856 0
M  V30 1450 H 135.198 -1.7267 4.88268 0
M  V30 1451 H 131.875 -3.15556 2.73369 0
M  V30 1452 H 133.265 -1.69426 6.50188 0
M  V30 1453 N 135.985 -1.50799 -0.457987 0
M  V30 1454 C 137.225 -1.64088 -1.21879 0
M  V30 1455 C 137.589 -0.339848 -1.88968 0
M  V30 1456 O 138.79 -0.348301 -2.66534 0
M  V30 1457 C 137.061 -2.79726 -2.2246 0
M  V30 1458 S 138.62 -3.13225 -3.07303 0
M  V30 1459 H 135.438 -0.578314 -0.41361 0
M  V30 1460 H 138.04 -1.88632 -0.513645 0
M  V30 1461 H 136.744 -3.72722 -1.71775 0
M  V30 1462 H 136.275 -2.57308 -2.97584 0
M  V30 1463 H 138.29 -2.58062 -4.23814 0
M  V30 1464 N 137.463 0.71206 -1.40597 0
M  V30 1465 C 138.71 1.47197 -1.39065 0
M  V30 1466 C 139.038 1.94499 0.00583891 0
M  V30 1467 O 138.293 1.68752 0.99102 0
M  V30 1468 C 138.592 2.71039 -2.32965 0
M  V30 1469 C 138.258 2.42484 -3.80148 0
M  V30 1470 C 136.92 2.34406 -4.20247 0
M  V30 1471 C 139.272 2.18598 -4.73143 0
M  V30 1472 C 136.6 2.00516 -5.51371 0
M  V30 1473 C 138.952 1.8622 -6.0457 0
M  V30 1474 C 137.616 1.76626 -6.43708 0
M  V30 1475 H 136.886 0.538634 -0.508876 0
M  V30 1476 H 139.533 0.815325 -1.73276 0
M  V30 1477 H 137.838 3.41558 -1.91951 0
M  V30 1478 H 139.535 3.29138 -2.29061 0
M  V30 1479 H 136.125 2.49659 -3.4838 0
M  V30 1480 H 140.309 2.23793 -4.42979 0
M  V30 1481 H 135.565 1.91628 -5.80593 0
M  V30 1482 H 139.739 1.66752 -6.76141 0
M  V30 1483 H 137.366 1.50133 -7.45228 0
M  V30 1484 N 138.941 1.26152 0.944643 0
M  V30 1485 C 139.871 1.09902 2.06019 0
M  V30 1486 C 140.852 0.00519538 1.70099 0
M  V30 1487 O 142.037 0.176583 1.93396 0
M  V30 1488 C 139.167 0.727562 3.39594 0
M  V30 1489 C 138.121 1.77274 3.89561 0
M  V30 1490 C 137.447 1.25569 5.19747 0
M  V30 1491 C 138.747 3.17357 4.14827 0
M  V30 1492 H 140.441 2.03217 2.19871 0
M  V30 1493 H 137.987 0.978452 1.05652 0
M  V30 1494 H 139.94 0.600777 4.17095 0
M  V30 1495 H 138.664 -0.241287 3.25707 0
M  V30 1496 H 137.323 1.88814 3.14237 0
M  V30 1497 H 136.971 0.276783 5.02238 0
M  V30 1498 H 136.671 1.95433 5.54148 0
M  V30 1499 H 138.195 1.1415 5.99835 0
M  V30 1500 H 139.609 3.08914 4.82954 0
M  V30 1501 H 138.006 3.84781 4.60504 0
M  V30 1502 H 139.076 3.63673 3.20734 0
M  V30 1503 N 140.419 -1.14872 1.07899 0
M  V30 1504 C 141.366 -2.19791 0.704319 0
M  V30 1505 C 142.336 -1.63238 -0.306987 0
M  V30 1506 O 143.521 -1.8983 -0.192171 0
M  V30 1507 C 140.661 -3.44911 0.114244 0
M  V30 1508 C 139.774 -4.15637 1.1777 0
M  V30 1509 C 138.909 -5.28324 0.552037 0
M  V30 1510 C 137.948 -5.90875 1.59789 0
M  V30 1511 N 137.085 -6.95022 0.994404 0
M  V30 1512 H 141.925 -2.5119 1.60336 0
M  V30 1513 H 139.462 -1.23356 0.801352 0
M  V30 1514 H 141.42 -4.16477 -0.245544 0
M  V30 1515 H 140.05 -3.14011 -0.74813 0
M  V30 1516 H 139.102 -3.42512 1.65499 0
M  V30 1517 H 140.414 -4.5823 1.97046 0
M  V30 1518 H 139.568 -6.06538 0.1402 0
M  V30 1519 H 138.307 -4.86939 -0.272431 0
M  V30 1520 H 137.312 -5.11369 2.01945 0
M  V30 1521 H 138.537 -6.34337 2.42474 0
M  V30 1522 H 136.483 -6.55722 0.190939 0
M  V30 1523 H 136.4 -7.36073 1.72432 0
M  V30 1524 H 137.668 -7.77123 0.608253 0
M  V30 1525 N 141.898 -0.863906 -1.31812 0
M  V30 1526 C 142.831 -0.259963 -2.26714 0
M  V30 1527 C 143.809 0.607392 -1.50829 0
M  V30 1528 O 144.993 0.562155 -1.79922 0
M  V30 1529 C 142.12 0.632456 -3.32743 0
M  V30 1530 C 141.166 -0.162743 -4.26189 0
M  V30 1531 S 141.999 -1.53726 -5.12961 0
M  V30 1532 C 143.155 -0.650803 -6.22507 0
M  V30 1533 H 143.388 -1.06445 -2.77591 0
M  V30 1534 H 140.921 -0.662071 -1.39485 0
M  V30 1535 H 142.879 1.14167 -3.94305 0
M  V30 1536 H 141.54 1.41083 -2.80632 0
M  V30 1537 H 140.733 0.517366 -5.01338 0
M  V30 1538 H 140.335 -0.60385 -3.69093 0
M  V30 1539 H 142.627 0.141134 -6.77353 0
M  V30 1540 H 143.57 -1.37322 -6.94657 0
M  V30 1541 H 143.978 -0.221041 -5.64067 0
M  V30 1542 N 143.376 1.44774 -0.622745 0
M  V30 1543 C 144.306 2.33382 0.0741861 0
M  V30 1544 C 145.287 1.47719 0.843387 0
M  V30 1545 O 146.472 1.76458 0.810934 0
M  V30 1546 C 143.602 3.30663 1.06204 0
M  V30 1547 C 142.556 4.26079 0.405037 0
M  V30 1548 C 141.882 5.13165 1.5022 0
M  V30 1549 C 143.182 5.1781 -0.683414 0
M  V30 1550 H 144.876 2.91905 -0.665713 0
M  V30 1551 H 142.422 1.40363 -0.321587 0
M  V30 1552 H 144.375 3.9153 1.55827 0
M  V30 1553 H 143.099 2.70331 1.83272 0
M  V30 1554 H 141.758 3.66532 -0.0704683 0
M  V30 1555 H 141.406 4.49191 2.26355 0
M  V30 1556 H 141.106 5.77812 1.06803 0
M  V30 1557 H 142.63 5.76902 2.00041 0
M  V30 1558 H 144.044 5.72661 -0.270631 0
M  V30 1559 H 142.441 5.91015 -1.04023 0
M  V30 1560 H 143.511 4.59326 -1.55395 0
M  V30 1561 N 144.854 0.36279 1.53368 0
M  V30 1562 C 145.786 -0.519668 2.23231 0
M  V30 1563 C 146.799 -1.04844 1.24546 0
M  V30 1564 O 147.988 -0.955296 1.50786 0
M  V30 1565 C 145.088 -1.72995 2.9142 0
M  V30 1566 C 144.261 -1.33316 4.16588 0
M  V30 1567 C 143.32 -2.40521 4.68013 0
M  V30 1568 O 142.346 -2.03027 5.3176 0
M  V30 1569 N 143.548 -3.72065 4.45587 0
M  V30 1570 H 146.313 0.078751 2.99597 0
M  V30 1571 H 143.874 0.187833 1.60807 0
M  V30 1572 H 145.866 -2.44184 3.22733 0
M  V30 1573 H 144.436 -2.2353 2.18525 0
M  V30 1574 H 143.656 -0.451236 3.91609 0
M  V30 1575 H 144.944 -1.04432 4.97967 0
M  V30 1576 H 144.342 -4.05304 3.94646 0
M  V30 1577 H 142.899 -4.39366 4.81457 0
M  V30 1578 N 146.332 -1.57332 0.0918853 0
M  V30 1579 C 147.58 -1.93853 -0.571446 0
M  V30 1580 C 147.901 -0.974212 -1.6892 0
M  V30 1581 O 147.171 -0.0257254 -1.95883 0
M  V30 1582 H 145.751 -0.715666 -0.214082 0
M  V30 1583 H 148.413 -1.94287 0.154464 0
M  V30 1584 H 147.509 -2.96191 -0.983729 0
M  V30 1585 N 147.81 0.181792 -1.56548 0
M  V30 1586 C 148.758 1.24461 -1.965 0
M  V30 1587 C 149.752 1.464 -0.852261 0
M  V30 1588 O 150.958 1.47103 -1.03733 0
M  V30 1589 H 147.333 0.418138 -0.625031 0
M  V30 1590 H 149.304 0.880714 -2.85107 0
M  V30 1591 C 148.053 2.57891 -2.33212 0
M  V30 1592 H 147.376 2.41829 -3.18369 0
M  V30 1593 H 148.816 3.3097 -2.65019 0
M  V30 1594 C 147.275 3.15871 -1.17163 0
M  V30 1595 O 147.805 3.9913 -0.453708 0
M  V30 1596 N 146.011 2.74808 -0.944936 0
M  V30 1597 H 145.558 2.07205 -1.53049 0
M  V30 1598 H 145.516 3.13939 -0.170286 0
M  V30 1599 N 149.288 1.51039 0.449983 0
M  V30 1600 C 150.218 1.74379 1.55288 0
M  V30 1601 C 151.199 0.593236 1.5942 0
M  V30 1602 O 152.384 0.834625 1.7535 0
M  V30 1603 C 149.514 1.85728 2.93466 0
M  V30 1604 C 148.468 3.01078 3.04197 0
M  V30 1605 C 147.794 2.97595 4.44231 0
M  V30 1606 C 149.094 4.41254 2.7945 0
M  V30 1607 H 150.788 2.66725 1.36008 0
M  V30 1608 H 148.334 1.2835 0.652864 0
M  V30 1609 H 150.287 2.0064 3.70569 0
M  V30 1610 H 149.011 0.900207 3.13949 0
M  V30 1611 H 147.67 2.85851 2.29531 0
M  V30 1612 H 147.318 1.99691 4.61663 0
M  V30 1613 H 147.018 3.75046 4.52343 0
M  V30 1614 H 148.542 3.14583 5.23326 0
M  V30 1615 H 149.956 4.56897 3.46292 0
M  V30 1616 H 148.353 5.20315 2.98985 0
M  V30 1617 H 149.423 4.52164 1.75144 0
M  V30 1618 N 150.766 -0.704594 1.40972 0
M  V30 1619 C 151.713 -1.81862 1.42109 0
M  V30 1620 C 152.683 -1.63781 0.276593 0
M  V30 1621 O 153.868 -1.84759 0.4763 0
M  V30 1622 C 151.008 -3.19669 1.30022 0
M  V30 1623 C 150.121 -3.49246 2.54267 0
M  V30 1624 C 149.256 -4.76618 2.3454 0
M  V30 1625 C 148.295 -4.99133 3.54306 0
M  V30 1626 N 147.432 -6.17726 3.33706 0
M  V30 1627 H 152.272 -1.80226 2.37324 0
M  V30 1628 H 149.809 -0.880238 1.17857 0
M  V30 1629 H 151.767 -3.99263 1.21018 0
M  V30 1630 H 150.397 -3.20506 0.384192 0
M  V30 1631 H 149.449 -2.64125 2.73756 0
M  V30 1632 H 150.761 -3.61788 3.43381 0
M  V30 1633 H 149.915 -5.64249 2.22952 0
M  V30 1634 H 148.654 -4.66305 1.42867 0
M  V30 1635 H 147.659 -4.09953 3.66359 0
M  V30 1636 H 148.884 -5.11311 4.4692 0
M  V30 1637 H 146.83 -6.08642 2.44725 0
M  V30 1638 H 146.747 -6.30995 4.16391 0
M  V30 1639 H 148.015 -7.08115 3.25873 0
M  V30 1640 N 152.244 -1.26651 -0.937939 0
M  V30 1641 C 153.154 -1.10276 -2.07066 0
M  V30 1642 C 154.17 -0.0354197 -1.73964 0
M  V30 1643 O 155.346 -0.239816 -1.99967 0
M  V30 1644 C 152.411 -0.740887 -3.38691 0
M  V30 1645 C 151.472 -1.88799 -3.85556 0
M  V30 1646 C 150.705 -1.54329 -5.10899 0
M  V30 1647 O 150.928 -0.446494 -5.6865 0
M  V30 1648 O 149.862 -2.37911 -5.52885 0
M  V30 1649 H 153.688 -2.05309 -2.23789 0
M  V30 1650 H 151.273 -1.05743 -1.0554 0
M  V30 1651 H 153.155 -0.55195 -4.1777 0
M  V30 1652 H 151.83 0.180022 -3.23199 0
M  V30 1653 H 150.737 -2.13191 -3.07409 0
M  V30 1654 H 152.07 -2.78874 -4.05574 0
M  V30 1655 N 153.722 1.14298 -1.08507 0
M  V30 1656 C 154.95 1.89219 -0.836876 0
M  V30 1657 C 155.365 1.78638 0.611054 0
M  V30 1658 O 154.722 1.14643 1.41998 0
M  V30 1659 C 154.773 3.39158 -1.25116 0
M  V30 1660 O 154.494 3.49449 -2.64229 0
M  V30 1661 C 155.995 4.31073 -1.03398 0
M  V30 1662 H 153.215 0.599328 -0.301739 0
M  V30 1663 H 155.759 1.44746 -1.44461 0
M  V30 1664 H 153.914 3.81251 -0.687514 0
M  V30 1665 H 154.328 4.42589 -2.81452 0
M  V30 1666 H 155.802 5.34646 -1.37323 0
M  V30 1667 H 156.279 4.3919 0.0289259 0
M  V30 1668 H 156.885 3.94738 -1.58311 0
M  V30 1669 N 155.201 0.870884 1.31352 0
M  V30 1670 C 156.131 0.343096 2.30966 0
M  V30 1671 C 157.112 -0.566507 1.60389 0
M  V30 1672 O 158.297 -0.483336 1.88089 0
M  V30 1673 C 155.427 -0.455487 3.443 0
M  V30 1674 C 154.381 0.361103 4.26474 0
M  V30 1675 C 153.707 -0.563221 5.31725 0
M  V30 1676 C 155.007 1.59566 4.97329 0
M  V30 1677 H 156.701 1.17548 2.75359 0
M  V30 1678 H 154.247 0.566686 1.32381 0
M  V30 1679 H 156.2 -0.83525 4.13039 0
M  V30 1680 H 154.924 -1.32139 2.98675 0
M  V30 1681 H 153.583 0.722825 3.59403 0
M  V30 1682 H 153.231 -1.42643 4.82351 0
M  V30 1683 H 152.931 -0.0207409 5.87596 0
M  V30 1684 H 154.455 -0.939808 6.03324 0
M  V30 1685 H 155.869 1.28728 5.58661 0
M  V30 1686 H 154.266 2.07728 5.63 0
M  V30 1687 H 155.336 2.34798 4.24262 0
M  V30 1688 N 156.679 -1.44442 0.630414 0
M  V30 1689 C 157.926 -2.02052 0.134617 0
M  V30 1690 C 158.254 -1.49576 -1.24327 0
M  V30 1691 O 157.509 -0.669806 -1.83881 0
M  V30 1692 C 157.808 -3.57332 0.0697835 0
M  V30 1693 C 157.474 -4.29058 1.38635 0
M  V30 1694 C 156.136 -4.4837 1.74694 0
M  V30 1695 C 158.488 -4.69872 2.25543 0
M  V30 1696 C 155.816 -5.05756 2.97369 0
M  V30 1697 C 158.168 -5.28616 3.47487 0
M  V30 1698 C 156.832 -5.46147 3.8377 0
M  V30 1699 H 156.102 -0.739361 0.0492598 0
M  V30 1700 H 158.749 -1.73217 0.816586 0
M  V30 1701 H 157.054 -3.85577 -0.695553 0
M  V30 1702 H 158.751 -3.99637 -0.330344 0
M  V30 1703 H 155.341 -4.14357 1.09574 0
M  V30 1704 H 159.525 -4.54666 1.98979 0
M  V30 1705 H 154.781 -5.17515 3.25558 0
M  V30 1706 H 158.955 -5.59192 4.15063 0
M  V30 1707 H 156.582 -5.9038 4.7891 0
M  V30 1708 N 158.157 -0.370918 -1.53173 0
M  V30 1709 C 159.12 0.460778 -2.24521 0
M  V30 1710 C 160.12 1.00536 -1.25496 0
M  V30 1711 O 161.31 0.890266 -1.49733 0
M  V30 1712 C 158.442 1.64457 -2.98608 0
M  V30 1713 H 159.635 -0.163613 -2.99453 0
M  V30 1714 H 157.188 -0.122699 -1.55818 0
M  V30 1715 H 157.923 2.30691 -2.2793 0
M  V30 1716 H 157.708 1.26099 -3.7127 0
M  V30 1717 H 159.198 2.23384 -3.5283 0
M  V30 1718 N 159.635 1.57281 -0.100228 0
M  V30 1719 C 160.881 1.95626 0.556946 0
M  V30 1720 C 161.236 0.981655 1.65473 0
M  V30 1721 O 160.529 0.00849847 1.91598 0
M  V30 1722 C 160.723 3.38305 1.15259 0
M  V30 1723 C 160.552 4.49555 0.114035 0
M  V30 1724 C 159.322 5.0434 -0.311266 0
M  V30 1725 C 161.52 5.10051 -0.659768 0
M  V30 1726 N 159.502 5.99152 -1.33755 0
M  V30 1727 C 160.873 6.00628 -1.53774 0
M  V30 1728 C 162.928 4.92772 -0.712723 0
M  V30 1729 C 161.631 6.7578 -2.46403 0
M  V30 1730 C 163.657 5.6859 -1.62663 0
M  V30 1731 C 163.019 6.58838 -2.49222 0
M  V30 1732 H 159.118 0.7624 0.173982 0
M  V30 1733 H 161.702 1.93829 -0.183988 0
M  V30 1734 H 159.873 3.40786 1.86332 0
M  V30 1735 H 161.605 3.63817 1.77254 0
M  V30 1736 H 158.36 4.73537 0.0774812 0
M  V30 1737 H 158.784 6.5126 -1.84905 0
M  V30 1738 H 163.426 4.22761 -0.0576648 0
M  V30 1739 H 161.144 7.4505 -3.12931 0
M  V30 1740 H 164.73 5.57233 -1.67281 0
M  V30 1741 H 163.61 7.16479 -3.18791 0
M  V30 1742 N 161.113 -0.173488 1.56642 0
M  V30 1743 C 162.524 -0.736155 1.71574 0
M  V30 1744 C 162.875 -1.82888 0.710389 0
M  V30 1745 O 162 -2.16017 -0.1287 0
M  V30 1746 C 162.595 -1.34211 3.11083 0
M  V30 1747 C 161.154 -1.85162 3.27707 0
M  V30 1748 C 160.301 -0.729765 2.67525 0
M  V30 1749 H 163.252 0.0518786 1.58615 0
M  V30 1750 H 163.273 -2.21178 3.09613 0
M  V30 1751 H 162.785 -0.546579 3.84232 0
M  V30 1752 H 160.886 -2.67366 2.59512 0
M  V30 1753 H 160.999 -1.99855 4.35425 0
M  V30 1754 H 159.363 -1.14965 2.27278 0
M  V30 1755 H 160.146 0.0538806 3.43258 0
M  V30 1756 N 162.591 -1.51276 -0.441967 0
M  V30 1757 C 163.868 -1.54252 -1.20273 0
M  V30 1758 C 164.248 -0.30408 -2.08898 0
M  V30 1759 O 163.596 0.711084 -2.17154 0
M  V30 1760 C 163.806 -2.85406 -2.00859 0
M  V30 1761 C 165.154 -3.37181 -2.58059 0
M  V30 1762 O 166.178 -2.86925 -2.11074 0
M  V30 1763 O 165.037 -4.24858 -3.43741 0
M  V30 1764 H 162.131 -0.619969 -0.547328 0
M  V30 1765 H 164.677 -1.63586 -0.451413 0
M  V30 1766 H 163.449 -3.67003 -1.35736 0
M  V30 1767 H 163.072 -2.79213 -2.83065 0
M  V30 1768 N 164.069 0.697108 -1.41344 0
M  V30 1769 C 165.016 1.81106 -1.43071 0
M  V30 1770 C 165.986 1.63632 -0.285275 0
M  V30 1771 O 167.171 1.84504 -0.486091 0
M  V30 1772 C 164.311 3.18975 -1.31715 0
M  V30 1773 C 163.424 3.47892 -2.56115 0
M  V30 1774 C 162.559 4.75367 -2.37064 0
M  V30 1775 C 161.598 4.97247 -3.56948 0
M  V30 1776 N 160.735 6.15947 -3.36977 0
M  V30 1777 H 165.575 1.78965 -2.38276 0
M  V30 1778 H 163.112 0.873975 -1.18322 0
M  V30 1779 H 165.07 3.98615 -1.23133 0
M  V30 1780 H 163.7 3.20297 -0.401183 0
M  V30 1781 H 162.752 2.62669 -2.75153 0
M  V30 1782 H 164.064 3.59962 -3.45295 0
M  V30 1783 H 163.218 5.63059 -2.25941 0
M  V30 1784 H 161.957 4.65541 -1.45338 0
M  V30 1785 H 160.962 4.08004 -3.68527 0
M  V30 1786 H 162.187 5.08934 -4.49626 0
M  V30 1787 H 160.133 6.07336 -2.47949 0
M  V30 1788 H 160.05 6.28777 -4.19732 0
M  V30 1789 H 161.318 7.06377 -3.29623 0
M  V30 1790 N 165.547 1.27147 0.931209 0
M  V30 1791 C 166.494 1.09568 2.03134 0
M  V30 1792 C 167.464 -0.00222433 1.661 0
M  V30 1793 O 168.649 0.159439 1.90133 0
M  V30 1794 C 165.789 0.745231 3.36957 0
M  V30 1795 C 164.902 1.92041 3.86968 0
M  V30 1796 C 164.037 1.51216 5.09222 0
M  V30 1797 C 163.076 2.65504 5.5152 0
M  V30 1798 N 162.213 2.25291 6.64972 0
M  V30 1799 H 167.053 2.03708 2.17502 0
M  V30 1800 H 164.59 1.01411 1.06556 0
M  V30 1801 H 166.548 0.522878 4.1391 0
M  V30 1802 H 165.178 -0.159202 3.22407 0
M  V30 1803 H 164.23 2.25541 3.06326 0
M  V30 1804 H 165.542 2.77787 4.1429 0
M  V30 1805 H 164.696 1.25084 5.93666 0
M  V30 1806 H 163.435 0.625749 4.83669 0
M  V30 1807 H 162.44 2.92354 4.65628 0
M  V30 1808 H 163.665 3.54761 5.7907 0
M  V30 1809 H 161.611 1.39098 6.41083 0
M  V30 1810 H 161.528 3.04577 6.91931 0
M  V30 1811 H 162.796 2.02398 7.52765 0
M  V30 1812 N 167.025 -1.13721 1.09112 0
M  V30 1813 C 168.25 -1.89314 0.847053 0
M  V30 1814 C 168.675 -1.78416 -0.595774 0
M  V30 1815 O 168.033 -1.12942 -1.41823 0
M  V30 1816 C 168.081 -3.3701 1.28284 0
M  V30 1817 O 167.185 -4.10054 0.439267 0
M  V30 1818 H 166.526 -0.588745 0.307044 0
M  V30 1819 H 169.056 -1.43902 1.45442 0
M  V30 1820 H 169.066 -3.87834 1.26683 0
M  V30 1821 H 167.741 -3.4426 2.33363 0
M  V30 1822 H 166.318 -3.69266 0.519312 0
M  V30 1823 N 168.503 -0.877838 -1.30888 0
M  V30 1824 C 169.451 -0.328662 -2.30266 0
M  V30 1825 C 170.445 0.560496 -1.59859 0
M  V30 1826 O 171.651 0.445722 -1.74394 0
M  V30 1827 H 168.026 -0.0876142 -0.746879 0
M  V30 1828 H 169.997 -1.18061 -2.74051 0
M  V30 1829 C 168.746 0.448071 -3.44801 0
M  V30 1830 H 168.069 -0.226859 -3.99156 0
M  V30 1831 H 169.509 0.797541 -4.16432 0
M  V30 1832 C 167.968 1.64239 -2.94155 0
M  V30 1833 O 168.498 2.74175 -2.93583 0
M  V30 1834 N 166.704 1.47716 -2.50256 0
M  V30 1835 H 166.251 0.582821 -2.5092 0
M  V30 1836 H 166.209 2.27765 -2.16727 0
M  V30 1837 N 169.982 1.44106 -0.638065 0
M  V30 1838 C 170.892 2.34513 0.0637334 0
M  V30 1839 C 171.908 1.53018 0.828346 0
M  V30 1840 O 173.084 1.85723 0.779036 0
M  V30 1841 C 170.149 3.31095 1.02844 0
M  V30 1842 C 169.21 4.28497 0.26244 0
M  V30 1843 C 168.443 5.20465 1.1812 0
M  V30 1844 O 168.666 5.16514 2.42011 0
M  V30 1845 O 167.6 5.98251 0.661774 0
M  V30 1846 H 171.426 2.95989 -0.68003 0
M  V30 1847 H 169.011 1.43994 -0.398252 0
M  V30 1848 H 170.893 3.90526 1.58327 0
M  V30 1849 H 169.568 2.72144 1.7527 0
M  V30 1850 H 168.475 3.72592 -0.335602 0
M  V30 1851 H 169.808 4.90388 -0.421936 0
M  V30 1852 N 171.46 0.379036 1.52974 0
M  V30 1853 C 172.393 -0.504932 2.22544 0
M  V30 1854 C 173.371 -1.0723 1.22231 0
M  V30 1855 O 174.555 -1.12589 1.51182 0
M  V30 1856 C 171.682 -1.69794 2.93066 0
M  V30 1857 C 170.728 -1.25678 4.07563 0
M  V30 1858 S 171.561 -0.246852 5.34931 0
M  V30 1859 C 172.717 -1.44588 6.08971 0
M  V30 1860 H 172.95 0.0858666 2.97176 0
M  V30 1861 H 170.483 0.163183 1.53535 0
M  V30 1862 H 172.441 -2.38219 3.34308 0
M  V30 1863 H 171.102 -2.26002 2.18133 0
M  V30 1864 H 170.295 -2.14725 4.5597 0
M  V30 1865 H 169.897 -0.651584 3.6828 0
M  V30 1866 H 172.189 -2.37469 6.34519 0
M  V30 1867 H 173.132 -1.00292 7.00962 0
M  V30 1868 H 173.54 -1.65804 5.39601 0
M  V30 1869 N 172.938 -1.57226 0.108567 0
M  V30 1870 C 174.184 -1.95121 -0.552761 0
M  V30 1871 C 174.517 -0.991345 -1.66991 0
M  V30 1872 O 173.792 -0.0267211 -1.94482 0
M  V30 1873 C 174.075 -3.43039 -1.09528 0
M  V30 1874 C 173.928 -4.49797 0.0177332 0
M  V30 1875 C 175.247 -3.92567 -1.98945 0
M  V30 1876 H 172.366 -0.709496 -0.199461 0
M  V30 1877 H 175.008 -1.89126 0.182011 0
M  V30 1878 H 173.158 -3.48279 -1.72146 0
M  V30 1879 H 174.83 -4.56661 0.652584 0
M  V30 1880 H 173.073 -4.284 0.682309 0
M  V30 1881 H 173.744 -5.50528 -0.402919 0
M  V30 1882 H 176.22 -3.89565 -1.46214 0
M  V30 1883 H 175.096 -4.96605 -2.33827 0
M  V30 1884 H 175.357 -3.32648 -2.91201 0
M  V30 1885 N 174.416 0.165178 -1.56732 0
M  V30 1886 C 175.363 1.2044 -1.96883 0
M  V30 1887 C 176.333 1.43664 -0.833657 0
M  V30 1888 O 177.518 1.56302 -1.09427 0
M  V30 1889 C 174.658 2.53727 -2.33916 0
M  V30 1890 C 173.771 2.3783 -3.6064 0
M  V30 1891 C 172.906 3.64026 -3.86857 0
M  V30 1892 C 171.945 3.43088 -5.06909 0
M  V30 1893 N 171.082 4.61369 -5.29229 0
M  V30 1894 H 175.922 0.854996 -2.85471 0
M  V30 1895 H 173.459 0.41076 -1.41249 0
M  V30 1896 H 175.417 3.31419 -2.53411 0
M  V30 1897 H 174.047 2.8665 -1.48431 0
M  V30 1898 H 173.099 1.51282 -3.49024 0
M  V30 1899 H 174.411 2.18308 -4.4849 0
M  V30 1900 H 173.565 4.50152 -4.06753 0
M  V30 1901 H 172.304 3.86533 -2.97394 0
M  V30 1902 H 171.309 2.55349 -4.86906 0
M  V30 1903 H 172.534 3.21997 -5.97909 0
M  V30 1904 H 170.48 4.84084 -4.42718 0
M  V30 1905 H 170.397 4.44783 -6.11313 0
M  V30 1906 H 171.665 5.48761 -5.53608 0
M  V30 1907 N 175.894 1.51508 0.433938 0
M  V30 1908 C 176.841 1.73068 1.52696 0
M  V30 1909 C 177.811 0.572441 1.55924 0
M  V30 1910 O 178.996 0.807253 1.72882 0
M  V30 1911 C 176.136 1.86474 2.90381 0
M  V30 1912 C 175.249 3.14037 2.96656 0
M  V30 1913 C 174.384 3.18019 4.25485 0
M  V30 1914 C 173.423 4.39882 4.2564 0
M  V30 1915 N 172.56 4.41394 5.45999 0
M  V30 1916 H 177.4 2.66366 1.33615 0
M  V30 1917 H 174.937 1.32008 0.649018 0
M  V30 1918 H 176.895 1.92229 3.70275 0
M  V30 1919 H 175.525 0.965809 3.08013 0
M  V30 1920 H 174.577 3.17575 2.09404 0
M  V30 1921 H 175.889 4.0394 2.92633 0
M  V30 1922 H 175.043 3.22708 5.13755 0
M  V30 1923 H 173.782 2.2601 4.3217 0
M  V30 1924 H 172.787 4.35366 3.35763 0
M  V30 1925 H 174.012 5.33159 4.20617 0
M  V30 1926 H 171.958 3.52258 5.53399 0
M  V30 1927 H 171.875 5.25111 5.4387 0
M  V30 1928 H 173.143 4.50281 6.36292 0
M  V30 1929 N 177.372 -0.689602 1.41712 0
M  V30 1930 C 178.597 -1.48329 1.44959 0
M  V30 1931 C 179.022 -1.8801 0.0581283 0
M  V30 1932 O 178.38 -1.55026 -0.940035 0
M  V30 1933 C 178.428 -2.71835 2.36935 0
M  V30 1934 O 177.532 -3.69549 1.8305 0
M  V30 1935 H 176.873 -0.446199 0.491734 0
M  V30 1936 H 179.403 -0.847127 1.86239 0
M  V30 1937 H 179.413 -3.20076 2.53013 0
M  V30 1938 H 178.088 -2.42291 3.38035 0
M  V30 1939 H 176.665 -3.2851 1.76452 0
M  V30 1940 N 178.85 -1.27639 -0.924453 0
M  V30 1941 C 179.76 -1.12466 -2.05885 0
M  V30 1942 C 180.776 -0.053869 -1.73917 0
M  V30 1943 O 181.952 -0.261012 -1.99702 0
M  V30 1944 C 179.017 -0.776768 -3.37886 0
M  V30 1945 C 178.078 -1.92878 -3.83532 0
M  V30 1946 C 177.311 -1.59739 -5.09234 0
M  V30 1947 O 177.534 -0.506782 -5.68144 0
M  V30 1948 O 176.468 -2.43761 -5.50331 0
M  V30 1949 H 180.294 -2.07671 -2.21599 0
M  V30 1950 H 177.879 -1.06857 -1.04413 0
M  V30 1951 H 179.761 -0.596229 -4.17161 0
M  V30 1952 H 178.436 0.145732 -3.23372 0
M  V30 1953 H 177.343 -2.1644 -3.0513 0
M  V30 1954 H 178.676 -2.8316 -4.02593 0
M  V30 1955 N 180.328 1.1314 -1.09713 0
M  V30 1956 C 181.744 1.36477 -0.827423 0
M  V30 1957 C 181.944 1.93654 0.556817 0
M  V30 1958 O 181 2.15791 1.31112 0
M  V30 1959 C 182.313 2.31334 -1.92106 0
M  V30 1960 C 183.861 2.44943 -1.94864 0
M  V30 1961 C 184.336 3.4311 -3.0338 0
M  V30 1962 N 185.827 3.50662 -3.02639 0
M  V30 1963 C 186.562 4.2651 -3.83246 0
M  V30 1964 N 186.058 5.05485 -4.73768 0
M  V30 1965 N 187.851 4.2184 -3.71493 0
M  V30 1966 H 180.002 0.743807 -1.9895 0
M  V30 1967 H 182.265 0.389823 -0.864143 0
M  V30 1968 H 181.971 1.96483 -2.91698 0
M  V30 1969 H 181.845 3.31381 -1.80184 0
M  V30 1970 H 184.232 2.79079 -0.959099 0
M  V30 1971 H 184.313 1.4481 -2.10864 0
M  V30 1972 H 183.957 3.09704 -4.02549 0
M  V30 1973 H 183.887 4.43055 -2.84622 0
M  V30 1974 H 186.378 2.94315 -2.37039 0
M  V30 1975 H 186.691 5.60675 -5.3185 0
M  V30 1976 H 185.036 5.04708 -4.77802 0
M  V30 1977 H 188.227 3.5922 -3.00131 0
M  V30 1978 H 188.4 4.80697 -4.3455 0
M  V30 1979 N 181.806 0.884767 1.30421 0
M  V30 1980 C 183.052 0.503851 1.96441 0
M  V30 1981 C 183.385 -0.944518 1.69684 0
M  V30 1982 O 182.66 -1.66737 1.00145 0
M  V30 1983 C 182.943 0.779085 3.51571 0
M  V30 1984 C 182.796 2.27807 3.87846 0
M  V30 1985 C 184.115 0.255452 4.39358 0
M  V30 1986 H 181.234 0.184533 0.713524 0
M  V30 1987 H 183.876 1.10872 1.54297 0
M  V30 1988 H 182.026 0.264274 3.876 0
M  V30 1989 H 183.698 2.86127 3.61841 0
M  V30 1990 H 181.941 2.74479 3.35922 0
M  V30 1991 H 182.612 2.42125 4.96064 0
M  V30 1992 H 185.088 0.696079 4.10236 0
M  V30 1993 H 183.964 0.477361 5.4682 0
M  V30 1994 H 184.225 -0.843293 4.33983 0
M  V30 1995 N 183.284 -1.43765 0.645699 0
M  V30 1996 C 184.214 -2.33471 -0.0370477 0
M  V30 1997 C 185.195 -1.49042 -0.819779 0
M  V30 1998 O 186.38 -1.77726 -0.782758 0
M  V30 1999 C 183.51 -3.32311 -1.0093 0
M  V30 2000 C 182.464 -4.2667 -0.337201 0
M  V30 2001 C 181.79 -5.1549 -1.42037 0
M  V30 2002 C 183.09 -5.16657 0.765706 0
M  V30 2003 H 184.784 -2.90809 0.712069 0
M  V30 2004 H 182.33 -1.39834 0.343876 0
M  V30 2005 H 184.283 -3.9396 -1.49578 0
M  V30 2006 H 183.007 -2.73213 -1.78948 0
M  V30 2007 H 181.666 -3.66374 0.128771 0
M  V30 2008 H 181.314 -4.52735 -2.1918 0
M  V30 2009 H 181.014 -5.79438 -0.975966 0
M  V30 2010 H 182.538 -5.80012 -1.90838 0
M  V30 2011 H 183.952 -5.72158 0.361702 0
M  V30 2012 H 182.349 -5.89286 1.13413 0
M  V30 2013 H 183.419 -4.56796 1.62683 0
M  V30 2014 N 184.763 -0.387143 -1.52771 0
M  V30 2015 C 186.179 -0.037007 -1.59557 0
M  V30 2016 C 186.379 1.44801 -1.40124 0
M  V30 2017 O 185.435 2.21227 -1.21716 0
M  V30 2018 C 186.748 -0.512256 -2.96305 0
M  V30 2019 C 188.296 -0.468328 -3.09476 0
M  V30 2020 C 188.771 -0.919731 -4.4867 0
M  V30 2021 N 190.262 -0.875656 -4.54848 0
M  V30 2022 C 190.997 -1.19637 -5.6078 0
M  V30 2023 N 190.493 -1.58745 -6.74368 0
M  V30 2024 N 192.286 -1.11776 -5.50874 0
M  V30 2025 H 184.437 -1.35395 -1.63652 0
M  V30 2026 H 186.7 -0.554818 -0.768688 0
M  V30 2027 H 186.406 -1.54935 -3.15734 0
M  V30 2028 H 186.28 0.089805 -3.77093 0
M  V30 2029 H 188.667 0.559671 -2.89744 0
M  V30 2030 H 188.748 -1.10616 -2.30646 0
M  V30 2031 H 188.392 -1.94595 -4.69143 0
M  V30 2032 H 188.322 -0.258927 -5.25963 0
M  V30 2033 H 190.813 -0.587843 -3.733 0
M  V30 2034 H 191.126 -1.81586 -7.51163 0
M  V30 2035 H 189.471 -1.6263 -6.75705 0
M  V30 2036 H 192.662 -0.811264 -4.61016 0
M  V30 2037 H 192.835 -1.37103 -6.3333 0
M  V30 2038 N 186.241 1.57166 -0.116904 0
M  V30 2039 C 187.151 2.18745 0.847812 0
M  V30 2040 C 188.167 1.163 1.29423 0
M  V30 2041 O 189.343 1.48761 1.35765 0
M  V30 2042 C 186.408 2.77307 2.0809 0
M  V30 2043 C 185.469 3.94781 1.68661 0
M  V30 2044 C 184.702 4.50541 2.86091 0
M  V30 2045 O 184.925 4.05202 4.01456 0
M  V30 2046 O 183.859 5.41256 2.63298 0
M  V30 2047 H 187.685 3.01632 0.353778 0
M  V30 2048 H 185.27 1.49005 0.108599 0
M  V30 2049 H 187.152 3.14647 2.80313 0
M  V30 2050 H 185.827 1.97452 2.56504 0
M  V30 2051 H 184.734 3.62214 0.935518 0
M  V30 2052 H 186.067 4.76065 1.24991 0
M  V30 2053 N 187.719 -0.156864 1.56817 0
M  V30 2054 C 188.667 -1.21319 1.98455 0
M  V30 2055 C 189.661 -1.45025 0.875444 0
M  V30 2056 O 190.867 -1.45435 1.0606 0
M  V30 2057 H 187.242 -0.408142 0.631605 0
M  V30 2058 H 189.213 -0.835244 2.86472 0
M  V30 2059 C 187.962 -2.54148 2.37285 0
M  V30 2060 H 187.285 -2.36733 3.22176 0
M  V30 2061 H 188.725 -3.26712 2.70251 0
M  V30 2062 C 187.184 -3.13967 1.22173 0
M  V30 2063 O 187.714 -3.98357 0.517149 0
M  V30 2064 N 185.92 -2.7327 0.988536 0
M  V30 2065 H 185.467 -2.04744 1.56326 0
M  V30 2066 H 185.425 -3.13628 0.220209 0
M  V30 2067 N 189.197 -1.51736 -0.425897 0
M  V30 2068 C 190.129 -1.70083 -1.53638 0
M  V30 2069 C 191.142 -0.581349 -1.52066 0
M  V30 2070 O 192.331 -0.856017 -1.56635 0
M  V30 2071 C 189.431 -1.71078 -2.9255 0
M  V30 2072 C 188.604 -2.99795 -3.185 0
M  V30 2073 C 187.663 -2.92825 -4.37196 0
M  V30 2074 O 186.689 -3.66756 -4.35291 0
M  V30 2075 N 187.891 -2.0946 -5.41393 0
M  V30 2076 H 190.656 -2.65882 -1.383 0
M  V30 2077 H 188.217 -1.49765 -0.614988 0
M  V30 2078 H 190.209 -1.63969 -3.69995 0
M  V30 2079 H 188.779 -0.828242 -3.01428 0
M  V30 2080 H 187.999 -3.20684 -2.2925 0
M  V30 2081 H 189.287 -3.84977 -3.32671 0
M  V30 2082 H 188.685 -1.48792 -5.45781 0
M  V30 2083 H 187.242 -2.08221 -6.17647 0
M  V30 2084 N 190.675 0.682077 -1.42076 0
M  V30 2085 C 191.915 1.45424 -1.43636 0
M  V30 2086 C 192.279 1.91939 -0.0484001 0
M  V30 2087 O 193.48 2.6873 0.0612514 0
M  V30 2088 C 191.751 2.62427 -2.42625 0
M  V30 2089 S 193.31 3.51379 -2.62827 0
M  V30 2090 H 190.128 0.496779 -0.508657 0
M  V30 2091 H 192.73 0.794645 -1.78621 0
M  V30 2092 H 191.434 2.26481 -3.42249 0
M  V30 2093 H 190.965 3.33266 -2.09039 0
M  V30 2094 H 192.98 4.58141 -1.9058 0
M  V30 2095 N 192.153 1.28127 0.917671 0
M  V30 2096 C 193.116 1.11744 2.00115 0
M  V30 2097 C 194.116 0.0583052 1.60694 0
M  V30 2098 O 195.306 0.303755 1.71531 0
M  V30 2099 C 192.438 0.704862 3.33533 0
M  V30 2100 H 193.631 2.07966 2.16079 0
M  V30 2101 H 191.184 1.11058 1.09981 0
M  V30 2102 H 191.919 -0.258299 3.2327 0
M  V30 2103 H 191.704 1.4699 3.63505 0
M  V30 2104 H 193.194 0.612768 4.1308 0
M  V30 2105 N 193.631 -1.12557 1.10312 0
M  V30 2106 C 194.861 -1.87592 0.865617 0
M  V30 2107 C 195.269 -1.79851 -0.587389 0
M  V30 2108 O 194.612 -1.16949 -1.41664 0
M  V30 2109 C 194.674 -3.37665 1.23381 0
M  V30 2110 C 194.338 -3.69181 2.69359 0
M  V30 2111 C 195.335 -3.67652 3.67597 0
M  V30 2112 C 193.02 -3.98555 3.05711 0
M  V30 2113 C 195.014 -3.95053 5.00212 0
M  V30 2114 C 192.701 -4.25616 4.38514 0
M  V30 2115 C 193.699 -4.23851 5.35574 0
M  V30 2116 O 193.387 -4.50242 6.65986 0
M  V30 2117 H 193.119 -0.600442 0.310557 0
M  V30 2118 H 195.673 -1.4335 1.47105 0
M  V30 2119 H 193.903 -3.82454 0.571467 0
M  V30 2120 H 195.592 -3.94041 0.973994 0
M  V30 2121 H 196.358 -3.45024 3.40857 0
M  V30 2122 H 192.237 -3.99071 2.30789 0
M  V30 2123 H 195.781 -3.93591 5.75962 0
M  V30 2124 H 191.678 -4.47718 4.64994 0
M  V30 2125 H 192.446 -4.67867 6.71597 0
M  V30 2126 N 195.109 -0.891671 -1.2995 0
M  V30 2127 C 196.358 -0.509521 -1.95158 0
M  V30 2128 C 196.671 0.947388 -1.71125 0
M  V30 2129 O 197.877 1.43669 -2.30372 0
M  V30 2130 C 196.333 -0.860315 -3.49466 0
M  V30 2131 C 195.941 -2.33545 -3.8231 0
M  V30 2132 C 197.685 -0.547687 -4.20952 0
M  V30 2133 C 195.592 -2.62752 -5.29826 0
M  V30 2134 H 194.522 -0.18682 -0.730489 0
M  V30 2135 H 197.173 -1.08756 -1.47798 0
M  V30 2136 H 195.555 -0.211285 -3.95436 0
M  V30 2137 H 196.729 -3.02936 -3.47227 0
M  V30 2138 H 195.044 -2.61629 -3.23944 0
M  V30 2139 H 197.641 -0.742854 -5.29515 0
M  V30 2140 H 197.984 0.51332 -4.13123 0
M  V30 2141 H 198.517 -1.1542 -3.80688 0
M  V30 2142 H 195.256 -3.6762 -5.42712 0
M  V30 2143 H 194.776 -1.97977 -5.66185 0
M  V30 2144 H 196.455 -2.48601 -5.97333 0
M  V30 2145 N 196.587 1.43421 -0.653314 0
M  V30 2146 C 197.535 2.32546 0.0501531 0
M  V30 2147 C 198.529 1.48617 0.812985 0
M  V30 2148 O 199.735 1.64825 0.723375 0
M  V30 2149 H 196.11 0.751185 0.0350032 0
M  V30 2150 H 198.081 2.89602 -0.719261 0
M  V30 2151 C 196.83 3.32925 1.00279 0
M  V30 2152 H 196.153 3.97532 0.425236 0
M  V30 2153 H 197.593 3.9792 1.46409 0
M  V30 2154 C 196.052 2.63532 2.09886 0
M  V30 2155 O 196.582 2.45092 3.18265 0
M  V30 2156 N 194.788 2.22905 1.86445 0
M  V30 2157 H 194.335 2.38103 0.98309 0
M  V30 2158 H 194.293 1.76805 2.59976 0
M  V30 2159 N 198.065 0.39524 1.52563 0
M  V30 2160 C 199.342 -0.242908 1.94086 0
M  V30 2161 C 199.722 -1.63841 1.33114 0
M  V30 2162 O 199.07 -2.22928 0.501529 0
M  V30 2163 C 199.28 -0.26327 3.48006 0
M  V30 2164 C 200.628 -0.489354 4.21771 0
M  V30 2165 O 201.652 -0.343226 3.54543 0
M  V30 2166 O 200.511 -0.776169 5.4096 0
M  V30 2167 H 197.605 -0.152536 0.812811 0
M  V30 2168 H 200.151 0.450178 1.6362 0
M  V30 2169 H 198.923 0.713985 3.84731 0
M  V30 2170 H 198.546 -1.00103 3.84792 0
M  V30 2171 N 199.544 -1.57102 0.125237 0
M  V30 2172 C 200.769 -2.0019 -0.542101 0
M  V30 2173 C 201.194 -1.00449 -1.59034 0
M  V30 2174 O 200.552 0.0229423 -1.81285 0
M  V30 2175 C 200.6 -3.42129 -1.13929 0
M  V30 2176 O 199.704 -3.45307 -2.2547 0
M  V30 2177 H 199.045 -0.650171 -0.134812 0
M  V30 2178 H 201.575 -2.03461 0.215553 0
M  V30 2179 H 201.585 -3.80471 -1.4733 0
M  V30 2180 H 200.26 -4.14237 -0.371531 0
M  V30 2181 H 198.837 -3.1879 -1.93462 0
M  V30 2182 N 201.022 0.148545 -1.56898 0
M  V30 2183 C 202.271 0.85984 -1.82454 0
M  V30 2184 C 202.584 1.82406 -0.706229 0
M  V30 2185 O 203.79 2.57938 -0.847349 0
M  V30 2186 C 202.246 1.57967 -3.2338 0
M  V30 2187 C 201.854 0.65794 -4.43142 0
M  V30 2188 C 203.598 2.27784 -3.58211 0
M  V30 2189 C 201.505 1.3793 -5.75091 0
M  V30 2190 H 200.435 0.324834 -0.68044 0
M  V30 2191 H 203.086 0.112588 -1.83154 0
M  V30 2192 H 201.468 2.37249 -3.17063 0
M  V30 2193 H 202.642 -0.0995497 -4.60692 0
M  V30 2194 H 200.957 0.0682643 -4.16344 0
M  V30 2195 H 203.554 2.8239 -4.54048 0
M  V30 2196 H 203.897 3.04204 -2.84193 0
M  V30 2197 H 204.43 1.55421 -3.66182 0
M  V30 2198 H 201.169 0.656982 -6.52199 0
M  V30 2199 H 200.689 2.10954 -5.61479 0
M  V30 2200 H 202.368 1.92063 -6.17835 0
M  V30 2201 N 202.5 1.5196 0.417844 0
M  V30 2202 C 203.748 1.65263 1.16329 0
M  V30 2203 C 204.069 0.380634 1.91249 0
M  V30 2204 O 203.339 -0.604214 1.86349 0
M  V30 2205 H 201.919 0.60912 0.432414 0
M  V30 2206 H 204.581 1.88969 0.477162 0
M  V30 2207 H 203.677 2.4896 1.88217 0
M  V30 2208 N 203.978 -0.674533 1.42435 0
M  V30 2209 C 204.908 -1.80009 1.48724 0
M  V30 2210 C 205.889 -1.6659 0.343793 0
M  V30 2211 O 207.074 -1.86007 0.558137 0
M  V30 2212 C 204.204 -3.18306 1.38919 0
M  V30 2213 C 203.158 -3.46461 2.51294 0
M  V30 2214 C 202.484 -4.84335 2.26547 0
M  V30 2215 C 203.784 -3.43328 3.93603 0
M  V30 2216 H 205.478 -1.75004 2.42928 0
M  V30 2217 H 203.024 -0.840533 1.16923 0
M  V30 2218 H 204.977 -3.9678 1.41927 0
M  V30 2219 H 203.701 -3.2399 0.412094 0
M  V30 2220 H 202.36 -2.70348 2.47604 0
M  V30 2221 H 202.008 -4.86669 1.2713 0
M  V30 2222 H 201.708 -5.04136 3.01861 0
M  V30 2223 H 203.232 -5.65094 2.31304 0
M  V30 2224 H 204.646 -4.11772 3.98894 0
M  V30 2225 H 203.043 -3.74664 4.68771 0
M  V30 2226 H 204.113 -2.41897 4.20255 0
M  V30 2227 N 205.456 -1.28612 -0.910864 0
M  V30 2228 C 206.406 -1.09423 -2.00026 0
M  V30 2229 C 207.39 -0.0170079 -1.60891 0
M  V30 2230 O 208.582 -0.237472 -1.754 0
M  V30 2231 C 205.711 -0.76114 -3.34756 0
M  V30 2232 C 204.797 -1.87735 -3.80285 0
M  V30 2233 N 205.188 -3.11938 -3.98156 0
M  V30 2234 C 203.486 -1.76786 -4.09467 0
M  V30 2235 C 204.187 -3.84687 -4.36338 0
M  V30 2236 N 203.163 -3.12555 -4.44759 0
M  V30 2237 H 206.965 -2.03658 -2.11898 0
M  V30 2238 H 204.479 -1.19573 -1.09891 0
M  V30 2239 H 206.476 -0.604743 -4.12491 0
M  V30 2240 H 205.136 0.173403 -3.24237 0
M  V30 2241 H 206.147 -3.47516 -3.83996 0
M  V30 2242 H 202.824 -0.905284 -4.07567 0
M  V30 2243 H 204.214 -4.91518 -4.58104 0
M  V30 2244 N 206.934 1.1197 -1.10907 0
M  V30 2245 C 208.35 1.35591 -0.841852 0
M  V30 2246 C 208.55 1.94233 0.536246 0
M  V30 2247 O 207.606 2.1717 1.28816 0
M  V30 2248 C 208.919 2.29284 -1.94549 0
M  V30 2249 C 210.467 2.42862 -1.97451 0
M  V30 2250 C 210.942 3.39873 -3.07002 0
M  V30 2251 N 212.433 3.47433 -3.06341 0
M  V30 2252 C 213.168 4.22421 -3.87748 0
M  V30 2253 N 212.664 5.00432 -4.79103 0
M  V30 2254 N 214.457 4.17876 -3.75946 0
M  V30 2255 H 206.608 0.722664 -1.99728 0
M  V30 2256 H 208.871 0.380635 -0.868229 0
M  V30 2257 H 208.577 1.93378 -2.93765 0
M  V30 2258 H 208.451 3.29452 -1.83688 0
M  V30 2259 H 210.838 2.78046 -0.988645 0
M  V30 2260 H 210.919 1.42566 -2.12388 0
M  V30 2261 H 210.563 3.05417 -4.05811 0
M  V30 2262 H 210.493 4.40011 -2.89306 0
M  V30 2263 H 212.984 2.91784 -2.40147 0
M  V30 2264 H 213.297 5.55002 -5.37766 0
M  V30 2265 H 211.642 4.99612 -4.83128 0
M  V30 2266 H 214.833 3.56016 -3.03924 0
M  V30 2267 H 215.006 4.76061 -4.39624 0
M  V30 2268 N 208.412 0.89855 1.29475 0
M  V30 2269 C 209.658 0.524658 1.95896 0
M  V30 2270 C 209.991 -0.926468 1.70676 0
M  V30 2271 O 209.266 -1.65665 1.01908 0
M  V30 2272 C 209.549 0.81633 3.50725 0
M  V30 2273 C 209.402 2.31907 3.85408 0
M  V30 2274 C 210.721 0.302038 4.39062 0
M  V30 2275 H 207.84 0.19209 0.711527 0
M  V30 2276 H 210.482 1.12502 1.53112 0
M  V30 2277 H 208.632 0.305369 3.87298 0
M  V30 2278 H 210.304 2.89949 3.58786 0
M  V30 2279 H 208.547 2.78027 3.32992 0
M  V30 2280 H 209.218 2.47373 4.93468 0
M  V30 2281 H 211.694 0.739551 4.09475 0
M  V30 2282 H 210.57 0.535331 5.46283 0
M  V30 2283 H 210.831 -0.797216 4.34853 0
M  V30 2284 N 209.89 -1.43072 0.660911 0
M  V30 2285 C 210.8 -2.34585 -0.0264163 0
M  V30 2286 C 211.816 -1.54316 -0.803898 0
M  V30 2287 O 212.992 -1.86939 -0.749391 0
M  V30 2288 C 210.057 -3.32689 -0.975639 0
M  V30 2289 C 209.118 -4.2886 -0.194236 0
M  V30 2290 C 208.351 -5.22278 -1.09825 0
M  V30 2291 O 208.574 -5.20299 -2.33763 0
M  V30 2292 O 207.508 -5.99228 -0.566513 0
M  V30 2293 H 211.334 -2.94869 0.727034 0
M  V30 2294 H 208.919 -1.43342 0.42111 0
M  V30 2295 H 210.801 -3.92995 -1.52094 0
M  V30 2296 H 209.476 -2.74898 -1.70918 0
M  V30 2297 H 208.383 -3.72011 0.394835 0
M  V30 2298 H 209.716 -4.89655 0.499899 0
M  V30 2299 N 211.368 -0.403325 -1.52352 0
M  V30 2300 C 212.316 0.439752 -2.28405 0
M  V30 2301 C 213.31 1.05089 -1.32863 0
M  V30 2302 O 214.516 0.989759 -1.50345 0
M  V30 2303 H 210.891 0.160587 -0.734653 0
M  V30 2304 H 212.862 -0.222983 -2.97566 0
M  V30 2305 C 211.611 1.54736 -3.11371 0
M  V30 2306 H 210.934 1.08643 -3.84755 0
M  V30 2307 H 212.374 2.1112 -3.67701 0
M  V30 2308 C 210.833 2.51141 -2.24566 0
M  V30 2309 O 211.363 3.54887 -1.88196 0
M  V30 2310 N 209.569 2.21213 -1.8845 0
M  V30 2311 H 209.116 1.36878 -2.18225 0
M  V30 2312 H 209.074 2.85963 -1.30662 0
M  V30 2313 N 212.846 1.57033 -0.133567 0
M  V30 2314 C 214.095 1.94861 0.520768 0
M  V30 2315 C 214.408 1.02012 1.66892 0
M  V30 2316 O 215.614 1.29365 2.38699 0
M  V30 2317 C 214.07 3.46362 0.977809 0
M  V30 2318 C 213.678 4.47773 -0.142674 0
M  V30 2319 C 215.422 3.93083 1.60269 0
M  V30 2320 C 213.329 5.90468 0.331883 0
M  V30 2321 H 212.259 0.727453 0.198315 0
M  V30 2322 H 214.91 1.82227 -0.215759 0
M  V30 2323 H 213.292 3.54282 1.7692 0
M  V30 2324 H 214.466 4.51536 -0.919317 0
M  V30 2325 H 212.781 4.10891 -0.675124 0
M  V30 2326 H 215.378 4.97121 1.96914 0
M  V30 2327 H 215.721 3.33876 2.48662 0
M  V30 2328 H 216.254 3.88025 0.876453 0
M  V30 2329 H 212.993 6.53463 -0.516341 0
M  V30 2330 H 212.513 5.90094 1.07469 0
M  V30 2331 H 214.192 6.42179 0.788332 0
M  V30 2332 N 214.325 -0.140222 1.56975 0
M  V30 2333 C 215.55 -0.870414 1.88251 0
M  V30 2334 C 215.975 -1.73637 0.723312 0
M  V30 2335 O 215.333 -1.78329 -0.32689 0
M  V30 2336 C 215.381 -1.69737 3.18154 0
M  V30 2337 O 214.485 -2.80229 3.02565 0
M  V30 2338 H 213.826 -0.242025 0.61832 0
M  V30 2339 H 216.356 -0.128999 2.04193 0
M  V30 2340 H 216.366 -2.09099 3.50345 0
M  V30 2341 H 215.041 -1.06152 4.02125 0
M  V30 2342 H 213.618 -2.44224 2.81796 0
M  V30 2343 N 215.803 -1.52179 -0.40978 0
M  V30 2344 C 216.753 -1.71857 -1.49831 0
M  V30 2345 C 217.737 -0.572469 -1.50372 0
M  V30 2346 O 218.929 -0.829509 -1.56359 0
M  V30 2347 C 216.058 -1.87206 -2.87765 0
M  V30 2348 C 215.144 -3.07685 -2.91875 0
M  V30 2349 N 215.535 -4.30403 -2.65683 0
M  V30 2350 C 213.833 -3.07505 -3.23043 0
M  V30 2351 C 214.534 -5.11868 -2.76344 0
M  V30 2352 N 213.51 -4.47101 -3.09195 0
M  V30 2353 H 217.312 -2.64381 -1.28375 0
M  V30 2354 H 214.826 -1.50203 -0.617479 0
M  V30 2355 H 216.823 -1.99419 -3.66111 0
M  V30 2356 H 215.483 -0.958814 -3.10221 0
M  V30 2357 H 216.494 -4.58887 -2.4009 0
M  V30 2358 H 213.171 -2.25915 -3.51096 0
M  V30 2359 H 214.561 -6.19634 -2.59814 0
M  V30 2360 N 217.281 0.66697 -1.42791 0
M  V30 2361 C 218.509 1.45505 -1.47091 0
M  V30 2362 C 218.924 1.8861 -0.0845873 0
M  V30 2363 O 218.281 1.58632 0.90234 0
M  V30 2364 C 218.332 2.69906 -2.40485 0
M  V30 2365 O 218.053 2.28608 -3.73725 0
M  V30 2366 C 219.554 3.63396 -2.53886 0
M  V30 2367 H 216.774 0.447459 -0.500022 0
M  V30 2368 H 219.318 0.818866 -1.8739 0
M  V30 2369 H 217.473 3.29696 -2.03419 0
M  V30 2370 H 217.887 3.08997 -4.23817 0
M  V30 2371 H 219.361 4.47387 -3.2334 0
M  V30 2372 H 219.838 4.09824 -1.57927 0
M  V30 2373 H 220.444 3.09495 -2.91706 0
M  V30 2374 N 218.759 1.29093 0.90403 0
M  V30 2375 C 219.669 1.15727 2.0407 0
M  V30 2376 C 220.685 0.0815308 1.73809 0
M  V30 2377 O 221.861 0.292749 1.99261 0
M  V30 2378 C 218.926 0.830424 3.36608 0
M  V30 2379 C 217.987 1.98955 3.80415 0
M  V30 2380 C 217.22 1.6782 5.06628 0
M  V30 2381 O 217.443 0.597105 5.67266 0
M  V30 2382 O 216.377 2.52486 5.46383 0
M  V30 2383 H 220.203 2.11171 2.18267 0
M  V30 2384 H 217.788 1.08504 1.027 0
M  V30 2385 H 219.67 0.662521 4.16159 0
M  V30 2386 H 218.345 -0.0942678 3.23563 0
M  V30 2387 H 217.252 2.21267 3.01648 0
M  V30 2388 H 218.585 2.89529 3.98037 0
M  V30 2389 N 220.237 -1.11381 1.11499 0
M  V30 2390 C 221.648 -1.6465 0.880191 0
M  V30 2391 C 221.999 -1.87199 -0.587434 0
M  V30 2392 O 221.124 -1.60667 -1.44966 0
M  V30 2393 C 221.719 -2.99105 1.59128 0
M  V30 2394 C 220.278 -3.49279 1.40289 0
M  V30 2395 C 219.425 -2.24077 1.63354 0
M  V30 2396 H 222.376 -0.950123 1.27116 0
M  V30 2397 H 222.397 -3.66107 1.03664 0
M  V30 2398 H 221.909 -2.82661 2.65941 0
M  V30 2399 H 220.01 -3.70887 0.356888 0
M  V30 2400 H 220.123 -4.2803 2.15238 0
M  V30 2401 H 218.487 -2.31733 1.05698 0
M  V30 2402 H 219.27 -2.10175 2.71443 0
M  V30 2403 N 221.715 -0.905404 -1.28997 0
M  V30 2404 C 222.678 -0.392253 -2.25819 0
M  V30 2405 C 223.678 0.476753 -1.5357 0
M  V30 2406 O 224.868 0.280994 -1.71919 0
M  V30 2407 C 222 0.438588 -3.38067 0
M  V30 2408 H 223.193 -1.24743 -2.72725 0
M  V30 2409 H 220.746 -0.684051 -1.40536 0
M  V30 2410 H 221.481 1.31352 -2.96508 0
M  V30 2411 H 221.266 -0.184167 -3.91667 0
M  V30 2412 H 222.756 0.78873 -4.10084 0
M  V30 2413 N 223.193 1.4272 -0.668489 0
M  V30 2414 C 224.439 2.01923 -0.188419 0
M  V30 2415 C 224.772 1.52704 1.19979 0
M  V30 2416 O 224.047 0.726566 1.8042 0
M  V30 2417 C 224.33 3.59451 -0.216085 0
M  V30 2418 C 224.183 4.18864 -1.6393 0
M  V30 2419 C 225.502 4.37903 0.439179 0
M  V30 2420 H 222.621 0.733674 -0.0699412 0
M  V30 2421 H 225.263 1.69822 -0.852076 0
M  V30 2422 H 223.413 3.86929 0.349012 0
M  V30 2423 H 225.085 4.02362 -2.25616 0
M  V30 2424 H 223.328 3.74933 -2.18193 0
M  V30 2425 H 223.999 5.27987 -1.61039 0
M  V30 2426 H 226.475 4.16079 -0.0417878 0
M  V30 2427 H 225.351 5.47519 0.389157 0
M  V30 2428 H 225.612 4.15303 1.51577 0
M  V30 2429 N 224.671 0.411399 1.52136 0
M  V30 2430 C 225.896 -0.165538 2.06738 0
M  V30 2431 C 226.321 -1.379 1.27926 0
M  V30 2432 O 225.679 -1.78628 0.310114 0
M  V30 2433 C 225.727 -0.492124 3.57226 0
M  V30 2434 O 224.831 -1.58276 3.80818 0
M  V30 2435 H 224.172 -0.0132132 0.663869 0
M  V30 2436 H 226.702 0.585253 1.96051 0
M  V30 2437 H 226.712 -0.750104 4.01045 0
M  V30 2438 H 225.387 0.394922 4.14021 0
M  V30 2439 H 223.964 -1.31677 3.48877 0
M  V30 2440 N 226.149 -1.5696 0.141893 0
M  V30 2441 C 227.079 -2.19516 -0.795936 0
M  V30 2442 C 228.06 -1.14187 -1.26077 0
M  V30 2443 O 229.245 -1.42511 -1.31925 0
M  V30 2444 C 226.375 -2.81272 -2.03723 0
M  V30 2445 C 225.329 -3.92384 -1.70936 0
M  V30 2446 C 224.655 -4.41052 -3.02287 0
M  V30 2447 C 225.955 -5.13403 -0.959954 0
M  V30 2448 H 227.649 -2.98138 -0.274596 0
M  V30 2449 H 225.195 -1.43406 -0.130636 0
M  V30 2450 H 227.148 -3.237 -2.69808 0
M  V30 2451 H 225.872 -1.99973 -2.58221 0
M  V30 2452 H 224.531 -3.50566 -1.07232 0
M  V30 2453 H 224.179 -3.56582 -3.54765 0
M  V30 2454 H 223.879 -5.15993 -2.81114 0
M  V30 2455 H 225.403 -4.86146 -3.69451 0
M  V30 2456 H 226.817 -5.52706 -1.52279 0
M  V30 2457 H 225.214 -5.94073 -0.848357 0
M  V30 2458 H 226.284 -4.84875 0.0492434 0
M  V30 2459 N 227.627 0.131896 -1.57047 0
M  V30 2460 C 228.577 1.1679 -1.95816 0
M  V30 2461 C 229.561 1.37756 -0.831393 0
M  V30 2462 O 230.753 1.39065 -1.09499 0
M  V30 2463 C 227.882 2.49778 -2.35512 0
M  V30 2464 C 226.968 2.32342 -3.54793 0
M  V30 2465 N 227.359 1.8469 -4.70875 0
M  V30 2466 C 225.657 2.63043 -3.60173 0
M  V30 2467 C 226.358 1.80656 -5.52936 0
M  V30 2468 N 225.334 2.24528 -4.95064 0
M  V30 2469 H 229.136 0.791818 -2.83033 0
M  V30 2470 H 226.65 0.339791 -1.58805 0
M  V30 2471 H 228.647 3.24692 -2.61498 0
M  V30 2472 H 227.307 2.88156 -1.49654 0
M  V30 2473 H 228.318 1.54429 -4.9434 0
M  V30 2474 H 224.995 3.05193 -2.84892 0
M  V30 2475 H 226.385 1.45178 -6.56028 0
M  V30 2476 N 229.106 1.52395 0.401703 0
M  V30 2477 C 230.036 1.79231 1.49661 0
M  V30 2478 C 231.017 0.643654 1.57452 0
M  V30 2479 O 232.202 0.889989 1.72606 0
M  V30 2480 C 229.332 1.94971 2.87409 0
M  V30 2481 C 228.286 3.10604 2.94465 0
M  V30 2482 C 227.612 3.11577 4.34538 0
M  V30 2483 C 228.912 4.49921 2.6527 0
M  V30 2484 H 230.606 2.70917 1.27454 0
M  V30 2485 H 228.152 1.30362 0.6117 0
M  V30 2486 H 230.105 2.12328 3.63999 0
M  V30 2487 H 228.829 0.999632 3.10926 0
M  V30 2488 H 227.488 2.93009 2.20321 0
M  V30 2489 H 227.136 2.14277 4.55076 0
M  V30 2490 H 226.836 3.89247 4.40183 0
M  V30 2491 H 228.36 3.31073 5.13053 0
M  V30 2492 H 229.774 4.67683 3.31581 0
M  V30 2493 H 228.171 5.29564 2.82281 0
M  V30 2494 H 229.241 4.57507 1.60671 0
M  V30 2495 N 230.584 -0.659388 1.43143 0
M  V30 2496 C 231.814 -1.44513 1.47646 0
M  V30 2497 C 232.222 -1.88981 0.0910095 0
M  V30 2498 O 231.565 -1.59702 -0.907789 0
M  V30 2499 C 231.627 -2.71663 2.35456 0
M  V30 2500 C 231.291 -2.49175 3.83094 0
M  V30 2501 C 232.288 -2.1279 4.74359 0
M  V30 2502 C 229.973 -2.63691 4.27519 0
M  V30 2503 C 231.967 -1.9121 6.08044 0
M  V30 2504 C 229.654 -2.41726 5.61259 0
M  V30 2505 C 230.652 -2.0554 6.51339 0
M  V30 2506 O 230.34 -1.838 7.82606 0
M  V30 2507 H 230.072 -0.45064 0.503884 0
M  V30 2508 H 232.626 -0.816248 1.88485 0
M  V30 2509 H 230.856 -3.37089 1.89493 0
M  V30 2510 H 232.545 -3.33595 2.31235 0
M  V30 2511 H 233.311 -2.01157 4.41317 0
M  V30 2512 H 229.19 -2.90832 3.57684 0
M  V30 2513 H 232.734 -1.62889 6.78316 0
M  V30 2514 H 228.631 -2.52959 5.9387 0
M  V30 2515 H 229.399 -1.98275 7.94122 0
M  V30 2516 N 232.062 -1.29571 -0.897171 0
M  V30 2517 C 233.287 -1.20705 -1.68656 0
M  V30 2518 C 233.712 0.228582 -1.86706 0
M  V30 2519 O 233.07 1.16494 -1.3892 0
M  V30 2520 C 233.118 -1.9282 -3.04717 0
M  V30 2521 O 232.222 -1.24697 -3.93096 0
M  V30 2522 H 231.563 -0.418126 -0.515816 0
M  V30 2523 H 234.093 -1.71183 -1.12061 0
M  V30 2524 H 234.103 -2.01372 -3.54843 0
M  V30 2525 H 232.778 -2.97239 -2.90899 0
M  V30 2526 H 231.355 -1.2442 -3.51531 0
M  V30 2527 N 233.54 1.10788 -1.12088 0
M  V30 2528 C 234.951 1.64181 -0.88891 0
M  V30 2529 C 235.302 1.87508 0.577498 0
M  V30 2530 O 234.427 1.61434 1.44112 0
M  V30 2531 C 235.022 2.98257 -1.60712 0
M  V30 2532 C 233.581 3.4853 -1.42139 0
M  V30 2533 C 232.728 2.23208 -1.6454 0
M  V30 2534 H 235.679 0.943368 -1.27618 0
M  V30 2535 H 235.7 3.65552 -1.05604 0
M  V30 2536 H 235.212 2.81246 -2.67436 0
M  V30 2537 H 233.313 3.70692 -0.376552 0
M  V30 2538 H 233.426 4.26882 -2.17505 0
M  V30 2539 H 231.79 2.31169 -1.06925 0
M  V30 2540 H 232.573 2.08733 -2.72554 0
M  V30 2541 N 235.018 0.912232 1.28515 0
M  V30 2542 C 236.429 0.591352 1.77087 0
M  V30 2543 C 236.78 -0.8933 1.74684 0
M  V30 2544 O 235.905 -1.69876 1.34056 0
M  V30 2545 C 236.5 1.06668 3.2157 0
M  V30 2546 C 235.059 0.79675 3.67871 0
M  V30 2547 C 234.206 1.23427 2.48316 0
M  V30 2548 H 237.157 1.09365 1.15 0
M  V30 2549 H 237.178 0.407455 3.78312 0
M  V30 2550 H 236.69 2.14726 3.23287 0
M  V30 2551 H 234.791 -0.270679 3.71616 0
M  V30 2552 H 234.904 1.40343 4.58084 0
M  V30 2553 H 233.268 0.653036 2.46186 0
M  V30 2554 H 234.051 2.32316 2.52753 0
M  V30 2555 N 236.496 -1.42363 0.676048 0
M  V30 2556 C 237.743 -2.01522 0.19883 0
M  V30 2557 C 238.071 -1.53456 -1.19505 0
M  V30 2558 O 237.326 -0.727967 -1.81657 0
M  V30 2559 C 237.625 -3.56929 0.183431 0
M  V30 2560 C 237.291 -4.24431 1.52215 0
M  V30 2561 C 235.953 -4.42585 1.8887 0
M  V30 2562 C 238.305 -4.62459 2.40377 0
M  V30 2563 C 235.633 -4.96039 3.13309 0
M  V30 2564 C 237.985 -5.17294 3.64129 0
M  V30 2565 C 236.649 -5.33661 4.00951 0
M  V30 2566 H 235.919 -0.737419 0.0727571 0
M  V30 2567 H 238.566 -1.70531 0.871281 0
M  V30 2568 H 236.871 -3.87594 -0.572532 0
M  V30 2569 H 238.568 -4.00486 -0.203035 0
M  V30 2570 H 235.158 -4.10661 1.22701 0
M  V30 2571 H 239.342 -4.48105 2.13343 0
M  V30 2572 H 234.598 -5.06896 3.41857 0
M  V30 2573 H 238.772 -5.45704 4.32644 0
M  V30 2574 H 236.399 -5.74845 4.9745 0
M  V30 2575 N 237.974 -0.419461 -1.51915 0
M  V30 2576 C 239.251 0.211999 -1.94448 0
M  V30 2577 C 239.631 1.61703 -1.35703 0
M  V30 2578 O 238.979 2.22102 -0.536931 0
M  V30 2579 C 239.189 0.207872 -3.4838 0
M  V30 2580 C 240.537 0.422192 -4.22496 0
M  V30 2581 O 241.561 0.286778 -3.55044 0
M  V30 2582 O 240.42 0.690009 -5.42126 0
M  V30 2583 H 237.514 0.139586 -0.815135 0
M  V30 2584 H 240.06 -0.476151 -1.62883 0
M  V30 2585 H 238.832 -0.775102 -3.83546 0
M  V30 2586 H 238.455 0.939688 -3.86336 0
M  V30 2587 N 239.452 1.56882 -0.150215 0
M  V30 2588 C 240.68 2.00593 0.506948 0
M  V30 2589 C 241.095 1.03033 1.58208 0
M  V30 2590 O 240.452 0.0278396 1.82479 0
M  V30 2591 C 240.503 3.44209 1.10465 0
M  V30 2592 O 240.224 4.3804 0.0724636 0
M  V30 2593 C 241.725 4.03214 1.84211 0
M  V30 2594 H 238.945 0.65795 0.13169 0
M  V30 2595 H 241.489 2.03018 -0.245743 0
M  V30 2596 H 239.644 3.42625 1.80795 0
M  V30 2597 H 240.058 5.22007 0.510793 0
M  V30 2598 H 241.532 5.0569 2.21318 0
M  V30 2599 H 242.009 3.44107 2.72923 0
M  V30 2600 H 242.615 4.08437 1.18572 0
M  V30 2601 N 240.93 -0.123565 1.57115 0
M  V30 2602 C 242.17 -0.838097 1.86428 0
M  V30 2603 C 242.534 -1.77266 0.737611 0
M  V30 2604 O 243.735 -2.52842 0.912389 0
M  V30 2605 C 242.006 -1.57219 3.20962 0
M  V30 2606 S 243.565 -2.32893 3.71896 0
M  V30 2607 H 240.383 -0.279811 0.653626 0
M  V30 2608 H 242.985 -0.0967034 1.95261 0
M  V30 2609 H 241.689 -0.877522 4.00909 0
M  V30 2610 H 241.22 -2.35405 3.15195 0
M  V30 2611 H 243.235 -3.5853 3.43032 0
M  V30 2612 N 242.408 -1.52605 -0.393616 0
M  V30 2613 C 243.358 -1.73436 -1.48 0
M  V30 2614 C 244.342 -0.588386 -1.49756 0
M  V30 2615 O 245.534 -0.846047 -1.5547 0
M  V30 2616 C 242.663 -1.90247 -2.85764 0
M  V30 2617 C 241.749 -3.10763 -2.88595 0
M  V30 2618 N 242.14 -4.33196 -2.61103 0
M  V30 2619 C 240.438 -3.10914 -3.19763 0
M  V30 2620 C 241.139 -5.1477 -2.70899 0
M  V30 2621 N 240.115 -4.50356 -3.04435 0
M  V30 2622 H 243.917 -2.65727 -1.25563 0
M  V30 2623 H 241.431 -1.5085 -0.601513 0
M  V30 2624 H 243.428 -2.03291 -3.63976 0
M  V30 2625 H 242.088 -0.991663 -3.09186 0
M  V30 2626 H 243.099 -4.61408 -2.35209 0
M  V30 2627 H 239.776 -2.29626 -3.4868 0
M  V30 2628 H 241.166 -6.22355 -2.53227 0
M  V30 2629 N 243.887 0.651787 -1.4349 0
M  V30 2630 C 244.85 1.74647 -1.48429 0
M  V30 2631 C 245.85 1.56513 -0.368817 0
M  V30 2632 O 247.04 1.62385 -0.630623 0
M  V30 2633 C 244.172 3.13533 -1.33827 0
M  V30 2634 H 245.365 1.71649 -2.4592 0
M  V30 2635 H 242.918 0.863573 -1.30277 0
M  V30 2636 H 243.653 3.22142 -0.37349 0
M  V30 2637 H 243.438 3.28101 -2.14691 0
M  V30 2638 H 244.928 3.93356 -1.40218 0
M  V30 2639 N 245.365 1.30045 0.890287 0
M  V30 2640 C 246.612 1.18561 1.64163 0
M  V30 2641 C 246.94 -0.260852 1.92743 0
M  V30 2642 O 246.195 -1.20376 1.54299 0
M  V30 2643 C 246.494 1.95409 2.99249 0
M  V30 2644 C 246.16 3.45066 2.90242 0
M  V30 2645 C 244.822 3.85878 2.87492 0
M  V30 2646 C 247.174 4.4039 2.78758 0
M  V30 2647 C 244.502 5.20314 2.7109 0
M  V30 2648 C 246.854 5.74928 2.63894 0
M  V30 2649 C 245.518 6.14986 2.59516 0
M  V30 2650 H 244.788 0.433846 0.600715 0
M  V30 2651 H 247.435 1.61088 1.03552 0
M  V30 2652 H 245.74 1.45501 3.63781 0
M  V30 2653 H 247.437 1.8392 3.56334 0
M  V30 2654 H 244.027 3.12631 2.93189 0
M  V30 2655 H 248.211 4.09806 2.79952 0
M  V30 2656 H 243.467 5.50449 2.66112 0
M  V30 2657 H 247.641 6.48434 2.53981 0
M  V30 2658 H 245.268 7.19104 2.46565 0
M  V30 2659 N 246.843 -1.10192 1.12674 0
M  V30 2660 C 248.12 -1.78717 0.794965 0
M  V30 2661 C 248.5 -1.98628 -0.714853 0
M  V30 2662 O 247.848 -1.58135 -1.64941 0
M  V30 2663 C 248.058 -3.11546 1.5729 0
M  V30 2664 C 249.406 -3.86382 1.76052 0
M  V30 2665 O 250.43 -3.21274 1.53823 0
M  V30 2666 O 249.289 -5.03246 2.13087 0
M  V30 2667 H 246.383 -0.774702 0.289423 0
M  V30 2668 H 248.929 -1.16819 1.23091 0
M  V30 2669 H 247.701 -2.92489 2.59935 0
M  V30 2670 H 247.324 -3.81164 1.13137 0
M  V30 2671 N 248.321 -0.919034 -1.28029 0
M  V30 2672 C 249.253 -0.368762 -2.26214 0
M  V30 2673 C 250.266 0.495716 -1.55069 0
M  V30 2674 O 251.455 0.30974 -1.75792 0
M  V30 2675 C 248.555 0.491049 -3.35324 0
M  V30 2676 C 247.728 -0.352133 -4.3598 0
M  V30 2677 C 246.787 0.443622 -5.24327 0
M  V30 2678 O 245.813 -0.14566 -5.69014 0
M  V30 2679 N 247.015 1.74545 -5.53637 0
M  V30 2680 H 249.78 -1.21273 -2.74068 0
M  V30 2681 H 247.341 -0.785541 -1.41566 0
M  V30 2682 H 249.333 1.03026 -3.91366 0
M  V30 2683 H 247.903 1.23574 -2.87138 0
M  V30 2684 H 247.123 -1.07269 -3.79324 0
M  V30 2685 H 248.411 -0.928883 -5.00249 0
M  V30 2686 H 247.809 2.24666 -5.19174 0
M  V30 2687 H 246.366 2.23138 -6.12416 0
M  V30 2688 N 249.799 1.42003 -0.683588 0
M  V30 2689 C 251.215 1.55625 -0.353976 0
M  V30 2690 C 251.415 1.66151 1.14 0
M  V30 2691 O 250.471 1.63329 1.92561 0
M  V30 2692 C 251.784 2.80171 -1.092 0
M  V30 2693 C 253.332 2.93954 -1.07518 0
M  V30 2694 C 253.807 4.21372 -1.79471 0
M  V30 2695 N 255.298 4.28303 -1.76381 0
M  V30 2696 C 256.033 5.25729 -2.28904 0
M  V30 2697 N 255.529 6.29254 -2.89846 0
M  V30 2698 N 257.322 5.17586 -2.19228 0
M  V30 2699 H 249.473 1.33415 -1.6527 0
M  V30 2700 H 251.736 0.64282 -0.696769 0
M  V30 2701 H 251.442 2.78561 -2.14701 0
M  V30 2702 H 251.316 3.7133 -0.662862 0
M  V30 2703 H 253.703 2.95086 -0.028475 0
M  V30 2704 H 253.784 2.04002 -1.54328 0
M  V30 2705 H 253.428 4.21001 -2.84114 0
M  V30 2706 H 253.358 5.10275 -1.30104 0
M  V30 2707 H 255.849 3.54119 -1.31939 0
M  V30 2708 H 256.162 6.99964 -3.27522 0
M  V30 2709 H 254.507 6.29791 -2.93919 0
M  V30 2710 H 257.698 4.35631 -1.71299 0
M  V30 2711 H 257.871 5.93348 -2.60466 0
M  V30 2712 N 251.277 0.427512 1.51691 0
M  V30 2713 C 252.505 -0.141191 2.06418 0
M  V30 2714 C 252.92 -1.37303 1.29589 0
M  V30 2715 O 252.277 -1.79059 0.352732 0
M  V30 2716 C 252.328 -0.473266 3.58389 0
M  V30 2717 O 252.049 0.709673 4.32314 0
M  V30 2718 C 253.55 -1.09371 4.29596 0
M  V30 2719 H 250.77 -0.0122747 0.670888 0
M  V30 2720 H 253.314 0.603764 1.95384 0
M  V30 2721 H 251.469 -1.16812 3.69369 0
M  V30 2722 H 251.883 0.42807 5.2275 0
M  V30 2723 H 253.357 -1.27613 5.37046 0
M  V30 2724 H 253.834 -2.072 3.87253 0
M  V30 2725 H 254.44 -0.43853 4.23033 0
M  V30 2726 N 252.755 -1.56801 0.158532 0
M  V30 2727 C 254.003 -1.96102 -0.488712 0
M  V30 2728 C 254.324 -1.04498 -1.64636 0
M  V30 2729 O 253.594 -0.108783 -1.95598 0
M  V30 2730 H 252.174 -0.724102 -0.183535 0
M  V30 2731 H 254.836 -1.93457 0.236728 0
M  V30 2732 H 253.932 -3.00097 -0.857219 0
M  V30 2733 N 254.233 0.115231 -1.57178 0
M  V30 2734 C 255.183 1.14707 -1.97044 0
M  V30 2735 C 256.167 1.36866 -0.845957 0
M  V30 2736 O 257.359 1.37895 -1.10968 0
M  V30 2737 C 254.488 2.47266 -2.38148 0
M  V30 2738 C 253.574 2.28566 -3.57237 0
M  V30 2739 N 253.965 1.79685 -4.72807 0
M  V30 2740 C 252.263 2.59208 -3.62943 0
M  V30 2741 C 252.964 1.74781 -5.54821 0
M  V30 2742 N 251.94 2.19264 -4.97417 0
M  V30 2743 H 255.742 0.761754 -2.83857 0
M  V30 2744 H 253.256 0.322928 -1.59157 0
M  V30 2745 H 255.253 3.219 -2.64927 0
M  V30 2746 H 253.913 2.86552 -1.52702 0
M  V30 2747 H 254.924 1.49177 -4.9595 0
M  V30 2748 H 251.601 3.02154 -2.88113 0
M  V30 2749 H 252.991 1.38212 -6.57531 0
M  V30 2750 N 255.711 1.52812 0.385517 0
M  V30 2751 C 256.658 1.77838 1.47113 0
M  V30 2752 C 257.628 0.621757 1.54024 0
M  V30 2753 O 258.813 0.861846 1.70226 0
M  V30 2754 C 255.953 1.95618 2.84302 0
M  V30 2755 C 255.066 3.23316 2.86515 0
M  V30 2756 C 254.201 3.31394 4.15152 0
M  V30 2757 C 253.24 4.53201 4.1143 0
M  V30 2758 N 252.377 4.58542 5.3168 0
M  V30 2759 H 257.217 2.70482 1.25073 0
M  V30 2760 H 254.754 1.34006 0.606692 0
M  V30 2761 H 256.712 2.03912 3.63972 0
M  V30 2762 H 255.342 1.06331 3.04784 0
M  V30 2763 H 254.394 3.24076 1.99195 0
M  V30 2764 H 255.706 4.13045 2.79634 0
M  V30 2765 H 254.86 3.3889 5.03228 0
M  V30 2766 H 253.599 2.39645 4.24761 0
M  V30 2767 H 252.604 4.45827 3.21742 0
M  V30 2768 H 253.829 5.46271 4.03442 0
M  V30 2769 H 251.775 3.69686 5.41912 0
M  V30 2770 H 251.692 5.42148 5.26889 0
M  V30 2771 H 252.96 4.70296 6.21644 0
M  V30 2772 N 257.189 -0.644168 1.43834 0
M  V30 2773 C 258.137 -1.77793 1.49974 0
M  V30 2774 C 259.131 -1.65253 0.372536 0
M  V30 2775 O 260.337 -1.7149 0.546924 0
M  V30 2776 H 256.712 -0.58675 0.47035 0
M  V30 2777 H 258.683 -1.69736 2.45423 0
M  V30 2778 C 257.432 -3.16087 1.4486 0
M  V30 2779 H 256.755 -3.26378 2.30905 0
M  V30 2780 H 258.195 -3.95349 1.53217 0
M  V30 2781 C 256.654 -3.36484 0.167463 0
M  V30 2782 O 257.184 -3.94298 -0.767609 0
M  V30 2783 N 255.39 -2.90504 0.0747556 0
M  V30 2784 H 254.937 -2.4364 0.836507 0
M  V30 2785 H 254.895 -3.04527 -0.781714 0
M  V30 2786 N 258.668 -1.30515 -0.883378 0
M  V30 2787 C 259.615 -1.17032 -1.98927 0
M  V30 2788 C 260.585 -0.0594241 -1.65994 0
M  V30 2789 O 261.77 -0.229895 -1.8941 0
M  V30 2790 C 258.91 -0.869777 -3.33959 0
M  V30 2791 C 258.023 -2.06271 -3.79574 0
M  V30 2792 C 257.158 -1.70011 -5.03259 0
M  V30 2793 C 256.197 -2.8579 -5.41286 0
M  V30 2794 N 255.334 -2.49816 -6.56153 0
M  V30 2795 H 260.174 -2.1164 -2.09792 0
M  V30 2796 H 257.711 -1.05296 -1.02719 0
M  V30 2797 H 259.669 -0.676138 -4.11685 0
M  V30 2798 H 258.299 0.0394332 -3.22776 0
M  V30 2799 H 257.351 -2.36755 -2.97744 0
M  V30 2800 H 258.663 -2.92971 -4.03694 0
M  V30 2801 H 257.817 -1.47032 -5.88614 0
M  V30 2802 H 256.556 -0.804829 -4.81013 0
M  V30 2803 H 255.561 -3.09434 -4.54456 0
M  V30 2804 H 256.786 -3.76008 -5.65504 0
M  V30 2805 H 254.732 -1.62795 -6.35479 0
M  V30 2806 H 254.649 -3.30048 -6.8015 0
M  V30 2807 H 255.917 -2.30197 -7.44735 0
M  V30 2808 N 260.146 1.09593 -1.13257 0
M  V30 2809 C 261.392 1.82003 -0.89458 0
M  V30 2810 C 261.725 1.85402 0.577906 0
M  V30 2811 O 261 1.32099 1.42759 0
M  V30 2812 C 261.283 3.28237 -1.48096 0
M  V30 2813 C 261.136 3.3312 -3.02244 0
M  V30 2814 C 262.455 4.24871 -1.14774 0
M  V30 2815 H 259.574 0.66077 -0.326424 0
M  V30 2816 H 262.216 1.28389 -1.40058 0
M  V30 2817 H 260.366 3.74024 -1.05062 0
M  V30 2818 H 262.038 2.95748 -3.54021 0
M  V30 2819 H 260.281 2.72756 -3.37323 0
M  V30 2820 H 260.952 4.3613 -3.38371 0
M  V30 2821 H 263.428 3.87361 -1.51957 0
M  V30 2822 H 262.304 5.25532 -1.58452 0
M  V30 2823 H 262.565 4.42058 -0.0611849 0
M  V30 2824 N 261.624 0.925811 1.2754 0
M  V30 2825 C 262.852 0.581509 1.9856 0
M  V30 2826 C 263.267 -0.840041 1.69082 0
M  V30 2827 O 262.624 -1.55805 0.950312 0
M  V30 2828 C 262.675 0.795589 3.52637 0
M  V30 2829 O 262.396 2.16121 3.81082 0
M  V30 2830 C 263.897 0.459744 4.4091 0
M  V30 2831 H 261.117 0.220538 0.633722 0
M  V30 2832 H 263.661 1.24232 1.6244 0
M  V30 2833 H 261.816 0.18161 3.86974 0
M  V30 2834 H 262.23 2.2098 4.75676 0
M  V30 2835 H 263.704 0.660244 5.48037 0
M  V30 2836 H 264.181 -0.604625 4.35018 0
M  V30 2837 H 264.787 1.05178 4.12089 0
M  V30 2838 N 263.102 -1.41638 0.69111 0
M  V30 2839 C 264.035 -2.28183 -0.0274913 0
M  V30 2840 C 265.013 -1.41984 -0.792424 0
M  V30 2841 O 266.197 -1.71415 -0.784169 0
M  V30 2842 C 263.324 -3.22135 -1.04628 0
M  V30 2843 C 262.37 -4.24848 -0.375037 0
M  V30 2844 S 263.203 -5.28231 0.879321 0
M  V30 2845 C 264.359 -6.25748 -0.137983 0
M  V30 2846 H 264.592 -2.88782 0.706553 0
M  V30 2847 H 262.125 -1.46709 0.481222 0
M  V30 2848 H 264.083 -3.76797 -1.62894 0
M  V30 2849 H 262.744 -2.6064 -1.75287 0
M  V30 2850 H 261.937 -4.90837 -1.14433 0
M  V30 2851 H 261.539 -3.73758 0.134434 0
M  V30 2852 H 263.831 -6.70188 -0.992659 0
M  V30 2853 H 264.774 -7.06417 0.487867 0
M  V30 2854 H 265.182 -5.62363 -0.490762 0
M  V30 2855 N 264.58 -0.43555 -1.51462 0
M  V30 2856 C 265.808 0.130242 -2.0649 0
M  V30 2857 C 266.223 1.36614 -1.30315 0
M  V30 2858 O 265.58 1.78869 -0.362223 0
M  V30 2859 C 265.631 0.454253 -3.58635 0
M  V30 2860 O 265.352 -0.73259 -4.31931 0
M  V30 2861 C 266.853 1.07091 -4.3017 0
M  V30 2862 H 264.073 0.00871669 -0.670943 0
M  V30 2863 H 266.617 -0.614117 -1.95061 0
M  V30 2864 H 264.772 1.14851 -3.69984 0
M  V30 2865 H 265.186 -0.455787 -5.22516 0
M  V30 2866 H 266.66 1.24764 -5.37716 0
M  V30 2867 H 267.137 2.05144 -3.88346 0
M  V30 2868 H 267.743 0.416089 -4.2326 0
M  V30 2869 N 266.058 1.56714 -0.166846 0
M  V30 2870 C 267.305 1.96747 0.479252 0
M  V30 2871 C 267.633 1.05263 1.63554 0
M  V30 2872 O 266.888 0.0858098 1.95512 0
M  V30 2873 C 267.187 3.42889 1.00806 0
M  V30 2874 C 266.853 4.50889 -0.0318574 0
M  V30 2875 C 265.515 4.8015 -0.317675 0
M  V30 2876 C 267.867 5.15949 -0.737956 0
M  V30 2877 C 265.195 5.71772 -1.31506 0
M  V30 2878 C 267.547 6.08647 -1.72429 0
M  V30 2879 C 266.211 6.36277 -2.0176 0
M  V30 2880 H 265.481 0.719949 0.175371 0
M  V30 2881 H 268.128 1.89756 -0.257864 0
M  V30 2882 H 266.433 3.4681 1.82291 0
M  V30 2883 H 268.13 3.71203 1.51689 0
M  V30 2884 H 264.72 4.28128 0.201088 0
M  V30 2885 H 268.904 4.93458 -0.530351 0
M  V30 2886 H 264.16 5.91465 -1.54853 0
M  V30 2887 H 268.334 6.58129 -2.27682 0
M  V30 2888 H 265.961 7.07075 -2.79194 0
M  V30 2889 N 267.536 -0.106894 1.57237 0
M  V30 2890 C 268.486 -1.1366 1.9765 0
M  V30 2891 C 269.47 -1.36416 0.853203 0
M  V30 2892 O 270.662 -1.37305 1.11697 0
M  V30 2893 C 267.791 -2.46 2.39455 0
M  V30 2894 C 266.877 -2.26668 3.58445 0
M  V30 2895 N 267.268 -1.77176 4.73754 0
M  V30 2896 C 265.566 -2.57279 3.64312 0
M  V30 2897 C 266.267 -1.71836 5.5574 0
M  V30 2898 N 265.243 -2.16623 4.98573 0
M  V30 2899 H 269.045 -0.74669 2.84256 0
M  V30 2900 H 266.559 -0.314483 1.59326 0
M  V30 2901 H 268.556 -3.2049 2.6663 0
M  V30 2902 H 267.216 -2.85738 1.54219 0
M  V30 2903 H 268.227 -1.46545 4.96734 0
M  V30 2904 H 264.904 -3.00622 2.89711 0
M  V30 2905 H 266.294 -1.34723 6.58255 0
M  V30 2906 N 269.014 -1.53014 -0.377408 0
M  V30 2907 C 270.239 -1.72818 -1.14668 0
M  V30 2908 C 270.664 -0.450725 -1.8262 0
M  V30 2909 O 270.022 0.59439 -1.7128 0
M  V30 2910 C 270.07 -2.88627 -2.16164 0
M  V30 2911 O 269.174 -2.56409 -3.22998 0
M  V30 2912 H 268.515 -0.574301 -0.333278 0
M  V30 2913 H 271.045 -1.99853 -0.438152 0
M  V30 2914 H 271.055 -3.14455 -2.59966 0
M  V30 2915 H 269.73 -3.81294 -1.66095 0
M  V30 2916 H 268.307 -2.4136 -2.84253 0
M  V30 2917 N 270.492 0.636531 -1.44174 0
M  V30 2918 C 271.439 1.74875 -1.50624 0
M  V30 2919 C 272.409 1.62275 -0.35442 0
M  V30 2920 O 273.594 1.82276 -0.563908 0
M  V30 2921 C 270.734 3.13102 -1.45125 0
M  V30 2922 C 269.847 3.36717 -2.7064 0
M  V30 2923 C 268.982 4.64885 -2.57013 0
M  V30 2924 C 268.021 4.8166 -3.77717 0
M  V30 2925 N 267.158 6.01101 -3.62798 0
M  V30 2926 H 271.998 1.68697 -2.45653 0
M  V30 2927 H 269.535 0.823004 -1.21922 0
M  V30 2928 H 271.493 3.93034 -1.39929 0
M  V30 2929 H 270.123 3.18308 -0.536671 0
M  V30 2930 H 269.175 2.50763 -2.86046 0
M  V30 2931 H 270.487 3.44993 -3.60252 0
M  V30 2932 H 269.641 5.52969 -2.49619 0
M  V30 2933 H 268.38 4.58957 -1.64953 0
M  V30 2934 H 267.385 3.92007 -3.85501 0
M  V30 2935 H 268.61 4.89406 -4.70807 0
M  V30 2936 H 266.556 5.96273 -2.73486 0
M  V30 2937 H 266.473 6.10409 -4.46023 0
M  V30 2938 H 267.741 6.91761 -3.59286 0
M  V30 2939 N 271.97 1.30982 0.876444 0
M  V30 2940 C 273.217 1.20296 1.62896 0
M  V30 2941 C 273.545 -0.240395 1.93009 0
M  V30 2942 O 272.8 -1.18733 1.55567 0
M  V30 2943 C 273.099 1.98572 2.9716 0
M  V30 2944 C 272.765 3.48125 2.86566 0
M  V30 2945 C 271.427 3.88905 2.83383 0
M  V30 2946 C 273.779 4.43322 2.74071 0
M  V30 2947 C 271.107 5.2316 2.65556 0
M  V30 2948 C 273.459 5.77695 2.57781 0
M  V30 2949 C 272.123 6.17704 2.52979 0
M  V30 2950 H 271.393 0.440193 0.59608 0
M  V30 2951 H 274.04 1.62177 1.01837 0
M  V30 2952 H 272.345 1.49352 3.62217 0
M  V30 2953 H 274.042 1.8769 3.54364 0
M  V30 2954 H 270.632 3.15723 2.89856 0
M  V30 2955 H 274.816 4.12752 2.75589 0
M  V30 2956 H 270.072 5.53241 2.60259 0
M  V30 2957 H 274.246 6.51091 2.47089 0
M  V30 2958 H 271.873 7.21678 2.38924 0
M  V30 2959 N 273.449 -1.08991 1.13837 0
M  V30 2960 C 274.697 -1.80899 0.901098 0
M  V30 2961 C 275.018 -1.86356 -0.574134 0
M  V30 2962 O 274.288 -1.35235 -1.41733 0
M  V30 2963 H 272.868 -0.669966 0.330386 0
M  V30 2964 H 275.53 -1.318 1.43578 0
M  V30 2965 H 274.626 -2.83929 1.29578 0
M  V30 2966 N 274.927 -0.932562 -1.27047 0
M  V30 2967 C 276.176 -0.571351 -1.93439 0
M  V30 2968 C 276.489 0.892467 -1.74053 0
M  V30 2969 O 277.695 1.36267 -2.34826 0
M  V30 2970 C 276.151 -0.97106 -3.46552 0
M  V30 2971 C 275.759 -2.4559 -3.74686 0
M  V30 2972 C 277.503 -0.681333 -4.18997 0
M  V30 2973 C 275.41 -2.79475 -5.21198 0
M  V30 2974 H 274.34 -0.209966 -0.724176 0
M  V30 2975 H 276.991 -1.13403 -1.44263 0
M  V30 2976 H 275.373 -0.336983 -3.94564 0
M  V30 2977 H 276.547 -3.13829 -3.37414 0
M  V30 2978 H 274.862 -2.71802 -3.15456 0
M  V30 2979 H 277.459 -0.910939 -5.26883 0
M  V30 2980 H 277.802 0.381628 -4.14547 0
M  V30 2981 H 278.335 -1.27473 -3.76823 0
M  V30 2982 H 275.074 -3.847 -5.30741 0
M  V30 2983 H 274.594 -2.1589 -5.596 0
M  V30 2984 H 276.273 -2.67478 -5.89122 0
M  V30 2985 N 276.405 1.4127 -0.698611 0
M  V30 2986 C 277.821 1.55241 -0.370462 0
M  V30 2987 C 278.021 1.67351 1.12231 0
M  V30 2988 O 277.077 1.65363 1.90818 0
M  V30 2989 C 278.39 2.78997 -1.12165 0
M  V30 2990 C 279.938 2.92797 -1.1063 0
M  V30 2991 C 280.413 4.19445 -1.8393 0
M  V30 2992 N 281.904 4.26409 -1.80914 0
M  V30 2993 C 282.639 5.23271 -2.34467 0
M  V30 2994 N 282.135 6.26145 -2.96504 0
M  V30 2995 N 283.928 5.15232 -2.24706 0
M  V30 2996 H 276.079 1.31654 -1.66676 0
M  V30 2997 H 278.342 0.635393 -0.703548 0
M  V30 2998 H 278.048 2.76268 -2.17644 0
M  V30 2999 H 277.922 3.70606 -0.702209 0
M  V30 3000 H 280.309 2.95039 -0.0597713 0
M  V30 3001 H 280.39 2.02353 -1.56483 0
M  V30 3002 H 280.034 4.17964 -2.88563 0
M  V30 3003 H 279.964 5.08866 -1.35509 0
M  V30 3004 H 282.455 3.527 -1.35687 0
M  V30 3005 H 282.768 6.96451 -3.34927 0
M  V30 3006 H 281.113 6.26638 -3.00583 0
M  V30 3007 H 284.304 4.33789 -1.7591 0
M  V30 3008 H 284.477 5.90552 -2.66745 0
M  V30 3009 N 277.883 0.443576 1.51229 0
M  V30 3010 C 279.111 -0.11929 2.06556 0
M  V30 3011 C 279.526 -1.35921 1.31038 0
M  V30 3012 O 278.883 -1.78675 0.371704 0
M  V30 3013 C 278.934 -0.435228 3.5887 0
M  V30 3014 O 278.655 0.755486 4.31537 0
M  V30 3015 C 280.156 -1.04808 4.30732 0
M  V30 3016 H 277.376 -0.0051584 0.67098 0
M  V30 3017 H 279.92 0.624453 1.94733 0
M  V30 3018 H 278.075 -1.12887 3.70588 0
M  V30 3019 H 278.489 0.483491 5.22267 0
M  V30 3020 H 279.963 -1.2191 5.3837 0
M  V30 3021 H 280.44 -2.03081 3.89429 0
M  V30 3022 H 281.046 -0.393637 4.23474 0
M  V30 3023 N 279.361 -1.56624 0.175154 0
M  V30 3024 C 280.772 -1.83561 -0.340916 0
M  V30 3025 C 281.123 -1.09511 -1.62794 0
M  V30 3026 O 280.248 -0.349389 -2.13561 0
M  V30 3027 C 280.843 -3.32979 -0.625313 0
M  V30 3028 C 279.402 -3.60399 -1.08581 0
M  V30 3029 C 278.549 -2.77024 -0.123722 0
M  V30 3030 H 281.5 -1.53593 0.399344 0
M  V30 3031 H 281.521 -3.50666 -1.47694 0
M  V30 3032 H 281.033 -3.86847 0.311575 0
M  V30 3033 H 279.134 -3.11945 -2.03767 0
M  V30 3034 H 279.247 -4.68711 -0.992317 0
M  V30 3035 H 277.611 -2.46993 -0.621821 0
M  V30 3036 H 278.394 -3.33674 0.807256 0
M  V30 3037 N 280.839 0.0985539 -1.57292 0
M  V30 3038 C 281.787 1.1387 -2.02821 0
M  V30 3039 C 282.781 1.41676 -0.928666 0
M  V30 3040 O 283.987 1.41398 -1.11385 0
M  V30 3041 H 280.362 0.384419 -0.646317 0
M  V30 3042 H 282.333 0.728347 -2.89375 0
M  V30 3043 C 281.082 2.45166 -2.46554 0
M  V30 3044 H 280.405 2.24613 -3.3074 0
M  V30 3045 H 281.845 3.16456 -2.8219 0
M  V30 3046 C 280.304 3.09216 -1.33742 0
M  V30 3047 O 280.834 3.96163 -0.66464 0
M  V30 3048 N 279.04 2.69413 -1.08928 0
M  V30 3049 H 278.587 1.98801 -1.63817 0
M  V30 3050 H 278.545 3.12594 -0.336458 0
M  V30 3051 N 282.317 1.53212 0.369288 0
M  V30 3052 C 283.28 1.7872 1.43498 0
M  V30 3053 C 284.28 0.657554 1.46741 0
M  V30 3054 O 285.47 0.925736 1.47566 0
M  V30 3055 C 282.602 1.90591 2.82645 0
M  V30 3056 H 283.795 2.73894 1.22156 0
M  V30 3057 H 281.348 1.44233 0.602203 0
M  V30 3058 H 282.083 0.974709 3.09306 0
M  V30 3059 H 281.868 2.72751 2.8169 0
M  V30 3060 H 283.358 2.11931 3.59826 0
M  V30 3061 N 283.795 -0.628877 1.44509 0
M  V30 3062 C 285.023 -1.41554 1.50897 0
M  V30 3063 C 285.438 -1.8832 0.134564 0
M  V30 3064 O 284.795 -1.60969 -0.859965 0
M  V30 3065 C 284.846 -2.63435 2.47556 0
M  V30 3066 O 284.567 -2.18619 3.79654 0
M  V30 3067 C 286.068 -3.56537 2.63431 0
M  V30 3068 H 283.288 -0.434044 0.511709 0
M  V30 3069 H 285.832 -0.768895 1.89495 0
M  V30 3070 H 283.987 -3.24187 2.12089 0
M  V30 3071 H 284.401 -2.97652 4.31861 0
M  V30 3072 H 285.875 -4.38657 3.35088 0
M  V30 3073 H 286.352 -4.05493 1.68738 0
M  V30 3074 H 286.958 -3.01653 2.9981 0
M  V30 3075 N 285.273 -1.31445 -0.869486 0
M  V30 3076 C 286.498 -1.24256 -1.66058 0
M  V30 3077 C 286.923 0.188928 -1.87149 0
M  V30 3078 O 286.281 1.13522 -1.4136 0
M  V30 3079 C 286.329 -1.9924 -3.00559 0
M  V30 3080 O 285.433 -1.33007 -3.90362 0
M  V30 3081 H 284.774 -0.428973 -0.506831 0
M  V30 3082 H 287.304 -1.73521 -1.08404 0
M  V30 3083 H 287.314 -2.08854 -3.50491 0
M  V30 3084 H 285.989 -3.03342 -2.84528 0
M  V30 3085 H 284.566 -1.31848 -3.48813 0
M  V30 3086 N 286.751 1.08385 -1.14413 0
M  V30 3087 C 287.999 1.80419 -0.910679 0
M  V30 3088 C 288.32 1.86658 0.564243 0
M  V30 3089 O 287.59 1.35985 1.41014 0
M  V30 3090 H 286.17 0.668204 -0.333934 0
M  V30 3091 H 288.832 1.31037 -1.44275 0
M  V30 3092 H 287.928 2.83238 -1.31082 0
M  V30 3093 N 288.23 0.939286 1.26551 0
M  V30 3094 C 289.455 0.602008 1.98471 0
M  V30 3095 C 289.88 -0.815624 1.69497 0
M  V30 3096 O 289.238 -1.54912 0.941905 0
M  V30 3097 C 289.286 0.848407 3.50477 0
M  V30 3098 O 288.39 -0.0804009 4.12322 0
M  V30 3099 H 287.731 0.23049 0.622712 0
M  V30 3100 H 290.261 1.2617 1.61066 0
M  V30 3101 H 290.271 0.768553 4.00696 0
M  V30 3102 H 288.946 1.88171 3.70897 0
M  V30 3103 H 287.523 0.0503508 3.72866 0
M  V30 3104 N 289.708 -1.40897 0.706093 0
M  V30 3105 C 290.638 -2.33418 0.0620085 0
M  V30 3106 C 291.619 -1.52385 -0.755827 0
M  V30 3107 O 292.804 -1.80886 -0.706674 0
M  V30 3108 C 289.934 -3.36293 -0.867445 0
M  V30 3109 C 288.888 -4.27716 -0.155932 0
M  V30 3110 C 288.214 -5.2105 -1.20046 0
M  V30 3111 C 289.514 -5.12944 0.984149 0
M  V30 3112 H 291.208 -2.87527 0.83477 0
M  V30 3113 H 288.754 -1.38249 0.402875 0
M  V30 3114 H 290.707 -3.99949 -1.32735 0
M  V30 3115 H 289.431 -2.80556 -1.67199 0
M  V30 3116 H 288.09 -3.65498 0.284047 0
M  V30 3117 H 287.738 -4.61624 -1.99781 0
M  V30 3118 H 287.438 -5.83056 -0.729328 0
M  V30 3119 H 288.962 -5.87584 -1.66066 0
M  V30 3120 H 290.376 -5.70109 0.604048 0
M  V30 3121 H 288.773 -5.83945 1.38304 0
M  V30 3122 H 289.843 -4.49485 1.81911 0
M  V30 3123 N 291.186 -0.45159 -1.50991 0
M  V30 3124 C 292.096 0.358431 -2.31846 0
M  V30 3125 C 293.112 1.01438 -1.41373 0
M  V30 3126 O 294.288 1.00663 -1.74439 0
M  V30 3127 C 291.353 1.43704 -3.15515 0
M  V30 3128 C 290.414 0.799742 -4.21785 0
M  V30 3129 C 289.647 1.82696 -5.01456 0
M  V30 3130 O 289.87 3.05105 -4.81941 0
M  V30 3131 O 288.804 1.40958 -5.85162 0
M  V30 3132 H 292.63 -0.302032 -3.02194 0
M  V30 3133 H 290.215 -0.213825 -1.47862 0
M  V30 3134 H 292.097 2.06227 -3.67489 0
M  V30 3135 H 290.772 2.08133 -2.47916 0
M  V30 3136 H 289.679 0.136084 -3.73852 0
M  V30 3137 H 291.012 0.198718 -4.91799 0
M  V30 3138 N 292.664 1.56529 -0.183458 0
M  V30 3139 C 293.612 2.19873 0.758845 0
M  V30 3140 C 294.606 1.16638 1.22849 0
M  V30 3141 O 295.812 1.3481 1.19274 0
M  V30 3142 H 292.187 0.7045 0.263029 0
M  V30 3143 H 294.158 2.97724 0.200755 0
M  V30 3144 C 292.907 2.86314 1.9728 0
M  V30 3145 H 292.23 3.65487 1.62047 0
M  V30 3146 H 293.67 3.3409 2.61075 0
M  V30 3147 C 292.129 1.86729 2.80418 0
M  V30 3148 O 292.659 1.36031 3.77966 0
M  V30 3149 N 290.865 1.55216 2.45675 0
M  V30 3150 H 290.412 1.96636 1.66409 0
M  V30 3151 H 290.37 0.888388 3.01588 0
M  V30 3152 N 294.142 -0.090211 1.57342 0
M  V30 3153 C 295.09 -1.12792 2.03422 0
M  V30 3154 C 296.084 -1.41182 0.936166 0
M  V30 3155 O 297.29 -1.40805 1.12133 0
M  V30 3156 H 293.665 -0.380986 0.648347 0
M  V30 3157 H 295.636 -0.71299 2.89757 0
M  V30 3158 C 294.385 -2.43855 2.47851 0
M  V30 3159 H 293.708 -2.22855 3.31927 0
M  V30 3160 H 295.148 -3.14955 2.83865 0
M  V30 3161 C 293.607 -3.08503 1.3538 0
M  V30 3162 O 294.137 -3.95805 0.685641 0
M  V30 3163 N 292.343 -2.68831 1.10355 0
M  V30 3164 H 291.89 -1.97929 1.64869 0
M  V30 3165 H 291.848 -3.12412 0.353031 0
M  V30 3166 O 295.659 -1.59794 -0.234115 0
M  V30 3167 H 296.35 -1.72743 -0.876335 0
M  V30 END ATOM
M  V30 BEGIN BOND
M  V30 END BOND
M  V30 END CTAB
M  END
$$$$
