drugbank_target|P03472 Neuraminidase (DB02529; DB02600; DB03257; DB03321; DB03420; DB03503; DB03721; DB03991; DB04227; DB06614)
 OpenBabel12092119573D

  0  0  0     0  0            999 V3000
M  V30 BEGIN CTAB
M  V30 COUNTS 7219 7309 0 0 0
M  V30 BEGIN ATOM
M  V30 1 H -0.908 1.98254 -0.117106 0
M  V30 2 N 0 1.576 0 0
M  V30 3 C 0.933 2.03868 1.02534 0
M  V30 4 C 1.911 0.928543 1.3348 0
M  V30 5 O 3.095 1.19667 1.45644 0
M  V30 6 C 0.222 2.43627 2.35294 0
M  V30 7 C -0.732 3.65373 2.2001 0
M  V30 8 S 0.101 5.13292 1.52614 0
M  V30 9 C 1.257 5.56322 2.86805 0
M  V30 10 H 1.49 2.90518 0.631377 0
M  V30 11 H -0.977 1.52953 0.210867 0
M  V30 12 H 0.981 2.67203 3.11629 0
M  V30 13 H -0.358 1.57376 2.7183 0
M  V30 14 H -1.165 3.90944 3.18086 0
M  V30 15 H -1.563 3.418 1.51819 0
M  V30 16 H 0.729 5.58782 3.83104 0
M  V30 17 H 1.672 6.56266 2.65933 0
M  V30 18 H 2.08 4.83886 2.90714 0
M  V30 19 N 1.4781 -0.272755 1.55222 0
M  V30 20 C 2.4261 -1.35705 1.88909 0
M  V30 21 C 3.4201 -1.5112 0.765456 0
M  V30 22 O 4.6261 -1.52901 0.949802 0
M  V30 23 H 1.0011 -0.453868 0.59959 0
M  V30 24 H 2.9721 -1.04544 2.79487 0
M  V30 25 C 1.7211 -2.71049 2.17779 0
M  V30 26 H 1.0441 -2.59979 3.03728 0
M  V30 27 H 2.4841 -3.45858 2.45272 0
M  V30 28 C 0.9431 -3.22165 0.985473 0
M  V30 29 O 1.4731 -4.01096 0.220233 0
M  V30 30 N -0.3209 -2.7985 0.783108 0
M  V30 31 H -0.7739 -2.15775 1.40708 0
M  V30 32 H -0.8159 -3.14397 -0.0130392 0
M  V30 33 N 2.9562 -1.48159 -0.537278 0
M  V30 34 C 4.3672 -1.49429 -1.11928 0
M  V30 35 C 4.7182 -0.26 -1.9447 0
M  V30 36 O 3.8432 0.633489 -2.0692 0
M  V30 37 C 4.4382 -2.70758 -2.03656 0
M  V30 38 C 2.9972 -2.74923 -2.57088 0
M  V30 39 C 2.1442 -2.42835 -1.3389 0
M  V30 40 H 5.0952 -1.55381 -0.322886 0
M  V30 41 H 5.1162 -2.48861 -2.87834 0
M  V30 42 H 4.6282 -3.60575 -1.43553 0
M  V30 43 H 2.7292 -1.89296 -3.20933 0
M  V30 44 H 2.8422 -3.76157 -2.9672 0
M  V30 45 H 1.2062 -1.93836 -1.65226 0
M  V30 46 H 1.9892 -3.34884 -0.755504 0
M  V30 47 N 4.4343 0.785586 -1.36625 0
M  V30 48 C 5.3823 1.91978 -1.31329 0
M  V30 49 C 6.3763 1.68162 -0.204416 0
M  V30 50 O 7.5823 1.76122 -0.371645 0
M  V30 51 H 3.9573 0.631087 -0.408942 0
M  V30 52 H 5.9283 1.93562 -2.27104 0
M  V30 53 C 4.6773 3.29055 -1.12329 0
M  V30 54 H 4.0003 3.4795 -1.96903 0
M  V30 55 H 5.4403 4.08756 -1.12671 0
M  V30 56 C 3.8993 3.36461 0.171861 0
M  V30 57 O 4.4293 3.84576 1.16035 0
M  V30 58 N 2.6353 2.89782 0.217846 0
M  V30 59 H 2.1823 2.50819 -0.587183 0
M  V30 60 H 2.1403 2.95119 1.08408 0
M  V30 61 N 5.9124 1.20967 1.01018 0
M  V30 62 C 6.8444 0.922059 2.09835 0
M  V30 63 C 7.8574 -0.0927106 1.62536 0
M  V30 64 O 9.0464 0.139127 1.77957 0
M  V30 65 C 6.1464 0.362004 3.36961 0
M  V30 66 C 5.3194 1.42986 4.13369 0
M  V30 67 C 4.3784 0.879976 5.1879 0
M  V30 68 O 3.4044 1.56219 5.47343 0
M  V30 69 N 4.6064 -0.307396 5.79686 0
M  V30 70 H 7.3714 1.8588 2.35093 0
M  V30 71 H 4.9324 1.11422 1.1746 0
M  V30 72 H 6.9244 -0.0201474 4.04695 0
M  V30 73 H 5.4944 -0.479437 3.08902 0
M  V30 74 H 4.7144 1.98608 3.40512 0
M  V30 75 H 6.0024 2.14885 4.61196 0
M  V30 76 H 5.4004 -0.878796 5.58832 0
M  V30 77 H 3.9574 -0.631115 6.48737 0
M  V30 78 N 7.3905 -1.2043 1.01659 0
M  V30 79 C 8.3375 -2.23215 0.586822 0
M  V30 80 C 9.3075 -1.61382 -0.393085 0
M  V30 81 O 10.4925 -1.88544 -0.292525 0
M  V30 82 C 7.6325 -3.45032 -0.0687464 0
M  V30 83 C 6.7455 -4.21296 0.955724 0
M  V30 84 C 5.8805 -5.30507 0.271208 0
M  V30 85 C 4.9195 -5.98515 1.28244 0
M  V30 86 N 4.0565 -6.99316 0.62459 0
M  V30 87 H 8.8965 -2.59336 1.46796 0
M  V30 88 H 6.4335 -1.27431 0.734836 0
M  V30 89 H 8.3915 -4.1459 -0.465965 0
M  V30 90 H 7.0215 -3.09604 -0.913529 0
M  V30 91 H 6.0735 -3.50803 1.4711 0
M  V30 92 H 7.3855 -4.6803 1.72479 0
M  V30 93 H 6.5395 -6.06428 -0.18151 0
M  V30 94 H 5.2785 -4.8481 -0.530163 0
M  V30 95 H 4.2835 -5.21355 1.74554 0
M  V30 96 H 5.5085 -6.46298 2.08509 0
M  V30 97 H 3.4545 -6.55812 -0.156914 0
M  V30 98 H 3.3715 -7.44178 1.33172 0
M  V30 99 H 4.6395 -7.79255 0.195462 0
M  V30 100 N 8.8686 -0.792821 -1.36206 0
M  V30 101 C 10.1176 -0.363353 -1.984 0
M  V30 102 C 10.4306 1.07172 -1.63626 0
M  V30 103 O 11.6366 1.60362 -2.19081 0
M  V30 104 C 10.0926 -0.59872 -3.54885 0
M  V30 105 C 9.7006 -2.04543 -3.9858 0
M  V30 106 C 11.4446 -0.233926 -4.23855 0
M  V30 107 C 9.3516 -2.22727 -5.47856 0
M  V30 108 H 8.2816 -0.13212 -0.742334 0
M  V30 109 H 10.9326 -0.974935 -1.55458 0
M  V30 110 H 9.3146 0.0826222 -3.95914 0
M  V30 111 H 10.4886 -2.76345 -3.68741 0
M  V30 112 H 8.8036 -2.36879 -3.42458 0
M  V30 113 H 11.4006 -0.348027 -5.33566 0
M  V30 114 H 11.7436 0.818351 -4.08177 0
M  V30 115 H 12.2766 -0.868639 -3.882 0
M  V30 116 H 9.0156 -3.2635 -5.68486 0
M  V30 117 H 8.5356 -1.55434 -5.7931 0
M  V30 118 H 10.2146 -2.03607 -6.14128 0
M  V30 119 N 10.3467 1.47872 -0.545128 0
M  V30 120 C 11.2767 2.32661 0.197793 0
M  V30 121 C 12.2577 1.43041 0.920504 0
M  V30 122 O 13.4427 1.71912 0.90333 0
M  V30 123 C 10.5727 3.24569 1.23582 0
M  V30 124 C 9.5267 4.23333 0.630323 0
M  V30 125 C 8.8527 5.0448 1.77211 0
M  V30 126 C 10.1527 5.20704 -0.407974 0
M  V30 127 H 11.8467 2.95024 -0.510045 0
M  V30 128 H 9.3927 1.4187 -0.246731 0
M  V30 129 H 11.3457 3.8272 1.76362 0
M  V30 130 H 10.0697 2.60236 1.97344 0
M  V30 131 H 8.7287 3.6639 0.123922 0
M  V30 132 H 8.3767 4.36561 2.49847 0
M  V30 133 H 8.0767 5.71339 1.37281 0
M  V30 134 H 9.6007 5.65487 2.3034 0
M  V30 135 H 11.0147 5.7329 0.033305 0
M  V30 136 H 9.4117 5.95699 -0.725486 0
M  V30 137 H 10.4817 4.66917 -1.30828 0
M  V30 138 N 11.8248 0.280983 1.55075 0
M  V30 139 C 13.0648 -0.335234 2.01632 0
M  V30 140 C 13.4288 -1.5261 1.16508 0
M  V30 141 O 14.6298 -2.21235 1.52672 0
M  V30 142 C 12.9008 -0.702172 3.50434 0
M  V30 143 S 14.4598 -1.30409 4.18974 0
M  V30 144 H 11.2778 -0.103967 0.703358 0
M  V30 145 H 13.8798 0.404187 1.91276 0
M  V30 146 H 12.5838 0.17333 4.10034 0
M  V30 147 H 12.1148 -1.4729 3.64786 0
M  V30 148 H 14.1298 -2.59253 4.23087 0
M  V30 149 N 13.3029 -1.57598 0.00835791 0
M  V30 150 C 14.5309 -1.95214 -0.68549 0
M  V30 151 C 14.9459 -0.883706 -1.66841 0
M  V30 152 O 14.3029 0.136565 -1.81988 0
M  V30 153 C 14.3539 -3.32865 -1.41007 0
M  V30 154 O 14.0749 -4.35609 -0.466552 0
M  V30 155 C 15.5759 -3.84991 -2.19765 0
M  V30 156 H 12.7959 -0.643422 -0.190392 0
M  V30 157 H 15.3399 -2.04406 0.0619607 0
M  V30 158 H 13.4949 -3.24956 -2.10908 0
M  V30 159 H 13.9089 -5.15288 -0.978699 0
M  V30 160 H 15.3829 -4.8371 -2.65948 0
M  V30 161 H 15.8599 -3.18137 -3.02796 0
M  V30 162 H 16.4659 -3.96103 -1.54864 0
M  V30 163 N 14.781 0.264519 -1.55364 0
M  V30 164 C 16.006 1.01726 -1.80739 0
M  V30 165 C 16.431 1.78836 -0.583044 0
M  V30 166 O 15.789 1.75167 0.467566 0
M  V30 167 C 15.837 1.94482 -3.03659 0
M  V30 168 O 14.941 3.03386 -2.7934 0
M  V30 169 H 14.282 0.290395 -0.597132 0
M  V30 170 H 16.812 0.290854 -2.02522 0
M  V30 171 H 16.822 2.36278 -3.32621 0
M  V30 172 H 15.497 1.37772 -3.92418 0
M  V30 173 H 14.074 2.65844 -2.61498 0
M  V30 174 N 16.2591 1.48442 0.529413 0
M  V30 175 C 17.2221 1.62524 1.61612 0
M  V30 176 C 18.2221 0.498509 1.52877 0
M  V30 177 O 19.4121 0.76431 1.56537 0
M  V30 178 C 16.5441 1.59597 3.01233 0
M  V30 179 H 17.7371 2.59423 1.50465 0
M  V30 180 H 15.2901 1.37047 0.751514 0
M  V30 181 H 16.0251 0.641781 3.17886 0
M  V30 182 H 15.8101 2.41397 3.08982 0
M  V30 183 H 17.3001 1.72646 3.80241 0
M  V30 184 N 17.7372 -0.778329 1.37039 0
M  V30 185 C 18.9652 -1.56734 1.35063 0
M  V30 186 C 19.3802 -1.88686 -0.0655597 0
M  V30 187 O 18.7372 -1.5096 -1.02554 0
M  V30 188 C 18.7882 -2.88163 2.18276 0
M  V30 189 O 18.5092 -2.57583 3.54376 0
M  V30 190 C 20.0102 -3.82422 2.24206 0
M  V30 191 H 17.2302 -0.485778 0.462883 0
M  V30 192 H 19.7742 -0.965185 1.8029 0
M  V30 193 H 17.9292 -3.44818 1.76576 0
M  V30 194 H 18.3432 -3.41699 3.97922 0
M  V30 195 H 19.8172 -4.71667 2.86765 0
M  V30 196 H 20.2942 -4.21078 1.24861 0
M  V30 197 H 20.9002 -3.31697 2.6619 0
M  V30 198 N 19.2153 -1.21501 -1.00376 0
M  V30 199 C 20.1783 -0.976927 -2.07337 0
M  V30 200 C 21.1783 0.0525322 -1.60714 0
M  V30 201 O 22.3683 -0.184869 -1.73216 0
M  V30 202 C 19.5003 -0.473423 -3.37597 0
M  V30 203 H 20.6933 -1.92587 -2.29892 0
M  V30 204 H 18.2463 -1.03217 -1.17371 0
M  V30 205 H 18.9813 0.480379 -3.20722 0
M  V30 206 H 18.7663 -1.216 -3.72768 0
M  V30 207 H 20.2563 -0.32675 -4.1632 0
M  V30 208 N 20.6934 1.19889 -1.02296 0
M  V30 209 C 21.6234 2.25141 -0.619174 0
M  V30 210 C 22.6044 1.66051 0.368915 0
M  V30 211 O 23.7894 1.92546 0.252941 0
M  V30 212 C 20.9194 3.4728 0.0368783 0
M  V30 213 C 19.8734 4.19005 -0.872865 0
M  V30 214 C 19.1994 5.34637 -0.0822402 0
M  V30 215 C 20.4994 4.74452 -2.18387 0
M  V30 216 H 22.1934 2.59171 -1.49903 0
M  V30 217 H 19.7394 1.24579 -0.722222 0
M  V30 218 H 21.6924 4.20098 0.330958 0
M  V30 219 H 20.4164 3.12433 0.95149 0
M  V30 220 H 19.0754 3.48061 -1.15105 0
M  V30 221 H 18.7234 4.96034 0.83422 0
M  V30 222 H 18.4234 5.83557 -0.688149 0
M  V30 223 H 19.9474 6.10255 0.205238 0
M  V30 224 H 21.3614 5.39055 -1.95172 0
M  V30 225 H 19.7584 5.33834 -2.74119 0
M  V30 226 H 20.8284 3.92844 -2.84257 0
M  V30 227 N 22.1715 0.800033 1.35784 0
M  V30 228 C 23.4175 0.377901 1.99248 0
M  V30 229 C 23.7505 -1.05052 1.63333 0
M  V30 230 O 23.0255 -1.72768 0.893385 0
M  V30 231 C 23.3085 0.553922 3.55814 0
M  V30 232 C 23.1615 2.0268 4.01548 0
M  V30 233 C 24.4805 -0.0244802 4.40093 0
M  V30 234 H 21.5995 0.138782 0.723815 0
M  V30 235 H 24.2415 1.00835 1.61035 0
M  V30 236 H 22.3915 0.0172398 3.88496 0
M  V30 237 H 24.0635 2.62536 3.79305 0
M  V30 238 H 22.3065 2.5256 3.52698 0
M  V30 239 H 22.9775 2.10087 5.10458 0
M  V30 240 H 25.4535 0.433775 4.13833 0
M  V30 241 H 24.3295 0.128637 5.48749 0
M  V30 242 H 24.5905 -1.11758 4.27741 0
M  V30 243 N 23.6496 -1.47581 0.552962 0
M  V30 244 C 24.8986 -2.01684 0.0251995 0
M  V30 245 C 25.2116 -1.43317 -1.33115 0
M  V30 246 O 26.4176 -1.89057 -1.94858 0
M  V30 247 C 24.8736 -3.599 -0.00542052 0
M  V30 248 C 24.4816 -4.27257 1.34742 0
M  V30 249 C 26.2256 -4.21768 -0.4808 0
M  V30 250 C 24.1326 -5.77467 1.27614 0
M  V30 251 H 23.0626 -0.753979 0.00565033 0
M  V30 252 H 25.7136 -1.69616 0.70018 0
M  V30 253 H 24.0956 -3.88911 -0.745961 0
M  V30 254 H 25.2696 -4.09893 2.10534 0
M  V30 255 H 23.5846 -3.77358 1.76039 0
M  V30 256 H 26.1816 -5.31838 -0.55246 0
M  V30 257 H 26.5246 -3.88651 -1.49184 0
M  V30 258 H 27.0576 -3.97273 0.204752 0
M  V30 259 H 23.7966 -6.15196 2.26304 0
M  V30 260 H 23.3166 -5.9718 0.55996 0
M  V30 261 H 24.9956 -6.3959 0.976421 0
M  V30 262 N 25.1277 -0.289203 -1.54924 0
M  V30 263 C 26.3757 0.322879 -1.99504 0
M  V30 264 C 26.6967 1.55313 -1.1791 0
M  V30 265 O 25.9667 1.94001 -0.272097 0
M  V30 266 H 24.5467 0.122291 -0.736922 0
M  V30 267 H 27.2087 -0.397802 -1.90797 0
M  V30 268 H 26.3047 0.603061 -3.06218 0
M  V30 269 N 26.6058 1.57591 -0.0167156 0
M  V30 270 C 27.8338 1.95575 0.675128 0
M  V30 271 C 28.2488 0.892542 1.6637 0
M  V30 272 O 27.6058 -0.126912 1.82058 0
M  V30 273 C 27.6568 3.33608 1.39239 0
M  V30 274 O 27.3778 4.3585 0.443444 0
M  V30 275 C 28.8788 3.86151 2.17721 0
M  V30 276 H 26.0988 0.644423 0.186978 0
M  V30 277 H 28.6428 2.0437 -0.0728 0
M  V30 278 H 26.7978 3.2607 2.09182 0
M  V30 279 H 27.2118 5.158 0.951358 0
M  V30 280 H 28.6858 4.85114 2.63379 0
M  V30 281 H 29.1628 3.19738 3.01105 0
M  V30 282 H 29.7688 3.96918 1.52761 0
M  V30 283 N 28.0839 -0.256276 1.55502 0
M  V30 284 C 29.3329 -0.983486 1.76098 0
M  V30 285 C 29.6459 -1.86837 0.578896 0
M  V30 286 O 30.8519 -2.63163 0.667648 0
M  V30 287 C 29.3079 -1.79868 3.1173 0
M  V30 288 C 28.9159 -0.961648 4.37557 0
M  V30 289 C 30.6599 -2.51919 3.41668 0
M  V30 290 C 28.5669 -1.77219 5.64223 0
M  V30 291 H 27.4969 -0.370936 0.656447 0
M  V30 292 H 30.1479 -0.238492 1.81944 0
M  V30 293 H 28.5299 -2.58527 2.99966 0
M  V30 294 H 29.7039 -0.218048 4.60284 0
M  V30 295 H 28.0189 -0.354913 4.14885 0
M  V30 296 H 30.6159 -3.12998 4.33516 0
M  V30 297 H 30.9589 -3.23059 2.62562 0
M  V30 298 H 31.4919 -1.80278 3.54605 0
M  V30 299 H 28.2309 -1.10471 6.46124 0
M  V30 300 H 27.7509 -2.49132 5.45613 0
M  V30 301 H 29.4299 -2.34169 6.03137 0
M  V30 302 N 29.562 -1.4872 -0.521534 0
M  V30 303 C 30.525 -1.63379 -1.60748 0
M  V30 304 C 31.525 -0.50661 -1.52611 0
M  V30 305 O 32.715 -0.772601 -1.5613 0
M  V30 306 C 29.847 -1.61192 -3.00383 0
M  V30 307 H 31.04 -2.60217 -1.49087 0
M  V30 308 H 28.593 -1.37444 -0.744235 0
M  V30 309 H 29.328 -0.65863 -3.17541 0
M  V30 310 H 29.113 -2.43032 -3.07698 0
M  V30 311 H 30.603 -1.7466 -3.7932 0
M  V30 312 N 31.0401 0.771051 -1.3745 0
M  V30 313 C 32.2861 1.5319 -1.32894 0
M  V30 314 C 32.6191 1.94008 0.0862511 0
M  V30 315 O 31.8941 1.64124 1.04373 0
M  V30 316 C 32.1771 2.79648 -2.26868 0
M  V30 317 C 32.0301 2.45079 -3.77169 0
M  V30 318 C 33.3491 3.81583 -2.19277 0
M  V30 319 H 30.4681 0.555744 -0.484064 0
M  V30 320 H 33.1101 0.884492 -1.68157 0
M  V30 321 H 31.2601 3.34891 -1.96926 0
M  V30 322 H 32.9321 1.95745 -4.1771 0
M  V30 323 H 31.1751 1.77767 -3.95704 0
M  V30 324 H 31.8461 3.35478 -4.38359 0
M  V30 325 H 34.3221 3.35835 -2.45671 0
M  V30 326 H 33.1981 4.67787 -2.87171 0
M  V30 327 H 33.4591 4.25897 -1.18592 0
M  V30 328 N 32.5182 1.22032 0.997298 0
M  V30 329 C 33.4482 1.01065 2.10495 0
M  V30 330 C 34.4292 -0.0669542 1.69968 0
M  V30 331 O 35.6142 0.0943987 1.9397 0
M  V30 332 C 32.7442 0.582874 3.42374 0
M  V30 333 C 31.6982 1.60592 3.96729 0
M  V30 334 C 31.0242 1.03412 5.24605 0
M  V30 335 C 32.3242 2.99478 4.27914 0
M  V30 336 H 34.0182 1.93708 2.28292 0
M  V30 337 H 31.5642 0.932761 1.09707 0
M  V30 338 H 33.5172 0.423332 4.19268 0
M  V30 339 H 32.2412 -0.379213 3.24391 0
M  V30 340 H 30.9002 1.75316 3.21963 0
M  V30 341 H 30.5482 0.063518 5.0296 0
M  V30 342 H 30.2482 1.71754 5.61938 0
M  V30 343 H 31.7722 0.886066 6.04137 0
M  V30 344 H 33.1862 2.88153 4.95622 0
M  V30 345 H 31.5832 3.64903 4.76409 0
M  V30 346 H 32.6532 3.49742 3.3587 0
M  V30 347 N 33.9963 -1.19345 1.0293 0
M  V30 348 C 35.2453 -1.88363 0.721256 0
M  V30 349 C 35.5583 -1.80514 -0.753254 0
M  V30 350 O 36.7643 -2.44788 -1.17436 0
M  V30 351 C 35.2203 -3.37872 1.23978 0
M  V30 352 C 34.8283 -3.54278 2.74211 0
M  V30 353 C 36.5723 -4.12365 1.00775 0
M  V30 354 C 34.4793 -4.97682 3.19479 0
M  V30 355 H 33.4093 -0.705484 0.266098 0
M  V30 356 H 36.0603 -1.34928 1.24365 0
M  V30 357 H 34.4423 -3.90707 0.6453 0
M  V30 358 H 35.6163 -3.11769 3.39318 0
M  V30 359 H 33.9313 -2.93174 2.95699 0
M  V30 360 H 36.5283 -5.18119 1.32123 0
M  V30 361 H 36.8713 -4.16263 -0.0554308 0
M  V30 362 H 37.4043 -3.65668 1.56625 0
M  V30 363 H 34.1433 -4.98945 4.25128 0
M  V30 364 H 33.6633 -5.4095 2.591 0
M  V30 365 H 35.3423 -5.66337 3.12845 0
M  V30 366 N 35.4744 -0.807222 -1.35358 0
M  V30 367 C 36.7224 -0.387122 -1.98358 0
M  V30 368 C 37.0434 1.04942 -1.64354 0
M  V30 369 O 36.3134 1.72615 -0.926339 0
M  V30 370 H 34.8934 -0.140154 -0.733734 0
M  V30 371 H 37.5554 -1.0332 -1.6526 0
M  V30 372 H 36.6514 -0.493352 -3.08176 0
M  V30 373 N 36.9525 1.47285 -0.560781 0
M  V30 374 C 38.2015 2.01668 -0.035895 0
M  V30 375 C 38.5145 1.44021 1.32353 0
M  V30 376 O 39.7205 1.90088 1.93853 0
M  V30 377 C 38.1765 3.59897 -0.0136659 0
M  V30 378 C 37.7845 4.26536 -1.37006 0
M  V30 379 C 39.5285 4.22017 0.458425 0
M  V30 380 C 37.4355 5.76782 -1.30675 0
M  V30 381 H 36.3655 0.753938 -0.00964879 0
M  V30 382 H 39.0165 1.69243 -0.709166 0
M  V30 383 H 37.3985 3.89301 0.725325 0
M  V30 384 H 38.5725 4.0877 -2.12705 0
M  V30 385 H 36.8875 3.76419 -1.78038 0
M  V30 386 H 39.4845 5.32124 0.524247 0
M  V30 387 H 39.8275 3.89437 1.4712 0
M  V30 388 H 40.3605 3.97159 -0.225818 0
M  V30 389 H 37.0995 6.13988 -2.29564 0
M  V30 390 H 36.6195 5.96875 -0.591622 0
M  V30 391 H 38.2985 6.39063 -1.01033 0
M  V30 392 N 38.4306 0.297415 1.54768 0
M  V30 393 C 39.6586 -0.315623 2.04478 0
M  V30 394 C 40.0736 -1.47792 1.17486 0
M  V30 395 O 39.4306 -1.81404 0.19971 0
M  V30 396 C 39.4816 -0.7753 3.53088 0
M  V30 397 O 39.2026 0.340732 4.36773 0
M  V30 398 C 40.7036 -1.45386 4.18781 0
M  V30 399 H 37.9236 -0.0690887 0.667434 0
M  V30 400 H 40.4676 0.436003 1.99798 0
M  V30 401 H 38.6226 -1.47696 3.58141 0
M  V30 402 H 39.0366 -0.0165035 5.24497 0
M  V30 403 H 40.5106 -1.72669 5.24299 0
M  V30 404 H 40.9876 -2.39275 3.68299 0
M  V30 405 H 41.5936 -0.795475 4.17795 0
M  V30 406 N 39.9087 -1.5758 0.0250728 0
M  V30 407 C 40.8567 -2.11125 -0.97617 0
M  V30 408 C 41.8507 -1.03689 -1.33959 0
M  V30 409 O 43.0567 -1.22128 -1.3223 0
M  V30 410 H 39.4317 -0.674468 -0.332561 0
M  V30 411 H 41.4027 -2.94194 -0.499223 0
M  V30 412 C 40.1517 -2.65017 -2.2508 0
M  V30 413 H 39.4747 -3.47333 -1.9799 0
M  V30 414 H 40.9147 -3.06133 -2.93357 0
M  V30 415 C 39.3737 -1.57574 -2.97779 0
M  V30 416 O 39.9037 -0.973203 -3.89733 0
M  V30 417 N 38.1097 -1.29716 -2.60043 0
M  V30 418 H 37.6567 -1.789 -1.85345 0
M  V30 419 H 37.6147 -0.58051 -3.08994 0
M  V30 420 N 41.3868 0.248026 -1.55636 0
M  V30 421 C 42.3168 1.31079 -1.93237 0
M  V30 422 C 43.2978 1.50264 -0.797174 0
M  V30 423 O 44.4828 1.62891 -1.05737 0
M  V30 424 C 41.6128 2.66575 -2.22609 0
M  V30 425 C 40.5668 2.62087 -3.3837 0
M  V30 426 C 39.8928 4.01369 -3.53281 0
M  V30 427 C 41.1928 2.19171 -4.7409 0
M  V30 428 H 42.8868 0.998556 -2.82257 0
M  V30 429 H 40.4328 0.47891 -1.35803 0
M  V30 430 H 42.3858 3.41057 -2.47503 0
M  V30 431 H 41.1098 2.99432 -1.30414 0
M  V30 432 H 39.7688 1.90063 -3.13483 0
M  V30 433 H 39.4168 4.31489 -2.58508 0
M  V30 434 H 39.1168 3.99254 -4.31127 0
M  V30 435 H 40.6408 4.77552 -3.80495 0
M  V30 436 H 42.0548 2.83384 -4.98363 0
M  V30 437 H 40.4518 2.2817 -5.5503 0
M  V30 438 H 41.5218 1.14336 -4.71227 0
M  V30 439 N 42.8649 1.48995 0.513639 0
M  V30 440 C 44.1129 1.57531 1.26604 0
M  V30 441 C 44.4339 0.258236 1.93283 0
M  V30 442 O 43.7039 -0.721502 1.8213 0
M  V30 443 H 42.2839 0.580387 0.470276 0
M  V30 444 H 44.9459 1.85552 0.596373 0
M  V30 445 H 44.0419 2.36486 2.03669 0
M  V30 446 N 44.343 -0.763751 1.37857 0
M  V30 447 C 45.273 -1.89103 1.36975 0
M  V30 448 C 46.254 -1.68439 0.237152 0
M  V30 449 O 47.439 -1.8918 0.438713 0
M  V30 450 C 44.569 -3.26496 1.18395 0
M  V30 451 C 43.523 -3.61741 2.28751 0
M  V30 452 C 42.849 -4.97762 1.95286 0
M  V30 453 C 44.149 -3.67665 3.70972 0
M  V30 454 H 45.843 -1.90099 2.31307 0
M  V30 455 H 43.389 -0.91319 1.11341 0
M  V30 456 H 45.342 -4.05003 1.16406 0
M  V30 457 H 44.066 -3.25955 0.205215 0
M  V30 458 H 42.725 -2.85547 2.29909 0
M  V30 459 H 42.373 -4.93769 0.959221 0
M  V30 460 H 42.073 -5.22313 2.69189 0
M  V30 461 H 43.597 -5.7866 1.94898 0
M  V30 462 H 45.011 -4.36307 3.719 0
M  V30 463 H 43.408 -4.03718 4.43995 0
M  V30 464 H 44.478 -2.68134 4.0402 0
M  V30 465 N 45.8211 -1.22559 -0.990812 0
M  V30 466 C 46.7691 -0.994798 -2.10253 0
M  V30 467 C 47.7631 0.0627798 -1.69284 0
M  V30 468 O 48.9691 -0.0898392 -1.79776 0
M  V30 469 H 45.3441 -0.304527 -0.687581 0
M  V30 470 H 47.3151 -1.93812 -2.26891 0
M  V30 471 C 46.0641 -0.591439 -3.42633 0
M  V30 472 H 45.3871 -1.3969 -3.74602 0
M  V30 473 H 46.8271 -0.469385 -4.21394 0
M  V30 474 C 45.2861 0.699232 -3.29564 0
M  V30 475 O 45.8161 1.75112 -3.61523 0
M  V30 476 N 44.0221 0.671182 -2.82743 0
M  V30 477 H 43.5691 -0.185136 -2.56934 0
M  V30 478 H 43.5271 1.53502 -2.7438 0
M  V30 479 N 47.2992 1.18797 -1.03562 0
M  V30 480 C 48.5482 1.87978 -0.731235 0
M  V30 481 C 48.8612 1.80911 0.743671 0
M  V30 482 O 50.0672 2.45407 1.16137 0
M  V30 483 C 48.5232 3.3721 -1.25768 0
M  V30 484 C 48.1312 3.52818 -2.76085 0
M  V30 485 C 49.8752 4.11825 -1.0296 0
M  V30 486 C 47.7822 4.9598 -3.22114 0
M  V30 487 H 46.7122 0.704063 -0.269835 0
M  V30 488 H 49.3632 1.34266 -1.25079 0
M  V30 489 H 47.7452 3.90359 -0.666011 0
M  V30 490 H 48.9192 3.09965 -3.40966 0
M  V30 491 H 47.2342 2.91602 -2.97249 0
M  V30 492 H 49.8312 5.17411 -1.34869 0
M  V30 493 H 50.1742 4.16287 0.0333546 0
M  V30 494 H 50.7072 3.64833 -1.58562 0
M  V30 495 H 47.4462 4.96684 -4.27768 0
M  V30 496 H 46.9662 5.39569 -2.61965 0
M  V30 497 H 48.6452 5.6467 -3.15844 0
M  V30 498 N 48.7773 0.814389 1.34928 0
M  V30 499 C 50.0253 0.397636 1.9815 0
M  V30 500 C 50.3463 -1.04069 1.64908 0
M  V30 501 O 49.6163 -1.72121 0.93548 0
M  V30 502 H 48.1963 0.144043 0.732981 0
M  V30 503 H 50.8583 1.04195 1.6471 0
M  V30 504 H 49.9543 0.509688 3.0791 0
M  V30 505 N 50.2554 -1.46986 0.568584 0
M  V30 506 C 51.1854 -2.32946 -0.160753 0
M  V30 507 C 52.1664 -1.44487 -0.897631 0
M  V30 508 O 53.3514 -1.73327 -0.875867 0
M  V30 509 C 50.4814 -3.26494 -1.18403 0
M  V30 510 C 49.4354 -4.24282 -0.562895 0
M  V30 511 C 48.7614 -5.07236 -1.69163 0
M  V30 512 C 50.0614 -5.19989 0.490761 0
M  V30 513 H 51.7554 -2.94175 0.556916 0
M  V30 514 H 49.3014 -1.4146 0.26927 0
M  V30 515 H 51.2544 -3.85477 -1.70251 0
M  V30 516 H 49.9784 -2.63343 -1.93179 0
M  V30 517 H 48.6374 -3.66541 -0.0656164 0
M  V30 518 H 48.2854 -4.4048 -2.42871 0
M  V30 519 H 47.9854 -5.7345 -1.28174 0
M  V30 520 H 49.5094 -5.6908 -2.21314 0
M  V30 521 H 50.9234 -5.73271 0.0579047 0
M  V30 522 H 49.3204 -5.94469 0.820165 0
M  V30 523 H 50.3904 -4.64777 1.3824 0
M  V30 524 N 51.7335 -0.305618 -1.54608 0
M  V30 525 C 52.6835 0.583595 -2.20405 0
M  V30 526 C 53.6675 1.09539 -1.17856 0
M  V30 527 O 54.8595 1.0354 -1.43557 0
M  V30 528 C 51.9885 1.75277 -2.95183 0
M  V30 529 C 51.0745 1.25672 -4.05052 0
M  V30 530 N 51.4655 0.478998 -5.03527 0
M  V30 531 C 49.7635 1.53704 -4.18678 0
M  V30 532 C 50.4645 0.214269 -5.81305 0
M  V30 533 N 49.4405 0.795374 -5.3775 0
M  V30 534 H 53.2425 -0.0180946 -2.93894 0
M  V30 535 H 50.7565 -0.110601 -1.62023 0
M  V30 536 H 52.7535 2.4014 -3.40791 0
M  V30 537 H 51.4135 2.35812 -2.23211 0
M  V30 538 H 52.4245 0.123473 -5.17753 0
M  V30 539 H 49.1015 2.14954 -3.57912 0
M  V30 540 H 50.4915 -0.410656 -6.70644 0
M  V30 541 N 53.2116 1.57565 -0.0334293 0
M  V30 542 C 54.1416 2.13511 0.945265 0
M  V30 543 C 55.1226 1.05231 1.33643 0
M  V30 544 O 56.3076 1.33084 1.41429 0
M  V30 545 C 53.4376 2.6657 2.22616 0
M  V30 546 C 52.3916 3.79676 1.97561 0
M  V30 547 C 51.7176 4.1918 3.31952 0
M  V30 548 C 53.0176 5.0557 1.31135 0
M  V30 549 H 54.7116 2.95538 0.479325 0
M  V30 550 H 52.2576 1.42166 0.229115 0
M  V30 551 H 54.2106 3.04344 2.91466 0
M  V30 552 H 52.9346 1.8171 2.71384 0
M  V30 553 H 51.5936 3.42347 1.31127 0
M  V30 554 H 51.2416 3.31296 3.78487 0
M  V30 555 H 50.9416 4.95402 3.15992 0
M  V30 556 H 52.4656 4.59541 4.02063 0
M  V30 557 H 53.8796 5.40903 1.89992 0
M  V30 558 H 52.2766 5.86818 1.25559 0
M  V30 559 H 53.3466 4.84062 0.284894 0
M  V30 560 N 54.6897 -0.239769 1.55765 0
M  V30 561 C 55.6367 -1.29696 1.90913 0
M  V30 562 C 56.6067 -1.47478 0.764164 0
M  V30 563 O 57.7917 -1.61345 1.01845 0
M  V30 564 C 54.9317 -2.64598 2.21544 0
M  V30 565 C 54.0447 -2.54765 3.48882 0
M  V30 566 C 53.1797 -3.82069 3.69049 0
M  V30 567 C 52.2187 -3.66883 4.89963 0
M  V30 568 N 51.3557 -4.86094 5.06614 0
M  V30 569 H 56.1957 -0.990224 2.81067 0
M  V30 570 H 53.7327 -0.477684 1.39128 0
M  V30 571 H 55.6907 -3.43132 2.3731 0
M  V30 572 H 54.3207 -2.93405 1.34585 0
M  V30 573 H 53.3727 -1.67763 3.41409 0
M  V30 574 H 54.6847 -2.39457 4.37563 0
M  V30 575 H 53.8387 -4.69046 3.84812 0
M  V30 576 H 52.5777 -4.00282 2.78614 0
M  V30 577 H 51.5827 -2.78289 4.74168 0
M  V30 578 H 52.8077 -3.50157 5.81865 0
M  V30 579 H 50.7537 -5.04655 4.19117 0
M  V30 580 H 50.6707 -4.73443 5.89396 0
M  V30 581 H 51.9387 -5.74549 5.26795 0
M  V30 582 N 56.1678 -1.49265 -0.50573 0
M  V30 583 C 57.5788 -1.51769 -1.08734 0
M  V30 584 C 57.9298 -0.301192 -1.93874 0
M  V30 585 O 57.0548 0.589456 -2.08217 0
M  V30 586 C 57.6498 -2.75017 -1.97867 0
M  V30 587 C 56.2088 -2.80314 -2.51199 0
M  V30 588 C 55.3558 -2.4562 -1.28709 0
M  V30 589 H 58.3068 -1.56031 -0.289855 0
M  V30 590 H 58.3278 -2.5491 -2.82491 0
M  V30 591 H 57.8398 -3.63539 -1.35873 0
M  V30 592 H 55.9408 -1.96061 -3.16845 0
M  V30 593 H 56.0538 -3.82366 -2.88675 0
M  V30 594 H 54.4178 -1.97297 -1.61078 0
M  V30 595 H 55.2008 -3.36411 -0.6843 0
M  V30 596 N 57.6459 0.756429 -1.3826 0
M  V30 597 C 58.8709 1.55077 -1.37717 0
M  V30 598 C 59.2959 1.88073 0.03164 0
M  V30 599 O 58.6539 1.50364 1.01293 0
M  V30 600 C 58.7019 2.8283 -2.23695 0
M  V30 601 O 57.8059 3.77862 -1.6521 0
M  V30 602 H 57.1469 0.469152 -0.469885 0
M  V30 603 H 59.6769 0.935019 -1.81985 0
M  V30 604 H 59.6869 3.31783 -2.37453 0
M  V30 605 H 58.3619 2.58144 -3.2609 0
M  V30 606 H 56.9389 3.36555 -1.60578 0
M  V30 607 N 59.124 1.23083 0.984299 0
M  V30 608 C 60.364 1.07226 1.74017 0
M  V30 609 C 60.728 -0.384766 1.88105 0
M  V30 610 O 61.929 -0.664411 2.60459 0
M  V30 611 C 60.2 1.77348 3.10294 0
M  V30 612 S 61.759 1.77014 4.01512 0
M  V30 613 H 58.577 0.383819 0.598502 0
M  V30 614 H 61.179 1.56158 1.17622 0
M  V30 615 H 59.883 2.82506 2.97689 0
M  V30 616 H 59.414 1.28682 3.71759 0
M  V30 617 H 61.429 0.825956 4.89277 0
M  V30 618 N 60.6021 -1.18246 1.0419 0
M  V30 619 C 61.5501 -2.23968 0.627792 0
M  V30 620 C 62.5441 -1.65828 -0.346019 0
M  V30 621 O 63.7501 -1.78733 -0.213175 0
M  V30 622 H 60.1251 -0.728939 0.184802 0
M  V30 623 H 62.0961 -2.56202 1.52981 0
M  V30 624 C 60.8451 -3.47699 0.00796591 0
M  V30 625 H 60.1681 -3.92734 0.748347 0
M  V30 626 H 61.6081 -4.23294 -0.24455 0
M  V30 627 C 60.0671 -3.13153 -1.24246 0
M  V30 628 O 60.5971 -3.27003 -2.33307 0
M  V30 629 N 58.8031 -2.67467 -1.13622 0
M  V30 630 H 58.3501 -2.56396 -0.248734 0
M  V30 631 H 58.3081 -2.44724 -1.97377 0
M  V30 632 N 62.0802 -0.821533 -1.34494 0
M  V30 633 C 63.3202 -0.414785 -2.00147 0
M  V30 634 C 63.6842 1.00299 -1.6372 0
M  V30 635 O 64.8852 1.51255 -2.22206 0
M  V30 636 C 63.1562 -0.609403 -3.52166 0
M  V30 637 S 64.7152 -0.295297 -4.37805 0
M  V30 638 H 61.5332 -0.15679 -0.693497 0
M  V30 639 H 64.1352 -1.06705 -1.63812 0
M  V30 640 H 62.8392 -1.64096 -3.76166 0
M  V30 641 H 62.3702 0.0576414 -3.93358 0
M  V30 642 H 64.3852 0.891531 -4.88125 0
M  V30 643 N 63.5583 1.46682 -0.576371 0
M  V30 644 C 64.7833 2.07304 -0.0630475 0
M  V30 645 C 65.2083 1.42329 1.2298 0
M  V30 646 O 64.5663 0.504865 1.74129 0
M  V30 647 C 64.6143 3.60472 0.095895 0
M  V30 648 O 63.7183 3.95927 1.15394 0
M  V30 649 H 63.0593 0.661288 -0.0599463 0
M  V30 650 H 65.5893 1.88417 -0.797511 0
M  V30 651 H 65.5993 4.06865 0.304071 0
M  V30 652 H 64.2743 4.07157 -0.84828 0
M  V30 653 H 62.8513 3.61252 0.924724 0
M  V30 654 N 65.0364 0.313813 1.54444 0
M  V30 655 C 65.9864 -0.571898 2.20711 0
M  V30 656 C 66.9704 -1.08913 1.18435 0
M  V30 657 O 68.1624 -1.02777 1.44104 0
M  V30 658 C 65.2914 -1.7371 2.96108 0
M  V30 659 C 64.3774 -1.23522 4.05713 0
M  V30 660 N 64.7684 -0.452288 5.03774 0
M  V30 661 C 63.0664 -1.51482 4.19487 0
M  V30 662 C 63.7674 -0.183438 5.81411 0
M  V30 663 N 62.7434 -0.766845 5.38164 0
M  V30 664 H 66.5454 0.0336802 2.93881 0
M  V30 665 H 64.0594 0.119192 1.61962 0
M  V30 666 H 66.0564 -2.38329 3.4206 0
M  V30 667 H 64.7164 -2.34625 2.24458 0
M  V30 668 H 65.7274 -0.0960131 5.17811 0
M  V30 669 H 62.4044 -2.13053 3.59047 0
M  V30 670 H 63.7944 0.446216 6.70417 0
M  V30 671 N 66.5145 -1.57545 0.0417849 0
M  V30 672 C 67.7395 -1.97035 -0.647455 0
M  V30 673 C 68.1645 -0.918775 -1.64135 0
M  V30 674 O 67.5225 0.119006 -1.80909 0
M  V30 675 C 67.5705 -3.35609 -1.31905 0
M  V30 676 O 66.6745 -3.3287 -2.43457 0
M  V30 677 H 66.0155 -0.64211 -0.169086 0
M  V30 678 H 68.5455 -2.04318 0.107399 0
M  V30 679 H 68.5555 -3.72126 -1.67291 0
M  V30 680 H 67.2305 -4.11685 -0.590586 0
M  V30 681 H 65.8075 -3.08087 -2.10088 0
M  V30 682 N 67.9926 0.231505 -1.5589 0
M  V30 683 C 68.9246 1.31006 -1.8807 0
M  V30 684 C 69.9376 1.43539 -0.768145 0
M  V30 685 O 71.1266 1.44614 -1.04638 0
M  V30 686 C 68.2266 2.68688 -2.06543 0
M  V30 687 C 67.3996 2.78228 -3.37502 0
M  V30 688 C 66.4586 3.96857 -3.4553 0
M  V30 689 O 65.4846 3.85662 -4.18633 0
M  V30 690 N 66.6866 5.1072 -2.75944 0
M  V30 691 H 69.4516 1.03731 -2.81176 0
M  V30 692 H 67.0126 0.421573 -1.56315 0
M  V30 693 H 69.0046 3.46412 -2.09239 0
M  V30 694 H 67.5746 2.88605 -1.20109 0
M  V30 695 H 66.7946 1.87059 -3.46991 0
M  V30 696 H 68.0826 2.81564 -4.23791 0
M  V30 697 H 67.4806 5.2271 -2.16311 0
M  V30 698 H 66.0376 5.86523 -2.84314 0
M  V30 699 N 69.4707 1.49531 0.497807 0
M  V30 700 C 70.8817 1.52344 1.07927 0
M  V30 701 C 71.2327 0.311469 1.93712 0
M  V30 702 O 70.3577 -0.578405 2.08527 0
M  V30 703 C 70.9527 2.76062 1.96405 0
M  V30 704 C 69.5117 2.81643 2.49709 0
M  V30 705 C 68.6587 2.46299 1.27404 0
M  V30 706 H 71.6097 1.56182 0.281576 0
M  V30 707 H 71.6307 2.56405 2.81135 0
M  V30 708 H 71.1427 3.64254 1.33943 0
M  V30 709 H 69.2437 1.97739 3.15801 0
M  V30 710 H 69.3567 3.83891 2.86643 0
M  V30 711 H 67.7207 1.98148 1.60029 0
M  V30 712 H 68.5037 3.36769 0.66645 0
M  V30 713 N 70.9488 -0.749086 1.3866 0
M  V30 714 C 71.8588 -1.89358 1.38494 0
M  V30 715 C 72.8748 -1.71708 0.281476 0
M  V30 716 O 74.0508 -1.94554 0.520643 0
M  V30 717 C 71.1158 -3.24782 1.21316 0
M  V30 718 C 70.1768 -3.54926 2.41508 0
M  V30 719 C 69.4098 -4.83888 2.2514 0
M  V30 720 O 69.6328 -5.56592 1.24746 0
M  V30 721 O 68.5668 -5.13612 3.13826 0
M  V30 722 H 72.3928 -1.92452 2.34938 0
M  V30 723 H 69.9778 -0.894981 1.19626 0
M  V30 724 H 71.8598 -4.05739 1.13814 0
M  V30 725 H 70.5348 -3.2249 0.279592 0
M  V30 726 H 69.4418 -2.74112 2.54585 0
M  V30 727 H 70.7748 -3.61983 3.3351 0
M  V30 728 N 72.4269 -1.23603 -0.977757 0
M  V30 729 C 73.3899 -1.02069 -2.05218 0
M  V30 730 C 74.3899 0.0184305 -1.60789 0
M  V30 731 O 75.5799 -0.221569 -1.72785 0
M  V30 732 C 72.7119 -0.544926 -3.36517 0
M  V30 733 H 73.9049 -1.9742 -2.25755 0
M  V30 734 H 71.4579 -1.05684 -1.15155 0
M  V30 735 H 72.1929 0.412241 -3.21669 0
M  V30 736 H 71.9779 -1.2948 -3.70105 0
M  V30 737 H 73.4679 -0.414985 -4.15533 0
M  V30 738 N 73.905 1.17692 -1.04816 0
M  V30 739 C 75.133 1.91786 -0.776254 0
M  V30 740 C 75.548 1.76604 0.667577 0
M  V30 741 O 74.905 1.10067 1.45573 0
M  V30 742 C 74.956 3.42967 -1.14263 0
M  V30 743 O 74.677 3.57678 -2.52978 0
M  V30 744 C 76.178 4.34144 -0.896311 0
M  V30 745 H 73.398 0.608624 -0.282519 0
M  V30 746 H 75.942 1.49268 -1.39783 0
M  V30 747 H 74.097 3.83245 -0.565874 0
M  V30 748 H 74.511 4.51319 -2.67229 0
M  V30 749 H 75.985 5.38744 -1.20244 0
M  V30 750 H 76.462 4.38876 0.168636 0
M  V30 751 H 77.068 3.99574 -1.45672 0
M  V30 752 N 75.3831 0.828654 1.34056 0
M  V30 753 C 76.3311 0.242973 2.31327 0
M  V30 754 C 77.3251 -0.61944 1.57668 0
M  V30 755 O 78.5311 -0.51014 1.7262 0
M  V30 756 H 74.9061 0.059834 0.749616 0
M  V30 757 H 76.8771 1.07809 2.78244 0
M  V30 758 C 75.6261 -0.575733 3.429 0
M  V30 759 H 74.9491 0.0785582 3.99723 0
M  V30 760 H 76.3891 -0.951547 4.13185 0
M  V30 761 C 74.8481 -1.75044 2.87856 0
M  V30 762 O 75.3781 -2.84882 2.83205 0
M  V30 763 N 73.5841 -1.56903 2.44602 0
M  V30 764 H 73.1311 -0.675547 2.48584 0
M  V30 765 H 73.0891 -2.35652 2.08124 0
M  V30 766 N 76.8612 -1.46375 0.584142 0
M  V30 767 C 77.8242 -2.28784 -0.138108 0
M  V30 768 C 78.8242 -1.38471 -0.817462 0
M  V30 769 O 80.0142 -1.60833 -0.669199 0
M  V30 770 C 77.1462 -3.18892 -1.20503 0
M  V30 771 H 78.3392 -2.94117 0.586127 0
M  V30 772 H 75.8922 -1.52509 0.342171 0
M  V30 773 H 76.6272 -2.58309 -1.96079 0
M  V30 774 H 76.4122 -3.85388 -0.722384 0
M  V30 775 H 77.9022 -3.80914 -1.71155 0
M  V30 776 N 78.3393 -0.321999 -1.54275 0
M  V30 777 C 79.5643 0.285791 -2.05422 0
M  V30 778 C 79.9893 1.45124 -1.19669 0
M  V30 779 O 79.3473 1.80132 -0.205441 0
M  V30 780 C 79.3953 0.69956 -3.53749 0
M  V30 781 O 78.4993 1.8021 -3.70942 0
M  V30 782 H 77.8403 0.0518962 -0.661969 0
M  V30 783 H 80.3703 -0.469954 -1.9913 0
M  V30 784 H 80.3803 0.982649 -3.9599 0
M  V30 785 H 79.0553 -0.152864 -4.15619 0
M  V30 786 H 77.6323 1.51794 -3.40607 0
M  V30 787 N 79.8174 1.5752 -0.0501392 0
M  V30 788 C 80.7494 2.08413 0.95376 0
M  V30 789 C 81.7624 1.01175 1.27544 0
M  V30 790 O 82.9514 1.28744 1.23641 0
M  V30 791 C 80.0514 2.51138 2.27559 0
M  V30 792 C 79.2244 3.817 2.13598 0
M  V30 793 C 78.2834 4.10749 3.28895 0
M  V30 794 O 77.3094 4.80685 3.04845 0
M  V30 795 N 78.5114 3.62579 4.5334 0
M  V30 796 H 81.2764 2.95165 0.519383 0
M  V30 797 H 78.8374 1.61327 0.136127 0
M  V30 798 H 80.8294 2.67648 3.03557 0
M  V30 799 H 79.3994 1.6964 2.62567 0
M  V30 800 H 78.6194 3.74782 1.22197 0
M  V30 801 H 79.9074 4.67201 2.01496 0
M  V30 802 H 79.3054 3.06039 4.75769 0
M  V30 803 H 77.8624 3.84329 5.26436 0
M  V30 804 N 81.2955 -0.223234 1.56011 0
M  V30 805 C 82.5235 -0.964812 1.83027 0
M  V30 806 C 82.9385 -1.78013 0.62904 0
M  V30 807 O 82.2955 -1.78008 -0.402414 0
M  V30 808 C 82.3465 -1.88373 3.08542 0
M  V30 809 O 82.0675 -1.10137 4.2403 0
M  V30 810 C 83.5685 -2.73934 3.48533 0
M  V30 811 H 80.7885 -0.282842 0.608475 0
M  V30 812 H 83.3325 -0.238971 2.03099 0
M  V30 813 H 81.4875 -2.56354 2.9045 0
M  V30 814 H 81.9015 -1.72501 4.95322 0
M  V30 815 H 83.3755 -3.34117 4.39397 0
M  V30 816 H 83.8525 -3.46244 2.70207 0
M  V30 817 H 84.4585 -2.11369 3.69057 0
M  V30 818 N 82.7736 -1.49793 -0.48987 0
M  V30 819 C 84.0226 -1.59085 -1.23995 0
M  V30 820 C 84.3356 -0.287907 -1.9347 0
M  V30 821 O 85.5416 -0.259506 -2.70257 0
M  V30 822 C 83.9976 -2.80736 -2.252 0
M  V30 823 C 83.6056 -4.17833 -1.61614 0
M  V30 824 C 85.3496 -2.99364 -3.00967 0
M  V30 825 C 83.2566 -5.30693 -2.60996 0
M  V30 826 H 82.1866 -0.592372 -0.466488 0
M  V30 827 H 84.8376 -1.76197 -0.51252 0
M  V30 828 H 83.2196 -2.57142 -3.01154 0
M  V30 829 H 84.3936 -4.51608 -0.915774 0
M  V30 830 H 82.7086 -4.04656 -0.981977 0
M  V30 831 H 85.3056 -3.80851 -3.75308 0
M  V30 832 H 85.6486 -2.10356 -3.59244 0
M  V30 833 H 86.1816 -3.2305 -2.32128 0
M  V30 834 H 82.9206 -6.21796 -2.07485 0
M  V30 835 H 82.4406 -5.01359 -3.2924 0
M  V30 836 H 84.1196 -5.6049 -3.23202 0
M  V30 837 N 84.2517 0.741722 -1.39055 0
M  V30 838 C 85.5007 1.49656 -1.35225 0
M  V30 839 C 85.8137 1.95533 0.0512708 0
M  V30 840 O 87.0197 2.7067 0.212138 0
M  V30 841 C 85.4757 2.70389 -2.37525 0
M  V30 842 C 85.0837 2.31489 -3.83558 0
M  V30 843 C 86.8277 3.48236 -2.42759 0
M  V30 844 C 84.7347 3.48903 -4.77515 0
M  V30 845 H 83.6647 0.56197 -0.502699 0
M  V30 846 H 86.3157 0.809727 -1.64668 0
M  V30 847 H 84.6977 3.41113 -2.01142 0
M  V30 848 H 85.8717 1.68354 -4.28945 0
M  V30 849 H 84.1867 1.66749 -3.81554 0
M  V30 850 H 86.7837 4.35558 -3.1015 0
M  V30 851 H 87.1267 3.90229 -1.45008 0
M  V30 852 H 87.6597 2.84535 -2.78002 0
M  V30 853 H 84.3987 3.11966 -5.76504 0
M  V30 854 H 83.9187 4.11041 -4.36813 0
M  V30 855 H 85.5977 4.15328 -4.96096 0
M  V30 856 N 85.7298 1.2412 0.971189 0
M  V30 857 C 86.6778 1.02812 2.08644 0
M  V30 858 C 87.6718 -0.0358403 1.69362 0
M  V30 859 O 88.8778 0.118429 1.7961 0
M  V30 860 H 85.2528 0.315428 0.682649 0
M  V30 861 H 87.2238 1.97397 2.23779 0
M  V30 862 C 85.9728 0.645874 3.41649 0
M  V30 863 H 85.2958 1.45632 3.72332 0
M  V30 864 H 86.7358 0.536366 4.20594 0
M  V30 865 C 85.1948 -0.646713 3.30635 0
M  V30 866 O 85.7248 -1.69338 3.64263 0
M  V30 867 N 83.9308 -0.626115 2.83775 0
M  V30 868 H 83.4778 0.225988 2.56607 0
M  V30 869 H 83.4358 -1.49117 2.76788 0
M  V30 870 N 87.2079 -1.17134 1.05439 0
M  V30 871 C 88.1559 -2.23289 0.651511 0
M  V30 872 C 89.1499 -1.66186 -0.328411 0
M  V30 873 O 90.3559 -1.78949 -0.194206 0
M  V30 874 H 86.7309 -0.726938 0.192523 0
M  V30 875 H 88.7019 -2.54565 1.55689 0
M  V30 876 C 87.4509 -3.47671 0.0448436 0
M  V30 877 H 86.7739 -3.91918 0.78996 0
M  V30 878 H 88.2139 -4.2353 -0.19964 0
M  V30 879 C 86.6729 -3.14453 -1.20918 0
M  V30 880 O 87.2029 -3.29459 -2.29825 0
M  V30 881 N 85.4089 -2.68657 -1.10779 0
M  V30 882 H 84.9559 -2.56646 -0.221526 0
M  V30 883 H 84.9139 -2.46804 -1.9477 0
M  V30 884 N 88.686 -0.835752 -1.33615 0
M  V30 885 C 89.916 -0.442701 -2.01801 0
M  V30 886 C 90.324 0.959807 -1.63047 0
M  V30 887 O 89.667 1.63468 -0.838088 0
M  V30 888 C 89.729 -0.480125 -3.56279 0
M  V30 889 C 89.393 -1.8382 -4.18401 0
M  V30 890 C 90.39 -2.80097 -4.37998 0
M  V30 891 C 88.075 -2.13019 -4.54894 0
M  V30 892 C 90.069 -4.03736 -4.9323 0
M  V30 893 C 87.756 -3.36916 -5.09834 0
M  V30 894 C 88.754 -4.32091 -5.28948 0
M  V30 895 O 88.442 -5.53797 -5.82721 0
M  V30 896 H 88.174 -0.17441 -0.653114 0
M  V30 897 H 90.728 -1.129 -1.71589 0
M  V30 898 H 88.958 0.262931 -3.85805 0
M  V30 899 H 90.647 -0.105335 -4.05763 0
M  V30 900 H 91.413 -2.58838 -4.10156 0
M  V30 901 H 87.292 -1.39733 -4.39313 0
M  V30 902 H 90.836 -4.78034 -5.08064 0
M  V30 903 H 86.733 -3.58033 -5.37106 0
M  V30 904 H 87.501 -5.55494 -6.0114 0
M  V30 905 N 90.1641 1.46063 -0.591896 0
M  V30 906 C 91.3941 2.06418 -0.0867676 0
M  V30 907 C 91.8021 1.43975 1.22751 0
M  V30 908 O 91.1451 0.542531 1.75506 0
M  V30 909 C 91.2071 3.59213 0.143725 0
M  V30 910 C 90.8711 4.439 -1.08635 0
M  V30 911 C 91.8681 4.79864 -2.00067 0
M  V30 912 C 89.5531 4.84896 -1.31077 0
M  V30 913 C 91.5471 5.55661 -3.12282 0
M  V30 914 C 89.2341 5.6045 -2.43596 0
M  V30 915 C 90.2321 5.95747 -3.34027 0
M  V30 916 O 89.9201 6.69772 -4.4459 0
M  V30 917 H 89.6521 0.673443 -0.0587447 0
M  V30 918 H 92.2061 1.88539 -0.814994 0
M  V30 919 H 90.4361 3.75433 0.926668 0
M  V30 920 H 92.1251 4.01463 0.5985 0
M  V30 921 H 92.8911 4.48763 -1.83947 0
M  V30 922 H 88.7701 4.56867 -0.61594 0
M  V30 923 H 92.3141 5.8313 -3.82891 0
M  V30 924 H 88.2111 5.90965 -2.59674 0
M  V30 925 H 88.9791 6.88207 -4.43073 0
M  V30 926 N 91.6422 0.330177 1.54103 0
M  V30 927 C 92.5902 -0.548226 2.26047 0
M  V30 928 C 93.5842 -1.11309 1.27698 0
M  V30 929 O 94.7902 -1.06036 1.45452 0
M  V30 930 H 91.1652 -0.195456 0.726155 0
M  V30 931 H 93.1362 0.0807567 2.98291 0
M  V30 932 C 91.8852 -1.69415 3.03634 0
M  V30 933 H 91.2082 -1.26876 3.79134 0
M  V30 934 H 92.6482 -2.28423 3.5721 0
M  V30 935 C 91.1072 -2.61569 2.12328 0
M  V30 936 O 91.6372 -3.63462 1.7105 0
M  V30 937 N 89.8432 -2.29952 1.77681 0
M  V30 938 H 89.3902 -1.47134 2.11446 0
M  V30 939 H 89.3482 -2.91871 1.16869 0
M  V30 940 N 93.1203 -1.57491 0.0584922 0
M  V30 941 C 94.3973 -1.84346 -0.653918 0
M  V30 942 C 94.7773 -0.948355 -1.88599 0
M  V30 943 O 94.1253 -0.0112403 -2.28497 0
M  V30 944 C 94.3353 -3.34239 -1.00425 0
M  V30 945 C 95.6833 -4.01431 -1.38342 0
M  V30 946 O 96.7073 -3.38907 -1.09637 0
M  V30 947 O 95.5663 -5.11683 -1.91943 0
M  V30 948 H 92.6603 -0.761112 -0.323478 0
M  V30 949 H 95.2063 -1.6947 0.0884125 0
M  V30 950 H 93.9783 -3.91089 -0.128625 0
M  V30 951 H 93.6013 -3.54329 -1.80378 0
M  V30 952 N 94.5984 0.214957 -1.56127 0
M  V30 953 C 95.8264 0.955092 -1.83536 0
M  V30 954 C 96.2414 1.77677 -0.638472 0
M  V30 955 O 95.5984 1.78219 0.392968 0
M  V30 956 C 95.6494 1.86734 -3.09536 0
M  V30 957 O 95.3704 1.07887 -4.24608 0
M  V30 958 C 96.8714 2.72082 -3.4998 0
M  V30 959 H 94.0914 0.279611 -0.609966 0
M  V30 960 H 96.6354 0.228197 -2.03223 0
M  V30 961 H 94.7904 2.5481 -2.91806 0
M  V30 962 H 95.2044 1.69872 -4.9623 0
M  V30 963 H 96.6784 3.31782 -4.41163 0
M  V30 964 H 97.1554 3.44806 -2.7204 0
M  V30 965 H 97.7614 2.09409 -3.70173 0
M  V30 966 N 96.0765 1.50051 0.48192 0
M  V30 967 C 97.0245 1.68635 1.60203 0
M  V30 968 C 98.0185 0.552184 1.60148 0
M  V30 969 O 99.2245 0.732377 1.64427 0
M  V30 970 H 95.5995 0.532081 0.531407 0
M  V30 971 H 97.5705 2.62616 1.41688 0
M  V30 972 C 96.3195 1.78775 2.9822 0
M  V30 973 H 95.6425 2.6543 2.98976 0
M  V30 974 H 97.0825 1.95806 3.7608 0
M  V30 975 C 95.5415 0.536849 3.32595 0
M  V30 976 O 96.0715 -0.328897 4.00351 0
M  V30 977 N 94.2775 0.394091 2.87915 0
M  V30 978 H 93.8245 1.09962 2.32951 0
M  V30 979 H 93.7825 -0.441737 3.11281 0
M  V30 980 N 97.5546 -0.734337 1.39446 0
M  V30 981 C 98.8036 -1.48937 1.36017 0
M  V30 982 C 99.1166 -1.95557 -0.0409005 0
M  V30 983 O 100.323 -2.70779 -0.19778 0
M  V30 984 C 98.7786 -2.69125 2.38955 0
M  V30 985 C 98.3866 -2.29452 3.8478 0
M  V30 986 C 100.131 -3.46944 2.44603 0
M  V30 987 C 98.0376 -3.46366 4.79358 0
M  V30 988 H 96.9676 -0.559296 0.505672 0
M  V30 989 H 99.6186 -0.800983 1.65095 0
M  V30 990 H 98.0006 -3.40041 2.02948 0
M  V30 991 H 99.1746 -1.66077 4.29831 0
M  V30 992 H 97.4896 -1.64723 3.82433 0
M  V30 993 H 100.087 -4.33907 3.12456 0
M  V30 994 H 100.43 -3.89454 1.47076 0
M  V30 995 H 100.963 -2.83056 2.79507 0
M  V30 996 H 97.7016 -3.08905 5.78151 0
M  V30 997 H 97.2216 -4.08719 4.38986 0
M  V30 998 H 98.9006 -4.12691 4.98292 0
M  V30 999 N 99.0327 -1.24633 -0.964593 0
M  V30 1000 C 100.261 -1.11501 -1.74285 0
M  V30 1001 C 100.676 0.332165 -1.85855 0
M  V30 1002 O 100.033 1.22903 -1.34911 0
M  V30 1003 C 100.084 -1.75258 -3.16175 0
M  V30 1004 O 99.8047 -3.14318 -3.05182 0
M  V30 1005 C 101.306 -1.67776 -4.10324 0
M  V30 1006 H 98.5257 -0.389407 -0.546446 0
M  V30 1007 H 101.07 -1.64801 -1.21083 0
M  V30 1008 H 99.2247 -1.25954 -3.66353 0
M  V30 1009 H 99.6387 -3.4551 -3.94618 0
M  V30 1010 H 101.113 -2.17064 -5.0753 0
M  V30 1011 H 101.59 -0.639584 -4.34518 0
M  V30 1012 H 102.196 -2.16522 -3.66058 0
M  V30 1013 N 100.511 1.16574 -1.06058 0
M  V30 1014 C 101.443 2.2045 -0.627239 0
M  V30 1015 C 102.456 1.59752 0.313534 0
M  V30 1016 O 103.645 1.78192 0.104896 0
M  V30 1017 C 100.745 3.3875 0.100974 0
M  V30 1018 C 99.9178 4.29008 -0.852687 0
M  V30 1019 C 98.9768 5.25944 -0.164152 0
M  V30 1020 O 98.0028 5.63535 -0.801047 0
M  V30 1021 N 99.2048 5.70075 1.09518 0
M  V30 1022 H 101.97 2.58249 -1.52077 0
M  V30 1023 H 99.5308 1.3156 -0.943594 0
M  V30 1024 H 101.523 4.00638 0.57194 0
M  V30 1025 H 100.093 2.99476 0.89628 0
M  V30 1026 H 99.3128 3.64419 -1.50308 0
M  V30 1027 H 100.601 4.86195 -1.49972 0
M  V30 1028 H 99.9988 5.41624 1.6328 0
M  V30 1029 H 98.5558 6.34067 1.51006 0
M  V30 1030 N 101.989 0.842826 1.3317 0
M  V30 1031 C 103.238 0.436738 1.96915 0
M  V30 1032 C 103.551 -1.01025 1.67491 0
M  V30 1033 O 104.757 -1.5212 2.24881 0
M  V30 1034 C 103.213 0.730021 3.52418 0
M  V30 1035 C 102.821 2.19195 3.90714 0
M  V30 1036 C 104.565 0.391076 4.22695 0
M  V30 1037 C 102.472 2.42907 5.39212 0
M  V30 1038 H 101.402 0.15958 0.736919 0
M  V30 1039 H 104.053 1.03196 1.51733 0
M  V30 1040 H 102.435 0.0643755 3.95948 0
M  V30 1041 H 103.609 2.8984 3.58231 0
M  V30 1042 H 101.924 2.49425 3.33431 0
M  V30 1043 H 104.521 0.545817 5.31907 0
M  V30 1044 H 104.864 -0.666294 4.10933 0
M  V30 1045 H 105.397 1.01212 3.84709 0
M  V30 1046 H 102.136 3.47224 5.55982 0
M  V30 1047 H 101.656 1.76827 5.73142 0
M  V30 1048 H 103.335 2.2626 6.06148 0
M  V30 1049 N 103.467 -1.45747 0.599634 0
M  V30 1050 C 104.692 -2.07178 0.0960198 0
M  V30 1051 C 105.117 -1.44268 -1.207 0
M  V30 1052 O 104.475 -0.532503 -1.73303 0
M  V30 1053 C 104.523 -3.60579 -0.0385348 0
M  V30 1054 O 103.627 -3.97713 -1.0908 0
M  V30 1055 H 102.968 -0.660251 0.0704593 0
M  V30 1056 H 105.498 -1.87124 0.827385 0
M  V30 1057 H 105.508 -4.07298 -0.239304 0
M  V30 1058 H 104.183 -4.05756 0.912947 0
M  V30 1059 H 102.76 -3.62678 -0.867135 0
M  V30 1060 N 104.945 -0.338344 -1.53925 0
M  V30 1061 C 105.893 0.536231 -2.26335 0
M  V30 1062 C 106.887 1.1063 -1.28286 0
M  V30 1063 O 108.093 1.05264 -1.46012 0
M  V30 1064 H 104.468 0.191602 -0.727181 0
M  V30 1065 H 106.439 -0.0965747 -2.98244 0
M  V30 1066 C 105.188 1.67803 -3.04528 0
M  V30 1067 H 104.511 1.24864 -3.79801 0
M  V30 1068 H 105.951 2.26526 -3.58416 0
M  V30 1069 C 104.41 2.60439 -2.13712 0
M  V30 1070 O 104.94 3.6255 -1.72975 0
M  V30 1071 N 103.146 2.29006 -1.78898 0
M  V30 1072 H 102.693 1.46011 -2.12223 0
M  V30 1073 H 102.651 2.91248 -1.18416 0
M  V30 1074 N 106.423 1.57458 -0.0668435 0
M  V30 1075 C 107.651 1.97624 0.612565 0
M  V30 1076 C 108.066 0.94502 1.63447 0
M  V30 1077 O 107.423 -0.0689276 1.8237 0
M  V30 1078 C 107.474 3.37869 1.28555 0
M  V30 1079 O 107.195 4.3704 0.304557 0
M  V30 1080 C 108.696 3.92882 2.05325 0
M  V30 1081 H 105.916 0.650045 0.166381 0
M  V30 1082 H 108.46 2.04035 -0.137782 0
M  V30 1083 H 106.615 3.3256 1.98702 0
M  V30 1084 H 107.029 5.18565 0.786779 0
M  V30 1085 H 108.503 4.93247 2.47812 0
M  V30 1086 H 108.98 3.29156 2.9078 0
M  V30 1087 H 109.586 4.01577 1.40056 0
M  V30 1088 N 107.901 -0.206675 1.56239 0
M  V30 1089 C 108.849 -1.27571 1.94495 0
M  V30 1090 C 109.843 -1.47737 0.828862 0
M  V30 1091 O 111.049 -1.48735 1.0138 0
M  V30 1092 H 107.424 -0.428029 0.6183 0
M  V30 1093 H 109.395 -0.925961 2.8367 0
M  V30 1094 C 108.144 -2.61568 2.29079 0
M  V30 1095 H 107.467 -2.46863 3.14482 0
M  V30 1096 H 108.907 -3.35144 2.5972 0
M  V30 1097 C 107.366 -3.17695 1.12123 0
M  V30 1098 O 107.896 -3.99801 0.390153 0
M  V30 1099 N 106.102 -2.76276 0.901097 0
M  V30 1100 H 105.649 -2.09613 1.49733 0
M  V30 1101 H 105.607 -3.1417 0.120319 0
M  V30 1102 N 109.379 -1.50304 -0.473955 0
M  V30 1103 C 110.628 -1.60392 -1.22301 0
M  V30 1104 C 110.941 -0.308411 -1.93153 0
M  V30 1105 O 112.147 -0.288156 -2.69966 0
M  V30 1106 C 110.603 -2.83109 -2.2221 0
M  V30 1107 C 110.211 -4.19524 -1.57173 0
M  V30 1108 C 111.955 -3.0254 -2.97775 0
M  V30 1109 C 109.862 -5.33431 -2.55353 0
M  V30 1110 H 108.792 -0.597286 -0.460179 0
M  V30 1111 H 111.443 -1.76731 -0.493803 0
M  V30 1112 H 109.825 -2.60322 -2.9841 0
M  V30 1113 H 110.999 -4.52554 -0.867824 0
M  V30 1114 H 109.314 -4.05674 -0.939002 0
M  V30 1115 H 111.911 -3.84811 -3.71248 0
M  V30 1116 H 112.254 -2.14154 -3.56992 0
M  V30 1117 H 112.787 -3.25494 -2.28688 0
M  V30 1118 H 109.526 -6.23962 -2.00878 0
M  V30 1119 H 109.046 -5.04823 -3.23904 0
M  V30 1120 H 110.725 -5.63887 -3.17239 0
M  V30 1121 N 110.857 0.726932 -1.39834 0
M  V30 1122 C 111.789 1.85147 -1.35104 0
M  V30 1123 C 112.802 1.60736 -0.258392 0
M  V30 1124 O 113.991 1.70821 -0.517931 0
M  V30 1125 C 111.091 3.21332 -1.07697 0
M  V30 1126 C 110.264 3.73033 -2.28396 0
M  V30 1127 C 109.323 4.87802 -1.97322 0
M  V30 1128 O 108.349 5.01043 -2.70083 0
M  V30 1129 N 109.551 5.72768 -0.944273 0
M  V30 1130 H 112.316 1.89706 -2.32017 0
M  V30 1131 H 109.877 0.908006 -1.3404 0
M  V30 1132 H 111.869 3.95691 -0.849144 0
M  V30 1133 H 110.439 3.11992 -0.194909 0
M  V30 1134 H 109.659 2.89934 -2.6708 0
M  V30 1135 H 110.947 4.0431 -3.08887 0
M  V30 1136 H 110.345 5.64669 -0.341427 0
M  V30 1137 H 108.902 6.4716 -0.776346 0
M  V30 1138 N 112.336 1.25143 0.95797 0
M  V30 1139 C 113.582 1.09855 1.70469 0
M  V30 1140 C 113.915 -0.360187 1.90831 0
M  V30 1141 O 113.19 -1.26568 1.47685 0
M  V30 1142 C 113.473 1.8497 3.08963 0
M  V30 1143 C 113.326 3.38652 2.96032 0
M  V30 1144 C 114.645 1.63016 4.08795 0
M  V30 1145 H 111.764 0.400465 0.618706 0
M  V30 1146 H 114.406 1.53933 1.11376 0
M  V30 1147 H 112.556 1.47505 3.59409 0
M  V30 1148 H 114.228 3.85772 2.52938 0
M  V30 1149 H 112.471 3.66534 2.32025 0
M  V30 1150 H 113.142 3.8642 3.94187 0
M  V30 1151 H 115.618 1.95625 3.67247 0
M  V30 1152 H 114.494 2.18015 5.03747 0
M  V30 1153 H 114.755 0.570692 4.38401 0
M  V30 1154 N 113.814 -1.1601 1.06675 0
M  V30 1155 C 114.724 -2.24156 0.692179 0
M  V30 1156 C 115.74 -1.71507 -0.293513 0
M  V30 1157 O 116.916 -2.009 -0.141861 0
M  V30 1158 C 113.981 -3.46587 0.0884131 0
M  V30 1159 C 113.042 -4.14257 1.12646 0
M  V30 1160 C 112.275 -5.30844 0.551416 0
M  V30 1161 O 112.498 -5.66858 -0.634656 0
M  V30 1162 O 111.432 -5.87848 1.29298 0
M  V30 1163 H 115.258 -2.58513 1.59388 0
M  V30 1164 H 112.843 -1.23599 0.83926 0
M  V30 1165 H 114.725 -4.20679 -0.246361 0
M  V30 1166 H 113.4 -3.13994 -0.786712 0
M  V30 1167 H 112.307 -3.42118 1.51348 0
M  V30 1168 H 113.64 -4.50914 1.97325 0
M  V30 1169 N 115.292 -0.849877 -1.32721 0
M  V30 1170 C 116.202 -0.293791 -2.32753 0
M  V30 1171 C 117.218 0.585906 -1.63839 0
M  V30 1172 O 118.394 0.487413 -1.95413 0
M  V30 1173 C 115.459 0.512752 -3.42887 0
M  V30 1174 C 114.52 -0.39252 -4.27502 0
M  V30 1175 C 113.753 0.375625 -5.32377 0
M  V30 1176 O 113.976 1.60613 -5.4732 0
M  V30 1177 O 112.91 -0.256094 -6.01355 0
M  V30 1178 H 116.736 -1.12242 -2.82197 0
M  V30 1179 H 114.321 -0.612685 -1.36259 0
M  V30 1180 H 116.203 0.970704 -4.10067 0
M  V30 1181 H 114.878 1.31826 -2.95641 0
M  V30 1182 H 113.785 -0.898547 -3.63149 0
M  V30 1183 H 115.118 -1.16309 -4.7826 0
M  V30 1184 N 116.77 1.45427 -0.607355 0
M  V30 1185 C 118.186 1.57283 -0.270985 0
M  V30 1186 C 118.386 1.59875 1.22647 0
M  V30 1187 O 117.442 1.52893 2.00948 0
M  V30 1188 C 118.755 2.85566 -0.941952 0
M  V30 1189 C 120.303 2.9924 -0.917849 0
M  V30 1190 C 120.778 4.30293 -1.56882 0
M  V30 1191 N 122.269 4.37051 -1.5343 0
M  V30 1192 C 123.004 5.37123 -2.00715 0
M  V30 1193 N 122.5 6.43734 -2.56084 0
M  V30 1194 N 124.293 5.28479 -1.91484 0
M  V30 1195 H 116.444 1.41988 -1.57966 0
M  V30 1196 H 118.707 0.67885 -0.661715 0
M  V30 1197 H 118.413 2.8955 -1.99633 0
M  V30 1198 H 118.287 3.74322 -0.465096 0
M  V30 1199 H 120.674 2.94822 0.127984 0
M  V30 1200 H 120.755 2.11895 -1.43297 0
M  V30 1201 H 120.399 4.35469 -2.61398 0
M  V30 1202 H 120.329 5.16454 -1.02873 0
M  V30 1203 H 122.82 3.60615 -1.12982 0
M  V30 1204 H 123.133 7.16341 -2.89958 0
M  V30 1205 H 121.478 6.44485 -2.60122 0
M  V30 1206 H 124.669 4.44098 -1.47967 0
M  V30 1207 H 124.842 6.0632 -2.28648 0
M  V30 1208 N 118.248 0.346503 1.53744 0
M  V30 1209 C 119.211 -0.496439 2.23759 0
M  V30 1210 C 120.211 -1.0252 1.2388 0
M  V30 1211 O 121.401 -0.913974 1.48297 0
M  V30 1212 C 118.533 -1.69187 2.95954 0
M  V30 1213 H 119.726 0.115952 2.99676 0
M  V30 1214 H 117.279 0.0978939 1.55993 0
M  V30 1215 H 118.014 -2.34288 2.24231 0
M  V30 1216 H 117.799 -1.31989 3.69217 0
M  V30 1217 H 119.289 -2.28969 3.49232 0
M  V30 1218 N 119.726 -1.57421 0.075193 0
M  V30 1219 C 120.975 -1.92794 -0.592731 0
M  V30 1220 C 121.288 -0.957478 -1.70563 0
M  V30 1221 O 122.494 -1.20417 -2.43335 0
M  V30 1222 C 120.95 -3.42495 -1.10569 0
M  V30 1223 C 120.558 -4.47994 -0.0236121 0
M  V30 1224 C 122.302 -3.86864 -1.74748 0
M  V30 1225 C 120.209 -5.88829 -0.550803 0
M  V30 1226 H 119.139 -0.719591 -0.225177 0
M  V30 1227 H 121.79 -1.82902 0.147978 0
M  V30 1228 H 120.172 -3.47471 -1.89947 0
M  V30 1229 H 121.346 -4.54637 0.751099 0
M  V30 1230 H 119.661 -4.13113 0.522159 0
M  V30 1231 H 122.258 -4.8947 -2.15229 0
M  V30 1232 H 122.601 -3.24417 -2.60882 0
M  V30 1233 H 123.134 -3.84504 -1.01986 0
M  V30 1234 H 119.873 -6.54929 0.273457 0
M  V30 1235 H 119.393 -5.85698 -1.29296 0
M  V30 1236 H 121.072 -6.38811 -1.02613 0
M  V30 1237 N 121.204 0.198386 -1.56346 0
M  V30 1238 C 122.62 0.549085 -1.49857 0
M  V30 1239 C 122.82 1.86016 -0.774611 0
M  V30 1240 O 121.876 2.50416 -0.323776 0
M  V30 1241 C 123.189 0.606868 -2.94512 0
M  V30 1242 C 124.737 0.695925 -3.05165 0
M  V30 1243 C 125.212 0.784848 -4.51225 0
M  V30 1244 N 126.703 0.848463 -4.55363 0
M  V30 1245 C 127.438 0.937378 -5.65686 0
M  V30 1246 N 126.934 0.9888 -6.85707 0
M  V30 1247 N 128.727 0.974312 -5.53592 0
M  V30 1248 H 120.878 -0.661655 -2.01831 0
M  V30 1249 H 123.141 -0.235261 -0.918344 0
M  V30 1250 H 122.847 -0.28732 -3.50524 0
M  V30 1251 H 122.721 1.46268 -3.47686 0
M  V30 1252 H 125.108 1.58055 -2.49204 0
M  V30 1253 H 125.189 -0.186022 -2.55123 0
M  V30 1254 H 124.833 -0.0954072 -5.0781 0
M  V30 1255 H 124.763 1.68255 -4.98997 0
M  V30 1256 H 127.254 0.818103 -3.68938 0
M  V30 1257 H 127.567 1.05707 -7.65536 0
M  V30 1258 H 125.912 0.957534 -6.88372 0
M  V30 1259 H 129.103 0.930954 -4.58749 0
M  V30 1260 H 129.276 1.04015 -6.39597 0
M  V30 1261 N 122.682 1.50554 0.465978 0
M  V30 1262 C 123.959 1.5232 1.22712 0
M  V30 1263 C 124.339 0.270807 2.09356 0
M  V30 1264 O 123.687 -0.745541 2.15995 0
M  V30 1265 C 123.897 2.82175 2.05374 0
M  V30 1266 C 125.245 3.33033 2.6339 0
M  V30 1267 O 126.269 2.83531 2.15612 0
M  V30 1268 O 125.128 4.19336 3.50456 0
M  V30 1269 H 122.222 0.611183 0.557122 0
M  V30 1270 H 124.768 1.62847 0.477381 0
M  V30 1271 H 123.54 3.64797 1.41558 0
M  V30 1272 H 123.163 2.74675 2.87471 0
M  V30 1273 N 124.16 -0.719506 1.40217 0
M  V30 1274 C 125.407 -1.47933 1.38283 0
M  V30 1275 C 125.735 -1.94493 -0.0161536 0
M  V30 1276 O 124.99 -1.68224 -0.999956 0
M  V30 1277 C 125.289 -2.72271 2.31524 0
M  V30 1278 C 124.955 -2.44496 3.78857 0
M  V30 1279 C 123.617 -2.36631 4.18998 0
M  V30 1280 C 125.969 -2.21104 4.71977 0
M  V30 1281 C 123.297 -2.03437 5.503 0
M  V30 1282 C 125.649 -1.89423 6.03574 0
M  V30 1283 C 124.313 -1.80038 6.42762 0
M  V30 1284 H 123.583 -0.541325 0.506012 0
M  V30 1285 H 126.23 -0.824502 1.72842 0
M  V30 1286 H 124.535 -3.42572 1.90137 0
M  V30 1287 H 126.232 -3.30348 2.27313 0
M  V30 1288 H 122.822 -2.51503 3.47051 0
M  V30 1289 H 127.006 -2.26139 4.41786 0
M  V30 1290 H 122.262 -1.94705 5.79569 0
M  V30 1291 H 126.436 -1.70336 6.75247 0
M  V30 1292 H 124.063 -1.54083 7.44421 0
M  V30 1293 N 125.638 -1.25649 -0.95132 0
M  V30 1294 C 126.586 -1.06118 -2.06982 0
M  V30 1295 C 127.58 0.00889169 -1.69398 0
M  V30 1296 O 128.786 -0.146988 -1.79399 0
M  V30 1297 H 125.161 -0.326248 -0.677544 0
M  V30 1298 H 127.132 -2.00932 -2.2061 0
M  V30 1299 C 125.881 -0.700145 -3.40578 0
M  V30 1300 H 125.204 -1.51537 -3.69968 0
M  V30 1301 H 126.644 -0.603211 -4.19687 0
M  V30 1302 C 125.103 0.59403 -3.31622 0
M  V30 1303 O 125.633 1.63522 -3.66911 0
M  V30 1304 N 123.839 0.58089 -2.84735 0
M  V30 1305 H 123.386 -0.266783 -2.56215 0
M  V30 1306 H 123.344 1.44695 -2.79125 0
M  V30 1307 N 127.117 1.15442 -1.07289 0
M  V30 1308 C 128.065 2.22225 -0.686952 0
M  V30 1309 C 129.059 1.66688 0.30193 0
M  V30 1310 O 130.265 1.79236 0.165712 0
M  V30 1311 H 126.64 0.723783 -0.204064 0
M  V30 1312 H 128.611 2.52056 -1.5972 0
M  V30 1313 C 127.36 3.47556 -0.100149 0
M  V30 1314 H 126.683 3.90612 -0.852211 0
M  V30 1315 H 128.123 4.23794 0.132235 0
M  V30 1316 C 126.582 3.16337 1.159 0
M  V30 1317 O 127.112 3.33074 2.24555 0
M  V30 1318 N 125.318 2.70385 1.06491 0
M  V30 1319 H 124.865 2.56966 0.180668 0
M  V30 1320 H 124.823 2.49871 1.90819 0
M  V30 1321 N 128.595 0.856903 1.32268 0
M  V30 1322 C 129.525 0.31858 2.31316 0
M  V30 1323 C 130.506 -0.583487 1.59779 0
M  V30 1324 O 131.691 -0.503259 1.87566 0
M  V30 1325 C 128.821 -0.491979 3.43798 0
M  V30 1326 C 127.775 0.315849 4.26833 0
M  V30 1327 C 127.101 -0.619586 5.31098 0
M  V30 1328 C 128.401 1.54282 4.98993 0
M  V30 1329 H 130.095 1.14621 2.76591 0
M  V30 1330 H 127.641 0.552613 1.32974 0
M  V30 1331 H 129.594 -0.879012 4.1213 0
M  V30 1332 H 128.318 -1.35299 2.97257 0
M  V30 1333 H 126.977 0.684664 3.6015 0
M  V30 1334 H 126.625 -1.47751 4.8081 0
M  V30 1335 H 126.325 -0.0830621 5.87541 0
M  V30 1336 H 127.849 -1.00375 6.02293 0
M  V30 1337 H 129.263 1.22796 5.59995 0
M  V30 1338 H 127.66 2.01745 5.65172 0
M  V30 1339 H 128.73 2.30285 4.26728 0
M  V30 1340 N 130.073 -1.45103 0.615059 0
M  V30 1341 C 131.301 -2.06553 0.11977 0
M  V30 1342 C 131.716 -1.45842 -1.19898 0
M  V30 1343 O 131.073 -0.575325 -1.73194 0
M  V30 1344 C 131.124 -3.61495 -0.018364 0
M  V30 1345 O 130.845 -4.19942 1.24822 0
M  V30 1346 C 132.346 -4.39947 -0.544237 0
M  V30 1347 H 129.566 -0.667096 0.0722739 0
M  V30 1348 H 132.11 -1.8623 0.84491 0
M  V30 1349 H 130.265 -3.81135 -0.693865 0
M  V30 1350 H 130.679 -5.13204 1.0827 0
M  V30 1351 H 132.153 -5.48838 -0.589953 0
M  V30 1352 H 132.63 -4.10255 -1.56805 0
M  V30 1353 H 133.236 -4.25188 0.0974703 0
M  V30 1354 N 131.551 -0.354651 -1.53558 0
M  V30 1355 C 132.498 0.496968 -2.25386 0
M  V30 1356 C 133.468 1.0865 -1.25636 0
M  V30 1357 O 134.653 1.12104 -1.54394 0
M  V30 1358 C 131.793 1.63637 -3.03837 0
M  V30 1359 C 130.906 1.07307 -4.18461 0
M  V30 1360 C 130.041 2.18068 -4.84376 0
M  V30 1361 C 129.08 1.59147 -5.91049 0
M  V30 1362 N 128.217 2.63695 -6.50699 0
M  V30 1363 H 133.057 -0.122075 -2.9775 0
M  V30 1364 H 130.594 -0.0720154 -1.46924 0
M  V30 1365 H 132.552 2.30734 -3.47589 0
M  V30 1366 H 131.182 2.22623 -2.33749 0
M  V30 1367 H 130.234 0.292708 -3.79272 0
M  V30 1368 H 131.546 0.602193 -4.95152 0
M  V30 1369 H 130.7 2.93007 -5.31255 0
M  V30 1370 H 129.439 2.68504 -4.07133 0
M  V30 1371 H 128.444 0.827175 -5.43542 0
M  V30 1372 H 129.669 1.09549 -6.70206 0
M  V30 1373 H 127.615 3.13365 -5.76315 0
M  V30 1374 H 127.532 2.21263 -7.22896 0
M  V30 1375 H 128.8 3.3837 -7.02229 0
M  V30 1376 N 133.029 1.57378 -0.0835403 0
M  V30 1377 C 134.277 1.93547 0.581718 0
M  V30 1378 C 134.598 0.96524 1.69435 0
M  V30 1379 O 133.868 0.0153369 1.95894 0
M  V30 1380 H 132.448 0.714521 0.217874 0
M  V30 1381 H 135.11 1.94366 -0.144158 0
M  V30 1382 H 134.206 2.95665 0.999423 0
M  V30 1383 N 134.507 -0.190092 1.56449 0
M  V30 1384 C 135.437 -1.23816 1.97969 0
M  V30 1385 C 136.418 -1.47201 0.852395 0
M  V30 1386 O 137.603 -1.58854 1.1171 0
M  V30 1387 C 134.733 -2.5813 2.3235 0
M  V30 1388 C 133.687 -2.49348 3.47864 0
M  V30 1389 C 133.013 -3.8798 3.67934 0
M  V30 1390 C 134.313 -2.01424 4.81898 0
M  V30 1391 H 136.007 -0.89311 2.85769 0
M  V30 1392 H 133.553 -0.428177 1.37487 0
M  V30 1393 H 135.506 -3.31637 2.59991 0
M  V30 1394 H 134.23 -2.94386 1.41438 0
M  V30 1395 H 132.889 -1.78297 3.20321 0
M  V30 1396 H 132.537 -4.21597 2.74344 0
M  V30 1397 H 132.237 -3.82978 4.45648 0
M  V30 1398 H 133.761 -4.63101 3.97957 0
M  V30 1399 H 135.175 -2.64693 5.08538 0
M  V30 1400 H 133.572 -2.07413 5.63116 0
M  V30 1401 H 134.642 -0.967677 4.75146 0
M  V30 1402 N 135.985 -1.50799 -0.457987 0
M  V30 1403 C 137.225 -1.64088 -1.21879 0
M  V30 1404 C 137.589 -0.339848 -1.88968 0
M  V30 1405 O 138.79 -0.348301 -2.66534 0
M  V30 1406 C 137.061 -2.79726 -2.2246 0
M  V30 1407 S 138.62 -3.13225 -3.07303 0
M  V30 1408 H 135.438 -0.578314 -0.41361 0
M  V30 1409 H 138.04 -1.88632 -0.513645 0
M  V30 1410 H 136.744 -3.72722 -1.71775 0
M  V30 1411 H 136.275 -2.57308 -2.97584 0
M  V30 1412 H 138.29 -2.58062 -4.23814 0
M  V30 1413 N 137.463 0.71206 -1.40597 0
M  V30 1414 C 138.691 1.50111 -1.42388 0
M  V30 1415 C 139.106 1.88784 -0.0245395 0
M  V30 1416 O 138.463 1.55681 0.952351 0
M  V30 1417 C 138.514 2.7742 -2.31776 0
M  V30 1418 O 138.235 2.40382 -3.66262 0
M  V30 1419 C 139.736 3.7129 -2.42196 0
M  V30 1420 H 136.956 0.46314 -0.485533 0
M  V30 1421 H 139.5 0.878068 -1.8469 0
M  V30 1422 H 137.655 3.36001 -1.92827 0
M  V30 1423 H 138.069 3.22324 -4.13772 0
M  V30 1424 H 139.543 4.57448 -3.08943 0
M  V30 1425 H 140.02 4.14641 -1.44809 0
M  V30 1426 H 140.626 3.18619 -2.81712 0
M  V30 1427 N 138.941 1.26152 0.944643 0
M  V30 1428 C 140.19 1.10883 1.68487 0
M  V30 1429 C 140.503 -0.348153 1.92477 0
M  V30 1430 O 141.709 -0.621459 2.64292 0
M  V30 1431 C 140.165 1.93624 3.03377 0
M  V30 1432 C 139.773 3.43875 2.87148 0
M  V30 1433 C 141.517 1.86954 3.81115 0
M  V30 1434 C 139.424 4.18875 4.1749 0
M  V30 1435 H 138.354 0.41135 0.631907 0
M  V30 1436 H 141.005 1.50433 1.05082 0
M  V30 1437 H 139.387 1.46904 3.67743 0
M  V30 1438 H 140.561 3.98338 2.31653 0
M  V30 1439 H 138.876 3.51744 2.22856 0
M  V30 1440 H 141.473 2.40275 4.77673 0
M  V30 1441 H 141.816 0.839518 4.07747 0
M  V30 1442 H 142.349 2.31477 3.23517 0
M  V30 1443 H 139.088 5.22332 3.96043 0
M  V30 1444 H 138.608 3.69193 4.72712 0
M  V30 1445 H 140.287 4.27134 4.85968 0
M  V30 1446 N 140.419 -1.14872 1.07899 0
M  V30 1447 C 141.367 -2.21857 0.698727 0
M  V30 1448 C 142.361 -1.66845 -0.293086 0
M  V30 1449 O 143.567 -1.79321 -0.156204 0
M  V30 1450 H 139.942 -0.722691 0.207899 0
M  V30 1451 H 141.913 -2.51205 1.61054 0
M  V30 1452 C 140.662 -3.47498 0.11858 0
M  V30 1453 H 139.985 -3.90154 0.872914 0
M  V30 1454 H 141.425 -4.23858 -0.109759 0
M  V30 1455 C 139.884 -3.16947 -1.1422 0
M  V30 1456 O 140.414 -3.3426 -2.22785 0
M  V30 1457 N 138.62 -2.70946 -1.05055 0
M  V30 1458 H 138.167 -2.57058 -0.167038 0
M  V30 1459 H 138.125 -2.50879 -1.89491 0
M  V30 1460 N 141.898 -0.863906 -1.31812 0
M  V30 1461 C 143.123 -0.48527 -2.01643 0
M  V30 1462 C 143.548 0.913058 -1.64453 0
M  V30 1463 O 142.906 1.6014 -0.849985 0
M  V30 1464 C 142.954 -0.642625 -3.54828 0
M  V30 1465 O 142.058 0.320659 -4.11151 0
M  V30 1466 H 141.399 -0.193793 -0.635091 0
M  V30 1467 H 143.929 -1.16565 -1.68148 0
M  V30 1468 H 143.939 -0.533628 -4.04495 0
M  V30 1469 H 142.614 -1.66227 -3.81237 0
M  V30 1470 H 141.191 0.167126 -3.72525 0
M  V30 1471 N 143.376 1.44774 -0.622745 0
M  V30 1472 C 144.622 2.02968 -0.13257 0
M  V30 1473 C 144.977 1.48047 1.22881 0
M  V30 1474 O 144.27 0.651625 1.80179 0
M  V30 1475 C 144.464 3.57364 -0.0508323 0
M  V30 1476 C 144.293 4.27262 -1.40275 0
M  V30 1477 C 143.063 4.64577 -1.98737 0
M  V30 1478 C 145.261 4.58248 -2.3348 0
M  V30 1479 N 143.243 5.19404 -3.27251 0
M  V30 1480 C 144.614 5.14069 -3.46603 0
M  V30 1481 C 146.669 4.40195 -2.32664 0
M  V30 1482 C 145.372 5.53738 -4.59093 0
M  V30 1483 C 147.398 4.80907 -3.44213 0
M  V30 1484 C 146.76 5.36834 -4.56058 0
M  V30 1485 H 142.859 0.776541 -0.0922354 0
M  V30 1486 H 145.443 1.76385 -0.82441 0
M  V30 1487 H 143.614 3.83576 0.610265 0
M  V30 1488 H 145.346 4.02219 0.447397 0
M  V30 1489 H 142.101 4.48622 -1.51774 0
M  V30 1490 H 142.525 5.51301 -3.92933 0
M  V30 1491 H 147.167 3.96257 -1.47446 0
M  V30 1492 H 144.885 5.96635 -5.45025 0
M  V30 1493 H 148.471 4.68659 -3.44747 0
M  V30 1494 H 147.351 5.67755 -5.40947 0
M  V30 1495 N 144.854 0.36279 1.53368 0
M  V30 1496 C 145.804 -0.501391 2.22419 0
M  V30 1497 C 146.788 -1.0509 1.2184 0
M  V30 1498 O 147.98 -0.981404 1.47301 0
M  V30 1499 C 145.109 -1.64201 3.01484 0
M  V30 1500 C 144.195 -1.10552 4.09438 0
M  V30 1501 N 144.586 -0.291788 5.04958 0
M  V30 1502 C 142.884 -1.3806 4.24094 0
M  V30 1503 C 143.585 0.00162655 5.817 0
M  V30 1504 N 142.561 -0.595244 5.40331 0
M  V30 1505 H 146.363 0.127159 2.93625 0
M  V30 1506 H 143.877 0.170658 1.61501 0
M  V30 1507 H 145.874 -2.27326 3.49469 0
M  V30 1508 H 144.534 -2.27365 2.31809 0
M  V30 1509 H 145.545 0.0687731 5.17854 0
M  V30 1510 H 142.222 -2.01522 3.65644 0
M  V30 1511 H 143.612 0.659278 6.68658 0
M  V30 1512 N 146.332 -1.57332 0.0918853 0
M  V30 1513 C 147.581 -1.93412 -0.572249 0
M  V30 1514 C 147.894 -0.975515 -1.69538 0
M  V30 1515 O 149.1 -1.22991 -2.42045 0
M  V30 1516 C 147.556 -3.43648 -1.0693 0
M  V30 1517 C 147.164 -4.47994 0.0239049 0
M  V30 1518 C 148.908 -3.88695 -1.70635 0
M  V30 1519 C 146.815 -5.89381 -0.488319 0
M  V30 1520 H 145.745 -0.721939 -0.217532 0
M  V30 1521 H 148.396 -1.82735 0.167369 0
M  V30 1522 H 146.778 -3.49466 -1.8625 0
M  V30 1523 H 147.952 -4.53815 0.799277 0
M  V30 1524 H 146.267 -4.12536 0.565946 0
M  V30 1525 H 148.864 -4.91725 -2.10025 0
M  V30 1526 H 149.207 -3.27166 -2.57426 0
M  V30 1527 H 149.74 -3.85564 -0.979023 0
M  V30 1528 H 146.479 -6.54602 0.342906 0
M  V30 1529 H 145.999 -5.87037 -1.23077 0
M  V30 1530 H 147.678 -6.39863 -0.958317 0
M  V30 1531 N 147.81 0.181792 -1.56548 0
M  V30 1532 C 149.04 0.914618 -1.85252 0
M  V30 1533 C 149.448 1.76791 -0.673914 0
M  V30 1534 O 148.791 1.80009 0.366416 0
M  V30 1535 C 148.853 1.85019 -3.08234 0
M  V30 1536 C 148.517 1.17754 -4.41569 0
M  V30 1537 C 149.514 0.548035 -5.17003 0
M  V30 1538 C 147.199 1.17742 -4.88305 0
M  V30 1539 C 149.193 -0.0726128 -6.37359 0
M  V30 1540 C 146.88 0.552946 -6.08593 0
M  V30 1541 C 147.878 -0.070978 -6.82963 0
M  V30 1542 O 147.566 -0.685635 -8.00971 0
M  V30 1543 H 147.298 0.271695 -0.618998 0
M  V30 1544 H 149.852 0.189944 -2.0452 0
M  V30 1545 H 148.082 2.61491 -2.84885 0
M  V30 1546 H 149.771 2.45195 -3.23472 0
M  V30 1547 H 150.537 0.540174 -4.81982 0
M  V30 1548 H 146.416 1.65246 -4.30366 0
M  V30 1549 H 149.96 -0.560213 -6.95347 0
M  V30 1550 H 145.857 0.558354 -6.43081 0
M  V30 1551 H 146.625 -0.58385 -8.16415 0
M  V30 1552 N 149.288 1.51039 0.449983 0
M  V30 1553 C 150.536 1.62759 1.19808 0
M  V30 1554 C 150.857 0.339981 1.92013 0
M  V30 1555 O 150.127 -0.643606 1.85026 0
M  V30 1556 H 148.707 0.599811 0.445237 0
M  V30 1557 H 151.369 1.87914 0.517138 0
M  V30 1558 H 150.465 2.44911 1.93455 0
M  V30 1559 N 150.766 -0.704594 1.40972 0
M  V30 1560 C 151.713 -1.81862 1.42109 0
M  V30 1561 C 152.683 -1.63781 0.276593 0
M  V30 1562 O 153.868 -1.84759 0.4763 0
M  V30 1563 C 151.008 -3.19669 1.30022 0
M  V30 1564 C 150.121 -3.49246 2.54267 0
M  V30 1565 C 149.256 -4.76618 2.3454 0
M  V30 1566 C 148.295 -4.99133 3.54306 0
M  V30 1567 N 147.432 -6.17726 3.33706 0
M  V30 1568 H 152.272 -1.80226 2.37324 0
M  V30 1569 H 149.809 -0.880238 1.17857 0
M  V30 1570 H 151.767 -3.99263 1.21018 0
M  V30 1571 H 150.397 -3.20506 0.384192 0
M  V30 1572 H 149.449 -2.64125 2.73756 0
M  V30 1573 H 150.761 -3.61788 3.43381 0
M  V30 1574 H 149.915 -5.64249 2.22952 0
M  V30 1575 H 148.654 -4.66305 1.42867 0
M  V30 1576 H 147.659 -4.09953 3.66359 0
M  V30 1577 H 148.884 -5.11311 4.4692 0
M  V30 1578 H 146.83 -6.08642 2.44725 0
M  V30 1579 H 146.747 -6.30995 4.16391 0
M  V30 1580 H 148.015 -7.08115 3.25873 0
M  V30 1581 N 152.244 -1.26651 -0.937939 0
M  V30 1582 C 153.521 -1.0313 -1.66204 0
M  V30 1583 C 153.901 0.437256 -2.06522 0
M  V30 1584 O 153.249 1.41831 -1.79154 0
M  V30 1585 C 153.459 -1.98314 -2.87181 0
M  V30 1586 C 154.807 -2.27107 -3.58758 0
M  V30 1587 O 155.831 -1.96205 -2.97291 0
M  V30 1588 O 154.69 -2.79736 -4.69479 0
M  V30 1589 H 151.784 -0.392384 -0.727986 0
M  V30 1590 H 154.33 -1.37874 -0.989382 0
M  V30 1591 H 153.102 -2.97399 -2.54302 0
M  V30 1592 H 152.725 -1.64068 -3.6217 0
M  V30 1593 N 153.722 1.14298 -1.08507 0
M  V30 1594 C 154.67 2.21483 -0.710483 0
M  V30 1595 C 155.664 1.66998 0.284234 0
M  V30 1596 O 156.87 1.79401 0.146692 0
M  V30 1597 H 153.245 0.721578 -0.211729 0
M  V30 1598 H 155.216 2.50348 -1.62384 0
M  V30 1599 C 153.965 3.4743 -0.137007 0
M  V30 1600 H 153.288 3.89686 -0.893592 0
M  V30 1601 H 154.728 4.2391 0.0872789 0
M  V30 1602 C 153.187 3.17548 1.12538 0
M  V30 1603 O 153.717 3.35437 2.21009 0
M  V30 1604 N 151.923 2.71499 1.03617 0
M  V30 1605 H 151.47 2.57143 0.153403 0
M  V30 1606 H 151.428 2.51881 1.88158 0
M  V30 1607 N 155.201 0.870884 1.31352 0
M  V30 1608 C 156.164 0.332243 2.26779 0
M  V30 1609 C 157.164 -0.517302 1.52252 0
M  V30 1610 O 158.354 -0.326477 1.71113 0
M  V30 1611 C 155.486 -0.528066 3.36785 0
M  V30 1612 H 156.679 1.17469 2.75937 0
M  V30 1613 H 154.232 0.64655 1.423 0
M  V30 1614 H 154.967 -1.39167 2.92922 0
M  V30 1615 H 154.752 0.0802582 3.92018 0
M  V30 1616 H 156.242 -0.897179 4.07849 0
M  V30 1617 N 156.679 -1.44442 0.630414 0
M  V30 1618 C 157.925 -2.02351 0.134816 0
M  V30 1619 C 158.258 -1.4947 -1.23986 0
M  V30 1620 O 157.533 -0.678475 -1.82283 0
M  V30 1621 C 157.816 -3.59898 0.120707 0
M  V30 1622 C 157.669 -4.23063 1.52767 0
M  V30 1623 C 158.988 -4.36585 -0.555127 0
M  V30 1624 H 156.107 -0.73527 0.0504646 0
M  V30 1625 H 158.749 -1.72022 0.806751 0
M  V30 1626 H 156.899 -3.85868 -0.451477 0
M  V30 1627 H 158.571 -4.08202 2.14869 0
M  V30 1628 H 156.814 -3.80586 2.08175 0
M  V30 1629 H 157.485 -5.32071 1.46984 0
M  V30 1630 H 159.961 -4.16044 -0.0685429 0
M  V30 1631 H 158.837 -5.46294 -0.534185 0
M  V30 1632 H 159.098 -4.11138 -1.62535 0
M  V30 1633 N 158.157 -0.370918 -1.53173 0
M  V30 1634 C 159.573 -0.0200818 -1.59587 0
M  V30 1635 C 159.773 1.46279 -1.38581 0
M  V30 1636 O 158.829 2.22506 -1.19363 0
M  V30 1637 C 160.142 -0.4808 -2.96831 0
M  V30 1638 C 161.69 -0.435477 -3.09956 0
M  V30 1639 C 162.165 -0.872092 -4.4962 0
M  V30 1640 N 163.656 -0.827364 -4.55751 0
M  V30 1641 C 164.391 -1.13683 -5.62018 0
M  V30 1642 N 163.887 -1.51584 -6.76014 0
M  V30 1643 N 165.68 -1.05927 -5.52029 0
M  V30 1644 H 157.831 -1.33652 -1.65079 0
M  V30 1645 H 160.094 -0.546634 -0.774529 0
M  V30 1646 H 159.8 -1.51577 -3.1736 0
M  V30 1647 H 159.674 0.129796 -3.76977 0
M  V30 1648 H 162.061 0.590371 -2.89134 0
M  V30 1649 H 162.142 -1.08164 -2.31806 0
M  V30 1650 H 161.786 -1.89608 -4.71181 0
M  V30 1651 H 161.716 -0.203127 -5.26208 0
M  V30 1652 H 164.207 -0.548216 -3.73902 0
M  V30 1653 H 164.52 -1.73609 -7.53047 0
M  V30 1654 H 162.865 -1.55454 -6.77391 0
M  V30 1655 H 166.056 -0.762321 -4.61851 0
M  V30 1656 H 166.229 -1.30378 -6.34749 0
M  V30 1657 N 159.635 1.57281 -0.100228 0
M  V30 1658 C 160.884 1.93713 0.561984 0
M  V30 1659 C 161.197 0.984492 1.69018 0
M  V30 1660 O 162.403 1.24273 2.41389 0
M  V30 1661 C 160.859 3.4421 1.05106 0
M  V30 1662 C 160.467 4.47975 -0.0476628 0
M  V30 1663 C 162.211 3.89595 1.68571 0
M  V30 1664 C 160.118 5.89631 0.457055 0
M  V30 1665 H 159.048 0.723082 0.2137 0
M  V30 1666 H 161.699 1.82644 -0.177057 0
M  V30 1667 H 160.081 3.50449 1.84395 0
M  V30 1668 H 161.255 4.53385 -0.823333 0
M  V30 1669 H 159.57 4.1223 -0.587816 0
M  V30 1670 H 162.167 4.92832 2.07414 0
M  V30 1671 H 162.51 3.28526 2.55688 0
M  V30 1672 H 163.043 3.86078 0.958562 0
M  V30 1673 H 159.782 6.54411 -0.377616 0
M  V30 1674 H 159.302 5.87681 1.19962 0
M  V30 1675 H 160.981 6.40363 0.92437 0
M  V30 1676 N 161.113 -0.173488 1.56642 0
M  V30 1677 C 162.361 -0.888706 1.81512 0
M  V30 1678 C 162.682 -1.82875 0.676872 0
M  V30 1679 O 161.952 -1.93536 -0.303414 0
M  V30 1680 H 160.532 -0.331164 0.669582 0
M  V30 1681 H 163.194 -0.173823 1.94123 0
M  V30 1682 H 162.29 -1.46691 2.75478 0
M  V30 1683 N 162.591 -1.51276 -0.441967 0
M  V30 1684 C 163.501 -1.75092 -1.56141 0
M  V30 1685 C 164.517 -0.634963 -1.62001 0
M  V30 1686 O 165.693 -0.916686 -1.79329 0
M  V30 1687 C 162.758 -1.86666 -2.92158 0
M  V30 1688 C 161.819 -3.10506 -2.96453 0
M  V30 1689 C 161.052 -3.21519 -4.25982 0
M  V30 1690 O 161.275 -2.38586 -5.18105 0
M  V30 1691 O 160.209 -4.14465 -4.36466 0
M  V30 1692 H 164.035 -2.70044 -1.38961 0
M  V30 1693 H 161.62 -1.35722 -0.624499 0
M  V30 1694 H 163.502 -1.96292 -3.72891 0
M  V30 1695 H 162.177 -0.949014 -3.09476 0
M  V30 1696 H 161.084 -3.06363 -2.14692 0
M  V30 1697 H 162.417 -4.01945 -2.84079 0
M  V30 1698 N 164.069 0.697108 -1.41344 0
M  V30 1699 C 165.346 1.45154 -1.31109 0
M  V30 1700 C 165.726 2.11009 0.0620449 0
M  V30 1701 O 165.074 2.01571 1.07618 0
M  V30 1702 C 165.284 2.47223 -2.46337 0
M  V30 1703 C 166.632 3.1252 -2.87431 0
M  V30 1704 O 167.656 2.57547 -2.46065 0
M  V30 1705 O 166.515 4.12083 -3.58957 0
M  V30 1706 H 163.609 0.646365 -0.515889 0
M  V30 1707 H 166.155 0.727716 -1.53305 0
M  V30 1708 H 164.927 1.97204 -3.37974 0
M  V30 1709 H 164.55 3.27116 -2.2601 0
M  V30 1710 N 165.547 1.27147 0.931209 0
M  V30 1711 C 166.772 1.16191 1.71797 0
M  V30 1712 C 167.197 -0.278004 1.86034 0
M  V30 1713 O 166.555 -1.20137 1.35782 0
M  V30 1714 C 166.603 1.84673 3.09723 0
M  V30 1715 O 165.707 1.14231 3.96264 0
M  V30 1716 H 165.048 0.404303 0.526721 0
M  V30 1717 H 167.578 1.68152 1.1656 0
M  V30 1718 H 167.588 1.91893 3.60057 0
M  V30 1719 H 166.263 2.89421 2.98677 0
M  V30 1720 H 164.84 1.15056 3.54706 0
M  V30 1721 N 167.025 -1.13721 1.09112 0
M  V30 1722 C 168.302 -1.81155 0.737706 0
M  V30 1723 C 168.682 -1.96253 -0.777683 0
M  V30 1724 O 168.03 -1.52807 -1.69889 0
M  V30 1725 C 168.24 -3.16392 1.47299 0
M  V30 1726 C 169.588 -3.91787 1.63671 0
M  V30 1727 O 170.612 -3.26005 1.43524 0
M  V30 1728 O 169.471 -5.0977 1.96969 0
M  V30 1729 H 166.565 -0.783518 0.26463 0
M  V30 1730 H 169.111 -1.20676 1.19312 0
M  V30 1731 H 167.883 -3.0061 2.50498 0
M  V30 1732 H 167.506 -3.8457 1.00953 0
M  V30 1733 N 168.503 -0.877838 -1.30888 0
M  V30 1734 C 169.749 -0.493426 -1.96706 0
M  V30 1735 C 170.082 0.953504 -1.6918 0
M  V30 1736 O 169.357 1.67266 -0.992594 0
M  V30 1737 C 169.64 -0.760429 -3.51979 0
M  V30 1738 C 169.493 -2.25747 -3.89048 0
M  V30 1739 C 170.812 -0.232148 -4.39487 0
M  V30 1740 H 167.931 -0.180746 -0.714493 0
M  V30 1741 H 170.573 -1.10052 -1.54882 0
M  V30 1742 H 168.723 -0.243715 -3.87735 0
M  V30 1743 H 170.395 -2.84204 -3.63354 0
M  V30 1744 H 168.638 -2.72694 -3.37373 0
M  V30 1745 H 169.309 -2.39491 -4.97341 0
M  V30 1746 H 171.785 -0.674314 -4.106 0
M  V30 1747 H 170.661 -0.448355 -5.47066 0
M  V30 1748 H 170.922 0.866297 -4.33529 0
M  V30 1749 N 169.982 1.44106 -0.638065 0
M  V30 1750 C 170.912 2.33448 0.0494287 0
M  V30 1751 C 171.893 1.48606 0.827672 0
M  V30 1752 O 173.078 1.77308 0.792173 0
M  V30 1753 C 170.208 3.31771 1.02691 0
M  V30 1754 C 169.162 4.26485 0.359823 0
M  V30 1755 C 168.488 5.14729 1.44769 0
M  V30 1756 C 169.788 5.17056 -0.738296 0
M  V30 1757 H 171.482 2.91183 -0.696636 0
M  V30 1758 H 169.028 1.40014 -0.336456 0
M  V30 1759 H 170.981 3.93161 1.51666 0
M  V30 1760 H 169.705 2.7226 1.80395 0
M  V30 1761 H 168.364 3.66437 -0.10934 0
M  V30 1762 H 168.012 4.51566 2.21578 0
M  V30 1763 H 167.712 5.78913 1.00668 0
M  V30 1764 H 169.236 5.78991 1.93911 0
M  V30 1765 H 170.65 5.72342 -0.331354 0
M  V30 1766 H 169.047 5.89879 -1.10286 0
M  V30 1767 H 170.117 4.57652 -1.60258 0
M  V30 1768 N 171.46 0.379036 1.52974 0
M  V30 1769 C 172.706 -0.206727 2.01744 0
M  V30 1770 C 173.039 -1.47314 1.26539 0
M  V30 1771 O 172.314 -1.91084 0.362903 0
M  V30 1772 C 172.597 -0.485066 3.56818 0
M  V30 1773 C 172.45 0.795919 4.42702 0
M  V30 1774 C 173.769 -1.28003 4.21074 0
M  V30 1775 H 170.888 -0.0736607 0.73331 0
M  V30 1776 H 173.53 0.506581 1.83122 0
M  V30 1777 H 171.68 -1.09272 3.72816 0
M  V30 1778 H 173.352 1.43307 4.38476 0
M  V30 1779 H 171.595 1.41344 4.10127 0
M  V30 1780 H 172.266 0.555947 5.49193 0
M  V30 1781 H 174.742 -0.765867 4.08991 0
M  V30 1782 H 173.618 -1.44352 5.29579 0
M  V30 1783 H 173.879 -2.29236 3.78026 0
M  V30 1784 N 172.938 -1.57226 0.108567 0
M  V30 1785 C 174.166 -1.99179 -0.559954 0
M  V30 1786 C 174.581 -0.988022 -1.60884 0
M  V30 1787 O 173.938 0.0205512 -1.82488 0
M  V30 1788 C 173.989 -3.41159 -1.19552 0
M  V30 1789 O 173.71 -4.37694 -0.188577 0
M  V30 1790 C 175.211 -3.98188 -1.94837 0
M  V30 1791 H 172.431 -0.654228 -0.149088 0
M  V30 1792 H 174.975 -2.03598 0.19183 0
M  V30 1793 H 173.13 -3.37711 -1.89815 0
M  V30 1794 H 173.544 -5.20469 -0.649014 0
M  V30 1795 H 175.018 -4.99644 -2.34648 0
M  V30 1796 H 175.495 -3.3675 -2.81951 0
M  V30 1797 H 176.101 -4.0515 -1.2936 0
M  V30 1798 N 174.416 0.165178 -1.56732 0
M  V30 1799 C 175.832 0.517174 -1.50988 0
M  V30 1800 C 176.032 1.84331 -0.813894 0
M  V30 1801 O 175.088 2.49672 -0.37682 0
M  V30 1802 C 176.401 0.544261 -2.95733 0
M  V30 1803 C 177.949 0.631039 -3.06573 0
M  V30 1804 C 178.424 0.68896 -4.52788 0
M  V30 1805 N 179.915 0.751683 -4.5706 0
M  V30 1806 C 180.65 0.817177 -5.67547 0
M  V30 1807 N 180.146 0.843129 -6.8765 0
M  V30 1808 N 181.939 0.856668 -5.55534 0
M  V30 1809 H 174.09 -0.704318 -2.00382 0
M  V30 1810 H 176.353 -0.254687 -0.913148 0
M  V30 1811 H 176.059 -0.361607 -3.49836 0
M  V30 1812 H 175.933 1.3886 -3.5071 0
M  V30 1813 H 178.32 1.52733 -2.52501 0
M  V30 1814 H 178.401 -0.240095 -2.54671 0
M  V30 1815 H 178.045 -0.2031 -5.07494 0
M  V30 1816 H 177.975 1.57633 -5.02454 0
M  V30 1817 H 180.466 0.739661 -3.70591 0
M  V30 1818 H 180.779 0.894448 -7.67606 0
M  V30 1819 H 179.124 0.811304 -6.90248 0
M  V30 1820 H 182.315 0.833437 -4.60621 0
M  V30 1821 H 182.488 0.904247 -6.4166 0
M  V30 1822 N 175.894 1.51508 0.433938 0
M  V30 1823 C 176.804 1.75917 1.5521 0
M  V30 1824 C 177.82 0.643545 1.61662 0
M  V30 1825 O 178.996 0.926183 1.7884 0
M  V30 1826 C 176.061 1.88213 2.91164 0
M  V30 1827 C 175.122 3.12074 2.94802 0
M  V30 1828 C 174.355 3.23774 4.24271 0
M  V30 1829 O 174.578 2.4133 5.16833 0
M  V30 1830 O 173.512 4.16774 4.34262 0
M  V30 1831 H 177.338 2.70777 1.37527 0
M  V30 1832 H 174.923 1.36051 0.617293 0
M  V30 1833 H 176.805 1.98267 3.71845 0
M  V30 1834 H 175.48 0.965413 3.08968 0
M  V30 1835 H 174.387 3.07497 2.13065 0
M  V30 1836 H 175.72 4.03446 2.81943 0
M  V30 1837 N 177.372 -0.689602 1.41712 0
M  V30 1838 C 178.783 -1.26973 1.36875 0
M  V30 1839 C 179.134 -1.96124 0.054748 0
M  V30 1840 O 178.259 -1.99141 -0.84687 0
M  V30 1841 C 178.854 -2.30912 2.47922 0
M  V30 1842 C 177.413 -2.84486 2.46464 0
M  V30 1843 C 176.56 -1.58603 2.27465 0
M  V30 1844 H 179.511 -0.48396 1.51141 0
M  V30 1845 H 179.532 -3.12331 2.17323 0
M  V30 1846 H 179.044 -1.80554 3.43543 0
M  V30 1847 H 177.145 -3.39005 1.54617 0
M  V30 1848 H 177.258 -3.34511 3.42986 0
M  V30 1849 H 175.622 -1.84632 1.75451 0
M  V30 1850 H 176.405 -1.10233 3.25121 0
M  V30 1851 N 178.85 -1.27639 -0.924453 0
M  V30 1852 C 180.08 -1.16819 -1.70402 0
M  V30 1853 C 180.488 0.277191 -1.87158 0
M  V30 1854 O 179.831 1.20025 -1.39067 0
M  V30 1855 C 179.893 -1.78305 -3.12166 0
M  V30 1856 C 179.557 -3.27502 -3.18734 0
M  V30 1857 C 180.554 -4.2409 -3.00738 0
M  V30 1858 C 178.239 -3.68269 -3.4159 0
M  V30 1859 C 180.233 -5.59422 -3.05492 0
M  V30 1860 C 177.92 -5.0373 -3.45977 0
M  V30 1861 C 178.918 -5.99116 -3.27946 0
M  V30 1862 O 178.606 -7.32108 -3.32074 0
M  V30 1863 H 178.338 -0.406931 -0.539799 0
M  V30 1864 H 180.892 -1.69078 -1.16626 0
M  V30 1865 H 179.122 -1.20528 -3.67437 0
M  V30 1866 H 180.811 -1.62154 -3.72103 0
M  V30 1867 H 181.577 -3.93931 -2.82919 0
M  V30 1868 H 177.456 -2.94496 -3.54673 0
M  V30 1869 H 181 -6.33852 -2.91337 0
M  V30 1870 H 176.897 -5.33543 -3.63321 0
M  V30 1871 H 177.665 -7.40598 -3.48507 0
M  V30 1872 N 180.328 1.1314 -1.09713 0
M  V30 1873 C 181.574 1.84757 -0.836224 0
M  V30 1874 C 181.907 1.8347 0.636598 0
M  V30 1875 O 181.182 1.27491 1.46889 0
M  V30 1876 C 181.465 3.32782 -1.37578 0
M  V30 1877 C 181.318 3.42567 -2.91493 0
M  V30 1878 C 182.637 4.28307 -1.01198 0
M  V30 1879 H 179.756 0.67082 -0.305236 0
M  V30 1880 H 182.398 1.3278 -1.35903 0
M  V30 1881 H 180.548 3.77177 -0.931097 0
M  V30 1882 H 182.22 3.06862 -3.44432 0
M  V30 1883 H 180.463 2.83349 -3.28475 0
M  V30 1884 H 181.134 4.46674 -3.24324 0
M  V30 1885 H 183.61 3.91999 -1.39556 0
M  V30 1886 H 182.486 5.30307 -1.41653 0
M  V30 1887 H 182.747 4.42029 0.0794833 0
M  V30 1888 N 181.806 0.884767 1.30421 0
M  V30 1889 C 183.031 0.517288 2.00845 0
M  V30 1890 C 183.456 -0.886779 1.65885 0
M  V30 1891 O 182.814 -1.58768 0.875354 0
M  V30 1892 C 182.862 0.698994 3.5376 0
M  V30 1893 O 181.966 -0.255208 4.1161 0
M  V30 1894 H 181.307 0.203872 0.631927 0
M  V30 1895 H 183.837 1.19225 1.66272 0
M  V30 1896 H 183.847 0.597912 4.03595 0
M  V30 1897 H 182.522 1.72271 3.78544 0
M  V30 1898 H 181.099 -0.10784 3.72744 0
M  V30 1899 N 183.284 -1.43765 0.645699 0
M  V30 1900 C 184.524 -2.03776 0.159542 0
M  V30 1901 C 184.888 -1.49792 -1.2011 0
M  V30 1902 O 186.089 -2.01398 -1.78023 0
M  V30 1903 C 184.36 -3.57036 0.161251 0
M  V30 1904 S 185.919 -4.3804 -0.258159 0
M  V30 1905 H 182.737 -0.707717 0.0682454 0
M  V30 1906 H 185.339 -1.75941 0.852352 0
M  V30 1907 H 184.043 -3.9383 1.15439 0
M  V30 1908 H 183.574 -3.89503 -0.552339 0
M  V30 1909 H 185.589 -4.7302 -1.49889 0
M  V30 1910 N 184.763 -0.387143 -1.52771 0
M  V30 1911 C 186.04 0.253197 -1.93954 0
M  V30 1912 C 186.42 1.64545 -1.32243 0
M  V30 1913 O 185.768 2.23191 -0.489699 0
M  V30 1914 C 185.978 0.281722 -3.47861 0
M  V30 1915 C 187.326 0.511715 -4.21505 0
M  V30 1916 O 188.35 0.362023 -3.54356 0
M  V30 1917 O 187.209 0.804847 -5.40541 0
M  V30 1918 H 184.303 0.156845 -0.811991 0
M  V30 1919 H 186.849 -0.441494 -1.63856 0
M  V30 1920 H 185.621 -0.693571 -3.85104 0
M  V30 1921 H 185.244 1.02142 -3.84256 0
M  V30 1922 N 186.241 1.57166 -0.116904 0
M  V30 1923 C 187.652 1.82169 0.408809 0
M  V30 1924 C 188.003 1.03393 1.66746 0
M  V30 1925 O 187.128 0.269886 2.1471 0
M  V30 1926 C 187.723 3.30429 0.748466 0
M  V30 1927 C 186.282 3.5612 1.21882 0
M  V30 1928 C 185.429 2.76374 0.226452 0
M  V30 1929 H 188.38 1.5497 -0.342063 0
M  V30 1930 H 188.401 3.44943 1.60607 0
M  V30 1931 H 187.913 3.87737 -0.167784 0
M  V30 1932 H 186.014 3.04168 2.15204 0
M  V30 1933 H 186.127 4.64705 1.16559 0
M  V30 1934 H 184.491 2.44515 0.713063 0
M  V30 1935 H 185.274 3.3644 -0.682859 0
M  V30 1936 N 187.719 -0.156864 1.56817 0
M  V30 1937 C 188.996 -0.899244 1.73704 0
M  V30 1938 C 189.376 -1.99771 0.682254 0
M  V30 1939 O 188.724 -2.26515 -0.300522 0
M  V30 1940 C 188.934 -1.45075 3.17418 0
M  V30 1941 C 190.282 -1.91802 3.7881 0
M  V30 1942 O 191.306 -1.54838 3.20786 0
M  V30 1943 O 190.165 -2.5994 4.80722 0
M  V30 1944 H 187.259 -0.424267 0.709878 0
M  V30 1945 H 189.805 -0.143561 1.69092 0
M  V30 1946 H 188.577 -0.660846 3.85679 0
M  V30 1947 H 188.2 -2.27021 3.26416 0
M  V30 1948 N 189.197 -1.51736 -0.425897 0
M  V30 1949 C 190.107 -1.76738 -1.54275 0
M  V30 1950 C 191.123 -0.65211 -1.61318 0
M  V30 1951 O 192.299 -0.935654 -1.78346 0
M  V30 1952 C 189.364 -1.89755 -2.90162 0
M  V30 1953 C 188.425 -3.13633 -2.93143 0
M  V30 1954 C 187.658 -3.2602 -4.22548 0
M  V30 1955 O 187.881 -2.44067 -5.15546 0
M  V30 1956 O 186.815 -4.19071 -4.32046 0
M  V30 1957 H 190.641 -2.71502 -1.36089 0
M  V30 1958 H 188.226 -1.36376 -0.610069 0
M  V30 1959 H 190.108 -2.00236 -3.70788 0
M  V30 1960 H 188.783 -0.981785 -3.08452 0
M  V30 1961 H 187.69 -3.08622 -2.11431 0
M  V30 1962 H 189.023 -4.04936 -2.798 0
M  V30 1963 N 190.675 0.682077 -1.42076 0
M  V30 1964 C 191.915 1.45424 -1.43636 0
M  V30 1965 C 192.279 1.91939 -0.0484001 0
M  V30 1966 O 193.48 2.6873 0.0612514 0
M  V30 1967 C 191.751 2.62427 -2.42625 0
M  V30 1968 S 193.31 3.51379 -2.62827 0
M  V30 1969 H 190.128 0.496779 -0.508657 0
M  V30 1970 H 192.73 0.794645 -1.78621 0
M  V30 1971 H 191.434 2.26481 -3.42249 0
M  V30 1972 H 190.965 3.33266 -2.09039 0
M  V30 1973 H 192.98 4.58141 -1.9058 0
M  V30 1974 N 192.153 1.28127 0.917671 0
M  V30 1975 C 193.569 1.05749 1.19538 0
M  V30 1976 C 193.769 -0.202633 2.00479 0
M  V30 1977 O 192.825 -0.905382 2.3571 0
M  V30 1978 C 194.138 2.30273 1.93378 0
M  V30 1979 C 195.686 2.35412 2.06277 0
M  V30 1980 C 196.161 3.59692 2.83524 0
M  V30 1981 N 197.652 3.60309 2.91087 0
M  V30 1982 C 198.387 4.53147 3.51348 0
M  V30 1983 N 197.883 5.563 4.12919 0
M  V30 1984 N 199.676 4.40751 3.48849 0
M  V30 1985 H 191.827 2.09024 0.377184 0
M  V30 1986 H 194.09 0.919798 0.22951 0
M  V30 1987 H 193.796 3.22055 1.41328 0
M  V30 1988 H 193.67 2.36378 2.93947 0
M  V30 1989 H 196.057 1.4413 2.57508 0
M  V30 1990 H 196.138 2.33304 1.04895 0
M  V30 1991 H 195.782 4.51316 2.32973 0
M  V30 1992 H 195.712 3.59054 3.85211 0
M  V30 1993 H 198.203 2.85714 2.47338 0
M  V30 1994 H 198.516 6.2329 4.56869 0
M  V30 1995 H 196.861 5.60131 4.11435 0
M  V30 1996 H 200.052 3.59367 2.99955 0
M  V30 1997 H 200.225 5.13291 3.9552 0
M  V30 1998 N 193.631 -1.12557 1.10312 0
M  V30 1999 C 194.878 -1.84038 0.844759 0
M  V30 2000 C 195.206 -1.84026 -0.629668 0
M  V30 2001 O 194.461 -1.28026 -1.48013 0
M  V30 2002 C 194.76 -3.31462 1.33669 0
M  V30 2003 C 194.426 -3.51647 2.82232 0
M  V30 2004 C 193.088 -3.56864 3.22802 0
M  V30 2005 C 195.44 -3.58867 3.77974 0
M  V30 2006 C 192.768 -3.66844 4.57867 0
M  V30 2007 C 195.12 -3.70375 5.1284 0
M  V30 2008 C 193.784 -3.73848 5.52986 0
M  V30 2009 H 193.054 -0.673444 0.309119 0
M  V30 2010 H 195.701 -1.32824 1.37949 0
M  V30 2011 H 194.006 -3.85091 0.721949 0
M  V30 2012 H 195.703 -3.85236 1.11329 0
M  V30 2013 H 192.293 -3.48249 2.49842 0
M  V30 2014 H 196.477 -3.54107 3.47738 0
M  V30 2015 H 191.733 -3.67804 4.88396 0
M  V30 2016 H 195.907 -3.74904 5.86873 0
M  V30 2017 H 193.534 -3.81333 6.57639 0
M  V30 2018 N 195.109 -0.891671 -1.2995 0
M  V30 2019 C 196.339 -0.527893 -1.99742 0
M  V30 2020 C 196.747 0.88979 -1.66971 0
M  V30 2021 O 196.09 1.59766 -0.906667 0
M  V30 2022 C 196.152 -0.630804 -3.53922 0
M  V30 2023 C 195.816 -2.01401 -4.10228 0
M  V30 2024 C 196.813 -2.98422 -4.25724 0
M  V30 2025 C 194.498 -2.32121 -4.45449 0
M  V30 2026 C 196.492 -4.24293 -4.75662 0
M  V30 2027 C 194.179 -3.58237 -4.95086 0
M  V30 2028 C 195.177 -4.54137 -5.10146 0
M  V30 2029 O 194.865 -5.78014 -5.58708 0
M  V30 2030 H 194.597 -0.201953 -0.645129 0
M  V30 2031 H 197.151 -1.20076 -1.66646 0
M  V30 2032 H 195.381 0.0990616 -3.86573 0
M  V30 2033 H 197.07 -0.277338 -4.04951 0
M  V30 2034 H 197.836 -2.76001 -3.98809 0
M  V30 2035 H 193.715 -1.5824 -4.32991 0
M  V30 2036 H 197.259 -4.99153 -4.87332 0
M  V30 2037 H 193.156 -3.80491 -5.21437 0
M  V30 2038 H 193.924 -5.8049 -5.77039 0
M  V30 2039 N 196.587 1.43421 -0.653314 0
M  V30 2040 C 197.55 2.29182 0.0287951 0
M  V30 2041 C 198.55 1.42213 0.750465 0
M  V30 2042 O 199.74 1.63843 0.591701 0
M  V30 2043 C 196.872 3.24278 1.05151 0
M  V30 2044 H 198.065 2.90985 -0.725786 0
M  V30 2045 H 195.618 1.50702 -0.414545 0
M  V30 2046 H 196.353 2.6737 1.83532 0
M  V30 2047 H 196.138 3.88396 0.537687 0
M  V30 2048 H 197.628 3.88647 1.52786 0
M  V30 2049 N 198.065 0.39524 1.52563 0
M  V30 2050 C 198.995 -0.428384 2.29537 0
M  V30 2051 C 199.976 -1.05831 1.33169 0
M  V30 2052 O 201.161 -1.06995 1.62067 0
M  V30 2053 C 198.291 -1.55274 3.10656 0
M  V30 2054 C 197.245 -1.04855 4.14957 0
M  V30 2055 C 196.571 -2.26543 4.84337 0
M  V30 2056 C 197.871 -0.112324 5.22179 0
M  V30 2057 H 199.565 0.213867 2.98635 0
M  V30 2058 H 197.111 0.104298 1.43622 0
M  V30 2059 H 199.064 -2.1358 3.63265 0
M  V30 2060 H 197.788 -2.22266 2.39302 0
M  V30 2061 H 196.447 -0.487985 3.63338 0
M  V30 2062 H 196.095 -2.92059 4.09525 0
M  V30 2063 H 195.795 -1.93466 5.54837 0
M  V30 2064 H 197.319 -2.85481 5.39753 0
M  V30 2065 H 198.733 -0.603752 5.70112 0
M  V30 2066 H 197.13 0.128968 5.99961 0
M  V30 2067 H 198.2 0.837052 4.77621 0
M  V30 2068 N 199.544 -1.57102 0.125237 0
M  V30 2069 C 200.769 -2.0019 -0.542101 0
M  V30 2070 C 201.194 -1.00449 -1.59034 0
M  V30 2071 O 200.552 0.0229423 -1.81285 0
M  V30 2072 C 200.6 -3.42129 -1.13929 0
M  V30 2073 O 199.704 -3.45307 -2.2547 0
M  V30 2074 H 199.045 -0.650171 -0.134812 0
M  V30 2075 H 201.575 -2.03461 0.215553 0
M  V30 2076 H 201.585 -3.80471 -1.4733 0
M  V30 2077 H 200.26 -4.14237 -0.371531 0
M  V30 2078 H 198.837 -3.1879 -1.93462 0
M  V30 2079 N 201.022 0.148545 -1.56898 0
M  V30 2080 C 201.954 1.20852 -1.9475 0
M  V30 2081 C 202.967 1.39265 -0.843152 0
M  V30 2082 O 204.156 1.38864 -1.12156 0
M  V30 2083 C 201.256 2.57362 -2.20495 0
M  V30 2084 C 200.429 2.59947 -3.51776 0
M  V30 2085 C 199.488 3.77984 -3.6608 0
M  V30 2086 O 198.514 3.62929 -4.38487 0
M  V30 2087 N 199.716 4.95375 -3.02629 0
M  V30 2088 H 202.481 0.886804 -2.86279 0
M  V30 2089 H 200.042 0.338121 -1.5833 0
M  V30 2090 H 202.034 3.34833 -2.27307 0
M  V30 2091 H 200.604 2.81832 -1.35238 0
M  V30 2092 H 199.824 1.68403 -3.56419 0
M  V30 2093 H 201.112 2.58704 -4.38121 0
M  V30 2094 H 200.51 5.10509 -2.43715 0
M  V30 2095 H 199.067 5.70627 -3.15004 0
M  V30 2096 N 202.5 1.5196 0.417844 0
M  V30 2097 C 203.748 1.65263 1.16329 0
M  V30 2098 C 204.069 0.380634 1.91249 0
M  V30 2099 O 203.339 -0.604214 1.86349 0
M  V30 2100 H 201.919 0.60912 0.432414 0
M  V30 2101 H 204.581 1.88969 0.477162 0
M  V30 2102 H 203.677 2.4896 1.88217 0
M  V30 2103 N 203.978 -0.674533 1.42435 0
M  V30 2104 C 205.206 -1.46283 1.46317 0
M  V30 2105 C 205.621 -1.88653 0.0745836 0
M  V30 2106 O 204.978 -1.58151 -0.91074 0
M  V30 2107 C 205.029 -2.71178 2.3905 0
M  V30 2108 O 204.75 -2.30586 3.72507 0
M  V30 2109 C 206.251 -3.64738 2.51955 0
M  V30 2110 H 203.471 -0.450104 0.497642 0
M  V30 2111 H 206.015 -0.828792 1.86953 0
M  V30 2112 H 204.17 -3.3077 2.01667 0
M  V30 2113 H 204.584 -3.11241 4.22172 0
M  V30 2114 H 206.058 -4.49096 3.20962 0
M  V30 2115 H 206.535 -4.10656 1.55752 0
M  V30 2116 H 207.141 -3.11038 2.90061 0
M  V30 2117 N 205.456 -1.28612 -0.910864 0
M  V30 2118 C 206.684 -1.18792 -1.69399 0
M  V30 2119 C 207.099 0.253039 -1.87097 0
M  V30 2120 O 206.456 1.17071 -1.40003 0
M  V30 2121 C 206.507 -1.88511 -3.08457 0
M  V30 2122 O 206.228 -3.26979 -2.91576 0
M  V30 2123 C 207.729 -1.85029 -4.02839 0
M  V30 2124 H 204.949 -0.412233 -0.529438 0
M  V30 2125 H 207.493 -1.69788 -1.13984 0
M  V30 2126 H 205.648 -1.41379 -3.60681 0
M  V30 2127 H 206.062 -3.61936 -3.79608 0
M  V30 2128 H 207.536 -2.38395 -4.97867 0
M  V30 2129 H 208.013 -0.823303 -4.31414 0
M  V30 2130 H 208.619 -2.31853 -3.56545 0
M  V30 2131 N 206.934 1.1197 -1.10907 0
M  V30 2132 C 208.183 1.82947 -0.849302 0
M  V30 2133 C 208.496 1.85275 0.627112 0
M  V30 2134 O 209.702 2.52296 1.00295 0
M  V30 2135 C 208.158 3.28529 -1.46959 0
M  V30 2136 C 207.766 3.34546 -2.97965 0
M  V30 2137 C 209.51 4.04443 -1.28942 0
M  V30 2138 C 207.417 4.74491 -3.53004 0
M  V30 2139 H 206.347 0.685477 -0.314065 0
M  V30 2140 H 208.998 1.2604 -1.33365 0
M  V30 2141 H 207.38 3.85333 -0.912917 0
M  V30 2142 H 208.554 2.87654 -3.59989 0
M  V30 2143 H 206.869 2.72108 -3.15192 0
M  V30 2144 H 209.466 5.07787 -1.67502 0
M  V30 2145 H 209.809 4.15656 -0.231456 0
M  V30 2146 H 210.342 3.5401 -1.81443 0
M  V30 2147 H 207.081 4.68474 -4.58489 0
M  V30 2148 H 206.601 5.21816 -2.9575 0
M  V30 2149 H 208.28 5.4344 -3.51115 0
M  V30 2150 N 208.412 0.89855 1.29475 0
M  V30 2151 C 209.828 0.594483 1.48115 0
M  V30 2152 C 210.028 -0.86431 1.82022 0
M  V30 2153 O 209.084 -1.64457 1.91599 0
M  V30 2154 C 210.397 1.51932 2.59494 0
M  V30 2155 C 211.945 1.5244 2.7337 0
M  V30 2156 C 212.42 2.43548 3.87877 0
M  V30 2157 N 213.911 2.41589 3.95208 0
M  V30 2158 C 214.646 3.08789 4.83153 0
M  V30 2159 N 214.142 3.85265 5.75798 0
M  V30 2160 N 215.935 2.97952 4.76635 0
M  V30 2161 H 208.086 1.84207 1.05742 0
M  V30 2162 H 210.349 0.789251 0.525154 0
M  V30 2163 H 210.055 2.55865 2.41301 0
M  V30 2164 H 209.929 1.23899 3.56271 0
M  V30 2165 H 212.316 0.492518 2.90961 0
M  V30 2166 H 212.397 1.8451 1.77172 0
M  V30 2167 H 212.041 3.46829 3.71041 0
M  V30 2168 H 211.971 2.08788 4.83441 0
M  V30 2169 H 214.462 1.86025 3.28943 0
M  V30 2170 H 214.775 4.33598 6.39697 0
M  V30 2171 H 213.12 3.89371 5.75687 0
M  V30 2172 H 216.311 2.37723 4.03244 0
M  V30 2173 H 216.484 3.50599 5.44962 0
M  V30 2174 N 209.89 -1.43072 0.660911 0
M  V30 2175 C 211.138 -2.01323 0.177094 0
M  V30 2176 C 211.459 -1.5245 -1.2159 0
M  V30 2177 O 210.729 -0.740322 -1.81373 0
M  V30 2178 H 209.309 -0.744382 0.0624804 0
M  V30 2179 H 211.971 -1.75179 0.854305 0
M  V30 2180 H 211.067 -3.11649 0.167641 0
M  V30 2181 N 211.368 -0.403325 -1.52352 0
M  V30 2182 C 212.315 0.425011 -2.26853 0
M  V30 2183 C 213.285 1.04598 -1.29029 0
M  V30 2184 O 214.47 1.07135 -1.57882 0
M  V30 2185 C 211.61 1.53888 -3.08889 0
M  V30 2186 C 210.723 0.939396 -4.21663 0
M  V30 2187 C 209.858 2.02547 -4.91068 0
M  V30 2188 C 208.897 1.40263 -5.95813 0
M  V30 2189 N 208.034 2.4286 -6.58759 0
M  V30 2190 H 212.874 -0.21674 -2.97211 0
M  V30 2191 H 210.411 -0.118722 -1.4662 0
M  V30 2192 H 212.369 2.19558 -3.54753 0
M  V30 2193 H 210.999 2.15074 -2.40714 0
M  V30 2194 H 210.051 0.171898 -3.80011 0
M  V30 2195 H 211.363 0.44436 -4.96817 0
M  V30 2196 H 210.517 2.75958 -5.40308 0
M  V30 2197 H 209.256 2.55415 -4.15469 0
M  V30 2198 H 208.261 0.653833 -5.45898 0
M  V30 2199 H 209.486 0.881719 -6.73352 0
M  V30 2200 H 207.432 2.94871 -5.85992 0
M  V30 2201 H 207.349 1.98152 -7.2957 0
M  V30 2202 H 208.617 3.15858 -7.12639 0
M  V30 2203 N 212.846 1.57033 -0.133567 0
M  V30 2204 C 213.796 2.12641 0.822671 0
M  V30 2205 C 214.78 1.05081 1.21847 0
M  V30 2206 O 215.972 1.31287 1.18713 0
M  V30 2207 C 213.101 2.74094 2.06706 0
M  V30 2208 C 212.187 3.88757 1.69497 0
M  V30 2209 N 212.578 4.95194 1.03037 0
M  V30 2210 C 210.876 3.99213 1.98859 0
M  V30 2211 C 211.577 5.75414 0.852873 0
M  V30 2212 N 210.553 5.25726 1.3825 0
M  V30 2213 H 214.355 2.92308 0.305537 0
M  V30 2214 H 211.869 1.62256 0.0684276 0
M  V30 2215 H 213.866 3.12285 2.76195 0
M  V30 2216 H 212.526 1.95896 2.5895 0
M  V30 2217 H 213.537 5.13247 0.692669 0
M  V30 2218 H 210.214 3.32075 2.53047 0
M  V30 2219 H 211.604 6.71089 0.330091 0
M  V30 2220 N 214.325 -0.140222 1.56975 0
M  V30 2221 C 215.55 -0.870414 1.88251 0
M  V30 2222 C 215.975 -1.73637 0.723312 0
M  V30 2223 O 215.333 -1.78329 -0.32689 0
M  V30 2224 C 215.381 -1.69737 3.18154 0
M  V30 2225 O 214.485 -2.80229 3.02565 0
M  V30 2226 H 213.826 -0.242025 0.61832 0
M  V30 2227 H 216.356 -0.128999 2.04193 0
M  V30 2228 H 216.366 -2.09099 3.50345 0
M  V30 2229 H 215.041 -1.06152 4.02125 0
M  V30 2230 H 213.618 -2.44224 2.81796 0
M  V30 2231 N 215.803 -1.52179 -0.40978 0
M  V30 2232 C 216.751 -1.76086 -1.51975 0
M  V30 2233 C 217.745 -0.627964 -1.57331 0
M  V30 2234 O 218.951 -0.809993 -1.60745 0
M  V30 2235 H 215.326 -0.556829 -0.505416 0
M  V30 2236 H 217.297 -2.69077 -1.28996 0
M  V30 2237 C 216.046 -1.92799 -2.8935 0
M  V30 2238 H 215.369 -2.79392 -2.85972 0
M  V30 2239 H 216.809 -2.13527 -3.66309 0
M  V30 2240 C 215.268 -0.694923 -3.29655 0
M  V30 2241 O 215.798 0.13751 -4.01465 0
M  V30 2242 N 214.004 -0.53101 -2.85707 0
M  V30 2243 H 213.551 -1.20952 -2.27439 0
M  V30 2244 H 213.509 0.292718 -3.13034 0
M  V30 2245 N 217.281 0.66697 -1.42791 0
M  V30 2246 C 218.529 1.42417 -1.43394 0
M  V30 2247 C 218.85 1.94925 -0.0542373 0
M  V30 2248 O 218.12 1.73564 0.908415 0
M  V30 2249 H 216.7 0.528515 -0.527902 0
M  V30 2250 H 219.362 0.787562 -1.78279 0
M  V30 2251 H 218.458 2.27333 -2.13837 0
M  V30 2252 N 218.759 1.29093 0.90403 0
M  V30 2253 C 219.987 1.19689 1.68766 0
M  V30 2254 C 220.402 -0.243113 1.87228 0
M  V30 2255 O 219.759 -1.16326 1.40621 0
M  V30 2256 C 219.81 1.90144 3.07453 0
M  V30 2257 O 219.531 3.2852 2.89838 0
M  V30 2258 C 221.032 1.87162 4.01852 0
M  V30 2259 H 218.252 0.415035 0.527244 0
M  V30 2260 H 220.796 1.7039 1.13082 0
M  V30 2261 H 218.951 1.43289 3.59926 0
M  V30 2262 H 219.365 3.63944 3.77684 0
M  V30 2263 H 220.839 2.41032 4.96596 0
M  V30 2264 H 221.316 0.84617 4.30972 0
M  V30 2265 H 221.922 2.33741 3.5531 0
M  V30 2266 N 220.237 -1.11381 1.11499 0
M  V30 2267 C 221.486 -1.82494 0.858993 0
M  V30 2268 C 221.799 -1.85605 -0.617278 0
M  V30 2269 O 223.005 -2.52824 -0.989552 0
M  V30 2270 C 221.461 -3.27745 1.48699 0
M  V30 2271 C 221.069 -3.32961 2.99735 0
M  V30 2272 C 222.813 -4.03754 1.31085 0
M  V30 2273 C 220.72 -4.72612 3.55516 0
M  V30 2274 H 219.65 -0.683802 0.317696 0
M  V30 2275 H 222.301 -1.25331 1.34031 0
M  V30 2276 H 220.683 -3.84844 0.933339 0
M  V30 2277 H 221.857 -2.85741 3.61509 0
M  V30 2278 H 220.172 -2.70433 3.16631 0
M  V30 2279 H 222.769 -5.06891 1.70192 0
M  V30 2280 H 223.112 -4.15527 0.253496 0
M  V30 2281 H 223.645 -3.53043 1.83318 0
M  V30 2282 H 220.384 -4.66036 4.60967 0
M  V30 2283 H 219.904 -5.2024 2.98513 0
M  V30 2284 H 221.583 -5.4157 3.53992 0
M  V30 2285 N 221.715 -0.905404 -1.28997 0
M  V30 2286 C 222.665 -0.358713 -2.25161 0
M  V30 2287 C 223.649 0.524449 -1.52113 0
M  V30 2288 O 224.841 0.365534 -1.73184 0
M  V30 2289 C 221.97 0.407609 -3.40872 0
M  V30 2290 C 221.056 -0.490797 -4.21251 0
M  V30 2291 N 221.447 -1.60061 -4.79806 0
M  V30 2292 C 219.745 -0.289636 -4.45059 0
M  V30 2293 C 220.446 -2.15757 -5.40207 0
M  V30 2294 N 219.422 -1.44988 -5.23908 0
M  V30 2295 H 223.224 -1.20642 -2.67998 0
M  V30 2296 H 220.738 -0.757103 -1.43672 0
M  V30 2297 H 222.735 0.816046 -4.08835 0
M  V30 2298 H 221.395 1.25251 -2.9957 0
M  V30 2299 H 222.406 -1.98329 -4.7842 0
M  V30 2300 H 219.083 0.51643 -4.14294 0
M  V30 2301 H 220.473 -3.09069 -5.96595 0
M  V30 2302 N 223.193 1.4272 -0.668489 0
M  V30 2303 C 224.47 1.95248 -0.117373 0
M  V30 2304 C 224.85 1.60919 1.36632 0
M  V30 2305 O 224.198 0.902095 2.09939 0
M  V30 2306 C 224.408 3.46927 -0.379806 0
M  V30 2307 C 225.756 4.23588 -0.292923 0
M  V30 2308 O 226.78 3.5482 -0.313204 0
M  V30 2309 O 225.639 5.46017 -0.229697 0
M  V30 2310 H 222.733 0.827 0.00079152 0
M  V30 2311 H 225.279 1.52581 -0.742783 0
M  V30 2312 H 224.051 3.65096 -1.40786 0
M  V30 2313 H 223.674 3.96627 0.277923 0
M  V30 2314 N 224.671 0.411399 1.52136 0
M  V30 2315 C 226.087 0.0623865 1.59478 0
M  V30 2316 C 226.287 -1.42554 1.4241 0
M  V30 2317 O 225.343 -2.19263 1.2522 0
M  V30 2318 C 226.656 0.559331 2.95452 0
M  V30 2319 C 228.204 0.517503 3.08692 0
M  V30 2320 C 228.679 0.990994 4.4715 0
M  V30 2321 N 230.17 0.947908 4.53397 0
M  V30 2322 C 230.905 1.28544 5.58806 0
M  V30 2323 N 230.401 1.69454 6.71757 0
M  V30 2324 N 232.194 1.20526 5.49026 0
M  V30 2325 H 224.345 1.37982 1.61477 0
M  V30 2326 H 226.608 0.566977 0.759764 0
M  V30 2327 H 226.314 1.59938 3.1323 0
M  V30 2328 H 226.188 -0.0298014 3.77188 0
M  V30 2329 H 228.575 -0.513505 2.90598 0
M  V30 2330 H 228.656 1.14272 2.28857 0
M  V30 2331 H 228.3 2.02034 4.65988 0
M  V30 2332 H 228.23 0.34257 5.25485 0
M  V30 2333 H 230.721 0.647157 3.72317 0
M  V30 2334 H 231.034 1.93513 7.48179 0
M  V30 2335 H 229.379 1.73359 6.73032 0
M  V30 2336 H 232.57 0.884505 4.59667 0
M  V30 2337 H 232.743 1.47161 6.31069 0
M  V30 2338 N 226.149 -1.5696 0.141893 0
M  V30 2339 C 227.374 -2.00754 -0.520838 0
M  V30 2340 C 227.799 -1.0213 -1.57959 0
M  V30 2341 O 227.157 0.00371324 -1.813 0
M  V30 2342 C 227.205 -3.43318 -1.10294 0
M  V30 2343 O 226.309 -3.47679 -2.21795 0
M  V30 2344 H 225.65 -0.651564 -0.127908 0
M  V30 2345 H 228.18 -2.03221 0.23712 0
M  V30 2346 H 228.19 -3.82012 -1.43287 0
M  V30 2347 H 226.865 -4.14608 -0.327574 0
M  V30 2348 H 225.442 -3.20824 -1.9007 0
M  V30 2349 N 227.627 0.131896 -1.57047 0
M  V30 2350 C 228.559 1.1878 -1.9602 0
M  V30 2351 C 229.572 1.38363 -0.857875 0
M  V30 2352 O 230.761 1.37666 -1.13623 0
M  V30 2353 C 227.861 2.55008 -2.23213 0
M  V30 2354 C 227.034 2.56201 -3.54513 0
M  V30 2355 C 226.093 3.7408 -3.70069 0
M  V30 2356 O 225.119 3.58258 -4.42312 0
M  V30 2357 N 226.321 4.92137 -3.07866 0
M  V30 2358 H 229.086 0.85639 -2.87204 0
M  V30 2359 H 226.647 0.321309 -1.5868 0
M  V30 2360 H 228.639 3.32404 -2.30846 0
M  V30 2361 H 227.209 2.80382 -1.3822 0
M  V30 2362 H 226.429 1.64613 -3.58185 0
M  V30 2363 H 227.717 2.54043 -4.4084 0
M  V30 2364 H 227.115 5.07895 -2.49116 0
M  V30 2365 H 225.672 5.67254 -3.21039 0
M  V30 2366 N 229.106 1.52395 0.401703 0
M  V30 2367 C 230.336 1.70429 1.1678 0
M  V30 2368 C 230.744 0.416702 1.84554 0
M  V30 2369 O 230.087 -0.617697 1.73003 0
M  V30 2370 C 230.149 2.78919 2.26814 0
M  V30 2371 C 229.813 4.20437 1.79113 0
M  V30 2372 C 230.81 5.04028 1.27482 0
M  V30 2373 C 228.495 4.66704 1.85722 0
M  V30 2374 C 230.489 6.31961 0.830913 0
M  V30 2375 C 228.176 5.94625 1.40942 0
M  V30 2376 C 229.174 6.77082 0.897128 0
M  V30 2377 O 228.862 8.02607 0.455822 0
M  V30 2378 H 228.594 0.574272 0.356634 0
M  V30 2379 H 231.148 1.99767 0.477724 0
M  V30 2380 H 229.378 2.44973 2.99207 0
M  V30 2381 H 231.067 2.8548 2.88541 0
M  V30 2382 H 231.833 4.69471 1.21744 0
M  V30 2383 H 227.712 4.0262 2.24539 0
M  V30 2384 H 231.256 6.96271 0.430368 0
M  V30 2385 H 227.153 6.28688 1.46362 0
M  V30 2386 H 227.921 8.16453 0.578457 0
M  V30 2387 N 230.584 -0.659388 1.43143 0
M  V30 2388 C 232 -0.974337 1.26407 0
M  V30 2389 C 232.2 -2.007 0.179341 0
M  V30 2390 O 231.256 -2.4856 -0.444295 0
M  V30 2391 C 232.569 -1.46447 2.62628 0
M  V30 2392 C 234.117 -1.58144 2.7011 0
M  V30 2393 C 234.592 -2.1055 4.06734 0
M  V30 2394 N 236.083 -2.17861 4.08767 0
M  V30 2395 C 236.818 -2.59519 5.1131 0
M  V30 2396 N 236.314 -3.00518 6.24228 0
M  V30 2397 N 238.107 -2.59404 4.98664 0
M  V30 2398 H 230.258 0.0240528 2.12386 0
M  V30 2399 H 232.521 -0.0518065 0.946583 0
M  V30 2400 H 232.227 -0.780123 3.42939 0
M  V30 2401 H 232.101 -2.44058 2.87603 0
M  V30 2402 H 234.488 -2.25682 1.90136 0
M  V30 2403 H 234.569 -0.589828 2.48907 0
M  V30 2404 H 234.213 -1.43616 4.87172 0
M  V30 2405 H 234.143 -3.10531 4.25298 0
M  V30 2406 H 236.634 -1.88975 3.27257 0
M  V30 2407 H 236.947 -3.31036 6.98309 0
M  V30 2408 H 235.292 -2.98337 6.2771 0
M  V30 2409 H 238.483 -2.26747 4.09516 0
M  V30 2410 H 238.656 -2.91548 5.78709 0
M  V30 2411 N 232.062 -1.29571 -0.897171 0
M  V30 2412 C 233.025 -1.14913 -1.98312 0
M  V30 2413 C 234.025 -0.0838629 -1.60581 0
M  V30 2414 O 235.215 -0.331006 -1.71026 0
M  V30 2415 C 232.347 -0.757835 -3.3237 0
M  V30 2416 H 233.54 -2.11377 -2.12743 0
M  V30 2417 H 231.093 -1.12793 -1.08201 0
M  V30 2418 H 231.828 0.206837 -3.2364 0
M  V30 2419 H 231.613 -1.52755 -3.61121 0
M  V30 2420 H 233.103 -0.678408 -4.12053 0
M  V30 2421 N 233.54 1.10788 -1.12088 0
M  V30 2422 C 234.47 2.19083 -0.807755 0
M  V30 2423 C 235.451 1.6858 0.226859 0
M  V30 2424 O 236.636 1.93997 0.0888475 0
M  V30 2425 C 233.766 3.46344 -0.257576 0
M  V30 2426 C 232.72 4.101 -1.22483 0
M  V30 2427 C 232.046 5.32016 -0.535052 0
M  V30 2428 C 233.346 4.54236 -2.57811 0
M  V30 2429 H 235.04 2.45534 -1.71328 0
M  V30 2430 H 232.586 1.1801 -0.825205 0
M  V30 2431 H 234.539 4.21392 -0.0262679 0
M  V30 2432 H 233.263 3.19373 0.683278 0
M  V30 2433 H 231.922 3.37054 -1.44189 0
M  V30 2434 H 231.57 5.01319 0.410827 0
M  V30 2435 H 231.27 5.75625 -1.18024 0
M  V30 2436 H 232.794 6.09799 -0.312695 0
M  V30 2437 H 234.208 5.20575 -2.40155 0
M  V30 2438 H 232.605 5.08682 -3.18375 0
M  V30 2439 H 233.675 3.6734 -3.16528 0
M  V30 2440 N 235.018 0.912232 1.28515 0
M  V30 2441 C 236.267 0.540504 1.94323 0
M  V30 2442 C 236.58 -0.920044 1.72611 0
M  V30 2443 O 237.786 -1.39986 2.32629 0
M  V30 2444 C 236.242 0.915803 3.48053 0
M  V30 2445 C 235.85 2.39598 3.78546 0
M  V30 2446 C 237.594 0.614588 4.20027 0
M  V30 2447 C 235.501 2.71148 5.25578 0
M  V30 2448 H 234.431 0.198418 0.727424 0
M  V30 2449 H 237.082 1.11094 1.46049 0
M  V30 2450 H 235.464 0.274168 3.9505 0
M  V30 2451 H 236.638 3.08422 3.42364 0
M  V30 2452 H 234.953 2.66749 3.1974 0
M  V30 2453 H 237.55 0.827002 5.28266 0
M  V30 2454 H 237.893 -0.447531 4.13887 0
M  V30 2455 H 238.426 1.21462 3.78803 0
M  V30 2456 H 235.165 3.76207 5.36794 0
M  V30 2457 H 234.685 2.0696 5.62963 0
M  V30 2458 H 236.364 2.58072 5.93302 0
M  V30 2459 N 236.496 -1.42363 0.676048 0
M  V30 2460 C 237.721 -2.06377 0.205705 0
M  V30 2461 C 238.146 -1.50463 -1.12883 0
M  V30 2462 O 237.504 -0.623619 -1.70237 0
M  V30 2463 C 237.552 -3.60277 0.152655 0
M  V30 2464 O 236.656 -4.02935 -0.87845 0
M  V30 2465 H 235.997 -0.655588 0.105359 0
M  V30 2466 H 238.527 -1.82475 0.925412 0
M  V30 2467 H 238.537 -4.07993 -0.0230675 0
M  V30 2468 H 237.212 -4.00346 1.12675 0
M  V30 2469 H 235.789 -3.66764 -0.673668 0
M  V30 2470 N 237.974 -0.419461 -1.51915 0
M  V30 2471 C 239.22 0.145505 -2.02879 0
M  V30 2472 C 239.575 1.41926 -1.29903 0
M  V30 2473 O 238.868 1.87383 -0.399782 0
M  V30 2474 C 239.062 0.437067 -3.54717 0
M  V30 2475 C 238.891 -0.806877 -4.42402 0
M  V30 2476 C 237.661 -1.33514 -4.87342 0
M  V30 2477 C 239.859 -1.68796 -4.85811 0
M  V30 2478 N 237.841 -2.53349 -5.59185 0
M  V30 2479 C 239.212 -2.73247 -5.56539 0
M  V30 2480 C 241.267 -1.70449 -4.67816 0
M  V30 2481 C 239.97 -3.79276 -6.11181 0
M  V30 2482 C 241.996 -2.75403 -5.23361 0
M  V30 2483 C 241.358 -3.78575 -5.9402 0
M  V30 2484 H 237.457 0.0145424 -0.781865 0
M  V30 2485 H 240.041 -0.576126 -1.85981 0
M  V30 2486 H 238.212 1.12774 -3.71667 0
M  V30 2487 H 239.944 0.99182 -3.92358 0
M  V30 2488 H 236.699 -0.891657 -4.65131 0
M  V30 2489 H 237.123 -3.14066 -5.99743 0
M  V30 2490 H 241.765 -0.920209 -4.12664 0
M  V30 2491 H 239.483 -4.58554 -6.65397 0
M  V30 2492 H 243.069 -2.77603 -5.113 0
M  V30 2493 H 241.949 -4.58453 -6.36231 0
M  V30 2494 N 239.452 1.56882 -0.150215 0
M  V30 2495 C 240.863 1.82995 0.370076 0
M  V30 2496 C 241.214 1.06907 1.64515 0
M  V30 2497 O 240.339 0.315369 2.1409 0
M  V30 2498 C 240.934 3.31942 0.678208 0
M  V30 2499 C 239.493 3.58625 1.14301 0
M  V30 2500 C 238.64 2.76792 0.167778 0
M  V30 2501 H 241.591 1.54209 -0.374858 0
M  V30 2502 H 241.612 3.48272 1.53254 0
M  V30 2503 H 241.124 3.87294 -0.249991 0
M  V30 2504 H 239.225 3.08664 2.08704 0
M  V30 2505 H 239.338 4.67073 1.06676 0
M  V30 2506 H 237.702 2.45972 0.661037 0
M  V30 2507 H 238.485 3.34916 -0.754069 0
M  V30 2508 N 240.93 -0.123565 1.57115 0
M  V30 2509 C 241.86 -1.15309 2.03042 0
M  V30 2510 C 242.841 -1.43454 0.914061 0
M  V30 2511 O 244.026 -1.53973 1.18347 0
M  V30 2512 C 241.156 -2.48043 2.43089 0
M  V30 2513 C 240.11 -2.3437 3.58127 0
M  V30 2514 C 239.436 -3.72026 3.84059 0
M  V30 2515 C 240.736 -1.80804 4.90007 0
M  V30 2516 H 242.43 -0.771102 2.893 0
M  V30 2517 H 239.976 -0.369479 1.39179 0
M  V30 2518 H 241.929 -3.20311 2.73823 0
M  V30 2519 H 240.653 -2.88122 1.53796 0
M  V30 2520 H 239.312 -1.64551 3.27595 0
M  V30 2521 H 238.96 -4.09582 2.91979 0
M  V30 2522 H 238.66 -3.63732 4.6149 0
M  V30 2523 H 240.184 -4.45806 4.1724 0
M  V30 2524 H 241.598 -2.42886 5.19307 0
M  V30 2525 H 239.995 -1.83343 5.71407 0
M  V30 2526 H 241.065 -0.76528 4.78823 0
M  V30 2527 N 242.408 -1.52605 -0.393616 0
M  V30 2528 C 243.633 -1.71592 -1.16495 0
M  V30 2529 C 244.058 -0.43133 -1.83088 0
M  V30 2530 O 243.416 0.612523 -1.7064 0
M  V30 2531 C 243.464 -2.86318 -2.19213 0
M  V30 2532 O 242.568 -2.52969 -3.257 0
M  V30 2533 H 241.909 -0.570734 -0.33935 0
M  V30 2534 H 244.439 -1.99377 -0.459324 0
M  V30 2535 H 244.449 -3.1168 -2.63286 0
M  V30 2536 H 243.124 -3.79511 -1.7013 0
M  V30 2537 H 241.701 -2.38332 -2.86797 0
M  V30 2538 N 243.887 0.651787 -1.4349 0
M  V30 2539 C 245.112 1.44434 -1.48841 0
M  V30 2540 C 245.537 1.8779 -0.107955 0
M  V30 2541 O 244.895 1.57464 0.898602 0
M  V30 2542 C 244.943 2.65458 -2.44059 0
M  V30 2543 O 244.047 3.64566 -1.92784 0
M  V30 2544 H 243.388 0.433005 -0.503391 0
M  V30 2545 H 245.918 0.797451 -1.88419 0
M  V30 2546 H 245.928 3.13255 -2.6141 0
M  V30 2547 H 244.603 2.33244 -3.4434 0
M  V30 2548 H 243.18 3.23716 -1.851 0
M  V30 2549 N 245.365 1.30045 0.890287 0
M  V30 2550 C 246.776 1.16738 1.45702 0
M  V30 2551 C 247.127 -0.233939 1.948 0
M  V30 2552 O 246.252 -1.13021 1.84541 0
M  V30 2553 C 246.847 2.11313 2.64825 0
M  V30 2554 C 245.406 2.02001 3.17604 0
M  V30 2555 C 244.553 2.01699 1.90296 0
M  V30 2556 H 247.504 1.42392 0.700726 0
M  V30 2557 H 247.525 1.69086 3.40867 0
M  V30 2558 H 247.037 3.13294 2.2906 0
M  V30 2559 H 245.138 1.03142 3.5804 0
M  V30 2560 H 245.251 2.90128 3.81264 0
M  V30 2561 H 243.615 1.46427 2.08402 0
M  V30 2562 H 244.398 3.05402 1.56795 0
M  V30 2563 N 246.843 -1.10192 1.12674 0
M  V30 2564 C 248.254 -1.63707 0.897604 0
M  V30 2565 C 248.605 -1.87812 -0.567546 0
M  V30 2566 O 247.73 -1.62196 -1.43253 0
M  V30 2567 C 248.325 -2.974 1.62292 0
M  V30 2568 C 246.884 -3.47772 1.43986 0
M  V30 2569 C 246.031 -2.22332 1.65722 0
M  V30 2570 H 248.982 -0.936587 1.28116 0
M  V30 2571 H 249.003 -3.64986 1.07541 0
M  V30 2572 H 248.515 -2.79824 2.68924 0
M  V30 2573 H 246.616 -3.70487 0.396206 0
M  V30 2574 H 246.729 -4.25723 2.19765 0
M  V30 2575 H 245.093 -2.30599 1.08149 0
M  V30 2576 H 245.876 -2.07285 2.73657 0
M  V30 2577 N 248.321 -0.919034 -1.28029 0
M  V30 2578 C 249.549 -0.570971 -1.98866 0
M  V30 2579 C 249.964 0.848996 -1.68634 0
M  V30 2580 O 249.321 1.56307 -0.942036 0
M  V30 2581 C 249.372 -0.776876 -3.53054 0
M  V30 2582 O 249.093 -2.14097 -3.82222 0
M  V30 2583 C 250.594 -0.436356 -4.41147 0
M  V30 2584 H 247.814 -0.217175 -0.634883 0
M  V30 2585 H 250.358 -1.23368 -1.63097 0
M  V30 2586 H 248.513 -0.161085 -3.87065 0
M  V30 2587 H 248.927 -2.18455 -4.76841 0
M  V30 2588 H 250.401 -0.63117 -5.4838 0
M  V30 2589 H 250.878 0.627686 -4.34692 0
M  V30 2590 H 251.484 -1.02991 -4.12641 0
M  V30 2591 N 249.799 1.42003 -0.683588 0
M  V30 2592 C 251.045 2.01712 -0.209825 0
M  V30 2593 C 251.378 1.53968 1.18353 0
M  V30 2594 O 250.653 0.745661 1.79639 0
M  V30 2595 C 250.936 3.59202 -0.254197 0
M  V30 2596 C 250.789 4.17102 -1.68363 0
M  V30 2597 C 252.108 4.38344 0.392709 0
M  V30 2598 H 249.227 0.732891 -0.0777189 0
M  V30 2599 H 251.869 1.68909 -0.87004 0
M  V30 2600 H 250.019 3.87278 0.307954 0
M  V30 2601 H 251.691 3.99946 -2.29871 0
M  V30 2602 H 249.934 3.72597 -2.22157 0
M  V30 2603 H 250.605 5.26249 -1.6663 0
M  V30 2604 H 253.081 4.16011 -0.0859162 0
M  V30 2605 H 251.957 5.47901 0.331063 0
M  V30 2606 H 252.218 4.16887 1.47164 0
M  V30 2607 N 251.277 0.427512 1.51691 0
M  V30 2608 C 252.507 -0.140986 2.06118 0
M  V30 2609 C 252.915 -1.37854 1.29588 0
M  V30 2610 O 252.258 -1.80411 0.346036 0
M  V30 2611 C 252.32 -0.538276 3.55447 0
M  V30 2612 C 251.984 0.591095 4.53161 0
M  V30 2613 C 252.981 1.46027 4.98971 0
M  V30 2614 C 250.666 0.769028 4.96378 0
M  V30 2615 C 252.66 2.49216 5.8666 0
M  V30 2616 C 250.347 1.80421 5.83859 0
M  V30 2617 C 251.345 2.66417 6.28897 0
M  V30 2618 O 251.033 3.68159 7.14643 0
M  V30 2619 H 250.765 -0.0157455 0.675817 0
M  V30 2620 H 253.319 0.602495 1.96365 0
M  V30 2621 H 251.549 -1.33432 3.6295 0
M  V30 2622 H 253.238 -1.0368 3.92435 0
M  V30 2623 H 254.004 1.33429 4.66285 0
M  V30 2624 H 249.883 0.109273 4.6087 0
M  V30 2625 H 253.427 3.16372 6.21735 0
M  V30 2626 H 249.324 1.93042 6.15959 0
M  V30 2627 H 250.092 3.64622 7.32798 0
M  V30 2628 N 252.755 -1.56801 0.158532 0
M  V30 2629 C 253.703 -2.18638 -0.793729 0
M  V30 2630 C 254.697 -1.14669 -1.24689 0
M  V30 2631 O 255.903 -1.32895 -1.21403 0
M  V30 2632 H 252.278 -0.700226 -0.274204 0
M  V30 2633 H 254.249 -2.97367 -0.248095 0
M  V30 2634 C 252.998 -2.83139 -2.0181 0
M  V30 2635 H 252.321 -3.62863 -1.67841 0
M  V30 2636 H 253.761 -3.29894 -2.66357 0
M  V30 2637 C 252.22 -1.82244 -2.83353 0
M  V30 2638 O 252.75 -1.3 -3.80083 0
M  V30 2639 N 250.956 -1.51288 -2.48114 0
M  V30 2640 H 250.503 -1.93964 -1.69516 0
M  V30 2641 H 250.461 -0.840296 -3.02963 0
M  V30 2642 N 254.233 0.115231 -1.57178 0
M  V30 2643 C 255.458 0.840354 -1.89612 0
M  V30 2644 C 255.883 1.72464 -0.750845 0
M  V30 2645 O 255.241 1.78826 0.298478 0
M  V30 2646 C 255.289 1.64654 -3.20814 0
M  V30 2647 O 254.393 2.7538 -3.06985 0
M  V30 2648 H 253.734 0.232158 -0.622092 0
M  V30 2649 H 256.264 0.0964977 -2.04372 0
M  V30 2650 H 256.274 2.03499 -3.53627 0
M  V30 2651 H 254.949 0.997416 -4.03763 0
M  V30 2652 H 253.526 2.3971 -2.85646 0
M  V30 2653 N 255.711 1.52812 0.385517 0
M  V30 2654 C 257.127 1.4214 0.725829 0
M  V30 2655 C 257.327 0.544589 1.94001 0
M  V30 2656 O 256.383 0.0193693 2.52493 0
M  V30 2657 C 257.696 2.85042 0.957668 0
M  V30 2658 C 259.244 2.94543 1.05892 0
M  V30 2659 C 259.719 4.38464 1.32337 0
M  V30 2660 N 261.21 4.41804 1.39151 0
M  V30 2661 C 261.945 5.5025 1.61285 0
M  V30 2662 N 261.441 6.68775 1.80866 0
M  V30 2663 N 263.234 5.37798 1.63492 0
M  V30 2664 H 255.385 2.08338 -0.413383 0
M  V30 2665 H 257.648 0.940016 -0.122775 0
M  V30 2666 H 257.354 3.51431 0.137568 0
M  V30 2667 H 257.228 3.27505 1.87137 0
M  V30 2668 H 259.615 2.28321 1.86959 0
M  V30 2669 H 259.696 2.55504 0.123057 0
M  V30 2670 H 259.34 5.05254 0.517793 0
M  V30 2671 H 259.27 4.75059 2.27214 0
M  V30 2672 H 261.761 3.56377 1.25713 0
M  V30 2673 H 262.074 7.47197 1.97271 0
M  V30 2674 H 260.419 6.71797 1.78083 0
M  V30 2675 H 263.61 4.44171 1.47749 0
M  V30 2676 H 263.783 6.22382 1.80402 0
M  V30 2677 N 257.189 -0.644168 1.43834 0
M  V30 2678 C 258.435 -1.40603 1.46146 0
M  V30 2679 C 258.768 -1.93997 0.0887717 0
M  V30 2680 O 258.043 -1.72854 -0.891724 0
M  V30 2681 C 258.326 -2.58086 2.51124 0
M  V30 2682 C 258.179 -2.10126 3.97702 0
M  V30 2683 C 259.498 -3.60291 2.52742 0
M  V30 2684 H 256.617 -0.509905 0.532134 0
M  V30 2685 H 259.259 -0.729502 1.75437 0
M  V30 2686 H 257.409 -3.15801 2.26278 0
M  V30 2687 H 259.081 -1.57342 4.33637 0
M  V30 2688 H 257.324 -1.41419 4.10101 0
M  V30 2689 H 257.995 -2.94649 4.66783 0
M  V30 2690 H 260.471 -3.12352 2.7491 0
M  V30 2691 H 259.347 -4.40032 3.28121 0
M  V30 2692 H 259.608 -4.1349 1.56455 0
M  V30 2693 N 258.668 -1.30515 -0.883378 0
M  V30 2694 C 259.578 -1.18959 -2.02203 0
M  V30 2695 C 260.594 -0.109172 -1.73657 0
M  V30 2696 O 261.77 -0.324413 -1.9877 0
M  V30 2697 C 258.835 -0.883871 -3.35244 0
M  V30 2698 C 257.896 -2.04982 -3.77201 0
M  V30 2699 C 257.129 -1.75859 -5.03894 0
M  V30 2700 O 257.352 -0.687276 -5.66244 0
M  V30 2701 O 256.286 -2.61146 -5.42297 0
M  V30 2702 H 260.112 -2.14616 -2.1488 0
M  V30 2703 H 257.697 -1.10124 -1.0096 0
M  V30 2704 H 259.579 -0.728644 -4.15053 0
M  V30 2705 H 258.254 0.0427798 -3.23672 0
M  V30 2706 H 257.161 -2.26038 -2.9809 0
M  V30 2707 H 258.494 -2.95825 -3.93381 0
M  V30 2708 N 260.146 1.09593 -1.13257 0
M  V30 2709 C 261.386 1.83349 -0.903472 0
M  V30 2710 C 261.75 1.83641 0.560351 0
M  V30 2711 O 262.951 2.53037 0.906947 0
M  V30 2712 C 261.222 3.25629 -1.47311 0
M  V30 2713 S 262.781 4.16408 -1.38382 0
M  V30 2714 H 259.599 0.632014 -0.325699 0
M  V30 2715 H 262.201 1.31817 -1.44376 0
M  V30 2716 H 260.905 3.22991 -2.53189 0
M  V30 2717 H 260.436 3.82233 -0.930689 0
M  V30 2718 H 262.451 4.94884 -0.361113 0
M  V30 2719 N 261.624 0.925811 1.2754 0
M  V30 2720 C 262.873 0.561084 1.93739 0
M  V30 2721 C 263.186 -0.901685 1.73577 0
M  V30 2722 O 264.392 -1.37511 2.34101 0
M  V30 2723 C 262.848 0.952668 3.47062 0
M  V30 2724 C 262.456 2.43599 3.75983 0
M  V30 2725 C 264.2 0.659103 4.19352 0
M  V30 2726 C 262.107 2.76707 5.22673 0
M  V30 2727 H 261.037 0.206122 0.725279 0
M  V30 2728 H 263.688 1.12637 1.44863 0
M  V30 2729 H 262.07 0.316053 3.94737 0
M  V30 2730 H 263.244 3.12035 3.39073 0
M  V30 2731 H 261.559 2.70125 3.16893 0
M  V30 2732 H 264.156 0.882985 5.27359 0
M  V30 2733 H 264.499 -0.403607 4.14339 0
M  V30 2734 H 265.032 1.25473 3.77494 0
M  V30 2735 H 261.771 3.8188 5.32774 0
M  V30 2736 H 261.291 2.12919 5.60737 0
M  V30 2737 H 262.97 2.6435 5.90532 0
M  V30 2738 N 263.102 -1.41638 0.69111 0
M  V30 2739 C 264.35 -2.00902 0.219758 0
M  V30 2740 C 264.671 -1.54994 -1.18329 0
M  V30 2741 O 263.941 -0.778628 -1.79762 0
M  V30 2742 H 262.521 -0.74289 0.0782558 0
M  V30 2743 H 265.183 -1.73327 0.891271 0
M  V30 2744 H 264.279 -3.11224 0.233708 0
M  V30 2745 N 264.58 -0.43555 -1.51462 0
M  V30 2746 C 265.826 0.123979 -2.03022 0
M  V30 2747 C 266.181 1.4054 -1.31401 0
M  V30 2748 O 265.474 1.86948 -0.419634 0
M  V30 2749 C 265.668 0.39942 -3.55161 0
M  V30 2750 C 265.497 -0.853754 -4.41521 0
M  V30 2751 C 264.267 -1.38675 -4.85898 0
M  V30 2752 C 266.465 -1.73939 -4.83994 0
M  V30 2753 N 264.447 -2.59265 -5.56466 0
M  V30 2754 C 265.818 -2.79135 -5.5361 0
M  V30 2755 C 267.873 -1.75402 -4.65981 0
M  V30 2756 C 266.576 -3.85737 -6.07124 0
M  V30 2757 C 268.602 -2.80938 -5.20411 0
M  V30 2758 C 267.964 -3.84854 -5.89972 0
M  V30 2759 H 264.063 0.00624887 -0.781975 0
M  V30 2760 H 266.647 -0.59582 -1.85359 0
M  V30 2761 H 264.818 1.08825 -3.72843 0
M  V30 2762 H 266.55 0.95015 -3.93388 0
M  V30 2763 H 263.305 -0.94094 -4.64159 0
M  V30 2764 H 263.729 -3.2041 -5.96378 0
M  V30 2765 H 268.371 -0.963926 -4.11665 0
M  V30 2766 H 266.089 -4.65586 -6.60496 0
M  V30 2767 H 269.675 -2.8301 -5.08327 0
M  V30 2768 H 268.555 -4.65176 -6.31333 0
M  V30 2769 N 266.058 1.56714 -0.166846 0
M  V30 2770 C 267.283 2.01557 0.488833 0
M  V30 2771 C 267.708 1.0463 1.56314 0
M  V30 2772 O 267.066 0.0251304 1.81283 0
M  V30 2773 C 267.114 3.4503 1.04818 0
M  V30 2774 O 266.218 3.51163 2.16236 0
M  V30 2775 H 265.559 0.653516 0.117526 0
M  V30 2776 H 268.089 2.02818 -0.269421 0
M  V30 2777 H 268.099 3.84243 1.37191 0
M  V30 2778 H 266.774 4.15077 0.261572 0
M  V30 2779 H 265.351 3.23807 1.84942 0
M  V30 2780 N 267.536 -0.106894 1.57237 0
M  V30 2781 C 268.761 -0.830287 1.90055 0
M  V30 2782 C 269.186 -1.72064 0.75998 0
M  V30 2783 O 268.544 -1.78982 -0.288991 0
M  V30 2784 C 268.592 -1.6295 3.21683 0
M  V30 2785 O 267.696 -2.73748 3.08441 0
M  V30 2786 H 267.037 -0.228855 0.623315 0
M  V30 2787 H 269.567 -0.085658 2.04421 0
M  V30 2788 H 269.577 -2.01621 3.54701 0
M  V30 2789 H 268.252 -0.975989 4.04286 0
M  V30 2790 H 266.829 -2.38192 2.86913 0
M  V30 2791 N 269.014 -1.53014 -0.377408 0
M  V30 2792 C 270.242 -1.72515 -1.14219 0
M  V30 2793 C 270.657 -0.448735 -1.8339 0
M  V30 2794 O 270.014 0.577592 -1.73119 0
M  V30 2795 C 270.065 -2.8826 -2.18148 0
M  V30 2796 O 269.786 -4.10962 -1.51795 0
M  V30 2797 C 271.287 -3.19536 -3.07264 0
M  V30 2798 H 268.507 -0.577301 -0.342001 0
M  V30 2799 H 271.051 -1.99712 -0.439935 0
M  V30 2800 H 269.206 -2.63492 -2.83991 0
M  V30 2801 H 269.62 -4.75693 -2.20945 0
M  V30 2802 H 271.094 -4.03959 -3.76193 0
M  V30 2803 H 271.571 -2.34403 -3.71419 0
M  V30 2804 H 272.177 -3.46186 -2.47053 0
M  V30 2805 N 270.492 0.636531 -1.44174 0
M  V30 2806 C 271.717 1.42847 -1.50364 0
M  V30 2807 C 272.142 1.87665 -0.127867 0
M  V30 2808 O 271.5 1.58408 0.88185 0
M  V30 2809 C 271.548 2.62854 -2.4686 0
M  V30 2810 O 270.652 3.62501 -1.9664 0
M  V30 2811 H 269.993 0.427642 -0.507955 0
M  V30 2812 H 272.523 0.777422 -1.89255 0
M  V30 2813 H 272.533 3.10465 -2.64718 0
M  V30 2814 H 271.208 2.29578 -3.46795 0
M  V30 2815 H 269.785 3.21735 -1.88523 0
M  V30 2816 N 271.97 1.30982 0.876444 0
M  V30 2817 C 273.21 1.21589 1.64303 0
M  V30 2818 C 273.574 -0.223962 1.90689 0
M  V30 2819 O 274.775 -0.44128 2.65153 0
M  V30 2820 C 273.046 2.03007 2.94148 0
M  V30 2821 S 274.605 2.10405 3.85065 0
M  V30 2822 H 271.423 0.433161 0.563819 0
M  V30 2823 H 274.025 1.65565 1.03964 0
M  V30 2824 H 272.729 3.06719 2.72675 0
M  V30 2825 H 272.26 1.59725 3.59515 0
M  V30 2826 H 274.275 1.23765 4.80517 0
M  V30 2827 N 273.449 -1.08991 1.13837 0
M  V30 2828 C 274.399 -2.1393 0.788535 0
M  V30 2829 C 275.383 -1.59396 -0.219516 0
M  V30 2830 O 276.575 -1.76985 -0.0227557 0
M  V30 2831 C 273.704 -3.42305 0.261147 0
M  V30 2832 C 272.79 -4.03736 1.29837 0
M  V30 2833 N 273.181 -4.39659 2.50067 0
M  V30 2834 C 271.479 -4.30993 1.1472 0
M  V30 2835 C 272.18 -4.88113 3.16419 0
M  V30 2836 N 271.156 -4.85846 2.43832 0
M  V30 2837 H 274.958 -2.39516 1.70322 0
M  V30 2838 H 272.472 -1.26263 1.02134 0
M  V30 2839 H 274.469 -4.16899 -0.0077405 0
M  V30 2840 H 273.129 -3.18172 -0.647805 0
M  V30 2841 H 274.14 -4.30878 2.8734 0
M  V30 2842 H 270.817 -4.16444 0.296773 0
M  V30 2843 H 272.207 -5.25336 4.18894 0
M  V30 2844 N 274.927 -0.932562 -1.27047 0
M  V30 2845 C 276.204 -0.49377 -1.89265 0
M  V30 2846 C 276.584 1.02833 -1.8436 0
M  V30 2847 O 275.932 1.88461 -1.29209 0
M  V30 2848 C 276.142 -1.04536 -3.32976 0
M  V30 2849 C 277.49 -1.10879 -4.09867 0
M  V30 2850 O 278.514 -0.995327 -3.42011 0
M  V30 2851 O 277.373 -1.28417 -5.31198 0
M  V30 2852 H 274.467 -0.159596 -0.811454 0
M  V30 2853 H 277.013 -1.02457 -1.3528 0
M  V30 2854 H 275.785 -2.08913 -3.30864 0
M  V30 2855 H 275.408 -0.496494 -3.94488 0
M  V30 2856 N 276.405 1.4127 -0.698611 0
M  V30 2857 C 277.653 2.00782 -0.230409 0
M  V30 2858 C 277.974 1.5562 1.17505 0
M  V30 2859 O 277.244 0.78815 1.79346 0
M  V30 2860 H 275.824 0.742464 -0.0821944 0
M  V30 2861 H 278.486 1.72852 -0.90045 0
M  V30 2862 H 277.582 3.11095 -0.25021 0
M  V30 2863 N 277.883 0.443576 1.51229 0
M  V30 2864 C 278.83 -0.364716 2.279 0
M  V30 2865 C 279.8 -1.0114 1.31757 0
M  V30 2866 O 280.985 -1.02912 1.60667 0
M  V30 2867 C 278.125 -1.45644 3.12861 0
M  V30 2868 C 277.238 -0.827269 4.24005 0
M  V30 2869 C 276.373 -1.89456 4.96266 0
M  V30 2870 C 275.412 -1.24416 5.99322 0
M  V30 2871 N 274.549 -2.25309 6.64966 0
M  V30 2872 H 279.389 0.295464 2.96532 0
M  V30 2873 H 276.926 0.157554 1.46254 0
M  V30 2874 H 278.884 -2.10076 3.6045 0
M  V30 2875 H 277.514 -2.08616 2.46331 0
M  V30 2876 H 276.566 -0.0710839 3.80334 0
M  V30 2877 H 277.878 -0.312481 4.9782 0
M  V30 2878 H 277.032 -2.61535 5.47434 0
M  V30 2879 H 275.771 -2.4431 4.22095 0
M  V30 2880 H 274.776 -0.508868 5.4744 0
M  V30 2881 H 276.001 -0.702882 6.75453 0
M  V30 2882 H 273.947 -2.79231 5.93604 0
M  V30 2883 H 273.864 -1.78739 7.34567 0
M  V30 2884 H 275.132 -2.96853 7.20763 0
M  V30 2885 N 279.361 -1.56624 0.175154 0
M  V30 2886 C 280.589 -2.01374 -0.474971 0
M  V30 2887 C 281.004 -1.05537 -1.56548 0
M  V30 2888 O 280.361 -0.0568668 -1.82411 0
M  V30 2889 C 280.412 -3.45923 -1.04975 0
M  V30 2890 O 280.133 -4.381 -0.00276605 0
M  V30 2891 C 281.634 -4.06093 -1.77773 0
M  V30 2892 H 278.854 -0.659962 -0.121206 0
M  V30 2893 H 281.398 -2.02601 0.27801 0
M  V30 2894 H 279.553 -3.45458 -1.75321 0
M  V30 2895 H 279.967 -5.22753 -0.427681 0
M  V30 2896 H 281.441 -5.09147 -2.13245 0
M  V30 2897 H 281.918 -3.48405 -2.67414 0
M  V30 2898 H 282.524 -4.10272 -1.12059 0
M  V30 2899 N 280.839 0.0985539 -1.57292 0
M  V30 2900 C 282.255 0.45267 -1.53046 0
M  V30 2901 C 282.455 1.80713 -0.891342 0
M  V30 2902 O 281.511 2.4785 -0.482375 0
M  V30 2903 C 282.824 0.418341 -2.97776 0
M  V30 2904 C 284.372 0.500443 -3.08973 0
M  V30 2905 C 284.847 0.496297 -4.55303 0
M  V30 2906 N 286.338 0.557151 -4.59837 0
M  V30 2907 C 287.073 0.575726 -5.70502 0
M  V30 2908 N 286.569 0.550714 -6.90608 0
M  V30 2909 N 288.362 0.620277 -5.58667 0
M  V30 2910 H 280.513 -0.788673 -1.97215 0
M  V30 2911 H 282.776 -0.293188 -0.901524 0
M  V30 2912 H 282.482 -0.509659 -3.47988 0
M  V30 2913 H 282.356 1.2386 -3.56284 0
M  V30 2914 H 284.743 1.41886 -2.58751 0
M  V30 2915 H 284.824 -0.347894 -2.53423 0
M  V30 2916 H 284.468 -0.418162 -5.06176 0
M  V30 2917 H 284.398 1.3618 -5.08687 0
M  V30 2918 H 286.889 0.581816 -3.73394 0
M  V30 2919 H 287.202 0.568075 -7.70709 0
M  V30 2920 H 285.547 0.517816 -6.93068 0
M  V30 2921 H 288.738 0.637322 -4.63741 0
M  V30 2922 H 288.911 0.631283 -6.44918 0
M  V30 2923 N 282.317 1.53212 0.369288 0
M  V30 2924 C 283.25 1.74166 1.4745 0
M  V30 2925 C 284.228 0.589923 1.51521 0
M  V30 2926 O 285.412 0.822078 1.69629 0
M  V30 2927 C 282.539 1.81711 2.8583 0
M  V30 2928 C 281.585 3.03649 2.99499 0
M  V30 2929 S 282.418 4.63242 2.6864 0
M  V30 2930 C 283.574 4.7363 4.09177 0
M  V30 2931 H 283.807 2.67636 1.29454 0
M  V30 2932 H 281.34 1.43754 0.563396 0
M  V30 2933 H 283.298 1.86743 3.65564 0
M  V30 2934 H 281.959 0.89299 3.01139 0
M  V30 2935 H 281.152 3.05526 4.00836 0
M  V30 2936 H 280.754 2.9671 2.27683 0
M  V30 2937 H 283.046 4.53456 5.03372 0
M  V30 2938 H 283.989 5.75682 4.12306 0
M  V30 2939 H 284.397 4.02295 3.96004 0
M  V30 2940 N 283.795 -0.628877 1.44509 0
M  V30 2941 C 285.02 -1.42048 1.5112 0
M  V30 2942 C 285.445 -1.87594 0.137818 0
M  V30 2943 O 284.803 -1.58873 -0.873437 0
M  V30 2944 C 284.851 -2.61541 2.48251 0
M  V30 2945 O 283.955 -3.61453 1.98559 0
M  V30 2946 H 283.296 -0.424942 0.510216 0
M  V30 2947 H 285.826 -0.767374 1.89664 0
M  V30 2948 H 285.836 -3.09057 2.66361 0
M  V30 2949 H 284.511 -2.27736 3.48007 0
M  V30 2950 H 283.088 -3.20731 1.90227 0
M  V30 2951 N 285.273 -1.31445 -0.869486 0
M  V30 2952 C 286.522 -1.20517 -1.61736 0
M  V30 2953 C 286.835 0.235341 -1.94179 0
M  V30 2954 O 288.041 0.466312 -2.67465 0
M  V30 2955 C 286.497 -2.10982 -2.91573 0
M  V30 2956 C 286.105 -3.60032 -2.66611 0
M  V30 2957 C 287.849 -2.08856 -3.69567 0
M  V30 2958 C 285.756 -4.42503 -3.92358 0
M  V30 2959 H 284.686 -0.447493 -0.606849 0
M  V30 2960 H 287.337 -1.56303 -0.96133 0
M  V30 2961 H 285.719 -1.68095 -3.58553 0
M  V30 2962 H 286.893 -4.11167 -2.08035 0
M  V30 2963 H 285.208 -3.64139 -2.0197 0
M  V30 2964 H 287.805 -2.67716 -4.62852 0
M  V30 2965 H 288.148 -1.07582 -4.02159 0
M  V30 2966 H 288.681 -2.49945 -3.09471 0
M  V30 2967 H 285.42 -5.44533 -3.64916 0
M  V30 2968 H 284.94 -3.96125 -4.50383 0
M  V30 2969 H 286.619 -4.54741 -4.60238 0
M  V30 2970 N 286.751 1.08385 -1.14413 0
M  V30 2971 C 287.991 1.8238 -0.922868 0
M  V30 2972 C 288.355 1.84225 0.540842 0
M  V30 2973 O 289.556 2.53985 0.880058 0
M  V30 2974 C 287.827 3.24048 -1.50757 0
M  V30 2975 S 289.386 4.14917 -1.4279 0
M  V30 2976 H 286.204 0.628524 -0.332384 0
M  V30 2977 H 288.806 1.30278 -1.45766 0
M  V30 2978 H 287.51 3.20288 -2.56601 0
M  V30 2979 H 287.041 3.81224 -0.971178 0
M  V30 2980 H 289.056 4.94473 -0.413582 0
M  V30 2981 N 288.23 0.939286 1.26551 0
M  V30 2982 C 289.479 0.581601 1.93133 0
M  V30 2983 C 289.792 -0.883224 1.74524 0
M  V30 2984 O 290.998 -1.3502 2.35546 0
M  V30 2985 C 289.454 0.989425 3.46032 0
M  V30 2986 C 289.062 2.47573 3.73379 0
M  V30 2987 C 290.806 0.703544 4.18629 0
M  V30 2988 C 288.713 2.82235 5.19709 0
M  V30 2989 H 287.643 0.213803 0.723052 0
M  V30 2990 H 290.294 1.14167 1.4366 0
M  V30 2991 H 288.676 0.357902 3.94379 0
M  V30 2992 H 289.85 3.15614 3.35744 0
M  V30 2993 H 288.165 2.73471 3.1401 0
M  V30 2994 H 290.762 0.938869 5.26393 0
M  V30 2995 H 291.105 -0.359639 4.14744 0
M  V30 2996 H 291.638 1.2947 3.76141 0
M  V30 2997 H 288.377 3.87509 5.28694 0
M  V30 2998 H 287.897 2.18854 5.58447 0
M  V30 2999 H 289.576 2.70599 5.87695 0
M  V30 3000 N 289.708 -1.40897 0.706093 0
M  V30 3001 C 290.933 -2.05895 0.249435 0
M  V30 3002 C 291.358 -1.52823 -1.09666 0
M  V30 3003 O 290.716 -0.659589 -1.68876 0
M  V30 3004 C 290.764 -3.59872 0.22904 0
M  V30 3005 O 289.868 -4.04708 -0.792784 0
M  V30 3006 H 289.209 -0.653206 0.119241 0
M  V30 3007 H 291.739 -1.80471 0.96391 0
M  V30 3008 H 291.749 -4.07951 0.0634791 0
M  V30 3009 H 290.424 -3.97866 1.21141 0
M  V30 3010 H 289.001 -3.68111 -0.59572 0
M  V30 3011 N 291.186 -0.45159 -1.50991 0
M  V30 3012 C 292.434 0.109857 -2.01801 0
M  V30 3013 C 292.755 1.41958 -1.3369 0
M  V30 3014 O 292.025 1.9003 -0.475951 0
M  V30 3015 H 290.605 0.0435884 -0.745727 0
M  V30 3016 H 293.267 -0.597557 -1.85514 0
M  V30 3017 H 292.363 0.275489 -3.10882 0
M  V30 3018 N 292.664 1.56529 -0.183458 0
M  V30 3019 C 294.075 1.83739 0.331177 0
M  V30 3020 C 294.426 1.10373 1.62211 0
M  V30 3021 O 293.551 0.36071 2.13373 0
M  V30 3022 C 294.146 3.33306 0.607646 0
M  V30 3023 C 292.705 3.60969 1.06668 0
M  V30 3024 C 291.852 2.77086 0.109029 0
M  V30 3025 H 294.803 1.53379 -0.407484 0
M  V30 3026 H 294.824 3.51444 1.45832 0
M  V30 3027 H 294.336 3.86677 -0.332086 0
M  V30 3028 H 292.437 3.13021 2.0211 0
M  V30 3029 H 292.55 4.69231 0.967447 0
M  V30 3030 H 290.914 2.47319 0.608714 0
M  V30 3031 H 291.697 3.33241 -0.82494 0
M  V30 3032 N 294.142 -0.090211 1.57342 0
M  V30 3033 C 295.09 -1.12792 2.03422 0
M  V30 3034 C 296.084 -1.41182 0.936166 0
M  V30 3035 O 297.29 -1.40805 1.12133 0
M  V30 3036 H 293.665 -0.380986 0.648347 0
M  V30 3037 H 295.636 -0.71299 2.89757 0
M  V30 3038 C 294.385 -2.43855 2.47851 0
M  V30 3039 H 293.708 -2.22855 3.31927 0
M  V30 3040 H 295.148 -3.14955 2.83865 0
M  V30 3041 C 293.607 -3.08503 1.3538 0
M  V30 3042 O 294.137 -3.95805 0.685641 0
M  V30 3043 N 292.343 -2.68831 1.10355 0
M  V30 3044 H 291.89 -1.97929 1.64869 0
M  V30 3045 H 291.848 -3.12412 0.353031 0
M  V30 3046 N 295.62 -1.53406 -0.361157 0
M  V30 3047 C 296.568 -1.80832 -1.46296 0
M  V30 3048 C 297.562 -0.677699 -1.55253 0
M  V30 3049 O 298.768 -0.860723 -1.58087 0
M  V30 3050 H 295.143 -0.572627 -0.487445 0
M  V30 3051 H 297.114 -2.73045 -1.20371 0
M  V30 3052 C 295.863 -2.01907 -2.8307 0
M  V30 3053 H 295.186 -2.88349 -2.76938 0
M  V30 3054 H 296.626 -2.25072 -3.59331 0
M  V30 3055 C 295.085 -0.799449 -3.27277 0
M  V30 3056 O 295.615 0.00971761 -4.01699 0
M  V30 3057 N 293.821 -0.621637 -2.83873 0
M  V30 3058 H 293.368 -1.28126 -2.23476 0
M  V30 3059 H 293.326 0.19298 -3.13807 0
M  V30 3060 N 297.098 0.621204 -1.44841 0
M  V30 3061 C 298.046 1.75385 -1.52784 0
M  V30 3062 C 299.04 1.64639 -0.398779 0
M  V30 3063 O 300.246 1.70598 -0.574137 0
M  V30 3064 H 296.621 0.579193 -0.479625 0
M  V30 3065 H 298.592 1.6581 -2.48092 0
M  V30 3066 C 297.341 3.13742 -1.4987 0
M  V30 3067 H 296.664 3.22663 -2.36069 0
M  V30 3068 H 298.104 3.92861 -1.59487 0
M  V30 3069 C 296.563 3.36175 -0.220973 0
M  V30 3070 O 297.093 3.95469 0.704782 0
M  V30 3071 N 295.299 2.90348 -0.120963 0
M  V30 3072 H 294.846 2.42278 -0.875162 0
M  V30 3073 H 294.804 3.05732 0.733168 0
M  V30 3074 N 298.576 1.31904 0.862503 0
M  V30 3075 C 299.539 1.20131 1.95195 0
M  V30 3076 C 300.539 0.126409 1.60302 0
M  V30 3077 O 301.729 0.376234 1.70089 0
M  V30 3078 C 298.861 0.845691 3.30244 0
M  V30 3079 H 300.054 2.16943 2.07064 0
M  V30 3080 H 297.607 1.15622 1.05172 0
M  V30 3081 H 298.342 -0.120957 3.24074 0
M  V30 3082 H 298.127 1.62276 3.56944 0
M  V30 3083 H 299.617 0.787418 4.10109 0
M  V30 3084 N 300.054 -1.07777 1.14986 0
M  V30 3085 C 301.279 -1.84558 0.946213 0
M  V30 3086 C 301.704 -1.81323 -0.500362 0
M  V30 3087 O 301.062 -1.20301 -1.35637 0
M  V30 3088 C 301.11 -3.29736 1.45968 0
M  V30 3089 O 300.214 -4.07149 0.65601 0
M  V30 3090 H 299.555 -0.571641 0.33782 0
M  V30 3091 H 302.085 -1.35991 1.52865 0
M  V30 3092 H 302.095 -3.80574 1.47063 0
M  V30 3093 H 300.77 -3.31406 2.51283 0
M  V30 3094 H 299.347 -3.65994 0.714322 0
M  V30 3095 N 301.532 -0.945985 -1.26051 0
M  V30 3096 C 302.495 -0.463897 -2.24456 0
M  V30 3097 C 303.495 0.427655 -1.55009 0
M  V30 3098 O 304.685 0.226157 -1.72726 0
M  V30 3099 C 301.817 0.330812 -3.39291 0
M  V30 3100 H 303.01 -1.33357 -2.68619 0
M  V30 3101 H 300.563 -0.728416 -1.38289 0
M  V30 3102 H 301.298 1.21852 -3.00537 0
M  V30 3103 H 301.083 -0.308679 -3.90883 0
M  V30 3104 H 302.573 0.657865 -4.12386 0
M  V30 3105 N 303.011 1.40521 -0.713556 0
M  V30 3106 C 304.257 2.01221 -0.252564 0
M  V30 3107 C 304.59 1.56444 1.1506 0
M  V30 3108 O 303.865 0.783597 1.78017 0
M  V30 3109 C 304.148 3.58582 -0.330332 0
M  V30 3110 C 304.001 4.13437 -1.77173 0
M  V30 3111 C 305.32 4.39079 0.299641 0
M  V30 3112 H 302.439 0.731077 -0.0932471 0
M  V30 3113 H 305.081 1.67026 -0.905673 0
M  V30 3114 H 303.231 3.87844 0.225737 0
M  V30 3115 H 304.903 3.9498 -2.38303 0
M  V30 3116 H 303.146 3.67801 -2.3001 0
M  V30 3117 H 303.817 5.22597 -1.77755 0
M  V30 3118 H 306.293 4.15735 -0.174139 0
M  V30 3119 H 305.169 5.4848 0.214771 0
M  V30 3120 H 305.43 4.19915 1.38288 0
M  V30 3121 N 304.489 0.459591 1.5075 0
M  V30 3122 C 305.738 -0.100971 2.01447 0
M  V30 3123 C 306.051 -1.41816 1.34713 0
M  V30 3124 O 307.257 -2.06299 1.76502 0
M  V30 3125 C 305.713 -0.23047 3.59161 0
M  V30 3126 C 305.321 1.0776 4.34847 0
M  V30 3127 C 307.065 -0.743608 4.17936 0
M  V30 3128 C 304.972 0.91253 5.84317 0
M  V30 3129 H 303.902 -0.0415102 0.752856 0
M  V30 3130 H 306.553 0.592742 1.73663 0
M  V30 3131 H 304.935 -0.987703 3.83485 0
M  V30 3132 H 306.109 1.8449 4.22256 0
M  V30 3133 H 304.424 1.52097 3.87628 0
M  V30 3134 H 307.021 -0.883959 5.27343 0
M  V30 3135 H 307.364 -1.73196 3.78562 0
M  V30 3136 H 307.897 -0.04408 3.97776 0
M  V30 3137 H 304.636 1.87391 6.28144 0
M  V30 3138 H 304.156 0.185422 5.99513 0
M  V30 3139 H 305.835 0.574547 6.44444 0
M  V30 3140 N 305.967 -1.56429 0.191757 0
M  V30 3141 C 307.213 -1.98541 -0.441943 0
M  V30 3142 C 307.568 -1.07646 -1.59468 0
M  V30 3143 O 306.861 -0.120191 -1.91223 0
M  V30 3144 C 307.055 -3.44449 -0.953384 0
M  V30 3145 C 306.884 -4.49456 0.148262 0
M  V30 3146 C 305.654 -5.01668 0.604781 0
M  V30 3147 C 307.852 -5.05336 0.95602 0
M  V30 3148 N 305.834 -5.90334 1.6846 0
M  V30 3149 C 307.205 -5.9064 1.88531 0
M  V30 3150 C 309.26 -4.87779 0.998811 0
M  V30 3151 C 307.963 -6.60264 2.85383 0
M  V30 3152 C 309.989 -5.58139 1.95537 0
M  V30 3153 C 309.351 -6.43187 2.8721 0
M  V30 3154 H 305.45 -0.771247 -0.129236 0
M  V30 3155 H 308.034 -1.92426 0.296682 0
M  V30 3156 H 306.205 -3.5107 -1.66146 0
M  V30 3157 H 307.937 -3.73533 -1.55741 0
M  V30 3158 H 304.692 -4.73183 0.198736 0
M  V30 3159 H 305.116 -6.39371 2.22561 0
M  V30 3160 H 309.758 -4.21705 0.304048 0
M  V30 3161 H 307.476 -7.25538 3.55837 0
M  V30 3162 H 311.062 -5.46532 1.99484 0
M  V30 3163 H 309.942 -6.96674 3.60022 0
M  V30 3164 N 307.445 0.0818655 -1.57387 0
M  V30 3165 C 308.675 0.794954 -1.90694 0
M  V30 3166 C 309.083 1.72147 -0.784982 0
M  V30 3167 O 308.426 1.81974 0.251196 0
M  V30 3168 C 308.488 1.65042 -3.19376 0
M  V30 3169 C 308.152 0.894337 -4.48164 0
M  V30 3170 C 309.149 0.21813 -5.19442 0
M  V30 3171 C 306.834 0.864495 -4.94805 0
M  V30 3172 C 308.828 -0.477802 -6.35607 0
M  V30 3173 C 306.515 0.164785 -6.10878 0
M  V30 3174 C 307.513 -0.505173 -6.81129 0
M  V30 3175 O 307.201 -1.19363 -7.94989 0
M  V30 3176 H 306.933 0.231779 -0.635023 0
M  V30 3177 H 309.487 0.059493 -2.05314 0
M  V30 3178 H 307.717 2.42844 -3.00938 0
M  V30 3179 H 309.406 2.24127 -3.38411 0
M  V30 3180 H 310.172 0.232558 -4.84442 0
M  V30 3181 H 306.051 1.37542 -4.40004 0
M  V30 3182 H 309.595 -1.00129 -6.90377 0
M  V30 3183 H 305.492 0.148249 -6.4533 0
M  V30 3184 H 306.26 -1.10188 -8.11049 0
M  V30 3185 N 308.923 1.53595 0.353017 0
M  V30 3186 C 309.871 1.81605 1.45335 0
M  V30 3187 C 310.865 0.685923 1.54892 0
M  V30 3188 O 312.071 0.869095 1.57628 0
M  V30 3189 H 308.446 0.575204 0.484401 0
M  V30 3190 H 310.417 2.73679 1.18921 0
M  V30 3191 C 309.166 2.03406 2.81995 0
M  V30 3192 H 308.489 2.89814 2.75405 0
M  V30 3193 H 309.929 2.26975 3.58132 0
M  V30 3194 C 308.388 0.816794 3.26849 0
M  V30 3195 O 308.918 0.0115856 4.01698 0
M  V30 3196 N 307.124 0.636682 2.8354 0
M  V30 3197 H 306.671 1.2931 2.22793 0
M  V30 3198 H 306.629 -0.176336 3.13905 0
M  V30 3199 N 310.401 -0.613514 1.45168 0
M  V30 3200 C 311.817 -0.933629 1.29443 0
M  V30 3201 C 312.017 -2.00028 0.243101 0
M  V30 3202 O 311.073 -2.49848 -0.364992 0
M  V30 3203 C 312.386 -1.38018 2.67155 0
M  V30 3204 C 313.934 -1.49471 2.75004 0
M  V30 3205 C 314.409 -1.97503 4.13227 0
M  V30 3206 N 315.9 -2.04746 4.15491 0
M  V30 3207 C 316.635 -2.43121 5.19307 0
M  V30 3208 N 316.131 -2.80506 6.33473 0
M  V30 3209 N 317.924 -2.43408 5.06664 0
M  V30 3210 H 310.075 0.0916097 2.12202 0
M  V30 3211 H 312.338 -0.0216655 0.947752 0
M  V30 3212 H 312.044 -0.670625 3.45247 0
M  V30 3213 H 311.918 -2.34784 2.95222 0
M  V30 3214 H 314.305 -2.19519 1.9722 0
M  V30 3215 H 314.386 -0.510342 2.50657 0
M  V30 3216 H 314.03 -1.28045 4.91495 0
M  V30 3217 H 313.96 -2.96843 4.34962 0
M  V30 3218 H 316.451 -1.78468 3.33103 0
M  V30 3219 H 316.764 -3.08652 7.08487 0
M  V30 3220 H 315.109 -2.78216 6.36884 0
M  V30 3221 H 318.3 -2.13604 4.16523 0
M  V30 3222 H 318.473 -2.72989 5.87691 0
M  V30 3223 N 311.879 -1.3236 -0.855495 0
M  V30 3224 C 313.295 -1.11332 -1.14356 0
M  V30 3225 C 313.495 0.106751 -2.01217 0
M  V30 3226 O 312.551 0.791891 -2.39761 0
M  V30 3227 C 313.864 -2.39237 -1.82171 0
M  V30 3228 C 315.412 -2.44986 -1.9481 0
M  V30 3229 C 315.887 -3.7281 -2.66039 0
M  V30 3230 N 317.378 -3.73787 -2.73565 0
M  V30 3231 C 318.113 -4.69394 -3.29327 0
M  V30 3232 N 317.609 -5.75367 -3.85907 0
M  V30 3233 N 319.402 -4.56893 -3.27423 0
M  V30 3234 H 311.553 -2.10586 -0.277027 0
M  V30 3235 H 313.816 -0.929701 -0.185364 0
M  V30 3236 H 313.522 -3.28431 -1.25802 0
M  V30 3237 H 313.396 -2.50134 -2.82335 0
M  V30 3238 H 315.783 -1.56252 -2.50338 0
M  V30 3239 H 315.864 -2.38043 -0.936448 0
M  V30 3240 H 315.508 -4.61918 -2.11174 0
M  V30 3241 H 315.438 -3.77024 -3.67642 0
M  V30 3242 H 317.929 -2.97189 -2.33424 0
M  V30 3243 H 318.242 -6.44378 -4.26611 0
M  V30 3244 H 316.587 -5.79123 -3.84242 0
M  V30 3245 H 319.778 -3.73269 -2.82467 0
M  V30 3246 H 319.951 -5.31577 -3.7058 0
M  V30 3247 N 313.357 1.07166 -1.15556 0
M  V30 3248 C 314.768 1.6127 -0.940693 0
M  V30 3249 C 315.119 1.89251 0.517551 0
M  V30 3250 O 314.244 1.65937 1.38903 0
M  V30 3251 C 314.839 2.92993 -1.7012 0
M  V30 3252 C 313.398 3.43832 -1.53156 0
M  V30 3253 C 312.545 2.1786 -1.71558 0
M  V30 3254 H 315.496 0.90229 -1.30554 0
M  V30 3255 H 315.517 3.62007 -1.17181 0
M  V30 3256 H 315.029 2.72596 -2.76248 0
M  V30 3257 H 313.13 3.69307 -0.494294 0
M  V30 3258 H 313.243 4.19747 -2.30975 0
M  V30 3259 H 311.607 2.2765 -1.14225 0
M  V30 3260 H 312.39 1.99956 -2.79056 0
M  V30 3261 N 314.835 0.952656 1.25548 0
M  V30 3262 C 316.081 0.607272 1.93494 0
M  V30 3263 C 316.414 -0.853245 1.74452 0
M  V30 3264 O 315.689 -1.61194 1.08843 0
M  V30 3265 C 315.972 0.96435 3.46947 0
M  V30 3266 C 315.825 2.48045 3.75225 0
M  V30 3267 C 317.144 0.487987 4.37386 0
M  V30 3268 H 314.263 0.222096 0.702739 0
M  V30 3269 H 316.905 1.18895 1.48203 0
M  V30 3270 H 315.055 0.469361 3.85654 0
M  V30 3271 H 316.727 3.04905 3.46166 0
M  V30 3272 H 314.97 2.919 3.209 0
M  V30 3273 H 315.641 2.6808 4.82532 0
M  V30 3274 H 318.117 0.912558 4.0597 0
M  V30 3275 H 316.993 0.766547 5.43521 0
M  V30 3276 H 317.254 -0.612063 4.37843 0
M  V30 3277 N 316.313 -1.40141 0.720998 0
M  V30 3278 C 317.541 -2.05096 0.272656 0
M  V30 3279 C 317.956 -1.54334 -1.0875 0
M  V30 3280 O 317.313 -0.702211 -1.6845 0
M  V30 3281 C 317.364 -3.60636 0.249835 0
M  V30 3282 O 317.085 -4.09526 1.55629 0
M  V30 3283 C 318.586 -4.42772 -0.216396 0
M  V30 3284 H 315.806 -0.659897 0.121558 0
M  V30 3285 H 318.35 -1.79449 0.980723 0
M  V30 3286 H 316.505 -3.85232 -0.409237 0
M  V30 3287 H 316.919 -5.03758 1.4604 0
M  V30 3288 H 318.393 -5.51702 -0.181212 0
M  V30 3289 H 318.87 -4.20756 -1.25941 0
M  V30 3290 H 319.476 -4.23294 0.412596 0
M  V30 3291 N 317.792 -0.46758 -1.50504 0
M  V30 3292 C 318.702 0.33382 -2.32213 0
M  V30 3293 C 319.718 0.999323 -1.42441 0
M  V30 3294 O 320.894 0.988068 -1.75497 0
M  V30 3295 C 317.959 1.4035 -3.17022 0
M  V30 3296 C 317.02 0.754961 -4.2261 0
M  V30 3297 C 316.253 1.77367 -5.03365 0
M  V30 3298 O 316.476 2.99976 -4.8515 0
M  V30 3299 O 315.41 1.34744 -5.86624 0
M  V30 3300 H 319.236 -0.334067 -3.01857 0
M  V30 3301 H 316.821 -0.229496 -1.47627 0
M  V30 3302 H 318.703 2.02318 -3.69656 0
M  V30 3303 H 317.378 2.05492 -2.5011 0
M  V30 3304 H 316.285 0.0964244 -3.73976 0
M  V30 3305 H 317.618 0.146545 -4.91982 0
M  V30 3306 N 319.27 1.56325 -0.20005 0
M  V30 3307 C 320.519 1.96895 0.437652 0
M  V30 3308 C 320.832 1.08999 1.62415 0
M  V30 3309 O 322.038 1.39372 2.32997 0
M  V30 3310 C 320.494 3.50198 0.830025 0
M  V30 3311 C 320.102 4.46765 -0.332461 0
M  V30 3312 C 321.846 3.99526 1.43453 0
M  V30 3313 C 319.753 5.91344 0.0811468 0
M  V30 3314 H 318.683 0.735209 0.167282 0
M  V30 3315 H 321.334 1.81148 -0.292853 0
M  V30 3316 H 319.716 3.61467 1.61734 0
M  V30 3317 H 320.89 4.47231 -1.11 0
M  V30 3318 H 319.205 4.07657 -0.848789 0
M  V30 3319 H 321.802 5.05025 1.75652 0
M  V30 3320 H 322.145 3.44122 2.34277 0
M  V30 3321 H 322.678 3.91393 0.71109 0
M  V30 3322 H 319.417 6.50685 -0.793033 0
M  V30 3323 H 318.937 5.94121 0.823445 0
M  V30 3324 H 320.616 6.44945 0.515252 0
M  V30 3325 N 320.748 -0.0735177 1.57428 0
M  V30 3326 C 321.696 -1.10628 2.04607 0
M  V30 3327 C 322.69 -1.40181 0.951088 0
M  V30 3328 O 323.896 -1.39608 1.1362 0
M  V30 3329 H 320.271 -0.374088 0.652351 0
M  V30 3330 H 322.242 -0.682218 2.90497 0
M  V30 3331 C 320.991 -2.41212 2.50423 0
M  V30 3332 H 320.314 -2.19322 3.34272 0
M  V30 3333 H 321.754 -3.11927 2.87189 0
M  V30 3334 C 320.213 -3.0705 1.38644 0
M  V30 3335 O 320.743 -3.95056 0.727582 0
M  V30 3336 N 318.949 -2.67645 1.132 0
M  V30 3337 H 318.496 -1.96169 1.66959 0
M  V30 3338 H 318.454 -3.1202 0.386147 0
M  V30 3339 N 322.226 -1.5378 -0.344866 0
M  V30 3340 C 323.454 -1.74899 -1.10534 0
M  V30 3341 C 323.869 -0.487534 -1.82397 0
M  V30 3342 O 323.226 0.540741 -1.74305 0
M  V30 3343 C 323.277 -2.92822 -2.11984 0
M  V30 3344 O 322.998 -4.14089 -1.43044 0
M  V30 3345 C 324.499 -3.25982 -3.00417 0
M  V30 3346 H 321.719 -0.584426 -0.329678 0
M  V30 3347 H 324.263 -2.006 -0.397474 0
M  V30 3348 H 322.418 -2.69457 -2.78338 0
M  V30 3349 H 322.832 -4.80272 -2.10805 0
M  V30 3350 H 324.306 -4.11848 -3.67539 0
M  V30 3351 H 324.783 -2.42228 -3.66363 0
M  V30 3352 H 325.389 -3.51349 -2.39654 0
M  V30 3353 N 323.704 0.605807 -1.45491 0
M  V30 3354 C 324.95 1.36481 -1.50813 0
M  V30 3355 C 325.305 1.91826 -0.148469 0
M  V30 3356 O 324.598 1.72211 0.839869 0
M  V30 3357 C 324.792 2.53012 -2.52428 0
M  V30 3358 C 324.621 2.09078 -3.98141 0
M  V30 3359 C 323.391 1.95167 -4.66088 0
M  V30 3360 C 325.589 1.66438 -4.86624 0
M  V30 3361 N 323.571 1.45062 -5.96515 0
M  V30 3362 C 324.942 1.27761 -6.06694 0
M  V30 3363 C 326.997 1.54046 -4.7347 0
M  V30 3364 C 325.7 0.779286 -7.15066 0
M  V30 3365 C 327.726 1.05618 -5.81892 0
M  V30 3366 C 327.088 0.67906 -7.01119 0
M  V30 3367 H 323.187 0.493267 -0.606805 0
M  V30 3368 H 325.771 0.692347 -1.81974 0
M  V30 3369 H 323.942 3.17851 -2.23215 0
M  V30 3370 H 325.674 3.19897 -2.47887 0
M  V30 3371 H 322.429 2.16407 -4.21266 0
M  V30 3372 H 322.853 1.22237 -6.65873 0
M  V30 3373 H 327.495 1.81827 -3.81705 0
M  V30 3374 H 325.213 0.489026 -8.06619 0
M  V30 3375 H 328.799 0.964529 -5.73749 0
M  V30 3376 H 327.679 0.310091 -7.83587 0
M  V30 3377 N 325.182 1.32811 0.848464 0
M  V30 3378 C 326.145 1.22194 1.9391 0
M  V30 3379 C 327.145 0.143404 1.60159 0
M  V30 3380 O 328.335 0.394253 1.6968 0
M  V30 3381 C 325.467 0.88067 3.29328 0
M  V30 3382 H 326.66 2.19127 2.04752 0
M  V30 3383 H 324.213 1.16731 1.0394 0
M  V30 3384 H 324.948 -0.0865776 3.24184 0
M  V30 3385 H 324.733 1.66052 3.55203 0
M  V30 3386 H 326.223 0.830871 4.09251 0
M  V30 3387 N 326.66 -1.06551 1.16123 0
M  V30 3388 C 328.076 -1.3142 0.905585 0
M  V30 3389 C 328.276 -1.96571 -0.442964 0
M  V30 3390 O 327.332 -2.23068 -1.18308 0
M  V30 3391 C 328.645 -2.19741 2.05267 0
M  V30 3392 C 330.193 -2.33165 2.08813 0
M  V30 3393 C 330.668 -3.24838 3.22868 0
M  V30 3394 N 332.159 -3.32421 3.22568 0
M  V30 3395 C 332.894 -4.0344 4.0746 0
M  V30 3396 N 332.39 -4.77003 5.02434 0
M  V30 3397 N 334.183 -3.99464 3.95456 0
M  V30 3398 H 326.334 -0.626548 2.02949 0
M  V30 3399 H 328.597 -0.338777 0.8854 0
M  V30 3400 H 328.303 -1.79142 3.02657 0
M  V30 3401 H 328.177 -3.20313 1.99198 0
M  V30 3402 H 330.564 -2.73013 1.12018 0
M  V30 3403 H 330.645 -1.3227 2.18948 0
M  V30 3404 H 330.289 -2.85708 4.19921 0
M  V30 3405 H 330.219 -4.25707 3.0997 0
M  V30 3406 H 332.71 -2.79994 2.53795 0
M  V30 3407 H 333.023 -5.28712 5.63634 0
M  V30 3408 H 331.368 -4.75992 5.06415 0
M  V30 3409 H 334.559 -3.4111 3.20564 0
M  V30 3410 H 334.732 -4.54544 4.61837 0
M  V30 3411 N 328.138 -0.959301 -1.25041 0
M  V30 3412 C 329.086 -0.474437 -2.2771 0
M  V30 3413 C 330.08 0.457697 -1.631 0
M  V30 3414 O 331.286 0.333912 -1.76876 0
M  V30 3415 H 327.661 -0.134936 -0.739795 0
M  V30 3416 H 329.632 -1.35251 -2.65988 0
M  V30 3417 C 328.381 0.227884 -3.46952 0
M  V30 3418 H 327.704 -0.480248 -3.96905 0
M  V30 3419 H 329.144 0.531091 -4.20661 0
M  V30 3420 C 327.603 1.452 -3.04004 0
M  V30 3421 O 328.133 2.54949 -3.10426 0
M  V30 3422 N 326.339 1.31502 -2.59144 0
M  V30 3423 H 325.886 0.422065 -2.54119 0
M  V30 3424 H 325.844 2.13521 -2.30773 0
M  V30 3425 N 329.616 1.39756 -0.72842 0
M  V30 3426 C 330.865 1.99879 -0.270407 0
M  V30 3427 C 331.178 1.58449 1.14688 0
M  V30 3428 O 332.384 2.11362 1.70407 0
M  V30 3429 C 330.84 3.57292 -0.43252 0
M  V30 3430 C 330.448 4.07688 -1.85727 0
M  V30 3431 C 332.192 4.24485 -0.0359507 0
M  V30 3432 C 330.099 5.5765 -1.96928 0
M  V30 3433 H 329.029 0.747689 -0.0973472 0
M  V30 3434 H 331.68 1.59837 -0.901355 0
M  V30 3435 H 330.062 3.95097 0.267219 0
M  V30 3436 H 331.236 3.81231 -2.58843 0
M  V30 3437 H 329.551 3.53135 -2.20646 0
M  V30 3438 H 332.148 5.34609 -0.0987484 0
M  V30 3439 H 332.491 4.03915 1.00787 0
M  V30 3440 H 333.024 3.9183 -0.686604 0
M  V30 3441 H 329.763 5.8309 -2.99476 0
M  V30 3442 H 329.283 5.8593 -1.28241 0
M  V30 3443 H 330.962 6.22957 -1.74737 0
M  V30 3444 N 331.094 0.475555 1.50254 0
M  V30 3445 C 332.024 -0.30611 2.31485 0
M  V30 3446 C 333.005 -0.986228 1.38591 0
M  V30 3447 O 334.19 -0.982541 1.67511 0
M  V30 3448 C 331.32 -1.38588 3.1845 0
M  V30 3449 C 330.274 -0.827115 4.19932 0
M  V30 3450 C 329.6 -2.00551 4.95665 0
M  V30 3451 C 330.9 0.16463 5.2204 0
M  V30 3452 H 332.594 0.371866 2.97082 0
M  V30 3453 H 330.14 0.180282 1.42867 0
M  V30 3454 H 332.093 -1.94023 3.74076 0
M  V30 3455 H 330.817 -2.09269 2.50747 0
M  V30 3456 H 329.476 -0.294702 3.65414 0
M  V30 3457 H 329.124 -2.6994 4.2443 0
M  V30 3458 H 328.824 -1.63784 5.64313 0
M  V30 3459 H 330.348 -2.56468 5.54127 0
M  V30 3460 H 331.762 -0.300699 5.72511 0
M  V30 3461 H 330.159 0.446813 5.98434 0
M  V30 3462 H 331.229 1.08905 4.72512 0
M  V30 3463 N 332.573 -1.56217 0.208337 0
M  V30 3464 C 333.989 -1.58919 -0.14729 0
M  V30 3465 C 334.189 -1.22486 -1.59998 0
M  V30 3466 O 333.245 -0.953849 -2.3379 0
M  V30 3467 C 334.558 -3.00236 0.167048 0
M  V30 3468 C 336.106 -3.12813 0.108219 0
M  V30 3469 C 336.581 -4.56284 0.396049 0
M  V30 3470 N 338.072 -4.61912 0.345142 0
M  V30 3471 C 338.807 -5.70837 0.541523 0
M  V30 3472 N 338.303 -6.88178 0.798968 0
M  V30 3473 N 340.096 -5.60091 0.474867 0
M  V30 3474 H 332.247 -1.78177 1.15614 0
M  V30 3475 H 334.51 -0.827555 0.462446 0
M  V30 3476 H 334.216 -3.31499 1.1748 0
M  V30 3477 H 334.09 -3.7354 -0.524184 0
M  V30 3478 H 336.477 -2.81354 -0.890157 0
M  V30 3479 H 336.558 -2.41866 0.832729 0
M  V30 3480 H 336.202 -4.88458 1.3918 0
M  V30 3481 H 336.132 -5.25439 -0.349502 0
M  V30 3482 H 338.623 -3.77589 0.153316 0
M  V30 3483 H 338.936 -7.67095 0.93727 0
M  V30 3484 H 337.281 -6.89953 0.836013 0
M  V30 3485 H 340.472 -4.67297 0.274064 0
M  V30 3486 H 340.645 -6.44917 0.631326 0
M  V30 3487 N 334.051 0.0651679 -1.57465 0
M  V30 3488 C 335.279 0.775808 -1.91804 0
M  V30 3489 C 335.694 1.70782 -0.804916 0
M  V30 3490 O 335.051 1.81153 0.221311 0
M  V30 3491 C 335.102 1.56381 -3.25925 0
M  V30 3492 O 334.823 0.669248 -4.32958 0
M  V30 3493 C 336.324 2.37485 -3.7432 0
M  V30 3494 H 333.544 0.2202 -0.63384 0
M  V30 3495 H 336.088 0.0334587 -2.04473 0
M  V30 3496 H 334.243 2.25837 -3.14764 0
M  V30 3497 H 334.657 1.21801 -5.10162 0
M  V30 3498 H 336.131 2.88223 -4.70778 0
M  V30 3499 H 336.608 3.17307 -3.03666 0
M  V30 3500 H 337.214 1.73173 -3.88447 0
M  V30 3501 N 335.529 1.53961 0.336706 0
M  V30 3502 C 336.461 1.78751 1.4346 0
M  V30 3503 C 337.474 0.669019 1.48418 0
M  V30 3504 O 338.663 0.945884 1.51378 0
M  V30 3505 C 335.763 1.87844 2.82078 0
M  V30 3506 C 334.936 3.17854 3.00479 0
M  V30 3507 C 333.995 3.17816 4.19379 0
M  V30 3508 O 333.021 3.91511 4.13168 0
M  V30 3509 N 334.223 2.40669 5.2826 0
M  V30 3510 H 336.988 2.73493 1.22563 0
M  V30 3511 H 334.549 1.53096 0.526625 0
M  V30 3512 H 336.541 1.85261 3.59806 0
M  V30 3513 H 335.111 1.00257 2.96086 0
M  V30 3514 H 334.331 3.33504 2.10163 0
M  V30 3515 H 335.619 4.03718 3.0966 0
M  V30 3516 H 335.017 1.8036 5.36178 0
M  V30 3517 H 333.574 2.43877 6.04456 0
M  V30 3518 N 337.007 -0.598083 1.45811 0
M  V30 3519 C 337.917 -1.73632 1.57763 0
M  V30 3520 C 338.933 -1.67763 0.461676 0
M  V30 3521 O 340.109 -1.87949 0.723685 0
M  V30 3522 C 337.174 -3.10114 1.55018 0
M  V30 3523 C 336.235 -3.27364 2.77726 0
M  V30 3524 C 335.468 -4.57334 2.75102 0
M  V30 3525 O 335.691 -5.40258 1.8297 0
M  V30 3526 O 334.625 -4.77502 3.66437 0
M  V30 3527 H 338.451 -1.66498 2.53992 0
M  V30 3528 H 336.036 -0.763308 1.28429 0
M  V30 3529 H 337.918 -3.9141 1.56129 0
M  V30 3530 H 336.593 -3.17718 0.619431 0
M  V30 3531 H 335.5 -2.45619 2.82174 0
M  V30 3532 H 336.833 -3.24641 3.69958 0
M  V30 3533 N 338.485 -1.33259 -0.841409 0
M  V30 3534 C 339.71 -1.2775 -1.63385 0
M  V30 3535 C 340.135 0.149188 -1.87507 0
M  V30 3536 O 339.493 1.10498 -1.43736 0
M  V30 3537 C 339.541 -2.05571 -2.96265 0
M  V30 3538 O 338.645 -1.41257 -3.87453 0
M  V30 3539 H 337.986 -0.439627 -0.497618 0
M  V30 3540 H 340.516 -1.75782 -1.04699 0
M  V30 3541 H 340.526 -2.16241 -3.45982 0
M  V30 3542 H 339.201 -3.09309 -2.7803 0
M  V30 3543 H 337.778 -1.39217 -3.45938 0
M  V30 3544 N 339.963 1.05934 -1.16686 0
M  V30 3545 C 340.873 2.17014 -0.891183 0
M  V30 3546 C 341.889 1.73453 0.137907 0
M  V30 3547 O 343.065 2.01361 -0.039592 0
M  V30 3548 C 340.13 3.44384 -0.400099 0
M  V30 3549 C 339.191 4.02433 -1.49486 0
M  V30 3550 C 338.424 5.23723 -1.02711 0
M  V30 3551 O 338.647 5.7027 0.121716 0
M  V30 3552 O 337.581 5.7382 -1.81699 0
M  V30 3553 H 341.407 2.43113 -1.82015 0
M  V30 3554 H 338.992 1.15541 -0.947132 0
M  V30 3555 H 340.874 4.21189 -0.133392 0
M  V30 3556 H 339.549 3.19802 0.500817 0
M  V30 3557 H 338.456 3.27102 -1.81535 0
M  V30 3558 H 339.789 4.31317 -2.37121 0
M  V30 3559 N 341.441 0.965919 1.2453 0
M  V30 3560 C 342.681 0.634656 1.94297 0
M  V30 3561 C 343.045 -0.814822 1.73852 0
M  V30 3562 O 344.246 -1.25622 2.3764 0
M  V30 3563 C 342.517 0.99702 3.43212 0
M  V30 3564 S 344.076 0.780038 4.31811 0
M  V30 3565 H 340.894 0.232893 0.671775 0
M  V30 3566 H 343.496 1.24249 1.50938 0
M  V30 3567 H 342.2 2.04886 3.55598 0
M  V30 3568 H 341.731 0.379888 3.91562 0
M  V30 3569 H 343.746 -0.343512 4.9501 0
M  V30 3570 N 342.919 -1.39368 0.735821 0
M  V30 3571 C 344.165 -2.00794 0.284544 0
M  V30 3572 C 344.498 -1.58255 -1.12557 0
M  V30 3573 O 343.773 -0.811819 -1.76748 0
M  V30 3574 C 344.056 -3.58011 0.387337 0
M  V30 3575 C 343.909 -4.10566 1.83728 0
M  V30 3576 C 345.228 -4.395 -0.22975 0
M  V30 3577 H 342.347 -0.729501 0.104866 0
M  V30 3578 H 344.989 -1.65564 0.93213 0
M  V30 3579 H 343.139 -3.88154 -0.164006 0
M  V30 3580 H 344.811 -3.91139 2.44556 0
M  V30 3581 H 343.054 -3.64095 2.35833 0
M  V30 3582 H 343.725 -5.19702 1.86047 0
M  V30 3583 H 346.201 -4.15406 0.240257 0
M  V30 3584 H 345.077 -5.48752 -0.127485 0
M  V30 3585 H 345.338 -4.22062 -1.3159 0
M  V30 3586 N 344.397 -0.483516 -1.5 0
M  V30 3587 C 345.637 0.0657469 -2.04294 0
M  V30 3588 C 346.001 1.35869 -1.35659 0
M  V30 3589 O 347.202 1.99111 -1.80578 0
M  V30 3590 C 345.473 0.232758 -3.56641 0
M  V30 3591 S 347.032 0.738788 -4.32536 0
M  V30 3592 H 343.85 0.0100755 -0.710929 0
M  V30 3593 H 346.452 -0.653494 -1.84254 0
M  V30 3594 H 345.156 -0.713847 -4.04144 0
M  V30 3595 H 344.687 0.977751 -3.81056 0
M  V30 3596 H 346.702 2.01048 -4.53645 0
M  V30 3597 N 345.875 1.56104 -0.216619 0
M  V30 3598 C 346.825 2.16703 0.708798 0
M  V30 3599 C 347.809 1.11392 1.16106 0
M  V30 3600 O 349.001 1.37395 1.11587 0
M  V30 3601 C 346.13 2.84666 1.91886 0
M  V30 3602 C 345.216 3.97195 1.48651 0
M  V30 3603 N 345.607 4.99959 0.766434 0
M  V30 3604 C 343.905 4.09193 1.77418 0
M  V30 3605 C 344.606 5.79126 0.546659 0
M  V30 3606 N 343.582 5.32315 1.10188 0
M  V30 3607 H 347.384 2.93516 0.150162 0
M  V30 3608 H 344.898 1.6239 -0.0176768 0
M  V30 3609 H 346.895 3.26486 2.59253 0
M  V30 3610 H 345.555 2.09347 2.48202 0
M  V30 3611 H 346.566 5.16197 0.419634 0
M  V30 3612 H 343.243 3.45021 2.35088 0
M  V30 3613 H 344.633 6.71895 -0.026103 0
M  V30 3614 N 347.353 -0.0568162 1.57498 0
M  V30 3615 C 348.301 -1.08452 2.05769 0
M  V30 3616 C 349.295 -1.39164 0.965903 0
M  V30 3617 O 350.501 -1.38395 1.15095 0
M  V30 3618 H 346.876 -0.367148 0.656282 0
M  V30 3619 H 348.847 -0.651368 2.91204 0
M  V30 3620 C 347.596 -2.38543 2.52968 0
M  V30 3621 H 346.919 -2.15765 3.36579 0
M  V30 3622 H 348.359 -3.08863 2.90481 0
M  V30 3623 C 346.818 -3.05562 1.41893 0
M  V30 3624 O 347.348 -3.94262 0.769442 0
M  V30 3625 N 345.554 -2.6643 1.16032 0
M  V30 3626 H 345.101 -1.94387 1.6903 0
M  V30 3627 H 345.059 -3.11593 0.419219 0
M  V30 3628 N 348.832 -1.54138 -0.328536 0
M  V30 3629 C 350.08 -1.71765 -1.06496 0
M  V30 3630 C 350.401 -0.49149 -1.88704 0
M  V30 3631 O 349.671 0.494539 -1.89555 0
M  V30 3632 H 348.251 -0.633295 -0.396164 0
M  V30 3633 H 350.913 -1.91429 -0.366176 0
M  V30 3634 H 350.009 -2.5951 -1.73381 0
M  V30 3635 N 350.31 0.590341 -1.46126 0
M  V30 3636 C 351.556 1.35082 -1.51264 0
M  V30 3637 C 351.889 1.93534 -0.160711 0
M  V30 3638 O 351.164 1.76045 0.826956 0
M  V30 3639 C 351.447 2.48588 -2.6053 0
M  V30 3640 C 351.3 1.95221 -4.05227 0
M  V30 3641 C 352.619 3.50662 -2.6594 0
M  V30 3642 H 349.738 0.489803 -0.550692 0
M  V30 3643 H 352.38 0.663887 -1.78024 0
M  V30 3644 H 350.53 3.07186 -2.37843 0
M  V30 3645 H 352.202 1.41139 -4.39178 0
M  V30 3646 H 350.445 1.26101 -4.15068 0
M  V30 3647 H 351.116 2.77121 -4.77397 0
M  V30 3648 H 353.592 3.01934 -2.86313 0
M  V30 3649 H 352.468 4.27551 -3.44226 0
M  V30 3650 H 352.729 4.07399 -1.71694 0
M  V30 3651 N 351.788 1.33704 0.83433 0
M  V30 3652 C 353.028 1.26754 1.60352 0
M  V30 3653 C 353.392 -0.163182 1.91305 0
M  V30 3654 O 354.593 -0.3567 2.66423 0
M  V30 3655 C 352.864 2.12262 2.8754 0
M  V30 3656 S 354.423 2.22549 3.78176 0
M  V30 3657 H 351.241 0.450879 0.549753 0
M  V30 3658 H 353.843 1.68788 0.986444 0
M  V30 3659 H 352.547 3.15238 2.62779 0
M  V30 3660 H 352.078 1.71082 3.54252 0
M  V30 3661 H 354.093 1.3899 4.76336 0
M  V30 3662 N 353.266 -1.05314 1.17247 0
M  V30 3663 C 354.677 -1.59753 0.96623 0
M  V30 3664 C 355.028 -1.9005 -0.487378 0
M  V30 3665 O 354.153 -1.68126 -1.36245 0
M  V30 3666 C 354.748 -2.90249 1.74759 0
M  V30 3667 C 353.307 -3.41352 1.58606 0
M  V30 3668 C 352.454 -2.15103 1.75002 0
M  V30 3669 H 355.405 -0.881406 1.31973 0
M  V30 3670 H 355.426 -3.60097 1.22925 0
M  V30 3671 H 354.938 -2.68166 2.8055 0
M  V30 3672 H 353.039 -3.68474 0.552985 0
M  V30 3673 H 353.152 -4.16019 2.37624 0
M  V30 3674 H 351.516 -2.25804 1.17833 0
M  V30 3675 H 352.299 -1.95491 2.82202 0
M  V30 3676 N 354.744 -0.972509 -1.24016 0
M  V30 3677 C 355.99 -0.637978 -1.92504 0
M  V30 3678 C 356.323 0.825383 -1.75787 0
M  V30 3679 O 355.598 1.59442 -1.11393 0
M  V30 3680 C 355.881 -1.01942 -3.45369 0
M  V30 3681 C 355.734 -2.53983 -3.71231 0
M  V30 3682 C 357.053 -0.55751 -4.36555 0
M  V30 3683 H 354.172 -0.233248 -0.699117 0
M  V30 3684 H 356.814 -1.21238 -1.46292 0
M  V30 3685 H 354.964 -0.530656 -3.84859 0
M  V30 3686 H 356.636 -3.10374 -3.41271 0
M  V30 3687 H 354.879 -2.96968 -3.16216 0
M  V30 3688 H 355.55 -2.75723 -4.78206 0
M  V30 3689 H 358.026 -0.977029 -4.04467 0
M  V30 3690 H 356.902 -0.85292 -5.42233 0
M  V30 3691 H 357.163 0.542328 -4.38761 0
M  V30 3692 N 356.222 1.38976 -0.743202 0
M  V30 3693 C 357.468 2.0064 -0.295189 0
M  V30 3694 C 357.801 1.5885 1.11716 0
M  V30 3695 O 357.076 0.821181 1.76315 0
M  V30 3696 C 357.359 3.578 -0.406318 0
M  V30 3697 C 357.212 4.09586 -1.85903 0
M  V30 3698 C 358.531 4.39616 0.206439 0
M  V30 3699 H 355.65 0.728935 -0.108733 0
M  V30 3700 H 358.292 1.65067 -0.940897 0
M  V30 3701 H 356.442 3.88235 0.143419 0
M  V30 3702 H 358.114 3.89837 -2.46627 0
M  V30 3703 H 356.357 3.6284 -2.3776 0
M  V30 3704 H 357.028 5.18708 -1.888 0
M  V30 3705 H 359.504 4.15273 -0.262283 0
M  V30 3706 H 358.38 5.48812 0.0983819 0
M  V30 3707 H 358.641 4.22754 1.2935 0
M  V30 3708 N 357.7 0.491464 1.49741 0
M  V30 3709 C 358.947 -0.0564256 2.02421 0
M  V30 3710 C 359.275 -1.37872 1.37192 0
M  V30 3711 O 358.53 -1.89375 0.493508 0
M  V30 3712 C 358.829 -0.267329 3.56399 0
M  V30 3713 C 358.495 0.975775 4.40215 0
M  V30 3714 C 357.157 1.31655 4.62839 0
M  V30 3715 C 359.509 1.80251 4.89039 0
M  V30 3716 C 356.837 2.48375 5.31532 0
M  V30 3717 C 359.189 2.96116 5.59015 0
M  V30 3718 C 357.853 3.30585 5.79888 0
M  V30 3719 H 357.123 -0.0206476 0.740712 0
M  V30 3720 H 359.77 0.649686 1.80143 0
M  V30 3721 H 358.075 -1.05588 3.77304 0
M  V30 3722 H 359.772 -0.705549 3.94744 0
M  V30 3723 H 356.362 0.700315 4.2284 0
M  V30 3724 H 360.546 1.55239 4.71396 0
M  V30 3725 H 355.802 2.7533 5.45897 0
M  V30 3726 H 359.976 3.60509 5.95824 0
M  V30 3727 H 357.603 4.21132 6.32892 0
M  V30 3728 N 359.178 -1.55987 0.224894 0
M  V30 3729 C 360.406 -2.02784 -0.410665 0
M  V30 3730 C 360.821 -1.10464 -1.53112 0
M  V30 3731 O 360.178 -0.114871 -1.82138 0
M  V30 3732 C 360.229 -3.49087 -0.939165 0
M  V30 3733 O 359.95 -4.37887 0.136614 0
M  V30 3734 C 361.451 -4.11543 -1.64763 0
M  V30 3735 H 358.671 -0.663484 -0.100148 0
M  V30 3736 H 361.215 -2.01614 0.342326 0
M  V30 3737 H 359.37 -3.50861 -1.64242 0
M  V30 3738 H 359.784 -5.23849 -0.261155 0
M  V30 3739 H 361.258 -5.15673 -1.96939 0
M  V30 3740 H 361.735 -3.56736 -2.56195 0
M  V30 3741 H 362.341 -4.13629 -0.989503 0
M  V30 3742 N 360.656 0.0484629 -1.57525 0
M  V30 3743 C 361.933 0.777447 -1.79486 0
M  V30 3744 C 362.313 1.94597 -0.818251 0
M  V30 3745 O 361.661 2.28047 0.143767 0
M  V30 3746 C 361.871 1.22864 -3.26658 0
M  V30 3747 C 363.219 1.65251 -3.91123 0
M  V30 3748 O 364.243 1.32372 -3.3069 0
M  V30 3749 O 363.102 2.26207 -4.97486 0
M  V30 3750 H 360.196 0.374357 -0.737419 0
M  V30 3751 H 362.742 0.0267359 -1.69679 0
M  V30 3752 H 361.514 0.393589 -3.89316 0
M  V30 3753 H 361.137 2.03996 -3.41279 0
M  V30 3754 N 362.134 1.5431 0.320358 0
M  V30 3755 C 363.382 1.72327 1.05583 0
M  V30 3756 C 363.703 0.50149 1.88441 0
M  V30 3757 O 362.973 -0.48448 1.89815 0
M  V30 3758 H 361.553 0.635387 0.3928 0
M  V30 3759 H 364.215 1.91621 0.356019 0
M  V30 3760 H 363.311 2.60426 1.72003 0
M  V30 3761 N 363.613 -0.582584 1.46437 0
M  V30 3762 C 364.838 -1.37168 1.55563 0
M  V30 3763 C 365.263 -1.87061 0.19743 0
M  V30 3764 O 364.621 -1.61572 -0.822451 0
M  V30 3765 C 364.669 -2.53511 2.56446 0
M  V30 3766 O 363.773 -3.54953 2.09958 0
M  V30 3767 H 363.114 -0.408494 0.523477 0
M  V30 3768 H 365.644 -0.706646 1.9201 0
M  V30 3769 H 365.654 -3.00426 2.76058 0
M  V30 3770 H 364.329 -2.16549 3.55076 0
M  V30 3771 H 362.906 -3.14516 2.00334 0
M  V30 3772 N 365.091 -1.34144 -0.827227 0
M  V30 3773 C 366.054 -1.25264 -1.91942 0
M  V30 3774 C 367.054 -0.168866 -1.59911 0
M  V30 3775 O 368.244 -0.421198 -1.69031 0
M  V30 3776 C 365.376 -0.932952 -3.27885 0
M  V30 3777 H 366.569 -2.22357 -2.0124 0
M  V30 3778 H 364.122 -1.1837 -1.0207 0
M  V30 3779 H 364.857 0.0349917 -3.24281 0
M  V30 3780 H 364.642 -1.71682 -3.52516 0
M  V30 3781 H 366.132 -0.895874 -4.07877 0
M  V30 3782 N 366.569 1.04691 -1.17803 0
M  V30 3783 C 367.797 1.81446 -0.99423 0
M  V30 3784 C 368.212 1.83174 0.457459 0
M  V30 3785 O 367.569 1.26265 1.31771 0
M  V30 3786 C 367.62 3.27334 -1.5341 0
M  V30 3787 O 367.341 3.25798 -2.92895 0
M  V30 3788 C 368.842 4.20759 -1.39559 0
M  V30 3789 H 366.062 0.571599 -0.351447 0
M  V30 3790 H 368.606 1.31982 -1.56208 0
M  V30 3791 H 366.761 3.74052 -1.00815 0
M  V30 3792 H 367.175 4.17144 -3.17949 0
M  V30 3793 H 368.649 5.21084 -1.82141 0
M  V30 3794 H 369.126 4.37856 -0.343394 0
M  V30 3795 H 369.732 3.79901 -1.91195 0
M  V30 3796 N 368.047 0.979072 1.23499 0
M  V30 3797 C 369.295 0.645941 1.91499 0
M  V30 3798 C 369.616 -0.822948 1.76784 0
M  V30 3799 O 368.886 -1.58854 1.14639 0
M  V30 3800 H 367.466 0.235919 0.708767 0
M  V30 3801 H 370.128 1.2426 1.50152 0
M  V30 3802 H 369.224 0.896411 2.9895 0
M  V30 3803 N 369.525 -1.3858 0.750561 0
M  V30 3804 C 370.936 -1.82927 0.373438 0
M  V30 3805 C 371.287 -1.62634 -1.09748 0
M  V30 3806 O 370.412 -1.12588 -1.84805 0
M  V30 3807 C 371.007 -3.32088 0.671029 0
M  V30 3808 C 369.566 -3.74795 0.34722 0
M  V30 3809 C 368.713 -2.61391 0.92575 0
M  V30 3810 H 371.664 -1.27351 0.946958 0
M  V30 3811 H 371.685 -3.80465 -0.0518269 0
M  V30 3812 H 371.197 -3.46826 1.74164 0
M  V30 3813 H 369.298 -3.65638 -0.716933 0
M  V30 3814 H 369.411 -4.71667 0.840656 0
M  V30 3815 H 367.775 -2.52265 0.351327 0
M  V30 3816 H 368.558 -2.78929 2.00133 0
M  V30 3817 N 371.003 -0.499398 -1.49478 0
M  V30 3818 C 371.966 0.268838 -2.27618 0
M  V30 3819 C 372.966 0.895383 -1.33565 0
M  V30 3820 O 374.156 0.760164 -1.56739 0
M  V30 3821 C 371.288 1.38559 -3.11471 0
M  V30 3822 H 372.481 -0.416812 -2.96989 0
M  V30 3823 H 370.034 -0.254313 -1.54217 0
M  V30 3824 H 370.769 2.10544 -2.46661 0
M  V30 3825 H 370.554 0.941797 -3.80621 0
M  V30 3826 H 372.044 1.92678 -3.70493 0
M  V30 3827 N 372.481 1.55866 -0.233164 0
M  V30 3828 C 373.391 2.24431 0.683217 0
M  V30 3829 C 374.407 1.2558 1.2044 0
M  V30 3830 O 375.583 1.58422 1.24356 0
M  V30 3831 C 372.648 2.91979 1.86947 0
M  V30 3832 C 371.709 4.06204 1.38912 0
M  V30 3833 C 370.942 4.70522 2.51883 0
M  V30 3834 O 371.165 4.33865 3.70293 0
M  V30 3835 O 370.099 5.59296 2.22423 0
M  V30 3836 H 373.925 3.03426 0.129059 0
M  V30 3837 H 371.51 1.494 -0.0022283 0
M  V30 3838 H 373.392 3.34573 2.56201 0
M  V30 3839 H 372.067 2.15935 2.41151 0
M  V30 3840 H 370.974 3.68155 0.664259 0
M  V30 3841 H 372.307 4.84025 0.893328 0
M  V30 3842 N 373.959 -0.0401083 1.57549 0
M  V30 3843 C 375.187 -0.745196 1.93014 0
M  V30 3844 C 375.602 -1.6948 0.831984 0
M  V30 3845 O 374.959 -1.81482 -0.192463 0
M  V30 3846 C 375.01 -1.51176 3.28372 0
M  V30 3847 O 374.731 -0.600284 4.33968 0
M  V30 3848 C 376.232 -2.315 3.78051 0
M  V30 3849 H 373.452 -0.210088 0.637263 0
M  V30 3850 H 375.996 -0.000924689 2.045 0
M  V30 3851 H 374.151 -2.20801 3.18317 0
M  V30 3852 H 374.565 -1.13669 5.12035 0
M  V30 3853 H 376.039 -2.80697 4.75303 0
M  V30 3854 H 376.516 -3.12436 3.08675 0
M  V30 3855 H 377.122 -1.66971 3.91153 0
M  V30 3856 N 375.437 -1.54477 -0.31217 0
M  V30 3857 C 376.853 -1.45442 -0.657185 0
M  V30 3858 C 377.053 -0.63653 -1.91182 0
M  V30 3859 O 376.109 -0.139815 -2.52113 0
M  V30 3860 C 377.422 -2.89287 -0.82058 0
M  V30 3861 C 378.97 -2.9926 -0.917188 0
M  V30 3862 C 379.445 -4.44279 -1.11267 0
M  V30 3863 N 380.936 -4.4794 -1.17914 0
M  V30 3864 C 381.671 -5.57318 -1.34848 0
M  V30 3865 N 381.167 -6.76642 -1.48752 0
M  V30 3866 N 382.96 -5.44986 -1.37647 0
M  V30 3867 H 375.111 -2.06129 0.512313 0
M  V30 3868 H 377.374 -0.933088 0.167485 0
M  V30 3869 H 377.08 -3.51687 0.0302604 0
M  V30 3870 H 376.954 -3.36061 -1.71298 0
M  V30 3871 H 379.341 -2.36981 -1.75852 0
M  V30 3872 H 379.422 -2.558 -0.00101257 0
M  V30 3873 H 379.066 -5.07149 -0.27614 0
M  V30 3874 H 378.996 -4.85359 -2.04289 0
M  V30 3875 H 381.487 -3.61969 -1.08567 0
M  V30 3876 H 381.8 -7.55758 -1.61397 0
M  V30 3877 H 380.145 -6.79529 -1.45828 0
M  V30 3878 H 383.336 -4.50715 -1.26388 0
M  V30 3879 H 383.509 -6.3028 -1.50501 0
M  V30 3880 N 376.915 0.57481 -1.46744 0
M  V30 3881 C 378.164 1.32898 -1.51727 0
M  V30 3882 C 378.477 1.948 -0.176692 0
M  V30 3883 O 379.683 2.71299 -0.104385 0
M  V30 3884 C 378.139 2.40901 -2.67385 0
M  V30 3885 C 377.747 1.85266 -4.07898 0
M  V30 3886 C 379.491 3.17609 -2.81646 0
M  V30 3887 C 377.398 2.90945 -5.14883 0
M  V30 3888 H 376.328 0.499631 -0.564699 0
M  V30 3889 H 378.979 0.612536 -1.72975 0
M  V30 3890 H 377.361 3.15379 -2.39483 0
M  V30 3891 H 378.535 1.17278 -4.45626 0
M  V30 3892 H 376.85 1.21199 -3.98371 0
M  V30 3893 H 379.447 3.96493 -3.58744 0
M  V30 3894 H 379.79 3.70696 -1.89448 0
M  V30 3895 H 380.323 2.50239 -3.09233 0
M  V30 3896 H 377.062 2.42736 -6.089 0
M  V30 3897 H 376.582 3.57398 -4.81691 0
M  V30 3898 H 378.261 3.54755 -5.41071 0
M  V30 3899 N 378.394 1.34581 0.820102 0
M  V30 3900 C 379.624 1.29991 1.6058 0
M  V30 3901 C 380.032 -0.127588 1.88769 0
M  V30 3902 O 379.375 -1.08595 1.48165 0
M  V30 3903 C 379.437 2.02548 2.9701 0
M  V30 3904 C 379.101 3.51794 2.91701 0
M  V30 3905 C 380.098 4.46647 2.66087 0
M  V30 3906 C 377.783 3.94249 3.11245 0
M  V30 3907 C 379.777 5.81929 2.60071 0
M  V30 3908 C 377.464 5.2963 3.04853 0
M  V30 3909 C 378.462 6.23282 2.793 0
M  V30 3910 O 378.15 7.56181 2.72847 0
M  V30 3911 H 377.882 0.448539 0.505756 0
M  V30 3912 H 380.436 1.77811 1.02822 0
M  V30 3913 H 378.666 1.49345 3.56697 0
M  V30 3914 H 380.355 1.91211 3.58041 0
M  V30 3915 H 381.121 4.15168 2.5072 0
M  V30 3916 H 377 3.21749 3.30149 0
M  V30 3917 H 380.544 6.54999 2.40046 0
M  V30 3918 H 376.441 5.60727 3.19774 0
M  V30 3919 H 377.209 7.6595 2.88553 0
M  V30 3920 N 379.872 -1.04064 1.18357 0
M  V30 3921 C 381.102 -1.80654 1.00238 0
M  V30 3922 C 381.51 -1.83713 -0.452362 0
M  V30 3923 O 380.853 -1.27135 -1.32599 0
M  V30 3924 C 380.915 -3.27582 1.48088 0
M  V30 3925 C 380.579 -3.48184 2.96002 0
M  V30 3926 C 381.576 -3.39372 3.93856 0
M  V30 3927 C 379.261 -3.7478 3.34433 0
M  V30 3928 C 381.255 -3.5686 5.28138 0
M  V30 3929 C 378.942 -3.91915 4.68877 0
M  V30 3930 C 379.94 -3.82956 5.65539 0
M  V30 3931 O 379.628 -3.996 6.97549 0
M  V30 3932 H 379.36 -0.575751 0.354241 0
M  V30 3933 H 381.914 -1.32044 1.57333 0
M  V30 3934 H 380.144 -3.77161 0.853588 0
M  V30 3935 H 381.833 -3.8573 1.2636 0
M  V30 3936 H 382.599 -3.18789 3.65511 0
M  V30 3937 H 378.478 -3.80852 2.59756 0
M  V30 3938 H 382.022 -3.49783 6.03571 0
M  V30 3939 H 377.919 -4.11992 4.96923 0
M  V30 3940 H 378.687 -4.1676 7.04452 0
M  V30 3941 N 381.35 -0.985608 -1.22978 0
M  V30 3942 C 382.597 -0.657386 -1.91532 0
M  V30 3943 C 382.925 0.809707 -1.76845 0
M  V30 3944 O 382.18 1.60021 -1.12658 0
M  V30 3945 C 382.479 -1.00014 -3.43121 0
M  V30 3946 C 382.145 -2.4583 -3.77993 0
M  V30 3947 C 380.807 -2.85679 -3.87222 0
M  V30 3948 C 383.159 -3.40378 -3.94705 0
M  V30 3949 C 380.487 -4.19081 -4.10595 0
M  V30 3950 C 382.839 -4.73429 -4.1958 0
M  V30 3951 C 381.503 -5.1303 -4.27032 0
M  V30 3952 H 380.773 -0.240555 -0.700867 0
M  V30 3953 H 383.42 -1.24044 -1.45895 0
M  V30 3954 H 381.725 -0.335072 -3.90365 0
M  V30 3955 H 383.422 -0.724322 -3.94404 0
M  V30 3956 H 380.012 -2.13939 -3.71387 0
M  V30 3957 H 384.196 -3.10766 -3.8696 0
M  V30 3958 H 379.452 -4.49362 -4.14589 0
M  V30 3959 H 383.626 -5.46644 -4.31455 0
M  V30 3960 H 381.253 -6.16418 -4.44896 0
M  V30 3961 N 382.828 1.3818 -0.7579 0
M  V30 3962 C 383.775 2.30416 -0.133057 0
M  V30 3963 C 384.745 1.50398 0.704957 0
M  V30 3964 O 385.93 1.79014 0.660192 0
M  V30 3965 C 383.07 3.36834 0.750813 0
M  V30 3966 C 382.183 4.31879 -0.102297 0
M  V30 3967 C 381.318 5.25368 0.784979 0
M  V30 3968 C 380.357 6.12058 -0.0715046 0
M  V30 3969 N 379.494 6.97832 0.772972 0
M  V30 3970 H 384.334 2.83274 -0.925186 0
M  V30 3971 H 381.871 1.39461 -0.467866 0
M  V30 3972 H 383.829 3.97145 1.27794 0
M  V30 3973 H 382.459 2.85374 1.50868 0
M  V30 3974 H 381.511 3.72991 -0.747095 0
M  V30 3975 H 382.823 4.92921 -0.763552 0
M  V30 3976 H 381.977 5.90818 1.37911 0
M  V30 3977 H 380.716 4.64703 1.47996 0
M  V30 3978 H 379.721 5.456 -0.678272 0
M  V30 3979 H 380.946 6.74793 -0.763606 0
M  V30 3980 H 378.892 6.3971 1.45282 0
M  V30 3981 H 378.809 7.55812 0.168709 0
M  V30 3982 H 380.077 7.67687 1.35194 0
M  V30 3983 N 384.306 0.507319 1.49211 0
M  V30 3984 C 385.216 -0.272136 2.33016 0
M  V30 3985 C 386.232 -0.961206 1.45041 0
M  V30 3986 O 387.408 -0.941191 1.78055 0
M  V30 3987 C 384.473 -1.31895 3.20631 0
M  V30 3988 C 383.534 -0.642648 4.24463 0
M  V30 3989 C 382.767 -1.63959 5.07891 0
M  V30 3990 O 382.99 -2.87007 4.92933 0
M  V30 3991 O 381.924 -1.19143 5.8999 0
M  V30 3992 H 385.75 0.413982 3.00865 0
M  V30 3993 H 383.335 0.268556 1.46966 0
M  V30 3994 H 385.217 -1.92446 3.7489 0
M  V30 3995 H 383.892 -1.98788 2.5547 0
M  V30 3996 H 382.799 0.00276252 3.741 0
M  V30 3997 H 384.132 -0.0160534 4.92197 0
M  V30 3998 N 385.784 -1.5574 0.241426 0
M  V30 3999 C 387.032 -1.98417 -0.384075 0
M  V30 4000 C 387.353 -1.13078 -1.58866 0
M  V30 4001 O 386.623 -0.212312 -1.94746 0
M  V30 4002 H 385.203 -0.732813 -0.144894 0
M  V30 4003 H 387.865 -1.9193 0.338943 0
M  V30 4004 H 386.961 -3.04219 -0.696939 0
M  V30 4005 N 387.262 0.0317525 -1.57568 0
M  V30 4006 C 388.209 1.0332 -2.06382 0
M  V30 4007 C 389.179 1.36082 -0.952414 0
M  V30 4008 O 390.364 1.46466 -1.2228 0
M  V30 4009 C 387.504 2.32989 -2.54578 0
M  V30 4010 C 386.617 2.0641 -3.79498 0
M  V30 4011 C 385.752 3.2993 -4.16317 0
M  V30 4012 C 384.791 2.98893 -5.34162 0
M  V30 4013 N 383.928 4.14857 -5.66426 0
M  V30 4014 H 388.768 0.609982 -2.9169 0
M  V30 4015 H 386.305 0.289573 -1.44222 0
M  V30 4016 H 388.263 3.0875 -2.80587 0
M  V30 4017 H 386.893 2.73039 -1.7219 0
M  V30 4018 H 385.945 1.21158 -3.6059 0
M  V30 4019 H 387.257 1.79513 -4.65378 0
M  V30 4020 H 386.411 4.1406 -4.4344 0
M  V30 4021 H 385.15 3.59938 -3.29083 0
M  V30 4022 H 384.155 2.13164 -5.06795 0
M  V30 4023 H 385.38 2.70165 -6.23047 0
M  V30 4024 H 383.326 4.44821 -4.82151 0
M  V30 4025 H 383.243 3.91374 -6.4681 0
M  V30 4026 H 384.511 4.99868 -5.98124 0
M  V30 4027 N 388.74 1.54641 0.303973 0
M  V30 4028 C 389.989 1.7299 1.03717 0
M  V30 4029 C 390.302 0.521168 1.88529 0
M  V30 4030 O 391.508 0.586408 2.65092 0
M  V30 4031 C 389.964 3.06051 1.89369 0
M  V30 4032 C 389.572 4.34393 1.09574 0
M  V30 4033 C 391.316 3.3376 2.62306 0
M  V30 4034 C 389.223 5.58506 1.94486 0
M  V30 4035 H 388.153 0.64473 0.390947 0
M  V30 4036 H 390.804 1.81124 0.294328 0
M  V30 4037 H 389.186 2.91874 2.67629 0
M  V30 4038 H 390.36 4.59396 0.359485 0
M  V30 4039 H 388.675 4.13597 0.482324 0
M  V30 4040 H 391.272 4.23687 3.26181 0
M  V30 4041 H 391.615 2.52503 3.3098 0
M  V30 4042 H 392.148 3.48894 1.91097 0
M  V30 4043 H 388.887 6.42422 1.30287 0
M  V30 4044 H 388.407 5.37694 2.65792 0
M  V30 4045 H 390.086 5.95651 2.52605 0
M  V30 4046 N 390.218 -0.567019 1.47046 0
M  V30 4047 C 391.148 -1.68482 1.61667 0
M  V30 4048 C 392.129 -1.6358 0.466418 0
M  V30 4049 O 393.314 -1.81354 0.694574 0
M  V30 4050 C 390.444 -3.07124 1.62148 0
M  V30 4051 C 389.398 -3.26867 2.76301 0
M  V30 4052 C 388.724 -4.66196 2.61849 0
M  V30 4053 C 390.024 -3.13186 4.17986 0
M  V30 4054 H 391.718 -1.56502 2.5524 0
M  V30 4055 H 389.264 -0.751486 1.22836 0
M  V30 4056 H 391.217 -3.8516 1.70968 0
M  V30 4057 H 389.941 -3.2004 0.651287 0
M  V30 4058 H 388.6 -2.51237 2.66975 0
M  V30 4059 H 388.248 -4.75898 1.62879 0
M  V30 4060 H 387.948 -4.80356 3.38425 0
M  V30 4061 H 389.472 -5.46379 2.72584 0
M  V30 4062 H 390.886 -3.81049 4.2834 0
M  V30 4063 H 389.283 -3.3886 4.95272 0
M  V30 4064 H 390.353 -2.10057 4.3704 0
M  V30 4065 N 391.696 -1.35014 -0.812953 0
M  V30 4066 C 392.643 -1.27412 -1.92444 0
M  V30 4067 C 393.613 -0.14733 -1.65445 0
M  V30 4068 O 394.798 -0.329974 -1.87925 0
M  V30 4069 C 391.938 -1.04558 -3.28879 0
M  V30 4070 C 391.051 -2.26101 -3.68106 0
M  V30 4071 C 390.186 -1.96449 -4.9354 0
M  V30 4072 C 389.225 -3.14081 -5.25376 0
M  V30 4073 N 388.362 -2.84246 -6.41988 0
M  V30 4074 H 393.202 -2.22463 -1.98278 0
M  V30 4075 H 390.739 -1.10593 -0.969933 0
M  V30 4076 H 392.697 -0.893413 -4.07522 0
M  V30 4077 H 391.327 -0.131719 -3.22531 0
M  V30 4078 H 390.379 -2.52204 -2.84775 0
M  V30 4079 H 391.691 -3.13959 -3.87597 0
M  V30 4080 H 390.845 -1.78026 -5.79993 0
M  V30 4081 H 389.584 -1.05867 -4.76071 0
M  V30 4082 H 388.589 -3.33089 -4.37415 0
M  V30 4083 H 389.814 -4.05455 -5.44778 0
M  V30 4084 H 387.76 -1.96252 -6.25956 0
M  V30 4085 H 387.677 -3.65637 -6.61699 0
M  V30 4086 H 388.945 -2.6935 -7.31485 0
M  V30 4087 N 393.175 1.03435 -1.18907 0
M  V30 4088 C 394.421 1.7713 -0.99982 0
M  V30 4089 C 394.776 1.86695 0.465049 0
M  V30 4090 O 394.069 1.36866 1.34083 0
M  V30 4091 C 394.263 3.19792 -1.59586 0
M  V30 4092 C 394.092 3.24134 -3.11717 0
M  V30 4093 C 392.862 3.32398 -3.80578 0
M  V30 4094 C 395.06 3.11625 -4.09138 0
M  V30 4095 N 393.042 3.26055 -5.20155 0
M  V30 4096 C 394.413 3.12855 -5.35277 0
M  V30 4097 C 396.468 2.95713 -4.00572 0
M  V30 4098 C 395.171 2.99805 -6.53842 0
M  V30 4099 C 397.197 2.84011 -5.1874 0
M  V30 4100 C 396.559 2.8589 -6.43775 0
M  V30 4101 H 392.658 0.659683 -0.419931 0
M  V30 4102 H 395.242 1.2317 -1.50789 0
M  V30 4103 H 393.413 3.72085 -1.11389 0
M  V30 4104 H 395.145 3.81819 -1.3415 0
M  V30 4105 H 391.9 3.38392 -3.31342 0
M  V30 4106 H 392.324 3.26307 -5.93172 0
M  V30 4107 H 396.966 2.93086 -3.0473 0
M  V30 4108 H 394.684 3.01184 -7.49876 0
M  V30 4109 H 398.27 2.72744 -5.13909 0
M  V30 4110 H 397.15 2.76931 -7.33675 0
M  V30 4111 N 394.653 0.992116 1.22453 0
M  V30 4112 C 395.563 0.55065 2.28046 0
M  V30 4113 C 396.579 -0.400189 1.69335 0
M  V30 4114 O 397.755 -0.267215 1.99619 0
M  V30 4115 C 394.82 -0.128496 3.46462 0
M  V30 4116 C 393.881 0.865208 4.20491 0
M  V30 4117 C 393.114 0.218377 5.33253 0
M  V30 4118 O 393.337 -0.987894 5.6178 0
M  V30 4119 O 392.271 0.922845 5.94783 0
M  V30 4120 H 396.097 1.4291 2.67975 0
M  V30 4121 H 393.682 0.760326 1.28606 0
M  V30 4122 H 395.564 -0.508947 4.18315 0
M  V30 4123 H 394.239 -0.981526 3.0846 0
M  V30 4124 H 393.146 1.29658 3.50913 0
M  V30 4125 H 394.479 1.68741 4.62371 0
M  V30 4126 N 396.131 -1.37776 0.765217 0
M  V30 4127 C 397.542 -1.82521 0.392819 0
M  V30 4128 C 397.893 -1.63789 -1.08017 0
M  V30 4129 O 397.018 -1.14542 -1.83601 0
M  V30 4130 C 397.613 -3.31358 0.706214 0
M  V30 4131 C 396.172 -3.74406 0.386952 0
M  V30 4132 C 395.319 -2.60394 0.953422 0
M  V30 4133 H 398.27 -1.2634 0.960412 0
M  V30 4134 H 398.291 -3.80498 -0.0114706 0
M  V30 4135 H 397.803 -3.44959 1.77833 0
M  V30 4136 H 395.904 -3.66377 -0.678112 0
M  V30 4137 H 396.017 -4.70749 0.890636 0
M  V30 4138 H 394.381 -2.51878 0.378064 0
M  V30 4139 H 395.164 -2.76791 2.03081 0
M  V30 4140 N 397.609 -0.515225 -1.4894 0
M  V30 4141 C 398.539 0.244628 -2.32215 0
M  V30 4142 C 399.52 0.949136 -1.41157 0
M  V30 4143 O 400.705 0.937783 -1.70057 0
M  V30 4144 C 397.835 1.30096 -3.22013 0
M  V30 4145 C 396.789 0.715486 -4.21977 0
M  V30 4146 C 396.115 1.87339 -5.00808 0
M  V30 4147 C 397.415 -0.302982 -5.2142 0
M  V30 4148 H 399.109 -0.450501 -2.95991 0
M  V30 4149 H 396.655 -0.218098 -1.42339 0
M  V30 4150 H 398.608 1.84037 -3.79089 0
M  V30 4151 H 397.332 2.02547 -2.56207 0
M  V30 4152 H 395.991 0.197715 -3.66066 0
M  V30 4153 H 395.639 2.58592 -4.31438 0
M  V30 4154 H 395.339 1.48764 -5.68457 0
M  V30 4155 H 396.863 2.41686 -5.60732 0
M  V30 4156 H 398.277 0.148802 -5.73107 0
M  V30 4157 H 396.674 -0.60532 -5.97039 0
M  V30 4158 H 397.744 -1.21395 -4.69459 0
M  V30 4159 N 399.087 1.5561 -0.249682 0
M  V30 4160 C 400.05 2.20217 0.635394 0
M  V30 4161 C 401.05 1.17227 1.10066 0
M  V30 4162 O 402.24 1.42292 1.00492 0
M  V30 4163 C 399.372 2.84794 1.87363 0
M  V30 4164 H 400.565 2.99814 0.0716752 0
M  V30 4165 H 398.118 1.563 -0.000153234 0
M  V30 4166 H 398.853 2.09142 2.47851 0
M  V30 4167 H 398.638 3.60241 1.5482 0
M  V30 4168 H 400.128 3.3423 2.5036 0
M  V30 4169 N 400.565 -0.0233959 1.57583 0
M  V30 4170 C 401.813 -0.711654 1.89156 0
M  V30 4171 C 402.134 -1.75591 0.848096 0
M  V30 4172 O 401.404 -1.95547 -0.117566 0
M  V30 4173 H 399.984 -0.265835 0.698098 0
M  V30 4174 H 402.646 0.0119948 1.94896 0
M  V30 4175 H 401.742 -1.19766 2.88206 0
M  V30 4176 N 402.043 -1.548 -0.295768 0
M  V30 4177 C 403.271 -1.78327 -1.04914 0
M  V30 4178 C 403.686 -0.545316 -1.80753 0
M  V30 4179 O 403.043 0.485013 -1.75937 0
M  V30 4180 C 403.094 -2.99418 -2.02561 0
M  V30 4181 O 402.815 -4.18431 -1.29798 0
M  V30 4182 C 404.316 -3.35375 -2.89895 0
M  V30 4183 H 401.536 -0.594618 -0.310918 0
M  V30 4184 H 404.08 -2.01763 -0.333454 0
M  V30 4185 H 402.235 -2.78175 -2.69624 0
M  V30 4186 H 402.649 -4.86736 -1.95419 0
M  V30 4187 H 404.123 -4.23332 -3.54251 0
M  V30 4188 H 404.6 -2.53761 -3.58472 0
M  V30 4189 H 405.206 -3.58796 -2.28355 0
M  V30 4190 N 403.521 0.559213 -1.47345 0
M  V30 4191 C 404.484 1.64854 -1.59235 0
M  V30 4192 C 405.484 1.53851 -0.467607 0
M  V30 4193 O 406.674 1.58045 -0.732617 0
M  V30 4194 C 403.806 3.04388 -1.53496 0
M  V30 4195 H 404.999 1.55662 -2.56339 0
M  V30 4196 H 402.552 0.778973 -1.35505 0
M  V30 4197 H 403.287 3.19115 -0.577604 0
M  V30 4198 H 403.072 3.13783 -2.35123 0
M  V30 4199 H 404.562 3.83642 -1.6495 0
M  V30 4200 N 404.999 1.35443 0.805782 0
M  V30 4201 C 405.946 1.28431 1.91766 0
M  V30 4202 C 406.916 0.156102 1.65365 0
M  V30 4203 O 408.101 0.339936 1.87747 0
M  V30 4204 C 405.241 1.06301 3.2832 0
M  V30 4205 C 404.354 2.2805 3.66902 0
M  V30 4206 C 403.489 1.99064 4.92491 0
M  V30 4207 C 402.528 3.16863 5.23703 0
M  V30 4208 N 401.665 2.87647 6.40471 0
M  V30 4209 H 406.505 2.23511 1.97096 0
M  V30 4210 H 404.042 1.11105 0.964054 0
M  V30 4211 H 406 0.915012 4.07042 0
M  V30 4212 H 404.63 0.148822 3.22457 0
M  V30 4213 H 403.682 2.53711 2.83434 0
M  V30 4214 H 404.994 3.1601 3.85927 0
M  V30 4215 H 404.148 1.81099 5.7904 0
M  V30 4216 H 402.887 1.0839 4.75503 0
M  V30 4217 H 401.892 3.35404 4.35642 0
M  V30 4218 H 403.117 4.08339 5.4262 0
M  V30 4219 H 401.063 1.99568 6.24907 0
M  V30 4220 H 400.98 3.69141 6.59751 0
M  V30 4221 H 402.248 2.73226 7.30047 0
M  V30 4222 N 406.477 -1.02803 1.19454 0
M  V30 4223 C 407.427 -2.0945 0.900827 0
M  V30 4224 C 408.411 -1.60335 -0.134715 0
M  V30 4225 O 409.603 -1.76857 0.0710924 0
M  V30 4226 C 406.732 -3.4044 0.442229 0
M  V30 4227 C 405.818 -3.96286 1.51056 0
M  V30 4228 N 406.209 -4.25785 2.73021 0
M  V30 4229 C 404.507 -4.24307 1.37404 0
M  V30 4230 C 405.208 -4.70654 3.41848 0
M  V30 4231 N 404.184 -4.72238 2.69243 0
M  V30 4232 H 407.986 -2.3015 1.82779 0
M  V30 4233 H 405.5 -1.20672 1.08683 0
M  V30 4234 H 407.497 -4.16354 0.21326 0
M  V30 4235 H 406.157 -3.21159 -0.478238 0
M  V30 4236 H 407.168 -4.15041 3.09776 0
M  V30 4237 H 403.845 -4.14285 0.517103 0
M  V30 4238 H 405.235 -5.02392 4.46152 0
M  V30 4239 N 407.956 -0.998596 -1.21925 0
M  V30 4240 C 409.205 -0.673085 -1.90138 0
M  V30 4241 C 409.518 0.79895 -1.78539 0
M  V30 4242 O 410.724 1.23628 -2.4172 0
M  V30 4243 C 409.18 -1.15339 -3.40918 0
M  V30 4244 C 408.788 -2.65106 -3.61141 0
M  V30 4245 C 410.532 -0.902476 -4.14796 0
M  V30 4246 C 408.439 -3.0671 -5.05651 0
M  V30 4247 H 407.369 -0.248057 -0.712028 0
M  V30 4248 H 410.02 -1.20891 -1.38049 0
M  V30 4249 H 408.402 -0.545658 -3.92223 0
M  V30 4250 H 409.576 -3.31274 -3.20304 0
M  V30 4251 H 407.891 -2.88142 -3.00605 0
M  V30 4252 H 410.488 -1.18895 -5.21314 0
M  V30 4253 H 410.831 0.161349 -4.15987 0
M  V30 4254 H 411.364 -1.47269 -3.69536 0
M  V30 4255 H 408.103 -4.12292 -5.09603 0
M  V30 4256 H 407.623 -2.45249 -5.47369 0
M  V30 4257 H 409.302 -2.9833 -5.74115 0
M  V30 4258 N 409.434 1.37368 -0.772513 0
M  V30 4259 C 410.344 2.34053 -0.160081 0
M  V30 4260 C 411.36 1.60216 0.678728 0
M  V30 4261 O 412.536 1.92303 0.59847 0
M  V30 4262 C 409.601 3.3939 0.708182 0
M  V30 4263 C 408.662 4.29048 -0.147172 0
M  V30 4264 C 407.895 5.29354 0.679744 0
M  V30 4265 O 408.118 5.3723 1.91678 0
M  V30 4266 O 407.052 6.01835 0.0885444 0
M  V30 4267 H 410.878 2.88159 -0.959053 0
M  V30 4268 H 408.463 1.39543 -0.533685 0
M  V30 4269 H 410.345 4.03839 1.20384 0
M  V30 4270 H 409.02 2.8761 1.48533 0
M  V30 4271 H 407.927 3.67697 -0.689205 0
M  V30 4272 H 409.26 4.84134 -0.887423 0
M  V30 4273 N 410.912 0.523116 1.48665 0
M  V30 4274 C 411.822 -0.247406 2.33292 0
M  V30 4275 C 412.838 -0.945769 1.46052 0
M  V30 4276 O 414.014 -0.922253 1.79043 0
M  V30 4277 C 411.079 -1.28487 3.22012 0
M  V30 4278 C 410.14 -0.597592 4.2512 0
M  V30 4279 C 409.373 -1.58563 5.09601 0
M  V30 4280 O 409.596 -2.81763 4.95949 0
M  V30 4281 O 408.53 -1.12879 5.91221 0
M  V30 4282 H 412.356 0.445869 3.00409 0
M  V30 4283 H 409.941 0.284128 1.46673 0
M  V30 4284 H 411.823 -1.88459 3.7691 0
M  V30 4285 H 410.498 -1.96068 2.57564 0
M  V30 4286 H 409.405 0.0424407 3.74076 0
M  V30 4287 H 410.738 0.0361517 4.92187 0
M  V30 4288 N 412.39 -1.55475 0.257931 0
M  V30 4289 C 413.63 -2.01112 -0.365129 0
M  V30 4290 C 413.994 -1.1423 -1.54323 0
M  V30 4291 O 415.195 -1.49371 -2.23477 0
M  V30 4292 C 413.466 -3.49353 -0.754117 0
M  V30 4293 S 415.025 -4.16992 -1.36614 0
M  V30 4294 H 411.843 -0.701737 -0.114397 0
M  V30 4295 H 414.445 -1.91855 0.375747 0
M  V30 4296 H 413.149 -4.10246 0.112441 0
M  V30 4297 H 412.68 -3.6256 -1.52689 0
M  V30 4298 H 414.695 -4.19191 -2.65505 0
M  V30 4299 N 413.868 0.0150385 -1.57593 0
M  V30 4300 C 415.093 0.718067 -1.94573 0
M  V30 4301 C 415.518 1.6734 -0.859005 0
M  V30 4302 O 414.876 1.80362 0.184147 0
M  V30 4303 C 414.924 1.43918 -3.30636 0
M  V30 4304 O 414.028 2.55299 -3.23876 0
M  V30 4305 H 413.369 0.192125 -0.635597 0
M  V30 4306 H 415.899 -0.0336708 -2.04572 0
M  V30 4307 H 415.909 1.80598 -3.65853 0
M  V30 4308 H 414.584 0.738619 -4.09289 0
M  V30 4309 H 413.161 2.21058 -3.00312 0
M  V30 4310 N 415.346 1.54954 0.287554 0
M  V30 4311 C 416.586 1.76617 1.02887 0
M  V30 4312 C 416.95 0.547759 1.84021 0
M  V30 4313 O 418.151 0.642365 2.61012 0
M  V30 4314 C 416.422 3.02717 1.89993 0
M  V30 4315 S 417.981 3.45438 2.70588 0
M  V30 4316 H 414.799 0.6207 0.346775 0
M  V30 4317 H 417.401 1.93172 0.30082 0
M  V30 4318 H 416.105 3.89503 1.29287 0
M  V30 4319 H 415.636 2.88787 2.67144 0
M  V30 4320 H 417.651 3.03566 3.92508 0
M  V30 4321 N 416.824 -0.551391 1.4764 0
M  V30 4322 C 418.054 -1.33163 1.57959 0
M  V30 4323 C 418.462 -1.87785 0.23094 0
M  V30 4324 O 417.805 -1.65996 -0.786825 0
M  V30 4325 C 417.867 -2.53449 2.54958 0
M  V30 4326 C 417.531 -2.20071 4.00522 0
M  V30 4327 C 418.528 -1.77017 4.88836 0
M  V30 4328 C 416.213 -2.31252 4.45901 0
M  V30 4329 C 418.207 -1.4558 6.20552 0
M  V30 4330 C 415.894 -1.99427 5.77644 0
M  V30 4331 C 416.892 -1.56659 6.64791 0
M  V30 4332 O 416.58 -1.25242 7.94084 0
M  V30 4333 H 416.312 -0.412022 0.535923 0
M  V30 4334 H 418.866 -0.674186 1.9402 0
M  V30 4335 H 417.096 -3.22104 2.13976 0
M  V30 4336 H 418.785 -3.15523 2.55343 0
M  V30 4337 H 419.551 -1.67867 4.55023 0
M  V30 4338 H 415.43 -2.63498 3.78272 0
M  V30 4339 H 418.974 -1.12125 6.8853 0
M  V30 4340 H 414.871 -2.08211 6.10998 0
M  V30 4341 H 415.639 -1.38822 8.06642 0
M  V30 4342 N 418.302 -1.35869 -0.798587 0
M  V30 4343 C 419.55 -1.29332 -1.55298 0
M  V30 4344 C 419.871 0.129729 -1.94568 0
M  V30 4345 O 419.141 1.06796 -1.6423 0
M  V30 4346 H 417.721 -0.475737 -0.57592 0
M  V30 4347 H 420.383 -1.70062 -0.952093 0
M  V30 4348 H 419.479 -1.91458 -2.46476 0
M  V30 4349 N 419.78 1.02168 -1.19998 0
M  V30 4350 C 420.69 2.14069 -0.959774 0
M  V30 4351 C 421.706 1.73804 0.082655 0
M  V30 4352 O 422.882 2.01133 -0.103633 0
M  V30 4353 C 419.947 3.42936 -0.509459 0
M  V30 4354 C 419.008 3.97474 -1.62213 0
M  V30 4355 C 418.241 5.2019 -1.19321 0
M  V30 4356 O 418.464 5.70369 -0.0597726 0
M  V30 4357 O 417.398 5.67749 -1.99863 0
M  V30 4358 H 421.224 2.37199 -1.89658 0
M  V30 4359 H 418.809 1.12469 -0.983411 0
M  V30 4360 H 420.691 4.20551 -0.267322 0
M  V30 4361 H 419.366 3.21234 0.398821 0
M  V30 4362 H 418.273 3.21161 -1.9185 0
M  V30 4363 H 419.606 4.23555 -2.50723 0
M  V30 4364 N 421.258 1.00505 1.21394 0
M  V30 4365 C 422.674 0.717873 1.42544 0
M  V30 4366 C 422.874 -0.706936 1.88692 0
M  V30 4367 O 421.93 -1.47627 2.04847 0
M  V30 4368 C 423.243 1.73377 2.45684 0
M  V30 4369 C 424.791 1.75059 2.59467 0
M  V30 4370 C 425.266 2.75545 3.6584 0
M  V30 4371 N 426.757 2.74213 3.73311 0
M  V30 4372 C 427.492 3.48626 4.55245 0
M  V30 4373 N 426.988 4.32678 5.41075 0
M  V30 4374 N 428.781 3.37276 4.49668 0
M  V30 4375 H 420.932 1.92506 0.897503 0
M  V30 4376 H 423.195 0.830919 0.456375 0
M  V30 4377 H 422.901 2.75395 2.18748 0
M  V30 4378 H 422.775 1.53647 3.44489 0
M  V30 4379 H 425.162 0.737337 2.8574 0
M  V30 4380 H 425.243 1.98861 1.60897 0
M  V30 4381 H 424.887 3.77028 3.40313 0
M  V30 4382 H 424.817 2.49009 4.64007 0
M  V30 4383 H 427.308 2.13234 3.11993 0
M  V30 4384 H 427.621 4.86253 6.00648 0
M  V30 4385 H 425.966 4.3676 5.40616 0
M  V30 4386 H 429.157 2.71043 3.81646 0
M  V30 4387 H 429.33 3.95524 5.13288 0
M  V30 4388 N 422.737 -1.36956 0.779787 0
M  V30 4389 C 423.7 -2.2851 0.177662 0
M  V30 4390 C 424.7 -1.48393 -0.619377 0
M  V30 4391 O 425.89 -1.68505 -0.441785 0
M  V30 4392 C 423.022 -3.32428 -0.755279 0
M  V30 4393 H 424.215 -2.83269 0.984823 0
M  V30 4394 H 421.768 -1.46358 0.548544 0
M  V30 4395 H 422.503 -2.82808 -1.58714 0
M  V30 4396 H 422.288 -3.91659 -0.185817 0
M  V30 4397 H 423.778 -4.00824 -1.17174 0
M  V30 4398 N 424.215 -0.530993 -1.48385 0
M  V30 4399 C 425.125 0.23503 -2.3342 0
M  V30 4400 C 426.141 0.93801 -1.46552 0
M  V30 4401 O 427.317 0.912745 -1.7953 0
M  V30 4402 C 424.382 1.26778 -3.22689 0
M  V30 4403 C 423.443 0.575038 -4.25431 0
M  V30 4404 C 422.676 1.55858 -5.10435 0
M  V30 4405 O 422.899 2.79129 -4.97437 0
M  V30 4406 O 421.833 1.09742 -5.91811 0
M  V30 4407 H 425.659 -0.461794 -3.00169 0
M  V30 4408 H 423.244 -0.291903 -1.46521 0
M  V30 4409 H 425.126 1.86457 -3.77904 0
M  V30 4410 H 423.801 1.94699 -2.586 0
M  V30 4411 H 422.708 -0.0622782 -3.74048 0
M  V30 4412 H 424.041 -0.062253 -4.92161 0
M  V30 4413 N 425.693 1.55336 -0.266172 0
M  V30 4414 C 426.942 1.98574 0.353749 0
M  V30 4415 C 427.255 1.15789 1.57646 0
M  V30 4416 O 428.461 1.49129 2.26876 0
M  V30 4417 C 426.917 3.53403 0.680747 0
M  V30 4418 C 426.525 4.44953 -0.52165 0
M  V30 4419 C 428.269 4.05251 1.26379 0
M  V30 4420 C 426.176 5.91156 -0.169736 0
M  V30 4421 H 425.106 0.741643 0.135949 0
M  V30 4422 H 427.757 1.79743 -0.369421 0
M  V30 4423 H 426.139 3.68001 1.46257 0
M  V30 4424 H 427.313 4.42121 -1.29869 0
M  V30 4425 H 425.628 4.03691 -1.02093 0
M  V30 4426 H 428.225 5.12021 1.54074 0
M  V30 4427 H 428.568 3.53749 2.19471 0
M  V30 4428 H 429.101 3.94057 0.544447 0
M  V30 4429 H 425.84 6.46736 -1.0683 0
M  V30 4430 H 425.36 5.97079 0.570717 0
M  V30 4431 H 427.039 6.4655 0.241245 0
M  V30 4432 N 427.171 -0.0066808 1.57599 0
M  V30 4433 C 428.399 -0.704087 1.94551 0
M  V30 4434 C 428.814 -1.67677 0.867746 0
M  V30 4435 O 428.171 -1.8185 -0.153925 0
M  V30 4436 C 428.222 -1.44177 3.31505 0
M  V30 4437 O 427.943 -0.508097 4.35144 0
M  V30 4438 C 429.444 -2.23429 3.82876 0
M  V30 4439 H 426.664 -0.196523 0.641576 0
M  V30 4440 H 429.208 0.042453 2.04456 0
M  V30 4441 H 427.363 -2.13999 3.22929 0
M  V30 4442 H 427.777 -1.02782 5.14331 0
M  V30 4443 H 429.251 -2.70552 4.8115 0
M  V30 4444 H 429.728 -3.05818 3.15233 0
M  V30 4445 H 430.334 -1.58636 3.94607 0
M  V30 4446 N 428.649 -1.55105 -0.279332 0
M  V30 4447 C 429.889 -1.7716 -1.01949 0
M  V30 4448 C 430.253 -0.557511 -1.83728 0
M  V30 4449 O 431.454 -0.656198 -2.60667 0
M  V30 4450 C 429.725 -3.0372 -1.88385 0
M  V30 4451 S 431.284 -3.46868 -2.68752 0
M  V30 4452 H 428.102 -0.62253 -0.343478 0
M  V30 4453 H 430.704 -1.93329 -0.290572 0
M  V30 4454 H 429.408 -3.90184 -1.2722 0
M  V30 4455 H 428.939 -2.902 -2.65608 0
M  V30 4456 H 430.954 -3.05643 -3.90892 0
M  V30 4457 N 430.127 0.543554 -1.4793 0
M  V30 4458 C 431.355 1.32516 -1.58894 0
M  V30 4459 C 431.77 1.87215 -0.244131 0
M  V30 4460 O 431.127 1.65709 0.764652 0
M  V30 4461 C 431.178 2.48554 -2.62494 0
M  V30 4462 O 430.899 1.96112 -3.91755 0
M  V30 4463 C 432.4 3.40572 -2.8377 0
M  V30 4464 H 429.62 0.403472 -0.536145 0
M  V30 4465 H 432.164 0.657106 -1.93655 0
M  V30 4466 H 430.319 3.1127 -2.30629 0
M  V30 4467 H 430.733 2.71967 -4.4848 0
M  V30 4468 H 432.207 4.18375 -3.60093 0
M  V30 4469 H 432.684 3.94965 -1.92092 0
M  V30 4470 H 433.29 2.8366 -3.16887 0
M  V30 4471 N 431.605 1.3629 0.791371 0
M  V30 4472 C 432.845 1.31792 1.56238 0
M  V30 4473 C 433.209 -0.102237 1.91728 0
M  V30 4474 O 434.41 -0.271759 2.67423 0
M  V30 4475 C 432.681 2.21303 2.80642 0
M  V30 4476 S 434.24 2.34468 3.70904 0
M  V30 4477 H 431.058 0.468141 0.535131 0
M  V30 4478 H 433.66 1.71841 0.932246 0
M  V30 4479 H 432.364 3.23439 2.52617 0
M  V30 4480 H 431.895 1.82266 3.4863 0
M  V30 4481 H 433.91 1.54074 4.71673 0
M  V30 4482 N 433.083 -1.0153 1.20538 0
M  V30 4483 C 434.499 -1.27461 0.96051 0
M  V30 4484 C 434.699 -1.98273 -0.359193 0
M  V30 4485 O 433.755 -2.27886 -1.0874 0
M  V30 4486 C 435.068 -2.10837 2.14402 0
M  V30 4487 C 436.616 -2.24099 2.18515 0
M  V30 4488 C 437.091 -3.10852 3.36355 0
M  V30 4489 N 438.582 -3.18441 3.36377 0
M  V30 4490 C 439.317 -3.85795 4.24205 0
M  V30 4491 N 438.813 -4.55264 5.22213 0
M  V30 4492 N 440.606 -3.82331 4.12043 0
M  V30 4493 H 432.757 -0.539907 2.05423 0
M  V30 4494 H 435.02 -0.30092 0.898972 0
M  V30 4495 H 434.726 -1.66144 3.09983 0
M  V30 4496 H 434.6 -3.11576 2.12604 0
M  V30 4497 H 436.987 -2.68016 1.23497 0
M  V30 4498 H 437.068 -1.22865 2.24361 0
M  V30 4499 H 436.712 -2.6764 4.31661 0
M  V30 4500 H 436.642 -4.12177 3.27746 0
M  V30 4501 H 439.133 -2.68978 2.65442 0
M  V30 4502 H 439.446 -5.04331 5.85551 0
M  V30 4503 H 437.791 -4.54085 5.26148 0
M  V30 4504 H 440.982 -3.27207 3.34743 0
M  V30 4505 H 441.155 -4.34547 4.807 0
M  V30 4506 N 434.561 -1.01147 -1.20859 0
M  V30 4507 C 435.838 -0.613136 -1.85742 0
M  V30 4508 C 436.218 0.909004 -1.90526 0
M  V30 4509 O 435.566 1.79862 -1.40932 0
M  V30 4510 C 435.776 -1.255 -3.25654 0
M  V30 4511 C 437.124 -1.3672 -4.01986 0
M  V30 4512 O 438.148 -1.21082 -3.34989 0
M  V30 4513 O 437.007 -1.6194 -5.21956 0
M  V30 4514 H 434.101 -0.210878 -0.799662 0
M  V30 4515 H 436.647 -1.10853 -1.2849 0
M  V30 4516 H 435.419 -2.29532 -3.16908 0
M  V30 4517 H 435.042 -0.746369 -3.90532 0
M  V30 4518 N 436.039 1.36541 -0.78704 0
M  V30 4519 C 436.987 2.31965 -0.171724 0
M  V30 4520 C 437.981 1.55689 0.667631 0
M  V30 4521 O 439.187 1.70969 0.562981 0
M  V30 4522 H 435.562 0.751101 -0.0367545 0
M  V30 4523 H 437.533 2.81428 -0.992017 0
M  V30 4524 C 436.282 3.40968 0.680904 0
M  V30 4525 H 435.605 3.99775 0.0443961 0
M  V30 4526 H 437.045 4.10063 1.07815 0
M  V30 4527 C 435.504 2.82338 1.83813 0
M  V30 4528 O 436.034 2.74311 2.93456 0
M  V30 4529 N 434.24 2.39661 1.6435 0
M  V30 4530 H 433.787 2.46389 0.751668 0
M  V30 4531 H 433.745 2.00779 2.4194 0
M  V30 4532 N 437.518 0.538854 1.48102 0
M  V30 4533 C 438.764 0.0161732 2.03394 0
M  V30 4534 C 439.119 -1.31154 1.40771 0
M  V30 4535 O 438.412 -1.83613 0.547421 0
M  V30 4536 C 438.606 -0.153808 3.57069 0
M  V30 4537 C 438.435 1.15588 4.34591 0
M  V30 4538 C 437.205 1.71818 4.75191 0
M  V30 4539 C 439.403 2.06867 4.70861 0
M  V30 4540 N 437.385 2.96983 5.37284 0
M  V30 4541 C 438.756 3.16609 5.33066 0
M  V30 4542 C 440.811 2.07085 4.52791 0
M  V30 4543 C 439.514 4.26645 5.79109 0
M  V30 4544 C 441.54 3.16121 4.99821 0
M  V30 4545 C 440.902 4.24582 5.62058 0
M  V30 4546 H 437.001 0.0476346 0.780548 0
M  V30 4547 H 439.585 0.722094 1.80815 0
M  V30 4548 H 437.756 -0.828825 3.79454 0
M  V30 4549 H 439.488 -0.676896 3.98999 0
M  V30 4550 H 436.243 1.25845 4.56574 0
M  V30 4551 H 436.667 3.60732 5.72889 0
M  V30 4552 H 441.309 1.24522 4.04047 0
M  V30 4553 H 439.027 5.0998 6.26854 0
M  V30 4554 H 442.613 3.17355 4.87624 0
M  V30 4555 H 441.493 5.07562 5.97788 0
M  V30 4556 N 438.996 -1.55193 0.274407 0
M  V30 4557 C 439.928 -2.1989 -0.646595 0
M  V30 4558 C 440.941 -1.1834 -1.11801 0
M  V30 4559 O 442.13 -1.4507 -1.04004 0
M  V30 4560 C 439.23 -2.8104 -1.89393 0
M  V30 4561 C 438.403 -4.08274 -1.56943 0
M  V30 4562 C 437.462 -4.53478 -2.66916 0
M  V30 4563 O 436.488 -5.19267 -2.33132 0
M  V30 4564 N 437.69 -4.2356 -3.9696 0
M  V30 4565 H 440.455 -2.99556 -0.0928686 0
M  V30 4566 H 438.016 -1.61618 0.0954783 0
M  V30 4567 H 440.008 -3.08226 -2.62257 0
M  V30 4568 H 438.578 -2.05372 -2.35672 0
M  V30 4569 H 437.798 -3.88384 -0.674655 0
M  V30 4570 H 439.086 -4.91173 -1.32764 0
M  V30 4571 H 438.484 -3.70799 -4.27229 0
M  V30 4572 H 437.041 -4.55518 -4.66205 0
M  V30 4573 N 440.474 -0.00167713 -1.576 0
M  V30 4574 C 441.722 0.681471 -1.90264 0
M  V30 4575 C 442.043 1.7422 -0.875924 0
M  V30 4576 O 441.313 1.95709 0.0864412 0
M  V30 4577 H 439.893 0.254696 -0.702239 0
M  V30 4578 H 442.555 -0.0429996 -1.94853 0
M  V30 4579 H 441.651 1.15166 -2.90075 0
M  V30 4580 N 441.952 1.55251 0.271103 0
M  V30 4581 C 443.177 1.80306 1.02491 0
M  V30 4582 C 443.602 0.575457 1.79081 0
M  V30 4583 O 442.96 -0.474987 1.74967 0
M  V30 4584 C 443.008 3.02832 1.95768 0
M  V30 4585 O 442.112 2.78051 3.04568 0
M  V30 4586 H 441.453 0.595896 0.292923 0
M  V30 4587 H 443.983 2.02397 0.299436 0
M  V30 4588 H 443.993 3.31616 2.37686 0
M  V30 4589 H 442.668 3.9183 1.39434 0
M  V30 4590 H 441.245 2.60369 2.66951 0
M  V30 4591 N 443.43 -0.535701 1.48216 0
M  V30 4592 C 444.378 -1.66179 1.62749 0
M  V30 4593 C 445.372 -1.62034 0.49409 0
M  V30 4594 O 446.578 -1.6696 0.672624 0
M  V30 4595 H 442.953 -0.550244 0.512578 0
M  V30 4596 H 444.924 -1.51063 2.57337 0
M  V30 4597 C 443.673 -3.04471 1.67907 0
M  V30 4598 H 442.996 -3.08351 2.54479 0
M  V30 4599 H 444.436 -3.82894 1.82121 0
M  V30 4600 C 442.895 -3.34314 0.416596 0
M  V30 4601 O 443.425 -3.98905 -0.473014 0
M  V30 4602 N 441.631 -2.89149 0.290038 0
M  V30 4603 H 441.178 -2.36764 1.01493 0
M  V30 4604 H 441.136 -3.09486 -0.55367 0
M  V30 4605 N 444.908 -1.36708 -0.784132 0
M  V30 4606 C 446.324 -1.17237 -1.08294 0
M  V30 4607 C 446.524 -5.93947e-05 -2.015 0
M  V30 4608 O 445.58 0.663686 -2.43622 0
M  V30 4609 C 446.893 -2.48557 -1.69233 0
M  V30 4610 C 448.441 -2.54968 -1.8155 0
M  V30 4611 C 448.916 -3.86388 -2.45904 0
M  V30 4612 N 450.407 -3.87762 -2.53367 0
M  V30 4613 C 451.142 -4.86191 -3.03983 0
M  V30 4614 N 450.638 -5.95015 -3.54866 0
M  V30 4615 N 452.431 -4.73606 -3.02743 0
M  V30 4616 H 444.582 -2.11758 -0.16501 0
M  V30 4617 H 446.845 -0.93822 -0.135822 0
M  V30 4618 H 446.551 -3.34638 -1.08215 0
M  V30 4619 H 446.425 -2.64748 -2.68679 0
M  V30 4620 H 448.812 -1.69302 -2.41704 0
M  V30 4621 H 448.893 -2.42672 -0.80895 0
M  V30 4622 H 448.537 -4.72462 -1.86392 0
M  V30 4623 H 448.467 -3.95982 -3.4714 0
M  V30 4624 H 450.958 -3.09145 -2.17343 0
M  V30 4625 H 451.271 -6.66086 -3.91854 0
M  V30 4626 H 449.616 -5.98676 -3.53003 0
M  V30 4627 H 452.807 -3.87717 -2.62284 0
M  V30 4628 H 452.98 -5.50473 -3.41881 0
M  V30 4629 N 446.386 1.0089 -1.21074 0
M  V30 4630 C 447.797 1.56056 -1.02486 0
M  V30 4631 C 448.148 1.91728 0.416506 0
M  V30 4632 O 447.273 1.73066 1.29912 0
M  V30 4633 C 447.868 2.83563 -1.85411 0
M  V30 4634 C 446.427 3.3523 -1.71166 0
M  V30 4635 C 445.574 2.0846 -1.82865 0
M  V30 4636 H 448.525 0.831818 -1.35154 0
M  V30 4637 H 448.546 3.55286 -1.36205 0
M  V30 4638 H 448.058 2.57569 -2.9031 0
M  V30 4639 H 446.159 3.66167 -0.689361 0
M  V30 4640 H 446.272 4.06913 -2.52901 0
M  V30 4641 H 444.636 2.21275 -1.26132 0
M  V30 4642 H 445.419 1.84883 -2.89263 0
M  V30 4643 N 447.864 1.01787 1.20321 0
M  V30 4644 C 449.11 0.708985 1.90003 0
M  V30 4645 C 449.443 -0.759572 1.78729 0
M  V30 4646 O 448.718 -1.55198 1.17234 0
M  V30 4647 C 449.001 1.1469 3.41348 0
M  V30 4648 C 448.854 2.67586 3.61549 0
M  V30 4649 C 450.173 0.71915 4.34185 0
M  V30 4650 H 447.292 0.259034 0.689978 0
M  V30 4651 H 449.934 1.26584 1.41692 0
M  V30 4652 H 448.084 0.673128 3.82624 0
M  V30 4653 H 449.756 3.22826 3.29517 0
M  V30 4654 H 447.999 3.085 3.04976 0
M  V30 4655 H 448.67 2.93281 4.67643 0
M  V30 4656 H 451.146 1.12647 4.00562 0
M  V30 4657 H 450.022 1.05358 5.38694 0
M  V30 4658 H 450.283 -0.379111 4.40472 0
M  V30 4659 N 449.342 -1.36122 0.79427 0
M  V30 4660 C 450.591 -1.98361 0.365464 0
M  V30 4661 C 450.904 -1.6374 -1.06997 0
M  V30 4662 O 452.11 -2.19251 -1.60129 0
M  V30 4663 C 450.566 -3.54821 0.602496 0
M  V30 4664 C 450.174 -3.98362 2.04967 0
M  V30 4665 C 451.918 -4.2383 0.238437 0
M  V30 4666 C 449.825 -5.47619 2.2331 0
M  V30 4667 H 448.755 -0.742193 0.13291 0
M  V30 4668 H 451.406 -1.55354 0.976589 0
M  V30 4669 H 449.788 -3.95922 -0.078409 0
M  V30 4670 H 450.962 -3.68447 2.76737 0
M  V30 4671 H 449.277 -3.42206 2.37243 0
M  V30 4672 H 451.874 -5.33529 0.353705 0
M  V30 4673 H 452.217 -4.08264 -0.814006 0
M  V30 4674 H 452.75 -3.88108 0.872769 0
M  V30 4675 H 449.489 -5.68138 3.26955 0
M  V30 4676 H 449.009 -5.79145 1.5605 0
M  V30 4677 H 450.688 -6.13911 2.0426 0
M  V30 4678 N 450.82 -0.546701 -1.47814 0
M  V30 4679 C 452.236 -0.205717 -1.58269 0
M  V30 4680 C 452.436 1.29153 -1.54667 0
M  V30 4681 O 451.492 2.07098 -1.44453 0
M  V30 4682 C 452.805 -0.823065 -2.89216 0
M  V30 4683 C 454.353 -0.793328 -3.02779 0
M  V30 4684 C 454.828 -1.38955 -4.36412 0
M  V30 4685 N 456.319 -1.35227 -4.43021 0
M  V30 4686 C 457.054 -1.78333 -5.44963 0
M  V30 4687 N 456.55 -2.29246 -6.53772 0
M  V30 4688 N 458.343 -1.69467 -5.35945 0
M  V30 4689 H 450.494 -1.5196 -1.48398 0
M  V30 4690 H 452.757 -0.633078 -0.705632 0
M  V30 4691 H 452.463 -1.8749 -2.97558 0
M  V30 4692 H 452.337 -0.309915 -3.75925 0
M  V30 4693 H 454.724 0.249784 -2.94041 0
M  V30 4694 H 454.805 -1.34412 -2.17639 0
M  V30 4695 H 454.449 -2.43168 -4.45906 0
M  V30 4696 H 454.379 -0.814291 -5.20266 0
M  V30 4697 H 456.87 -0.979739 -3.64979 0
M  V30 4698 H 457.183 -2.60089 -7.27718 0
M  V30 4699 H 455.528 -2.3325 -6.5469 0
M  V30 4700 H 458.719 -1.29477 -4.49837 0
M  V30 4701 H 458.892 -2.03381 -6.15256 0
M  V30 4702 N 452.299 1.55045 -0.282633 0
M  V30 4703 C 453.548 1.98938 0.332667 0
M  V30 4704 C 453.861 1.17455 1.56409 0
M  V30 4705 O 455.067 1.51527 2.25282 0
M  V30 4706 C 453.523 3.54105 0.643226 0
M  V30 4707 C 453.131 4.44374 -0.568814 0
M  V30 4708 C 454.875 4.06569 1.22074 0
M  V30 4709 C 452.782 5.90943 -0.232426 0
M  V30 4710 H 451.712 0.743043 0.128075 0
M  V30 4711 H 454.363 1.79341 -0.388464 0
M  V30 4712 H 452.745 3.69532 1.42346 0
M  V30 4713 H 453.919 4.40718 -1.34551 0
M  V30 4714 H 452.234 4.02585 -1.06369 0
M  V30 4715 H 454.831 5.13626 1.48635 0
M  V30 4716 H 455.174 3.56057 2.15707 0
M  V30 4717 H 455.707 3.94612 0.502621 0
M  V30 4718 H 452.446 6.45567 -1.13683 0
M  V30 4719 H 451.966 5.9765 0.507357 0
M  V30 4720 H 453.645 6.4677 0.172657 0
M  V30 4721 N 453.777 0.010035 1.57597 0
M  V30 4722 C 455.054 -0.710296 1.82248 0
M  V30 4723 C 455.434 -1.91426 0.889911 0
M  V30 4724 O 454.782 -2.28424 -0.0590292 0
M  V30 4725 C 454.992 -1.10655 3.30993 0
M  V30 4726 C 456.34 -1.50621 3.96987 0
M  V30 4727 O 457.364 -1.20007 3.35375 0
M  V30 4728 O 456.223 -2.07587 5.05539 0
M  V30 4729 H 453.317 -0.34673 0.750804 0
M  V30 4730 H 455.863 0.0362578 1.69661 0
M  V30 4731 H 454.635 -0.248826 3.90508 0
M  V30 4732 H 454.258 -1.91189 3.48615 0
M  V30 4733 N 455.255 -1.55392 -0.262866 0
M  V30 4734 C 456.666 -1.67079 -0.833158 0
M  V30 4735 C 457.017 -0.604539 -1.86654 0
M  V30 4736 O 456.142 0.252138 -2.14926 0
M  V30 4737 C 456.737 -3.02891 -1.51797 0
M  V30 4738 C 455.296 -3.16571 -2.03617 0
M  V30 4739 C 454.443 -2.62909 -0.881701 0
M  V30 4740 H 457.394 -1.58652 -0.0389986 0
M  V30 4741 H 457.415 -2.96445 -2.38538 0
M  V30 4742 H 456.927 -3.80473 -0.765619 0
M  V30 4743 H 455.028 -2.43782 -2.81782 0
M  V30 4744 H 455.141 -4.23271 -2.24452 0
M  V30 4745 H 453.505 -2.20324 -1.27786 0
M  V30 4746 H 454.288 -3.43003 -0.14269 0
M  V30 4747 N 456.733 0.527833 -1.48498 0
M  V30 4748 C 457.979 1.28545 -1.56857 0
M  V30 4749 C 458.312 1.92678 -0.242651 0
M  V30 4750 O 457.587 1.79394 0.751545 0
M  V30 4751 C 457.87 2.37314 -2.70839 0
M  V30 4752 C 457.723 1.77858 -4.13142 0
M  V30 4753 C 459.042 3.39068 -2.80573 0
M  V30 4754 H 456.161 0.466006 -0.570971 0
M  V30 4755 H 458.803 0.587784 -1.8068 0
M  V30 4756 H 456.953 2.96821 -2.50658 0
M  V30 4757 H 458.625 1.22385 -4.44769 0
M  V30 4758 H 456.868 1.08383 -4.20042 0
M  V30 4759 H 457.539 2.56624 -4.88721 0
M  V30 4760 H 460.015 2.89518 -2.98862 0
M  V30 4761 H 458.891 4.12566 -3.6205 0
M  V30 4762 H 459.152 3.9975 -1.88818 0
M  V30 4763 N 458.211 1.37122 0.776871 0
M  V30 4764 C 459.174 1.32301 1.8716 0
M  V30 4765 C 460.174 0.228099 1.59174 0
M  V30 4766 O 461.364 0.483642 1.67352 0
M  V30 4767 C 458.496 1.054 3.24197 0
M  V30 4768 H 459.689 2.29673 1.92848 0
M  V30 4769 H 457.242 1.22077 0.97606 0
M  V30 4770 H 457.977 0.0853872 3.24188 0
M  V30 4771 H 457.762 1.84648 3.45901 0
M  V30 4772 H 459.252 1.04664 4.04271 0
M  V30 4773 N 459.689 -1.00246 1.21608 0
M  V30 4774 C 460.622 -2.08794 0.920892 0
M  V30 4775 C 461.6 -1.62059 -0.132552 0
M  V30 4776 O 462.784 -1.885 -0.0030366 0
M  V30 4777 C 459.911 -3.36525 0.383226 0
M  V30 4778 C 458.957 -4.02172 1.41987 0
M  V30 4779 S 459.79 -4.44256 2.98994 0
M  V30 4780 C 460.946 -5.7517 2.4684 0
M  V30 4781 H 461.179 -2.33511 1.8401 0
M  V30 4782 H 458.712 -1.13562 1.04609 0
M  V30 4783 H 460.67 -4.10423 0.0795871 0
M  V30 4784 H 459.331 -3.09854 -0.514711 0
M  V30 4785 H 458.524 -4.94114 0.993335 0
M  V30 4786 H 458.126 -3.34559 1.67171 0
M  V30 4787 H 460.418 -6.51042 1.87484 0
M  V30 4788 H 461.361 -6.22638 3.37235 0
M  V30 4789 H 461.769 -5.32112 1.88461 0
M  V30 4790 N 461.167 -1.02423 -1.1978 0
M  V30 4791 C 462.395 -0.737456 -1.93311 0
M  V30 4792 C 462.81 0.703023 -1.75223 0
M  V30 4793 O 462.167 1.47761 -1.07112 0
M  V30 4794 C 462.218 -1.0733 -3.45199 0
M  V30 4795 O 461.939 -2.4572 -3.62702 0
M  V30 4796 C 463.44 -0.80866 -4.35862 0
M  V30 4797 H 460.66 -0.2702 -0.614193 0
M  V30 4798 H 463.204 -1.36747 -1.52054 0
M  V30 4799 H 461.359 -0.488545 -3.84307 0
M  V30 4800 H 461.773 -2.58081 -4.56612 0
M  V30 4801 H 463.247 -1.09365 -5.41057 0
M  V30 4802 H 463.724 0.257025 -4.38447 0
M  V30 4803 H 464.33 -1.37592 -4.02428 0
M  V30 4804 N 462.645 1.35699 -0.801477 0
M  V30 4805 C 463.595 2.2728 -0.181073 0
M  V30 4806 C 464.579 1.47533 0.642098 0
M  V30 4807 O 465.771 1.69785 0.500193 0
M  V30 4808 C 462.9 3.36626 0.673612 0
M  V30 4809 C 461.986 4.23802 -0.159008 0
M  V30 4810 N 462.377 4.90879 -1.2195 0
M  V30 4811 C 460.675 4.45959 0.0602005 0
M  V30 4812 C 461.376 5.5546 -1.72738 0
M  V30 4813 N 460.352 5.33663 -1.03465 0
M  V30 4814 H 464.154 2.76632 -0.992582 0
M  V30 4815 H 461.668 1.49166 -0.642127 0
M  V30 4816 H 463.665 4.01179 1.13408 0
M  V30 4817 H 462.325 2.88828 1.48353 0
M  V30 4818 H 463.336 4.92497 -1.60209 0
M  V30 4819 H 460.013 4.08969 0.839664 0
M  V30 4820 H 461.403 6.18991 -2.61342 0
M  V30 4821 N 464.123 0.554532 1.47522 0
M  V30 4822 C 465.351 0.034257 2.06872 0
M  V30 4823 C 465.766 -1.25826 1.40759 0
M  V30 4824 O 465.123 -1.75425 0.503217 0
M  V30 4825 C 465.174 -0.167827 3.6111 0
M  V30 4826 O 464.895 1.07351 4.24744 0
M  V30 4827 C 466.396 -0.72569 4.3732 0
M  V30 4828 H 463.616 0.0446275 0.669514 0
M  V30 4829 H 466.16 0.767181 1.89564 0
M  V30 4830 H 464.315 -0.850872 3.7794 0
M  V30 4831 H 464.729 0.869563 5.17242 0
M  V30 4832 H 466.203 -0.816394 5.45929 0
M  V30 4833 H 466.68 -1.73635 4.0342 0
M  V30 4834 H 467.286 -0.0784292 4.25228 0
M  V30 4835 N 465.601 -1.54893 0.290851 0
M  V30 4836 C 466.826 -2.04804 -0.32712 0
M  V30 4837 C 467.251 -1.16721 -1.47506 0
M  V30 4838 O 466.609 -0.169107 -1.8051 0
M  V30 4839 C 466.657 -3.52268 -0.770689 0
M  V30 4840 O 465.761 -3.67236 -1.87647 0
M  V30 4841 H 465.102 -0.660789 -0.0652227 0
M  V30 4842 H 467.632 -2.00036 0.429739 0
M  V30 4843 H 467.642 -3.9393 -1.06223 0
M  V30 4844 H 466.317 -4.15843 0.069096 0
M  V30 4845 H 464.894 -3.37479 -1.58626 0
M  V30 4846 N 467.08 -0.0183926 -1.57589 0
M  V30 4847 C 468.012 0.995557 -2.06449 0
M  V30 4848 C 469.025 1.29556 -0.985849 0
M  V30 4849 O 470.214 1.2621 -1.26227 0
M  V30 4850 C 467.314 2.32572 -2.46502 0
M  V30 4851 C 466.487 2.21245 -3.77319 0
M  V30 4852 C 465.546 3.37104 -4.04039 0
M  V30 4853 O 464.572 3.14468 -4.74445 0
M  V30 4854 N 465.774 4.60553 -3.53372 0
M  V30 4855 H 468.539 0.578746 -2.94059 0
M  V30 4856 H 466.1 0.168603 -1.6102 0
M  V30 4857 H 468.092 3.08887 -2.61478 0
M  V30 4858 H 466.662 2.65931 -1.64315 0
M  V30 4859 H 465.882 1.29723 -3.72244 0
M  V30 4860 H 467.17 2.10868 -4.63047 0
M  V30 4861 H 466.568 4.81839 -2.96391 0
M  V30 4862 H 465.125 5.34072 -3.73644 0
M  V30 4863 N 468.558 1.5553 0.254621 0
M  V30 4864 C 469.788 1.80784 1.00004 0
M  V30 4865 C 470.196 0.59071 1.79742 0
M  V30 4866 O 469.539 -0.449988 1.78103 0
M  V30 4867 C 469.601 2.99268 1.99196 0
M  V30 4868 C 469.265 4.35595 1.38224 0
M  V30 4869 C 470.262 5.13884 0.788611 0
M  V30 4870 C 467.947 4.82281 1.40393 0
M  V30 4871 C 469.941 6.37004 0.224783 0
M  V30 4872 C 467.628 6.05351 0.836243 0
M  V30 4873 C 468.626 6.82551 0.24769 0
M  V30 4874 O 468.314 8.03297 -0.311249 0
M  V30 4875 H 468.046 0.60565 0.300274 0
M  V30 4876 H 470.6 2.03411 0.285143 0
M  V30 4877 H 468.83 2.72377 2.74496 0
M  V30 4878 H 470.519 3.11682 2.60018 0
M  V30 4879 H 471.285 4.78938 0.764423 0
M  V30 4880 H 467.164 4.22189 1.85142 0
M  V30 4881 H 470.708 6.97203 -0.235235 0
M  V30 4882 H 466.605 6.39776 0.857733 0
M  V30 4883 H 467.373 8.1825 -0.20237 0
M  V30 4884 N 470.036 -0.519951 1.48776 0
M  V30 4885 C 471.285 -1.27175 1.56555 0
M  V30 4886 C 471.598 -1.9401 0.248869 0
M  V30 4887 O 472.804 -2.70725 0.205004 0
M  V30 4888 C 471.26 -2.30811 2.76142 0
M  V30 4889 C 470.868 -1.7 4.14493 0
M  V30 4890 C 472.612 -3.06937 2.9324 0
M  V30 4891 C 470.519 -2.71635 5.25327 0
M  V30 4892 H 469.449 -0.478329 0.582853 0
M  V30 4893 H 472.1 -0.547916 1.75129 0
M  V30 4894 H 470.482 -3.06274 2.51023 0
M  V30 4895 H 471.656 -1.00658 4.49672 0
M  V30 4896 H 469.971 -1.06331 4.02595 0
M  V30 4897 H 472.568 -3.82905 3.73213 0
M  V30 4898 H 472.911 -3.63409 2.03075 0
M  V30 4899 H 473.444 -2.38589 3.18308 0
M  V30 4900 H 470.183 -2.1997 6.1749 0
M  V30 4901 H 469.703 -3.39275 4.94624 0
M  V30 4902 H 471.382 -3.34429 5.53865 0
M  V30 4903 N 471.514 -1.37532 -0.769588 0
M  V30 4904 C 472.754 -1.34261 -1.54122 0
M  V30 4905 C 473.118 0.0717222 -1.91866 0
M  V30 4906 O 474.319 0.22918 -2.67821 0
M  V30 4907 C 472.59 -2.2574 -2.77086 0
M  V30 4908 S 474.149 -2.40339 -3.67127 0
M  V30 4909 H 470.967 -0.476595 -0.527615 0
M  V30 4910 H 473.569 -1.73303 -0.90479 0
M  V30 4911 H 472.273 -3.27417 -2.4744 0
M  V30 4912 H 471.804 -1.87789 -3.45686 0
M  V30 4913 H 473.819 -1.61558 -4.69163 0
M  V30 4914 N 472.992 0.995999 -1.22138 0
M  V30 4915 C 474.217 1.77601 -1.0711 0
M  V30 4916 C 474.642 1.84339 0.374264 0
M  V30 4917 O 474 1.29359 1.27028 0
M  V30 4918 C 474.048 3.18897 -1.68336 0
M  V30 4919 O 473.152 4.01663 -0.934928 0
M  V30 4920 H 472.493 0.547011 -0.376397 0
M  V30 4921 H 475.023 1.25137 -1.6187 0
M  V30 4922 H 475.033 3.69539 -1.72931 0
M  V30 4923 H 473.708 3.13308 -2.73516 0
M  V30 4924 H 472.285 3.60204 -0.964751 0
M  V30 4925 N 474.47 1.03057 1.19235 0
M  V30 4926 C 475.881 0.757449 1.70645 0
M  V30 4927 C 476.232 -0.722735 1.82403 0
M  V30 4928 O 475.357 -1.56325 1.49638 0
M  V30 4929 C 475.952 1.36833 3.09939 0
M  V30 4930 C 474.511 1.14375 3.58602 0
M  V30 4931 C 473.658 1.46533 2.35422 0
M  V30 4932 H 476.609 1.19828 1.04052 0
M  V30 4933 H 476.63 0.766184 3.72706 0
M  V30 4934 H 476.142 2.44562 3.01349 0
M  V30 4935 H 474.243 0.0847542 3.72504 0
M  V30 4936 H 474.356 1.83366 4.42622 0
M  V30 4937 H 472.72 0.884712 2.38841 0
M  V30 4938 H 473.503 2.55349 2.2946 0
M  V30 4939 N 475.948 -1.35272 0.808662 0
M  V30 4940 C 477.194 -1.99003 0.390581 0
M  V30 4941 C 477.527 -1.63999 -1.0401 0
M  V30 4942 O 476.802 -0.904368 -1.72196 0
M  V30 4943 C 477.085 -3.55454 0.576566 0
M  V30 4944 C 476.938 -4.00249 2.05233 0
M  V30 4945 C 478.257 -4.401 0.00354277 0
M  V30 4946 H 475.376 -0.722917 0.143388 0
M  V30 4947 H 478.018 -1.6039 1.01858 0
M  V30 4948 H 476.168 -3.88477 0.0419766 0
M  V30 4949 H 477.84 -3.77626 2.64946 0
M  V30 4950 H 476.083 -3.51082 2.54801 0
M  V30 4951 H 476.754 -5.0911 2.13333 0
M  V30 4952 H 479.23 -4.13548 0.460117 0
M  V30 4953 H 478.106 -5.48656 0.163575 0
M  V30 4954 H 478.367 -4.28444 -1.09032 0
M  V30 4955 N 477.426 -0.562348 -1.47226 0
M  V30 4956 C 478.356 0.170627 -2.32876 0
M  V30 4957 C 479.337 0.903748 -1.44106 0
M  V30 4958 O 480.522 0.883206 -1.72954 0
M  V30 4959 C 477.652 1.19786 -3.25989 0
M  V30 4960 C 476.606 0.580875 -4.2404 0
M  V30 4961 C 475.932 1.71311 -5.06514 0
M  V30 4962 C 477.232 -0.468714 -5.20193 0
M  V30 4963 H 478.926 -0.544441 -2.94408 0
M  V30 4964 H 476.472 -0.263271 -1.41573 0
M  V30 4965 H 478.425 1.71884 -3.84752 0
M  V30 4966 H 477.149 1.94294 -2.62521 0
M  V30 4967 H 475.808 0.0811538 -3.6651 0
M  V30 4968 H 475.456 2.44736 -4.39447 0
M  V30 4969 H 475.156 1.30604 -5.72902 0
M  V30 4970 H 476.68 2.23725 -5.68137 0
M  V30 4971 H 478.094 -0.0336028 -5.7329 0
M  V30 4972 H 476.491 -0.794957 -5.94811 0
M  V30 4973 H 477.561 -1.36269 -4.65359 0
M  V30 4974 N 478.904 1.54736 -0.299062 0
M  V30 4975 C 480.132 2.04512 0.313447 0
M  V30 4976 C 480.547 1.17643 1.47667 0
M  V30 4977 O 479.904 0.20164 1.81383 0
M  V30 4978 C 479.955 3.53171 0.771542 0
M  V30 4979 O 479.676 4.36736 -0.345379 0
M  V30 4980 C 481.177 4.18936 1.4494 0
M  V30 4981 H 478.397 0.667507 0.0683784 0
M  V30 4982 H 480.941 1.99752 -0.438129 0
M  V30 4983 H 479.096 3.58298 1.47314 0
M  V30 4984 H 479.51 5.24499 0.0109219 0
M  V30 4985 H 480.984 5.24482 1.72111 0
M  V30 4986 H 481.461 3.68554 2.38883 0
M  V30 4987 H 482.067 4.17879 0.791028 0
M  V30 4988 N 480.382 0.0267497 1.57577 0
M  V30 4989 C 481.659 -0.690926 1.82991 0
M  V30 4990 C 482.039 -1.90471 0.910164 0
M  V30 4991 O 481.387 -2.28474 -0.0347985 0
M  V30 4992 C 481.597 -1.07139 3.32148 0
M  V30 4993 C 482.945 -1.46402 3.98562 0
M  V30 4994 O 483.969 -1.16443 3.36629 0
M  V30 4995 O 482.828 -2.02214 5.07712 0
M  V30 4996 H 479.922 -0.338747 0.75444 0
M  V30 4997 H 482.468 0.0542506 1.69613 0
M  V30 4998 H 481.24 -0.207394 3.9075 0
M  V30 4999 H 480.863 -1.87481 3.50623 0
M  V30 5000 N 481.861 -1.55662 -0.24637 0
M  V30 5001 C 482.809 -1.91186 -1.3248 0
M  V30 5002 C 483.803 -0.790996 -1.49799 0
M  V30 5003 O 485.009 -0.975617 -1.51267 0
M  V30 5004 H 481.384 -0.607207 -0.443626 0
M  V30 5005 H 483.355 -2.81221 -0.997853 0
M  V30 5006 C 482.104 -2.22349 -2.67313 0
M  V30 5007 H 481.427 -3.08097 -2.54786 0
M  V30 5008 H 482.867 -2.51107 -3.41645 0
M  V30 5009 C 481.326 -1.04001 -3.20446 0
M  V30 5010 O 481.856 -0.28828 -4.00664 0
M  V30 5011 N 480.062 -0.830494 -2.7848 0
M  V30 5012 H 479.609 -1.4435 -2.13356 0
M  V30 5013 H 479.567 -0.0403258 -3.14374 0
M  V30 5014 N 483.339 0.512053 -1.4905 0
M  V30 5015 C 484.75 1.09376 -1.51307 0
M  V30 5016 C 485.101 1.94 -0.292971 0
M  V30 5017 O 484.226 2.07965 0.598277 0
M  V30 5018 C 484.821 1.99031 -2.74176 0
M  V30 5019 C 483.38 2.52385 -2.79247 0
M  V30 5020 C 482.527 1.29749 -2.45073 0
M  V30 5021 H 485.478 0.296467 -1.55906 0
M  V30 5022 H 485.499 2.83569 -2.53711 0
M  V30 5023 H 485.011 1.37412 -3.62959 0
M  V30 5024 H 483.112 3.17673 -1.94716 0
M  V30 5025 H 483.225 2.90293 -3.81139 0
M  V30 5026 H 481.589 1.61912 -1.96612 0
M  V30 5027 H 482.372 0.698555 -3.36118 0
M  V30 5028 N 484.817 1.37938 0.762283 0
M  V30 5029 C 486.233 1.18945 1.06415 0
M  V30 5030 C 486.433 0.0321163 2.01474 0
M  V30 5031 O 485.489 -0.624844 2.44647 0
M  V30 5032 C 486.802 2.51218 1.65258 0
M  V30 5033 C 488.35 2.57824 1.7747 0
M  V30 5034 C 488.825 3.90251 2.39725 0
M  V30 5035 N 490.316 3.91744 2.47166 0
M  V30 5036 C 491.051 4.90966 2.96209 0
M  V30 5037 N 490.547 6.00585 3.45354 0
M  V30 5038 N 492.34 4.78363 2.9517 0
M  V30 5039 H 484.491 2.11994 0.131301 0
M  V30 5040 H 486.754 0.940262 0.120879 0
M  V30 5041 H 486.46 3.36317 1.02878 0
M  V30 5042 H 486.334 2.68989 2.64433 0
M  V30 5043 H 488.721 1.73126 2.3898 0
M  V30 5044 H 488.802 2.43928 0.770241 0
M  V30 5045 H 488.446 4.75368 1.78852 0
M  V30 5046 H 488.376 4.01454 3.40796 0
M  V30 5047 H 490.867 3.12563 2.12397 0
M  V30 5048 H 491.18 6.72236 3.81207 0
M  V30 5049 H 489.525 6.04217 3.43434 0
M  V30 5050 H 492.716 3.91841 2.56082 0
M  V30 5051 H 492.889 5.55843 3.33081 0
M  V30 5052 N 486.295 -0.989507 1.22664 0
M  V30 5053 C 487.706 -1.54406 1.04955 0
M  V30 5054 C 488.057 -1.92366 -0.385951 0
M  V30 5055 O 487.182 -1.75111 -1.27142 0
M  V30 5056 C 487.777 -2.80578 1.89899 0
M  V30 5057 C 486.336 -3.32464 1.76478 0
M  V30 5058 C 485.483 -2.05524 1.86159 0
M  V30 5059 H 488.434 -0.810211 1.3646 0
M  V30 5060 H 488.455 -3.53075 1.4184 0
M  V30 5061 H 487.967 -2.52918 2.94371 0
M  V30 5062 H 486.068 -3.65024 0.747528 0
M  V30 5063 H 486.181 -4.02838 2.59342 0
M  V30 5064 H 484.545 -2.19241 1.29636 0
M  V30 5065 H 485.328 -1.80258 2.92168 0
M  V30 5066 N 487.773 -1.03688 -1.18687 0
M  V30 5067 C 488.721 -0.618292 -2.24232 0
M  V30 5068 C 489.715 0.353045 -1.6568 0
M  V30 5069 O 490.921 0.220749 -1.78641 0
M  V30 5070 H 487.296 -0.181711 -0.729716 0
M  V30 5071 H 489.267 -1.51893 -2.56848 0
M  V30 5072 C 488.016 0.00677342 -3.47699 0
M  V30 5073 H 487.339 -0.731692 -3.93047 0
M  V30 5074 H 488.779 0.262492 -4.23187 0
M  V30 5075 C 487.238 1.25572 -3.12623 0
M  V30 5076 O 487.768 2.34691 -3.26011 0
M  V30 5077 N 485.974 1.14755 -2.66982 0
M  V30 5078 H 485.521 0.259601 -2.56289 0
M  V30 5079 H 485.479 1.98412 -2.43885 0
M  V30 5080 N 489.251 1.34841 -0.815825 0
M  V30 5081 C 490.528 1.92908 -0.323416 0
M  V30 5082 C 490.908 1.74479 1.18828 0
M  V30 5083 O 490.256 1.11928 1.99209 0
M  V30 5084 C 490.466 3.40957 -0.744952 0
M  V30 5085 C 491.814 4.18107 -0.739716 0
M  V30 5086 O 492.838 3.49511 -0.68708 0
M  V30 5087 O 491.697 5.40517 -0.806456 0
M  V30 5088 H 488.791 0.822436 -0.0867646 0
M  V30 5089 H 491.337 1.4386 -0.90014 0
M  V30 5090 H 490.109 3.4814 -1.78646 0
M  V30 5091 H 489.732 3.97341 -0.143535 0
M  V30 5092 N 490.729 0.570148 1.46925 0
M  V30 5093 C 492.14 0.1402 1.86173 0
M  V30 5094 C 492.491 -1.29347 1.47526 0
M  V30 5095 O 491.616 -1.97508 0.884292 0
M  V30 5096 C 492.211 0.247661 3.37894 0
M  V30 5097 C 490.77 -0.127332 3.76185 0
M  V30 5098 C 489.917 0.589349 2.70965 0
M  V30 5099 H 492.868 0.779117 1.38259 0
M  V30 5100 H 492.889 -0.530341 3.76786 0
M  V30 5101 H 492.401 1.29121 3.65991 0
M  V30 5102 H 490.502 -1.17149 3.53704 0
M  V30 5103 H 490.615 0.240238 4.78497 0
M  V30 5104 H 488.979 0.0309824 2.54681 0
M  V30 5105 H 489.762 1.6343 3.01903 0
M  V30 5106 N 492.207 -1.54576 0.307264 0
M  V30 5107 C 493.435 -2.04675 -0.302597 0
M  V30 5108 C 493.85 -1.18425 -1.47041 0
M  V30 5109 O 493.207 -0.211257 -1.81273 0
M  V30 5110 C 493.258 -3.53575 -0.752801 0
M  V30 5111 O 492.979 -4.36547 0.368536 0
M  V30 5112 C 494.48 -4.19699 -1.42717 0
M  V30 5113 H 491.7 -0.66786 -0.0648374 0
M  V30 5114 H 494.244 -1.99516 0.448716 0
M  V30 5115 H 492.399 -3.59074 -1.45412 0
M  V30 5116 H 492.813 -5.24497 0.0168937 0
M  V30 5117 H 494.287 -5.25388 -1.69327 0
M  V30 5118 H 494.764 -3.69815 -2.36925 0
M  V30 5119 H 495.37 -4.18293 -0.768856 0
M  V30 5120 N 493.685 -0.035106 -1.57561 0
M  V30 5121 C 494.931 0.64318 -1.92331 0
M  V30 5122 C 495.264 1.71434 -0.912368 0
M  V30 5123 O 494.539 1.94395 0.0640303 0
M  V30 5124 C 494.822 1.25411 -3.37556 0
M  V30 5125 C 494.675 0.192109 -4.4939 0
M  V30 5126 C 495.994 2.17041 -3.82859 0
M  V30 5127 H 493.113 0.232341 -0.699419 0
M  V30 5128 H 495.755 -0.0935889 -1.89769 0
M  V30 5129 H 493.905 1.88205 -3.39869 0
M  V30 5130 H 495.577 -0.438849 -4.59208 0
M  V30 5131 H 493.82 -0.481725 -4.31117 0
M  V30 5132 H 494.491 0.659292 -5.48049 0
M  V30 5133 H 496.967 1.64228 -3.8232 0
M  V30 5134 H 495.843 2.56738 -4.85157 0
M  V30 5135 H 496.104 3.06401 -3.18702 0
M  V30 5136 N 495.163 1.55791 0.238111 0
M  V30 5137 C 496.411 1.77681 0.963001 0
M  V30 5138 C 496.732 0.600674 1.85518 0
M  V30 5139 O 496.002 -0.383182 1.92116 0
M  V30 5140 H 494.582 0.655315 0.358568 0
M  V30 5141 H 497.244 1.93239 0.253945 0
M  V30 5142 H 496.34 2.69177 1.57956 0
M  V30 5143 N 496.642 -0.504142 1.49319 0
M  V30 5144 C 497.589 -1.60603 1.65756 0
M  V30 5145 C 498.559 -1.58425 0.499082 0
M  V30 5146 O 499.744 -1.76459 0.725728 0
M  V30 5147 C 496.884 -2.98764 1.72726 0
M  V30 5148 C 495.997 -3.10982 2.99857 0
M  V30 5149 C 495.132 -4.39857 2.97824 0
M  V30 5150 C 494.171 -4.45697 4.19548 0
M  V30 5151 N 493.308 -5.65995 4.15444 0
M  V30 5152 H 498.148 -1.45895 2.59843 0
M  V30 5153 H 495.685 -0.709891 1.28837 0
M  V30 5154 H 497.643 -3.78839 1.74747 0
M  V30 5155 H 496.273 -3.12183 0.821075 0
M  V30 5156 H 495.325 -2.23991 3.07461 0
M  V30 5157 H 496.637 -3.11157 3.89849 0
M  V30 5158 H 495.791 -5.2825 2.98391 0
M  V30 5159 H 494.53 -4.42242 2.05604 0
M  V30 5160 H 493.535 -3.55707 4.19229 0
M  V30 5161 H 494.76 -4.4503 5.12957 0
M  V30 5162 H 492.706 -5.69229 3.26059 0
M  V30 5163 H 492.623 -5.67773 4.99169 0
M  V30 5164 H 493.891 -6.56604 4.20109 0
M  V30 5165 N 498.12 -1.38341 -0.754957 0
M  V30 5166 C 499.36 -1.35888 -1.52689 0
M  V30 5167 C 499.724 0.0513682 -1.91931 0
M  V30 5168 O 500.925 0.200761 -2.68049 0
M  V30 5169 C 499.196 -2.28666 -2.74676 0
M  V30 5170 S 500.755 -2.4422 -3.64558 0
M  V30 5171 H 497.573 -0.482165 -0.522531 0
M  V30 5172 H 500.175 -1.74253 -0.886358 0
M  V30 5173 H 498.879 -3.30023 -2.43953 0
M  V30 5174 H 498.41 -1.91445 -3.43675 0
M  V30 5175 H 500.425 -1.66525 -4.67423 0
M  V30 5176 N 499.598 0.982988 -1.23187 0
M  V30 5177 C 500.546 2.09616 -1.00817 0
M  V30 5178 C 501.54 1.6932 0.0519995 0
M  V30 5179 O 502.746 1.79715 -0.101284 0
M  V30 5180 H 499.121 0.685628 -0.308899 0
M  V30 5181 H 501.092 2.25652 -1.95253 0
M  V30 5182 C 499.841 3.42249 -0.613243 0
M  V30 5183 H 499.164 3.73705 -1.42073 0
M  V30 5184 H 500.604 4.21086 -0.496208 0
M  V30 5185 C 499.063 3.30002 0.678233 0
M  V30 5186 O 499.593 3.6263 1.72807 0
M  V30 5187 N 497.799 2.83164 0.653165 0
M  V30 5188 H 497.346 2.56811 -0.201492 0
M  V30 5189 H 497.304 2.75352 1.51752 0
M  V30 5190 N 501.076 1.04316 1.18135 0
M  V30 5191 C 502.353 0.662166 1.84051 0
M  V30 5192 C 502.733 -0.858169 1.9287 0
M  V30 5193 O 502.081 -1.76062 1.45652 0
M  V30 5194 C 502.291 1.3409 3.22212 0
M  V30 5195 C 503.639 1.4733 3.9822 0
M  V30 5196 O 504.663 1.29921 3.31661 0
M  V30 5197 O 503.522 1.75722 5.17479 0
M  V30 5198 H 500.616 0.232005 0.79379 0
M  V30 5199 H 503.162 1.1422 1.25506 0
M  V30 5200 H 501.934 2.37853 3.10711 0
M  V30 5201 H 501.557 0.849649 3.88416 0
M  V30 5202 N 502.554 -1.34406 0.822964 0
M  V30 5203 C 503.965 -1.8069 0.469879 0
M  V30 5204 C 504.316 -1.68223 -1.00972 0
M  V30 5205 O 503.441 -1.22226 -1.78577 0
M  V30 5206 C 504.036 -3.28064 0.846118 0
M  V30 5207 C 502.595 -3.72428 0.545402 0
M  V30 5208 C 501.742 -2.56116 1.06301 0
M  V30 5209 H 504.693 -1.22153 1.01313 0
M  V30 5210 H 504.714 -3.80205 0.149922 0
M  V30 5211 H 504.226 -3.37107 1.92304 0
M  V30 5212 H 502.327 -3.68924 -0.522109 0
M  V30 5213 H 502.44 -4.66548 1.0895 0
M  V30 5214 H 500.804 -2.50048 0.484554 0
M  V30 5215 H 501.587 -2.67928 2.14638 0
M  V30 5216 N 504.032 -0.577932 -1.46621 0
M  V30 5217 C 505.262 -0.0670668 -2.06491 0
M  V30 5218 C 505.67 1.24119 -1.42798 0
M  V30 5219 O 505.013 1.76016 -0.525759 0
M  V30 5220 C 505.075 0.177995 -3.59059 0
M  V30 5221 C 504.739 -1.04394 -4.44917 0
M  V30 5222 C 505.736 -1.95479 -4.81751 0
M  V30 5223 C 503.421 -1.26444 -4.86125 0
M  V30 5224 C 505.415 -3.06965 -5.58615 0
M  V30 5225 C 503.102 -2.38237 -5.62749 0
M  V30 5226 C 504.1 -3.28327 -5.98908 0
M  V30 5227 O 503.788 -4.38179 -6.73984 0
M  V30 5228 H 503.52 -0.0523159 -0.673973 0
M  V30 5229 H 506.074 -0.796966 -1.89308 0
M  V30 5230 H 504.304 0.962451 -3.74531 0
M  V30 5231 H 505.993 0.636782 -4.00874 0
M  V30 5232 H 506.759 -1.79657 -4.50498 0
M  V30 5233 H 502.638 -0.572316 -4.57434 0
M  V30 5234 H 506.182 -3.77309 -5.86757 0
M  V30 5235 H 502.079 -2.54023 -5.93416 0
M  V30 5236 H 502.847 -4.36486 -6.92403 0
M  V30 5237 N 505.51 1.54411 -0.315457 0
M  V30 5238 C 506.921 1.85885 0.174265 0
M  V30 5239 C 507.272 1.23723 1.52273 0
M  V30 5240 O 506.397 0.540246 2.09548 0
M  V30 5241 C 506.992 3.37257 0.322981 0
M  V30 5242 C 505.551 3.68711 0.756922 0
M  V30 5243 C 504.698 2.77013 -0.126195 0
M  V30 5244 H 507.649 1.49374 -0.536007 0
M  V30 5245 H 507.67 3.62539 1.15522 0
M  V30 5246 H 507.182 3.82471 -0.658602 0
M  V30 5247 H 505.283 3.29024 1.74854 0
M  V30 5248 H 505.396 4.75741 0.566291 0
M  V30 5249 H 503.76 2.51588 0.39692 0
M  V30 5250 H 504.543 3.25051 -1.1044 0
M  V30 5251 N 506.988 0.0434614 1.5754 0
M  V30 5252 C 508.236 -0.630786 1.92004 0
M  V30 5253 C 508.557 -1.71836 0.921807 0
M  V30 5254 O 507.827 -1.9587 -0.034522 0
M  V30 5255 H 506.407 -0.235988 0.708745 0
M  V30 5256 H 509.069 0.0946462 1.9467 0
M  V30 5257 H 508.165 -1.07434 2.93026 0
M  V30 5258 N 508.466 -1.55915 -0.229846 0
M  V30 5259 C 509.414 -1.9258 -1.30444 0
M  V30 5260 C 510.408 -0.806839 -1.48951 0
M  V30 5261 O 511.614 -0.991606 -1.50224 0
M  V30 5262 H 507.989 -0.611878 -0.437161 0
M  V30 5263 H 509.96 -2.82264 -0.96797 0
M  V30 5264 C 508.709 -2.25171 -2.6494 0
M  V30 5265 H 508.032 -3.10782 -2.51504 0
M  V30 5266 H 509.472 -2.54716 -3.38963 0
M  V30 5267 C 507.931 -1.07394 -3.19324 0
M  V30 5268 O 508.461 -0.330759 -4.00336 0
M  V30 5269 N 506.667 -0.859984 -2.77584 0
M  V30 5270 H 506.214 -1.46605 -2.11813 0
M  V30 5271 H 506.172 -0.0736671 -3.14314 0
M  V30 5272 N 509.944 0.496216 -1.49584 0
M  V30 5273 C 510.892 1.61805 -1.67098 0
M  V30 5274 C 511.886 1.60667 -0.536877 0
M  V30 5275 O 513.092 1.65118 -0.716654 0
M  V30 5276 H 509.467 0.53646 -0.526986 0
M  V30 5277 H 511.438 1.44187 -2.61252 0
M  V30 5278 C 510.187 2.99912 -1.75921 0
M  V30 5279 H 509.51 3.01496 -2.62565 0
M  V30 5280 H 510.95 3.77931 -1.92209 0
M  V30 5281 C 509.409 3.33092 -0.505088 0
M  V30 5282 O 509.939 4.00019 0.367085 0
M  V30 5283 N 508.145 2.88278 -0.366599 0
M  V30 5284 H 507.692 2.33989 -1.07735 0
M  V30 5285 H 507.65 3.10846 0.47142 0
M  V30 5286 N 511.423 1.38739 0.74761 0
M  V30 5287 C 512.371 1.36573 1.88283 0
M  V30 5288 C 513.365 0.250712 1.67534 0
M  V30 5289 O 514.571 0.420073 1.7503 0
M  V30 5290 H 510.946 0.42619 0.619569 0
M  V30 5291 H 512.917 2.32356 1.87226 0
M  V30 5292 C 511.666 1.21361 3.25832 0
M  V30 5293 H 510.989 2.06424 3.42388 0
M  V30 5294 H 512.429 1.23901 4.05493 0
M  V30 5295 C 510.888 -0.0790099 3.36807 0
M  V30 5296 O 511.418 -1.05385 3.8763 0
M  V30 5297 N 509.624 -0.13785 2.90273 0
M  V30 5298 H 509.171 0.656128 2.49104 0
M  V30 5299 H 509.129 -1.00228 2.97996 0
M  V30 5300 N 512.901 -0.976442 1.23707 0
M  V30 5301 C 513.849 -2.09078 1.01927 0
M  V30 5302 C 514.843 -1.69345 -0.0430193 0
M  V30 5303 O 516.049 -1.79659 0.110814 0
M  V30 5304 H 512.424 -0.68398 0.312531 0
M  V30 5305 H 514.395 -2.24614 1.96447 0
M  V30 5306 C 513.144 -3.41919 0.631385 0
M  V30 5307 H 512.467 -3.72946 1.44053 0
M  V30 5308 H 513.907 -4.20817 0.518532 0
M  V30 5309 C 512.366 -3.30357 -0.660723 0
M  V30 5310 O 512.896 -3.63542 -1.70881 0
M  V30 5311 N 511.102 -2.83507 -0.638139 0
M  V30 5312 H 510.649 -2.567 0.215108 0
M  V30 5313 H 510.607 -2.76153 -1.50289 0
M  V30 5314 N 514.379 -1.04941 -1.1758 0
M  V30 5315 C 515.627 -0.756492 -1.87408 0
M  V30 5316 C 515.948 0.718478 -1.81281 0
M  V30 5317 O 515.218 1.519 -1.23706 0
M  V30 5318 H 513.798 -0.276841 -0.693807 0
M  V30 5319 H 516.46 -1.32803 -1.42652 0
M  V30 5320 H 515.556 -1.06918 -2.93215 0
M  V30 5321 N 515.857 1.33968 -0.830081 0
M  V30 5322 C 517.103 1.98357 -0.422191 0
M  V30 5323 C 517.436 1.65633 1.01387 0
M  V30 5324 O 516.711 0.931648 1.70735 0
M  V30 5325 C 516.994 3.54492 -0.633043 0
M  V30 5326 C 516.847 3.96934 -2.11574 0
M  V30 5327 C 518.166 4.40039 -0.0735584 0
M  V30 5328 H 515.285 0.720544 -0.154871 0
M  V30 5329 H 517.927 1.58749 -1.04397 0
M  V30 5330 H 516.077 3.88361 -0.103775 0
M  V30 5331 H 517.749 3.73363 -2.7092 0
M  V30 5332 H 515.992 3.46984 -2.60354 0
M  V30 5333 H 516.663 5.05651 -2.21406 0
M  V30 5334 H 519.139 4.12764 -0.52585 0
M  V30 5335 H 518.015 5.48327 -0.250841 0
M  V30 5336 H 518.276 4.30124 1.02202 0
M  V30 5337 N 517.335 0.585699 1.46312 0
M  V30 5338 C 518.282 -0.145835 2.30339 0
M  V30 5339 C 519.252 -0.881215 1.40797 0
M  V30 5340 O 520.437 -0.871293 1.69744 0
M  V30 5341 C 517.577 -1.15161 3.25318 0
M  V30 5342 C 516.69 -0.419367 4.2996 0
M  V30 5343 C 515.825 -1.41293 5.12064 0
M  V30 5344 C 514.864 -0.667261 6.08452 0
M  V30 5345 N 514.001 -1.60903 6.83414 0
M  V30 5346 H 518.841 0.576755 2.92365 0
M  V30 5347 H 516.378 0.296237 1.44086 0
M  V30 5348 H 518.336 -1.74763 3.78832 0
M  V30 5349 H 516.966 -1.84188 2.65094 0
M  V30 5350 H 516.018 0.291751 3.7928 0
M  V30 5351 H 517.33 0.163433 4.98532 0
M  V30 5352 H 516.484 -2.08167 5.6987 0
M  V30 5353 H 515.223 -2.02966 4.43459 0
M  V30 5354 H 514.228 0.0152356 5.49798 0
M  V30 5355 H 515.453 -0.0558817 6.79077 0
M  V30 5356 H 513.399 -2.21381 6.17516 0
M  V30 5357 H 513.316 -1.07911 7.48259 0
M  V30 5358 H 514.584 -2.26802 7.45775 0
M  V30 5359 N 518.813 -1.54241 0.323641 0
M  V30 5360 C 520.061 -2.00174 -0.278359 0
M  V30 5361 C 520.382 -1.2134 -1.52648 0
M  V30 5362 O 519.652 -0.315244 -1.93347 0
M  V30 5363 H 518.232 -0.739463 -0.105845 0
M  V30 5364 H 520.894 -1.89864 0.440204 0
M  V30 5365 H 519.99 -3.07486 -0.5347 0
M  V30 5366 N 520.291 -0.0518155 -1.57515 0
M  V30 5367 C 521.538 0.621823 -1.92716 0
M  V30 5368 C 521.866 1.70813 -0.930229 0
M  V30 5369 O 521.121 1.95616 0.0573708 0
M  V30 5370 C 521.42 1.25607 -3.34601 0
M  V30 5371 C 521.086 0.297901 -4.49915 0
M  V30 5372 C 519.748 0.034243 -4.81188 0
M  V30 5373 C 522.1 -0.358738 -5.19964 0
M  V30 5374 C 519.428 -0.893479 -5.79857 0
M  V30 5375 C 521.78 -1.27466 -6.19625 0
M  V30 5376 C 520.444 -1.54698 -6.49326 0
M  V30 5377 H 519.714 0.227541 -0.705199 0
M  V30 5378 H 522.361 -0.118432 -1.91133 0
M  V30 5379 H 520.666 2.07161 -3.32553 0
M  V30 5380 H 522.363 1.78424 -3.59118 0
M  V30 5381 H 518.953 0.513581 -4.25512 0
M  V30 5382 H 523.137 -0.168133 -4.96015 0
M  V30 5383 H 518.393 -1.11193 -6.01204 0
M  V30 5384 H 522.567 -1.78953 -6.73015 0
M  V30 5385 H 520.194 -2.26748 -7.25596 0
M  V30 5386 N 521.769 1.56035 0.221574 0
M  V30 5387 C 522.994 1.83476 0.967026 0
M  V30 5388 C 523.419 0.632139 1.7716 0
M  V30 5389 O 522.777 -0.419082 1.7639 0
M  V30 5390 C 522.825 3.08907 1.86034 0
M  V30 5391 O 521.929 2.876 2.95567 0
M  V30 5392 H 521.27 0.604913 0.273817 0
M  V30 5393 H 523.8 2.03247 0.234893 0
M  V30 5394 H 523.81 3.3901 2.27016 0
M  V30 5395 H 522.485 3.96068 1.26898 0
M  V30 5396 H 521.062 2.6873 2.58532 0
M  V30 5397 N 523.247 -0.488276 1.49845 0
M  V30 5398 C 524.477 -1.26344 1.63465 0
M  V30 5399 C 524.885 -1.86637 0.310379 0
M  V30 5400 O 524.228 -1.69184 -0.715712 0
M  V30 5401 C 524.29 -2.42407 2.65479 0
M  V30 5402 C 523.954 -2.02886 4.09495 0
M  V30 5403 C 524.951 -1.56124 4.95904 0
M  V30 5404 C 522.636 -2.12131 4.55308 0
M  V30 5405 C 524.63 -1.19129 6.26169 0
M  V30 5406 C 522.317 -1.74747 5.85582 0
M  V30 5407 C 523.315 -1.28322 6.70837 0
M  V30 5408 O 523.003 -0.914491 7.98682 0
M  V30 5409 H 522.735 -0.388921 0.552916 0
M  V30 5410 H 525.289 -0.591288 1.96705 0
M  V30 5411 H 523.519 -3.12739 2.27445 0
M  V30 5412 H 525.208 -3.04409 2.68495 0
M  V30 5413 H 525.974 -1.48417 4.61733 0
M  V30 5414 H 521.853 -2.47217 3.89107 0
M  V30 5415 H 525.397 -0.828211 6.92666 0
M  V30 5416 H 521.294 -1.82109 6.19279 0
M  V30 5417 H 522.062 -1.04485 8.11804 0
M  V30 5418 N 524.725 -1.39134 -0.740242 0
M  V30 5419 C 525.655 -1.40165 -1.86751 0
M  V30 5420 C 526.636 -0.265708 -1.68012 0
M  V30 5421 O 527.821 -0.47076 -1.88408 0
M  V30 5422 C 524.951 -1.2392 -3.2444 0
M  V30 5423 C 523.905 -2.34858 -3.57807 0
M  V30 5424 C 523.231 -2.03707 -4.94376 0
M  V30 5425 C 524.531 -3.77159 -3.61315 0
M  V30 5426 H 526.225 -2.345 -1.86145 0
M  V30 5427 H 523.771 -1.12875 -0.89416 0
M  V30 5428 H 525.724 -1.23263 -4.02969 0
M  V30 5429 H 524.448 -0.26051 -3.25559 0
M  V30 5430 H 523.107 -2.34723 -2.81604 0
M  V30 5431 H 522.755 -1.04289 -4.9207 0
M  V30 5432 H 522.455 -2.78016 -5.17669 0
M  V30 5433 H 523.979 -2.04691 -5.75268 0
M  V30 5434 H 525.393 -3.79252 -4.29931 0
M  V30 5435 H 523.79 -4.50784 -3.96124 0
M  V30 5436 H 524.86 -4.08513 -2.61238 0
M  V30 5437 N 526.204 0.969867 -1.24223 0
M  V30 5438 C 527.481 1.68774 -0.988664 0
M  V30 5439 C 527.861 2.05342 0.489673 0
M  V30 5440 O 527.209 1.75486 1.46345 0
M  V30 5441 C 527.419 2.92135 -1.90941 0
M  V30 5442 C 528.767 3.64422 -2.17903 0
M  V30 5443 O 529.791 3.02188 -1.88576 0
M  V30 5444 O 528.65 4.76446 -2.67697 0
M  V30 5445 H 525.744 0.737736 -0.37373 0
M  V30 5446 H 528.29 1.02415 -1.35312 0
M  V30 5447 H 527.062 2.61788 -2.90831 0
M  V30 5448 H 526.685 3.66228 -1.54798 0
M  V30 5449 N 527.682 1.05563 1.17022 0
M  V30 5450 C 528.93 0.76642 1.87004 0
M  V30 5451 C 529.251 -0.708854 1.8166 0
M  V30 5452 O 528.521 -1.51242 1.2451 0
M  V30 5453 H 527.101 0.280516 0.692329 0
M  V30 5454 H 529.763 1.33557 1.41945 0
M  V30 5455 H 528.859 1.08472 2.92644 0
M  V30 5456 N 529.16 -1.33526 0.837174 0
M  V30 5457 C 530.406 -1.9813 0.432704 0
M  V30 5458 C 530.739 -1.66168 -1.00508 0
M  V30 5459 O 530.014 -0.94069 -1.70239 0
M  V30 5460 C 530.297 -3.54151 0.651834 0
M  V30 5461 C 530.15 -3.95806 2.13676 0
M  V30 5462 C 531.469 -4.39993 0.0968937 0
M  V30 5463 H 528.588 -0.719713 0.15869 0
M  V30 5464 H 531.23 -1.58193 1.05237 0
M  V30 5465 H 529.38 -3.88301 0.124369 0
M  V30 5466 H 531.052 -3.71921 2.72896 0
M  V30 5467 H 529.295 -3.45599 2.62191 0
M  V30 5468 H 529.966 -5.0447 2.24084 0
M  V30 5469 H 532.442 -4.12479 0.547733 0
M  V30 5470 H 531.318 -5.48186 0.279917 0
M  V30 5471 H 531.579 -4.3066 -0.9992 0
M  V30 5472 N 530.638 -0.59345 -1.46 0
M  V30 5473 C 531.586 0.146268 -2.3214 0
M  V30 5474 C 532.58 0.873743 -1.45128 0
M  V30 5475 O 533.786 0.790912 -1.61693 0
M  V30 5476 H 530.161 0.0660349 -0.749095 0
M  V30 5477 H 532.132 -0.598895 -2.92328 0
M  V30 5478 C 530.881 1.1396 -3.28494 0
M  V30 5479 H 530.204 0.589252 -3.95434 0
M  V30 5480 H 531.644 1.62738 -3.91526 0
M  V30 5481 C 530.103 2.20604 -2.54628 0
M  V30 5482 O 530.633 3.28128 -2.31722 0
M  V30 5483 N 528.839 1.95502 -2.15005 0
M  V30 5484 H 528.386 1.0807 -2.33834 0
M  V30 5485 H 528.344 2.67064 -1.65904 0
M  V30 5486 N 532.116 1.54067 -0.331816 0
M  V30 5487 C 533.344 2.05131 0.269996 0
M  V30 5488 C 533.759 1.20749 1.45138 0
M  V30 5489 O 533.116 0.240069 1.80914 0
M  V30 5490 C 533.167 3.54728 0.696456 0
M  V30 5491 O 532.888 4.35906 -0.43794 0
M  V30 5492 C 534.389 4.21916 1.36021 0
M  V30 5493 H 531.609 0.668807 0.0542042 0
M  V30 5494 H 534.153 1.98777 -0.4804 0
M  V30 5495 H 532.308 3.61342 1.39681 0
M  V30 5496 H 532.722 5.24404 -0.100334 0
M  V30 5497 H 534.196 5.28015 1.60947 0
M  V30 5498 H 534.673 3.73538 2.31011 0
M  V30 5499 H 535.279 4.19463 0.702212 0
M  V30 5500 N 533.594 0.0601682 1.57485 0
M  V30 5501 C 534.84 -0.606552 1.94146 0
M  V30 5502 C 535.195 -1.67918 0.939225 0
M  V30 5503 O 534.488 -1.91558 -0.0402649 0
M  V30 5504 C 534.682 -1.23831 3.35262 0
M  V30 5505 C 534.511 -0.228408 4.4912 0
M  V30 5506 C 533.281 0.182813 5.04969 0
M  V30 5507 C 535.479 0.52975 5.11564 0
M  V30 5508 N 533.461 1.18464 6.02362 0
M  V30 5509 C 534.832 1.38439 6.04346 0
M  V30 5510 C 536.887 0.587084 4.94427 0
M  V30 5511 C 535.59 2.29125 6.81832 0
M  V30 5512 C 537.616 1.4814 5.72546 0
M  V30 5513 C 536.978 2.32375 6.64967 0
M  V30 5514 H 533.077 -0.193328 0.757726 0
M  V30 5515 H 535.661 0.1346 1.94234 0
M  V30 5516 H 533.832 -1.94944 3.35933 0
M  V30 5517 H 535.564 -1.86456 3.59188 0
M  V30 5518 H 532.319 -0.197968 4.73186 0
M  V30 5519 H 532.743 1.68271 6.55754 0
M  V30 5520 H 537.385 -0.049944 4.22771 0
M  V30 5521 H 535.103 2.93868 7.52773 0
M  V30 5522 H 538.689 1.53045 5.6131 0
M  V30 5523 H 537.569 3.00454 7.2436 0
M  V30 5524 N 535.072 -1.5615 -0.213296 0
M  V30 5525 C 536.002 -1.96109 -1.26742 0
M  V30 5526 C 536.983 -0.830448 -1.48451 0
M  V30 5527 O 538.168 -1.09339 -1.60495 0
M  V30 5528 C 535.298 -2.28492 -2.61551 0
M  V30 5529 C 534.252 -3.44124 -2.54485 0
M  V30 5530 C 533.578 -3.62134 -3.93399 0
M  V30 5531 C 534.878 -4.78855 -2.08556 0
M  V30 5532 H 536.572 -2.84412 -0.935434 0
M  V30 5533 H 534.118 -1.36836 -0.44854 0
M  V30 5534 H 536.071 -2.55039 -3.3546 0
M  V30 5535 H 534.795 -1.37052 -2.96453 0
M  V30 5536 H 533.454 -3.17639 -1.83033 0
M  V30 5537 H 533.102 -2.68055 -4.25623 0
M  V30 5538 H 532.802 -4.39913 -3.89551 0
M  V30 5539 H 534.326 -3.91038 -4.68958 0
M  V30 5540 H 535.74 -5.04552 -2.72213 0
M  V30 5541 H 534.137 -5.59975 -2.1575 0
M  V30 5542 H 535.207 -4.73657 -1.03811 0
M  V30 5543 N 536.55 0.480323 -1.50102 0
M  V30 5544 C 537.798 1.23063 -1.60312 0
M  V30 5545 C 538.119 1.92659 -0.301226 0
M  V30 5546 O 537.389 1.83691 0.680753 0
M  V30 5547 H 535.969 0.457231 -0.590719 0
M  V30 5548 H 538.631 0.554893 -1.86834 0
M  V30 5549 H 537.727 1.9835 -2.40964 0
M  V30 5550 N 538.028 1.39524 0.732853 0
M  V30 5551 C 539.444 1.21176 1.03868 0
M  V30 5552 C 539.644 0.0748448 2.01361 0
M  V30 5553 O 538.7 -0.57281 2.45917 0
M  V30 5554 C 540.013 2.54667 1.59892 0
M  V30 5555 C 541.561 2.6153 1.71962 0
M  V30 5556 C 542.036 3.95248 2.31394 0
M  V30 5557 N 543.527 3.96899 2.38801 0
M  V30 5558 C 544.262 4.97138 2.85729 0
M  V30 5559 N 543.758 6.07775 3.32537 0
M  V30 5560 N 545.551 4.84516 2.84957 0
M  V30 5561 H 537.702 2.12225 0.086304 0
M  V30 5562 H 539.965 0.942614 0.100907 0
M  V30 5563 H 539.671 3.38423 0.95721 0
M  V30 5564 H 539.545 2.74538 2.58668 0
M  V30 5565 H 541.932 1.78156 2.35254 0
M  V30 5566 H 542.013 2.45507 0.718327 0
M  V30 5567 H 541.657 4.79054 1.68729 0
M  V30 5568 H 541.587 4.08593 3.32204 0
M  V30 5569 H 544.078 3.16998 2.05719 0
M  V30 5570 H 544.391 6.8017 3.66862 0
M  V30 5571 H 542.736 6.11366 3.30541 0
M  V30 5572 H 545.927 3.97185 2.47713 0
M  V30 5573 H 546.1 5.62783 3.21215 0
M  V30 5574 N 539.506 -0.963266 1.24736 0
M  V30 5575 C 540.734 -1.74166 1.11686 0
M  V30 5576 C 541.149 -1.8589 -0.330187 0
M  V30 5577 O 540.506 -1.35042 -1.2276 0
M  V30 5578 C 540.557 -3.15989 1.75595 0
M  V30 5579 O 540.278 -3.04847 3.14642 0
M  V30 5580 C 541.779 -4.10145 1.68213 0
M  V30 5581 H 538.999 -0.546031 0.389989 0
M  V30 5582 H 541.543 -1.20907 1.64929 0
M  V30 5583 H 539.698 -3.66219 1.26343 0
M  V30 5584 H 540.112 -3.9425 3.4593 0
M  V30 5585 H 541.586 -5.07299 2.17604 0
M  V30 5586 H 542.063 -4.3445 0.644208 0
M  V30 5587 H 542.669 -3.65827 2.16912 0
M  V30 5588 N 540.985 -1.06182 -1.16461 0
M  V30 5589 C 542.234 -0.772927 -1.86303 0
M  V30 5590 C 542.547 0.703187 -1.82523 0
M  V30 5591 O 543.753 1.10641 -2.47933 0
M  V30 5592 C 542.209 -1.33249 -3.34324 0
M  V30 5593 C 541.817 -2.83876 -3.46581 0
M  V30 5594 C 543.561 -1.12108 -4.09429 0
M  V30 5595 C 541.468 -3.33082 -4.88682 0
M  V30 5596 H 540.398 -0.285452 -0.697878 0
M  V30 5597 H 543.049 -1.28039 -1.31447 0
M  V30 5598 H 541.431 -0.7528 -3.88779 0
M  V30 5599 H 542.605 -3.47786 -3.02293 0
M  V30 5600 H 540.92 -3.03671 -2.84909 0
M  V30 5601 H 543.517 -1.46361 -5.14279 0
M  V30 5602 H 543.86 -0.0593832 -4.16258 0
M  V30 5603 H 544.393 -1.6665 -3.6121 0
M  V30 5604 H 541.132 -4.38726 -4.87032 0
M  V30 5605 H 540.652 -2.73919 -5.33599 0
M  V30 5606 H 542.331 -3.28344 -5.57494 0
M  V30 5607 N 542.463 1.3308 -0.844243 0
M  V30 5608 C 543.688 2.02341 -0.455282 0
M  V30 5609 C 544.113 1.6308 0.93737 0
M  V30 5610 O 543.471 0.826118 1.61385 0
M  V30 5611 C 543.519 3.55743 -0.58988 0
M  V30 5612 O 542.623 4.1063 0.38166 0
M  V30 5613 H 541.964 0.637898 -0.184343 0
M  V30 5614 H 544.494 1.6986 -1.14056 0
M  V30 5615 H 544.504 4.05243 -0.473522 0
M  V30 5616 H 543.179 3.83662 -1.60549 0
M  V30 5617 H 541.756 3.72236 0.22241 0
M  V30 5618 N 543.941 0.601185 1.45683 0
M  V30 5619 C 545.19 0.0914953 2.01492 0
M  V30 5620 C 545.503 -1.28331 1.47616 0
M  V30 5621 O 546.709 -1.88537 1.95362 0
M  V30 5622 C 545.165 0.11291 3.59723 0
M  V30 5623 C 544.773 1.48717 4.22596 0
M  V30 5624 C 546.517 -0.341871 4.23121 0
M  V30 5625 C 544.424 1.46531 5.7296 0
M  V30 5626 H 543.354 0.0304365 0.753385 0
M  V30 5627 H 546.005 0.755568 1.67223 0
M  V30 5628 H 544.387 -0.617692 3.91153 0
M  V30 5629 H 545.561 2.23897 4.02749 0
M  V30 5630 H 543.876 1.88351 3.71366 0
M  V30 5631 H 546.473 -0.377304 5.33367 0
M  V30 5632 H 546.816 -1.36325 3.93346 0
M  V30 5633 H 547.349 0.335256 3.96385 0
M  V30 5634 H 544.088 2.46408 6.07423 0
M  V30 5635 H 543.608 0.755997 5.95017 0
M  V30 5636 H 545.287 1.18618 6.36034 0
M  V30 5637 N 545.419 -1.53889 0.339982 0
M  V30 5638 C 546.382 -2.23547 -0.50592 0
M  V30 5639 C 547.382 -1.23445 -1.03044 0
M  V30 5640 O 548.572 -1.47909 -0.920253 0
M  V30 5641 C 545.704 -2.95234 -1.7044 0
M  V30 5642 H 546.897 -2.99722 0.103247 0
M  V30 5643 H 544.45 -1.56033 0.0912804 0
M  V30 5644 H 545.185 -2.23236 -2.35236 0
M  V30 5645 H 544.97 -3.68654 -1.33553 0
M  V30 5646 H 546.46 -3.48258 -2.30447 0
M  V30 5647 N 546.897 -0.0685191 -1.57451 0
M  V30 5648 C 548.122 0.613919 -1.98106 0
M  V30 5649 C 548.547 1.62551 -0.946501 0
M  V30 5650 O 547.905 1.81085 0.0882824 0
M  V30 5651 C 547.953 1.26189 -3.378 0
M  V30 5652 O 547.057 2.37773 -3.36954 0
M  V30 5653 H 546.398 0.158163 -0.644888 0
M  V30 5654 H 548.928 -0.142063 -2.04106 0
M  V30 5655 H 548.938 1.60951 -3.74912 0
M  V30 5656 H 547.613 0.520625 -4.12629 0
M  V30 5657 H 546.19 2.04829 -3.11608 0
M  V30 5658 N 548.375 1.56261 0.205012 0
M  V30 5659 C 549.791 1.49623 0.555433 0
M  V30 5660 C 549.991 0.766719 1.86343 0
M  V30 5661 O 549.047 0.313158 2.50551 0
M  V30 5662 C 550.36 2.94253 0.619347 0
M  V30 5663 C 551.908 3.04868 0.708855 0
M  V30 5664 C 552.383 4.50888 0.803969 0
M  V30 5665 N 553.874 4.54999 0.867758 0
M  V30 5666 C 554.609 5.65284 0.96135 0
M  V30 5667 N 554.105 6.85282 1.01786 0
M  V30 5668 N 555.898 5.53174 0.997771 0
M  V30 5669 H 548.049 2.0211 -0.653094 0
M  V30 5670 H 550.312 0.919333 -0.231366 0
M  V30 5671 H 550.018 3.50643 -0.272458 0
M  V30 5672 H 549.892 3.47063 1.47741 0
M  V30 5673 H 552.279 2.48532 1.5911 0
M  V30 5674 H 552.36 2.55199 -0.175205 0
M  V30 5675 H 552.004 5.07846 -0.0738798 0
M  V30 5676 H 551.934 4.98279 1.70369 0
M  V30 5677 H 554.425 3.68588 0.833735 0
M  V30 5678 H 554.738 7.65081 1.08951 0
M  V30 5679 H 553.083 6.8796 0.986706 0
M  V30 5680 H 556.274 4.5835 0.950392 0
M  V30 5681 H 556.447 6.39151 1.06725 0
M  V30 5682 N 549.853 -0.472356 1.50355 0
M  V30 5683 C 551.078 -1.25251 1.65309 0
M  V30 5684 C 551.503 -1.85081 0.335643 0
M  V30 5685 O 550.861 -1.67227 -0.700335 0
M  V30 5686 C 550.909 -2.3379 2.74544 0
M  V30 5687 O 550.013 -3.38401 2.35709 0
M  V30 5688 H 549.354 -0.368539 0.552336 0
M  V30 5689 H 551.884 -0.562271 1.96722 0
M  V30 5690 H 551.894 -2.79121 2.97583 0
M  V30 5691 H 550.569 -1.89614 3.70161 0
M  V30 5692 H 549.146 -2.9879 2.23112 0
M  V30 5693 N 551.331 -1.39911 -0.725443 0
M  V30 5694 C 552.579 -1.37382 -1.48224 0
M  V30 5695 C 552.9 0.0264107 -1.94982 0
M  V30 5696 O 552.17 0.979408 -1.6966 0
M  V30 5697 H 550.75 -0.505596 -0.549892 0
M  V30 5698 H 553.412 -1.7487 -0.860608 0
M  V30 5699 H 552.508 -2.04254 -2.3598 0
M  V30 5700 N 552.809 0.956637 -1.25245 0
M  V30 5701 C 554.039 1.7332 -1.12445 0
M  V30 5702 C 554.447 1.86392 0.324732 0
M  V30 5703 O 553.79 1.35967 1.23526 0
M  V30 5704 C 553.852 3.16603 -1.70303 0
M  V30 5705 C 553.516 3.26966 -3.19284 0
M  V30 5706 C 554.513 3.11434 -4.16299 0
M  V30 5707 C 552.198 3.50851 -3.59456 0
M  V30 5708 C 554.192 3.1963 -5.51467 0
M  V30 5709 C 551.879 3.58684 -4.94761 0
M  V30 5710 C 552.877 3.43087 -5.90576 0
M  V30 5711 O 552.565 3.50598 -7.2342 0
M  V30 5712 H 552.297 0.549981 -0.393061 0
M  V30 5713 H 554.851 1.20892 -1.66055 0
M  V30 5714 H 553.081 3.70385 -1.11138 0
M  V30 5715 H 554.77 3.76109 -1.52632 0
M  V30 5716 H 555.536 2.92853 -3.86604 0
M  V30 5717 H 551.415 3.62053 -2.85375 0
M  V30 5718 H 554.959 3.07373 -6.26233 0
M  V30 5719 H 550.856 3.76782 -5.24124 0
M  V30 5720 H 551.624 3.67242 -7.31489 0
M  V30 5721 N 554.287 1.06798 1.15896 0
M  V30 5722 C 555.197 0.694564 2.24083 0
M  V30 5723 C 556.213 -0.291687 1.71538 0
M  V30 5724 O 557.389 -0.139723 2.00915 0
M  V30 5725 C 554.454 0.0921014 3.46578 0
M  V30 5726 C 553.515 1.13087 4.14137 0
M  V30 5727 C 552.748 0.557064 5.30785 0
M  V30 5728 O 552.971 -0.628623 5.66925 0
M  V30 5729 O 551.905 1.29924 5.8771 0
M  V30 5730 H 555.731 1.59663 2.58344 0
M  V30 5731 H 553.316 0.840575 1.2351 0
M  V30 5732 H 555.198 -0.241884 4.20705 0
M  V30 5733 H 553.873 -0.78337 3.14078 0
M  V30 5734 H 552.78 1.51712 3.41957 0
M  V30 5735 H 554.113 1.97805 4.50704 0
M  V30 5736 N 555.766 -1.3263 0.851289 0
M  V30 5737 C 556.699 -2.26952 0.238318 0
M  V30 5738 C 557.677 -1.50243 -0.621757 0
M  V30 5739 O 558.861 -1.79378 -0.579298 0
M  V30 5740 C 555.988 -3.32124 -0.664178 0
M  V30 5741 C 555.034 -4.26325 0.122067 0
M  V30 5742 S 555.867 -5.14404 1.48824 0
M  V30 5743 C 557.023 -6.231 0.591372 0
M  V30 5744 H 557.256 -2.78594 1.03791 0
M  V30 5745 H 554.789 -1.4011 0.648731 0
M  V30 5746 H 556.747 -3.93197 -1.17924 0
M  V30 5747 H 555.408 -2.79273 -1.43755 0
M  V30 5748 H 554.601 -5.00821 -0.565181 0
M  V30 5749 H 554.203 -3.69652 0.568602 0
M  V30 5750 H 556.495 -6.77187 -0.205762 0
M  V30 5751 H 557.438 -6.95936 1.30687 0
M  V30 5752 H 557.846 -5.64252 0.167206 0
M  V30 5753 N 557.244 -0.608902 -1.45362 0
M  V30 5754 C 558.174 0.0964526 -2.33301 0
M  V30 5755 C 559.155 0.857444 -1.46908 0
M  V30 5756 O 560.34 0.827735 -1.75676 0
M  V30 5757 C 557.47 1.09354 -3.29635 0
M  V30 5758 C 556.424 0.445676 -4.25673 0
M  V30 5759 C 555.75 1.5511 -5.11708 0
M  V30 5760 C 557.05 -0.633972 -5.18438 0
M  V30 5761 H 558.744 -0.637829 -2.92527 0
M  V30 5762 H 556.29 -0.308178 -1.40664 0
M  V30 5763 H 558.243 1.59556 -3.90025 0
M  V30 5764 H 556.967 1.85843 -2.6857 0
M  V30 5765 H 555.626 -0.0354897 -3.66583 0
M  V30 5766 H 555.274 2.30631 -4.4701 0
M  V30 5767 H 554.974 1.12311 -5.76767 0
M  V30 5768 H 556.498 2.05537 -5.74967 0
M  V30 5769 H 557.912 -0.215974 -5.72893 0
M  V30 5770 H 556.309 -0.983789 -5.91981 0
M  V30 5771 H 557.379 -1.51005 -4.60788 0
M  V30 5772 N 558.722 1.53707 -0.348139 0
M  V30 5773 C 559.669 2.25173 0.506518 0
M  V30 5774 C 560.639 1.25174 1.09182 0
M  V30 5775 O 561.824 1.53917 1.12757 0
M  V30 5776 C 558.964 3.03141 1.64923 0
M  V30 5777 C 558.077 4.18002 1.0908 0
M  V30 5778 C 557.212 4.83447 2.20119 0
M  V30 5779 C 556.251 5.90369 1.61651 0
M  V30 5780 N 555.388 6.49575 2.66451 0
M  V30 5781 H 560.228 2.97799 -0.109452 0
M  V30 5782 H 557.765 1.46953 -0.0657866 0
M  V30 5783 H 559.723 3.46607 2.32205 0
M  V30 5784 H 558.353 2.32803 2.23612 0
M  V30 5785 H 557.405 3.79145 0.308783 0
M  V30 5786 H 558.717 4.94892 0.623178 0
M  V30 5787 H 557.871 5.30008 2.95257 0
M  V30 5788 H 556.61 4.05991 2.70227 0
M  V30 5789 H 555.615 5.43186 0.850209 0
M  V30 5790 H 556.84 6.69735 1.1239 0
M  V30 5791 H 554.786 5.74981 3.15805 0
M  V30 5792 H 554.703 7.21952 2.24325 0
M  V30 5793 H 555.971 7.00789 3.41344 0
M  V30 5794 N 560.2 0.0768682 1.57412 0
M  V30 5795 C 561.446 -0.591961 1.93968 0
M  V30 5796 C 561.779 -1.68954 0.9575 0
M  V30 5797 O 561.054 -1.94496 -0.0124675 0
M  V30 5798 C 561.337 -1.16418 3.40762 0
M  V30 5799 C 561.19 -0.0728933 4.49741 0
M  V30 5800 C 562.509 -2.06814 3.88479 0
M  V30 5801 H 559.628 -0.213716 0.705333 0
M  V30 5802 H 562.27 0.14387 1.89455 0
M  V30 5803 H 560.42 -1.79128 3.4474 0
M  V30 5804 H 562.092 0.560446 4.57883 0
M  V30 5805 H 560.335 0.595859 4.29688 0
M  V30 5806 H 561.006 -0.513755 5.49604 0
M  V30 5807 H 563.482 -1.54033 3.8654 0
M  V30 5808 H 562.358 -2.43785 4.91793 0
M  V30 5809 H 562.619 -2.97844 3.26713 0
M  V30 5810 N 561.678 -1.56367 -0.196722 0
M  V30 5811 C 563.089 -1.70462 -0.761545 0
M  V30 5812 C 563.44 -0.683161 -1.83922 0
M  V30 5813 O 562.565 0.160753 -2.15802 0
M  V30 5814 C 563.16 -3.09057 -1.38814 0
M  V30 5815 C 561.719 -3.24922 -1.90007 0
M  V30 5816 C 560.866 -2.66412 -0.769399 0
M  V30 5817 H 563.817 -1.58675 0.0283263 0
M  V30 5818 H 563.838 -3.06296 -2.2575 0
M  V30 5819 H 563.35 -3.83378 -0.603559 0
M  V30 5820 H 561.451 -2.55514 -2.71189 0
M  V30 5821 H 561.564 -4.3241 -2.06297 0
M  V30 5822 H 559.928 -2.25546 -1.18326 0
M  V30 5823 H 560.711 -3.433 0.00291773 0
M  V30 5824 N 563.156 0.464375 -1.50603 0
M  V30 5825 C 564.104 1.58224 -1.70493 0
M  V30 5826 C 565.098 1.59492 -0.570836 0
M  V30 5827 O 566.304 1.63561 -0.751517 0
M  V30 5828 H 562.679 0.525161 -0.538247 0
M  V30 5829 H 564.65 1.38613 -2.64252 0
M  V30 5830 C 563.399 2.96113 -1.82243 0
M  V30 5831 H 562.722 2.95858 -2.68901 0
M  V30 5832 H 564.162 3.73769 -2.00182 0
M  V30 5833 C 562.621 3.31946 -0.575628 0
M  V30 5834 O 563.151 4.00708 0.282152 0
M  V30 5835 N 561.357 2.87436 -0.427665 0
M  V30 5836 H 560.904 2.31652 -1.12674 0
M  V30 5837 H 560.862 3.11776 0.405379 0
M  V30 5838 N 564.634 1.40294 0.718013 0
M  V30 5839 C 565.597 1.4012 1.81381 0
M  V30 5840 C 566.597 0.295405 1.58063 0
M  V30 5841 O 567.787 0.554187 1.6515 0
M  V30 5842 C 564.919 1.19056 3.19435 0
M  V30 5843 H 566.112 2.37645 1.82933 0
M  V30 5844 H 563.665 1.26107 0.923405 0
M  V30 5845 H 564.4 0.222809 3.23534 0
M  V30 5846 H 564.185 1.99152 3.37758 0
M  V30 5847 H 565.675 1.21716 3.99468 0
M  V30 5848 N 566.112 -0.949982 1.2575 0
M  V30 5849 C 567.042 -2.06483 1.09028 0
M  V30 5850 C 568.023 -1.701 -0.00201532 0
M  V30 5851 O 569.208 -1.93469 0.168383 0
M  V30 5852 C 566.338 -3.39899 0.71316 0
M  V30 5853 C 565.292 -3.90309 1.75621 0
M  V30 5854 C 564.618 -5.20274 1.23365 0
M  V30 5855 C 565.918 -4.16169 3.15596 0
M  V30 5856 H 567.612 -2.20731 2.02283 0
M  V30 5857 H 565.158 -1.06066 0.973964 0
M  V30 5858 H 567.111 -4.17346 0.58309 0
M  V30 5859 H 565.835 -3.25602 -0.255091 0
M  V30 5860 H 564.494 -3.15035 1.8748 0
M  V30 5861 H 564.142 -5.02351 0.255491 0
M  V30 5862 H 563.842 -5.54971 1.93082 0
M  V30 5863 H 565.366 -6.00314 1.11607 0
M  V30 5864 H 566.78 -4.84259 3.06864 0
M  V30 5865 H 565.177 -4.62131 3.82825 0
M  V30 5866 H 566.247 -3.22273 3.6231 0
M  V30 5867 N 567.59 -1.07411 -1.15328 0
M  V30 5868 C 568.818 -0.818782 -1.90009 0
M  V30 5869 C 569.233 0.628072 -1.78047 0
M  V30 5870 O 568.59 1.43085 -1.13282 0
M  V30 5871 C 568.641 -1.21874 -3.40337 0
M  V30 5872 O 568.362 -2.60883 -3.51954 0
M  V30 5873 C 569.863 -0.992796 -4.3204 0
M  V30 5874 H 567.083 -0.296007 -0.60218 0
M  V30 5875 H 569.627 -1.43073 -1.46117 0
M  V30 5876 H 567.782 -0.651103 -3.81889 0
M  V30 5877 H 568.196 -2.77216 -4.45255 0
M  V30 5878 H 569.67 -1.32215 -5.35932 0
M  V30 5879 H 570.147 0.0708331 -4.39143 0
M  V30 5880 H 570.753 -1.54537 -3.9623 0
M  V30 5881 N 569.068 1.32177 -0.85831 0
M  V30 5882 C 570.345 1.91781 -0.384624 0
M  V30 5883 C 570.725 1.78171 1.13217 0
M  V30 5884 O 570.073 1.18209 1.95548 0
M  V30 5885 C 570.283 3.38414 -0.853047 0
M  V30 5886 C 571.631 4.15542 -0.872359 0
M  V30 5887 O 572.655 3.47148 -0.797926 0
M  V30 5888 O 571.514 5.37678 -0.978009 0
M  V30 5889 H 568.608 0.819259 -0.112886 0
M  V30 5890 H 571.154 1.40923 -0.945453 0
M  V30 5891 H 569.926 3.4228 -1.89632 0
M  V30 5892 H 569.549 3.96683 -0.269874 0
M  V30 5893 N 570.547 0.616602 1.45037 0
M  V30 5894 C 571.824 0.0469086 1.95544 0
M  V30 5895 C 572.204 -1.42345 1.55888 0
M  V30 5896 O 571.552 -2.13055 0.825824 0
M  V30 5897 C 571.762 0.254489 3.48071 0
M  V30 5898 C 573.11 0.140025 4.24369 0
M  V30 5899 O 574.134 0.185084 3.55719 0
M  V30 5900 O 572.993 0.0327034 5.4649 0
M  V30 5901 H 570.087 -0.0306051 0.826433 0
M  V30 5902 H 572.633 0.687293 1.55159 0
M  V30 5903 H 571.405 1.27532 3.69934 0
M  V30 5904 H 571.028 -0.42073 3.95368 0
M  V30 5905 N 572.025 -1.5352 0.356285 0
M  V30 5906 C 572.972 -2.25439 -0.494569 0
M  V30 5907 C 573.942 -1.25752 -1.08516 0
M  V30 5908 O 575.127 -1.54513 -1.1194 0
M  V30 5909 C 572.267 -3.04011 -1.63313 0
M  V30 5910 C 571.38 -4.18574 -1.06862 0
M  V30 5911 C 570.515 -4.84607 -2.17552 0
M  V30 5912 C 569.554 -5.91218 -1.58518 0
M  V30 5913 N 568.691 -6.50979 -2.63003 0
M  V30 5914 H 573.531 -2.97737 0.125244 0
M  V30 5915 H 571.068 -1.46916 0.0735789 0
M  V30 5916 H 573.026 -3.47834 -2.30363 0
M  V30 5917 H 571.656 -2.33986 -2.22374 0
M  V30 5918 H 570.708 -3.79303 -0.288672 0
M  V30 5919 H 572.02 -4.95215 -0.596924 0
M  V30 5920 H 571.174 -5.31566 -2.92442 0
M  V30 5921 H 569.913 -4.07418 -2.6807 0
M  V30 5922 H 568.918 -5.4363 -0.821391 0
M  V30 5923 H 570.143 -6.70322 -1.08836 0
M  V30 5924 H 568.089 -5.76648 -3.12751 0
M  V30 5925 H 568.006 -7.23131 -2.20493 0
M  V30 5926 H 569.274 -7.02589 -3.37623 0
M  V30 5927 N 573.503 -0.0852151 -1.57369 0
M  V30 5928 C 574.728 0.592872 -1.98746 0
M  V30 5929 C 575.153 1.61538 -0.963689 0
M  V30 5930 O 574.511 1.81168 0.069071 0
M  V30 5931 C 574.559 1.22599 -3.39119 0
M  V30 5932 O 573.663 2.34185 -3.39457 0
M  V30 5933 H 573.004 0.151314 -0.646529 0
M  V30 5934 H 575.534 -0.163703 -2.03944 0
M  V30 5935 H 575.544 1.56965 -3.76598 0
M  V30 5936 H 574.219 0.476831 -4.13158 0
M  V30 5937 H 572.796 2.01512 -3.13763 0
M  V30 5938 N 574.981 1.5647 0.188427 0
M  V30 5939 C 575.928 1.95073 1.23349 0
M  V30 5940 C 576.898 0.812238 1.44886 0
M  V30 5941 O 578.083 1.07095 1.57909 0
M  V30 5942 C 575.223 2.30124 2.57171 0
M  V30 5943 C 574.336 3.57069 2.43157 0
M  V30 5944 C 573.471 3.81411 3.69729 0
M  V30 5945 C 572.51 5.0176 3.50575 0
M  V30 5946 N 571.647 5.22321 4.69175 0
M  V30 5947 H 576.487 2.84171 0.89728 0
M  V30 5948 H 574.024 1.40623 0.431683 0
M  V30 5949 H 575.982 2.48463 3.35145 0
M  V30 5950 H 574.612 1.44159 2.88822 0
M  V30 5951 H 573.664 3.4674 1.56447 0
M  V30 5952 H 574.976 4.452 2.24942 0
M  V30 5953 H 574.13 4.00026 4.56141 0
M  V30 5954 H 572.869 2.91624 3.90905 0
M  V30 5955 H 571.874 4.83061 2.62549 0
M  V30 5956 H 573.099 5.93063 3.30837 0
M  V30 5957 H 571.045 4.35483 4.90602 0
M  V30 5958 H 570.962 6.04643 4.53809 0
M  V30 5959 H 572.23 5.45401 5.56919 0
M  V30 5960 N 576.459 -0.456382 1.50847 0
M  V30 5961 C 577.87 -1.03685 1.55262 0
M  V30 5962 C 578.221 -1.92779 0.364771 0
M  V30 5963 O 577.346 -2.10043 -0.52068 0
M  V30 5964 C 577.941 -1.88718 2.81374 0
M  V30 5965 C 576.5 -2.41847 2.88422 0
M  V30 5966 C 575.647 -1.20564 2.49719 0
M  V30 5967 H 578.598 -0.238399 1.56899 0
M  V30 5968 H 578.619 -2.73957 2.6406 0
M  V30 5969 H 578.131 -1.23847 3.67809 0
M  V30 5970 H 576.232 -3.10228 2.06372 0
M  V30 5971 H 576.345 -2.75947 3.9165 0
M  V30 5972 H 574.709 -1.54504 2.02486 0
M  V30 5973 H 575.492 -0.573326 3.38479 0
M  V30 5974 N 577.937 -1.40673 -0.710563 0
M  V30 5975 C 579.165 -1.42547 -1.4996 0
M  V30 5976 C 579.58 -0.0265485 -1.88781 0
M  V30 5977 O 578.937 0.950694 -1.55782 0
M  V30 5978 C 578.988 -2.32071 -2.77173 0
M  V30 5979 O 578.709 -3.66518 -2.39992 0
M  V30 5980 C 580.21 -2.42591 -3.71032 0
M  V30 5981 H 577.43 -0.486025 -0.462623 0
M  V30 5982 H 579.974 -1.84783 -0.876102 0
M  V30 5983 H 578.129 -1.93184 -3.35795 0
M  V30 5984 H 578.543 -4.14115 -3.21884 0
M  V30 5985 H 580.017 -3.09429 -4.57119 0
M  V30 5986 H 580.494 -1.4525 -4.14486 0
M  V30 5987 H 581.1 -2.82051 -3.18319 0
M  V30 5988 N 579.415 0.9433 -1.26252 0
M  V30 5989 C 580.347 2.04542 -1.03417 0
M  V30 5990 C 581.36 1.62799 0.0046911 0
M  V30 5991 O 582.549 1.76944 -0.235146 0
M  V30 5992 C 579.649 3.34511 -0.543671 0
M  V30 5993 C 578.822 4.05033 -1.65128 0
M  V30 5994 C 577.881 5.13273 -1.1592 0
M  V30 5995 O 576.907 5.38095 -1.85586 0
M  V30 5996 N 578.109 5.805 -0.00649279 0
M  V30 5997 H 580.874 2.24699 -1.98319 0
M  V30 5998 H 578.435 1.11264 -1.1761 0
M  V30 5999 H 580.427 4.04212 -0.198703 0
M  V30 6000 H 578.997 3.11042 0.311711 0
M  V30 6001 H 578.217 3.29275 -2.16729 0
M  V30 6002 H 579.505 4.48903 -2.39508 0
M  V30 6003 H 578.903 5.62767 0.575347 0
M  V30 6004 H 577.46 6.51201 0.279416 0
M  V30 6005 N 580.893 1.08022 1.14757 0
M  V30 6006 C 582.141 0.805913 1.85336 0
M  V30 6007 C 582.462 -0.670162 1.83122 0
M  V30 6008 O 581.732 -1.48567 1.2769 0
M  V30 6009 H 580.312 0.295138 0.686223 0
M  V30 6010 H 582.974 1.36538 1.3908 0
M  V30 6011 H 582.07 1.14655 2.90277 0
M  V30 6012 N 582.371 -1.3172 0.865308 0
M  V30 6013 C 583.303 -2.27545 0.274906 0
M  V30 6014 C 584.316 -1.52887 -0.559413 0
M  V30 6015 O 585.505 -1.74361 -0.382166 0
M  V30 6016 C 582.605 -3.33006 -0.629286 0
M  V30 6017 C 581.778 -4.37063 0.171553 0
M  V30 6018 C 580.837 -5.22044 -0.660052 0
M  V30 6019 O 579.863 -5.69129 -0.0897527 0
M  V30 6020 N 581.065 -5.45946 -1.97289 0
M  V30 6021 H 583.83 -2.78848 1.09836 0
M  V30 6022 H 581.391 -1.44693 0.726331 0
M  V30 6023 H 583.383 -3.86772 -1.19121 0
M  V30 6024 H 581.953 -2.81782 -1.35342 0
M  V30 6025 H 581.173 -3.83436 0.914919 0
M  V30 6026 H 582.461 -5.03662 0.721235 0
M  V30 6027 H 581.859 -5.0944 -2.45942 0
M  V30 6028 H 580.416 -6.02665 -2.4827 0
M  V30 6029 N 583.85 -0.624285 -1.44708 0
M  V30 6030 C 585.077 -0.132919 -2.06473 0
M  V30 6031 C 585.493 1.18967 -1.46602 0
M  V30 6032 O 584.85 1.72824 -0.586341 0
M  V30 6033 C 584.901 -0.00465418 -3.615 0
M  V30 6034 O 584.622 -1.27494 -4.19138 0
M  V30 6035 C 586.123 0.516213 -4.40284 0
M  V30 6036 H 583.343 -0.0765201 -0.666623 0
M  V30 6037 H 585.887 -0.856751 -1.85688 0
M  V30 6038 H 584.042 0.669583 -3.8157 0
M  V30 6039 H 584.456 -1.11536 -5.12504 0
M  V30 6040 H 585.93 0.554994 -5.49203 0
M  V30 6041 H 586.407 1.5419 -4.11245 0
M  V30 6042 H 587.013 -0.124542 -4.25118 0
M  V30 6043 N 585.328 1.53329 -0.364422 0
M  V30 6044 C 586.577 2.00421 0.226747 0
M  V30 6045 C 586.89 1.25581 1.49963 0
M  V30 6046 O 588.096 1.63256 2.16933 0
M  V30 6047 C 586.552 3.57017 0.454618 0
M  V30 6048 C 586.16 4.40734 -0.803568 0
M  V30 6049 C 587.904 4.12468 1.00351 0
M  V30 6050 C 585.811 5.8888 -0.545345 0
M  V30 6051 H 584.741 0.748787 0.0885082 0
M  V30 6052 H 587.392 1.7703 -0.482983 0
M  V30 6053 H 585.774 3.76558 1.22558 0
M  V30 6054 H 586.948 4.32967 -1.57723 0
M  V30 6055 H 585.263 3.96381 -1.27559 0
M  V30 6056 H 587.86 5.20783 1.212 0
M  V30 6057 H 588.203 3.6699 1.9653 0
M  V30 6058 H 588.736 3.96721 0.29274 0
M  V30 6059 H 585.475 6.38633 -1.47743 0
M  V30 6060 H 584.995 5.99499 0.189842 0
M  V30 6061 H 586.674 6.46776 -0.170425 0
M  V30 6062 N 586.806 0.0935595 1.57322 0
M  V30 6063 C 588.052 -0.571355 1.94585 0
M  V30 6064 C 588.385 -1.67929 0.975366 0
M  V30 6065 O 587.66 -1.94498 0.00816206 0
M  V30 6066 C 587.943 -1.12797 3.41978 0
M  V30 6067 C 587.796 -0.0251881 4.49793 0
M  V30 6068 C 589.115 -2.02682 3.90651 0
M  V30 6069 H 586.234 -0.206223 0.70756 0
M  V30 6070 H 588.876 0.163956 1.89291 0
M  V30 6071 H 587.026 -1.75461 3.4662 0
M  V30 6072 H 588.698 0.608979 4.57263 0
M  V30 6073 H 586.941 0.641399 4.29032 0
M  V30 6074 H 587.612 -0.455433 5.50118 0
M  V30 6075 H 590.088 -1.49925 3.88152 0
M  V30 6076 H 588.964 -2.38555 4.94351 0
M  V30 6077 H 589.225 -2.94362 3.29854 0
M  V30 6078 N 588.284 -1.56567 -0.180126 0
M  V30 6079 C 589.214 -1.98753 -1.22553 0
M  V30 6080 C 590.195 -0.86175 -1.46656 0
M  V30 6081 O 591.38 -1.12719 -1.58139 0
M  V30 6082 C 588.51 -2.33988 -2.56645 0
M  V30 6083 C 587.464 -3.49445 -2.47128 0
M  V30 6084 C 586.79 -3.70397 -3.8563 0
M  V30 6085 C 588.09 -4.83171 -1.98352 0
M  V30 6086 H 589.784 -2.86332 -0.874896 0
M  V30 6087 H 587.33 -1.37757 -0.419414 0
M  V30 6088 H 589.283 -2.62097 -3.29974 0
M  V30 6089 H 588.007 -1.43309 -2.93479 0
M  V30 6090 H 586.666 -3.2145 -1.76254 0
M  V30 6091 H 586.314 -2.77023 -4.19842 0
M  V30 6092 H 586.014 -4.48077 -3.80132 0
M  V30 6093 H 587.538 -4.00897 -4.60558 0
M  V30 6094 H 588.952 -5.10213 -2.61449 0
M  V30 6095 H 587.349 -5.64425 -2.03823 0
M  V30 6096 H 588.419 -4.75753 -0.937402 0
M  V30 6097 N 589.762 0.448376 -1.51087 0
M  V30 6098 C 590.71 1.56407 -1.72161 0
M  V30 6099 C 591.704 1.58878 -0.587721 0
M  V30 6100 O 592.91 1.62755 -0.768822 0
M  V30 6101 H 589.285 0.519423 -0.543786 0
M  V30 6102 H 591.256 1.35803 -2.65707 0
M  V30 6103 C 590.005 2.94163 -1.85373 0
M  V30 6104 H 589.328 2.9299 -2.72024 0
M  V30 6105 H 590.768 3.71625 -2.04135 0
M  V30 6106 C 589.227 3.31317 -0.610803 0
M  V30 6107 O 589.757 4.00985 0.239636 0
M  V30 6108 N 587.963 2.86966 -0.458127 0
M  V30 6109 H 587.51 2.30443 -1.15124 0
M  V30 6110 H 587.468 3.12188 0.372289 0
M  V30 6111 N 591.24 1.41047 0.703093 0
M  V30 6112 C 592.468 1.4334 1.49202 0
M  V30 6113 C 592.883 0.0365596 1.88765 0
M  V30 6114 O 592.24 -0.942419 1.56284 0
M  V30 6115 C 592.291 2.33538 2.75939 0
M  V30 6116 O 592.012 3.67786 2.38045 0
M  V30 6117 C 593.513 2.44555 3.6974 0
M  V30 6118 H 590.733 0.488472 0.460039 0
M  V30 6119 H 593.277 1.85245 0.86629 0
M  V30 6120 H 591.432 1.94962 3.34766 0
M  V30 6121 H 591.846 4.15816 3.19683 0
M  V30 6122 H 593.32 3.11849 4.55471 0
M  V30 6123 H 593.797 1.47447 4.1371 0
M  V30 6124 H 594.403 2.83735 3.16819 0
M  V30 6125 N 592.718 -0.936591 1.26751 0
M  V30 6126 C 593.995 -1.66094 1.03306 0
M  V30 6127 C 594.375 -2.06568 -0.435058 0
M  V30 6128 O 593.723 -1.79305 -1.41641 0
M  V30 6129 C 593.933 -2.86969 1.98619 0
M  V30 6130 C 595.281 -3.58516 2.27489 0
M  V30 6131 O 596.305 -2.97082 1.96522 0
M  V30 6132 O 595.164 -4.69181 2.80235 0
M  V30 6133 H 592.258 -0.727568 0.393158 0
M  V30 6134 H 594.804 -0.987914 1.3798 0
M  V30 6135 H 593.576 -2.53985 2.9767 0
M  V30 6136 H 593.199 -3.61996 1.64454 0
M  V30 6137 N 594.196 -1.08629 -1.14182 0
M  V30 6138 C 595.442 -0.828415 -1.85766 0
M  V30 6139 C 595.797 0.638947 -1.81481 0
M  V30 6140 O 595.09 1.46386 -1.23619 0
M  V30 6141 C 595.284 -1.28734 -3.3341 0
M  V30 6142 C 595.113 -2.79778 -3.52071 0
M  V30 6143 C 593.883 -3.47554 -3.66789 0
M  V30 6144 C 596.081 -3.77945 -3.48801 0
M  V30 6145 N 594.063 -4.87107 -3.73631 0
M  V30 6146 C 595.434 -5.03406 -3.61914 0
M  V30 6147 C 597.489 -3.70917 -3.32152 0
M  V30 6148 C 596.192 -6.22673 -3.60098 0
M  V30 6149 C 598.218 -4.89662 -3.31641 0
M  V30 6150 C 597.58 -6.13962 -3.45296 0
M  V30 6151 H 593.679 -0.355884 -0.696327 0
M  V30 6152 H 596.263 -1.38508 -1.36834 0
M  V30 6153 H 594.434 -0.75822 -3.80927 0
M  V30 6154 H 596.166 -0.975649 -3.92764 0
M  V30 6155 H 592.921 -2.97972 -3.68116 0
M  V30 6156 H 593.345 -5.59775 -3.80763 0
M  V30 6157 H 597.987 -2.75749 -3.20504 0
M  V30 6158 H 595.705 -7.1815 -3.70522 0
M  V30 6159 H 599.291 -4.85914 -3.19968 0
M  V30 6160 H 598.171 -7.04307 -3.44851 0
M  V30 6161 N 595.674 1.31259 -0.872281 0
M  V30 6162 C 596.899 2.0133 -0.498099 0
M  V30 6163 C 597.324 1.65031 0.902568 0
M  V30 6164 O 596.682 0.860164 1.59596 0
M  V30 6165 C 596.73 3.54411 -0.665205 0
M  V30 6166 O 595.834 4.11347 0.294473 0
M  V30 6167 H 595.175 0.633844 -0.197832 0
M  V30 6168 H 597.705 1.67402 -1.17633 0
M  V30 6169 H 597.715 4.04147 -0.559373 0
M  V30 6170 H 596.39 3.80171 -1.68651 0
M  V30 6171 H 594.967 3.72624 0.143403 0
M  V30 6172 N 597.152 0.631951 1.44375 0
M  V30 6173 C 598.4 0.136497 2.01639 0
M  V30 6174 C 598.721 -1.24637 1.49969 0
M  V30 6175 O 597.991 -1.82827 0.70363 0
M  V30 6176 H 596.571 0.0474703 0.74549 0
M  V30 6177 H 599.233 0.818837 1.76865 0
M  V30 6178 H 598.329 0.104817 3.11924 0
M  V30 6179 N 598.631 -1.53133 0.372548 0
M  V30 6180 C 599.861 -2.05476 -0.215202 0
M  V30 6181 C 600.269 -1.24534 -1.42436 0
M  V30 6182 O 599.612 -0.280771 -1.81542 0
M  V30 6183 C 599.674 -3.53276 -0.666068 0
M  V30 6184 C 599.338 -4.54998 0.427342 0
M  V30 6185 C 600.335 -5.03911 1.27944 0
M  V30 6186 C 598.02 -4.98828 0.589579 0
M  V30 6187 C 600.014 -5.95263 2.27905 0
M  V30 6188 C 597.701 -5.89984 1.59255 0
M  V30 6189 C 598.699 -6.38093 2.43571 0
M  V30 6190 O 598.387 -7.27451 3.42156 0
M  V30 6191 H 598.119 -0.67481 -0.040099 0
M  V30 6192 H 600.673 -1.98409 0.531312 0
M  V30 6193 H 598.903 -3.57904 -1.4643 0
M  V30 6194 H 600.592 -3.88442 -1.1776 0
M  V30 6195 H 601.358 -4.70792 1.16532 0
M  V30 6196 H 597.237 -4.60965 -0.0569456 0
M  V30 6197 H 600.781 -6.32736 2.93753 0
M  V30 6198 H 596.678 -6.22518 1.70711 0
M  V30 6199 H 597.446 -7.45467 3.37967 0
M  V30 6200 N 600.109 -0.101901 -1.5727 0
M  V30 6201 C 601.334 0.571759 -1.99363 0
M  V30 6202 C 601.759 1.60507 -0.980768 0
M  V30 6203 O 601.117 1.81231 0.0498517 0
M  V30 6204 C 601.165 1.18996 -3.404 0
M  V30 6205 O 600.269 2.30572 -3.41922 0
M  V30 6206 H 599.61 0.144449 -0.648098 0
M  V30 6207 H 602.14 -0.185325 -2.03759 0
M  V30 6208 H 602.15 1.52962 -3.78241 0
M  V30 6209 H 600.825 0.432984 -4.1364 0
M  V30 6210 H 599.402 1.98173 -3.15883 0
M  V30 6211 N 601.587 1.56661 0.17182 0
M  V30 6212 C 602.835 1.81606 0.886774 0
M  V30 6213 C 603.156 0.678818 1.82803 0
M  V30 6214 O 602.426 -0.301354 1.93568 0
M  V30 6215 H 601.006 0.669934 0.330451 0
M  V30 6216 H 603.668 1.94142 0.171757 0
M  V30 6217 H 602.764 2.75634 1.46398 0
M  V30 6218 N 603.065 -0.440357 1.51323 0
M  V30 6219 C 604.29 -1.21716 1.67928 0
M  V30 6220 C 604.715 -1.84328 0.374826 0
M  V30 6221 O 604.073 -1.68675 -0.664706 0
M  V30 6222 C 604.121 -2.27914 2.79442 0
M  V30 6223 O 603.225 -3.33325 2.42834 0
M  V30 6224 H 602.566 -0.35674 0.560029 0
M  V30 6225 H 605.096 -0.520417 1.97871 0
M  V30 6226 H 605.106 -2.72746 3.03436 0
M  V30 6227 H 603.781 -1.8172 3.741 0
M  V30 6228 H 602.358 -2.9399 2.294 0
M  V30 6229 N 604.543 -1.41418 -0.695603 0
M  V30 6230 C 605.79 -1.40774 -1.45564 0
M  V30 6231 C 606.118 -0.0168604 -1.94493 0
M  V30 6232 O 605.373 0.971259 -1.69897 0
M  V30 6233 C 605.672 -2.36112 -2.68302 0
M  V30 6234 C 605.338 -3.82952 -2.38031 0
M  V30 6235 C 604 -4.22954 -2.29486 0
M  V30 6236 C 606.352 -4.75662 -2.13061 0
M  V30 6237 C 603.68 -5.53674 -1.94067 0
M  V30 6238 C 606.032 -6.06702 -1.79151 0
M  V30 6239 C 604.696 -6.45725 -1.69102 0
M  V30 6240 H 603.966 -0.515128 -0.532658 0
M  V30 6241 H 606.613 -1.74216 -0.795047 0
M  V30 6242 H 604.918 -1.95924 -3.39295 0
M  V30 6243 H 606.615 -2.32887 -3.26442 0
M  V30 6244 H 603.205 -3.5127 -2.45576 0
M  V30 6245 H 607.389 -4.45561 -2.18608 0
M  V30 6246 H 602.645 -5.8279 -1.8484 0
M  V30 6247 H 606.819 -6.78041 -1.5885 0
M  V30 6248 H 604.446 -7.46929 -1.41426 0
M  V30 6249 N 606.021 0.929856 -1.27246 0
M  V30 6250 C 606.954 2.03069 -1.04106 0
M  V30 6251 C 607.932 1.62556 0.0378417 0
M  V30 6252 O 609.116 1.88197 -0.106869 0
M  V30 6253 C 606.243 3.33718 -0.578778 0
M  V30 6254 C 605.289 3.93209 -1.65193 0
M  V30 6255 S 606.122 4.26068 -3.24386 0
M  V30 6256 C 607.278 5.598 -2.79954 0
M  V30 6257 H 607.511 2.22386 -1.97311 0
M  V30 6258 H 605.044 1.07269 -1.11053 0
M  V30 6259 H 607.002 4.09261 -0.31874 0
M  V30 6260 H 605.663 3.12328 0.333182 0
M  V30 6261 H 604.856 4.87482 -1.27973 0
M  V30 6262 H 604.458 3.24243 -1.86393 0
M  V30 6263 H 606.75 6.39004 -2.25123 0
M  V30 6264 H 607.693 6.01917 -3.72963 0
M  V30 6265 H 608.101 5.20219 -2.19164 0
M  V30 6266 N 607.499 1.09233 1.13605 0
M  V30 6267 C 608.776 0.739633 1.81077 0
M  V30 6268 C 609.156 -0.775595 1.96336 0
M  V30 6269 O 608.504 -1.69726 1.52988 0
M  V30 6270 C 608.714 1.47636 3.16235 0
M  V30 6271 C 610.062 1.64087 3.91613 0
M  V30 6272 O 611.086 1.43871 3.25852 0
M  V30 6273 O 609.945 1.97511 5.0956 0
M  V30 6274 H 607.039 0.265464 0.783236 0
M  V30 6275 H 609.585 1.19441 1.20549 0
M  V30 6276 H 608.357 2.50818 3.00344 0
M  V30 6277 H 607.98 1.01362 3.84462 0
M  V30 6278 N 608.977 -1.30795 0.87923 0
M  V30 6279 C 610.207 -2.00237 0.50881 0
M  V30 6280 C 610.615 -1.66115 -0.905682 0
M  V30 6281 O 609.958 -0.89138 -1.60624 0
M  V30 6282 C 610.02 -3.54508 0.597003 0
M  V30 6283 C 609.684 -4.12131 1.97477 0
M  V30 6284 C 610.681 -4.28552 2.94346 0
M  V30 6285 C 608.366 -4.47644 2.2786 0
M  V30 6286 C 610.36 -4.79689 4.19735 0
M  V30 6287 C 608.047 -4.98481 3.53496 0
M  V30 6288 C 609.045 -5.14456 4.49248 0
M  V30 6289 O 608.733 -5.64199 5.72656 0
M  V30 6290 H 608.465 -0.647026 0.195788 0
M  V30 6291 H 611.019 -1.67785 1.1848 0
M  V30 6292 H 609.249 -3.86461 -0.135945 0
M  V30 6293 H 610.938 -4.05198 0.238684 0
M  V30 6294 H 611.704 -4.01424 2.72183 0
M  V30 6295 H 607.583 -4.34481 1.54102 0
M  V30 6296 H 611.127 -4.92073 4.9448 0
M  V30 6297 H 607.024 -5.25044 3.75498 0
M  V30 6298 H 607.792 -5.82551 5.74957 0
M  V30 6299 N 610.455 -0.639598 -1.44038 0
M  V30 6300 C 611.701 -0.156248 -2.02799 0
M  V30 6301 C 612.056 1.21145 -1.49471 0
M  V30 6302 O 611.349 1.79406 -0.672608 0
M  V30 6303 C 611.543 -0.0925348 -3.5728 0
M  V30 6304 C 611.372 -1.45252 -4.25596 0
M  V30 6305 C 610.142 -2.04145 -4.62226 0
M  V30 6306 C 612.34 -2.38812 -4.55492 0
M  V30 6307 N 610.322 -3.3329 -5.15549 0
M  V30 6308 C 611.693 -3.52578 -5.09989 0
M  V30 6309 C 613.748 -2.37785 -4.3745 0
M  V30 6310 C 612.451 -4.65525 -5.48342 0
M  V30 6311 C 614.477 -3.49802 -4.76857 0
M  V30 6312 C 613.839 -4.62292 -5.31475 0
M  V30 6313 H 609.938 -0.101292 -0.775412 0
M  V30 6314 H 612.522 -0.844938 -1.75411 0
M  V30 6315 H 610.693 0.565459 -3.84262 0
M  V30 6316 H 612.425 0.400426 -4.02714 0
M  V30 6317 H 609.18 -1.56999 -4.4682 0
M  V30 6318 H 609.604 -3.9934 -5.46678 0
M  V30 6319 H 614.246 -1.52061 -3.94509 0
M  V30 6320 H 611.964 -5.51951 -5.90233 0
M  V30 6321 H 615.55 -3.50193 -4.64603 0
M  V30 6322 H 614.43 -5.47536 -5.61403 0
M  V30 6323 N 611.933 1.52934 -0.380664 0
M  V30 6324 C 612.896 2.24809 0.446473 0
M  V30 6325 C 613.896 1.26133 0.997347 0
M  V30 6326 O 615.086 1.50297 0.880714 0
M  V30 6327 C 612.218 2.99649 1.62553 0
M  V30 6328 H 613.411 2.99343 -0.182677 0
M  V30 6329 H 610.964 1.55736 -0.132618 0
M  V30 6330 H 611.699 2.29395 2.29235 0
M  V30 6331 H 611.484 3.72066 1.23732 0
M  V30 6332 H 612.974 3.54246 2.21133 0
M  V30 6333 N 613.412 0.11024 1.57214 0
M  V30 6334 C 614.322 -0.857077 2.18383 0
M  V30 6335 C 615.338 -1.29915 1.1575 0
M  V30 6336 O 616.514 -1.36394 1.48184 0
M  V30 6337 C 613.579 -2.09264 2.76423 0
M  V30 6338 C 612.64 -1.70333 3.94063 0
M  V30 6339 C 611.873 -2.87999 4.49324 0
M  V30 6340 O 612.096 -4.0317 4.03497 0
M  V30 6341 O 611.03 -2.6559 5.40135 0
M  V30 6342 H 614.856 -0.366561 3.0148 0
M  V30 6343 H 612.441 -0.114914 1.48957 0
M  V30 6344 H 614.323 -2.81644 3.13456 0
M  V30 6345 H 612.998 -2.57339 1.96363 0
M  V30 6346 H 611.905 -0.950864 3.61814 0
M  V30 6347 H 613.238 -1.27007 4.75531 0
M  V30 6348 N 614.89 -1.56749 -0.16351 0
M  V30 6349 C 616.138 -1.82074 -0.87713 0
M  V30 6350 C 616.459 -0.688503 -1.82441 0
M  V30 6351 O 615.729 0.291085 -1.93725 0
M  V30 6352 H 614.309 -0.671677 -0.326893 0
M  V30 6353 H 616.971 -1.9423 -0.161459 0
M  V30 6354 H 616.067 -2.76407 -1.44934 0
M  V30 6355 N 616.368 0.432326 -1.51554 0
M  V30 6356 C 617.278 1.55023 -1.76082 0
M  V30 6357 C 618.294 1.61593 -0.645265 0
M  V30 6358 O 619.47 1.78742 -0.928086 0
M  V30 6359 C 616.535 2.90964 -1.88523 0
M  V30 6360 C 615.596 2.9447 -3.12388 0
M  V30 6361 C 614.829 4.23926 -3.24225 0
M  V30 6362 O 615.052 5.16576 -2.4188 0
M  V30 6363 O 613.986 4.33818 -4.17235 0
M  V30 6364 H 617.812 1.37238 -2.70923 0
M  V30 6365 H 615.397 0.615845 -1.36117 0
M  V30 6366 H 617.279 3.71633 -1.98662 0
M  V30 6367 H 615.954 3.08865 -0.9687 0
M  V30 6368 H 614.861 2.12737 -3.07723 0
M  V30 6369 H 616.194 2.81514 -4.03746 0
M  V30 6370 N 617.846 1.41785 0.688094 0
M  V30 6371 C 619.086 1.43018 1.46032 0
M  V30 6372 C 619.45 0.0402632 1.91958 0
M  V30 6373 O 620.651 -0.0726425 2.68702 0
M  V30 6374 C 618.922 2.4151 2.63453 0
M  V30 6375 S 620.481 2.61335 3.5249 0
M  V30 6376 H 617.299 0.506546 0.498931 0
M  V30 6377 H 619.901 1.78283 0.80221 0
M  V30 6378 H 618.605 3.41286 2.27929 0
M  V30 6379 H 618.136 2.07624 3.34149 0
M  V30 6380 H 620.151 1.88637 4.58945 0
M  V30 6381 N 619.324 -0.923095 1.27737 0
M  V30 6382 C 620.554 -1.70277 1.17001 0
M  V30 6383 C 620.962 -1.87188 -0.275199 0
M  V30 6384 O 620.305 -1.39195 -1.19877 0
M  V30 6385 C 620.367 -3.11976 1.78637 0
M  V30 6386 C 620.031 -3.18386 3.27841 0
M  V30 6387 C 621.028 -3.00287 4.2441 0
M  V30 6388 C 618.713 -3.41198 3.68632 0
M  V30 6389 C 620.707 -3.04896 5.59747 0
M  V30 6390 C 618.394 -3.4544 5.04097 0
M  V30 6391 C 619.392 -3.27309 5.99465 0
M  V30 6392 O 619.08 -3.31295 7.32461 0
M  V30 6393 H 618.812 -0.539366 0.407505 0
M  V30 6394 H 621.366 -1.16446 1.69202 0
M  V30 6395 H 619.596 -3.67308 1.20919 0
M  V30 6396 H 621.285 -3.7193 1.6255 0
M  V30 6397 H 622.051 -2.825 3.94232 0
M  V30 6398 H 617.93 -3.54359 2.94873 0
M  V30 6399 H 621.474 -2.90662 6.34162 0
M  V30 6400 H 617.371 -3.62753 5.33929 0
M  V30 6401 H 618.139 -3.47719 7.40968 0
M  V30 6402 N 620.802 -1.09834 -1.13024 0
M  V30 6403 C 622.218 -0.828875 -1.36388 0
M  V30 6404 C 622.418 0.554756 -1.93713 0
M  V30 6405 O 621.474 1.30882 -2.15931 0
M  V30 6406 C 622.787 -1.92352 -2.3113 0
M  V30 6407 C 624.335 -1.95124 -2.44735 0
M  V30 6408 C 624.81 -3.03745 -3.42787 0
M  V30 6409 N 626.301 -3.03012 -3.5034 0
M  V30 6410 C 627.036 -3.83699 -4.26101 0
M  V30 6411 N 626.532 -4.74306 -5.04981 0
M  V30 6412 N 628.325 -3.71942 -4.21445 0
M  V30 6413 H 620.476 -1.99029 -0.74169 0
M  V30 6414 H 622.739 -0.864557 -0.388903 0
M  V30 6415 H 622.445 -2.91906 -1.96172 0
M  V30 6416 H 622.319 -1.80536 -3.3119 0
M  V30 6417 H 624.706 -0.962069 -2.78977 0
M  V30 6418 H 624.787 -2.11018 -1.44586 0
M  V30 6419 H 624.431 -4.02878 -3.09276 0
M  V30 6420 H 624.361 -2.85094 -4.42752 0
M  V30 6421 H 626.852 -2.37352 -2.94062 0
M  V30 6422 H 627.165 -5.32446 -5.60108 0
M  V30 6423 H 625.51 -4.78339 -5.04199 0
M  V30 6424 H 628.701 -3.00513 -3.589 0
M  V30 6425 H 628.874 -4.35062 -4.80235 0
M  V30 6426 N 622.28 1.30327 -0.886154 0
M  V30 6427 C 623.243 2.26376 -0.358687 0
M  V30 6428 C 624.243 1.52845 0.499498 0
M  V30 6429 O 625.433 1.71483 0.306485 0
M  V30 6430 C 622.565 3.37379 0.488726 0
M  V30 6431 H 623.758 2.74547 -1.20681 0
M  V30 6432 H 621.311 1.41536 -0.663113 0
M  V30 6433 H 622.046 2.94526 1.35739 0
M  V30 6434 H 621.831 3.91897 -0.126003 0
M  V30 6435 H 623.321 4.08868 0.84952 0
M  V30 6436 N 623.758 0.647228 1.43697 0
M  V30 6437 C 624.998 0.16171 2.03759 0
M  V30 6438 C 625.362 -1.19951 1.49919 0
M  V30 6439 O 626.563 -1.77808 2.01588 0
M  V30 6440 C 624.834 0.16505 3.57019 0
M  V30 6441 S 626.393 -0.253497 4.38067 0
M  V30 6442 H 623.211 0.0689985 0.707644 0
M  V30 6443 H 625.813 0.854224 1.7585 0
M  V30 6444 H 624.517 1.15858 3.93707 0
M  V30 6445 H 624.048 -0.548194 3.89562 0
M  V30 6446 H 626.063 -1.49385 4.73179 0
M  V30 6447 N 625.236 -1.5273 0.388769 0
M  V30 6448 C 626.483 -2.01573 -0.19359 0
M  V30 6449 C 626.811 -1.27525 -1.46859 0
M  V30 6450 O 626.066 -0.363926 -1.92286 0
M  V30 6451 C 626.365 -3.53765 -0.508445 0
M  V30 6452 C 626.031 -4.4582 0.674947 0
M  V30 6453 C 624.693 -4.70703 0.999596 0
M  V30 6454 C 627.045 -5.00138 1.46666 0
M  V30 6455 C 624.373 -5.47155 2.11751 0
M  V30 6456 C 626.725 -5.77812 2.57518 0
M  V30 6457 C 625.389 -6.00975 2.90492 0
M  V30 6458 H 624.659 -0.737606 -0.0708397 0
M  V30 6459 H 627.306 -1.84134 0.526006 0
M  V30 6460 H 625.611 -3.69274 -1.30936 0
M  V30 6461 H 627.308 -3.8905 -0.971664 0
M  V30 6462 H 623.898 -4.26616 0.411906 0
M  V30 6463 H 628.082 -4.8084 1.22909 0
M  V30 6464 H 623.338 -5.63314 2.3767 0
M  V30 6465 H 627.512 -6.18904 3.19267 0
M  V30 6466 H 625.139 -6.59998 3.77236 0
M  V30 6467 N 626.714 -0.118576 -1.57153 0
M  V30 6468 C 627.944 0.546466 -1.99242 0
M  V30 6469 C 628.352 1.60791 -0.997148 0
M  V30 6470 O 627.695 1.83691 0.0181745 0
M  V30 6471 C 627.757 1.23167 -3.37743 0
M  V30 6472 C 627.421 0.318226 -4.55891 0
M  V30 6473 C 628.418 -0.442988 -5.18009 0
M  V30 6474 C 626.103 0.229421 -5.01776 0
M  V30 6475 C 628.097 -1.28074 -6.244 0
M  V30 6476 C 625.784 -0.611966 -6.08028 0
M  V30 6477 C 626.782 -1.36568 -6.69207 0
M  V30 6478 O 626.47 -2.1931 -7.73407 0
M  V30 6479 H 626.202 0.149297 -0.659307 0
M  V30 6480 H 628.756 -0.201603 -2.04408 0
M  V30 6481 H 626.986 2.0268 -3.29329 0
M  V30 6482 H 628.675 1.79358 -3.64123 0
M  V30 6483 H 629.441 -0.38425 -4.83475 0
M  V30 6484 H 625.32 0.805771 -4.53903 0
M  V30 6485 H 628.864 -1.86952 -6.72082 0
M  V30 6486 H 624.761 -0.6721 -6.41991 0
M  V30 6487 H 625.529 -2.12247 -7.90502 0
M  V30 6488 N 628.193 1.56834 0.155195 0
M  V30 6489 C 629.439 1.83169 0.870467 0
M  V30 6490 C 629.772 0.698929 1.81187 0
M  V30 6491 O 629.047 -0.298035 1.92203 0
M  V30 6492 C 629.33 3.19965 1.65211 0
M  V30 6493 C 629.183 4.43792 0.732744 0
M  V30 6494 C 630.502 3.53885 2.61636 0
M  V30 6495 H 627.621 0.666288 0.315006 0
M  V30 6496 H 630.263 1.89513 0.135988 0
M  V30 6497 H 628.413 3.14687 2.27825 0
M  V30 6498 H 630.085 4.61148 0.118236 0
M  V30 6499 H 628.328 4.3378 0.0417906 0
M  V30 6500 H 628.999 5.36095 1.31552 0
M  V30 6501 H 631.475 3.5972 2.09143 0
M  V30 6502 H 630.351 4.50648 3.13381 0
M  V30 6503 H 630.612 2.79418 3.42605 0
M  V30 6504 N 629.671 -0.424282 1.51781 0
M  V30 6505 C 630.581 -1.54087 1.76902 0
M  V30 6506 C 631.597 -1.61249 0.653826 0
M  V30 6507 O 632.773 -1.78247 0.937552 0
M  V30 6508 C 629.838 -2.8996 1.90063 0
M  V30 6509 C 628.899 -2.92809 3.13945 0
M  V30 6510 C 628.132 -4.22201 3.26469 0
M  V30 6511 O 628.355 -5.15286 2.44616 0
M  V30 6512 O 627.289 -4.31599 4.1953 0
M  V30 6513 H 631.115 -1.358 2.71647 0
M  V30 6514 H 628.7 -0.608618 1.36441 0
M  V30 6515 H 630.582 -3.70575 2.0063 0
M  V30 6516 H 629.257 -3.08347 0.985067 0
M  V30 6517 H 628.164 -2.11102 3.08847 0
M  V30 6518 H 629.497 -2.79369 4.05233 0
M  V30 6519 N 631.149 -1.42148 -0.680565 0
M  V30 6520 C 632.079 -1.4796 -1.80638 0
M  V30 6521 C 633.06 -0.336728 -1.66734 0
M  V30 6522 O 634.245 -0.550247 -1.86242 0
M  V30 6523 C 631.375 -1.37569 -3.18892 0
M  V30 6524 C 630.329 -2.49823 -3.47524 0
M  V30 6525 C 629.655 -2.24491 -4.85291 0
M  V30 6526 C 630.955 -3.92144 -3.44994 0
M  V30 6527 H 632.649 -2.42184 -1.76032 0
M  V30 6528 H 630.195 -1.16566 -0.845481 0
M  V30 6529 H 632.148 -1.40243 -3.97379 0
M  V30 6530 H 630.872 -0.398357 -3.24162 0
M  V30 6531 H 629.531 -2.46455 -2.71395 0
M  V30 6532 H 629.179 -1.25066 -4.87204 0
M  V30 6533 H 628.879 -2.99722 -5.05411 0
M  V30 6534 H 630.403 -2.28906 -5.66069 0
M  V30 6535 H 631.817 -3.97145 -4.13459 0
M  V30 6536 H 630.214 -4.67179 -3.76648 0
M  V30 6537 H 631.284 -4.19225 -2.43676 0
M  V30 6538 N 632.627 0.916307 -1.28225 0
M  V30 6539 C 633.876 1.65975 -1.14608 0
M  V30 6540 C 634.189 1.93204 0.305191 0
M  V30 6541 O 635.395 2.65611 0.562432 0
M  V30 6542 C 633.851 2.98989 -2.00333 0
M  V30 6543 C 633.459 2.79417 -3.50186 0
M  V30 6544 C 635.203 3.76856 -1.95397 0
M  V30 6545 C 633.11 4.08056 -4.28071 0
M  V30 6546 H 632.04 0.622587 -0.425324 0
M  V30 6547 H 634.691 1.01705 -1.52736 0
M  V30 6548 H 633.073 3.6438 -1.5506 0
M  V30 6549 H 634.247 2.22723 -4.034 0
M  V30 6550 H 632.562 2.14966 -3.56621 0
M  V30 6551 H 635.159 4.72203 -2.50856 0
M  V30 6552 H 635.502 4.05776 -0.930137 0
M  V30 6553 H 636.035 3.1828 -2.38626 0
M  V30 6554 H 632.774 3.8431 -5.31024 0
M  V30 6555 H 632.294 4.64371 -3.79631 0
M  V30 6556 H 633.973 4.76333 -4.37854 0
M  V30 6557 N 634.105 1.10431 1.1244 0
M  V30 6558 C 635.521 0.836096 1.35947 0
M  V30 6559 C 635.721 -0.544475 1.94004 0
M  V30 6560 O 634.777 -1.29735 2.16622 0
M  V30 6561 C 636.09 1.93575 2.30107 0
M  V30 6562 C 637.638 1.9642 2.43697 0
M  V30 6563 C 638.113 3.05559 3.41171 0
M  V30 6564 N 639.604 3.04865 3.48728 0
M  V30 6565 C 640.339 3.85954 4.24061 0
M  V30 6566 N 639.835 4.76977 5.02458 0
M  V30 6567 N 641.628 3.74172 4.19466 0
M  V30 6568 H 633.779 1.9942 0.731124 0
M  V30 6569 H 636.042 0.866607 0.384312 0
M  V30 6570 H 635.748 2.92943 1.94621 0
M  V30 6571 H 635.622 1.8229 3.30227 0
M  V30 6572 H 638.009 0.97685 2.78463 0
M  V30 6573 H 638.09 2.11782 1.43465 0
M  V30 6574 H 637.734 4.04513 3.07135 0
M  V30 6575 H 637.664 2.87438 4.41234 0
M  V30 6576 H 640.155 2.38908 2.92799 0
M  V30 6577 H 640.468 5.35409 5.57277 0
M  V30 6578 H 638.813 4.81006 5.01655 0
M  V30 6579 H 642.004 3.02412 3.57302 0
M  V30 6580 H 642.177 4.37602 4.77921 0
M  V30 6581 N 635.583 -1.29855 0.893053 0
M  V30 6582 C 636.831 -1.9544 0.514566 0
M  V30 6583 C 637.152 -1.70795 -0.940959 0
M  V30 6584 O 636.422 -1.03601 -1.66264 0
M  V30 6585 H 635.002 -0.723137 0.187302 0
M  V30 6586 H 637.664 -1.58234 1.13789 0
M  V30 6587 H 636.76 -3.04341 0.691581 0
M  V30 6588 N 637.061 -0.65484 -1.43351 0
M  V30 6589 C 638.477 -0.32255 -1.56307 0
M  V30 6590 C 638.677 1.17324 -1.63821 0
M  V30 6591 O 637.733 1.95813 -1.59417 0
M  V30 6592 C 639.046 -1.03533 -2.82314 0
M  V30 6593 C 640.594 -1.01574 -2.9606 0
M  V30 6594 C 641.069 -1.70945 -4.24902 0
M  V30 6595 N 642.56 -1.67716 -4.3177 0
M  V30 6596 C 643.295 -2.18265 -5.30234 0
M  V30 6597 N 642.791 -2.7711 -6.34966 0
M  V30 6598 N 644.584 -2.08756 -5.21898 0
M  V30 6599 H 636.735 -1.62549 -1.36717 0
M  V30 6600 H 638.998 -0.683676 -0.656727 0
M  V30 6601 H 638.704 -2.09045 -2.8283 0
M  V30 6602 H 638.578 -0.587913 -3.7259 0
M  V30 6603 H 640.965 0.0309834 -2.95084 0
M  V30 6604 H 641.046 -1.50186 -2.07069 0
M  V30 6605 H 640.69 -2.75574 -4.26639 0
M  V30 6606 H 640.62 -1.19797 -5.12793 0
M  V30 6607 H 643.111 -1.24777 -3.56706 0
M  V30 6608 H 643.424 -3.13353 -7.06421 0
M  V30 6609 H 641.769 -2.81171 -6.35585 0
M  V30 6610 H 644.96 -1.62488 -4.38994 0
M  V30 6611 H 645.133 -2.48459 -5.98475 0
M  V30 6612 N 638.539 1.52521 -0.396863 0
M  V30 6613 C 639.95 1.86547 0.0754868 0
M  V30 6614 C 640.301 1.31621 1.45501 0
M  V30 6615 O 639.426 0.650563 2.0639 0
M  V30 6616 C 640.021 3.38495 0.143754 0
M  V30 6617 C 638.58 3.72205 0.560413 0
M  V30 6618 C 637.727 2.75954 -0.272856 0
M  V30 6619 H 640.678 1.46323 -0.614434 0
M  V30 6620 H 640.699 3.68153 0.961425 0
M  V30 6621 H 640.211 3.78442 -0.860415 0
M  V30 6622 H 638.312 3.3783 1.57167 0
M  V30 6623 H 638.425 4.78074 0.313314 0
M  V30 6624 H 636.789 2.53339 0.263 0
M  V30 6625 H 637.572 3.1874 -1.27515 0
M  V30 6626 N 640.017 0.126909 1.57088 0
M  V30 6627 C 640.964 -0.82036 2.15728 0
M  V30 6628 C 641.934 -1.25811 1.08447 0
M  V30 6629 O 643.119 -1.33422 1.36393 0
M  V30 6630 C 640.259 -2.06199 2.76724 0
M  V30 6631 C 639.372 -1.67188 3.98337 0
M  V30 6632 C 638.507 -2.86378 4.47393 0
M  V30 6633 C 637.546 -2.43644 5.61519 0
M  V30 6634 N 636.683 -3.55775 6.05284 0
M  V30 6635 H 641.523 -0.313472 2.96347 0
M  V30 6636 H 639.06 -0.14303 1.46403 0
M  V30 6637 H 641.018 -2.78959 3.10222 0
M  V30 6638 H 639.648 -2.54333 1.98782 0
M  V30 6639 H 638.7 -0.842714 3.70948 0
M  V30 6640 H 640.012 -1.31789 4.81075 0
M  V30 6641 H 639.166 -3.67353 4.82842 0
M  V30 6642 H 637.905 -3.25009 3.63621 0
M  V30 6643 H 636.91 -1.61104 5.25667 0
M  V30 6644 H 638.135 -2.06122 6.47063 0
M  V30 6645 H 636.081 -3.94065 5.24451 0
M  V30 6646 H 635.998 -3.24325 6.82898 0
M  V30 6647 H 637.266 -4.37166 6.45373 0
M  V30 6648 N 641.495 -1.56914 -0.146875 0
M  V30 6649 C 642.405 -2.0154 -1.20079 0
M  V30 6650 C 643.421 -0.930838 -1.47008 0
M  V30 6651 O 644.597 -1.24032 -1.58676 0
M  V30 6652 C 641.662 -2.38715 -2.51428 0
M  V30 6653 C 640.723 -3.6112 -2.32145 0
M  V30 6654 C 639.956 -3.96512 -3.57231 0
M  V30 6655 O 640.179 -3.32566 -4.63418 0
M  V30 6656 O 639.113 -4.89758 -3.49887 0
M  V30 6657 H 642.939 -2.91506 -0.851924 0
M  V30 6658 H 640.524 -1.45106 -0.355607 0
M  V30 6659 H 642.406 -2.63485 -3.28867 0
M  V30 6660 H 641.081 -1.51903 -2.85845 0
M  V30 6661 H 639.988 -3.41536 -1.52656 0
M  V30 6662 H 641.321 -4.48549 -2.02644 0
M  V30 6663 N 642.974 0.416227 -1.52004 0
M  V30 6664 C 644.251 1.17637 -1.56272 0
M  V30 6665 C 644.631 2.08352 -0.339493 0
M  V30 6666 O 643.979 2.1833 0.674124 0
M  V30 6667 C 644.189 1.95986 -2.88774 0
M  V30 6668 C 645.537 2.52299 -3.41512 0
M  V30 6669 O 646.561 2.06174 -2.90467 0
M  V30 6670 O 645.42 3.3648 -4.30631 0
M  V30 6671 H 642.514 0.536726 -0.629169 0
M  V30 6672 H 645.06 0.423583 -1.64329 0
M  V30 6673 H 643.832 1.29487 -3.69254 0
M  V30 6674 H 643.455 2.78285 -2.83978 0
M  V30 6675 N 644.452 1.42507 0.673017 0
M  V30 6676 C 645.399 1.46124 1.78651 0
M  V30 6677 C 646.369 0.313007 1.63124 0
M  V30 6678 O 647.554 0.517337 1.83653 0
M  V30 6679 C 644.694 1.3711 3.16694 0
M  V30 6680 C 643.807 2.61983 3.43495 0
M  V30 6681 C 642.942 2.45098 4.71275 0
M  V30 6682 C 641.981 3.65336 4.91117 0
M  V30 6683 N 641.118 3.47383 6.10139 0
M  V30 6684 H 645.958 2.4128 1.74895 0
M  V30 6685 H 643.495 1.19788 0.853766 0
M  V30 6686 H 645.453 1.29881 3.96468 0
M  V30 6687 H 644.083 0.45549 3.1957 0
M  V30 6688 H 643.135 2.79571 2.57961 0
M  V30 6689 H 644.447 3.51355 3.5405 0
M  V30 6690 H 643.601 2.35466 5.59143 0
M  V30 6691 H 642.34 1.53219 4.63007 0
M  V30 6692 H 641.345 3.754 4.0169 0
M  V30 6693 H 642.57 4.58199 5.01229 0
M  V30 6694 H 640.516 2.58222 6.0304 0
M  V30 6695 H 640.433 4.30344 6.21563 0
M  V30 6696 H 641.701 3.41565 7.00681 0
M  V30 6697 N 645.93 -0.909495 1.28709 0
M  V30 6698 C 647.176 -1.66151 1.16283 0
M  V30 6699 C 647.509 -1.92067 -0.287069 0
M  V30 6700 O 646.784 -1.52409 -1.20837 0
M  V30 6701 C 647.067 -3.01676 1.9663 0
M  V30 6702 C 646.92 -2.82888 3.49707 0
M  V30 6703 C 648.239 -4.02274 1.78504 0
M  V30 6704 H 645.358 -0.602966 0.423793 0
M  V30 6705 H 648 -1.05418 1.58073 0
M  V30 6706 H 646.15 -3.53515 1.61119 0
M  V30 6707 H 647.822 -2.38026 3.95147 0
M  V30 6708 H 646.065 -2.17862 3.75125 0
M  V30 6709 H 646.736 -3.79147 4.01187 0
M  V30 6710 H 649.212 -3.59511 2.09503 0
M  V30 6711 H 648.088 -4.95056 2.37088 0
M  V30 6712 H 648.349 -4.35903 0.737647 0
M  V30 6713 N 647.408 -1.11026 -1.11852 0
M  V30 6714 C 648.654 -0.867633 -1.83967 0
M  V30 6715 C 649.009 0.600309 -1.82795 0
M  V30 6716 O 648.302 1.43731 -1.26696 0
M  V30 6717 C 648.496 -1.35777 -3.30604 0
M  V30 6718 C 648.325 -2.87183 -3.46058 0
M  V30 6719 C 647.095 -3.55256 -3.59334 0
M  V30 6720 C 649.293 -3.85258 -3.40706 0
M  V30 6721 N 647.275 -4.94923 -3.63215 0
M  V30 6722 C 648.646 -5.1097 -3.51155 0
M  V30 6723 C 650.701 -3.77879 -3.2421 0
M  V30 6724 C 649.404 -6.30171 -3.46809 0
M  V30 6725 C 651.43 -4.96586 -3.2118 0
M  V30 6726 C 650.792 -6.21149 -3.32196 0
M  V30 6727 H 646.891 -0.370574 -0.688621 0
M  V30 6728 H 649.475 -1.41379 -1.33865 0
M  V30 6729 H 647.646 -0.83885 -3.79233 0
M  V30 6730 H 649.378 -1.05874 -3.90606 0
M  V30 6731 H 646.133 -3.05714 -3.61713 0
M  V30 6732 H 646.557 -5.67726 -3.68804 0
M  V30 6733 H 651.199 -2.82485 -3.14582 0
M  V30 6734 H 648.917 -7.25847 -3.55206 0
M  V30 6735 H 652.503 -4.92591 -3.09589 0
M  V30 6736 H 651.383 -7.11463 -3.29834 0
M  V30 6737 N 648.886 1.2938 -0.899927 0
M  V30 6738 C 650.132 1.96206 -0.536153 0
M  V30 6739 C 650.487 1.69647 0.90761 0
M  V30 6740 O 649.78 0.999089 1.63489 0
M  V30 6741 C 649.974 3.49114 -0.765113 0
M  V30 6742 C 649.803 3.90538 -2.22958 0
M  V30 6743 C 648.573 4.15395 -2.87706 0
M  V30 6744 C 650.771 4.0224 -3.20479 0
M  V30 6745 N 648.753 4.43389 -4.24593 0
M  V30 6746 C 650.124 4.34288 -4.42486 0
M  V30 6747 C 652.179 3.84716 -3.16066 0
M  V30 6748 C 650.882 4.50638 -5.6064 0
M  V30 6749 C 652.908 4.02276 -4.33507 0
M  V30 6750 C 652.27 4.34684 -5.54283 0
M  V30 6751 H 648.369 0.742364 -0.245804 0
M  V30 6752 H 650.953 1.56314 -1.16078 0
M  V30 6753 H 649.124 3.88028 -0.169861 0
M  V30 6754 H 650.856 4.03035 -0.366751 0
M  V30 6755 H 647.611 4.09164 -2.385 0
M  V30 6756 H 648.035 4.61494 -4.95331 0
M  V30 6757 H 652.677 3.58724 -2.23778 0
M  V30 6758 H 650.395 4.75467 -6.5342 0
M  V30 6759 H 653.981 3.90169 -4.31578 0
M  V30 6760 H 652.861 4.47988 -6.43643 0
M  V30 6761 N 650.364 0.662433 1.43002 0
M  V30 6762 C 651.592 0.187615 2.06048 0
M  V30 6763 C 652.007 -1.15039 1.49705 0
M  V30 6764 O 651.364 -1.71209 0.631956 0
M  V30 6765 C 651.415 0.100498 3.6136 0
M  V30 6766 O 651.136 1.38562 4.15611 0
M  V30 6767 C 652.637 -0.399298 4.41498 0
M  V30 6768 H 649.857 0.0941675 0.664359 0
M  V30 6769 H 652.401 0.905681 1.83351 0
M  V30 6770 H 650.556 -0.568181 3.83211 0
M  V30 6771 H 650.97 1.25084 5.09366 0
M  V30 6772 H 652.444 -0.409187 5.50481 0
M  V30 6773 H 652.921 -1.43232 4.15188 0
M  V30 6774 H 653.527 0.23721 4.24638 0
M  V30 6775 N 651.842 -1.52309 0.404946 0
M  V30 6776 C 653.067 -2.06666 -0.1743 0
M  V30 6777 C 653.492 -1.27341 -1.38441 0
M  V30 6778 O 652.85 -0.302539 -1.78758 0
M  V30 6779 C 652.898 -3.57014 -0.507262 0
M  V30 6780 O 652.002 -3.80144 -1.59889 0
M  V30 6781 H 651.343 -0.663807 -0.0160273 0
M  V30 6782 H 653.873 -1.96297 0.576937 0
M  V30 6783 H 653.883 -4.00724 -0.767098 0
M  V30 6784 H 652.558 -4.14184 0.377368 0
M  V30 6785 H 651.135 -3.48316 -1.33155 0
M  V30 6786 N 653.32 -0.135238 -1.57019 0
M  V30 6787 C 654.268 0.826099 -2.17436 0
M  V30 6788 C 655.262 1.26378 -1.12805 0
M  V30 6789 O 656.468 1.23363 -1.31079 0
M  V30 6790 H 652.843 0.284568 -0.696078 0
M  V30 6791 H 654.814 0.292212 -2.96966 0
M  V30 6792 C 653.563 2.05991 -2.80112 0
M  V30 6793 H 652.886 1.73209 -3.60331 0
M  V30 6794 H 654.326 2.71225 -3.25903 0
M  V30 6795 C 652.785 2.86027 -1.78017 0
M  V30 6796 O 653.315 3.81971 -1.24344 0
M  V30 6797 N 651.521 2.50332 -1.47588 0
M  V30 6798 H 651.068 1.72377 -1.91426 0
M  V30 6799 H 651.026 3.04177 -0.795228 0
M  V30 6800 N 654.798 1.5699 0.138552 0
M  V30 6801 C 656.023 1.88344 0.86841 0
M  V30 6802 C 656.448 0.725159 1.7356 0
M  V30 6803 O 655.806 -0.324992 1.78363 0
M  V30 6804 C 655.854 3.18334 1.69398 0
M  V30 6805 O 654.958 3.02863 2.79907 0
M  V30 6806 H 654.299 0.618577 0.241367 0
M  V30 6807 H 656.829 2.04207 0.126826 0
M  V30 6808 H 656.839 3.50567 2.08726 0
M  V30 6809 H 655.514 4.02238 1.05725 0
M  V30 6810 H 654.091 2.82056 2.43924 0
M  V30 6811 N 656.276 -0.40816 1.52223 0
M  V30 6812 C 657.525 -1.15212 1.65557 0
M  V30 6813 C 657.838 -1.9163 0.392096 0
M  V30 6814 O 659.044 -2.68458 0.405256 0
M  V30 6815 C 657.5 -2.09691 2.92502 0
M  V30 6816 C 657.108 -1.38785 4.25961 0
M  V30 6817 C 658.852 -2.8434 3.152 0
M  V30 6818 C 656.759 -2.31919 5.44029 0
M  V30 6819 H 655.689 -0.433776 0.616729 0
M  V30 6820 H 658.34 -0.4165 1.78711 0
M  V30 6821 H 656.722 -2.8681 2.7305 0
M  V30 6822 H 657.896 -0.670248 4.55899 0
M  V30 6823 H 656.211 -0.761741 4.09373 0
M  V30 6824 H 658.808 -3.54166 4.00587 0
M  V30 6825 H 659.151 -3.47344 2.29473 0
M  V30 6826 H 659.684 -2.14321 3.35129 0
M  V30 6827 H 656.423 -1.7356 6.32105 0
M  V30 6828 H 655.943 -3.0165 5.18428 0
M  V30 6829 H 657.622 -2.92424 5.77146 0
M  V30 6830 N 657.755 -1.42862 -0.66545 0
M  V30 6831 C 659.001 -1.44043 -1.42757 0
M  V30 6832 C 659.334 -0.0599629 -1.94107 0
M  V30 6833 O 658.609 0.917286 -1.71511 0
M  V30 6834 C 658.892 -2.47266 -2.61786 0
M  V30 6835 C 658.745 -3.94539 -2.16007 0
M  V30 6836 C 660.064 -2.47365 -3.64003 0
M  V30 6837 H 657.183 -0.524506 -0.517748 0
M  V30 6838 H 659.825 -1.74335 -0.755466 0
M  V30 6839 H 657.975 -2.21565 -3.19126 0
M  V30 6840 H 659.647 -4.31254 -1.63762 0
M  V30 6841 H 657.89 -4.07957 -1.47491 0
M  V30 6842 H 658.561 -4.62357 -3.01546 0
M  V30 6843 H 661.037 -2.70243 -3.16399 0
M  V30 6844 H 659.913 -3.21552 -4.44854 0
M  V30 6845 H 660.174 -1.50299 -4.15767 0
M  V30 6846 N 659.233 0.902656 -1.29189 0
M  V30 6847 C 660.458 1.69167 -1.19989 0
M  V30 6848 C 660.883 1.86607 0.236495 0
M  V30 6849 O 660.241 1.38425 1.17082 0
M  V30 6850 C 660.289 3.05532 -1.91527 0
M  V30 6851 O 659.393 3.93621 -1.2303 0
M  V30 6852 H 658.734 0.517584 -0.415936 0
M  V30 6853 H 661.264 1.12785 -1.70706 0
M  V30 6854 H 661.274 3.55693 -1.99866 0
M  V30 6855 H 659.949 2.92156 -2.96003 0
M  V30 6856 H 658.526 3.52055 -1.22928 0
M  V30 6857 N 660.711 1.11618 1.11262 0
M  V30 6858 C 661.644 0.719995 2.16544 0
M  V30 6859 C 662.622 -0.28471 1.60088 0
M  V30 6860 O 663.806 -0.180693 1.87632 0
M  V30 6861 C 660.933 0.0643302 3.38639 0
M  V30 6862 C 659.979 1.03448 4.13764 0
M  V30 6863 S 660.812 2.55789 4.70459 0
M  V30 6864 C 661.968 1.91529 5.95875 0
M  V30 6865 H 662.201 1.61181 2.49816 0
M  V30 6866 H 659.734 0.934401 1.22916 0
M  V30 6867 H 661.692 -0.307609 4.09346 0
M  V30 6868 H 660.353 -0.804471 3.03623 0
M  V30 6869 H 659.546 0.523188 5.01277 0
M  V30 6870 H 659.148 1.34893 3.48826 0
M  V30 6871 H 661.44 1.25286 6.65815 0
M  V30 6872 H 662.383 2.77047 6.51652 0
M  V30 6873 H 662.791 1.37468 5.47506 0
M  V30 6874 N 662.189 -1.289 0.906776 0
M  V30 6875 C 663.429 -1.97046 0.543329 0
M  V30 6876 C 663.793 -1.69862 -0.895034 0
M  V30 6877 O 664.994 -2.31521 -1.36571 0
M  V30 6878 C 663.265 -3.47489 0.835833 0
M  V30 6879 S 664.824 -4.3498 0.577756 0
M  V30 6880 H 661.642 -0.681908 0.201302 0
M  V30 6881 H 664.244 -1.5657 1.17073 0
M  V30 6882 H 662.948 -3.64768 1.88075 0
M  V30 6883 H 662.479 -3.92907 0.196817 0
M  V30 6884 H 664.494 -4.92868 -0.574052 0
M  V30 6885 N 663.667 -0.670007 -1.42649 0
M  V30 6886 C 664.892 -0.196955 -2.06463 0
M  V30 6887 C 665.317 1.1352 -1.49983 0
M  V30 6888 O 664.675 1.705 -0.616397 0
M  V30 6889 C 664.723 -0.137381 -3.60338 0
M  V30 6890 O 663.827 0.895523 -4.02559 0
M  V30 6891 H 663.168 -0.102579 -0.656029 0
M  V30 6892 H 665.698 -0.917669 -1.82866 0
M  V30 6893 H 665.708 0.0403625 -4.0798 0
M  V30 6894 H 664.383 -1.10977 -4.0082 0
M  V30 6895 H 662.96 0.689209 -3.66476 0
M  V30 6896 N 665.145 1.52092 -0.413018 0
M  V30 6897 C 666.37 2.06756 0.163338 0
M  V30 6898 C 666.795 1.28073 1.37764 0
M  V30 6899 O 666.153 0.312015 1.78595 0
M  V30 6900 C 666.201 3.57278 0.488322 0
M  V30 6901 O 665.305 3.80986 1.57871 0
M  V30 6902 H 664.646 0.663882 0.0125068 0
M  V30 6903 H 667.176 1.95988 -0.587339 0
M  V30 6904 H 667.186 4.01125 0.745836 0
M  V30 6905 H 665.861 4.13978 -0.399327 0
M  V30 6906 H 664.438 3.49017 1.31306 0
M  V30 6907 N 666.623 0.143563 1.56945 0
M  V30 6908 C 667.851 -0.515447 2.00377 0
M  V30 6909 C 668.266 -1.58643 1.02361 0
M  V30 6910 O 667.623 -1.82489 0.0201039 0
M  V30 6911 C 667.674 -1.11923 3.43737 0
M  V30 6912 O 667.395 -0.0910318 4.38005 0
M  V30 6913 C 668.896 -1.85918 4.02429 0
M  V30 6914 H 666.116 -0.134478 0.657386 0
M  V30 6915 H 668.66 0.237135 2.0312 0
M  V30 6916 H 666.815 -1.82245 3.41856 0
M  V30 6917 H 667.229 -0.532916 5.21786 0
M  V30 6918 H 668.703 -2.2346 5.04747 0
M  V30 6919 H 669.18 -2.7438 3.42947 0
M  V30 6920 H 669.786 -1.20303 4.07931 0
M  V30 6921 N 668.101 -1.57061 -0.130224 0
M  V30 6922 C 669.011 -2.02802 -1.17934 0
M  V30 6923 C 670.027 -0.946378 -1.46013 0
M  V30 6924 O 671.203 -1.25708 -1.57351 0
M  V30 6925 C 668.268 -2.41368 -2.48882 0
M  V30 6926 C 667.329 -3.63561 -2.28301 0
M  V30 6927 C 666.562 -4.00279 -3.53005 0
M  V30 6928 O 666.785 -3.37463 -4.59864 0
M  V30 6929 O 665.719 -4.93441 -3.44673 0
M  V30 6930 H 669.545 -2.92394 -0.820958 0
M  V30 6931 H 667.13 -1.45475 -0.340197 0
M  V30 6932 H 669.012 -2.66958 -3.26054 0
M  V30 6933 H 667.687 -1.54926 -2.84217 0
M  V30 6934 H 666.594 -3.43136 -1.49025 0
M  V30 6935 H 667.927 -4.50673 -1.97875 0
M  V30 6936 N 669.579 0.400081 -1.52437 0
M  V30 6937 C 670.826 1.14619 -1.6694 0
M  V30 6938 C 671.154 1.90262 -0.403797 0
M  V30 6939 O 670.409 1.85835 0.61351 0
M  V30 6940 C 670.708 2.15914 -2.84808 0
M  V30 6941 C 670.374 1.57011 -4.2268 0
M  V30 6942 C 669.036 1.40672 -4.60179 0
M  V30 6943 C 671.388 1.14081 -5.08562 0
M  V30 6944 C 668.716 0.799335 -5.81229 0
M  V30 6945 C 671.068 0.547573 -6.30226 0
M  V30 6946 C 669.732 0.371389 -6.66466 0
M  V30 6947 H 669.002 0.419419 -0.610875 0
M  V30 6948 H 671.649 0.432227 -1.86558 0
M  V30 6949 H 669.954 2.93488 -2.59561 0
M  V30 6950 H 671.651 2.73533 -2.93225 0
M  V30 6951 H 668.241 1.70713 -3.93135 0
M  V30 6952 H 672.425 1.2551 -4.80168 0
M  V30 6953 H 667.681 0.65093 -6.07925 0
M  V30 6954 H 671.855 0.206575 -6.96094 0
M  V30 6955 H 669.482 -0.10135 -7.60132 0
M  V30 6956 N 671.057 1.43213 0.657864 0
M  V30 6957 C 671.987 1.50815 1.78262 0
M  V30 6958 C 672.968 0.363211 1.66177 0
M  V30 6959 O 674.153 0.579806 1.85343 0
M  V30 6960 C 671.283 1.42625 3.16663 0
M  V30 6961 C 670.237 2.5532 3.43505 0
M  V30 6962 C 669.563 2.32184 4.81658 0
M  V30 6963 C 670.863 3.97583 3.38711 0
M  V30 6964 H 672.557 2.44954 1.72157 0
M  V30 6965 H 670.103 1.17896 0.82683 0
M  V30 6966 H 672.056 1.46548 3.95097 0
M  V30 6967 H 670.78 0.449877 3.23487 0
M  V30 6968 H 669.439 2.50742 2.6744 0
M  V30 6969 H 669.087 1.32801 4.85153 0
M  V30 6970 H 668.787 3.07724 5.00579 0
M  V30 6971 H 670.311 2.37883 5.62356 0
M  V30 6972 H 671.725 4.03673 4.07089 0
M  V30 6973 H 670.122 4.73112 3.69168 0
M  V30 6974 H 671.192 4.23049 2.36976 0
M  V30 6975 N 672.536 -0.895792 1.29666 0
M  V30 6976 C 673.784 -1.64339 1.17631 0
M  V30 6977 C 674.105 -1.93099 -0.271643 0
M  V30 6978 O 673.375 -1.55981 -1.18518 0
M  V30 6979 H 671.955 -0.609162 0.432354 0
M  V30 6980 H 674.617 -1.07389 1.62646 0
M  V30 6981 H 673.713 -2.59815 1.72924 0
M  V30 6982 N 674.014 -1.12206 -1.10668 0
M  V30 6983 C 674.946 -0.74552 -2.16736 0
M  V30 6984 C 675.959 0.226696 -1.61214 0
M  V30 6985 O 677.148 0.0083936 -1.78498 0
M  V30 6986 C 674.248 -0.0823368 -3.388 0
M  V30 6987 C 673.421 -1.08341 -4.2377 0
M  V30 6988 C 672.48 -0.448292 -5.24287 0
M  V30 6989 O 671.506 -1.10458 -5.58379 0
M  V30 6990 N 672.708 0.785336 -5.75163 0
M  V30 6991 H 675.473 -1.65818 -2.49649 0
M  V30 6992 H 673.034 -1.01335 -1.26265 0
M  V30 6993 H 675.026 0.354476 -4.03145 0
M  V30 6994 H 673.596 0.733041 -3.03884 0
M  V30 6995 H 672.816 -1.69792 -3.55759 0
M  V30 6996 H 674.104 -1.76042 -4.77375 0
M  V30 6997 H 673.502 1.33755 -5.4966 0
M  V30 6998 H 672.059 1.16501 -6.41304 0
M  V30 6999 N 675.492 1.28418 -0.913599 0
M  V30 7000 C 676.738 1.95627 -0.556933 0
M  V30 7001 C 677.093 1.706 0.889565 0
M  V30 7002 O 676.386 1.01637 1.6242 0
M  V30 7003 C 676.58 3.48283 -0.802099 0
M  V30 7004 C 676.409 3.88151 -2.27088 0
M  V30 7005 C 675.179 4.1232 -2.92096 0
M  V30 7006 C 677.377 3.98819 -3.24728 0
M  V30 7007 N 675.359 4.3886 -4.29272 0
M  V30 7008 C 676.73 4.29571 -4.47067 0
M  V30 7009 C 678.785 3.81342 -3.20129 0
M  V30 7010 C 677.488 4.44667 -5.65388 0
M  V30 7011 C 679.514 3.97656 -4.37749 0
M  V30 7012 C 678.876 4.2878 -5.58862 0
M  V30 7013 H 674.975 0.739715 -0.253664 0
M  V30 7014 H 677.559 1.55074 -1.1773 0
M  V30 7015 H 675.73 3.87826 -0.211007 0
M  V30 7016 H 677.462 4.02623 -0.409478 0
M  V30 7017 H 674.217 4.06611 -2.42826 0
M  V30 7018 H 674.641 4.56214 -5.00198 0
M  V30 7019 H 679.283 3.56331 -2.2757 0
M  V30 7020 H 677.001 4.68509 -6.58426 0
M  V30 7021 H 680.587 3.85569 -4.35692 0
M  V30 7022 H 679.467 4.41136 -6.48359 0
M  V30 7023 N 676.97 0.677563 1.42291 0
M  V30 7024 C 678.247 0.129803 1.95169 0
M  V30 7025 C 678.627 -1.35605 1.61786 0
M  V30 7026 O 677.975 -2.09361 0.915444 0
M  V30 7027 C 678.185 0.401889 3.46678 0
M  V30 7028 C 679.533 0.319889 4.23393 0
M  V30 7029 O 680.557 0.33579 3.54614 0
M  V30 7030 O 679.416 0.264459 5.4586 0
M  V30 7031 H 676.51 0.00447433 0.826988 0
M  V30 7032 H 679.056 0.752483 1.52105 0
M  V30 7033 H 677.828 1.43108 3.64192 0
M  V30 7034 H 677.451 -0.252662 3.96796 0
M  V30 7035 N 678.448 -1.51871 0.421078 0
M  V30 7036 C 679.694 -2.02894 -0.143346 0
M  V30 7037 C 680.049 -1.30054 -1.41787 0
M  V30 7038 O 679.342 -0.401776 -1.8734 0
M  V30 7039 C 679.536 -3.54764 -0.433292 0
M  V30 7040 C 679.365 -4.42316 0.811584 0
M  V30 7041 C 678.135 -4.872 1.34033 0
M  V30 7042 C 680.333 -4.85631 1.69313 0
M  V30 7043 N 678.315 -5.58915 2.53944 0
M  V30 7044 C 679.686 -5.56248 2.7384 0
M  V30 7045 C 681.741 -4.67634 1.70947 0
M  V30 7046 C 680.444 -6.10777 3.79927 0
M  V30 7047 C 682.47 -5.23068 2.7596 0
M  V30 7048 C 681.832 -5.93617 3.79207 0
M  V30 7049 H 677.931 -0.78188 -0.0137104 0
M  V30 7050 H 680.515 -1.85919 0.578105 0
M  V30 7051 H 678.686 -3.71787 -1.12378 0
M  V30 7052 H 680.418 -3.92464 -0.987644 0
M  V30 7053 H 677.173 -4.65035 0.896606 0
M  V30 7054 H 677.597 -5.99408 3.14704 0
M  V30 7055 H 682.239 -4.12566 0.9246 0
M  V30 7056 H 679.957 -6.64909 4.59262 0
M  V30 7057 H 683.543 -5.11005 2.78147 0
M  V30 7058 H 682.423 -6.35743 4.5913 0
M  V30 7059 N 679.926 -0.151884 -1.56866 0
M  V30 7060 C 681.337 0.368128 -1.83035 0
M  V30 7061 C 681.688 1.64402 -1.07082 0
M  V30 7062 O 680.813 2.14056 -0.317647 0
M  V30 7063 C 681.408 0.674676 -3.32014 0
M  V30 7064 C 679.967 1.13919 -3.58747 0
M  V30 7065 C 679.114 0.164833 -2.7681 0
M  V30 7066 H 682.065 -0.376499 -1.54169 0
M  V30 7067 H 682.086 1.52883 -3.48435 0
M  V30 7068 H 681.598 -0.254113 -3.87267 0
M  V30 7069 H 679.699 2.08375 -3.08886 0
M  V30 7070 H 679.812 1.06179 -4.67186 0
M  V30 7071 H 678.176 0.658419 -2.46043 0
M  V30 7072 H 678.959 -0.757633 -3.34836 0
M  V30 7073 N 681.404 1.57128 0.121893 0
M  V30 7074 C 682.681 1.75664 0.860327 0
M  V30 7075 C 683.061 0.726585 1.98202 0
M  V30 7076 O 682.409 -0.24999 2.27128 0
M  V30 7077 C 682.619 3.20571 1.37968 0
M  V30 7078 C 683.967 3.82988 1.83317 0
M  V30 7079 O 684.991 3.24156 1.47654 0
M  V30 7080 O 683.85 4.86393 2.49168 0
M  V30 7081 H 680.944 0.719153 0.408348 0
M  V30 7082 H 683.49 1.6937 0.105859 0
M  V30 7083 H 682.262 3.87056 0.57477 0
M  V30 7084 H 681.885 3.31392 2.19694 0
M  V30 7085 N 682.882 -0.391992 1.52647 0
M  V30 7086 C 684.13 -1.13507 1.67214 0
M  V30 7087 C 684.451 -1.90575 0.41304 0
M  V30 7088 O 683.721 -1.87348 -0.572498 0
M  V30 7089 H 682.301 -0.422013 0.616372 0
M  V30 7090 H 684.963 -0.44502 1.89751 0
M  V30 7091 H 684.059 -1.83964 2.52118 0
M  V30 7092 N 684.36 -1.4356 -0.65026 0
M  V30 7093 C 685.323 -1.48615 -1.74489 0
M  V30 7094 C 686.323 -0.370483 -1.56474 0
M  V30 7095 O 687.513 -0.632351 -1.62317 0
M  V30 7096 C 684.645 -1.34161 -3.13391 0
M  V30 7097 H 685.838 -2.46103 -1.71387 0
M  V30 7098 H 683.391 -1.30369 -0.862186 0
M  V30 7099 H 684.126 -0.376918 -3.22102 0
M  V30 7100 H 683.911 -2.1504 -3.27872 0
M  V30 7101 H 685.401 -1.40637 -3.93206 0
M  V30 7102 N 685.838 0.888903 -1.30139 0
M  V30 7103 C 686.785 1.99422 -1.16188 0
M  V30 7104 C 687.755 1.66017 -0.0523869 0
M  V30 7105 O 688.94 1.89506 -0.221864 0
M  V30 7106 C 686.08 3.34325 -0.855612 0
M  V30 7107 C 685.193 3.80445 -2.0466 0
M  V30 7108 C 684.328 5.03975 -1.67876 0
M  V30 7109 C 683.367 5.42492 -2.83493 0
M  V30 7110 N 682.504 6.57206 -2.47032 0
M  V30 7111 H 687.344 2.10687 -2.10749 0
M  V30 7112 H 684.881 1.03165 -1.04859 0
M  V30 7113 H 686.839 4.11968 -0.658681 0
M  V30 7114 H 685.469 3.22756 0.0531155 0
M  V30 7115 H 684.521 2.98745 -2.3549 0
M  V30 7116 H 685.833 4.04933 -2.91257 0
M  V30 7117 H 684.987 5.89232 -1.44535 0
M  V30 7118 H 683.726 4.8135 -0.784431 0
M  V30 7119 H 682.731 4.55764 -3.07505 0
M  V30 7120 H 683.956 5.67093 -3.73607 0
M  V30 7121 H 681.902 6.36164 -1.601 0
M  V30 7122 H 681.819 6.81543 -3.27161 0
M  V30 7123 H 683.087 7.45704 -2.27038 0
M  V30 7124 N 687.317 1.12792 1.10072 0
M  V30 7125 C 688.566 0.880232 1.81479 0
M  V30 7126 C 688.879 -0.595575 1.86312 0
M  V30 7127 O 690.085 -0.959979 2.53962 0
M  V30 7128 C 688.541 1.52514 3.25987 0
M  V30 7129 C 688.149 3.036 3.29441 0
M  V30 7130 C 689.893 1.35788 4.02196 0
M  V30 7131 C 687.8 3.61007 4.68431 0
M  V30 7132 H 686.73 0.325654 0.680048 0
M  V30 7133 H 689.381 1.35485 1.23758 0
M  V30 7134 H 687.763 0.978188 3.83728 0
M  V30 7135 H 688.937 3.64819 2.81502 0
M  V30 7136 H 687.252 3.19765 2.66719 0
M  V30 7137 H 689.849 1.76096 5.0487 0
M  V30 7138 H 690.192 0.301972 4.15203 0
M  V30 7139 H 690.725 1.87426 3.50879 0
M  V30 7140 H 687.464 4.66375 4.60625 0
M  V30 7141 H 686.984 3.04564 5.16721 0
M  V30 7142 H 688.663 3.60289 5.37402 0
M  V30 7143 N 688.795 -1.27931 0.920396 0
M  V30 7144 C 689.705 -2.30824 0.419212 0
M  V30 7145 C 690.721 -1.66767 -0.496461 0
M  V30 7146 O 691.897 -1.97763 -0.38104 0
M  V30 7147 C 688.962 -3.45158 -0.326601 0
M  V30 7148 C 688.023 -4.24754 0.623098 0
M  V30 7149 C 687.256 -5.33629 -0.0872172 0
M  V30 7150 O 687.479 -5.55204 -1.30784 0
M  V30 7151 O 686.413 -5.99091 0.580875 0
M  V30 7152 H 690.239 -2.75716 1.27337 0
M  V30 7153 H 687.824 -1.32747 0.685465 0
M  V30 7154 H 689.706 -4.14716 -0.747559 0
M  V30 7155 H 688.381 -3.02336 -1.15648 0
M  V30 7156 H 687.288 -3.57759 1.09359 0
M  V30 7157 H 688.621 -4.71272 1.41998 0
M  V30 7158 N 690.273 -0.685099 -1.4193 0
M  V30 7159 C 691.503 -0.220052 -2.05425 0
M  V30 7160 C 691.911 1.13185 -1.51611 0
M  V30 7161 O 691.254 1.71631 -0.654875 0
M  V30 7162 C 691.316 -0.0888364 -3.5939 0
M  V30 7163 C 690.98 -1.37109 -4.35947 0
M  V30 7164 C 691.977 -2.30675 -4.65924 0
M  V30 7165 C 689.662 -1.62155 -4.75406 0
M  V30 7166 C 691.656 -3.47556 -5.34306 0
M  V30 7167 C 689.343 -2.79324 -5.43527 0
M  V30 7168 C 690.341 -3.71848 -5.72903 0
M  V30 7169 O 690.029 -4.86966 -6.39624 0
M  V30 7170 H 689.761 -0.102165 -0.668235 0
M  V30 7171 H 692.315 -0.935194 -1.82875 0
M  V30 7172 H 690.545 0.681981 -3.80639 0
M  V30 7173 H 692.234 0.337669 -4.04493 0
M  V30 7174 H 693 -2.12579 -4.3593 0
M  V30 7175 H 688.879 -0.910053 -4.51928 0
M  V30 7176 H 692.423 -4.19794 -5.57153 0
M  V30 7177 H 688.32 -2.97342 -5.72938 0
M  V30 7178 H 689.088 -4.86644 -6.58118 0
M  V30 7179 N 691.751 1.51645 -0.429126 0
M  V30 7180 C 692.998 2.02015 0.140079 0
M  V30 7181 C 693.326 1.31374 1.43427 0
M  V30 7182 O 692.581 0.414779 1.91254 0
M  V30 7183 C 692.88 3.54989 0.414472 0
M  V30 7184 C 692.546 4.43874 -0.792911 0
M  V30 7185 C 691.208 4.67887 -1.12404 0
M  V30 7186 C 693.56 4.96074 -1.59875 0
M  V30 7187 C 690.888 5.41348 -2.26184 0
M  V30 7188 C 693.24 5.70782 -2.72747 0
M  V30 7189 C 691.904 5.93062 -3.06324 0
M  V30 7190 H 691.174 0.739225 0.0512585 0
M  V30 7191 H 693.821 1.82675 -0.574641 0
M  V30 7192 H 692.126 3.72615 1.21099 0
M  V30 7193 H 693.823 3.91489 0.868173 0
M  V30 7194 H 690.413 4.25374 -0.524871 0
M  V30 7195 H 694.597 4.77412 -1.35614 0
M  V30 7196 H 689.853 5.56815 -2.52522 0
M  V30 7197 H 694.027 6.10221 -3.35564 0
M  V30 7198 H 691.654 6.49764 -3.94602 0
M  V30 7199 N 693.229 0.160201 1.56784 0
M  V30 7200 C 694.159 -0.770264 2.2043 0
M  V30 7201 C 695.14 -1.24736 1.15651 0
M  V30 7202 O 696.325 -1.30253 1.44041 0
M  V30 7203 C 693.455 -2.00427 2.83631 0
M  V30 7204 C 692.409 -1.66345 3.94352 0
M  V30 7205 C 691.735 -2.97119 4.4455 0
M  V30 7206 C 693.035 -0.899972 5.14488 0
M  V30 7207 H 694.729 -0.239783 2.98438 0
M  V30 7208 H 692.275 -0.113891 1.43549 0
M  V30 7209 H 694.228 -2.66012 3.26827 0
M  V30 7210 H 692.952 -2.5587 2.02973 0
M  V30 7211 H 691.611 -1.03133 3.51794 0
M  V30 7212 H 691.259 -3.5058 3.60698 0
M  V30 7213 H 690.959 -2.75073 5.19238 0
M  V30 7214 H 692.483 -3.63753 4.90425 0
M  V30 7215 H 693.897 -1.45818 5.54446 0
M  V30 7216 H 692.294 -0.778968 5.95023 0
M  V30 7217 H 693.364 0.105827 4.84785 0
M  V30 7218 O 694.746 -1.61485 0.0219998 0
M  V30 7219 H 695.437 -1.84445 -0.591595 0
M  V30 END ATOM
M  V30 BEGIN BOND
M  V30 END BOND
M  V30 END CTAB
M  END
$$$$
