drugbank_target|Q16322 Potassium voltage-gated channel subfamily A member 10 (DB00228; DB01069; DB01110)
 OpenBabel12092120583D

  0  0  0     0  0            999 V3000
M  V30 BEGIN CTAB
M  V30 COUNTS 8087 8181 0 0 0
M  V30 BEGIN ATOM
M  V30 1 H -0.908 1.98254 -0.117106 0
M  V30 2 N 0 1.576 0 0
M  V30 3 C 0.933 2.03868 1.02534 0
M  V30 4 C 1.911 0.928543 1.3348 0
M  V30 5 O 3.095 1.19667 1.45644 0
M  V30 6 C 0.222 2.43627 2.35294 0
M  V30 7 C -0.732 3.65373 2.2001 0
M  V30 8 S 0.101 5.13292 1.52614 0
M  V30 9 C 1.257 5.56322 2.86805 0
M  V30 10 H 1.49 2.90518 0.631377 0
M  V30 11 H -0.977 1.52953 0.210867 0
M  V30 12 H 0.981 2.67203 3.11629 0
M  V30 13 H -0.358 1.57376 2.7183 0
M  V30 14 H -1.165 3.90944 3.18086 0
M  V30 15 H -1.563 3.418 1.51819 0
M  V30 16 H 0.729 5.58782 3.83104 0
M  V30 17 H 1.672 6.56266 2.65933 0
M  V30 18 H 2.08 4.83886 2.90714 0
M  V30 19 N 1.4781 -0.272755 1.55222 0
M  V30 20 C 2.7551 -1.02562 1.66555 0
M  V30 21 C 3.1351 -2.04282 0.532189 0
M  V30 22 O 2.4831 -2.23662 -0.467717 0
M  V30 23 C 2.6931 -1.6822 3.05782 0
M  V30 24 C 4.0411 -2.19373 3.63539 0
M  V30 25 O 5.0651 -1.78206 3.08417 0
M  V30 26 O 3.9241 -2.94883 4.60115 0
M  V30 27 H 1.0181 -0.475755 0.676451 0
M  V30 28 H 3.5641 -0.268593 1.67561 0
M  V30 29 H 2.3361 -0.945112 3.79715 0
M  V30 30 H 1.9591 -2.50609 3.08676 0
M  V30 31 N 2.9562 -1.48159 -0.537278 0
M  V30 32 C 4.2022 -1.56035 -1.29541 0
M  V30 33 C 4.5352 -0.230377 -1.92829 0
M  V30 34 O 3.8102 0.762952 -1.78911 0
M  V30 35 C 4.0932 -2.69323 -2.39034 0
M  V30 36 C 3.9462 -4.12002 -1.80485 0
M  V30 37 C 5.2652 -2.78408 -3.40847 0
M  V30 38 H 2.3842 -0.567992 -0.469632 0
M  V30 39 H 5.0262 -1.80302 -0.599277 0
M  V30 40 H 3.1762 -2.48763 -2.98412 0
M  V30 41 H 4.8482 -4.43981 -1.25215 0
M  V30 42 H 3.0912 -4.19344 -1.11055 0
M  V30 43 H 3.7622 -4.87077 -2.59731 0
M  V30 44 H 6.2382 -2.97012 -2.91416 0
M  V30 45 H 5.1142 -3.59416 -4.14863 0
M  V30 46 H 5.3752 -1.86269 -4.00944 0
M  V30 47 N 4.4343 0.785586 -1.36625 0
M  V30 48 C 5.6743 1.55678 -1.32453 0
M  V30 49 C 6.0383 1.91769 0.0941089 0
M  V30 50 O 7.2393 2.67536 0.26042 0
M  V30 51 C 5.5103 2.79701 -2.22491 0
M  V30 52 S 7.0693 3.69907 -2.36038 0
M  V30 53 H 3.8873 0.533141 -0.470405 0
M  V30 54 H 6.4893 0.924953 -1.72235 0
M  V30 55 H 5.1933 2.51244 -3.24507 0
M  V30 56 H 4.7243 3.47854 -1.83742 0
M  V30 57 H 6.7393 4.71016 -1.56072 0
M  V30 58 N 5.9124 1.20967 1.01018 0
M  V30 59 C 7.1604 1.02172 1.74371 0
M  V30 60 C 7.4814 -0.446414 1.89821 0
M  V30 61 O 6.7514 -1.32234 1.44537 0
M  V30 62 H 5.3314 0.375066 0.646014 0
M  V30 63 H 7.9934 1.52187 1.21758 0
M  V30 64 H 7.0894 1.48538 2.74487 0
M  V30 65 N 7.3905 -1.2043 1.01659 0
M  V30 66 C 8.6365 -1.90356 0.716674 0
M  V30 67 C 8.9915 -1.77367 -0.745557 0
M  V30 68 O 8.2845 -1.1471 -1.53467 0
M  V30 69 C 8.4785 -3.40464 1.08714 0
M  V30 70 C 8.3075 -3.6806 2.58384 0
M  V30 71 C 7.0775 -3.86775 3.25167 0
M  V30 72 C 9.2755 -3.70623 3.56572 0
M  V30 73 N 7.2575 -4.01889 4.64067 0
M  V30 74 C 8.6285 -3.91161 4.81034 0
M  V30 75 C 10.6835 -3.53586 3.50544 0
M  V30 76 C 9.3865 -3.96428 6.00198 0
M  V30 77 C 11.4125 -3.60125 4.6911 0
M  V30 78 C 10.7745 -3.81135 5.92381 0
M  V30 79 H 6.8735 -0.716226 0.313918 0
M  V30 80 H 9.4575 -1.44815 1.30141 0
M  V30 81 H 7.6285 -3.84757 0.530745 0
M  V30 82 H 9.3605 -3.97863 0.740763 0
M  V30 83 H 6.1155 -3.85156 2.75594 0
M  V30 84 H 6.5395 -4.13323 5.36184 0
M  V30 85 H 11.1815 -3.36308 2.56235 0
M  V30 86 H 8.8995 -4.12502 6.94887 0
M  V30 87 H 12.4855 -3.4825 4.66062 0
M  V30 88 H 11.3655 -3.86054 6.82592 0
M  V30 89 N 8.8686 -0.792821 -1.36206 0
M  V30 90 C 9.8156 -0.191653 -2.30003 0
M  V30 91 C 10.7856 0.666453 -1.52143 0
M  V30 92 O 11.9706 0.61442 -1.80636 0
M  V30 93 C 9.1106 0.664848 -3.38635 0
M  V30 94 C 8.2236 -0.212175 -4.31479 0
M  V30 95 C 7.3586 0.651022 -5.27196 0
M  V30 96 C 6.3976 -0.227247 -6.11678 0
M  V30 97 N 5.5346 0.595127 -6.99573 0
M  V30 98 H 10.3746 -0.996978 -2.80828 0
M  V30 99 H 7.9116 -0.503206 -1.38225 0
M  V30 100 H 9.8696 1.17645 -4.00269 0
M  V30 101 H 8.4996 1.43557 -2.89122 0
M  V30 102 H 7.5516 -0.841777 -3.70969 0
M  V30 103 H 8.8636 -0.888751 -4.90818 0
M  V30 104 H 8.0176 1.2283 -5.94136 0
M  V30 105 H 6.7566 1.36121 -4.68319 0
M  V30 106 H 5.7616 -0.816904 -5.43697 0
M  V30 107 H 6.9866 -0.93509 -6.72631 0
M  V30 108 H 4.9326 1.28955 -6.432 0
M  V30 109 H 4.8496 -0.0236952 -7.55996 0
M  V30 110 H 6.1176 1.15613 -7.70879 0
M  V30 111 N 10.3467 1.47872 -0.545128 0
M  V30 112 C 11.2567 2.33633 0.212746 0
M  V30 113 C 12.2727 1.4744 0.923983 0
M  V30 114 O 13.4487 1.80393 0.895572 0
M  V30 115 C 10.5137 3.23884 1.23693 0
M  V30 116 C 9.5747 4.25961 0.534417 0
M  V30 117 C 8.8077 5.11899 1.5098 0
M  V30 118 O 9.0307 5.00077 2.7437 0
M  V30 119 O 7.9647 5.92831 1.0409 0
M  V30 120 H 11.7907 2.99714 -0.490416 0
M  V30 121 H 9.3757 1.46235 -0.305871 0
M  V30 122 H 11.2577 3.79666 1.82843 0
M  V30 123 H 9.9327 2.60446 1.92222 0
M  V30 124 H 8.8397 3.73972 -0.0979679 0
M  V30 125 H 10.1727 4.92079 -0.109213 0
M  V30 126 N 11.8248 0.280983 1.55075 0
M  V30 127 C 12.7578 -0.645439 2.18882 0
M  V30 128 C 13.7358 -1.14786 1.15165 0
M  V30 129 O 14.9198 -1.21975 1.43716 0
M  V30 130 C 12.0468 -1.88088 2.81674 0
M  V30 131 C 11.0928 -1.51343 3.98745 0
M  V30 132 S 11.9258 -0.586548 5.32278 0
M  V30 133 C 13.0818 -1.83024 5.98543 0
M  V30 134 H 13.3148 -0.1033 2.9712 0
M  V30 135 H 10.8478 0.0652099 1.54262 0
M  V30 136 H 12.8058 -2.58997 3.18482 0
M  V30 137 H 11.4668 -2.39417 2.03318 0
M  V30 138 H 10.6598 -2.43289 4.41392 0
M  V30 139 H 10.2618 -0.884477 3.63391 0
M  V30 140 H 12.5538 -2.77342 6.18133 0
M  V30 141 H 13.4968 -1.44668 6.93164 0
M  V30 142 H 13.9048 -1.99785 5.27964 0
M  V30 143 N 13.3029 -1.57598 0.00835791 0
M  V30 144 C 14.2129 -2.12385 -0.996487 0
M  V30 145 C 15.2289 -1.07108 -1.37127 0
M  V30 146 O 16.4049 -1.39055 -1.4569 0
M  V30 147 C 13.4699 -2.62314 -2.26699 0
M  V30 148 C 12.5309 -3.82225 -1.95456 0
M  V30 149 C 11.7639 -4.29763 -3.16449 0
M  V30 150 O 11.9869 -3.76584 -4.28416 0
M  V30 151 O 10.9209 -5.21832 -2.99958 0
M  V30 152 H 14.7469 -2.98479 -0.560725 0
M  V30 153 H 12.3319 -1.47903 -0.210987 0
M  V30 154 H 14.2139 -2.94589 -3.01322 0
M  V30 155 H 12.8889 -1.79313 -2.69497 0
M  V30 156 H 11.7959 -3.54909 -1.18282 0
M  V30 157 H 13.1289 -4.66324 -1.57489 0
M  V30 158 N 14.781 0.264519 -1.55364 0
M  V30 159 C 16.027 0.99646 -1.76631 0
M  V30 160 C 16.36 1.85632 -0.570478 0
M  V30 161 O 15.635 1.89647 0.43175 0
M  V30 162 C 15.918 1.87187 -3.07625 0
M  V30 163 C 15.771 1.04138 -4.37579 0
M  V30 164 C 17.09 2.85749 -3.34717 0
M  V30 165 H 14.209 0.360841 -0.642622 0
M  V30 166 H 16.851 0.268218 -1.88097 0
M  V30 167 H 15.001 2.49279 -2.9798 0
M  V30 168 H 16.673 0.440517 -4.59192 0
M  V30 169 H 14.916 0.345115 -4.32425 0
M  V30 170 H 15.587 1.68729 -5.2558 0
M  V30 171 H 18.063 2.33793 -3.4421 0
M  V30 172 H 16.939 3.44136 -4.27623 0
M  V30 173 H 17.2 3.61311 -2.54768 0
M  V30 174 N 16.2591 1.48442 0.529413 0
M  V30 175 C 17.2221 1.62524 1.61612 0
M  V30 176 C 18.2221 0.498509 1.52877 0
M  V30 177 O 19.4121 0.76431 1.56537 0
M  V30 178 C 16.5441 1.59597 3.01233 0
M  V30 179 H 17.7371 2.59423 1.50465 0
M  V30 180 H 15.2901 1.37047 0.751514 0
M  V30 181 H 16.0251 0.641781 3.17886 0
M  V30 182 H 15.8101 2.41397 3.08982 0
M  V30 183 H 17.3001 1.72646 3.80241 0
M  V30 184 N 17.7372 -0.778329 1.37039 0
M  V30 185 C 18.6672 -1.90546 1.34962 0
M  V30 186 C 19.6482 -1.68681 0.219274 0
M  V30 187 O 20.8332 -1.89634 0.418624 0
M  V30 188 C 17.9632 -3.27734 1.14925 0
M  V30 189 C 16.9172 -3.64147 2.24902 0
M  V30 190 C 16.2432 -4.99806 1.89996 0
M  V30 191 C 17.5432 -3.71579 3.67051 0
M  V30 192 H 19.2372 -1.92541 2.29277 0
M  V30 193 H 16.7832 -0.924948 1.10366 0
M  V30 194 H 18.7362 -4.06215 1.12104 0
M  V30 195 H 17.4602 -3.26154 0.170631 0
M  V30 196 H 16.1192 -2.8797 2.26868 0
M  V30 197 H 15.7672 -4.94759 0.906796 0
M  V30 198 H 15.4672 -5.25139 2.63634 0
M  V30 199 H 16.9912 -5.80694 1.88749 0
M  V30 200 H 18.4052 -4.40227 3.67251 0
M  V30 201 H 16.8022 -4.08405 4.39688 0
M  V30 202 H 17.8722 -2.72404 4.01154 0
M  V30 203 N 19.2153 -1.21501 -1.00376 0
M  V30 204 C 20.4613 -1.03452 -1.74429 0
M  V30 205 C 20.7943 0.430764 -1.89362 0
M  V30 206 O 20.0693 1.31962 -1.42886 0
M  V30 207 C 20.3523 -1.73375 -3.15615 0
M  V30 208 C 20.2053 -3.27431 -3.08397 0
M  V30 209 C 21.5243 -1.47732 -4.14564 0
M  V30 210 H 18.6433 -0.377226 -0.633143 0
M  V30 211 H 21.2853 -1.49693 -1.17013 0
M  V30 212 H 19.4353 -1.34064 -3.64636 0
M  V30 213 H 21.1073 -3.76119 -2.67081 0
M  V30 214 H 19.3503 -3.5767 -2.45468 0
M  V30 215 H 20.0213 -3.71524 -4.08258 0
M  V30 216 H 22.4973 -1.8186 -3.74254 0
M  V30 217 H 21.3733 -1.99169 -5.11491 0
M  V30 218 H 21.6343 -0.407589 -4.40217 0
M  V30 219 N 20.6934 1.19889 -1.02296 0
M  V30 220 C 21.6414 2.24938 -0.592081 0
M  V30 221 C 22.6354 1.65257 0.372357 0
M  V30 222 O 23.8414 1.78371 0.241583 0
M  V30 223 H 20.2164 0.731787 -0.173182 0
M  V30 224 H 22.1874 2.58603 -1.48885 0
M  V30 225 C 20.9364 3.47668 0.047351 0
M  V30 226 H 20.2594 3.93875 -0.685772 0
M  V30 227 H 21.6994 4.22852 0.311862 0
M  V30 228 C 20.1584 3.11136 1.29212 0
M  V30 229 O 20.6884 3.2325 2.38479 0
M  V30 230 N 18.8944 2.65625 1.17863 0
M  V30 231 H 18.4414 2.55968 0.289493 0
M  V30 232 H 18.3994 2.41553 2.01245 0
M  V30 233 N 22.1715 0.800033 1.35784 0
M  V30 234 C 23.4185 0.377342 1.98953 0
M  V30 235 C 23.7465 -1.05378 1.6348 0
M  V30 236 O 23.0015 -1.74459 0.886707 0
M  V30 237 C 23.3005 0.500276 3.53881 0
M  V30 238 C 22.9665 1.89375 4.09204 0
M  V30 239 C 21.6285 2.27499 4.24025 0
M  V30 240 C 23.9805 2.8057 4.39238 0
M  V30 241 C 21.3085 3.562 4.66195 0
M  V30 242 C 23.6605 4.0871 4.82844 0
M  V30 243 C 22.3245 4.46843 4.95871 0
M  V30 244 H 21.5945 0.138079 0.728021 0
M  V30 245 H 24.2415 1.01955 1.62103 0
M  V30 246 H 22.5465 -0.225405 3.91151 0
M  V30 247 H 24.2435 0.154097 4.00704 0
M  V30 248 H 20.8335 1.58753 3.98115 0
M  V30 249 H 25.0175 2.52367 4.27346 0
M  V30 250 H 20.2735 3.85602 4.74469 0
M  V30 251 H 24.4475 4.79481 5.05046 0
M  V30 252 H 22.0745 5.46623 5.28306 0
M  V30 253 N 23.6496 -1.47581 0.552962 0
M  V30 254 C 24.9266 -1.95563 -0.0381515 0
M  V30 255 C 25.3066 -1.49552 -1.48988 0
M  V30 256 O 24.6546 -0.732414 -2.16444 0
M  V30 257 C 24.8646 -3.48848 0.102919 0
M  V30 258 C 26.2126 -4.24577 -0.0446082 0
M  V30 259 O 27.2366 -3.56187 0.0302548 0
M  V30 260 O 26.0956 -5.46116 -0.204923 0
M  V30 261 H 23.1896 -0.824321 -0.0665067 0
M  V30 262 H 25.7356 -1.58001 0.619186 0
M  V30 263 H 24.5076 -3.75129 1.11328 0
M  V30 264 H 24.1306 -3.93165 -0.592224 0
M  V30 265 N 25.1277 -0.289203 -1.54924 0
M  V30 266 C 26.0757 0.607966 -2.24514 0
M  V30 267 C 27.0697 1.14655 -1.24702 0
M  V30 268 O 28.2757 1.09856 -1.4259 0
M  V30 269 H 24.6507 0.21464 -0.720718 0
M  V30 270 H 26.6217 -0.00164182 -2.984 0
M  V30 271 C 25.3707 1.77406 -2.99036 0
M  V30 272 H 24.6937 1.36884 -3.75637 0
M  V30 273 H 26.1337 2.37814 -3.51028 0
M  V30 274 C 24.5927 2.67107 -2.05318 0
M  V30 275 O 25.1227 3.6787 -1.61353 0
M  V30 276 N 23.3287 2.34582 -1.71521 0
M  V30 277 H 22.8757 1.52688 -2.07471 0
M  V30 278 H 22.8337 2.94867 -1.0909 0
M  V30 279 N 26.6058 1.57591 -0.0167156 0
M  V30 280 C 27.8308 1.9598 0.67872 0
M  V30 281 C 28.2558 0.892546 1.65575 0
M  V30 282 O 27.6138 -0.147772 1.80697 0
M  V30 283 C 27.6618 3.33468 1.37227 0
M  V30 284 O 26.7658 3.28954 2.48722 0
M  V30 285 H 26.1068 0.639339 0.17928 0
M  V30 286 H 28.6368 2.04463 -0.0748802 0
M  V30 287 H 28.6468 3.69417 1.7319 0
M  V30 288 H 27.3218 4.10694 0.656007 0
M  V30 289 H 25.8988 3.04705 2.14963 0
M  V30 290 N 28.0839 -0.256276 1.55502 0
M  V30 291 C 29.3609 -1.00789 1.67633 0
M  V30 292 C 29.7409 -2.03706 0.553826 0
M  V30 293 O 29.0889 -2.24145 -0.443969 0
M  V30 294 C 29.2989 -1.64968 3.07549 0
M  V30 295 C 30.6469 -2.15505 3.65845 0
M  V30 296 O 31.6709 -1.74925 3.1029 0
M  V30 297 O 30.5299 -2.89986 4.63217 0
M  V30 298 H 27.6239 -0.468553 0.681459 0
M  V30 299 H 30.1699 -0.250806 1.67836 0
M  V30 300 H 28.9419 -0.904785 3.80696 0
M  V30 301 H 28.5649 -2.47321 3.11317 0
M  V30 302 N 29.562 -1.4872 -0.521534 0
M  V30 303 C 30.472 -1.66569 -1.65203 0
M  V30 304 C 31.488 -0.548197 -1.65139 0
M  V30 305 O 32.664 -0.820339 -1.83936 0
M  V30 306 C 29.729 -1.70917 -3.01642 0
M  V30 307 C 28.79 -2.94356 -3.12495 0
M  V30 308 C 28.023 -2.98487 -4.42426 0
M  V30 309 O 28.246 -2.10786 -5.30024 0
M  V30 310 O 27.18 -3.90746 -4.57822 0
M  V30 311 H 31.006 -2.62298 -1.5308 0
M  V30 312 H 28.591 -1.3222 -0.695565 0
M  V30 313 H 30.473 -1.7625 -3.82771 0
M  V30 314 H 29.148 -0.783633 -3.14071 0
M  V30 315 H 28.055 -2.94552 -2.3063 0
M  V30 316 H 29.388 -3.86322 -3.04986 0
M  V30 317 N 31.0401 0.771051 -1.3745 0
M  V30 318 C 32.2891 1.52491 -1.3202 0
M  V30 319 C 32.6021 1.9538 0.0927347 0
M  V30 320 O 33.8081 2.70159 0.269503 0
M  V30 321 C 32.2641 2.75366 -2.31736 0
M  V30 322 C 31.8721 2.39573 -3.78562 0
M  V30 323 C 33.6161 3.53307 -2.35318 0
M  V30 324 C 31.5231 3.58954 -4.70007 0
M  V30 325 H 30.4531 0.572506 -0.490666 0
M  V30 326 H 33.1041 0.844474 -1.62914 0
M  V30 327 H 31.4861 3.45303 -1.93861 0
M  V30 328 H 32.6601 1.77415 -4.25277 0
M  V30 329 H 30.9751 1.74805 -3.77932 0
M  V30 330 H 33.5721 4.42039 -3.00842 0
M  V30 331 H 33.9151 3.93217 -1.36698 0
M  V30 332 H 34.4481 2.90367 -2.71904 0
M  V30 333 H 31.1871 3.24125 -5.69757 0
M  V30 334 H 30.7071 4.20214 -4.27996 0
M  V30 335 H 32.3861 4.25758 -4.87175 0
M  V30 336 N 32.5182 1.22032 0.997298 0
M  V30 337 C 33.4502 0.944263 2.08845 0
M  V30 338 C 34.4632 -0.0754663 1.62625 0
M  V30 339 O 35.6522 0.157994 1.77799 0
M  V30 340 C 32.7522 0.397723 3.36558 0
M  V30 341 C 31.9252 1.47362 4.11829 0
M  V30 342 C 30.9842 0.934951 5.17827 0
M  V30 343 O 30.0102 1.62016 5.45655 0
M  V30 344 N 31.2122 -0.245895 5.79979 0
M  V30 345 H 33.9772 1.88363 2.33109 0
M  V30 346 H 31.5382 1.12661 1.16272 0
M  V30 347 H 33.5302 0.0227771 4.04694 0
M  V30 348 H 32.1002 -0.446646 3.09393 0
M  V30 349 H 31.3202 2.02208 3.38386 0
M  V30 350 H 32.6082 2.19764 4.58891 0
M  V30 351 H 32.0062 -0.819475 5.59733 0
M  V30 352 H 30.5632 -0.562272 6.4937 0
M  V30 353 N 33.9963 -1.19345 1.0293 0
M  V30 354 C 34.9063 -2.26245 0.620515 0
M  V30 355 C 35.9223 -1.70486 -0.347928 0
M  V30 356 O 37.0983 -2.00347 -0.205704 0
M  V30 357 C 34.1633 -3.46693 -0.0218957 0
M  V30 358 C 33.2243 -4.17632 0.994102 0
M  V30 359 C 32.4573 -5.32329 0.382253 0
M  V30 360 O 32.6803 -5.64552 -0.814676 0
M  V30 361 O 31.6143 -5.91664 1.10531 0
M  V30 362 H 35.4403 -2.63453 1.51083 0
M  V30 363 H 33.0253 -1.26207 0.799513 0
M  V30 364 H 34.9073 -4.19683 -0.380072 0
M  V30 365 H 33.5823 -3.11333 -0.886209 0
M  V30 366 H 32.4893 -3.4676 1.40387 0
M  V30 367 H 33.8223 -4.56964 1.8288 0
M  V30 368 N 35.4744 -0.807222 -1.35358 0
M  V30 369 C 36.3844 -0.219594 -2.3357 0
M  V30 370 C 37.4004 0.637734 -1.61892 0
M  V30 371 O 38.5764 0.549336 -1.93763 0
M  V30 372 C 35.6414 0.62158 -3.41083 0
M  V30 373 C 34.7024 -0.256315 -4.28534 0
M  V30 374 C 33.9354 0.544807 -5.30912 0
M  V30 375 O 34.1584 1.77944 -5.41934 0
M  V30 376 O 33.0924 -0.0646478 -6.01865 0
M  V30 377 H 36.9184 -1.03208 -2.85625 0
M  V30 378 H 34.5034 -0.569025 -1.38139 0
M  V30 379 H 36.3854 1.10067 -4.06772 0
M  V30 380 H 35.0604 1.41165 -2.91297 0
M  V30 381 H 33.9674 -0.782559 -3.65823 0
M  V30 382 H 35.3004 -1.01034 -4.81719 0
M  V30 383 N 36.9525 1.47285 -0.560781 0
M  V30 384 C 38.3635 1.86258 -0.128343 0
M  V30 385 C 38.7145 1.46699 1.30284 0
M  V30 386 O 37.8395 0.871698 1.98067 0
M  V30 387 C 38.4345 3.38044 -0.22614 0
M  V30 388 C 36.9935 3.76096 0.151283 0
M  V30 389 C 36.1405 2.71335 -0.572084 0
M  V30 390 H 39.0915 1.38752 -0.770297 0
M  V30 391 H 39.1125 3.76441 0.554322 0
M  V30 392 H 38.6245 3.66806 -1.26788 0
M  V30 393 H 36.7255 3.52951 1.19399 0
M  V30 394 H 36.8385 4.78641 -0.209765 0
M  V30 395 H 35.2025 2.54696 -0.0147653 0
M  V30 396 H 35.9855 3.02938 -1.61504 0
M  V30 397 N 38.4306 0.297415 1.54768 0
M  V30 398 C 39.6786 -0.312295 1.99673 0
M  V30 399 C 39.9996 -1.54686 1.18732 0
M  V30 400 O 39.2696 -1.93854 0.282382 0
M  V30 401 H 37.8496 -0.118381 0.73756 0
M  V30 402 H 40.5116 0.407915 1.90583 0
M  V30 403 H 39.6076 -0.586813 3.06534 0
M  V30 404 N 39.9087 -1.5758 0.0250728 0
M  V30 405 C 41.1387 -1.95646 -0.663783 0
M  V30 406 C 41.5467 -0.899935 -1.66427 0
M  V30 407 O 40.8897 0.127191 -1.83259 0
M  V30 408 C 40.9517 -3.29835 -1.43 0
M  V30 409 C 40.6157 -4.53197 -0.588305 0
M  V30 410 C 41.6127 -5.19726 0.13469 0
M  V30 411 C 39.2977 -4.99529 -0.526897 0
M  V30 412 C 41.2917 -6.30902 0.90781 0
M  V30 413 C 38.9787 -6.10589 0.24993 0
M  V30 414 C 39.9767 -6.76134 0.965994 0
M  V30 415 O 39.6647 -7.85062 1.7301 0
M  V30 416 H 39.3967 -0.649282 -0.188174 0
M  V30 417 H 41.9507 -2.05245 0.0799006 0
M  V30 418 H 40.1807 -3.16716 -2.21873 0
M  V30 419 H 41.8697 -3.52833 -2.00658 0
M  V30 420 H 42.6357 -4.84904 0.0965562 0
M  V30 421 H 38.5147 -4.48319 -1.07381 0
M  V30 422 H 42.0587 -6.81995 1.46724 0
M  V30 423 H 37.9557 -6.44849 0.289795 0
M  V30 424 H 38.7237 -8.01708 1.64944 0
M  V30 425 N 41.3868 0.248026 -1.55636 0
M  V30 426 C 42.3498 1.29044 -1.89421 0
M  V30 427 C 43.3498 1.41134 -0.770581 0
M  V30 428 O 44.5398 1.39854 -1.03858 0
M  V30 429 C 41.6718 2.66831 -2.12165 0
M  V30 430 H 42.8648 1.00305 -2.82629 0
M  V30 431 H 40.4178 0.487265 -1.48511 0
M  V30 432 H 41.1528 3.00711 -1.21422 0
M  V30 433 H 40.9378 2.59438 -2.93997 0
M  V30 434 H 42.4278 3.42103 -2.3949 0
M  V30 435 N 42.8649 1.48995 0.513639 0
M  V30 436 C 44.0929 1.61531 1.29288 0
M  V30 437 C 44.5079 0.281801 1.86685 0
M  V30 438 O 43.8649 -0.731111 1.67215 0
M  V30 439 C 43.9159 2.67449 2.43215 0
M  V30 440 O 43.6369 3.95626 1.88179 0
M  V30 441 C 45.1379 2.90575 3.34785 0
M  V30 442 H 42.3579 0.544165 0.392588 0
M  V30 443 H 44.9019 1.9494 0.617956 0
M  V30 444 H 43.0569 2.36853 3.0656 0
M  V30 445 H 43.4709 4.53868 2.62876 0
M  V30 446 H 44.9449 3.68449 4.11035 0
M  V30 447 H 45.4219 2.00011 3.91015 0
M  V30 448 H 46.0279 3.22538 2.77218 0
M  V30 449 N 44.343 -0.763751 1.37857 0
M  V30 450 C 45.62 -1.51244 1.24035 0
M  V30 451 C 46 -2.10472 -0.162649 0
M  V30 452 O 45.348 -1.96206 -1.17112 0
M  V30 453 C 45.558 -2.58694 2.34261 0
M  V30 454 C 46.906 -3.25878 2.72193 0
M  V30 455 O 47.93 -2.68993 2.33497 0
M  V30 456 O 46.789 -4.2874 3.38887 0
M  V30 457 H 43.883 -0.670243 0.484462 0
M  V30 458 H 46.429 -0.800031 1.49658 0
M  V30 459 H 45.201 -2.13105 3.2818 0
M  V30 460 H 44.824 -3.37527 2.10146 0
M  V30 461 N 45.8211 -1.22559 -0.990812 0
M  V30 462 C 47.0681 -1.05141 -1.73065 0
M  V30 463 C 47.3961 0.413191 -1.9006 0
M  V30 464 O 46.6511 1.32257 -1.44245 0
M  V30 465 C 46.9501 -1.71011 -3.13831 0
M  V30 466 C 46.6161 -3.20911 -3.16745 0
M  V30 467 C 45.2781 -3.61812 -3.17247 0
M  V30 468 C 47.6301 -4.16846 -3.12872 0
M  V30 469 C 44.9581 -4.97127 -3.1158 0
M  V30 470 C 47.3101 -5.5214 -3.08746 0
M  V30 471 C 45.9741 -5.92419 -3.07565 0
M  V30 472 H 45.2441 -0.384738 -0.633291 0
M  V30 473 H 47.8911 -1.5235 -1.16025 0
M  V30 474 H 46.1961 -1.16133 -3.74193 0
M  V30 475 H 47.8931 -1.55023 -3.69823 0
M  V30 476 H 44.4831 -2.88344 -3.17105 0
M  V30 477 H 48.6671 -3.86263 -3.11632 0
M  V30 478 H 43.9231 -5.27562 -3.09012 0
M  V30 479 H 48.0971 -6.26201 -3.04705 0
M  V30 480 H 45.7241 -6.97236 -3.02929 0
M  V30 481 N 47.2992 1.18797 -1.03562 0
M  V30 482 C 48.5762 1.84469 -0.650434 0
M  V30 483 C 48.9562 1.92319 0.870433 0
M  V30 484 O 48.3042 1.44528 1.76986 0
M  V30 485 C 48.5142 3.2306 -1.32036 0
M  V30 486 C 49.8622 3.9915 -1.44792 0
M  V30 487 O 50.8862 3.32481 -1.27806 0
M  V30 488 O 49.7452 5.18587 -1.72423 0
M  V30 489 H 46.8392 0.795251 -0.226946 0
M  V30 490 H 49.3852 1.26231 -1.13419 0
M  V30 491 H 48.1572 3.1222 -2.3587 0
M  V30 492 H 47.7802 3.88949 -0.8249 0
M  V30 493 N 48.7773 0.814389 1.34928 0
M  V30 494 C 50.0023 0.410097 2.03305 0
M  V30 495 C 50.4273 -0.973464 1.60951 0
M  V30 496 O 49.7853 -1.63185 0.789964 0
M  V30 497 C 49.8333 0.51049 3.56968 0
M  V30 498 O 48.9373 -0.473035 4.09678 0
M  V30 499 H 48.2783 0.170088 0.641846 0
M  V30 500 H 50.8083 1.10244 1.72358 0
M  V30 501 H 50.8183 0.383135 4.06197 0
M  V30 502 H 49.4933 1.51963 3.87144 0
M  V30 503 H 48.0703 -0.305272 3.71648 0
M  V30 504 N 50.2554 -1.46986 0.568584 0
M  V30 505 C 51.4834 -2.0683 0.0539956 0
M  V30 506 C 51.8984 -1.41953 -1.24478 0
M  V30 507 O 51.2554 -0.519933 -1.74937 0
M  V30 508 C 51.3064 -3.61254 -0.133362 0
M  V30 509 O 51.0274 -4.237 1.11399 0
M  V30 510 C 52.5284 -4.37992 -0.683927 0
M  V30 511 H 49.7484 -0.669058 0.0510141 0
M  V30 512 H 52.2924 -1.88824 0.785234 0
M  V30 513 H 50.4474 -3.78735 -0.81477 0
M  V30 514 H 50.8614 -5.16388 0.91888 0
M  V30 515 H 52.3354 -5.46684 -0.764263 0
M  V30 516 H 52.8124 -4.05058 -1.69778 0
M  V30 517 H 53.4184 -4.25283 -0.0378494 0
M  V30 518 N 51.7335 -0.305618 -1.54608 0
M  V30 519 C 52.9585 0.307562 -2.05107 0
M  V30 520 C 53.3835 1.46385 -1.18123 0
M  V30 521 O 52.7415 1.8034 -0.186324 0
M  V30 522 C 52.7895 0.73704 -3.52987 0
M  V30 523 O 51.8935 1.84134 -3.6901 0
M  V30 524 H 51.2345 0.0589143 -0.661381 0
M  V30 525 H 53.7645 -0.448807 -1.99617 0
M  V30 526 H 53.7745 1.02459 -3.94925 0
M  V30 527 H 52.4495 -0.108773 -4.15758 0
M  V30 528 H 51.0265 1.55398 -3.38978 0
M  V30 529 N 53.2116 1.57565 -0.0334293 0
M  V30 530 C 54.6226 1.79746 0.504798 0
M  V30 531 C 54.9736 0.944091 1.71992 0
M  V30 532 O 54.0986 0.155694 2.15839 0
M  V30 533 C 54.6936 3.25997 0.922567 0
M  V30 534 C 53.2526 3.49159 1.40588 0
M  V30 535 C 52.3996 2.74785 0.372633 0
M  V30 536 H 55.3506 1.56565 -0.259436 0
M  V30 537 H 55.3716 3.35945 1.78666 0
M  V30 538 H 54.8836 3.88081 0.0379825 0
M  V30 539 H 52.9846 2.92332 2.31025 0
M  V30 540 H 53.0976 4.57873 1.41028 0
M  V30 541 H 51.4616 2.40391 0.841672 0
M  V30 542 H 52.2446 3.39587 -0.503559 0
M  V30 543 N 54.6897 -0.239769 1.55765 0
M  V30 544 C 55.6367 -1.29696 1.90913 0
M  V30 545 C 56.6067 -1.47478 0.764164 0
M  V30 546 O 57.7917 -1.61345 1.01845 0
M  V30 547 C 54.9317 -2.64598 2.21544 0
M  V30 548 C 54.0447 -2.54765 3.48882 0
M  V30 549 C 53.1797 -3.82069 3.69049 0
M  V30 550 C 52.2187 -3.66883 4.89963 0
M  V30 551 N 51.3557 -4.86094 5.06614 0
M  V30 552 H 56.1957 -0.990224 2.81067 0
M  V30 553 H 53.7327 -0.477684 1.39128 0
M  V30 554 H 55.6907 -3.43132 2.3731 0
M  V30 555 H 54.3207 -2.93405 1.34585 0
M  V30 556 H 53.3727 -1.67763 3.41409 0
M  V30 557 H 54.6847 -2.39457 4.37563 0
M  V30 558 H 53.8387 -4.69046 3.84812 0
M  V30 559 H 52.5777 -4.00282 2.78614 0
M  V30 560 H 51.5827 -2.78289 4.74168 0
M  V30 561 H 52.8077 -3.50157 5.81865 0
M  V30 562 H 50.7537 -5.04655 4.19117 0
M  V30 563 H 50.6707 -4.73443 5.89396 0
M  V30 564 H 51.9387 -5.74549 5.26795 0
M  V30 565 N 56.1678 -1.49265 -0.50573 0
M  V30 566 C 57.4158 -1.582 -1.25766 0
M  V30 567 C 57.7368 -0.268482 -1.93143 0
M  V30 568 O 57.0068 0.711833 -1.8251 0
M  V30 569 H 55.5868 -0.582873 -0.467191 0
M  V30 570 H 58.2488 -1.85865 -0.586525 0
M  V30 571 H 57.3448 -2.37563 -2.02412 0
M  V30 572 N 57.6459 0.756429 -1.3826 0
M  V30 573 C 59.0619 1.0591 -1.19395 0
M  V30 574 C 59.2619 2.01459 -0.0406567 0
M  V30 575 O 58.3179 2.44909 0.614467 0
M  V30 576 C 59.6309 1.64191 -2.51916 0
M  V30 577 C 61.1789 1.76376 -2.58574 0
M  V30 578 C 61.6539 2.38069 -3.91264 0
M  V30 579 N 63.1449 2.45503 -3.92788 0
M  V30 580 C 63.8799 2.94126 -4.92217 0
M  V30 581 N 63.3759 3.42805 -6.02043 0
M  V30 582 N 65.1689 2.9314 -4.7961 0
M  V30 583 H 57.3199 0.122313 -2.12048 0
M  V30 584 H 59.5829 0.116892 -0.940766 0
M  V30 585 H 59.2889 1.01451 -3.3675 0
M  V30 586 H 59.1629 2.6329 -2.70108 0
M  V30 587 H 61.5499 2.38244 -1.74137 0
M  V30 588 H 61.6309 0.759894 -2.44252 0
M  V30 589 H 61.2749 1.76835 -4.76121 0
M  V30 590 H 61.2049 3.39091 -4.02895 0
M  V30 591 H 63.6959 2.1107 -3.13461 0
M  V30 592 H 64.0089 3.78354 -6.73846 0
M  V30 593 H 62.3539 3.4087 -6.05667 0
M  V30 594 H 65.5449 2.54419 -3.92923 0
M  V30 595 H 65.7179 3.30721 -5.5725 0
M  V30 596 N 59.124 1.23083 0.984299 0
M  V30 597 C 60.535 1.05609 1.5396 0
M  V30 598 C 60.886 -0.377793 1.92528 0
M  V30 599 O 60.011 -1.26398 1.75649 0
M  V30 600 C 60.606 1.91087 2.7977 0
M  V30 601 C 59.165 1.77885 3.31713 0
M  V30 602 C 58.312 1.87028 2.04733 0
M  V30 603 H 61.263 1.36802 0.804419 0
M  V30 604 H 61.284 1.43336 3.5247 0
M  V30 605 H 60.796 2.9544 2.51668 0
M  V30 606 H 58.897 0.762995 3.64704 0
M  V30 607 H 59.01 2.61047 4.01735 0
M  V30 608 H 57.374 1.30565 2.18689 0
M  V30 609 H 58.157 2.92929 1.79017 0
M  V30 610 N 60.6021 -1.18246 1.0419 0
M  V30 611 C 61.8501 -1.87886 0.744543 0
M  V30 612 C 62.1711 -1.8082 -0.730006 0
M  V30 613 O 61.4411 -1.22736 -1.52685 0
M  V30 614 H 60.0211 -0.695556 0.272417 0
M  V30 615 H 62.6831 -1.43494 1.31892 0
M  V30 616 H 61.7791 -2.9389 1.05049 0
M  V30 617 N 62.0802 -0.821533 -1.34494 0
M  V30 618 C 63.3282 -0.408139 -1.97936 0
M  V30 619 C 63.6492 1.03193 -1.65457 0
M  V30 620 O 62.9192 1.71622 -0.944595 0
M  V30 621 H 61.4992 -0.147928 -0.732206 0
M  V30 622 H 64.1612 -1.05067 -1.64155 0
M  V30 623 H 63.2572 -0.52601 -3.07635 0
M  V30 624 N 63.5583 1.46682 -0.576371 0
M  V30 625 C 64.7833 2.07304 -0.0630475 0
M  V30 626 C 65.2083 1.42329 1.2298 0
M  V30 627 O 64.5663 0.504865 1.74129 0
M  V30 628 C 64.6143 3.60472 0.095895 0
M  V30 629 O 63.7183 3.95927 1.15394 0
M  V30 630 H 63.0593 0.661288 -0.0599463 0
M  V30 631 H 65.5893 1.88417 -0.797511 0
M  V30 632 H 65.5993 4.06865 0.304071 0
M  V30 633 H 64.2743 4.07157 -0.84828 0
M  V30 634 H 62.8513 3.61252 0.924724 0
M  V30 635 N 65.0364 0.313813 1.54444 0
M  V30 636 C 66.2614 -0.296681 2.05267 0
M  V30 637 C 66.6864 -1.45757 1.18897 0
M  V30 638 O 66.0444 -1.80239 0.195886 0
M  V30 639 C 66.0924 -0.71831 3.53373 0
M  V30 640 O 65.1964 -1.82175 3.69981 0
M  V30 641 H 64.5374 -0.0554061 0.661684 0
M  V30 642 H 67.0674 0.459387 1.99376 0
M  V30 643 H 67.0774 -1.00364 3.95463 0
M  V30 644 H 65.7524 0.130821 4.15694 0
M  V30 645 H 64.3294 -1.53598 3.39797 0
M  V30 646 N 66.5145 -1.57545 0.0417849 0
M  V30 647 C 67.7615 -1.92317 -0.634082 0
M  V30 648 C 68.0895 -0.919334 -1.71402 0
M  V30 649 O 67.3445 0.0698253 -1.95575 0
M  V30 650 C 67.6435 -3.33794 -1.27735 0
M  V30 651 C 67.3095 -4.49716 -0.326543 0
M  V30 652 C 65.9715 -4.81156 -0.0648814 0
M  V30 653 C 68.3235 -5.20182 0.325623 0
M  V30 654 C 65.6515 -5.80414 0.856539 0
M  V30 655 C 68.0035 -6.20424 1.23518 0
M  V30 656 C 66.6675 -6.50298 1.5056 0
M  V30 657 H 65.9375 -0.703736 -0.232027 0
M  V30 658 H 68.5845 -1.91205 0.106259 0
M  V30 659 H 66.8895 -3.31228 -2.09274 0
M  V30 660 H 68.5865 -3.57975 -1.80707 0
M  V30 661 H 65.1765 -4.25176 -0.540665 0
M  V30 662 H 69.3605 -4.96112 0.136546 0
M  V30 663 H 64.6165 -6.019 1.07363 0
M  V30 664 H 68.7905 -6.74141 1.74664 0
M  V30 665 H 66.4175 -7.27025 2.22123 0
M  V30 666 N 67.9926 0.231505 -1.5589 0
M  V30 667 C 69.2176 0.978689 -1.82856 0
M  V30 668 C 69.6426 1.77559 -0.620846 0
M  V30 669 O 69.0006 1.76119 0.430305 0
M  V30 670 C 69.0486 1.87997 -3.07716 0
M  V30 671 O 68.1526 2.97393 -2.85712 0
M  V30 672 H 67.4936 0.277663 -0.603158 0
M  V30 673 H 70.0236 0.24783 -2.03093 0
M  V30 674 H 70.0336 2.2917 -3.37558 0
M  V30 675 H 68.7086 1.29417 -3.95252 0
M  V30 676 H 67.2856 2.60238 -2.67078 0
M  V30 677 N 69.4707 1.49531 0.497807 0
M  V30 678 C 70.4187 1.66926 1.61983 0
M  V30 679 C 71.4127 0.535167 1.60724 0
M  V30 680 O 72.6187 0.714896 1.65195 0
M  V30 681 H 68.9937 0.526415 0.537021 0
M  V30 682 H 70.9647 2.61098 1.44465 0
M  V30 683 C 69.7137 1.75602 3.00099 0
M  V30 684 H 69.0367 2.62244 3.01775 0
M  V30 685 H 70.4767 1.91807 3.78135 0
M  V30 686 C 68.9357 0.501543 3.33146 0
M  V30 687 O 69.4657 -0.371342 3.9998 0
M  V30 688 N 67.6717 0.363531 2.88317 0
M  V30 689 H 67.2187 1.07485 2.34104 0
M  V30 690 H 67.1767 -0.474728 3.10795 0
M  V30 691 N 70.9488 -0.749086 1.3866 0
M  V30 692 C 72.1968 -1.50535 1.34847 0
M  V30 693 C 72.5178 -1.94909 -0.0595016 0
M  V30 694 O 71.7878 -1.67973 -1.00806 0
M  V30 695 H 70.3678 -0.558395 0.49619 0
M  V30 696 H 73.0298 -0.890165 1.73384 0
M  V30 697 H 72.1258 -2.39413 2.00219 0
M  V30 698 N 72.4269 -1.23603 -0.977757 0
M  V30 699 C 73.3739 -1.01954 -2.07061 0
M  V30 700 C 74.3439 0.0638697 -1.65977 0
M  V30 701 O 75.5289 -0.0887624 -1.90593 0
M  V30 702 C 72.6689 -0.619658 -3.39491 0
M  V30 703 C 71.7819 -1.77547 -3.93829 0
M  V30 704 C 70.9169 -1.32212 -5.14484 0
M  V30 705 C 69.9559 -2.44852 -5.60994 0
M  V30 706 N 69.0929 -2.00456 -6.72876 0
M  V30 707 H 73.9329 -1.95495 -2.24913 0
M  V30 708 H 71.4699 -0.973861 -1.10247 0
M  V30 709 H 73.4279 -0.368898 -4.15566 0
M  V30 710 H 72.0579 0.278752 -3.21594 0
M  V30 711 H 71.1099 -2.14016 -3.14486 0
M  V30 712 H 72.4219 -2.62219 -4.24314 0
M  V30 713 H 71.5759 -1.02965 -5.97899 0
M  V30 714 H 70.3149 -0.445808 -4.85658 0
M  V30 715 H 69.3199 -2.74871 -4.76157 0
M  V30 716 H 70.5449 -3.33024 -5.91837 0
M  V30 717 H 68.4909 -1.15208 -6.45804 0
M  V30 718 H 68.4079 -2.78687 -7.02759 0
M  V30 719 H 69.6759 -1.7432 -7.59758 0
M  V30 720 N 73.905 1.17692 -1.04816 0
M  V30 721 C 75.154 1.87192 -0.751132 0
M  V30 722 C 75.467 1.8169 0.724441 0
M  V30 723 O 76.673 2.46625 1.13527 0
M  V30 724 C 75.129 3.35857 -1.29338 0
M  V30 725 C 74.737 3.4987 -2.79812 0
M  V30 726 C 76.481 4.10709 -1.07322 0
M  V30 727 C 74.388 4.92536 -3.27356 0
M  V30 728 H 73.318 0.701162 -0.277288 0
M  V30 729 H 75.969 1.32932 -1.26496 0
M  V30 730 H 74.351 3.89631 -0.707376 0
M  V30 731 H 75.525 3.06332 -3.44235 0
M  V30 732 H 73.84 2.88433 -3.00325 0
M  V30 733 H 76.437 5.15952 -1.4035 0
M  V30 734 H 76.78 4.16299 -0.0108001 0
M  V30 735 H 77.313 3.6313 -1.62423 0
M  V30 736 H 74.052 4.92119 -4.33012 0
M  V30 737 H 73.572 5.3676 -2.67673 0
M  V30 738 H 75.251 5.61288 -3.21815 0
M  V30 739 N 75.3831 0.828654 1.34056 0
M  V30 740 C 76.3131 0.269443 2.3194 0
M  V30 741 C 77.2941 -0.617247 1.58506 0
M  V30 742 O 78.4791 -0.542931 1.86456 0
M  V30 743 C 75.6091 -0.564793 3.42677 0
M  V30 744 C 74.5631 0.225241 4.27407 0
M  V30 745 C 73.8891 -0.7321 5.29664 0
M  V30 746 C 75.1891 1.43663 5.02154 0
M  V30 747 H 76.8831 1.08728 2.7896 0
M  V30 748 H 74.4291 0.524283 1.34117 0
M  V30 749 H 76.3821 -0.966233 4.10173 0
M  V30 750 H 75.1061 -1.41574 2.9432 0
M  V30 751 H 73.7651 0.608117 3.61521 0
M  V30 752 H 73.4131 -1.57916 4.77568 0
M  V30 753 H 73.1131 -0.20767 5.87233 0
M  V30 754 H 74.6371 -1.13128 6.00029 0
M  V30 755 H 76.0511 1.1089 5.62473 0
M  V30 756 H 74.4481 1.89711 5.69324 0
M  V30 757 H 75.5181 2.21181 4.31517 0
M  V30 758 N 76.8612 -1.46375 0.584142 0
M  V30 759 C 78.1102 -2.01585 0.0679741 0
M  V30 760 C 78.4232 -1.46109 -1.30045 0
M  V30 761 O 79.6292 -1.93148 -1.90804 0
M  V30 762 C 78.0852 -3.5983 0.0709207 0
M  V30 763 C 77.6932 -4.24303 1.43775 0
M  V30 764 C 79.4372 -4.22693 -0.391228 0
M  V30 765 C 77.3442 -5.74631 1.39834 0
M  V30 766 H 76.2742 -0.753689 0.0216421 0
M  V30 767 H 78.9252 -1.68093 0.736001 0
M  V30 768 H 77.3072 -3.90405 -0.663299 0
M  V30 769 H 78.4812 -4.05335 2.19181 0
M  V30 770 H 76.7962 -3.73539 1.84004 0
M  V30 771 H 79.3932 -5.3289 -0.439524 0
M  V30 772 H 79.7362 -3.91728 -1.40906 0
M  V30 773 H 80.2692 -3.96749 0.288974 0
M  V30 774 H 77.0082 -6.10258 2.39303 0
M  V30 775 H 76.5282 -5.95858 0.686505 0
M  V30 776 H 78.2072 -6.37375 1.11187 0
M  V30 777 N 78.3393 -0.321999 -1.54275 0
M  V30 778 C 79.5643 0.285791 -2.05422 0
M  V30 779 C 79.9893 1.45124 -1.19669 0
M  V30 780 O 79.3473 1.80132 -0.205441 0
M  V30 781 C 79.3953 0.69956 -3.53749 0
M  V30 782 O 78.4993 1.8021 -3.70942 0
M  V30 783 H 77.8403 0.0518962 -0.661969 0
M  V30 784 H 80.3703 -0.469954 -1.9913 0
M  V30 785 H 80.3803 0.982649 -3.9599 0
M  V30 786 H 79.0553 -0.152864 -4.15619 0
M  V30 787 H 77.6323 1.51794 -3.40607 0
M  V30 788 N 79.8174 1.5752 -0.0501392 0
M  V30 789 C 80.7274 2.14952 0.939827 0
M  V30 790 C 81.7434 1.10706 1.34239 0
M  V30 791 O 82.9194 1.42869 1.41952 0
M  V30 792 C 79.9844 2.68232 2.19665 0
M  V30 793 C 79.0454 3.87272 1.85253 0
M  V30 794 C 78.2784 4.38002 3.04943 0
M  V30 795 O 78.5014 3.87811 4.18281 0
M  V30 796 O 77.4354 5.29602 2.86017 0
M  V30 797 H 81.2614 2.9986 0.481392 0
M  V30 798 H 78.8464 1.4841 0.171699 0
M  V30 799 H 80.7284 3.02475 2.93406 0
M  V30 800 H 79.4034 1.86395 2.64648 0
M  V30 801 H 78.3104 3.5792 1.0883 0
M  V30 802 H 79.6434 4.70336 1.4507 0
M  V30 803 N 81.2955 -0.223234 1.56011 0
M  V30 804 C 82.5205 -0.968978 1.83373 0
M  V30 805 C 82.9455 -1.77227 0.630254 0
M  V30 806 O 82.3035 -1.76345 -0.420959 0
M  V30 807 C 82.3515 -1.86363 3.08709 0
M  V30 808 O 81.4555 -2.95873 2.87285 0
M  V30 809 H 80.7965 -0.274461 0.604622 0
M  V30 810 H 83.3265 -0.237056 2.03222 0
M  V30 811 H 83.3365 -2.27376 3.38768 0
M  V30 812 H 82.0115 -1.27319 3.95933 0
M  V30 813 H 80.5885 -2.58818 2.68454 0
M  V30 814 N 82.7736 -1.49793 -0.48987 0
M  V30 815 C 84.0016 -1.63568 -1.26701 0
M  V30 816 C 84.4166 -0.311465 -1.86213 0
M  V30 817 O 83.7736 0.704416 -1.68357 0
M  V30 818 C 83.8246 -2.71284 -2.38929 0
M  V30 819 O 83.5456 -3.9857 -1.81861 0
M  V30 820 C 85.0466 -2.95864 -3.3012 0
M  V30 821 H 82.2666 -0.550342 -0.383881 0
M  V30 822 H 84.8106 -1.95898 -0.586864 0
M  V30 823 H 82.9656 -2.417 -3.02753 0
M  V30 824 H 83.3796 -4.57993 -2.55622 0
M  V30 825 H 84.8536 -3.74941 -4.05121 0
M  V30 826 H 85.3306 -2.06206 -3.87783 0
M  V30 827 H 85.9366 -3.26907 -2.72051 0
M  V30 828 N 84.2517 0.741722 -1.39055 0
M  V30 829 C 85.1997 1.87702 -1.3737 0
M  V30 830 C 86.1937 1.67427 -0.257812 0
M  V30 831 O 87.3997 1.7485 -0.427489 0
M  V30 832 H 83.7747 0.617757 -0.428812 0
M  V30 833 H 85.7457 1.86239 -2.33147 0
M  V30 834 C 84.4947 3.25315 -1.22741 0
M  V30 835 H 83.8177 3.41509 -2.07873 0
M  V30 836 H 85.2577 4.04964 -1.25618 0
M  V30 837 C 83.7167 3.36838 0.0647316 0
M  V30 838 O 84.2467 3.88073 1.03741 0
M  V30 839 N 82.4527 2.90329 0.125544 0
M  V30 840 H 81.9997 2.48823 -0.666682 0
M  V30 841 H 81.9577 2.98418 0.989639 0
M  V30 842 N 85.7298 1.2412 0.971189 0
M  V30 843 C 86.6798 0.997551 2.05019 0
M  V30 844 C 87.6638 -0.0597747 1.60789 0
M  V30 845 O 88.8558 0.153516 1.76333 0
M  V30 846 C 85.9848 0.600557 3.38006 0
M  V30 847 C 85.0708 1.69377 3.88809 0
M  V30 848 N 85.4618 2.92586 4.12586 0
M  V30 849 C 83.7598 1.57048 4.17435 0
M  V30 850 C 84.4608 3.63431 4.54195 0
M  V30 851 N 83.4368 2.90979 4.59165 0
M  V30 852 H 87.2388 1.93316 2.21374 0
M  V30 853 H 84.7528 1.14194 1.1547 0
M  V30 854 H 86.7498 0.40725 4.14906 0
M  V30 855 H 85.4098 -0.327903 3.2304 0
M  V30 856 H 86.4208 3.288 4.00139 0
M  V30 857 H 83.0978 0.709798 4.11422 0
M  V30 858 H 84.4878 4.69102 4.81033 0
M  V30 859 N 87.2079 -1.17134 1.05439 0
M  V30 860 C 88.1179 -2.24878 0.668365 0
M  V30 861 C 89.1339 -1.71186 -0.311687 0
M  V30 862 O 90.3099 -2.00738 -0.163161 0
M  V30 863 C 87.3749 -3.46662 0.051648 0
M  V30 864 C 86.4359 -4.15429 1.08246 0
M  V30 865 C 85.6689 -5.31399 0.495082 0
M  V30 866 O 85.8919 -5.66153 -0.694743 0
M  V30 867 O 84.8259 -5.89187 1.23056 0
M  V30 868 H 88.6519 -2.60189 1.56637 0
M  V30 869 H 86.2369 -1.24482 0.826104 0
M  V30 870 H 88.1189 -4.20394 -0.290966 0
M  V30 871 H 86.7939 -3.13142 -0.819971 0
M  V30 872 H 85.7009 -3.43704 1.47711 0
M  V30 873 H 87.0339 -4.52982 1.92532 0
M  V30 874 N 88.686 -0.835752 -1.33615 0
M  V30 875 C 89.914 -0.443344 -2.02094 0
M  V30 876 C 90.329 0.954522 -1.62894 0
M  V30 877 O 89.686 1.61982 -0.840723 0
M  V30 878 C 89.737 -0.550775 -3.5728 0
M  V30 879 O 89.458 -1.89356 -3.95065 0
M  V30 880 C 90.959 -0.154919 -4.43029 0
M  V30 881 H 88.179 -0.176359 -0.647409 0
M  V30 882 H 90.723 -1.12746 -1.70612 0
M  V30 883 H 88.878 0.0853997 -3.87306 0
M  V30 884 H 89.292 -1.87687 -4.89769 0
M  V30 885 H 90.766 -0.281144 -5.51284 0
M  V30 886 H 91.243 0.902863 -4.2982 0
M  V30 887 H 91.849 -0.765404 -4.18356 0
M  V30 888 N 90.1641 1.46063 -0.591896 0
M  V30 889 C 91.1271 2.28854 0.125973 0
M  V30 890 C 92.1271 1.38903 0.810107 0
M  V30 891 O 93.3171 1.61186 0.66066 0
M  V30 892 C 90.4491 3.19526 1.1881 0
M  V30 893 H 91.6421 2.93802 -0.601717 0
M  V30 894 H 89.1951 1.52325 -0.350254 0
M  V30 895 H 89.9301 2.59345 1.94707 0
M  V30 896 H 89.7151 3.85766 0.701936 0
M  V30 897 H 91.2051 3.81817 1.69132 0
M  V30 898 N 91.6422 0.330177 1.54103 0
M  V30 899 C 92.8892 -0.270405 2.00686 0
M  V30 900 C 93.2172 -1.51621 1.21825 0
M  V30 901 O 92.4722 -1.93536 0.29025 0
M  V30 902 C 92.7712 -0.643134 3.51566 0
M  V30 903 C 92.4372 0.504251 4.48072 0
M  V30 904 C 91.0992 0.819163 4.74176 0
M  V30 905 C 93.4512 1.27465 5.05373 0
M  V30 906 C 90.7792 1.90708 5.5484 0
M  V30 907 C 93.1312 2.35271 5.87223 0
M  V30 908 C 91.7952 2.67336 6.11627 0
M  V30 909 H 91.0652 -0.0989482 0.734364 0
M  V30 910 H 93.7122 0.455324 1.86008 0
M  V30 911 H 92.0172 -1.44938 3.64006 0
M  V30 912 H 93.7142 -1.11949 3.85056 0
M  V30 913 H 90.3042 0.248733 4.27878 0
M  V30 914 H 94.4882 1.04462 4.85182 0
M  V30 915 H 89.7442 2.15991 5.71977 0
M  V30 916 H 93.9182 2.95405 6.30641 0
M  V30 917 H 91.5452 3.51763 6.73919 0
M  V30 918 N 93.1203 -1.57491 0.0584922 0
M  V30 919 C 94.3453 -1.97711 -0.62652 0
M  V30 920 C 94.7703 -0.936132 -1.63151 0
M  V30 921 O 94.1283 0.099811 -1.81025 0
M  V30 922 C 94.1763 -3.36989 -1.28338 0
M  V30 923 O 93.2803 -3.35433 -2.39913 0
M  V30 924 H 92.6213 -0.643868 -0.162266 0
M  V30 925 H 95.1513 -2.04193 0.129064 0
M  V30 926 H 95.1613 -3.73879 -1.63335 0
M  V30 927 H 93.8363 -4.12289 -0.546889 0
M  V30 928 H 92.4133 -3.10298 -2.06809 0
M  V30 929 N 94.5984 0.214957 -1.56127 0
M  V30 930 C 95.5454 1.26642 -1.92952 0
M  V30 931 C 96.5154 1.46244 -0.78753 0
M  V30 932 O 97.7004 1.59704 -1.04399 0
M  V30 933 C 94.8404 2.6104 -2.25726 0
M  V30 934 C 93.9534 2.49183 -3.52891 0
M  V30 935 C 93.0884 3.76149 -3.7508 0
M  V30 936 C 92.1274 3.59041 -4.95738 0
M  V30 937 N 91.2644 4.77972 -5.14283 0
M  V30 938 H 96.1044 0.945384 -2.82607 0
M  V30 939 H 93.6414 0.455489 -1.3987 0
M  V30 940 H 95.5994 3.39313 -2.42739 0
M  V30 941 H 94.2294 2.91227 -1.39236 0
M  V30 942 H 93.2814 1.6231 -3.44034 0
M  V30 943 H 94.5934 2.32466 -4.41318 0
M  V30 944 H 93.7474 4.62865 -3.92226 0
M  V30 945 H 92.4864 3.95799 -2.84947 0
M  V30 946 H 91.4914 2.7071 -4.78535 0
M  V30 947 H 92.7164 3.40856 -5.87362 0
M  V30 948 H 90.6624 4.97923 -4.27093 0
M  V30 949 H 90.5794 4.64006 -5.96853 0
M  V30 950 H 91.8474 5.66096 -5.35869 0
M  V30 951 N 96.0765 1.50051 0.48192 0
M  V30 952 C 97.0065 1.71046 1.58951 0
M  V30 953 C 97.9875 0.559288 1.60642 0
M  V30 954 O 99.1725 0.797243 1.77081 0
M  V30 955 C 96.3025 1.79462 2.97339 0
M  V30 956 C 95.2565 2.94558 3.10515 0
M  V30 957 C 94.5825 2.88105 4.50444 0
M  V30 958 C 95.8825 4.35227 2.88747 0
M  V30 959 H 97.5765 2.6378 1.41635 0
M  V30 960 H 95.1225 1.26936 0.679942 0
M  V30 961 H 97.0755 1.92734 3.74742 0
M  V30 962 H 95.7995 0.833412 3.15788 0
M  V30 963 H 94.4585 2.80918 2.35543 0
M  V30 964 H 94.1065 1.89853 4.65795 0
M  V30 965 H 93.8065 3.65366 4.60197 0
M  V30 966 H 95.3305 3.03412 5.29881 0
M  V30 967 H 96.7445 4.49449 3.55905 0
M  V30 968 H 95.1415 5.13856 3.09955 0
M  V30 969 H 96.2115 4.48347 1.84696 0
M  V30 970 N 97.5546 -0.734337 1.39446 0
M  V30 971 C 98.9656 -1.31264 1.32766 0
M  V30 972 C 99.3166 -1.96198 -0.00767497 0
M  V30 973 O 98.4416 -1.96346 -0.909796 0
M  V30 974 C 99.0366 -2.38682 2.4045 0
M  V30 975 C 97.5956 -2.92184 2.37288 0
M  V30 976 C 96.7426 -1.6576 2.22304 0
M  V30 977 H 99.6936 -0.531799 1.49525 0
M  V30 978 H 99.7146 -3.19087 2.07276 0
M  V30 979 H 99.2266 -1.91392 3.37625 0
M  V30 980 H 97.3276 -3.43752 1.43754 0
M  V30 981 H 97.4406 -3.45253 3.3217 0
M  V30 982 H 95.8046 -1.9012 1.69489 0
M  V30 983 H 96.5876 -1.20521 3.21449 0
M  V30 984 N 99.0327 -1.24633 -0.964593 0
M  V30 985 C 100.281 -1.08573 -1.70459 0
M  V30 986 C 100.602 0.375655 -1.91347 0
M  V30 987 O 99.8717 1.26779 -1.49345 0
M  V30 988 H 98.4517 -0.398784 -0.631649 0
M  V30 989 H 101.114 -1.56601 -1.16026 0
M  V30 990 H 100.21 -1.58623 -2.68785 0
M  V30 991 N 100.511 1.16574 -1.06058 0
M  V30 992 C 101.788 1.83048 -0.689416 0
M  V30 993 C 102.168 1.94122 0.829443 0
M  V30 994 O 101.516 1.48249 1.7388 0
M  V30 995 C 101.726 3.20186 -1.38859 0
M  V30 996 C 103.074 3.95989 -1.53226 0
M  V30 997 O 104.098 3.29696 -1.3483 0
M  V30 998 O 102.957 5.14813 -1.83384 0
M  V30 999 H 100.051 0.790258 -0.243764 0
M  V30 1000 H 102.597 1.23797 -1.16071 0
M  V30 1001 H 101.369 3.07146 -2.4244 0
M  V30 1002 H 100.992 3.87112 -0.907216 0
M  V30 1003 N 101.989 0.842826 1.3317 0
M  V30 1004 C 103.219 0.453397 2.01564 0
M  V30 1005 C 103.627 -0.951147 1.63554 0
M  V30 1006 O 102.97 -1.63021 0.846746 0
M  V30 1007 C 103.032 0.499013 3.5602 0
M  V30 1008 C 102.696 1.86037 4.1742 0
M  V30 1009 C 103.693 2.82416 4.36506 0
M  V30 1010 C 101.378 2.15428 4.53757 0
M  V30 1011 C 103.372 4.06346 4.91082 0
M  V30 1012 C 101.059 3.39615 5.0804 0
M  V30 1013 C 102.057 4.3489 5.26649 0
M  V30 1014 O 101.745 5.5688 5.79776 0
M  V30 1015 H 101.477 0.177871 0.652179 0
M  V30 1016 H 104.031 1.13808 1.70988 0
M  V30 1017 H 102.261 -0.242467 3.85939 0
M  V30 1018 H 103.95 0.126852 4.05702 0
M  V30 1019 H 104.716 2.6101 4.08777 0
M  V30 1020 H 100.595 1.42061 4.38565 0
M  V30 1021 H 104.139 4.80722 5.05522 0
M  V30 1022 H 100.036 3.60876 5.352 0
M  V30 1023 H 100.804 5.58674 5.98185 0
M  V30 1024 N 103.467 -1.45747 0.599634 0
M  V30 1025 C 104.43 -2.28917 -0.113835 0
M  V30 1026 C 105.43 -1.3933 -0.802729 0
M  V30 1027 O 106.62 -1.61534 -0.652103 0
M  V30 1028 C 103.752 -3.20152 -1.17114 0
M  V30 1029 H 104.945 -2.93478 0.617289 0
M  V30 1030 H 102.498 -1.52137 0.358327 0
M  V30 1031 H 103.233 -2.60374 -1.93329 0
M  V30 1032 H 103.018 -3.86133 -0.681468 0
M  V30 1033 H 104.508 -3.82708 -1.67105 0
M  V30 1034 N 104.945 -0.338344 -1.53925 0
M  V30 1035 C 106.222 0.314774 -1.93051 0
M  V30 1036 C 106.602 1.68669 -1.26941 0
M  V30 1037 O 105.95 2.24636 -0.418445 0
M  V30 1038 C 106.16 0.392249 -3.46789 0
M  V30 1039 C 107.508 0.645554 -4.19664 0
M  V30 1040 O 108.532 0.474575 -3.53024 0
M  V30 1041 O 107.391 0.976408 -5.37707 0
M  V30 1042 H 104.485 0.182598 -0.80659 0
M  V30 1043 H 107.031 -0.389141 -1.65178 0
M  V30 1044 H 105.803 -0.570702 -3.87116 0
M  V30 1045 H 105.426 1.14316 -3.80812 0
M  V30 1046 N 106.423 1.57458 -0.0668435 0
M  V30 1047 C 107.834 1.80776 0.466558 0
M  V30 1048 C 108.185 0.980361 1.69951 0
M  V30 1049 O 107.31 0.201441 2.1546 0
M  V30 1050 C 107.905 3.27881 0.85321 0
M  V30 1051 C 106.464 3.52062 1.3315 0
M  V30 1052 C 105.611 2.75513 0.314264 0
M  V30 1053 H 108.562 1.5598 -0.292588 0
M  V30 1054 H 108.583 3.39659 1.715 0
M  V30 1055 H 108.095 3.88075 -0.0443439 0
M  V30 1056 H 106.196 2.97167 2.24772 0
M  V30 1057 H 106.309 4.60762 1.31285 0
M  V30 1058 H 104.673 2.42123 0.790492 0
M  V30 1059 H 105.456 3.38442 -0.575477 0
M  V30 1060 N 107.901 -0.206675 1.56239 0
M  V30 1061 C 109.312 -0.772383 1.69974 0
M  V30 1062 C 109.663 -1.84353 0.671436 0
M  V30 1063 O 108.788 -2.15695 -0.174491 0
M  V30 1064 C 109.383 -1.40779 3.08167 0
M  V30 1065 C 107.942 -1.92072 3.23706 0
M  V30 1066 C 107.089 -0.786347 2.65917 0
M  V30 1067 H 110.04 0.0182223 1.5869 0
M  V30 1068 H 110.061 -2.27696 3.04852 0
M  V30 1069 H 109.573 -0.627958 3.82986 0
M  V30 1070 H 107.674 -2.7281 2.53782 0
M  V30 1071 H 107.787 -2.09046 4.31087 0
M  V30 1072 H 106.151 -1.1976 2.24788 0
M  V30 1073 H 106.934 -0.0189416 3.43295 0
M  V30 1074 N 109.379 -1.50304 -0.473955 0
M  V30 1075 C 110.627 -1.60832 -1.22382 0
M  V30 1076 C 110.948 -0.30939 -1.9253 0
M  V30 1077 O 110.218 0.67296 -1.83978 0
M  V30 1078 H 108.798 -0.592652 -0.454723 0
M  V30 1079 H 111.46 -1.87068 -0.546968 0
M  V30 1080 H 110.556 -2.41803 -1.97327 0
M  V30 1081 N 110.857 0.726932 -1.39834 0
M  V30 1082 C 112.268 1.30558 -1.3346 0
M  V30 1083 C 112.619 1.962 -0.00273003 0
M  V30 1084 O 111.744 1.96826 0.899371 0
M  V30 1085 C 112.339 2.37404 -2.41713 0
M  V30 1086 C 110.898 2.90921 -2.38835 0
M  V30 1087 C 110.045 1.64578 -2.2318 0
M  V30 1088 H 112.996 0.523862 -1.49804 0
M  V30 1089 H 113.017 3.17984 -2.08966 0
M  V30 1090 H 112.529 1.89599 -3.38635 0
M  V30 1091 H 110.63 3.42985 -1.45575 0
M  V30 1092 H 110.743 3.43487 -3.33997 0
M  V30 1093 H 109.107 1.89219 -1.70494 0
M  V30 1094 H 109.89 1.18814 -3.22084 0
M  V30 1095 N 112.336 1.25143 0.95797 0
M  V30 1096 C 113.246 1.06968 2.08794 0
M  V30 1097 C 114.262 0.00773911 1.73998 0
M  V30 1098 O 115.438 0.207972 2.00323 0
M  V30 1099 C 112.503 0.68691 3.39827 0
M  V30 1100 C 111.564 1.82641 3.88511 0
M  V30 1101 C 110.797 1.46181 5.1329 0
M  V30 1102 O 111.02 0.355971 5.69288 0
M  V30 1103 O 109.954 2.29085 5.566 0
M  V30 1104 H 113.78 2.01723 2.27027 0
M  V30 1105 H 111.365 1.04051 1.07209 0
M  V30 1106 H 113.247 0.485417 4.18595 0
M  V30 1107 H 111.922 -0.231417 3.22872 0
M  V30 1108 H 110.829 2.08274 3.10762 0
M  V30 1109 H 112.162 2.72386 4.09959 0
M  V30 1110 N 113.814 -1.1601 1.06675 0
M  V30 1111 C 115.225 -1.68235 0.809565 0
M  V30 1112 C 115.576 -1.8454 -0.666303 0
M  V30 1113 O 114.701 -1.54374 -1.5165 0
M  V30 1114 C 115.296 -3.05585 1.46299 0
M  V30 1115 C 113.855 -3.54915 1.25349 0
M  V30 1116 C 113.002 -2.30804 1.53703 0
M  V30 1117 H 115.953 -1.00318 1.22971 0
M  V30 1118 H 115.974 -3.70174 0.880431 0
M  V30 1119 H 115.486 -2.93686 2.53713 0
M  V30 1120 H 113.587 -3.72067 0.199261 0
M  V30 1121 H 113.7 -4.36774 1.9689 0
M  V30 1122 H 112.064 -2.36007 0.957739 0
M  V30 1123 H 112.847 -2.21499 2.62284 0
M  V30 1124 N 115.292 -0.849877 -1.32721 0
M  V30 1125 C 116.538 -0.451591 -1.97708 0
M  V30 1126 C 116.871 0.989175 -1.6712 0
M  V30 1127 O 116.146 1.69334 -0.956891 0
M  V30 1128 C 116.429 -0.685598 -3.53513 0
M  V30 1129 C 116.282 -2.17444 -3.93749 0
M  V30 1130 C 117.601 -0.138874 -4.39881 0
M  V30 1131 H 114.72 -0.16555 -0.718166 0
M  V30 1132 H 117.362 -1.06742 -1.57182 0
M  V30 1133 H 115.512 -0.161416 -3.88165 0
M  V30 1134 H 117.184 -2.76433 -3.693 0
M  V30 1135 H 115.427 -2.65476 -3.43081 0
M  V30 1136 H 116.098 -2.28888 -5.02309 0
M  V30 1137 H 118.574 -0.587068 -4.11938 0
M  V30 1138 H 117.45 -0.332213 -5.47894 0
M  V30 1139 H 117.711 0.95806 -4.31594 0
M  V30 1140 N 116.77 1.45427 -0.607355 0
M  V30 1141 C 118.016 2.0254 -0.102607 0
M  V30 1142 C 118.349 1.47478 1.26348 0
M  V30 1143 O 117.624 0.64939 1.83339 0
M  V30 1144 C 117.907 3.60044 -0.0634347 0
M  V30 1145 C 117.76 4.2544 -1.46017 0
M  V30 1146 C 119.079 4.35646 0.624514 0
M  V30 1147 H 116.198 0.73598 -0.0387607 0
M  V30 1148 H 118.84 1.73284 -0.779282 0
M  V30 1149 H 116.99 3.85101 0.512808 0
M  V30 1150 H 118.662 4.11569 -2.08347 0
M  V30 1151 H 116.905 3.83849 -2.02094 0
M  V30 1152 H 117.576 5.34342 -1.385 0
M  V30 1153 H 120.052 4.15882 0.134723 0
M  V30 1154 H 118.928 5.45376 0.621028 0
M  V30 1155 H 119.189 4.08501 1.69055 0
M  V30 1156 N 118.248 0.346503 1.53744 0
M  V30 1157 C 119.178 -0.501193 2.28058 0
M  V30 1158 C 120.159 -1.10014 1.29734 0
M  V30 1159 O 121.344 -1.12097 1.58581 0
M  V30 1160 C 118.474 -1.65078 3.05559 0
M  V30 1161 C 117.428 -1.18003 4.11411 0
M  V30 1162 C 116.754 -2.41837 4.76884 0
M  V30 1163 C 118.054 -0.278394 5.21558 0
M  V30 1164 H 119.748 0.11875 2.99164 0
M  V30 1165 H 117.294 0.0585531 1.43881 0
M  V30 1166 H 119.247 -2.25028 3.56287 0
M  V30 1167 H 117.971 -2.29767 2.32109 0
M  V30 1168 H 116.63 -0.603331 3.61601 0
M  V30 1169 H 116.278 -3.0494 4.00026 0
M  V30 1170 H 115.978 -2.1102 5.48402 0
M  V30 1171 H 117.502 -3.02508 5.30397 0
M  V30 1172 H 118.916 -0.784823 5.67903 0
M  V30 1173 H 117.313 -0.0619707 6.00068 0
M  V30 1174 H 118.383 0.684677 4.80042 0
M  V30 1175 N 119.726 -1.57421 0.075193 0
M  V30 1176 C 120.674 -2.14124 -0.908508 0
M  V30 1177 C 121.668 -1.07898 -1.30592 0
M  V30 1178 O 122.874 -1.26273 -1.28277 0
M  V30 1179 H 119.249 -0.684707 -0.310935 0
M  V30 1180 H 121.22 -2.95634 -0.405374 0
M  V30 1181 C 119.969 -2.72044 -2.16535 0
M  V30 1182 H 119.292 -3.53456 -1.86839 0
M  V30 1183 H 120.732 -3.15311 -2.83469 0
M  V30 1184 C 119.191 -1.66968 -2.92615 0
M  V30 1185 O 119.721 -1.0967 -3.86439 0
M  V30 1186 N 117.927 -1.37923 -2.55784 0
M  V30 1187 H 117.474 -1.84706 -1.79559 0
M  V30 1188 H 117.432 -0.67852 -3.06991 0
M  V30 1189 N 121.204 0.198386 -1.56346 0
M  V30 1190 C 122.114 1.2664 -1.97483 0
M  V30 1191 C 123.13 1.49989 -0.882002 0
M  V30 1192 O 124.306 1.62668 -1.18748 0
M  V30 1193 C 121.371 2.59141 -2.30319 0
M  V30 1194 C 120.432 2.43892 -3.53292 0
M  V30 1195 C 119.665 3.70074 -3.84553 0
M  V30 1196 O 119.888 4.74101 -3.1715 0
M  V30 1197 O 118.822 3.658 -4.7799 0
M  V30 1198 H 122.648 0.947304 -2.88548 0
M  V30 1199 H 120.233 0.403123 -1.43859 0
M  V30 1200 H 122.115 3.37352 -2.5253 0
M  V30 1201 H 120.79 2.90684 -1.42423 0
M  V30 1202 H 119.697 1.63803 -3.36332 0
M  V30 1203 H 121.03 2.17282 -4.41644 0
M  V30 1204 N 122.682 1.50554 0.465978 0
M  V30 1205 C 123.93 1.61479 1.21528 0
M  V30 1206 C 124.251 0.319596 1.92363 0
M  V30 1207 O 123.521 -0.663194 1.84333 0
M  V30 1208 H 122.101 0.595055 0.451573 0
M  V30 1209 H 124.763 1.87355 0.53704 0
M  V30 1210 H 123.859 2.42846 1.96042 0
M  V30 1211 N 124.16 -0.719506 1.40217 0
M  V30 1212 C 125.108 -1.85493 1.40339 0
M  V30 1213 C 126.102 -1.66995 0.284415 0
M  V30 1214 O 127.308 -1.74148 0.455252 0
M  V30 1215 H 123.683 -0.610857 0.438586 0
M  V30 1216 H 125.654 -1.82506 2.36081 0
M  V30 1217 C 124.403 -3.23321 1.27901 0
M  V30 1218 H 123.726 -3.38159 2.1328 0
M  V30 1219 H 125.166 -4.02914 1.32045 0
M  V30 1220 C 123.625 -3.36898 -0.0111355 0
M  V30 1221 O 124.155 -3.89674 -0.975538 0
M  V30 1222 N 122.361 -2.90492 -0.0793393 0
M  V30 1223 H 121.908 -2.47731 0.706183 0
M  V30 1224 H 121.866 -2.99955 -0.942038 0
M  V30 1225 N 125.638 -1.25649 -0.95132 0
M  V30 1226 C 126.57 -1.02112 -2.05197 0
M  V30 1227 C 127.583 0.0150571 -1.62793 0
M  V30 1228 O 128.772 -0.223874 -1.77091 0
M  V30 1229 C 125.872 -0.522361 -3.3485 0
M  V30 1230 C 125.045 -1.62546 -4.06076 0
M  V30 1231 C 124.104 -1.12649 -5.14001 0
M  V30 1232 O 123.13 -1.82156 -5.39266 0
M  V30 1233 N 124.332 0.03047 -5.80492 0
M  V30 1234 H 127.097 -1.96885 -2.25957 0
M  V30 1235 H 124.658 -1.16899 -1.1201 0
M  V30 1236 H 126.65 -0.172961 -4.0433 0
M  V30 1237 H 125.22 0.33151 -3.10837 0
M  V30 1238 H 124.44 -2.14628 -3.30649 0
M  V30 1239 H 125.728 -2.36644 -4.50419 0
M  V30 1240 H 125.126 0.611169 -5.62389 0
M  V30 1241 H 123.683 0.320875 -6.5101 0
M  V30 1242 N 127.117 1.15442 -1.07289 0
M  V30 1243 C 128.533 1.38201 -0.798288 0
M  V30 1244 C 128.733 1.92429 0.597769 0
M  V30 1245 O 127.789 2.12962 1.3566 0
M  V30 1246 C 129.102 2.35357 -1.87156 0
M  V30 1247 C 130.65 2.49021 -1.89624 0
M  V30 1248 C 131.125 3.49468 -2.96034 0
M  V30 1249 N 132.616 3.57003 -2.95132 0
M  V30 1250 C 133.351 4.34543 -3.74112 0
M  V30 1251 N 132.847 5.15421 -4.6294 0
M  V30 1252 N 134.64 4.29625 -3.62462 0
M  V30 1253 H 126.791 0.78584 -1.97328 0
M  V30 1254 H 129.054 0.408065 -0.855679 0
M  V30 1255 H 128.76 2.02626 -2.87464 0
M  V30 1256 H 128.634 3.35129 -1.73114 0
M  V30 1257 H 131.021 2.81051 -0.899687 0
M  V30 1258 H 131.102 1.4925 -2.07745 0
M  V30 1259 H 130.746 3.18173 -3.95889 0
M  V30 1260 H 130.676 4.48992 -2.75161 0
M  V30 1261 H 133.167 2.99276 -2.30743 0
M  V30 1262 H 133.48 5.7183 -5.19837 0
M  V30 1263 H 131.825 5.14729 -4.66989 0
M  V30 1264 H 135.016 3.65505 -2.92444 0
M  V30 1265 H 135.189 4.89807 -4.24256 0
M  V30 1266 N 128.595 0.856903 1.32268 0
M  V30 1267 C 129.841 0.462069 1.97466 0
M  V30 1268 C 130.174 -0.980298 1.67642 0
M  V30 1269 O 129.449 -1.68824 0.965858 0
M  V30 1270 C 129.732 0.704336 3.53145 0
M  V30 1271 C 129.585 2.19529 3.9259 0
M  V30 1272 C 130.904 0.1622 4.39801 0
M  V30 1273 H 128.023 0.169357 0.717278 0
M  V30 1274 H 130.665 1.07574 1.56614 0
M  V30 1275 H 128.815 0.181999 3.88073 0
M  V30 1276 H 130.487 2.78387 3.67829 0
M  V30 1277 H 128.73 2.67292 3.41668 0
M  V30 1278 H 129.401 2.31549 5.01088 0
M  V30 1279 H 131.877 0.608905 4.11621 0
M  V30 1280 H 130.753 0.361265 5.4771 0
M  V30 1281 H 131.014 -0.935158 4.32096 0
M  V30 1282 N 130.073 -1.45103 0.615059 0
M  V30 1283 C 131.322 -2.01396 0.110718 0
M  V30 1284 C 131.635 -1.48834 -1.26916 0
M  V30 1285 O 132.841 -1.97152 -1.86664 0
M  V30 1286 C 131.297 -3.59599 0.14723 0
M  V30 1287 C 130.905 -4.21158 1.52743 0
M  V30 1288 C 132.649 -4.23428 -0.30148 0
M  V30 1289 C 130.556 -5.71535 1.51992 0
M  V30 1290 H 129.486 -0.753061 0.0376241 0
M  V30 1291 H 132.137 -1.66494 0.77149 0
M  V30 1292 H 130.519 -3.91724 -0.580339 0
M  V30 1293 H 131.693 -4.00594 2.2773 0
M  V30 1294 H 130.008 -3.69552 1.91886 0
M  V30 1295 H 132.605 -5.33703 -0.326392 0
M  V30 1296 H 132.948 -3.94629 -1.32565 0
M  V30 1297 H 133.481 -3.96047 0.373065 0
M  V30 1298 H 130.22 -6.05044 2.52193 0
M  V30 1299 H 129.74 -5.94268 0.81274 0
M  V30 1300 H 131.419 -6.34873 1.24681 0
M  V30 1301 N 131.551 -0.354651 -1.53558 0
M  V30 1302 C 132.8 0.239504 -2.00273 0
M  V30 1303 C 133.113 1.50759 -1.24623 0
M  V30 1304 O 134.319 2.17968 -1.61871 0
M  V30 1305 C 132.775 0.477341 -3.5672 0
M  V30 1306 C 132.383 -0.775488 -4.41237 0
M  V30 1307 C 134.127 1.02975 -4.11821 0
M  V30 1308 C 132.034 -0.507838 -5.89216 0
M  V30 1309 H 130.964 0.0932743 -0.748208 0
M  V30 1310 H 133.615 -0.471701 -1.77334 0
M  V30 1311 H 131.997 1.24953 -3.7577 0
M  V30 1312 H 133.171 -1.54963 -4.33962 0
M  V30 1313 H 131.486 -1.25033 -3.97185 0
M  V30 1314 H 134.083 1.24513 -5.2 0
M  V30 1315 H 134.426 1.98862 -3.65731 0
M  V30 1316 H 134.959 0.317994 -3.96527 0
M  V30 1317 H 131.698 -1.43674 -6.39561 0
M  V30 1318 H 131.218 0.228011 -5.99366 0
M  V30 1319 H 132.897 -0.129238 -6.46871 0
M  V30 1320 N 133.029 1.57378 -0.0835403 0
M  V30 1321 C 133.977 2.14602 0.89714 0
M  V30 1322 C 134.971 1.08589 1.30018 0
M  V30 1323 O 136.177 1.26952 1.27606 0
M  V30 1324 H 132.552 0.686346 0.3073 0
M  V30 1325 H 134.523 2.95845 0.38969 0
M  V30 1326 C 133.272 2.73188 2.15089 0
M  V30 1327 H 132.595 3.54442 1.84962 0
M  V30 1328 H 134.035 3.1681 2.81793 0
M  V30 1329 C 132.494 1.68517 2.91725 0
M  V30 1330 O 133.024 1.11718 3.85852 0
M  V30 1331 N 131.23 1.39277 2.55049 0
M  V30 1332 H 130.777 1.85655 1.78577 0
M  V30 1333 H 130.735 0.694791 3.06627 0
M  V30 1334 N 134.507 -0.190092 1.56449 0
M  V30 1335 C 135.756 -0.907912 1.80111 0
M  V30 1336 C 136.069 -1.84214 0.657619 0
M  V30 1337 O 137.275 -2.60094 0.778663 0
M  V30 1338 C 135.731 -1.66485 3.19078 0
M  V30 1339 C 135.339 -0.7752 4.41242 0
M  V30 1340 C 137.083 -2.37201 3.52045 0
M  V30 1341 C 134.99 -1.53129 5.71231 0
M  V30 1342 H 133.92 -0.34276 0.671589 0
M  V30 1343 H 136.571 -0.161109 1.82791 0
M  V30 1344 H 134.953 -2.45572 3.10661 0
M  V30 1345 H 136.127 -0.0226298 4.60794 0
M  V30 1346 H 134.442 -0.178627 4.16017 0
M  V30 1347 H 137.039 -2.94329 4.46402 0
M  V30 1348 H 137.382 -3.11632 2.76028 0
M  V30 1349 H 137.915 -1.65075 3.61932 0
M  V30 1350 H 134.654 -0.82967 6.50228 0
M  V30 1351 H 134.174 -2.25767 5.55688 0
M  V30 1352 H 135.853 -2.08377 6.12526 0
M  V30 1353 N 135.985 -1.50799 -0.457987 0
M  V30 1354 C 136.948 -1.7005 -1.53674 0
M  V30 1355 C 137.948 -0.570881 -1.50325 0
M  V30 1356 O 139.138 -0.838126 -1.52712 0
M  V30 1357 C 136.27 -1.73788 -2.93276 0
M  V30 1358 H 137.463 -2.66306 -1.37917 0
M  V30 1359 H 135.016 -1.40477 -0.685271 0
M  V30 1360 H 135.751 -0.792717 -3.14462 0
M  V30 1361 H 135.536 -2.55864 -2.97113 0
M  V30 1362 H 137.026 -1.90591 -3.71571 0
M  V30 1363 N 137.463 0.71206 -1.40597 0
M  V30 1364 C 138.711 1.46907 -1.38791 0
M  V30 1365 C 139.032 1.94998 0.00780391 0
M  V30 1366 O 138.302 1.70587 0.963174 0
M  V30 1367 H 136.882 0.545043 -0.51082 0
M  V30 1368 H 139.544 0.843882 -1.75683 0
M  V30 1369 H 138.64 2.34021 -2.06496 0
M  V30 1370 N 138.941 1.26152 0.944643 0
M  V30 1371 C 139.871 1.09902 2.06019 0
M  V30 1372 C 140.852 0.00519538 1.70099 0
M  V30 1373 O 142.037 0.176583 1.93396 0
M  V30 1374 C 139.167 0.727562 3.39594 0
M  V30 1375 C 138.121 1.77274 3.89561 0
M  V30 1376 C 137.447 1.25569 5.19747 0
M  V30 1377 C 138.747 3.17357 4.14827 0
M  V30 1378 H 140.441 2.03217 2.19871 0
M  V30 1379 H 137.987 0.978452 1.05652 0
M  V30 1380 H 139.94 0.600777 4.17095 0
M  V30 1381 H 138.664 -0.241287 3.25707 0
M  V30 1382 H 137.323 1.88814 3.14237 0
M  V30 1383 H 136.971 0.276783 5.02238 0
M  V30 1384 H 136.671 1.95433 5.54148 0
M  V30 1385 H 138.195 1.1415 5.99835 0
M  V30 1386 H 139.609 3.08914 4.82954 0
M  V30 1387 H 138.006 3.84781 4.60504 0
M  V30 1388 H 139.076 3.63673 3.20734 0
M  V30 1389 N 140.419 -1.14872 1.07899 0
M  V30 1390 C 141.835 -1.37776 0.805606 0
M  V30 1391 C 142.035 -1.92743 -0.587555 0
M  V30 1392 O 141.091 -2.13678 -1.34528 0
M  V30 1393 C 142.404 -2.34361 1.88402 0
M  V30 1394 C 143.952 -2.48012 1.90942 0
M  V30 1395 C 144.427 -3.47893 2.97883 0
M  V30 1396 N 145.918 -3.55433 2.97021 0
M  V30 1397 C 146.653 -4.32553 3.76412 0
M  V30 1398 N 146.149 -5.12959 4.65666 0
M  V30 1399 N 147.942 -4.27697 3.64735 0
M  V30 1400 H 140.093 -0.775365 1.97742 0
M  V30 1401 H 142.356 -0.403521 0.857831 0
M  V30 1402 H 142.062 -2.01098 2.88535 0
M  V30 1403 H 141.936 -3.34206 1.74889 0
M  V30 1404 H 144.323 -2.8057 0.914579 0
M  V30 1405 H 144.404 -1.48147 2.08534 0
M  V30 1406 H 144.048 -3.16069 3.97571 0
M  V30 1407 H 143.978 -4.47527 2.77538 0
M  V30 1408 H 146.469 -2.98048 2.32326 0
M  V30 1409 H 146.782 -5.69065 5.22862 0
M  V30 1410 H 145.127 -5.12245 4.69712 0
M  V30 1411 H 148.318 -3.63949 2.94378 0
M  V30 1412 H 148.491 -4.8755 4.26848 0
M  V30 1413 N 141.898 -0.863906 -1.31812 0
M  V30 1414 C 143.145 -0.471836 -1.96926 0
M  V30 1415 C 143.473 0.974578 -1.68322 0
M  V30 1416 O 142.728 1.7003 -0.968933 0
M  V30 1417 C 143.027 -0.668547 -3.51091 0
M  V30 1418 C 142.693 -2.08683 -3.99703 0
M  V30 1419 C 141.355 -2.47471 -4.12688 0
M  V30 1420 C 143.707 -3.01207 -4.25351 0
M  V30 1421 C 141.035 -3.78037 -4.4867 0
M  V30 1422 C 143.387 -4.31282 -4.62794 0
M  V30 1423 C 142.051 -4.69992 -4.73987 0
M  V30 1424 H 141.321 -0.172657 -0.720604 0
M  V30 1425 H 143.968 -1.09573 -1.57054 0
M  V30 1426 H 142.273 0.0385252 -3.91781 0
M  V30 1427 H 143.97 -0.345102 -3.99512 0
M  V30 1428 H 140.56 -1.77566 -3.90087 0
M  V30 1429 H 144.744 -2.72469 -4.14819 0
M  V30 1430 H 140 -4.078 -4.55532 0
M  V30 1431 H 144.174 -5.03031 -4.81594 0
M  V30 1432 H 141.801 -5.71207 -5.01624 0
M  V30 1433 N 143.376 1.44774 -0.622745 0
M  V30 1434 C 144.286 2.34433 0.0886031 0
M  V30 1435 C 145.302 1.52131 0.844529 0
M  V30 1436 O 146.478 1.84886 0.798691 0
M  V30 1437 C 143.543 3.29986 1.0635 0
M  V30 1438 C 142.604 4.28195 0.307873 0
M  V30 1439 C 141.837 5.19183 1.23633 0
M  V30 1440 O 142.06 5.13918 2.47476 0
M  V30 1441 O 140.994 5.97515 0.725189 0
M  V30 1442 H 144.82 2.96693 -0.648599 0
M  V30 1443 H 142.405 1.44408 -0.382957 0
M  V30 1444 H 144.287 3.88825 1.6246 0
M  V30 1445 H 142.962 2.70269 1.78146 0
M  V30 1446 H 141.869 3.72927 -0.296064 0
M  V30 1447 H 143.202 4.90808 -0.3699 0
M  V30 1448 N 144.854 0.36279 1.53368 0
M  V30 1449 C 146.082 -0.228613 2.05633 0
M  V30 1450 C 146.497 -1.42676 1.23649 0
M  V30 1451 O 145.854 -1.80394 0.27647 0
M  V30 1452 C 145.905 -0.624845 3.56059 0
M  V30 1453 O 145.626 0.525675 4.34935 0
M  V30 1454 C 147.127 -1.27493 4.24571 0
M  V30 1455 H 144.347 -0.0407183 0.669763 0
M  V30 1456 H 146.891 0.520352 1.97769 0
M  V30 1457 H 145.046 -1.32373 3.64083 0
M  V30 1458 H 145.46 0.205969 5.24095 0
M  V30 1459 H 146.934 -1.50277 5.31151 0
M  V30 1460 H 147.411 -2.23439 3.78116 0
M  V30 1461 H 148.017 -0.617558 4.20792 0
M  V30 1462 N 146.332 -1.57332 0.0918853 0
M  V30 1463 C 147.264 -2.10869 -0.898168 0
M  V30 1464 C 148.277 -1.04521 -1.24817 0
M  V30 1465 O 149.466 -1.31977 -1.20184 0
M  V30 1466 C 146.566 -2.57083 -2.2082 0
M  V30 1467 C 145.739 -3.87229 -2.03402 0
M  V30 1468 C 144.798 -4.19324 -3.17889 0
M  V30 1469 O 143.824 -4.88598 -2.91994 0
M  V30 1470 N 145.026 -3.74471 -4.43567 0
M  V30 1471 H 147.791 -2.96439 -0.440943 0
M  V30 1472 H 145.352 -1.61631 -0.0933064 0
M  V30 1473 H 147.344 -2.75602 -2.96354 0
M  V30 1474 H 145.914 -1.76541 -2.57977 0
M  V30 1475 H 145.134 -3.7789 -1.12218 0
M  V30 1476 H 146.422 -4.72379 -1.89038 0
M  V30 1477 H 145.82 -3.18546 -4.67488 0
M  V30 1478 H 144.377 -3.98151 -5.16061 0
M  V30 1479 N 147.81 0.181792 -1.56548 0
M  V30 1480 C 148.74 1.22765 -1.98623 0
M  V30 1481 C 149.721 1.46747 -0.860189 0
M  V30 1482 O 150.906 1.58259 -1.12551 0
M  V30 1483 C 148.036 2.56894 -2.33715 0
M  V30 1484 C 146.99 2.475 -3.49182 0
M  V30 1485 C 146.316 3.86023 -3.69986 0
M  V30 1486 C 147.616 1.98866 -4.82959 0
M  V30 1487 H 149.31 0.877942 -2.86239 0
M  V30 1488 H 146.856 0.42088 -1.37712 0
M  V30 1489 H 148.809 3.30253 -2.61746 0
M  V30 1490 H 147.533 2.93632 -1.42997 0
M  V30 1491 H 146.192 1.76596 -3.21262 0
M  V30 1492 H 145.84 4.20136 -2.76576 0
M  V30 1493 H 145.54 3.80609 -4.47672 0
M  V30 1494 H 147.064 4.60984 -4.00407 0
M  V30 1495 H 148.478 2.61992 -5.09934 0
M  V30 1496 H 146.875 2.04424 -5.64208 0
M  V30 1497 H 147.945 0.942465 -4.75653 0
M  V30 1498 N 149.288 1.51039 0.449983 0
M  V30 1499 C 150.704 1.38934 0.785462 0
M  V30 1500 C 150.904 0.461817 1.96136 0
M  V30 1501 O 149.96 -0.0877389 2.52348 0
M  V30 1502 C 151.273 2.80724 1.0777 0
M  V30 1503 C 152.821 2.89787 1.1829 0
M  V30 1504 C 153.296 4.32457 1.50815 0
M  V30 1505 N 154.787 4.35505 1.57764 0
M  V30 1506 C 155.522 5.42914 1.84477 0
M  V30 1507 N 155.018 6.60502 2.09068 0
M  V30 1508 N 156.811 5.3038 1.86155 0
M  V30 1509 H 148.962 2.09904 -0.324647 0
M  V30 1510 H 151.225 0.944378 -0.0827957 0
M  V30 1511 H 150.931 3.50531 0.286498 0
M  V30 1512 H 150.805 3.19273 2.00859 0
M  V30 1513 H 153.192 2.20186 1.96474 0
M  V30 1514 H 153.273 2.54752 0.231314 0
M  V30 1515 H 152.917 5.02603 0.731622 0
M  V30 1516 H 152.847 4.64995 2.47158 0
M  V30 1517 H 155.338 3.50724 1.40715 0
M  V30 1518 H 155.651 7.38158 2.28785 0
M  V30 1519 H 153.996 6.63639 2.06416 0
M  V30 1520 H 157.187 4.37505 1.66454 0
M  V30 1521 H 157.36 6.1417 2.06637 0
M  V30 1522 N 150.766 -0.704594 1.40972 0
M  V30 1523 C 151.994 -1.49354 1.43182 0
M  V30 1524 C 152.409 -1.88768 0.0345508 0
M  V30 1525 O 151.766 -1.56184 -0.944081 0
M  V30 1526 C 151.817 -2.76187 2.33244 0
M  V30 1527 O 151.538 -2.38436 3.67532 0
M  V30 1528 C 153.039 -3.7 2.44162 0
M  V30 1529 H 150.259 -0.460559 0.487982 0
M  V30 1530 H 152.803 -0.868261 1.85153 0
M  V30 1531 H 150.958 -3.34974 1.94606 0
M  V30 1532 H 151.372 -3.20126 4.15475 0
M  V30 1533 H 152.846 -4.55803 3.11364 0
M  V30 1534 H 153.323 -4.13867 1.47006 0
M  V30 1535 H 153.929 -3.17121 2.83398 0
M  V30 1536 N 152.244 -1.26651 -0.937939 0
M  V30 1537 C 153.174 -1.10993 -2.05433 0
M  V30 1538 C 154.155 -0.0142161 -1.70094 0
M  V30 1539 O 155.34 -0.186837 -1.93299 0
M  V30 1540 C 152.47 -0.745561 -3.39203 0
M  V30 1541 C 151.424 -1.79337 -3.88616 0
M  V30 1542 C 150.75 -1.28324 -5.19073 0
M  V30 1543 C 152.05 -3.19553 -4.13138 0
M  V30 1544 H 153.744 -2.0438 -2.1879 0
M  V30 1545 H 151.29 -0.984041 -1.05131 0
M  V30 1546 H 153.243 -0.622888 -4.16771 0
M  V30 1547 H 151.967 0.22401 -3.25831 0
M  V30 1548 H 150.626 -1.90477 -3.13231 0
M  V30 1549 H 150.274 -0.303414 -5.02084 0
M  V30 1550 H 149.974 -1.98369 -5.53103 0
M  V30 1551 H 151.498 -1.1733 -5.99221 0
M  V30 1552 H 152.912 -3.11471 -4.81309 0
M  V30 1553 H 151.309 -3.87218 -4.58457 0
M  V30 1554 H 152.379 -3.65368 -3.18801 0
M  V30 1555 N 153.722 1.14298 -1.08507 0
M  V30 1556 C 154.947 1.8976 -0.837001 0
M  V30 1557 C 155.372 1.78097 0.605228 0
M  V30 1558 O 154.73 1.12188 1.4242 0
M  V30 1559 C 154.778 3.37685 -1.26495 0
M  V30 1560 O 153.882 4.10281 -0.417514 0
M  V30 1561 H 153.223 0.590365 -0.303917 0
M  V30 1562 H 155.753 1.44672 -1.44676 0
M  V30 1563 H 155.763 3.88501 -1.24625 0
M  V30 1564 H 154.438 3.45492 -2.31534 0
M  V30 1565 H 153.015 3.69536 -0.499722 0
M  V30 1566 N 155.201 0.870884 1.31352 0
M  V30 1567 C 156.133 0.28455 2.27427 0
M  V30 1568 C 157.146 -0.552927 1.53123 0
M  V30 1569 O 158.335 -0.374771 1.74521 0
M  V30 1570 C 155.435 -0.615164 3.3327 0
M  V30 1571 C 154.608 0.190079 4.36987 0
M  V30 1572 C 153.667 -0.637917 5.22319 0
M  V30 1573 O 152.693 -0.065626 5.69162 0
M  V30 1574 N 153.895 -1.94973 5.46778 0
M  V30 1575 H 156.66 1.11017 2.7838 0
M  V30 1576 H 154.221 0.732458 1.44384 0
M  V30 1577 H 156.213 -1.1748 3.87273 0
M  V30 1578 H 154.783 -1.34146 2.82354 0
M  V30 1579 H 154.003 0.931165 3.83044 0
M  V30 1580 H 155.291 0.742579 5.03352 0
M  V30 1581 H 154.689 -2.4378 5.10478 0
M  V30 1582 H 153.246 -2.45713 6.03712 0
M  V30 1583 N 156.679 -1.44442 0.630414 0
M  V30 1584 C 157.926 -2.02052 0.134617 0
M  V30 1585 C 158.254 -1.49576 -1.24327 0
M  V30 1586 O 157.509 -0.669806 -1.83881 0
M  V30 1587 C 157.808 -3.57332 0.0697835 0
M  V30 1588 C 157.474 -4.29058 1.38635 0
M  V30 1589 C 156.136 -4.4837 1.74694 0
M  V30 1590 C 158.488 -4.69872 2.25543 0
M  V30 1591 C 155.816 -5.05756 2.97369 0
M  V30 1592 C 158.168 -5.28616 3.47487 0
M  V30 1593 C 156.832 -5.46147 3.8377 0
M  V30 1594 H 156.102 -0.739361 0.0492598 0
M  V30 1595 H 158.749 -1.73217 0.816586 0
M  V30 1596 H 157.054 -3.85577 -0.695553 0
M  V30 1597 H 158.751 -3.99637 -0.330344 0
M  V30 1598 H 155.341 -4.14357 1.09574 0
M  V30 1599 H 159.525 -4.54666 1.98979 0
M  V30 1600 H 154.781 -5.17515 3.25558 0
M  V30 1601 H 158.955 -5.59192 4.15063 0
M  V30 1602 H 156.582 -5.9038 4.7891 0
M  V30 1603 N 158.157 -0.370918 -1.53173 0
M  V30 1604 C 159.568 0.107139 -1.86392 0
M  V30 1605 C 159.919 1.47714 -1.29132 0
M  V30 1606 O 159.044 2.07464 -0.615439 0
M  V30 1607 C 159.639 0.201187 -3.38202 0
M  V30 1608 C 158.198 0.623507 -3.712 0
M  V30 1609 C 157.345 -0.225978 -2.76378 0
M  V30 1610 H 160.296 -0.58951 -1.47345 0
M  V30 1611 H 160.317 1.02377 -3.66468 0
M  V30 1612 H 159.829 -0.796058 -3.79848 0
M  V30 1613 H 157.93 1.62879 -3.35114 0
M  V30 1614 H 158.043 0.394414 -4.77474 0
M  V30 1615 H 156.407 0.305962 -2.52856 0
M  V30 1616 H 157.19 -1.22086 -3.20858 0
M  V30 1617 N 159.635 1.57281 -0.100228 0
M  V30 1618 C 160.545 2.17833 0.870965 0
M  V30 1619 C 161.561 1.14921 1.30649 0
M  V30 1620 O 162.737 1.47313 1.37335 0
M  V30 1621 C 159.802 2.75085 2.1102 0
M  V30 1622 C 158.863 3.9297 1.72838 0
M  V30 1623 C 158.096 4.47482 2.90854 0
M  V30 1624 O 158.319 4.00922 4.05731 0
M  V30 1625 O 157.253 5.38433 2.69023 0
M  V30 1626 H 161.079 3.0124 0.38575 0
M  V30 1627 H 158.664 1.48881 0.124397 0
M  V30 1628 H 160.546 3.11656 2.83634 0
M  V30 1629 H 159.221 1.94721 2.58584 0
M  V30 1630 H 158.128 3.61201 0.973883 0
M  V30 1631 H 159.461 4.74713 1.30033 0
M  V30 1632 N 161.113 -0.173488 1.56642 0
M  V30 1633 C 162.341 -0.906095 1.86004 0
M  V30 1634 C 162.756 -1.75921 0.685355 0
M  V30 1635 O 162.113 -1.79198 -0.345578 0
M  V30 1636 C 162.164 -1.78462 3.14378 0
M  V30 1637 O 161.885 -0.965914 4.27319 0
M  V30 1638 C 163.386 -2.62707 3.57071 0
M  V30 1639 H 160.606 -0.263341 0.617165 0
M  V30 1640 H 163.15 -0.174236 2.03756 0
M  V30 1641 H 161.305 -2.46984 2.98459 0
M  V30 1642 H 161.719 -1.56655 5.00559 0
M  V30 1643 H 163.193 -3.19969 4.49804 0
M  V30 1644 H 163.67 -3.37472 2.81086 0
M  V30 1645 H 164.276 -1.99521 3.75595 0
M  V30 1646 N 162.591 -1.51276 -0.441967 0
M  V30 1647 C 163.521 -1.752 -1.54361 0
M  V30 1648 C 164.502 -0.601682 -1.59103 0
M  V30 1649 O 165.687 -0.843913 -1.74905 0
M  V30 1650 C 162.817 -1.87282 -2.92477 0
M  V30 1651 C 161.771 -3.02687 -3.02596 0
M  V30 1652 C 161.097 -2.99947 -4.42647 0
M  V30 1653 C 162.397 -4.4273 -2.77106 0
M  V30 1654 H 164.091 -2.67442 -1.34592 0
M  V30 1655 H 161.637 -1.28694 -0.646048 0
M  V30 1656 H 163.59 -2.02602 -3.695 0
M  V30 1657 H 162.314 -0.916844 -3.13467 0
M  V30 1658 H 160.973 -2.87065 -2.28012 0
M  V30 1659 H 160.621 -2.02136 -4.60597 0
M  V30 1660 H 160.321 -3.77439 -4.50348 0
M  V30 1661 H 161.845 -3.17354 -5.2165 0
M  V30 1662 H 163.259 -4.58727 -3.43864 0
M  V30 1663 H 161.656 -5.21893 -2.96222 0
M  V30 1664 H 162.726 -4.53087 -1.72744 0
M  V30 1665 N 164.069 0.697108 -1.41344 0
M  V30 1666 C 164.999 1.82353 -1.45841 0
M  V30 1667 C 165.98 1.67115 -0.317247 0
M  V30 1668 O 167.165 1.86871 -0.528474 0
M  V30 1669 C 164.295 3.20476 -1.33838 0
M  V30 1670 C 163.249 3.50415 -2.4575 0
M  V30 1671 C 162.575 4.87878 -2.18813 0
M  V30 1672 C 163.875 3.49546 -3.88091 0
M  V30 1673 H 165.569 1.78846 -2.40113 0
M  V30 1674 H 163.115 0.859028 -1.15571 0
M  V30 1675 H 165.068 3.98988 -1.35596 0
M  V30 1676 H 163.792 3.24604 -0.360498 0
M  V30 1677 H 162.451 2.74253 -2.43271 0
M  V30 1678 H 162.099 4.8863 -1.19371 0
M  V30 1679 H 161.799 5.08875 -2.93803 0
M  V30 1680 H 163.323 5.68702 -2.22284 0
M  V30 1681 H 164.737 4.18066 -3.92293 0
M  V30 1682 H 163.134 3.82075 -4.62751 0
M  V30 1683 H 164.204 2.48552 -4.16353 0
M  V30 1684 N 165.547 1.27147 0.931209 0
M  V30 1685 C 166.795 1.13055 1.6752 0
M  V30 1686 C 167.116 -0.324791 1.92276 0
M  V30 1687 O 166.386 -1.22775 1.52654 0
M  V30 1688 H 164.966 0.415391 0.620854 0
M  V30 1689 H 167.628 1.59623 1.11833 0
M  V30 1690 H 166.724 1.65694 2.64485 0
M  V30 1691 N 167.025 -1.13721 1.09112 0
M  V30 1692 C 168.302 -1.81155 0.737706 0
M  V30 1693 C 168.682 -1.96253 -0.777683 0
M  V30 1694 O 168.03 -1.52807 -1.69889 0
M  V30 1695 C 168.24 -3.16392 1.47299 0
M  V30 1696 C 169.588 -3.91787 1.63671 0
M  V30 1697 O 170.612 -3.26005 1.43524 0
M  V30 1698 O 169.471 -5.0977 1.96969 0
M  V30 1699 H 166.565 -0.783518 0.26463 0
M  V30 1700 H 169.111 -1.20676 1.19312 0
M  V30 1701 H 167.883 -3.0061 2.50498 0
M  V30 1702 H 167.506 -3.8457 1.00953 0
M  V30 1703 N 168.503 -0.877838 -1.30888 0
M  V30 1704 C 169.919 -0.570844 -1.49042 0
M  V30 1705 C 170.119 0.893159 -1.80624 0
M  V30 1706 O 169.175 1.67485 -1.88958 0
M  V30 1707 C 170.488 -1.47784 -2.61878 0
M  V30 1708 C 172.036 -1.48071 -2.75761 0
M  V30 1709 C 172.511 -2.37347 -3.91702 0
M  V30 1710 N 174.002 -2.35271 -3.99001 0
M  V30 1711 C 174.737 -3.01063 -4.88004 0
M  V30 1712 N 174.233 -3.76055 -5.81854 0
M  V30 1713 N 176.026 -2.90332 -4.81315 0
M  V30 1714 H 168.177 -1.82502 -1.0866 0
M  V30 1715 H 170.44 -0.780797 -0.537644 0
M  V30 1716 H 170.146 -2.51993 -2.45341 0
M  V30 1717 H 170.02 -1.18215 -3.58197 0
M  V30 1718 H 172.407 -0.446166 -2.91708 0
M  V30 1719 H 172.488 -1.81668 -1.80085 0
M  V30 1720 H 172.132 -3.40883 -3.76512 0
M  V30 1721 H 172.062 -2.01071 -4.86701 0
M  V30 1722 H 174.553 -1.80768 -3.3186 0
M  V30 1723 H 174.866 -4.23366 -6.46514 0
M  V30 1724 H 173.211 -3.80163 -5.81808 0
M  V30 1725 H 176.402 -2.31278 -4.06974 0
M  V30 1726 H 176.575 -3.41885 -5.50471 0
M  V30 1727 N 169.982 1.44106 -0.638065 0
M  V30 1728 C 170.892 2.34513 0.0637334 0
M  V30 1729 C 171.908 1.53018 0.828346 0
M  V30 1730 O 173.084 1.85723 0.779036 0
M  V30 1731 C 170.149 3.31095 1.02844 0
M  V30 1732 C 169.21 4.28497 0.26244 0
M  V30 1733 C 168.443 5.20465 1.1812 0
M  V30 1734 O 168.666 5.16514 2.42011 0
M  V30 1735 O 167.6 5.98251 0.661774 0
M  V30 1736 H 171.426 2.95989 -0.68003 0
M  V30 1737 H 169.011 1.43994 -0.398252 0
M  V30 1738 H 170.893 3.90526 1.58327 0
M  V30 1739 H 169.568 2.72144 1.7527 0
M  V30 1740 H 168.475 3.72592 -0.335602 0
M  V30 1741 H 169.808 4.90388 -0.421936 0
M  V30 1742 N 171.46 0.379036 1.52974 0
M  V30 1743 C 172.407 -0.461048 2.26148 0
M  V30 1744 C 173.377 -1.06637 1.27349 0
M  V30 1745 O 174.562 -1.09633 1.56157 0
M  V30 1746 C 171.702 -1.58782 3.06402 0
M  V30 1747 C 170.815 -1.00636 4.20115 0
M  V30 1748 C 169.95 -2.10334 4.87784 0
M  V30 1749 C 168.989 -1.49724 5.93506 0
M  V30 1750 N 168.126 -2.5331 6.54812 0
M  V30 1751 H 172.966 0.169429 2.97518 0
M  V30 1752 H 170.503 0.0953806 1.4679 0
M  V30 1753 H 172.461 -2.25174 3.51215 0
M  V30 1754 H 171.091 -2.18876 2.37261 0
M  V30 1755 H 170.143 -0.232332 3.7969 0
M  V30 1756 H 171.455 -0.523343 4.96047 0
M  V30 1757 H 170.609 -2.84519 5.35849 0
M  V30 1758 H 169.348 -2.61992 4.11353 0
M  V30 1759 H 168.353 -0.740598 5.44789 0
M  V30 1760 H 169.578 -0.988732 6.71864 0
M  V30 1761 H 167.524 -3.04156 5.81227 0
M  V30 1762 H 167.441 -2.09734 7.26325 0
M  V30 1763 H 168.709 -3.27155 7.07524 0
M  V30 1764 N 172.938 -1.57226 0.108567 0
M  V30 1765 C 174.354 -1.5766 -0.248058 0
M  V30 1766 C 174.554 -1.12063 -1.67464 0
M  V30 1767 O 173.61 -0.803236 -2.39383 0
M  V30 1768 C 174.923 -3.0069 -0.0242287 0
M  V30 1769 C 176.471 -3.12868 -0.0909372 0
M  V30 1770 C 176.946 -4.57879 0.105067 0
M  V30 1771 N 178.437 -4.63172 0.0506846 0
M  V30 1772 C 179.172 -5.73126 0.177396 0
M  V30 1773 N 178.668 -6.91866 0.359696 0
M  V30 1774 N 180.461 -5.61977 0.117709 0
M  V30 1775 H 172.612 -1.85169 1.04049 0
M  V30 1776 H 174.875 -0.85529 0.40888 0
M  V30 1777 H 174.581 -3.38299 0.961604 0
M  V30 1778 H 174.455 -3.6945 -0.76068 0
M  V30 1779 H 176.842 -2.75124 -1.06729 0
M  V30 1780 H 176.923 -2.46672 0.677225 0
M  V30 1781 H 176.567 -4.96321 1.07834 0
M  V30 1782 H 176.497 -5.22153 -0.682954 0
M  V30 1783 H 178.988 -3.778 -0.0871266 0
M  V30 1784 H 179.301 -7.71503 0.447529 0
M  V30 1785 H 177.646 -6.93874 0.395536 0
M  V30 1786 H 180.837 -4.68094 -0.0236741 0
M  V30 1787 H 181.01 -6.47627 0.219905 0
M  V30 1788 N 174.416 0.165178 -1.56732 0
M  V30 1789 C 175.349 1.23336 -1.91998 0
M  V30 1790 C 176.327 1.42476 -0.783531 0
M  V30 1791 O 177.511 1.57384 -1.03743 0
M  V30 1792 C 174.638 2.59533 -2.17625 0
M  V30 1793 C 173.684 2.57093 -3.40302 0
M  V30 1794 S 174.517 2.05571 -4.9447 0
M  V30 1795 C 175.673 3.43532 -5.23198 0
M  V30 1796 H 175.906 0.932387 -2.82301 0
M  V30 1797 H 173.439 0.370013 -1.49901 0
M  V30 1798 H 175.397 3.37918 -2.3307 0
M  V30 1799 H 174.058 2.86827 -1.28019 0
M  V30 1800 H 173.251 3.57308 -3.55453 0
M  V30 1801 H 172.853 1.86806 -3.24005 0
M  V30 1802 H 175.145 4.39559 -5.15552 0
M  V30 1803 H 176.088 3.33251 -6.2478 0
M  V30 1804 H 176.496 3.39828 -4.50752 0
M  V30 1805 N 175.894 1.51508 0.433938 0
M  V30 1806 C 176.826 1.69266 1.54537 0
M  V30 1807 C 177.839 0.573276 1.52373 0
M  V30 1808 O 179.028 0.847698 1.57087 0
M  V30 1809 C 176.128 1.69524 2.93453 0
M  V30 1810 C 175.301 2.98101 3.20085 0
M  V30 1811 C 174.36 2.90502 4.38742 0
M  V30 1812 O 173.386 3.64442 4.3723 0
M  V30 1813 N 174.588 2.06586 5.42496 0
M  V30 1814 H 177.353 2.65145 1.39708 0
M  V30 1815 H 174.914 1.49437 0.622922 0
M  V30 1816 H 176.906 1.62004 3.70859 0
M  V30 1817 H 175.476 0.812245 3.01863 0
M  V30 1818 H 174.696 3.19464 2.30947 0
M  V30 1819 H 175.984 3.83207 3.34708 0
M  V30 1820 H 175.382 1.45896 5.46563 0
M  V30 1821 H 173.939 2.04943 6.18742 0
M  V30 1822 N 177.372 -0.689602 1.41712 0
M  V30 1823 C 178.619 -1.44966 1.4139 0
M  V30 1824 C 178.947 -1.94484 0.025105 0
M  V30 1825 O 178.202 -1.70307 -0.964048 0
M  V30 1826 C 178.501 -2.67298 2.37247 0
M  V30 1827 C 178.167 -2.36405 3.83958 0
M  V30 1828 C 176.829 -2.27691 4.23923 0
M  V30 1829 C 179.181 -2.11043 4.76561 0
M  V30 1830 C 176.509 -1.91719 5.54492 0
M  V30 1831 C 178.861 -1.76578 6.07456 0
M  V30 1832 C 177.525 -1.66363 6.46436 0
M  V30 1833 H 176.795 -0.53047 0.517381 0
M  V30 1834 H 179.442 -0.787655 1.74552 0
M  V30 1835 H 177.747 -3.38461 1.9736 0
M  V30 1836 H 179.444 -3.25452 2.34269 0
M  V30 1837 H 176.034 -2.44085 3.52308 0
M  V30 1838 H 180.218 -2.16717 4.46483 0
M  V30 1839 H 175.474 -1.82367 5.83568 0
M  V30 1840 H 179.648 -1.55974 6.78708 0
M  V30 1841 H 177.275 -1.38258 7.47522 0
M  V30 1842 N 178.85 -1.27639 -0.924453 0
M  V30 1843 C 180.097 -1.14167 -1.67249 0
M  V30 1844 C 180.425 0.311863 -1.91984 0
M  V30 1845 O 179.68 1.24425 -1.51053 0
M  V30 1846 C 179.979 -1.87407 -3.04325 0
M  V30 1847 C 179.645 -3.37249 -2.99289 0
M  V30 1848 C 178.307 -3.7812 -2.97622 0
M  V30 1849 C 180.659 -4.32845 -2.90336 0
M  V30 1850 C 177.987 -5.12944 -2.8479 0
M  V30 1851 C 180.339 -5.6773 -2.79045 0
M  V30 1852 C 179.003 -6.07889 -2.7573 0
M  V30 1853 H 178.273 -0.417766 -0.612007 0
M  V30 1854 H 180.92 -1.58286 -1.07786 0
M  V30 1855 H 179.225 -1.35805 -3.67511 0
M  V30 1856 H 180.922 -1.74408 -3.61086 0
M  V30 1857 H 177.512 -3.04748 -3.01374 0
M  V30 1858 H 181.696 -4.02239 -2.90719 0
M  V30 1859 H 176.952 -5.432 -2.80612 0
M  V30 1860 H 181.126 -6.41472 -2.71083 0
M  V30 1861 H 178.753 -7.12314 -2.65544 0
M  V30 1862 N 180.328 1.1314 -1.09713 0
M  V30 1863 C 181.605 1.80762 -0.747302 0
M  V30 1864 C 181.985 1.96663 0.767265 0
M  V30 1865 O 181.333 1.53706 1.69076 0
M  V30 1866 C 181.543 3.15606 -1.48975 0
M  V30 1867 C 182.891 3.90914 -1.65746 0
M  V30 1868 O 183.915 3.25239 -1.45251 0
M  V30 1869 O 182.774 5.08718 -1.9967 0
M  V30 1870 H 179.868 0.782103 -0.268782 0
M  V30 1871 H 182.414 1.20041 -1.19951 0
M  V30 1872 H 181.186 2.99278 -2.52088 0
M  V30 1873 H 180.809 3.84029 -1.02991 0
M  V30 1874 N 181.806 0.884767 1.30421 0
M  V30 1875 C 183.031 0.517288 2.00845 0
M  V30 1876 C 183.456 -0.886779 1.65885 0
M  V30 1877 O 182.814 -1.58768 0.875354 0
M  V30 1878 C 182.862 0.698994 3.5376 0
M  V30 1879 O 181.966 -0.255208 4.1161 0
M  V30 1880 H 181.307 0.203872 0.631927 0
M  V30 1881 H 183.837 1.19225 1.66272 0
M  V30 1882 H 183.847 0.597912 4.03595 0
M  V30 1883 H 182.522 1.72271 3.78544 0
M  V30 1884 H 181.099 -0.10784 3.72744 0
M  V30 1885 N 183.284 -1.43765 0.645699 0
M  V30 1886 C 184.217 -2.2798 -0.100072 0
M  V30 1887 C 185.195 -1.39391 -0.837194 0
M  V30 1888 O 186.379 -1.68833 -0.838306 0
M  V30 1889 C 183.506 -3.18643 -1.14823 0
M  V30 1890 C 182.552 -4.2344 -0.510009 0
M  V30 1891 S 183.385 -5.30761 0.710824 0
M  V30 1892 C 184.541 -6.24992 -0.33699 0
M  V30 1893 H 184.774 -2.90884 0.614322 0
M  V30 1894 H 182.307 -1.48166 0.434304 0
M  V30 1895 H 184.265 -3.71424 -1.74799 0
M  V30 1896 H 182.926 -2.54932 -1.8349 0
M  V30 1897 H 182.119 -4.86948 -1.29991 0
M  V30 1898 H 181.721 -3.73997 0.0154577 0
M  V30 1899 H 184.013 -6.66691 -1.20537 0
M  V30 1900 H 184.956 -7.07612 0.262879 0
M  V30 1901 H 185.364 -5.60517 -0.669425 0
M  V30 1902 N 184.763 -0.387143 -1.52771 0
M  V30 1903 C 186.179 -0.037007 -1.59557 0
M  V30 1904 C 186.379 1.44801 -1.40124 0
M  V30 1905 O 185.435 2.21227 -1.21716 0
M  V30 1906 C 186.748 -0.512256 -2.96305 0
M  V30 1907 C 188.296 -0.468328 -3.09476 0
M  V30 1908 C 188.771 -0.919731 -4.4867 0
M  V30 1909 N 190.262 -0.875656 -4.54848 0
M  V30 1910 C 190.997 -1.19637 -5.6078 0
M  V30 1911 N 190.493 -1.58745 -6.74368 0
M  V30 1912 N 192.286 -1.11776 -5.50874 0
M  V30 1913 H 184.437 -1.35395 -1.63652 0
M  V30 1914 H 186.7 -0.554818 -0.768688 0
M  V30 1915 H 186.406 -1.54935 -3.15734 0
M  V30 1916 H 186.28 0.089805 -3.77093 0
M  V30 1917 H 188.667 0.559671 -2.89744 0
M  V30 1918 H 188.748 -1.10616 -2.30646 0
M  V30 1919 H 188.392 -1.94595 -4.69143 0
M  V30 1920 H 188.322 -0.258927 -5.25963 0
M  V30 1921 H 190.813 -0.587843 -3.733 0
M  V30 1922 H 191.126 -1.81586 -7.51163 0
M  V30 1923 H 189.471 -1.6263 -6.75705 0
M  V30 1924 H 192.662 -0.811264 -4.61016 0
M  V30 1925 H 192.835 -1.37103 -6.3333 0
M  V30 1926 N 186.241 1.57166 -0.116904 0
M  V30 1927 C 187.189 2.16457 0.851418 0
M  V30 1928 C 188.183 1.11323 1.27686 0
M  V30 1929 O 189.389 1.2963 1.24884 0
M  V30 1930 H 185.764 0.69271 0.292672 0
M  V30 1931 H 187.735 2.96605 0.32685 0
M  V30 1932 C 186.484 2.77689 2.09246 0
M  V30 1933 H 185.807 3.58285 1.77402 0
M  V30 1934 H 187.247 3.22716 2.7501 0
M  V30 1935 C 185.706 1.74667 2.88085 0
M  V30 1936 O 186.236 1.19877 3.83396 0
M  V30 1937 N 184.442 1.44656 2.52038 0
M  V30 1938 H 183.989 1.89402 1.74599 0
M  V30 1939 H 183.947 0.759675 3.05084 0
M  V30 1940 N 187.719 -0.156864 1.56817 0
M  V30 1941 C 188.629 -1.2136 2.00771 0
M  V30 1942 C 189.645 -1.47598 0.921459 0
M  V30 1943 O 190.821 -1.59462 1.2302 0
M  V30 1944 C 187.886 -2.52943 2.37109 0
M  V30 1945 C 186.947 -2.34439 3.59634 0
M  V30 1946 C 186.18 -3.59748 3.94229 0
M  V30 1947 O 186.403 -4.65526 3.29609 0
M  V30 1948 O 185.337 -3.52998 4.8752 0
M  V30 1949 H 189.163 -0.870468 2.90958 0
M  V30 1950 H 186.748 -0.36484 1.44877 0
M  V30 1951 H 188.63 -3.30538 2.61386 0
M  V30 1952 H 187.305 -2.86806 1.5008 0
M  V30 1953 H 186.212 -1.54828 3.40557 0
M  V30 1954 H 187.545 -2.05496 4.4725 0
M  V30 1955 N 189.197 -1.51736 -0.425897 0
M  V30 1956 C 190.427 -1.68549 -1.19476 0
M  V30 1957 C 190.835 -0.387288 -1.85194 0
M  V30 1958 O 190.178 0.645142 -1.71999 0
M  V30 1959 C 190.24 -2.75275 -2.31223 0
M  V30 1960 C 189.904 -4.17534 -1.8578 0
M  V30 1961 C 190.901 -5.01936 -1.35485 0
M  V30 1962 C 188.586 -4.6369 -1.93123 0
M  V30 1963 C 190.58 -6.30559 -0.931347 0
M  V30 1964 C 188.267 -5.92307 -1.50384 0
M  V30 1965 C 189.265 -6.75569 -1.00473 0
M  V30 1966 O 188.953 -8.0178 -0.583452 0
M  V30 1967 H 188.685 -0.568525 -0.365725 0
M  V30 1968 H 191.239 -1.98982 -0.509444 0
M  V30 1969 H 189.469 -2.40182 -3.03067 0
M  V30 1970 H 191.158 -2.80853 -2.93047 0
M  V30 1971 H 191.924 -4.67475 -1.29197 0
M  V30 1972 H 187.803 -3.98997 -2.30916 0
M  V30 1973 H 191.347 -6.95498 -0.541084 0
M  V30 1974 H 187.244 -6.2628 -1.56346 0
M  V30 1975 H 188.012 -8.1543 -0.708275 0
M  V30 1976 N 190.675 0.682077 -1.42076 0
M  V30 1977 C 191.922 1.44215 -1.42156 0
M  V30 1978 C 192.25 1.94468 -0.0354186 0
M  V30 1979 O 191.505 1.70816 0.955002 0
M  V30 1980 C 191.804 2.66036 -2.38662 0
M  V30 1981 C 191.47 2.34366 -3.85206 0
M  V30 1982 C 190.132 2.25439 -4.25124 0
M  V30 1983 C 192.484 2.08513 -4.77673 0
M  V30 1984 C 189.812 1.88775 -5.55501 0
M  V30 1985 C 192.164 1.73354 -6.08384 0
M  V30 1986 C 190.828 1.62933 -6.47309 0
M  V30 1987 H 190.098 0.527718 -0.520187 0
M  V30 1988 H 192.745 0.778387 -1.74967 0
M  V30 1989 H 191.05 3.3741 -1.99152 0
M  V30 1990 H 192.747 3.24205 -2.35991 0
M  V30 1991 H 189.337 2.42213 -3.53597 0
M  V30 1992 H 193.521 2.14346 -4.47626 0
M  V30 1993 H 188.777 1.7927 -5.84527 0
M  V30 1994 H 192.951 1.52373 -6.79526 0
M  V30 1995 H 190.578 1.34292 -7.48244 0
M  V30 1996 N 192.153 1.28127 0.917671 0
M  V30 1997 C 193.4 1.15052 1.66641 0
M  V30 1998 C 193.728 -0.301677 1.92146 0
M  V30 1999 O 192.983 -1.23622 1.51711 0
M  V30 2000 C 193.282 1.89018 3.03327 0
M  V30 2001 C 192.948 3.38832 2.97496 0
M  V30 2002 C 191.61 3.79693 2.95613 0
M  V30 2003 C 193.962 4.34378 2.88036 0
M  V30 2004 C 191.29 5.14447 2.82066 0
M  V30 2005 C 193.642 5.69201 2.7603 0
M  V30 2006 C 192.306 6.09343 2.72502 0
M  V30 2007 H 191.576 0.421006 0.609783 0
M  V30 2008 H 194.223 1.58855 1.06945 0
M  V30 2009 H 192.528 1.37752 3.66785 0
M  V30 2010 H 194.225 1.76321 3.60156 0
M  V30 2011 H 190.815 3.06342 2.99754 0
M  V30 2012 H 194.999 4.03775 2.88581 0
M  V30 2013 H 190.255 5.44681 2.77728 0
M  V30 2014 H 194.429 6.42901 2.67678 0
M  V30 2015 H 192.056 7.13712 2.61762 0
M  V30 2016 N 193.631 -1.12557 1.10312 0
M  V30 2017 C 194.908 -1.80363 0.756878 0
M  V30 2018 C 195.288 -1.97067 -0.756824 0
M  V30 2019 O 194.636 -1.54601 -1.68259 0
M  V30 2020 C 194.846 -3.14812 1.50647 0
M  V30 2021 C 196.194 -3.90029 1.67817 0
M  V30 2022 O 197.218 -3.24464 1.46974 0
M  V30 2023 O 196.077 -5.07652 2.02365 0
M  V30 2024 H 193.171 -0.780667 0.272926 0
M  V30 2025 H 195.717 -1.19404 1.20586 0
M  V30 2026 H 194.489 -2.97936 2.53672 0
M  V30 2027 H 194.112 -3.83478 1.05026 0
M  V30 2028 N 195.109 -0.891671 -1.2995 0
M  V30 2029 C 196.525 -0.58662 -1.48428 0
M  V30 2030 C 196.725 0.873951 -1.81561 0
M  V30 2031 O 195.781 1.65471 -1.90724 0
M  V30 2032 C 197.094 -1.50553 -2.60296 0
M  V30 2033 C 198.642 -1.50988 -2.74175 0
M  V30 2034 C 199.117 -2.41488 -3.89163 0
M  V30 2035 N 200.608 -2.39489 -3.96483 0
M  V30 2036 C 201.343 -3.06223 -4.84784 0
M  V30 2037 N 200.839 -3.82206 -5.77833 0
M  V30 2038 N 202.632 -2.95421 -4.78208 0
M  V30 2039 H 194.783 -1.83644 -1.06718 0
M  V30 2040 H 197.046 -0.786455 -0.529332 0
M  V30 2041 H 196.752 -2.54581 -2.42654 0
M  V30 2042 H 196.626 -1.22008 -3.56923 0
M  V30 2043 H 199.013 -0.47708 -2.91218 0
M  V30 2044 H 199.094 -1.83567 -1.78148 0
M  V30 2045 H 198.738 -3.44857 -3.72876 0
M  V30 2046 H 198.668 -2.06222 -4.84541 0
M  V30 2047 H 201.159 -1.84278 -3.29924 0
M  V30 2048 H 201.472 -4.302 -6.41988 0
M  V30 2049 H 199.817 -3.86313 -5.77743 0
M  V30 2050 H 203.008 -2.35581 -4.04499 0
M  V30 2051 H 203.181 -3.47704 -5.46814 0
M  V30 2052 N 196.587 1.43421 -0.653314 0
M  V30 2053 C 197.535 2.32546 0.0501531 0
M  V30 2054 C 198.529 1.48617 0.812985 0
M  V30 2055 O 199.735 1.64825 0.723375 0
M  V30 2056 H 196.11 0.751185 0.0350032 0
M  V30 2057 H 198.081 2.89602 -0.719261 0
M  V30 2058 C 196.83 3.32925 1.00279 0
M  V30 2059 H 196.153 3.97532 0.425236 0
M  V30 2060 H 197.593 3.9792 1.46409 0
M  V30 2061 C 196.052 2.63532 2.09886 0
M  V30 2062 O 196.582 2.45092 3.18265 0
M  V30 2063 N 194.788 2.22905 1.86445 0
M  V30 2064 H 194.335 2.38103 0.98309 0
M  V30 2065 H 194.293 1.76805 2.59976 0
M  V30 2066 N 198.065 0.39524 1.52563 0
M  V30 2067 C 199.481 0.0454682 1.59535 0
M  V30 2068 C 199.681 -1.44056 1.4089 0
M  V30 2069 O 198.737 -2.20579 1.22888 0
M  V30 2070 C 200.05 0.527963 2.96029 0
M  V30 2071 C 201.598 0.484733 3.09224 0
M  V30 2072 C 202.073 0.943512 4.48176 0
M  V30 2073 N 203.564 0.899765 4.54377 0
M  V30 2074 C 204.299 1.22609 5.60138 0
M  V30 2075 N 203.795 1.62319 6.73516 0
M  V30 2076 N 205.588 1.14696 5.50274 0
M  V30 2077 H 197.739 1.36261 1.62931 0
M  V30 2078 H 200.002 0.558887 0.765735 0
M  V30 2079 H 199.708 1.56607 3.14908 0
M  V30 2080 H 199.582 -0.0698056 3.77135 0
M  V30 2081 H 201.969 -0.544298 2.90037 0
M  V30 2082 H 202.05 1.11838 2.30056 0
M  V30 2083 H 201.694 1.9708 4.68104 0
M  V30 2084 H 201.624 0.286817 5.25818 0
M  V30 2085 H 204.115 0.607632 3.72983 0
M  V30 2086 H 204.428 1.85567 7.5019 0
M  V30 2087 H 202.773 1.66211 6.74833 0
M  V30 2088 H 205.964 0.835701 4.6058 0
M  V30 2089 H 206.137 1.40459 6.32594 0
M  V30 2090 N 199.544 -1.57102 0.125237 0
M  V30 2091 C 200.955 -1.82384 -0.399142 0
M  V30 2092 C 201.306 -1.04276 -1.66195 0
M  V30 2093 O 200.431 -0.281269 -2.14564 0
M  V30 2094 C 201.026 -3.30821 -0.730932 0
M  V30 2095 C 199.585 -3.56762 -1.19992 0
M  V30 2096 C 198.732 -2.7649 -0.211792 0
M  V30 2097 H 201.683 -1.54786 0.350277 0
M  V30 2098 H 201.704 -3.4579 -1.58775 0
M  V30 2099 H 201.216 -3.87643 0.188345 0
M  V30 2100 H 199.317 -3.05305 -2.13588 0
M  V30 2101 H 199.43 -4.65317 -1.14093 0
M  V30 2102 H 197.794 -2.4489 -0.700085 0
M  V30 2103 H 198.577 -3.36073 0.700691 0
M  V30 2104 N 201.022 0.148545 -1.56898 0
M  V30 2105 C 202.247 0.880385 -1.87787 0
M  V30 2106 C 202.672 1.74018 -0.714093 0
M  V30 2107 O 202.03 1.78153 0.336343 0
M  V30 2108 C 202.078 1.71422 -3.17249 0
M  V30 2109 O 201.182 2.8183 -3.01074 0
M  V30 2110 H 200.523 0.245301 -0.617028 0
M  V30 2111 H 203.053 0.139826 -2.04122 0
M  V30 2112 H 203.063 2.10954 -3.49231 0
M  V30 2113 H 201.738 1.08284 -4.01556 0
M  V30 2114 H 200.315 2.45715 -2.80497 0
M  V30 2115 N 202.5 1.5196 0.417844 0
M  V30 2116 C 203.747 1.65591 1.16559 0
M  V30 2117 C 204.075 0.381565 1.90721 0
M  V30 2118 O 203.33 -0.635156 1.85106 0
M  V30 2119 C 203.629 2.82269 2.19223 0
M  V30 2120 C 203.295 4.20819 1.61933 0
M  V30 2121 C 201.957 4.58506 1.46033 0
M  V30 2122 C 204.309 5.07196 1.20008 0
M  V30 2123 C 201.637 5.80257 0.867113 0
M  V30 2124 C 203.989 6.29544 0.621086 0
M  V30 2125 C 202.653 6.65987 0.449144 0
M  V30 2126 H 201.923 0.605939 0.42652 0
M  V30 2127 H 204.57 1.86041 0.45397 0
M  V30 2128 H 202.875 2.56118 2.96498 0
M  V30 2129 H 204.572 2.90012 2.76936 0
M  V30 2130 H 201.162 3.91116 1.7529 0
M  V30 2131 H 205.346 4.7867 1.31105 0
M  V30 2132 H 200.602 6.07124 0.721833 0
M  V30 2133 H 204.776 6.95805 0.287798 0
M  V30 2134 H 202.403 7.60199 -0.012632 0
M  V30 2135 N 203.978 -0.674533 1.42435 0
M  V30 2136 C 205.255 -1.4305 1.33402 0
M  V30 2137 C 205.635 -2.11081 -0.0284674 0
M  V30 2138 O 204.983 -2.03257 -1.04397 0
M  V30 2139 C 205.193 -2.43272 2.50239 0
M  V30 2140 C 206.541 -3.07907 2.92367 0
M  V30 2141 O 207.565 -2.53599 2.50132 0
M  V30 2142 O 206.424 -4.0632 3.65467 0
M  V30 2143 H 203.518 -0.638076 0.526106 0
M  V30 2144 H 206.064 -0.703235 1.54443 0
M  V30 2145 H 204.836 -1.91803 3.41068 0
M  V30 2146 H 204.459 -3.23479 2.31186 0
M  V30 2147 N 205.456 -1.28612 -0.910864 0
M  V30 2148 C 206.704 -1.15705 -1.65701 0
M  V30 2149 C 207.025 0.29416 -1.92769 0
M  V30 2150 O 206.295 1.20331 -1.54588 0
M  V30 2151 H 204.875 -0.425216 -0.614167 0
M  V30 2152 H 207.537 -1.61381 -1.0928 0
M  V30 2153 H 206.633 -1.6988 -2.61815 0
M  V30 2154 N 206.934 1.1197 -1.10907 0
M  V30 2155 C 208.183 1.82947 -0.849302 0
M  V30 2156 C 208.496 1.85275 0.627112 0
M  V30 2157 O 209.702 2.52296 1.00295 0
M  V30 2158 C 208.158 3.28529 -1.46959 0
M  V30 2159 C 207.766 3.34546 -2.97965 0
M  V30 2160 C 209.51 4.04443 -1.28942 0
M  V30 2161 C 207.417 4.74491 -3.53004 0
M  V30 2162 H 206.347 0.685477 -0.314065 0
M  V30 2163 H 208.998 1.2604 -1.33365 0
M  V30 2164 H 207.38 3.85333 -0.912917 0
M  V30 2165 H 208.554 2.87654 -3.59989 0
M  V30 2166 H 206.869 2.72108 -3.15192 0
M  V30 2167 H 209.466 5.07787 -1.67502 0
M  V30 2168 H 209.809 4.15656 -0.231456 0
M  V30 2169 H 210.342 3.5401 -1.81443 0
M  V30 2170 H 207.081 4.68474 -4.58489 0
M  V30 2171 H 206.601 5.21816 -2.9575 0
M  V30 2172 H 208.28 5.4344 -3.51115 0
M  V30 2173 N 208.412 0.89855 1.29475 0
M  V30 2174 C 209.342 0.39201 2.30186 0
M  V30 2175 C 210.323 -0.532359 1.61555 0
M  V30 2176 O 211.508 -0.443331 1.89072 0
M  V30 2177 C 208.638 -0.382353 3.45189 0
M  V30 2178 C 207.592 0.451483 4.25612 0
M  V30 2179 C 206.918 -0.450307 5.328 0
M  V30 2180 C 208.218 1.70079 4.93832 0
M  V30 2181 H 209.912 1.23362 2.72804 0
M  V30 2182 H 207.458 0.594638 1.31149 0
M  V30 2183 H 209.411 -0.747451 4.14718 0
M  V30 2184 H 208.135 -1.25774 3.01411 0
M  V30 2185 H 206.794 0.798897 3.57789 0
M  V30 2186 H 206.442 -1.32379 4.85268 0
M  V30 2187 H 206.142 0.103902 5.87508 0
M  V30 2188 H 207.666 -0.811623 6.05182 0
M  V30 2189 H 209.08 1.40549 5.55805 0
M  V30 2190 H 207.477 2.19623 5.58467 0
M  V30 2191 H 208.547 2.43744 4.19186 0
M  V30 2192 N 209.89 -1.43072 0.660911 0
M  V30 2193 C 211.12 -2.05769 0.185153 0
M  V30 2194 C 211.528 -1.49668 -1.15742 0
M  V30 2195 O 210.871 -0.625649 -1.72717 0
M  V30 2196 C 210.933 -3.59489 0.0278237 0
M  V30 2197 C 210.597 -4.38212 1.2969 0
M  V30 2198 C 211.594 -4.69772 2.22734 0
M  V30 2199 C 209.279 -4.7809 1.54063 0
M  V30 2200 C 211.273 -5.40129 3.38437 0
M  V30 2201 C 208.96 -5.4819 2.70058 0
M  V30 2202 C 209.958 -5.79132 3.62071 0
M  V30 2203 O 209.646 -6.47798 4.76039 0
M  V30 2204 H 209.378 -0.669873 0.0908086 0
M  V30 2205 H 211.932 -1.84436 0.90402 0
M  V30 2206 H 210.162 -3.79426 -0.746489 0
M  V30 2207 H 211.851 -4.03862 -0.406275 0
M  V30 2208 H 212.617 -4.39476 2.05149 0
M  V30 2209 H 208.496 -4.53408 0.833215 0
M  V30 2210 H 212.04 -5.64198 4.10277 0
M  V30 2211 H 207.937 -5.77902 2.87574 0
M  V30 2212 H 208.705 -6.66283 4.75404 0
M  V30 2213 N 211.368 -0.403325 -1.52352 0
M  V30 2214 C 212.598 0.17376 -2.05868 0
M  V30 2215 C 213.006 1.39898 -1.27378 0
M  V30 2216 O 212.349 1.80939 -0.31729 0
M  V30 2217 C 212.411 0.594756 -3.54546 0
M  V30 2218 C 212.075 -0.518926 -4.54044 0
M  V30 2219 C 213.072 -1.3807 -5.01231 0
M  V30 2220 C 210.757 -0.689961 -4.97539 0
M  V30 2221 C 212.751 -2.39852 -5.90551 0
M  V30 2222 C 210.438 -1.71109 -5.86656 0
M  V30 2223 C 211.436 -2.56378 -6.33056 0
M  V30 2224 O 211.124 -3.56743 -7.20409 0
M  V30 2225 H 210.856 0.0264951 -0.675481 0
M  V30 2226 H 213.41 -0.571179 -1.97299 0
M  V30 2227 H 211.64 1.39189 -3.60782 0
M  V30 2228 H 213.329 1.0991 -3.90736 0
M  V30 2229 H 214.095 -1.25994 -4.68349 0
M  V30 2230 H 209.974 -0.035939 -4.60986 0
M  V30 2231 H 213.518 -3.06441 -6.26689 0
M  V30 2232 H 209.415 -1.83218 -6.18952 0
M  V30 2233 H 210.183 -3.52918 -7.38506 0
M  V30 2234 N 212.846 1.57033 -0.133567 0
M  V30 2235 C 214.076 1.99754 0.527429 0
M  V30 2236 C 214.484 1.01245 1.59832 0
M  V30 2237 O 213.827 -0.000645496 1.837 0
M  V30 2238 C 213.889 3.38903 1.19939 0
M  V30 2239 C 213.553 4.56174 0.274709 0
M  V30 2240 C 214.55 5.17563 -0.492398 0
M  V30 2241 C 212.235 5.01972 0.18153 0
M  V30 2242 C 214.229 6.2315 -1.34027 0
M  V30 2243 C 211.916 6.07416 -0.669958 0
M  V30 2244 C 212.914 6.67874 -1.42947 0
M  V30 2245 O 212.602 7.71279 -2.2668 0
M  V30 2246 H 212.334 0.660702 0.142999 0
M  V30 2247 H 214.888 2.04207 -0.221099 0
M  V30 2248 H 213.118 3.31248 1.99528 0
M  V30 2249 H 214.807 3.65818 1.75875 0
M  V30 2250 H 215.573 4.83087 -0.430367 0
M  V30 2251 H 211.452 4.54652 0.762422 0
M  V30 2252 H 214.996 6.70268 -1.93357 0
M  V30 2253 H 210.893 6.41321 -0.73333 0
M  V30 2254 H 211.661 7.88441 -2.1978 0
M  V30 2255 N 214.325 -0.140222 1.56975 0
M  V30 2256 C 215.257 -1.19818 1.95388 0
M  V30 2257 C 216.27 -1.38816 0.850525 0
M  V30 2258 O 217.459 -1.38267 1.12891 0
M  V30 2259 C 214.559 -2.56189 2.21857 0
M  V30 2260 C 213.732 -2.58077 3.5315 0
M  V30 2261 C 212.791 -3.76037 3.6808 0
M  V30 2262 O 211.817 -3.60598 4.40406 0
M  V30 2263 N 213.019 -4.93763 3.05251 0
M  V30 2264 H 215.784 -0.871609 2.86746 0
M  V30 2265 H 213.345 -0.32972 1.58507 0
M  V30 2266 H 215.337 -3.33623 2.2908 0
M  V30 2267 H 213.907 -2.81111 1.36731 0
M  V30 2268 H 213.127 -1.6651 3.57307 0
M  V30 2269 H 214.415 -2.56377 4.39486 0
M  V30 2270 H 213.813 -5.09209 2.46419 0
M  V30 2271 H 212.37 -5.68949 3.18026 0
M  V30 2272 N 215.803 -1.52179 -0.40978 0
M  V30 2273 C 217.028 -1.70347 -1.18308 0
M  V30 2274 C 217.453 -0.411887 -1.83535 0
M  V30 2275 O 216.811 0.630587 -1.6998 0
M  V30 2276 C 216.859 -2.83977 -2.22238 0
M  V30 2277 O 215.963 -2.495 -3.28365 0
M  V30 2278 H 215.304 -0.567103 -0.345384 0
M  V30 2279 H 217.834 -1.98879 -0.480445 0
M  V30 2280 H 217.844 -3.0887 -2.66577 0
M  V30 2281 H 216.519 -3.77685 -1.74146 0
M  V30 2282 H 215.096 -2.35277 -2.89308 0
M  V30 2283 N 217.281 0.66697 -1.42791 0
M  V30 2284 C 218.529 1.42417 -1.43394 0
M  V30 2285 C 218.85 1.94925 -0.0542373 0
M  V30 2286 O 218.12 1.73564 0.908415 0
M  V30 2287 H 216.7 0.528515 -0.527902 0
M  V30 2288 H 219.362 0.787562 -1.78279 0
M  V30 2289 H 218.458 2.27333 -2.13837 0
M  V30 2290 N 218.759 1.29093 0.90403 0
M  V30 2291 C 220.007 1.16583 1.65085 0
M  V30 2292 C 220.328 -0.283933 1.92922 0
M  V30 2293 O 219.598 -1.19509 1.55224 0
M  V30 2294 H 218.178 0.428467 0.611903 0
M  V30 2295 H 220.84 1.61959 1.08422 0
M  V30 2296 H 219.936 1.71266 2.6091 0
M  V30 2297 N 220.237 -1.11381 1.11499 0
M  V30 2298 C 221.184 -2.17439 0.773887 0
M  V30 2299 C 222.154 -1.64132 -0.254899 0
M  V30 2300 O 223.339 -1.90345 -0.13168 0
M  V30 2301 C 220.479 -3.44373 0.223917 0
M  V30 2302 C 219.592 -4.1168 1.30934 0
M  V30 2303 C 218.727 -5.263 0.71984 0
M  V30 2304 C 217.766 -5.85493 1.78507 0
M  V30 2305 N 216.903 -6.91507 1.21502 0
M  V30 2306 H 221.743 -2.45962 1.68246 0
M  V30 2307 H 219.28 -1.20744 0.840191 0
M  V30 2308 H 221.238 -4.17047 -0.112921 0
M  V30 2309 H 219.868 -3.16232 -0.647851 0
M  V30 2310 H 218.92 -3.37073 1.76312 0
M  V30 2311 H 220.232 -4.51729 2.11524 0
M  V30 2312 H 219.386 -6.05785 0.333094 0
M  V30 2313 H 218.125 -4.87559 -0.117377 0
M  V30 2314 H 217.13 -5.04686 2.18111 0
M  V30 2315 H 218.355 -6.26301 2.62533 0
M  V30 2316 H 216.301 -6.54783 0.399455 0
M  V30 2317 H 216.218 -7.30214 1.95763 0
M  V30 2318 H 217.486 -7.74795 0.855181 0
M  V30 2319 N 221.715 -0.905404 -1.28997 0
M  V30 2320 C 222.964 -0.530191 -1.94607 0
M  V30 2321 C 223.277 0.929185 -1.72121 0
M  V30 2322 O 224.483 1.41218 -2.31883 0
M  V30 2323 C 222.939 -0.897333 -3.48534 0
M  V30 2324 C 222.547 -2.37587 -3.79811 0
M  V30 2325 C 224.291 -0.592304 -4.20347 0
M  V30 2326 C 222.198 -2.68357 -5.27009 0
M  V30 2327 H 221.128 -0.194558 -0.728466 0
M  V30 2328 H 223.779 -1.10318 -1.46636 0
M  V30 2329 H 222.161 -0.253214 -3.9519 0
M  V30 2330 H 223.335 -3.06602 -3.43994 0
M  V30 2331 H 221.65 -2.6505 -3.2115 0
M  V30 2332 H 224.247 -0.798975 -5.28697 0
M  V30 2333 H 224.59 0.469474 -4.13644 0
M  V30 2334 H 225.123 -1.19452 -3.79442 0
M  V30 2335 H 221.862 -3.73355 -5.38782 0
M  V30 2336 H 221.382 -2.03971 -5.64053 0
M  V30 2337 H 223.061 -2.54922 -5.94663 0
M  V30 2338 N 223.193 1.4272 -0.668489 0
M  V30 2339 C 224.609 1.55992 -0.33745 0
M  V30 2340 C 224.809 1.64933 1.15756 0
M  V30 2341 O 223.865 1.61278 1.94282 0
M  V30 2342 C 225.178 2.81314 -1.06222 0
M  V30 2343 C 226.726 2.95078 -1.04394 0
M  V30 2344 C 227.201 4.23252 -1.74991 0
M  V30 2345 N 228.692 4.3015 -1.71829 0
M  V30 2346 C 229.427 5.28127 -2.23315 0
M  V30 2347 N 228.923 6.32293 -2.83156 0
M  V30 2348 N 230.716 5.19882 -2.13726 0
M  V30 2349 H 222.867 1.3516 -1.63846 0
M  V30 2350 H 225.13 0.650174 -0.689912 0
M  V30 2351 H 224.836 2.80823 -2.11734 0
M  V30 2352 H 224.71 3.72012 -0.62344 0
M  V30 2353 H 227.097 2.951 0.0028244 0
M  V30 2354 H 227.178 2.05627 -1.52155 0
M  V30 2355 H 226.822 4.2399 -2.79633 0
M  V30 2356 H 226.752 5.11626 -1.24685 0
M  V30 2357 H 229.243 3.55499 -1.28175 0
M  V30 2358 H 229.556 7.03398 -3.20079 0
M  V30 2359 H 227.901 6.32873 -2.87223 0
M  V30 2360 H 231.092 4.37423 -1.66669 0
M  V30 2361 H 231.265 5.96077 -2.54158 0
M  V30 2362 N 224.671 0.411399 1.52136 0
M  V30 2363 C 226.087 0.0623865 1.59478 0
M  V30 2364 C 226.287 -1.42554 1.4241 0
M  V30 2365 O 225.343 -2.19263 1.2522 0
M  V30 2366 C 226.656 0.559331 2.95452 0
M  V30 2367 C 228.204 0.517503 3.08692 0
M  V30 2368 C 228.679 0.990994 4.4715 0
M  V30 2369 N 230.17 0.947908 4.53397 0
M  V30 2370 C 230.905 1.28544 5.58806 0
M  V30 2371 N 230.401 1.69454 6.71757 0
M  V30 2372 N 232.194 1.20526 5.49026 0
M  V30 2373 H 224.345 1.37982 1.61477 0
M  V30 2374 H 226.608 0.566977 0.759764 0
M  V30 2375 H 226.314 1.59938 3.1323 0
M  V30 2376 H 226.188 -0.0298014 3.77188 0
M  V30 2377 H 228.575 -0.513505 2.90598 0
M  V30 2378 H 228.656 1.14272 2.28857 0
M  V30 2379 H 228.3 2.02034 4.65988 0
M  V30 2380 H 228.23 0.34257 5.25485 0
M  V30 2381 H 230.721 0.647157 3.72317 0
M  V30 2382 H 231.034 1.93513 7.48179 0
M  V30 2383 H 229.379 1.73359 6.73032 0
M  V30 2384 H 232.57 0.884505 4.59667 0
M  V30 2385 H 232.743 1.47161 6.31069 0
M  V30 2386 N 226.149 -1.5696 0.141893 0
M  V30 2387 C 227.56 -1.82797 -0.379776 0
M  V30 2388 C 227.911 -1.06033 -1.6508 0
M  V30 2389 O 227.036 -0.304011 -2.14254 0
M  V30 2390 C 227.631 -3.31578 -0.695802 0
M  V30 2391 C 226.19 -3.58014 -1.16201 0
M  V30 2392 C 225.337 -2.76699 -0.182455 0
M  V30 2393 H 228.288 -1.54406 0.366675 0
M  V30 2394 H 228.309 -3.47454 -1.55099 0
M  V30 2395 H 227.821 -3.87421 0.229449 0
M  V30 2396 H 225.922 -3.07553 -2.10338 0
M  V30 2397 H 226.035 -4.66501 -1.09151 0
M  V30 2398 H 224.399 -2.45618 -0.674072 0
M  V30 2399 H 225.182 -3.35311 0.736297 0
M  V30 2400 N 227.627 0.131896 -1.57047 0
M  V30 2401 C 228.59 1.14638 -1.98471 0
M  V30 2402 C 229.59 1.35029 -0.873148 0
M  V30 2403 O 230.78 1.31764 -1.13946 0
M  V30 2404 C 227.912 2.50358 -2.31373 0
M  V30 2405 H 229.105 0.79064 -2.8929 0
M  V30 2406 H 226.658 0.375761 -1.51716 0
M  V30 2407 H 227.393 2.90876 -1.43393 0
M  V30 2408 H 227.178 2.36915 -3.12432 0
M  V30 2409 H 228.668 3.23395 -2.64207 0
M  V30 2410 N 229.106 1.52395 0.401703 0
M  V30 2411 C 230.054 1.7689 1.51039 0
M  V30 2412 C 231.048 0.636298 1.56996 0
M  V30 2413 O 232.254 0.818507 1.60314 0
M  V30 2414 H 228.629 0.559502 0.502456 0
M  V30 2415 H 230.6 2.69757 1.27568 0
M  V30 2416 C 229.349 1.94331 2.88324 0
M  V30 2417 H 228.672 2.80905 2.84486 0
M  V30 2418 H 230.112 2.15466 3.65172 0
M  V30 2419 C 228.571 0.712396 3.29282 0
M  V30 2420 O 229.101 -0.116218 4.01532 0
M  V30 2421 N 227.307 0.546154 2.85422 0
M  V30 2422 H 226.854 1.22156 2.26794 0
M  V30 2423 H 226.812 -0.276113 3.13185 0
M  V30 2424 N 230.584 -0.659388 1.43143 0
M  V30 2425 C 231.83 -1.42145 1.44647 0
M  V30 2426 C 232.163 -1.9408 0.0681907 0
M  V30 2427 O 231.438 -1.71899 -0.910007 0
M  V30 2428 C 231.721 -2.60735 2.48373 0
M  V30 2429 C 231.574 -2.14332 3.95451 0
M  V30 2430 C 232.893 -3.62951 2.48906 0
M  V30 2431 H 230.012 -0.51552 0.526696 0
M  V30 2432 H 232.654 -0.748069 1.74654 0
M  V30 2433 H 230.804 -3.18184 2.22916 0
M  V30 2434 H 232.476 -1.61932 4.31944 0
M  V30 2435 H 230.719 -1.4576 4.08578 0
M  V30 2436 H 231.39 -2.99583 4.63631 0
M  V30 2437 H 233.866 -3.1525 2.71582 0
M  V30 2438 H 232.742 -4.43487 3.23435 0
M  V30 2439 H 233.003 -4.15126 1.52061 0
M  V30 2440 N 232.062 -1.29571 -0.897171 0
M  V30 2441 C 233.473 -1.15964 -1.46319 0
M  V30 2442 C 233.824 0.244267 -1.94674 0
M  V30 2443 O 232.949 1.13998 -1.83939 0
M  V30 2444 C 233.544 -2.09906 -2.65942 0
M  V30 2445 C 232.103 -2.00314 -3.18671 0
M  V30 2446 C 231.25 -2.00687 -1.91363 0
M  V30 2447 H 234.201 -1.42019 -0.708268 0
M  V30 2448 H 234.222 -1.67276 -3.41759 0
M  V30 2449 H 233.734 -3.12075 -2.30718 0
M  V30 2450 H 231.835 -1.01242 -3.58582 0
M  V30 2451 H 231.948 -2.88102 -3.82798 0
M  V30 2452 H 230.312 -1.45319 -2.09175 0
M  V30 2453 H 231.095 -3.04566 -1.58413 0
M  V30 2454 N 233.54 1.10788 -1.12088 0
M  V30 2455 C 234.789 1.82036 -0.868659 0
M  V30 2456 C 235.102 1.85929 0.607426 0
M  V30 2457 O 236.308 2.53346 0.97613 0
M  V30 2458 C 234.764 3.26951 -1.50435 0
M  V30 2459 C 234.372 3.31367 -3.01496 0
M  V30 2460 C 236.116 4.03053 -1.33225 0
M  V30 2461 C 234.023 4.7072 -3.58017 0
M  V30 2462 H 232.953 0.682108 -0.321318 0
M  V30 2463 H 235.604 1.24618 -1.34694 0
M  V30 2464 H 233.986 3.84343 -0.953735 0
M  V30 2465 H 235.16 2.83819 -3.6302 0
M  V30 2466 H 233.475 2.6875 -3.18061 0
M  V30 2467 H 236.072 5.05981 -1.72878 0
M  V30 2468 H 236.415 4.15387 -0.275529 0
M  V30 2469 H 236.948 3.52066 -1.85188 0
M  V30 2470 H 233.687 4.63585 -4.63432 0
M  V30 2471 H 233.207 5.1865 -3.01268 0
M  V30 2472 H 234.886 5.39685 -3.56859 0
M  V30 2473 N 235.018 0.912232 1.28515 0
M  V30 2474 C 236.295 0.463597 1.90027 0
M  V30 2475 C 236.675 -1.05753 1.82701 0
M  V30 2476 O 236.023 -1.90492 1.26194 0
M  V30 2477 C 236.233 0.992253 3.34597 0
M  V30 2478 C 237.581 1.04344 4.11579 0
M  V30 2479 O 238.605 0.94079 3.43551 0
M  V30 2480 O 237.464 1.1995 5.33174 0
M  V30 2481 H 234.558 0.146666 0.813891 0
M  V30 2482 H 237.104 1.00292 1.36893 0
M  V30 2483 H 235.876 2.03623 3.34146 0
M  V30 2484 H 235.499 0.433672 3.95228 0
M  V30 2485 N 236.496 -1.42363 0.676048 0
M  V30 2486 C 237.745 -2.00745 0.196037 0
M  V30 2487 C 238.058 -1.54083 -1.20489 0
M  V30 2488 O 239.264 -2.04891 -1.78134 0
M  V30 2489 C 237.72 -3.58651 0.299616 0
M  V30 2490 C 237.328 -4.143 1.70468 0
M  V30 2491 C 239.072 -4.24326 -0.121619 0
M  V30 2492 C 236.979 -5.64574 1.76096 0
M  V30 2493 H 235.909 -0.750787 0.0695301 0
M  V30 2494 H 238.56 -1.63072 0.841412 0
M  V30 2495 H 236.942 -3.93833 -0.413673 0
M  V30 2496 H 238.116 -3.90575 2.44515 0
M  V30 2497 H 236.431 -3.61081 2.07387 0
M  V30 2498 H 239.028 -5.34607 -0.0997362 0
M  V30 2499 H 239.371 -3.99897 -1.15708 0
M  V30 2500 H 239.904 -3.94108 0.540706 0
M  V30 2501 H 236.643 -5.93804 2.77628 0
M  V30 2502 H 236.163 -5.90286 1.06406 0
M  V30 2503 H 237.842 -6.29013 1.51496 0
M  V30 2504 N 237.974 -0.419461 -1.51915 0
M  V30 2505 C 239.221 0.152939 -2.01922 0
M  V30 2506 C 239.549 1.4426 -1.30458 0
M  V30 2507 O 238.804 1.91514 -0.402593 0
M  V30 2508 C 239.103 0.437067 -3.54717 0
M  V30 2509 C 238.769 -0.764632 -4.44369 0
M  V30 2510 C 237.431 -1.09423 -4.68594 0
M  V30 2511 C 239.783 -1.56713 -4.97082 0
M  V30 2512 C 237.111 -2.22732 -5.42777 0
M  V30 2513 C 239.463 -2.69107 -5.72507 0
M  V30 2514 C 238.127 -3.02541 -5.95 0
M  V30 2515 H 237.397 0.0559644 -0.738884 0
M  V30 2516 H 240.044 -0.562998 -1.83037 0
M  V30 2517 H 238.349 1.23469 -3.71837 0
M  V30 2518 H 240.046 0.893083 -3.90928 0
M  V30 2519 H 236.636 -0.497775 -4.257 0
M  V30 2520 H 240.82 -1.32571 -4.78266 0
M  V30 2521 H 236.076 -2.48971 -5.58411 0
M  V30 2522 H 240.25 -3.31671 -6.12346 0
M  V30 2523 H 237.877 -3.90457 -6.52264 0
M  V30 2524 N 239.452 1.56882 -0.150215 0
M  V30 2525 C 240.415 2.1573 0.774157 0
M  V30 2526 C 241.415 1.0999 1.17298 0
M  V30 2527 O 242.605 1.35613 1.09338 0
M  V30 2528 C 239.737 2.72302 2.05096 0
M  V30 2529 H 240.93 2.98752 0.262201 0
M  V30 2530 H 238.483 1.55985 0.099248 0
M  V30 2531 H 239.218 1.92956 2.6065 0
M  V30 2532 H 239.003 3.49665 1.77416 0
M  V30 2533 H 240.493 3.17632 2.71109 0
M  V30 2534 N 240.93 -0.123565 1.57115 0
M  V30 2535 C 242.207 -0.862196 1.75572 0
M  V30 2536 C 242.587 -1.98279 0.724475 0
M  V30 2537 O 241.935 -2.27102 -0.252407 0
M  V30 2538 C 242.145 -1.38309 3.20424 0
M  V30 2539 C 243.493 -1.83724 3.82793 0
M  V30 2540 O 244.517 -1.47999 3.23998 0
M  V30 2541 O 243.376 -2.49685 4.86127 0
M  V30 2542 H 240.47 -0.409113 0.718718 0
M  V30 2543 H 243.016 -0.107661 1.69358 0
M  V30 2544 H 241.788 -0.578889 3.86994 0
M  V30 2545 H 241.411 -2.20046 3.31158 0
M  V30 2546 N 242.408 -1.52605 -0.393616 0
M  V30 2547 C 243.318 -1.79971 -1.50492 0
M  V30 2548 C 244.334 -0.686181 -1.59899 0
M  V30 2549 O 245.51 -0.973274 -1.76322 0
M  V30 2550 C 242.575 -1.95867 -2.86072 0
M  V30 2551 C 241.636 -3.19781 -2.86424 0
M  V30 2552 C 240.869 -3.34909 -4.15538 0
M  V30 2553 O 241.092 -2.54948 -5.10253 0
M  V30 2554 O 240.026 -4.28141 -4.23059 0
M  V30 2555 H 243.852 -2.74328 -1.30299 0
M  V30 2556 H 241.437 -1.3764 -0.581005 0
M  V30 2557 H 243.319 -2.08056 -3.66457 0
M  V30 2558 H 241.994 -1.04699 -3.063 0
M  V30 2559 H 240.901 -3.13038 -2.04837 0
M  V30 2560 H 242.234 -4.1078 -2.71147 0
M  V30 2561 N 243.887 0.651787 -1.4349 0
M  V30 2562 C 245.136 1.40754 -1.44469 0
M  V30 2563 C 245.449 1.95463 -0.0731845 0
M  V30 2564 O 246.655 2.71471 0.0395721 0
M  V30 2565 C 245.111 2.54735 -2.5424 0
M  V30 2566 C 244.719 2.06628 -3.97504 0
M  V30 2567 C 246.463 3.32092 -2.64414 0
M  V30 2568 C 244.37 3.17829 -4.98737 0
M  V30 2569 H 243.3 0.528862 -0.53742 0
M  V30 2570 H 245.951 0.703365 -1.69485 0
M  V30 2571 H 244.333 3.2763 -2.22428 0
M  V30 2572 H 245.507 1.40734 -4.38783 0
M  V30 2573 H 243.822 1.42146 -3.91387 0
M  V30 2574 H 246.419 4.14952 -3.37223 0
M  V30 2575 H 246.762 3.80217 -1.69532 0
M  V30 2576 H 247.295 2.66279 -2.95534 0
M  V30 2577 H 244.034 2.74671 -5.95177 0
M  V30 2578 H 243.554 3.82429 -4.62069 0
M  V30 2579 H 245.233 3.82937 -5.21505 0
M  V30 2580 N 245.365 1.30045 0.890287 0
M  V30 2581 C 246.59 1.21598 1.68014 0
M  V30 2582 C 247.015 -0.218678 1.86825 0
M  V30 2583 O 246.373 -1.15756 1.39536 0
M  V30 2584 C 246.421 1.94434 3.03691 0
M  V30 2585 O 245.525 1.2678 3.92429 0
M  V30 2586 H 244.866 0.420856 0.513592 0
M  V30 2587 H 247.396 1.71775 1.11151 0
M  V30 2588 H 247.406 2.03251 3.5377 0
M  V30 2589 H 246.081 2.98777 2.89318 0
M  V30 2590 H 244.658 1.26282 3.50866 0
M  V30 2591 N 246.843 -1.10192 1.12674 0
M  V30 2592 C 248.09 -1.82205 0.883606 0
M  V30 2593 C 248.418 -1.8532 -0.590492 0
M  V30 2594 O 247.673 -1.31137 -1.45264 0
M  V30 2595 C 247.972 -3.28552 1.4067 0
M  V30 2596 C 247.638 -3.45582 2.89627 0
M  V30 2597 C 246.3 -3.49937 3.30299 0
M  V30 2598 C 248.652 -3.50768 3.85501 0
M  V30 2599 C 245.98 -3.57049 4.65546 0
M  V30 2600 C 248.332 -3.59414 5.20581 0
M  V30 2601 C 246.996 -3.62034 5.60792 0
M  V30 2602 H 246.266 -0.666735 0.323334 0
M  V30 2603 H 248.913 -1.29868 1.40736 0
M  V30 2604 H 247.218 -3.83473 0.80347 0
M  V30 2605 H 248.915 -3.82788 1.19475 0
M  V30 2606 H 245.505 -3.42871 2.57172 0
M  V30 2607 H 249.689 -3.46651 3.55171 0
M  V30 2608 H 244.945 -3.57361 4.96088 0
M  V30 2609 H 249.119 -3.62371 5.94693 0
M  V30 2610 H 246.746 -3.67298 6.6558 0
M  V30 2611 N 248.321 -0.919034 -1.28029 0
M  V30 2612 C 249.551 -0.570143 -1.98577 0
M  V30 2613 C 249.959 0.854172 -1.68821 0
M  V30 2614 O 249.302 1.57807 -0.940351 0
M  V30 2615 C 249.364 -0.705734 -3.52505 0
M  V30 2616 C 249.028 -2.10057 -4.05863 0
M  V30 2617 C 250.025 -3.07385 -4.19298 0
M  V30 2618 C 247.71 -2.41517 -4.40426 0
M  V30 2619 C 249.704 -4.34287 -4.66555 0
M  V30 2620 C 247.391 -3.68657 -4.87376 0
M  V30 2621 C 248.389 -4.64856 -5.00398 0
M  V30 2622 O 248.077 -5.89735 -5.46322 0
M  V30 2623 H 247.809 -0.215592 -0.6407 0
M  V30 2624 H 250.363 -1.23583 -1.64062 0
M  V30 2625 H 248.593 0.0170414 -3.86696 0
M  V30 2626 H 250.282 -0.363172 -4.04272 0
M  V30 2627 H 251.048 -2.84398 -3.92865 0
M  V30 2628 H 246.927 -1.67389 -4.29537 0
M  V30 2629 H 250.471 -5.09377 -4.76635 0
M  V30 2630 H 246.368 -3.91466 -5.13249 0
M  V30 2631 H 247.136 -5.92599 -5.64596 0
M  V30 2632 N 249.799 1.42003 -0.683588 0
M  V30 2633 C 250.709 2.34597 -0.0109075 0
M  V30 2634 C 251.725 1.55576 0.779245 0
M  V30 2635 O 252.901 1.88107 0.719555 0
M  V30 2636 C 249.966 3.34199 0.922588 0
M  V30 2637 C 249.027 4.29115 0.125984 0
M  V30 2638 C 248.26 5.23959 1.01502 0
M  V30 2639 O 248.483 5.23952 2.25456 0
M  V30 2640 O 247.417 6.00053 0.47111 0
M  V30 2641 H 251.243 2.93675 -0.773853 0
M  V30 2642 H 248.828 1.42654 -0.443861 0
M  V30 2643 H 250.71 3.95365 1.45823 0
M  V30 2644 H 249.385 2.77582 1.66523 0
M  V30 2645 H 248.292 3.71335 -0.453969 0
M  V30 2646 H 249.625 4.88798 -0.577736 0
M  V30 2647 N 251.277 0.427512 1.51691 0
M  V30 2648 C 252.207 -0.3796 2.30394 0
M  V30 2649 C 253.188 -1.02982 1.35384 0
M  V30 2650 O 254.373 -1.03534 1.643 0
M  V30 2651 C 251.503 -1.48649 3.1388 0
M  V30 2652 C 250.457 -0.960294 4.17088 0
M  V30 2653 C 249.783 -2.16219 4.89033 0
M  V30 2654 C 251.083 -0.00153679 5.223 0
M  V30 2655 H 252.777 0.277164 2.98114 0
M  V30 2656 H 250.323 0.134739 1.43368 0
M  V30 2657 H 252.276 -2.05826 3.67714 0
M  V30 2658 H 251 -2.1714 2.43962 0
M  V30 2659 H 249.659 -0.410806 3.64291 0
M  V30 2660 H 249.307 -2.83307 4.15628 0
M  V30 2661 H 249.007 -1.81654 5.58816 0
M  V30 2662 H 250.531 -2.73968 5.45687 0
M  V30 2663 H 251.945 -0.482687 5.71264 0
M  V30 2664 H 250.342 0.256199 5.99553 0
M  V30 2665 H 251.412 0.938174 4.75738 0
M  V30 2666 N 252.755 -1.56801 0.158532 0
M  V30 2667 C 254.003 -1.96102 -0.488712 0
M  V30 2668 C 254.324 -1.04498 -1.64636 0
M  V30 2669 O 253.594 -0.108783 -1.95598 0
M  V30 2670 H 252.174 -0.724102 -0.183535 0
M  V30 2671 H 254.836 -1.93457 0.236728 0
M  V30 2672 H 253.932 -3.00097 -0.857219 0
M  V30 2673 N 254.233 0.115231 -1.57178 0
M  V30 2674 C 255.458 0.840354 -1.89612 0
M  V30 2675 C 255.883 1.72464 -0.750845 0
M  V30 2676 O 255.241 1.78826 0.298478 0
M  V30 2677 C 255.289 1.64654 -3.20814 0
M  V30 2678 O 254.393 2.7538 -3.06985 0
M  V30 2679 H 253.734 0.232158 -0.622092 0
M  V30 2680 H 256.264 0.0964977 -2.04372 0
M  V30 2681 H 256.274 2.03499 -3.53627 0
M  V30 2682 H 254.949 0.997416 -4.03763 0
M  V30 2683 H 253.526 2.3971 -2.85646 0
M  V30 2684 N 255.711 1.52812 0.385517 0
M  V30 2685 C 256.621 1.80766 1.49535 0
M  V30 2686 C 257.637 0.694651 1.59532 0
M  V30 2687 O 258.813 0.982611 1.75803 0
M  V30 2688 C 255.878 1.97381 2.85029 0
M  V30 2689 C 254.939 3.21295 2.84724 0
M  V30 2690 C 254.172 3.37108 4.13756 0
M  V30 2691 O 254.395 2.5765 5.08893 0
M  V30 2692 O 253.329 4.30378 4.20783 0
M  V30 2693 H 257.155 2.75015 1.28842 0
M  V30 2694 H 254.74 1.37946 0.573697 0
M  V30 2695 H 256.622 2.09996 3.65349 0
M  V30 2696 H 255.297 1.06322 3.05741 0
M  V30 2697 H 254.204 3.1412 2.03174 0
M  V30 2698 H 255.537 4.12212 2.68965 0
M  V30 2699 N 257.189 -0.644168 1.43834 0
M  V30 2700 C 258.152 -1.73857 1.49353 0
M  V30 2701 C 259.152 -1.56315 0.377112 0
M  V30 2702 O 260.342 -1.62048 0.639226 0
M  V30 2703 C 257.474 -3.12819 1.35488 0
M  V30 2704 H 258.667 -1.70342 2.46827 0
M  V30 2705 H 256.22 -0.856652 1.30733 0
M  V30 2706 H 256.955 -3.2194 0.390569 0
M  V30 2707 H 256.74 -3.26958 2.16428 0
M  V30 2708 H 258.23 -3.92606 1.42302 0
M  V30 2709 N 258.668 -1.30515 -0.883378 0
M  V30 2710 C 259.601 -1.11359 -1.99184 0
M  V30 2711 C 260.579 -0.0207858 -1.62587 0
M  V30 2712 O 261.763 -0.174646 -1.87689 0
M  V30 2713 C 258.89 -0.69871 -3.31415 0
M  V30 2714 C 257.936 -1.79261 -3.86998 0
M  V30 2715 S 258.769 -3.39536 -4.14096 0
M  V30 2716 C 259.925 -2.99954 -5.49344 0
M  V30 2717 H 260.158 -2.052 -2.15128 0
M  V30 2718 H 257.691 -1.14847 -1.03196 0
M  V30 2719 H 259.649 -0.466075 -4.07846 0
M  V30 2720 H 258.31 0.220368 -3.13326 0
M  V30 2721 H 257.503 -1.45464 -4.82552 0
M  V30 2722 H 257.105 -1.97961 -3.17313 0
M  V30 2723 H 259.397 -2.48013 -6.30473 0
M  V30 2724 H 260.34 -3.9442 -5.8808 0
M  V30 2725 H 260.748 -2.37775 -5.1198 0
M  V30 2726 N 260.146 1.09593 -1.13257 0
M  V30 2727 C 261.423 1.78293 -0.804432 0
M  V30 2728 C 261.803 1.99004 0.70431 0
M  V30 2729 O 261.151 1.59007 1.641 0
M  V30 2730 C 261.361 3.10707 -1.5894 0
M  V30 2731 C 262.709 3.85443 -1.78099 0
M  V30 2732 O 263.733 3.20454 -1.55525 0
M  V30 2733 O 262.592 5.02108 -2.15753 0
M  V30 2734 H 259.686 0.773156 -0.293528 0
M  V30 2735 H 262.232 1.16164 -1.23709 0
M  V30 2736 H 261.004 2.91106 -2.61482 0
M  V30 2737 H 260.627 3.80558 -1.15157 0
M  V30 2738 N 261.624 0.925811 1.2754 0
M  V30 2739 C 262.556 0.380753 2.26015 0
M  V30 2740 C 263.569 -0.487485 1.5533 0
M  V30 2741 O 264.758 -0.300413 1.75954 0
M  V30 2742 C 261.858 -0.473259 3.35579 0
M  V30 2743 C 261.031 0.375249 4.35787 0
M  V30 2744 C 260.09 -0.415809 5.24555 0
M  V30 2745 O 259.116 0.175834 5.68928 0
M  V30 2746 N 260.318 -1.71607 5.54555 0
M  V30 2747 H 263.083 1.22725 2.73421 0
M  V30 2748 H 260.644 0.793037 1.41147 0
M  V30 2749 H 262.636 -1.00949 3.91907 0
M  V30 2750 H 261.206 -1.2205 2.87789 0
M  V30 2751 H 260.426 1.09279 3.7875 0
M  V30 2752 H 261.714 0.955399 4.99749 0
M  V30 2753 H 261.112 -2.2191 5.20358 0
M  V30 2754 H 259.669 -2.19887 6.1359 0
M  V30 2755 N 263.102 -1.41638 0.69111 0
M  V30 2756 C 264.349 -2.01299 0.220193 0
M  V30 2757 C 264.677 -1.54715 -1.17871 0
M  V30 2758 O 263.932 -0.747193 -1.80874 0
M  V30 2759 C 264.231 -3.56714 0.221277 0
M  V30 2760 C 263.897 -4.22792 1.56709 0
M  V30 2761 C 262.559 -4.40557 1.93554 0
M  V30 2762 C 264.911 -4.59883 2.45268 0
M  V30 2763 C 262.239 -4.92688 3.18552 0
M  V30 2764 C 264.591 -5.13403 3.69595 0
M  V30 2765 C 263.255 -5.29379 4.06589 0
M  V30 2766 H 262.525 -0.736606 0.0805743 0
M  V30 2767 H 265.172 -1.69598 0.889319 0
M  V30 2768 H 263.477 -3.8818 -0.531391 0
M  V30 2769 H 265.174 -4.00678 -0.160547 0
M  V30 2770 H 261.764 -4.09336 1.2705 0
M  V30 2771 H 265.948 -4.45817 2.18084 0
M  V30 2772 H 261.204 -5.03242 3.47214 0
M  V30 2773 H 265.378 -5.41084 4.38407 0
M  V30 2774 H 263.005 -5.69537 5.03519 0
M  V30 2775 N 264.58 -0.43555 -1.51462 0
M  V30 2776 C 265.996 -0.0877501 -1.59359 0
M  V30 2777 C 266.196 1.4027 -1.4466 0
M  V30 2778 O 265.252 2.17243 -1.28693 0
M  V30 2779 C 266.565 -0.606264 -2.94525 0
M  V30 2780 C 268.113 -0.566548 -3.0783 0
M  V30 2781 C 268.588 -1.06201 -4.45517 0
M  V30 2782 N 270.079 -1.01992 -4.51832 0
M  V30 2783 C 270.814 -1.37417 -5.5669 0
M  V30 2784 N 270.31 -1.80119 -6.68976 0
M  V30 2785 N 272.103 -1.29245 -5.47039 0
M  V30 2786 H 264.254 -1.40533 -1.59261 0
M  V30 2787 H 266.517 -0.578992 -0.750648 0
M  V30 2788 H 266.223 -1.64901 -3.10645 0
M  V30 2789 H 266.097 -0.0302097 -3.77188 0
M  V30 2790 H 268.484 0.467208 -2.91378 0
M  V30 2791 H 268.565 -1.17898 -2.2701 0
M  V30 2792 H 268.209 -2.09422 -4.62715 0
M  V30 2793 H 268.139 -0.426127 -5.24873 0
M  V30 2794 H 270.63 -0.706308 -3.71241 0
M  V30 2795 H 270.943 -2.05392 -7.45006 0
M  V30 2796 H 269.288 -1.84044 -6.70189 0
M  V30 2797 H 272.479 -0.957522 -4.58202 0
M  V30 2798 H 272.652 -1.57182 -6.28648 0
M  V30 2799 N 266.058 1.56714 -0.166846 0
M  V30 2800 C 266.968 2.21331 0.777791 0
M  V30 2801 C 267.984 1.20358 1.25658 0
M  V30 2802 O 269.16 1.53005 1.30964 0
M  V30 2803 C 266.225 2.83787 1.99163 0
M  V30 2804 C 265.286 3.99947 1.56016 0
M  V30 2805 C 264.519 4.59415 2.71613 0
M  V30 2806 O 264.742 4.17769 3.88362 0
M  V30 2807 O 263.676 5.49359 2.45945 0
M  V30 2808 H 267.502 3.02605 0.257636 0
M  V30 2809 H 265.087 1.49275 0.0611393 0
M  V30 2810 H 266.969 3.23405 2.70161 0
M  V30 2811 H 265.644 2.05513 2.50092 0
M  V30 2812 H 264.551 3.65007 0.819809 0
M  V30 2813 H 265.884 4.79801 1.09782 0
M  V30 2814 N 267.536 -0.106894 1.57237 0
M  V30 2815 C 268.813 -0.843526 1.76477 0
M  V30 2816 C 269.193 -1.97499 0.745464 0
M  V30 2817 O 268.541 -2.27357 -0.228306 0
M  V30 2818 C 268.751 -1.34903 3.21873 0
M  V30 2819 C 270.099 -1.79654 3.8472 0
M  V30 2820 O 271.123 -1.44554 3.2555 0
M  V30 2821 O 269.982 -2.44515 4.88748 0
M  V30 2822 H 267.076 -0.401468 0.723016 0
M  V30 2823 H 269.622 -0.0896927 1.69463 0
M  V30 2824 H 268.394 -0.53781 3.87586 0
M  V30 2825 H 268.017 -2.16522 3.33473 0
M  V30 2826 N 269.014 -1.53014 -0.377408 0
M  V30 2827 C 269.924 -1.81557 -1.48574 0
M  V30 2828 C 270.94 -0.703102 -1.59162 0
M  V30 2829 O 272.116 -0.99192 -1.75279 0
M  V30 2830 C 269.181 -1.9889 -2.83978 0
M  V30 2831 C 268.242 -3.22801 -2.83016 0
M  V30 2832 C 267.475 -3.39298 -4.11962 0
M  V30 2833 O 267.698 -2.60345 -5.0752 0
M  V30 2834 O 266.632 -4.32604 -4.18494 0
M  V30 2835 H 270.458 -2.75695 -1.27382 0
M  V30 2836 H 268.043 -1.38248 -0.566373 0
M  V30 2837 H 269.925 -2.11931 -3.6423 0
M  V30 2838 H 268.6 -1.07942 -3.05172 0
M  V30 2839 H 267.507 -3.15193 -2.01505 0
M  V30 2840 H 268.84 -4.13632 -2.66775 0
M  V30 2841 N 270.492 0.636531 -1.44174 0
M  V30 2842 C 271.74 1.39343 -1.46383 0
M  V30 2843 C 272.061 1.94766 -0.0955715 0
M  V30 2844 O 271.331 1.75452 0.871395 0
M  V30 2845 H 269.911 0.517199 -0.538994 0
M  V30 2846 H 272.573 0.74957 -1.7991 0
M  V30 2847 H 271.669 2.22746 -2.18611 0
M  V30 2848 N 271.97 1.30982 0.876444 0
M  V30 2849 C 273.217 1.20296 1.62896 0
M  V30 2850 C 273.545 -0.240395 1.93009 0
M  V30 2851 O 272.8 -1.18733 1.55567 0
M  V30 2852 C 273.099 1.98572 2.9716 0
M  V30 2853 C 272.765 3.48125 2.86566 0
M  V30 2854 C 271.427 3.88905 2.83383 0
M  V30 2855 C 273.779 4.43322 2.74071 0
M  V30 2856 C 271.107 5.2316 2.65556 0
M  V30 2857 C 273.459 5.77695 2.57781 0
M  V30 2858 C 272.123 6.17704 2.52979 0
M  V30 2859 H 271.393 0.440193 0.59608 0
M  V30 2860 H 274.04 1.62177 1.01837 0
M  V30 2861 H 272.345 1.49352 3.62217 0
M  V30 2862 H 274.042 1.8769 3.54364 0
M  V30 2863 H 270.632 3.15723 2.89856 0
M  V30 2864 H 274.816 4.12752 2.75589 0
M  V30 2865 H 270.072 5.53241 2.60259 0
M  V30 2866 H 274.246 6.51091 2.47089 0
M  V30 2867 H 271.873 7.21678 2.38924 0
M  V30 2868 N 273.449 -1.08991 1.13837 0
M  V30 2869 C 274.698 -1.80631 0.897509 0
M  V30 2870 C 275.011 -1.86872 -0.57777 0
M  V30 2871 O 276.217 -2.54866 -0.935701 0
M  V30 2872 C 274.673 -3.24517 1.55618 0
M  V30 2873 C 274.281 -3.26529 3.0673 0
M  V30 2874 C 276.025 -4.00882 1.3962 0
M  V30 2875 C 273.932 -4.64965 3.65461 0
M  V30 2876 H 272.862 -0.67691 0.332129 0
M  V30 2877 H 275.513 -1.2246 1.3666 0
M  V30 2878 H 273.895 -3.82778 1.01476 0
M  V30 2879 H 275.069 -2.78008 3.67489 0
M  V30 2880 H 273.384 -2.63656 3.22296 0
M  V30 2881 H 275.981 -5.03167 1.80906 0
M  V30 2882 H 276.324 -4.14896 0.341578 0
M  V30 2883 H 276.857 -3.49075 1.90766 0
M  V30 2884 H 273.596 -4.56153 4.70749 0
M  V30 2885 H 273.116 -5.13792 3.09481 0
M  V30 2886 H 274.795 -5.3394 3.654 0
M  V30 2887 N 274.927 -0.932562 -1.27047 0
M  V30 2888 C 275.874 -0.434072 -2.26681 0
M  V30 2889 C 276.844 0.501639 -1.58344 0
M  V30 2890 O 278.029 0.419734 -1.86126 0
M  V30 2891 C 275.169 0.30261 -3.43771 0
M  V30 2892 C 274.282 -0.667774 -4.26808 0
M  V30 2893 C 273.417 0.0892393 -5.31125 0
M  V30 2894 C 272.456 -0.873532 -6.05835 0
M  V30 2895 N 271.593 -0.148832 -7.01942 0
M  V30 2896 H 276.433 -1.28868 -2.68695 0
M  V30 2897 H 273.97 -0.646713 -1.32121 0
M  V30 2898 H 275.928 0.746092 -4.10474 0
M  V30 2899 H 274.558 1.12142 -3.02695 0
M  V30 2900 H 273.61 -1.22978 -3.59973 0
M  V30 2901 H 274.922 -1.40337 -4.78651 0
M  V30 2902 H 274.076 0.592409 -6.03801 0
M  V30 2903 H 272.815 0.85777 -4.80097 0
M  V30 2904 H 271.82 -1.38791 -5.31994 0
M  V30 2905 H 273.045 -1.64193 -6.58952 0
M  V30 2906 H 270.991 0.601365 -6.53238 0
M  V30 2907 H 270.908 -0.82391 -7.51497 0
M  V30 2908 H 272.176 0.333527 -7.78786 0
M  V30 2909 N 276.405 1.4127 -0.698611 0
M  V30 2910 C 277.682 1.94955 -0.158762 0
M  V30 2911 C 278.062 1.63781 1.33188 0
M  V30 2912 O 277.41 0.946423 2.07979 0
M  V30 2913 C 277.62 3.46044 -0.453309 0
M  V30 2914 C 278.968 4.22872 -0.382707 0
M  V30 2915 O 279.992 3.54076 -0.388396 0
M  V30 2916 O 278.851 5.45407 -0.345463 0
M  V30 2917 H 275.945 0.82683 -0.0167505 0
M  V30 2918 H 278.491 1.50971 -0.77498 0
M  V30 2919 H 277.263 3.62028 -1.48498 0
M  V30 2920 H 276.886 3.97128 0.19373 0
M  V30 2921 N 277.883 0.443576 1.51229 0
M  V30 2922 C 279.294 -0.0180867 1.86691 0
M  V30 2923 C 279.645 -1.41384 1.36033 0
M  V30 2924 O 278.77 -2.04291 0.713722 0
M  V30 2925 C 279.365 -0.039597 3.38777 0
M  V30 2926 C 277.924 -0.445692 3.73752 0
M  V30 2927 C 277.071 0.357584 2.74985 0
M  V30 2928 H 280.022 0.659138 1.44364 0
M  V30 2929 H 280.043 -0.847761 3.70936 0
M  V30 2930 H 279.555 0.976382 3.75617 0
M  V30 2931 H 277.656 -1.46704 3.42503 0
M  V30 2932 H 277.769 -0.166155 4.78812 0
M  V30 2933 H 276.133 -0.184973 2.54027 0
M  V30 2934 H 276.916 1.37256 3.14668 0
M  V30 2935 N 279.361 -1.56624 0.175154 0
M  V30 2936 C 280.271 -2.21741 -0.766042 0
M  V30 2937 C 281.287 -1.21023 -1.25018 0
M  V30 2938 O 282.463 -1.53697 -1.3015 0
M  V30 2939 C 279.528 -2.84839 -1.97655 0
M  V30 2940 C 278.589 -4.00769 -1.53892 0
M  V30 2941 C 277.822 -4.60849 -2.69173 0
M  V30 2942 O 278.045 -4.19823 -3.86141 0
M  V30 2943 O 276.979 -5.50655 -2.43028 0
M  V30 2944 H 280.805 -3.02738 -0.241585 0
M  V30 2945 H 278.39 -1.49305 -0.053222 0
M  V30 2946 H 280.272 -3.24834 -2.68442 0
M  V30 2947 H 278.947 -2.06836 -2.48999 0
M  V30 2948 H 277.854 -3.65436 -0.80044 0
M  V30 2949 H 279.187 -4.80376 -1.07236 0
M  V30 2950 N 280.839 0.0985539 -1.57292 0
M  V30 2951 C 282.067 0.816318 -1.90115 0
M  V30 2952 C 282.482 1.72451 -0.768509 0
M  V30 2953 O 281.839 1.80643 0.259687 0
M  V30 2954 C 281.89 1.63259 -3.22535 0
M  V30 2955 O 281.611 0.760934 -4.31441 0
M  V30 2956 C 283.112 2.45372 -3.69199 0
M  V30 2957 H 280.332 0.233595 -0.629027 0
M  V30 2958 H 282.876 0.0768229 -2.04356 0
M  V30 2959 H 281.031 2.32463 -3.09903 0
M  V30 2960 H 281.445 1.32595 -5.07463 0
M  V30 2961 H 282.919 2.98144 -4.64558 0
M  V30 2962 H 283.396 3.23677 -2.96867 0
M  V30 2963 H 284.002 1.81373 -3.84687 0
M  V30 2964 N 282.317 1.53212 0.369288 0
M  V30 2965 C 283.247 1.82365 1.45826 0
M  V30 2966 C 284.228 0.676907 1.56051 0
M  V30 2967 O 285.413 0.926401 1.70679 0
M  V30 2968 C 282.543 2.01023 2.83208 0
M  V30 2969 C 281.497 3.1678 2.8781 0
M  V30 2970 C 280.823 3.20724 4.27832 0
M  V30 2971 C 282.123 4.55447 2.55667 0
M  V30 2972 H 283.817 2.73559 1.21678 0
M  V30 2973 H 281.363 1.3163 0.583911 0
M  V30 2974 H 283.316 2.20001 3.59413 0
M  V30 2975 H 282.04 1.06536 3.08736 0
M  V30 2976 H 280.699 2.97616 2.14056 0
M  V30 2977 H 280.347 2.23882 4.50429 0
M  V30 2978 H 280.047 3.98496 4.31827 0
M  V30 2979 H 281.571 3.41881 5.05915 0
M  V30 2980 H 282.985 4.74611 3.21586 0
M  V30 2981 H 281.382 5.35432 2.70984 0
M  V30 2982 H 282.452 4.60812 1.5093 0
M  V30 2983 N 283.795 -0.628877 1.44509 0
M  V30 2984 C 284.725 -1.75187 1.54376 0
M  V30 2985 C 285.706 -1.65411 0.396618 0
M  V30 2986 O 286.891 -1.84137 0.617031 0
M  V30 2987 C 284.021 -3.13725 1.48976 0
M  V30 2988 C 282.975 -3.38291 2.62189 0
M  V30 2989 C 282.301 -4.76883 2.41841 0
M  V30 2990 C 283.601 -3.30632 4.04326 0
M  V30 2991 H 285.295 -1.67187 2.48373 0
M  V30 2992 H 282.841 -0.802909 1.19538 0
M  V30 2993 H 284.794 -3.92064 1.54478 0
M  V30 2994 H 283.518 -3.22515 0.514961 0
M  V30 2995 H 282.177 -2.62334 2.56079 0
M  V30 2996 H 281.825 -4.82378 1.42548 0
M  V30 2997 H 281.525 -4.94278 3.17747 0
M  V30 2998 H 283.049 -5.57449 2.49165 0
M  V30 2999 H 284.463 -3.98873 4.11793 0
M  V30 3000 H 282.86 -3.59561 4.80454 0
M  V30 3001 H 283.93 -2.28404 4.27738 0
M  V30 3002 N 285.273 -1.31445 -0.869486 0
M  V30 3003 C 286.684 -1.19042 -1.43826 0
M  V30 3004 C 287.035 0.202919 -1.95148 0
M  V30 3005 O 286.16 1.10071 -1.86315 0
M  V30 3006 C 286.755 -2.15499 -2.6143 0
M  V30 3007 C 285.314 -2.07028 -3.14351 0
M  V30 3008 C 284.461 -2.04701 -1.87063 0
M  V30 3009 H 287.412 -1.43489 -0.677984 0
M  V30 3010 H 287.433 -1.74488 -3.38134 0
M  V30 3011 H 286.945 -3.16899 -2.24046 0
M  V30 3012 H 285.046 -1.08825 -3.56354 0
M  V30 3013 H 285.159 -2.96157 -3.766 0
M  V30 3014 H 283.523 -1.49724 -2.06046 0
M  V30 3015 H 284.306 -3.07857 -1.51917 0
M  V30 3016 N 286.751 1.08385 -1.14413 0
M  V30 3017 C 287.979 1.84517 -0.936001 0
M  V30 3018 C 288.394 1.81626 0.515503 0
M  V30 3019 O 287.751 1.22008 1.35721 0
M  V30 3020 C 287.802 3.32049 -1.42918 0
M  V30 3021 O 287.523 3.34951 -2.82381 0
M  V30 3022 C 289.024 4.24986 -1.26103 0
M  V30 3023 H 286.244 0.582491 -0.333084 0
M  V30 3024 H 288.788 1.36885 -1.5193 0
M  V30 3025 H 286.943 3.7707 -0.888641 0
M  V30 3026 H 287.357 4.27048 -3.04517 0
M  V30 3027 H 288.831 5.26615 -1.6547 0
M  V30 3028 H 289.308 4.38726 -0.20392 0
M  V30 3029 H 289.914 3.85791 -1.79012 0
M  V30 3030 N 288.23 0.939286 1.26551 0
M  V30 3031 C 289.178 0.43815 2.28436 0
M  V30 3032 C 290.172 -0.483587 1.62351 0
M  V30 3033 O 291.378 -0.362009 1.76322 0
M  V30 3034 H 287.753 0.123149 0.741848 0
M  V30 3035 H 289.724 1.31002 2.68106 0
M  V30 3036 C 288.473 -0.283052 3.46546 0
M  V30 3037 H 287.796 0.417043 3.97619 0
M  V30 3038 H 289.236 -0.597948 4.19763 0
M  V30 3039 C 287.695 -1.50018 3.01656 0
M  V30 3040 O 288.225 -2.59855 3.0633 0
M  V30 3041 N 286.431 -1.35608 2.57019 0
M  V30 3042 H 285.978 -0.46244 2.53415 0
M  V30 3043 H 285.936 -2.17165 2.27347 0
M  V30 3044 N 289.708 -1.40897 0.706093 0
M  V30 3045 C 290.985 -1.94868 0.169099 0
M  V30 3046 C 291.365 -1.64485 -1.32318 0
M  V30 3047 O 290.713 -0.95744 -2.07474 0
M  V30 3048 C 290.923 -3.45798 0.471654 0
M  V30 3049 C 292.271 -4.22663 0.405127 0
M  V30 3050 O 293.295 -3.53865 0.407168 0
M  V30 3051 O 292.154 -5.45216 0.374383 0
M  V30 3052 H 289.248 -0.82673 0.0211352 0
M  V30 3053 H 291.794 -1.50558 0.782976 0
M  V30 3054 H 290.566 -3.61235 1.50416 0
M  V30 3055 H 290.189 -3.97225 -0.172666 0
M  V30 3056 N 291.186 -0.45159 -1.50991 0
M  V30 3057 C 292.435 0.111653 -2.01391 0
M  V30 3058 C 292.748 1.42529 -1.33959 0
M  V30 3059 O 293.954 2.07232 -1.75405 0
M  V30 3060 C 292.41 0.249514 -3.59034 0
M  V30 3061 C 292.018 -1.05453 -4.35412 0
M  V30 3062 C 293.762 0.765762 -4.17536 0
M  V30 3063 C 291.669 -0.881529 -5.84793 0
M  V30 3064 H 290.599 0.0455022 -0.752626 0
M  V30 3065 H 293.25 -0.583524 -1.73975 0
M  V30 3066 H 291.632 1.00803 -3.82955 0
M  V30 3067 H 292.806 -1.82248 -4.23229 0
M  V30 3068 H 291.121 -1.50039 -3.88429 0
M  V30 3069 H 293.718 0.911913 -5.26866 0
M  V30 3070 H 294.061 1.75201 -3.77638 0
M  V30 3071 H 294.594 0.0651744 -3.97747 0
M  V30 3072 H 291.333 -1.84057 -6.29129 0
M  V30 3073 H 290.853 -0.153625 -5.99603 0
M  V30 3074 H 292.532 -0.540363 -6.4474 0
M  V30 3075 N 292.664 1.56529 -0.183458 0
M  V30 3076 C 293.614 2.1515 0.754605 0
M  V30 3077 C 294.598 1.08904 1.18443 0
M  V30 3078 O 295.79 1.34997 1.14476 0
M  V30 3079 C 292.919 2.80531 1.97881 0
M  V30 3080 C 292.005 3.93952 1.57043 0
M  V30 3081 N 292.396 4.98221 0.87231 0
M  V30 3082 C 290.694 4.05338 1.86057 0
M  V30 3083 C 291.395 5.77836 0.669377 0
M  V30 3084 N 290.371 5.29858 1.21454 0
M  V30 3085 H 294.173 2.93132 0.212387 0
M  V30 3086 H 291.687 1.62391 0.0167725 0
M  V30 3087 H 293.684 3.20914 2.6612 0
M  V30 3088 H 292.344 2.04035 2.52586 0
M  V30 3089 H 293.355 5.15191 0.529033 0
M  V30 3090 H 290.032 3.39957 2.42354 0
M  V30 3091 H 291.422 6.71799 0.116422 0
M  V30 3092 N 294.142 -0.090211 1.57342 0
M  V30 3093 C 295.558 -0.444547 1.53284 0
M  V30 3094 C 295.758 -1.80238 0.900914 0
M  V30 3095 O 294.814 -2.4759 0.495513 0
M  V30 3096 C 296.127 -0.402543 2.97993 0
M  V30 3097 C 297.675 -0.48405 3.09234 0
M  V30 3098 C 298.15 -0.472144 4.5556 0
M  V30 3099 N 299.641 -0.532757 4.60126 0
M  V30 3100 C 300.376 -0.545462 5.708 0
M  V30 3101 N 299.872 -0.514082 6.9089 0
M  V30 3102 N 301.665 -0.59064 5.58988 0
M  V30 3103 H 293.816 0.799121 1.96794 0
M  V30 3104 H 296.079 0.297965 0.899956 0
M  V30 3105 H 295.785 0.528106 3.47712 0
M  V30 3106 H 295.659 -1.21969 3.56936 0
M  V30 3107 H 298.046 -1.40512 2.595 0
M  V30 3108 H 298.127 0.361328 2.53235 0
M  V30 3109 H 297.771 0.445 5.05947 0
M  V30 3110 H 297.701 -1.3348 5.09402 0
M  V30 3111 H 300.192 -0.562006 3.73698 0
M  V30 3112 H 300.505 -0.527195 7.71 0
M  V30 3113 H 298.85 -0.481054 6.93333 0
M  V30 3114 H 302.041 -0.61272 4.64073 0
M  V30 3115 H 302.214 -0.597073 6.45243 0
M  V30 3116 N 295.62 -1.53406 -0.361157 0
M  V30 3117 C 296.552 -1.76446 -1.46286 0
M  V30 3118 C 297.565 -0.645322 -1.49464 0
M  V30 3119 O 298.754 -0.921681 -1.52864 0
M  V30 3120 C 295.854 -1.83332 -2.85031 0
M  V30 3121 C 295.027 -3.13033 -3.05498 0
M  V30 3122 C 294.086 -3.11104 -4.24383 0
M  V30 3123 O 293.112 -3.84888 -4.19344 0
M  V30 3124 N 294.314 -2.32234 -5.32022 0
M  V30 3125 H 297.079 -2.71508 -1.26899 0
M  V30 3126 H 294.64 -1.52238 -0.550915 0
M  V30 3127 H 296.632 -1.79514 -3.62708 0
M  V30 3128 H 295.202 -0.955342 -2.97644 0
M  V30 3129 H 294.422 -3.30119 -2.15442 0
M  V30 3130 H 295.71 -3.9874 -3.16044 0
M  V30 3131 H 295.108 -1.71807 -5.38979 0
M  V30 3132 H 293.665 -2.3423 -6.08259 0
M  V30 3133 N 297.098 0.621204 -1.44841 0
M  V30 3134 C 298.345 1.38055 -1.48145 0
M  V30 3135 C 298.673 1.94143 -0.117867 0
M  V30 3136 O 297.928 1.74713 0.881694 0
M  V30 3137 C 298.227 2.55675 -2.4973 0
M  V30 3138 C 297.893 2.17817 -3.94799 0
M  V30 3139 C 296.555 2.07205 -4.34303 0
M  V30 3140 C 298.907 1.88065 -4.86087 0
M  V30 3141 C 296.235 1.65045 -5.63007 0
M  V30 3142 C 298.587 1.47394 -6.15189 0
M  V30 3143 C 297.251 1.35331 -6.53637 0
M  V30 3144 H 296.521 0.505181 -0.542101 0
M  V30 3145 H 299.168 0.703477 -1.78111 0
M  V30 3146 H 297.473 3.2866 -2.13284 0
M  V30 3147 H 299.17 3.13904 -2.4953 0
M  V30 3148 H 295.76 2.26998 -3.63552 0
M  V30 3149 H 299.944 1.95168 -4.56315 0
M  V30 3150 H 295.2 1.54317 -5.91605 0
M  V30 3151 H 299.374 1.23415 -6.85377 0
M  V30 3152 H 297.001 1.02435 -7.53267 0
M  V30 3153 N 298.576 1.31904 0.862503 0
M  V30 3154 C 299.822 1.23207 1.61838 0
M  V30 3155 C 300.177 -0.206062 1.91293 0
M  V30 3156 O 299.47 -1.14162 1.53875 0
M  V30 3157 C 299.664 2.01713 2.95037 0
M  V30 3158 C 299.493 3.53014 2.78588 0
M  V30 3159 C 298.263 4.22359 2.77382 0
M  V30 3160 C 300.461 4.47819 2.52909 0
M  V30 3161 N 298.443 5.59766 2.52062 0
M  V30 3162 C 299.814 5.72947 2.36922 0
M  V30 3163 C 301.869 4.37162 2.38314 0
M  V30 3164 C 300.572 6.88623 2.07823 0
M  V30 3165 C 302.598 5.5263 2.10604 0
M  V30 3166 C 301.96 6.76752 1.95411 0
M  V30 3167 H 298.059 0.505984 0.596242 0
M  V30 3168 H 300.643 1.66179 1.01452 0
M  V30 3169 H 298.814 1.61098 3.53415 0
M  V30 3170 H 300.546 1.84975 3.59953 0
M  V30 3171 H 297.301 3.74401 2.90036 0
M  V30 3172 H 297.725 6.32135 2.42352 0
M  V30 3173 H 302.367 3.41857 2.48784 0
M  V30 3174 H 300.085 7.83948 1.9609 0
M  V30 3175 H 303.671 5.46307 2.00101 0
M  V30 3176 H 302.551 7.6459 1.74274 0
M  V30 3177 N 300.054 -1.07777 1.14986 0
M  V30 3178 C 300.984 -2.16865 0.865557 0
M  V30 3179 C 301.965 -1.69123 -0.182083 0
M  V30 3180 O 303.15 -1.94164 -0.0373815 0
M  V30 3181 C 300.28 -3.45539 0.349313 0
M  V30 3182 C 299.234 -4.06708 1.33313 0
M  V30 3183 C 298.56 -5.30411 0.675918 0
M  V30 3184 C 299.86 -4.47241 2.69764 0
M  V30 3185 H 301.554 -2.40905 1.77778 0
M  V30 3186 H 299.1 -1.15781 0.856203 0
M  V30 3187 H 301.053 -4.21174 0.137983 0
M  V30 3188 H 299.777 -3.21072 -0.598362 0
M  V30 3189 H 298.436 -3.33112 1.53075 0
M  V30 3190 H 298.084 -5.02232 -0.277767 0
M  V30 3191 H 297.784 -5.72293 1.33244 0
M  V30 3192 H 299.308 -6.08755 0.474262 0
M  V30 3193 H 300.722 -5.14025 2.53873 0
M  V30 3194 H 299.119 -5.00062 3.3175 0
M  V30 3195 H 300.189 -3.58818 3.26156 0
M  V30 3196 N 301.532 -0.945985 -1.26051 0
M  V30 3197 C 302.462 -0.477172 -2.28572 0
M  V30 3198 C 303.443 0.472032 -1.63419 0
M  V30 3199 O 304.628 0.372853 -1.90587 0
M  V30 3200 C 301.758 0.253975 -3.4637 0
M  V30 3201 C 300.712 -0.609135 -4.23643 0
M  V30 3202 C 300.038 0.252252 -5.34105 0
M  V30 3203 C 301.338 -1.8829 -4.8718 0
M  V30 3204 H 303.032 -1.33402 -2.68038 0
M  V30 3205 H 300.578 -0.642904 -1.28852 0
M  V30 3206 H 302.531 0.593016 -4.17207 0
M  V30 3207 H 301.255 1.145 -3.05871 0
M  V30 3208 H 299.914 -0.931138 -3.54578 0
M  V30 3209 H 299.562 1.14278 -4.89846 0
M  V30 3210 H 299.262 -0.32188 -5.86718 0
M  V30 3211 H 300.786 0.586454 -6.07777 0
M  V30 3212 H 302.2 -1.61081 -5.50205 0
M  V30 3213 H 300.597 -2.40199 -5.49931 0
M  V30 3214 H 301.667 -2.59134 -4.09851 0
M  V30 3215 N 303.011 1.40521 -0.713556 0
M  V30 3216 C 304.258 2.00923 -0.25219 0
M  V30 3217 C 304.586 1.56571 1.15395 0
M  V30 3218 O 303.841 0.775874 1.79663 0
M  V30 3219 C 304.14 3.56317 -0.278 0
M  V30 3220 C 303.806 4.20246 -1.63415 0
M  V30 3221 C 302.468 4.37422 -2.00538 0
M  V30 3222 C 304.82 4.55923 -2.52554 0
M  V30 3223 C 302.148 4.87558 -3.2635 0
M  V30 3224 C 304.5 5.07458 -3.77716 0
M  V30 3225 C 303.164 5.22843 -4.14959 0
M  V30 3226 H 302.434 0.735231 -0.0922829 0
M  V30 3227 H 305.081 1.68161 -0.916188 0
M  V30 3228 H 303.386 3.88976 0.469567 0
M  V30 3229 H 305.083 4.00883 0.0967819 0
M  V30 3230 H 301.673 4.07263 -1.33546 0
M  V30 3231 H 305.857 4.42291 -2.25149 0
M  V30 3232 H 301.113 4.97654 -3.55176 0
M  V30 3233 H 305.287 5.34041 -4.4696 0
M  V30 3234 H 302.914 5.61454 -5.12516 0
M  V30 3235 N 304.489 0.459591 1.5075 0
M  V30 3236 C 305.399 -0.34613 2.32033 0
M  V30 3237 C 306.415 -1.00686 1.41909 0
M  V30 3238 O 307.591 -0.997361 1.7497 0
M  V30 3239 C 304.656 -1.42029 3.16273 0
M  V30 3240 C 303.717 -0.777362 4.22203 0
M  V30 3241 C 302.95 -1.80034 5.02418 0
M  V30 3242 O 303.173 -3.02544 4.83553 0
M  V30 3243 O 302.107 -1.37853 5.85901 0
M  V30 3244 H 305.933 0.318054 3.0203 0
M  V30 3245 H 303.518 0.221663 1.47746 0
M  V30 3246 H 305.4 -2.04275 3.68578 0
M  V30 3247 H 304.075 -2.06815 2.49016 0
M  V30 3248 H 302.982 -0.116256 3.73919 0
M  V30 3249 H 304.315 -0.172634 4.91897 0
M  V30 3250 N 305.967 -1.56429 0.191757 0
M  V30 3251 C 307.197 -2.01574 -0.452928 0
M  V30 3252 C 307.605 -1.07107 -1.55964 0
M  V30 3253 O 306.948 -0.067534 -1.83576 0
M  V30 3254 C 307.01 -3.43121 -1.07278 0
M  V30 3255 C 306.674 -4.56879 -0.105214 0
M  V30 3256 C 307.671 -5.15379 0.684149 0
M  V30 3257 C 305.356 -5.023 0.00489824 0
M  V30 3258 C 307.35 -6.17746 1.57062 0
M  V30 3259 C 305.037 -6.04511 0.894935 0
M  V30 3260 C 306.035 -6.62108 1.67637 0
M  V30 3261 O 305.723 -7.62335 2.55149 0
M  V30 3262 H 305.455 -0.665554 -0.118379 0
M  V30 3263 H 308.009 -2.03245 0.296737 0
M  V30 3264 H 306.239 -3.38425 -1.87097 0
M  V30 3265 H 307.928 -3.72093 -1.62177 0
M  V30 3266 H 308.694 -4.81157 0.609365 0
M  V30 3267 H 304.573 -4.57168 -0.593156 0
M  V30 3268 H 308.117 -6.6263 2.181 0
M  V30 3269 H 304.014 -6.38157 0.970847 0
M  V30 3270 H 304.782 -7.79741 2.48892 0
M  V30 3271 N 307.445 0.0818655 -1.57387 0
M  V30 3272 C 308.856 0.634871 -1.75574 0
M  V30 3273 C 309.207 1.78435 -0.815809 0
M  V30 3274 O 308.332 2.164 0.0025366 0
M  V30 3275 C 308.927 1.15845 -3.18379 0
M  V30 3276 C 307.486 1.65741 -3.37945 0
M  V30 3277 C 306.633 0.572549 -2.71325 0
M  V30 3278 H 309.584 -0.144268 -1.58043 0
M  V30 3279 H 309.605 2.02751 -3.21982 0
M  V30 3280 H 309.117 0.321631 -3.86765 0
M  V30 3281 H 307.218 2.51781 -2.74658 0
M  V30 3282 H 307.331 1.74129 -4.46336 0
M  V30 3283 H 305.695 1.01518 -2.33594 0
M  V30 3284 H 306.478 -0.253918 -3.4236 0
M  V30 3285 N 308.923 1.53595 0.353017 0
M  V30 3286 C 309.833 1.83897 1.45667 0
M  V30 3287 C 310.849 0.728334 1.58023 0
M  V30 3288 O 312.025 1.01968 1.73679 0
M  V30 3289 C 309.09 2.03383 2.80778 0
M  V30 3290 C 308.151 3.27262 2.77845 0
M  V30 3291 C 307.384 3.45809 4.06512 0
M  V30 3292 O 307.607 2.68387 5.03314 0
M  V30 3293 O 306.541 4.39207 4.11559 0
M  V30 3294 H 310.367 2.77686 1.2298 0
M  V30 3295 H 307.952 1.39132 0.544308 0
M  V30 3296 H 309.834 2.17698 3.60812 0
M  V30 3297 H 308.509 1.12783 3.03417 0
M  V30 3298 H 307.416 3.18359 1.96465 0
M  V30 3299 H 308.749 4.17824 2.60161 0
M  V30 3300 N 310.401 -0.613514 1.45168 0
M  V30 3301 C 311.626 -1.40437 1.52618 0
M  V30 3302 C 312.051 -1.87438 0.157707 0
M  V30 3303 O 311.409 -1.59791 -0.856537 0
M  V30 3304 C 311.457 -2.58894 2.51011 0
M  V30 3305 O 310.561 -3.59326 2.02382 0
M  V30 3306 H 309.902 -0.419506 0.514695 0
M  V30 3307 H 312.432 -0.747215 1.90467 0
M  V30 3308 H 312.442 -3.06214 2.69624 0
M  V30 3309 H 311.117 -2.24032 3.50403 0
M  V30 3310 H 309.694 -3.18695 1.93618 0
M  V30 3311 N 311.879 -1.3236 -0.855495 0
M  V30 3312 C 313.104 -1.2601 -1.64731 0
M  V30 3313 C 313.529 0.169068 -1.87339 0
M  V30 3314 O 312.887 1.12016 -1.42556 0
M  V30 3315 C 312.935 -2.02417 -2.98429 0
M  V30 3316 O 312.039 -1.3714 -3.8893 0
M  V30 3317 H 311.38 -0.434325 -0.502253 0
M  V30 3318 H 313.91 -1.74661 -1.06558 0
M  V30 3319 H 313.92 -2.12559 -3.48257 0
M  V30 3320 H 312.595 -3.06343 -2.81295 0
M  V30 3321 H 311.172 -1.3554 -3.47395 0
M  V30 3322 N 313.357 1.07166 -1.15556 0
M  V30 3323 C 314.582 1.84053 -0.955988 0
M  V30 3324 C 315.007 1.81586 0.490739 0
M  V30 3325 O 314.365 1.21018 1.34997 0
M  V30 3326 C 314.413 3.28957 -1.47714 0
M  V30 3327 O 313.517 4.06795 -0.677593 0
M  V30 3328 H 312.858 0.569842 -0.340847 0
M  V30 3329 H 315.388 1.35178 -1.53584 0
M  V30 3330 H 315.398 3.79788 -1.4908 0
M  V30 3331 H 314.073 3.30068 -2.53037 0
M  V30 3332 H 312.65 3.6561 -0.733721 0
M  V30 3333 N 314.835 0.952656 1.25548 0
M  V30 3334 C 315.798 0.475794 2.24207 0
M  V30 3335 C 316.798 -0.419428 1.55234 0
M  V30 3336 O 317.988 -0.216994 1.72843 0
M  V30 3337 C 315.12 -0.312814 3.39462 0
M  V30 3338 H 316.313 1.34779 2.67908 0
M  V30 3339 H 313.866 0.735739 1.37901 0
M  V30 3340 H 314.601 -1.20257 3.01179 0
M  V30 3341 H 314.386 0.329404 3.90714 0
M  V30 3342 H 315.876 -0.635986 4.12729 0
M  V30 3343 N 316.313 -1.40141 0.720998 0
M  V30 3344 C 317.276 -2.29058 0.0805834 0
M  V30 3345 C 318.276 -1.45632 -0.681758 0
M  V30 3346 O 319.466 -1.6648 -0.512856 0
M  V30 3347 C 316.598 -3.28925 -0.895593 0
M  V30 3348 H 317.791 -2.87191 0.863793 0
M  V30 3349 H 315.344 -1.48553 0.485975 0
M  V30 3350 H 316.079 -2.75822 -1.70566 0
M  V30 3351 H 315.864 -3.90519 -0.351766 0
M  V30 3352 H 317.354 -3.95494 -1.34069 0
M  V30 3353 N 317.792 -0.46758 -1.50504 0
M  V30 3354 C 319.208 -0.121533 -1.59137 0
M  V30 3355 C 319.408 1.3717 -1.47603 0
M  V30 3356 O 318.464 2.14464 -1.33272 0
M  V30 3357 C 319.777 -0.6686 -2.93173 0
M  V30 3358 C 321.325 -0.631716 -3.06559 0
M  V30 3359 C 321.8 -1.15627 -4.43164 0
M  V30 3360 N 323.291 -1.11553 -4.49567 0
M  V30 3361 C 324.026 -1.49195 -5.5365 0
M  V30 3362 N 323.522 -1.94269 -6.65005 0
M  V30 3363 N 325.315 -1.4082 -5.44175 0
M  V30 3364 H 317.466 -1.4388 -1.56245 0
M  V30 3365 H 319.729 -0.594784 -0.738198 0
M  V30 3366 H 319.435 -1.71453 -3.07078 0
M  V30 3367 H 319.309 -0.11021 -3.77039 0
M  V30 3368 H 321.696 0.405297 -2.92304 0
M  V30 3369 H 321.777 -1.22687 -2.24458 0
M  V30 3370 H 321.421 -2.1919 -4.58168 0
M  V30 3371 H 321.351 -0.537365 -5.23851 0
M  V30 3372 H 323.842 -0.784895 -3.69659 0
M  V30 3373 H 324.155 -2.21148 -7.40482 0
M  V30 3374 H 322.5 -1.98219 -6.66134 0
M  V30 3375 H 325.691 -1.0545 -4.56068 0
M  V30 3376 H 325.864 -1.70481 -6.25172 0
M  V30 3377 N 319.27 1.56325 -0.20005 0
M  V30 3378 C 320.233 2.18084 0.705132 0
M  V30 3379 C 321.233 1.13666 1.1374 0
M  V30 3380 O 322.423 1.39023 1.04968 0
M  V30 3381 C 319.555 2.78689 1.96329 0
M  V30 3382 H 320.748 2.99435 0.167023 0
M  V30 3383 H 318.301 1.56221 0.0495725 0
M  V30 3384 H 319.036 2.0115 2.5438 0
M  V30 3385 H 318.821 3.55133 1.66202 0
M  V30 3386 H 320.311 3.26096 2.60866 0
M  V30 3387 N 320.748 -0.0735177 1.57428 0
M  V30 3388 C 321.994 -0.774145 1.87443 0
M  V30 3389 C 322.327 -1.77311 0.792103 0
M  V30 3390 O 321.602 -1.93492 -0.197793 0
M  V30 3391 C 321.885 -1.48367 3.28115 0
M  V30 3392 C 321.738 -0.501227 4.46999 0
M  V30 3393 C 323.057 -2.429 3.66998 0
M  V30 3394 H 320.176 -0.279971 0.681752 0
M  V30 3395 H 322.818 -0.0373616 1.89963 0
M  V30 3396 H 320.968 -2.11171 3.26097 0
M  V30 3397 H 322.64 0.121468 4.6114 0
M  V30 3398 H 320.883 0.183593 4.33411 0
M  V30 3399 H 321.554 -1.03526 5.42205 0
M  V30 3400 H 324.03 -1.90175 3.70098 0
M  V30 3401 H 322.906 -2.89549 4.66318 0
M  V30 3402 H 323.167 -3.27628 2.96837 0
M  V30 3403 N 322.226 -1.5378 -0.344866 0
M  V30 3404 C 323.189 -1.80981 -1.40637 0
M  V30 3405 C 324.189 -0.680816 -1.45676 0
M  V30 3406 O 325.379 -0.949095 -1.46075 0
M  V30 3407 C 322.511 -1.95063 -2.79577 0
M  V30 3408 H 323.704 -2.75803 -1.17783 0
M  V30 3409 H 321.257 -1.45173 -0.579181 0
M  V30 3410 H 321.992 -1.02379 -3.07716 0
M  V30 3411 H 321.777 -2.77198 -2.77315 0
M  V30 3412 H 323.267 -2.17629 -3.56409 0
M  V30 3413 N 323.704 0.605807 -1.45491 0
M  V30 3414 C 324.95 1.36679 -1.49823 0
M  V30 3415 C 325.283 1.93693 -0.140175 0
M  V30 3416 O 324.558 1.75158 0.845581 0
M  V30 3417 C 324.841 2.51337 -2.57879 0
M  V30 3418 C 324.694 1.99508 -4.03134 0
M  V30 3419 C 326.013 3.53463 -2.62205 0
M  V30 3420 H 323.132 0.495617 -0.545466 0
M  V30 3421 H 325.774 0.682732 -1.7731 0
M  V30 3422 H 323.924 3.09691 -2.34571 0
M  V30 3423 H 325.596 1.45789 -4.37656 0
M  V30 3424 H 323.839 1.30496 -4.13707 0
M  V30 3425 H 324.51 2.82169 -4.74431 0
M  V30 3426 H 326.986 3.04953 -2.83095 0
M  V30 3427 H 325.862 4.31178 -3.39672 0
M  V30 3428 H 326.123 4.09197 -1.67363 0
M  V30 3429 N 325.182 1.32811 0.848464 0
M  V30 3430 C 326.428 1.23907 1.60546 0
M  V30 3431 C 326.761 -0.197161 1.93197 0
M  V30 3432 O 326.036 -1.13596 1.5788 0
M  V30 3433 C 326.319 2.10489 2.92175 0
M  V30 3434 C 326.172 3.62522 2.66266 0
M  V30 3435 C 327.491 1.97075 3.93509 0
M  V30 3436 H 324.61 0.451459 0.58254 0
M  V30 3437 H 327.252 1.62818 0.979296 0
M  V30 3438 H 325.402 1.77434 3.45614 0
M  V30 3439 H 327.074 4.05821 2.19334 0
M  V30 3440 H 325.317 3.84879 2.00126 0
M  V30 3441 H 325.988 4.18437 3.6002 0
M  V30 3442 H 328.464 2.26045 3.49346 0
M  V30 3443 H 327.34 2.59923 4.83457 0
M  V30 3444 H 327.601 0.940186 4.31987 0
M  V30 3445 N 326.66 -1.06551 1.16123 0
M  V30 3446 C 327.885 -1.83544 0.965735 0
M  V30 3447 C 328.31 -1.81843 -0.481102 0
M  V30 3448 O 327.668 -1.21732 -1.34354 0
M  V30 3449 C 327.716 -3.28169 1.49457 0
M  V30 3450 O 326.82 -4.0643 0.699157 0
M  V30 3451 H 326.161 -0.568026 0.343864 0
M  V30 3452 H 328.691 -1.34362 1.54299 0
M  V30 3453 H 328.701 -3.78992 1.51092 0
M  V30 3454 H 327.376 -3.28722 2.54784 0
M  V30 3455 H 325.953 -3.65216 0.7531 0
M  V30 3456 N 328.138 -0.959301 -1.25041 0
M  V30 3457 C 329.384 -0.617525 -1.9317 0
M  V30 3458 C 329.717 0.843981 -1.74902 0
M  V30 3459 O 328.992 1.60615 -1.09696 0
M  V30 3460 C 329.275 -0.982736 -3.46431 0
M  V30 3461 C 329.128 -2.50032 -3.73904 0
M  V30 3462 C 330.447 -0.511176 -4.37121 0
M  V30 3463 H 327.566 -0.22582 -0.701552 0
M  V30 3464 H 330.208 -1.19679 -1.4757 0
M  V30 3465 H 328.358 -0.489806 -3.854 0
M  V30 3466 H 330.03 -3.06737 -3.44544 0
M  V30 3467 H 328.273 -2.93598 -3.19348 0
M  V30 3468 H 328.944 -2.70635 -4.81103 0
M  V30 3469 H 331.42 -0.934075 -4.0548 0
M  V30 3470 H 330.296 -0.795361 -5.43107 0
M  V30 3471 H 330.557 0.588834 -4.38161 0
M  V30 3472 N 329.616 1.39756 -0.72842 0
M  V30 3473 C 330.546 2.33289 -0.0991354 0
M  V30 3474 C 331.527 1.53568 0.731489 0
M  V30 3475 O 332.712 1.81987 0.677807 0
M  V30 3476 C 329.842 3.3763 0.813834 0
M  V30 3477 C 328.796 4.2791 0.0878663 0
M  V30 3478 C 328.122 5.22894 1.11741 0
M  V30 3479 C 329.422 5.11314 -1.06563 0
M  V30 3480 H 331.116 2.86163 -0.880408 0
M  V30 3481 H 328.662 1.37591 -0.424819 0
M  V30 3482 H 330.615 4.0201 1.26355 0
M  V30 3483 H 329.339 2.83181 1.62715 0
M  V30 3484 H 327.998 3.65 -0.342159 0
M  V30 3485 H 327.646 4.64744 1.92412 0
M  V30 3486 H 327.346 5.84143 0.636477 0
M  V30 3487 H 328.87 5.90151 1.56697 0
M  V30 3488 H 330.284 5.69076 -0.694671 0
M  V30 3489 H 328.681 5.81671 -1.47577 0
M  V30 3490 H 329.751 4.46534 -1.89038 0
M  V30 3491 N 331.094 0.475555 1.50254 0
M  V30 3492 C 332.34 -0.0780073 2.0265 0
M  V30 3493 C 332.673 -1.38968 1.35652 0
M  V30 3494 O 331.948 -1.8839 0.483691 0
M  V30 3495 C 332.231 -0.257161 3.59181 0
M  V30 3496 C 332.084 1.07585 4.36744 0
M  V30 3497 C 333.403 -1.00965 4.28362 0
M  V30 3498 H 330.522 -0.0268758 0.73651 0
M  V30 3499 H 333.164 0.622015 1.7953 0
M  V30 3500 H 331.314 -0.853412 3.79011 0
M  V30 3501 H 332.986 1.70902 4.28474 0
M  V30 3502 H 331.229 1.6714 4.00308 0
M  V30 3503 H 331.9 0.904088 5.44546 0
M  V30 3504 H 334.376 -0.504214 4.13034 0
M  V30 3505 H 333.252 -1.10381 5.37687 0
M  V30 3506 H 333.513 -2.04731 3.91839 0
M  V30 3507 N 332.573 -1.56217 0.208337 0
M  V30 3508 C 333.819 -1.98242 -0.427552 0
M  V30 3509 C 334.152 -1.09554 -1.60348 0
M  V30 3510 O 333.427 -0.15035 -1.93918 0
M  V30 3511 C 333.71 -3.4931 -0.874907 0
M  V30 3512 C 333.563 -4.48773 0.303751 0
M  V30 3513 C 334.882 -4.04424 -1.73577 0
M  V30 3514 H 332.001 -0.720744 -0.153936 0
M  V30 3515 H 334.643 -1.87586 0.30192 0
M  V30 3516 H 332.793 -3.58522 -1.49648 0
M  V30 3517 H 334.465 -4.51586 0.941682 0
M  V30 3518 H 332.708 -4.23194 0.953375 0
M  V30 3519 H 333.379 -5.51976 -0.0519883 0
M  V30 3520 H 335.855 -3.98075 -1.21143 0
M  V30 3521 H 334.731 -5.1047 -2.01771 0
M  V30 3522 H 334.992 -3.50494 -2.69456 0
M  V30 3523 N 334.051 0.0651679 -1.57465 0
M  V30 3524 C 335.297 0.764193 -1.87851 0
M  V30 3525 C 335.63 1.76889 -0.801495 0
M  V30 3526 O 334.905 1.93594 0.187528 0
M  V30 3527 C 335.188 1.46625 -3.28897 0
M  V30 3528 C 335.041 0.477515 -4.47258 0
M  V30 3529 C 336.36 2.4095 -3.68281 0
M  V30 3530 H 333.479 0.276351 -0.683227 0
M  V30 3531 H 336.121 0.0272868 -1.8998 0
M  V30 3532 H 334.271 2.09438 -3.27212 0
M  V30 3533 H 335.943 -0.145922 -4.61069 0
M  V30 3534 H 334.186 -0.206576 -4.33308 0
M  V30 3535 H 334.857 1.0065 -5.42746 0
M  V30 3536 H 337.333 1.88209 -3.71102 0
M  V30 3537 H 336.209 2.87072 -4.67847 0
M  V30 3538 H 336.47 3.26049 -2.98571 0
M  V30 3539 N 335.529 1.53961 0.336706 0
M  V30 3540 C 336.778 1.70751 1.07363 0
M  V30 3541 C 337.091 0.481061 1.89592 0
M  V30 3542 O 338.297 0.530046 2.66276 0
M  V30 3543 C 336.753 3.01965 1.95818 0
M  V30 3544 C 336.361 4.31971 1.18764 0
M  V30 3545 C 338.105 3.28121 2.69327 0
M  V30 3546 C 336.012 5.54255 2.06289 0
M  V30 3547 H 334.942 0.636292 0.404535 0
M  V30 3548 H 337.593 1.80459 0.332681 0
M  V30 3549 H 335.975 2.86132 2.7376 0
M  V30 3550 H 337.149 4.5853 0.456849 0
M  V30 3551 H 335.464 4.12481 0.569946 0
M  V30 3552 H 338.061 4.16673 3.35094 0
M  V30 3553 H 338.404 2.45426 3.36261 0
M  V30 3554 H 338.937 3.44762 1.98454 0
M  V30 3555 H 335.676 6.39513 1.43885 0
M  V30 3556 H 335.196 5.31935 2.77138 0
M  V30 3557 H 336.875 5.90159 2.65182 0
M  V30 3558 N 337.007 -0.598083 1.45811 0
M  V30 3559 C 338.232 -1.3881 1.54099 0
M  V30 3560 C 338.657 -1.8726 0.177578 0
M  V30 3561 O 338.015 -1.6069 -0.839541 0
M  V30 3562 C 338.063 -2.56217 2.53743 0
M  V30 3563 O 337.167 -3.5716 2.06182 0
M  V30 3564 H 336.508 -0.414024 0.519115 0
M  V30 3565 H 339.038 -0.726971 1.91249 0
M  V30 3566 H 339.048 -3.03337 2.72856 0
M  V30 3567 H 337.723 -2.20303 3.5276 0
M  V30 3568 H 336.3 -3.16624 1.96987 0
M  V30 3569 N 338.485 -1.33259 -0.841409 0
M  V30 3570 C 339.734 -1.23921 -1.59143 0
M  V30 3571 C 340.047 0.1941 -1.94635 0
M  V30 3572 O 341.253 0.409474 -2.68394 0
M  V30 3573 C 339.709 -2.17119 -2.87032 0
M  V30 3574 C 339.317 -3.65606 -2.58914 0
M  V30 3575 C 341.061 -2.16648 -3.65053 0
M  V30 3576 C 338.968 -4.50726 -3.82884 0
M  V30 3577 H 337.898 -0.460264 -0.597221 0
M  V30 3578 H 340.549 -1.58307 -0.927959 0
M  V30 3579 H 338.931 -1.75663 -3.54906 0
M  V30 3580 H 340.105 -4.15487 -1.99267 0
M  V30 3581 H 338.42 -3.68341 -1.942 0
M  V30 3582 H 341.017 -2.77474 -4.57069 0
M  V30 3583 H 341.36 -1.16088 -3.99787 0
M  V30 3584 H 341.893 -2.56453 -3.041 0
M  V30 3585 H 338.632 -5.52151 -3.53283 0
M  V30 3586 H 338.152 -4.0559 -4.41879 0
M  V30 3587 H 339.831 -4.64401 -4.50489 0
M  V30 3588 N 339.963 1.05934 -1.16686 0
M  V30 3589 C 341.191 1.8249 -0.974929 0
M  V30 3590 C 341.606 1.82679 0.476861 0
M  V30 3591 O 340.963 1.2486 1.33103 0
M  V30 3592 C 341.014 3.28943 -1.49929 0
M  V30 3593 O 340.735 3.28886 -2.89423 0
M  V30 3594 C 342.236 4.22215 -1.35089 0
M  V30 3595 H 339.456 0.575295 -0.345365 0
M  V30 3596 H 342 1.33631 -1.548 0
M  V30 3597 H 340.155 3.751 -0.968423 0
M  V30 3598 H 340.569 4.20493 -3.13506 0
M  V30 3599 H 342.043 5.22987 -1.76603 0
M  V30 3600 H 342.52 4.38195 -0.296935 0
M  V30 3601 H 343.126 3.81907 -1.87155 0
M  V30 3602 N 341.441 0.965919 1.2453 0
M  V30 3603 C 342.69 0.622437 1.91856 0
M  V30 3604 C 343.003 -0.846006 1.76358 0
M  V30 3605 O 344.209 -1.29993 2.38357 0
M  V30 3606 C 342.665 1.0626 3.43856 0
M  V30 3607 C 342.273 2.55437 3.68043 0
M  V30 3608 C 344.017 0.792183 4.17043 0
M  V30 3609 C 341.924 2.93196 5.13605 0
M  V30 3610 H 340.854 0.229092 0.718354 0
M  V30 3611 H 343.505 1.17189 1.41206 0
M  V30 3612 H 341.887 0.441476 3.93531 0
M  V30 3613 H 343.061 3.22665 3.28974 0
M  V30 3614 H 341.376 2.8007 3.08139 0
M  V30 3615 H 343.973 1.05031 5.24283 0
M  V30 3616 H 344.316 -0.271584 4.15413 0
M  V30 3617 H 344.849 1.37419 3.73311 0
M  V30 3618 H 341.588 3.98636 5.20355 0
M  V30 3619 H 341.108 2.30651 5.53679 0
M  V30 3620 H 342.787 2.83004 5.81823 0
M  V30 3621 N 342.919 -1.39368 0.735821 0
M  V30 3622 C 344.166 -2.00497 0.284123 0
M  V30 3623 C 344.494 -1.58387 -1.12889 0
M  V30 3624 O 343.749 -0.804359 -1.78406 0
M  V30 3625 C 344.048 -3.5583 0.334651 0
M  V30 3626 C 343.714 -4.17593 1.7008 0
M  V30 3627 C 342.376 -4.34176 2.07472 0
M  V30 3628 C 344.728 -4.51848 2.59775 0
M  V30 3629 C 342.056 -4.82304 3.34065 0
M  V30 3630 C 344.408 -5.01384 3.85741 0
M  V30 3631 C 343.072 -5.16175 4.23225 0
M  V30 3632 H 342.342 -0.73367 0.103968 0
M  V30 3633 H 344.989 -1.66683 0.942825 0
M  V30 3634 H 343.294 -3.89674 -0.407625 0
M  V30 3635 H 344.991 -4.00986 -0.0329927 0
M  V30 3636 H 341.581 -4.05087 1.40008 0
M  V30 3637 H 345.765 -4.38653 2.32157 0
M  V30 3638 H 341.021 -4.91941 3.63049 0
M  V30 3639 H 345.195 -5.26863 4.55399 0
M  V30 3640 H 342.822 -5.5323 5.21384 0
M  V30 3641 N 344.397 -0.483516 -1.5 0
M  V30 3642 C 345.637 0.0657469 -2.04294 0
M  V30 3643 C 346.001 1.35869 -1.35659 0
M  V30 3644 O 347.202 1.99111 -1.80578 0
M  V30 3645 C 345.473 0.232758 -3.56641 0
M  V30 3646 S 347.032 0.738788 -4.32536 0
M  V30 3647 H 343.85 0.0100755 -0.710929 0
M  V30 3648 H 346.452 -0.653494 -1.84254 0
M  V30 3649 H 345.156 -0.713847 -4.04144 0
M  V30 3650 H 344.687 0.977751 -3.81056 0
M  V30 3651 H 346.702 2.01048 -4.53645 0
M  V30 3652 N 345.875 1.56104 -0.216619 0
M  V30 3653 C 346.805 2.23063 0.690296 0
M  V30 3654 C 347.786 1.20072 1.20485 0
M  V30 3655 O 348.971 1.48643 1.24976 0
M  V30 3656 C 346.101 2.90672 1.90072 0
M  V30 3657 C 345.055 4.00092 1.5202 0
M  V30 3658 C 344.381 4.54972 2.80899 0
M  V30 3659 C 345.681 5.17398 0.71391 0
M  V30 3660 H 347.375 2.99109 0.132038 0
M  V30 3661 H 344.921 1.43866 0.0620664 0
M  V30 3662 H 346.874 3.36204 2.54057 0
M  V30 3663 H 345.598 2.12066 2.48386 0
M  V30 3664 H 344.257 3.55283 0.903839 0
M  V30 3665 H 343.905 3.73102 3.37348 0
M  V30 3666 H 343.605 5.28817 2.56176 0
M  V30 3667 H 345.129 5.0322 3.45836 0
M  V30 3668 H 346.543 5.59342 1.25735 0
M  V30 3669 H 344.94 5.97444 0.563951 0
M  V30 3670 H 346.01 4.84088 -0.280527 0
M  V30 3671 N 347.353 -0.0568162 1.57498 0
M  V30 3672 C 348.263 -1.08346 2.08083 0
M  V30 3673 C 349.279 -1.41439 1.01346 0
M  V30 3674 O 350.455 -1.51316 1.32912 0
M  V30 3675 C 347.52 -2.37352 2.52715 0
M  V30 3676 C 346.581 -2.11093 3.73816 0
M  V30 3677 C 345.814 -3.33949 4.1631 0
M  V30 3678 O 346.037 -4.43622 3.58547 0
M  V30 3679 O 344.971 -3.21279 5.08983 0
M  V30 3680 H 348.797 -0.683667 2.95905 0
M  V30 3681 H 346.382 -0.271965 1.46904 0
M  V30 3682 H 348.264 -3.13246 2.81877 0
M  V30 3683 H 346.939 -2.76681 1.68016 0
M  V30 3684 H 345.846 -1.32856 3.49714 0
M  V30 3685 H 347.179 -1.76637 4.59413 0
M  V30 3686 N 348.832 -1.54138 -0.328536 0
M  V30 3687 C 350.06 -1.76062 -1.08673 0
M  V30 3688 C 350.475 -0.506852 -1.81869 0
M  V30 3689 O 349.832 0.522223 -1.74869 0
M  V30 3690 C 349.883 -2.95054 -2.08866 0
M  V30 3691 O 349.604 -4.15583 -1.38644 0
M  V30 3692 C 351.105 -3.2915 -2.96943 0
M  V30 3693 H 348.325 -0.587889 -0.323461 0
M  V30 3694 H 350.869 -2.0101 -0.376175 0
M  V30 3695 H 349.024 -2.72394 -2.75464 0
M  V30 3696 H 349.438 -4.82481 -2.05699 0
M  V30 3697 H 350.912 -4.15723 -3.63151 0
M  V30 3698 H 351.389 -2.461 -3.63774 0
M  V30 3699 H 351.995 -3.53871 -2.35914 0
M  V30 3700 N 350.31 0.590341 -1.46126 0
M  V30 3701 C 351.24 1.71032 -1.58966 0
M  V30 3702 C 352.221 1.64302 -0.440335 0
M  V30 3703 O 353.406 1.82436 -0.665634 0
M  V30 3704 C 350.536 3.09665 -1.57241 0
M  V30 3705 C 349.49 3.31221 -2.71066 0
M  V30 3706 C 348.816 4.70303 -2.54399 0
M  V30 3707 C 350.116 3.19796 -4.1295 0
M  V30 3708 H 351.81 1.60543 -2.52718 0
M  V30 3709 H 349.356 0.770933 -1.21625 0
M  V30 3710 H 351.309 3.87831 -1.64819 0
M  V30 3711 H 350.033 3.21036 -0.600289 0
M  V30 3712 H 348.692 2.55452 -2.62944 0
M  V30 3713 H 348.34 4.78429 -1.55288 0
M  V30 3714 H 348.04 4.85679 -3.30741 0
M  V30 3715 H 349.564 5.50647 -2.63857 0
M  V30 3716 H 350.978 3.87815 -4.22223 0
M  V30 3717 H 349.375 3.46696 -4.89818 0
M  V30 3718 H 350.445 2.16983 -4.33643 0
M  V30 3719 N 351.788 1.33704 0.83433 0
M  V30 3720 C 353.199 1.22813 1.4062 0
M  V30 3721 C 353.55 -0.151107 1.95617 0
M  V30 3722 O 352.675 -1.05092 1.89168 0
M  V30 3723 C 353.27 2.22355 2.55624 0
M  V30 3724 C 351.829 2.1529 3.08751 0
M  V30 3725 C 350.976 2.09589 1.8157 0
M  V30 3726 H 353.927 1.45236 0.639702 0
M  V30 3727 H 353.948 1.83391 3.33389 0
M  V30 3728 H 353.46 3.22728 2.15566 0
M  V30 3729 H 351.561 1.18235 3.53343 0
M  V30 3730 H 351.674 3.06038 3.68616 0
M  V30 3731 H 350.038 1.55134 2.02004 0
M  V30 3732 H 350.821 3.11777 1.43701 0
M  V30 3733 N 353.266 -1.05314 1.17247 0
M  V30 3734 C 354.176 -2.16538 0.90268 0
M  V30 3735 C 355.192 -1.73523 -0.128707 0
M  V30 3736 O 356.368 -2.01337 0.0502701 0
M  V30 3737 C 353.433 -3.44167 0.418356 0
M  V30 3738 C 352.494 -4.01635 1.51618 0
M  V30 3739 C 351.727 -5.23171 1.05487 0
M  V30 3740 O 351.95 -5.70327 -0.0914715 0
M  V30 3741 O 350.884 -5.72848 1.8474 0
M  V30 3742 H 354.71 -2.42145 1.83302 0
M  V30 3743 H 352.295 -1.15037 0.953246 0
M  V30 3744 H 354.177 -4.21112 0.155726 0
M  V30 3745 H 352.852 -3.20063 -0.48385 0
M  V30 3746 H 351.759 -3.26135 1.83268 0
M  V30 3747 H 353.092 -4.30053 2.39405 0
M  V30 3748 N 354.744 -0.972509 -1.24016 0
M  V30 3749 C 355.991 -0.637034 -1.92219 0
M  V30 3750 C 356.319 0.828418 -1.75976 0
M  V30 3751 O 355.574 1.61206 -1.10955 0
M  V30 3752 C 355.873 -0.963694 -3.44162 0
M  V30 3753 C 355.539 -2.41807 -3.80579 0
M  V30 3754 C 354.201 -2.81556 -3.9023 0
M  V30 3755 C 356.553 -3.36172 -3.98293 0
M  V30 3756 C 353.881 -4.14702 -4.15017 0
M  V30 3757 C 356.233 -4.68952 -4.24578 0
M  V30 3758 C 354.897 -5.08472 -4.32449 0
M  V30 3759 H 354.167 -0.233107 -0.703379 0
M  V30 3760 H 356.814 -1.2249 -1.47202 0
M  V30 3761 H 355.119 -0.29365 -3.90698 0
M  V30 3762 H 356.816 -0.682449 -3.9515 0
M  V30 3763 H 353.406 -2.09988 -3.73635 0
M  V30 3764 H 357.59 -3.06644 -3.90234 0
M  V30 3765 H 352.846 -4.4494 -4.19331 0
M  V30 3766 H 357.02 -5.42037 -4.37229 0
M  V30 3767 H 354.647 -6.11665 -4.51409 0
M  V30 3768 N 356.222 1.38976 -0.743202 0
M  V30 3769 C 357.638 1.53984 -0.419664 0
M  V30 3770 C 357.838 1.70837 1.0685 0
M  V30 3771 O 356.894 1.7135 1.8546 0
M  V30 3772 C 358.207 2.75287 -1.20985 0
M  V30 3773 C 359.755 2.89129 -1.19889 0
M  V30 3774 C 360.23 4.13381 -1.97181 0
M  V30 3775 N 361.721 4.20437 -1.94389 0
M  V30 3776 C 362.456 5.15547 -2.50996 0
M  V30 3777 N 361.952 6.16395 -3.16274 0
M  V30 3778 N 363.745 5.07822 -2.40984 0
M  V30 3779 H 355.896 1.26285 -1.7078 0
M  V30 3780 H 358.159 0.612689 -0.723406 0
M  V30 3781 H 357.865 2.69204 -2.26323 0
M  V30 3782 H 357.739 3.68184 -0.819759 0
M  V30 3783 H 360.126 2.947 -0.153606 0
M  V30 3784 H 360.207 1.97272 -1.62841 0
M  V30 3785 H 359.851 4.08572 -3.01714 0
M  V30 3786 H 359.781 5.04298 -1.51629 0
M  V30 3787 H 362.272 3.48205 -1.46839 0
M  V30 3788 H 362.585 6.85443 -3.56915 0
M  V30 3789 H 360.93 6.16758 -3.20367 0
M  V30 3790 H 364.121 4.27973 -1.89622 0
M  V30 3791 H 364.294 5.81767 -2.85397 0
M  V30 3792 N 357.7 0.491464 1.49741 0
M  V30 3793 C 358.61 -0.296835 2.32715 0
M  V30 3794 C 359.626 -0.976536 1.44013 0
M  V30 3795 O 360.802 -0.960023 1.77047 0
M  V30 3796 C 357.867 -1.35288 3.19215 0
M  V30 3797 C 356.928 -0.687632 4.23757 0
M  V30 3798 C 356.161 -1.69336 5.06123 0
M  V30 3799 O 356.384 -2.92219 4.89861 0
M  V30 3800 O 355.318 -1.25394 5.88693 0
M  V30 3801 H 359.144 0.382048 3.01287 0
M  V30 3802 H 356.729 0.252953 1.47243 0
M  V30 3803 H 358.611 -1.96411 3.72828 0
M  V30 3804 H 357.286 -2.01487 2.53347 0
M  V30 3805 H 356.193 -0.0369159 3.74082 0
M  V30 3806 H 357.526 -0.0682566 4.92153 0
M  V30 3807 N 359.178 -1.55987 0.224894 0
M  V30 3808 C 360.455 -1.90232 -0.455083 0
M  V30 3809 C 360.835 -1.14269 -1.77499 0
M  V30 3810 O 360.183 -0.253079 -2.27094 0
M  V30 3811 C 360.393 -3.42993 -0.644758 0
M  V30 3812 C 361.741 -4.13821 -0.950669 0
M  V30 3813 O 362.765 -3.4861 -0.731423 0
M  V30 3814 O 361.624 -5.29128 -1.36695 0
M  V30 3815 H 358.718 -0.79108 -0.241084 0
M  V30 3816 H 361.264 -1.67581 0.267327 0
M  V30 3817 H 360.036 -3.90252 0.28613 0
M  V30 3818 H 359.659 -3.71434 -1.41853 0
M  V30 3819 N 360.656 0.0484629 -1.57525 0
M  V30 3820 C 362.072 0.40375 -1.54409 0
M  V30 3821 C 362.272 1.77786 -0.948384 0
M  V30 3822 O 361.328 2.46189 -0.560983 0
M  V30 3823 C 362.641 0.323394 -2.98956 0
M  V30 3824 C 364.189 0.401892 -3.10409 0
M  V30 3825 C 364.664 0.351195 -4.56652 0
M  V30 3826 N 366.155 0.410576 -4.61377 0
M  V30 3827 C 366.89 0.393933 -5.72045 0
M  V30 3828 N 366.386 0.330724 -6.9201 0
M  V30 3829 N 368.179 0.442227 -5.60358 0
M  V30 3830 H 360.33 -0.851016 -1.94606 0
M  V30 3831 H 362.593 -0.321721 -0.89174 0
M  V30 3832 H 362.299 -0.62011 -3.4619 0
M  V30 3833 H 362.173 1.12463 -3.60044 0
M  V30 3834 H 364.56 1.33582 -2.63134 0
M  V30 3835 H 364.641 -0.428342 -2.52188 0
M  V30 3836 H 364.285 -0.578987 -5.04589 0
M  V30 3837 H 364.215 1.19928 -5.12762 0
M  V30 3838 H 366.706 0.462729 -3.75056 0
M  V30 3839 H 367.019 0.322592 -7.72126 0
M  V30 3840 H 365.364 0.29706 -6.94365 0
M  V30 3841 H 368.555 0.489464 -4.65534 0
M  V30 3842 H 368.728 0.425788 -6.466 0
M  V30 3843 N 362.134 1.5431 0.320358 0
M  V30 3844 C 363.044 1.86946 1.41734 0
M  V30 3845 C 364.06 0.761689 1.56443 0
M  V30 3846 O 365.236 1.05629 1.71477 0
M  V30 3847 C 362.301 2.09293 2.76401 0
M  V30 3848 C 361.362 3.33082 2.70841 0
M  V30 3849 C 360.595 3.54353 3.99086 0
M  V30 3850 O 360.818 2.79002 4.97508 0
M  V30 3851 O 359.752 4.47838 4.0215 0
M  V30 3852 H 363.578 2.80232 1.17062 0
M  V30 3853 H 361.163 1.40255 0.514673 0
M  V30 3854 H 363.045 2.25303 3.56113 0
M  V30 3855 H 361.72 1.19194 3.00956 0
M  V30 3856 H 360.627 3.22454 1.89668 0
M  V30 3857 H 361.96 4.23249 2.5124 0
M  V30 3858 N 363.613 -0.582584 1.46437 0
M  V30 3859 C 364.543 -1.70187 1.59871 0
M  V30 3860 C 365.524 -1.64066 0.449042 0
M  V30 3861 O 366.709 -1.82081 0.6753 0
M  V30 3862 C 363.839 -3.08827 1.58881 0
M  V30 3863 C 362.793 -3.29779 2.72819 0
M  V30 3864 C 362.119 -4.68947 2.5689 0
M  V30 3865 C 363.419 -3.17601 4.1464 0
M  V30 3866 H 365.113 -1.592 2.53566 0
M  V30 3867 H 362.659 -0.764472 1.22032 0
M  V30 3868 H 364.612 -3.86951 1.66873 0
M  V30 3869 H 363.336 -3.20713 0.617306 0
M  V30 3870 H 361.995 -2.54054 2.64296 0
M  V30 3871 H 361.643 -4.77599 1.57823 0
M  V30 3872 H 361.343 -4.83919 3.33312 0
M  V30 3873 H 362.867 -5.4924 2.66773 0
M  V30 3874 H 364.281 -3.8557 4.24274 0
M  V30 3875 H 362.678 -3.44094 4.9165 0
M  V30 3876 H 363.748 -2.14681 4.34788 0
M  V30 3877 N 365.091 -1.34144 -0.827227 0
M  V30 3878 C 366.038 -1.25364 -1.93785 0
M  V30 3879 C 367.008 -0.129774 -1.65592 0
M  V30 3880 O 368.193 -0.310024 -1.88264 0
M  V30 3881 C 365.333 -1.01064 -3.2997 0
M  V30 3882 C 364.446 -2.22185 -3.70484 0
M  V30 3883 C 363.581 -1.91203 -4.95595 0
M  V30 3884 C 362.62 -3.08491 -5.28677 0
M  V30 3885 N 361.757 -2.77421 -6.44967 0
M  V30 3886 H 366.597 -2.20347 -2.00627 0
M  V30 3887 H 364.134 -1.09558 -0.981608 0
M  V30 3888 H 366.092 -0.850139 -4.08446 0
M  V30 3889 H 364.722 -0.0975026 -3.22653 0
M  V30 3890 H 363.774 -2.4917 -2.87434 0
M  V30 3891 H 365.086 -3.0983 -3.90905 0
M  V30 3892 H 364.24 -1.71864 -5.81848 0
M  V30 3893 H 362.979 -1.00812 -4.77167 0
M  V30 3894 H 361.984 -3.28431 -4.40923 0
M  V30 3895 H 363.209 -3.99655 -5.49047 0
M  V30 3896 H 361.155 -1.89601 -6.28003 0
M  V30 3897 H 361.072 -3.58598 -6.6554 0
M  V30 3898 H 362.34 -2.61577 -7.34301 0
M  V30 3899 N 366.569 1.04691 -1.17803 0
M  V30 3900 C 367.815 1.78045 -0.970969 0
M  V30 3901 C 368.148 1.87686 0.498751 0
M  V30 3902 O 367.423 1.38035 1.37027 0
M  V30 3903 C 367.706 3.2166 -1.61884 0
M  V30 3904 C 367.559 3.20001 -3.161 0
M  V30 3905 C 368.878 4.1962 -1.3269 0
M  V30 3906 H 365.997 0.64633 -0.354155 0
M  V30 3907 H 368.639 1.22333 -1.45378 0
M  V30 3908 H 366.789 3.69232 -1.20831 0
M  V30 3909 H 368.461 2.80467 -3.66246 0
M  V30 3910 H 366.704 2.58203 -3.48588 0
M  V30 3911 H 367.375 4.21386 -3.56564 0
M  V30 3912 H 369.851 3.80567 -1.68249 0
M  V30 3913 H 368.727 5.18339 -1.80599 0
M  V30 3914 H 368.988 4.414 -0.248622 0
M  V30 3915 N 368.047 0.979072 1.23499 0
M  V30 3916 C 369.293 0.648178 1.92163 0
M  V30 3917 C 369.626 -0.816049 1.76222 0
M  V30 3918 O 368.901 -1.58849 1.12237 0
M  V30 3919 C 369.184 1.03773 3.44824 0
M  V30 3920 C 369.037 2.55948 3.69879 0
M  V30 3921 C 370.356 0.580653 4.36253 0
M  V30 3922 H 367.475 0.236952 0.69787 0
M  V30 3923 H 370.117 1.22012 1.45647 0
M  V30 3924 H 368.267 0.551058 3.84572 0
M  V30 3925 H 369.939 3.12179 3.3962 0
M  V30 3926 H 368.182 2.98641 3.14636 0
M  V30 3927 H 368.853 2.78255 4.76737 0
M  V30 3928 H 371.329 0.998465 4.03943 0
M  V30 3929 H 370.205 0.881663 5.41773 0
M  V30 3930 H 370.466 -0.519052 4.39042 0
M  V30 3931 N 369.525 -1.3858 0.750561 0
M  V30 3932 C 370.941 -1.53759 0.427824 0
M  V30 3933 C 371.141 -1.71401 -1.05943 0
M  V30 3934 O 370.197 -1.72331 -1.84549 0
M  V30 3935 C 371.51 -2.74642 1.22443 0
M  V30 3936 C 373.058 -2.88489 1.2142 0
M  V30 3937 C 373.533 -4.12329 1.9937 0
M  V30 3938 N 375.024 -4.194 1.96616 0
M  V30 3939 C 375.759 -5.14209 2.53727 0
M  V30 3940 N 375.255 -6.14709 3.19539 0
M  V30 3941 N 377.048 -5.06537 2.43673 0
M  V30 3942 H 369.199 -1.25377 1.71447 0
M  V30 3943 H 371.462 -0.608844 0.726645 0
M  V30 3944 H 371.168 -2.68 2.27747 0
M  V30 3945 H 371.042 -3.67745 0.839273 0
M  V30 3946 H 373.429 -2.94614 0.169232 0
M  V30 3947 H 373.51 -1.96406 1.63885 0
M  V30 3948 H 373.154 -4.06966 3.03877 0
M  V30 3949 H 373.084 -5.03486 1.54302 0
M  V30 3950 H 375.575 -3.47421 1.48684 0
M  V30 3951 H 375.888 -6.8354 3.60545 0
M  V30 3952 H 374.233 -6.1505 3.23633 0
M  V30 3953 H 377.424 -4.26962 1.91889 0
M  V30 3954 H 377.597 -5.80245 2.88479 0
M  V30 3955 N 371.003 -0.499398 -1.49478 0
M  V30 3956 C 372.28 0.108629 -1.95298 0
M  V30 3957 C 372.66 1.54282 -1.44084 0
M  V30 3958 O 372.008 2.18944 -0.653908 0
M  V30 3959 C 372.218 0.0229111 -3.48992 0
M  V30 3960 C 373.566 0.197643 -4.2414 0
M  V30 3961 O 374.59 0.0981735 -3.56065 0
M  V30 3962 O 373.449 0.401669 -5.45022 0
M  V30 3963 H 370.543 0.096181 -0.821388 0
M  V30 3964 H 373.089 -0.561822 -1.6013 0
M  V30 3965 H 371.861 -0.977321 -3.78899 0
M  V30 3966 H 371.484 0.733579 -3.90774 0
M  V30 3967 N 372.481 1.55866 -0.233164 0
M  V30 3968 C 373.892 1.847 0.272554 0
M  V30 3969 C 374.243 1.15477 1.58617 0
M  V30 3970 O 373.368 0.42841 2.12117 0
M  V30 3971 C 373.963 3.35071 0.501299 0
M  V30 3972 C 372.522 3.6418 0.951304 0
M  V30 3973 C 371.669 2.77292 0.0208209 0
M  V30 3974 H 374.62 1.52005 -0.456074 0
M  V30 3975 H 374.641 3.55906 1.34577 0
M  V30 3976 H 374.153 3.85424 -0.454936 0
M  V30 3977 H 372.254 3.19293 1.92049 0
M  V30 3978 H 372.367 4.72071 0.817675 0
M  V30 3979 H 370.731 2.49131 0.529723 0
M  V30 3980 H 371.514 3.30448 -0.93054 0
M  V30 3981 N 373.959 -0.0401083 1.57549 0
M  V30 3982 C 374.907 -1.06264 2.06908 0
M  V30 3983 C 375.901 -1.38132 0.980608 0
M  V30 3984 O 377.107 -1.37167 1.16556 0
M  V30 3985 H 373.482 -0.360166 0.660139 0
M  V30 3986 H 375.453 -0.620445 2.91878 0
M  V30 3987 C 374.202 -2.35846 2.55483 0
M  V30 3988 H 373.525 -2.12183 3.38849 0
M  V30 3989 H 374.965 -3.05765 2.93741 0
M  V30 3990 C 373.424 -3.0404 1.45126 0
M  V30 3991 O 373.954 -3.93424 0.811216 0
M  V30 3992 N 372.16 -2.65184 1.18852 0
M  V30 3993 H 371.707 -1.92584 1.71083 0
M  V30 3994 H 371.665 -3.1113 0.452244 0
M  V30 3995 N 375.437 -1.54477 -0.31217 0
M  V30 3996 C 376.367 -1.87652 -1.38957 0
M  V30 3997 C 377.348 -0.734358 -1.53431 0
M  V30 3998 O 378.533 -0.98911 -1.67123 0
M  V30 3999 C 375.663 -2.11396 -2.75552 0
M  V30 4000 C 374.617 -3.27243 -2.75855 0
M  V30 4001 C 373.943 -3.36382 -4.15633 0
M  V30 4002 C 375.243 -4.64622 -2.38587 0
M  V30 4003 H 376.937 -2.77887 -1.11442 0
M  V30 4004 H 374.483 -1.33707 -0.534655 0
M  V30 4005 H 376.436 -2.33189 -3.51 0
M  V30 4006 H 375.16 -1.17921 -3.04569 0
M  V30 4007 H 373.819 -3.05356 -2.02863 0
M  V30 4008 H 373.467 -2.40445 -4.41809 0
M  V30 4009 H 373.167 -4.14249 -4.1674 0
M  V30 4010 H 374.691 -3.60422 -4.92877 0
M  V30 4011 H 376.105 -4.86219 -3.03749 0
M  V30 4012 H 374.502 -5.45121 -2.50925 0
M  V30 4013 H 375.572 -4.66097 -1.33723 0
M  V30 4014 N 376.915 0.57481 -1.46744 0
M  V30 4015 C 377.863 1.70435 -1.58286 0
M  V30 4016 C 378.857 1.63287 -0.450956 0
M  V30 4017 O 380.063 1.68685 -0.628121 0
M  V30 4018 H 376.438 0.56364 -0.497809 0
M  V30 4019 H 378.409 1.57833 -2.53242 0
M  V30 4020 C 377.158 3.08815 -1.59776 0
M  V30 4021 H 376.481 3.1499 -2.46214 0
M  V30 4022 H 377.921 3.87588 -1.71905 0
M  V30 4023 C 376.38 3.35301 -0.327812 0
M  V30 4024 O 376.91 3.97511 0.57861 0
M  V30 4025 N 375.116 2.89816 -0.213274 0
M  V30 4026 H 374.663 2.39371 -0.951798 0
M  V30 4027 H 374.621 3.0791 0.63553 0
M  V30 4028 N 378.394 1.34581 0.820102 0
M  V30 4029 C 379.327 1.20735 1.93644 0
M  V30 4030 C 380.305 0.0983343 1.62302 0
M  V30 4031 O 381.489 0.263997 1.86642 0
M  V30 4032 C 378.616 0.856037 3.27704 0
M  V30 4033 C 377.662 1.97521 3.78005 0
M  V30 4034 S 378.495 3.58906 3.97425 0
M  V30 4035 C 379.651 3.25822 5.34407 0
M  V30 4036 H 379.884 2.15231 2.05093 0
M  V30 4037 H 377.417 1.1964 0.97599 0
M  V30 4038 H 379.375 0.660133 4.05157 0
M  V30 4039 H 378.036 -0.0706253 3.14021 0
M  V30 4040 H 377.229 1.68321 4.75062 0
M  V30 4041 H 376.831 2.12875 3.07507 0
M  V30 4042 H 379.123 2.77812 6.17922 0
M  V30 4043 H 380.066 4.22029 5.68592 0
M  V30 4044 H 380.474 2.61932 5.00052 0
M  V30 4045 N 379.872 -1.04064 1.18357 0
M  V30 4046 C 381.097 -1.81454 1.00445 0
M  V30 4047 C 381.522 -1.82823 -0.442423 0
M  V30 4048 O 380.88 -1.24555 -1.31741 0
M  V30 4049 C 380.928 -3.24925 1.56384 0
M  V30 4050 O 380.032 -4.04856 0.785209 0
M  V30 4051 H 379.373 -0.560604 0.355835 0
M  V30 4052 H 381.903 -1.31059 1.57114 0
M  V30 4053 H 381.913 -3.75702 1.59097 0
M  V30 4054 H 380.588 -3.23244 2.61699 0
M  V30 4055 H 379.165 -3.63537 0.830399 0
M  V30 4056 N 381.35 -0.985608 -1.22978 0
M  V30 4057 C 382.297 -0.529825 -2.24636 0
M  V30 4058 C 383.267 0.434028 -1.60329 0
M  V30 4059 O 384.452 0.340414 -1.87739 0
M  V30 4060 C 381.592 0.156533 -3.44745 0
M  V30 4061 C 380.705 -0.848197 -4.23591 0
M  V30 4062 C 379.84 -0.136109 -5.31026 0
M  V30 4063 C 378.879 -1.1297 -6.01585 0
M  V30 4064 N 378.016 -0.446415 -7.00679 0
M  V30 4065 H 382.856 -1.40148 -2.62988 0
M  V30 4066 H 380.393 -0.702168 -1.29259 0
M  V30 4067 H 382.351 0.571324 -4.1327 0
M  V30 4068 H 380.981 0.992025 -3.07179 0
M  V30 4069 H 380.033 -1.38135 -3.54433 0
M  V30 4070 H 381.345 -1.60512 -4.72268 0
M  V30 4071 H 380.499 0.335784 -6.0577 0
M  V30 4072 H 379.238 0.653373 -4.83304 0
M  V30 4073 H 378.243 -1.6123 -5.25628 0
M  V30 4074 H 379.468 -1.91993 -6.51395 0
M  V30 4075 H 377.414 0.323763 -6.55201 0
M  V30 4076 H 377.331 -1.1419 -7.47326 0
M  V30 4077 H 378.599 0.00291697 -7.795 0
M  V30 4078 N 382.828 1.3818 -0.7579 0
M  V30 4079 C 384.056 2.04301 -0.326937 0
M  V30 4080 C 384.471 1.57163 1.0462 0
M  V30 4081 O 383.828 0.746626 1.66529 0
M  V30 4082 C 383.879 3.59846 -0.345363 0
M  V30 4083 O 383.6 4.05256 -1.66432 0
M  V30 4084 C 385.101 4.4319 0.098927 0
M  V30 4085 H 382.321 0.656443 -0.139012 0
M  V30 4086 H 384.865 1.76786 -1.02796 0
M  V30 4087 H 383.02 3.86182 0.306955 0
M  V30 4088 H 383.434 4.99709 -1.59345 0
M  V30 4089 H 384.908 5.51989 0.0348745 0
M  V30 4090 H 385.385 4.23947 1.14741 0
M  V30 4091 H 385.991 4.22051 -0.52468 0
M  V30 4092 N 384.306 0.507319 1.49211 0
M  V30 4093 C 385.552 -0.0350047 2.0277 0
M  V30 4094 C 385.885 -1.3606 1.38569 0
M  V30 4095 O 385.16 -1.87321 0.523542 0
M  V30 4096 C 385.443 -0.180916 3.59645 0
M  V30 4097 C 385.296 1.16825 4.34364 0
M  V30 4098 C 386.615 -0.918558 4.30407 0
M  V30 4099 H 383.734 -0.0112473 0.736914 0
M  V30 4100 H 386.376 0.659956 1.7817 0
M  V30 4101 H 384.526 -0.772826 3.80736 0
M  V30 4102 H 386.198 1.79952 4.24753 0
M  V30 4103 H 384.441 1.75594 3.96673 0
M  V30 4104 H 385.112 1.01939 5.42506 0
M  V30 4105 H 387.588 -0.41649 4.1401 0
M  V30 4106 H 386.464 -0.989505 5.39907 0
M  V30 4107 H 386.725 -1.96373 3.96093 0
M  V30 4108 N 385.784 -1.5574 0.241426 0
M  V30 4109 C 386.714 -2.24133 -0.654722 0
M  V30 4110 C 387.695 -1.21974 -1.1856 0
M  V30 4111 O 388.88 -1.50612 -1.22595 0
M  V30 4112 C 386.01 -2.93659 -1.85423 0
M  V30 4113 C 384.964 -4.0246 -1.45636 0
M  V30 4114 C 384.29 -4.59383 -2.73626 0
M  V30 4115 C 385.59 -5.18468 -0.631506 0
M  V30 4116 H 387.284 -2.99281 -0.0844353 0
M  V30 4117 H 384.83 -1.43947 -0.0391707 0
M  V30 4118 H 386.783 -3.40203 -2.48676 0
M  V30 4119 H 385.507 -2.15991 -2.44981 0
M  V30 4120 H 384.166 -3.56676 -0.847202 0
M  V30 4121 H 383.814 -3.78422 -3.3137 0
M  V30 4122 H 383.514 -5.32826 -2.4773 0
M  V30 4123 H 385.038 -5.08658 -3.37786 0
M  V30 4124 H 386.452 -5.61272 -1.1682 0
M  V30 4125 H 384.849 -5.98266 -0.468831 0
M  V30 4126 H 385.919 -4.8358 0.357506 0
M  V30 4127 N 387.262 0.0317525 -1.57568 0
M  V30 4128 C 388.487 0.738664 -1.938 0
M  V30 4129 C 388.912 1.68242 -0.841208 0
M  V30 4130 O 388.27 1.80157 0.203267 0
M  V30 4131 C 388.318 1.47417 -3.29091 0
M  V30 4132 O 387.422 2.5872 -3.2115 0
M  V30 4133 H 386.763 0.198856 -0.633524 0
M  V30 4134 H 389.293 -0.0119713 -2.04596 0
M  V30 4135 H 389.303 1.84468 -3.63917 0
M  V30 4136 H 387.978 0.781988 -4.08482 0
M  V30 4137 H 386.555 2.24231 -2.97951 0
M  V30 4138 N 388.74 1.54641 0.303973 0
M  V30 4139 C 389.672 1.81754 1.39636 0
M  V30 4140 C 390.685 0.70035 1.46966 0
M  V30 4141 O 391.874 0.97778 1.49338 0
M  V30 4142 C 388.974 1.93785 2.7803 0
M  V30 4143 C 388.147 3.24156 2.93669 0
M  V30 4144 C 387.206 3.26641 4.12544 0
M  V30 4145 O 386.232 4.00187 4.04771 0
M  V30 4146 N 387.434 2.5182 5.23036 0
M  V30 4147 H 390.199 2.76031 1.16734 0
M  V30 4148 H 387.76 1.54178 0.494033 0
M  V30 4149 H 389.752 1.92852 3.55795 0
M  V30 4150 H 388.322 1.06515 2.93893 0
M  V30 4151 H 387.542 3.37887 2.03042 0
M  V30 4152 H 388.83 4.10195 3.01027 0
M  V30 4153 H 388.228 1.91692 5.32232 0
M  V30 4154 H 386.785 2.56644 5.99147 0
M  V30 4155 N 390.218 -0.567019 1.47046 0
M  V30 4156 C 391.446 -1.35027 1.56765 0
M  V30 4157 C 391.861 -1.8758 0.214316 0
M  V30 4158 O 391.218 -1.64471 -0.790919 0
M  V30 4159 C 391.269 -2.52698 2.58507 0
M  V30 4160 O 390.99 -2.0232 3.88585 0
M  V30 4161 C 392.491 -3.45043 2.78316 0
M  V30 4162 H 389.711 -0.41195 0.529658 0
M  V30 4163 H 392.255 -0.687832 1.92585 0
M  V30 4164 H 390.41 -3.149 2.25648 0
M  V30 4165 H 390.824 -2.79068 4.44096 0
M  V30 4166 H 392.298 -4.2405 3.53391 0
M  V30 4167 H 392.775 -3.97971 1.85784 0
M  V30 4168 H 393.381 -2.88665 3.12334 0
M  V30 4169 N 391.696 -1.35014 -0.812953 0
M  V30 4170 C 392.629 -1.21761 -1.93001 0
M  V30 4171 C 393.607 -0.10694 -1.62248 0
M  V30 4172 O 394.791 -0.273891 -1.865 0
M  V30 4173 C 391.918 -0.873404 -3.27245 0
M  V30 4174 C 390.964 -1.99523 -3.76952 0
M  V30 4175 S 391.797 -3.61009 -3.95516 0
M  V30 4176 C 392.953 -3.28651 -5.32672 0
M  V30 4177 H 393.186 -2.16315 -2.03948 0
M  V30 4178 H 390.719 -1.20156 -0.969631 0
M  V30 4179 H 392.677 -0.68161 -4.04802 0
M  V30 4180 H 391.338 0.053971 -3.14054 0
M  V30 4181 H 390.531 -1.70838 -4.74163 0
M  V30 4182 H 390.133 -2.14503 -3.06373 0
M  V30 4183 H 392.425 -2.81085 -6.1644 0
M  V30 4184 H 393.368 -4.25039 -5.66346 0
M  V30 4185 H 393.776 -2.6458 -4.98656 0
M  V30 4186 N 393.175 1.03435 -1.18907 0
M  V30 4187 C 394.422 1.76743 -0.988334 0
M  V30 4188 C 394.75 1.88447 0.481441 0
M  V30 4189 O 394.005 1.39383 1.37371 0
M  V30 4190 C 394.304 3.19792 -1.59586 0
M  V30 4191 C 393.97 3.28108 -3.09283 0
M  V30 4192 C 392.632 3.30084 -3.5014 0
M  V30 4193 C 394.984 3.27696 -4.05296 0
M  V30 4194 C 392.312 3.29299 -4.85571 0
M  V30 4195 C 394.664 3.28451 -5.4065 0
M  V30 4196 C 393.328 3.28723 -5.80946 0
M  V30 4197 H 392.598 0.64675 -0.361657 0
M  V30 4198 H 395.245 1.21442 -1.48068 0
M  V30 4199 H 393.55 3.78136 -1.02568 0
M  V30 4200 H 395.247 3.75171 -1.41589 0
M  V30 4201 H 391.837 3.27294 -2.76725 0
M  V30 4202 H 396.021 3.25354 -3.74778 0
M  V30 4203 H 391.277 3.2783 -5.16079 0
M  V30 4204 H 395.451 3.27082 -6.14809 0
M  V30 4205 H 393.078 3.27868 -6.85862 0
M  V30 4206 N 394.653 0.992116 1.22453 0
M  V30 4207 C 395.881 0.685944 1.95198 0
M  V30 4208 C 396.296 -0.749233 1.73297 0
M  V30 4209 O 395.653 -1.50549 1.03156 0
M  V30 4210 C 395.704 0.981395 3.47924 0
M  V30 4211 O 395.425 2.36018 3.6909 0
M  V30 4212 C 396.926 0.692815 4.37853 0
M  V30 4213 H 394.146 0.253821 0.621141 0
M  V30 4214 H 396.69 1.32668 1.55626 0
M  V30 4215 H 394.845 0.386481 3.85467 0
M  V30 4216 H 395.259 2.45884 4.63294 0
M  V30 4217 H 396.733 0.949818 5.43767 0
M  V30 4218 H 397.21 -0.373181 4.37612 0
M  V30 4219 H 397.816 1.26874 4.05935 0
M  V30 4220 N 396.131 -1.37776 0.765217 0
M  V30 4221 C 397.408 -1.93975 0.251596 0
M  V30 4222 C 397.788 -1.69949 -1.25222 0
M  V30 4223 O 397.136 -1.04457 -2.03226 0
M  V30 4224 C 397.346 -3.43487 0.617895 0
M  V30 4225 C 398.694 -4.20564 0.584029 0
M  V30 4226 O 399.718 -3.5182 0.556888 0
M  V30 4227 O 398.577 -5.43138 0.605291 0
M  V30 4228 H 395.671 -0.82509 0.0561806 0
M  V30 4229 H 398.217 -1.47101 0.846128 0
M  V30 4230 H 396.989 -3.5453 1.65602 0
M  V30 4231 H 396.612 -3.976 -0.00403411 0
M  V30 4232 N 397.609 -0.515225 -1.4894 0
M  V30 4233 C 399.02 -0.0710067 -1.86565 0
M  V30 4234 C 399.371 1.34733 -1.42623 0
M  V30 4235 O 398.496 2.00653 -0.810379 0
M  V30 4236 C 399.091 -0.122083 -3.3858 0
M  V30 4237 C 397.65 0.266863 -3.75453 0
M  V30 4238 C 396.797 -0.488376 -2.72966 0
M  V30 4239 H 399.748 -0.727266 -1.41055 0
M  V30 4240 H 399.769 0.669818 -3.74558 0
M  V30 4241 H 399.281 -1.15448 -3.70531 0
M  V30 4242 H 397.382 1.30196 -3.49113 0
M  V30 4243 H 397.495 -0.0624811 -4.79059 0
M  V30 4244 H 395.859 0.0635622 -2.54621 0
M  V30 4245 H 396.642 -1.52113 -3.07761 0
M  V30 4246 N 399.087 1.5561 -0.249682 0
M  V30 4247 C 400.334 1.99011 0.374287 0
M  V30 4248 C 400.662 1.13785 1.57744 0
M  V30 4249 O 399.917 0.189326 1.94782 0
M  V30 4250 C 400.216 3.4775 0.824887 0
M  V30 4251 C 399.882 4.50086 -0.270819 0
M  V30 4252 C 398.544 4.77791 -0.571746 0
M  V30 4253 C 400.896 5.11312 -1.01041 0
M  V30 4254 C 398.224 5.63997 -1.61629 0
M  V30 4255 C 400.576 5.98651 -2.0445 0
M  V30 4256 C 399.24 6.24688 -2.35204 0
M  V30 4257 H 398.51 0.728233 0.136961 0
M  V30 4258 H 401.157 1.88122 -0.358087 0
M  V30 4259 H 399.462 3.55985 1.63651 0
M  V30 4260 H 401.159 3.78721 1.31799 0
M  V30 4261 H 397.749 4.28592 -0.026136 0
M  V30 4262 H 401.933 4.89953 -0.791177 0
M  V30 4263 H 397.189 5.82425 -1.85988 0
M  V30 4264 H 401.363 6.45135 -2.62248 0
M  V30 4265 H 398.99 6.91281 -3.16282 0
M  V30 4266 N 400.565 -0.0233959 1.57583 0
M  V30 4267 C 401.812 -0.713063 1.8953 0
M  V30 4268 C 402.14 -1.75056 0.847673 0
M  V30 4269 O 401.395 -1.95119 -0.150636 0
M  V30 4270 C 401.694 -1.41428 3.28227 0
M  V30 4271 C 401.36 -0.512222 4.47981 0
M  V30 4272 C 400.022 -0.263785 4.80476 0
M  V30 4273 C 402.374 0.110248 5.21083 0
M  V30 4274 C 399.702 0.615804 5.83459 0
M  V30 4275 C 402.054 0.977573 6.25001 0
M  V30 4276 C 400.718 1.23542 6.55968 0
M  V30 4277 H 399.988 -0.260928 0.69354 0
M  V30 4278 H 402.635 0.0271047 1.91481 0
M  V30 4279 H 400.94 -2.22791 3.22291 0
M  V30 4280 H 402.637 -1.95355 3.50196 0
M  V30 4281 H 399.227 -0.716013 4.22577 0
M  V30 4282 H 403.411 -0.0687137 4.96252 0
M  V30 4283 H 398.667 0.82382 6.05824 0
M  V30 4284 H 402.841 1.46638 6.80786 0
M  V30 4285 H 400.468 1.91871 7.35588 0
M  V30 4286 N 402.043 -1.548 -0.295768 0
M  V30 4287 C 402.976 -1.81003 -1.38972 0
M  V30 4288 C 403.954 -0.661544 -1.48534 0
M  V30 4289 O 405.138 -0.902074 -1.65514 0
M  V30 4290 C 402.265 -1.95141 -2.76835 0
M  V30 4291 C 401.311 -3.17592 -2.84671 0
M  V30 4292 S 402.144 -4.75531 -2.46232 0
M  V30 4293 C 403.3 -4.92613 -3.86114 0
M  V30 4294 H 403.533 -2.73507 -1.16537 0
M  V30 4295 H 401.066 -1.46278 -0.494168 0
M  V30 4296 H 403.024 -2.03972 -3.56238 0
M  V30 4297 H 401.685 -1.03565 -2.96535 0
M  V30 4298 H 400.878 -3.24303 -3.85803 0
M  V30 4299 H 400.48 -3.07235 -2.13267 0
M  V30 4300 H 402.772 -4.76957 -4.81164 0
M  V30 4301 H 403.715 -5.94698 -3.8437 0
M  V30 4302 H 404.123 -4.2073 -3.76359 0
M  V30 4303 N 403.521 0.559213 -1.47345 0
M  V30 4304 C 404.767 1.31843 -1.54095 0
M  V30 4305 C 405.1 1.93149 -0.201726 0
M  V30 4306 O 404.375 1.77759 0.789428 0
M  V30 4307 C 404.658 2.43006 -2.65744 0
M  V30 4308 C 404.511 1.86581 -4.09277 0
M  V30 4309 C 405.83 3.44943 -2.73318 0
M  V30 4310 H 402.949 0.478012 -0.560957 0
M  V30 4311 H 405.591 0.625977 -1.79392 0
M  V30 4312 H 403.741 3.02072 -2.44305 0
M  V30 4313 H 405.413 1.31792 -4.42073 0
M  V30 4314 H 403.656 1.17268 -4.17649 0
M  V30 4315 H 404.327 2.66933 -4.83168 0
M  V30 4316 H 406.803 2.95793 -2.92653 0
M  V30 4317 H 405.679 4.20153 -3.53218 0
M  V30 4318 H 405.94 4.03665 -1.80296 0
M  V30 4319 N 404.999 1.35443 0.805782 0
M  V30 4320 C 405.909 1.30546 1.94923 0
M  V30 4321 C 406.925 0.210233 1.72725 0
M  V30 4322 O 408.101 0.43975 1.9654 0
M  V30 4323 C 405.166 1.07782 3.29521 0
M  V30 4324 C 404.227 2.26625 3.64609 0
M  V30 4325 C 403.46 2.04938 4.92784 0
M  V30 4326 O 403.683 1.01624 5.61274 0
M  V30 4327 O 402.617 2.9232 5.26149 0
M  V30 4328 H 406.443 2.26779 2.02002 0
M  V30 4329 H 404.028 1.15823 0.943682 0
M  V30 4330 H 405.91 0.969392 4.10098 0
M  V30 4331 H 404.585 0.146003 3.23371 0
M  V30 4332 H 403.492 2.43033 2.84404 0
M  V30 4333 H 404.825 3.18257 3.75464 0
M  V30 4334 N 406.477 -1.02803 1.19454 0
M  V30 4335 C 407.702 -1.80378 1.02364 0
M  V30 4336 C 408.127 -1.83282 -0.423007 0
M  V30 4337 O 407.485 -1.25945 -1.30413 0
M  V30 4338 C 407.533 -3.23248 1.59821 0
M  V30 4339 O 406.637 -4.04 0.828105 0
M  V30 4340 H 405.978 -0.556799 0.361761 0
M  V30 4341 H 408.508 -1.29385 1.58495 0
M  V30 4342 H 408.518 -3.73994 1.63073 0
M  V30 4343 H 407.193 -3.2045 2.65113 0
M  V30 4344 H 405.77 -3.62635 0.86891 0
M  V30 4345 N 407.956 -0.998596 -1.21925 0
M  V30 4346 C 409.184 -0.696286 -1.94832 0
M  V30 4347 C 409.599 0.740032 -1.73692 0
M  V30 4348 O 408.956 1.5 -1.03953 0
M  V30 4349 C 409.007 -0.999833 -3.47398 0
M  V30 4350 O 408.728 -2.37972 -3.67833 0
M  V30 4351 C 410.229 -0.716025 -4.37479 0
M  V30 4352 H 407.449 -0.257111 -0.619786 0
M  V30 4353 H 409.993 -1.33491 -1.54921 0
M  V30 4354 H 408.148 -0.406918 -3.85257 0
M  V30 4355 H 408.562 -2.48338 -4.61983 0
M  V30 4356 H 410.036 -0.978642 -5.43256 0
M  V30 4357 H 410.513 0.349968 -4.37803 0
M  V30 4358 H 411.119 -1.29025 -4.05256 0
M  V30 4359 N 409.434 1.37368 -0.772513 0
M  V30 4360 C 410.674 2.01512 -0.342361 0
M  V30 4361 C 411.038 1.59997 1.06136 0
M  V30 4362 O 412.239 2.16609 1.59167 0
M  V30 4363 C 410.51 3.54134 -0.482048 0
M  V30 4364 S 412.069 4.38585 -0.137272 0
M  V30 4365 H 408.887 0.698699 -0.131686 0
M  V30 4366 H 411.489 1.67552 -1.0073 0
M  V30 4367 H 410.193 3.81837 -1.50428 0
M  V30 4368 H 409.724 3.92894 0.199413 0
M  V30 4369 H 411.739 4.84594 1.06692 0
M  V30 4370 N 410.912 0.523116 1.48665 0
M  V30 4371 C 412.161 -0.01544 2.01694 0
M  V30 4372 C 412.474 -1.35975 1.40606 0
M  V30 4373 O 413.68 -1.98627 1.85093 0
M  V30 4374 C 412.136 -0.0779303 3.59816 0
M  V30 4375 C 411.744 1.26107 4.29885 0
M  V30 4376 C 413.488 -0.565678 4.20714 0
M  V30 4377 C 411.395 1.15954 5.79921 0
M  V30 4378 H 410.325 -0.00954163 0.75394 0
M  V30 4379 H 412.976 0.665865 1.70993 0
M  V30 4380 H 411.358 -0.824165 3.87329 0
M  V30 4381 H 412.532 2.02233 4.14051 0
M  V30 4382 H 410.847 1.68401 3.80828 0
M  V30 4383 H 413.444 -0.6595 5.30617 0
M  V30 4384 H 413.787 -1.56984 3.85567 0
M  V30 4385 H 414.32 0.12467 3.97605 0
M  V30 4386 H 411.059 2.13864 6.19631 0
M  V30 4387 H 410.579 0.439529 5.98187 0
M  V30 4388 H 412.258 0.847361 6.41427 0
M  V30 4389 N 412.39 -1.55475 0.257931 0
M  V30 4390 C 413.636 -1.99502 -0.364266 0
M  V30 4391 C 413.969 -1.146 -1.56782 0
M  V30 4392 O 413.244 -0.211968 -1.93342 0
M  V30 4393 C 413.527 -3.51917 -0.763333 0
M  V30 4394 C 413.38 -4.4758 0.446371 0
M  V30 4395 C 414.699 -4.09742 -1.60623 0
M  V30 4396 H 411.818 -0.725277 -0.130929 0
M  V30 4397 H 414.46 -1.8653 0.361446 0
M  V30 4398 H 412.61 -3.63101 -1.38166 0
M  V30 4399 H 414.282 -4.48362 1.08487 0
M  V30 4400 H 412.525 -4.19947 1.08753 0
M  V30 4401 H 413.196 -5.51862 0.123645 0
M  V30 4402 H 415.672 -4.01727 -1.08418 0
M  V30 4403 H 414.548 -5.16631 -1.85429 0
M  V30 4404 H 414.809 -3.58889 -2.58169 0
M  V30 4405 N 413.868 0.0150385 -1.57593 0
M  V30 4406 C 415.114 0.69849 -1.91031 0
M  V30 4407 C 415.469 1.72208 -0.85804 0
M  V30 4408 O 414.762 1.91147 0.131614 0
M  V30 4409 C 414.956 1.39686 -3.28972 0
M  V30 4410 C 414.785 0.442428 -4.47518 0
M  V30 4411 C 413.555 0.0583223 -5.05266 0
M  V30 4412 C 415.753 -0.285072 -5.13509 0
M  V30 4413 N 413.735 -0.895893 -6.07328 0
M  V30 4414 C 415.106 -1.09447 -6.10263 0
M  V30 4415 C 417.161 -0.350518 -4.96665 0
M  V30 4416 C 415.864 -1.96333 -6.91987 0
M  V30 4417 C 417.89 -1.20655 -5.78962 0
M  V30 4418 C 417.252 -2.00383 -6.75297 0
M  V30 4419 H 413.351 0.22926 -0.747639 0
M  V30 4420 H 415.935 -0.0417748 -1.94655 0
M  V30 4421 H 414.106 2.1075 -3.2625 0
M  V30 4422 H 415.838 2.03381 -3.49883 0
M  V30 4423 H 412.593 0.423506 -4.71703 0
M  V30 4424 H 413.017 -1.36792 -6.63036 0
M  V30 4425 H 417.659 0.251596 -4.22051 0
M  V30 4426 H 415.377 -2.57618 -7.65936 0
M  V30 4427 H 418.963 -1.2609 -5.67972 0
M  V30 4428 H 417.843 -2.65552 -7.3787 0
M  V30 4429 N 415.346 1.54954 0.287554 0
M  V30 4430 C 416.593 1.74873 1.02106 0
M  V30 4431 C 416.921 0.541829 1.86801 0
M  V30 4432 O 416.176 -0.475992 1.89823 0
M  V30 4433 C 416.475 2.99833 1.94512 0
M  V30 4434 C 416.141 4.33029 1.25686 0
M  V30 4435 C 414.803 4.69233 1.06649 0
M  V30 4436 C 417.155 5.15542 0.765913 0
M  V30 4437 C 414.483 5.85518 0.372222 0
M  V30 4438 C 416.835 6.32542 0.0853101 0
M  V30 4439 C 415.499 6.67398 -0.1169 0
M  V30 4440 H 414.769 0.639906 0.373632 0
M  V30 4441 H 417.416 1.89219 0.294665 0
M  V30 4442 H 415.721 2.80325 2.73725 0
M  V30 4443 H 417.418 3.1244 2.51361 0
M  V30 4444 H 414.008 4.04564 1.41512 0
M  V30 4445 H 418.192 4.88059 0.90066 0
M  V30 4446 H 413.448 6.11057 0.204695 0
M  V30 4447 H 417.622 6.95741 -0.302936 0
M  V30 4448 H 415.249 7.57357 -0.656859 0
M  V30 4449 N 416.824 -0.551391 1.4764 0
M  V30 4450 C 418.052 -1.33357 1.58189 0
M  V30 4451 C 418.467 -1.87342 0.234199 0
M  V30 4452 O 417.824 -1.65301 -0.77343 0
M  V30 4453 C 417.875 -2.49942 2.61173 0
M  V30 4454 O 417.596 -1.98187 3.90709 0
M  V30 4455 C 419.097 -3.42072 2.8196 0
M  V30 4456 H 416.317 -0.40631 0.533998 0
M  V30 4457 H 418.861 -0.667367 1.93304 0
M  V30 4458 H 417.016 -3.12489 2.28975 0
M  V30 4459 H 417.43 -2.74342 4.47031 0
M  V30 4460 H 418.904 -4.20278 3.57869 0
M  V30 4461 H 419.381 -3.95978 1.89995 0
M  V30 4462 H 419.987 -2.85336 3.15378 0
M  V30 4463 N 418.302 -1.35869 -0.798587 0
M  V30 4464 C 419.549 -1.29588 -1.55606 0
M  V30 4465 C 419.877 0.127456 -1.94082 0
M  V30 4466 O 419.132 1.09461 -1.62225 0
M  V30 4467 C 419.431 -2.1556 -2.85077 0
M  V30 4468 C 419.097 -3.6424 -2.65781 0
M  V30 4469 C 417.759 -4.04766 -2.60227 0
M  V30 4470 C 420.111 -4.58547 -2.47758 0
M  V30 4471 C 417.439 -5.37753 -2.34603 0
M  V30 4472 C 419.791 -5.91742 -2.23662 0
M  V30 4473 C 418.455 -6.31402 -2.16534 0
M  V30 4474 H 417.725 -0.474197 -0.569402 0
M  V30 4475 H 420.372 -1.67839 -0.922086 0
M  V30 4476 H 418.677 -1.70216 -3.52893 0
M  V30 4477 H 420.374 -2.08031 -3.42818 0
M  V30 4478 H 416.964 -3.32086 -2.70956 0
M  V30 4479 H 421.148 -4.28117 -2.51056 0
M  V30 4480 H 416.404 -5.67474 -2.2756 0
M  V30 4481 H 420.578 -6.6439 -2.08708 0
M  V30 4482 H 418.205 -7.34381 -1.96441 0
M  V30 4483 N 419.78 1.02168 -1.19998 0
M  V30 4484 C 420.69 2.14069 -0.959774 0
M  V30 4485 C 421.706 1.73804 0.082655 0
M  V30 4486 O 422.882 2.01133 -0.103633 0
M  V30 4487 C 419.947 3.42936 -0.509459 0
M  V30 4488 C 419.008 3.97474 -1.62213 0
M  V30 4489 C 418.241 5.2019 -1.19321 0
M  V30 4490 O 418.464 5.70369 -0.0597726 0
M  V30 4491 O 417.398 5.67749 -1.99863 0
M  V30 4492 H 421.224 2.37199 -1.89658 0
M  V30 4493 H 418.809 1.12469 -0.983411 0
M  V30 4494 H 420.691 4.20551 -0.267322 0
M  V30 4495 H 419.366 3.21234 0.398821 0
M  V30 4496 H 418.273 3.21161 -1.9185 0
M  V30 4497 H 419.606 4.23555 -2.50723 0
M  V30 4498 N 421.258 1.00505 1.21394 0
M  V30 4499 C 422.188 0.585684 2.26035 0
M  V30 4500 C 423.169 -0.393525 1.65485 0
M  V30 4501 O 424.354 -0.281497 1.92149 0
M  V30 4502 C 421.484 -0.0884283 3.47187 0
M  V30 4503 C 420.438 0.810567 4.20254 0
M  V30 4504 C 419.764 0.00286382 5.347 0
M  V30 4505 C 421.064 2.1132 4.77641 0
M  V30 4506 H 422.758 1.46039 2.61368 0
M  V30 4507 H 420.304 0.703648 1.25638 0
M  V30 4508 H 422.257 -0.393286 4.19561 0
M  V30 4509 H 420.981 -0.997766 3.10986 0
M  V30 4510 H 419.64 1.09925 3.49731 0
M  V30 4511 H 419.288 -0.907765 4.94741 0
M  V30 4512 H 418.988 0.601444 5.84514 0
M  V30 4513 H 420.512 -0.295808 6.09883 0
M  V30 4514 H 421.926 1.87148 5.41893 0
M  V30 4515 H 420.323 2.66164 5.37845 0
M  V30 4516 H 421.393 2.78393 3.9702 0
M  V30 4517 N 422.737 -1.36956 0.779787 0
M  V30 4518 C 423.983 -1.99787 0.348281 0
M  V30 4519 C 424.316 -1.61756 -1.07465 0
M  V30 4520 O 423.591 -0.867639 -1.74075 0
M  V30 4521 C 423.874 -3.56597 0.50104 0
M  V30 4522 C 423.727 -4.04513 1.96697 0
M  V30 4523 C 425.046 -4.40008 -0.0898097 0
M  V30 4524 H 422.165 -0.725796 0.128022 0
M  V30 4525 H 424.807 -1.62514 0.984331 0
M  V30 4526 H 422.957 -3.88479 -0.0404347 0
M  V30 4527 H 424.629 -3.83161 2.56876 0
M  V30 4528 H 422.872 -3.56408 2.47297 0
M  V30 4529 H 423.543 -5.1352 2.02486 0
M  V30 4530 H 426.019 -4.14431 0.372293 0
M  V30 4531 H 424.895 -5.4888 0.0471605 0
M  V30 4532 H 425.156 -4.26035 -1.18096 0
M  V30 4533 N 424.215 -0.530993 -1.48385 0
M  V30 4534 C 425.145 0.219985 -2.32461 0
M  V30 4535 C 426.126 0.934111 -1.42156 0
M  V30 4536 O 427.311 0.919694 -1.71042 0
M  V30 4537 C 424.441 1.26674 -3.23375 0
M  V30 4538 C 423.395 0.67069 -4.22712 0
M  V30 4539 C 422.721 1.82017 -5.02766 0
M  V30 4540 C 424.021 -0.358268 -5.2107 0
M  V30 4541 H 425.715 -0.48187 -2.95497 0
M  V30 4542 H 423.261 -0.233182 -1.42099 0
M  V30 4543 H 425.214 1.80006 -3.81019 0
M  V30 4544 H 423.938 1.99818 -2.58341 0
M  V30 4545 H 422.597 0.158878 -3.66256 0
M  V30 4546 H 422.245 2.54002 -4.34157 0
M  V30 4547 H 421.945 1.42727 -5.70003 0
M  V30 4548 H 423.469 2.35725 -5.63264 0
M  V30 4549 H 424.883 0.0880081 -5.73232 0
M  V30 4550 H 423.28 -0.66861 -5.96364 0
M  V30 4551 H 424.35 -1.26367 -4.68145 0
M  V30 4552 N 425.693 1.55336 -0.266172 0
M  V30 4553 C 427.109 1.59356 0.0882065 0
M  V30 4554 C 427.309 1.2834 1.55342 0
M  V30 4555 O 426.365 1.03996 2.30089 0
M  V30 4556 C 427.678 2.99409 -0.278364 0
M  V30 4557 C 429.226 3.12196 -0.224243 0
M  V30 4558 C 429.701 4.545 -0.565123 0
M  V30 4559 N 431.192 4.60313 -0.51634 0
M  V30 4560 C 431.927 5.68434 -0.753013 0
M  V30 4561 N 431.423 6.84738 -1.05383 0
M  V30 4562 N 433.216 5.57942 -0.682414 0
M  V30 4563 H 425.367 1.73764 -1.22147 0
M  V30 4564 H 427.63 0.809822 -0.492841 0
M  V30 4565 H 427.336 3.2691 -1.29703 0
M  V30 4566 H 427.21 3.75228 0.385186 0
M  V30 4567 H 429.597 2.84464 0.78512 0
M  V30 4568 H 429.678 2.38609 -0.921922 0
M  V30 4569 H 429.322 4.82956 -1.57213 0
M  V30 4570 H 429.252 5.26374 0.154248 0
M  V30 4571 H 431.743 3.7676 -0.29335 0
M  V30 4572 H 432.056 7.63088 -1.22133 0
M  V30 4573 H 430.401 6.86375 -1.09151 0
M  V30 4574 H 433.592 4.65958 -0.44731 0
M  V30 4575 H 433.765 6.4213 -0.870248 0
M  V30 4576 N 427.171 -0.0066808 1.57599 0
M  V30 4577 C 428.418 -0.69292 1.90276 0
M  V30 4578 C 428.746 -1.74148 0.866192 0
M  V30 4579 O 428.001 -1.95268 -0.129933 0
M  V30 4580 C 428.3 -1.37939 3.29708 0
M  V30 4581 C 427.966 -0.464679 4.48499 0
M  V30 4582 C 426.628 -0.212809 4.80729 0
M  V30 4583 C 428.98 0.16551 5.20937 0
M  V30 4584 C 426.308 0.677653 5.82773 0
M  V30 4585 C 428.66 1.04381 6.23929 0
M  V30 4586 C 427.324 1.30492 6.54621 0
M  V30 4587 H 426.594 -0.253558 0.696268 0
M  V30 4588 H 429.241 0.0474123 1.91441 0
M  V30 4589 H 427.546 -2.1936 3.24636 0
M  V30 4590 H 429.243 -1.9163 3.52249 0
M  V30 4591 H 425.833 -0.671153 4.23313 0
M  V30 4592 H 430.017 -0.0160756 4.96297 0
M  V30 4593 H 425.273 0.88803 6.04917 0
M  V30 4594 H 429.447 1.53851 6.79193 0
M  V30 4595 H 427.074 1.99662 7.33512 0
M  V30 4596 N 428.649 -1.55105 -0.279332 0
M  V30 4597 C 429.895 -1.75672 -1.01327 0
M  V30 4598 C 430.228 -0.552739 -1.86168 0
M  V30 4599 O 429.503 0.449827 -1.89227 0
M  V30 4600 C 429.786 -3.05825 -1.90114 0
M  V30 4601 C 429.639 -4.36565 -1.08309 0
M  V30 4602 C 430.958 -3.31975 -2.8893 0
M  V30 4603 H 428.077 -0.639149 -0.366957 0
M  V30 4604 H 430.719 -1.87833 -0.286154 0
M  V30 4605 H 428.869 -2.95588 -2.52111 0
M  V30 4606 H 430.541 -4.58751 -0.484314 0
M  V30 4607 H 428.784 -4.32076 -0.386362 0
M  V30 4608 H 429.455 -5.23946 -1.73737 0
M  V30 4609 H 431.931 -3.41963 -2.37067 0
M  V30 4610 H 430.807 -4.2432 -3.48201 0
M  V30 4611 H 431.068 -2.51309 -3.63725 0
M  V30 4612 N 430.127 0.543554 -1.4793 0
M  V30 4613 C 431.373 1.30201 -1.55485 0
M  V30 4614 C 431.706 1.92925 -0.222201 0
M  V30 4615 O 430.981 1.78586 0.77053 0
M  V30 4616 C 431.264 2.40174 -2.68307 0
M  V30 4617 C 431.117 1.8223 -4.11233 0
M  V30 4618 C 432.436 3.42024 -2.76961 0
M  V30 4619 H 429.555 0.472036 -0.565996 0
M  V30 4620 H 432.197 0.606914 -1.80046 0
M  V30 4621 H 430.347 2.99463 -2.47495 0
M  V30 4622 H 432.019 1.27096 -4.43446 0
M  V30 4623 H 430.262 1.12832 -4.18869 0
M  V30 4624 H 430.933 2.61793 -4.85972 0
M  V30 4625 H 433.409 2.92672 -2.95774 0
M  V30 4626 H 432.285 4.16383 -3.57654 0
M  V30 4627 H 432.546 4.0173 -1.84568 0
M  V30 4628 N 431.605 1.3629 0.791371 0
M  V30 4629 C 432.845 1.31792 1.56238 0
M  V30 4630 C 433.209 -0.102237 1.91728 0
M  V30 4631 O 434.41 -0.271759 2.67423 0
M  V30 4632 C 432.681 2.21303 2.80642 0
M  V30 4633 S 434.24 2.34468 3.70904 0
M  V30 4634 H 431.058 0.468141 0.535131 0
M  V30 4635 H 433.66 1.71841 0.932246 0
M  V30 4636 H 432.364 3.23439 2.52617 0
M  V30 4637 H 431.895 1.82266 3.4863 0
M  V30 4638 H 433.91 1.54074 4.71673 0
M  V30 4639 N 433.083 -1.0153 1.20538 0
M  V30 4640 C 434.494 -1.56598 1.01657 0
M  V30 4641 C 434.845 -1.91505 -0.426668 0
M  V30 4642 O 433.97 -1.72375 -1.30827 0
M  V30 4643 C 434.565 -2.84542 1.83905 0
M  V30 4644 C 433.124 -3.36133 1.69386 0
M  V30 4645 C 432.271 -2.09427 1.81757 0
M  V30 4646 H 435.222 -0.838974 1.34711 0
M  V30 4647 H 435.243 -3.56004 1.34319 0
M  V30 4648 H 434.755 -2.59105 2.8894 0
M  V30 4649 H 432.856 -3.66528 0.669933 0
M  V30 4650 H 432.969 -4.08248 2.50739 0
M  V30 4651 H 431.333 -2.21941 1.24957 0
M  V30 4652 H 432.116 -1.86414 2.88279 0
M  V30 4653 N 434.561 -1.01147 -1.20859 0
M  V30 4654 C 435.786 -0.716698 -1.94623 0
M  V30 4655 C 436.211 0.715415 -1.73964 0
M  V30 4656 O 435.569 1.49157 -1.03062 0
M  V30 4657 C 435.617 -1.0513 -3.44935 0
M  V30 4658 O 434.721 -0.160131 -4.12089 0
M  V30 4659 H 434.062 -0.266404 -0.608214 0
M  V30 4660 H 436.592 -1.35346 -1.53436 0
M  V30 4661 H 436.602 -1.00086 -3.95533 0
M  V30 4662 H 435.277 -2.09475 -3.59295 0
M  V30 4663 H 433.854 -0.267657 -3.71938 0
M  V30 4664 N 436.039 1.36541 -0.78704 0
M  V30 4665 C 436.986 2.30082 -0.181901 0
M  V30 4666 C 437.956 1.5186 0.672896 0
M  V30 4667 O 439.141 1.80374 0.622072 0
M  V30 4668 C 436.281 3.3835 0.679197 0
M  V30 4669 C 435.394 4.31565 -0.193882 0
M  V30 4670 C 434.529 5.26915 0.673364 0
M  V30 4671 C 433.568 6.11769 -0.201315 0
M  V30 4672 N 432.705 6.99315 0.624777 0
M  V30 4673 H 437.545 2.81248 -0.985064 0
M  V30 4674 H 435.082 1.38437 -0.497342 0
M  V30 4675 H 437.04 3.99767 1.19341 0
M  V30 4676 H 435.67 2.8851 1.44781 0
M  V30 4677 H 434.722 3.71323 -0.826044 0
M  V30 4678 H 436.034 4.91191 -0.867937 0
M  V30 4679 H 435.188 5.9361 1.25348 0
M  V30 4680 H 433.927 4.67737 1.38105 0
M  V30 4681 H 432.932 5.44039 -0.793849 0
M  V30 4682 H 434.157 6.73022 -0.906568 0
M  V30 4683 H 432.103 6.42648 1.3168 0
M  V30 4684 H 432.02 7.56 0.00835237 0
M  V30 4685 H 433.288 7.70382 1.18879 0
M  V30 4686 N 437.518 0.538854 1.48102 0
M  V30 4687 C 438.746 0.0123136 2.06896 0
M  V30 4688 C 439.161 -1.27312 1.39417 0
M  V30 4689 O 438.518 -1.75949 0.484582 0
M  V30 4690 C 438.569 -0.206118 3.60912 0
M  V30 4691 O 438.29 1.0284 4.25859 0
M  V30 4692 C 439.791 -0.772033 4.36526 0
M  V30 4693 H 437.011 0.0375239 0.66995 0
M  V30 4694 H 439.555 0.747032 1.90367 0
M  V30 4695 H 437.71 -0.89091 3.77017 0
M  V30 4696 H 438.124 0.814654 5.18135 0
M  V30 4697 H 439.598 -0.874251 5.45033 0
M  V30 4698 H 440.075 -1.77904 4.01555 0
M  V30 4699 H 440.681 -0.123526 4.25121 0
M  V30 4700 N 438.996 -1.55193 0.274407 0
M  V30 4701 C 440.273 -1.91584 -0.394331 0
M  V30 4702 C 440.653 -1.19858 -1.73774 0
M  V30 4703 O 440.001 -0.3252 -2.26174 0
M  V30 4704 C 440.211 -3.4487 -0.535311 0
M  V30 4705 C 441.559 -4.16636 -0.818534 0
M  V30 4706 O 442.583 -3.5076 -0.620146 0
M  V30 4707 O 441.442 -5.33209 -1.19792 0
M  V30 4708 H 438.536 -0.798349 -0.215794 0
M  V30 4709 H 441.082 -1.66646 0.320507 0
M  V30 4710 H 439.854 -3.89145 0.410141 0
M  V30 4711 H 439.477 -3.75759 -1.29964 0
M  V30 4712 N 440.474 -0.00167713 -1.576 0
M  V30 4713 C 441.721 0.68282 -1.90641 0
M  V30 4714 C 442.049 1.73686 -0.875415 0
M  V30 4715 O 441.304 1.95334 0.119575 0
M  V30 4716 C 441.603 1.36189 -3.30435 0
M  V30 4717 C 441.269 0.440887 -4.48739 0
M  V30 4718 C 439.931 0.187312 -4.80835 0
M  V30 4719 C 442.283 -0.193134 -5.20842 0
M  V30 4720 C 439.611 -0.70855 -5.82406 0
M  V30 4721 C 441.963 -1.07688 -6.23367 0
M  V30 4722 C 440.627 -1.33962 -6.53919 0
M  V30 4723 H 439.897 0.249862 -0.697603 0
M  V30 4724 H 442.544 -0.0575642 -1.91413 0
M  V30 4725 H 440.849 2.17636 -3.25794 0
M  V30 4726 H 442.546 1.89759 -3.5326 0
M  V30 4727 H 439.136 0.648694 -4.23663 0
M  V30 4728 H 443.32 -0.0102445 -4.96299 0
M  V30 4729 H 438.576 -0.920097 -6.04437 0
M  V30 4730 H 442.75 -1.57451 -6.78367 0
M  V30 4731 H 440.377 -2.03549 -7.32442 0
M  V30 4732 N 441.952 1.55251 0.271103 0
M  V30 4733 C 443.199 1.75946 1.00245 0
M  V30 4734 C 443.527 0.561611 1.86215 0
M  V30 4735 O 442.782 -0.455832 1.90317 0
M  V30 4736 C 443.081 3.01879 1.91321 0
M  V30 4737 C 442.747 4.34337 1.21086 0
M  V30 4738 C 441.409 4.70338 1.01666 0
M  V30 4739 C 443.761 5.16325 0.71119 0
M  V30 4740 C 441.089 5.8588 0.310099 0
M  V30 4741 C 443.441 6.32597 0.0182157 0
M  V30 4742 C 442.105 6.67236 -0.18768 0
M  V30 4743 H 441.375 0.643833 0.366824 0
M  V30 4744 H 444.022 1.89521 0.27458 0
M  V30 4745 H 442.327 2.83212 2.70736 0
M  V30 4746 H 444.024 3.15088 2.48033 0
M  V30 4747 H 440.614 4.06043 1.37213 0
M  V30 4748 H 444.798 4.88987 0.848844 0
M  V30 4749 H 440.054 6.1124 0.139873 0
M  V30 4750 H 444.228 6.9538 -0.376711 0
M  V30 4751 H 441.855 7.56618 -0.73715 0
M  V30 4752 N 443.43 -0.535701 1.48216 0
M  V30 4753 C 444.846 -0.863701 1.3421 0
M  V30 4754 C 445.046 -1.98458 0.34879 0
M  V30 4755 O 444.102 -2.51432 -0.23204 0
M  V30 4756 C 445.415 -1.23662 2.74095 0
M  V30 4757 C 446.963 -1.34683 2.82541 0
M  V30 4758 C 447.438 -1.75322 4.23115 0
M  V30 4759 N 448.929 -1.82434 4.2576 0
M  V30 4760 C 449.664 -2.15252 5.31464 0
M  V30 4761 N 449.16 -2.46533 6.47452 0
M  V30 4762 N 450.953 -2.16209 5.18855 0
M  V30 4763 H 443.104 0.203965 2.11418 0
M  V30 4764 H 445.367 0.0286033 0.947568 0
M  V30 4765 H 445.073 -0.486674 3.48316 0
M  V30 4766 H 444.947 -2.18805 3.07253 0
M  V30 4767 H 447.334 -2.08756 2.08579 0
M  V30 4768 H 447.415 -0.376756 2.5301 0
M  V30 4769 H 447.059 -1.01812 4.97591 0
M  V30 4770 H 446.989 -2.7337 4.50085 0
M  V30 4771 H 449.48 -1.6056 3.42095 0
M  V30 4772 H 449.793 -2.70662 7.23852 0
M  V30 4773 H 448.138 -2.44065 6.50736 0
M  V30 4774 H 451.329 -1.91224 4.2726 0
M  V30 4775 H 451.502 -2.41453 6.01335 0
M  V30 4776 N 444.908 -1.36708 -0.784132 0
M  V30 4777 C 445.856 -1.31533 -1.91838 0
M  V30 4778 C 446.85 -0.206205 -1.6814 0
M  V30 4779 O 448.056 -0.373519 -1.76082 0
M  V30 4780 H 444.431 -0.409613 -0.630651 0
M  V30 4781 H 446.402 -2.2731 -1.9332 0
M  V30 4782 C 445.151 -1.12679 -3.28936 0
M  V30 4783 H 444.474 -1.97274 -3.4774 0
M  V30 4784 H 445.914 -1.13106 -4.08636 0
M  V30 4785 C 444.373 0.168281 -3.36479 0
M  V30 4786 O 444.903 1.15625 -3.84699 0
M  V30 4787 N 443.109 0.214762 -2.89805 0
M  V30 4788 H 442.656 -0.589852 -2.50756 0
M  V30 4789 H 442.614 1.08094 -2.95234 0
M  V30 4790 N 446.386 1.0089 -1.21074 0
M  V30 4791 C 447.635 1.74019 -1.01981 0
M  V30 4792 C 447.948 1.90408 0.447665 0
M  V30 4793 O 449.154 2.60707 0.757906 0
M  V30 4794 C 447.61 3.13026 -1.77603 0
M  V30 4795 C 447.218 3.04623 -3.28495 0
M  V30 4796 C 448.962 3.90312 -1.66904 0
M  V30 4797 C 446.869 4.38685 -3.96623 0
M  V30 4798 H 445.799 0.652422 -0.377971 0
M  V30 4799 H 448.45 1.12755 -1.44771 0
M  V30 4800 H 446.832 3.74878 -1.27604 0
M  V30 4801 H 448.006 2.52032 -3.85767 0
M  V30 4802 H 446.321 2.40827 -3.39693 0
M  V30 4803 H 448.918 4.8951 -2.15138 0
M  V30 4804 H 449.261 4.11558 -0.62658 0
M  V30 4805 H 449.794 3.35104 -2.14359 0
M  V30 4806 H 446.533 4.22641 -5.01054 0
M  V30 4807 H 446.053 4.91252 -3.4414 0
M  V30 4808 H 447.732 5.075 -4.01314 0
M  V30 4809 N 447.864 1.01787 1.20321 0
M  V30 4810 C 448.797 0.533882 2.21867 0
M  V30 4811 C 449.775 -0.419361 1.57099 0
M  V30 4812 O 450.959 -0.339062 1.85426 0
M  V30 4813 C 448.086 -0.222899 3.37966 0
M  V30 4814 C 447.132 0.680091 4.21043 0
M  V30 4815 S 447.965 2.14997 4.90445 0
M  V30 4816 C 449.121 1.40339 6.09964 0
M  V30 4817 H 449.354 1.39429 2.62577 0
M  V30 4818 H 446.887 0.826867 1.30393 0
M  V30 4819 H 448.845 -0.653425 4.05266 0
M  V30 4820 H 447.506 -1.0589 2.95713 0
M  V30 4821 H 446.699 0.0964704 5.03908 0
M  V30 4822 H 446.301 1.04845 3.59004 0
M  V30 4823 H 448.593 0.68407 6.74038 0
M  V30 4824 H 449.536 2.20823 6.72787 0
M  V30 4825 H 449.944 0.905716 5.57187 0
M  V30 4826 N 449.342 -1.36122 0.79427 0
M  V30 4827 C 450.29 -2.31871 0.184023 0
M  V30 4828 C 451.284 -1.56041 -0.659365 0
M  V30 4829 O 452.49 -1.71266 -0.553906 0
M  V30 4830 H 448.865 -0.750896 0.0407373 0
M  V30 4831 H 450.836 -2.80898 1.00693 0
M  V30 4832 C 449.585 -3.41324 -0.662813 0
M  V30 4833 H 448.908 -3.99793 -0.0231944 0
M  V30 4834 H 450.348 -4.10629 -1.05639 0
M  V30 4835 C 448.807 -2.83308 -1.82313 0
M  V30 4836 O 449.337 -2.75863 -2.91997 0
M  V30 4837 N 447.543 -2.40529 -1.63077 0
M  V30 4838 H 447.09 -2.46785 -0.738591 0
M  V30 4839 H 447.048 -2.02059 -2.40872 0
M  V30 4840 N 450.82 -0.546701 -1.47814 0
M  V30 4841 C 452.069 -0.0166497 -2.01693 0
M  V30 4842 C 452.382 1.33721 -1.42752 0
M  V30 4843 O 453.588 1.95658 -1.8823 0
M  V30 4844 C 452.044 0.0206769 -3.59894 0
M  V30 4845 C 451.652 -1.3293 -4.27824 0
M  V30 4846 C 453.396 0.498674 -4.21561 0
M  V30 4847 C 451.303 -1.25165 -5.78003 0
M  V30 4848 H 450.233 -0.0024541 -0.753996 0
M  V30 4849 H 452.884 -0.692984 -1.69912 0
M  V30 4850 H 451.266 0.76244 -3.88591 0
M  V30 4851 H 452.44 -2.08795 -4.10781 0
M  V30 4852 H 450.755 -1.74438 -3.78101 0
M  V30 4853 H 453.352 0.575 -5.31599 0
M  V30 4854 H 453.695 1.5083 -3.88016 0
M  V30 4855 H 454.228 -0.18791 -3.97356 0
M  V30 4856 H 450.967 -2.23695 -6.1615 0
M  V30 4857 H 450.487 -0.53464 -5.97412 0
M  V30 4858 H 452.166 -0.949299 -6.39998 0
M  V30 4859 N 452.299 1.55045 -0.282633 0
M  V30 4860 C 453.548 1.98938 0.332667 0
M  V30 4861 C 453.861 1.17455 1.56409 0
M  V30 4862 O 455.067 1.51527 2.25282 0
M  V30 4863 C 453.523 3.54105 0.643226 0
M  V30 4864 C 453.131 4.44374 -0.568814 0
M  V30 4865 C 454.875 4.06569 1.22074 0
M  V30 4866 C 452.782 5.90943 -0.232426 0
M  V30 4867 H 451.712 0.743043 0.128075 0
M  V30 4868 H 454.363 1.79341 -0.388464 0
M  V30 4869 H 452.745 3.69532 1.42346 0
M  V30 4870 H 453.919 4.40718 -1.34551 0
M  V30 4871 H 452.234 4.02585 -1.06369 0
M  V30 4872 H 454.831 5.13626 1.48635 0
M  V30 4873 H 455.174 3.56057 2.15707 0
M  V30 4874 H 455.707 3.94612 0.502621 0
M  V30 4875 H 452.446 6.45567 -1.13683 0
M  V30 4876 H 451.966 5.9765 0.507357 0
M  V30 4877 H 453.645 6.4677 0.172657 0
M  V30 4878 N 453.777 0.010035 1.57597 0
M  V30 4879 C 455.054 -0.710296 1.82248 0
M  V30 4880 C 455.434 -1.91426 0.889911 0
M  V30 4881 O 454.782 -2.28424 -0.0590292 0
M  V30 4882 C 454.992 -1.10655 3.30993 0
M  V30 4883 C 456.34 -1.50621 3.96987 0
M  V30 4884 O 457.364 -1.20007 3.35375 0
M  V30 4885 O 456.223 -2.07587 5.05539 0
M  V30 4886 H 453.317 -0.34673 0.750804 0
M  V30 4887 H 455.863 0.0362578 1.69661 0
M  V30 4888 H 454.635 -0.248826 3.90508 0
M  V30 4889 H 454.258 -1.91189 3.48615 0
M  V30 4890 N 455.255 -1.55392 -0.262866 0
M  V30 4891 C 456.504 -1.75679 -0.990943 0
M  V30 4892 C 456.817 -0.57097 -1.87081 0
M  V30 4893 O 458.023 -0.656486 -2.63444 0
M  V30 4894 C 456.479 -3.10964 -1.81188 0
M  V30 4895 C 456.087 -4.37146 -0.980188 0
M  V30 4896 C 457.831 -3.40597 -2.53365 0
M  V30 4897 C 455.738 -5.63466 -1.7961 0
M  V30 4898 H 454.668 -0.654868 -0.373716 0
M  V30 4899 H 457.319 -1.81841 -0.246203 0
M  V30 4900 H 455.701 -2.98867 -2.59797 0
M  V30 4901 H 456.875 -4.60187 -0.237558 0
M  V30 4902 H 455.19 -4.14731 -0.372497 0
M  V30 4903 H 457.787 -4.32186 -3.14833 0
M  V30 4904 H 458.13 -2.6119 -3.24169 0
M  V30 4905 H 458.663 -3.53838 -1.81779 0
M  V30 4906 H 455.402 -6.4565 -1.13209 0
M  V30 4907 H 454.922 -5.44552 -2.51443 0
M  V30 4908 H 456.601 -6.02139 -2.36723 0
M  V30 4909 N 456.733 0.527833 -1.48498 0
M  V30 4910 C 457.982 1.28003 -1.55878 0
M  V30 4911 C 458.295 1.9414 -0.238577 0
M  V30 4912 O 459.501 2.7083 -0.190643 0
M  V30 4913 C 457.957 2.32272 -2.74914 0
M  V30 4914 C 457.565 1.72196 -4.13585 0
M  V30 4915 C 459.309 3.08488 -2.91608 0
M  V30 4916 C 457.216 2.74417 -5.23879 0
M  V30 4917 H 456.146 0.481413 -0.580308 0
M  V30 4918 H 458.797 0.557195 -1.74836 0
M  V30 4919 H 457.179 3.07601 -2.49395 0
M  V30 4920 H 458.353 1.03041 -4.49132 0
M  V30 4921 H 456.668 1.08464 -4.02025 0
M  V30 4922 H 459.265 3.84879 -3.71177 0
M  V30 4923 H 459.608 3.64481 -2.01145 0
M  V30 4924 H 460.141 2.40274 -3.17038 0
M  V30 4925 H 456.88 2.23242 -6.16314 0
M  V30 4926 H 456.4 3.41893 -4.92818 0
M  V30 4927 H 458.079 3.37362 -5.52083 0
M  V30 4928 N 458.211 1.37122 0.776871 0
M  V30 4929 C 459.436 1.354 1.57104 0
M  V30 4930 C 459.861 -0.0595562 1.88006 0
M  V30 4931 O 459.219 -1.03514 1.48844 0
M  V30 4932 C 459.267 2.19472 2.8612 0
M  V30 4933 O 458.371 1.59582 3.80273 0
M  V30 4934 H 457.712 0.462869 0.476076 0
M  V30 4935 H 460.242 1.80577 0.961932 0
M  V30 4936 H 460.252 2.32502 3.35271 0
M  V30 4937 H 458.927 3.22222 2.62956 0
M  V30 4938 H 457.504 1.55564 3.38902 0
M  V30 4939 N 459.689 -1.00246 1.21608 0
M  V30 4940 C 460.938 -1.73476 1.02902 0
M  V30 4941 C 461.251 -1.90643 -0.437561 0
M  V30 4942 O 462.457 -2.61105 -0.74407 0
M  V30 4943 C 460.913 -3.12079 1.79261 0
M  V30 4944 C 460.521 -3.02877 3.30106 0
M  V30 4945 C 462.265 -3.89421 1.68972 0
M  V30 4946 C 460.172 -4.36575 3.98944 0
M  V30 4947 H 459.102 -0.650408 0.381425 0
M  V30 4948 H 461.753 -1.11985 1.45367 0
M  V30 4949 H 460.135 -3.74196 1.2959 0
M  V30 4950 H 461.309 -2.49983 3.87098 0
M  V30 4951 H 459.624 -2.39022 3.40965 0
M  V30 4952 H 462.221 -4.88362 2.17731 0
M  V30 4953 H 462.564 -4.1122 0.648397 0
M  V30 4954 H 463.097 -3.33963 2.16133 0
M  V30 4955 H 459.836 -4.19978 5.03288 0
M  V30 4956 H 459.356 -4.8942 3.4674 0
M  V30 4957 H 461.035 -5.05364 4.04 0
M  V30 4958 N 461.167 -1.02423 -1.1978 0
M  V30 4959 C 462.416 -0.713265 -1.88667 0
M  V30 4960 C 462.729 0.7609 -1.80193 0
M  V30 4961 O 463.935 1.18473 -2.44288 0
M  V30 4962 C 462.391 -1.22545 -3.38394 0
M  V30 4963 C 461.999 -2.72706 -3.55437 0
M  V30 4964 C 463.743 -0.990257 -4.12788 0
M  V30 4965 C 461.65 -3.17367 -4.99031 0
M  V30 4966 H 460.58 -0.263105 -0.706606 0
M  V30 4967 H 463.231 -1.23792 -1.35454 0
M  V30 4968 H 461.613 -0.628732 -3.90977 0
M  V30 4969 H 462.787 -3.37993 -3.13205 0
M  V30 4970 H 461.102 -2.94453 -2.94425 0
M  V30 4971 H 463.699 -1.29926 -5.18675 0
M  V30 4972 H 464.042 0.0730761 -4.16236 0
M  V30 4973 H 464.575 -1.55074 -3.66329 0
M  V30 4974 H 461.314 -4.23009 -5.00743 0
M  V30 4975 H 460.834 -2.56805 -5.42044 0
M  V30 4976 H 462.513 -3.10441 -5.67658 0
M  V30 4977 N 462.645 1.35699 -0.801477 0
M  V30 4978 C 464.056 1.81415 -0.441073 0
M  V30 4979 C 464.407 1.66595 1.03636 0
M  V30 4980 O 463.532 1.19369 1.80499 0
M  V30 4981 C 464.127 3.29369 -0.793819 0
M  V30 4982 C 462.686 3.73248 -0.486083 0
M  V30 4983 C 461.833 2.57775 -1.02213 0
M  V30 4984 H 464.784 1.23749 -0.993572 0
M  V30 4985 H 464.805 3.80395 -0.0894158 0
M  V30 4986 H 464.317 3.40123 -1.86917 0
M  V30 4987 H 462.418 3.68046 0.580735 0
M  V30 4988 H 462.531 4.68222 -1.01513 0
M  V30 4989 H 460.895 2.50788 -0.444712 0
M  V30 4990 H 461.678 2.71309 -2.10348 0
M  V30 4991 N 464.123 0.554532 1.47522 0
M  V30 4992 C 465.353 0.0342074 2.06572 0
M  V30 4993 C 465.761 -1.26375 1.40805 0
M  V30 4994 O 465.104 -1.7683 0.49769 0
M  V30 4995 C 465.166 -0.235096 3.5873 0
M  V30 4996 C 464.83 0.973024 4.46521 0
M  V30 4997 C 465.827 1.8779 4.848 0
M  V30 4998 C 463.512 1.18694 4.88075 0
M  V30 4999 C 465.506 2.98039 5.63428 0
M  V30 5000 C 463.193 2.29254 5.66468 0
M  V30 5001 C 464.191 3.18757 6.04055 0
M  V30 5002 O 463.879 4.27401 6.8087 0
M  V30 5003 H 463.611 0.041587 0.67472 0
M  V30 5004 H 466.165 0.766748 1.90552 0
M  V30 5005 H 464.395 -1.02191 3.72953 0
M  V30 5006 H 466.084 -0.700477 3.9981 0
M  V30 5007 H 466.85 1.72467 4.53299 0
M  V30 5008 H 462.729 0.49947 4.58286 0
M  V30 5009 H 466.273 3.67926 5.92685 0
M  V30 5010 H 462.17 2.4455 5.97382 0
M  V30 5011 H 462.938 4.25415 6.9926 0
M  V30 5012 N 465.601 -1.54893 0.290851 0
M  V30 5013 C 466.848 -1.99933 -0.321391 0
M  V30 5014 C 467.176 -1.17927 -1.54672 0
M  V30 5015 O 466.431 -0.240902 -1.94212 0
M  V30 5016 C 466.73 -3.49815 -0.732397 0
M  V30 5017 C 466.396 -4.4921 0.390056 0
M  V30 5018 C 465.058 -4.76107 0.698223 0
M  V30 5019 C 467.41 -5.08453 1.14562 0
M  V30 5020 C 464.738 -5.59514 1.76526 0
M  V30 5021 C 467.09 -5.9302 2.2025 0
M  V30 5022 C 465.754 -6.18232 2.51684 0
M  V30 5023 H 465.024 -0.731608 -0.117605 0
M  V30 5024 H 467.671 -1.87107 0.407839 0
M  V30 5025 H 465.976 -3.60199 -1.54155 0
M  V30 5026 H 467.673 -3.82083 -1.21712 0
M  V30 5027 H 464.263 -4.28372 0.13976 0
M  V30 5028 H 468.447 -4.87683 0.920801 0
M  V30 5029 H 463.703 -5.77289 2.01364 0
M  V30 5030 H 467.877 -6.37955 2.7926 0
M  V30 5031 H 465.504 -6.82653 3.34499 0
M  V30 5032 N 467.08 -0.0183926 -1.57589 0
M  V30 5033 C 468.043 0.951986 -2.08494 0
M  V30 5034 C 469.043 1.26092 -0.997874 0
M  V30 5035 O 470.233 1.20304 -1.25987 0
M  V30 5036 C 467.365 2.27165 -2.54182 0
M  V30 5037 H 468.558 0.511307 -2.95509 0
M  V30 5038 H 466.111 0.229444 -1.54607 0
M  V30 5039 H 466.846 2.75884 -1.70465 0
M  V30 5040 H 466.631 2.06057 -3.33591 0
M  V30 5041 H 468.121 2.9674 -2.93828 0
M  V30 5042 N 468.558 1.5553 0.254621 0
M  V30 5043 C 469.786 1.81046 1.00149 0
M  V30 5044 C 470.201 0.593047 1.79244 0
M  V30 5045 O 469.558 -0.438196 1.77161 0
M  V30 5046 C 469.609 3.04684 1.94551 0
M  V30 5047 O 469.33 4.21725 1.18658 0
M  V30 5048 C 470.831 3.42943 2.80901 0
M  V30 5049 H 468.051 0.602653 0.295044 0
M  V30 5050 H 470.595 2.02576 0.279842 0
M  V30 5051 H 468.75 2.85226 2.62154 0
M  V30 5052 H 469.164 4.91746 1.82445 0
M  V30 5053 H 470.638 4.32576 3.42902 0
M  V30 5054 H 471.115 2.63176 3.51617 0
M  V30 5055 H 471.721 3.64724 2.18762 0
M  V30 5056 N 470.036 -0.519951 1.48776 0
M  V30 5057 C 470.966 -1.63253 1.66945 0
M  V30 5058 C 471.947 -1.62014 0.518224 0
M  V30 5059 O 473.132 -1.79053 0.751919 0
M  V30 5060 C 470.262 -3.0181 1.71836 0
M  V30 5061 C 469.216 -3.17911 2.8656 0
M  V30 5062 C 468.542 -4.5763 2.76548 0
M  V30 5063 C 469.842 -2.99729 4.27738 0
M  V30 5064 H 471.536 -1.48302 2.6009 0
M  V30 5065 H 469.082 -0.712026 1.25165 0
M  V30 5066 H 471.035 -3.79525 1.83135 0
M  V30 5067 H 469.759 -3.17806 0.752775 0
M  V30 5068 H 468.418 -2.42616 2.74833 0
M  V30 5069 H 468.066 -4.70476 1.77937 0
M  V30 5070 H 467.766 -4.69346 3.53536 0
M  V30 5071 H 469.29 -5.37431 2.89828 0
M  V30 5072 H 470.704 -3.67228 4.40246 0
M  V30 5073 H 469.101 -3.22932 5.05801 0
M  V30 5074 H 470.171 -1.96047 4.43502 0
M  V30 5075 N 471.514 -1.37532 -0.769588 0
M  V30 5076 C 472.763 -1.32183 -1.5235 0
M  V30 5077 C 473.076 0.0906555 -1.9539 0
M  V30 5078 O 474.282 0.266628 -2.70188 0
M  V30 5079 C 472.738 -2.32029 -2.75119 0
M  V30 5080 C 472.346 -3.78816 -2.3917 0
M  V30 5081 C 474.09 -2.35694 -3.53056 0
M  V30 5082 C 471.997 -4.70388 -3.58453 0
M  V30 5083 H 470.927 -0.491275 -0.571984 0
M  V30 5084 H 473.578 -1.63004 -0.842739 0
M  V30 5085 H 471.96 -1.94229 -3.45096 0
M  V30 5086 H 473.134 -4.25466 -1.76962 0
M  V30 5087 H 471.449 -3.78117 -1.74402 0
M  V30 5088 H 474.046 -3.01312 -4.41718 0
M  V30 5089 H 474.389 -1.37117 -3.93071 0
M  V30 5090 H 474.922 -2.72212 -2.90078 0
M  V30 5091 H 471.661 -5.70102 -3.23518 0
M  V30 5092 H 471.181 -4.28442 -4.19758 0
M  V30 5093 H 472.86 -4.87628 -4.25239 0
M  V30 5094 N 472.992 0.995999 -1.22138 0
M  V30 5095 C 474.22 1.77066 -1.07029 0
M  V30 5096 C 474.635 1.8495 0.379357 0
M  V30 5097 O 473.992 1.3174 1.26297 0
M  V30 5098 C 474.043 3.20533 -1.67155 0
M  V30 5099 O 473.764 3.13082 -3.06449 0
M  V30 5100 C 475.265 4.14461 -1.5728 0
M  V30 5101 H 472.485 0.556179 -0.375374 0
M  V30 5102 H 475.029 1.25238 -1.61666 0
M  V30 5103 H 473.184 3.6944 -1.16589 0
M  V30 5104 H 473.598 4.03283 -3.35355 0
M  V30 5105 H 475.072 5.1289 -2.04078 0
M  V30 5106 H 475.549 4.36005 -0.528795 0
M  V30 5107 H 476.155 3.71449 -2.07136 0
M  V30 5108 N 474.47 1.03057 1.19235 0
M  V30 5109 C 475.38 0.622922 2.26179 0
M  V30 5110 C 476.396 -0.346113 1.70523 0
M  V30 5111 O 477.572 -0.203572 2.00369 0
M  V30 5112 C 474.637 -0.0182063 3.46695 0
M  V30 5113 C 473.698 0.998546 4.17526 0
M  V30 5114 C 472.931 0.387917 5.32288 0
M  V30 5115 O 473.154 -0.808668 5.64639 0
M  V30 5116 O 472.088 1.1116 5.91546 0
M  V30 5117 H 475.914 1.51363 2.63292 0
M  V30 5118 H 473.499 0.800856 1.26122 0
M  V30 5119 H 475.381 -0.375606 4.19723 0
M  V30 5120 H 474.056 -0.882895 3.11427 0
M  V30 5121 H 472.963 1.40756 3.4661 0
M  V30 5122 H 474.296 1.83366 4.56769 0
M  V30 5123 N 475.948 -1.35272 0.808662 0
M  V30 5124 C 476.878 -2.32315 0.234981 0
M  V30 5125 C 477.859 -1.57572 -0.64071 0
M  V30 5126 O 479.044 -1.8563 -0.570551 0
M  V30 5127 C 476.174 -3.41801 -0.615601 0
M  V30 5128 C 475.128 -4.27694 0.161767 0
M  V30 5129 C 474.454 -5.28519 -0.810649 0
M  V30 5130 C 475.754 -5.04231 1.36193 0
M  V30 5131 H 477.448 -2.80543 1.04575 0
M  V30 5132 H 474.994 -1.3488 0.504315 0
M  V30 5133 H 476.947 -4.08693 -1.02702 0
M  V30 5134 H 475.671 -2.92186 -1.45928 0
M  V30 5135 H 474.33 -3.62384 0.554382 0
M  V30 5136 H 473.978 -4.75171 -1.64988 0
M  V30 5137 H 473.678 -5.8686 -0.294822 0
M  V30 5138 H 475.202 -5.98283 -1.22023 0
M  V30 5139 H 476.616 -5.64058 1.02528 0
M  V30 5140 H 475.013 -5.72077 1.81239 0
M  V30 5141 H 476.083 -4.34753 2.14751 0
M  V30 5142 N 477.426 -0.562348 -1.47226 0
M  V30 5143 C 478.672 -0.0402761 -2.0276 0
M  V30 5144 C 479.005 1.30823 -1.43523 0
M  V30 5145 O 478.28 1.85249 -0.592705 0
M  V30 5146 C 478.563 0.047311 -3.60069 0
M  V30 5147 C 478.416 -1.32865 -4.29729 0
M  V30 5148 C 479.735 0.758182 -4.3352 0
M  V30 5149 H 476.854 -0.0161105 -0.736824 0
M  V30 5150 H 479.496 -0.725628 -1.75598 0
M  V30 5151 H 477.646 0.630986 -3.83342 0
M  V30 5152 H 479.318 -1.95593 -4.17781 0
M  V30 5153 H 477.561 -1.90195 -3.89882 0
M  V30 5154 H 478.232 -1.22004 -5.38349 0
M  V30 5155 H 480.708 0.262546 -4.15271 0
M  V30 5156 H 479.584 0.78844 -5.43208 0
M  V30 5157 H 479.845 1.81537 -4.03109 0
M  V30 5158 N 478.904 1.54736 -0.299062 0
M  V30 5159 C 479.836 2.20891 0.61153 0
M  V30 5160 C 480.849 1.20104 1.09904 0
M  V30 5161 O 482.038 1.46707 1.01683 0
M  V30 5162 C 479.138 2.84018 1.84897 0
M  V30 5163 C 478.311 4.10719 1.50428 0
M  V30 5164 C 477.37 4.57667 2.59667 0
M  V30 5165 O 476.396 5.2291 2.24842 0
M  V30 5166 N 477.598 4.29821 3.90172 0
M  V30 5167 H 480.363 2.99666 0.0452001 0
M  V30 5168 H 477.924 1.61446 -0.121178 0
M  V30 5169 H 479.916 3.1236 2.5732 0
M  V30 5170 H 478.486 2.09095 2.32375 0
M  V30 5171 H 477.706 3.89408 0.612781 0
M  V30 5172 H 478.994 4.93223 1.24934 0
M  V30 5173 H 478.392 3.77549 4.21276 0
M  V30 5174 H 476.949 4.62877 4.58899 0
M  V30 5175 N 480.382 0.0267497 1.57577 0
M  V30 5176 C 481.292 -0.971633 2.13533 0
M  V30 5177 C 482.308 -1.35868 1.08701 0
M  V30 5178 O 483.484 -1.44058 1.40746 0
M  V30 5179 C 480.549 -2.23622 2.64941 0
M  V30 5180 C 479.61 -1.90982 3.8448 0
M  V30 5181 C 478.843 -3.11411 4.33427 0
M  V30 5182 O 479.066 -4.23992 3.81558 0
M  V30 5183 O 478 -2.93848 5.25297 0
M  V30 5184 H 481.826 -0.525853 2.99113 0
M  V30 5185 H 479.411 -0.193712 1.48139 0
M  V30 5186 H 481.293 -2.97864 2.98086 0
M  V30 5187 H 479.968 -2.67386 1.82446 0
M  V30 5188 H 478.875 -1.14132 3.56265 0
M  V30 5189 H 480.208 -1.52036 4.6813 0
M  V30 5190 N 481.861 -1.55662 -0.24637 0
M  V30 5191 C 483.089 -1.81575 -0.991876 0
M  V30 5192 C 483.504 -0.602545 -1.78927 0
M  V30 5193 O 482.861 0.428795 -1.77391 0
M  V30 5194 C 482.912 -3.05711 -1.92933 0
M  V30 5195 O 482.633 -4.22348 -1.1642 0
M  V30 5196 C 484.134 -3.44428 -2.79078 0
M  V30 5197 H 481.354 -0.604209 -0.291844 0
M  V30 5198 H 483.898 -2.02722 -0.269095 0
M  V30 5199 H 482.053 -2.86612 -2.60638 0
M  V30 5200 H 482.467 -4.92706 -1.79835 0
M  V30 5201 H 483.941 -4.34388 -3.40603 0
M  V30 5202 H 484.418 -2.65037 -3.50217 0
M  V30 5203 H 485.024 -3.65879 -2.16824 0
M  V30 5204 N 483.339 0.512053 -1.4905 0
M  V30 5205 C 484.249 1.64139 -1.67617 0
M  V30 5206 C 485.265 1.64786 -0.558701 0
M  V30 5207 O 486.441 1.8341 -0.832034 0
M  V30 5208 C 483.506 3.00548 -1.72835 0
M  V30 5209 C 482.567 3.10615 -2.96339 0
M  V30 5210 C 481.8 4.40517 -3.01298 0
M  V30 5211 O 482.023 5.28671 -2.14157 0
M  V30 5212 O 480.957 4.55325 -3.93653 0
M  V30 5213 H 484.783 1.51407 -2.63267 0
M  V30 5214 H 482.368 0.687131 -1.32661 0
M  V30 5215 H 484.25 3.81641 -1.78683 0
M  V30 5216 H 482.925 3.13566 -0.803616 0
M  V30 5217 H 481.832 2.2875 -2.96014 0
M  V30 5218 H 483.165 3.0252 -3.88256 0
M  V30 5219 N 484.817 1.37938 0.762283 0
M  V30 5220 C 486.228 1.30094 1.33912 0
M  V30 5221 C 486.579 -0.0472026 1.96143 0
M  V30 5222 O 485.704 -0.94917 1.94473 0
M  V30 5223 C 486.299 2.35592 2.43478 0
M  V30 5224 C 484.858 2.31353 2.96905 0
M  V30 5225 C 484.005 2.18919 1.70205 0
M  V30 5226 H 486.956 1.48423 0.561816 0
M  V30 5227 H 486.977 2.00806 3.23199 0
M  V30 5228 H 486.489 3.33701 1.98155 0
M  V30 5229 H 484.59 1.36799 3.46579 0
M  V30 5230 H 484.703 3.25147 3.51875 0
M  V30 5231 H 483.067 1.65624 1.93496 0
M  V30 5232 H 483.85 3.18956 1.26973 0
M  V30 5233 N 486.295 -0.989507 1.22664 0
M  V30 5234 C 487.52 -1.77031 1.08051 0
M  V30 5235 C 487.945 -1.84535 -0.364483 0
M  V30 5236 O 487.303 -1.3003 -1.2634 0
M  V30 5237 C 487.351 -3.18 1.70024 0
M  V30 5238 O 486.455 -4.01161 0.956216 0
M  V30 5239 H 485.796 -0.545008 0.379292 0
M  V30 5240 H 488.326 -1.24277 1.62531 0
M  V30 5241 H 488.336 -3.68616 1.74888 0
M  V30 5242 H 487.011 -3.11853 2.75174 0
M  V30 5243 H 485.588 -3.59687 0.98384 0
M  V30 5244 N 487.773 -1.03688 -1.18687 0
M  V30 5245 C 488.736 -0.629115 -2.20397 0
M  V30 5246 C 489.736 0.311495 -1.57754 0
M  V30 5247 O 490.926 0.0974107 -1.73927 0
M  V30 5248 C 488.058 0.0782231 -3.4081 0
M  V30 5249 H 489.251 -1.52915 -2.57987 0
M  V30 5250 H 486.804 -0.828988 -1.32505 0
M  V30 5251 H 487.539 0.992233 -3.08748 0
M  V30 5252 H 487.324 -0.597776 -3.87517 0
M  V30 5253 H 488.814 0.350156 -4.16129 0
M  V30 5254 N 489.251 1.34841 -0.815825 0
M  V30 5255 C 490.183 2.28409 -0.190265 0
M  V30 5256 C 491.196 1.50705 0.615771 0
M  V30 5257 O 492.385 1.72822 0.446616 0
M  V30 5258 C 489.485 3.30441 0.752446 0
M  V30 5259 C 488.658 4.37399 -0.00922152 0
M  V30 5260 C 487.717 5.19234 0.853351 0
M  V30 5261 O 486.743 5.68404 0.300919 0
M  V30 5262 N 487.945 5.38248 2.17416 0
M  V30 5263 H 490.71 2.82732 -0.994114 0
M  V30 5264 H 488.271 1.47289 -0.672129 0
M  V30 5265 H 490.263 3.82084 1.33394 0
M  V30 5266 H 488.833 2.76565 1.45707 0
M  V30 5267 H 488.053 3.86567 -0.771979 0
M  V30 5268 H 489.341 5.05992 -0.533807 0
M  V30 5269 H 488.739 4.99961 2.6468 0
M  V30 5270 H 487.296 5.93035 2.70467 0
M  V30 5271 N 490.729 0.570148 1.46925 0
M  V30 5272 C 491.661 -0.207909 2.28255 0
M  V30 5273 C 492.674 -0.867301 1.37774 0
M  V30 5274 O 493.863 -0.738976 1.62485 0
M  V30 5275 C 490.963 -1.31298 3.12433 0
M  V30 5276 C 490.136 -0.747915 4.30958 0
M  V30 5277 C 489.195 -1.7391 4.9663 0
M  V30 5278 O 488.221 -1.2801 5.54619 0
M  V30 5279 N 489.423 -3.07288 4.92498 0
M  V30 5280 H 492.188 0.489794 2.95671 0
M  V30 5281 H 489.749 0.407076 1.56699 0
M  V30 5282 H 491.741 -1.97507 3.53232 0
M  V30 5283 H 490.311 -1.91373 2.47175 0
M  V30 5284 H 489.531 0.0913066 3.94094 0
M  V30 5285 H 490.819 -0.349958 5.07595 0
M  V30 5286 H 490.217 -3.47213 4.46609 0
M  V30 5287 H 488.774 -3.69021 5.37277 0
M  V30 5288 N 492.207 -1.54576 0.307264 0
M  V30 5289 C 493.155 -2.25208 -0.581723 0
M  V30 5290 C 494.149 -1.26031 -1.13192 0
M  V30 5291 O 495.355 -1.43862 -1.08184 0
M  V30 5292 H 491.73 -0.723173 -0.206214 0
M  V30 5293 H 493.701 -2.98378 0.0364663 0
M  V30 5294 C 492.45 -3.01086 -1.73904 0
M  V30 5295 H 491.773 -3.77208 -1.32491 0
M  V30 5296 H 493.213 -3.5378 -2.33701 0
M  V30 5297 C 491.672 -2.08422 -2.64692 0
M  V30 5298 O 492.202 -1.65636 -3.65961 0
M  V30 5299 N 490.408 -1.74247 -2.32564 0
M  V30 5300 H 489.955 -2.09238 -1.50257 0
M  V30 5301 H 489.913 -1.12524 -2.93574 0
M  V30 5302 N 493.685 -0.035106 -1.57561 0
M  V30 5303 C 494.618 0.979673 -2.06101 0
M  V30 5304 C 495.596 1.31378 -0.958046 0
M  V30 5305 O 496.78 1.42942 -1.22881 0
M  V30 5306 C 493.907 2.29809 -2.48808 0
M  V30 5307 C 492.953 2.11817 -3.70184 0
M  V30 5308 S 493.786 1.41143 -5.16565 0
M  V30 5309 C 494.942 2.74341 -5.62572 0
M  V30 5310 H 495.175 0.566506 -2.91853 0
M  V30 5311 H 492.708 0.176744 -1.53385 0
M  V30 5312 H 494.666 3.056 -2.74078 0
M  V30 5313 H 493.327 2.68257 -1.63392 0
M  V30 5314 H 492.52 3.09299 -3.97933 0
M  V30 5315 H 492.122 1.44168 -3.45097 0
M  V30 5316 H 494.414 3.70562 -5.67177 0
M  V30 5317 H 495.357 2.51249 -6.62027 0
M  V30 5318 H 495.765 2.79863 -4.90242 0
M  V30 5319 N 495.163 1.55791 0.238111 0
M  V30 5320 C 496.388 1.8244 0.986432 0
M  V30 5321 C 496.813 0.613314 1.7782 0
M  V30 5322 O 496.171 -0.437767 1.75935 0
M  V30 5323 C 496.219 3.06917 1.893 0
M  V30 5324 O 495.323 2.84449 2.98601 0
M  V30 5325 H 494.664 0.601975 0.280218 0
M  V30 5326 H 497.194 2.02987 0.256437 0
M  V30 5327 H 497.204 3.36583 2.30598 0
M  V30 5328 H 495.879 3.947 1.31091 0
M  V30 5329 H 494.456 2.65972 2.61368 0
M  V30 5330 N 496.642 -0.504142 1.49319 0
M  V30 5331 C 497.572 -1.61473 1.68667 0
M  V30 5332 C 498.553 -1.61455 0.535378 0
M  V30 5333 O 499.738 -1.78245 0.770868 0
M  V30 5334 C 496.868 -2.99971 1.75028 0
M  V30 5335 C 495.822 -3.14854 2.89916 0
M  V30 5336 C 495.148 -4.54671 2.81387 0
M  V30 5337 C 496.448 -2.95176 4.30893 0
M  V30 5338 H 498.142 -1.45535 2.61648 0
M  V30 5339 H 495.688 -0.698711 1.25913 0
M  V30 5340 H 497.641 -3.77562 1.8715 0
M  V30 5341 H 496.365 -3.1699 0.786441 0
M  V30 5342 H 495.024 -2.39687 2.77391 0
M  V30 5343 H 494.672 -4.68562 1.82917 0
M  V30 5344 H 494.372 -4.6557 3.58494 0
M  V30 5345 H 495.896 -5.34327 2.95512 0
M  V30 5346 H 497.31 -3.62538 4.44116 0
M  V30 5347 H 495.707 -3.17549 5.09198 0
M  V30 5348 H 496.777 -1.91332 4.45556 0
M  V30 5349 N 498.12 -1.38341 -0.754957 0
M  V30 5350 C 499.083 -1.35262 -1.85032 0
M  V30 5351 C 500.083 -0.253393 -1.58791 0
M  V30 5352 O 501.273 -0.510205 -1.66561 0
M  V30 5353 C 498.405 -1.10544 -3.22479 0
M  V30 5354 H 499.598 -2.32712 -1.8917 0
M  V30 5355 H 497.151 -1.23614 -0.956515 0
M  V30 5356 H 497.886 -0.136952 -3.24011 0
M  V30 5357 H 497.671 -1.90127 -3.4292 0
M  V30 5358 H 499.161 -1.11082 -4.02555 0
M  V30 5359 N 499.598 0.982988 -1.23187 0
M  V30 5360 C 500.847 1.71817 -1.05649 0
M  V30 5361 C 501.16 1.91315 0.407176 0
M  V30 5362 O 502.366 2.62256 0.702436 0
M  V30 5363 C 500.822 3.09188 -1.84203 0
M  V30 5364 C 500.43 2.97586 -3.34882 0
M  V30 5365 C 502.174 3.86684 -1.75146 0
M  V30 5366 C 500.081 4.30173 -4.05839 0
M  V30 5367 H 499.011 0.644258 -0.391724 0
M  V30 5368 H 501.662 1.09659 -1.4713 0
M  V30 5369 H 500.044 3.72087 -1.35527 0
M  V30 5370 H 501.218 2.43793 -3.91026 0
M  V30 5371 H 499.533 2.33567 -3.44725 0
M  V30 5372 H 502.13 4.84836 -2.25473 0
M  V30 5373 H 502.473 4.10136 -0.713737 0
M  V30 5374 H 503.006 3.30482 -2.21419 0
M  V30 5375 H 499.745 4.11918 -5.09906 0
M  V30 5376 H 499.265 4.83841 -3.54482 0
M  V30 5377 H 500.944 4.98873 -4.11989 0
M  V30 5378 N 501.076 1.04316 1.18135 0
M  V30 5379 C 502.006 0.657299 2.24058 0
M  V30 5380 C 502.987 -0.340678 1.66654 0
M  V30 5381 O 504.172 -0.220223 1.92947 0
M  V30 5382 C 501.302 0.0220715 3.47293 0
M  V30 5383 C 500.256 0.943857 4.17463 0
M  V30 5384 C 499.582 0.172973 5.3442 0
M  V30 5385 C 500.882 2.26409 4.70677 0
M  V30 5386 H 502.576 1.5428 2.56589 0
M  V30 5387 H 500.122 0.743263 1.23335 0
M  V30 5388 H 502.075 -0.259607 4.206 0
M  V30 5389 H 500.799 -0.898323 3.14003 0
M  V30 5390 H 499.458 1.20996 3.46057 0
M  V30 5391 H 499.106 -0.749907 4.97379 0
M  V30 5392 H 498.806 0.787098 5.82304 0
M  V30 5393 H 500.33 -0.101628 6.10515 0
M  V30 5394 H 501.744 2.04294 5.35665 0
M  V30 5395 H 500.141 2.8314 5.29105 0
M  V30 5396 H 501.211 2.90883 3.87962 0
M  V30 5397 N 502.554 -1.34406 0.822964 0
M  V30 5398 C 503.97 -1.51275 0.508727 0
M  V30 5399 C 504.17 -1.76776 -0.967083 0
M  V30 5400 O 503.226 -1.81871 -1.75155 0
M  V30 5401 C 504.539 -2.67765 1.36829 0
M  V30 5402 C 506.087 -2.81647 1.36542 0
M  V30 5403 C 506.562 -4.01181 2.20947 0
M  V30 5404 N 508.053 -4.08388 2.18571 0
M  V30 5405 C 508.788 -5.00036 2.80627 0
M  V30 5406 N 508.284 -5.96906 3.51674 0
M  V30 5407 N 510.077 -4.92908 2.70181 0
M  V30 5408 H 502.228 -1.16113 1.77852 0
M  V30 5409 H 504.491 -0.56947 0.757897 0
M  V30 5410 H 504.197 -2.55551 2.41633 0
M  V30 5411 H 504.071 -3.62779 1.03303 0
M  V30 5412 H 506.458 -2.93303 0.325163 0
M  V30 5413 H 506.539 -1.87443 1.74066 0
M  V30 5414 H 506.183 -3.90286 3.25022 0
M  V30 5415 H 506.113 -4.94599 1.80774 0
M  V30 5416 H 508.604 -3.39051 1.66891 0
M  V30 5417 H 508.917 -6.63468 3.96271 0
M  V30 5418 H 507.262 -5.9703 3.5578 0
M  V30 5419 H 510.453 -4.1619 2.14251 0
M  V30 5420 H 510.626 -5.64137 3.18831 0
M  V30 5421 N 504.032 -0.577932 -1.46621 0
M  V30 5422 C 505.281 -0.0594281 -2.01612 0
M  V30 5423 C 505.594 1.30663 -1.45556 0
M  V30 5424 O 506.8 1.91621 -1.92337 0
M  V30 5425 C 505.256 -0.0556666 -3.59857 0
M  V30 5426 C 504.864 -1.41975 -4.24908 0
M  V30 5427 C 506.608 0.409143 -4.22524 0
M  V30 5428 C 504.515 -1.37397 -5.75218 0
M  V30 5429 H 503.445 -0.0184469 -0.753774 0
M  V30 5430 H 506.096 -0.728869 -1.68404 0
M  V30 5431 H 504.478 0.679843 -3.90121 0
M  V30 5432 H 505.652 -2.17461 -4.0626 0
M  V30 5433 H 503.967 -1.82419 -3.74316 0
M  V30 5434 H 506.564 0.46211 -5.32699 0
M  V30 5435 H 506.907 1.42565 -3.91128 0
M  V30 5436 H 507.44 -0.272152 -3.96868 0
M  V30 5437 H 504.179 -2.36714 -6.11267 0
M  V30 5438 H 503.699 -0.661239 -5.96144 0
M  V30 5439 H 505.378 -1.08484 -6.3784 0
M  V30 5440 N 505.51 1.54411 -0.315457 0
M  V30 5441 C 506.759 1.99599 0.290395 0
M  V30 5442 C 507.072 1.20746 1.53882 0
M  V30 5443 O 508.278 1.56272 2.22017 0
M  V30 5444 C 506.734 3.5539 0.56797 0
M  V30 5445 C 506.342 4.43068 -0.662945 0
M  V30 5446 C 508.086 4.09067 1.13422 0
M  V30 5447 C 505.993 5.90317 -0.357722 0
M  V30 5448 H 504.923 0.745592 0.112286 0
M  V30 5449 H 507.574 1.78477 -0.426418 0
M  V30 5450 H 505.956 3.72468 1.34476 0
M  V30 5451 H 507.13 4.37765 -1.43869 0
M  V30 5452 H 505.445 4.00238 -1.14884 0
M  V30 5453 H 508.042 5.16663 1.37707 0
M  V30 5454 H 508.385 3.60552 2.08106 0
M  V30 5455 H 508.918 3.95589 0.418805 0
M  V30 5456 H 505.657 6.4301 -1.27351 0
M  V30 5457 H 505.177 5.98592 0.380472 0
M  V30 5458 H 506.856 6.4699 0.0354284 0
M  V30 5459 N 506.988 0.0434614 1.5754 0
M  V30 5460 C 508.404 -0.313039 1.565 0
M  V30 5461 C 508.604 -1.71954 1.05043 0
M  V30 5462 O 507.66 -2.425 0.703564 0
M  V30 5463 C 508.973 -0.148544 3.00333 0
M  V30 5464 C 510.521 -0.220231 3.12224 0
M  V30 5465 C 510.996 -0.0843565 4.57922 0
M  V30 5466 N 512.487 -0.140881 4.62986 0
M  V30 5467 C 513.222 -0.0597443 5.73369 0
M  V30 5468 N 512.718 0.0733004 6.92761 0
M  V30 5469 N 514.511 -0.11477 5.61983 0
M  V30 5470 H 506.662 0.96303 1.89313 0
M  V30 5471 H 508.925 0.373164 0.871466 0
M  V30 5472 H 508.631 0.820894 3.41986 0
M  V30 5473 H 508.505 -0.912798 3.65989 0
M  V30 5474 H 510.892 -1.18014 2.70475 0
M  V30 5475 H 510.973 0.574646 2.49262 0
M  V30 5476 H 510.617 0.872192 5.00355 0
M  V30 5477 H 510.547 -0.898281 5.18882 0
M  V30 5478 H 513.038 -0.243273 3.77116 0
M  V30 5479 H 513.351 0.128128 7.72694 0
M  V30 5480 H 511.696 0.10828 6.94916 0
M  V30 5481 H 514.887 -0.217212 4.67596 0
M  V30 5482 H 515.06 -0.0480779 6.47982 0
M  V30 5483 N 508.466 -1.55915 -0.229846 0
M  V30 5484 C 509.396 -1.94754 -1.28815 0
M  V30 5485 C 510.377 -0.814657 -1.49323 0
M  V30 5486 O 511.562 -1.07631 -1.61645 0
M  V30 5487 C 508.692 -2.25705 -2.63959 0
M  V30 5488 C 507.646 -3.41406 -2.5812 0
M  V30 5489 C 506.972 -3.57941 -3.97218 0
M  V30 5490 C 508.272 -4.76616 -2.13623 0
M  V30 5491 H 509.966 -2.83404 -0.965547 0
M  V30 5492 H 507.512 -1.36353 -0.463028 0
M  V30 5493 H 509.465 -2.51467 -3.38146 0
M  V30 5494 H 508.189 -1.339 -2.9789 0
M  V30 5495 H 506.848 -3.1568 -1.86391 0
M  V30 5496 H 506.496 -2.63526 -4.28443 0
M  V30 5497 H 506.196 -4.35757 -3.94195 0
M  V30 5498 H 507.72 -3.86042 -4.73079 0
M  V30 5499 H 509.134 -5.01637 -2.77549 0
M  V30 5500 H 507.531 -5.57655 -2.21677 0
M  V30 5501 H 508.601 -4.7253 -1.08829 0
M  V30 5502 N 509.944 0.496216 -1.49584 0
M  V30 5503 C 511.19 1.25189 -1.59548 0
M  V30 5504 C 511.523 1.9212 -0.283466 0
M  V30 5505 O 510.798 1.80947 0.713324 0
M  V30 5506 C 511.081 2.31516 -2.75812 0
M  V30 5507 C 510.934 1.69054 -4.16822 0
M  V30 5508 C 512.253 3.3304 -2.87702 0
M  V30 5509 H 509.372 0.45379 -0.580727 0
M  V30 5510 H 512.014 0.549327 -1.81886 0
M  V30 5511 H 510.164 2.91438 -2.56897 0
M  V30 5512 H 511.836 1.12923 -4.47265 0
M  V30 5513 H 510.079 0.994485 -4.22247 0
M  V30 5514 H 510.75 2.462 -4.94054 0
M  V30 5515 H 513.226 2.83114 -3.04936 0
M  V30 5516 H 512.102 4.04794 -3.7072 0
M  V30 5517 H 512.363 3.95655 -1.97255 0
M  V30 5518 N 511.423 1.38739 0.74761 0
M  V30 5519 C 512.839 1.20067 1.05148 0
M  V30 5520 C 513.039 0.0534835 2.01429 0
M  V30 5521 O 512.095 -0.59886 2.45296 0
M  V30 5522 C 513.408 2.52957 1.62584 0
M  V30 5523 C 514.956 2.59692 1.74726 0
M  V30 5524 C 515.431 3.92772 2.35573 0
M  V30 5525 N 516.922 3.94343 2.42997 0
M  V30 5526 C 517.657 4.9408 2.90985 0
M  V30 5527 N 517.153 6.04214 3.38965 0
M  V30 5528 N 518.946 4.81466 2.9008 0
M  V30 5529 H 511.097 2.12121 0.108808 0
M  V30 5530 H 513.36 0.941491 0.110899 0
M  V30 5531 H 513.066 3.37389 0.993051 0
M  V30 5532 H 512.94 2.71779 2.61565 0
M  V30 5533 H 515.327 1.75651 2.3713 0
M  V30 5534 H 515.408 2.44731 0.744326 0
M  V30 5535 H 515.052 4.77238 1.738 0
M  V30 5536 H 514.982 4.05046 3.36519 0
M  V30 5537 H 517.473 3.14799 2.0907 0
M  V30 5538 H 517.786 6.76241 3.74056 0
M  V30 5539 H 516.131 6.07825 3.37007 0
M  V30 5540 H 519.322 3.94535 2.51912 0
M  V30 5541 H 519.495 5.59344 3.27166 0
M  V30 5542 N 512.901 -0.976442 1.23707 0
M  V30 5543 C 514.147 -1.72081 1.07312 0
M  V30 5544 C 514.48 -1.90275 -0.388476 0
M  V30 5545 O 513.755 -1.4579 -1.28746 0
M  V30 5546 C 514.038 -3.11675 1.80363 0
M  V30 5547 C 513.891 -3.01027 3.3422 0
M  V30 5548 C 515.21 -4.1117 1.5693 0
M  V30 5549 H 512.329 -0.624583 0.391236 0
M  V30 5550 H 514.971 -1.13649 1.52263 0
M  V30 5551 H 513.121 -3.61559 1.42153 0
M  V30 5552 H 514.793 -2.58637 3.81975 0
M  V30 5553 H 513.036 -2.3744 3.63049 0
M  V30 5554 H 513.707 -3.9988 3.80525 0
M  V30 5555 H 516.183 -3.7011 1.90151 0
M  V30 5556 H 515.059 -5.06928 2.10513 0
M  V30 5557 H 515.32 -4.392 0.505548 0
M  V30 5558 N 514.379 -1.04941 -1.1758 0
M  V30 5559 C 515.626 -0.757989 -1.87779 0
M  V30 5560 C 515.954 0.714827 -1.80888 0
M  V30 5561 O 515.209 1.53824 -1.20982 0
M  V30 5562 C 515.508 -1.18062 -3.37337 0
M  V30 5563 C 515.174 -2.65521 -3.6443 0
M  V30 5564 C 513.836 -3.05804 -3.71534 0
M  V30 5565 C 516.188 -3.60822 -3.76108 0
M  V30 5566 C 513.516 -4.40256 -3.87803 0
M  V30 5567 C 515.868 -4.95005 -3.93895 0
M  V30 5568 C 514.532 -5.34945 -3.99237 0
M  V30 5569 H 513.802 -0.277368 -0.68713 0
M  V30 5570 H 516.449 -1.31603 -1.39115 0
M  V30 5571 H 514.754 -0.541525 -3.8804 0
M  V30 5572 H 516.451 -0.932368 -3.9001 0
M  V30 5573 H 513.041 -2.33324 -3.59524 0
M  V30 5574 H 517.225 -3.30841 -3.69943 0
M  V30 5575 H 512.481 -4.70707 -3.90186 0
M  V30 5576 H 516.655 -5.68746 -4.01872 0
M  V30 5577 H 514.282 -6.39135 -4.11596 0
M  V30 5578 N 515.857 1.33968 -0.830081 0
M  V30 5579 C 517.273 1.51003 -0.516742 0
M  V30 5580 C 517.473 1.77286 0.957694 0
M  V30 5581 O 516.529 1.82797 1.74188 0
M  V30 5582 C 517.842 2.67036 -1.38247 0
M  V30 5583 C 519.39 2.80919 -1.38034 0
M  V30 5584 C 519.865 4.00004 -2.23071 0
M  V30 5585 N 521.356 4.07224 -2.20733 0
M  V30 5586 C 522.091 4.98541 -2.83275 0
M  V30 5587 N 521.587 5.95033 -3.54835 0
M  V30 5588 N 523.38 4.91469 -2.72791 0
M  V30 5589 H 515.531 1.15168 -1.78466 0
M  V30 5590 H 517.794 0.565443 -0.760906 0
M  V30 5591 H 517.5 2.54266 -2.42985 0
M  V30 5592 H 517.374 3.62226 -1.05225 0
M  V30 5593 H 519.761 2.93127 -0.340713 0
M  V30 5594 H 519.842 1.86517 -1.75057 0
M  V30 5595 H 519.486 3.88557 -3.27087 0
M  V30 5596 H 519.416 4.93634 -1.83394 0
M  V30 5597 H 521.907 3.38162 -1.68687 0
M  V30 5598 H 522.22 6.61357 -3.99784 0
M  V30 5599 H 520.565 5.95135 -3.58942 0
M  V30 5600 H 523.756 4.15048 -2.16456 0
M  V30 5601 H 523.929 5.62439 -3.21818 0
M  V30 5602 N 517.335 0.585699 1.46312 0
M  V30 5603 C 518.584 0.0701192 2.01578 0
M  V30 5604 C 518.897 -1.29889 1.46247 0
M  V30 5605 O 520.103 -1.90598 1.93351 0
M  V30 5606 C 518.559 0.0747499 3.59822 0
M  V30 5607 C 518.167 1.44226 4.24149 0
M  V30 5608 C 519.911 -0.38673 4.22735 0
M  V30 5609 C 517.818 1.40446 5.74481 0
M  V30 5610 H 516.748 0.0224441 0.753666 0
M  V30 5611 H 519.399 0.737789 1.68015 0
M  V30 5612 H 517.781 -0.659144 3.90476 0
M  V30 5613 H 518.955 2.19612 4.05101 0
M  V30 5614 H 517.27 1.84401 3.73343 0
M  V30 5615 H 519.867 -0.433853 5.32937 0
M  V30 5616 H 520.21 -1.40489 3.91878 0
M  V30 5617 H 520.743 0.293195 3.96718 0
M  V30 5618 H 517.482 2.39952 6.10003 0
M  V30 5619 H 517.002 0.692845 5.95785 0
M  V30 5620 H 518.681 1.11865 6.37256 0
M  V30 5621 N 518.813 -1.54241 0.323641 0
M  V30 5622 C 520.06 -2.0057 -0.27891 0
M  V30 5623 C 520.388 -1.21181 -1.52136 0
M  V30 5624 O 519.643 -0.282043 -1.93657 0
M  V30 5625 C 519.942 -3.5129 -0.658031 0
M  V30 5626 C 519.608 -4.48281 0.485252 0
M  V30 5627 C 518.27 -4.74519 0.799055 0
M  V30 5628 C 520.622 -5.05909 1.25322 0
M  V30 5629 C 517.95 -5.55643 1.88354 0
M  V30 5630 C 520.302 -5.88215 2.32779 0
M  V30 5631 C 518.966 -6.12755 2.64741 0
M  V30 5632 H 518.236 -0.733938 -0.10206 0
M  V30 5633 H 520.883 -1.862 0.447435 0
M  V30 5634 H 519.188 -3.63388 -1.4648 0
M  V30 5635 H 520.885 -3.84578 -1.1358 0
M  V30 5636 H 517.475 -4.27979 0.230593 0
M  V30 5637 H 521.659 -4.8562 1.02404 0
M  V30 5638 H 516.915 -5.72888 2.13564 0
M  V30 5639 H 521.089 -6.31888 2.92729 0
M  V30 5640 H 518.716 -6.75404 3.48904 0
M  V30 5641 N 520.291 -0.0518155 -1.57515 0
M  V30 5642 C 521.238 0.922352 -2.11569 0
M  V30 5643 C 522.208 1.30842 -1.02321 0
M  V30 5644 O 523.393 1.39778 -1.29872 0
M  V30 5645 C 520.533 2.19167 -2.6657 0
M  V30 5646 C 519.646 1.86003 -3.89906 0
M  V30 5647 C 518.781 3.07398 -4.33221 0
M  V30 5648 C 517.82 2.70158 -5.49255 0
M  V30 5649 N 516.957 3.84248 -5.8762 0
M  V30 5650 H 521.797 0.454506 -2.94514 0
M  V30 5651 H 519.334 0.212718 -1.45554 0
M  V30 5652 H 521.292 2.93443 -2.96559 0
M  V30 5653 H 519.922 2.63528 -1.86421 0
M  V30 5654 H 518.974 1.01874 -3.66505 0
M  V30 5655 H 520.286 1.54592 -4.74239 0
M  V30 5656 H 519.44 3.89972 -4.64765 0
M  V30 5657 H 518.179 3.41988 -3.477 0
M  V30 5658 H 517.184 1.86001 -5.17382 0
M  V30 5659 H 518.409 2.36759 -6.36492 0
M  V30 5660 H 516.355 4.18638 -5.05053 0
M  V30 5661 H 516.272 3.56538 -6.66646 0
M  V30 5662 H 517.54 4.6746 -6.2378 0
M  V30 5663 N 521.769 1.56035 0.221574 0
M  V30 5664 C 522.699 1.95434 1.2778 0
M  V30 5665 C 523.68 0.822564 1.48889 0
M  V30 5666 O 524.865 1.08486 1.61072 0
M  V30 5667 C 521.995 2.27102 2.62759 0
M  V30 5668 C 520.949 3.4277 2.56306 0
M  V30 5669 C 520.275 3.60043 3.95314 0
M  V30 5670 C 521.575 4.77742 2.11093 0
M  V30 5671 H 523.269 2.83912 0.950504 0
M  V30 5672 H 520.815 1.36596 0.455791 0
M  V30 5673 H 522.768 2.53256 3.36807 0
M  V30 5674 H 521.492 1.35478 2.97176 0
M  V30 5675 H 520.151 3.16664 1.84715 0
M  V30 5676 H 519.799 2.65794 4.27039 0
M  V30 5677 H 519.499 4.37841 3.91879 0
M  V30 5678 H 521.023 3.88545 4.71025 0
M  V30 5679 H 522.437 5.03102 2.74885 0
M  V30 5680 H 520.834 5.58823 2.18716 0
M  V30 5681 H 521.904 4.731 1.06321 0
M  V30 5682 N 523.247 -0.488276 1.49845 0
M  V30 5683 C 524.472 -1.26997 1.63971 0
M  V30 5684 C 524.897 -1.85427 0.315994 0
M  V30 5685 O 524.255 -1.66475 -0.718032 0
M  V30 5686 C 524.303 -2.36689 2.72049 0
M  V30 5687 O 523.407 -3.40882 2.32107 0
M  V30 5688 H 522.748 -0.374376 0.548396 0
M  V30 5689 H 525.278 -0.583104 1.96115 0
M  V30 5690 H 525.288 -2.82262 2.94605 0
M  V30 5691 H 523.963 -1.93529 3.68129 0
M  V30 5692 H 522.54 -3.01139 2.19931 0
M  V30 5693 N 524.725 -1.39134 -0.740242 0
M  V30 5694 C 526.141 -1.20623 -1.0451 0
M  V30 5695 C 526.341 -0.0641651 -2.01398 0
M  V30 5696 O 525.397 0.585843 -2.4561 0
M  V30 5697 C 526.71 -2.53815 -1.6124 0
M  V30 5698 C 528.258 -2.60615 -1.73346 0
M  V30 5699 C 528.733 -3.94015 -2.33486 0
M  V30 5700 N 530.224 -3.95627 -2.40902 0
M  V30 5701 C 530.959 -4.95616 -2.88361 0
M  V30 5702 N 530.455 -6.06003 -3.35756 0
M  V30 5703 N 532.248 -4.82998 -2.87523 0
M  V30 5704 H 524.399 -2.12176 -0.0975576 0
M  V30 5705 H 526.662 -0.942066 -0.105904 0
M  V30 5706 H 526.368 -3.37911 -0.975144 0
M  V30 5707 H 526.242 -2.73162 -2.6012 0
M  V30 5708 H 528.629 -1.76906 -2.36195 0
M  V30 5709 H 528.71 -2.45123 -0.731336 0
M  V30 5710 H 528.354 -4.78153 -1.71267 0
M  V30 5711 H 528.284 -4.06825 -3.34366 0
M  V30 5712 H 530.775 -3.15903 -2.07398 0
M  V30 5713 H 531.088 -6.78215 -3.70464 0
M  V30 5714 H 529.433 -6.09604 -3.33778 0
M  V30 5715 H 532.624 -3.95866 -2.49816 0
M  V30 5716 H 532.797 -5.61072 -3.24196 0
M  V30 5717 N 526.204 0.969867 -1.24223 0
M  V30 5718 C 527.154 2.04913 -0.999732 0
M  V30 5719 C 528.138 1.60795 0.0580636 0
M  V30 5720 O 529.33 1.76317 -0.155392 0
M  V30 5721 C 526.459 3.37942 -0.604154 0
M  V30 5722 C 525.545 3.88628 -1.69791 0
M  V30 5723 N 525.936 4.12274 -2.93025 0
M  V30 5724 C 524.234 4.17268 -1.57492 0
M  V30 5725 C 524.935 4.53808 -3.63914 0
M  V30 5726 N 523.911 4.58855 -2.91468 0
M  V30 5727 H 527.713 2.21168 -1.93551 0
M  V30 5728 H 525.227 1.15349 -1.14317 0
M  V30 5729 H 527.224 4.14863 -0.411665 0
M  V30 5730 H 525.884 3.23075 0.324465 0
M  V30 5731 H 526.895 3.99789 -3.29225 0
M  V30 5732 H 523.572 4.11346 -0.714175 0
M  V30 5733 H 524.962 4.80534 -4.69614 0
M  V30 5734 N 527.682 1.05563 1.17022 0
M  V30 5735 C 528.907 0.788437 1.91829 0
M  V30 5736 C 529.332 -0.650356 1.76499 0
M  V30 5737 O 528.69 -1.45229 1.08527 0
M  V30 5738 C 528.738 1.1786 3.40795 0
M  V30 5739 O 527.842 0.312965 4.11211 0
M  V30 5740 H 527.183 0.288794 0.597908 0
M  V30 5741 H 529.713 1.40948 1.48307 0
M  V30 5742 H 529.723 1.14697 3.91546 0
M  V30 5743 H 528.398 2.22666 3.51273 0
M  V30 5744 H 526.975 0.405515 3.70689 0
M  V30 5745 N 529.16 -1.33526 0.837174 0
M  V30 5746 C 530.107 -2.29248 0.267169 0
M  V30 5747 C 531.077 -1.54252 -0.616071 0
M  V30 5748 O 532.262 -1.82559 -0.554699 0
M  V30 5749 C 529.402 -3.40638 -0.553152 0
M  V30 5750 C 528.515 -4.30548 0.353921 0
M  V30 5751 C 527.65 -5.29051 -0.477339 0
M  V30 5752 C 526.689 -6.106 0.42823 0
M  V30 5753 N 525.826 -7.01152 -0.364801 0
M  V30 5754 H 530.666 -2.77398 1.08877 0
M  V30 5755 H 528.203 -1.36496 0.54838 0
M  V30 5756 H 530.161 -4.03921 -1.04422 0
M  V30 5757 H 528.791 -2.93685 -1.33973 0
M  V30 5758 H 527.843 -3.68001 0.963289 0
M  V30 5759 H 529.155 -4.87631 1.04964 0
M  V30 5760 H 528.309 -5.97853 -1.0323 0
M  V30 5761 H 527.048 -4.72541 -1.2065 0
M  V30 5762 H 526.053 -5.40718 0.995219 0
M  V30 5763 H 527.278 -6.69193 1.15573 0
M  V30 5764 H 525.224 -6.47092 -1.07738 0
M  V30 5765 H 525.141 -7.5551 0.272238 0
M  V30 5766 H 526.409 -7.74263 -0.902054 0
M  V30 5767 N 530.638 -0.59345 -1.46 0
M  V30 5768 C 531.886 -0.082988 -2.0193 0
M  V30 5769 C 532.207 1.28569 -1.46612 0
M  V30 5770 O 531.477 1.84629 -0.654909 0
M  V30 5771 H 530.057 -0.0276882 -0.746487 0
M  V30 5772 H 532.719 -0.771657 -1.78973 0
M  V30 5773 H 531.815 -0.022079 -3.12092 0
M  V30 5774 N 532.116 1.54067 -0.331816 0
M  V30 5775 C 533.046 2.27569 0.522932 0
M  V30 5776 C 534.027 1.28679 1.11247 0
M  V30 5777 O 535.212 1.57504 1.13605 0
M  V30 5778 C 532.342 3.0397 1.67987 0
M  V30 5779 C 531.296 4.10267 1.21924 0
M  V30 5780 C 530.622 4.74555 2.46377 0
M  V30 5781 C 531.922 5.21268 0.32815 0
M  V30 5782 H 533.616 2.99264 -0.0901977 0
M  V30 5783 H 531.162 1.4393 -0.044821 0
M  V30 5784 H 533.115 3.54123 2.28418 0
M  V30 5785 H 531.839 2.29906 2.31971 0
M  V30 5786 H 530.498 3.61009 0.637809 0
M  V30 5787 H 530.146 3.97098 3.08743 0
M  V30 5788 H 529.846 5.46363 2.16243 0
M  V30 5789 H 531.37 5.27487 3.07555 0
M  V30 5790 H 532.784 5.67128 0.838978 0
M  V30 5791 H 531.181 5.99982 0.119228 0
M  V30 5792 H 532.251 4.80673 -0.638839 0
M  V30 5793 N 533.594 0.0601682 1.57485 0
M  V30 5794 C 534.526 -0.94047 2.09016 0
M  V30 5795 C 535.539 -1.26897 1.01985 0
M  V30 5796 O 536.728 -1.22819 1.29529 0
M  V30 5797 C 533.828 -2.25955 2.52582 0
M  V30 5798 C 533.001 -2.11163 3.83052 0
M  V30 5799 C 532.06 -3.26273 4.12835 0
M  V30 5800 O 531.086 -3.01779 4.82616 0
M  V30 5801 N 532.288 -4.51022 3.65458 0
M  V30 5802 H 535.053 -0.500578 2.9549 0
M  V30 5803 H 532.614 -0.125852 1.6141 0
M  V30 5804 H 534.606 -3.01846 2.69575 0
M  V30 5805 H 533.176 -2.61481 1.71308 0
M  V30 5806 H 532.396 -1.19808 3.75552 0
M  V30 5807 H 533.684 -1.98517 4.68475 0
M  V30 5808 H 533.082 -4.73811 3.09062 0
M  V30 5809 H 531.639 -5.23978 3.87673 0
M  V30 5810 N 535.072 -1.5615 -0.213296 0
M  V30 5811 C 536.321 -1.78743 -0.93455 0
M  V30 5812 C 536.634 -0.630199 -1.8517 0
M  V30 5813 O 537.84 -0.739966 -2.61222 0
M  V30 5814 C 536.296 -3.16571 -1.71203 0
M  V30 5815 C 535.904 -4.40043 -0.840617 0
M  V30 5816 C 537.648 -3.48485 -2.42401 0
M  V30 5817 C 535.555 -5.68895 -1.61592 0
M  V30 5818 H 534.485 -0.666426 -0.352692 0
M  V30 5819 H 537.136 -1.82532 -0.188227 0
M  V30 5820 H 535.518 -3.06981 -2.50157 0
M  V30 5821 H 536.692 -4.6071 -0.0910326 0
M  V30 5822 H 535.007 -4.15706 -0.240365 0
M  V30 5823 H 537.604 -4.41983 -3.00924 0
M  V30 5824 H 537.947 -2.71371 -3.15695 0
M  V30 5825 H 538.48 -3.59442 -1.7043 0
M  V30 5826 H 535.219 -6.48925 -0.926106 0
M  V30 5827 H 534.739 -5.52275 -2.33991 0
M  V30 5828 H 536.418 -6.09365 -2.17447 0
M  V30 5829 N 536.55 0.480323 -1.50102 0
M  V30 5830 C 537.48 1.58769 -1.71215 0
M  V30 5831 C 538.461 1.60583 -0.560997 0
M  V30 5832 O 539.646 1.76996 -0.799127 0
M  V30 5833 C 536.776 2.97148 -1.79778 0
M  V30 5834 C 535.73 3.10201 -2.94888 0
M  V30 5835 C 535.056 4.50137 -2.88584 0
M  V30 5836 C 536.356 2.88283 -4.35534 0
M  V30 5837 H 538.05 1.41354 -2.6393 0
M  V30 5838 H 535.596 0.678591 -1.27008 0
M  V30 5839 H 537.549 3.74536 -1.93133 0
M  V30 5840 H 536.273 3.15699 -0.836772 0
M  V30 5841 H 534.932 2.35244 -2.81169 0
M  V30 5842 H 534.58 4.65593 -1.90349 0
M  V30 5843 H 534.28 4.59808 -3.65856 0
M  V30 5844 H 535.804 5.29558 -3.03976 0
M  V30 5845 H 537.218 3.55427 -4.49827 0
M  V30 5846 H 535.615 3.09408 -5.14186 0
M  V30 5847 H 536.685 1.84219 -4.48544 0
M  V30 5848 N 538.028 1.39524 0.732853 0
M  V30 5849 C 539.276 1.36594 1.48951 0
M  V30 5850 C 539.597 -0.0367507 1.94965 0
M  V30 5851 O 538.867 -0.988391 1.69138 0
M  V30 5852 H 537.447 0.502673 0.552566 0
M  V30 5853 H 540.109 1.74411 0.869869 0
M  V30 5854 H 539.205 2.03 2.3706 0
M  V30 5855 N 539.506 -0.963266 1.24736 0
M  V30 5856 C 540.438 -2.06162 1.0015 0
M  V30 5857 C 541.451 -1.62771 -0.0305905 0
M  V30 5858 O 542.64 -1.77296 0.206966 0
M  V30 5859 C 539.74 -3.35333 0.490385 0
M  V30 5860 C 538.913 -4.07609 1.58663 0
M  V30 5861 C 537.972 -5.15052 1.0774 0
M  V30 5862 O 536.998 -5.4098 1.77002 0
M  V30 5863 N 538.2 -5.80436 -0.0858605 0
M  V30 5864 H 540.965 -2.27825 1.94719 0
M  V30 5865 H 538.526 -1.13121 1.15825 0
M  V30 5866 H 540.518 -4.04477 0.134371 0
M  V30 5867 H 539.088 -3.10507 -0.361155 0
M  V30 5868 H 538.308 -3.32681 2.11463 0
M  V30 5869 H 539.596 -4.52656 2.32336 0
M  V30 5870 H 538.994 -5.6178 -0.664806 0
M  V30 5871 H 537.551 -6.50674 -0.382981 0
M  V30 5872 N 540.985 -1.06182 -1.16461 0
M  V30 5873 C 542.213 -0.798583 -1.90867 0
M  V30 5874 C 542.628 0.646921 -1.77371 0
M  V30 5875 O 541.985 1.44279 -1.11758 0
M  V30 5876 C 542.036 -1.18258 -3.4161 0
M  V30 5877 O 541.757 -2.57135 -3.54701 0
M  V30 5878 C 543.258 -0.946917 -4.33069 0
M  V30 5879 H 540.478 -0.289603 -0.605286 0
M  V30 5880 H 543.022 -1.41515 -1.47627 0
M  V30 5881 H 541.177 -0.610562 -3.82558 0
M  V30 5882 H 541.591 -2.72477 -4.4817 0
M  V30 5883 H 543.065 -1.26523 -5.37304 0
M  V30 5884 H 543.542 0.117406 -4.39043 0
M  V30 5885 H 544.148 -1.50326 -3.97847 0
M  V30 5886 N 542.463 1.3308 -0.844243 0
M  V30 5887 C 543.393 2.3161 -0.296493 0
M  V30 5888 C 544.374 1.59215 0.598707 0
M  V30 5889 O 545.559 1.87077 0.521134 0
M  V30 5890 C 542.689 3.43313 0.524762 0
M  V30 5891 C 541.643 4.27115 -0.275106 0
M  V30 5892 C 540.969 5.30483 0.670236 0
M  V30 5893 C 542.269 5.00443 -1.49514 0
M  V30 5894 H 543.963 2.77672 -1.11976 0
M  V30 5895 H 541.509 1.33496 -0.539899 0
M  V30 5896 H 543.462 4.11273 0.918298 0
M  V30 5897 H 542.186 2.95952 1.3813 0
M  V30 5898 H 540.845 3.60787 -0.650267 0
M  V30 5899 H 540.493 4.79379 1.52332 0
M  V30 5900 H 540.193 5.87435 0.139123 0
M  V30 5901 H 541.717 6.01308 1.06117 0
M  V30 5902 H 543.131 5.61141 -1.17447 0
M  V30 5903 H 541.528 5.67071 -1.96343 0
M  V30 5904 H 542.598 4.28906 -2.26202 0
M  V30 5905 N 543.941 0.601185 1.45683 0
M  V30 5906 C 544.888 -0.121396 2.30481 0
M  V30 5907 C 545.858 -0.866232 1.41724 0
M  V30 5908 O 547.043 -0.85324 1.70659 0
M  V30 5909 C 544.183 -1.11704 3.26521 0
M  V30 5910 C 543.296 -0.373741 4.3038 0
M  V30 5911 C 542.431 -1.35854 5.13534 0
M  V30 5912 C 541.47 -0.602689 6.09126 0
M  V30 5913 N 540.607 -1.53645 6.85082 0
M  V30 5914 H 545.447 0.607732 2.91737 0
M  V30 5915 H 542.984 0.311502 1.43764 0
M  V30 5916 H 544.942 -1.70735 3.80664 0
M  V30 5917 H 543.572 -1.81366 2.67032 0
M  V30 5918 H 542.624 0.331962 3.78949 0
M  V30 5919 H 543.936 0.2163 4.98331 0
M  V30 5920 H 543.09 -2.02111 5.72046 0
M  V30 5921 H 541.829 -1.98251 4.45587 0
M  V30 5922 H 540.834 0.0735482 5.49751 0
M  V30 5923 H 542.059 0.0161467 6.79098 0
M  V30 5924 H 540.005 -2.14819 6.1983 0
M  V30 5925 H 539.922 -0.999688 7.49361 0
M  V30 5926 H 541.19 -2.1888 7.48139 0
M  V30 5927 N 545.419 -1.53889 0.339982 0
M  V30 5928 C 546.382 -2.23547 -0.50592 0
M  V30 5929 C 547.382 -1.23445 -1.03044 0
M  V30 5930 O 548.572 -1.47909 -0.920253 0
M  V30 5931 C 545.704 -2.95234 -1.7044 0
M  V30 5932 H 546.897 -2.99722 0.103247 0
M  V30 5933 H 544.45 -1.56033 0.0912804 0
M  V30 5934 H 545.185 -2.23236 -2.35236 0
M  V30 5935 H 544.97 -3.68654 -1.33553 0
M  V30 5936 H 546.46 -3.48258 -2.30447 0
M  V30 5937 N 546.897 -0.0685191 -1.57451 0
M  V30 5938 C 548.122 0.613919 -1.98106 0
M  V30 5939 C 548.547 1.62551 -0.946501 0
M  V30 5940 O 547.905 1.81085 0.0882824 0
M  V30 5941 C 547.953 1.26189 -3.378 0
M  V30 5942 O 547.057 2.37773 -3.36954 0
M  V30 5943 H 546.398 0.158163 -0.644888 0
M  V30 5944 H 548.928 -0.142063 -2.04106 0
M  V30 5945 H 548.938 1.60951 -3.74912 0
M  V30 5946 H 547.613 0.520625 -4.12629 0
M  V30 5947 H 546.19 2.04829 -3.11608 0
M  V30 5948 N 548.375 1.56261 0.205012 0
M  V30 5949 C 549.308 1.88797 1.28183 0
M  V30 5950 C 550.286 0.747018 1.44424 0
M  V30 5951 O 551.47 0.997039 1.59973 0
M  V30 5952 C 548.597 2.10949 2.64987 0
M  V30 5953 C 547.643 3.33649 2.6567 0
M  V30 5954 S 548.476 4.89078 2.18088 0
M  V30 5955 C 549.632 5.14286 3.56736 0
M  V30 5956 H 549.865 2.79837 1.00393 0
M  V30 5957 H 547.398 1.48911 0.408042 0
M  V30 5958 H 549.356 2.24395 3.4374 0
M  V30 5959 H 548.017 1.20678 2.89993 0
M  V30 5960 H 547.21 3.46245 3.66239 0
M  V30 5961 H 546.812 3.19146 1.94992 0
M  V30 5962 H 549.104 5.04198 4.52537 0
M  V30 5963 H 550.047 6.16096 3.49043 0
M  V30 5964 H 550.455 4.41957 3.51189 0
M  V30 5965 N 549.853 -0.472356 1.50355 0
M  V30 5966 C 551.269 -0.806001 1.37753 0
M  V30 5967 C 551.469 -1.968 0.432649 0
M  V30 5968 O 550.525 -2.52189 -0.12519 0
M  V30 5969 C 551.838 -1.11926 2.79093 0
M  V30 5970 C 553.386 -1.22579 2.87999 0
M  V30 5971 C 553.861 -1.57218 4.3017 0
M  V30 5972 N 555.352 -1.64212 4.33115 0
M  V30 5973 C 556.087 -1.92517 5.40116 0
M  V30 5974 N 555.583 -2.1885 6.57325 0
M  V30 5975 N 557.376 -1.94008 5.27558 0
M  V30 5976 H 549.527 0.293451 2.10363 0
M  V30 5977 H 551.79 0.0687672 0.945503 0
M  V30 5978 H 551.496 -0.338504 3.50067 0
M  V30 5979 H 551.37 -2.05577 3.16256 0
M  V30 5980 H 553.757 -1.99722 2.17245 0
M  V30 5981 H 553.838 -0.269107 2.54381 0
M  V30 5982 H 553.482 -0.806154 5.01461 0
M  V30 5983 H 553.412 -2.54034 4.61275 0
M  V30 5984 H 555.903 -1.45906 3.48597 0
M  V30 5985 H 556.216 -2.39718 7.3468 0
M  V30 5986 H 554.561 -2.16245 6.60502 0
M  V30 5987 H 557.752 -1.72931 4.34986 0
M  V30 5988 H 557.925 -2.15731 6.11035 0
M  V30 5989 N 551.331 -1.39911 -0.725443 0
M  V30 5990 C 552.241 -1.41688 -1.8698 0
M  V30 5991 C 553.257 -0.310579 -1.71206 0
M  V30 5992 O 554.433 -0.55359 -1.93642 0
M  V30 5993 C 551.498 -1.26811 -3.22676 0
M  V30 5994 C 550.559 -2.47497 -3.50776 0
M  V30 5995 C 549.792 -2.3332 -4.79997 0
M  V30 5996 O 550.015 -1.34175 -5.54394 0
M  V30 5997 O 548.949 -3.22498 -5.08211 0
M  V30 5998 H 552.775 -2.38171 -1.88436 0
M  V30 5999 H 550.36 -1.21128 -0.874548 0
M  V30 6000 H 552.242 -1.20684 -4.03749 0
M  V30 6001 H 550.917 -0.334289 -3.21969 0
M  V30 6002 H 549.824 -2.59201 -2.69751 0
M  V30 6003 H 551.157 -3.39606 -3.5627 0
M  V30 6004 N 552.809 0.956637 -1.25245 0
M  V30 6005 C 553.739 2.07058 -1.07931 0
M  V30 6006 C 554.72 1.70096 0.0110361 0
M  V30 6007 O 555.905 1.93555 -0.158121 0
M  V30 6008 C 553.035 3.40272 -0.695124 0
M  V30 6009 C 551.989 3.91235 -1.73549 0
M  V30 6010 C 551.315 5.20921 -1.20604 0
M  V30 6011 C 552.615 4.17837 -3.13385 0
M  V30 6012 H 554.309 2.218 -2.01109 0
M  V30 6013 H 551.855 1.06581 -0.968326 0
M  V30 6014 H 553.808 4.1765 -0.560949 0
M  V30 6015 H 552.532 3.25462 0.272355 0
M  V30 6016 H 551.191 3.16025 -1.85807 0
M  V30 6017 H 550.839 5.02479 -0.228846 0
M  V30 6018 H 550.539 5.55987 -1.90136 0
M  V30 6019 H 552.063 6.00897 -1.08421 0
M  V30 6020 H 553.477 4.8588 -3.04292 0
M  V30 6021 H 551.874 4.64154 -3.80369 0
M  V30 6022 H 552.944 3.2419 -3.60595 0
M  V30 6023 N 554.287 1.06798 1.15896 0
M  V30 6024 C 555.535 0.786211 1.8618 0
M  V30 6025 C 555.856 -0.689547 1.82401 0
M  V30 6026 O 555.126 -1.49913 1.26107 0
M  V30 6027 H 553.706 0.287843 0.689315 0
M  V30 6028 H 556.368 1.35055 1.40521 0
M  V30 6029 H 555.464 1.1157 2.91477 0
M  V30 6030 N 555.766 -1.3263 0.851289 0
M  V30 6031 C 556.696 -2.31449 0.308771 0
M  V30 6032 C 557.677 -1.59531 -0.590255 0
M  V30 6033 O 558.862 -1.87351 -0.511205 0
M  V30 6034 C 555.992 -3.43586 -0.506548 0
M  V30 6035 C 554.946 -4.26963 0.297753 0
M  V30 6036 C 554.272 -5.30831 -0.642094 0
M  V30 6037 C 555.572 -4.99643 1.52166 0
M  V30 6038 H 557.266 -2.77074 1.13447 0
M  V30 6039 H 554.812 -1.33207 0.546971 0
M  V30 6040 H 556.765 -4.11754 -0.896474 0
M  V30 6041 H 555.489 -2.96681 -1.36558 0
M  V30 6042 H 554.148 -3.60437 0.669391 0
M  V30 6043 H 553.796 -4.8018 -1.49788 0
M  V30 6044 H 553.496 -5.87501 -0.107968 0
M  V30 6045 H 555.02 -6.01862 -1.02927 0
M  V30 6046 H 556.434 -5.6051 1.20421 0
M  V30 6047 H 554.831 -5.66022 1.99347 0
M  V30 6048 H 555.901 -4.27701 2.28474 0
M  V30 6049 N 557.244 -0.608902 -1.45362 0
M  V30 6050 C 558.174 0.0964526 -2.33301 0
M  V30 6051 C 559.155 0.857444 -1.46908 0
M  V30 6052 O 560.34 0.827735 -1.75676 0
M  V30 6053 C 557.47 1.09354 -3.29635 0
M  V30 6054 C 556.424 0.445676 -4.25673 0
M  V30 6055 C 555.75 1.5511 -5.11708 0
M  V30 6056 C 557.05 -0.633972 -5.18438 0
M  V30 6057 H 558.744 -0.637829 -2.92527 0
M  V30 6058 H 556.29 -0.308178 -1.40664 0
M  V30 6059 H 558.243 1.59556 -3.90025 0
M  V30 6060 H 556.967 1.85843 -2.6857 0
M  V30 6061 H 555.626 -0.0354897 -3.66583 0
M  V30 6062 H 555.274 2.30631 -4.4701 0
M  V30 6063 H 554.974 1.12311 -5.76767 0
M  V30 6064 H 556.498 2.05537 -5.74967 0
M  V30 6065 H 557.912 -0.215974 -5.72893 0
M  V30 6066 H 556.309 -0.983789 -5.91981 0
M  V30 6067 H 557.379 -1.51005 -4.60788 0
M  V30 6068 N 558.722 1.53707 -0.348139 0
M  V30 6069 C 559.971 2.0017 0.247992 0
M  V30 6070 C 560.284 1.23983 1.51286 0
M  V30 6071 O 561.49 1.60946 2.18652 0
M  V30 6072 C 559.946 3.56515 0.492459 0
M  V30 6073 C 559.554 4.41562 -0.756777 0
M  V30 6074 C 561.298 4.11381 1.0472 0
M  V30 6075 C 559.205 5.89426 -0.482856 0
M  V30 6076 H 558.135 0.747806 0.0964452 0
M  V30 6077 H 560.786 1.77532 -0.464179 0
M  V30 6078 H 559.168 3.75236 1.26545 0
M  V30 6079 H 560.342 4.34615 -1.53122 0
M  V30 6080 H 558.657 3.97711 -1.23348 0
M  V30 6081 H 561.254 5.19468 1.26717 0
M  V30 6082 H 561.597 3.64885 2.00411 0
M  V30 6083 H 562.13 3.96389 0.334801 0
M  V30 6084 H 558.869 6.40164 -1.40962 0
M  V30 6085 H 558.389 5.99264 0.253416 0
M  V30 6086 H 560.068 6.4692 -0.101816 0
M  V30 6087 N 560.2 0.0768682 1.57412 0
M  V30 6088 C 561.447 -0.591085 1.93681 0
M  V30 6089 C 561.775 -1.69311 0.957286 0
M  V30 6090 O 561.03 -1.95682 -0.0262428 0
M  V30 6091 C 561.329 -1.20268 3.36557 0
M  V30 6092 C 560.995 -0.226286 4.50332 0
M  V30 6093 C 559.657 0.0423142 4.81181 0
M  V30 6094 C 562.009 0.441415 5.19327 0
M  V30 6095 C 559.337 0.985616 5.78362 0
M  V30 6096 C 561.689 1.37307 6.17519 0
M  V30 6097 C 560.353 1.65009 6.46783 0
M  V30 6098 H 559.623 -0.216293 0.70873 0
M  V30 6099 H 562.27 0.148824 1.90921 0
M  V30 6100 H 560.575 -2.01844 3.35807 0
M  V30 6101 H 562.272 -1.72688 3.61911 0
M  V30 6102 H 558.862 -0.445821 4.26275 0
M  V30 6103 H 563.046 0.247023 4.95685 0
M  V30 6104 H 558.302 1.20743 5.99359 0
M  V30 6105 H 562.476 1.89637 6.70083 0
M  V30 6106 H 560.103 2.38263 7.21897 0
M  V30 6107 N 561.678 -1.56367 -0.196722 0
M  V30 6108 C 562.925 -1.80529 -0.917366 0
M  V30 6109 C 563.253 -0.649817 -1.83324 0
M  V30 6110 O 562.508 0.36451 -1.92275 0
M  V30 6111 C 562.807 -3.10663 -1.767 0
M  V30 6112 C 562.473 -4.3962 -1.00225 0
M  V30 6113 C 561.135 -4.74653 -0.791095 0
M  V30 6114 C 563.487 -5.1913 -0.464035 0
M  V30 6115 C 560.815 -5.86692 -0.0302155 0
M  V30 6116 C 563.167 -6.31964 0.283625 0
M  V30 6117 C 561.831 -6.65581 0.505813 0
M  V30 6118 H 561.101 -0.660602 -0.335688 0
M  V30 6119 H 563.748 -1.90615 -0.183844 0
M  V30 6120 H 562.053 -2.95807 -2.56915 0
M  V30 6121 H 563.75 -3.26563 -2.32718 0
M  V30 6122 H 560.34 -4.12127 -1.17684 0
M  V30 6123 H 564.524 -4.9248 -0.614575 0
M  V30 6124 H 559.78 -6.11211 0.151917 0
M  V30 6125 H 563.954 -6.92791 0.708057 0
M  V30 6126 H 561.581 -7.52239 1.0973 0
M  V30 6127 N 563.156 0.464375 -1.50603 0
M  V30 6128 C 564.086 1.56944 -1.72889 0
M  V30 6129 C 565.067 1.59979 -0.577997 0
M  V30 6130 O 566.252 1.76138 -0.817855 0
M  V30 6131 C 563.382 2.95225 -1.8292 0
M  V30 6132 C 562.336 3.07056 -2.98162 0
M  V30 6133 C 561.662 4.47051 -2.93343 0
M  V30 6134 C 562.962 2.83648 -4.38567 0
M  V30 6135 H 564.656 1.38547 -2.65415 0
M  V30 6136 H 562.202 0.665082 -1.27721 0
M  V30 6137 H 564.155 3.72467 -1.97095 0
M  V30 6138 H 562.879 3.14793 -0.870209 0
M  V30 6139 H 561.538 2.32248 -2.83648 0
M  V30 6140 H 561.186 4.63547 -1.95276 0
M  V30 6141 H 560.886 4.55902 -3.70712 0
M  V30 6142 H 562.41 5.26304 -3.09575 0
M  V30 6143 H 563.824 3.50636 -4.53572 0
M  V30 6144 H 562.221 3.03937 -5.17438 0
M  V30 6145 H 563.291 1.79451 -4.50472 0
M  V30 6146 N 564.634 1.40294 0.718013 0
M  V30 6147 C 565.881 1.3844 1.47786 0
M  V30 6148 C 566.209 -0.0140838 1.94495 0
M  V30 6149 O 565.464 -0.998165 1.68331 0
M  V30 6150 C 565.763 2.31814 2.72024 0
M  V30 6151 C 565.429 3.79117 2.44093 0
M  V30 6152 C 564.091 4.19249 2.36185 0
M  V30 6153 C 566.443 4.72212 2.20602 0
M  V30 6154 C 563.771 5.50516 2.02851 0
M  V30 6155 C 566.123 6.03775 1.88781 0
M  V30 6156 C 564.787 6.42953 1.79354 0
M  V30 6157 H 564.057 0.506588 0.540786 0
M  V30 6158 H 566.704 1.72929 0.822663 0
M  V30 6159 H 565.009 1.90501 3.42369 0
M  V30 6160 H 566.706 2.27664 3.30106 0
M  V30 6161 H 563.296 3.47318 2.51133 0
M  V30 6162 H 567.48 4.42026 2.25669 0
M  V30 6163 H 562.736 5.79776 1.94088 0
M  V30 6164 H 566.91 6.75428 1.69617 0
M  V30 6165 H 564.537 7.44584 1.53291 0
M  V30 6166 N 566.112 -0.949982 1.2575 0
M  V30 6167 C 567.361 -1.68956 1.10168 0
M  V30 6168 C 567.674 -1.92327 -0.356309 0
M  V30 6169 O 568.88 -2.64026 -0.632657 0
M  V30 6170 C 567.336 -3.04196 1.92336 0
M  V30 6171 C 566.944 -2.88603 3.42655 0
M  V30 6172 C 568.688 -3.81904 1.85336 0
M  V30 6173 C 566.595 -4.19262 4.17101 0
M  V30 6174 H 565.525 -0.633645 0.408668 0
M  V30 6175 H 568.176 -1.05719 1.49986 0
M  V30 6176 H 566.558 -3.68363 1.45344 0
M  V30 6177 H 567.732 -2.3334 3.97353 0
M  V30 6178 H 566.047 -2.24345 3.50796 0
M  V30 6179 H 568.644 -4.78688 2.38248 0
M  V30 6180 H 568.987 -4.08099 0.822226 0
M  V30 6181 H 569.52 -3.24495 2.30104 0
M  V30 6182 H 566.259 -3.98254 5.20648 0
M  V30 6183 H 565.779 -4.74273 3.67186 0
M  V30 6184 H 567.458 -4.87775 4.25071 0
M  V30 6185 N 567.59 -1.07411 -1.15328 0
M  V30 6186 C 568.838 -0.796073 -1.85761 0
M  V30 6187 C 569.159 0.679864 -1.82764 0
M  V30 6188 O 568.429 1.49242 -1.269 0
M  V30 6189 H 567.009 -0.291495 -0.687779 0
M  V30 6190 H 569.671 -1.35799 -1.39802 0
M  V30 6191 H 568.767 -1.13114 -2.90881 0
M  V30 6192 N 569.068 1.32177 -0.85831 0
M  V30 6193 C 570.314 1.97417 -0.46417 0
M  V30 6194 C 570.647 1.67746 0.978514 0
M  V30 6195 O 569.922 0.967654 1.68721 0
M  V30 6196 C 570.205 3.53069 -0.708094 0
M  V30 6197 C 570.058 3.92357 -2.19946 0
M  V30 6198 C 571.377 4.39783 -0.166881 0
M  V30 6199 H 568.496 0.717097 -0.17012 0
M  V30 6200 H 571.138 1.56499 -1.07741 0
M  V30 6201 H 569.288 3.88054 -0.186128 0
M  V30 6202 H 570.96 3.67533 -2.78779 0
M  V30 6203 H 569.203 3.41384 -2.67656 0
M  V30 6204 H 569.874 5.00841 -2.32082 0
M  V30 6205 H 572.35 4.11556 -0.613285 0
M  V30 6206 H 571.226 5.47671 -0.367093 0
M  V30 6207 H 571.487 4.32196 0.930559 0
M  V30 6208 N 570.547 0.616602 1.45037 0
M  V30 6209 C 571.796 0.112861 2.01384 0
M  V30 6210 C 572.109 -1.26758 1.48969 0
M  V30 6211 O 573.315 -1.86454 1.9735 0
M  V30 6212 C 571.771 0.151057 3.59583 0
M  V30 6213 C 571.379 1.53191 4.20995 0
M  V30 6214 C 573.123 -0.296974 4.2346 0
M  V30 6215 C 571.03 1.526 5.71373 0
M  V30 6216 H 569.96 0.0384254 0.75302 0
M  V30 6217 H 572.611 0.773262 1.66412 0
M  V30 6218 H 570.993 -0.57617 3.91786 0
M  V30 6219 H 572.167 2.28156 4.00352 0
M  V30 6220 H 570.482 1.92279 3.69348 0
M  V30 6221 H 573.079 -0.320712 5.33737 0
M  V30 6222 H 573.422 -1.32145 3.9477 0
M  V30 6223 H 573.955 0.377279 3.96007 0
M  V30 6224 H 570.694 2.52837 6.04776 0
M  V30 6225 H 570.214 0.819064 5.94181 0
M  V30 6226 H 571.893 1.25357 6.3474 0
M  V30 6227 N 572.025 -1.5352 0.356285 0
M  V30 6228 C 572.955 -2.28372 -0.486661 0
M  V30 6229 C 573.936 -1.30432 -1.09185 0
M  V30 6230 O 575.121 -1.59291 -1.11085 0
M  V30 6231 C 572.251 -3.06604 -1.63129 0
M  V30 6232 C 571.205 -4.12154 -1.15381 0
M  V30 6233 C 570.531 -4.78415 -2.38796 0
M  V30 6234 C 571.831 -5.21724 -0.245179 0
M  V30 6235 H 573.525 -2.99083 0.137797 0
M  V30 6236 H 571.071 -1.43841 0.0677134 0
M  V30 6237 H 573.024 -3.57712 -2.22755 0
M  V30 6238 H 571.748 -2.33568 -2.28284 0
M  V30 6239 H 570.407 -3.61978 -0.580294 0
M  V30 6240 H 570.055 -4.01959 -3.02387 0
M  V30 6241 H 569.755 -5.49734 -2.07524 0
M  V30 6242 H 571.279 -5.32313 -2.99125 0
M  V30 6243 H 572.693 -5.68391 -0.748646 0
M  V30 6244 H 571.09 -6.00095 -0.0237608 0
M  V30 6245 H 572.16 -4.79596 0.715229 0
M  V30 6246 N 573.503 -0.0852151 -1.57369 0
M  V30 6247 C 574.75 0.580806 -1.93992 0
M  V30 6248 C 575.078 1.68801 -0.966252 0
M  V30 6249 O 574.333 1.95694 0.0158649 0
M  V30 6250 C 574.632 1.18482 -3.3719 0
M  V30 6251 C 574.298 0.2024 -4.50446 0
M  V30 6252 C 572.96 -0.0678318 -4.81152 0
M  V30 6253 C 575.312 -0.46895 -5.19086 0
M  V30 6254 C 572.64 -1.01627 -5.77831 0
M  V30 6255 C 574.992 -1.4058 -6.16782 0
M  V30 6256 C 573.656 -1.68436 -6.45899 0
M  V30 6257 H 572.926 0.212532 -0.709867 0
M  V30 6258 H 575.573 -0.158947 -1.90839 0
M  V30 6259 H 573.878 2.0006 -3.36873 0
M  V30 6260 H 575.575 1.70767 -3.62822 0
M  V30 6261 H 572.165 0.423208 -4.26505 0
M  V30 6262 H 576.349 -0.273307 -4.95547 0
M  V30 6263 H 571.605 -1.2392 -5.9871 0
M  V30 6264 H 575.779 -1.93188 -6.69068 0
M  V30 6265 H 573.406 -2.42088 -7.20623 0
M  V30 6266 N 574.981 1.5647 0.188427 0
M  V30 6267 C 576.206 1.85486 0.927891 0
M  V30 6268 C 576.631 0.669575 1.75779 0
M  V30 6269 O 575.989 -0.381573 1.77239 0
M  V30 6270 C 576.037 3.12784 1.7944 0
M  V30 6271 O 575.141 2.93805 2.894 0
M  V30 6272 H 574.482 0.610585 0.260925 0
M  V30 6273 H 577.012 2.037 0.191729 0
M  V30 6274 H 577.022 3.43749 2.19774 0
M  V30 6275 H 575.697 3.98671 1.18468 0
M  V30 6276 H 574.274 2.74153 2.52774 0
M  V30 6277 N 576.459 -0.456382 1.50847 0
M  V30 6278 C 577.684 -1.2349 1.66628 0
M  V30 6279 C 578.109 -1.84715 0.355254 0
M  V30 6280 O 577.467 -1.67961 -0.682559 0
M  V30 6281 C 577.515 -2.30865 2.77009 0
M  V30 6282 O 576.619 -3.35882 2.39285 0
M  V30 6283 H 575.96 -0.36266 0.556214 0
M  V30 6284 H 578.49 -0.541374 1.97308 0
M  V30 6285 H 578.5 -2.75949 3.00526 0
M  V30 6286 H 577.175 -1.85677 3.72152 0
M  V30 6287 H 575.752 -2.96406 2.26269 0
M  V30 6288 N 577.937 -1.40673 -0.710563 0
M  V30 6289 C 578.9 -1.4108 -1.80635 0
M  V30 6290 C 579.9 -0.303783 -1.57904 0
M  V30 6291 O 581.09 -0.562937 -1.64853 0
M  V30 6292 C 578.222 -1.20748 -3.18799 0
M  V30 6293 H 579.415 -2.38612 -1.81671 0
M  V30 6294 H 576.968 -1.26595 -0.916704 0
M  V30 6295 H 577.703 -0.239964 -3.23411 0
M  V30 6296 H 577.488 -2.00941 -3.36698 0
M  V30 6297 H 578.978 -1.23833 -3.98817 0
M  V30 6298 N 579.415 0.9433 -1.26252 0
M  V30 6299 C 580.661 1.69175 -1.11837 0
M  V30 6300 C 580.994 1.91238 0.337891 0
M  V30 6301 O 580.269 1.49152 1.24836 0
M  V30 6302 C 580.552 3.06783 -1.88563 0
M  V30 6303 C 580.405 2.9206 -3.42083 0
M  V30 6304 C 581.724 4.06865 -1.67776 0
M  V30 6305 H 578.843 0.61399 -0.407658 0
M  V30 6306 H 581.485 1.09572 -1.55222 0
M  V30 6307 H 579.635 3.57663 -1.51689 0
M  V30 6308 H 581.307 2.48419 -3.88698 0
M  V30 6309 H 579.55 2.27731 -3.69217 0
M  V30 6310 H 580.221 3.89651 -3.90994 0
M  V30 6311 H 582.697 3.64939 -1.99897 0
M  V30 6312 H 581.573 5.01168 -2.23879 0
M  V30 6313 H 581.834 4.37705 -0.621816 0
M  V30 6314 N 580.893 1.08022 1.14757 0
M  V30 6315 C 582.123 0.827646 1.89298 0
M  V30 6316 C 582.531 -0.623506 1.78631 0
M  V30 6317 O 581.874 -1.43991 1.14071 0
M  V30 6318 C 581.936 1.16553 3.40082 0
M  V30 6319 C 581.6 2.61866 3.74533 0
M  V30 6320 C 582.597 3.60116 3.74984 0
M  V30 6321 C 580.282 2.97619 4.04633 0
M  V30 6322 C 582.276 4.92151 4.05051 0
M  V30 6323 C 579.963 4.2985 4.34364 0
M  V30 6324 C 580.961 5.26926 4.34555 0
M  V30 6325 O 580.649 6.5678 4.63568 0
M  V30 6326 H 580.381 0.298396 0.606577 0
M  V30 6327 H 582.935 1.44187 1.46285 0
M  V30 6328 H 581.165 0.494296 3.83528 0
M  V30 6329 H 582.854 0.894407 3.95923 0
M  V30 6330 H 583.62 3.33837 3.51821 0
M  V30 6331 H 579.499 2.22702 4.03639 0
M  V30 6332 H 583.043 5.67915 4.05115 0
M  V30 6333 H 578.94 4.55879 4.56995 0
M  V30 6334 H 579.708 6.62035 4.81303 0
M  V30 6335 N 582.371 -1.3172 0.865308 0
M  V30 6336 C 583.618 -1.96876 0.473931 0
M  V30 6337 C 583.946 -1.68425 -0.972786 0
M  V30 6338 O 583.201 -0.970742 -1.69927 0
M  V30 6339 C 583.5 -3.5102 0.672283 0
M  V30 6340 C 583.166 -3.9948 2.09108 0
M  V30 6341 C 581.828 -4.12425 2.4791 0
M  V30 6342 C 584.18 -4.2503 3.0166 0
M  V30 6343 C 581.508 -4.48267 3.78515 0
M  V30 6344 C 583.86 -4.62335 4.31774 0
M  V30 6345 C 582.524 -4.73486 4.70497 0
M  V30 6346 H 581.794 -0.72042 0.173424 0
M  V30 6347 H 584.441 -1.56937 1.0974 0
M  V30 6348 H 582.746 -3.91785 -0.034356 0
M  V30 6349 H 584.443 -3.99475 0.349353 0
M  V30 6350 H 581.033 -3.89898 1.77981 0
M  V30 6351 H 585.217 -4.14529 2.7291 0
M  V30 6352 H 580.473 -4.55097 4.08285 0
M  V30 6353 H 584.647 -4.81058 5.03543 0
M  V30 6354 H 582.274 -5.01016 5.71741 0
M  V30 6355 N 583.85 -0.624285 -1.44708 0
M  V30 6356 C 584.812 0.0749638 -2.29077 0
M  V30 6357 C 585.812 0.778965 -1.40673 0
M  V30 6358 O 587.003 0.624591 -1.62618 0
M  V30 6359 C 584.135 1.11663 -3.22094 0
M  V30 6360 H 585.327 -0.667013 -2.92388 0
M  V30 6361 H 582.88 -0.384098 -1.51507 0
M  V30 6362 H 583.615 1.88881 -2.63618 0
M  V30 6363 H 583.401 0.61583 -3.87234 0
M  V30 6364 H 584.891 1.60585 -3.8549 0
M  V30 6365 N 585.328 1.53329 -0.364422 0
M  V30 6366 C 586.238 2.29414 0.490552 0
M  V30 6367 C 587.254 1.35335 1.09363 0
M  V30 6368 O 588.43 1.68391 1.10483 0
M  V30 6369 C 585.495 3.06772 1.61529 0
M  V30 6370 C 584.556 4.16516 1.03986 0
M  V30 6371 C 583.789 4.90176 2.111 0
M  V30 6372 O 584.012 4.63687 3.32191 0
M  V30 6373 O 582.946 5.76134 1.74222 0
M  V30 6374 H 586.772 3.03428 -0.12856 0
M  V30 6375 H 584.357 1.48843 -0.128837 0
M  V30 6376 H 586.239 3.55082 2.26924 0
M  V30 6377 H 584.914 2.35596 2.21983 0
M  V30 6378 H 583.821 3.7246 0.349856 0
M  V30 6379 H 585.154 4.89855 0.4799 0
M  V30 6380 N 586.806 0.0935595 1.57322 0
M  V30 6381 C 588.052 -0.571355 1.94585 0
M  V30 6382 C 588.385 -1.67929 0.975366 0
M  V30 6383 O 587.66 -1.94498 0.00816206 0
M  V30 6384 C 587.943 -1.12797 3.41978 0
M  V30 6385 C 587.796 -0.0251881 4.49793 0
M  V30 6386 C 589.115 -2.02682 3.90651 0
M  V30 6387 H 586.234 -0.206223 0.70756 0
M  V30 6388 H 588.876 0.163956 1.89291 0
M  V30 6389 H 587.026 -1.75461 3.4662 0
M  V30 6390 H 588.698 0.608979 4.57263 0
M  V30 6391 H 586.941 0.641399 4.29032 0
M  V30 6392 H 587.612 -0.455433 5.50118 0
M  V30 6393 H 590.088 -1.49925 3.88152 0
M  V30 6394 H 588.964 -2.38555 4.94351 0
M  V30 6395 H 589.225 -2.94362 3.29854 0
M  V30 6396 N 588.284 -1.56567 -0.180126 0
M  V30 6397 C 589.561 -1.7235 -0.924931 0
M  V30 6398 C 589.941 -0.652523 -2.00762 0
M  V30 6399 O 589.289 0.334115 -2.26044 0
M  V30 6400 C 589.499 -3.1523 -1.49771 0
M  V30 6401 C 590.847 -3.75921 -1.97405 0
M  V30 6402 O 591.871 -3.18452 -1.59583 0
M  V30 6403 O 590.73 -4.7681 -2.67048 0
M  V30 6404 H 587.824 -0.703502 -0.434758 0
M  V30 6405 H 590.37 -1.6886 -0.168647 0
M  V30 6406 H 589.142 -3.84656 -0.718027 0
M  V30 6407 H 588.765 -3.23009 -2.31842 0
M  V30 6408 N 589.762 0.448376 -1.51087 0
M  V30 6409 C 590.672 1.56882 -1.74428 0
M  V30 6410 C 591.688 1.62268 -0.62809 0
M  V30 6411 O 592.864 1.79716 -0.909075 0
M  V30 6412 C 589.929 2.92947 -1.85426 0
M  V30 6413 C 588.99 2.97766 -3.09247 0
M  V30 6414 C 588.223 4.27341 -3.19711 0
M  V30 6415 O 588.446 5.19112 -2.36387 0
M  V30 6416 O 587.38 4.38219 -4.12611 0
M  V30 6417 H 591.206 1.40104 -2.69452 0
M  V30 6418 H 588.791 0.630247 -1.35456 0
M  V30 6419 H 590.673 3.73719 -1.94709 0
M  V30 6420 H 589.348 3.09876 -0.935887 0
M  V30 6421 H 588.255 2.15989 -3.0545 0
M  V30 6422 H 589.588 2.8578 -4.00738 0
M  V30 6423 N 591.24 1.41047 0.703093 0
M  V30 6424 C 592.651 1.35657 1.28274 0
M  V30 6425 C 593.002 0.0360309 1.96167 0
M  V30 6426 O 592.127 -0.865833 1.98324 0
M  V30 6427 C 592.722 2.45707 2.33267 0
M  V30 6428 C 591.281 2.43738 2.86825 0
M  V30 6429 C 590.428 2.25941 1.60767 0
M  V30 6430 H 593.379 1.50672 0.49836 0
M  V30 6431 H 593.4 2.14333 3.14391 0
M  V30 6432 H 592.912 3.41805 1.83824 0
M  V30 6433 H 591.013 1.51375 3.40465 0
M  V30 6434 H 591.126 3.39779 3.37768 0
M  V30 6435 H 589.49 1.73681 1.86298 0
M  V30 6436 H 590.273 3.24054 1.1333 0
M  V30 6437 N 592.718 -0.936591 1.26751 0
M  V30 6438 C 593.628 -2.06949 1.10496 0
M  V30 6439 C 594.644 -1.7396 0.037271 0
M  V30 6440 O 595.82 -1.99941 0.241944 0
M  V30 6441 C 592.885 -3.38612 0.744491 0
M  V30 6442 C 591.946 -3.85355 1.89209 0
M  V30 6443 C 591.179 -5.10735 1.54873 0
M  V30 6444 O 591.402 -5.68602 0.452546 0
M  V30 6445 O 590.336 -5.52632 2.38499 0
M  V30 6446 H 594.162 -2.23571 2.05547 0
M  V30 6447 H 591.747 -1.05428 1.05855 0
M  V30 6448 H 593.629 -4.17711 0.556396 0
M  V30 6449 H 592.304 -3.23218 -0.176582 0
M  V30 6450 H 591.211 -3.07182 2.13518 0
M  V30 6451 H 592.544 -4.05277 2.79305 0
M  V30 6452 N 594.196 -1.08629 -1.14182 0
M  V30 6453 C 595.421 -0.83902 -1.89671 0
M  V30 6454 C 595.846 0.603332 -1.78161 0
M  V30 6455 O 595.204 1.42301 -1.12339 0
M  V30 6456 C 595.252 -1.26854 -3.37551 0
M  V30 6457 O 594.356 -0.42188 -4.10236 0
M  V30 6458 H 593.697 -0.304545 -0.590041 0
M  V30 6459 H 596.227 -1.4483 -1.44518 0
M  V30 6460 H 596.237 -1.25038 -3.88368 0
M  V30 6461 H 594.912 -2.31901 -3.45246 0
M  V30 6462 H 593.489 -0.503654 -3.69483 0
M  V30 6463 N 595.674 1.31259 -0.872281 0
M  V30 6464 C 596.624 2.26 -0.301295 0
M  V30 6465 C 597.608 1.50729 0.562991 0
M  V30 6466 O 598.8 1.72198 0.40949 0
M  V30 6467 C 595.929 3.39724 0.494227 0
M  V30 6468 C 595.015 4.22363 -0.383432 0
M  V30 6469 N 595.406 4.83724 -1.47799 0
M  V30 6470 C 593.704 4.45652 -0.176278 0
M  V30 6471 C 594.405 5.45523 -2.01939 0
M  V30 6472 N 593.381 5.27428 -1.31608 0
M  V30 6473 H 597.183 2.70981 -1.13782 0
M  V30 6474 H 594.697 1.45552 -0.720294 0
M  V30 6475 H 596.694 4.06626 0.919828 0
M  V30 6476 H 595.354 2.96286 1.32834 0
M  V30 6477 H 596.365 4.83313 -1.8609 0
M  V30 6478 H 593.042 4.12845 0.621698 0
M  V30 6479 H 594.432 6.04268 -2.93786 0
M  V30 6480 N 597.152 0.631951 1.44375 0
M  V30 6481 C 598.399 0.136767 2.02038 0
M  V30 6482 C 598.727 -1.24168 1.49709 0
M  V30 6483 O 597.982 -1.83809 0.671763 0
M  V30 6484 C 598.281 0.0735861 3.57324 0
M  V30 6485 C 597.947 1.39092 4.28911 0
M  V30 6486 C 596.609 1.75171 4.48184 0
M  V30 6487 C 598.961 2.26042 4.69632 0
M  V30 6488 C 596.289 2.97907 5.05439 0
M  V30 6489 C 598.641 3.4805 5.28246 0
M  V30 6490 C 597.305 3.84351 5.45738 0
M  V30 6491 H 596.575 0.0500466 0.739308 0
M  V30 6492 H 599.222 0.818429 1.7313 0
M  V30 6493 H 597.527 -0.691449 3.8565 0
M  V30 6494 H 599.224 -0.326091 3.99672 0
M  V30 6495 H 595.814 1.10015 4.1424 0
M  V30 6496 H 599.998 1.99463 4.54454 0
M  V30 6497 H 595.254 3.26108 5.17169 0
M  V30 6498 H 599.428 4.15658 5.5875 0
M  V30 6499 H 597.055 4.79538 5.8987 0
M  V30 6500 N 598.631 -1.53133 0.372548 0
M  V30 6501 C 599.856 -2.0625 -0.218098 0
M  V30 6502 C 600.281 -1.24375 -1.41111 0
M  V30 6503 O 599.639 -0.264554 -1.79359 0
M  V30 6504 C 599.687 -3.55858 -0.582876 0
M  V30 6505 O 598.791 -3.76667 -1.67917 0
M  V30 6506 H 598.132 -0.663317 -0.030104 0
M  V30 6507 H 600.662 -1.97477 0.535169 0
M  V30 6508 H 600.672 -3.99007 -0.851925 0
M  V30 6509 H 599.347 -4.14892 0.289428 0
M  V30 6510 H 597.924 -3.45413 -1.40513 0
M  V30 6511 N 600.109 -0.101901 -1.5727 0
M  V30 6512 C 601.334 0.571759 -1.99363 0
M  V30 6513 C 601.759 1.60507 -0.980768 0
M  V30 6514 O 601.117 1.81231 0.0498517 0
M  V30 6515 C 601.165 1.18996 -3.404 0
M  V30 6516 O 600.269 2.30572 -3.41922 0
M  V30 6517 H 599.61 0.144449 -0.648098 0
M  V30 6518 H 602.14 -0.185325 -2.03759 0
M  V30 6519 H 602.15 1.52962 -3.78241 0
M  V30 6520 H 600.825 0.432984 -4.1364 0
M  V30 6521 H 599.402 1.98173 -3.15883 0
M  V30 6522 N 601.587 1.56661 0.17182 0
M  V30 6523 C 602.836 1.81158 0.886831 0
M  V30 6524 C 603.149 0.679072 1.83434 0
M  V30 6525 O 604.355 0.808964 2.59168 0
M  V30 6526 C 602.811 3.20999 1.6275 0
M  V30 6527 C 602.419 4.42117 0.723652 0
M  V30 6528 C 604.163 3.5479 2.33076 0
M  V30 6529 C 602.07 5.7298 1.46452 0
M  V30 6530 H 601 0.675543 0.334899 0
M  V30 6531 H 603.651 1.82967 0.139765 0
M  V30 6532 H 602.033 3.13506 2.4193 0
M  V30 6533 H 603.207 4.60789 -0.0311485 0
M  V30 6534 H 601.522 4.16197 0.130063 0
M  V30 6535 H 604.119 4.49806 2.89099 0
M  V30 6536 H 604.462 2.79646 3.08389 0
M  V30 6537 H 604.995 3.63834 1.6084 0
M  V30 6538 H 601.734 6.51152 0.753729 0
M  V30 6539 H 601.254 5.58285 2.19266 0
M  V30 6540 H 602.933 6.14916 2.01214 0
M  V30 6541 N 603.065 -0.440357 1.51323 0
M  V30 6542 C 604.476 -1.02032 1.56353 0
M  V30 6543 C 604.827 -1.92382 0.385197 0
M  V30 6544 O 603.952 -2.10583 -0.498373 0
M  V30 6545 C 604.547 -1.85723 2.83359 0
M  V30 6546 C 603.106 -2.38774 2.90971 0
M  V30 6547 C 602.253 -1.17908 2.50984 0
M  V30 6548 H 605.204 -0.221744 1.57143 0
M  V30 6549 H 605.225 -2.71141 2.66951 0
M  V30 6550 H 604.737 -1.19939 3.69102 0
M  V30 6551 H 602.838 -3.08021 2.09651 0
M  V30 6552 H 602.951 -2.71778 3.94555 0
M  V30 6553 H 601.315 -1.52347 2.04114 0
M  V30 6554 H 602.098 -0.537393 3.39068 0
M  V30 6555 N 604.543 -1.41418 -0.695603 0
M  V30 6556 C 605.82 -1.31264 -1.45014 0
M  V30 6557 C 606.2 0.0597994 -2.11015 0
M  V30 6558 O 605.548 1.07403 -2.01685 0
M  V30 6559 C 605.758 -2.466 -2.4696 0
M  V30 6560 C 607.106 -2.87763 -3.12214 0
M  V30 6561 O 608.13 -2.46339 -2.57285 0
M  V30 6562 O 606.989 -3.59395 -4.11701 0
M  V30 6563 H 604.083 -0.516576 -0.645816 0
M  V30 6564 H 606.629 -1.53382 -0.726084 0
M  V30 6565 H 605.401 -3.38183 -1.96845 0
M  V30 6566 H 605.024 -2.26358 -3.26876 0
M  V30 6567 N 606.021 0.929856 -1.27246 0
M  V30 6568 C 607.269 1.674 -1.13233 0
M  V30 6569 C 607.59 1.92311 0.322744 0
M  V30 6570 O 606.86 1.52784 1.22612 0
M  V30 6571 H 605.44 0.620411 -0.416052 0
M  V30 6572 H 608.102 1.11663 -1.59741 0
M  V30 6573 H 607.198 2.64308 -1.65975 0
M  V30 6574 N 607.499 1.09233 1.13605 0
M  V30 6575 C 608.746 0.827159 1.84836 0
M  V30 6576 C 609.074 -0.647199 1.83416 0
M  V30 6577 O 608.329 -1.49228 1.26608 0
M  V30 6578 C 608.628 1.305 3.32723 0
M  V30 6579 C 608.294 2.78864 3.54325 0
M  V30 6580 C 606.956 3.19382 3.59928 0
M  V30 6581 C 609.308 3.74532 3.62457 0
M  V30 6582 C 606.636 4.54346 3.71196 0
M  V30 6583 C 608.988 5.09283 3.75252 0
M  V30 6584 C 607.652 5.49394 3.79108 0
M  V30 6585 H 606.922 0.302679 0.676363 0
M  V30 6586 H 609.569 1.36676 1.34134 0
M  V30 6587 H 607.874 0.68517 3.85762 0
M  V30 6588 H 609.571 1.07648 3.86281 0
M  V30 6589 H 606.161 2.46507 3.50617 0
M  V30 6590 H 610.345 3.44343 3.57409 0
M  V30 6591 H 605.601 4.84864 3.72447 0
M  V30 6592 H 609.775 5.83269 3.80487 0
M  V30 6593 H 607.402 6.5397 3.87591 0
M  V30 6594 N 608.977 -1.30795 0.87923 0
M  V30 6595 C 610.223 -1.97035 0.50487 0
M  V30 6596 C 610.578 -1.68182 -0.934484 0
M  V30 6597 O 609.871 -0.972953 -1.65058 0
M  V30 6598 C 610.065 -3.50287 0.709476 0
M  V30 6599 C 609.894 -3.94035 2.16717 0
M  V30 6600 C 608.664 -4.1992 2.81061 0
M  V30 6601 C 610.862 -4.07288 3.1404 0
M  V30 6602 N 608.844 -4.50088 4.17486 0
M  V30 6603 C 610.215 -4.41273 4.35521 0
M  V30 6604 C 612.27 -3.89696 3.09906 0
M  V30 6605 C 610.973 -4.59501 5.534 0
M  V30 6606 C 612.999 -4.09122 4.27052 0
M  V30 6607 C 612.361 -4.43447 5.47297 0
M  V30 6608 H 608.46 -0.746181 0.233962 0
M  V30 6609 H 611.044 -1.5814 1.13577 0
M  V30 6610 H 609.215 -3.8825 0.108108 0
M  V30 6611 H 610.947 -4.03567 0.302585 0
M  V30 6612 H 607.702 -4.12906 2.3196 0
M  V30 6613 H 608.126 -4.69316 4.87926 0
M  V30 6614 H 612.768 -3.62239 2.18043 0
M  V30 6615 H 610.486 -4.85802 6.45773 0
M  V30 6616 H 614.072 -3.96985 4.25316 0
M  V30 6617 H 612.952 -4.58171 6.36435 0
M  V30 6618 N 610.455 -0.639598 -1.44038 0
M  V30 6619 C 611.701 -0.156248 -2.02799 0
M  V30 6620 C 612.056 1.21145 -1.49471 0
M  V30 6621 O 611.349 1.79406 -0.672608 0
M  V30 6622 C 611.543 -0.0925348 -3.5728 0
M  V30 6623 C 611.372 -1.45252 -4.25596 0
M  V30 6624 C 610.142 -2.04145 -4.62226 0
M  V30 6625 C 612.34 -2.38812 -4.55492 0
M  V30 6626 N 610.322 -3.3329 -5.15549 0
M  V30 6627 C 611.693 -3.52578 -5.09989 0
M  V30 6628 C 613.748 -2.37785 -4.3745 0
M  V30 6629 C 612.451 -4.65525 -5.48342 0
M  V30 6630 C 614.477 -3.49802 -4.76857 0
M  V30 6631 C 613.839 -4.62292 -5.31475 0
M  V30 6632 H 609.938 -0.101292 -0.775412 0
M  V30 6633 H 612.522 -0.844938 -1.75411 0
M  V30 6634 H 610.693 0.565459 -3.84262 0
M  V30 6635 H 612.425 0.400426 -4.02714 0
M  V30 6636 H 609.18 -1.56999 -4.4682 0
M  V30 6637 H 609.604 -3.9934 -5.46678 0
M  V30 6638 H 614.246 -1.52061 -3.94509 0
M  V30 6639 H 611.964 -5.51951 -5.90233 0
M  V30 6640 H 615.55 -3.50193 -4.64603 0
M  V30 6641 H 614.43 -5.47536 -5.61403 0
M  V30 6642 N 611.933 1.52934 -0.380664 0
M  V30 6643 C 612.896 2.24809 0.446473 0
M  V30 6644 C 613.896 1.26133 0.997347 0
M  V30 6645 O 615.086 1.50297 0.880714 0
M  V30 6646 C 612.218 2.99649 1.62553 0
M  V30 6647 H 613.411 2.99343 -0.182677 0
M  V30 6648 H 610.964 1.55736 -0.132618 0
M  V30 6649 H 611.699 2.29395 2.29235 0
M  V30 6650 H 611.484 3.72066 1.23732 0
M  V30 6651 H 612.974 3.54246 2.21133 0
M  V30 6652 N 613.412 0.11024 1.57214 0
M  V30 6653 C 614.658 -0.550684 1.9518 0
M  V30 6654 C 614.991 -1.66885 0.993122 0
M  V30 6655 O 614.266 -1.94479 0.0287907 0
M  V30 6656 C 614.549 -1.09163 3.43155 0
M  V30 6657 C 614.402 0.0225198 4.49794 0
M  V30 6658 C 615.721 -1.98527 3.92778 0
M  V30 6659 H 612.84 -0.198706 0.709708 0
M  V30 6660 H 615.482 0.184024 1.89107 0
M  V30 6661 H 613.632 -1.71775 3.48462 0
M  V30 6662 H 615.304 0.657443 4.56591 0
M  V30 6663 H 613.547 0.686868 4.28328 0
M  V30 6664 H 614.218 -0.39706 5.5057 0
M  V30 6665 H 616.694 -1.458 3.8972 0
M  V30 6666 H 615.57 -2.33298 4.96853 0
M  V30 6667 H 615.831 -2.90846 3.32958 0
M  V30 6668 N 614.89 -1.56749 -0.16351 0
M  V30 6669 C 616.136 -1.82704 -0.880168 0
M  V30 6670 C 616.469 -0.689311 -1.81555 0
M  V30 6671 O 615.744 0.308224 -1.92042 0
M  V30 6672 C 616.027 -3.19084 -1.66905 0
M  V30 6673 C 615.88 -4.43397 -0.756269 0
M  V30 6674 C 617.199 -3.52493 -2.63509 0
M  V30 6675 H 614.318 -0.664608 -0.318535 0
M  V30 6676 H 616.96 -1.89438 -0.146036 0
M  V30 6677 H 615.11 -3.13475 -2.2949 0
M  V30 6678 H 616.782 -4.61079 -0.14269 0
M  V30 6679 H 615.025 -4.33752 -0.0647944 0
M  V30 6680 H 615.696 -5.3539 -1.34393 0
M  V30 6681 H 618.172 -3.58606 -2.11047 0
M  V30 6682 H 617.048 -4.48979 -3.15767 0
M  V30 6683 H 617.309 -2.77597 -3.44082 0
M  V30 6684 N 616.368 0.432326 -1.51554 0
M  V30 6685 C 617.596 1.20364 -1.68286 0
M  V30 6686 C 618.011 1.84888 -0.38233 0
M  V30 6687 O 617.368 1.70924 0.639627 0
M  V30 6688 C 617.419 2.28398 -2.80208 0
M  V30 6689 O 617.14 1.66512 -4.05223 0
M  V30 6690 C 618.641 3.18584 -3.08251 0
M  V30 6691 H 615.861 0.36259 -0.564596 0
M  V30 6692 H 618.405 0.511647 -1.97996 0
M  V30 6693 H 616.56 2.93305 -2.53083 0
M  V30 6694 H 616.974 2.37951 -4.67418 0
M  V30 6695 H 618.448 3.90511 -3.90135 0
M  V30 6696 H 618.925 3.79628 -2.2086 0
M  V30 6697 H 619.531 2.59372 -3.37055 0
M  V30 6698 N 617.846 1.41785 0.688094 0
M  V30 6699 C 618.779 1.38643 1.81255 0
M  V30 6700 C 619.757 0.252583 1.60626 0
M  V30 6701 O 620.941 0.440691 1.83276 0
M  V30 6702 C 618.068 1.16449 3.18053 0
M  V30 6703 C 617.114 2.32651 3.57457 0
M  V30 6704 S 617.947 3.95152 3.61407 0
M  V30 6705 C 619.103 3.75275 5.00919 0
M  V30 6706 H 619.336 2.33799 1.83644 0
M  V30 6707 H 616.869 1.28398 0.857513 0
M  V30 6708 H 618.827 1.0433 3.97021 0
M  V30 6709 H 617.488 0.229002 3.13264 0
M  V30 6710 H 616.681 2.12835 4.56856 0
M  V30 6711 H 616.283 2.41215 2.85817 0
M  V30 6712 H 618.575 3.35443 5.88629 0
M  V30 6713 H 619.518 4.74302 5.25778 0
M  V30 6714 H 619.926 3.08401 4.7281 0
M  V30 6715 N 619.324 -0.923095 1.27737 0
M  V30 6716 C 620.552 -1.70525 1.17171 0
M  V30 6717 C 620.967 -1.86847 -0.270881 0
M  V30 6718 O 620.324 -1.38879 -1.18401 0
M  V30 6719 C 620.375 -3.10242 1.85559 0
M  V30 6720 O 620.096 -2.94683 3.24182 0
M  V30 6721 C 621.597 -4.04586 1.81176 0
M  V30 6722 H 618.817 -0.533347 0.407163 0
M  V30 6723 H 621.361 -1.15599 1.68692 0
M  V30 6724 H 619.516 -3.62014 1.3793 0
M  V30 6725 H 619.93 -3.83045 3.58297 0
M  V30 6726 H 621.404 -5.00119 2.33633 0
M  V30 6727 H 621.881 -4.3218 0.782099 0
M  V30 6728 H 622.487 -3.58741 2.2844 0
M  V30 6729 N 620.802 -1.09834 -1.13024 0
M  V30 6730 C 622.03 -0.858902 -1.8823 0
M  V30 6731 C 622.445 0.590164 -1.79339 0
M  V30 6732 O 621.802 1.4065 -1.16292 0
M  V30 6733 C 621.853 -1.29066 -3.37675 0
M  V30 6734 O 621.574 -2.6829 -3.46341 0
M  V30 6735 C 623.075 -1.08421 -4.29837 0
M  V30 6736 H 620.295 -0.308713 -0.595766 0
M  V30 6737 H 622.839 -1.4614 -1.4305 0
M  V30 6738 H 620.994 -0.731961 -3.80422 0
M  V30 6739 H 621.408 -2.86598 -4.39274 0
M  V30 6740 H 622.882 -1.43553 -5.33007 0
M  V30 6741 H 623.359 -0.0223315 -4.39194 0
M  V30 6742 H 623.965 -1.62907 -3.92863 0
M  V30 6743 N 622.28 1.30327 -0.886154 0
M  V30 6744 C 623.526 1.96388 -0.505941 0
M  V30 6745 C 623.859 1.69784 0.942712 0
M  V30 6746 O 623.134 1.00322 1.6663 0
M  V30 6747 C 623.417 3.51488 -0.782826 0
M  V30 6748 C 623.27 3.87603 -2.28219 0
M  V30 6749 C 624.589 4.39331 -0.260128 0
M  V30 6750 H 621.708 0.713327 -0.185292 0
M  V30 6751 H 624.35 1.54178 -1.11036 0
M  V30 6752 H 622.5 3.87572 -0.268399 0
M  V30 6753 H 624.172 3.61537 -2.86512 0
M  V30 6754 H 622.415 3.3563 -2.74837 0
M  V30 6755 H 623.086 4.95806 -2.42653 0
M  V30 6756 H 625.562 4.10162 -0.700444 0
M  V30 6757 H 624.438 5.46769 -0.483179 0
M  V30 6758 H 624.699 4.34072 0.838674 0
M  V30 6759 N 623.758 0.647228 1.43697 0
M  V30 6760 C 625.006 0.157876 2.01482 0
M  V30 6761 C 625.327 -1.23039 1.51282 0
M  V30 6762 O 624.597 -1.82071 0.722982 0
M  V30 6763 H 623.177 0.0553745 0.744945 0
M  V30 6764 H 625.839 0.83755 1.75986 0
M  V30 6765 H 624.935 0.137895 3.11795 0
M  V30 6766 N 625.236 -1.5273 0.388769 0
M  V30 6767 C 626.466 -2.05693 -0.193397 0
M  V30 6768 C 626.874 -1.26038 -1.41107 0
M  V30 6769 O 626.217 -0.30001 -1.81234 0
M  V30 6770 C 626.279 -3.53962 -0.628561 0
M  V30 6771 C 625.943 -4.54519 0.475576 0
M  V30 6772 C 626.94 -5.02526 1.33281 0
M  V30 6773 C 624.625 -4.98174 0.642453 0
M  V30 6774 C 626.619 -5.92812 2.34205 0
M  V30 6775 C 624.306 -5.88262 1.65503 0
M  V30 6776 C 625.304 -6.35473 2.50325 0
M  V30 6777 O 624.992 -7.23781 3.49852 0
M  V30 6778 H 624.724 -0.675197 -0.0329395 0
M  V30 6779 H 627.278 -1.97835 0.552326 0
M  V30 6780 H 625.508 -3.59437 -1.42625 0
M  V30 6781 H 627.197 -3.89669 -1.13633 0
M  V30 6782 H 627.963 -4.6953 1.21519 0
M  V30 6783 H 623.842 -4.60999 -0.00805093 0
M  V30 6784 H 627.386 -6.29585 3.00447 0
M  V30 6785 H 623.283 -6.20672 1.77304 0
M  V30 6786 H 624.051 -7.4184 3.45855 0
M  V30 6787 N 626.714 -0.118576 -1.57153 0
M  V30 6788 C 627.962 0.538461 -1.94795 0
M  V30 6789 C 628.283 1.67243 -1.00274 0
M  V30 6790 O 627.553 1.95811 -0.0589692 0
M  V30 6791 H 626.133 0.201904 -0.719197 0
M  V30 6792 H 628.795 -0.187418 -1.93997 0
M  V30 6793 H 627.891 0.933315 -2.97818 0
M  V30 6794 N 628.193 1.56834 0.155195 0
M  V30 6795 C 629.47 1.73799 0.897395 0
M  V30 6796 C 629.85 0.684379 1.99698 0
M  V30 6797 O 629.198 -0.298111 2.26547 0
M  V30 6798 C 629.408 3.17572 1.44737 0
M  V30 6799 C 630.756 3.79014 1.91399 0
M  V30 6800 O 631.78 3.20951 1.54496 0
M  V30 6801 O 630.639 4.80998 2.59429 0
M  V30 6802 H 627.733 0.710329 0.423511 0
M  V30 6803 H 630.279 1.69107 0.141761 0
M  V30 6804 H 629.051 3.85749 0.656741 0
M  V30 6805 H 628.674 3.26657 2.26674 0
M  V30 6806 N 629.671 -0.424282 1.51781 0
M  V30 6807 C 630.604 -1.53633 1.68737 0
M  V30 6808 C 631.582 -1.53549 0.534915 0
M  V30 6809 O 632.766 -1.72483 0.760391 0
M  V30 6810 C 629.893 -2.92195 1.71288 0
M  V30 6811 C 628.939 -3.10251 2.92654 0
M  V30 6812 S 629.772 -2.85166 4.53256 0
M  V30 6813 C 630.928 -4.25986 4.58571 0
M  V30 6814 H 631.161 -1.39018 2.62795 0
M  V30 6815 H 628.694 -0.614854 1.41629 0
M  V30 6816 H 630.652 -3.72059 1.73443 0
M  V30 6817 H 629.313 -3.04162 0.783847 0
M  V30 6818 H 628.506 -4.1159 2.90877 0
M  V30 6819 H 628.108 -2.38231 2.88308 0
M  V30 6820 H 630.4 -5.19392 4.35015 0
M  V30 6821 H 631.343 -4.32792 5.60444 0
M  V30 6822 H 631.751 -4.1025 3.87757 0
M  V30 6823 N 631.149 -1.42148 -0.680565 0
M  V30 6824 C 632.389 -1.4379 -1.45271 0
M  V30 6825 C 632.753 -0.0504426 -1.91934 0
M  V30 6826 O 633.954 0.0583916 -2.68737 0
M  V30 6827 C 632.225 -2.42904 -2.62168 0
M  V30 6828 S 633.784 -2.63201 -3.51099 0
M  V30 6829 H 630.602 -0.509185 -0.496237 0
M  V30 6830 H 633.204 -1.78706 -0.792744 0
M  V30 6831 H 631.908 -3.4249 -2.26116 0
M  V30 6832 H 631.439 -2.09394 -3.33043 0
M  V30 6833 H 633.454 -1.91068 -4.57938 0
M  V30 6834 N 632.627 0.916307 -1.28225 0
M  V30 6835 C 634.038 1.48024 -1.13779 0
M  V30 6836 C 634.389 1.94289 0.273139 0
M  V30 6837 O 633.514 1.82226 1.16716 0
M  V30 6838 C 634.109 2.69029 -2.05935 0
M  V30 6839 C 632.668 3.2161 -1.95561 0
M  V30 6840 C 631.815 1.94321 -1.97825 0
M  V30 6841 H 634.766 0.729272 -1.40951 0
M  V30 6842 H 634.787 3.44204 -1.62184 0
M  V30 6843 H 634.299 2.35325 -3.08616 0
M  V30 6844 H 632.4 3.60045 -0.959076 0
M  V30 6845 H 632.513 3.87032 -2.82388 0
M  V30 6846 H 630.877 2.1131 -1.42198 0
M  V30 6847 H 631.66 1.62917 -3.0218 0
M  V30 6848 N 634.105 1.10431 1.1244 0
M  V30 6849 C 635.333 0.868872 1.87772 0
M  V30 6850 C 635.748 -0.580645 1.7965 0
M  V30 6851 O 635.105 -1.40031 1.17036 0
M  V30 6852 C 635.156 1.30855 3.36986 0
M  V30 6853 O 634.877 2.70123 3.44914 0
M  V30 6854 C 636.378 1.107 4.29256 0
M  V30 6855 H 633.598 0.311868 0.59412 0
M  V30 6856 H 636.142 1.46897 1.42273 0
M  V30 6857 H 634.297 0.752126 3.80029 0
M  V30 6858 H 634.711 2.88923 4.37748 0
M  V30 6859 H 636.185 1.46378 5.32238 0
M  V30 6860 H 636.662 0.0456228 4.39176 0
M  V30 6861 H 637.268 1.64988 3.91994 0
M  V30 6862 N 635.583 -1.29855 0.893053 0
M  V30 6863 C 636.811 -1.99976 0.530788 0
M  V30 6864 C 637.226 -1.66889 -0.882799 0
M  V30 6865 O 636.583 -0.910352 -1.58173 0
M  V30 6866 C 636.634 -3.54547 0.705587 0
M  V30 6867 O 636.355 -3.86458 2.06353 0
M  V30 6868 C 637.856 -4.41937 0.347387 0
M  V30 6869 H 635.076 -0.639129 0.204339 0
M  V30 6870 H 637.62 -1.65549 1.20057 0
M  V30 6871 H 635.775 -3.87311 0.0830685 0
M  V30 6872 H 636.189 -4.81146 2.08803 0
M  V30 6873 H 637.663 -5.4954 0.520557 0
M  V30 6874 H 638.14 -4.33339 -0.715139 0
M  V30 6875 H 638.746 -4.14633 0.946567 0
M  V30 6876 N 637.061 -0.65484 -1.43351 0
M  V30 6877 C 638.472 -0.248506 -1.85039 0
M  V30 6878 C 638.823 1.20526 -1.54816 0
M  V30 6879 O 637.948 1.92016 -0.99794 0
M  V30 6880 C 638.543 -0.444241 -3.35875 0
M  V30 6881 C 637.102 -0.0922108 -3.76287 0
M  V30 6882 C 636.249 -0.746327 -2.67068 0
M  V30 6883 H 639.2 -0.8584 -1.33481 0
M  V30 6884 H 639.221 0.309762 -3.79237 0
M  V30 6885 H 638.733 -1.50239 -3.5784 0
M  V30 6886 H 636.834 0.96328 -3.59933 0
M  V30 6887 H 636.947 -0.518807 -4.76283 0
M  V30 6888 H 635.311 -0.179416 -2.54067 0
M  V30 6889 H 636.094 -1.80754 -2.91861 0
M  V30 6890 N 638.539 1.52521 -0.396863 0
M  V30 6891 C 639.787 2.01274 0.182536 0
M  V30 6892 C 640.108 1.28485 1.46685 0
M  V30 6893 O 639.378 0.407134 1.91623 0
M  V30 6894 H 637.958 0.743671 0.0704442 0
M  V30 6895 H 640.62 1.87547 -0.530289 0
M  V30 6896 H 639.716 3.09687 0.387385 0
M  V30 6897 N 640.017 0.126909 1.57088 0
M  V30 6898 C 641.265 -0.528123 1.95078 0
M  V30 6899 C 641.586 -1.66708 1.0116 0
M  V30 6900 O 640.856 -1.95777 0.0693527 0
M  V30 6901 H 639.436 -0.198087 0.720257 0
M  V30 6902 H 642.098 0.197703 1.93895 0
M  V30 6903 H 641.194 -0.917507 2.98309 0
M  V30 6904 N 641.495 -1.56914 -0.146875 0
M  V30 6905 C 642.442 -1.98275 -1.18134 0
M  V30 6906 C 643.412 -0.850367 -1.42681 0
M  V30 6907 O 644.597 -1.11244 -1.55014 0
M  V30 6908 C 641.737 -2.36861 -2.5098 0
M  V30 6909 C 640.85 -3.63391 -2.33605 0
M  V30 6910 C 639.985 -3.91079 -3.59486 0
M  V30 6911 C 639.024 -5.10879 -3.37149 0
M  V30 6912 N 638.161 -5.34577 -4.55161 0
M  V30 6913 H 643.001 -2.8645 -0.821622 0
M  V30 6914 H 640.538 -1.41718 -0.394248 0
M  V30 6915 H 642.496 -2.57262 -3.28439 0
M  V30 6916 H 641.126 -1.51766 -2.84898 0
M  V30 6917 H 640.178 -3.50766 -1.47199 0
M  V30 6918 H 641.49 -4.51007 -2.13059 0
M  V30 6919 H 640.644 -4.11979 -4.45374 0
M  V30 6920 H 639.383 -3.01885 -3.83036 0
M  V30 6921 H 638.388 -4.89853 -2.49649 0
M  V30 6922 H 639.613 -6.01626 -3.14997 0
M  V30 6923 H 637.559 -4.48337 -4.78884 0
M  V30 6924 H 637.476 -6.16463 -4.37618 0
M  V30 6925 H 638.744 -5.59975 -5.42263 0
M  V30 6926 N 642.974 0.416227 -1.52004 0
M  V30 6927 C 644.223 1.16088 -1.64944 0
M  V30 6928 C 644.536 1.91835 -0.381928 0
M  V30 6929 O 645.742 2.6867 -0.391013 0
M  V30 6930 C 644.198 2.1124 -2.91386 0
M  V30 6931 C 643.806 1.41042 -4.25219 0
M  V30 6932 C 645.55 2.86008 -3.13688 0
M  V30 6933 C 643.457 2.34801 -5.42791 0
M  V30 6934 H 642.387 0.437041 -0.61442 0
M  V30 6935 H 645.038 0.425971 -1.78487 0
M  V30 6936 H 643.42 2.88254 -2.71525 0
M  V30 6937 H 644.594 0.694416 -4.55538 0
M  V30 6938 H 642.909 0.78344 -4.08964 0
M  V30 6939 H 645.506 3.56286 -3.98703 0
M  V30 6940 H 645.849 3.48556 -2.27628 0
M  V30 6941 H 646.382 2.16095 -3.33988 0
M  V30 6942 H 643.121 1.7691 -6.31176 0
M  V30 6943 H 642.641 3.04395 -5.16821 0
M  V30 6944 H 644.32 2.9548 -5.75587 0
M  V30 6945 N 644.452 1.42507 0.673017 0
M  V30 6946 C 645.698 1.43284 1.43519 0
M  V30 6947 C 646.031 0.049668 1.94136 0
M  V30 6948 O 645.306 -0.926369 1.71022 0
M  V30 6949 C 645.589 2.45874 2.63093 0
M  V30 6950 C 645.442 3.93388 2.18096 0
M  V30 6951 C 646.761 2.45431 3.6531 0
M  V30 6952 H 643.88 0.521752 0.520522 0
M  V30 6953 H 646.522 1.73932 0.764701 0
M  V30 6954 H 644.672 2.19869 3.20296 0
M  V30 6955 H 646.344 4.30379 1.66046 0
M  V30 6956 H 644.587 4.07169 1.49652 0
M  V30 6957 H 645.258 4.60752 3.03993 0
M  V30 6958 H 647.734 2.68561 3.17827 0
M  V30 6959 H 646.61 3.19189 4.46553 0
M  V30 6960 H 646.871 1.48092 4.16559 0
M  V30 6961 N 645.93 -0.909495 1.28709 0
M  V30 6962 C 647.178 -1.65577 1.15882 0
M  V30 6963 C 647.499 -1.928 -0.292108 0
M  V30 6964 O 646.769 -1.54716 -1.20166 0
M  V30 6965 H 645.349 -0.613714 0.425869 0
M  V30 6966 H 648.011 -1.09108 1.61498 0
M  V30 6967 H 647.107 -2.61634 1.70159 0
M  V30 6968 N 647.408 -1.11026 -1.11852 0
M  V30 6969 C 648.636 -0.878818 -1.87308 0
M  V30 6970 C 649.051 0.57111 -1.79955 0
M  V30 6971 O 648.408 1.39409 -1.17777 0
M  V30 6972 C 648.459 -1.3264 -3.36287 0
M  V30 6973 O 648.18 -2.71948 -3.43476 0
M  V30 6974 C 649.681 -1.12974 -4.28663 0
M  V30 6975 H 646.901 -0.315015 -0.592458 0
M  V30 6976 H 649.445 -1.47649 -1.41492 0
M  V30 6977 H 647.6 -0.772269 -3.79625 0
M  V30 6978 H 648.014 -2.91241 -4.3621 0
M  V30 6979 H 649.488 -1.49198 -5.31454 0
M  V30 6980 H 649.965 -0.0689127 -4.39146 0
M  V30 6981 H 650.571 -1.67064 -3.91113 0
M  V30 6982 N 648.886 1.2938 -0.899927 0
M  V30 6983 C 649.816 2.30144 -0.39446 0
M  V30 6984 C 650.797 1.61611 0.530639 0
M  V30 6985 O 651.982 1.89119 0.441319 0
M  V30 6986 C 649.112 3.45229 0.37868 0
M  V30 6987 C 648.066 4.25564 -0.456012 0
M  V30 6988 C 647.392 5.32848 0.444637 0
M  V30 6989 C 648.692 4.93651 -1.70605 0
M  V30 6990 H 650.386 2.72673 -1.23653 0
M  V30 6991 H 647.932 1.31086 -0.596034 0
M  V30 6992 H 649.885 4.14797 0.743037 0
M  V30 6993 H 648.609 3.01545 1.25453 0
M  V30 6994 H 647.268 3.57704 -0.802704 0
M  V30 6995 H 646.916 4.85408 1.31863 0
M  V30 6996 H 646.616 5.87497 -0.110154 0
M  V30 6997 H 648.14 6.05268 0.805182 0
M  V30 6998 H 649.554 5.55655 -1.41141 0
M  V30 6999 H 647.951 5.58233 -2.20217 0
M  V30 7000 H 649.021 4.18926 -2.4419 0
M  V30 7001 N 650.364 0.662433 1.43002 0
M  V30 7002 C 651.604 0.183312 2.03576 0
M  V30 7003 C 651.968 -1.18354 1.51183 0
M  V30 7004 O 653.169 -1.7566 2.03462 0
M  V30 7005 C 651.44 0.202908 3.56824 0
M  V30 7006 S 652.999 -0.20702 4.38311 0
M  V30 7007 H 649.817 0.0765001 0.706872 0
M  V30 7008 H 652.419 0.872827 1.74934 0
M  V30 7009 H 651.123 1.20028 3.92456 0
M  V30 7010 H 650.654 -0.506845 3.90121 0
M  V30 7011 H 652.669 -1.44358 4.74737 0
M  V30 7012 N 651.842 -1.52309 0.404946 0
M  V30 7013 C 652.805 -2.25491 -0.410651 0
M  V30 7014 C 653.805 -1.27704 -0.977154 0
M  V30 7015 O 654.995 -1.51679 -0.856691 0
M  V30 7016 C 652.127 -3.02197 -1.57765 0
M  V30 7017 H 653.32 -2.99015 0.230277 0
M  V30 7018 H 650.873 -1.55506 0.157377 0
M  V30 7019 H 651.608 -2.33013 -2.25556 0
M  V30 7020 H 651.393 -3.73987 -1.17797 0
M  V30 7021 H 652.883 -3.57719 -2.15469 0
M  V30 7022 N 653.32 -0.135238 -1.57019 0
M  V30 7023 C 654.569 0.518694 -1.94917 0
M  V30 7024 C 654.882 1.66783 -1.0219 0
M  V30 7025 O 656.088 2.38561 -1.29619 0
M  V30 7026 C 654.544 0.974123 -3.46466 0
M  V30 7027 C 654.152 -0.147439 -4.47757 0
M  V30 7028 C 655.896 1.59851 -3.93253 0
M  V30 7029 C 653.803 0.325599 -5.90503 0
M  V30 7030 H 652.733 0.19754 -0.727663 0
M  V30 7031 H 655.384 -0.217698 -1.82204 0
M  V30 7032 H 653.766 1.76542 -3.5447 0
M  V30 7033 H 654.94 -0.924122 -4.51438 0
M  V30 7034 H 653.255 -0.679496 -4.10818 0
M  V30 7035 H 655.852 1.96385 -4.9733 0
M  V30 7036 H 656.195 2.48306 -3.3414 0
M  V30 7037 H 656.728 0.872323 -3.88118 0
M  V30 7038 H 653.467 -0.523295 -6.53408 0
M  V30 7039 H 652.987 1.06841 -5.90208 0
M  V30 7040 H 654.666 0.781498 -6.42263 0
M  V30 7041 N 654.798 1.5699 0.138552 0
M  V30 7042 C 655.761 1.97984 1.15478 0
M  V30 7043 C 656.761 0.867416 1.35398 0
M  V30 7044 O 657.951 1.13387 1.32246 0
M  V30 7045 C 655.083 2.3031 2.51337 0
M  V30 7046 H 656.276 2.88953 0.802896 0
M  V30 7047 H 653.829 1.51555 0.382189 0
M  V30 7048 H 654.564 1.42159 2.91481 0
M  V30 7049 H 654.349 3.11425 2.38237 0
M  V30 7050 H 655.839 2.62834 3.24512 0
M  V30 7051 N 656.276 -0.40816 1.52223 0
M  V30 7052 C 657.524 -1.15274 1.66001 0
M  V30 7053 C 657.845 -1.91003 0.392803 0
M  V30 7054 O 657.115 -1.8673 -0.592336 0
M  V30 7055 H 655.695 -0.428526 0.611861 0
M  V30 7056 H 658.357 -0.46512 1.89269 0
M  V30 7057 H 657.453 -1.86628 2.50153 0
M  V30 7058 N 657.755 -1.42862 -0.66545 0
M  V30 7059 C 659.001 -1.44043 -1.42757 0
M  V30 7060 C 659.334 -0.0599629 -1.94107 0
M  V30 7061 O 658.609 0.917286 -1.71511 0
M  V30 7062 C 658.892 -2.47266 -2.61786 0
M  V30 7063 C 658.745 -3.94539 -2.16007 0
M  V30 7064 C 660.064 -2.47365 -3.64003 0
M  V30 7065 H 657.183 -0.524506 -0.517748 0
M  V30 7066 H 659.825 -1.74335 -0.755466 0
M  V30 7067 H 657.975 -2.21565 -3.19126 0
M  V30 7068 H 659.647 -4.31254 -1.63762 0
M  V30 7069 H 657.89 -4.07957 -1.47491 0
M  V30 7070 H 658.561 -4.62357 -3.01546 0
M  V30 7071 H 661.037 -2.70243 -3.16399 0
M  V30 7072 H 659.913 -3.21552 -4.44854 0
M  V30 7073 H 660.174 -1.50299 -4.15767 0
M  V30 7074 N 659.233 0.902656 -1.29189 0
M  V30 7075 C 660.163 2.02294 -1.16616 0
M  V30 7076 C 661.144 1.6999 -0.0611175 0
M  V30 7077 O 662.329 1.9271 -0.240072 0
M  V30 7078 C 659.459 3.37018 -0.83882 0
M  V30 7079 C 658.413 3.83522 -1.89986 0
M  V30 7080 C 657.739 5.15337 -1.42589 0
M  V30 7081 C 659.039 4.04169 -3.30824 0
M  V30 7082 H 660.733 2.13071 -2.10336 0
M  V30 7083 H 658.279 1.02378 -1.01266 0
M  V30 7084 H 660.232 4.14895 -0.737584 0
M  V30 7085 H 658.956 3.26325 0.134071 0
M  V30 7086 H 657.615 3.07859 -1.99043 0
M  V30 7087 H 657.263 5.01056 -0.441759 0
M  V30 7088 H 656.963 5.47423 -2.13547 0
M  V30 7089 H 658.487 5.95758 -1.3381 0
M  V30 7090 H 659.901 4.72537 -3.24626 0
M  V30 7091 H 658.298 4.47604 -3.99713 0
M  V30 7092 H 659.368 3.08604 -3.74021 0
M  V30 7093 N 660.711 1.11618 1.11262 0
M  V30 7094 C 661.939 0.888739 1.8684 0
M  V30 7095 C 662.354 -0.561558 1.80255 0
M  V30 7096 O 661.711 -1.38782 1.18515 0
M  V30 7097 C 661.762 1.34422 3.35579 0
M  V30 7098 O 661.483 2.73766 3.42029 0
M  V30 7099 C 662.984 1.15246 4.28058 0
M  V30 7100 H 660.204 0.318152 0.590779 0
M  V30 7101 H 662.748 1.48398 1.40707 0
M  V30 7102 H 660.903 0.79239 3.7921 0
M  V30 7103 H 661.317 2.9355 4.34659 0
M  V30 7104 H 662.791 1.52015 5.30656 0
M  V30 7105 H 663.268 0.0922007 4.39103 0
M  V30 7106 H 663.874 1.69136 3.90222 0
M  V30 7107 N 662.189 -1.289 0.906776 0
M  V30 7108 C 663.438 -1.9455 0.532262 0
M  V30 7109 C 663.751 -1.72219 -0.927353 0
M  V30 7110 O 664.957 -2.32033 -1.40971 0
M  V30 7111 C 663.413 -3.48438 0.901041 0
M  V30 7112 C 663.021 -3.79558 2.37991 0
M  V30 7113 C 664.765 -4.20284 0.596777 0
M  V30 7114 C 662.672 -5.26723 2.68918 0
M  V30 7115 H 661.602 -0.728259 0.195333 0
M  V30 7116 H 664.253 -1.46519 1.10474 0
M  V30 7117 H 662.635 -3.95162 0.257419 0
M  V30 7118 H 663.809 -3.43668 3.06967 0
M  V30 7119 H 662.124 -3.20868 2.65391 0
M  V30 7120 H 664.721 -5.28612 0.8046 0
M  V30 7121 H 665.064 -4.13694 -0.465072 0
M  V30 7122 H 665.597 -3.79315 1.19855 0
M  V30 7123 H 662.336 -5.38384 3.73928 0
M  V30 7124 H 661.856 -5.63836 2.04571 0
M  V30 7125 H 663.535 -5.94391 2.55555 0
M  V30 7126 N 663.667 -0.670007 -1.42649 0
M  V30 7127 C 664.63 0.00204659 -2.292 0
M  V30 7128 C 665.63 0.733817 -1.4308 0
M  V30 7129 O 666.82 0.57254 -1.64522 0
M  V30 7130 C 663.952 1.01359 -3.25483 0
M  V30 7131 H 665.145 -0.759696 -2.90118 0
M  V30 7132 H 662.698 -0.432105 -1.50208 0
M  V30 7133 H 663.433 1.80399 -2.69493 0
M  V30 7134 H 663.218 0.492323 -3.88997 0
M  V30 7135 H 664.708 1.4824 -3.90403 0
M  V30 7136 N 665.145 1.52092 -0.413018 0
M  V30 7137 C 666.075 2.30021 0.401567 0
M  V30 7138 C 667.056 1.34395 1.04269 0
M  V30 7139 O 668.241 1.63304 1.05097 0
M  V30 7140 C 665.371 3.12447 1.51638 0
M  V30 7141 C 664.325 4.16153 1.00005 0
M  V30 7142 C 663.651 4.86948 2.20875 0
M  V30 7143 C 664.951 5.22275 0.0513757 0
M  V30 7144 H 666.645 2.98365 -0.248704 0
M  V30 7145 H 664.191 1.4349 -0.121052 0
M  V30 7146 H 666.144 3.65733 2.09326 0
M  V30 7147 H 664.868 2.41879 2.19458 0
M  V30 7148 H 663.527 3.63882 0.445549 0
M  V30 7149 H 663.175 4.12905 2.8726 0
M  V30 7150 H 662.875 5.57057 1.86978 0
M  V30 7151 H 664.399 5.43048 2.79162 0
M  V30 7152 H 665.813 5.70778 0.537176 0
M  V30 7153 H 664.21 5.9977 -0.198977 0
M  V30 7154 H 665.28 4.76611 -0.892736 0
M  V30 7155 N 666.623 0.143563 1.56945 0
M  V30 7156 C 668.034 -0.37783 1.82837 0
M  V30 7157 C 668.385 -1.64967 1.06209 0
M  V30 7158 O 667.51 -2.14221 0.306291 0
M  V30 7159 C 668.105 -0.692274 3.31652 0
M  V30 7160 C 666.664 -1.1582 3.58138 0
M  V30 7161 C 665.811 -0.17951 2.76718 0
M  V30 7162 H 668.762 0.368317 1.54367 0
M  V30 7163 H 668.783 -1.54729 3.47619 0
M  V30 7164 H 668.295 0.233572 3.87397 0
M  V30 7165 H 666.396 -2.10011 3.07776 0
M  V30 7166 H 666.509 -1.08655 4.66616 0
M  V30 7167 H 664.873 -0.671458 2.4569 0
M  V30 7168 H 665.656 0.739865 3.35233 0
M  V30 7169 N 668.101 -1.57061 -0.130224 0
M  V30 7170 C 669.347 -1.8453 -0.841216 0
M  V30 7171 C 669.68 -0.727666 -1.80052 0
M  V30 7172 O 668.955 0.267419 -1.92653 0
M  V30 7173 C 669.238 -3.22553 -1.60099 0
M  V30 7174 C 669.091 -4.44901 -0.662048 0
M  V30 7175 C 670.41 -3.58003 -2.55973 0
M  V30 7176 H 667.529 -0.671215 -0.304366 0
M  V30 7177 H 670.171 -1.89705 -0.105821 0
M  V30 7178 H 668.321 -3.18272 -2.22789 0
M  V30 7179 H 669.993 -4.61278 -0.0448559 0
M  V30 7180 H 668.236 -4.33791 0.0272253 0
M  V30 7181 H 668.907 -5.3812 -1.23006 0
M  V30 7182 H 671.383 -3.63002 -2.03393 0
M  V30 7183 H 670.259 -4.55576 -3.06172 0
M  V30 7184 H 670.52 -2.84833 -3.38116 0
M  V30 7185 N 669.579 0.400081 -1.52437 0
M  V30 7186 C 670.99 0.97851 -1.59003 0
M  V30 7187 C 671.341 1.91293 -0.436068 0
M  V30 7188 O 670.466 2.1183 0.442365 0
M  V30 7189 C 671.061 1.78145 -2.88184 0
M  V30 7190 C 669.62 2.30976 -2.97199 0
M  V30 7191 C 668.767 1.11212 -2.54022 0
M  V30 7192 H 671.718 0.180002 -1.57676 0
M  V30 7193 H 671.739 2.63968 -2.74046 0
M  V30 7194 H 671.251 1.1011 -3.72152 0
M  V30 7195 H 669.352 3.02355 -2.17744 0
M  V30 7196 H 669.465 2.61221 -4.01622 0
M  V30 7197 H 667.829 1.46882 -2.08081 0
M  V30 7198 H 668.612 0.447307 -3.40373 0
M  V30 7199 N 671.057 1.43213 0.657864 0
M  V30 7200 C 672.303 1.44798 1.41991 0
M  V30 7201 C 672.636 0.070256 1.94073 0
M  V30 7202 O 671.911 -0.908177 1.71995 0
M  V30 7203 C 672.194 2.4865 2.60471 0
M  V30 7204 C 672.047 3.95679 2.13911 0
M  V30 7205 C 673.366 2.49292 3.62686 0
M  V30 7206 H 670.485 0.527244 0.514959 0
M  V30 7207 H 673.127 1.74733 0.74621 0
M  V30 7208 H 671.277 2.23254 3.17946 0
M  V30 7209 H 672.949 4.32116 1.61472 0
M  V30 7210 H 671.192 4.08733 1.45325 0
M  V30 7211 H 671.863 4.6395 2.99089 0
M  V30 7212 H 674.339 2.71917 3.14961 0
M  V30 7213 H 673.215 3.23907 4.43143 0
M  V30 7214 H 673.476 1.52502 4.14964 0
M  V30 7215 N 672.536 -0.895792 1.29666 0
M  V30 7216 C 673.785 -1.64131 1.17234 0
M  V30 7217 C 674.098 -1.93665 -0.274416 0
M  V30 7218 O 675.304 -2.66472 -0.520105 0
M  V30 7219 C 673.76 -2.95764 2.05065 0
M  V30 7220 C 673.368 -2.7381 3.54587 0
M  V30 7221 C 675.112 -3.737 2.01367 0
M  V30 7222 C 673.019 -4.01194 4.34508 0
M  V30 7223 H 671.949 -0.615742 0.435175 0
M  V30 7224 H 674.6 -0.992626 1.54335 0
M  V30 7225 H 672.982 -3.61867 1.60837 0
M  V30 7226 H 674.156 -2.16277 4.06892 0
M  V30 7227 H 672.471 -2.09265 3.59996 0
M  V30 7228 H 675.068 -4.68152 2.58337 0
M  V30 7229 H 675.411 -4.04245 0.994575 0
M  V30 7230 H 675.944 -3.14444 2.43659 0
M  V30 7231 H 672.683 -3.75813 5.37071 0
M  V30 7232 H 672.203 -4.58272 3.86971 0
M  V30 7233 H 673.882 -4.69307 4.45376 0
M  V30 7234 N 674.014 -1.12206 -1.10668 0
M  V30 7235 C 675.26 -0.877172 -1.82848 0
M  V30 7236 C 675.593 0.595571 -1.84842 0
M  V30 7237 O 674.868 1.44013 -1.30731 0
M  V30 7238 C 675.151 -1.44957 -3.29635 0
M  V30 7239 C 675.004 -2.99051 -3.35989 0
M  V30 7240 C 676.323 -1.10714 -4.25946 0
M  V30 7241 H 673.442 -0.320103 -0.663854 0
M  V30 7242 H 676.084 -1.38827 -1.2972 0
M  V30 7243 H 674.234 -1.01488 -3.7501 0
M  V30 7244 H 675.906 -3.51182 -2.99113 0
M  V30 7245 H 674.149 -3.34705 -2.75962 0
M  V30 7246 H 674.82 -3.34194 -4.39339 0
M  V30 7247 H 677.296 -1.48254 -3.88793 0
M  V30 7248 H 676.172 -1.5343 -5.2702 0
M  V30 7249 H 676.433 -0.019 -4.42096 0
M  V30 7250 N 675.492 1.28418 -0.913599 0
M  V30 7251 C 676.717 1.99643 -0.561899 0
M  V30 7252 C 677.142 1.67819 0.849608 0
M  V30 7253 O 676.5 0.910503 1.56779 0
M  V30 7254 C 676.548 3.52116 -0.777622 0
M  V30 7255 O 675.652 4.12076 0.163457 0
M  V30 7256 H 674.993 0.627229 -0.217898 0
M  V30 7257 H 677.523 1.63575 -1.229 0
M  V30 7258 H 677.533 4.02163 -0.687666 0
M  V30 7259 H 676.208 3.74613 -1.8066 0
M  V30 7260 H 674.785 3.72892 0.0247827 0
M  V30 7261 N 676.97 0.677563 1.42291 0
M  V30 7262 C 677.918 -0.0106755 2.32598 0
M  V30 7263 C 678.912 -0.787643 1.49975 0
M  V30 7264 O 680.118 -0.695295 1.66029 0
M  V30 7265 H 676.493 -0.0222482 0.751671 0
M  V30 7266 H 678.464 0.768312 2.88339 0
M  V30 7267 C 677.213 -0.946142 3.3458 0
M  V30 7268 H 676.536 -0.357701 3.98197 0
M  V30 7269 H 677.976 -1.39634 4.00348 0
M  V30 7270 C 676.435 -2.05383 2.67057 0
M  V30 7271 O 676.965 -3.1406 2.50458 0
M  V30 7272 N 675.171 -1.82635 2.26038 0
M  V30 7273 H 674.718 -0.942534 2.39737 0
M  V30 7274 H 674.676 -2.56937 1.81192 0
M  V30 7275 N 678.448 -1.51871 0.421078 0
M  V30 7276 C 679.695 -2.01938 -0.15079 0
M  V30 7277 C 680.023 -1.30611 -1.44121 0
M  V30 7278 O 679.278 -0.404631 -1.91471 0
M  V30 7279 C 679.577 -3.54764 -0.433292 0
M  V30 7280 C 679.243 -4.44288 0.76936 0
M  V30 7281 C 677.905 -4.68477 1.09921 0
M  V30 7282 C 680.257 -4.96915 1.57242 0
M  V30 7283 C 677.585 -5.4254 2.2331 0
M  V30 7284 C 679.937 -5.7222 2.69716 0
M  V30 7285 C 678.601 -5.94678 3.03174 0
M  V30 7286 H 677.871 -0.738943 -0.0551781 0
M  V30 7287 H 680.518 -1.82977 0.564945 0
M  V30 7288 H 678.823 -3.71968 -1.23074 0
M  V30 7289 H 680.52 -3.91023 -0.888922 0
M  V30 7290 H 677.11 -4.25646 0.502305 0
M  V30 7291 H 681.294 -4.78125 1.3308 0
M  V30 7292 H 676.55 -5.58146 2.49565 0
M  V30 7293 H 680.724 -6.11992 3.32323 0
M  V30 7294 H 678.351 -6.51848 3.9115 0
M  V30 7295 N 679.926 -0.151884 -1.56866 0
M  V30 7296 C 680.874 0.80299 -2.183 0
M  V30 7297 C 681.868 1.25174 -1.14139 0
M  V30 7298 O 683.074 1.21966 -1.3238 0
M  V30 7299 H 679.449 0.277169 -0.699057 0
M  V30 7300 H 681.42 0.260699 -2.97259 0
M  V30 7301 C 680.169 2.03009 -2.82281 0
M  V30 7302 H 679.492 1.69377 -3.62148 0
M  V30 7303 H 680.932 2.67753 -3.28762 0
M  V30 7304 C 679.391 2.84123 -1.81041 0
M  V30 7305 O 679.921 3.8063 -1.28388 0
M  V30 7306 N 678.127 2.48753 -1.50234 0
M  V30 7307 H 677.674 1.70337 -1.93244 0
M  V30 7308 H 677.632 3.03316 -0.827445 0
M  V30 7309 N 681.404 1.57128 0.121893 0
M  V30 7310 C 682.634 1.88609 0.843227 0
M  V30 7311 C 683.042 0.740917 1.74089 0
M  V30 7312 O 682.385 -0.297426 1.81276 0
M  V30 7313 C 682.447 3.15073 1.73117 0
M  V30 7314 C 682.111 4.45742 1.0081 0
M  V30 7315 C 683.108 5.18719 0.350255 0
M  V30 7316 C 680.793 4.92444 0.99014 0
M  V30 7317 C 682.787 6.36617 -0.315889 0
M  V30 7318 C 680.474 6.10261 0.320196 0
M  V30 7319 C 681.472 6.82194 -0.331666 0
M  V30 7320 O 681.16 7.97769 -0.990927 0
M  V30 7321 H 680.892 0.628919 0.247865 0
M  V30 7322 H 683.446 2.05096 0.111725 0
M  V30 7323 H 681.676 2.9466 2.50424 0
M  V30 7324 H 683.365 3.32597 2.32667 0
M  V30 7325 H 684.131 4.83693 0.35577 0
M  V30 7326 H 680.01 4.36361 1.48695 0
M  V30 7327 H 683.554 6.92701 -0.825272 0
M  V30 7328 H 679.451 6.44743 0.312433 0
M  V30 7329 H 680.219 8.13591 -0.895113 0
M  V30 7330 N 682.882 -0.391992 1.52647 0
M  V30 7331 C 684.129 -1.13732 1.67545 0
M  V30 7332 C 684.457 -1.90045 0.413881 0
M  V30 7333 O 683.712 -1.86157 -0.603646 0
M  V30 7334 C 684.011 -2.14401 2.85949 0
M  V30 7335 C 683.677 -1.54767 4.23507 0
M  V30 7336 C 682.339 -1.38229 4.60919 0
M  V30 7337 C 684.691 -1.11382 5.0916 0
M  V30 7338 C 682.019 -0.7685 5.81645 0
M  V30 7339 C 684.371 -0.514143 6.30507 0
M  V30 7340 C 683.035 -0.33604 6.66654 0
M  V30 7341 H 682.305 -0.416174 0.613091 0
M  V30 7342 H 684.952 -0.422327 1.86785 0
M  V30 7343 H 683.257 -2.92108 2.61114 0
M  V30 7344 H 684.954 -2.71974 2.94671 0
M  V30 7345 H 681.544 -1.68626 3.94035 0
M  V30 7346 H 685.728 -1.22962 4.80826 0
M  V30 7347 H 680.984 -0.618681 6.08262 0
M  V30 7348 H 685.158 -0.169657 6.96193 0
M  V30 7349 H 682.785 0.14166 7.60068 0
M  V30 7350 N 684.36 -1.4356 -0.65026 0
M  V30 7351 C 685.59 -1.48563 -1.4357 0
M  V30 7352 C 685.998 -0.103041 -1.88919 0
M  V30 7353 O 685.341 0.897602 -1.60277 0
M  V30 7354 C 685.403 -2.37181 -2.70158 0
M  V30 7355 C 685.067 -3.84673 -2.4673 0
M  V30 7356 C 686.064 -4.75704 -2.09765 0
M  V30 7357 C 683.749 -4.29189 -2.60963 0
M  V30 7358 C 685.743 -6.09249 -1.87334 0
M  V30 7359 C 683.43 -5.62787 -2.38147 0
M  V30 7360 C 684.428 -6.52634 -2.01389 0
M  V30 7361 O 684.116 -7.83761 -1.78813 0
M  V30 7362 H 683.848 -0.506743 -0.447423 0
M  V30 7363 H 686.402 -1.89001 -0.80423 0
M  V30 7364 H 684.632 -1.91636 -3.35876 0
M  V30 7365 H 686.321 -2.33354 -3.32116 0
M  V30 7366 H 687.087 -4.42589 -1.98343 0
M  V30 7367 H 682.966 -3.59529 -2.88548 0
M  V30 7368 H 686.51 -6.7934 -1.58567 0
M  V30 7369 H 682.407 -5.95469 -2.49173 0
M  V30 7370 H 683.175 -7.95368 -1.93214 0
M  V30 7371 N 685.838 0.888903 -1.30139 0
M  V30 7372 C 686.788 1.9814 -1.12803 0
M  V30 7373 C 687.772 1.60839 -0.0443137 0
M  V30 7374 O 688.964 1.74971 -0.267208 0
M  V30 7375 C 686.093 3.33416 -0.817849 0
M  V30 7376 C 685.179 3.77043 -1.94163 0
M  V30 7377 N 685.57 3.92805 -3.18651 0
M  V30 7378 C 683.868 4.06407 -1.8371 0
M  V30 7379 C 684.569 4.29746 -3.92038 0
M  V30 7380 N 683.545 4.3939 -3.20059 0
M  V30 7381 H 687.347 2.08411 -2.07225 0
M  V30 7382 H 684.861 1.07845 -1.21421 0
M  V30 7383 H 686.858 4.11405 -0.674668 0
M  V30 7384 H 685.518 3.24484 0.118344 0
M  V30 7385 H 686.529 3.78042 -3.53984 0
M  V30 7386 H 683.206 4.05972 -0.974331 0
M  V30 7387 H 684.596 4.49695 -4.99223 0
M  V30 7388 N 687.317 1.12792 1.10072 0
M  V30 7389 C 688.733 0.864745 1.34143 0
M  V30 7390 C 688.933 -0.503201 1.95116 0
M  V30 7391 O 687.989 -1.25111 2.19325 0
M  V30 7392 C 689.302 1.98413 2.25949 0
M  V30 7393 C 690.85 2.01545 2.39476 0
M  V30 7394 C 691.325 3.12727 3.34613 0
M  V30 7395 N 692.816 3.12194 3.42183 0
M  V30 7396 C 693.551 3.94862 4.15779 0
M  V30 7397 N 693.047 4.87528 4.92228 0
M  V30 7398 N 694.84 3.82985 4.11435 0
M  V30 7399 H 686.991 2.00926 0.68866 0
M  V30 7400 H 689.254 0.874564 0.365844 0
M  V30 7401 H 688.96 2.97005 1.88364 0
M  V30 7402 H 688.834 1.89254 3.26287 0
M  V30 7403 H 691.221 1.0357 2.76328 0
M  V30 7404 H 691.302 2.14777 1.3894 0
M  V30 7405 H 690.946 4.10936 2.98486 0
M  V30 7406 H 690.876 2.96732 4.35037 0
M  V30 7407 H 693.367 2.45065 2.87666 0
M  V30 7408 H 693.68 5.47109 5.45794 0
M  V30 7409 H 692.025 4.91539 4.9134 0
M  V30 7410 H 695.216 3.09923 3.50807 0
M  V30 7411 H 695.389 4.47641 4.68531 0
M  V30 7412 N 688.795 -1.27931 0.920396 0
M  V30 7413 C 689.705 -2.30824 0.419212 0
M  V30 7414 C 690.721 -1.66767 -0.496461 0
M  V30 7415 O 691.897 -1.97763 -0.38104 0
M  V30 7416 C 688.962 -3.45158 -0.326601 0
M  V30 7417 C 688.023 -4.24754 0.623098 0
M  V30 7418 C 687.256 -5.33629 -0.0872172 0
M  V30 7419 O 687.479 -5.55204 -1.30784 0
M  V30 7420 O 686.413 -5.99091 0.580875 0
M  V30 7421 H 690.239 -2.75716 1.27337 0
M  V30 7422 H 687.824 -1.32747 0.685465 0
M  V30 7423 H 689.706 -4.14716 -0.747559 0
M  V30 7424 H 688.381 -3.02336 -1.15648 0
M  V30 7425 H 687.288 -3.57759 1.09359 0
M  V30 7426 H 688.621 -4.71272 1.41998 0
M  V30 7427 N 690.273 -0.685099 -1.4193 0
M  V30 7428 C 691.501 -0.220372 -2.05723 0
M  V30 7429 C 691.916 1.12642 -1.51516 0
M  V30 7430 O 691.273 1.70182 -0.659114 0
M  V30 7431 C 691.324 -0.157974 -3.61155 0
M  V30 7432 O 691.045 -1.45156 -4.13354 0
M  V30 7433 C 692.546 0.329009 -4.42077 0
M  V30 7434 H 689.766 -0.104725 -0.662777 0
M  V30 7435 H 692.31 -0.934736 -1.81887 0
M  V30 7436 H 690.465 0.507144 -3.84066 0
M  V30 7437 H 690.879 -1.33172 -5.07312 0
M  V30 7438 H 692.353 0.321559 -5.51063 0
M  V30 7439 H 692.83 1.36608 -4.17414 0
M  V30 7440 H 693.436 -0.304737 -4.24207 0
M  V30 7441 N 691.751 1.51645 -0.429126 0
M  V30 7442 C 692.661 2.31288 0.392809 0
M  V30 7443 C 693.677 1.39852 1.03525 0
M  V30 7444 O 694.853 1.72926 1.03241 0
M  V30 7445 C 691.918 3.13347 1.48372 0
M  V30 7446 C 690.979 4.20551 0.862268 0
M  V30 7447 C 690.212 4.98688 1.9012 0
M  V30 7448 O 690.435 4.77359 3.12225 0
M  V30 7449 O 689.369 5.83005 1.4963 0
M  V30 7450 H 693.195 3.02609 -0.257138 0
M  V30 7451 H 690.78 1.48163 -0.191851 0
M  V30 7452 H 692.662 3.64387 2.1166 0
M  V30 7453 H 691.337 2.44799 2.1179 0
M  V30 7454 H 690.244 3.73609 0.191568 0
M  V30 7455 H 691.577 4.91449 0.271704 0
M  V30 7456 N 693.229 0.160201 1.56784 0
M  V30 7457 C 694.177 -0.791402 2.18723 0
M  V30 7458 C 695.171 -1.24567 1.14801 0
M  V30 7459 O 696.377 -1.21262 1.33025 0
M  V30 7460 H 692.752 -0.273458 0.700517 0
M  V30 7461 H 694.723 -0.244931 2.97393 0
M  V30 7462 C 693.472 -2.01509 2.83354 0
M  V30 7463 H 692.795 -1.67454 3.63041 0
M  V30 7464 H 694.235 -2.66006 3.30177 0
M  V30 7465 C 692.694 -2.83159 1.82545 0
M  V30 7466 O 693.224 -3.79944 1.30405 0
M  V30 7467 N 691.43 -2.47953 1.51552 0
M  V30 7468 H 690.977 -1.69309 1.94144 0
M  V30 7469 H 690.935 -3.02873 0.843519 0
M  V30 7470 N 694.707 -1.5719 -0.113559 0
M  V30 7471 C 695.617 -2.04041 -1.15777 0
M  V30 7472 C 696.633 -0.961812 -1.45001 0
M  V30 7473 O 697.809 -1.2737 -1.56009 0
M  V30 7474 C 694.874 -2.43994 -2.46308 0
M  V30 7475 C 693.935 -3.65962 -2.24433 0
M  V30 7476 C 693.168 -4.04 -3.4874 0
M  V30 7477 O 693.391 -3.42321 -4.56259 0
M  V30 7478 O 692.325 -4.97069 -3.3942 0
M  V30 7479 H 696.151 -2.93248 -0.789899 0
M  V30 7480 H 693.736 -1.45828 -0.324748 0
M  V30 7481 H 695.618 -2.70401 -3.23204 0
M  V30 7482 H 694.293 -1.57932 -2.82558 0
M  V30 7483 H 693.2 -3.44697 -1.45377 0
M  V30 7484 H 694.533 -4.52746 -1.93084 0
M  V30 7485 N 696.185 0.383891 -1.52853 0
M  V30 7486 C 697.095 1.49343 -1.80925 0
M  V30 7487 C 698.111 1.59458 -0.696348 0
M  V30 7488 O 699.287 1.75698 -0.984481 0
M  V30 7489 C 696.352 2.84819 -1.97684 0
M  V30 7490 C 695.413 2.84382 -3.21598 0
M  V30 7491 C 694.646 4.13397 -3.37548 0
M  V30 7492 O 694.869 5.08619 -2.58192 0
M  V30 7493 O 693.803 4.20325 -4.30826 0
M  V30 7494 H 697.629 1.2855 -2.75152 0
M  V30 7495 H 695.214 0.572229 -1.38007 0
M  V30 7496 H 697.096 3.65125 -2.10385 0
M  V30 7497 H 695.771 3.05627 -1.06647 0
M  V30 7498 H 694.678 2.0284 -3.14336 0
M  V30 7499 H 696.011 2.68526 -4.12498 0
M  V30 7500 N 697.663 1.43903 0.642637 0
M  V30 7501 C 698.61 1.49881 1.75512 0
M  V30 7502 C 699.58 0.347538 1.62423 0
M  V30 7503 O 700.765 0.556177 1.82514 0
M  V30 7504 C 697.905 1.43797 3.13714 0
M  V30 7505 C 697.018 2.6921 3.37861 0
M  V30 7506 C 696.153 2.5504 4.6597 0
M  V30 7507 C 695.192 3.75671 4.83257 0
M  V30 7508 N 694.329 3.60247 6.02633 0
M  V30 7509 H 699.169 2.44935 1.69737 0
M  V30 7510 H 696.706 1.21572 0.828165 0
M  V30 7511 H 698.664 1.38262 3.93624 0
M  V30 7512 H 697.294 0.523173 3.18532 0
M  V30 7513 H 696.346 2.8498 2.51973 0
M  V30 7514 H 697.658 3.58786 3.46517 0
M  V30 7515 H 696.812 2.47273 5.54023 0
M  V30 7516 H 695.551 1.63006 4.59653 0
M  V30 7517 H 694.556 3.83836 3.93637 0
M  V30 7518 H 695.781 4.68728 4.91397 0
M  V30 7519 H 693.727 2.70955 5.97427 0
M  V30 7520 H 693.644 4.43431 6.12295 0
M  V30 7521 H 694.912 3.56351 6.93278 0
M  V30 7522 N 699.141 -0.881989 1.30609 0
M  V30 7523 C 700.073 -1.99375 1.13058 0
M  V30 7524 C 701.086 -1.62636 0.0729879 0
M  V30 7525 O 702.275 -1.75621 0.319301 0
M  V30 7526 C 699.375 -3.31536 0.702651 0
M  V30 7527 C 698.548 -3.96693 1.84265 0
M  V30 7528 C 697.607 -5.07158 1.40277 0
M  V30 7529 O 696.633 -5.28628 2.11048 0
M  V30 7530 N 697.835 -5.79808 0.283449 0
M  V30 7531 H 700.6 -2.14981 2.08814 0
M  V30 7532 H 698.161 -1.05526 1.22784 0
M  V30 7533 H 700.153 -4.02804 0.391331 0
M  V30 7534 H 698.723 -3.12175 -0.162954 0
M  V30 7535 H 697.943 -3.1856 2.32192 0
M  V30 7536 H 699.231 -4.36964 2.60653 0
M  V30 7537 H 698.629 -5.64871 -0.306189 0
M  V30 7538 H 697.186 -6.51792 0.0315985 0
M  V30 7539 N 700.619 -1.13374 -1.09472 0
M  V30 7540 C 701.567 -0.806105 -2.18185 0
M  V30 7541 C 702.561 0.21136 -1.68076 0
M  V30 7542 O 703.767 0.0685558 -1.79869 0
M  V30 7543 H 700.142 -0.242901 -0.71169 0
M  V30 7544 H 702.113 -1.73115 -2.43051 0
M  V30 7545 C 700.862 -0.287928 -3.46506 0
M  V30 7546 H 700.185 -1.06217 -3.85432 0
M  V30 7547 H 701.625 -0.0971054 -4.23889 0
M  V30 7548 C 700.084 0.986256 -3.22141 0
M  V30 7549 O 700.614 2.06217 -3.44728 0
M  V30 7550 N 698.82 0.917153 -2.75747 0
M  V30 7551 H 698.367 0.0414609 -2.57567 0
M  V30 7552 H 698.325 1.77029 -2.59823 0
M  V30 7553 N 702.098 1.27442 -0.927168 0
M  V30 7554 C 703.347 1.93679 -0.563146 0
M  V30 7555 C 703.66 1.73673 0.899837 0
M  V30 7556 O 704.866 2.34247 1.37262 0
M  V30 7557 C 703.322 3.46961 -0.95636 0
M  V30 7558 C 702.93 3.75724 -2.43999 0
M  V30 7559 C 704.674 4.19282 -0.663565 0
M  V30 7560 C 702.581 5.22378 -2.77263 0
M  V30 7561 H 701.511 0.725059 -0.206894 0
M  V30 7562 H 704.162 1.44743 -1.12791 0
M  V30 7563 H 702.544 3.94703 -0.320254 0
M  V30 7564 H 703.718 3.38741 -3.12396 0
M  V30 7565 H 702.033 3.16605 -2.70463 0
M  V30 7566 H 704.63 5.27265 -0.888596 0
M  V30 7567 H 704.973 4.14382 0.399198 0
M  V30 7568 H 705.506 3.7736 -1.25875 0
M  V30 7569 H 702.245 5.32367 -3.82446 0
M  V30 7570 H 701.765 5.6051 -2.13516 0
M  V30 7571 H 703.444 5.9025 -2.64979 0
M  V30 7572 N 703.576 0.692616 1.41565 0
M  V30 7573 C 704.987 0.297478 1.84315 0
M  V30 7574 C 705.338 -1.16379 1.57957 0
M  V30 7575 O 704.463 -1.89303 1.0485 0
M  V30 7576 C 705.058 0.533136 3.34579 0
M  V30 7577 C 703.617 0.191944 3.7591 0
M  V30 7578 C 702.764 0.816873 2.64995 0
M  V30 7579 H 705.715 0.893488 1.31158 0
M  V30 7580 H 705.736 -0.209105 3.79925 0
M  V30 7581 H 705.248 1.59674 3.53731 0
M  V30 7582 H 703.349 -0.867512 3.6236 0
M  V30 7583 H 703.462 0.644902 4.7474 0
M  V30 7584 H 701.826 0.246715 2.53502 0
M  V30 7585 H 702.609 1.88429 2.86966 0
M  V30 7586 N 705.054 -1.51416 0.437162 0
M  V30 7587 C 706.302 -2.01687 -0.129108 0
M  V30 7588 C 706.623 -1.32329 -1.43227 0
M  V30 7589 O 705.893 -0.457796 -1.90476 0
M  V30 7590 H 704.473 -0.745277 -0.0507023 0
M  V30 7591 H 707.135 -1.86075 0.579828 0
M  V30 7592 H 706.231 -3.10605 -0.305141 0
M  V30 7593 N 706.532 -0.168513 -1.56696 0
M  V30 7594 C 707.442 0.775435 -2.21414 0
M  V30 7595 C 708.458 1.25529 -1.20492 0
M  V30 7596 O 709.634 1.30801 -1.53144 0
M  V30 7597 C 706.699 1.9886 -2.83999 0
M  V30 7598 C 705.76 1.5559 -4.00113 0
M  V30 7599 C 704.993 2.71124 -4.59704 0
M  V30 7600 O 705.216 3.87917 -4.18182 0
M  V30 7601 O 704.15 2.4536 -5.4962 0
M  V30 7602 H 707.976 0.254416 -3.02632 0
M  V30 7603 H 705.561 0.0595507 -1.49281 0
M  V30 7604 H 707.443 2.69816 -3.23693 0
M  V30 7605 H 706.118 2.49874 -2.05779 0
M  V30 7606 H 705.025 0.815924 -3.65094 0
M  V30 7607 H 706.358 1.09271 -4.79917 0
M  V30 7608 N 708.01 1.57248 0.105221 0
M  V30 7609 C 709.259 1.84756 0.809198 0
M  V30 7610 C 709.572 0.756262 1.80389 0
M  V30 7611 O 710.778 0.918158 2.55504 0
M  V30 7612 C 709.234 3.27613 1.48989 0
M  V30 7613 C 708.842 4.44788 0.535484 0
M  V30 7614 C 710.586 3.64356 2.17819 0
M  V30 7615 C 708.493 5.78676 1.22019 0
M  V30 7616 H 707.423 0.689139 0.305946 0
M  V30 7617 H 710.074 1.83395 0.0620371 0
M  V30 7618 H 708.456 3.23485 2.28415 0
M  V30 7619 H 709.63 4.60243 -0.226557 0
M  V30 7620 H 707.945 4.16374 -0.0465769 0
M  V30 7621 H 710.542 4.61663 2.69761 0
M  V30 7622 H 710.885 2.92474 2.96251 0
M  V30 7623 H 711.418 3.70328 1.45264 0
M  V30 7624 H 708.157 6.53763 0.476875 0
M  V30 7625 H 707.677 5.67083 1.9539 0
M  V30 7626 H 709.356 6.22897 1.74952 0
M  V30 7627 N 709.488 -0.375779 1.53054 0
M  V30 7628 C 710.398 -1.48381 1.81715 0
M  V30 7629 C 711.414 -1.59087 0.704795 0
M  V30 7630 O 712.59 -1.75174 0.993785 0
M  V30 7631 C 709.655 -2.83767 1.99192 0
M  V30 7632 C 708.716 -2.82673 3.23102 0
M  V30 7633 C 707.949 -4.11601 3.39736 0
M  V30 7634 O 708.172 -5.07243 2.60885 0
M  V30 7635 O 707.106 -4.18034 4.33049 0
M  V30 7636 H 710.932 -1.27089 2.7583 0
M  V30 7637 H 708.517 -0.564902 1.38308 0
M  V30 7638 H 710.399 -3.64004 2.12318 0
M  V30 7639 H 709.074 -3.05057 1.08267 0
M  V30 7640 H 707.981 -2.0117 3.15407 0
M  V30 7641 H 709.314 -2.66335 4.13916 0
M  V30 7642 N 710.966 -1.44241 -0.634997 0
M  V30 7643 C 712.382 -1.28043 -0.952742 0
M  V30 7644 C 712.582 -0.21338 -2.00367 0
M  V30 7645 O 711.638 0.402042 -2.49279 0
M  V30 7646 C 712.951 -2.65076 -1.41968 0
M  V30 7647 C 714.499 -2.72755 -1.53537 0
M  V30 7648 C 714.974 -4.10249 -2.03616 0
M  V30 7649 N 716.465 -4.12406 -2.10892 0
M  V30 7650 C 717.2 -5.15641 -2.50803 0
M  V30 7651 N 716.696 -6.29239 -2.89879 0
M  V30 7652 N 718.489 -5.02995 -2.50903 0
M  V30 7653 H 710.64 -2.12315 0.060098 0
M  V30 7654 H 712.903 -0.947326 -0.0357325 0
M  V30 7655 H 712.609 -3.44213 -0.721804 0
M  V30 7656 H 712.483 -2.91704 -2.39141 0
M  V30 7657 H 714.87 -1.93939 -2.22422 0
M  V30 7658 H 714.951 -2.49872 -0.547496 0
M  V30 7659 H 714.595 -4.8954 -1.35327 0
M  V30 7660 H 714.525 -4.30507 -3.03268 0
M  V30 7661 H 717.016 -3.30417 -1.83393 0
M  V30 7662 H 717.329 -7.03827 -3.19135 0
M  V30 7663 H 715.674 -6.32683 -2.8764 0
M  V30 7664 H 718.865 -4.13306 -2.19763 0
M  V30 7665 H 719.038 -5.83574 -2.81683 0
M  V30 7666 N 712.444 0.87505 -1.31075 0
M  V30 7667 C 713.693 1.62245 -1.19831 0
M  V30 7668 C 714.006 1.94078 0.24357 0
M  V30 7669 O 715.212 2.67265 0.477646 0
M  V30 7670 C 713.668 2.92464 -2.09744 0
M  V30 7671 C 713.276 2.68134 -3.58898 0
M  V30 7672 C 715.02 3.70449 -2.07287 0
M  V30 7673 C 712.927 3.9423 -4.40836 0
M  V30 7674 H 711.857 0.608741 -0.444916 0
M  V30 7675 H 714.508 0.967947 -1.55894 0
M  V30 7676 H 712.89 3.59262 -1.66574 0
M  V30 7677 H 714.064 2.09776 -4.10281 0
M  V30 7678 H 712.379 2.03511 -3.6328 0
M  V30 7679 H 714.976 4.63983 -2.65752 0
M  V30 7680 H 715.319 4.02611 -1.05876 0
M  V30 7681 H 715.852 3.10528 -2.48631 0
M  V30 7682 H 712.591 3.67221 -5.42982 0
M  V30 7683 H 712.111 4.52058 -3.94213 0
M  V30 7684 H 713.79 4.62162 -4.52786 0
M  V30 7685 N 713.922 1.13953 1.08869 0
M  V30 7686 C 714.852 0.844824 2.17681 0
M  V30 7687 C 715.833 -0.198213 1.68941 0
M  V30 7688 O 717.018 -0.0559073 1.9412 0
M  V30 7689 C 714.148 0.316325 3.45856 0
M  V30 7690 C 713.102 1.29426 4.07962 0
M  V30 7691 C 712.428 0.625275 5.31031 0
M  V30 7692 C 713.728 2.65484 4.49795 0
M  V30 7693 H 715.422 1.75471 2.42591 0
M  V30 7694 H 712.968 0.845116 1.16592 0
M  V30 7695 H 714.921 0.0977876 4.21287 0
M  V30 7696 H 713.645 -0.628972 3.20486 0
M  V30 7697 H 712.304 1.49889 3.34558 0
M  V30 7698 H 711.952 -0.325678 5.01945 0
M  V30 7699 H 711.652 1.27777 5.73539 0
M  V30 7700 H 713.176 0.416152 6.0918 0
M  V30 7701 H 714.59 2.48957 5.16424 0
M  V30 7702 H 712.987 3.26963 5.03205 0
M  V30 7703 H 714.057 3.22717 3.61914 0
M  V30 7704 N 715.4 -1.26948 0.933913 0
M  V30 7705 C 716.348 -2.2862 0.428463 0
M  V30 7706 C 717.342 -1.62144 -0.490464 0
M  V30 7707 O 718.548 -1.76167 -0.36948 0
M  V30 7708 H 714.923 -0.742363 0.120003 0
M  V30 7709 H 716.894 -2.68659 1.29865 0
M  V30 7710 C 715.643 -3.46423 -0.29774 0
M  V30 7711 H 714.966 -3.97792 0.400183 0
M  V30 7712 H 716.406 -4.19505 -0.615736 0
M  V30 7713 C 714.865 -3.01017 -1.51295 0
M  V30 7714 O 715.395 -3.05226 -2.61151 0
M  V30 7715 N 713.601 -2.56442 -1.36696 0
M  V30 7716 H 713.148 -2.53217 -0.473178 0
M  V30 7717 H 713.106 -2.26424 -2.18127 0
M  V30 7718 N 716.879 -0.700114 -1.41195 0
M  V30 7719 C 718.104 -0.240704 -2.05998 0
M  V30 7720 C 718.529 1.10313 -1.52357 0
M  V30 7721 O 717.887 1.69154 -0.652424 0
M  V30 7722 C 717.935 -0.213783 -3.59966 0
M  V30 7723 O 717.039 0.809933 -4.04368 0
M  V30 7724 H 716.38 -0.116471 -0.653705 0
M  V30 7725 H 718.91 -0.956251 -1.80878 0
M  V30 7726 H 718.92 -0.0461852 -4.07974 0
M  V30 7727 H 717.595 -1.19454 -3.98376 0
M  V30 7728 H 716.172 0.611319 -3.67855 0
M  V30 7729 N 718.357 1.51182 -0.445186 0
M  V30 7730 C 719.603 2.02452 0.11882 0
M  V30 7731 C 719.936 1.32824 1.41673 0
M  V30 7732 O 719.211 0.445637 1.89326 0
M  V30 7733 C 719.494 3.5859 0.329475 0
M  V30 7734 C 719.347 4.38823 -0.987638 0
M  V30 7735 C 720.666 4.26241 1.09575 0
M  V30 7736 H 717.785 0.735819 0.0417092 0
M  V30 7737 H 720.427 1.80747 -0.585718 0
M  V30 7738 H 718.577 3.77214 0.9296 0
M  V30 7739 H 720.249 4.3183 -1.62235 0
M  V30 7740 H 718.492 4.03594 -1.59041 0
M  V30 7741 H 719.163 5.46257 -0.794192 0
M  V30 7742 H 721.639 4.11934 0.587328 0
M  V30 7743 H 720.515 5.35354 1.21191 0
M  V30 7744 H 720.776 3.87635 2.12584 0
M  V30 7745 N 719.835 0.176821 1.56605 0
M  V30 7746 C 721.083 -0.465793 1.96659 0
M  V30 7747 C 721.404 -1.63406 1.06412 0
M  V30 7748 O 720.674 -1.95457 0.131603 0
M  V30 7749 H 719.254 -0.175072 0.726195 0
M  V30 7750 H 721.916 0.25929 1.93168 0
M  V30 7751 H 721.012 -0.822138 3.01077 0
M  V30 7752 N 721.313 -1.57302 -0.09688 0
M  V30 7753 C 722.538 -1.9058 -0.818169 0
M  V30 7754 C 722.963 -0.770921 -1.71576 0
M  V30 7755 O 722.321 0.277588 -1.79162 0
M  V30 7756 C 722.369 -3.22714 -1.60898 0
M  V30 7757 O 721.473 -3.10178 -2.71779 0
M  V30 7758 H 720.814 -0.624759 -0.224882 0
M  V30 7759 H 723.344 -2.04471 -0.07264 0
M  V30 7760 H 723.354 -3.55978 -1.99358 0
M  V30 7761 H 722.029 -4.04899 -0.950227 0
M  V30 7762 H 720.606 -2.88424 -2.3636 0
M  V30 7763 N 722.791 0.367657 -1.53252 0
M  V30 7764 C 724.207 0.709191 -1.42978 0
M  V30 7765 C 724.407 1.93352 -0.567193 0
M  V30 7766 O 723.463 2.52453 -0.0488349 0
M  V30 7767 C 724.776 0.924338 -2.86141 0
M  V30 7768 C 726.324 1.02448 -2.95759 0
M  V30 7769 C 726.799 1.27211 -4.39979 0
M  V30 7770 N 728.29 1.33986 -4.43398 0
M  V30 7771 C 729.025 1.54852 -5.52095 0
M  V30 7772 N 728.521 1.73049 -6.7084 0
M  V30 7773 N 730.314 1.57205 -5.39669 0
M  V30 7774 H 722.465 -0.437669 -2.07842 0
M  V30 7775 H 724.728 -0.133737 -0.938519 0
M  V30 7776 H 724.434 0.0965455 -3.51567 0
M  V30 7777 H 724.308 1.83302 -3.29667 0
M  V30 7778 H 726.695 1.84282 -2.30487 0
M  V30 7779 H 726.776 0.0932301 -2.5563 0
M  V30 7780 H 726.42 0.458792 -5.05824 0
M  V30 7781 H 726.35 2.21654 -4.77679 0
M  V30 7782 H 728.841 1.21545 -3.5782 0
M  V30 7783 H 729.154 1.88538 -7.49449 0
M  V30 7784 H 727.499 1.70231 -6.7383 0
M  V30 7785 H 730.69 1.42555 -4.45865 0
M  V30 7786 H 730.863 1.73126 -6.24445 0
M  V30 7787 N 724.269 1.44576 0.627338 0
M  V30 7788 C 725.202 1.46206 1.75212 0
M  V30 7789 C 726.18 0.320483 1.5941 0
M  V30 7790 O 727.364 0.518028 1.81242 0
M  V30 7791 C 724.491 1.29834 3.12827 0
M  V30 7792 C 723.537 2.47603 3.47268 0
M  V30 7793 S 724.37 4.10125 3.44322 0
M  V30 7794 C 725.526 3.96183 4.84551 0
M  V30 7795 H 725.759 2.41378 1.73563 0
M  V30 7796 H 723.292 1.3192 0.802283 0
M  V30 7797 H 725.25 1.21075 3.92239 0
M  V30 7798 H 723.911 0.361662 3.12011 0
M  V30 7799 H 723.104 2.3202 4.47418 0
M  V30 7800 H 722.706 2.53121 2.75329 0
M  V30 7801 H 724.998 3.60107 5.73872 0
M  V30 7802 H 725.941 4.96176 5.05188 0
M  V30 7803 H 726.349 3.28177 4.59304 0
M  V30 7804 N 725.747 -0.868086 1.31537 0
M  V30 7805 C 726.995 -1.61807 1.21091 0
M  V30 7806 C 727.316 -1.93631 -0.230623 0
M  V30 7807 O 726.586 -1.5846 -1.15183 0
M  V30 7808 H 725.166 -0.599854 0.445178 0
M  V30 7809 H 727.828 -1.03915 1.64887 0
M  V30 7810 H 726.924 -2.56088 1.78396 0
M  V30 7811 N 727.225 -1.14528 -1.08264 0
M  V30 7812 C 728.45 -0.938381 -1.84957 0
M  V30 7813 C 728.875 0.508044 -1.81109 0
M  V30 7814 O 728.233 1.36146 -1.19724 0
M  V30 7815 C 728.281 -1.44568 -3.30352 0
M  V30 7816 O 727.385 -0.638745 -4.07423 0
M  V30 7817 H 726.726 -0.335394 -0.573068 0
M  V30 7818 H 729.256 -1.52287 -1.36637 0
M  V30 7819 H 729.266 -1.45449 -3.81194 0
M  V30 7820 H 727.941 -2.49876 -3.32468 0
M  V30 7821 H 726.518 -0.698801 -3.66294 0
M  V30 7822 N 728.703 1.26451 -0.940633 0
M  V30 7823 C 729.931 1.97868 -0.604642 0
M  V30 7824 C 730.346 1.70051 0.820251 0
M  V30 7825 O 729.703 0.96843 1.54686 0
M  V30 7826 C 729.754 3.51684 -0.836689 0
M  V30 7827 O 729.475 3.78533 -2.20554 0
M  V30 7828 C 730.976 4.40343 -0.511169 0
M  V30 7829 H 728.196 0.631105 -0.227919 0
M  V30 7830 H 730.74 1.60979 -1.26119 0
M  V30 7831 H 728.895 3.86736 -0.226759 0
M  V30 7832 H 729.309 4.73065 -2.26517 0
M  V30 7833 H 730.783 5.47229 -0.724157 0
M  V30 7834 H 731.26 4.35694 0.553815 0
M  V30 7835 H 731.866 4.10834 -1.0998 0
M  V30 7836 N 730.181 0.707592 1.40822 0
M  V30 7837 C 731.458 0.171172 1.9485 0
M  V30 7838 C 731.838 -1.32143 1.64625 0
M  V30 7839 O 731.186 -2.07372 0.959647 0
M  V30 7840 C 731.396 0.475334 3.45748 0
M  V30 7841 C 732.744 0.409625 4.22619 0
M  V30 7842 O 733.768 0.410934 3.53822 0
M  V30 7843 O 732.627 0.380185 5.45176 0
M  V30 7844 H 729.721 0.022015 0.826707 0
M  V30 7845 H 732.267 0.784577 1.50474 0
M  V30 7846 H 731.039 1.50801 3.61075 0
M  V30 7847 H 730.662 -0.168439 3.97243 0
M  V30 7848 N 731.66 -1.50943 0.453197 0
M  V30 7849 C 732.885 -2.07116 -0.108463 0
M  V30 7850 C 733.31 -1.31681 -1.3432 0
M  V30 7851 O 732.668 -0.359256 -1.77705 0
M  V30 7852 C 732.716 -3.58447 -0.393424 0
M  V30 7853 O 731.82 -3.85038 -1.47714 0
M  V30 7854 H 731.161 -0.66398 0.0050993 0
M  V30 7855 H 733.691 -1.94362 0.639095 0
M  V30 7856 H 733.701 -4.02961 -0.639222 0
M  V30 7857 H 732.376 -4.12774 0.508946 0
M  V30 7858 H 730.953 -3.52376 -1.22006 0
M  V30 7859 N 733.138 -0.185124 -1.56509 0
M  V30 7860 C 734.068 0.735098 -2.21627 0
M  V30 7861 C 735.049 1.2288 -1.1762 0
M  V30 7862 O 736.234 1.27945 -1.46095 0
M  V30 7863 C 733.364 1.95889 -2.86783 0
M  V30 7864 C 732.318 1.6005 -3.96948 0
M  V30 7865 C 731.644 2.90009 -4.4922 0
M  V30 7866 C 732.944 0.818008 -5.15855 0
M  V30 7867 H 734.638 0.192274 -2.98782 0
M  V30 7868 H 732.184 0.0910393 -1.43712 0
M  V30 7869 H 734.137 2.60779 -3.31017 0
M  V30 7870 H 732.861 2.52608 -2.07018 0
M  V30 7871 H 731.52 0.975237 -3.5339 0
M  V30 7872 H 731.168 3.44797 -3.6623 0
M  V30 7873 H 730.868 2.66778 -5.23549 0
M  V30 7874 H 732.392 3.55904 -4.9615 0
M  V30 7875 H 733.806 1.36979 -5.56695 0
M  V30 7876 H 732.203 0.684207 -5.96187 0
M  V30 7877 H 733.273 -0.182939 -4.84555 0
M  V30 7878 N 734.616 1.57351 0.0885366 0
M  V30 7879 C 735.564 2.03542 1.12576 0
M  V30 7880 C 736.558 0.937668 1.41082 0
M  V30 7881 O 737.764 1.12283 1.40686 0
M  V30 7882 H 734.139 0.648752 0.380296 0
M  V30 7883 H 736.11 2.89833 0.709906 0
M  V30 7884 C 734.859 2.4811 2.43591 0
M  V30 7885 H 734.182 3.32164 2.22502 0
M  V30 7886 H 735.622 2.842 3.14653 0
M  V30 7887 C 734.081 1.35708 3.08359 0
M  V30 7888 O 734.611 0.689852 3.95732 0
M  V30 7889 N 732.817 1.10641 2.68713 0
M  V30 7890 H 732.364 1.6508 1.97753 0
M  V30 7891 H 732.322 0.356355 3.12374 0
M  V30 7892 N 736.094 -0.359525 1.53444 0
M  V30 7893 C 737.041 -1.44073 1.8031 0
M  V30 7894 C 738.011 -1.52946 0.647811 0
M  V30 7895 O 739.196 -1.68739 0.890614 0
M  V30 7896 C 736.336 -2.80941 2.00416 0
M  V30 7897 C 735.449 -2.80986 3.28132 0
M  V30 7898 C 734.584 -4.09468 3.38393 0
M  V30 7899 C 733.623 -4.03679 4.60119 0
M  V30 7900 N 732.76 -5.23821 4.675 0
M  V30 7901 H 737.6 -1.20464 2.72566 0
M  V30 7902 H 735.137 -0.583859 1.35017 0
M  V30 7903 H 737.095 -3.60459 2.1006 0
M  V30 7904 H 735.725 -3.02936 1.11489 0
M  V30 7905 H 734.777 -1.93666 3.27411 0
M  V30 7906 H 736.089 -2.72583 4.17732 0
M  V30 7907 H 735.243 -4.97404 3.47382 0
M  V30 7908 H 733.982 -4.20632 2.4682 0
M  V30 7909 H 732.987 -3.14129 4.51224 0
M  V30 7910 H 734.212 -3.94112 5.5304 0
M  V30 7911 H 732.158 -5.35559 3.7883 0
M  V30 7912 H 732.075 -5.17611 5.51013 0
M  V30 7913 H 733.343 -6.13572 4.8078 0
M  V30 7914 N 737.572 -1.44907 -0.619662 0
M  V30 7915 C 738.8 -1.51795 -1.40591 0
M  V30 7916 C 739.215 -0.146553 -1.8823 0
M  V30 7917 O 738.572 0.849698 -1.61513 0
M  V30 7918 C 738.623 -2.49229 -2.61853 0
M  V30 7919 O 738.344 -3.81039 -2.16197 0
M  V30 7920 C 739.845 -2.65696 -3.54853 0
M  V30 7921 H 737.065 -0.514463 -0.430777 0
M  V30 7922 H 739.609 -1.8998 -0.756813 0
M  V30 7923 H 737.764 -2.14149 -3.2283 0
M  V30 7924 H 738.178 -4.33747 -2.94896 0
M  V30 7925 H 739.652 -3.37874 -4.36515 0
M  V30 7926 H 740.129 -1.71316 -4.0441 0
M  V30 7927 H 740.735 -3.01724 -2.99737 0
M  V30 7928 N 739.05 0.861098 -1.31996 0
M  V30 7929 C 739.998 1.99052 -1.20337 0
M  V30 7930 C 740.992 1.69045 -0.109623 0
M  V30 7931 O 742.198 1.77931 -0.272117 0
M  V30 7932 H 738.573 0.653064 -0.372843 0
M  V30 7933 H 740.544 2.06015 -2.15872 0
M  V30 7934 C 739.293 3.34846 -0.936663 0
M  V30 7935 H 738.616 3.58462 -1.77045 0
M  V30 7936 H 740.056 4.1444 -0.895302 0
M  V30 7937 C 738.515 3.34965 0.360607 0
M  V30 7938 O 739.045 3.7745 1.37456 0
M  V30 7939 N 737.251 2.88101 0.380296 0
M  V30 7940 H 736.798 2.53721 -0.445351 0
M  V30 7941 H 736.756 2.88563 1.24816 0
M  V30 7942 N 740.528 1.15101 1.07655 0
M  V30 7943 C 741.776 0.922149 1.79836 0
M  V30 7944 C 742.097 -0.552346 1.87014 0
M  V30 7945 O 741.367 -1.40145 1.3688 0
M  V30 7946 H 739.947 0.338182 0.666064 0
M  V30 7947 H 742.609 1.45107 1.30115 0
M  V30 7948 H 741.705 1.32883 2.82398 0
M  V30 7949 N 742.006 -1.2595 0.947325 0
M  V30 7950 C 743.254 -1.93081 0.596996 0
M  V30 7951 C 743.575 -1.74632 -0.867672 0
M  V30 7952 O 742.845 -1.1056 -1.6172 0
M  V30 7953 H 741.425 -0.714542 0.217805 0
M  V30 7954 H 744.087 -1.53265 1.20398 0
M  V30 7955 H 743.183 -3.01134 0.82004 0
M  V30 7956 N 743.484 -0.715051 -1.40445 0
M  V30 7957 C 744.724 -0.258742 -2.02756 0
M  V30 7958 C 745.088 1.12661 -1.55472 0
M  V30 7959 O 746.289 1.67988 -2.09842 0
M  V30 7960 C 744.56 -0.335201 -3.55825 0
M  V30 7961 S 746.119 0.044201 -4.38778 0
M  V30 7962 H 742.937 -0.102683 -0.703546 0
M  V30 7963 H 745.539 -0.937151 -1.71574 0
M  V30 7964 H 744.243 -1.34511 -3.87731 0
M  V30 7965 H 743.774 0.361705 -3.91734 0
M  V30 7966 H 745.789 1.26639 -4.79768 0
M  V30 7967 N 744.962 1.50701 -0.461195 0
M  V30 7968 C 746.187 2.07171 0.0974773 0
M  V30 7969 C 746.612 1.32391 1.3362 0
M  V30 7970 O 745.97 0.368676 1.77512 0
M  V30 7971 C 746.018 3.58651 0.374409 0
M  V30 7972 O 745.122 3.85816 1.4567 0
M  V30 7973 H 744.463 0.663944 -0.00862047 0
M  V30 7974 H 746.993 1.94021 -0.649394 0
M  V30 7975 H 747.003 4.03295 0.617843 0
M  V30 7976 H 745.678 4.12498 -0.530829 0
M  V30 7977 H 744.255 3.53018 1.20136 0
M  V30 7978 N 746.441 0.193421 1.56409 0
M  V30 7979 C 747.669 -0.451438 2.01915 0
M  V30 7980 C 748.084 -1.55306 1.07357 0
M  V30 7981 O 747.441 -1.82333 0.0781512 0
M  V30 7982 C 747.492 -1.00931 3.47124 0
M  V30 7983 O 747.213 0.0483623 4.38073 0
M  V30 7984 C 748.714 -1.73021 4.0814 0
M  V30 7985 H 745.934 -0.113495 0.661332 0
M  V30 7986 H 748.478 0.301636 2.02263 0
M  V30 7987 H 746.633 -1.71277 3.47481 0
M  V30 7988 H 747.047 -0.366644 5.23217 0
M  V30 7989 H 748.521 -2.07289 5.11601 0
M  V30 7990 H 748.998 -2.6333 3.51502 0
M  V30 7991 H 749.604 -1.07264 4.11551 0
M  V30 7992 N 747.919 -1.57396 -0.0801906 0
M  V30 7993 C 748.829 -2.06451 -1.11423 0
M  V30 7994 C 749.845 -0.992352 -1.42928 0
M  V30 7995 O 751.021 -1.30651 -1.53272 0
M  V30 7996 C 748.086 -2.49164 -2.41077 0
M  V30 7997 C 747.147 -3.70641 -2.16619 0
M  V30 7998 C 746.38 -4.11307 -3.40092 0
M  V30 7999 O 746.603 -3.51922 -4.48895 0
M  V30 8000 O 745.537 -5.04157 -3.288 0
M  V30 8001 H 749.363 -2.94857 -0.727519 0
M  V30 8002 H 746.948 -1.46484 -0.293743 0
M  V30 8003 H 748.83 -2.77196 -3.17396 0
M  V30 8004 H 747.505 -1.6389 -2.79145 0
M  V30 8005 H 746.412 -3.47703 -1.38033 0
M  V30 8006 H 747.745 -4.5674 -1.83437 0
M  V30 8007 N 749.397 0.351382 -1.53633 0
M  V30 8008 C 750.344 1.43115 -1.81071 0
M  V30 8009 C 751.314 1.52601 -0.655913 0
M  V30 8010 O 752.499 1.68264 -0.89955 0
M  V30 8011 C 749.639 2.79874 -2.01903 0
M  V30 8012 C 748.752 2.79242 -3.29618 0
M  V30 8013 C 747.887 4.07667 -3.40559 0
M  V30 8014 C 746.926 4.01233 -4.62254 0
M  V30 8015 N 746.063 5.21334 -4.70271 0
M  V30 8016 H 750.903 1.19017 -2.73201 0
M  V30 8017 H 748.44 0.576691 -1.35324 0
M  V30 8018 H 750.398 3.5934 -2.11969 0
M  V30 8019 H 749.028 3.0234 -1.13094 0
M  V30 8020 H 748.08 1.91927 -3.28433 0
M  V30 8021 H 749.392 2.70363 -4.19172 0
M  V30 8022 H 748.546 4.95555 -3.50015 0
M  V30 8023 H 747.285 4.19317 -2.49047 0
M  V30 8024 H 746.29 3.11732 -4.52884 0
M  V30 8025 H 747.515 3.91173 -5.55122 0
M  V30 8026 H 745.461 5.33543 -3.81665 0
M  V30 8027 H 745.378 5.14681 -5.5375 0
M  V30 8028 H 746.646 6.11014 -4.84027 0
M  V30 8029 N 750.875 1.45233 0.611969 0
M  V30 8030 C 752.1 1.52767 1.40274 0
M  V30 8031 C 752.525 0.159701 1.87421 0
M  V30 8032 O 751.883 -0.854837 1.59882 0
M  V30 8033 C 751.931 2.51286 2.58626 0
M  V30 8034 O 751.035 2.02764 3.59111 0
M  V30 8035 H 750.376 0.515141 0.418958 0
M  V30 8036 H 752.906 1.90547 0.745188 0
M  V30 8037 H 752.916 2.69949 3.05927 0
M  V30 8038 H 751.591 3.50641 2.23659 0
M  V30 8039 H 750.168 1.93957 3.18489 0
M  V30 8040 N 752.353 -0.854086 1.3245 0
M  V30 8041 C 753.769 -1.14238 1.11453 0
M  V30 8042 C 753.969 -2.01228 -0.10461 0
M  V30 8043 O 753.025 -2.39845 -0.789339 0
M  V30 8044 C 754.338 -1.81916 2.39431 0
M  V30 8045 C 755.886 -1.94549 2.45193 0
M  V30 8046 C 756.361 -2.65642 3.73093 0
M  V30 8047 N 757.852 -2.73167 3.74078 0
M  V30 8048 C 758.587 -3.28828 4.69744 0
M  V30 8049 N 758.083 -3.85295 5.75778 0
M  V30 8050 N 759.876 -3.26936 4.57241 0
M  V30 8051 H 752.027 -0.274786 2.10615 0
M  V30 8052 H 754.29 -0.184375 0.929898 0
M  V30 8053 H 753.996 -1.25452 3.28565 0
M  V30 8054 H 753.87 -2.82068 2.50434 0
M  V30 8055 H 756.257 -2.50172 1.56518 0
M  V30 8056 H 756.338 -0.933914 2.38142 0
M  V30 8057 H 755.982 -2.10683 4.62142 0
M  V30 8058 H 755.912 -3.6724 3.77415 0
M  V30 8059 H 758.403 -2.33108 2.97438 0
M  V30 8060 H 758.716 -4.25925 6.44832 0
M  V30 8061 H 757.061 -3.83625 5.79531 0
M  V30 8062 H 760.252 -2.8207 3.7357 0
M  V30 8063 H 760.425 -3.70014 5.31971 0
M  V30 8064 N 753.831 -1.1567 -1.07043 0
M  V30 8065 C 754.778 -0.856336 -2.14326 0
M  V30 8066 C 755.748 0.192051 -1.64986 0
M  V30 8067 O 756.933 0.0589148 -1.90709 0
M  V30 8068 C 754.073 -0.355227 -3.43267 0
M  V30 8069 C 753.186 -1.46555 -4.06381 0
M  V30 8070 C 752.321 -0.920245 -5.23168 0
M  V30 8071 C 751.36 -2.00729 -5.78251 0
M  V30 8072 N 750.497 -1.47813 -6.86364 0
M  V30 8073 H 755.337 -1.77514 -2.39359 0
M  V30 8074 H 752.874 -0.885676 -1.17449 0
M  V30 8075 H 754.832 -0.0463804 -4.17174 0
M  V30 8076 H 753.462 0.526649 -3.18475 0
M  V30 8077 H 752.514 -1.89052 -3.30096 0
M  V30 8078 H 753.826 -2.28616 -4.43324 0
M  V30 8079 H 752.98 -0.564127 -6.04072 0
M  V30 8080 H 751.719 -0.0688477 -4.87651 0
M  V30 8081 H 750.724 -2.3722 -4.95991 0
M  V30 8082 H 751.949 -2.86252 -6.15822 0
M  V30 8083 H 749.895 -0.649145 -6.5278 0
M  V30 8084 H 749.812 -2.23498 -7.22208 0
M  V30 8085 H 751.08 -1.15036 -7.70965 0
M  V30 8086 O 755.348 1.19707 -1.08409 0
M  V30 8087 H 756.039 1.77498 -0.775504 0
M  V30 END ATOM
M  V30 BEGIN BOND
M  V30 END BOND
M  V30 END CTAB
M  END
$$$$
